# generated using pymatgen
data_YbSF
_symmetry_space_group_name_H-M   'P 1'
_cell_length_a   4.09175048
_cell_length_b   4.09175048
_cell_length_c   17.54212000
_cell_angle_alpha   90.00000000
_cell_angle_beta   90.00000000
_cell_angle_gamma   120.00000776
_symmetry_Int_Tables_number   1
_chemical_formula_structural   YbSF
_chemical_formula_sum   'Yb4 S4 F4'
_cell_volume   254.34954164
_cell_formula_units_Z   4
loop_
 _symmetry_equiv_pos_site_id
 _symmetry_equiv_pos_as_xyz
  1  'x, y, z'
loop_
 _atom_site_type_symbol
 _atom_site_label
 _atom_site_symmetry_multiplicity
 _atom_site_fract_x
 _atom_site_fract_y
 _atom_site_fract_z
 _atom_site_occupancy
  Yb  Yb0  1  0.33333300  0.66666700  0.25000000  1
  Yb  Yb1  1  0.66666700  0.33333300  0.75000000  1
  Yb  Yb2  1  0.00000000  0.00000000  0.00000000  1
  Yb  Yb3  1  0.00000000  0.00000000  0.50000000  1
  S  S0  1  0.33333300  0.66666700  0.07916800  1
  S  S1  1  0.66666700  0.33333300  0.92083200  1
  S  S2  1  0.66666700  0.33333300  0.57916800  1
  S  S3  1  0.33333300  0.66666700  0.42083200  1
  F  F0  1  0.33333300  0.66666700  0.75000000  1
  F  F1  1  0.66666700  0.33333300  0.25000000  1
  F  F2  1  0.00000000  0.00000000  0.25000000  1
  F  F3  1  0.00000000  0.00000000  0.75000000  1
loop_
_geom_bond_atom_site_label_1
_geom_bond_atom_site_label_2
_geom_bond_distance
_geom_bond_site_symmetry_2
S0 Yb2 2.740345 1_565
S0 Yb2 2.740348 1_665
S0 Yb2 2.740348 1_555
S0 Yb0 2.996755 1_555
S1 Yb2 2.740345 1_656
S1 Yb2 2.740348 1_666
S1 Yb2 2.740348 1_556
S1 Yb1 2.996755 1_555
S2 Yb3 2.740345 1_655
S2 Yb3 2.740348 1_665
S2 Yb3 2.740348 1_555
S2 Yb1 2.996755 1_555
S3 Yb3 2.740345 1_565
S3 Yb3 2.740348 1_665
S3 Yb3 2.740348 1_555
S3 Yb0 2.996755 1_555
F0 Yb1 2.362371 1_455
F0 Yb1 2.362371 1_565
F0 Yb1 2.362378 1_555
F1 Yb0 2.362371 1_545
F1 Yb0 2.362371 1_655
F1 Yb0 2.362378 1_555
F2 Yb0 2.362371 1_545
F2 Yb0 2.362374 1_555
F2 Yb0 2.362374 1_445
F3 Yb1 2.362371 1_455
F3 Yb1 2.362374 1_445
F3 Yb1 2.362374 1_555
