# generated using pymatgen
data_Ba2LiEu(CuO2)4
_symmetry_space_group_name_H-M   'P 1'
_cell_length_a   3.87294100
_cell_length_b   3.92498904
_cell_length_c   15.75950335
_cell_angle_alpha   97.14277999
_cell_angle_beta   90.00000000
_cell_angle_gamma   90.00000000
_symmetry_Int_Tables_number   1
_chemical_formula_structural   Ba2LiEu(CuO2)4
_chemical_formula_sum   'Ba2 Li1 Eu1 Cu4 O8'
_cell_volume   237.70499787
_cell_formula_units_Z   1
loop_
 _symmetry_equiv_pos_site_id
 _symmetry_equiv_pos_as_xyz
  1  'x, y, z'
loop_
 _atom_site_type_symbol
 _atom_site_label
 _atom_site_symmetry_multiplicity
 _atom_site_fract_x
 _atom_site_fract_y
 _atom_site_fract_z
 _atom_site_occupancy
  Ba  Ba0  1  0.50000000  0.32944600  0.66175800  1
  Ba  Ba1  1  0.50000000  0.63806300  0.27651000  1
  Li  Li0  1  0.50000000  0.43908300  0.87351900  1
  Eu  Eu0  1  0.50000000  0.51912200  0.03893000  1
  Cu  Cu0  1  0.00000000  0.07057900  0.14179400  1
  Cu  Cu1  1  0.00000000  0.95637400  0.90988200  1
  Cu  Cu2  1  0.00000000  0.20669700  0.41377500  1
  Cu  Cu3  1  0.00000000  0.77072200  0.54285200  1
  O  O0  1  0.00000000  0.14774700  0.29570800  1
  O  O1  1  0.00000000  0.83059200  0.66367700  1
  O  O2  1  0.00000000  0.45912200  0.91549100  1
  O  O3  1  0.00000000  0.56433400  0.12947200  1
  O  O4  1  0.00000000  0.26738700  0.53596300  1
  O  O5  1  0.00000000  0.71081300  0.42206200  1
  O  O6  1  0.50000000  0.06408700  0.12899500  1
  O  O7  1  0.50000000  0.95916500  0.91535400  1
loop_
_geom_bond_atom_site_label_1
_geom_bond_atom_site_label_2
_geom_bond_distance
_geom_bond_site_symmetry_2
Ba0 O1 2.756684 1_545
Ba0 O1 2.756684 1_645
Ba0 O1 2.757734 1_555
Ba0 O1 2.757734 1_655
Ba0 O4 2.760315 1_555
Ba0 O4 2.760315 1_655
Ba1 O0 2.773066 1_555
Ba1 O0 2.773066 1_655
Ba1 O0 2.773618 1_565
Ba1 O0 2.773618 1_665
Ba1 O5 2.988346 1_655
Ba1 O5 2.988346 1_555
Ba1 O3 3.006082 1_555
Ba1 O3 3.006082 1_655
Ba1 O6 3.027754 1_565
Ba1 O6 3.029424 1_555
Li0 O2 2.044674 1_555
Li0 O2 2.044674 1_655
Li0 O7 2.065661 1_555
Li0 O7 2.071652 1_545
Eu0 O3 2.398848 1_655
Eu0 O3 2.398848 1_555
Eu0 O6 2.415547 1_565
Eu0 O6 2.415550 1_555
Eu0 Li0 2.586584 1_554
Eu0 O2 2.734188 1_654
Eu0 O2 2.734188 1_554
Eu0 O7 2.749317 1_544
Eu0 O7 2.759044 1_554
Cu0 O6 1.946786 1_455
Cu0 O6 1.946786 1_555
Cu0 O3 1.971567 1_555
Cu0 O3 1.972295 1_545
Cu0 O0 2.406784 1_555
Cu1 O7 1.938360 1_555
Cu1 O7 1.938360 1_455
Cu1 O2 1.964248 1_565
Cu1 O2 1.964659 1_555
Cu2 O0 1.846237 1_555
Cu2 O4 1.910679 1_555
Cu2 O5 1.966685 1_555
Cu2 O5 1.966852 1_545
Cu3 O5 1.888818 1_555
Cu3 O1 1.889365 1_555
Cu3 O4 1.965040 1_555
Cu3 O4 1.965858 1_565
