# generated using pymatgen
data_TiNbFeO6
_symmetry_space_group_name_H-M   'P 1'
_cell_length_a   4.72178600
_cell_length_b   4.72178500
_cell_length_c   18.21606800
_cell_angle_alpha   90.00001843
_cell_angle_beta   90.00004314
_cell_angle_gamma   90.00019415
_symmetry_Int_Tables_number   1
_chemical_formula_structural   TiNbFeO6
_chemical_formula_sum   'Ti4 Nb4 Fe4 O24'
_cell_volume   406.13194142
_cell_formula_units_Z   4
loop_
 _symmetry_equiv_pos_site_id
 _symmetry_equiv_pos_as_xyz
  1  'x, y, z'
loop_
 _atom_site_type_symbol
 _atom_site_label
 _atom_site_symmetry_multiplicity
 _atom_site_fract_x
 _atom_site_fract_y
 _atom_site_fract_z
 _atom_site_occupancy
  Ti  Ti0  1  0.50000200  0.50000100  0.24987400  1
  Ti  Ti1  1  0.50000000  0.50000000  0.74986500  1
  Ti  Ti2  1  0.99999900  0.99999900  0.49984500  1
  Ti  Ti3  1  0.00000300  0.00000000  0.99985900  1
  Nb  Nb0  1  0.50000000  0.50000100  0.41712600  1
  Nb  Nb1  1  0.49999700  0.49999800  0.91711300  1
  Nb  Nb2  1  0.00000100  0.00000200  0.16710000  1
  Nb  Nb3  1  0.00000200  0.00000000  0.66710100  1
  Fe  Fe0  1  0.49999400  0.49999000  0.58412500  1
  Fe  Fe1  1  0.99997600  0.99998600  0.83409600  1
  Fe  Fe2  1  0.50000000  0.50000600  0.08412000  1
  Fe  Fe3  1  0.00000200  0.00000300  0.33406700  1
  O  O0  1  0.19305500  0.80694600  0.08205200  1
  O  O1  1  0.19305200  0.80695100  0.58204800  1
  O  O2  1  0.80694800  0.19305500  0.08205200  1
  O  O3  1  0.80695100  0.19305100  0.58204800  1
  O  O4  1  0.30694200  0.30694300  0.33205800  1
  O  O5  1  0.30694800  0.30694900  0.83206300  1
  O  O6  1  0.69306000  0.69305700  0.33205800  1
  O  O7  1  0.69305300  0.69305300  0.83206300  1
  O  O8  1  0.20067500  0.79932800  0.24852300  1
  O  O9  1  0.20067900  0.79932300  0.74852500  1
  O  O10  1  0.79932700  0.20067400  0.24852300  1
  O  O11  1  0.79932200  0.20067800  0.74852500  1
  O  O12  1  0.29936000  0.29936000  0.99854300  1
  O  O13  1  0.29936100  0.29936000  0.49853600  1
  O  O14  1  0.70064400  0.70064300  0.99854300  1
  O  O15  1  0.70064000  0.70064000  0.49853600  1
  O  O16  1  0.19537000  0.80463200  0.41886100  1
  O  O17  1  0.19537200  0.80463000  0.91886900  1
  O  O18  1  0.80463200  0.19536900  0.41886100  1
  O  O19  1  0.80463000  0.19537200  0.91886900  1
  O  O20  1  0.30460500  0.30460600  0.16888600  1
  O  O21  1  0.30460400  0.30460500  0.66888600  1
  O  O22  1  0.69539700  0.69539500  0.16888600  1
  O  O23  1  0.69539600  0.69539500  0.66888600  1
loop_
_geom_bond_atom_site_label_1
_geom_bond_atom_site_label_2
_geom_bond_distance
_geom_bond_site_symmetry_2
Nb0 O15 1.998559 1_555
Nb0 O13 1.998562 1_555
Nb0 O4 2.015742 1_555
Nb0 O6 2.015744 1_555
Nb0 O16 2.034454 1_555
Nb0 O18 2.034464 1_555
Nb1 O12 1.998821 1_555
Nb1 O14 1.998858 1_555
Nb1 O5 2.015452 1_555
Nb1 O7 2.015481 1_555
Nb1 O17 2.034446 1_555
Nb1 O19 2.034453 1_555
Nb2 O10 1.998888 1_455
Nb2 O8 1.998892 1_545
Nb2 O2 2.015444 1_455
Nb2 O0 2.015453 1_545
Nb2 O20 2.034284 1_555
Nb2 O22 2.034294 1_445
Nb3 O9 1.998919 1_545
Nb3 O11 1.998929 1_455
Nb3 O1 2.015500 1_545
Nb3 O3 2.015505 1_455
Nb3 O21 2.034281 1_555
Nb3 O23 2.034294 1_445
Fe0 O21 2.021453 1_555
Fe0 O23 2.021520 1_555
Fe0 O3 2.050033 1_555
Fe0 O1 2.050056 1_555
Fe0 O13 2.055643 1_555
Fe0 O15 2.055717 1_555
Fe1 O19 2.021529 1_565
Fe1 O17 2.021572 1_655
Fe1 O7 2.049877 1_555
Fe1 O5 2.050141 1_665
Fe1 O11 2.055579 1_565
Fe1 O9 2.055623 1_655
Fe2 O22 2.021544 1_555
Fe2 O20 2.021565 1_555
Fe2 O0 2.049993 1_555
Fe2 O2 2.050040 1_555
Fe2 O14 2.055518 1_554
Fe2 O12 2.055528 1_554
Fe3 O18 2.021830 1_455
Fe3 O16 2.021836 1_545
Fe3 O4 2.049950 1_555
Fe3 O6 2.049976 1_445
Fe3 O10 2.055206 1_455
Fe3 O8 2.055211 1_545
O0 Ti3 1.975747 1_564
O1 Ti2 1.975874 1_455
O2 Ti3 1.975756 1_654
O3 Ti2 1.975873 1_545
O4 Ti0 1.975647 1_555
O5 Ti1 1.975808 1_555
O6 Ti0 1.975637 1_555
O7 Ti1 1.975813 1_555
O8 Ti0 1.998945 1_555
O9 Ti1 1.998909 1_555
O10 Ti0 1.998938 1_555
O11 Ti1 1.998909 1_555
O12 Ti3 1.999141 1_555
O13 Ti2 1.999159 1_445
O14 Ti3 1.999137 1_665
O15 Ti2 1.999142 1_555
O16 Ti2 1.969322 1_455
O17 Ti3 1.969406 1_565
O18 Ti2 1.969319 1_545
O19 Ti3 1.969419 1_655
O20 Ti0 1.969492 1_555
O21 Ti1 1.969367 1_555
O22 Ti0 1.969487 1_555
O23 Ti1 1.969369 1_555
