# generated using pymatgen
data_FeBiO3
_symmetry_space_group_name_H-M   'P 1'
_cell_length_a   5.61153168
_cell_length_b   7.94478500
_cell_length_c   9.81426749
_cell_angle_alpha   113.87589743
_cell_angle_beta   106.91210572
_cell_angle_gamma   90.00000000
_symmetry_Int_Tables_number   1
_chemical_formula_structural   FeBiO3
_chemical_formula_sum   'Fe6 Bi6 O18'
_cell_volume   379.31444175
_cell_formula_units_Z   6
loop_
 _symmetry_equiv_pos_site_id
 _symmetry_equiv_pos_as_xyz
  1  'x, y, z'
loop_
 _atom_site_type_symbol
 _atom_site_label
 _atom_site_symmetry_multiplicity
 _atom_site_fract_x
 _atom_site_fract_y
 _atom_site_fract_z
 _atom_site_occupancy
  Fe  Fe0  1  0.00000000  0.00000000  0.50000000  1
  Fe  Fe1  1  0.00000000  0.50000000  0.50000000  1
  Fe  Fe2  1  0.67488200  0.17015800  0.83334200  1
  Fe  Fe3  1  0.67488200  0.66318400  0.83334200  1
  Fe  Fe4  1  0.32511800  0.82984200  0.16665800  1
  Fe  Fe5  1  0.32511800  0.33681600  0.16665800  1
  Bi  Bi0  1  0.46819000  0.24893000  0.49786100  1
  Bi  Bi1  1  0.53181000  0.75107000  0.50213900  1
  Bi  Bi2  1  0.21532600  0.41740400  0.83480700  1
  Bi  Bi3  1  0.78467400  0.58259600  0.16519300  1
  Bi  Bi4  1  0.20497500  0.91505100  0.83010200  1
  Bi  Bi5  1  0.79502500  0.08494900  0.16989800  1
  O  O0  1  0.58004200  0.38432500  0.76865000  1
  O  O1  1  0.41995800  0.61567500  0.23135000  1
  O  O2  1  0.00000000  0.28742400  0.00000000  1
  O  O3  1  0.00000000  0.71257600  0.00000000  1
  O  O4  1  0.76441200  0.04934600  0.63596900  1
  O  O5  1  0.76441200  0.58662300  0.63596900  1
  O  O6  1  0.23558800  0.95065400  0.36403100  1
  O  O7  1  0.23558800  0.41337700  0.36403100  1
  O  O8  1  0.70702000  0.94189500  0.30332800  1
  O  O9  1  0.70702000  0.36143300  0.30332800  1
  O  O10  1  0.29298000  0.05810500  0.69667200  1
  O  O11  1  0.29298000  0.63856700  0.69667200  1
  O  O12  1  0.50000000  0.32046800  0.00000000  1
  O  O13  1  0.50000000  0.67953200  0.00000000  1
  O  O14  1  0.63184700  0.94316300  0.88632600  1
  O  O15  1  0.36815300  0.05683700  0.11367400  1
  O  O16  1  0.08204800  0.26898800  0.53797600  1
  O  O17  1  0.91795200  0.73101200  0.46202400  1
loop_
_geom_bond_atom_site_label_1
_geom_bond_atom_site_label_2
_geom_bond_distance
_geom_bond_site_symmetry_2
Fe0 O8 2.018440 1_445
Fe0 O10 2.018440 1_555
Fe0 O16 2.042859 1_555
Fe0 O17 2.042859 1_445
Fe0 O4 2.070028 1_455
Fe0 O6 2.070028 1_545
Fe1 O9 2.018440 1_455
Fe1 O11 2.018440 1_555
Fe1 O16 2.042859 1_555
Fe1 O17 2.042859 1_455
Fe1 O5 2.070028 1_455
Fe1 O7 2.070028 1_555
Fe2 O2 1.975350 1_656
Fe2 O4 1.996756 1_555
Fe2 O0 2.063832 1_555
Fe2 O14 2.100779 1_545
Fe2 O12 2.101692 1_556
Fe2 O10 2.131968 1_555
Fe3 O3 1.975350 1_656
Fe3 O5 1.996756 1_555
Fe3 O0 2.063832 1_555
Fe3 O14 2.100779 1_555
Fe3 O13 2.101692 1_556
Fe3 O11 2.131968 1_555
Fe4 O3 1.975350 1_555
Fe4 O6 1.996756 1_555
Fe4 O1 2.063832 1_555
Fe4 O15 2.100779 1_565
Fe4 O13 2.101692 1_555
Fe4 O8 2.131968 1_555
Fe5 O2 1.975350 1_555
Fe5 O7 1.996756 1_555
Fe5 O1 2.063832 1_555
Fe5 O15 2.100779 1_555
Fe5 O12 2.101692 1_555
Fe5 O9 2.131968 1_555
Bi0 O16 2.306766 1_555
Bi0 O0 2.308503 1_555
Bi0 O6 2.351046 1_545
Bi0 O7 2.351052 1_555
Bi0 O4 2.746555 1_555
Bi0 O5 2.746561 1_555
Bi1 O17 2.306766 1_555
Bi1 O1 2.308503 1_555
Bi1 O4 2.351046 1_565
Bi1 O5 2.351052 1_555
Bi1 O6 2.746555 1_555
Bi1 O7 2.746561 1_555
Bi2 O13 2.297245 1_556
Bi2 O12 2.297250 1_556
Bi2 O0 2.305269 1_555
Bi2 O16 2.527448 1_555
Bi2 O11 2.717940 1_555
Bi2 O10 2.717946 1_555
Bi2 O3 2.765838 1_556
Bi2 O2 2.765843 1_556
Bi3 O12 2.297245 1_555
Bi3 O13 2.297250 1_555
Bi3 O1 2.305269 1_555
Bi3 O17 2.527448 1_555
Bi3 O9 2.717940 1_555
Bi3 O8 2.717946 1_555
Bi3 O2 2.765838 1_655
Bi3 O3 2.765843 1_655
Bi4 O11 2.198064 1_555
Bi4 O10 2.198064 1_565
Bi4 O14 2.285507 1_555
Bi4 O15 2.415008 1_566
Bi5 O9 2.198064 1_555
Bi5 O8 2.198064 1_545
Bi5 O15 2.285507 1_555
Bi5 O14 2.415008 1_544
