# generated using pymatgen
data_Li2BF5
_symmetry_space_group_name_H-M   'P 1'
_cell_length_a   7.10237439
_cell_length_b   7.10237439
_cell_length_c   7.10237439
_cell_angle_alpha   136.58353588
_cell_angle_beta   136.58353588
_cell_angle_gamma   63.07945826
_symmetry_Int_Tables_number   1
_chemical_formula_structural   Li2BF5
_chemical_formula_sum   'Li4 B2 F10'
_cell_volume   167.09908024
_cell_formula_units_Z   2
loop_
 _symmetry_equiv_pos_site_id
 _symmetry_equiv_pos_as_xyz
  1  'x, y, z'
loop_
 _atom_site_type_symbol
 _atom_site_label
 _atom_site_symmetry_multiplicity
 _atom_site_fract_x
 _atom_site_fract_y
 _atom_site_fract_z
 _atom_site_occupancy
  Li  Li0  1  0.37500000  0.12500000  0.75000000  1
  Li  Li1  1  0.87500000  0.62500000  0.25000000  1
  Li  Li2  1  0.37500000  0.62500000  0.75000000  1
  Li  Li3  1  0.37500000  0.62500000  0.25000000  1
  B  B0  1  0.00000000  0.00000000  0.00000000  1
  B  B1  1  0.75000000  0.25000000  0.50000000  1
  F  F0  1  0.25000000  0.75000000  0.50000000  1
  F  F1  1  0.50000000  0.50000000  0.00000000  1
  F  F2  1  0.06661900  0.84492500  0.77830700  1
  F  F3  1  0.59492500  0.31661900  0.27830700  1
  F  F4  1  0.03831200  0.31661900  0.72169300  1
  F  F5  1  0.06661900  0.28831200  0.22169300  1
  F  F6  1  0.68338100  0.40507500  0.72169300  1
  F  F7  1  0.15507500  0.93338100  0.22169300  1
  F  F8  1  0.71168800  0.93338100  0.77830700  1
  F  F9  1  0.68338100  0.96168800  0.27830700  1
loop_
_geom_bond_atom_site_label_1
_geom_bond_atom_site_label_2
_geom_bond_distance
_geom_bond_site_symmetry_2
B0 F2 1.416755 1_544
B0 F7 1.416755 1_545
B0 F5 1.416756 1_555
B0 F8 1.416756 1_444
B1 F6 1.416755 1_555
B1 F3 1.416755 1_555
B1 F9 1.416756 1_545
B1 F4 1.416756 1_655
F0 Li0 2.003844 1_565
F0 Li2 2.003844 1_555
F0 Li1 2.003844 1_455
F0 Li3 2.003844 1_555
F1 Li0 2.003844 1_554
F1 Li2 2.003844 1_554
F1 Li1 2.003844 1_555
F1 Li3 2.003844 1_555
F2 Li2 2.088780 1_555
F2 Li1 2.088784 1_455
F3 Li3 2.088780 1_555
F3 Li0 2.088784 1_554
F4 Li0 2.088782 1_555
F4 Li3 2.088782 1_556
F5 Li1 2.088782 1_455
F5 Li2 2.088782 1_555
F6 Li2 2.088780 1_555
F6 Li1 2.088784 1_556
F7 Li3 2.088780 1_555
F7 Li0 2.088784 1_565
F8 Li3 2.088782 1_555
F8 Li0 2.088782 1_565
F9 Li2 2.088782 1_554
F9 Li1 2.088782 1_555
