# generated using pymatgen
data_Na3TaN2
_symmetry_space_group_name_H-M   'P 1'
_cell_length_a   10.00798100
_cell_length_b   11.55622145
_cell_length_c   11.55622216
_cell_angle_alpha   90.00000169
_cell_angle_beta   125.26438983
_cell_angle_gamma   54.73560769
_symmetry_Int_Tables_number   1
_chemical_formula_structural   Na3TaN2
_chemical_formula_sum   'Na24 Ta8 N16'
_cell_volume   771.64503445
_cell_formula_units_Z   8
loop_
 _symmetry_equiv_pos_site_id
 _symmetry_equiv_pos_as_xyz
  1  'x, y, z'
loop_
 _atom_site_type_symbol
 _atom_site_label
 _atom_site_symmetry_multiplicity
 _atom_site_fract_x
 _atom_site_fract_y
 _atom_site_fract_z
 _atom_site_occupancy
  Na  Na0  1  0.19223100  0.06870600  0.96660100  1
  Na  Na1  1  0.80776900  0.76093700  0.53339900  1
  Na  Na2  1  0.80776900  0.43129400  0.77437000  1
  Na  Na3  1  0.19223100  0.73906300  0.72563000  1
  Na  Na4  1  0.25902900  0.77437000  0.29433600  1
  Na  Na5  1  0.74097100  0.72563000  0.03530600  1
  Na  Na6  1  0.25902900  0.96660100  0.46469400  1
  Na  Na7  1  0.74097100  0.53339900  0.20566400  1
  Na  Na8  1  0.67035800  0.03530600  0.73906300  1
  Na  Na9  1  0.67035800  0.29433600  0.43129400  1
  Na  Na10  1  0.32964200  0.20566400  0.76093700  1
  Na  Na11  1  0.32964200  0.46469400  0.06870600  1
  Na  Na12  1  0.80776900  0.93129400  0.03339900  1
  Na  Na13  1  0.19223100  0.23906300  0.46660100  1
  Na  Na14  1  0.19223100  0.56870600  0.22563000  1
  Na  Na15  1  0.80776900  0.26093700  0.27437000  1
  Na  Na16  1  0.74097100  0.22563000  0.70566400  1
  Na  Na17  1  0.25902900  0.27437000  0.96469400  1
  Na  Na18  1  0.74097100  0.03339900  0.53530600  1
  Na  Na19  1  0.25902900  0.46660100  0.79433600  1
  Na  Na20  1  0.32964200  0.96469400  0.26093700  1
  Na  Na21  1  0.32964200  0.70566400  0.56870600  1
  Na  Na22  1  0.67035800  0.79433600  0.23906300  1
  Na  Na23  1  0.67035800  0.53530600  0.93129400  1
  Ta  Ta0  1  0.19832500  0.00000000  0.69832500  1
  Ta  Ta1  1  0.80167500  0.69832500  0.80167500  1
  Ta  Ta2  1  0.80167500  0.50000000  0.50000000  1
  Ta  Ta3  1  0.19832500  0.80167500  0.00000000  1
  Ta  Ta4  1  0.80167500  0.00000000  0.30167500  1
  Ta  Ta5  1  0.19832500  0.30167500  0.19832500  1
  Ta  Ta6  1  0.19832500  0.50000000  0.50000000  1
  Ta  Ta7  1  0.80167500  0.19832500  0.00000000  1
  N  N0  1  0.00000000  0.00000000  0.50000000  1
  N  N1  1  0.00000000  0.50000000  0.00000000  1
  N  N2  1  0.00000000  0.50000000  0.50000000  1
  N  N3  1  0.00000000  0.00000000  0.00000000  1
  N  N4  1  0.50000000  0.84080900  0.75000000  1
  N  N5  1  0.50000000  0.65919100  0.25000000  1
  N  N6  1  0.00000000  0.25000000  0.59080900  1
  N  N7  1  0.00000000  0.75000000  0.90919100  1
  N  N8  1  0.81838200  0.59080900  0.65919100  1
  N  N9  1  0.18161800  0.90919100  0.84080900  1
  N  N10  1  0.50000000  0.15919100  0.25000000  1
  N  N11  1  0.50000000  0.34080900  0.75000000  1
  N  N12  1  0.00000000  0.75000000  0.40919100  1
  N  N13  1  0.00000000  0.25000000  0.09080900  1
  N  N14  1  0.18161800  0.40919100  0.34080900  1
  N  N15  1  0.81838200  0.09080900  0.15919100  1
loop_
_geom_bond_atom_site_label_1
_geom_bond_atom_site_label_2
_geom_bond_distance
_geom_bond_site_symmetry_2
N0 Ta0 1.984833 1_555
N0 Ta4 1.984833 1_455
N0 Na6 2.664905 1_545
N0 Na18 2.664905 1_455
N0 Na9 2.664910 1_455
N0 Na21 2.664910 1_545
N0 Na15 2.664914 1_455
N0 Na3 2.664914 1_545
N1 Ta1 1.984833 1_454
N1 Ta5 1.984833 1_555
N1 Na5 2.664905 1_455
N1 Na17 2.664905 1_554
N1 Na11 2.664910 1_555
N1 Na23 2.664910 1_454
N1 Na14 2.664914 1_555
N1 Na2 2.664914 1_454
N2 Ta6 1.984833 1_555
N2 Ta2 1.984833 1_455
N2 Na13 2.664914 1_555
N2 Na1 2.664914 1_455
N2 Na19 2.664914 1_555
N2 Na7 2.664914 1_455
N2 Na22 2.664915 1_455
N2 Na10 2.664915 1_555
N3 Ta7 1.984833 1_455
N3 Ta3 1.984833 1_545
N3 Na0 2.664914 1_554
N3 Na12 2.664914 1_445
N3 Na16 2.664914 1_454
N3 Na4 2.664914 1_545
N3 Na20 2.664915 1_545
N3 Na8 2.664915 1_454
N4 Ta0 2.088287 1_565
N4 Ta1 2.088287 1_555
N4 Na5 2.360150 1_556
N4 Na6 2.360150 1_555
N5 Ta3 2.088287 1_555
N5 Ta2 2.088287 1_555
N5 Na7 2.360159 1_555
N5 Na4 2.360160 1_555
N6 Ta2 2.088287 1_455
N6 Ta0 2.088287 1_555
N6 Na9 2.360151 1_455
N6 Na10 2.360152 1_555
N7 Ta3 2.088287 1_556
N7 Ta1 2.088287 1_455
N7 Na11 2.360151 1_556
N7 Na8 2.360152 1_465
N8 Ta1 2.088287 1_555
N8 Ta2 2.088287 1_555
N8 Na2 2.360160 1_555
N8 Na1 2.360160 1_555
N9 Ta0 2.088287 1_565
N9 Ta3 2.088287 1_556
N9 Na3 2.360160 1_555
N9 Na0 2.360160 1_565
N10 Ta4 2.088287 1_555
N10 Ta5 2.088287 1_555
N10 Na17 2.360150 1_554
N10 Na18 2.360150 1_555
N11 Ta7 2.088287 1_556
N11 Ta6 2.088287 1_555
N11 Na19 2.360159 1_555
N11 Na16 2.360160 1_555
N12 Ta6 2.088287 1_555
N12 Ta4 2.088287 1_465
N12 Na21 2.360151 1_555
N12 Na22 2.360152 1_455
N13 Ta7 2.088287 1_455
N13 Ta5 2.088287 1_555
N13 Na23 2.360151 1_454
N13 Na20 2.360152 1_545
N14 Ta5 2.088287 1_555
N14 Ta6 2.088287 1_555
N14 Na14 2.360160 1_555
N14 Na13 2.360160 1_555
N15 Ta4 2.088287 1_555
N15 Ta7 2.088287 1_555
N15 Na15 2.360160 1_555
N15 Na12 2.360160 1_545
