# generated using pymatgen
data_PrAl4Ni
_symmetry_space_group_name_H-M   'P 1'
_cell_length_a   8.17831694
_cell_length_b   8.17831694
_cell_length_c   6.59144114
_cell_angle_alpha   90.00000000
_cell_angle_beta   90.00000000
_cell_angle_gamma   150.81295277
_symmetry_Int_Tables_number   1
_chemical_formula_structural   PrAl4Ni
_chemical_formula_sum   'Pr2 Al8 Ni2'
_cell_volume   214.99454494
_cell_formula_units_Z   2
loop_
 _symmetry_equiv_pos_site_id
 _symmetry_equiv_pos_as_xyz
  1  'x, y, z'
loop_
 _atom_site_type_symbol
 _atom_site_label
 _atom_site_symmetry_multiplicity
 _atom_site_fract_x
 _atom_site_fract_y
 _atom_site_fract_z
 _atom_site_occupancy
  Pr  Pr0  1  0.88638283  0.11361717  0.75000000  1
  Pr  Pr1  1  0.11361717  0.88638283  0.25000000  1
  Al  Al0  1  0.50000000  0.50000000  0.00000000  1
  Al  Al1  1  0.50000000  0.50000000  0.50000000  1
  Al  Al2  1  0.08010178  0.91989822  0.75000000  1
  Al  Al3  1  0.91989822  0.08010178  0.25000000  1
  Al  Al4  1  0.69269333  0.30730667  0.94595454  1
  Al  Al5  1  0.30730667  0.69269333  0.05404546  1
  Al  Al6  1  0.69269333  0.30730667  0.55404546  1
  Al  Al7  1  0.30730667  0.69269333  0.44595454  1
  Ni  Ni0  1  0.22477845  0.77522155  0.75000000  1
  Ni  Ni1  1  0.77522155  0.22477845  0.25000000  1
loop_
_geom_bond_atom_site_label_1
_geom_bond_atom_site_label_2
_geom_bond_distance
_geom_bond_site_symmetry_2
Al0 Al3 2.927317 1_565
Al0 Al3 2.927317 1_455
Al0 Al2 2.927317 1_654
Al0 Al2 2.927317 1_544
Al0 Al5 3.070862 1_555
Al0 Al4 3.070862 1_554
Al0 Pr0 3.193107 1_564
Al0 Pr1 3.193107 1_655
Al0 Pr0 3.193107 1_454
Al0 Pr1 3.193107 1_545
Al1 Al3 2.927317 1_565
Al1 Al2 2.927317 1_655
Al1 Al3 2.927317 1_455
Al1 Al2 2.927317 1_545
Al1 Al7 3.070862 1_555
Al1 Al6 3.070862 1_555
Al1 Pr0 3.193107 1_565
Al1 Pr1 3.193107 1_655
Al1 Pr0 3.193107 1_455
Al1 Pr1 3.193107 1_545
Al2 Ni0 2.290077 1_555
Al2 Al4 3.015070 1_455
Al2 Al6 3.015070 1_565
Al2 Al4 3.015070 1_565
Al2 Al6 3.015070 1_455
Al2 Pr0 3.066364 1_465
Al2 Pr1 3.338146 1_556
Al2 Pr1 3.338146 1_555
Al3 Ni1 2.290077 1_555
Al3 Al5 3.015070 1_655
Al3 Al7 3.015070 1_545
Al3 Al7 3.015070 1_655
Al3 Al5 3.015070 1_545
Al3 Pr1 3.066364 1_645
Al3 Pr0 3.338146 1_555
Al3 Pr0 3.338146 1_554
Al4 Ni1 2.392261 1_556
Al4 Ni0 2.484418 1_545
Al4 Ni0 2.484418 1_655
Al4 Al6 2.583246 1_555
Al4 Al5 2.836384 1_546
Al4 Al5 2.836384 1_656
Al4 Pr1 3.135163 1_656
Al4 Pr1 3.135163 1_546
Al4 Pr0 3.326863 1_555
Al5 Ni0 2.392261 1_554
Al5 Ni1 2.484418 1_565
Al5 Ni1 2.484418 1_455
Al5 Al7 2.583246 1_555
Al5 Pr0 3.135163 1_454
Al5 Pr0 3.135163 1_564
Al5 Pr1 3.326863 1_555
Al6 Ni1 2.392261 1_555
Al6 Ni0 2.484418 1_545
Al6 Ni0 2.484418 1_655
Al6 Al7 2.836384 1_545
Al6 Al7 2.836384 1_655
Al6 Pr1 3.135163 1_655
Al6 Pr1 3.135163 1_545
Al6 Pr0 3.326863 1_555
Al7 Ni0 2.392261 1_555
Al7 Ni1 2.484418 1_565
Al7 Ni1 2.484418 1_455
Al7 Pr0 3.135163 1_455
Al7 Pr0 3.135163 1_565
Al7 Pr1 3.326863 1_555
Ni0 Pr0 3.284752 1_455
Ni0 Pr0 3.284752 1_565
Ni1 Pr1 3.284752 1_655
Ni1 Pr1 3.284752 1_545
