# generated using pymatgen
data_Ba5Ca2Nb3O15
_symmetry_space_group_name_H-M   'P 1'
_cell_length_a   10.50660157
_cell_length_b   10.50660157
_cell_length_c   10.50660157
_cell_angle_alpha   99.47643681
_cell_angle_beta   99.47643681
_cell_angle_gamma   132.12235369
_symmetry_Int_Tables_number   1
_chemical_formula_structural   Ba5Ca2Nb3O15
_chemical_formula_sum   'Ba10 Ca4 Nb6 O30'
_cell_volume   786.24830064
_cell_formula_units_Z   2
loop_
 _symmetry_equiv_pos_site_id
 _symmetry_equiv_pos_as_xyz
  1  'x, y, z'
loop_
 _atom_site_type_symbol
 _atom_site_label
 _atom_site_symmetry_multiplicity
 _atom_site_fract_x
 _atom_site_fract_y
 _atom_site_fract_z
 _atom_site_occupancy
  Ba  Ba0  1  0.75000000  0.25000000  0.50000000  1
  Ba  Ba1  1  0.55677200  0.65559800  0.70274700  1
  Ba  Ba2  1  0.95285100  0.85402500  0.29725300  1
  Ba  Ba3  1  0.14597500  0.44322800  0.09882600  1
  Ba  Ba4  1  0.34440200  0.04714900  0.90117400  1
  Ba  Ba5  1  0.85402500  0.55677200  0.90117400  1
  Ba  Ba6  1  0.65559800  0.95285100  0.09882600  1
  Ba  Ba7  1  0.04714900  0.14597500  0.70274700  1
  Ba  Ba8  1  0.25000000  0.75000000  0.50000000  1
  Ba  Ba9  1  0.44322800  0.34440200  0.29725300  1
  Ca  Ca0  1  0.39843200  0.20168600  0.60011800  1
  Ca  Ca1  1  0.79831400  0.39843200  0.19674500  1
  Ca  Ca2  1  0.20168600  0.60156800  0.80325500  1
  Ca  Ca3  1  0.60156800  0.79831400  0.39988200  1
  Nb  Nb0  1  0.30642000  0.89842600  0.20484600  1
  Nb  Nb1  1  0.10157400  0.30642000  0.40799400  1
  Nb  Nb2  1  0.50000000  0.50000000  0.00000000  1
  Nb  Nb3  1  0.69358000  0.10157400  0.79515400  1
  Nb  Nb4  1  0.89842600  0.69358000  0.59200600  1
  Nb  Nb5  1  0.00000000  0.00000000  0.00000000  1
  O  O0  1  0.52538100  0.13562600  0.19520800  1
  O  O1  1  0.33017300  0.52538100  0.38975500  1
  O  O2  1  0.75391800  0.75391800  0.00000000  1
  O  O3  1  0.94041800  0.33017300  0.80479200  1
  O  O4  1  0.13562600  0.94041800  0.61024500  1
  O  O5  1  0.24697300  0.76354100  0.01051500  1
  O  O6  1  0.04691500  0.14153300  0.18844800  1
  O  O7  1  0.45341600  0.36157700  0.81499400  1
  O  O8  1  0.65872700  0.95810700  0.61683400  1
  O  O9  1  0.85523500  0.55931200  0.41454700  1
  O  O10  1  0.14153300  0.95308500  0.09461800  1
  O  O11  1  0.95810700  0.34127300  0.29938000  1
  O  O12  1  0.36157700  0.54658400  0.90816100  1
  O  O13  1  0.55931200  0.14476500  0.70407700  1
  O  O14  1  0.76354100  0.75302700  0.51656800  1
  O  O15  1  0.05958200  0.66982700  0.19520800  1
  O  O16  1  0.86437400  0.05958200  0.38975500  1
  O  O17  1  0.24608200  0.24608200  0.00000000  1
  O  O18  1  0.47461900  0.86437400  0.80479200  1
  O  O19  1  0.66982700  0.47461900  0.61024500  1
  O  O20  1  0.34127300  0.04189300  0.38316600  1
  O  O21  1  0.14476500  0.44068800  0.58545300  1
  O  O22  1  0.54658400  0.63842300  0.18500600  1
  O  O23  1  0.75302700  0.23645900  0.98948500  1
  O  O24  1  0.95308500  0.85846700  0.81155200  1
  O  O25  1  0.44068800  0.85523500  0.29592300  1
  O  O26  1  0.23645900  0.24697300  0.48343200  1
  O  O27  1  0.63842300  0.45341600  0.09183900  1
  O  O28  1  0.85846700  0.04691500  0.90538200  1
  O  O29  1  0.04189300  0.65872700  0.70062000  1
loop_
_geom_bond_atom_site_label_1
_geom_bond_atom_site_label_2
_geom_bond_distance
_geom_bond_site_symmetry_2
Ba0 O13 3.009568 1_555
Ba0 O9 3.009568 1_555
Ba0 O21 3.009568 1_655
Ba0 O25 3.009568 1_545
Ba0 O8 3.084454 1_545
Ba0 O20 3.084454 1_555
Ba0 O29 3.084454 1_655
Ba0 O11 3.084454 1_555
Ba0 O3 3.115853 1_555
Ba0 O16 3.115853 1_555
Ba0 O0 3.115853 1_555
Ba0 O19 3.115853 1_555
Ba1 O14 2.944361 1_555
Ba1 O8 2.959747 1_555
Ba1 O19 2.961837 1_555
Ba1 O18 2.962464 1_555
Ba1 O28 2.982870 1_565
Ba1 O24 2.985435 1_555
Ba1 O2 3.008097 1_556
Ba1 O7 3.038809 1_555
Ba1 O12 3.048948 1_555
Ba1 O21 3.093729 1_555
Ba1 O26 3.142422 1_555
Ba1 O1 3.150426 1_555
Ba2 O26 2.944361 1_665
Ba2 O20 2.959747 1_665
Ba2 O16 2.961837 1_565
Ba2 O15 2.962464 1_655
Ba2 O10 2.982870 1_655
Ba2 O6 2.985435 1_665
Ba2 O2 3.008097 1_555
Ba2 O22 3.038803 1_555
Ba2 O27 3.048948 1_555
Ba2 O9 3.093729 1_555
Ba2 O14 3.142422 1_555
Ba2 O4 3.150426 1_655
Ba3 O23 2.944362 1_454
Ba3 O11 2.959747 1_455
Ba3 O3 2.961837 1_454
Ba3 O1 2.962464 1_555
Ba3 O6 2.982870 1_555
Ba3 O28 2.985435 1_454
Ba3 O17 3.008097 1_555
Ba3 O12 3.038803 1_554
Ba3 O22 3.048948 1_555
Ba3 O25 3.093729 1_555
Ba3 O5 3.142417 1_555
Ba3 O15 3.150426 1_555
Ba4 O5 2.944368 1_546
Ba4 O29 2.959747 1_545
Ba4 O0 2.961837 1_556
Ba4 O4 2.962464 1_545
Ba4 O24 2.982870 1_445
Ba4 O10 2.985435 1_546
Ba4 O17 3.008097 1_556
Ba4 O27 3.038803 1_556
Ba4 O7 3.048942 1_555
Ba4 O13 3.093729 1_555
Ba4 O23 3.142423 1_555
Ba4 O18 3.150426 1_545
Ba5 O5 2.944362 1_656
Ba5 O29 2.959747 1_655
Ba5 O15 2.961837 1_656
Ba5 O19 2.962464 1_555
Ba5 O24 2.982870 1_555
Ba5 O10 2.985435 1_656
Ba5 O2 3.008097 1_556
Ba5 O27 3.038803 1_556
Ba5 O7 3.048948 1_555
Ba5 O13 3.093729 1_555
Ba5 O23 3.142417 1_555
Ba5 O3 3.150426 1_555
Ba6 O23 2.944368 1_564
Ba6 O11 2.959747 1_565
Ba6 O18 2.961837 1_554
Ba6 O16 2.962464 1_565
Ba6 O6 2.982870 1_665
Ba6 O28 2.985435 1_564
Ba6 O2 3.008097 1_555
Ba6 O12 3.038803 1_554
Ba6 O22 3.048942 1_555
Ba6 O25 3.093729 1_555
Ba6 O5 3.142423 1_555
Ba6 O0 3.150426 1_565
Ba7 O14 2.944361 1_445
Ba7 O8 2.959747 1_445
Ba7 O4 2.961837 1_545
Ba7 O3 2.962464 1_455
Ba7 O28 2.982870 1_455
Ba7 O24 2.985435 1_445
Ba7 O17 3.008097 1_556
Ba7 O7 3.038803 1_555
Ba7 O12 3.048948 1_555
Ba7 O21 3.093729 1_555
Ba7 O26 3.142422 1_555
Ba7 O16 3.150426 1_455
Ba8 O21 3.009568 1_555
Ba8 O9 3.009568 1_455
Ba8 O25 3.009568 1_555
Ba8 O13 3.009568 1_565
Ba8 O8 3.084454 1_555
Ba8 O11 3.084454 1_455
Ba8 O29 3.084454 1_555
Ba8 O20 3.084454 1_565
Ba8 O1 3.115853 1_555
Ba8 O18 3.115853 1_555
Ba8 O4 3.115853 1_555
Ba8 O15 3.115853 1_555
Ba9 O26 2.944361 1_555
Ba9 O20 2.959747 1_555
Ba9 O1 2.961837 1_555
Ba9 O0 2.962464 1_555
Ba9 O10 2.982870 1_545
Ba9 O6 2.985435 1_555
Ba9 O17 3.008097 1_555
Ba9 O22 3.038809 1_555
Ba9 O27 3.048948 1_555
Ba9 O9 3.093729 1_555
Ba9 O14 3.142422 1_555
Ba9 O19 3.150426 1_555
Ca0 O19 2.279512 1_555
Ca0 O4 2.279512 1_545
Ca0 O26 2.284024 1_555
Ca0 O7 2.296201 1_555
Ca0 O20 2.304714 1_555
Ca0 O13 2.317539 1_555
Ca1 O15 2.279508 1_655
Ca1 O0 2.279517 1_555
Ca1 O23 2.284024 1_554
Ca1 O27 2.296188 1_555
Ca1 O11 2.304718 1_555
Ca1 O9 2.317547 1_555
Ca2 O3 2.279508 1_455
Ca2 O18 2.279517 1_555
Ca2 O5 2.284024 1_556
Ca2 O12 2.296188 1_555
Ca2 O29 2.304718 1_555
Ca2 O21 2.317547 1_555
Ca3 O1 2.279512 1_555
Ca3 O16 2.279512 1_565
Ca3 O14 2.284024 1_555
Ca3 O22 2.296201 1_555
Ca3 O8 2.304714 1_555
Ca3 O25 2.317539 1_555
Nb0 O25 1.915436 1_555
Nb0 O15 1.995636 1_555
Nb0 O0 1.995636 1_565
Nb0 O5 2.001800 1_555
Nb0 O20 2.005012 1_565
Nb0 O10 2.359063 1_555
Nb1 O21 1.915436 1_555
Nb1 O16 1.995636 1_455
Nb1 O1 1.995636 1_555
Nb1 O26 2.001809 1_555
Nb1 O11 2.005012 1_455
Nb1 O6 2.359063 1_555
Nb2 O22 1.983432 1_555
Nb2 O7 1.983432 1_554
Nb2 O27 1.983440 1_555
Nb2 O12 1.983440 1_554
Nb2 O17 2.164991 1_555
Nb2 O2 2.164991 1_555
Nb3 O13 1.915436 1_555
Nb3 O18 1.995636 1_545
Nb3 O3 1.995636 1_555
Nb3 O23 2.001800 1_555
Nb3 O8 2.005012 1_545
Nb3 O28 2.359063 1_555
Nb4 O9 1.915436 1_555
Nb4 O19 1.995636 1_555
Nb4 O4 1.995636 1_655
Nb4 O14 2.001809 1_555
Nb4 O29 2.005012 1_655
Nb4 O24 2.359063 1_555
Nb5 O24 2.024924 1_444
Nb5 O6 2.024924 1_555
Nb5 O28 2.024924 1_454
Nb5 O10 2.024924 1_545
Nb5 O17 2.098178 1_555
Nb5 O2 2.098178 1_445
