# generated using pymatgen
data_BaPb2(SO4)3
_symmetry_space_group_name_H-M   'P 1'
_cell_length_a   8.71129300
_cell_length_b   9.03729550
_cell_length_c   13.17237959
_cell_angle_alpha   94.90720005
_cell_angle_beta   90.18823756
_cell_angle_gamma   90.27020862
_symmetry_Int_Tables_number   1
_chemical_formula_structural   BaPb2(SO4)3
_chemical_formula_sum   'Ba4 Pb8 S12 O48'
_cell_volume   1033.19602818
_cell_formula_units_Z   4
loop_
 _symmetry_equiv_pos_site_id
 _symmetry_equiv_pos_as_xyz
  1  'x, y, z'
loop_
 _atom_site_type_symbol
 _atom_site_label
 _atom_site_symmetry_multiplicity
 _atom_site_fract_x
 _atom_site_fract_y
 _atom_site_fract_z
 _atom_site_occupancy
  Ba  Ba0  1  0.68200100  0.68867400  0.96925200  1
  Ba  Ba1  1  0.68317900  0.02341600  0.63592300  1
  Ba  Ba2  1  0.68298200  0.35634300  0.30404200  1
  Ba  Ba3  1  0.18167900  0.81050100  0.03017800  1
  Pb  Pb0  1  0.18851000  0.13693200  0.69346300  1
  Pb  Pb1  1  0.18896800  0.47004800  0.36036900  1
  Pb  Pb2  1  0.30500600  0.30548200  0.02524200  1
  Pb  Pb3  1  0.30415800  0.63595600  0.69351600  1
  Pb  Pb4  1  0.30414700  0.96942900  0.36158800  1
  Pb  Pb5  1  0.80690200  0.19666700  0.97188200  1
  Pb  Pb6  1  0.80972300  0.52861900  0.63939600  1
  Pb  Pb7  1  0.80596500  0.86190700  0.30698800  1
  S  S0  1  0.94285500  0.20699500  0.47854500  1
  S  S1  1  0.94011300  0.53965800  0.14609800  1
  S  S2  1  0.94006800  0.87450500  0.81094100  1
  S  S3  1  0.43194500  0.29503500  0.52247200  1
  S  S4  1  0.43453000  0.62631600  0.18992600  1
  S  S5  1  0.43465500  0.96194300  0.85429000  1
  S  S6  1  0.06430800  0.12917900  0.18957800  1
  S  S7  1  0.06557800  0.45735600  0.85375200  1
  S  S8  1  0.06511100  0.79353800  0.52167300  1
  S  S9  1  0.56552000  0.04071700  0.14535700  1
  S  S10  1  0.56308000  0.37241300  0.81100000  1
  S  S11  1  0.56292300  0.70605300  0.47824600  1
  O  O0  1  0.09380300  0.14589900  0.44789300  1
  O  O1  1  0.09249300  0.48342900  0.11355400  1
  O  O2  1  0.09247600  0.81252900  0.78440500  1
  O  O3  1  0.58907000  0.34846100  0.54926400  1
  O  O4  1  0.59051000  0.68105500  0.21868300  1
  O  O5  1  0.59060600  0.01861200  0.88117600  1
  O  O6  1  0.91146500  0.18501600  0.21778700  1
  O  O7  1  0.91418800  0.51730500  0.88389100  1
  O  O8  1  0.91192400  0.85006200  0.54960600  1
  O  O9  1  0.41318600  0.98059200  0.11544900  1
  O  O10  1  0.41076600  0.31193800  0.78100700  1
  O  O11  1  0.41053400  0.64609300  0.44782600  1
  O  O12  1  0.81312200  0.11415000  0.43206100  1
  O  O13  1  0.81241200  0.44459400  0.09949400  1
  O  O14  1  0.81248500  0.78041700  0.76301800  1
  O  O15  1  0.31007200  0.39186200  0.57093800  1
  O  O16  1  0.31118900  0.72466000  0.23543700  1
  O  O17  1  0.31129300  0.05558600  0.90468400  1
  O  O18  1  0.19125100  0.22351600  0.23647400  1
  O  O19  1  0.19505300  0.54844400  0.89941200  1
  O  O20  1  0.19175500  0.88821300  0.56914800  1
  O  O21  1  0.69333400  0.94972100  0.09994300  1
  O  O22  1  0.69217000  0.28243100  0.76611000  1
  O  O23  1  0.69185600  0.61602300  0.43317900  1
  O  O24  1  0.92777200  0.21525200  0.59254900  1
  O  O25  1  0.92776900  0.54582500  0.26010600  1
  O  O26  1  0.91942100  0.88558400  0.92442500  1
  O  O27  1  0.41137400  0.28712100  0.40856600  1
  O  O28  1  0.41840500  0.61443300  0.07617200  1
  O  O29  1  0.41229000  0.95718700  0.74059200  1
  O  O30  1  0.08214000  0.97371600  0.22234300  1
  O  O31  1  0.08028000  0.30176600  0.88683200  1
  O  O32  1  0.08233500  0.63850800  0.55503400  1
  O  O33  1  0.58070100  0.19634800  0.11242400  1
  O  O34  1  0.57862700  0.52818200  0.77838400  1
  O  O35  1  0.57862800  0.86202500  0.44531500  1
  O  O36  1  0.08169400  0.12103200  0.07500500  1
  O  O37  1  0.07978500  0.45002900  0.73899000  1
  O  O38  1  0.08311300  0.78597700  0.40723300  1
  O  O39  1  0.58107200  0.04866900  0.26016400  1
  O  O40  1  0.57851200  0.38060100  0.92595200  1
  O  O41  1  0.57819700  0.71444500  0.59295700  1
  O  O42  1  0.92784600  0.36193300  0.44629900  1
  O  O43  1  0.91958300  0.69465100  0.11558000  1
  O  O44  1  0.92748000  0.02843300  0.77691100  1
  O  O45  1  0.41142200  0.14036800  0.55496300  1
  O  O46  1  0.41219700  0.47311200  0.22461400  1
  O  O47  1  0.41843900  0.80651300  0.88443100  1
loop_
_geom_bond_atom_site_label_1
_geom_bond_atom_site_label_2
_geom_bond_distance
_geom_bond_site_symmetry_2
Ba0 O7 2.738700 1_555
Ba0 O21 2.800150 1_556
Ba0 O47 2.804227 1_555
Ba0 O28 2.806230 1_556
Ba0 O26 2.818880 1_555
Ba0 O43 2.820724 1_556
Ba0 O34 2.929965 1_555
Ba0 O40 2.931007 1_555
Ba0 O14 3.123474 1_555
Ba0 O13 3.123748 1_556
Ba1 O8 2.730835 1_545
Ba1 O22 2.781523 1_555
Ba1 O44 2.817607 1_555
Ba1 O29 2.824363 1_545
Ba1 O24 2.831018 1_555
Ba1 O45 2.838768 1_555
Ba1 O35 2.933716 1_545
Ba1 O41 2.942032 1_545
Ba1 O14 3.087745 1_545
Ba1 O12 3.090756 1_555
Ba1 O5 3.336098 1_555
Ba1 O3 3.345809 1_555
Ba2 O6 2.718975 1_555
Ba2 O23 2.778753 1_555
Ba2 O25 2.820934 1_555
Ba2 O46 2.822900 1_555
Ba2 O42 2.832045 1_555
Ba2 O27 2.835496 1_555
Ba2 O39 2.924379 1_555
Ba2 O33 2.933284 1_555
Ba2 O13 3.089689 1_555
Ba2 O12 3.092236 1_555
Ba2 O4 3.332474 1_555
Ba2 O3 3.341324 1_555
Ba3 O9 2.711487 1_555
Ba3 O43 2.787555 1_455
Ba3 O26 2.788508 1_454
Ba3 O19 2.809869 1_554
Ba3 O47 2.820602 1_554
Ba3 O28 2.822998 1_555
Ba3 O30 2.953408 1_555
Ba3 O36 2.953962 1_565
Ba3 O17 3.086803 1_564
Ba3 O16 3.087390 1_555
Ba3 O2 3.328482 1_554
Ba3 O1 3.329587 1_555
O0 S0 1.472813 1_455
O0 Pb4 2.631439 1_545
O1 S1 1.475428 1_455
O1 Pb2 2.662470 1_555
O2 S2 1.474844 1_455
O2 Pb3 2.663752 1_555
O3 S3 1.480750 1_555
O3 Pb6 2.716604 1_555
O4 S4 1.480787 1_555
O4 Pb7 2.679272 1_555
O5 S5 1.480733 1_545
O5 Pb5 2.682323 1_555
O6 S6 1.463900 1_655
O7 S7 1.470971 1_655
O8 S8 1.467855 1_655
O9 S9 1.471255 1_565
O10 S10 1.472445 1_555
O10 Pb0 2.687793 1_555
O11 S11 1.472765 1_555
O11 Pb1 2.688229 1_555
O12 S0 1.501594 1_555
O12 Pb7 2.696326 1_545
O13 S1 1.499579 1_555
O13 Pb5 2.683700 1_554
O14 S2 1.500462 1_555
O14 Pb6 2.682490 1_555
O15 S3 1.489321 1_555
O15 Pb3 2.620723 1_555
O16 S4 1.491923 1_555
O16 Pb4 2.651657 1_555
O17 S5 1.492931 1_545
O17 Pb2 2.648267 1_556
O18 S6 1.492592 1_555
O18 Pb1 2.646934 1_555
O19 S7 1.487821 1_555
O20 S8 1.495086 1_555
O20 Pb0 2.665678 1_565
O21 S9 1.484147 1_565
O22 S10 1.485345 1_555
O23 S11 1.485356 1_555
O24 S0 1.503384 1_555
O24 Pb0 2.753789 1_655
O25 S1 1.502245 1_555
O25 Pb1 2.745957 1_655
O26 S2 1.501098 1_555
O27 S3 1.506061 1_555
O27 Pb1 2.662967 1_555
O28 S4 1.499148 1_555
O29 S5 1.506593 1_555
O29 Pb0 2.649293 1_565
O30 S6 1.513172 1_565
O30 Pb4 2.663745 1_555
O31 S7 1.513137 1_555
O31 Pb2 2.668896 1_556
O31 Pb5 2.829648 1_455
O32 S8 1.511772 1_555
O32 Pb3 2.654525 1_555
O32 Pb6 2.836320 1_455
O33 S9 1.512243 1_555
O33 Pb5 2.708308 1_554
O33 Pb2 2.873589 1_555
O34 S10 1.512179 1_555
O34 Pb6 2.725800 1_555
O34 Pb3 2.847077 1_555
O35 S11 1.515564 1_555
O35 Pb7 2.695443 1_555
O36 S6 1.512824 1_555
O36 Pb2 2.675331 1_555
O36 Pb5 2.862791 1_454
O37 S7 1.512972 1_555
O37 Pb3 2.674214 1_555
O37 Pb6 2.813372 1_455
O38 S8 1.511850 1_555
O38 Pb4 2.639267 1_555
O39 S9 1.513434 1_555
O39 Pb7 2.696039 1_545
O40 S10 1.515164 1_555
O40 Pb5 2.698685 1_555
O40 Pb2 2.829363 1_556
O41 S11 1.511822 1_555
O41 Pb6 2.731648 1_555
O41 Pb3 2.849939 1_555
O42 S0 1.503744 1_555
O42 Pb1 2.755964 1_655
O43 S1 1.501272 1_555
O44 S2 1.501964 1_545
O44 Pb0 2.742292 1_655
O45 S3 1.506450 1_555
O45 Pb0 2.670673 1_555
O46 S4 1.506613 1_555
O46 Pb1 2.647795 1_555
O47 S5 1.498194 1_555
