# generated using pymatgen
data_K2BaCo(NO2)6
_symmetry_space_group_name_H-M   'P 1'
_cell_length_a   7.71099474
_cell_length_b   7.69345361
_cell_length_c   7.53248200
_cell_angle_alpha   60.84282841
_cell_angle_beta   60.61005363
_cell_angle_gamma   58.54711797
_symmetry_Int_Tables_number   1
_chemical_formula_structural   K2BaCo(NO2)6
_chemical_formula_sum   'K2 Ba1 Co1 N6 O12'
_cell_volume   315.67342949
_cell_formula_units_Z   1
loop_
 _symmetry_equiv_pos_site_id
 _symmetry_equiv_pos_as_xyz
  1  'x, y, z'
loop_
 _atom_site_type_symbol
 _atom_site_label
 _atom_site_symmetry_multiplicity
 _atom_site_fract_x
 _atom_site_fract_y
 _atom_site_fract_z
 _atom_site_occupancy
  K  K0  1  0.75000000  0.75000000  0.75000000  1
  K  K1  1  0.25000000  0.25000000  0.25000000  1
  Ba  Ba0  1  0.50000000  0.50000000  0.50000000  1
  Co  Co0  1  0.00000000  0.00000000  0.00000000  1
  N  N0  1  0.18238000  0.81762000  0.81762000  1
  N  N1  1  0.81762000  0.18238000  0.18238000  1
  N  N2  1  0.80277100  0.80277100  0.19722900  1
  N  N3  1  0.19722900  0.19722900  0.80277100  1
  N  N4  1  0.18222600  0.81777400  0.18222600  1
  N  N5  1  0.81777400  0.18222600  0.81777400  1
  O  O0  1  0.34085100  0.85339500  0.65914900  1
  O  O1  1  0.65914900  0.14660500  0.34085100  1
  O  O2  1  0.85339500  0.34085100  0.14660500  1
  O  O3  1  0.14660500  0.65914900  0.85339500  1
  O  O4  1  0.34555500  0.65444500  0.14213400  1
  O  O5  1  0.14213400  0.85786600  0.34555500  1
  O  O6  1  0.85786600  0.14213400  0.65444500  1
  O  O7  1  0.65444500  0.34555500  0.85786600  1
  O  O8  1  0.35802400  0.15593500  0.84406500  1
  O  O9  1  0.84406500  0.64197600  0.35802400  1
  O  O10  1  0.64197600  0.84406500  0.15593500  1
  O  O11  1  0.15593500  0.35802400  0.64197600  1
loop_
_geom_bond_atom_site_label_1
_geom_bond_atom_site_label_2
_geom_bond_distance
_geom_bond_site_symmetry_2
K0 O8 3.097470 1_565
K0 O10 3.097470 1_556
K0 O11 3.097470 1_655
K0 O9 3.097470 1_555
K0 O2 3.166128 1_556
K0 O0 3.166128 1_555
K0 O1 3.166128 1_565
K0 O3 3.166128 1_655
K0 O7 3.197899 1_555
K0 O5 3.197899 1_655
K0 O4 3.197899 1_556
K0 O6 3.197899 1_565
K1 O11 3.097470 1_555
K1 O8 3.097470 1_554
K1 O10 3.097470 1_545
K1 O9 3.097470 1_455
K1 O0 3.166128 1_545
K1 O3 3.166128 1_554
K1 O1 3.166128 1_555
K1 O2 3.166128 1_455
K1 O5 3.197899 1_545
K1 O7 3.197899 1_554
K1 O6 3.197899 1_455
K1 O4 3.197899 1_555
Ba0 O8 2.911501 1_555
Ba0 O9 2.911501 1_555
Ba0 O10 2.911501 1_555
Ba0 O11 2.911501 1_555
Ba0 O1 2.930035 1_555
Ba0 O0 2.930035 1_555
Ba0 O2 2.930035 1_555
Ba0 O3 2.930035 1_555
Ba0 O5 2.941025 1_555
Ba0 O4 2.941025 1_555
Ba0 O7 2.941025 1_555
Ba0 O6 2.941025 1_555
Co0 N1 1.938178 1_455
Co0 N0 1.938178 1_544
Co0 N4 1.945786 1_545
Co0 N5 1.945786 1_454
Co0 N3 2.194661 1_554
Co0 N2 2.194661 1_445
N0 O3 1.262153 1_555
N0 O0 1.262153 1_555
N1 O1 1.262153 1_555
N1 O2 1.262153 1_555
N2 O9 1.267347 1_555
N2 O10 1.267347 1_555
N3 O8 1.267347 1_555
N3 O11 1.267347 1_555
N4 O4 1.265398 1_555
N4 O5 1.265398 1_555
N5 O6 1.265398 1_555
N5 O7 1.265398 1_555
