# generated using pymatgen
data_Dy4Ga21Ni10
_symmetry_space_group_name_H-M   'P 1'
_cell_length_a   10.68444855
_cell_length_b   10.68444855
_cell_length_c   15.53075274
_cell_angle_alpha   55.70475274
_cell_angle_beta   55.70475274
_cell_angle_gamma   22.01793071
_symmetry_Int_Tables_number   1
_chemical_formula_structural   Dy4Ga21Ni10
_chemical_formula_sum   'Dy4 Ga21 Ni10'
_cell_volume   544.26164168
_cell_formula_units_Z   1
loop_
 _symmetry_equiv_pos_site_id
 _symmetry_equiv_pos_as_xyz
  1  'x, y, z'
loop_
 _atom_site_type_symbol
 _atom_site_label
 _atom_site_symmetry_multiplicity
 _atom_site_fract_x
 _atom_site_fract_y
 _atom_site_fract_z
 _atom_site_occupancy
  Dy  Dy0  1  0.77059000  0.77059000  0.32362200  1
  Dy  Dy1  1  0.22941000  0.22941000  0.67637800  1
  Dy  Dy2  1  0.12052000  0.12052000  0.16628100  1
  Dy  Dy3  1  0.87948000  0.87948000  0.83371900  1
  Ga  Ga0  1  0.39868100  0.39868100  0.49717100  1
  Ga  Ga1  1  0.60131900  0.60131900  0.50282900  1
  Ga  Ga2  1  0.38598900  0.38598900  0.20468300  1
  Ga  Ga3  1  0.61401100  0.61401100  0.79531700  1
  Ga  Ga4  1  0.24810700  0.24810700  0.20587600  1
  Ga  Ga5  1  0.75189300  0.75189300  0.79412400  1
  Ga  Ga6  1  0.00659900  0.00659900  0.40913900  1
  Ga  Ga7  1  0.99340100  0.99340100  0.59086100  1
  Ga  Ga8  1  0.62708100  0.62708100  0.30563700  1
  Ga  Ga9  1  0.37291900  0.37291900  0.69436300  1
  Ga  Ga10  1  0.93555500  0.93555500  0.29485100  1
  Ga  Ga11  1  0.06444500  0.06444500  0.70514900  1
  Ga  Ga12  1  0.53996600  0.53996600  0.13154200  1
  Ga  Ga13  1  0.46003400  0.46003400  0.86845800  1
  Ga  Ga14  1  0.88191600  0.88191600  0.05510200  1
  Ga  Ga15  1  0.11808400  0.11808400  0.94489800  1
  Ga  Ga16  1  0.50000000  0.50000000  0.00000000  1
  Ga  Ga17  1  0.29753200  0.29753200  0.00317600  1
  Ga  Ga18  1  0.70246800  0.70246800  0.99682400  1
  Ga  Ga19  1  0.79991600  0.79991600  0.50164600  1
  Ga  Ga20  1  0.20008400  0.20008400  0.49835400  1
  Ni  Ni0  1  0.97573400  0.97573400  0.10594600  1
  Ni  Ni1  1  0.02426600  0.02426600  0.89405400  1
  Ni  Ni2  1  0.34713400  0.34713400  0.38926300  1
  Ni  Ni3  1  0.65286600  0.65286600  0.61073700  1
  Ni  Ni4  1  0.74940600  0.74940600  0.11538800  1
  Ni  Ni5  1  0.25059400  0.25059400  0.88461200  1
  Ni  Ni6  1  0.13220700  0.13220700  0.39742100  1
  Ni  Ni7  1  0.86779300  0.86779300  0.60257900  1
  Ni  Ni8  1  0.50271800  0.50271800  0.31442900  1
  Ni  Ni9  1  0.49728200  0.49728200  0.68557100  1
loop_
_geom_bond_atom_site_label_1
_geom_bond_atom_site_label_2
_geom_bond_distance
_geom_bond_site_symmetry_2
Dy0 Ga2 2.881154 1_565
Dy0 Ga2 2.881154 1_655
Dy0 Ga4 2.952881 1_565
Dy0 Ga4 2.952881 1_655
Dy0 Ga1 3.001314 1_555
Dy0 Ga20 3.017765 1_565
Dy0 Ga20 3.017765 1_655
Dy0 Ni2 3.107920 1_565
Dy0 Ni2 3.107920 1_655
Dy0 Ga19 3.158369 1_555
Dy0 Ni6 3.175326 1_565
Dy0 Ni6 3.175326 1_655
Dy0 Ga8 3.178770 1_555
Dy0 Ga10 3.224581 1_555
Dy0 Ga14 3.415330 1_555
Dy1 Ga3 2.881154 1_545
Dy1 Ga3 2.881154 1_455
Dy1 Ga5 2.952881 1_455
Dy1 Ga5 2.952881 1_545
Dy1 Ga0 3.001314 1_555
Dy1 Ga19 3.017765 1_455
Dy1 Ga19 3.017765 1_545
Dy1 Ni3 3.107920 1_545
Dy1 Ni3 3.107920 1_455
Dy1 Ga20 3.158369 1_555
Dy1 Ni7 3.175326 1_545
Dy1 Ni7 3.175326 1_455
Dy1 Ga9 3.178770 1_555
Dy1 Ga11 3.224581 1_555
Dy1 Ga15 3.415330 1_555
Dy2 Ga12 2.890605 1_545
Dy2 Ga12 2.890605 1_455
Dy2 Ga18 2.974964 1_454
Dy2 Ga18 2.974964 1_544
Dy2 Ni8 3.005921 1_545
Dy2 Ni8 3.005921 1_455
Dy2 Ga8 3.034476 1_545
Dy2 Ga8 3.034476 1_455
Dy2 Ga17 3.066748 1_555
Dy2 Ga4 3.070775 1_555
Dy2 Ga6 3.096624 1_555
Dy2 Ni4 3.105358 1_455
Dy2 Ni4 3.105358 1_545
Dy2 Ga10 3.185241 1_445
Dy2 Ga15 3.467828 1_554
Dy3 Ga13 2.890605 1_565
Dy3 Ga13 2.890605 1_655
Dy3 Ga17 2.974964 1_656
Dy3 Ga17 2.974964 1_566
Dy3 Ni9 3.005921 1_655
Dy3 Ni9 3.005921 1_565
Dy3 Ga9 3.034476 1_565
Dy3 Ga9 3.034476 1_655
Dy3 Ga18 3.066748 1_555
Dy3 Ga5 3.070775 1_555
Dy3 Ga7 3.096624 1_555
Dy3 Ni5 3.105358 1_655
Dy3 Ni5 3.105358 1_565
Dy3 Ga11 3.185241 1_665
Dy3 Ga14 3.467828 1_556
Ga0 Ni8 2.388881 1_555
Ga0 Ni7 2.458664 1_455
Ga0 Ni7 2.458664 1_545
Ga0 Ni2 2.461293 1_555
Ga0 Ga6 2.757402 1_565
Ga0 Ga6 2.757402 1_655
Ga0 Ga9 2.787694 1_555
Ga0 Ga19 2.879975 1_545
Ga0 Ga19 2.879975 1_455
Ga1 Ni9 2.388881 1_555
Ga1 Ni6 2.458664 1_565
Ga1 Ni6 2.458664 1_655
Ga1 Ni3 2.461293 1_555
Ga1 Ga7 2.757402 1_545
Ga1 Ga7 2.757402 1_455
Ga1 Ga8 2.787694 1_555
Ga1 Ga20 2.879975 1_655
Ga1 Ga20 2.879975 1_565
Ga2 Ni2 2.489935 1_555
Ga2 Ni0 2.596936 1_455
Ga2 Ni0 2.596936 1_545
Ga3 Ni3 2.489935 1_555
Ga3 Ni1 2.596936 1_655
Ga3 Ni1 2.596936 1_565
Ga4 Ni4 2.468750 1_545
Ga4 Ni4 2.468750 1_455
Ga4 Ni6 2.541080 1_555
Ga4 Ga8 2.914184 1_455
Ga4 Ga8 2.914184 1_545
Ga5 Ni5 2.468750 1_655
Ga5 Ni5 2.468750 1_565
Ga5 Ni7 2.541080 1_555
Ga5 Ga9 2.914184 1_655
Ga5 Ga9 2.914184 1_565
Ga6 Ni6 2.534628 1_555
Ga6 Ni8 2.543746 1_545
Ga6 Ni8 2.543746 1_455
Ga6 Ga7 2.672999 1_445
Ga6 Ni7 2.731434 1_445
Ga6 Ga8 2.910293 1_455
Ga6 Ga8 2.910293 1_545
Ga7 Ni7 2.534628 1_555
Ga7 Ni9 2.543746 1_655
Ga7 Ni9 2.543746 1_565
Ga7 Ni6 2.731434 1_665
Ga7 Ga9 2.910293 1_565
Ga7 Ga9 2.910293 1_655
Ga8 Ni6 2.526350 1_655
Ga8 Ni6 2.526350 1_565
Ga8 Ni8 2.532684 1_555
Ga8 Ni4 2.571029 1_555
Ga9 Ni7 2.526350 1_455
Ga9 Ni7 2.526350 1_545
Ga9 Ni9 2.532684 1_555
Ga9 Ni5 2.571029 1_555
Ga10 Ni0 2.545398 1_555
Ga10 Ni2 2.575016 1_565
Ga10 Ni2 2.575016 1_655
Ga10 Ni8 2.594582 1_655
Ga10 Ni8 2.594582 1_565
Ga10 Ga19 2.814112 1_555
Ga10 Ga6 2.899633 1_665
Ga11 Ni1 2.545398 1_555
Ga11 Ni3 2.575016 1_455
Ga11 Ni3 2.575016 1_545
Ga11 Ni9 2.594582 1_545
Ga11 Ni9 2.594582 1_455
Ga11 Ga20 2.814112 1_555
Ga11 Ga7 2.899633 1_445
Ga12 Ni8 2.475970 1_555
Ga12 Ni0 2.598286 1_545
Ga12 Ni0 2.598286 1_455
Ga12 Ga16 2.615830 1_555
Ga12 Ga18 2.794383 1_554
Ga13 Ni9 2.475970 1_555
Ga13 Ni1 2.598286 1_655
Ga13 Ni1 2.598286 1_565
Ga13 Ga16 2.615830 1_556
Ga13 Ga17 2.794383 1_556
Ga14 Ni4 2.369495 1_555
Ga14 Ni0 2.506019 1_555
Ga14 Ni1 2.568576 1_664
Ga14 Ga16 2.932033 1_565
Ga14 Ga16 2.932033 1_655
Ga14 Ga17 3.095963 1_565
Ga14 Ga17 3.095963 1_655
Ga15 Ni5 2.369495 1_555
Ga15 Ni1 2.506019 1_555
Ga15 Ni0 2.568576 1_446
Ga15 Ga16 2.932033 1_456
Ga15 Ga16 2.932033 1_546
Ga15 Ga18 3.095963 1_455
Ga15 Ga18 3.095963 1_545
Ga16 Ni0 2.483533 1_455
Ga16 Ni0 2.483533 1_545
Ga16 Ni1 2.483533 1_564
Ga16 Ni1 2.483533 1_654
Ga16 Ga3 2.663973 1_554
Ga16 Ga2 2.663973 1_555
Ga17 Ni4 2.489865 1_545
Ga17 Ni4 2.489865 1_455
Ga17 Ni5 2.537991 1_554
Ga17 Ga4 2.690422 1_555
Ga17 Ga18 2.893902 1_544
Ga17 Ga18 2.893902 1_454
Ga18 Ni5 2.489865 1_655
Ga18 Ni5 2.489865 1_565
Ga18 Ni4 2.537991 1_556
Ga18 Ga5 2.690422 1_555
Ga19 Ni2 2.491121 1_655
Ga19 Ni2 2.491121 1_565
Ga19 Ni3 2.526841 1_555
Ga19 Ni7 2.654546 1_555
Ga19 Ga20 2.945078 1_655
Ga19 Ga20 2.945078 1_565
Ga20 Ni3 2.491121 1_455
Ga20 Ni3 2.491121 1_545
Ga20 Ni2 2.526841 1_555
Ga20 Ni6 2.654546 1_555
Ni2 Ni8 2.765255 1_555
Ni3 Ni9 2.765255 1_555
