# generated using pymatgen
data_CoPH3O5
_symmetry_space_group_name_H-M   'P 1'
_cell_length_a   9.64874959
_cell_length_b   9.64874959
_cell_length_c   9.64875004
_cell_angle_alpha   112.71662046
_cell_angle_beta   112.71662046
_cell_angle_gamma   112.71661657
_symmetry_Int_Tables_number   1
_chemical_formula_structural   CoPH3O5
_chemical_formula_sum   'Co6 P6 H18 O30'
_cell_volume   594.11049151
_cell_formula_units_Z   6
loop_
 _symmetry_equiv_pos_site_id
 _symmetry_equiv_pos_as_xyz
  1  'x, y, z'
loop_
 _atom_site_type_symbol
 _atom_site_label
 _atom_site_symmetry_multiplicity
 _atom_site_fract_x
 _atom_site_fract_y
 _atom_site_fract_z
 _atom_site_occupancy
  Co  Co0  1  0.07505900  0.79205100  0.54088700  1
  Co  Co1  1  0.54088700  0.07505900  0.79205100  1
  Co  Co2  1  0.79205100  0.54088700  0.07505900  1
  Co  Co3  1  0.92494100  0.20794900  0.45911300  1
  Co  Co4  1  0.45911300  0.92494100  0.20794900  1
  Co  Co5  1  0.20794900  0.45911300  0.92494100  1
  P  P0  1  0.31073200  0.67280100  0.75336100  1
  P  P1  1  0.75336100  0.31073200  0.67280100  1
  P  P2  1  0.67280100  0.75336100  0.31073200  1
  P  P3  1  0.68926800  0.32719900  0.24663900  1
  P  P4  1  0.24663900  0.68926800  0.32719900  1
  P  P5  1  0.32719900  0.24663900  0.68926800  1
  H  H0  1  0.52073100  0.61692100  0.82376000  1
  H  H1  1  0.82376000  0.52073100  0.61692100  1
  H  H2  1  0.61692100  0.82376000  0.52073100  1
  H  H3  1  0.47926900  0.38307900  0.17624000  1
  H  H4  1  0.17624000  0.47926900  0.38307900  1
  H  H5  1  0.38307900  0.17624000  0.47926900  1
  H  H6  1  0.13058500  0.04070900  0.83951500  1
  H  H7  1  0.83951500  0.13058500  0.04070900  1
  H  H8  1  0.04070900  0.83951500  0.13058500  1
  H  H9  1  0.86941500  0.95929100  0.16048500  1
  H  H10  1  0.16048500  0.86941500  0.95929100  1
  H  H11  1  0.95929100  0.16048500  0.86941500  1
  H  H12  1  0.91253400  0.85840800  0.67743100  1
  H  H13  1  0.67743100  0.91253400  0.85840800  1
  H  H14  1  0.85840800  0.67743100  0.91253400  1
  H  H15  1  0.08746600  0.14159200  0.32256900  1
  H  H16  1  0.32256900  0.08746600  0.14159200  1
  H  H17  1  0.14159200  0.32256900  0.08746600  1
  O  O0  1  0.14677300  0.47334100  0.55406400  1
  O  O1  1  0.55406400  0.14677300  0.47334100  1
  O  O2  1  0.47334100  0.55406400  0.14677300  1
  O  O3  1  0.85322700  0.52665900  0.44593600  1
  O  O4  1  0.44593600  0.85322700  0.52665900  1
  O  O5  1  0.52665900  0.44593600  0.85322700  1
  O  O6  1  0.30239200  0.68282800  0.91451300  1
  O  O7  1  0.91451300  0.30239200  0.68282800  1
  O  O8  1  0.68282800  0.91451300  0.30239200  1
  O  O9  1  0.69760800  0.31717200  0.08548700  1
  O  O10  1  0.08548700  0.69760800  0.31717200  1
  O  O11  1  0.31717200  0.08548700  0.69760800  1
  O  O12  1  0.32530700  0.83571900  0.75117100  1
  O  O13  1  0.75117100  0.32530700  0.83571900  1
  O  O14  1  0.83571900  0.75117100  0.32530700  1
  O  O15  1  0.67469300  0.16428100  0.24882900  1
  O  O16  1  0.24882900  0.67469300  0.16428100  1
  O  O17  1  0.16428100  0.24882900  0.67469300  1
  O  O18  1  0.51179400  0.71291200  0.81189100  1
  O  O19  1  0.81189100  0.51179400  0.71291200  1
  O  O20  1  0.71291200  0.81189100  0.51179400  1
  O  O21  1  0.48820600  0.28708800  0.18810900  1
  O  O22  1  0.18810900  0.48820600  0.28708800  1
  O  O23  1  0.28708800  0.18810900  0.48820600  1
  O  O24  1  0.04492100  0.89831900  0.75292600  1
  O  O25  1  0.75292600  0.04492100  0.89831900  1
  O  O26  1  0.89831900  0.75292600  0.04492100  1
  O  O27  1  0.95507900  0.10168100  0.24707400  1
  O  O28  1  0.24707400  0.95507900  0.10168100  1
  O  O29  1  0.10168100  0.24707400  0.95507900  1
loop_
_geom_bond_atom_site_label_1
_geom_bond_atom_site_label_2
_geom_bond_distance
_geom_bond_site_symmetry_2
Co0 O10 2.054089 1_555
Co0 O24 2.095527 1_555
Co0 O3 2.101954 1_455
Co0 O11 2.148645 1_565
Co0 O14 2.183590 1_455
Co0 O12 2.212378 1_555
Co1 O11 2.054089 1_555
Co1 O25 2.095527 1_555
Co1 O4 2.101954 1_545
Co1 O9 2.148645 1_556
Co1 O12 2.183591 1_545
Co1 O13 2.212378 1_555
Co2 O9 2.054089 1_555
Co2 O26 2.095527 1_555
Co2 O5 2.101954 1_554
Co2 O10 2.148645 1_655
Co2 O13 2.183590 1_554
Co2 O14 2.212378 1_555
Co3 O7 2.054089 1_555
Co3 O27 2.095527 1_555
Co3 O0 2.101954 1_655
Co3 O8 2.148645 1_545
Co3 O17 2.183590 1_655
Co3 O15 2.212378 1_555
Co4 O8 2.054089 1_555
Co4 O28 2.095527 1_555
Co4 O1 2.101954 1_565
Co4 O6 2.148645 1_554
Co4 O15 2.183591 1_565
Co4 O16 2.212378 1_555
Co5 O6 2.054089 1_555
Co5 O29 2.095527 1_555
Co5 O2 2.101954 1_556
Co5 O7 2.148645 1_455
Co5 O16 2.183590 1_556
Co5 O17 2.212378 1_555
H0 O18 1.007156 1_555
H1 O19 1.007156 1_555
H2 O20 1.007156 1_555
H3 O21 1.007156 1_555
H4 O22 1.007156 1_555
H5 O23 1.007156 1_555
H6 O24 0.985804 1_545
H7 O25 0.985804 1_554
H8 O26 0.985804 1_455
H9 O27 0.985804 1_565
H10 O28 0.985804 1_556
H11 O29 0.985804 1_655
H12 O24 0.997675 1_655
H12 O20 1.693022 1_555
H13 O25 0.997675 1_565
H13 O18 1.693022 1_555
H14 O26 0.997675 1_556
H14 O19 1.693022 1_555
H15 O27 0.997675 1_455
H15 O23 1.693022 1_555
H16 O28 0.997675 1_545
H16 O21 1.693022 1_555
H17 O29 0.997675 1_554
H17 O22 1.693022 1_555
O0 P0 1.531328 1_555
O1 P1 1.531328 1_555
O2 P2 1.531328 1_555
O3 P3 1.531328 1_555
O4 P4 1.531328 1_555
O5 P5 1.531328 1_555
O6 P0 1.555655 1_555
O7 P1 1.555655 1_555
O8 P2 1.555655 1_555
O9 P3 1.555655 1_555
O10 P4 1.555655 1_555
O11 P5 1.555655 1_555
O12 P0 1.532474 1_555
O13 P1 1.532474 1_555
O14 P2 1.532474 1_555
O15 P3 1.532474 1_555
O16 P4 1.532474 1_555
O17 P5 1.532474 1_555
O18 P0 1.624014 1_555
O19 P1 1.624014 1_555
O20 P2 1.624014 1_555
O21 P3 1.624014 1_555
O22 P4 1.624014 1_555
O23 P5 1.624014 1_555
