# generated using pymatgen
data_ZnSn3F6
_symmetry_space_group_name_H-M   'P 1'
_cell_length_a   11.88683200
_cell_length_b   12.28267882
_cell_length_c   19.34740356
_cell_angle_alpha   85.09746730
_cell_angle_beta   84.16502308
_cell_angle_gamma   62.30658842
_symmetry_Int_Tables_number   1
_chemical_formula_structural   ZnSn3F6
_chemical_formula_sum   'Zn1 Sn3 F6'
_cell_volume   2485.87594620
_cell_formula_units_Z   1
loop_
 _symmetry_equiv_pos_site_id
 _symmetry_equiv_pos_as_xyz
  1  'x, y, z'
loop_
 _atom_site_type_symbol
 _atom_site_label
 _atom_site_symmetry_multiplicity
 _atom_site_fract_x
 _atom_site_fract_y
 _atom_site_fract_z
 _atom_site_occupancy
  Zn  Zn0  1  0.00000000  0.00000000  0.00000000  1
  Sn  Sn0  1  0.00000000  0.00000000  0.50000000  1
  Sn  Sn1  1  0.00000000  0.50000000  0.00000000  1
  Sn  Sn2  1  0.50000000  0.50000000  0.00000000  1
  F  F0  1  0.60538000  0.40061600  0.91530300  1
  F  F1  1  0.39462000  0.59938400  0.08469700  1
  F  F2  1  0.00381600  0.92008800  0.59838900  1
  F  F3  1  0.99618400  0.07991200  0.40161100  1
  F  F4  1  0.91782600  0.68829100  0.00447800  1
  F  F5  1  0.08217400  0.31170900  0.99552200  1
loop_
_geom_bond_atom_site_label_1
_geom_bond_atom_site_label_2
_geom_bond_distance
_geom_bond_site_symmetry_2
F0 Sn2 2.060998 1_556
F1 Sn2 2.060998 1_555
F2 Sn0 2.060551 1_565
F3 Sn0 2.060551 1_655
F4 Sn1 2.056112 1_655
F5 Sn1 2.056112 1_556
