# generated using pymatgen
data_CsHfMg30O31
_symmetry_space_group_name_H-M   'P 1'
_cell_length_a   8.66402699
_cell_length_b   8.77212617
_cell_length_c   8.77068699
_cell_angle_alpha   89.99963590
_cell_angle_beta   89.99991936
_cell_angle_gamma   90.00112454
_symmetry_Int_Tables_number   1
_chemical_formula_structural   CsHfMg30O31
_chemical_formula_sum   'Cs1 Hf1 Mg30 O31'
_cell_volume   666.58920785
_cell_formula_units_Z   1
loop_
 _symmetry_equiv_pos_site_id
 _symmetry_equiv_pos_as_xyz
  1  'x, y, z'
loop_
 _atom_site_type_symbol
 _atom_site_label
 _atom_site_symmetry_multiplicity
 _atom_site_fract_x
 _atom_site_fract_y
 _atom_site_fract_z
 _atom_site_occupancy
  Cs  Cs0  1  0.05225799  0.00003094  0.99998823  1
  Hf  Hf0  1  0.99728351  0.00000908  0.49998767  1
  Mg  Mg0  1  0.99398800  0.50001857  0.00000066  1
  Mg  Mg1  1  0.99822018  0.50001570  0.49999853  1
  Mg  Mg2  1  0.49108853  0.00000230  0.99999838  1
  Mg  Mg3  1  0.51087017  0.99999954  0.50000257  1
  Mg  Mg4  1  0.50565313  0.49999841  0.99999913  1
  Mg  Mg5  1  0.50084252  0.49999881  0.49999853  1
  Mg  Mg6  1  0.99591146  0.26218906  0.24541696  1
  Mg  Mg7  1  0.99591193  0.26219542  0.75457649  1
  Mg  Mg8  1  0.99593270  0.73785486  0.24541828  1
  Mg  Mg9  1  0.99592687  0.73784795  0.75457378  1
  Mg  Mg10  1  0.50236237  0.25296571  0.24887079  1
  Mg  Mg11  1  0.50236387  0.25295916  0.75112848  1
  Mg  Mg12  1  0.50237633  0.74702840  0.24887109  1
  Mg  Mg13  1  0.50237695  0.74702976  0.75112761  1
  Mg  Mg14  1  0.27393331  0.99998484  0.25830501  1
  Mg  Mg15  1  0.27393026  0.99997026  0.74168410  1
  Mg  Mg16  1  0.25084335  0.50000398  0.25159998  1
  Mg  Mg17  1  0.25084220  0.49999938  0.74840128  1
  Mg  Mg18  1  0.74204631  0.00000194  0.23994233  1
  Mg  Mg19  1  0.74205755  0.00000284  0.76009620  1
  Mg  Mg20  1  0.74687375  0.50000904  0.24839905  1
  Mg  Mg21  1  0.74687182  0.50000695  0.75160173  1
  Mg  Mg22  1  0.26261184  0.26682367  0.00000670  1
  Mg  Mg23  1  0.25566069  0.25893814  0.50000205  1
  Mg  Mg24  1  0.26261940  0.73317404  0.99999746  1
  Mg  Mg25  1  0.25568600  0.74105688  0.49999601  1
  Mg  Mg26  1  0.74732697  0.25240278  0.00000326  1
  Mg  Mg27  1  0.74324715  0.25664154  0.50000198  1
  Mg  Mg28  1  0.74733235  0.74762008  0.00000338  1
  Mg  Mg29  1  0.74326973  0.74336296  0.50000011  1
  O  O0  1  0.24523625  0.99993062  0.49999735  1
  O  O1  1  0.25499183  0.49999495  0.99999621  1
  O  O2  1  0.24863881  0.49998877  0.50000487  1
  O  O3  1  0.72373743  0.99999896  0.00000605  1
  O  O4  1  0.75188309  0.00007596  0.49999265  1
  O  O5  1  0.74522716  0.50000930  0.00000013  1
  O  O6  1  0.75023114  0.50000884  0.50000059  1
  O  O7  1  0.24677728  0.24963337  0.25206465  1
  O  O8  1  0.24676529  0.24960334  0.74795436  1
  O  O9  1  0.24680376  0.75036564  0.25203366  1
  O  O10  1  0.24679743  0.75036325  0.74795334  1
  O  O11  1  0.74932961  0.25251687  0.25122722  1
  O  O12  1  0.74933651  0.25251505  0.74877615  1
  O  O13  1  0.74932651  0.74748538  0.25124708  1
  O  O14  1  0.74932684  0.74748347  0.74875384  1
  O  O15  1  0.97795854  0.99992740  0.27500848  1
  O  O16  1  0.97795268  0.99991178  0.72498128  1
  O  O17  1  0.99940534  0.50001298  0.25897169  1
  O  O18  1  0.99940741  0.50001057  0.74102765  1
  O  O19  1  0.50704064  0.99999489  0.26519531  1
  O  O20  1  0.50704288  0.00000278  0.73481011  1
  O  O21  1  0.49863259  0.49999721  0.25375768  1
  O  O22  1  0.49863004  0.49999304  0.74624152  1
  O  O23  1  0.99246109  0.28154456  0.00000346  1
  O  O24  1  0.99926677  0.24520502  0.50000459  1
  O  O25  1  0.99246924  0.71849492  -0.00000027  1
  O  O26  1  0.99934098  0.75479898  0.49999242  1
  O  O27  1  0.50422273  0.26217364  0.99999677  1
  O  O28  1  0.49948476  0.25144762  0.50000243  1
  O  O29  1  0.50423287  0.73781992  0.00000225  1
  O  O30  1  0.49952330  0.74854786  0.49999867  1
loop_
_geom_bond_atom_site_label_1
_geom_bond_atom_site_label_2
_geom_bond_distance
_geom_bond_site_symmetry_2
Cs0 O16 2.496439 1_445
Cs0 O15 2.496536 1_446
Cs0 O23 2.523243 1_456
Cs0 O25 2.523401 1_446
Cs0 O3 2.846311 1_446
Hf0 O15 1.980313 1_545
Hf0 O16 1.980443 1_545
Hf0 O4 2.126156 1_555
Hf0 O0 2.148269 1_645
Hf0 O24 2.150958 1_555
Hf0 O26 2.151088 1_545
Mg0 O23 1.916527 1_555
Mg0 O25 1.916548 1_555
Mg0 O5 2.155271 1_555
Mg0 O1 2.261344 1_654
Mg0 O17 2.271839 1_555
Mg0 O18 2.271856 1_554
Mg1 O17 2.113996 1_555
Mg1 O18 2.114016 1_555
Mg1 O6 2.148584 1_555
Mg1 O2 2.169634 1_655
Mg1 O26 2.235012 1_555
Mg1 O24 2.235250 1_555
Mg2 O3 2.015676 1_546
Mg2 O27 2.302611 1_555
Mg2 O29 2.302717 1_546
Mg2 O20 2.329987 1_555
Mg2 O19 2.330062 1_546
Mg3 O19 2.059688 1_555
Mg3 O20 2.059690 1_565
Mg3 O4 2.088143 1_565
Mg3 O28 2.207941 1_565
Mg3 O30 2.207954 1_555
Mg3 O0 2.301460 1_555
Mg4 O5 2.075676 1_556
Mg4 O29 2.086237 1_556
Mg4 O27 2.086265 1_555
Mg4 O1 2.171736 1_555
Mg4 O22 2.226460 1_555
Mg4 O21 2.226468 1_556
Mg5 O21 2.159786 1_555
Mg5 O22 2.159805 1_555
Mg5 O6 2.160710 1_555
Mg5 O30 2.180334 1_555
Mg5 O28 2.180354 1_555
Mg5 O2 2.185100 1_555
Mg6 O17 2.089825 1_555
Mg6 O11 2.138681 1_555
Mg6 O23 2.159337 1_555
Mg6 O7 2.177080 1_655
Mg6 O24 2.238061 1_555
Mg6 O15 2.320400 1_545
Mg7 O18 2.089744 1_555
Mg7 O12 2.138627 1_555
Mg7 O23 2.159453 1_556
Mg7 O8 2.176982 1_655
Mg7 O24 2.237929 1_555
Mg7 O16 2.320602 1_545
Mg8 O17 2.089979 1_555
Mg8 O13 2.138885 1_555
Mg8 O25 2.159388 1_555
Mg8 O9 2.177094 1_655
Mg8 O26 2.237928 1_555
Mg8 O15 2.318776 1_555
Mg9 O18 2.089939 1_555
Mg9 O14 2.138832 1_555
Mg9 O25 2.159445 1_556
Mg9 O10 2.177092 1_655
Mg9 O26 2.237994 1_555
Mg9 O16 2.318699 1_555
Mg10 O11 2.139834 1_555
Mg10 O21 2.167657 1_555
Mg10 O27 2.184349 1_554
Mg10 O28 2.202778 1_555
Mg10 O7 2.214766 1_555
Mg10 O19 2.224075 1_545
Mg11 O12 2.139881 1_555
Mg11 O22 2.167678 1_555
Mg11 O27 2.184302 1_555
Mg11 O28 2.202729 1_555
Mg11 O8 2.214883 1_555
Mg11 O20 2.223947 1_555
Mg12 O13 2.139688 1_555
Mg12 O21 2.167654 1_555
Mg12 O29 2.184305 1_555
Mg12 O30 2.202740 1_555
Mg12 O9 2.214655 1_555
Mg12 O19 2.224035 1_555
Mg13 O14 2.139685 1_555
Mg13 O22 2.167704 1_555
Mg13 O29 2.184355 1_556
Mg13 O30 2.202752 1_555
Mg13 O10 2.214717 1_555
Mg13 O20 2.224087 1_565
Mg14 O19 2.020552 1_555
Mg14 O0 2.134339 1_555
Mg14 O9 2.202953 1_555
Mg14 O7 2.203235 1_565
Mg14 O15 2.568515 1_455
Mg15 O20 2.020594 1_565
Mg15 O0 2.134288 1_555
Mg15 O10 2.202849 1_555
Mg15 O8 2.203116 1_565
Mg15 O16 2.568539 1_455
Mg16 O21 2.146936 1_555
Mg16 O2 2.178765 1_555
Mg16 O17 2.179425 1_455
Mg16 O9 2.196487 1_555
Mg16 O7 2.196568 1_555
Mg16 O1 2.207031 1_554
Mg17 O22 2.146924 1_555
Mg17 O2 2.178691 1_555
Mg17 O18 2.179398 1_455
Mg17 O10 2.196507 1_555
Mg17 O8 2.196792 1_555
Mg17 O1 2.206953 1_555
Mg18 O19 2.048106 1_545
Mg18 O15 2.066960 1_545
Mg18 O3 2.110376 1_545
Mg18 O11 2.218200 1_555
Mg18 O13 2.218223 1_545
Mg18 O4 2.282412 1_555
Mg19 O20 2.048216 1_555
Mg19 O16 2.066876 1_545
Mg19 O3 2.110152 1_546
Mg19 O12 2.218188 1_555
Mg19 O14 2.218261 1_545
Mg19 O4 2.282875 1_555
Mg20 O21 2.151281 1_555
Mg20 O13 2.171141 1_555
Mg20 O11 2.171279 1_555
Mg20 O5 2.178676 1_555
Mg20 O17 2.189905 1_555
Mg20 O6 2.206910 1_555
Mg21 O22 2.151287 1_555
Mg21 O14 2.171143 1_555
Mg21 O12 2.171277 1_555
Mg21 O5 2.178671 1_556
Mg21 O18 2.189940 1_555
Mg21 O6 2.206907 1_555
Mg22 O1 2.046474 1_554
Mg22 O27 2.093721 1_554
Mg22 O8 2.220078 1_554
Mg22 O7 2.220100 1_555
Mg22 O23 2.344155 1_455
Mg23 O28 2.113521 1_555
Mg23 O2 2.115403 1_555
Mg23 O7 2.177474 1_555
Mg23 O8 2.177617 1_555
Mg23 O24 2.224666 1_455
Mg23 O0 2.273839 1_545
Mg24 O1 2.046542 1_555
Mg24 O29 2.093741 1_556
Mg24 O9 2.219903 1_556
Mg24 O10 2.219973 1_555
Mg24 O25 2.344125 1_456
Mg25 O30 2.113633 1_555
Mg25 O2 2.115560 1_555
Mg25 O10 2.177650 1_555
Mg25 O9 2.177692 1_555
Mg25 O26 2.224252 1_455
Mg25 O0 2.272679 1_555
Mg26 O27 2.108007 1_554
Mg26 O23 2.139173 1_555
Mg26 O5 2.172112 1_555
Mg26 O11 2.203475 1_555
Mg26 O12 2.203503 1_554
Mg26 O3 2.223527 1_545
Mg27 O28 2.112454 1_555
Mg27 O6 2.135705 1_555
Mg27 O12 2.182858 1_555
Mg27 O11 2.182862 1_555
Mg27 O24 2.220430 1_555
Mg27 O4 2.251870 1_555
Mg28 O29 2.107972 1_555
Mg28 O25 2.139189 1_555
Mg28 O5 2.172149 1_555
Mg28 O13 2.203648 1_555
Mg28 O14 2.203699 1_554
Mg28 O3 2.223322 1_555
Mg29 O30 2.112316 1_555
Mg29 O6 2.135586 1_555
Mg29 O13 2.182665 1_555
Mg29 O14 2.182672 1_555
Mg29 O26 2.220873 1_555
Mg29 O4 2.253154 1_565
