# generated using pymatgen
data_TbScSb
_symmetry_space_group_name_H-M   'P 1'
_cell_length_a   4.34915348
_cell_length_b   4.34915348
_cell_length_c   8.20800705
_cell_angle_alpha   90.00000000
_cell_angle_beta   90.00000000
_cell_angle_gamma   90.00000000
_symmetry_Int_Tables_number   1
_chemical_formula_structural   TbScSb
_chemical_formula_sum   'Tb2 Sc2 Sb2'
_cell_volume   155.25556958
_cell_formula_units_Z   2
loop_
 _symmetry_equiv_pos_site_id
 _symmetry_equiv_pos_as_xyz
  1  'x, y, z'
loop_
 _atom_site_type_symbol
 _atom_site_label
 _atom_site_symmetry_multiplicity
 _atom_site_fract_x
 _atom_site_fract_y
 _atom_site_fract_z
 _atom_site_occupancy
  Tb  Tb0  1  -0.00000000  0.50000000  0.34938434  1
  Tb  Tb1  1  0.50000000  -0.00000000  0.65061566  1
  Sc  Sc0  1  -0.00000000  0.00000000  0.00000000  1
  Sc  Sc1  1  0.50000000  0.50000000  -0.00000000  1
  Sb  Sb0  1  -0.00000000  0.50000000  0.73527571  1
  Sb  Sb1  1  0.50000000  0.00000000  0.26472429  1
loop_
_geom_bond_atom_site_label_1
_geom_bond_atom_site_label_2
_geom_bond_distance
_geom_bond_site_symmetry_2
Sb0 Sc1 3.074101 1_456
Sb0 Sc1 3.074101 1_556
Sb0 Sc0 3.074101 1_556
Sb0 Sc0 3.074101 1_566
Sb0 Tb1 3.152846 1_455
Sb0 Tb1 3.152846 1_555
Sb0 Tb1 3.152846 1_565
Sb0 Tb1 3.152846 1_465
Sb0 Tb0 3.167399 1_555
Sb1 Sc1 3.074101 1_545
Sb1 Sc1 3.074101 1_555
Sb1 Sc0 3.074101 1_555
Sb1 Sc0 3.074101 1_655
Sb1 Tb0 3.152846 1_655
Sb1 Tb0 3.152846 1_555
Sb1 Tb0 3.152846 1_645
Sb1 Tb0 3.152846 1_545
Sb1 Tb1 3.167399 1_555
