# generated using pymatgen
data_Tb2Cr2C3
_symmetry_space_group_name_H-M   'P 1'
_cell_length_a   3.40095768
_cell_length_b   5.46918135
_cell_length_c   5.56459553
_cell_angle_alpha   104.68197151
_cell_angle_beta   90.00000000
_cell_angle_gamma   108.11469346
_symmetry_Int_Tables_number   1
_chemical_formula_structural   Tb2Cr2C3
_chemical_formula_sum   'Tb2 Cr2 C3'
_cell_volume   94.81158537
_cell_formula_units_Z   1
loop_
 _symmetry_equiv_pos_site_id
 _symmetry_equiv_pos_as_xyz
  1  'x, y, z'
loop_
 _atom_site_type_symbol
 _atom_site_label
 _atom_site_symmetry_multiplicity
 _atom_site_fract_x
 _atom_site_fract_y
 _atom_site_fract_z
 _atom_site_occupancy
  Tb  Tb0  1  0.39548143  0.79096286  0.68350341  1
  Tb  Tb1  1  0.60451857  0.20903714  0.31649659  1
  Cr  Cr0  1  0.15683058  0.31365916  0.88929347  1
  Cr  Cr1  1  0.84316942  0.68633984  0.11070653  1
  C  C0  1  0.71197872  0.42395545  0.77294052  1
  C  C1  1  0.28802128  0.57604455  0.22705948  1
  C  C2  1  -0.00000000  -0.00000000  -0.00000000  1
loop_
_geom_bond_atom_site_label_1
_geom_bond_atom_site_label_2
_geom_bond_distance
_geom_bond_site_symmetry_2
C0 Cr0 1.958959 1_555
C0 Cr0 1.958959 1_655
C0 Cr1 2.006402 1_556
C0 Tb1 2.487151 1_555
C0 Tb0 2.699105 1_655
C0 Tb0 2.699110 1_555
C1 Cr1 1.958955 1_455
C1 Cr1 1.958958 1_555
C1 Cr0 2.006404 1_554
C1 Tb0 2.487151 1_555
C1 Tb1 2.699105 1_455
C1 Tb1 2.699110 1_555
C2 Cr0 1.890373 1_554
C2 Cr1 1.890378 1_445
C2 Tb1 2.480607 1_555
C2 Tb0 2.480607 1_444
C2 Tb0 2.480607 1_544
C2 Tb1 2.480607 1_455
