# generated using pymatgen
data_Zr2Mo(PO6)2
_symmetry_space_group_name_H-M   'P 1'
_cell_length_a   9.34662300
_cell_length_b   9.49774000
_cell_length_c   12.59075800
_cell_angle_alpha   90.00000000
_cell_angle_beta   90.00000000
_cell_angle_gamma   90.00000000
_symmetry_Int_Tables_number   1
_chemical_formula_structural   Zr2Mo(PO6)2
_chemical_formula_sum   'Zr8 Mo4 P8 O48'
_cell_volume   1117.70418973
_cell_formula_units_Z   4
loop_
 _symmetry_equiv_pos_site_id
 _symmetry_equiv_pos_as_xyz
  1  'x, y, z'
loop_
 _atom_site_type_symbol
 _atom_site_label
 _atom_site_symmetry_multiplicity
 _atom_site_fract_x
 _atom_site_fract_y
 _atom_site_fract_z
 _atom_site_occupancy
  Zr  Zr0  1  0.22548100  0.45384500  0.62929600  1
  Zr  Zr1  1  0.27451900  0.54615500  0.12929600  1
  Zr  Zr2  1  0.77451900  0.95384500  0.62929600  1
  Zr  Zr3  1  0.27451900  0.95384500  0.87070400  1
  Zr  Zr4  1  0.72548100  0.04615500  0.12929600  1
  Zr  Zr5  1  0.72548100  0.45384500  0.87070400  1
  Zr  Zr6  1  0.77451900  0.54615500  0.37070400  1
  Zr  Zr7  1  0.22548100  0.04615500  0.37070400  1
  Mo  Mo0  1  0.03788400  0.25000000  0.00000000  1
  Mo  Mo1  1  0.96211600  0.75000000  0.00000000  1
  Mo  Mo2  1  0.53788400  0.25000000  0.50000000  1
  Mo  Mo3  1  0.46211600  0.75000000  0.50000000  1
  P  P0  1  0.88160200  0.60399000  0.64304500  1
  P  P1  1  0.88160200  0.89601000  0.35695500  1
  P  P2  1  0.61839800  0.10399000  0.85695500  1
  P  P3  1  0.61839800  0.39601000  0.14304500  1
  P  P4  1  0.11839800  0.39601000  0.35695500  1
  P  P5  1  0.11839800  0.10399000  0.64304500  1
  P  P6  1  0.38160200  0.89601000  0.14304500  1
  P  P7  1  0.38160200  0.60399000  0.85695500  1
  O  O0  1  0.64193700  0.23908900  0.17203400  1
  O  O1  1  0.64193700  0.26091100  0.82796600  1
  O  O2  1  0.85806300  0.73908900  0.32796600  1
  O  O3  1  0.85806300  0.76091100  0.67203400  1
  O  O4  1  0.35806300  0.76091100  0.82796600  1
  O  O5  1  0.35806300  0.73908900  0.17203400  1
  O  O6  1  0.14193700  0.26091100  0.67203400  1
  O  O7  1  0.14193700  0.23908900  0.32796600  1
  O  O8  1  0.67216100  0.07695700  0.97040900  1
  O  O9  1  0.67216100  0.42304300  0.02959100  1
  O  O10  1  0.82783900  0.57695700  0.52959100  1
  O  O11  1  0.82783900  0.92304300  0.47040900  1
  O  O12  1  0.32783900  0.92304300  0.02959100  1
  O  O13  1  0.32783900  0.57695700  0.97040900  1
  O  O14  1  0.17216100  0.42304300  0.47040900  1
  O  O15  1  0.17216100  0.07695700  0.52959100  1
  O  O16  1  0.07391600  0.84167100  0.90761400  1
  O  O17  1  0.92608400  0.15832900  0.09238600  1
  O  O18  1  0.57391600  0.65832900  0.40761400  1
  O  O19  1  0.57391600  0.84167100  0.59238600  1
  O  O20  1  0.04287900  0.92993100  0.34894000  1
  O  O21  1  0.04287900  0.57006900  0.65106000  1
  O  O22  1  0.45712100  0.42993100  0.15106000  1
  O  O23  1  0.45712100  0.07006900  0.84894000  1
  O  O24  1  0.95712100  0.07006900  0.65106000  1
  O  O25  1  0.95712100  0.42993100  0.34894000  1
  O  O26  1  0.54287900  0.57006900  0.84894000  1
  O  O27  1  0.54287900  0.92993100  0.15106000  1
  O  O28  1  0.35018900  0.87067000  0.42891800  1
  O  O29  1  0.35018900  0.62933000  0.57108200  1
  O  O30  1  0.14981100  0.37067000  0.07108200  1
  O  O31  1  0.14981100  0.12933000  0.92891800  1
  O  O32  1  0.64981100  0.12933000  0.57108200  1
  O  O33  1  0.64981100  0.37067000  0.42891800  1
  O  O34  1  0.85018900  0.62933000  0.92891800  1
  O  O35  1  0.85018900  0.87067000  0.07108200  1
  O  O36  1  0.29921900  0.99111200  0.22148800  1
  O  O37  1  0.29921900  0.50888800  0.77851200  1
  O  O38  1  0.20078100  0.49111200  0.27851200  1
  O  O39  1  0.20078100  0.00888800  0.72148800  1
  O  O40  1  0.70078100  0.00888800  0.77851200  1
  O  O41  1  0.70078100  0.49111200  0.22148800  1
  O  O42  1  0.79921900  0.50888800  0.72148800  1
  O  O43  1  0.79921900  0.99111200  0.27851200  1
  O  O44  1  0.42608400  0.15832900  0.40761400  1
  O  O45  1  0.42608400  0.34167100  0.59238600  1
  O  O46  1  0.07391600  0.65832900  0.09238600  1
  O  O47  1  0.92608400  0.34167100  0.90761400  1
loop_
_geom_bond_atom_site_label_1
_geom_bond_atom_site_label_2
_geom_bond_distance
_geom_bond_site_symmetry_2
Mo0 O17 1.789705 1_455
Mo0 O47 1.789705 1_454
Mo0 O30 1.791345 1_555
Mo0 O31 1.791345 1_554
Mo1 O46 1.789705 1_655
Mo1 O16 1.789705 1_654
Mo1 O35 1.791345 1_555
Mo1 O34 1.791345 1_554
Mo2 O45 1.789705 1_555
Mo2 O44 1.789705 1_555
Mo2 O32 1.791345 1_555
Mo2 O33 1.791345 1_555
Mo3 O19 1.789705 1_555
Mo3 O18 1.789705 1_555
Mo3 O29 1.791345 1_555
Mo3 O28 1.791345 1_555
O0 P3 1.550130 1_555
O0 Zr4 2.063278 1_555
O1 P2 1.550130 1_555
O1 Zr5 2.063278 1_555
O2 P1 1.550130 1_555
O2 Zr6 2.063278 1_555
O3 P0 1.550130 1_555
O3 Zr2 2.063278 1_555
O4 P7 1.550130 1_555
O4 Zr3 2.063278 1_555
O5 P6 1.550130 1_555
O5 Zr1 2.063278 1_555
O6 P5 1.550130 1_555
O6 Zr0 2.063278 1_555
O7 P4 1.550130 1_555
O7 Zr7 2.063278 1_555
O8 P2 1.535891 1_555
O8 Zr4 2.082302 1_556
O9 P3 1.535891 1_555
O9 Zr5 2.082302 1_554
O10 P0 1.535891 1_555
O10 Zr6 2.082302 1_555
O11 P1 1.535891 1_555
O11 Zr2 2.082302 1_555
O12 P6 1.535891 1_555
O12 Zr3 2.082302 1_554
O13 P7 1.535891 1_555
O13 Zr1 2.082302 1_556
O14 P4 1.535891 1_555
O14 Zr0 2.082302 1_555
O15 P5 1.535891 1_555
O15 Zr7 2.082302 1_555
O16 Zr3 2.206020 1_555
O17 Zr4 2.206020 1_555
O18 Zr6 2.206020 1_555
O19 Zr2 2.206020 1_555
O20 P1 1.544739 1_455
O20 Zr7 2.050969 1_565
O21 P0 1.544739 1_455
O21 Zr0 2.050969 1_555
O22 P3 1.544739 1_555
O22 Zr1 2.050969 1_555
O23 P2 1.544739 1_555
O23 Zr3 2.050969 1_545
O24 P5 1.544739 1_655
O24 Zr2 2.050969 1_545
O25 P4 1.544739 1_655
O25 Zr6 2.050969 1_555
O26 P7 1.544739 1_555
O26 Zr5 2.050969 1_555
O27 P6 1.544739 1_555
O27 Zr4 2.050969 1_565
O28 Zr7 2.161891 1_565
O29 Zr0 2.161891 1_555
O30 Zr1 2.161891 1_555
O31 Zr3 2.161891 1_545
O32 Zr2 2.161891 1_545
O33 Zr6 2.161891 1_555
O34 Zr5 2.161891 1_555
O35 Zr4 2.161891 1_565
O36 P6 1.544098 1_555
O36 Zr7 2.068327 1_565
O37 P7 1.544098 1_555
O37 Zr0 2.068327 1_555
O38 P4 1.544098 1_555
O38 Zr1 2.068327 1_555
O39 P5 1.544098 1_555
O39 Zr3 2.068327 1_545
O40 P2 1.544098 1_555
O40 Zr2 2.068327 1_545
O41 P3 1.544098 1_555
O41 Zr6 2.068327 1_555
O42 P0 1.544098 1_555
O42 Zr5 2.068327 1_555
O43 P1 1.544098 1_555
O43 Zr4 2.068327 1_565
O44 Zr7 2.206020 1_555
O45 Zr0 2.206020 1_555
O46 Zr1 2.206020 1_555
O47 Zr5 2.206020 1_555
