# generated using pymatgen
data_Yb2Ru
_symmetry_space_group_name_H-M   'P 1'
_cell_length_a   3.29522320
_cell_length_b   3.29522320
_cell_length_c   6.85715408
_cell_angle_alpha   90.00000000
_cell_angle_beta   90.00000000
_cell_angle_gamma   90.00000000
_symmetry_Int_Tables_number   1
_chemical_formula_structural   Yb2Ru
_chemical_formula_sum   'Yb2 Ru1'
_cell_volume   74.45837979
_cell_formula_units_Z   1
loop_
 _symmetry_equiv_pos_site_id
 _symmetry_equiv_pos_as_xyz
  1  'x, y, z'
loop_
 _atom_site_type_symbol
 _atom_site_label
 _atom_site_symmetry_multiplicity
 _atom_site_fract_x
 _atom_site_fract_y
 _atom_site_fract_z
 _atom_site_occupancy
  Yb  Yb0  1  0.00000000  0.00000000  0.76621992  1
  Yb  Yb1  1  0.00000000  0.00000000  0.23378008  1
  Ru  Ru0  1  0.50000000  0.50000000  0.00000000  1
loop_
_geom_bond_atom_site_label_1
_geom_bond_atom_site_label_2
_geom_bond_distance
_geom_bond_site_symmetry_2
Ru0 Yb1 2.828262 1_655
Ru0 Yb1 2.828262 1_555
Ru0 Yb1 2.828262 1_565
Ru0 Yb1 2.828262 1_665
Ru0 Yb0 2.828262 1_564
Ru0 Yb0 2.828262 1_554
Ru0 Yb0 2.828262 1_664
Ru0 Yb0 2.828262 1_654
