# generated using pymatgen
data_Ba6(BiSe2)13
_symmetry_space_group_name_H-M   'P 1'
_cell_length_a   4.30677400
_cell_length_b   17.52840600
_cell_length_c   18.81196552
_cell_angle_alpha   89.44501130
_cell_angle_beta   90.00000000
_cell_angle_gamma   90.00000000
_symmetry_Int_Tables_number   1
_chemical_formula_structural   Ba6(BiSe2)13
_chemical_formula_sum   'Ba6 Bi13 Se26'
_cell_volume   1420.06527004
_cell_formula_units_Z   1
loop_
 _symmetry_equiv_pos_site_id
 _symmetry_equiv_pos_as_xyz
  1  'x, y, z'
loop_
 _atom_site_type_symbol
 _atom_site_label
 _atom_site_symmetry_multiplicity
 _atom_site_fract_x
 _atom_site_fract_y
 _atom_site_fract_z
 _atom_site_occupancy
  Ba  Ba0  1  0.00000000  0.74767500  0.26524800  1
  Ba  Ba1  1  0.50000000  0.24486000  0.73192300  1
  Ba  Ba2  1  0.00000000  0.26534000  0.17320000  1
  Ba  Ba3  1  0.50000000  0.74040000  0.82101600  1
  Ba  Ba4  1  0.00000000  0.48213500  0.34409700  1
  Ba  Ba5  1  0.50000000  0.51792300  0.65678300  1
  Bi  Bi0  1  0.00000000  0.07889600  0.58586900  1
  Bi  Bi1  1  0.50000000  0.92051500  0.43221400  1
  Bi  Bi2  1  0.00000000  0.32615400  0.52543500  1
  Bi  Bi3  1  0.50000000  0.67468000  0.47745600  1
  Bi  Bi4  1  0.00000000  0.09866000  0.97393700  1
  Bi  Bi5  1  0.50000000  0.90240100  0.02199000  1
  Bi  Bi6  1  0.00000000  0.68976300  0.04409800  1
  Bi  Bi7  1  0.50000000  0.30992600  0.95715300  1
  Bi  Bi8  1  0.00000000  0.51036000  0.88246900  1
  Bi  Bi9  1  0.50000000  0.48995600  0.11654600  1
  Bi  Bi10  1  0.00000000  0.83070800  0.62717200  1
  Bi  Bi11  1  0.50000000  0.17140300  0.38606500  1
  Bi  Bi12  1  0.00000000  0.01087700  0.25122300  1
  Se  Se0  1  0.00000000  0.27428800  0.36018000  1
  Se  Se1  1  0.50000000  0.72243900  0.63483000  1
  Se  Se2  1  0.00000000  0.39563600  0.03480900  1
  Se  Se3  1  0.50000000  0.60515800  0.96560000  1
  Se  Se4  1  0.00000000  0.60654800  0.76637800  1
  Se  Se5  1  0.50000000  0.39341000  0.23331400  1
  Se  Se6  1  0.00000000  0.57798800  0.17363000  1
  Se  Se7  1  0.50000000  0.42125800  0.82585500  1
  Se  Se8  1  0.00000000  0.86810200  0.76306900  1
  Se  Se9  1  0.50000000  0.12975100  0.23938500  1
  Se  Se10  1  0.00000000  0.98431600  0.09408700  1
  Se  Se11  1  0.50000000  0.01444200  0.90787500  1
  Se  Se12  1  0.00000000  0.10462700  0.72238400  1
  Se  Se13  1  0.50000000  0.89879600  0.27526300  1
  Se  Se14  1  0.00000000  0.03952800  0.40562900  1
  Se  Se15  1  0.50000000  0.95838100  0.58357400  1
  Se  Se16  1  0.00000000  0.80573400  0.44072400  1
  Se  Se17  1  0.50000000  0.19673200  0.54939700  1
  Se  Se18  1  0.00000000  0.81366600  0.94533400  1
  Se  Se19  1  0.50000000  0.18993100  0.05699600  1
  Se  Se20  1  0.00000000  0.37367300  0.66499700  1
  Se  Se21  1  0.50000000  0.62719900  0.33524100  1
  Se  Se22  1  0.00000000  0.57346500  0.51161600  1
  Se  Se23  1  0.50000000  0.42691100  0.48605300  1
  Se  Se24  1  0.00000000  0.23299900  0.87664500  1
  Se  Se25  1  0.50000000  0.76408800  0.12494200  1
loop_
_geom_bond_atom_site_label_1
_geom_bond_atom_site_label_2
_geom_bond_distance
_geom_bond_site_symmetry_2
Ba0 Se21 3.282746 1_555
Ba0 Se21 3.282746 1_455
Ba0 Se25 3.416392 1_555
Ba0 Se25 3.416392 1_455
Ba0 Se13 3.420375 1_455
Ba0 Se13 3.420375 1_555
Ba0 Se6 3.452032 1_555
Ba0 Se16 3.463766 1_555
Ba1 Se12 3.274124 1_655
Ba1 Se12 3.274124 1_555
Ba1 Se20 3.356361 1_655
Ba1 Se20 3.356361 1_555
Ba1 Se24 3.475826 1_655
Ba1 Se24 3.475826 1_555
Ba1 Se17 3.543712 1_555
Ba1 Se7 3.576116 1_555
Ba2 Se5 3.317305 1_555
Ba2 Se5 3.317305 1_455
Ba2 Se19 3.349465 1_455
Ba2 Se19 3.349465 1_555
Ba2 Se9 3.431976 1_455
Ba2 Se9 3.431976 1_555
Ba2 Se2 3.446542 1_555
Ba2 Se0 3.522474 1_555
Ba3 Se8 3.284602 1_555
Ba3 Se8 3.284602 1_655
Ba3 Se4 3.353353 1_555
Ba3 Se4 3.353353 1_655
Ba3 Se18 3.437132 1_655
Ba3 Se18 3.437132 1_555
Ba3 Se1 3.519681 1_555
Ba3 Se3 3.590631 1_555
Ba4 Se21 3.334989 1_555
Ba4 Se21 3.334989 1_455
Ba4 Se5 3.385526 1_555
Ba4 Se5 3.385526 1_455
Ba4 Se22 3.548464 1_555
Ba4 Se23 3.557445 1_555
Ba4 Se23 3.557445 1_455
Ba4 Se6 3.605859 1_555
Ba4 Se0 3.652846 1_555
Ba5 Se20 3.323636 1_555
Ba5 Se20 3.323636 1_655
Ba5 Se4 3.370896 1_555
Ba5 Se4 3.370896 1_655
Ba5 Se7 3.589234 1_555
Ba5 Se23 3.599955 1_555
Ba5 Se22 3.604314 1_655
Ba5 Se22 3.604314 1_555
Ba5 Se1 3.604573 1_555
Bi0 Se12 2.611719 1_555
Bi0 Se15 3.017133 1_545
Bi0 Se15 3.017133 1_445
Bi0 Se17 3.057215 1_455
Bi0 Se17 3.057215 1_555
Bi1 Se15 2.929969 1_555
Bi1 Se16 2.950308 1_555
Bi1 Se16 2.950308 1_655
Bi1 Se13 2.980654 1_555
Bi1 Se14 3.036252 1_565
Bi1 Se14 3.036252 1_665
Bi2 Se20 2.762074 1_555
Bi2 Se23 2.877453 1_555
Bi2 Se23 2.877453 1_455
Bi2 Se17 3.157029 1_455
Bi2 Se17 3.157029 1_555
Bi2 Se0 3.247418 1_555
Bi3 Se21 2.809496 1_555
Bi3 Se22 2.859285 1_655
Bi3 Se22 2.859285 1_555
Bi3 Se1 3.084390 1_555
Bi3 Se16 3.218818 1_655
Bi3 Se16 3.218818 1_555
Bi4 Se11 2.897628 1_455
Bi4 Se11 2.897628 1_555
Bi4 Se24 2.968363 1_555
Bi4 Se10 3.006342 1_546
Bi4 Se19 3.112297 1_456
Bi4 Se19 3.112297 1_556
Bi5 Se11 2.895457 1_564
Bi5 Se10 2.928472 1_555
Bi5 Se10 2.928472 1_655
Bi5 Se18 3.029728 1_554
Bi5 Se18 3.029728 1_654
Bi5 Se25 3.088318 1_555
Bi6 Se18 2.844398 1_554
Bi6 Se25 2.947148 1_555
Bi6 Se25 2.947148 1_455
Bi6 Se3 3.009885 1_554
Bi6 Se3 3.009885 1_454
Bi6 Se6 3.111894 1_555
Bi7 Se19 2.806283 1_556
Bi7 Se24 2.964556 1_655
Bi7 Se24 2.964556 1_555
Bi7 Se2 3.011776 1_656
Bi7 Se2 3.011776 1_556
Bi7 Se7 3.132992 1_555
Bi8 Se4 2.746044 1_555
Bi8 Se7 2.871034 1_455
Bi8 Se7 2.871034 1_555
Bi8 Se3 3.145501 1_455
Bi8 Se3 3.145501 1_555
Bi9 Se5 2.759903 1_555
Bi9 Se6 2.864157 1_655
Bi9 Se6 2.864157 1_555
Bi9 Se2 3.127934 1_555
Bi9 Se2 3.127934 1_655
Bi10 Se8 2.645321 1_555
Bi10 Se1 2.872997 1_555
Bi10 Se1 2.872997 1_455
Bi10 Se15 3.206619 1_455
Bi10 Se15 3.206619 1_555
Bi11 Se0 2.847713 1_555
Bi11 Se0 2.847713 1_655
Bi11 Se9 2.861121 1_555
Bi11 Se17 3.108760 1_555
Bi11 Se14 3.177947 1_655
Bi11 Se14 3.177947 1_555
Bi12 Se13 2.946870 1_445
Bi12 Se13 2.946870 1_545
Bi12 Se14 2.952565 1_555
Bi12 Se10 2.996927 1_545
Bi12 Se9 3.003226 1_555
Bi12 Se9 3.003226 1_455
