# generated using pymatgen
data_Mo2Rh
_symmetry_space_group_name_H-M   'P 1'
_cell_length_a   13.02995497
_cell_length_b   12.97167758
_cell_length_c   5.44520599
_cell_angle_alpha   78.51205721
_cell_angle_beta   77.31280881
_cell_angle_gamma   24.17513399
_symmetry_Int_Tables_number   1
_chemical_formula_structural   Mo2Rh
_chemical_formula_sum   'Mo16 Rh8'
_cell_volume   367.70421680
_cell_formula_units_Z   8
loop_
 _symmetry_equiv_pos_site_id
 _symmetry_equiv_pos_as_xyz
  1  'x, y, z'
loop_
 _atom_site_type_symbol
 _atom_site_label
 _atom_site_symmetry_multiplicity
 _atom_site_fract_x
 _atom_site_fract_y
 _atom_site_fract_z
 _atom_site_occupancy
  Mo  Mo0_0  1  0.17028950  0.17028950  0.32971050  1
  Mo  Mo0_1  1  0.17028950  0.17028950  0.82971050  1
  Mo  Mo0_2  1  0.17028950  0.67028950  0.32971050  1
  Mo  Mo0_3  1  0.17028950  0.67028950  0.82971050  1
  Mo  Mo0_4  1  0.67028950  0.17028950  0.32971050  1
  Mo  Mo0_5  1  0.67028950  0.17028950  0.82971050  1
  Mo  Mo0_6  1  0.67028950  0.67028950  0.32971050  1
  Mo  Mo0_7  1  0.67028950  0.67028950  0.82971050  1
  Mo  Mo1_0  1  0.32971050  0.32971050  0.17028950  1
  Mo  Mo1_1  1  0.32971050  0.32971050  0.67028950  1
  Mo  Mo1_2  1  0.32971050  0.82971050  0.17028950  1
  Mo  Mo1_3  1  0.32971050  0.82971050  0.67028950  1
  Mo  Mo1_4  1  0.82971050  0.32971050  0.17028950  1
  Mo  Mo1_5  1  0.82971050  0.32971050  0.67028950  1
  Mo  Mo1_6  1  0.82971050  0.82971050  0.17028950  1
  Mo  Mo1_7  1  0.82971050  0.82971050  0.67028950  1
  Rh  Rh0_0  1  0.00000000  0.00000000  0.00000000  1
  Rh  Rh0_1  1  0.00000000  0.00000000  0.50000000  1
  Rh  Rh0_2  1  0.00000000  0.50000000  0.00000000  1
  Rh  Rh0_3  1  0.00000000  0.50000000  0.50000000  1
  Rh  Rh0_4  1  0.50000000  0.00000000  0.00000000  1
  Rh  Rh0_5  1  0.50000000  0.00000000  0.50000000  1
  Rh  Rh0_6  1  0.50000000  0.50000000  0.00000000  1
  Rh  Rh0_7  1  0.50000000  0.50000000  0.50000000  1
loop_
_geom_bond_atom_site_label_1
_geom_bond_atom_site_label_2
_geom_bond_distance
_geom_bond_site_symmetry_2
Mo0_0 Mo0_1 2.722603 1_555
Mo0_0 Mo0_6 2.722603 1_455
Mo0_0 Mo0_1 2.722603 1_554
Mo0_0 Mo0_6 2.722603 1_545
Mo0_0 Rh0_4 2.726865 1_555
Mo0_0 Rh0_3 2.726865 1_555
Mo0_0 Rh0_2 2.795464 1_555
Mo0_0 Rh0_5 2.795464 1_555
Mo0_0 Mo1_2 2.928709 1_545
Mo0_0 Mo1_5 2.928709 1_455
Mo0_0 Mo1_3 2.992685 1_545
Mo0_0 Mo1_4 2.992685 1_455
Mo0_1 Mo0_7 2.722603 1_455
Mo0_1 Mo0_7 2.722603 1_545
Mo0_1 Rh0_5 2.726865 1_555
Mo0_1 Rh0_2 2.726865 1_556
Mo0_1 Rh0_3 2.795464 1_555
Mo0_1 Rh0_4 2.795464 1_556
Mo0_1 Mo1_3 2.928709 1_545
Mo0_1 Mo1_4 2.928709 1_456
Mo0_1 Mo1_5 2.992685 1_455
Mo0_1 Mo1_2 2.992685 1_546
Mo0_2 Mo0_3 2.722603 1_555
Mo0_2 Mo0_4 2.722603 1_555
Mo0_2 Mo0_4 2.722603 1_465
Mo0_2 Mo0_3 2.722603 1_554
Mo0_2 Rh0_6 2.726865 1_555
Mo0_2 Rh0_1 2.726865 1_565
Mo0_2 Rh0_0 2.795464 1_565
Mo0_2 Rh0_7 2.795464 1_555
Mo0_2 Mo1_7 2.928709 1_455
Mo0_2 Mo1_0 2.928709 1_555
Mo0_2 Mo1_6 2.992685 1_455
Mo0_2 Mo1_1 2.992685 1_555
Mo0_3 Mo0_5 2.722603 1_555
Mo0_3 Mo0_5 2.722603 1_465
Mo0_3 Rh0_7 2.726865 1_555
Mo0_3 Rh0_0 2.726865 1_566
Mo0_3 Rh0_1 2.795464 1_565
Mo0_3 Rh0_6 2.795464 1_556
Mo0_3 Mo1_6 2.928709 1_456
Mo0_3 Mo1_1 2.928709 1_555
Mo0_3 Mo1_7 2.992685 1_455
Mo0_3 Mo1_0 2.992685 1_556
Mo0_4 Mo0_5 2.722603 1_554
Mo0_4 Mo0_5 2.722603 1_555
Mo0_4 Rh0_0 2.726865 1_655
Mo0_4 Rh0_7 2.726865 1_555
Mo0_4 Rh0_6 2.795464 1_555
Mo0_4 Rh0_1 2.795464 1_655
Mo0_4 Mo1_6 2.928709 1_545
Mo0_4 Mo1_1 2.928709 1_555
Mo0_4 Mo1_7 2.992685 1_545
Mo0_4 Mo1_0 2.992685 1_555
Mo0_5 Rh0_1 2.726865 1_655
Mo0_5 Rh0_6 2.726865 1_556
Mo0_5 Rh0_7 2.795464 1_555
Mo0_5 Rh0_0 2.795464 1_656
Mo0_5 Mo1_7 2.928709 1_545
Mo0_5 Mo1_0 2.928709 1_556
Mo0_5 Mo1_6 2.992685 1_546
Mo0_5 Mo1_1 2.992685 1_555
Mo0_6 Mo0_7 2.722603 1_554
Mo0_6 Mo0_7 2.722603 1_555
Mo0_6 Rh0_2 2.726865 1_655
Mo0_6 Rh0_5 2.726865 1_565
Mo0_6 Rh0_4 2.795464 1_565
Mo0_6 Rh0_3 2.795464 1_655
Mo0_6 Mo1_3 2.928709 1_555
Mo0_6 Mo1_4 2.928709 1_555
Mo0_6 Mo1_2 2.992685 1_555
Mo0_6 Mo1_5 2.992685 1_555
Mo0_7 Rh0_3 2.726865 1_655
Mo0_7 Rh0_4 2.726865 1_566
Mo0_7 Rh0_5 2.795464 1_565
Mo0_7 Rh0_2 2.795464 1_656
Mo0_7 Mo1_5 2.928709 1_555
Mo0_7 Mo1_2 2.928709 1_556
Mo0_7 Mo1_4 2.992685 1_556
Mo0_7 Mo1_3 2.992685 1_555
Mo1_0 Mo1_1 2.722603 1_555
Mo1_0 Mo1_6 2.722603 1_455
Mo1_0 Mo1_1 2.722603 1_554
Mo1_0 Mo1_6 2.722603 1_545
Mo1_0 Rh0_4 2.726865 1_555
Mo1_0 Rh0_3 2.726865 1_555
Mo1_0 Rh0_2 2.795464 1_555
Mo1_0 Rh0_5 2.795464 1_555
Mo1_1 Mo1_7 2.722603 1_455
Mo1_1 Mo1_7 2.722603 1_545
Mo1_1 Rh0_5 2.726865 1_555
Mo1_1 Rh0_2 2.726865 1_556
Mo1_1 Rh0_3 2.795464 1_555
Mo1_1 Rh0_4 2.795464 1_556
Mo1_2 Mo1_3 2.722603 1_555
Mo1_2 Mo1_4 2.722603 1_465
Mo1_2 Mo1_4 2.722603 1_555
Mo1_2 Mo1_3 2.722603 1_554
Mo1_2 Rh0_6 2.726865 1_555
Mo1_2 Rh0_1 2.726865 1_565
Mo1_2 Rh0_0 2.795464 1_565
Mo1_2 Rh0_7 2.795464 1_555
Mo1_3 Mo1_5 2.722603 1_555
Mo1_3 Mo1_5 2.722603 1_465
Mo1_3 Rh0_7 2.726865 1_555
Mo1_3 Rh0_0 2.726865 1_566
Mo1_3 Rh0_1 2.795464 1_565
Mo1_3 Rh0_6 2.795464 1_556
Mo1_4 Mo1_5 2.722603 1_555
Mo1_4 Mo1_5 2.722603 1_554
Mo1_4 Rh0_0 2.726865 1_655
Mo1_4 Rh0_7 2.726865 1_555
Mo1_4 Rh0_6 2.795464 1_555
Mo1_4 Rh0_1 2.795464 1_655
Mo1_5 Rh0_1 2.726865 1_655
Mo1_5 Rh0_6 2.726865 1_556
Mo1_5 Rh0_7 2.795464 1_555
Mo1_5 Rh0_0 2.795464 1_656
Mo1_6 Mo1_7 2.722603 1_554
Mo1_6 Mo1_7 2.722603 1_555
Mo1_6 Rh0_2 2.726865 1_655
Mo1_6 Rh0_5 2.726865 1_565
Mo1_6 Rh0_4 2.795464 1_565
Mo1_6 Rh0_3 2.795464 1_655
Mo1_7 Rh0_3 2.726865 1_655
Mo1_7 Rh0_4 2.726865 1_566
Mo1_7 Rh0_5 2.795464 1_565
Mo1_7 Rh0_2 2.795464 1_656
Rh0_0 Rh0_6 2.722603 1_455
Rh0_0 Rh0_6 2.722603 1_545
Rh0_0 Rh0_1 2.722603 1_555
Rh0_0 Rh0_1 2.722603 1_554
Rh0_1 Rh0_7 2.722603 1_455
Rh0_1 Rh0_7 2.722603 1_545
Rh0_2 Rh0_3 2.722603 1_554
Rh0_2 Rh0_4 2.722603 1_555
Rh0_2 Rh0_4 2.722603 1_465
Rh0_2 Rh0_3 2.722603 1_555
Rh0_3 Rh0_5 2.722603 1_465
Rh0_3 Rh0_5 2.722603 1_555
Rh0_4 Rh0_5 2.722603 1_554
Rh0_4 Rh0_5 2.722603 1_555
Rh0_6 Rh0_7 2.722603 1_554
Rh0_6 Rh0_7 2.722603 1_555
