# generated using pymatgen
data_Mg6SbW
_symmetry_space_group_name_H-M   'P 1'
_cell_length_a   5.18920100
_cell_length_b   5.91355800
_cell_length_c   10.74531300
_cell_angle_alpha   90.00000000
_cell_angle_beta   90.00000000
_cell_angle_gamma   90.00000000
_symmetry_Int_Tables_number   1
_chemical_formula_structural   Mg6SbW
_chemical_formula_sum   'Mg12 Sb2 W2'
_cell_volume   329.73756340
_cell_formula_units_Z   2
loop_
 _symmetry_equiv_pos_site_id
 _symmetry_equiv_pos_as_xyz
  1  'x, y, z'
loop_
 _atom_site_type_symbol
 _atom_site_label
 _atom_site_symmetry_multiplicity
 _atom_site_fract_x
 _atom_site_fract_y
 _atom_site_fract_z
 _atom_site_occupancy
  Mg  Mg0  1  0.50000000  0.24829000  0.41736800  1
  Mg  Mg1  1  0.50000000  0.75171000  0.41736800  1
  Mg  Mg2  1  0.00000000  0.76176700  0.08480600  1
  Mg  Mg3  1  0.00000000  0.23823300  0.08480600  1
  Mg  Mg4  1  0.00000000  0.00000000  0.32474300  1
  Mg  Mg5  1  0.00000000  0.50000000  0.33507400  1
  Mg  Mg6  1  0.50000000  0.74829000  0.91736800  1
  Mg  Mg7  1  0.50000000  0.25171000  0.91736800  1
  Mg  Mg8  1  0.00000000  0.26176700  0.58480600  1
  Mg  Mg9  1  0.00000000  0.73823300  0.58480600  1
  Mg  Mg10  1  0.00000000  0.50000000  0.82474300  1
  Mg  Mg11  1  0.00000000  0.00000000  0.83507400  1
  Sb  Sb0  1  0.50000000  0.50000000  0.16958600  1
  Sb  Sb1  1  0.50000000  0.00000000  0.66958600  1
  W  W0  1  0.50000000  0.00000000  0.16624500  1
  W  W1  1  0.50000000  0.50000000  0.66624500  1
loop_
_geom_bond_atom_site_label_1
_geom_bond_atom_site_label_2
_geom_bond_distance
_geom_bond_site_symmetry_2
Mg0 Mg1 2.936555 1_545
Mg0 Mg1 2.977003 1_555
Mg0 Sb0 3.050331 1_555
Mg0 W1 3.060606 1_555
Mg0 W0 3.071999 1_555
Mg0 Sb1 3.082339 1_555
Mg0 Mg5 3.119220 1_655
Mg0 Mg5 3.119220 1_555
Mg0 Mg4 3.142989 1_555
Mg0 Mg4 3.142989 1_655
Mg0 Mg8 3.158374 1_655
Mg0 Mg8 3.158374 1_555
Mg1 Sb0 3.050331 1_555
Mg1 W1 3.060606 1_555
Mg1 W0 3.071999 1_565
Mg1 Sb1 3.082339 1_565
Mg1 Mg5 3.119220 1_655
Mg1 Mg5 3.119220 1_555
Mg1 Mg4 3.142989 1_565
Mg1 Mg4 3.142989 1_665
Mg1 Mg9 3.158374 1_555
Mg1 Mg9 3.158374 1_655
Mg2 Mg3 2.817609 1_565
Mg2 Mg4 2.937999 1_565
Mg2 W0 3.079360 1_565
Mg2 W0 3.079360 1_465
Mg2 Mg3 3.095949 1_555
Mg2 Mg5 3.102912 1_555
Mg2 Sb0 3.155642 1_455
Mg2 Sb0 3.155642 1_555
Mg2 Mg6 3.158374 1_554
Mg2 Mg6 3.158374 1_454
Mg3 Mg4 2.937999 1_555
Mg3 W0 3.079360 1_455
Mg3 W0 3.079360 1_555
Mg3 Mg5 3.102912 1_555
Mg3 Sb0 3.155642 1_455
Mg3 Sb0 3.155642 1_555
Mg3 Mg7 3.158374 1_554
Mg3 Mg7 3.158374 1_454
Mg4 Mg5 2.958862 1_545
Mg4 Mg5 2.958862 1_555
Mg4 W0 3.103633 1_455
Mg4 W0 3.103633 1_555
Mg4 Mg8 3.194561 1_555
Mg4 Mg9 3.194561 1_545
Mg5 Mg9 3.030780 1_555
Mg5 Mg8 3.030780 1_555
Mg5 Sb0 3.145476 1_555
Mg5 Sb0 3.145476 1_455
Mg6 Mg7 2.936555 1_555
Mg6 Mg7 2.977003 1_565
Mg6 Sb1 3.050331 1_565
Mg6 W0 3.060606 1_566
Mg6 W1 3.071999 1_555
Mg6 Sb0 3.082339 1_556
Mg7 Sb1 3.050331 1_555
Mg7 W0 3.060606 1_556
Mg7 W1 3.071999 1_555
Mg7 Sb0 3.082339 1_556
Mg8 Mg9 2.817609 1_555
Mg8 W1 3.079360 1_455
Mg8 W1 3.079360 1_555
Mg8 Mg9 3.095949 1_545
Mg8 Sb1 3.155642 1_555
Mg8 Sb1 3.155642 1_455
Mg9 W1 3.079360 1_555
Mg9 W1 3.079360 1_455
Mg9 Sb1 3.155642 1_565
Mg9 Sb1 3.155642 1_465
Mg10 Mg9 2.937999 1_555
Mg10 Mg8 2.937999 1_555
Mg10 Mg11 2.958862 1_565
Mg10 Mg11 2.958862 1_555
Mg10 W1 3.103633 1_555
Mg10 W1 3.103633 1_455
Mg10 Mg7 3.142989 1_455
Mg10 Mg7 3.142989 1_555
Mg10 Mg6 3.142989 1_455
Mg10 Mg6 3.142989 1_555
Mg10 Mg2 3.194561 1_556
Mg10 Mg3 3.194561 1_556
Mg11 Mg3 3.030780 1_556
Mg11 Mg2 3.030780 1_546
Mg11 Mg8 3.102912 1_555
Mg11 Mg9 3.102912 1_545
Mg11 Mg6 3.119220 1_445
Mg11 Mg7 3.119220 1_455
Mg11 Mg6 3.119220 1_545
Mg11 Mg7 3.119220 1_555
Mg11 Sb1 3.145476 1_555
Mg11 Sb1 3.145476 1_455
Sb0 W0 2.956997 1_555
Sb0 W0 2.956997 1_565
Sb1 W1 2.956997 1_545
Sb1 W1 2.956997 1_555
