# generated using pymatgen
data_Na6Ca3U2O12
_symmetry_space_group_name_H-M   'P 1'
_cell_length_a   10.77698811
_cell_length_b   10.77698811
_cell_length_c   5.91323917
_cell_angle_alpha   79.71832118
_cell_angle_beta   79.71832118
_cell_angle_gamma   143.41825413
_symmetry_Int_Tables_number   1
_chemical_formula_structural   Na6Ca3U2O12
_chemical_formula_sum   'Na6 Ca3 U2 O12'
_cell_volume   336.66390725
_cell_formula_units_Z   1
loop_
 _symmetry_equiv_pos_site_id
 _symmetry_equiv_pos_as_xyz
  1  'x, y, z'
loop_
 _atom_site_type_symbol
 _atom_site_label
 _atom_site_symmetry_multiplicity
 _atom_site_fract_x
 _atom_site_fract_y
 _atom_site_fract_z
 _atom_site_occupancy
  Na  Na0  1  0.12374000  0.87626000  0.50000000  1
  Na  Na1  1  0.86953100  0.13046900  0.00000000  1
  Na  Na2  1  0.95696800  0.04303200  0.50000000  1
  Na  Na3  1  0.28811000  0.71189000  0.50000000  1
  Na  Na4  1  0.03662200  0.96337800  0.00000000  1
  Na  Na5  1  0.71958100  0.28041900  0.00000000  1
  Ca  Ca0  1  0.45771000  0.54229000  0.50000000  1
  Ca  Ca1  1  0.20944900  0.79055100  0.00000000  1
  Ca  Ca2  1  0.54357300  0.45642700  0.00000000  1
  U  U0  1  0.62726300  0.37273700  0.50000000  1
  U  U1  1  0.37357700  0.62642300  0.00000000  1
  O  O0  1  0.93121500  0.54589800  0.48278500  1
  O  O1  1  0.75891200  0.65894700  0.51474400  1
  O  O2  1  0.34105300  0.24108800  0.48525600  1
  O  O3  1  0.45410200  0.06878500  0.51721500  1
  O  O4  1  0.09977100  0.50263100  0.97160000  1
  O  O5  1  0.23481500  0.32985100  0.99071600  1
  O  O6  1  0.67014900  0.76518500  0.00928400  1
  O  O7  1  0.49736900  0.90022900  0.02840000  1
  O  O8  1  0.84387300  0.59291600  0.06165400  1
  O  O9  1  0.40708400  0.15612700  0.93834600  1
  O  O10  1  0.18299700  0.42024500  0.41953900  1
  O  O11  1  0.57975500  0.81700300  0.58046100  1
loop_
_geom_bond_atom_site_label_1
_geom_bond_atom_site_label_2
_geom_bond_distance
_geom_bond_site_symmetry_2
Na0 O3 2.309144 1_565
Na0 O0 2.309144 1_455
Na0 O1 2.442857 1_455
Na0 O2 2.442857 1_565
Na0 O9 2.732066 1_564
Na0 O8 2.732066 1_456
Na1 O4 2.428841 1_654
Na1 O7 2.428841 1_545
Na1 O5 2.532408 1_654
Na1 O6 2.532408 1_545
Na1 O10 2.835023 1_654
Na1 O11 2.835023 1_545
Na2 O10 2.382916 1_655
Na2 O11 2.382916 1_545
Na2 O5 2.486597 1_654
Na2 O6 2.486597 1_546
Na2 O2 2.704179 1_655
Na2 O1 2.704179 1_545
Na3 O4 2.316339 1_555
Na3 O7 2.316339 1_555
Na3 O10 2.529127 1_555
Na3 O11 2.529127 1_555
Na3 O0 2.675574 1_455
Na3 O3 2.675574 1_565
Na4 O8 2.505688 1_455
Na4 O9 2.505688 1_564
Na4 O1 2.529721 1_455
Na4 O2 2.529721 1_564
Na4 O6 2.548783 1_455
Na4 O5 2.548783 1_564
Na5 O4 2.530502 1_654
Na5 O7 2.530502 1_545
Na5 O9 2.576195 1_554
Na5 O8 2.576195 1_555
Na5 O3 2.578337 1_555
Na5 O0 2.578337 1_554
Ca0 O10 2.278988 1_555
Ca0 O11 2.278988 1_555
Ca0 O2 2.389786 1_555
Ca0 O1 2.389786 1_555
Ca0 O6 2.395765 1_555
Ca0 O5 2.395765 1_555
Ca1 O4 2.328084 1_554
Ca1 O7 2.328084 1_555
Ca1 O3 2.377613 1_564
Ca1 O0 2.377613 1_455
Ca1 O9 2.434093 1_564
Ca1 O8 2.434093 1_455
Ca2 O1 2.373929 1_554
Ca2 O2 2.373929 1_555
Ca2 O8 2.395346 1_555
Ca2 O9 2.395346 1_554
Ca2 O6 2.395435 1_555
Ca2 O5 2.395435 1_554
O0 U0 2.053948 1_555
O1 U0 2.155569 1_555
O2 U0 2.155569 1_555
O3 U0 2.053948 1_555
O4 U1 2.109452 1_556
O5 U1 2.206921 1_556
O6 U1 2.206921 1_555
O7 U1 2.109452 1_555
O8 U0 2.132354 1_555
O9 U0 2.132354 1_555
O10 U1 2.047958 1_555
O11 U1 2.047958 1_556
