# generated using pymatgen
data_Ge3Rh2S3
_symmetry_space_group_name_H-M   'P 1'
_cell_length_a   8.44745900
_cell_length_b   8.44745900
_cell_length_c   8.44745900
_cell_angle_alpha   90.00000000
_cell_angle_beta   90.00000000
_cell_angle_gamma   90.00000000
_symmetry_Int_Tables_number   1
_chemical_formula_structural   Ge3Rh2S3
_chemical_formula_sum   'Ge12 Rh8 S12'
_cell_volume   602.80698740
_cell_formula_units_Z   4
loop_
 _symmetry_equiv_pos_site_id
 _symmetry_equiv_pos_as_xyz
  1  'x, y, z'
loop_
 _atom_site_type_symbol
 _atom_site_label
 _atom_site_symmetry_multiplicity
 _atom_site_fract_x
 _atom_site_fract_y
 _atom_site_fract_z
 _atom_site_occupancy
  Ge  Ge0  1  0.66978800  0.00000000  0.14696900  1
  Ge  Ge1  1  0.33021200  0.00000000  0.85303100  1
  Ge  Ge2  1  0.33021200  0.00000000  0.14696900  1
  Ge  Ge3  1  0.66978800  0.00000000  0.85303100  1
  Ge  Ge4  1  0.14696900  0.66978800  0.00000000  1
  Ge  Ge5  1  0.85303100  0.33021200  0.00000000  1
  Ge  Ge6  1  0.14696900  0.33021200  0.00000000  1
  Ge  Ge7  1  0.85303100  0.66978800  0.00000000  1
  Ge  Ge8  1  0.00000000  0.14696900  0.66978800  1
  Ge  Ge9  1  0.00000000  0.85303100  0.33021200  1
  Ge  Ge10  1  0.00000000  0.14696900  0.33021200  1
  Ge  Ge11  1  0.00000000  0.85303100  0.66978800  1
  Rh  Rh0  1  0.73603600  0.26396400  0.26396400  1
  Rh  Rh1  1  0.26396400  0.26396400  0.73603600  1
  Rh  Rh2  1  0.26396400  0.73603600  0.26396400  1
  Rh  Rh3  1  0.73603600  0.73603600  0.73603600  1
  Rh  Rh4  1  0.26396400  0.73603600  0.73603600  1
  Rh  Rh5  1  0.73603600  0.73603600  0.26396400  1
  Rh  Rh6  1  0.73603600  0.26396400  0.73603600  1
  Rh  Rh7  1  0.26396400  0.26396400  0.26396400  1
  S  S0  1  0.17006000  0.50000000  0.62404300  1
  S  S1  1  0.82994000  0.50000000  0.37595700  1
  S  S2  1  0.82994000  0.50000000  0.62404300  1
  S  S3  1  0.17006000  0.50000000  0.37595700  1
  S  S4  1  0.62404300  0.17006000  0.50000000  1
  S  S5  1  0.37595700  0.82994000  0.50000000  1
  S  S6  1  0.62404300  0.82994000  0.50000000  1
  S  S7  1  0.37595700  0.17006000  0.50000000  1
  S  S8  1  0.50000000  0.62404300  0.17006000  1
  S  S9  1  0.50000000  0.37595700  0.82994000  1
  S  S10  1  0.50000000  0.62404300  0.82994000  1
  S  S11  1  0.50000000  0.37595700  0.17006000  1
loop_
_geom_bond_atom_site_label_1
_geom_bond_atom_site_label_2
_geom_bond_distance
_geom_bond_site_symmetry_2
Ge0 Ge3 2.483029 1_554
Ge0 Rh0 2.502411 1_555
Ge0 Rh5 2.502411 1_545
Ge0 Ge2 2.868554 1_555
Ge1 Ge2 2.483029 1_556
Ge1 Rh4 2.502411 1_545
Ge1 Rh1 2.502411 1_555
Ge1 Ge3 2.868554 1_555
Ge2 Rh2 2.502411 1_545
Ge2 Rh7 2.502411 1_555
Ge3 Rh6 2.502411 1_555
Ge3 Rh3 2.502411 1_545
Ge4 Ge7 2.483029 1_455
Ge4 Rh4 2.502411 1_554
Ge4 Rh2 2.502411 1_555
Ge4 Ge6 2.868554 1_555
Ge5 Ge6 2.483029 1_655
Ge5 Rh0 2.502411 1_555
Ge5 Rh6 2.502411 1_554
Ge5 Ge7 2.868554 1_555
Ge6 Rh1 2.502411 1_554
Ge6 Rh7 2.502411 1_555
Ge7 Rh5 2.502411 1_555
Ge7 Rh3 2.502411 1_554
Ge8 Rh6 2.502411 1_455
Ge8 Rh1 2.502411 1_555
Ge9 Rh2 2.502411 1_555
Ge9 Rh5 2.502411 1_455
Ge10 Ge9 2.483029 1_545
Ge10 Rh7 2.502411 1_555
Ge10 Rh0 2.502411 1_455
Ge10 Ge8 2.868554 1_555
Ge11 Ge8 2.483029 1_565
Ge11 Rh3 2.502411 1_455
Ge11 Rh4 2.502411 1_555
Ge11 Ge9 2.868554 1_555
Rh0 S11 2.345192 1_555
Rh0 S1 2.345192 1_555
Rh0 S4 2.345192 1_555
Rh1 S9 2.345192 1_555
Rh1 S7 2.345192 1_555
Rh1 S0 2.345192 1_555
Rh2 S8 2.345192 1_555
Rh2 S5 2.345192 1_555
Rh2 S3 2.345192 1_555
Rh3 S2 2.345192 1_555
Rh3 S6 2.345192 1_555
Rh3 S10 2.345192 1_555
Rh4 S5 2.345192 1_555
Rh4 S0 2.345192 1_555
Rh4 S10 2.345192 1_555
Rh5 S8 2.345192 1_555
Rh5 S6 2.345192 1_555
Rh5 S1 2.345192 1_555
Rh6 S2 2.345192 1_555
Rh6 S9 2.345192 1_555
Rh6 S4 2.345192 1_555
Rh7 S11 2.345192 1_555
Rh7 S3 2.345192 1_555
Rh7 S7 2.345192 1_555
S0 S3 2.095696 1_555
S1 S2 2.095696 1_555
S4 S7 2.095696 1_555
S5 S6 2.095696 1_555
S10 S9 2.095696 1_555
S11 S8 2.095696 1_555
