# generated using pymatgen
data_Ca2MgN2
_symmetry_space_group_name_H-M   'P 1'
_cell_length_a   6.36792861
_cell_length_b   8.23989600
_cell_length_c   6.23493615
_cell_angle_alpha   90.00000000
_cell_angle_beta   98.27939143
_cell_angle_gamma   90.00000000
_symmetry_Int_Tables_number   1
_chemical_formula_structural   Ca2MgN2
_chemical_formula_sum   'Ca8 Mg4 N8'
_cell_volume   323.74405625
_cell_formula_units_Z   4
loop_
 _symmetry_equiv_pos_site_id
 _symmetry_equiv_pos_as_xyz
  1  'x, y, z'
loop_
 _atom_site_type_symbol
 _atom_site_label
 _atom_site_symmetry_multiplicity
 _atom_site_fract_x
 _atom_site_fract_y
 _atom_site_fract_z
 _atom_site_occupancy
  Ca  Ca0  1  0.07567600  0.13401100  0.69074500  1
  Ca  Ca1  1  0.92432400  0.63401100  0.80925500  1
  Ca  Ca2  1  0.92432400  0.86598900  0.30925500  1
  Ca  Ca3  1  0.07567600  0.36598900  0.19074500  1
  Ca  Ca4  1  0.66522100  0.36555400  0.55405400  1
  Ca  Ca5  1  0.33477900  0.86555400  0.94594600  1
  Ca  Ca6  1  0.33477900  0.63444600  0.44594600  1
  Ca  Ca7  1  0.66522100  0.13444600  0.05405400  1
  Mg  Mg0  1  0.37462800  0.38889500  0.88146200  1
  Mg  Mg1  1  0.62537200  0.88889500  0.61853800  1
  Mg  Mg2  1  0.62537200  0.61110500  0.11853800  1
  Mg  Mg3  1  0.37462800  0.11110500  0.38146200  1
  N  N0  1  0.27166100  0.90724600  0.55557000  1
  N  N1  1  0.72833900  0.40724600  0.94443000  1
  N  N2  1  0.72833900  0.09275400  0.44443000  1
  N  N3  1  0.27166100  0.59275400  0.05557000  1
  N  N4  1  0.28382400  0.34134100  0.54459500  1
  N  N5  1  0.71617600  0.84134100  0.95540500  1
  N  N6  1  0.71617600  0.65865900  0.45540500  1
  N  N7  1  0.28382400  0.15865900  0.04459500  1
loop_
_geom_bond_atom_site_label_1
_geom_bond_atom_site_label_2
_geom_bond_distance
_geom_bond_site_symmetry_2
Ca0 N7 2.413169 1_556
Ca0 N4 2.419428 1_555
Ca0 N0 2.462148 1_545
Ca0 N2 2.527444 1_455
Ca1 N6 2.413169 1_555
Ca1 N5 2.419428 1_555
Ca1 N1 2.462148 1_555
Ca1 N3 2.527444 1_656
Ca2 N5 2.413169 1_554
Ca2 N6 2.419428 1_555
Ca2 N2 2.462148 1_565
Ca2 N0 2.527444 1_655
Ca3 N4 2.413169 1_555
Ca3 N7 2.419428 1_555
Ca3 N3 2.462148 1_555
Ca3 N1 2.527444 1_454
Ca4 N2 2.400133 1_555
Ca4 N4 2.429127 1_555
Ca4 N1 2.433521 1_555
Ca4 N6 2.524688 1_555
Ca5 N3 2.400133 1_556
Ca5 N5 2.429127 1_555
Ca5 N0 2.433521 1_555
Ca5 N7 2.524688 1_566
Ca6 N0 2.400133 1_555
Ca6 N6 2.429127 1_555
Ca6 N3 2.433521 1_555
Ca6 N4 2.524688 1_555
Ca7 N1 2.400133 1_554
Ca7 N7 2.429127 1_555
Ca7 N2 2.433521 1_555
Ca7 N5 2.524688 1_544
Mg0 N4 2.132971 1_555
Mg0 N3 2.152903 1_556
Mg0 N1 2.235097 1_555
Mg0 N7 2.266571 1_556
Mg1 N5 2.132971 1_555
Mg1 N2 2.152903 1_565
Mg1 N0 2.235097 1_555
Mg1 N6 2.266571 1_555
Mg2 N6 2.132971 1_555
Mg2 N1 2.152903 1_554
Mg2 N3 2.235097 1_555
Mg2 N5 2.266571 1_554
Mg3 N7 2.132971 1_555
Mg3 N0 2.152903 1_545
Mg3 N2 2.235097 1_555
Mg3 N4 2.266571 1_555
