# generated using pymatgen
data_MgZn
_symmetry_space_group_name_H-M   'P 1'
_cell_length_a   3.07987166
_cell_length_b   3.07987166
_cell_length_c   9.16049000
_cell_angle_alpha   90.00000000
_cell_angle_beta   90.00000000
_cell_angle_gamma   119.99999270
_symmetry_Int_Tables_number   1
_chemical_formula_structural   MgZn
_chemical_formula_sum   'Mg2 Zn2'
_cell_volume   75.25140411
_cell_formula_units_Z   2
loop_
 _symmetry_equiv_pos_site_id
 _symmetry_equiv_pos_as_xyz
  1  'x, y, z'
loop_
 _atom_site_type_symbol
 _atom_site_label
 _atom_site_symmetry_multiplicity
 _atom_site_fract_x
 _atom_site_fract_y
 _atom_site_fract_z
 _atom_site_occupancy
  Mg  Mg0  1  0.33333300  0.66666700  0.64324300  1
  Mg  Mg1  1  0.66666700  0.33333300  0.35675700  1
  Zn  Zn0  1  0.66666700  0.33333300  0.88983700  1
  Zn  Zn1  1  0.33333300  0.66666700  0.11016300  1
loop_
_geom_bond_atom_site_label_1
_geom_bond_atom_site_label_2
_geom_bond_distance
_geom_bond_site_symmetry_2
Mg0 Zn0 2.874820 1_455
Mg0 Zn0 2.874820 1_565
Mg0 Zn0 2.874824 1_555
Mg1 Zn1 2.874820 1_545
Mg1 Zn1 2.874820 1_655
Mg1 Zn1 2.874824 1_555
Zn0 Zn1 2.689865 1_546
Zn0 Zn1 2.689865 1_656
Zn0 Zn1 2.689869 1_556
