# generated using pymatgen
data_ZnS
_symmetry_space_group_name_H-M   'P 1'
_cell_length_a   13.74651408
_cell_length_b   13.69386212
_cell_length_c   12.89578490
_cell_angle_alpha   93.15602931
_cell_angle_beta   89.23443083
_cell_angle_gamma   93.79705151
_symmetry_Int_Tables_number   1
_chemical_formula_structural   ZnS
_chemical_formula_sum   'Zn50 S50'
_cell_volume   2418.42205366
_cell_formula_units_Z   50
loop_
 _symmetry_equiv_pos_site_id
 _symmetry_equiv_pos_as_xyz
  1  'x, y, z'
loop_
 _atom_site_type_symbol
 _atom_site_label
 _atom_site_symmetry_multiplicity
 _atom_site_fract_x
 _atom_site_fract_y
 _atom_site_fract_z
 _atom_site_occupancy
  Zn  Zn0  1  0.31720923  0.70381860  0.32963752  1
  Zn  Zn1  1  0.49109333  0.45833284  0.39041208  1
  Zn  Zn2  1  0.86515860  0.98732270  0.72505166  1
  Zn  Zn3  1  0.61526224  0.19737651  0.17845792  1
  Zn  Zn4  1  0.25139348  0.00643903  0.41546986  1
  Zn  Zn5  1  0.50497728  0.95600488  0.23578742  1
  Zn  Zn6  1  0.76343667  0.98920349  0.27004669  1
  Zn  Zn7  1  0.28740179  0.10093650  0.25698870  1
  Zn  Zn8  1  0.66037464  0.44931127  0.76346480  1
  Zn  Zn9  1  0.76891074  0.73972972  0.16656129  1
  Zn  Zn10  1  0.55827370  0.18738405  0.95233551  1
  Zn  Zn11  1  0.60124814  0.77745010  0.97319798  1
  Zn  Zn12  1  0.13781794  0.33796534  0.52436872  1
  Zn  Zn13  1  0.73832247  0.23644576  0.91617925  1
  Zn  Zn14  1  0.73909124  0.90346777  0.82181192  1
  Zn  Zn15  1  0.53779782  0.58452377  0.12977026  1
  Zn  Zn16  1  0.29955445  0.70529469  0.85621294  1
  Zn  Zn17  1  0.12009681  0.10739866  0.65742076  1
  Zn  Zn18  1  0.27881444  0.19370879  0.95696102  1
  Zn  Zn19  1  0.89289746  0.53526741  0.77225495  1
  Zn  Zn20  1  0.37637791  0.94712916  0.97580996  1
  Zn  Zn21  1  0.21923127  0.93795621  0.75664439  1
  Zn  Zn22  1  0.61840083  0.52872663  0.60121964  1
  Zn  Zn23  1  0.38413072  0.78098293  0.64095407  1
  Zn  Zn24  1  0.81299475  0.65876788  0.48594136  1
  Zn  Zn25  1  0.07654724  0.70574987  0.05204825  1
  Zn  Zn26  1  0.51482908  0.45547925  0.90062353  1
  Zn  Zn27  1  0.87349552  0.15913649  0.43636232  1
  Zn  Zn28  1  0.89843794  0.28431235  0.72014718  1
  Zn  Zn29  1  0.47888703  0.35935212  0.73808444  1
  Zn  Zn30  1  0.76058235  0.62526492  0.71889663  1
  Zn  Zn31  1  0.40042626  0.14583713  0.68691086  1
  Zn  Zn32  1  0.91202044  0.12791459  0.14463620  1
  Zn  Zn33  1  0.45810073  0.26073224  0.11567213  1
  Zn  Zn34  1  0.52426815  0.66598859  0.69515701  1
  Zn  Zn35  1  0.49835329  0.84841934  0.77178979  1
  Zn  Zn36  1  0.66264775  0.10671371  0.78767016  1
  Zn  Zn37  1  0.31115052  0.46841984  0.39834097  1
  Zn  Zn38  1  0.09303538  0.55933739  0.87029922  1
  Zn  Zn39  1  0.21570733  0.87621010  0.23083054  1
  Zn  Zn40  1  0.93853433  0.52615334  0.11360197  1
  Zn  Zn41  1  0.56772024  0.72565090  0.41475838  1
  Zn  Zn42  1  0.28515054  0.46208192  0.06124608  1
  Zn  Zn43  1  0.97998829  0.73653662  0.30757359  1
  Zn  Zn44  1  0.05023143  0.59891368  0.56506700  1
  Zn  Zn45  1  0.11727902  0.47043941  0.27811949  1
  Zn  Zn46  1  0.00654990  0.08941716  0.88835210  1
  Zn  Zn47  1  0.08669711  0.29488221  0.05963138  1
  Zn  Zn48  1  0.66702467  0.23990222  0.60979003  1
  Zn  Zn49  1  0.43780949  0.54600132  0.55089611  1
  S  S0  1  0.43337014  0.79410285  0.93996021  1
  S  S1  1  0.81795710  0.24228554  0.07770731  1
  S  S2  1  0.97292115  0.71724545  0.49055732  1
  S  S3  1  0.24827577  0.01970127  0.91434517  1
  S  S4  1  0.26662559  0.54091662  0.23651474  1
  S  S5  1  0.04224692  0.98479432  0.74888061  1
  S  S6  1  0.06093206  0.82558219  0.17567688  1
  S  S7  1  0.86451847  0.62321560  0.23597343  1
  S  S8  1  0.68099492  0.07289566  0.60185619  1
  S  S9  1  0.04643454  0.24217938  0.62344196  1
  S  S10  1  0.95325839  0.60957791  0.96383287  1
  S  S11  1  0.68613694  0.93127176  0.00510956  1
  S  S12  1  0.22865910  0.77202715  0.71656337  1
  S  S13  1  0.45641012  0.44099867  0.06786141  1
  S  S14  1  0.65816733  0.74290287  0.78841539  1
  S  S15  1  0.00235525  0.39128647  0.17925490  1
  S  S16  1  0.80334836  0.90358844  0.10206101  1
  S  S17  1  0.74207704  0.31313584  0.19611228  1
  S  S18  1  0.40903258  0.70118061  0.48010465  1
  S  S19  1  0.19842698  0.35426583  0.94491481  1
  S  S20  1  0.55456063  0.80084895  0.25312112  1
  S  S21  1  0.79788545  0.39576299  0.84186511  1
  S  S22  1  0.35588057  0.96011287  0.16095101  1
  S  S23  1  0.78236823  0.83471050  0.34208066  1
  S  S24  1  0.29304856  0.22125369  0.13595973  1
  S  S25  1  0.27159602  0.04717637  0.61369065  1
  S  S26  1  0.43931909  0.70671620  0.19740178  1
  S  S27  1  0.49128609  0.30205144  0.31224740  1
  S  S28  1  0.61441869  0.57016650  0.33339288  1
  S  S29  1  0.04793093  0.50569305  0.70793020  1
  S  S30  1  0.66851994  0.64963442  0.04578984  1
  S  S31  1  0.86768453  0.15360750  0.82254399  1
  S  S32  1  0.53773565  0.00310713  0.84639302  1
  S  S33  1  0.92032542  0.06294024  0.30023708  1
  S  S34  1  0.14094735  0.49057289  0.45843629  1
  S  S35  1  0.25033835  0.29862921  0.38659548  1
  S  S36  1  0.71440466  0.79509042  0.48280253  1
  S  S37  1  0.62031291  0.06956752  0.28991957  1
  S  S38  1  0.50551065  0.25529859  0.59604448  1
  S  S39  1  0.35700069  0.47228699  0.69747067  1
  S  S40  1  0.40997518  0.57808300  0.80953870  1
  S  S41  1  0.22305902  0.82831137  0.39558319  1
  S  S42  1  0.80179924  0.34628943  0.59458831  1
  S  S43  1  0.20976321  0.62327444  0.98338951  1
  S  S44  1  0.71036133  0.51767731  0.44127046  1
  S  S45  1  0.82250528  0.04296063  0.55930944  1
  S  S46  1  0.37920082  0.22039615  0.38559504  1
  S  S47  1  0.83967024  0.31541448  0.43924027  1
  S  S48  1  0.41737750  0.22656466  0.84942288  1
  S  S49  1  0.05471405  0.12529724  0.05116659  1
loop_
_geom_bond_atom_site_label_1
_geom_bond_atom_site_label_2
_geom_bond_distance
_geom_bond_site_symmetry_2
Zn19 Zn30 2.392556 1_555
S0 Zn20 2.306472 1_555
S0 Zn16 2.375137 1_555
S0 Zn11 2.380813 1_555
S0 Zn35 2.468253 1_555
S1 S17 2.071038 1_555
S1 Zn32 2.305799 1_555
S1 Zn13 2.361097 1_554
S2 Zn44 2.259481 1_655
S2 Zn24 2.289755 1_555
S2 Zn43 2.388851 1_555
S3 Zn20 2.252263 1_545
S3 Zn21 2.293502 1_545
S3 Zn18 2.426034 1_555
S4 Zn45 2.280183 1_555
S4 Zn37 2.461297 1_555
S4 Zn42 2.468048 1_555
S4 Zn0 2.534527 1_555
S5 Zn17 2.302496 1_565
S5 Zn46 2.305240 1_565
S5 Zn2 2.460487 1_455
S5 Zn21 2.561397 1_555
S6 Zn25 2.242776 1_555
S6 Zn39 2.303058 1_555
S6 Zn43 2.369846 1_455
S7 Zn40 2.279793 1_555
S7 Zn43 2.309838 1_555
S7 Zn9 2.353869 1_555
S8 Zn48 2.304221 1_555
S8 Zn36 2.428386 1_555
S9 Zn12 2.203244 1_555
S9 Zn17 2.229864 1_555
S9 Zn28 2.456724 1_455
S10 Zn40 2.297434 1_556
S10 Zn25 2.343460 1_656
S10 Zn38 2.375279 1_655
S10 Zn19 2.737468 1_555
S11 S16 2.118942 1_555
S11 Zn11 2.357938 1_554
S11 Zn14 2.480702 1_554
S12 Zn21 2.314041 1_555
S12 Zn16 2.318215 1_555
S12 Zn23 2.335831 1_555
S13 Zn15 2.304734 1_555
S13 Zn26 2.305458 1_554
S13 Zn42 2.393970 1_555
S13 Zn33 2.578751 1_555
S14 Zn30 2.342741 1_555
S14 Zn34 2.367822 1_555
S14 Zn14 2.417036 1_555
S14 Zn11 2.527723 1_555
S14 Zn35 2.725292 1_555
S15 Zn45 2.229565 1_555
S15 Zn40 2.303032 1_455
S15 Zn47 2.323237 1_555
S16 Zn9 2.450544 1_555
S16 Zn6 2.478346 1_555
S17 Zn3 2.282213 1_555
S18 Zn23 2.322715 1_555
S18 Zn0 2.332147 1_555
S18 Zn41 2.337967 1_555
S18 Zn49 2.416635 1_555
S19 Zn47 2.261656 1_556
S19 Zn42 2.328597 1_556
S19 Zn18 2.538364 1_555
S20 S26 2.084585 1_555
S20 Zn5 2.297171 1_555
S20 Zn41 2.389371 1_555
S21 Zn8 2.334394 1_555
S21 Zn19 2.447073 1_555
S21 Zn13 2.514191 1_555
S21 Zn28 2.580950 1_555
S22 Zn5 2.282397 1_555
S22 Zn39 2.370542 1_555
S22 Zn20 2.398596 1_554
S22 Zn7 2.466792 1_565
S23 S36 2.111015 1_555
S23 Zn6 2.387930 1_555
S23 Zn9 2.550359 1_555
S24 Zn33 2.312106 1_555
S24 Zn18 2.327094 1_554
S24 Zn7 2.328002 1_555
S25 Zn31 2.332498 1_555
S25 Zn17 2.340973 1_555
S25 Zn21 2.505824 1_545
S25 Zn4 2.600766 1_555
S26 Zn15 2.345407 1_555
S26 Zn0 2.376836 1_555
S27 S46 2.090056 1_555
S27 Zn1 2.314999 1_555
S27 Zn33 2.606381 1_555
S27 Zn3 2.812200 1_555
S28 S44 2.115683 1_555
S28 Zn1 2.346660 1_555
S28 Zn41 2.442029 1_555
S28 Zn15 2.863813 1_555
S29 Zn38 2.261280 1_555
S29 Zn44 2.297135 1_555
S29 Zn19 2.328965 1_455
S30 Zn15 2.244790 1_555
S30 Zn11 2.283187 1_554
S30 Zn9 2.339358 1_555
S31 Zn28 2.295886 1_555
S31 Zn46 2.341899 1_655
S31 Zn13 2.442561 1_555
S31 Zn2 2.538193 1_545
S31 Zn36 2.884640 1_555
S32 Zn36 2.301247 1_555
S32 Zn35 2.311574 1_545
S32 Zn10 2.801864 1_555
S32 Zn20 2.847751 1_545
S33 Zn32 2.246614 1_555
S33 Zn27 2.249167 1_555
S33 Zn6 2.348004 1_545
S34 Zn12 2.296682 1_555
S34 Zn45 2.350906 1_555
S34 Zn44 2.370991 1_555
S34 Zn37 2.487263 1_555
S35 S46 2.129550 1_555
S35 Zn12 2.402251 1_555
S35 Zn37 2.415570 1_555
S36 Zn41 2.332703 1_555
S36 Zn24 2.380786 1_555
S37 Zn5 2.236708 1_545
S37 Zn6 2.321610 1_545
S37 Zn3 2.330206 1_555
S38 Zn48 2.254337 1_555
S38 Zn29 2.298525 1_555
S38 Zn31 2.359671 1_555
S39 S40 2.091807 1_555
S39 Zn49 2.414793 1_555
S39 Zn29 2.434993 1_555
S40 Zn16 2.431313 1_555
S40 Zn34 2.444657 1_555
S40 Zn26 2.618958 1_555
S41 Zn39 2.263271 1_555
S41 Zn0 2.325455 1_555
S41 Zn4 2.444463 1_565
S42 S47 2.090728 1_555
S42 Zn48 2.292932 1_555
S42 Zn28 2.337720 1_555
S43 Zn38 2.281246 1_555
S43 Zn16 2.332362 1_555
S43 Zn25 2.352338 1_556
S43 Zn42 2.743937 1_556
S44 Zn24 2.365038 1_555
S44 Zn22 2.407661 1_555
S45 S8 2.074970 1_555
S45 Zn27 2.374115 1_555
S45 Zn2 2.400962 1_545
S46 Zn7 2.550063 1_555
S47 Zn27 2.218103 1_555
S48 Zn31 2.322120 1_555
S48 Zn18 2.374517 1_555
S48 Zn10 2.466822 1_555
S48 Zn29 2.476759 1_555
S49 Zn46 2.229047 1_554
S49 Zn32 2.289803 1_455
S49 Zn47 2.331589 1_555
