# generated using pymatgen
data_Ba(NiN)2
_symmetry_space_group_name_H-M   'P 1'
_cell_length_a   6.18563083
_cell_length_b   6.19522123
_cell_length_c   8.73421819
_cell_angle_alpha   89.99999309
_cell_angle_beta   45.08890556
_cell_angle_gamma   59.94868695
_symmetry_Int_Tables_number   1
_chemical_formula_structural   Ba(NiN)2
_chemical_formula_sum   'Ba2 Ni4 N4'
_cell_volume   167.61298028
_cell_formula_units_Z   2
loop_
 _symmetry_equiv_pos_site_id
 _symmetry_equiv_pos_as_xyz
  1  'x, y, z'
loop_
 _atom_site_type_symbol
 _atom_site_label
 _atom_site_symmetry_multiplicity
 _atom_site_fract_x
 _atom_site_fract_y
 _atom_site_fract_z
 _atom_site_occupancy
  Ba  Ba0  1  0.00000000  0.00000000  0.25000000  1
  Ba  Ba1  1  0.00000000  0.00000000  0.75000000  1
  Ni  Ni0  1  0.73820800  0.50000000  0.63089500  1
  Ni  Ni1  1  0.26179200  0.50000000  0.36910500  1
  Ni  Ni2  1  0.26179200  0.23820800  0.86910500  1
  Ni  Ni3  1  0.73820800  0.76179200  0.13089500  1
  N  N0  1  0.66469200  0.50000000  0.16765400  1
  N  N1  1  0.33530800  0.50000000  0.83234600  1
  N  N2  1  0.33530800  0.16469200  0.33234600  1
  N  N3  1  0.66469200  0.83530800  0.66765400  1
loop_
_geom_bond_atom_site_label_1
_geom_bond_atom_site_label_2
_geom_bond_distance
_geom_bond_site_symmetry_2
Ba0 N0 3.175848 1_545
Ba0 N0 3.175848 1_455
Ba0 N1 3.175849 1_455
Ba0 N3 3.175849 1_445
Ba0 N3 3.175849 1_544
Ba0 N2 3.175849 1_455
Ba0 N1 3.175849 1_544
Ba0 N2 3.175849 1_555
Ba0 Ni1 3.264106 1_455
Ba0 Ni2 3.264106 1_554
Ba0 Ni3 3.264106 1_545
Ba0 Ni0 3.264106 1_455
Ba0 Ni1 3.264117 1_545
Ba0 Ni0 3.264118 1_544
Ba0 Ni2 3.264118 1_455
Ba0 Ni3 3.264118 1_445
Ba1 N1 3.175848 1_455
Ba1 N1 3.175848 1_545
Ba1 N0 3.175849 1_545
Ba1 N2 3.175849 1_555
Ba1 N2 3.175849 1_456
Ba1 N3 3.175849 1_545
Ba1 N0 3.175849 1_456
Ba1 N3 3.175849 1_445
Ba1 Ni0 3.264106 1_545
Ba1 Ni3 3.264106 1_446
Ba1 Ni2 3.264106 1_455
Ba1 Ni1 3.264106 1_545
Ba1 Ni0 3.264117 1_455
Ba1 Ni1 3.264118 1_456
Ba1 Ni3 3.264118 1_545
Ba1 Ni2 3.264118 1_555
N0 Ni1 1.764977 1_555
N0 Ni2 1.863549 1_654
N0 Ni3 1.863549 1_555
N1 Ni0 1.764977 1_555
N1 Ni3 1.863549 1_456
N1 Ni2 1.863549 1_555
N2 Ni3 1.764977 1_545
N2 Ni0 1.863549 1_455
N2 Ni1 1.863549 1_555
N3 Ni2 1.764977 1_565
N3 Ni1 1.863549 1_655
N3 Ni0 1.863549 1_555
