# generated using pymatgen
data_Li2Ti3CoO8
_symmetry_space_group_name_H-M   'P 1'
_cell_length_a   8.45315300
_cell_length_b   8.45315300
_cell_length_c   8.45315300
_cell_angle_alpha   90.00000000
_cell_angle_beta   90.00000000
_cell_angle_gamma   90.00000000
_symmetry_Int_Tables_number   1
_chemical_formula_structural   Li2Ti3CoO8
_chemical_formula_sum   'Li8 Ti12 Co4 O32'
_cell_volume   604.02677329
_cell_formula_units_Z   4
loop_
 _symmetry_equiv_pos_site_id
 _symmetry_equiv_pos_as_xyz
  1  'x, y, z'
loop_
 _atom_site_type_symbol
 _atom_site_label
 _atom_site_symmetry_multiplicity
 _atom_site_fract_x
 _atom_site_fract_y
 _atom_site_fract_z
 _atom_site_occupancy
  Li  Li0  1  0.49946200  0.49946200  0.49946200  1
  Li  Li1  1  0.75053800  0.75053800  0.75053800  1
  Li  Li2  1  0.74946200  0.24946200  0.25053800  1
  Li  Li3  1  0.00053800  0.50053800  0.99946200  1
  Li  Li4  1  0.99946200  0.00053800  0.50053800  1
  Li  Li5  1  0.25053800  0.74946200  0.24946200  1
  Li  Li6  1  0.24946200  0.25053800  0.74946200  1
  Li  Li7  1  0.50053800  0.99946200  0.00053800  1
  Ti  Ti0  1  0.62821400  0.62178600  0.12500000  1
  Ti  Ti1  1  0.62500000  0.87178600  0.37821400  1
  Ti  Ti2  1  0.62178600  0.12500000  0.62821400  1
  Ti  Ti3  1  0.87821400  0.87500000  0.12821400  1
  Ti  Ti4  1  0.87500000  0.12821400  0.87821400  1
  Ti  Ti5  1  0.87178600  0.37821400  0.62500000  1
  Ti  Ti6  1  0.12821400  0.87821400  0.87500000  1
  Ti  Ti7  1  0.12500000  0.62821400  0.62178600  1
  Ti  Ti8  1  0.12178600  0.37500000  0.37178600  1
  Ti  Ti9  1  0.37821400  0.62500000  0.87178600  1
  Ti  Ti10  1  0.37500000  0.37178600  0.12178600  1
  Ti  Ti11  1  0.37178600  0.12178600  0.37500000  1
  Co  Co0  1  0.62500000  0.37500000  0.87500000  1
  Co  Co1  1  0.87500000  0.62500000  0.37500000  1
  Co  Co2  1  0.12500000  0.12500000  0.12500000  1
  Co  Co3  1  0.37500000  0.87500000  0.62500000  1
  O  O0  1  0.60567600  0.62458000  0.89027500  1
  O  O1  1  0.60972500  0.39432400  0.12458000  1
  O  O2  1  0.61184500  0.11184500  0.38815500  1
  O  O3  1  0.62542000  0.64432400  0.35972500  1
  O  O4  1  0.62458000  0.89027500  0.60567600  1
  O  O5  1  0.63815500  0.86184500  0.13815500  1
  O  O6  1  0.64027500  0.12542000  0.85567600  1
  O  O7  1  0.64432400  0.35972500  0.62542000  1
  O  O8  1  0.85567600  0.64027500  0.12542000  1
  O  O9  1  0.85972500  0.87458000  0.35567600  1
  O  O10  1  0.86184500  0.13815500  0.63815500  1
  O  O11  1  0.87542000  0.10972500  0.10567600  1
  O  O12  1  0.87458000  0.35567600  0.85972500  1
  O  O13  1  0.88815500  0.88815500  0.88815500  1
  O  O14  1  0.89027500  0.60567600  0.62458000  1
  O  O15  1  0.89432400  0.37542000  0.39027500  1
  O  O16  1  0.10567600  0.87542000  0.10972500  1
  O  O17  1  0.10972500  0.10567600  0.87542000  1
  O  O18  1  0.11184500  0.38815500  0.61184500  1
  O  O19  1  0.12542000  0.85567600  0.64027500  1
  O  O20  1  0.12458000  0.60972500  0.39432400  1
  O  O21  1  0.13815500  0.63815500  0.86184500  1
  O  O22  1  0.14027500  0.37458000  0.14432400  1
  O  O23  1  0.14432400  0.14027500  0.37458000  1
  O  O24  1  0.35567600  0.85972500  0.87458000  1
  O  O25  1  0.35972500  0.62542000  0.64432400  1
  O  O26  1  0.36184500  0.36184500  0.36184500  1
  O  O27  1  0.37542000  0.39027500  0.89432400  1
  O  O28  1  0.37458000  0.14432400  0.14027500  1
  O  O29  1  0.38815500  0.61184500  0.11184500  1
  O  O30  1  0.39027500  0.89432400  0.37542000  1
  O  O31  1  0.39432400  0.12458000  0.60972500  1
loop_
_geom_bond_atom_site_label_1
_geom_bond_atom_site_label_2
_geom_bond_distance
_geom_bond_site_symmetry_2
Li0 O25 2.007100 1_555
Li0 O3 2.007100 1_555
Li0 O7 2.007100 1_555
Li0 O26 2.014890 1_555
Li1 O0 2.007100 1_555
Li1 O14 2.007100 1_555
Li1 O4 2.007100 1_555
Li1 O13 2.014890 1_555
Li2 O1 2.007100 1_555
Li2 O15 2.007100 1_555
Li2 O11 2.007100 1_555
Li2 O2 2.014890 1_555
Li3 O22 2.007100 1_556
Li3 O12 2.007100 1_455
Li3 O8 2.007100 1_456
Li3 O21 2.014890 1_555
Li4 O23 2.007100 1_655
Li4 O9 2.007100 1_545
Li4 O19 2.007100 1_645
Li4 O10 2.014890 1_555
Li5 O20 2.007100 1_555
Li5 O30 2.007100 1_555
Li5 O16 2.007100 1_555
Li5 O29 2.014890 1_555
Li6 O31 2.007100 1_555
Li6 O27 2.007100 1_555
Li6 O17 2.007100 1_555
Li6 O18 2.014890 1_555
Li7 O28 2.007100 1_565
Li7 O24 2.007100 1_554
Li7 O6 2.007100 1_564
Li7 O5 2.014890 1_555
Co0 O1 2.119988 1_556
Co0 O0 2.119988 1_555
Co0 O7 2.119988 1_555
Co0 O6 2.119988 1_555
Co0 O27 2.119988 1_555
Co0 O12 2.119988 1_555
Co1 O20 2.119988 1_655
Co1 O15 2.119988 1_555
Co1 O3 2.119988 1_555
Co1 O14 2.119988 1_555
Co1 O8 2.119988 1_555
Co1 O9 2.119988 1_555
Co2 O23 2.119988 1_555
Co2 O28 2.119988 1_555
Co2 O22 2.119988 1_555
Co2 O16 2.119988 1_545
Co2 O11 2.119988 1_455
Co2 O17 2.119988 1_554
Co3 O31 2.119988 1_565
Co3 O25 2.119988 1_555
Co3 O19 2.119988 1_555
Co3 O4 2.119988 1_555
Co3 O30 2.119988 1_555
Co3 O24 2.119988 1_555
O0 Ti9 1.929116 1_555
O0 Ti0 1.993432 1_556
O1 Ti0 1.929116 1_555
O1 Ti10 1.993432 1_555
O2 Ti2 2.034037 1_555
O2 Ti11 2.034037 1_555
O2 Ti1 2.034037 1_545
O3 Ti1 1.929116 1_555
O3 Ti0 1.993432 1_555
O4 Ti1 1.929116 1_555
O4 Ti2 1.993432 1_565
O5 Ti1 2.034037 1_555
O5 Ti0 2.034037 1_555
O5 Ti3 2.034037 1_555
O6 Ti2 1.929116 1_555
O6 Ti4 1.993432 1_555
O7 Ti5 1.929116 1_555
O7 Ti2 1.993432 1_555
O8 Ti0 1.929116 1_555
O8 Ti3 1.993432 1_555
O9 Ti3 1.929116 1_555
O9 Ti1 1.993432 1_555
O10 Ti5 2.034037 1_555
O10 Ti4 2.034037 1_555
O10 Ti2 2.034037 1_555
O11 Ti4 1.929116 1_554
O11 Ti3 1.993432 1_545
O12 Ti4 1.929116 1_555
O12 Ti5 1.993432 1_555
O13 Ti6 2.034037 1_655
O13 Ti4 2.034037 1_565
O13 Ti3 2.034037 1_556
O14 Ti5 1.929116 1_555
O14 Ti7 1.993432 1_655
O15 Ti8 1.929116 1_655
O15 Ti5 1.993432 1_555
O16 Ti3 1.929116 1_455
O16 Ti6 1.993432 1_554
O17 Ti6 1.929116 1_545
O17 Ti4 1.993432 1_455
O18 Ti7 2.034037 1_555
O18 Ti8 2.034037 1_555
O18 Ti5 2.034037 1_455
O19 Ti7 1.929116 1_555
O19 Ti6 1.993432 1_555
O20 Ti7 1.929116 1_555
O20 Ti8 1.993432 1_555
O21 Ti9 2.034037 1_555
O21 Ti7 2.034037 1_555
O21 Ti6 2.034037 1_555
O22 Ti8 1.929116 1_555
O22 Ti10 1.993432 1_555
O23 Ti11 1.929116 1_555
O23 Ti8 1.993432 1_555
O24 Ti6 1.929116 1_555
O24 Ti9 1.993432 1_555
O25 Ti9 1.929116 1_555
O25 Ti7 1.993432 1_555
O26 Ti11 2.034037 1_555
O26 Ti10 2.034037 1_555
O26 Ti8 2.034037 1_555
O27 Ti10 1.929116 1_556
O27 Ti9 1.993432 1_555
O28 Ti10 1.929116 1_555
O28 Ti11 1.993432 1_555
O29 Ti0 2.034037 1_555
O29 Ti10 2.034037 1_555
O29 Ti9 2.034037 1_554
O30 Ti11 1.929116 1_565
O30 Ti1 1.993432 1_555
O31 Ti2 1.929116 1_555
O31 Ti11 1.993432 1_555
