# generated using pymatgen
data_Te4MoW3Se4
_symmetry_space_group_name_H-M   'P 1'
_cell_length_a   3.43685498
_cell_length_b   3.43685498
_cell_length_c   39.17168300
_cell_angle_alpha   90.00000000
_cell_angle_beta   90.00000000
_cell_angle_gamma   120.00001879
_symmetry_Int_Tables_number   1
_chemical_formula_structural   Te4MoW3Se4
_chemical_formula_sum   'Te4 Mo1 W3 Se4'
_cell_volume   400.70539914
_cell_formula_units_Z   1
loop_
 _symmetry_equiv_pos_site_id
 _symmetry_equiv_pos_as_xyz
  1  'x, y, z'
loop_
 _atom_site_type_symbol
 _atom_site_label
 _atom_site_symmetry_multiplicity
 _atom_site_fract_x
 _atom_site_fract_y
 _atom_site_fract_z
 _atom_site_occupancy
  Te  Te0  1  0.00000000  0.00000000  0.32950600  1
  Te  Te1  1  0.33333300  0.66666700  0.04655500  1
  Te  Te2  1  0.33333300  0.66666700  0.14124700  1
  Te  Te3  1  0.00000000  0.00000000  0.23415300  1
  Mo  Mo0  1  0.00000000  0.00000000  0.09387800  1
  W  W0  1  0.00000000  0.00000000  0.46965300  1
  W  W1  1  0.33333300  0.66666700  0.28181800  1
  W  W2  1  0.33333300  0.66666700  0.65753000  1
  Se  Se0  1  0.00000000  0.00000000  0.69946900  1
  Se  Se1  1  0.33333300  0.66666700  0.42772600  1
  Se  Se2  1  0.33333300  0.66666700  0.51161400  1
  Se  Se3  1  0.00000000  0.00000000  0.61559800  1
loop_
_geom_bond_atom_site_label_1
_geom_bond_atom_site_label_2
_geom_bond_distance
_geom_bond_site_symmetry_2
Te0 W1 2.725218 1_545
Te0 W1 2.725220 1_555
Te0 W1 2.725220 1_445
Te3 W1 2.724600 1_545
Te3 W1 2.724602 1_555
Te3 W1 2.724602 1_445
Mo0 Te1 2.715437 1_545
Mo0 Te1 2.715439 1_445
Mo0 Te1 2.715439 1_555
Mo0 Te2 2.716668 1_545
Mo0 Te2 2.716670 1_445
Mo0 Te2 2.716670 1_555
Se0 W2 2.576078 1_545
Se0 W2 2.576080 1_445
Se0 W2 2.576080 1_555
Se1 W0 2.575778 1_565
Se1 W0 2.575780 1_555
Se1 W0 2.575780 1_665
Se2 W0 2.576628 1_565
Se2 W0 2.576630 1_665
Se2 W0 2.576630 1_555
Se3 W2 2.575903 1_545
Se3 W2 2.575905 1_445
Se3 W2 2.575905 1_555
