# generated using pymatgen
data_CoSO4
_symmetry_space_group_name_H-M   'P 1'
_cell_length_a   4.73114290
_cell_length_b   6.64916350
_cell_length_c   8.58483022
_cell_angle_alpha   89.99949776
_cell_angle_beta   89.99996720
_cell_angle_gamma   90.00032301
_symmetry_Int_Tables_number   1
_chemical_formula_structural   CoSO4
_chemical_formula_sum   'Co4 S4 O16'
_cell_volume   270.06281397
_cell_formula_units_Z   4
loop_
 _symmetry_equiv_pos_site_id
 _symmetry_equiv_pos_as_xyz
  1  'x, y, z'
loop_
 _atom_site_type_symbol
 _atom_site_label
 _atom_site_symmetry_multiplicity
 _atom_site_fract_x
 _atom_site_fract_y
 _atom_site_fract_z
 _atom_site_occupancy
  Co  Co0  1  0.50000000  0.00000000  0.50000000  1
  Co  Co1  1  0.00000000  0.00000000  -0.00000000  1
  Co  Co2  1  0.00000000  0.50000000  -0.00000000  1
  Co  Co3  1  0.50000000  0.50000000  0.50000000  1
  S  S0  1  0.97599444  0.74999807  0.32120838  1
  S  S1  1  0.52399804  0.75000125  0.82120252  1
  S  S2  1  0.02400556  0.25000193  0.67879162  1
  S  S3  1  0.47600196  0.24999875  0.17879748  1
  O  O0  1  0.77357032  0.25000410  0.12532519  1
  O  O1  1  0.83820149  0.56588016  0.37479450  1
  O  O2  1  0.95904265  0.75000618  0.14654635  1
  O  O3  1  0.83819568  0.93411151  0.37480554  1
  O  O4  1  0.22642968  0.74999590  0.87467481  1
  O  O5  1  0.27358829  0.75000294  0.37467610  1
  O  O6  1  0.33821777  0.06591720  0.12520102  1
  O  O7  1  0.16180432  0.06588849  0.62519446  1
  O  O8  1  0.54095623  0.75000637  0.64656928  1
  O  O9  1  0.66178118  0.56588074  0.87478983  1
  O  O10  1  0.72641171  0.24999706  0.62532390  1
  O  O11  1  0.33821882  0.43411926  0.12521017  1
  O  O12  1  0.16179851  0.43411984  0.62520550  1
  O  O13  1  0.45904377  0.24999363  0.35343072  1
  O  O14  1  0.66178223  0.93408280  0.87479898  1
  O  O15  1  0.04095735  0.24999382  0.85345365  1
loop_
_geom_bond_atom_site_label_1
_geom_bond_atom_site_label_2
_geom_bond_distance
_geom_bond_site_symmetry_2
Co0 O7 1.976677 1_555
Co0 O3 1.976677 1_545
Co0 O8 2.093761 1_545
Co0 O13 2.093761 1_555
Co0 O5 2.251250 1_545
Co0 O10 2.251250 1_555
Co1 O6 1.976832 1_555
Co1 O14 1.976832 1_444
Co1 O2 2.093642 1_445
Co1 O15 2.093642 1_554
Co1 O4 2.251338 1_544
Co1 O0 2.251338 1_455
Co2 O11 1.976825 1_555
Co2 O9 1.976825 1_454
Co2 O2 2.093726 1_455
Co2 O15 2.093726 1_554
Co2 O0 2.251275 1_455
Co2 O4 2.251275 1_554
Co3 O12 1.976731 1_555
Co3 O1 1.976731 1_555
Co3 O13 2.093844 1_555
Co3 O8 2.093844 1_555
Co3 O5 2.251274 1_555
Co3 O10 2.251274 1_555
O0 S3 1.480789 1_555
O1 S0 1.461281 1_555
O2 S0 1.501587 1_555
O3 S0 1.461311 1_555
O4 S1 1.480789 1_555
O5 S0 1.480892 1_455
O6 S3 1.461095 1_555
O7 S2 1.461311 1_555
O8 S1 1.501342 1_555
O9 S1 1.461285 1_555
O10 S2 1.480892 1_655
O11 S3 1.461285 1_555
O12 S2 1.461281 1_555
O13 S3 1.501342 1_555
O14 S1 1.461095 1_555
O15 S2 1.501587 1_555
