# generated using pymatgen
data_Cs2Se
_symmetry_space_group_name_H-M   'P 1'
_cell_length_a   6.07073635
_cell_length_b   6.07073635
_cell_length_c   8.21441100
_cell_angle_alpha   90.00000000
_cell_angle_beta   90.00000000
_cell_angle_gamma   120.00000382
_symmetry_Int_Tables_number   1
_chemical_formula_structural   Cs2Se
_chemical_formula_sum   'Cs4 Se2'
_cell_volume   262.17410109
_cell_formula_units_Z   2
loop_
 _symmetry_equiv_pos_site_id
 _symmetry_equiv_pos_as_xyz
  1  'x, y, z'
loop_
 _atom_site_type_symbol
 _atom_site_label
 _atom_site_symmetry_multiplicity
 _atom_site_fract_x
 _atom_site_fract_y
 _atom_site_fract_z
 _atom_site_occupancy
  Cs  Cs0  1  0.00000000  0.00000000  0.50000000  1
  Cs  Cs1  1  0.00000000  0.00000000  0.00000000  1
  Cs  Cs2  1  0.33333300  0.66666700  0.75000000  1
  Cs  Cs3  1  0.66666700  0.33333300  0.25000000  1
  Se  Se0  1  0.33333300  0.66666700  0.25000000  1
  Se  Se1  1  0.66666700  0.33333300  0.75000000  1
loop_
_geom_bond_atom_site_label_1
_geom_bond_atom_site_label_2
_geom_bond_distance
_geom_bond_site_symmetry_2
Cs0 Se1 4.062250 1_455
Cs0 Se0 4.062250 1_545
Cs0 Se0 4.062254 1_555
Cs0 Se0 4.062254 1_445
Cs0 Se1 4.062254 1_445
Cs0 Se1 4.062254 1_555
Cs1 Se1 4.062250 1_454
Cs1 Se0 4.062250 1_545
Cs1 Se1 4.062254 1_444
Cs1 Se0 4.062254 1_445
Cs1 Se0 4.062254 1_555
Cs1 Se1 4.062254 1_554
Cs2 Se1 3.504938 1_455
Cs2 Se1 3.504938 1_565
Cs2 Se1 3.504948 1_555
Cs2 Se0 4.107206 1_555
Cs2 Se0 4.107206 1_556
Cs3 Se0 3.504938 1_545
Cs3 Se0 3.504938 1_655
Cs3 Se0 3.504948 1_555
Cs3 Se1 4.107206 1_555
Cs3 Se1 4.107206 1_554
