# generated using pymatgen
data_Ba4(NbSe4)3
_symmetry_space_group_name_H-M   'P 1'
_cell_length_a   6.89387700
_cell_length_b   6.02688100
_cell_length_c   12.70725964
_cell_angle_alpha   89.81583812
_cell_angle_beta   90.00000000
_cell_angle_gamma   90.00000000
_symmetry_Int_Tables_number   1
_chemical_formula_structural   Ba4(NbSe4)3
_chemical_formula_sum   'Ba4 Nb3 Se12'
_cell_volume   527.96581956
_cell_formula_units_Z   1
loop_
 _symmetry_equiv_pos_site_id
 _symmetry_equiv_pos_as_xyz
  1  'x, y, z'
loop_
 _atom_site_type_symbol
 _atom_site_label
 _atom_site_symmetry_multiplicity
 _atom_site_fract_x
 _atom_site_fract_y
 _atom_site_fract_z
 _atom_site_occupancy
  Ba  Ba0  1  0.50000000  0.24480100  0.15120900  1
  Ba  Ba1  1  0.00000000  0.24358900  0.68716900  1
  Ba  Ba2  1  0.00000000  0.75641100  0.31283100  1
  Ba  Ba3  1  0.50000000  0.75519900  0.84879100  1
  Nb  Nb0  1  0.50000000  0.50000000  0.50000000  1
  Nb  Nb1  1  0.00000000  0.00000000  0.00000000  1
  Nb  Nb2  1  0.50000000  0.00000000  0.50000000  1
  Se  Se0  1  0.50000000  0.74940700  0.32876500  1
  Se  Se1  1  0.00000000  0.74936900  0.83108500  1
  Se  Se2  1  0.73883100  0.74611900  0.08447700  1
  Se  Se3  1  0.23552600  0.75010600  0.58417400  1
  Se  Se4  1  0.26116900  0.74611900  0.08447700  1
  Se  Se5  1  0.76447400  0.75010600  0.58417400  1
  Se  Se6  1  0.00000000  0.25063100  0.16891500  1
  Se  Se7  1  0.50000000  0.25059300  0.67123500  1
  Se  Se8  1  0.76447400  0.24989400  0.41582600  1
  Se  Se9  1  0.26116900  0.25388100  0.91552300  1
  Se  Se10  1  0.23552600  0.24989400  0.41582600  1
  Se  Se11  1  0.73883100  0.25388100  0.91552300  1
loop_
_geom_bond_atom_site_label_1
_geom_bond_atom_site_label_2
_geom_bond_distance
_geom_bond_site_symmetry_2
Ba0 Se9 3.417949 1_554
Ba0 Se11 3.417949 1_554
Ba0 Se6 3.454460 1_655
Ba0 Se6 3.454460 1_555
Ba0 Se4 3.532610 1_545
Ba0 Se2 3.532610 1_545
Ba0 Se4 3.541501 1_555
Ba0 Se2 3.541501 1_555
Ba0 Se0 3.736529 1_545
Ba0 Se0 3.792582 1_555
Ba0 Se8 3.825263 1_555
Ba0 Se10 3.825263 1_555
Ba1 Se9 3.415679 1_555
Ba1 Se11 3.415679 1_455
Ba1 Se7 3.453130 1_555
Ba1 Se7 3.453130 1_455
Ba1 Se1 3.490201 1_545
Ba1 Se1 3.559811 1_555
Ba1 Se3 3.635924 1_545
Ba1 Se5 3.635924 1_445
Ba1 Se3 3.693600 1_555
Ba1 Se5 3.693600 1_455
Ba1 Se10 3.811279 1_555
Ba1 Se8 3.811279 1_455
Ba2 Se2 3.415679 1_455
Ba2 Se4 3.415679 1_555
Ba2 Se0 3.453130 1_555
Ba2 Se0 3.453130 1_455
Ba2 Se6 3.490201 1_565
Ba2 Se6 3.559811 1_555
Ba2 Se10 3.635924 1_565
Ba2 Se8 3.635924 1_465
Ba2 Se10 3.693600 1_555
Ba2 Se8 3.693600 1_455
Ba2 Se3 3.811279 1_555
Ba2 Se5 3.811279 1_455
Ba3 Se2 3.417949 1_556
Ba3 Se4 3.417949 1_556
Ba3 Se1 3.454460 1_555
Ba3 Se1 3.454460 1_655
Ba3 Se11 3.532610 1_565
Ba3 Se9 3.532610 1_565
Ba3 Se9 3.541501 1_555
Ba3 Se11 3.541501 1_555
Ba3 Se7 3.736529 1_565
Ba3 Se7 3.792582 1_555
Ba3 Se5 3.825263 1_555
Ba3 Se3 3.825263 1_555
Nb0 Se5 2.598236 1_555
Nb0 Se3 2.598236 1_555
Nb0 Se8 2.598236 1_555
Nb0 Se10 2.598236 1_555
Nb0 Se7 2.640660 1_555
Nb0 Se0 2.640660 1_555
Nb1 Se9 2.593203 1_554
Nb1 Se11 2.593203 1_454
Nb1 Se2 2.593203 1_445
Nb1 Se4 2.593203 1_545
Nb1 Se6 2.628642 1_555
Nb1 Se1 2.628642 1_544
Nb2 Se8 2.593503 1_555
Nb2 Se10 2.593503 1_555
Nb2 Se5 2.593503 1_545
Nb2 Se3 2.593503 1_545
Nb2 Se7 2.652692 1_555
Nb2 Se0 2.652692 1_545
