# generated using pymatgen
data_BaCe(SnSe3)2
_symmetry_space_group_name_H-M   'P 1'
_cell_length_a   4.28970200
_cell_length_b   20.45332200
_cell_length_c   12.52961300
_cell_angle_alpha   90.00000000
_cell_angle_beta   90.00000000
_cell_angle_gamma   90.00000000
_symmetry_Int_Tables_number   1
_chemical_formula_structural   BaCe(SnSe3)2
_chemical_formula_sum   'Ba4 Ce4 Sn8 Se24'
_cell_volume   1099.33140845
_cell_formula_units_Z   4
loop_
 _symmetry_equiv_pos_site_id
 _symmetry_equiv_pos_as_xyz
  1  'x, y, z'
loop_
 _atom_site_type_symbol
 _atom_site_label
 _atom_site_symmetry_multiplicity
 _atom_site_fract_x
 _atom_site_fract_y
 _atom_site_fract_z
 _atom_site_occupancy
  Ba  Ba0  1  0.50000000  0.07881800  0.31824600  1
  Ba  Ba1  1  0.50000000  0.92118200  0.81824600  1
  Ba  Ba2  1  0.50000000  0.36010100  0.75355100  1
  Ba  Ba3  1  0.50000000  0.63989900  0.25355100  1
  Ce  Ce0  1  0.50000000  0.11880100  0.68287300  1
  Ce  Ce1  1  0.50000000  0.88119900  0.18287300  1
  Ce  Ce2  1  0.50000000  0.58099800  0.87575900  1
  Ce  Ce3  1  0.50000000  0.41900200  0.37575900  1
  Sn  Sn0  1  0.50000000  0.25433300  0.10293900  1
  Sn  Sn1  1  0.50000000  0.74566700  0.60293900  1
  Sn  Sn2  1  0.00000000  0.09297100  0.99637600  1
  Sn  Sn3  1  0.00000000  0.90702900  0.49637600  1
  Sn  Sn4  1  0.00000000  0.24801400  0.49863800  1
  Sn  Sn5  1  0.00000000  0.75198600  0.99863800  1
  Sn  Sn6  1  0.00000000  0.57582600  0.54587200  1
  Sn  Sn7  1  0.00000000  0.42417400  0.04587200  1
  Se  Se0  1  0.50000000  0.01304700  0.06526300  1
  Se  Se1  1  0.50000000  0.98695300  0.56526300  1
  Se  Se2  1  0.50000000  0.17020200  0.91655200  1
  Se  Se3  1  0.50000000  0.82979800  0.41655200  1
  Se  Se4  1  0.50000000  0.50422700  0.59383900  1
  Se  Se5  1  0.50000000  0.49577300  0.09383900  1
  Se  Se6  1  0.50000000  0.73793500  0.87267300  1
  Se  Se7  1  0.50000000  0.26206500  0.37267300  1
  Se  Se8  1  0.00000000  0.04195400  0.78910700  1
  Se  Se9  1  0.00000000  0.95804600  0.28910700  1
  Se  Se10  1  0.00000000  0.11657300  0.50697800  1
  Se  Se11  1  0.00000000  0.88342700  0.00697800  1
  Se  Se12  1  0.00000000  0.16648400  0.17919100  1
  Se  Se13  1  0.00000000  0.83351600  0.67919100  1
  Se  Se14  1  0.00000000  0.23011700  0.70920100  1
  Se  Se15  1  0.00000000  0.76988300  0.20920100  1
  Se  Se16  1  0.00000000  0.31174600  0.94994200  1
  Se  Se17  1  0.00000000  0.68825400  0.44994200  1
  Se  Se18  1  0.00000000  0.37928000  0.53831800  1
  Se  Se19  1  0.00000000  0.62072000  0.03831800  1
  Se  Se20  1  0.00000000  0.47772400  0.84238300  1
  Se  Se21  1  0.00000000  0.52227600  0.34238300  1
  Se  Se22  1  0.00000000  0.64013400  0.73861900  1
  Se  Se23  1  0.00000000  0.35986600  0.23861900  1
loop_
_geom_bond_atom_site_label_1
_geom_bond_atom_site_label_2
_geom_bond_distance
_geom_bond_site_symmetry_2
Ba0 Se10 3.284614 1_655
Ba0 Se10 3.284614 1_555
Ba0 Se9 3.291734 1_645
Ba0 Se9 3.291734 1_545
Ba0 Se12 3.294098 1_655
Ba0 Se12 3.294098 1_555
Ba0 Se0 3.443422 1_555
Ba0 Se1 3.620722 1_545
Ba0 Se7 3.809545 1_555
Ba1 Se11 3.284614 1_656
Ba1 Se11 3.284614 1_556
Ba1 Se8 3.291734 1_565
Ba1 Se8 3.291734 1_665
Ba1 Se13 3.294098 1_555
Ba1 Se13 3.294098 1_655
Ba1 Se1 3.443422 1_555
Ba1 Se0 3.620722 1_566
Ba1 Se6 3.809545 1_555
Ba2 Se20 3.409840 1_555
Ba2 Se20 3.409840 1_655
Ba2 Se16 3.410807 1_555
Ba2 Se16 3.410807 1_655
Ba2 Se14 3.460831 1_555
Ba2 Se14 3.460831 1_655
Ba2 Se18 3.467985 1_655
Ba2 Se18 3.467985 1_555
Ba2 Se4 3.562916 1_555
Ba3 Se21 3.409840 1_555
Ba3 Se21 3.409840 1_655
Ba3 Se17 3.410807 1_555
Ba3 Se17 3.410807 1_655
Ba3 Se15 3.460831 1_555
Ba3 Se15 3.460831 1_655
Ba3 Se19 3.467985 1_655
Ba3 Se19 3.467985 1_555
Ba3 Se5 3.562916 1_555
Ce0 Se8 2.973654 1_655
Ce0 Se8 2.973654 1_555
Ce0 Se1 3.073088 1_545
Ce0 Se10 3.075650 1_555
Ce0 Se10 3.075650 1_655
Ce0 Se2 3.110935 1_555
Ce0 Se14 3.145305 1_555
Ce0 Se14 3.145305 1_655
Ce1 Se9 2.973654 1_555
Ce1 Se9 2.973654 1_655
Ce1 Se0 3.073088 1_565
Ce1 Se11 3.075650 1_655
Ce1 Se11 3.075650 1_555
Ce1 Se3 3.110935 1_555
Ce1 Se15 3.145305 1_655
Ce1 Se15 3.145305 1_555
Ce2 Se22 3.002655 1_655
Ce2 Se22 3.002655 1_555
Ce2 Se20 3.039254 1_655
Ce2 Se20 3.039254 1_555
Ce2 Se19 3.067412 1_556
Ce2 Se19 3.067412 1_656
Ce2 Se6 3.210116 1_555
Ce2 Se5 3.241118 1_556
Ce2 Se4 3.865628 1_555
Ce3 Se23 3.002655 1_555
Ce3 Se23 3.002655 1_655
Ce3 Se21 3.039254 1_555
Ce3 Se21 3.039254 1_655
Ce3 Se18 3.067412 1_655
Ce3 Se18 3.067412 1_555
Ce3 Se7 3.210116 1_555
Ce3 Se4 3.241118 1_555
Ce3 Se5 3.865628 1_555
Se0 Sn2 2.831547 1_654
Se0 Sn2 2.831547 1_554
Se1 Sn3 2.831547 1_555
Se1 Sn3 2.831547 1_655
Se2 Sn2 2.845338 1_655
Se2 Sn2 2.845338 1_555
Se2 Sn0 2.900845 1_556
Se3 Sn3 2.845338 1_555
Se3 Sn3 2.845338 1_655
Se3 Sn1 2.900845 1_555
Se4 Sn6 2.665741 1_555
Se4 Sn6 2.665741 1_655
Se5 Sn7 2.665741 1_655
Se5 Sn7 2.665741 1_555
Se6 Sn5 2.678430 1_555
Se6 Sn5 2.678430 1_655
Se7 Sn4 2.678430 1_655
Se7 Sn4 2.678430 1_555
Se8 Sn2 2.798792 1_555
Se9 Sn3 2.798792 1_555
Se10 Sn4 2.690435 1_555
Se11 Sn5 2.690435 1_554
Se12 Sn2 2.740004 1_554
Se12 Sn0 2.956636 1_455
Se12 Sn0 2.956636 1_555
Se13 Sn3 2.740004 1_555
Se13 Sn1 2.956636 1_555
Se13 Sn1 2.956636 1_455
Se14 Sn4 2.663546 1_555
Se15 Sn5 2.663546 1_554
Se16 Sn7 2.594714 1_556
Se16 Sn0 3.107120 1_556
Se16 Sn0 3.107120 1_456
Se17 Sn6 2.594714 1_555
Se17 Sn1 3.107120 1_555
Se17 Sn1 3.107120 1_455
Se18 Sn4 2.730471 1_555
Se19 Sn5 2.730471 1_554
Se20 Sn7 2.774939 1_556
Se21 Sn6 2.774939 1_555
Se22 Sn6 2.749998 1_555
Se23 Sn7 2.749998 1_555
