# generated using pymatgen
data_MgBiMoO5
_symmetry_space_group_name_H-M   'P 1'
_cell_length_a   5.42198756
_cell_length_b   7.99891053
_cell_length_c   11.85078900
_cell_angle_alpha   90.00000000
_cell_angle_beta   90.00000000
_cell_angle_gamma   104.90966353
_symmetry_Int_Tables_number   1
_chemical_formula_structural   MgBiMoO5
_chemical_formula_sum   'Mg4 Bi4 Mo4 O20'
_cell_volume   496.66470243
_cell_formula_units_Z   4
loop_
 _symmetry_equiv_pos_site_id
 _symmetry_equiv_pos_as_xyz
  1  'x, y, z'
loop_
 _atom_site_type_symbol
 _atom_site_label
 _atom_site_symmetry_multiplicity
 _atom_site_fract_x
 _atom_site_fract_y
 _atom_site_fract_z
 _atom_site_occupancy
  Mg  Mg0  1  0.61162700  0.17149000  0.92105500  1
  Mg  Mg1  1  0.38837300  0.82851000  0.07894500  1
  Mg  Mg2  1  0.88837300  0.32851000  0.42105500  1
  Mg  Mg3  1  0.11162700  0.67149000  0.57894500  1
  Bi  Bi0  1  0.10019800  0.15541600  0.10364000  1
  Bi  Bi1  1  0.89980200  0.84458400  0.89636000  1
  Bi  Bi2  1  0.60019800  0.65541600  0.39636000  1
  Bi  Bi3  1  0.39980200  0.34458400  0.60364000  1
  Mo  Mo0  1  0.77180600  0.97493000  0.63762500  1
  Mo  Mo1  1  0.22819400  0.02507000  0.36237500  1
  Mo  Mo2  1  0.72819400  0.52507000  0.13762500  1
  Mo  Mo3  1  0.27180600  0.47493000  0.86237500  1
  O  O0  1  0.54634200  0.32506000  0.06622800  1
  O  O1  1  0.99447600  0.32841000  0.92804600  1
  O  O2  1  0.50924800  0.65972200  0.18426800  1
  O  O3  1  0.75627300  0.51269000  0.52757700  1
  O  O4  1  0.78249500  0.47839400  0.29354700  1
  O  O5  1  0.28249500  0.97839400  0.20645300  1
  O  O6  1  0.49447600  0.82841000  0.57195400  1
  O  O7  1  0.50552400  0.17159000  0.42804600  1
  O  O8  1  0.24372700  0.48731000  0.47242300  1
  O  O9  1  0.95365800  0.17494000  0.56622800  1
  O  O10  1  0.21750500  0.52160600  0.70645300  1
  O  O11  1  0.45365800  0.67494000  0.93377200  1
  O  O12  1  0.04634200  0.82506000  0.43377200  1
  O  O13  1  0.71750500  0.02160600  0.79354700  1
  O  O14  1  0.74372700  0.98731000  0.02757700  1
  O  O15  1  0.25627300  0.01269000  0.97242300  1
  O  O16  1  0.49075200  0.34027800  0.81573200  1
  O  O17  1  0.00552400  0.67159000  0.07195400  1
  O  O18  1  0.99075200  0.84027800  0.68426800  1
  O  O19  1  0.00924800  0.15972200  0.31573200  1
loop_
_geom_bond_atom_site_label_1
_geom_bond_atom_site_label_2
_geom_bond_distance
_geom_bond_site_symmetry_2
Mg0 O16 2.065330 1_555
Mg0 O13 2.098676 1_555
Mg0 O15 2.106401 1_555
Mg0 O1 2.133199 1_555
Mg0 O0 2.194955 1_556
Mg0 O14 2.195453 1_546
Mg1 O2 2.065330 1_555
Mg1 O5 2.098676 1_555
Mg1 O14 2.106401 1_555
Mg1 O17 2.133199 1_555
Mg1 O11 2.194955 1_554
Mg1 O15 2.195453 1_564
Mg2 O19 2.065330 1_655
Mg2 O4 2.098676 1_555
Mg2 O8 2.106401 1_655
Mg2 O7 2.133199 1_555
Mg2 O9 2.194955 1_555
Mg2 O3 2.195453 1_555
Mg3 O18 2.065330 1_455
Mg3 O10 2.098676 1_555
Mg3 O3 2.106401 1_455
Mg3 O6 2.133199 1_555
Mg3 O12 2.194955 1_555
Mg3 O8 2.195453 1_555
Bi0 O15 2.221428 1_554
Bi0 O14 2.240292 1_445
Bi0 O5 2.277435 1_545
Bi0 O0 2.490038 1_555
Bi0 O19 2.563313 1_555
Bi0 O1 2.642314 1_454
Bi1 O14 2.221428 1_556
Bi1 O15 2.240292 1_665
Bi1 O13 2.277435 1_565
Bi1 O11 2.490038 1_555
Bi1 O18 2.563313 1_555
Bi1 O17 2.642314 1_656
Bi2 O3 2.221428 1_555
Bi2 O8 2.240292 1_555
Bi2 O4 2.277435 1_555
Bi2 O12 2.490038 1_655
Bi2 O2 2.563313 1_555
Bi2 O6 2.642314 1_555
Bi3 O8 2.221428 1_555
Bi3 O3 2.240292 1_555
Bi3 O10 2.277435 1_555
Bi3 O9 2.490038 1_455
Bi3 O16 2.563313 1_555
Bi3 O7 2.642314 1_555
Mo0 O6 1.825772 1_555
Mo0 O9 1.853620 1_565
Mo0 O18 1.879585 1_555
Mo0 O13 1.922760 1_565
Mo1 O7 1.825772 1_555
Mo1 O12 1.853620 1_545
Mo1 O19 1.879585 1_555
Mo1 O5 1.922760 1_545
Mo2 O17 1.825772 1_655
Mo2 O0 1.853620 1_555
Mo2 O2 1.879585 1_555
Mo2 O4 1.922760 1_555
Mo3 O1 1.825772 1_455
Mo3 O11 1.853620 1_555
Mo3 O16 1.879585 1_555
Mo3 O10 1.922760 1_555
