# generated using pymatgen
data_RbU2F9
_symmetry_space_group_name_H-M   'P 1'
_cell_length_a   7.09184900
_cell_length_b   8.79646400
_cell_length_c   11.73598200
_cell_angle_alpha   90.00000000
_cell_angle_beta   90.00000000
_cell_angle_gamma   90.00000000
_symmetry_Int_Tables_number   1
_chemical_formula_structural   RbU2F9
_chemical_formula_sum   'Rb4 U8 F36'
_cell_volume   732.12804684
_cell_formula_units_Z   4
loop_
 _symmetry_equiv_pos_site_id
 _symmetry_equiv_pos_as_xyz
  1  'x, y, z'
loop_
 _atom_site_type_symbol
 _atom_site_label
 _atom_site_symmetry_multiplicity
 _atom_site_fract_x
 _atom_site_fract_y
 _atom_site_fract_z
 _atom_site_occupancy
  Rb  Rb0  1  0.86647600  0.96805000  0.25000000  1
  Rb  Rb1  1  0.63352400  0.46805000  0.25000000  1
  Rb  Rb2  1  0.13352400  0.03195000  0.75000000  1
  Rb  Rb3  1  0.36647600  0.53195000  0.75000000  1
  U  U0  1  0.35090300  0.82358400  0.44923300  1
  U  U1  1  0.14909700  0.32358400  0.05076700  1
  U  U2  1  0.64909700  0.17641600  0.94923300  1
  U  U3  1  0.85090300  0.67641600  0.55076700  1
  U  U4  1  0.64909700  0.17641600  0.55076700  1
  U  U5  1  0.85090300  0.67641600  0.94923300  1
  U  U6  1  0.35090300  0.82358400  0.05076700  1
  U  U7  1  0.14909700  0.32358400  0.44923300  1
  F  F0  1  0.43100100  0.99417500  0.59710800  1
  F  F1  1  0.06899900  0.49417500  0.90289200  1
  F  F2  1  0.56899900  0.00582500  0.09710800  1
  F  F3  1  0.93100100  0.50582500  0.40289200  1
  F  F4  1  0.56899900  0.00582500  0.40289200  1
  F  F5  1  0.93100100  0.50582500  0.09710800  1
  F  F6  1  0.43100100  0.99417500  0.90289200  1
  F  F7  1  0.06899900  0.49417500  0.59710800  1
  F  F8  1  0.03416500  0.78634400  0.40750600  1
  F  F9  1  0.46583500  0.28634400  0.09249400  1
  F  F10  1  0.96583500  0.21365600  0.90750600  1
  F  F11  1  0.53416500  0.71365600  0.59249400  1
  F  F12  1  0.96583500  0.21365600  0.59249400  1
  F  F13  1  0.53416500  0.71365600  0.90750600  1
  F  F14  1  0.03416500  0.78634400  0.09249400  1
  F  F15  1  0.46583500  0.28634400  0.40750600  1
  F  F16  1  0.15162100  0.77906700  0.60467400  1
  F  F17  1  0.34837900  0.27906700  0.89532600  1
  F  F18  1  0.84837900  0.22093300  0.10467400  1
  F  F19  1  0.65162100  0.72093300  0.39532600  1
  F  F20  1  0.84837900  0.22093300  0.39532600  1
  F  F21  1  0.65162100  0.72093300  0.10467400  1
  F  F22  1  0.15162100  0.77906700  0.89532600  1
  F  F23  1  0.34837900  0.27906700  0.60467400  1
  F  F24  1  0.30673500  0.56644700  0.42285400  1
  F  F25  1  0.19326500  0.06644700  0.07714600  1
  F  F26  1  0.69326500  0.43355300  0.92285400  1
  F  F27  1  0.80673500  0.93355300  0.57714600  1
  F  F28  1  0.69326500  0.43355300  0.57714600  1
  F  F29  1  0.80673500  0.93355300  0.92285400  1
  F  F30  1  0.30673500  0.56644700  0.07714600  1
  F  F31  1  0.19326500  0.06644700  0.42285400  1
  F  F32  1  0.33953700  0.82482700  0.25000000  1
  F  F33  1  0.16046300  0.32482700  0.25000000  1
  F  F34  1  0.66046300  0.17517300  0.75000000  1
  F  F35  1  0.83953700  0.67517300  0.75000000  1
loop_
_geom_bond_atom_site_label_1
_geom_bond_atom_site_label_2
_geom_bond_distance
_geom_bond_site_symmetry_2
F0 U4 2.293017 1_565
F0 U0 2.363532 1_555
F0 Rb2 2.789397 1_565
F1 U5 2.293017 1_455
F1 U1 2.363532 1_556
F1 Rb3 2.789397 1_555
F2 U6 2.293017 1_545
F2 U2 2.363532 1_554
F2 Rb0 2.789397 1_545
F3 U7 2.293017 1_655
F3 U3 2.363532 1_555
F3 Rb1 2.789397 1_555
F4 U0 2.293017 1_545
F4 U4 2.363532 1_555
F4 Rb0 2.789397 1_545
F5 U1 2.293017 1_655
F5 U5 2.363532 1_554
F5 Rb1 2.789397 1_555
F6 U2 2.293017 1_565
F6 U6 2.363532 1_556
F6 Rb2 2.789397 1_565
F7 U3 2.293017 1_455
F7 U7 2.363532 1_555
F7 Rb3 2.789397 1_555
F8 U0 2.322240 1_555
F8 U3 2.334733 1_455
F8 Rb0 2.717710 1_455
F9 U1 2.322240 1_555
F9 U2 2.334733 1_554
F9 Rb1 2.717710 1_555
F10 U2 2.322240 1_555
F10 U1 2.334733 1_656
F10 Rb2 2.717710 1_655
F11 U3 2.322240 1_555
F11 U0 2.334733 1_555
F11 Rb3 2.717710 1_555
F12 U4 2.322240 1_555
F12 U7 2.334733 1_655
F12 Rb2 2.717710 1_655
F13 U5 2.322240 1_555
F13 U6 2.334733 1_556
F13 Rb3 2.717710 1_555
F14 U6 2.322240 1_555
F14 U5 2.334733 1_454
F14 Rb0 2.717710 1_455
F15 U7 2.322240 1_555
F15 U4 2.334733 1_555
F15 Rb1 2.717710 1_555
F16 U0 2.340640 1_555
F16 U3 2.400787 1_455
F16 Rb2 2.806001 1_565
F16 Rb3 3.155283 1_555
F17 U1 2.340640 1_556
F17 U2 2.400787 1_555
F17 Rb3 2.806001 1_555
F17 Rb2 3.155283 1_555
F18 U2 2.340640 1_554
F18 U1 2.400787 1_655
F18 Rb0 2.806001 1_545
F18 Rb1 3.155283 1_555
F19 U3 2.340640 1_555
F19 U0 2.400787 1_555
F19 Rb1 2.806001 1_555
F19 Rb0 3.155283 1_555
F20 U4 2.340640 1_555
F20 U7 2.400787 1_655
F20 Rb0 2.806001 1_545
F20 Rb1 3.155283 1_555
F21 U5 2.340640 1_554
F21 U6 2.400787 1_555
F21 Rb1 2.806001 1_555
F21 Rb0 3.155283 1_555
F22 U6 2.340640 1_556
F22 U5 2.400787 1_455
F22 Rb2 2.806001 1_565
F22 Rb3 3.155283 1_555
F23 U7 2.340640 1_555
F23 U4 2.400787 1_555
F23 Rb3 2.806001 1_555
F23 Rb2 3.155283 1_555
F24 U0 2.304372 1_555
F24 U7 2.430961 1_555
F24 Rb1 3.199284 1_555
F25 U1 2.304372 1_555
F25 U6 2.430961 1_545
F25 Rb0 3.199284 1_445
F26 U2 2.304372 1_555
F26 U5 2.430961 1_555
F26 Rb3 3.199284 1_555
F27 U3 2.304372 1_555
F27 U4 2.430961 1_565
F27 Rb2 3.199284 1_665
F28 U4 2.304372 1_555
F28 U3 2.430961 1_555
F28 Rb3 3.199284 1_555
F29 U5 2.304372 1_555
F29 U2 2.430961 1_565
F29 Rb2 3.199284 1_665
F30 U6 2.304372 1_555
F30 U1 2.430961 1_555
F30 Rb1 3.199284 1_555
F31 U7 2.304372 1_555
F31 U0 2.430961 1_545
F31 Rb0 3.199284 1_445
F32 U6 2.339609 1_555
F32 U0 2.339609 1_555
F33 U7 2.339609 1_555
F33 U1 2.339609 1_555
F34 U4 2.339609 1_555
F34 U2 2.339609 1_555
F35 U3 2.339609 1_555
F35 U5 2.339609 1_555
