# generated using pymatgen
data_La2Mn3Cu9As7
_symmetry_space_group_name_H-M   'P 1'
_cell_length_a   9.91028786
_cell_length_b   9.91028786
_cell_length_c   4.03329800
_cell_angle_alpha   90.00000000
_cell_angle_beta   90.00000000
_cell_angle_gamma   119.99999904
_symmetry_Int_Tables_number   1
_chemical_formula_structural   La2Mn3Cu9As7
_chemical_formula_sum   'La2 Mn3 Cu9 As7'
_cell_volume   343.05478823
_cell_formula_units_Z   1
loop_
 _symmetry_equiv_pos_site_id
 _symmetry_equiv_pos_as_xyz
  1  'x, y, z'
loop_
 _atom_site_type_symbol
 _atom_site_label
 _atom_site_symmetry_multiplicity
 _atom_site_fract_x
 _atom_site_fract_y
 _atom_site_fract_z
 _atom_site_occupancy
  La  La0  1  0.33333300  0.66666700  0.00000000  1
  La  La1  1  0.00000000  0.00000000  0.50000000  1
  Mn  Mn0  1  0.76570800  0.55350600  0.50000000  1
  Mn  Mn1  1  0.44649400  0.21220200  0.50000000  1
  Mn  Mn2  1  0.78779800  0.23429200  0.50000000  1
  Cu  Cu0  1  0.71715300  0.75499800  0.00000000  1
  Cu  Cu1  1  0.24500200  0.96215400  0.00000000  1
  Cu  Cu2  1  0.03784600  0.28284700  0.00000000  1
  Cu  Cu3  1  0.94910000  0.49296000  0.00000000  1
  Cu  Cu4  1  0.50704000  0.45614000  0.00000000  1
  Cu  Cu5  1  0.54386000  0.05090000  0.00000000  1
  Cu  Cu6  1  0.08909500  0.70938300  0.50000000  1
  Cu  Cu7  1  0.29061700  0.37971200  0.50000000  1
  Cu  Cu8  1  0.62028800  0.91090500  0.50000000  1
  As  As0  1  0.96484800  0.74944000  0.00000000  1
  As  As1  1  0.25056000  0.21540700  0.00000000  1
  As  As2  1  0.78459300  0.03515200  0.00000000  1
  As  As3  1  0.07890900  0.44857400  0.50000000  1
  As  As4  1  0.55142600  0.63033500  0.50000000  1
  As  As5  1  0.36966500  0.92109100  0.50000000  1
  As  As6  1  0.66666700  0.33333300  0.00000000  1
loop_
_geom_bond_atom_site_label_1
_geom_bond_atom_site_label_2
_geom_bond_distance
_geom_bond_site_symmetry_2
Cu0 Mn0 3.040835 1_554
Cu0 Mn0 3.040835 1_555
Cu0 La1 3.318670 1_665
Cu0 La1 3.318670 1_664
Cu0 La0 3.450388 1_555
Cu1 Mn1 3.040839 1_565
Cu1 Mn1 3.040839 1_564
Cu1 La1 3.318674 1_565
Cu1 La1 3.318674 1_564
Cu1 La0 3.450369 1_555
Cu2 Mn2 3.040842 1_455
Cu2 Mn2 3.040842 1_454
Cu2 La1 3.318666 1_555
Cu2 La1 3.318666 1_554
Cu2 La0 3.450382 1_555
Cu3 Mn0 2.969954 1_554
Cu3 Mn0 2.969954 1_555
Cu3 Mn2 3.015923 1_554
Cu3 Mn2 3.015923 1_555
Cu3 La0 3.302746 1_655
Cu4 Mn1 2.969954 1_555
Cu4 Mn1 2.969954 1_554
Cu4 Mn0 3.015923 1_555
Cu4 Mn0 3.015923 1_554
Cu4 La0 3.302755 1_555
Cu5 Mn2 2.969954 1_554
Cu5 Mn2 2.969954 1_555
Cu5 Mn1 3.015923 1_554
Cu5 Mn1 3.015923 1_555
Cu5 La0 3.302747 1_545
Cu6 Mn0 2.776087 1_455
Cu6 La0 3.336076 1_555
Cu6 La0 3.336076 1_556
Cu6 La1 3.408457 1_565
Cu7 Mn1 2.776087 1_555
Cu7 La0 3.336084 1_556
Cu7 La0 3.336084 1_555
Cu7 La1 3.408457 1_555
Cu8 Mn2 2.776087 1_565
Cu8 La0 3.336081 1_556
Cu8 La0 3.336081 1_555
Cu8 La1 3.408457 1_665
As0 Cu3 2.467462 1_555
As0 Cu0 2.482728 1_555
As0 Cu6 2.495882 1_655
As0 Cu6 2.495882 1_654
As0 Cu1 2.509884 1_655
As0 Mn0 2.810697 1_554
As0 Mn0 2.810697 1_555
As0 La1 3.080437 1_665
As0 La1 3.080437 1_664
As1 Cu4 2.467466 1_555
As1 Cu1 2.482728 1_545
As1 Cu7 2.495888 1_555
As1 Cu7 2.495888 1_554
As1 Cu2 2.509883 1_555
As1 Mn1 2.810694 1_554
As1 Mn1 2.810694 1_555
As1 La1 3.080434 1_554
As1 La1 3.080434 1_555
As2 Cu5 2.467471 1_555
As2 Cu2 2.482728 1_655
As2 Cu8 2.495886 1_544
As2 Cu8 2.495886 1_545
As2 Cu0 2.509884 1_545
As2 Mn2 2.810700 1_554
As2 Mn2 2.810700 1_555
As2 La1 3.080429 1_655
As2 La1 3.080429 1_654
As3 Cu2 2.502318 1_555
As3 Cu2 2.502318 1_556
As3 Cu7 2.509885 1_555
As3 Cu6 2.535727 1_555
As3 Cu3 2.545817 1_455
As3 Cu3 2.545817 1_456
As3 Mn2 2.589650 1_455
As3 La0 3.105834 1_555
As3 La0 3.105834 1_556
As4 Cu0 2.502316 1_555
As4 Cu0 2.502316 1_556
As4 Cu8 2.509885 1_555
As4 Cu7 2.535727 1_555
As4 Cu4 2.545817 1_556
As4 Cu4 2.545817 1_555
As4 Mn0 2.589650 1_555
As4 La0 3.105839 1_555
As4 La0 3.105839 1_556
As5 Cu1 2.502312 1_556
As5 Cu1 2.502312 1_555
As5 Cu6 2.509885 1_555
As5 Cu8 2.535727 1_555
As5 Cu5 2.545817 1_566
As5 Cu5 2.545817 1_565
As5 Mn1 2.589650 1_565
As5 La0 3.105831 1_556
As5 La0 3.105831 1_555
As6 Cu5 2.430855 1_555
As6 Cu3 2.430855 1_555
As6 Cu4 2.430864 1_555
As6 Mn2 2.765790 1_554
As6 Mn2 2.765790 1_555
As6 Mn1 2.765795 1_554
As6 Mn1 2.765795 1_555
As6 Mn0 2.765796 1_555
As6 Mn0 2.765796 1_554
