# generated using pymatgen
data_NaCaAlPHO5F2
_symmetry_space_group_name_H-M   'P 1'
_cell_length_a   7.29954100
_cell_length_b   5.59397200
_cell_length_c   6.95704572
_cell_angle_alpha   71.42024969
_cell_angle_beta   90.00000000
_cell_angle_gamma   90.00000000
_symmetry_Int_Tables_number   1
_chemical_formula_structural   NaCaAlPHO5F2
_chemical_formula_sum   'Na2 Ca2 Al2 P2 H2 O10 F4'
_cell_volume   269.27408072
_cell_formula_units_Z   2
loop_
 _symmetry_equiv_pos_site_id
 _symmetry_equiv_pos_as_xyz
  1  'x, y, z'
loop_
 _atom_site_type_symbol
 _atom_site_label
 _atom_site_symmetry_multiplicity
 _atom_site_fract_x
 _atom_site_fract_y
 _atom_site_fract_z
 _atom_site_occupancy
  Na  Na0  1  0.25000000  0.97110300  0.54175700  1
  Na  Na1  1  0.75000000  0.02889700  0.45824300  1
  Ca  Ca0  1  0.50000000  0.00000000  0.00000000  1
  Ca  Ca1  1  0.00000000  0.00000000  0.00000000  1
  Al  Al0  1  0.50000000  0.50000000  0.50000000  1
  Al  Al1  1  0.00000000  0.50000000  0.50000000  1
  P  P0  1  0.25000000  0.46396800  0.13438200  1
  P  P1  1  0.75000000  0.53603200  0.86561800  1
  H  H0  1  0.25000000  0.47920800  0.72953000  1
  H  H1  1  0.75000000  0.52079200  0.27047000  1
  O  O0  1  0.42335700  0.41697200  0.27079300  1
  O  O1  1  0.57664300  0.58302800  0.72920700  1
  O  O2  1  0.92335700  0.58302800  0.72920700  1
  O  O3  1  0.07664300  0.41697200  0.27079300  1
  O  O4  1  0.25000000  0.73929100  0.98710100  1
  O  O5  1  0.75000000  0.26070900  0.01289900  1
  O  O6  1  0.25000000  0.27143300  0.01503600  1
  O  O7  1  0.75000000  0.72856700  0.98496400  1
  O  O8  1  0.25000000  0.52823400  0.58026600  1
  O  O9  1  0.75000000  0.47176600  0.41973400  1
  F  F0  1  0.49948600  0.84382600  0.34936300  1
  F  F1  1  0.50051400  0.15617400  0.65063700  1
  F  F2  1  0.99948600  0.15617400  0.65063700  1
  F  F3  1  0.00051400  0.84382600  0.34936300  1
loop_
_geom_bond_atom_site_label_1
_geom_bond_atom_site_label_2
_geom_bond_distance
_geom_bond_site_symmetry_2
Na0 O8 2.405477 1_555
Na1 O9 2.405477 1_555
Ca0 F1 2.305996 1_554
Ca0 F0 2.305996 1_545
Ca0 O4 2.355544 1_544
Ca0 O5 2.355544 1_555
Ca0 O6 2.397471 1_555
Ca0 O7 2.397471 1_544
Ca1 F3 2.305996 1_545
Ca1 F2 2.305996 1_454
Ca1 O4 2.355544 1_544
Ca1 O5 2.355544 1_455
Ca1 O6 2.397471 1_555
Ca1 O7 2.397471 1_444
Al0 F1 1.874329 1_555
Al0 F0 1.874329 1_555
Al0 O0 1.882402 1_555
Al0 O1 1.882402 1_555
Al0 O8 1.929554 1_555
Al0 O9 1.929554 1_555
Al1 F2 1.874329 1_455
Al1 F3 1.874329 1_555
Al1 O3 1.882402 1_555
Al1 O2 1.882402 1_455
Al1 O8 1.929554 1_555
Al1 O9 1.929554 1_455
H0 O8 0.985941 1_555
H1 O9 0.985941 1_555
O0 P0 1.553082 1_555
O1 P1 1.553082 1_555
O2 P1 1.553082 1_555
O3 P0 1.553082 1_555
O4 P0 1.554447 1_556
O5 P1 1.554447 1_554
O6 P0 1.555397 1_555
O7 P1 1.555397 1_555
F0 Na1 2.342913 1_565
F0 Na0 2.494454 1_555
F1 Na0 2.342913 1_545
F1 Na1 2.494454 1_555
F2 Na0 2.342913 1_645
F2 Na1 2.494454 1_555
F3 Na1 2.342913 1_465
F3 Na0 2.494454 1_555
