# generated using pymatgen
data_BaSr3Zr2Ti2O12
_symmetry_space_group_name_H-M   'P 1'
_cell_length_a   10.03140278
_cell_length_b   10.03140278
_cell_length_c   10.03140280
_cell_angle_alpha   33.46883168
_cell_angle_beta   33.46883168
_cell_angle_gamma   33.46883151
_symmetry_Int_Tables_number   1
_chemical_formula_structural   BaSr3Zr2Ti2O12
_chemical_formula_sum   'Ba1 Sr3 Zr2 Ti2 O12'
_cell_volume   273.41952180
_cell_formula_units_Z   1
loop_
 _symmetry_equiv_pos_site_id
 _symmetry_equiv_pos_as_xyz
  1  'x, y, z'
loop_
 _atom_site_type_symbol
 _atom_site_label
 _atom_site_symmetry_multiplicity
 _atom_site_fract_x
 _atom_site_fract_y
 _atom_site_fract_z
 _atom_site_occupancy
  Ba  Ba0  1  0.37776000  0.37776000  0.37776000  1
  Sr  Sr0  1  0.12509800  0.12509800  0.12509800  1
  Sr  Sr1  1  0.87121500  0.87121500  0.87121500  1
  Sr  Sr2  1  0.62437200  0.62437200  0.62437200  1
  Zr  Zr0  1  0.24734900  0.24734900  0.24734900  1
  Zr  Zr1  1  0.00178200  0.00178200  0.00178200  1
  Ti  Ti0  1  0.75252900  0.75252900  0.75252900  1
  Ti  Ti1  1  0.49869000  0.49869000  0.49869000  1
  O  O0  1  0.39001000  0.87239100  0.87239100  1
  O  O1  1  0.12247000  0.62763800  0.62763800  1
  O  O2  1  0.85904500  0.37765100  0.37765100  1
  O  O3  1  0.62643800  0.12239100  0.12239100  1
  O  O4  1  0.62763800  0.62763800  0.12247000  1
  O  O5  1  0.37765100  0.37765100  0.85904500  1
  O  O6  1  0.12239100  0.12239100  0.62643800  1
  O  O7  1  0.87239100  0.87239100  0.39001000  1
  O  O8  1  0.62763800  0.12247000  0.62763800  1
  O  O9  1  0.37765100  0.85904500  0.37765100  1
  O  O10  1  0.12239100  0.62643800  0.12239100  1
  O  O11  1  0.87239100  0.39001000  0.87239100  1
loop_
_geom_bond_atom_site_label_1
_geom_bond_atom_site_label_2
_geom_bond_distance
_geom_bond_site_symmetry_2
Ba0 O4 2.861450 1_555
Ba0 O1 2.861450 1_555
Ba0 O8 2.861450 1_555
Ba0 O7 2.889033 1_545
Ba0 O7 2.889033 1_455
Ba0 O11 2.889033 1_455
Ba0 O0 2.889033 1_545
Ba0 O0 2.889033 1_554
Ba0 O11 2.889033 1_554
Ba0 O6 2.995491 1_555
Ba0 O10 2.995491 1_555
Ba0 O3 2.995491 1_555
O0 Ti0 1.984447 1_555
O0 Zr1 2.116641 1_566
O0 Sr0 2.856131 1_566
O0 Sr2 2.952495 1_555
O1 Ti0 2.004009 1_455
O1 Ti1 2.022835 1_555
O1 Sr1 2.775712 1_455
O1 Sr0 2.888545 1_556
O1 Sr0 2.888545 1_565
O2 Ti1 1.957029 1_555
O2 Zr0 2.109825 1_655
O2 Sr0 2.847221 1_655
O2 Sr1 2.889074 1_545
O2 Sr1 2.889074 1_554
O2 Sr2 2.927666 1_555
O3 Zr0 2.078366 1_555
O3 Zr1 2.084777 1_655
O3 Sr2 2.888487 1_554
O3 Sr2 2.888487 1_545
O3 Sr1 2.945222 1_544
O4 Ti0 2.004009 1_554
O4 Ti1 2.022835 1_555
O4 Sr1 2.775712 1_554
O4 Sr0 2.888545 1_655
O4 Sr0 2.888545 1_565
O5 Ti1 1.957029 1_555
O5 Zr0 2.109825 1_556
O5 Sr0 2.847221 1_556
O5 Sr1 2.889074 1_455
O5 Sr1 2.889074 1_545
O5 Sr2 2.927666 1_555
O6 Zr0 2.078366 1_555
O6 Zr1 2.084777 1_556
O6 Sr2 2.888487 1_455
O6 Sr2 2.888487 1_545
O6 Sr1 2.945222 1_445
O7 Ti0 1.984447 1_555
O7 Zr1 2.116641 1_665
O7 Sr0 2.856131 1_665
O7 Sr2 2.952495 1_555
O8 Ti0 2.004009 1_545
O8 Ti1 2.022835 1_555
O8 Sr1 2.775712 1_545
O8 Sr0 2.888545 1_556
O8 Sr0 2.888545 1_655
O9 Ti1 1.957029 1_555
O9 Zr0 2.109825 1_565
O9 Sr0 2.847221 1_565
O9 Sr1 2.889074 1_455
O9 Sr1 2.889074 1_554
O9 Sr2 2.927666 1_555
O10 Zr0 2.078366 1_555
O10 Zr1 2.084777 1_565
O10 Sr2 2.888487 1_554
O10 Sr2 2.888487 1_455
O10 Sr1 2.945222 1_454
O11 Ti0 1.984447 1_555
O11 Zr1 2.116641 1_656
O11 Sr0 2.856131 1_656
O11 Sr2 2.952495 1_555
