# generated using pymatgen
data_Te4MoW3S4
_symmetry_space_group_name_H-M   'P 1'
_cell_length_a   3.35724435
_cell_length_b   3.35724435
_cell_length_c   38.35284200
_cell_angle_alpha   90.00000000
_cell_angle_beta   90.00000000
_cell_angle_gamma   120.00000699
_symmetry_Int_Tables_number   1
_chemical_formula_structural   Te4MoW3S4
_chemical_formula_sum   'Te4 Mo1 W3 S4'
_cell_volume   374.36398090
_cell_formula_units_Z   1
loop_
 _symmetry_equiv_pos_site_id
 _symmetry_equiv_pos_as_xyz
  1  'x, y, z'
loop_
 _atom_site_type_symbol
 _atom_site_label
 _atom_site_symmetry_multiplicity
 _atom_site_fract_x
 _atom_site_fract_y
 _atom_site_fract_z
 _atom_site_occupancy
  Te  Te0  1  0.00000000  0.00000000  0.70714800  1
  Te  Te1  1  0.33333300  0.66666700  0.04460500  1
  Te  Te2  1  0.33333300  0.66666700  0.14323300  1
  Te  Te3  1  0.00000000  0.00000000  0.60793700  1
  Mo  Mo0  1  0.00000000  0.00000000  0.09390600  1
  W  W0  1  0.00000000  0.00000000  0.46964200  1
  W  W1  1  0.33333300  0.66666700  0.28181500  1
  W  W2  1  0.33333300  0.66666700  0.65754800  1
  S  S0  1  0.00000000  0.00000000  0.32141200  1
  S  S1  1  0.33333300  0.66666700  0.43005400  1
  S  S2  1  0.33333300  0.66666700  0.50924300  1
  S  S3  1  0.00000000  0.00000000  0.24220600  1
loop_
_geom_bond_atom_site_label_1
_geom_bond_atom_site_label_2
_geom_bond_distance
_geom_bond_site_symmetry_2
Te0 W2 2.715837 1_545
Te0 W2 2.715839 1_445
Te0 W2 2.715839 1_555
Te3 W2 2.716133 1_545
Te3 W2 2.716135 1_555
Te3 W2 2.716135 1_445
Mo0 Te1 2.707817 1_545
Mo0 Te1 2.707819 1_555
Mo0 Te1 2.707819 1_445
Mo0 Te2 2.708514 1_545
Mo0 Te2 2.708516 1_555
Mo0 Te2 2.708516 1_445
S0 W1 2.462386 1_545
S0 W1 2.462388 1_445
S0 W1 2.462388 1_555
S1 W0 2.462173 1_565
S1 W0 2.462175 1_555
S1 W0 2.462175 1_665
S2 W0 2.462480 1_565
S2 W0 2.462482 1_555
S2 W0 2.462482 1_665
S3 W1 2.462670 1_545
S3 W1 2.462672 1_555
S3 W1 2.462672 1_445
