# generated using pymatgen
data_Te3As2O11
_symmetry_space_group_name_H-M   'P 1'
_cell_length_a   6.57194582
_cell_length_b   7.72815099
_cell_length_c   10.48974507
_cell_angle_alpha   67.83491338
_cell_angle_beta   89.24267215
_cell_angle_gamma   77.51910920
_symmetry_Int_Tables_number   1
_chemical_formula_structural   Te3As2O11
_chemical_formula_sum   'Te6 As4 O22'
_cell_volume   480.35594834
_cell_formula_units_Z   2
loop_
 _symmetry_equiv_pos_site_id
 _symmetry_equiv_pos_as_xyz
  1  'x, y, z'
loop_
 _atom_site_type_symbol
 _atom_site_label
 _atom_site_symmetry_multiplicity
 _atom_site_fract_x
 _atom_site_fract_y
 _atom_site_fract_z
 _atom_site_occupancy
  Te  Te0  1  0.68520745  0.77297980  0.48081430  1
  Te  Te1  1  0.31479255  0.22702020  0.51918570  1
  Te  Te2  1  0.79205898  0.33651055  0.20338907  1
  Te  Te3  1  0.20794102  0.66348945  0.79661093  1
  Te  Te4  1  0.76825555  0.95068847  0.15692060  1
  Te  Te5  1  0.23174445  0.04931153  0.84307940  1
  As  As0  1  0.31377009  0.29213326  0.11196241  1
  As  As1  1  0.68622991  0.70786674  0.88803759  1
  As  As2  1  0.18977082  0.71929359  0.39410880  1
  As  As3  1  0.81022918  0.28070641  0.60589120  1
  O  O0  1  0.20021702  0.40935417  0.94622798  1
  O  O1  1  0.79978298  0.59064583  0.05377202  1
  O  O2  1  0.74215936  0.03640041  0.31017172  1
  O  O3  1  0.25784064  0.96359959  0.68982828  1
  O  O4  1  0.47328578  0.41325081  0.15189970  1
  O  O5  1  0.52671422  0.58674919  0.84810030  1
  O  O6  1  0.70287779  0.71847926  0.31872599  1
  O  O7  1  0.29712221  0.28152074  0.68127401  1
  O  O8  1  0.08615655  0.84226334  0.22937818  1
  O  O9  1  0.91384345  0.15773666  0.77062182  1
  O  O10  1  0.00484502  0.69094770  0.51207851  1
  O  O11  1  0.99515498  0.30905230  0.48792149  1
  O  O12  1  0.82713899  0.22075196  0.07214579  1
  O  O13  1  0.17286101  0.77924804  0.92785421  1
  O  O14  1  0.44447942  0.07422909  0.11682964  1
  O  O15  1  0.55552058  0.92577091  0.88317036  1
  O  O16  1  0.35083200  0.82928279  0.44415941  1
  O  O17  1  0.64916800  0.17071721  0.55584059  1
  O  O18  1  0.12627432  0.27561483  0.22530364  1
  O  O19  1  0.87372568  0.72438517  0.77469636  1
  O  O20  1  0.32525131  0.49822739  0.40503062  1
  O  O21  1  0.67474869  0.50177261  0.59496938  1
loop_
_geom_bond_atom_site_label_1
_geom_bond_atom_site_label_2
_geom_bond_distance
_geom_bond_site_symmetry_2
As0 O18 1.692015 1_555
As0 O4 1.697714 1_555
As0 O14 1.699232 1_555
As0 O0 1.718640 1_554
As1 O19 1.692015 1_555
As1 O5 1.697714 1_555
As1 O15 1.699232 1_555
As1 O1 1.718640 1_556
As2 O16 1.690820 1_555
As2 O8 1.692645 1_555
As2 O20 1.709432 1_555
As2 O10 1.710878 1_555
As3 O17 1.690820 1_555
As3 O9 1.692645 1_555
As3 O21 1.709432 1_555
As3 O11 1.710878 1_555
O0 Te3 2.009522 1_555
O1 Te2 2.009522 1_555
O2 Te4 1.949240 1_545
O2 Te0 2.247335 1_545
O2 Te2 2.258349 1_555
O3 Te5 1.949240 1_565
O3 Te1 2.247335 1_565
O3 Te3 2.258349 1_555
O4 Te2 2.069661 1_555
O5 Te3 2.069661 1_555
O6 Te0 1.896256 1_555
O6 Te4 2.074015 1_555
O7 Te1 1.896256 1_555
O7 Te5 2.074015 1_555
O8 Te4 2.109370 1_455
O9 Te5 2.109370 1_655
O10 Te0 2.051311 1_455
O11 Te1 2.051311 1_655
O12 Te2 1.892237 1_555
O12 Te4 2.058169 1_545
O13 Te3 1.892237 1_555
O13 Te5 2.058169 1_565
O14 Te4 2.111562 1_545
O15 Te5 2.111562 1_565
O16 Te0 2.156148 1_555
O17 Te1 2.156148 1_555
O18 Te2 2.140940 1_455
O19 Te3 2.140940 1_655
O20 Te1 1.999469 1_555
O21 Te0 1.999469 1_555
