# generated using pymatgen
data_NaCaPH18SO12
_symmetry_space_group_name_H-M   'P 1'
_cell_length_a   10.85222400
_cell_length_b   10.85222400
_cell_length_c   10.85222400
_cell_angle_alpha   90.00000000
_cell_angle_beta   90.00000000
_cell_angle_gamma   90.00000000
_symmetry_Int_Tables_number   1
_chemical_formula_structural   NaCaPH18SO12
_chemical_formula_sum   'Na4 Ca4 P4 H72 S4 O48'
_cell_volume   1278.07473053
_cell_formula_units_Z   4
loop_
 _symmetry_equiv_pos_site_id
 _symmetry_equiv_pos_as_xyz
  1  'x, y, z'
loop_
 _atom_site_type_symbol
 _atom_site_label
 _atom_site_symmetry_multiplicity
 _atom_site_fract_x
 _atom_site_fract_y
 _atom_site_fract_z
 _atom_site_occupancy
  Na  Na0  1  0.68223700  0.18223700  0.31776300  1
  Na  Na1  1  0.18223700  0.31776300  0.68223700  1
  Na  Na2  1  0.31776300  0.68223700  0.18223700  1
  Na  Na3  1  0.81776300  0.81776300  0.81776300  1
  Ca  Ca0  1  0.43828600  0.43828600  0.43828600  1
  Ca  Ca1  1  0.56171300  0.93828700  0.06171400  1
  Ca  Ca2  1  0.93828700  0.06171400  0.56171300  1
  Ca  Ca3  1  0.06171400  0.56171300  0.93828700  1
  P  P0  1  0.44115600  0.94115600  0.55884400  1
  P  P1  1  0.94115600  0.55884400  0.44115600  1
  P  P2  1  0.55884400  0.44115600  0.94115600  1
  P  P3  1  0.05884400  0.05884400  0.05884400  1
  H  H0  1  0.42510000  0.42900900  0.15706800  1
  H  H1  1  0.84293200  0.92510000  0.07099100  1
  H  H2  1  0.92900900  0.34293200  0.57490000  1
  H  H3  1  0.92510000  0.07099100  0.84293200  1
  H  H4  1  0.34293200  0.57490000  0.92900900  1
  H  H5  1  0.42900900  0.15706800  0.42510000  1
  H  H6  1  0.57490000  0.92900900  0.34293200  1
  H  H7  1  0.15706800  0.42510000  0.42900900  1
  H  H8  1  0.07099100  0.84293200  0.92510000  1
  H  H9  1  0.07490000  0.57099100  0.65706800  1
  H  H10  1  0.65706800  0.07490000  0.57099100  1
  H  H11  1  0.57099100  0.65706800  0.07490000  1
  H  H12  1  0.28508000  0.44001500  0.19862600  1
  H  H13  1  0.80137400  0.78508000  0.05998500  1
  H  H14  1  0.94001500  0.30137400  0.71492000  1
  H  H15  1  0.78508000  0.05998500  0.80137400  1
  H  H16  1  0.30137400  0.71492000  0.94001500  1
  H  H17  1  0.44001500  0.19862600  0.28508000  1
  H  H18  1  0.71492000  0.94001500  0.30137400  1
  H  H19  1  0.19862600  0.28508000  0.44001500  1
  H  H20  1  0.05998500  0.80137400  0.78508000  1
  H  H21  1  0.21492000  0.55998500  0.69862600  1
  H  H22  1  0.69862600  0.21492000  0.55998500  1
  H  H23  1  0.55998500  0.69862600  0.21492000  1
  H  H24  1  0.61513900  0.39728800  0.19321300  1
  H  H25  1  0.80678700  0.11513900  0.10271200  1
  H  H26  1  0.89728800  0.30678700  0.38486100  1
  H  H27  1  0.11513900  0.10271200  0.80678700  1
  H  H28  1  0.30678700  0.38486100  0.89728800  1
  H  H29  1  0.39728800  0.19321300  0.61513900  1
  H  H30  1  0.38486100  0.89728800  0.30678700  1
  H  H31  1  0.19321300  0.61513900  0.39728800  1
  H  H32  1  0.10271200  0.80678700  0.11513900  1
  H  H33  1  0.88486100  0.60271200  0.69321300  1
  H  H34  1  0.69321300  0.88486100  0.60271200  1
  H  H35  1  0.60271200  0.69321300  0.88486100  1
  H  H36  1  0.70758600  0.45969900  0.28831000  1
  H  H37  1  0.71169000  0.20758600  0.04030100  1
  H  H38  1  0.95969900  0.21169000  0.29241400  1
  H  H39  1  0.20758600  0.04030100  0.71169000  1
  H  H40  1  0.21169000  0.29241400  0.95969900  1
  H  H41  1  0.45969900  0.28831000  0.70758600  1
  H  H42  1  0.29241400  0.95969900  0.21169000  1
  H  H43  1  0.28831000  0.70758600  0.45969900  1
  H  H44  1  0.04030100  0.71169000  0.20758600  1
  H  H45  1  0.79241400  0.54030100  0.78831000  1
  H  H46  1  0.78831000  0.79241400  0.54030100  1
  H  H47  1  0.54030100  0.78831000  0.79241400  1
  H  H48  1  0.51600400  0.71921400  0.42186400  1
  H  H49  1  0.57813600  0.01600400  0.78078600  1
  H  H50  1  0.21921400  0.07813600  0.48399600  1
  H  H51  1  0.01600400  0.78078600  0.57813600  1
  H  H52  1  0.07813600  0.48399600  0.21921400  1
  H  H53  1  0.71921400  0.42186400  0.51600400  1
  H  H54  1  0.48399600  0.21921400  0.07813600  1
  H  H55  1  0.42186400  0.51600400  0.71921400  1
  H  H56  1  0.78078600  0.57813600  0.01600400  1
  H  H57  1  0.98399600  0.28078600  0.92186400  1
  H  H58  1  0.92186400  0.98399600  0.28078600  1
  H  H59  1  0.28078600  0.92186400  0.98399600  1
  H  H60  1  0.63497300  0.63913400  0.39348600  1
  H  H61  1  0.60651400  0.13497300  0.86086600  1
  H  H62  1  0.13913400  0.10651400  0.36502700  1
  H  H63  1  0.13497300  0.86086600  0.60651400  1
  H  H64  1  0.10651400  0.36502700  0.13913400  1
  H  H65  1  0.63913400  0.39348600  0.63497300  1
  H  H66  1  0.36502700  0.13913400  0.10651400  1
  H  H67  1  0.39348600  0.63497300  0.63913400  1
  H  H68  1  0.86086600  0.60651400  0.13497300  1
  H  H69  1  0.86502700  0.36086600  0.89348600  1
  H  H70  1  0.89348600  0.86502700  0.36086600  1
  H  H71  1  0.36086600  0.89348600  0.86502700  1
  S  S0  1  0.33138600  0.83138600  0.66861400  1
  S  S1  1  0.83138600  0.66861400  0.33138600  1
  S  S2  1  0.66861400  0.33138600  0.83138600  1
  S  S3  1  0.16861400  0.16861400  0.16861400  1
  O  O0  1  0.56199400  0.97029900  0.62978000  1
  O  O1  1  0.37022000  0.06199400  0.52970100  1
  O  O2  1  0.47029900  0.87022000  0.43800600  1
  O  O3  1  0.06199400  0.52970100  0.37022000  1
  O  O4  1  0.87022000  0.43800600  0.47029900  1
  O  O5  1  0.97029900  0.62978000  0.56199400  1
  O  O6  1  0.43800600  0.47029900  0.87022000  1
  O  O7  1  0.62978000  0.56199400  0.97029900  1
  O  O8  1  0.52970100  0.37022000  0.06199400  1
  O  O9  1  0.93800600  0.02970100  0.12978000  1
  O  O10  1  0.12978000  0.93800600  0.02970100  1
  O  O11  1  0.02970100  0.12978000  0.93800600  1
  O  O12  1  0.36924100  0.46207900  0.22299900  1
  O  O13  1  0.77700100  0.86924100  0.03792100  1
  O  O14  1  0.96207900  0.27700100  0.63075900  1
  O  O15  1  0.86924100  0.03792100  0.77700100  1
  O  O16  1  0.27700100  0.63075900  0.96207900  1
  O  O17  1  0.46207900  0.22299900  0.36924100  1
  O  O18  1  0.63075900  0.96207900  0.27700100  1
  O  O19  1  0.22299900  0.36924100  0.46207900  1
  O  O20  1  0.03792100  0.77700100  0.86924100  1
  O  O21  1  0.13075900  0.53792100  0.72299900  1
  O  O22  1  0.72299900  0.13075900  0.53792100  1
  O  O23  1  0.53792100  0.72299900  0.13075900  1
  O  O24  1  0.64224800  0.39799800  0.28123100  1
  O  O25  1  0.71876900  0.14224800  0.10200200  1
  O  O26  1  0.89799800  0.21876900  0.35775200  1
  O  O27  1  0.14224800  0.10200200  0.71876900  1
  O  O28  1  0.21876900  0.35775200  0.89799800  1
  O  O29  1  0.39799800  0.28123100  0.64224800  1
  O  O30  1  0.35775200  0.89799800  0.21876900  1
  O  O31  1  0.28123100  0.64224800  0.39799800  1
  O  O32  1  0.10200200  0.71876900  0.14224800  1
  O  O33  1  0.85775200  0.60200200  0.78123100  1
  O  O34  1  0.78123100  0.85775200  0.60200200  1
  O  O35  1  0.60200200  0.78123100  0.85775200  1
  O  O36  1  0.54388100  0.63688600  0.39138900  1
  O  O37  1  0.60861100  0.04388100  0.86311400  1
  O  O38  1  0.13688600  0.10861100  0.45611900  1
  O  O39  1  0.04388100  0.86311400  0.60861100  1
  O  O40  1  0.10861100  0.45611900  0.13688600  1
  O  O41  1  0.63688600  0.39138900  0.54388100  1
  O  O42  1  0.45611900  0.13688600  0.10861100  1
  O  O43  1  0.39138900  0.54388100  0.63688600  1
  O  O44  1  0.86311400  0.60861100  0.04388100  1
  O  O45  1  0.95611900  0.36311400  0.89138900  1
  O  O46  1  0.89138900  0.95611900  0.36311400  1
  O  O47  1  0.36311400  0.89138900  0.95611900  1
loop_
_geom_bond_atom_site_label_1
_geom_bond_atom_site_label_2
_geom_bond_distance
_geom_bond_site_symmetry_2
Na0 O26 2.414139 1_555
Na0 O24 2.414139 1_555
Na0 O25 2.414139 1_555
Na0 O17 2.493204 1_555
Na0 O18 2.493204 1_545
Na0 O22 2.493204 1_555
Na1 O28 2.414139 1_555
Na1 O29 2.414139 1_555
Na1 O27 2.414139 1_555
Na1 O19 2.493204 1_555
Na1 O14 2.493204 1_455
Na1 O21 2.493204 1_555
Na2 O30 2.414139 1_555
Na2 O31 2.414139 1_555
Na2 O32 2.414139 1_555
Na2 O12 2.493204 1_555
Na2 O23 2.493204 1_555
Na2 O16 2.493204 1_554
Na3 O35 2.414139 1_555
Na3 O33 2.414139 1_555
Na3 O34 2.414139 1_555
Na3 O13 2.493204 1_556
Na3 O20 2.493204 1_655
Na3 O15 2.493204 1_565
Ca0 O19 2.467105 1_555
Ca0 O17 2.467105 1_555
Ca0 O12 2.467105 1_555
Ca0 O43 2.493453 1_555
Ca0 O41 2.493453 1_555
Ca0 O36 2.493453 1_555
Ca0 O24 2.827622 1_555
Ca0 O31 2.827622 1_555
Ca0 O29 2.827622 1_555
Ca1 O18 2.467107 1_555
Ca1 O23 2.467114 1_555
Ca1 O13 2.467118 1_555
Ca1 O42 2.493438 1_565
Ca1 O47 2.493446 1_554
Ca1 O37 2.493450 1_564
Ca1 O30 2.827615 1_555
Ca1 O25 2.827620 1_565
Ca1 O35 2.827630 1_554
Ca2 O14 2.467107 1_555
Ca2 O22 2.467114 1_555
Ca2 O15 2.467118 1_555
Ca2 O38 2.493438 1_655
Ca2 O46 2.493446 1_545
Ca2 O39 2.493450 1_645
Ca2 O26 2.827615 1_555
Ca2 O27 2.827620 1_655
Ca2 O34 2.827630 1_545
Ca3 O16 2.467107 1_555
Ca3 O21 2.467114 1_555
Ca3 O20 2.467118 1_555
Ca3 O40 2.493438 1_556
Ca3 O45 2.493446 1_455
Ca3 O44 2.493450 1_456
Ca3 O28 2.827615 1_555
Ca3 O32 2.827620 1_556
Ca3 O33 2.827630 1_455
P0 S0 2.063303 1_555
P1 S1 2.063303 1_555
P2 S2 2.063303 1_555
P3 S3 2.063303 1_555
H0 O12 1.004095 1_555
H0 O8 1.661368 1_555
H1 O13 1.004095 1_555
H1 O9 1.661368 1_565
H2 O14 1.004095 1_555
H2 O4 1.661368 1_555
H3 O15 1.004095 1_555
H3 O11 1.661368 1_655
H4 O16 1.004095 1_555
H4 O6 1.661368 1_555
H5 O17 1.004095 1_555
H5 O1 1.661368 1_555
H6 O18 1.004095 1_555
H6 O2 1.661368 1_555
H7 O19 1.004095 1_555
H7 O3 1.661368 1_555
H8 O20 1.004095 1_555
H8 O10 1.661368 1_556
H9 O21 1.004095 1_555
H9 O5 1.661368 1_455
H10 O22 1.004095 1_555
H10 O0 1.661368 1_545
H11 O23 1.004095 1_555
H11 O7 1.661368 1_554
H12 O12 0.980547 1_555
H13 O13 0.980547 1_555
H14 O14 0.980547 1_555
H15 O15 0.980547 1_555
H16 O16 0.980547 1_555
H17 O17 0.980547 1_555
H18 O18 0.980547 1_555
H19 O19 0.980547 1_555
H20 O20 0.980547 1_555
H21 O21 0.980547 1_555
H22 O22 0.980547 1_555
H23 O23 0.980547 1_555
H24 O24 0.999499 1_555
H24 O8 1.724471 1_555
H25 O25 0.999499 1_555
H25 O9 1.724471 1_555
H26 O26 0.999499 1_555
H26 O4 1.724471 1_555
H27 O27 0.999499 1_555
H27 O11 1.724471 1_555
H28 O28 0.999499 1_555
H28 O6 1.724471 1_555
H29 O29 0.999499 1_555
H29 O1 1.724471 1_555
H30 O30 0.999499 1_555
H30 O2 1.724471 1_555
H31 O31 0.999499 1_555
H31 O3 1.724471 1_555
H32 O32 0.999499 1_555
H32 O10 1.724471 1_555
H33 O33 0.999499 1_555
H33 O5 1.724471 1_555
H34 O34 0.999499 1_555
H34 O0 1.724471 1_555
H35 O35 0.999499 1_555
H35 O7 1.724471 1_555
H36 O24 0.978277 1_555
H37 O25 0.978277 1_555
H38 O26 0.978277 1_555
H39 O27 0.978277 1_555
H40 O28 0.978277 1_555
H41 O29 0.978277 1_555
H42 O30 0.978277 1_555
H43 O31 0.978277 1_555
H44 O32 0.978277 1_555
H45 O33 0.978277 1_555
H46 O34 0.978277 1_555
H47 O35 0.978277 1_555
H48 O36 0.999569 1_555
H48 O2 1.721107 1_555
H49 O37 0.999569 1_555
H49 O0 1.721107 1_545
H50 O38 0.999569 1_555
H50 O1 1.721107 1_555
H51 O39 0.999569 1_555
H51 O5 1.721107 1_455
H52 O40 0.999569 1_555
H52 O3 1.721107 1_555
H53 O41 0.999569 1_555
H53 O4 1.721107 1_555
H54 O42 0.999569 1_555
H54 O8 1.721107 1_555
H55 O43 0.999569 1_555
H55 O6 1.721107 1_555
H56 O44 0.999569 1_555
H56 O7 1.721107 1_554
H57 O45 0.999569 1_555
H57 O11 1.721107 1_655
H58 O46 0.999569 1_555
H58 O9 1.721107 1_565
H59 O47 0.999569 1_555
H59 O10 1.721107 1_556
H60 O36 0.989114 1_555
H61 O37 0.989114 1_555
H62 O38 0.989114 1_555
H63 O39 0.989114 1_555
H64 O40 0.989114 1_555
H65 O41 0.989114 1_555
H66 O42 0.989114 1_555
H67 O43 0.989114 1_555
H68 O44 0.989114 1_555
H69 O45 0.989114 1_555
H70 O46 0.989114 1_555
H71 O47 0.989114 1_555
O0 P0 1.553160 1_555
O1 P0 1.553160 1_545
O2 P0 1.553160 1_555
O3 P1 1.553160 1_455
O4 P1 1.553160 1_555
O5 P1 1.553160 1_555
O6 P2 1.553160 1_555
O7 P2 1.553160 1_555
O8 P2 1.553160 1_554
O9 P3 1.553160 1_655
O10 P3 1.553160 1_565
O11 P3 1.553160 1_556
