# generated using pymatgen
data_CrFeO3
_symmetry_space_group_name_H-M   'P 1'
_cell_length_a   10.52185344
_cell_length_b   10.27602693
_cell_length_c   9.52382803
_cell_angle_alpha   96.17737423
_cell_angle_beta   99.54326461
_cell_angle_gamma   83.86445829
_symmetry_Int_Tables_number   1
_chemical_formula_structural   CrFeO3
_chemical_formula_sum   'Cr16 Fe16 O48'
_cell_volume   1005.42397360
_cell_formula_units_Z   16
loop_
 _symmetry_equiv_pos_site_id
 _symmetry_equiv_pos_as_xyz
  1  'x, y, z'
loop_
 _atom_site_type_symbol
 _atom_site_label
 _atom_site_symmetry_multiplicity
 _atom_site_fract_x
 _atom_site_fract_y
 _atom_site_fract_z
 _atom_site_occupancy
  Cr  Cr0  1  0.81445967  0.94081335  0.51578890  1
  Cr  Cr1  1  0.61329842  0.31830424  0.91605197  1
  Cr  Cr2  1  0.77312939  0.16485837  0.10129518  1
  Cr  Cr3  1  0.63728057  0.45975652  0.28462187  1
  Cr  Cr4  1  0.86805798  0.10641194  0.79723476  1
  Cr  Cr5  1  0.29049078  0.55245112  0.42350102  1
  Cr  Cr6  1  0.97223014  0.82864415  0.75095262  1
  Cr  Cr7  1  0.18288589  0.31160532  0.59195678  1
  Cr  Cr8  1  0.04932066  0.05433806  0.49428509  1
  Cr  Cr9  1  0.77826841  0.70023237  0.27649287  1
  Cr  Cr10  1  0.41140225  0.42153047  0.65858025  1
  Cr  Cr11  1  0.83913419  0.46347880  0.54741225  1
  Cr  Cr12  1  0.78533124  0.59636359  0.83381555  1
  Cr  Cr13  1  0.09932429  0.11545528  0.13701233  1
  Cr  Cr14  1  0.51267946  0.94950868  0.32991308  1
  Cr  Cr15  1  0.31755032  0.95873505  0.58116804  1
  Fe  Fe0  1  0.56633204  0.66466119  0.98355709  1
  Fe  Fe1  1  0.40367954  0.65412100  0.18567270  1
  Fe  Fe2  1  0.17159210  0.09982777  0.84873055  1
  Fe  Fe3  1  0.91571587  0.83235807  0.05535195  1
  Fe  Fe4  1  0.61819663  0.22059336  0.52628260  1
  Fe  Fe5  1  0.64374391  0.92811548  0.98631370  1
  Fe  Fe6  1  0.33898764  0.32077452  0.22695447  1
  Fe  Fe7  1  0.33715399  0.81570239  0.83175540  1
  Fe  Fe8  1  0.53479071  0.73218032  0.62093889  1
  Fe  Fe9  1  0.06677793  0.56421753  0.14792779  1
  Fe  Fe10  1  0.97513527  0.34998484  0.91203458  1
  Fe  Fe11  1  0.43081090  0.10996726  0.01560601  1
  Fe  Fe12  1  0.98502425  0.35954439  0.28109633  1
  Fe  Fe13  1  0.18419921  0.83565822  0.27225833  1
  Fe  Fe14  1  0.15857068  0.62052342  0.87104845  1
  Fe  Fe15  1  0.26028410  0.34811972  0.87701330  1
  O  O0  1  0.22540944  0.63672150  0.23849551  1
  O  O1  1  0.99934348  0.36033516  0.48637897  1
  O  O2  1  0.10773044  0.26844521  0.75789915  1
  O  O3  1  0.73338013  0.08450358  0.61855140  1
  O  O4  1  0.68076452  0.85739307  0.37385747  1
  O  O5  1  0.64760608  0.50949288  0.89457520  1
  O  O6  1  0.79702299  0.97834907  0.11167191  1
  O  O7  1  0.37578373  0.67144549  0.96350371  1
  O  O8  1  0.60932508  0.63394279  0.18898619  1
  O  O9  1  0.52712891  0.96977981  0.12724408  1
  O  O10  1  0.14902469  0.46943537  0.98819372  1
  O  O11  1  0.94249660  0.70894458  0.21304553  1
  O  O12  1  0.34962216  0.26576831  0.72023344  1
  O  O13  1  0.34380677  0.78105175  0.63425944  1
  O  O14  1  0.97918473  0.00194025  0.66195454  1
  O  O15  1  0.69814547  0.35284203  0.45266827  1
  O  O16  1  0.44796128  0.55794956  0.56645067  1
  O  O17  1  0.56887732  0.31782357  0.69477840  1
  O  O18  1  0.26480154  0.08197517  0.05320081  1
  O  O19  1  0.81378052  0.52394838  0.34863383  1
  O  O20  1  0.88070702  0.77844361  0.57878847  1
  O  O21  1  0.60016373  0.11855240  0.94858609  1
  O  O22  1  0.15195240  0.60290047  0.47685994  1
  O  O23  1  0.71390161  0.62440883  0.65110077  1
  O  O24  1  0.79020140  0.24369084  0.92089696  1
  O  O25  1  0.01808638  0.14514870  0.94431970  1
  O  O26  1  0.20392864  0.13039888  0.50904748  1
  O  O27  1  0.14621433  0.80564862  0.81606956  1
  O  O28  1  0.47691765  0.92610949  0.52964051  1
  O  O29  1  0.51119774  0.13150852  0.37356992  1
  O  O30  1  0.93770009  0.44715871  0.10498558  1
  O  O31  1  0.40463188  0.30175484  0.02234138  1
  O  O32  1  0.87730429  0.44469532  0.74906041  1
  O  O33  1  0.31441484  0.37103659  0.47549709  1
  O  O34  1  0.93889916  0.18462948  0.22120582  1
  O  O35  1  0.15641040  0.28569774  0.22852997  1
  O  O36  1  0.66894803  0.33199807  0.12929941  1
  O  O37  1  0.32376295  0.00469340  0.78178561  1
  O  O38  1  0.25071132  0.48593534  0.73330602  1
  O  O39  1  0.89100533  0.99747812  0.39081799  1
  O  O40  1  0.07071384  0.92125009  0.12062159  1
  O  O41  1  0.86305251  0.93205343  0.85416675  1
  O  O42  1  0.38149778  0.84456428  0.26863214  1
  O  O43  1  0.95103360  0.68835838  0.87324492  1
  O  O44  1  0.74220743  0.74051168  0.99286019  1
  O  O45  1  0.16569706  0.89951936  0.47298654  1
  O  O46  1  0.52884609  0.81528160  0.85640566  1
  O  O47  1  0.44347818  0.47936688  0.28024159  1
loop_
_geom_bond_atom_site_label_1
_geom_bond_atom_site_label_2
_geom_bond_distance
_geom_bond_site_symmetry_2
Cr0 O39 1.723823 1_555
Cr0 O20 1.859563 1_555
Cr0 O3 1.887445 1_565
Cr0 O4 1.979587 1_555
Cr0 O14 2.140309 1_565
Cr1 O24 1.930979 1_555
Cr1 O36 2.012245 1_556
Cr1 O5 2.072341 1_555
Cr1 O17 2.081141 1_555
Cr1 O21 2.130779 1_555
Cr1 O31 2.593826 1_556
Cr2 O6 1.917226 1_545
Cr2 O34 1.937278 1_555
Cr2 O36 1.954115 1_555
Cr2 O24 2.018237 1_554
Cr2 O21 2.193687 1_554
Cr3 O36 1.916974 1_555
Cr3 O19 2.013835 1_555
Cr3 O15 2.016621 1_555
Cr3 O47 2.021456 1_555
Cr3 O8 2.066274 1_555
Cr4 O41 1.935386 1_545
Cr4 O24 1.939973 1_555
Cr4 O25 1.973250 1_655
Cr4 O14 2.028088 1_555
Cr4 O3 2.034903 1_555
Cr5 O22 1.636835 1_555
Cr5 O33 1.959832 1_555
Cr5 O16 1.964034 1_555
Cr5 O0 2.030975 1_555
Cr5 O47 2.294782 1_555
Cr6 O20 1.811780 1_555
Cr6 O41 1.817632 1_555
Cr6 O27 1.831473 1_655
Cr6 O43 2.000150 1_555
Cr6 O14 2.065982 1_565
Cr7 O26 1.947631 1_555
Cr7 O2 1.989958 1_555
Cr7 O12 2.007168 1_555
Cr7 O1 2.061336 1_455
Cr7 O33 2.086589 1_555
Cr7 O38 2.228546 1_555
Cr8 O26 1.857238 1_555
Cr8 O39 1.904487 1_445
Cr8 O45 1.915215 1_545
Cr8 O14 2.011262 1_455
Cr9 O11 1.936496 1_555
Cr9 O19 1.982734 1_555
Cr9 O8 1.990946 1_555
Cr9 O4 2.039494 1_555
Cr10 O16 1.837096 1_555
Cr10 O17 1.874080 1_555
Cr10 O33 1.918180 1_555
Cr10 O38 1.965098 1_555
Cr10 O12 1.969908 1_555
Cr11 O32 1.922027 1_555
Cr11 O15 2.000826 1_555
Cr11 O19 2.022748 1_555
Cr11 O1 2.028113 1_555
Cr11 O23 2.249546 1_555
Cr12 O23 1.817687 1_555
Cr12 O32 1.919111 1_555
Cr12 O5 1.974196 1_555
Cr12 O43 2.033050 1_555
Cr12 O44 2.072619 1_555
Cr13 O25 1.932929 1_554
Cr13 O35 1.975802 1_555
Cr13 O18 2.015119 1_555
Cr13 O34 2.016712 1_455
Cr13 O40 2.035542 1_545
Cr14 O42 1.823285 1_555
Cr14 O29 1.870685 1_565
Cr14 O4 1.918586 1_555
Cr14 O9 1.995677 1_555
Cr14 O28 2.042733 1_555
Cr15 O28 1.811710 1_555
Cr15 O45 1.873964 1_555
Cr15 O37 1.910203 1_565
Cr15 O13 1.926231 1_555
Cr15 O26 2.133185 1_565
Fe0 O5 1.910482 1_555
Fe0 O7 1.976630 1_555
Fe0 O8 1.985191 1_556
Fe0 O46 2.032766 1_555
Fe0 O44 2.068564 1_555
Fe1 O42 2.034530 1_555
Fe1 O0 2.051187 1_555
Fe1 O47 2.067277 1_555
Fe1 O7 2.111597 1_554
Fe1 O8 2.146802 1_555
Fe2 O37 1.948216 1_555
Fe2 O25 1.972297 1_555
Fe2 O2 2.020672 1_555
Fe2 O18 2.047629 1_556
Fe2 O14 2.670334 1_455
Fe3 O40 1.934070 1_655
Fe3 O6 1.935574 1_555
Fe3 O11 2.033831 1_555
Fe3 O44 2.113075 1_554
Fe3 O43 2.208974 1_554
Fe3 O41 2.230898 1_554
Fe4 O29 1.900433 1_555
Fe4 O17 1.913882 1_555
Fe4 O15 1.921197 1_555
Fe4 O3 1.935395 1_555
Fe5 O6 1.923477 1_556
Fe5 O9 1.949475 1_556
Fe5 O46 1.957447 1_555
Fe5 O21 2.018376 1_565
Fe5 O44 2.090749 1_555
Fe6 O35 1.994825 1_555
Fe6 O47 2.035247 1_555
Fe6 O31 2.155962 1_555
Fe6 O33 2.418252 1_555
Fe7 O13 1.887784 1_555
Fe7 O46 1.991128 1_555
Fe7 O27 2.002688 1_555
Fe7 O7 2.009843 1_555
Fe7 O37 2.033760 1_565
Fe8 O13 2.039978 1_555
Fe8 O16 2.074126 1_555
Fe8 O23 2.074474 1_555
Fe8 O28 2.244134 1_555
Fe8 O46 2.320583 1_555
Fe9 O30 1.875617 1_455
Fe9 O0 1.932648 1_555
Fe9 O10 1.987287 1_554
Fe9 O11 1.990256 1_455
Fe10 O32 1.999277 1_555
Fe10 O30 2.071275 1_556
Fe10 O25 2.149246 1_655
Fe10 O2 2.228881 1_655
Fe10 O10 2.286657 1_655
Fe10 O24 2.348436 1_555
Fe11 O18 1.897086 1_555
Fe11 O31 1.956197 1_555
Fe11 O9 1.973073 1_545
Fe11 O21 2.003306 1_554
Fe11 O37 2.511610 1_554
Fe12 O34 1.914594 1_555
Fe12 O1 1.935009 1_555
Fe12 O30 1.955485 1_555
Fe12 O35 2.000862 1_655
Fe12 O19 2.452364 1_555
Fe13 O40 1.939610 1_555
Fe13 O45 1.987272 1_555
Fe13 O0 2.045915 1_555
Fe13 O42 2.093845 1_555
Fe14 O27 2.012198 1_555
Fe14 O10 2.026971 1_555
Fe14 O38 2.078034 1_555
Fe14 O43 2.222928 1_455
Fe14 O7 2.400370 1_555
Fe15 O31 1.933816 1_556
Fe15 O12 1.962813 1_555
Fe15 O10 1.964870 1_555
Fe15 O2 2.002746 1_555
Fe15 O38 2.056668 1_555
