# generated using pymatgen
data_Mg6AlBiO8
_symmetry_space_group_name_H-M   'P 1'
_cell_length_a   9.48618273
_cell_length_b   4.40955326
_cell_length_c   4.40955326
_cell_angle_alpha   90.00000000
_cell_angle_beta   90.00000000
_cell_angle_gamma   90.00000000
_symmetry_Int_Tables_number   1
_chemical_formula_structural   Mg6AlBiO8
_chemical_formula_sum   'Mg6 Al1 Bi1 O8'
_cell_volume   184.45085434
_cell_formula_units_Z   1
loop_
 _symmetry_equiv_pos_site_id
 _symmetry_equiv_pos_as_xyz
  1  'x, y, z'
loop_
 _atom_site_type_symbol
 _atom_site_label
 _atom_site_symmetry_multiplicity
 _atom_site_fract_x
 _atom_site_fract_y
 _atom_site_fract_z
 _atom_site_occupancy
  Mg  Mg0  1  0.00000000  0.50000000  0.50000000  1
  Mg  Mg1  1  0.50000000  0.50000000  0.50000000  1
  Mg  Mg2  1  0.23651450  -0.00000000  0.50000000  1
  Mg  Mg3  1  0.76348550  0.00000000  0.50000000  1
  Mg  Mg4  1  0.23651450  0.50000000  -0.00000000  1
  Mg  Mg5  1  0.76348550  0.50000000  0.00000000  1
  Al  Al0  1  0.00000000  0.00000000  -0.00000000  1
  Bi  Bi0  1  0.50000000  0.00000000  -0.00000000  1
  O  O0  1  0.18650177  0.00000000  0.00000000  1
  O  O1  1  0.81349823  0.00000000  -0.00000000  1
  O  O2  1  0.24859490  0.50000000  0.50000000  1
  O  O3  1  0.75140510  0.50000000  0.50000000  1
  O  O4  1  0.00000000  0.00000000  0.50000000  1
  O  O5  1  0.50000000  0.00000000  0.50000000  1
  O  O6  1  0.00000000  0.50000000  -0.00000000  1
  O  O7  1  0.50000000  0.50000000  -0.00000000  1
loop_
_geom_bond_atom_site_label_1
_geom_bond_atom_site_label_2
_geom_bond_distance
_geom_bond_site_symmetry_2
Mg0 O4 2.204777 1_565
Mg0 O6 2.204777 1_556
Mg0 O6 2.204777 1_555
Mg0 O4 2.204777 1_555
Mg0 O2 2.358217 1_555
Mg0 O3 2.358217 1_455
Mg1 O5 2.204777 1_555
Mg1 O5 2.204777 1_565
Mg1 O7 2.204777 1_555
Mg1 O7 2.204777 1_556
Mg1 O3 2.384875 1_555
Mg1 O2 2.384875 1_555
Mg2 O2 2.207753 1_555
Mg2 O2 2.207753 1_545
Mg2 O4 2.243620 1_555
Mg2 O0 2.255244 1_555
Mg2 O0 2.255244 1_556
Mg2 O5 2.499472 1_555
Mg3 O3 2.207753 1_555
Mg3 O3 2.207753 1_545
Mg3 O4 2.243620 1_655
Mg3 O1 2.255244 1_555
Mg3 O1 2.255244 1_556
Mg3 O5 2.499472 1_555
Mg4 O2 2.207753 1_554
Mg4 O2 2.207753 1_555
Mg4 O6 2.243620 1_555
Mg4 O0 2.255244 1_555
Mg4 O0 2.255244 1_565
Mg4 O7 2.499472 1_555
Mg5 O3 2.207753 1_555
Mg5 O3 2.207753 1_554
Mg5 O6 2.243620 1_655
Mg5 O1 2.255244 1_555
Mg5 O1 2.255244 1_565
Mg5 O7 2.499472 1_555
Al0 O0 1.769190 1_555
Al0 O1 1.769190 1_455
Al0 O6 2.204777 1_545
Al0 O6 2.204777 1_555
Al0 O4 2.204777 1_555
Al0 O4 2.204777 1_554
Bi0 O7 2.204777 1_555
Bi0 O5 2.204777 1_554
Bi0 O5 2.204777 1_555
Bi0 O7 2.204777 1_545
