# generated using pymatgen
data_LaTi2Al9O19
_symmetry_space_group_name_H-M   'P 1'
_cell_length_a   9.80750943
_cell_length_b   11.08251300
_cell_length_c   12.67120197
_cell_angle_alpha   115.93244281
_cell_angle_beta   97.59234753
_cell_angle_gamma   90.00000000
_symmetry_Int_Tables_number   1
_chemical_formula_structural   LaTi2Al9O19
_chemical_formula_sum   'La4 Ti8 Al36 O76'
_cell_volume   1225.14079908
_cell_formula_units_Z   4
loop_
 _symmetry_equiv_pos_site_id
 _symmetry_equiv_pos_as_xyz
  1  'x, y, z'
loop_
 _atom_site_type_symbol
 _atom_site_label
 _atom_site_symmetry_multiplicity
 _atom_site_fract_x
 _atom_site_fract_y
 _atom_site_fract_z
 _atom_site_occupancy
  La  La0  1  0.43431800  0.42701800  0.10666700  1
  La  La1  1  0.06568200  0.32035100  0.89333300  1
  La  La2  1  0.56568200  0.57298200  0.89333300  1
  La  La3  1  0.93431800  0.67964900  0.10666700  1
  Ti  Ti0  1  0.36817800  0.28463600  0.79732400  1
  Ti  Ti1  1  0.13182200  0.48731200  0.20267600  1
  Ti  Ti2  1  0.63182200  0.71536400  0.20267600  1
  Ti  Ti3  1  0.86817800  0.51268800  0.79732400  1
  Ti  Ti4  1  0.62985900  0.06661300  0.37703900  1
  Ti  Ti5  1  0.87014100  0.68957400  0.62296100  1
  Ti  Ti6  1  0.37014100  0.93338700  0.62296100  1
  Ti  Ti7  1  0.12985900  0.31042600  0.37703900  1
  Al  Al0  1  0.81961700  0.35145300  0.45451900  1
  Al  Al1  1  0.68038300  0.89693400  0.54548100  1
  Al  Al2  1  0.18038300  0.64854700  0.54548100  1
  Al  Al3  1  0.31961700  0.10306600  0.45451900  1
  Al  Al4  1  0.59298500  0.56689200  0.61046900  1
  Al  Al5  1  0.90701500  0.95642300  0.38953100  1
  Al  Al6  1  0.40701500  0.43310800  0.38953100  1
  Al  Al7  1  0.09298500  0.04357700  0.61046900  1
  Al  Al8  1  0.41373800  0.09544700  0.94270900  1
  Al  Al9  1  0.08626200  0.15273800  0.05729100  1
  Al  Al10  1  0.58626200  0.90455300  0.05729100  1
  Al  Al11  1  0.91373800  0.84726200  0.94270900  1
  Al  Al12  1  0.75000000  0.12348800  0.00000000  1
  Al  Al13  1  0.25000000  0.87651200  0.00000000  1
  Al  Al14  1  0.63397500  0.16043500  0.78762900  1
  Al  Al15  1  0.86602500  0.37280600  0.21237100  1
  Al  Al16  1  0.36602500  0.83956500  0.21237100  1
  Al  Al17  1  0.13397500  0.62719400  0.78762900  1
  Al  Al18  1  0.61337700  0.23503600  0.20500100  1
  Al  Al19  1  0.88662300  0.03003500  0.79499900  1
  Al  Al20  1  0.38662300  0.76496400  0.79499900  1
  Al  Al21  1  0.11337700  0.96996500  0.20500100  1
  Al  Al22  1  0.63323100  0.88532900  0.79382700  1
  Al  Al23  1  0.86676900  0.09150200  0.20617300  1
  Al  Al24  1  0.36676900  0.11467100  0.20617300  1
  Al  Al25  1  0.13323100  0.90849800  0.79382700  1
  Al  Al26  1  0.34351600  0.43611100  0.61270300  1
  Al  Al27  1  0.15648400  0.82340800  0.38729700  1
  Al  Al28  1  0.65648400  0.56388900  0.38729700  1
  Al  Al29  1  0.84351600  0.17659200  0.61270300  1
  Al  Al30  1  0.59144600  0.29888700  0.60585500  1
  Al  Al31  1  0.90855400  0.69303200  0.39414500  1
  Al  Al32  1  0.40855400  0.70111300  0.39414500  1
  Al  Al33  1  0.09144600  0.30696800  0.60585500  1
  Al  Al34  1  0.75000000  0.38382400  0.00000000  1
  Al  Al35  1  0.25000000  0.61617600  0.00000000  1
  O  O0  1  0.69350500  0.21793500  0.68774700  1
  O  O1  1  0.80649500  0.53018800  0.31225300  1
  O  O2  1  0.30649500  0.78206500  0.31225300  1
  O  O3  1  0.19350500  0.46981200  0.68774700  1
  O  O4  1  0.33304800  0.22197100  0.91361700  1
  O  O5  1  0.16695200  0.30835400  0.08638300  1
  O  O6  1  0.66695200  0.77802900  0.08638300  1
  O  O7  1  0.83304800  0.69164600  0.91361700  1
  O  O8  1  0.33351300  0.45584300  0.91385300  1
  O  O9  1  0.16648700  0.54199000  0.08614700  1
  O  O10  1  0.66648700  0.54415700  0.08614700  1
  O  O11  1  0.83351300  0.45801000  0.91385300  1
  O  O12  1  0.49443600  0.39716600  0.52275200  1
  O  O13  1  0.00556400  0.87441500  0.47724800  1
  O  O14  1  0.50556400  0.60283400  0.47724800  1
  O  O15  1  0.99443600  0.12558500  0.52275200  1
  O  O16  1  0.75821200  0.00109100  0.49097800  1
  O  O17  1  0.74178800  0.51011300  0.50902200  1
  O  O18  1  0.24178800  0.99890900  0.50902200  1
  O  O19  1  0.25821200  0.48988700  0.49097800  1
  O  O20  1  0.58153200  0.06834800  0.89550700  1
  O  O21  1  0.91846800  0.17284100  0.10449300  1
  O  O22  1  0.41846800  0.93165200  0.10449300  1
  O  O23  1  0.08153200  0.82715900  0.89550700  1
  O  O24  1  0.31069900  0.52069000  0.29147700  1
  O  O25  1  0.18930100  0.22921300  0.70852300  1
  O  O26  1  0.68930100  0.47931000  0.70852300  1
  O  O27  1  0.81069900  0.77078700  0.29147700  1
  O  O28  1  0.50004900  0.13477000  0.49077200  1
  O  O29  1  0.99995100  0.64399700  0.50922800  1
  O  O30  1  0.49995100  0.86523000  0.50922800  1
  O  O31  1  0.00004900  0.35600300  0.49077200  1
  O  O32  1  0.55183100  0.64558800  0.29936500  1
  O  O33  1  0.94816900  0.34622300  0.70063500  1
  O  O34  1  0.44816900  0.35441200  0.70063500  1
  O  O35  1  0.05183100  0.65377700  0.29936500  1
  O  O36  1  0.54753800  0.14901800  0.28692700  1
  O  O37  1  0.95246200  0.86209100  0.71307300  1
  O  O38  1  0.45246200  0.85098200  0.71307300  1
  O  O39  1  0.04753800  0.13790900  0.28692700  1
  O  O40  1  0.30793800  0.94183100  0.89509800  1
  O  O41  1  0.19206200  0.04673300  0.10490200  1
  O  O42  1  0.69206200  0.05816900  0.10490200  1
  O  O43  1  0.80793800  0.95326700  0.89509800  1
  O  O44  1  0.44328700  0.17595100  0.10225500  1
  O  O45  1  0.05671300  0.07369600  0.89774500  1
  O  O46  1  0.55671300  0.82404900  0.89774500  1
  O  O47  1  0.94328700  0.92630400  0.10225500  1
  O  O48  1  0.23792400  0.25915700  0.50851400  1
  O  O49  1  0.26207600  0.75064300  0.49148600  1
  O  O50  1  0.76207600  0.74084300  0.49148600  1
  O  O51  1  0.73792400  0.24935700  0.50851400  1
  O  O52  1  0.54925200  0.39922300  0.29222200  1
  O  O53  1  0.95074800  0.10700000  0.70777800  1
  O  O54  1  0.45074800  0.60077700  0.70777800  1
  O  O55  1  0.04925200  0.89300000  0.29222200  1
  O  O56  1  0.30493700  0.70336200  0.89851700  1
  O  O57  1  0.19506300  0.80484500  0.10148300  1
  O  O58  1  0.69506300  0.29663800  0.10148300  1
  O  O59  1  0.80493700  0.19515500  0.89851700  1
  O  O60  1  0.41922400  0.67268900  0.10435000  1
  O  O61  1  0.08077600  0.56833900  0.89565000  1
  O  O62  1  0.58077600  0.32731100  0.89565000  1
  O  O63  1  0.91922400  0.43166100  0.10435000  1
  O  O64  1  0.29593200  0.02018600  0.29270600  1
  O  O65  1  0.20406800  0.72748000  0.70729400  1
  O  O66  1  0.70406800  0.97981400  0.70729400  1
  O  O67  1  0.79593200  0.27252000  0.29270600  1
  O  O68  1  0.30162500  0.27410300  0.30637300  1
  O  O69  1  0.19837500  0.96773100  0.69362700  1
  O  O70  1  0.69837500  0.72589700  0.69362700  1
  O  O71  1  0.80162500  0.03226900  0.30637300  1
  O  O72  1  0.45296100  0.10634800  0.71141900  1
  O  O73  1  0.04703900  0.39492900  0.28858100  1
  O  O74  1  0.54703900  0.89365200  0.28858100  1
  O  O75  1  0.95296100  0.60507100  0.71141900  1
loop_
_geom_bond_atom_site_label_1
_geom_bond_atom_site_label_2
_geom_bond_distance
_geom_bond_site_symmetry_2
La0 O4 2.574949 1_554
La0 O24 2.579818 1_555
La0 O52 2.612811 1_555
La0 O8 2.663264 1_554
La0 O32 2.690942 1_555
La0 O10 2.718330 1_555
La0 O60 2.739411 1_555
La0 O44 2.760101 1_555
La0 O5 2.863166 1_555
La0 O58 2.931400 1_555
La0 O9 2.949621 1_555
La0 O62 2.977312 1_554
La1 O5 2.574949 1_556
La1 O25 2.579818 1_555
La1 O53 2.612817 1_455
La1 O9 2.663264 1_556
La1 O33 2.690943 1_455
La1 O11 2.718330 1_455
La1 O61 2.739411 1_555
La1 O45 2.760101 1_555
La1 O4 2.863166 1_555
La1 O59 2.931400 1_455
La1 O8 2.949621 1_555
La1 O63 2.977312 1_456
La2 O6 2.574949 1_556
La2 O26 2.579818 1_555
La2 O54 2.612811 1_555
La2 O10 2.663264 1_556
La2 O34 2.690942 1_555
La2 O8 2.718330 1_555
La2 O62 2.739411 1_555
La2 O46 2.760101 1_555
La2 O7 2.863166 1_555
La2 O56 2.931400 1_555
La2 O11 2.949621 1_555
La2 O60 2.977312 1_556
La3 O7 2.574949 1_554
La3 O27 2.579818 1_555
La3 O55 2.612817 1_655
La3 O11 2.663264 1_554
La3 O35 2.690943 1_655
La3 O9 2.718330 1_655
La3 O63 2.739411 1_555
La3 O47 2.760101 1_555
La3 O6 2.863166 1_555
La3 O57 2.931400 1_655
La3 O10 2.949621 1_555
La3 O61 2.977312 1_654
Al0 O31 1.763502 1_655
Al0 O51 1.792265 1_555
Al0 O17 1.796829 1_555
Al0 O67 1.824446 1_555
Al1 O30 1.763503 1_555
Al1 O50 1.792264 1_555
Al1 O16 1.796830 1_565
Al1 O66 1.824446 1_555
Al2 O29 1.763502 1_455
Al2 O49 1.792265 1_555
Al2 O19 1.796829 1_555
Al2 O65 1.824446 1_555
Al3 O28 1.763503 1_555
Al3 O48 1.792264 1_555
Al3 O18 1.796830 1_545
Al3 O64 1.824446 1_555
Al4 O70 1.836329 1_555
Al4 O12 1.896113 1_555
Al4 O54 1.912303 1_555
Al4 O14 1.987209 1_555
Al4 O17 1.991589 1_555
Al4 O26 2.030461 1_555
Al5 O71 1.836322 1_565
Al5 O13 1.896105 1_655
Al5 O55 1.912302 1_655
Al5 O15 1.987202 1_565
Al5 O16 1.991589 1_565
Al5 O27 2.030461 1_555
Al6 O68 1.836329 1_555
Al6 O14 1.896113 1_555
Al6 O52 1.912303 1_555
Al6 O12 1.987209 1_555
Al6 O19 1.991589 1_555
Al6 O24 2.030461 1_555
Al7 O69 1.836322 1_545
Al7 O15 1.896105 1_455
Al7 O53 1.912302 1_455
Al7 O13 1.987202 1_545
Al7 O18 1.991589 1_545
Al7 O25 2.030461 1_555
Al8 O4 1.761627 1_555
Al8 O44 1.798514 1_556
Al8 O20 1.805283 1_555
Al8 O40 1.809770 1_545
Al9 O5 1.761627 1_555
Al9 O45 1.798514 1_554
Al9 O21 1.805283 1_455
Al9 O41 1.809770 1_555
Al10 O6 1.761627 1_555
Al10 O46 1.798514 1_554
Al10 O22 1.805283 1_555
Al10 O42 1.809770 1_565
Al11 O7 1.761627 1_555
Al11 O47 1.798514 1_556
Al11 O23 1.805283 1_655
Al11 O43 1.809770 1_555
Al12 O20 1.889636 1_554
Al12 O21 1.889636 1_555
Al12 O58 1.910777 1_555
Al12 O59 1.910777 1_554
Al12 O43 1.911793 1_544
Al12 O42 1.911793 1_555
Al13 O22 1.889636 1_555
Al13 O23 1.889636 1_554
Al13 O56 1.910777 1_554
Al13 O57 1.910777 1_555
Al13 O41 1.911793 1_565
Al13 O40 1.911793 1_554
Al14 O0 1.802612 1_555
Al14 O72 1.866607 1_555
Al14 O62 1.881681 1_555
Al14 O59 1.959149 1_555
Al14 O66 1.979509 1_545
Al14 O20 2.140217 1_555
Al15 O1 1.802612 1_555
Al15 O73 1.866607 1_655
Al15 O63 1.881681 1_555
Al15 O58 1.959149 1_555
Al15 O67 1.979509 1_555
Al15 O21 2.140217 1_555
Al16 O2 1.802612 1_555
Al16 O74 1.866607 1_555
Al16 O60 1.881681 1_555
Al16 O57 1.959149 1_555
Al16 O64 1.979509 1_565
Al16 O22 2.140217 1_555
Al17 O3 1.802612 1_555
Al17 O75 1.866607 1_455
Al17 O61 1.881681 1_555
Al17 O56 1.959149 1_555
Al17 O65 1.979509 1_555
Al17 O23 2.140217 1_555
Al18 O52 1.831046 1_555
Al18 O36 1.856353 1_555
Al18 O44 1.893937 1_555
Al18 O67 1.919277 1_555
Al18 O58 1.972148 1_555
Al18 O42 2.032386 1_555
Al19 O53 1.831038 1_555
Al19 O37 1.856353 1_545
Al19 O45 1.893937 1_655
Al19 O66 1.919277 1_545
Al19 O59 1.972148 1_555
Al19 O43 2.032386 1_545
Al20 O54 1.831046 1_555
Al20 O38 1.856353 1_555
Al20 O46 1.893937 1_555
Al20 O65 1.919277 1_555
Al20 O56 1.972148 1_555
Al20 O40 2.032386 1_555
Al21 O55 1.831038 1_555
Al21 O39 1.856353 1_565
Al21 O47 1.893937 1_455
Al21 O64 1.919277 1_565
Al21 O57 1.972148 1_555
Al21 O41 2.032386 1_565
Al22 O70 1.842400 1_555
Al22 O38 1.874846 1_555
Al22 O43 1.929610 1_555
Al22 O46 1.949754 1_555
Al22 O20 1.979422 1_565
Al22 O66 1.996722 1_555
Al23 O71 1.842407 1_555
Al23 O39 1.874846 1_655
Al23 O42 1.929610 1_555
Al23 O47 1.949754 1_545
Al23 O21 1.979422 1_555
Al23 O67 1.996722 1_555
Al24 O68 1.842400 1_555
Al24 O36 1.874846 1_555
Al24 O41 1.929610 1_555
Al24 O44 1.949754 1_555
Al24 O22 1.979422 1_545
Al24 O64 1.996722 1_555
Al25 O69 1.842407 1_555
Al25 O37 1.874846 1_455
Al25 O40 1.929610 1_555
Al25 O45 1.949754 1_565
Al25 O23 1.979422 1_555
Al25 O65 1.996722 1_555
Al26 O3 1.807565 1_555
Al26 O54 1.905262 1_555
Al26 O12 1.921401 1_555
Al26 O34 1.922206 1_555
Al26 O19 1.974111 1_555
Al26 O48 2.008873 1_555
Al27 O2 1.807565 1_555
Al27 O55 1.905269 1_555
Al27 O13 1.921401 1_555
Al27 O35 1.922206 1_555
Al27 O18 1.974111 1_555
Al27 O49 2.008873 1_555
Al28 O1 1.807565 1_555
Al28 O52 1.905262 1_555
Al28 O14 1.921401 1_555
Al28 O32 1.922206 1_555
Al28 O17 1.974111 1_555
Al28 O50 2.008873 1_555
Al29 O0 1.807565 1_555
Al29 O53 1.905269 1_555
Al29 O15 1.921401 1_555
Al29 O33 1.922206 1_555
Al29 O16 1.974111 1_555
Al29 O51 2.008873 1_555
Al30 O0 1.850215 1_555
Al30 O28 1.890221 1_555
Al30 O34 1.896086 1_555
Al30 O51 1.939715 1_555
Al30 O12 1.984627 1_555
Al30 O26 2.001646 1_555
Al31 O1 1.850215 1_555
Al31 O29 1.890228 1_555
Al31 O35 1.896086 1_655
Al31 O50 1.939715 1_555
Al31 O13 1.984635 1_655
Al31 O27 2.001647 1_555
Al32 O2 1.850215 1_555
Al32 O30 1.890221 1_555
Al32 O32 1.896086 1_555
Al32 O49 1.939715 1_555
Al32 O14 1.984627 1_555
Al32 O24 2.001646 1_555
Al33 O3 1.850215 1_555
Al33 O31 1.890228 1_555
Al33 O33 1.896086 1_455
Al33 O48 1.939715 1_555
Al33 O15 1.984635 1_455
Al33 O25 2.001647 1_555
Al34 O10 1.886682 1_555
Al34 O11 1.886682 1_554
Al34 O62 1.894963 1_554
Al34 O63 1.894963 1_555
Al34 O59 2.036489 1_554
Al34 O58 2.036489 1_555
Al35 O8 1.886682 1_554
Al35 O9 1.886682 1_555
Al35 O60 1.894963 1_555
Al35 O61 1.894963 1_554
Al35 O57 2.036489 1_555
Al35 O56 2.036489 1_554
O4 Ti0 1.949784 1_555
O5 Ti1 1.949784 1_555
O6 Ti2 1.949784 1_555
O7 Ti3 1.949784 1_555
O8 Ti0 1.891624 1_555
O9 Ti1 1.891624 1_555
O10 Ti2 1.891624 1_555
O11 Ti3 1.891624 1_555
O16 Ti4 2.152442 1_555
O17 Ti5 2.152442 1_555
O18 Ti6 2.152442 1_555
O19 Ti7 2.152442 1_555
O24 Ti1 1.896042 1_555
O25 Ti0 1.896042 1_555
O26 Ti3 1.896042 1_555
O27 Ti2 1.896042 1_555
O28 Ti4 1.949610 1_555
O29 Ti5 1.949610 1_555
O30 Ti6 1.949610 1_555
O31 Ti7 1.949610 1_555
O32 Ti2 1.948611 1_555
O33 Ti3 1.948611 1_555
O34 Ti0 1.948611 1_555
O35 Ti1 1.948611 1_555
O36 Ti4 1.859590 1_555
O37 Ti5 1.859590 1_555
O38 Ti6 1.859590 1_555
O39 Ti7 1.859590 1_555
O48 Ti7 2.140752 1_555
O49 Ti6 2.140752 1_555
O50 Ti5 2.140752 1_555
O51 Ti4 2.140752 1_555
O60 Ti2 2.218468 1_555
O61 Ti3 2.218468 1_455
O62 Ti0 2.218468 1_555
O63 Ti1 2.218468 1_655
O68 Ti7 1.971049 1_555
O69 Ti6 1.971049 1_555
O70 Ti5 1.971049 1_555
O71 Ti4 1.971049 1_555
O72 Ti6 1.862972 1_545
O72 Ti0 2.034314 1_555
O73 Ti7 1.862972 1_555
O73 Ti1 2.034314 1_555
O74 Ti4 1.862972 1_565
O74 Ti2 2.034314 1_555
O75 Ti5 1.862972 1_555
O75 Ti3 2.034314 1_555
