# generated using pymatgen
data_Ga2Au
_symmetry_space_group_name_H-M   'P 1'
_cell_length_a   3.64901400
_cell_length_b   7.28267600
_cell_length_c   8.45403000
_cell_angle_alpha   90.00000000
_cell_angle_beta   90.00000000
_cell_angle_gamma   90.00000000
_symmetry_Int_Tables_number   1
_chemical_formula_structural   Ga2Au
_chemical_formula_sum   'Ga8 Au4'
_cell_volume   224.66235304
_cell_formula_units_Z   4
loop_
 _symmetry_equiv_pos_site_id
 _symmetry_equiv_pos_as_xyz
  1  'x, y, z'
loop_
 _atom_site_type_symbol
 _atom_site_label
 _atom_site_symmetry_multiplicity
 _atom_site_fract_x
 _atom_site_fract_y
 _atom_site_fract_z
 _atom_site_occupancy
  Ga  Ga0  1  0.25000000  0.87551800  0.44039600  1
  Ga  Ga1  1  0.25000000  0.37551800  0.05960400  1
  Ga  Ga2  1  0.75000000  0.12448200  0.55960400  1
  Ga  Ga3  1  0.75000000  0.62448200  0.94039600  1
  Ga  Ga4  1  0.25000000  0.44610700  0.64170400  1
  Ga  Ga5  1  0.25000000  0.94610700  0.85829600  1
  Ga  Ga6  1  0.75000000  0.55389300  0.35829600  1
  Ga  Ga7  1  0.75000000  0.05389300  0.14170400  1
  Au  Au0  1  0.25000000  0.25112300  0.34752700  1
  Au  Au1  1  0.25000000  0.75112300  0.15247300  1
  Au  Au2  1  0.75000000  0.74887700  0.65247300  1
  Au  Au3  1  0.75000000  0.24887700  0.84752700  1
loop_
_geom_bond_atom_site_label_1
_geom_bond_atom_site_label_2
_geom_bond_distance
_geom_bond_site_symmetry_2
Au0 Ga1 2.597229 1_555
Au0 Ga2 2.719181 1_555
Au0 Ga2 2.719181 1_455
Au0 Ga0 2.845852 1_545
Au0 Ga6 2.863395 1_455
Au0 Ga6 2.863395 1_555
Au0 Ga4 2.863824 1_555
Au0 Ga7 2.901668 1_555
Au0 Ga7 2.901668 1_455
Au1 Ga0 2.597229 1_555
Au1 Ga3 2.719181 1_454
Au1 Ga3 2.719181 1_554
Au1 Ga1 2.845852 1_555
Au1 Ga7 2.863395 1_565
Au1 Ga7 2.863395 1_465
Au1 Ga5 2.863824 1_554
Au1 Ga6 2.901668 1_555
Au1 Ga6 2.901668 1_455
Au2 Ga3 2.597229 1_555
Au2 Ga0 2.719181 1_655
Au2 Ga0 2.719181 1_555
Au2 Ga2 2.845852 1_565
Au2 Ga4 2.863395 1_555
Au2 Ga4 2.863395 1_655
Au2 Ga6 2.863824 1_555
Au2 Ga5 2.901668 1_655
Au2 Ga5 2.901668 1_555
Au3 Ga2 2.597229 1_555
Au3 Ga1 2.719181 1_556
Au3 Ga1 2.719181 1_656
Au3 Ga3 2.845852 1_555
Au3 Ga5 2.863395 1_645
Au3 Ga5 2.863395 1_545
Au3 Ga7 2.863824 1_556
Au3 Ga4 2.901668 1_655
Au3 Ga4 2.901668 1_555
