# generated using pymatgen
data_RbLuBeF6
_symmetry_space_group_name_H-M   'P 1'
_cell_length_a   5.78021200
_cell_length_b   6.50037293
_cell_length_c   7.09199985
_cell_angle_alpha   113.72323476
_cell_angle_beta   90.00000000
_cell_angle_gamma   90.00000000
_symmetry_Int_Tables_number   1
_chemical_formula_structural   RbLuBeF6
_chemical_formula_sum   'Rb2 Lu2 Be2 F12'
_cell_volume   243.95452541
_cell_formula_units_Z   2
loop_
 _symmetry_equiv_pos_site_id
 _symmetry_equiv_pos_as_xyz
  1  'x, y, z'
loop_
 _atom_site_type_symbol
 _atom_site_label
 _atom_site_symmetry_multiplicity
 _atom_site_fract_x
 _atom_site_fract_y
 _atom_site_fract_z
 _atom_site_occupancy
  Rb  Rb0  1  0.75000000  0.07620200  0.20830200  1
  Rb  Rb1  1  0.25000000  0.92379800  0.79169800  1
  Lu  Lu0  1  0.75000000  0.39234200  0.82175900  1
  Lu  Lu1  1  0.25000000  0.60765800  0.17824100  1
  Be  Be0  1  0.75000000  0.76453200  0.53544500  1
  Be  Be1  1  0.25000000  0.23546800  0.46455500  1
  F  F0  1  0.96946900  0.75925000  0.40120100  1
  F  F1  1  0.03053100  0.24075000  0.59879900  1
  F  F2  1  0.46946900  0.24075000  0.59879900  1
  F  F3  1  0.53053100  0.75925000  0.40120100  1
  F  F4  1  0.75000000  0.56586100  0.60129600  1
  F  F5  1  0.25000000  0.43413900  0.39870400  1
  F  F6  1  0.99945700  0.67037900  0.96751400  1
  F  F7  1  0.00054300  0.32962100  0.03248600  1
  F  F8  1  0.49945700  0.32962100  0.03248600  1
  F  F9  1  0.50054300  0.67037900  0.96751400  1
  F  F10  1  0.75000000  0.99524400  0.73329600  1
  F  F11  1  0.25000000  0.00475600  0.26670400  1
loop_
_geom_bond_atom_site_label_1
_geom_bond_atom_site_label_2
_geom_bond_distance
_geom_bond_site_symmetry_2
Be0 F4 1.539871 1_555
Be0 F0 1.578157 1_555
Be0 F3 1.578157 1_555
Be0 F10 1.588952 1_555
Be1 F5 1.539871 1_555
Be1 F2 1.578157 1_555
Be1 F1 1.578157 1_555
Be1 F11 1.588952 1_555
F0 Lu1 2.201573 1_655
F0 Rb1 3.009906 1_655
F0 Rb0 3.161269 1_565
F1 Lu0 2.201573 1_455
F1 Rb0 3.009906 1_455
F1 Rb1 3.161269 1_545
F2 Lu0 2.201573 1_555
F2 Rb0 3.009906 1_555
F2 Rb1 3.161269 1_545
F3 Lu1 2.201573 1_555
F3 Rb1 3.009906 1_555
F3 Rb0 3.161269 1_565
F4 Lu0 2.266247 1_555
F4 Rb0 3.280411 1_555
F5 Lu1 2.266247 1_555
F5 Rb1 3.280411 1_555
F6 Lu0 2.216050 1_555
F6 Lu1 2.233209 1_656
F6 Rb1 2.831675 1_655
F6 Rb0 2.886094 1_566
F7 Lu1 2.216050 1_555
F7 Lu0 2.233209 1_454
F7 Rb0 2.831675 1_455
F7 Rb1 2.886094 1_544
F8 Lu1 2.216050 1_555
F8 Lu0 2.233209 1_554
F8 Rb0 2.831675 1_555
F8 Rb1 2.886094 1_544
F9 Lu0 2.216050 1_555
F9 Lu1 2.233209 1_556
F9 Rb1 2.831675 1_555
F9 Rb0 2.886094 1_566
F10 Lu0 2.398660 1_565
F10 Rb1 2.982404 1_655
F10 Rb1 2.982404 1_555
F10 Rb0 3.193570 1_566
F11 Lu1 2.398660 1_545
F11 Rb0 2.982404 1_455
F11 Rb0 2.982404 1_555
F11 Rb1 3.193570 1_544
