# generated using pymatgen
data_Li6Mn5SbO12
_symmetry_space_group_name_H-M   'P 1'
_cell_length_a   5.53274036
_cell_length_b   9.07703105
_cell_length_c   10.53993171
_cell_angle_alpha   89.99823747
_cell_angle_beta   81.29949944
_cell_angle_gamma   90.00016052
_symmetry_Int_Tables_number   1
_chemical_formula_structural   Li6Mn5SbO12
_chemical_formula_sum   'Li12 Mn10 Sb2 O24'
_cell_volume   523.23322769
_cell_formula_units_Z   2
loop_
 _symmetry_equiv_pos_site_id
 _symmetry_equiv_pos_as_xyz
  1  'x, y, z'
loop_
 _atom_site_type_symbol
 _atom_site_label
 _atom_site_symmetry_multiplicity
 _atom_site_fract_x
 _atom_site_fract_y
 _atom_site_fract_z
 _atom_site_occupancy
  Li  Li0  1  0.74580600  0.99827100  0.71641700  1
  Li  Li1  1  0.24554300  0.49749500  0.71647700  1
  Li  Li2  1  0.25425200  0.99828600  0.28358800  1
  Li  Li3  1  0.75439000  0.49745200  0.28349300  1
  Li  Li4  1  0.75079800  0.17058000  0.28491700  1
  Li  Li5  1  0.25072000  0.67002800  0.28495300  1
  Li  Li6  1  0.24915400  0.17063600  0.71505900  1
  Li  Li7  1  0.74928900  0.67002100  0.71507700  1
  Li  Li8  1  0.74909800  0.83211400  0.28771100  1
  Li  Li9  1  0.24918300  0.33147200  0.28788200  1
  Li  Li10  1  0.25086600  0.83201400  0.71236700  1
  Li  Li11  1  0.75073800  0.33151000  0.71206700  1
  Mn  Mn0  1  0.99995100  0.50016500  0.50000100  1
  Mn  Mn1  1  0.99998700  0.83324500  0.50000500  1
  Mn  Mn2  1  0.99994800  0.16634000  0.49994900  1
  Mn  Mn3  1  0.50003300  0.16739600  0.99995400  1
  Mn  Mn4  1  0.50006000  0.83158900  0.00001600  1
  Mn  Mn5  1  0.49998300  0.00000400  0.50007000  1
  Mn  Mn6  1  0.50000200  0.33316300  0.49996700  1
  Mn  Mn7  1  0.50014900  0.66635800  0.49994400  1
  Mn  Mn8  1  0.99998200  0.66855100  0.00006400  1
  Mn  Mn9  1  0.00001100  0.33220500  0.99998400  1
  Sb  Sb0  1  0.00001000  0.99752800  0.99998200  1
  Sb  Sb1  1  0.49998900  0.49678100  0.99999500  1
  O  O0  1  0.90771900  0.00030600  0.39079400  1
  O  O1  1  0.40777900  0.50017100  0.39074200  1
  O  O2  1  0.09229300  0.00032400  0.60926000  1
  O  O3  1  0.59223300  0.50015100  0.60921100  1
  O  O4  1  0.70732100  0.98794000  0.90081800  1
  O  O5  1  0.20707700  0.48809500  0.90100300  1
  O  O6  1  0.29265800  0.98794500  0.09918200  1
  O  O7  1  0.79303100  0.48809300  0.09898500  1
  O  O8  1  0.18574500  0.84682000  0.89039000  1
  O  O9  1  0.68485200  0.34581900  0.89024700  1
  O  O10  1  0.81420500  0.84686900  0.10966800  1
  O  O11  1  0.31523800  0.34578600  0.10970900  1
  O  O12  1  0.16637700  0.16788500  0.89824100  1
  O  O13  1  0.66699300  0.66720800  0.89835900  1
  O  O14  1  0.83366000  0.16792000  0.10171400  1
  O  O15  1  0.33303700  0.66716700  0.10167600  1
  O  O16  1  0.59948600  0.17934500  0.61603300  1
  O  O17  1  0.09961800  0.67937100  0.61614400  1
  O  O18  1  0.40045500  0.17930900  0.38396900  1
  O  O19  1  0.90035800  0.67941400  0.38391000  1
  O  O20  1  0.60156700  0.82015800  0.61494300  1
  O  O21  1  0.10128600  0.32026300  0.61492200  1
  O  O22  1  0.39845800  0.82018900  0.38511000  1
  O  O23  1  0.89863200  0.32024900  0.38503800  1
loop_
_geom_bond_atom_site_label_1
_geom_bond_atom_site_label_2
_geom_bond_distance
_geom_bond_site_symmetry_2
Li0 O4 1.925201 1_555
Li0 O2 2.072653 1_665
Li0 O20 2.157062 1_555
Li0 O16 2.176080 1_565
Li1 O5 1.926120 1_555
Li1 O3 2.074121 1_555
Li1 O21 2.151592 1_555
Li1 O17 2.180323 1_555
Li2 O6 1.925282 1_555
Li2 O0 2.073074 1_465
Li2 O22 2.157105 1_555
Li2 O18 2.175471 1_565
Li3 O7 1.925880 1_555
Li3 O1 2.073687 1_555
Li3 O23 2.151254 1_555
Li3 O19 2.181544 1_555
Li4 O14 1.916116 1_555
Li4 O23 1.972173 1_555
Li4 O18 2.059422 1_555
Li4 O0 2.163547 1_555
Li5 O15 1.916638 1_555
Li5 O22 1.975216 1_555
Li5 O19 2.059386 1_455
Li5 O1 2.160676 1_555
Li6 O12 1.915869 1_555
Li6 O21 1.972063 1_555
Li6 O16 2.059259 1_555
Li6 O2 2.163206 1_555
Li7 O13 1.916672 1_555
Li7 O20 1.974836 1_555
Li7 O17 2.059119 1_655
Li7 O3 2.161266 1_555
Li8 O10 1.861358 1_555
Li8 O19 1.976420 1_555
Li8 O22 2.055881 1_555
Li8 O0 2.137753 1_565
Li9 O11 1.862638 1_555
Li9 O18 1.972355 1_555
Li9 O23 2.054216 1_455
Li9 O1 2.139637 1_555
Li10 O8 1.861197 1_555
Li10 O17 1.976210 1_555
Li10 O20 2.056239 1_555
Li10 O2 2.138488 1_565
Li11 O9 1.862674 1_555
Li11 O16 1.972030 1_555
Li11 O21 2.054175 1_655
Li11 O3 2.138947 1_555
Mn0 O19 2.156838 1_555
Mn0 O17 2.157070 1_655
Mn0 O21 2.157183 1_655
Mn0 O23 2.157569 1_555
Mn0 O3 2.372343 1_555
Mn0 O1 2.373054 1_655
Mn1 O19 1.988723 1_555
Mn1 O17 1.989255 1_655
Mn1 O0 2.015634 1_565
Mn1 O2 2.016162 1_665
Mn1 O20 2.352223 1_555
Mn1 O22 2.352286 1_655
Mn2 O23 1.984472 1_555
Mn2 O21 1.985084 1_655
Mn2 O0 2.008247 1_555
Mn2 O2 2.009297 1_655
Mn2 O18 2.366194 1_655
Mn2 O16 2.366412 1_555
Mn3 O9 2.155867 1_555
Mn3 O11 2.155883 1_556
Mn3 O4 2.167504 1_545
Mn3 O6 2.168026 1_546
Mn3 O12 2.270655 1_555
Mn3 O14 2.270809 1_556
Mn4 O13 1.981945 1_554
Mn4 O15 1.982378 1_555
Mn4 O4 2.014804 1_554
Mn4 O6 2.015122 1_555
Mn4 O10 2.232398 1_555
Mn4 O8 2.232998 1_554
Mn5 O16 2.156536 1_555
Mn5 O20 2.156970 1_545
Mn5 O18 2.157163 1_555
Mn5 O22 2.157249 1_545
Mn5 O2 2.372137 1_555
Mn5 O0 2.372670 1_555
Mn6 O18 1.988030 1_555
Mn6 O16 1.988092 1_555
Mn6 O1 2.015277 1_555
Mn6 O3 2.015329 1_555
Mn6 O23 2.353111 1_555
Mn6 O21 2.353612 1_555
Mn7 O22 1.984222 1_555
Mn7 O20 1.984643 1_555
Mn7 O3 2.009823 1_555
Mn7 O1 2.009858 1_555
Mn7 O19 2.365032 1_555
Mn7 O17 2.367202 1_555
Mn8 O8 2.156716 1_654
Mn8 O10 2.156796 1_555
Mn8 O7 2.172539 1_555
Mn8 O5 2.173532 1_654
Mn8 O15 2.267111 1_655
Mn8 O13 2.267371 1_554
Mn9 O14 1.980362 1_456
Mn9 O12 1.980751 1_555
Mn9 O7 2.010232 1_456
Mn9 O5 2.010338 1_555
Mn9 O9 2.236886 1_455
Mn9 O11 2.237115 1_556
O4 Sb0 2.057768 1_655
O5 Sb1 2.057368 1_555
O6 Sb0 2.057806 1_554
O7 Sb1 2.057975 1_554
O8 Sb0 1.975503 1_555
O9 Sb1 1.975857 1_555
O10 Sb0 1.975811 1_654
O11 Sb1 1.975564 1_554
O12 Sb0 2.022276 1_545
O13 Sb1 2.023576 1_555
O14 Sb0 2.022494 1_644
O15 Sb1 2.023456 1_554
