# generated using pymatgen
data_KCr(CO2)4
_symmetry_space_group_name_H-M   'P 1'
_cell_length_a   5.72584900
_cell_length_b   7.95208800
_cell_length_c   13.71286436
_cell_angle_alpha   71.81256710
_cell_angle_beta   90.00000000
_cell_angle_gamma   90.00000000
_symmetry_Int_Tables_number   1
_chemical_formula_structural   KCr(CO2)4
_chemical_formula_sum   'K2 Cr2 C8 O16'
_cell_volume   593.18667160
_cell_formula_units_Z   2
loop_
 _symmetry_equiv_pos_site_id
 _symmetry_equiv_pos_as_xyz
  1  'x, y, z'
loop_
 _atom_site_type_symbol
 _atom_site_label
 _atom_site_symmetry_multiplicity
 _atom_site_fract_x
 _atom_site_fract_y
 _atom_site_fract_z
 _atom_site_occupancy
  K  K0  1  0.16955700  0.00000000  0.25000000  1
  K  K1  1  0.83044300  0.00000000  0.75000000  1
  Cr  Cr0  1  0.00000000  0.50000000  0.00000000  1
  Cr  Cr1  1  0.00000000  0.50000000  0.50000000  1
  C  C0  1  0.96318200  0.78052800  0.08190600  1
  C  C1  1  0.03681800  0.21947200  0.91809400  1
  C  C2  1  0.96318200  0.21947200  0.41809400  1
  C  C3  1  0.03681800  0.78052800  0.58190600  1
  C  C4  1  0.79527000  0.68560000  0.62070900  1
  C  C5  1  0.20473000  0.31440000  0.37929100  1
  C  C6  1  0.79527000  0.31440000  0.87929100  1
  C  C7  1  0.20473000  0.68560000  0.12070900  1
  O  O0  1  0.33188900  0.73835500  0.17692900  1
  O  O1  1  0.66811100  0.26164500  0.82307100  1
  O  O2  1  0.33188900  0.26164500  0.32307100  1
  O  O3  1  0.66811100  0.73835500  0.67692900  1
  O  O4  1  0.89380500  0.90189400  0.11196400  1
  O  O5  1  0.10619500  0.09810600  0.88803600  1
  O  O6  1  0.89380500  0.09810600  0.38803600  1
  O  O7  1  0.10619500  0.90189400  0.61196400  1
  O  O8  1  0.76050500  0.55205100  0.58598400  1
  O  O9  1  0.23949500  0.44794900  0.41401600  1
  O  O10  1  0.76050500  0.44794900  0.91401600  1
  O  O11  1  0.23949500  0.55205100  0.08598400  1
  O  O12  1  0.86003200  0.71183900  0.01809800  1
  O  O13  1  0.13996800  0.28816100  0.98190200  1
  O  O14  1  0.86003200  0.28816100  0.48190200  1
  O  O15  1  0.13996800  0.71183900  0.51809800  1
loop_
_geom_bond_atom_site_label_1
_geom_bond_atom_site_label_2
_geom_bond_distance
_geom_bond_site_symmetry_2
K0 O2 2.738325 1_555
K0 O0 2.738325 1_545
K0 O4 2.757970 1_445
K0 O6 2.757970 1_455
K1 O1 2.738325 1_555
K1 O3 2.738325 1_545
K1 O5 2.757970 1_655
K1 O7 2.757970 1_645
Cr0 O11 1.935647 1_555
Cr0 O10 1.935647 1_454
Cr0 O12 1.950031 1_455
Cr0 O13 1.950031 1_554
Cr1 O9 1.935647 1_555
Cr1 O8 1.935647 1_455
Cr1 O15 1.950031 1_555
Cr1 O14 1.950031 1_455
C0 O4 1.227789 1_555
C0 O12 1.308111 1_555
C1 O5 1.227789 1_555
C1 O13 1.308111 1_555
C2 O6 1.227789 1_555
C2 O14 1.308111 1_555
C3 O7 1.227789 1_555
C3 O15 1.308111 1_555
C4 O3 1.225704 1_555
C4 O8 1.307626 1_555
C5 O2 1.225704 1_555
C5 O9 1.307626 1_555
C6 O1 1.225704 1_555
C6 O10 1.307626 1_555
C7 O0 1.225704 1_555
C7 O11 1.307626 1_555
