# generated using pymatgen
data_Na7Li4Yb5C12O37
_symmetry_space_group_name_H-M   'P 1'
_cell_length_a   10.33175301
_cell_length_b   10.33175301
_cell_length_c   10.27883032
_cell_angle_alpha   61.31083268
_cell_angle_beta   61.31083268
_cell_angle_gamma   59.19813297
_symmetry_Int_Tables_number   1
_chemical_formula_structural   Na7Li4Yb5C12O37
_chemical_formula_sum   'Na7 Li4 Yb5 C12 O37'
_cell_volume   785.78648346
_cell_formula_units_Z   1
loop_
 _symmetry_equiv_pos_site_id
 _symmetry_equiv_pos_as_xyz
  1  'x, y, z'
loop_
 _atom_site_type_symbol
 _atom_site_label
 _atom_site_symmetry_multiplicity
 _atom_site_fract_x
 _atom_site_fract_y
 _atom_site_fract_z
 _atom_site_occupancy
  Na  Na0  1  0.63738000  0.11752000  0.11961400  1
  Na  Na1  1  0.11752000  0.63738000  0.11961400  1
  Na  Na2  1  0.63484500  0.63484500  0.10723300  1
  Na  Na3  1  0.11055200  0.11055200  0.63745600  1
  Na  Na4  1  0.89460700  0.89460700  0.37237800  1
  Na  Na5  1  0.35723000  0.87058900  0.87766600  1
  Na  Na6  1  0.87058900  0.35723000  0.87766600  1
  Li  Li0  1  0.99763100  0.99763100  0.00998700  1
  Li  Li1  1  0.49745300  0.99512800  0.00300900  1
  Li  Li2  1  0.99512800  0.49745300  0.00300900  1
  Li  Li3  1  0.71028100  0.71028100  0.68443100  1
  Yb  Yb0  1  0.87191700  0.35881800  0.39354700  1
  Yb  Yb1  1  0.35881800  0.87191700  0.39354700  1
  Yb  Yb2  1  0.63034600  0.11644700  0.62823400  1
  Yb  Yb3  1  0.11644700  0.63034600  0.62823400  1
  Yb  Yb4  1  0.37606900  0.37606900  0.87573700  1
  C  C0  1  0.22173100  0.22173100  0.20778000  1
  C  C1  1  0.51664600  0.51664600  0.93477300  1
  C  C2  1  0.82884100  0.23280900  0.22355700  1
  C  C3  1  0.94942000  0.50730300  0.51074000  1
  C  C4  1  0.23280900  0.82884100  0.22355700  1
  C  C5  1  0.78576400  0.78576400  0.14545500  1
  C  C6  1  0.52105500  0.52105500  0.52146100  1
  C  C7  1  0.22812300  0.22812300  0.83196900  1
  C  C8  1  0.78205500  0.13708400  0.78867500  1
  C  C9  1  0.13708400  0.78205500  0.78867500  1
  C  C10  1  0.50730300  0.94942000  0.51074000  1
  C  C11  1  0.79189600  0.79189600  0.78795300  1
  O  O0  1  0.14704700  0.36501400  0.13310000  1
  O  O1  1  0.36501400  0.14704700  0.13310000  1
  O  O2  1  0.15472500  0.15472500  0.35213500  1
  O  O3  1  0.84528800  0.15475400  0.14634400  1
  O  O4  1  0.15475400  0.84528800  0.14634400  1
  O  O5  1  0.84017300  0.37179000  0.15503800  1
  O  O6  1  0.37179000  0.84017300  0.15503800  1
  O  O7  1  0.80213000  0.17409700  0.37404600  1
  O  O8  1  0.17409700  0.80213000  0.37404600  1
  O  O9  1  0.64294900  0.86003600  0.13960800  1
  O  O10  1  0.86003600  0.64294900  0.13960800  1
  O  O11  1  0.36630100  0.36630100  0.52397900  1
  O  O12  1  0.15553700  0.15553700  0.83663400  1
  O  O13  1  0.85355900  0.85355900  0.15683900  1
  O  O14  1  0.59720300  0.59720300  0.39068000  1
  O  O15  1  0.37571900  0.15758300  0.83103100  1
  O  O16  1  0.15758300  0.37571900  0.83103100  1
  O  O17  1  0.37446200  0.59225300  0.59058100  1
  O  O18  1  0.59225300  0.37446200  0.59058100  1
  O  O19  1  0.85077700  0.14187600  0.64428300  1
  O  O20  1  0.14187600  0.85077700  0.64428300  1
  O  O21  1  0.52380000  0.00015700  0.36580700  1
  O  O22  1  0.00015700  0.52380000  0.36580700  1
  O  O23  1  0.14047300  0.63741200  0.85427500  1
  O  O24  1  0.63741200  0.14047300  0.85427500  1
  O  O25  1  0.90917400  0.38647200  0.60844900  1
  O  O26  1  0.38647200  0.90917400  0.60844900  1
  O  O27  1  0.93219900  0.61104600  0.56111900  1
  O  O28  1  0.61104600  0.93219900  0.56111900  1
  O  O29  1  0.12607300  0.85558900  0.86682000  1
  O  O30  1  0.85558900  0.12607300  0.86682000  1
  O  O31  1  0.58096000  0.36648000  0.95750500  1
  O  O32  1  0.36648000  0.58096000  0.95750500  1
  O  O33  1  0.59987700  0.59987700  0.88668100  1
  O  O34  1  0.86130500  0.86130500  0.64628200  1
  O  O35  1  0.64499600  0.86617400  0.85453200  1
  O  O36  1  0.86617400  0.64499600  0.85453200  1
loop_
_geom_bond_atom_site_label_1
_geom_bond_atom_site_label_2
_geom_bond_distance
_geom_bond_site_symmetry_2
Na0 O21 2.216126 1_555
Na0 O31 2.239289 1_554
Na0 O13 2.480501 1_545
Na0 O30 2.490268 1_554
Na0 O3 2.520323 1_555
Na0 O9 2.540120 1_545
Na0 O1 2.611106 1_555
Na0 O24 2.621648 1_554
Na1 O22 2.216126 1_555
Na1 O32 2.239289 1_554
Na1 O13 2.480501 1_455
Na1 O29 2.490268 1_554
Na1 O4 2.520323 1_555
Na1 O10 2.540120 1_455
Na1 O0 2.611106 1_555
Na1 O23 2.621648 1_554
Na2 O6 2.437658 1_555
Na2 O5 2.437658 1_555
Na2 O9 2.549613 1_555
Na2 O10 2.549613 1_555
Na2 O36 2.550459 1_554
Na2 O35 2.550459 1_554
Na2 O14 2.601945 1_555
Na2 O33 2.665860 1_554
Na3 O26 2.499916 1_545
Na3 O25 2.499916 1_455
Na3 O20 2.502908 1_545
Na3 O19 2.502908 1_455
Na3 O29 2.547687 1_545
Na3 O30 2.547687 1_455
Na3 O2 2.580860 1_555
Na3 O12 2.583010 1_555
Na4 O34 2.534648 1_555
Na4 O8 2.541212 1_655
Na4 O7 2.541212 1_565
Na4 O28 2.568801 1_555
Na4 O27 2.568801 1_555
Na4 O3 2.572979 1_565
Na4 O4 2.572979 1_655
Na4 O13 2.693794 1_555
Na5 O26 2.483805 1_555
Na5 O29 2.528141 1_555
Na5 O4 2.528149 1_556
Na5 O12 2.560510 1_565
Na5 O33 2.628575 1_555
Na5 O32 2.657363 1_555
Na5 O6 2.784435 1_556
Na5 O35 2.844442 1_555
Na5 O15 2.861101 1_565
Na6 O25 2.483805 1_555
Na6 O30 2.528141 1_555
Na6 O3 2.528149 1_556
Na6 O12 2.560510 1_655
Na6 O33 2.628575 1_555
Na6 O31 2.657363 1_555
Na6 O5 2.784435 1_556
Na6 O36 2.844442 1_555
Na6 O16 2.861101 1_655
Li0 O29 2.069857 1_654
Li0 O30 2.069857 1_564
Li0 O3 2.127624 1_565
Li0 O4 2.127624 1_655
Li0 O13 2.159750 1_555
Li0 O12 2.375290 1_664
Li1 O35 2.016579 1_554
Li1 O9 2.043369 1_555
Li1 O1 2.045194 1_565
Li1 O6 2.114110 1_555
Li1 O24 2.140186 1_564
Li1 O15 2.155896 1_564
Li2 O36 2.016579 1_554
Li2 O10 2.043369 1_555
Li2 O0 2.045194 1_655
Li2 O5 2.114110 1_555
Li2 O23 2.140186 1_654
Li2 O16 2.155896 1_654
Li3 O33 1.924339 1_555
Li3 O27 1.991148 1_555
Li3 O28 1.991148 1_555
C0 O2 1.295581 1_555
C0 O0 1.297657 1_555
C0 O1 1.297657 1_555
C1 O31 1.283905 1_555
C1 O32 1.283905 1_555
C1 O33 1.290097 1_555
C2 O3 1.286005 1_555
C2 O5 1.301395 1_555
C2 O7 1.302905 1_555
C3 O22 1.273226 1_655
C3 O25 1.291105 1_555
C3 O27 1.302997 1_555
C4 O4 1.286005 1_555
C4 O6 1.301395 1_555
C4 O8 1.302905 1_555
C5 O9 1.284876 1_555
C5 O10 1.284876 1_555
C5 O13 1.286381 1_555
C6 O14 1.283775 1_555
C6 O18 1.291283 1_555
C6 O17 1.291283 1_555
C7 O12 1.278303 1_555
C7 O16 1.308080 1_555
C7 O15 1.308080 1_555
C8 O30 1.282572 1_555
C8 O19 1.289595 1_555
C8 O24 1.300297 1_555
C9 O29 1.282572 1_555
C9 O20 1.289595 1_555
C9 O23 1.300297 1_555
C10 O21 1.273226 1_565
C10 O26 1.291105 1_555
C10 O28 1.302997 1_555
C11 O34 1.292475 1_555
C11 O35 1.294192 1_555
C11 O36 1.294192 1_555
O0 Yb4 2.566488 1_554
O0 Yb0 2.822526 1_455
O1 Yb4 2.566488 1_554
O1 Yb1 2.822526 1_545
O2 Yb1 2.553960 1_545
O2 Yb0 2.553960 1_455
O5 Yb0 2.558777 1_555
O6 Yb1 2.558777 1_555
O7 Yb2 2.338277 1_555
O7 Yb0 2.473406 1_555
O8 Yb3 2.338277 1_555
O8 Yb1 2.473406 1_555
O9 Yb1 2.833293 1_555
O10 Yb0 2.833293 1_555
O11 Yb2 2.862336 1_555
O11 Yb3 2.862336 1_555
O14 Yb1 2.640852 1_555
O14 Yb0 2.640852 1_555
O15 Yb2 2.426327 1_555
O15 Yb4 2.512502 1_555
O16 Yb3 2.426327 1_555
O16 Yb4 2.512502 1_555
O17 Yb3 2.343521 1_555
O17 Yb1 2.587304 1_555
O17 Yb4 2.702476 1_555
O18 Yb2 2.343521 1_555
O18 Yb0 2.587304 1_555
O18 Yb4 2.702476 1_555
O19 Yb0 2.475582 1_555
O19 Yb2 2.509597 1_555
O20 Yb1 2.475582 1_555
O20 Yb3 2.509597 1_555
O21 Yb1 2.495171 1_545
O22 Yb0 2.495171 1_455
O23 Yb3 2.490074 1_555
O23 Yb4 2.544967 1_555
O24 Yb2 2.490074 1_555
O24 Yb4 2.544967 1_555
O25 Yb0 2.577632 1_555
O26 Yb1 2.577632 1_555
O27 Yb3 2.433322 1_655
O28 Yb2 2.433322 1_565
O31 Yb4 2.571171 1_555
O32 Yb4 2.571171 1_555
O34 Yb3 2.488110 1_655
O34 Yb2 2.488110 1_565
O35 Yb2 2.506416 1_565
O36 Yb3 2.506416 1_655
