# generated using pymatgen
data_Y2CoNi5
_symmetry_space_group_name_H-M   'P 1'
_cell_length_a   16.45327876
_cell_length_b   16.45327876
_cell_length_c   16.45327845
_cell_angle_alpha   17.38150172
_cell_angle_beta   17.38150172
_cell_angle_gamma   17.38150208
_symmetry_Int_Tables_number   1
_chemical_formula_structural   Y2CoNi5
_chemical_formula_sum   'Y6 Co3 Ni15'
_cell_volume   346.87337024
_cell_formula_units_Z   3
loop_
 _symmetry_equiv_pos_site_id
 _symmetry_equiv_pos_as_xyz
  1  'x, y, z'
loop_
 _atom_site_type_symbol
 _atom_site_label
 _atom_site_symmetry_multiplicity
 _atom_site_fract_x
 _atom_site_fract_y
 _atom_site_fract_z
 _atom_site_occupancy
  Y  Y0  1  0.56986600  0.56986600  0.56986600  1
  Y  Y1  1  0.06991400  0.06991400  0.06991400  1
  Y  Y2  1  0.93003700  0.93003700  0.93003700  1
  Y  Y3  1  0.43007900  0.43007900  0.43007900  1
  Y  Y4  1  0.99996100  0.99996100  0.99996100  1
  Y  Y5  1  0.50004700  0.50004700  0.50004700  1
  Co  Co0  1  0.33344900  0.33344900  0.33344900  1
  Co  Co1  1  0.24995400  0.24995400  0.24995400  1
  Co  Co2  1  0.75013700  0.75013700  0.75013700  1
  Ni  Ni0  1  0.04105300  0.54074800  0.04105300  1
  Ni  Ni1  1  0.54066000  0.04061700  0.54066000  1
  Ni  Ni2  1  0.54074800  0.04105300  0.04105300  1
  Ni  Ni3  1  0.04061700  0.54066000  0.54066000  1
  Ni  Ni4  1  0.04105300  0.04105300  0.54074800  1
  Ni  Ni5  1  0.54066000  0.54066000  0.04061700  1
  Ni  Ni6  1  0.45873400  0.96035900  0.45873400  1
  Ni  Ni7  1  0.95889600  0.45942500  0.95889600  1
  Ni  Ni8  1  0.96035900  0.45873400  0.45873400  1
  Ni  Ni9  1  0.45942500  0.95889600  0.95889600  1
  Ni  Ni10  1  0.45873400  0.45873400  0.96035900  1
  Ni  Ni11  1  0.95889600  0.95889600  0.45942500  1
  Ni  Ni12  1  0.66666200  0.66666200  0.66666200  1
  Ni  Ni13  1  0.16675500  0.16675500  0.16675500  1
  Ni  Ni14  1  0.83330400  0.83330400  0.83330400  1
loop_
_geom_bond_atom_site_label_1
_geom_bond_atom_site_label_2
_geom_bond_distance
_geom_bond_site_symmetry_2
Co0 Ni1 2.437413 1_555
Co0 Ni3 2.437413 1_555
Co0 Ni5 2.437414 1_555
Co0 Ni10 2.446803 1_554
Co0 Ni6 2.446803 1_545
Co0 Ni8 2.446803 1_455
Co0 Ni12 2.870720 1_554
Co0 Ni12 2.870720 1_455
Co0 Ni12 2.870720 1_545
Co0 Y4 2.870723 1_445
Co0 Y4 2.870724 1_544
Co0 Y4 2.870724 1_454
Co1 Ni2 2.508314 1_555
Co1 Ni0 2.508314 1_555
Co1 Ni4 2.508314 1_555
Co1 Ni8 2.518894 1_455
Co1 Ni6 2.518894 1_545
Co1 Ni10 2.518894 1_554
Co1 Y2 2.943840 1_445
Co1 Y2 2.943840 1_544
Co1 Y2 2.943840 1_454
Co1 Y0 2.943894 1_554
Co1 Y0 2.943894 1_455
Co1 Y0 2.943894 1_545
Co2 Ni7 2.505262 1_555
Co2 Ni9 2.505262 1_555
Co2 Ni11 2.505262 1_555
Co2 Ni1 2.528260 1_565
Co2 Ni3 2.528260 1_655
Co2 Ni5 2.528261 1_556
Co2 Y3 2.942329 1_556
Co2 Y3 2.942329 1_655
Co2 Y3 2.942329 1_565
Co2 Y1 2.945354 1_665
Co2 Y1 2.945354 1_656
Co2 Y1 2.945354 1_566
Ni0 Ni13 2.449927 1_555
Ni0 Ni14 2.455589 1_454
Ni0 Ni4 2.484594 1_555
Ni0 Ni2 2.484594 1_555
Ni0 Ni4 2.487627 1_564
Ni0 Ni2 2.487628 1_465
Ni0 Y0 2.855819 1_455
Ni0 Y0 2.855820 1_554
Ni0 Y2 3.066809 1_454
Ni0 Y5 3.183259 1_554
Ni0 Y5 3.183259 1_455
Ni1 Ni12 2.441998 1_545
Ni1 Ni5 2.485897 1_546
Ni1 Ni3 2.485897 1_645
Ni1 Ni5 2.486325 1_555
Ni1 Ni3 2.486325 1_555
Ni1 Y1 2.864317 1_556
Ni1 Y1 2.864317 1_655
Ni1 Y3 3.081399 1_555
Ni1 Y4 3.176602 1_544
Ni1 Y4 3.176602 1_445
Ni2 Ni4 2.484594 1_555
Ni2 Ni4 2.487627 1_654
Ni2 Y0 2.855819 1_545
Ni2 Y0 2.855820 1_554
Ni2 Y2 3.066809 1_544
Ni2 Y5 3.183259 1_554
Ni2 Y5 3.183259 1_545
Ni3 Ni5 2.485897 1_456
Ni3 Ni5 2.486325 1_555
Ni3 Y1 2.864317 1_556
Ni3 Y1 2.864317 1_565
Ni3 Y3 3.081399 1_555
Ni3 Y4 3.176602 1_454
Ni3 Y4 3.176602 1_445
Ni4 Y0 2.855820 1_455
Ni4 Y0 2.855820 1_545
Ni4 Y2 3.066809 1_445
Ni4 Y5 3.183259 1_455
Ni4 Y5 3.183259 1_545
Ni5 Y1 2.864317 1_565
Ni5 Y1 2.864317 1_655
Ni5 Y3 3.081399 1_555
Ni5 Y4 3.176602 1_454
Ni5 Y4 3.176602 1_544
Ni6 Ni8 2.478031 1_465
Ni6 Ni8 2.494191 1_555
Ni6 Y2 2.863605 1_554
Ni6 Y2 2.863605 1_455
Ni6 Y0 3.082500 1_555
Ni6 Y4 3.176626 1_455
Ni6 Y4 3.176626 1_554
Ni7 Ni9 2.483481 1_555
Ni7 Ni9 2.488741 1_645
Ni7 Y3 2.857703 1_655
Ni7 Y3 2.857703 1_556
Ni7 Y1 3.070231 1_656
Ni7 Y5 3.185395 1_556
Ni7 Y5 3.185395 1_655
Ni8 Y2 2.863605 1_554
Ni8 Y2 2.863605 1_545
Ni8 Y0 3.082500 1_555
Ni8 Y4 3.176626 1_545
Ni8 Y4 3.176626 1_554
Ni9 Y3 2.857703 1_565
Ni9 Y3 2.857703 1_556
Ni9 Y1 3.070231 1_566
Ni9 Y5 3.185395 1_556
Ni9 Y5 3.185395 1_565
Ni10 Ni12 2.447539 1_555
Ni10 Ni8 2.478031 1_456
Ni10 Ni6 2.478031 1_546
Ni10 Ni8 2.494191 1_555
Ni10 Ni6 2.494191 1_555
Ni10 Y2 2.863605 1_455
Ni10 Y2 2.863605 1_545
Ni10 Y0 3.082500 1_555
Ni10 Y4 3.176626 1_455
Ni10 Y4 3.176626 1_545
Ni11 Ni14 2.450943 1_555
Ni11 Ni13 2.457358 1_665
Ni11 Ni9 2.483481 1_555
Ni11 Ni7 2.483481 1_555
Ni11 Ni9 2.488741 1_654
Ni11 Ni7 2.488741 1_564
Ni11 Y3 2.857703 1_565
Ni11 Y3 2.857703 1_655
Ni11 Y1 3.070231 1_665
Ni11 Y5 3.185395 1_655
Ni11 Y5 3.185395 1_565
Ni12 Ni5 2.441997 1_556
Ni12 Ni3 2.441998 1_655
Ni12 Ni8 2.447539 1_555
Ni12 Ni6 2.447539 1_555
Ni12 Y4 2.870714 1_554
Ni12 Y4 2.870714 1_455
Ni12 Y4 2.870714 1_545
Ni13 Ni4 2.449927 1_555
Ni13 Ni2 2.449927 1_555
Ni13 Ni9 2.457358 1_544
Ni13 Ni7 2.457358 1_454
Ni13 Y5 2.870714 1_554
Ni13 Y5 2.870714 1_455
Ni13 Y5 2.870714 1_545
Ni14 Ni9 2.450943 1_555
Ni14 Ni7 2.450943 1_555
Ni14 Ni2 2.455589 1_566
Ni14 Ni4 2.455589 1_665
Ni14 Y5 2.870716 1_556
Ni14 Y5 2.870716 1_655
Ni14 Y5 2.870716 1_565
