# generated using pymatgen
data_VPd4
_symmetry_space_group_name_H-M   'P 1'
_cell_length_a   22.75211758
_cell_length_b   22.75211758
_cell_length_c   22.75211738
_cell_angle_alpha   14.00242919
_cell_angle_beta   14.00242919
_cell_angle_gamma   14.00242742
_symmetry_Int_Tables_number   1
_chemical_formula_structural   VPd4
_chemical_formula_sum   'V8 Pd32'
_cell_volume   600.13664651
_cell_formula_units_Z   8
loop_
 _symmetry_equiv_pos_site_id
 _symmetry_equiv_pos_as_xyz
  1  'x, y, z'
loop_
 _atom_site_type_symbol
 _atom_site_label
 _atom_site_symmetry_multiplicity
 _atom_site_fract_x
 _atom_site_fract_y
 _atom_site_fract_z
 _atom_site_occupancy
  V  V0_0  1  0.00000000  0.00000000  0.00000000  1
  V  V0_1  1  0.00000000  0.00000000  0.50000000  1
  V  V0_2  1  0.00000000  0.50000000  0.00000000  1
  V  V0_3  1  0.00000000  0.50000000  0.50000000  1
  V  V0_4  1  0.50000000  0.00000000  0.00000000  1
  V  V0_5  1  0.50000000  0.00000000  0.50000000  1
  V  V0_6  1  0.50000000  0.50000000  0.00000000  1
  V  V0_7  1  0.50000000  0.50000000  0.50000000  1
  Pd  Pd0_0  1  0.30209150  0.30209150  0.30209150  1
  Pd  Pd0_1  1  0.30209150  0.30209150  0.80209150  1
  Pd  Pd0_2  1  0.30209150  0.80209150  0.30209150  1
  Pd  Pd0_3  1  0.30209150  0.80209150  0.80209150  1
  Pd  Pd0_4  1  0.80209150  0.30209150  0.30209150  1
  Pd  Pd0_5  1  0.80209150  0.30209150  0.80209150  1
  Pd  Pd0_6  1  0.80209150  0.80209150  0.30209150  1
  Pd  Pd0_7  1  0.80209150  0.80209150  0.80209150  1
  Pd  Pd1_0  1  0.10053600  0.10053600  0.10053600  1
  Pd  Pd1_1  1  0.10053600  0.10053600  0.60053600  1
  Pd  Pd1_2  1  0.10053600  0.60053600  0.10053600  1
  Pd  Pd1_3  1  0.10053600  0.60053600  0.60053600  1
  Pd  Pd1_4  1  0.60053600  0.10053600  0.10053600  1
  Pd  Pd1_5  1  0.60053600  0.10053600  0.60053600  1
  Pd  Pd1_6  1  0.60053600  0.60053600  0.10053600  1
  Pd  Pd1_7  1  0.60053600  0.60053600  0.60053600  1
  Pd  Pd2_0  1  0.39946400  0.39946400  0.39946400  1
  Pd  Pd2_1  1  0.39946400  0.39946400  0.89946400  1
  Pd  Pd2_2  1  0.39946400  0.89946400  0.39946400  1
  Pd  Pd2_3  1  0.39946400  0.89946400  0.89946400  1
  Pd  Pd2_4  1  0.89946400  0.39946400  0.39946400  1
  Pd  Pd2_5  1  0.89946400  0.39946400  0.89946400  1
  Pd  Pd2_6  1  0.89946400  0.89946400  0.39946400  1
  Pd  Pd2_7  1  0.89946400  0.89946400  0.89946400  1
  Pd  Pd3_0  1  0.19790850  0.19790850  0.19790850  1
  Pd  Pd3_1  1  0.19790850  0.19790850  0.69790850  1
  Pd  Pd3_2  1  0.19790850  0.69790850  0.19790850  1
  Pd  Pd3_3  1  0.19790850  0.69790850  0.69790850  1
  Pd  Pd3_4  1  0.69790850  0.19790850  0.19790850  1
  Pd  Pd3_5  1  0.69790850  0.19790850  0.69790850  1
  Pd  Pd3_6  1  0.69790850  0.69790850  0.19790850  1
  Pd  Pd3_7  1  0.69790850  0.69790850  0.69790850  1
loop_
_geom_bond_atom_site_label_1
_geom_bond_atom_site_label_2
_geom_bond_distance
_geom_bond_site_symmetry_2
V0_0 V0_6 2.773264 1_455
V0_0 V0_6 2.773264 1_545
V0_0 V0_5 2.773264 1_554
V0_0 V0_3 2.773264 1_554
V0_0 V0_5 2.773264 1_455
V0_0 V0_3 2.773264 1_545
V0_1 V0_7 2.773264 1_545
V0_1 V0_7 2.773264 1_455
V0_1 V0_2 2.773264 1_546
V0_1 V0_4 2.773264 1_456
V0_1 V0_2 2.773264 1_555
V0_1 V0_4 2.773264 1_555
V0_2 V0_4 2.773264 1_555
V0_2 V0_4 2.773264 1_465
V0_2 V0_7 2.773264 1_455
V0_2 V0_7 2.773264 1_554
V0_3 V0_5 2.773264 1_555
V0_3 V0_5 2.773264 1_465
V0_3 V0_6 2.773264 1_555
V0_3 V0_6 2.773264 1_456
V0_4 V0_7 2.773264 1_554
V0_4 V0_7 2.773264 1_545
V0_5 V0_6 2.773264 1_546
V0_5 V0_6 2.773264 1_555
Pd0_0 V0_3 2.649706 1_555
Pd0_0 V0_5 2.649706 1_555
Pd0_0 V0_6 2.649706 1_555
Pd0_0 Pd0_6 2.773264 1_455
Pd0_0 Pd0_6 2.773264 1_545
Pd0_0 Pd0_5 2.773264 1_554
Pd0_0 Pd0_3 2.773264 1_554
Pd0_0 Pd0_3 2.773264 1_545
Pd0_0 Pd0_5 2.773264 1_455
Pd0_0 Pd1_4 2.849968 1_555
Pd0_0 Pd1_2 2.849968 1_555
Pd0_0 Pd1_1 2.849968 1_555
Pd0_1 V0_2 2.649706 1_556
Pd0_1 V0_4 2.649706 1_556
Pd0_1 V0_7 2.649706 1_555
Pd0_1 Pd0_7 2.773264 1_545
Pd0_1 Pd0_7 2.773264 1_455
Pd0_1 Pd0_4 2.773264 1_456
Pd0_1 Pd0_2 2.773264 1_546
Pd0_1 Pd0_4 2.773264 1_555
Pd0_1 Pd0_2 2.773264 1_555
Pd0_1 Pd1_3 2.849968 1_555
Pd0_1 Pd1_5 2.849968 1_555
Pd0_1 Pd1_0 2.849968 1_556
Pd0_2 V0_7 2.649706 1_555
Pd0_2 V0_1 2.649706 1_565
Pd0_2 V0_4 2.649706 1_565
Pd0_2 Pd0_4 2.773264 1_465
Pd0_2 Pd0_4 2.773264 1_555
Pd0_2 Pd0_7 2.773264 1_455
Pd0_2 Pd0_7 2.773264 1_554
Pd0_2 Pd1_0 2.849968 1_565
Pd0_2 Pd1_6 2.849968 1_555
Pd0_2 Pd1_3 2.849968 1_555
Pd0_3 V0_6 2.649706 1_556
Pd0_3 V0_0 2.649706 1_566
Pd0_3 V0_5 2.649706 1_565
Pd0_3 Pd0_5 2.773264 1_555
Pd0_3 Pd0_5 2.773264 1_465
Pd0_3 Pd0_6 2.773264 1_456
Pd0_3 Pd0_6 2.773264 1_555
Pd0_3 Pd1_7 2.849968 1_555
Pd0_3 Pd1_1 2.849968 1_565
Pd0_3 Pd1_2 2.849968 1_556
Pd0_4 V0_7 2.649706 1_555
Pd0_4 V0_1 2.649706 1_655
Pd0_4 V0_2 2.649706 1_655
Pd0_4 Pd0_7 2.773264 1_554
Pd0_4 Pd0_7 2.773264 1_545
Pd0_4 Pd1_0 2.849968 1_655
Pd0_4 Pd1_6 2.849968 1_555
Pd0_4 Pd1_5 2.849968 1_555
Pd0_5 V0_6 2.649706 1_556
Pd0_5 V0_0 2.649706 1_656
Pd0_5 V0_3 2.649706 1_655
Pd0_5 Pd0_6 2.773264 1_546
Pd0_5 Pd0_6 2.773264 1_555
Pd0_5 Pd1_7 2.849968 1_555
Pd0_5 Pd1_1 2.849968 1_655
Pd0_5 Pd1_4 2.849968 1_556
Pd0_6 V0_3 2.649706 1_655
Pd0_6 V0_5 2.649706 1_565
Pd0_6 V0_0 2.649706 1_665
Pd0_6 Pd1_4 2.849968 1_565
Pd0_6 Pd1_2 2.849968 1_655
Pd0_6 Pd1_7 2.849968 1_555
Pd0_7 V0_2 2.649706 1_656
Pd0_7 V0_4 2.649706 1_566
Pd0_7 V0_1 2.649706 1_665
Pd0_7 Pd1_3 2.849968 1_655
Pd0_7 Pd1_5 2.849968 1_565
Pd0_7 Pd1_6 2.849968 1_556
Pd1_0 Pd1_6 2.773264 1_455
Pd1_0 Pd1_6 2.773264 1_545
Pd1_0 Pd1_3 2.773264 1_554
Pd1_0 Pd1_5 2.773264 1_455
Pd1_0 Pd1_3 2.773264 1_545
Pd1_0 Pd1_5 2.773264 1_554
Pd1_0 Pd2_3 2.822998 1_544
Pd1_0 Pd2_5 2.822998 1_454
Pd1_0 Pd2_6 2.822998 1_445
Pd1_1 Pd1_7 2.773264 1_455
Pd1_1 Pd1_7 2.773264 1_545
Pd1_1 Pd1_2 2.773264 1_555
Pd1_1 Pd1_4 2.773264 1_555
Pd1_1 Pd1_2 2.773264 1_546
Pd1_1 Pd1_4 2.773264 1_456
Pd1_1 Pd2_4 2.822998 1_455
Pd1_1 Pd2_2 2.822998 1_545
Pd1_1 Pd2_7 2.822998 1_445
Pd1_2 Pd1_4 2.773264 1_555
Pd1_2 Pd1_4 2.773264 1_465
Pd1_2 Pd1_7 2.773264 1_455
Pd1_2 Pd1_7 2.773264 1_554
Pd1_2 Pd2_7 2.822998 1_454
Pd1_2 Pd2_1 2.822998 1_554
Pd1_2 Pd2_4 2.822998 1_455
Pd1_3 Pd1_5 2.773264 1_465
Pd1_3 Pd1_5 2.773264 1_555
Pd1_3 Pd1_6 2.773264 1_555
Pd1_3 Pd1_6 2.773264 1_456
Pd1_3 Pd2_0 2.822998 1_555
Pd1_3 Pd2_6 2.822998 1_455
Pd1_3 Pd2_5 2.822998 1_455
Pd1_4 Pd1_7 2.773264 1_545
Pd1_4 Pd1_7 2.773264 1_554
Pd1_4 Pd2_7 2.822998 1_544
Pd1_4 Pd2_1 2.822998 1_554
Pd1_4 Pd2_2 2.822998 1_545
Pd1_5 Pd1_6 2.773264 1_555
Pd1_5 Pd1_6 2.773264 1_546
Pd1_5 Pd2_0 2.822998 1_555
Pd1_5 Pd2_6 2.822998 1_545
Pd1_5 Pd2_3 2.822998 1_545
Pd1_6 Pd2_3 2.822998 1_554
Pd1_6 Pd2_5 2.822998 1_554
Pd1_6 Pd2_0 2.822998 1_555
Pd1_7 Pd2_2 2.822998 1_555
Pd1_7 Pd2_4 2.822998 1_555
Pd1_7 Pd2_1 2.822998 1_555
Pd2_0 Pd2_6 2.773264 1_455
Pd2_0 Pd2_6 2.773264 1_545
Pd2_0 Pd2_5 2.773264 1_554
Pd2_0 Pd2_3 2.773264 1_554
Pd2_0 Pd2_3 2.773264 1_545
Pd2_0 Pd2_5 2.773264 1_455
Pd2_0 Pd3_2 2.849968 1_555
Pd2_0 Pd3_4 2.849968 1_555
Pd2_0 Pd3_1 2.849968 1_555
Pd2_1 Pd2_7 2.773264 1_455
Pd2_1 Pd2_7 2.773264 1_545
Pd2_1 Pd2_4 2.773264 1_555
Pd2_1 Pd2_2 2.773264 1_555
Pd2_1 Pd2_2 2.773264 1_546
Pd2_1 Pd2_4 2.773264 1_456
Pd2_1 Pd3_3 2.849968 1_555
Pd2_1 Pd3_5 2.849968 1_555
Pd2_1 Pd3_0 2.849968 1_556
Pd2_2 Pd2_4 2.773264 1_555
Pd2_2 Pd2_4 2.773264 1_465
Pd2_2 Pd2_7 2.773264 1_455
Pd2_2 Pd2_7 2.773264 1_554
Pd2_2 Pd3_6 2.849968 1_555
Pd2_2 Pd3_0 2.849968 1_565
Pd2_2 Pd3_3 2.849968 1_555
Pd2_3 Pd2_5 2.773264 1_555
Pd2_3 Pd2_5 2.773264 1_465
Pd2_3 Pd2_6 2.773264 1_456
Pd2_3 Pd2_6 2.773264 1_555
Pd2_3 Pd3_7 2.849968 1_555
Pd2_3 Pd3_1 2.849968 1_565
Pd2_3 Pd3_2 2.849968 1_556
Pd2_4 Pd2_7 2.773264 1_545
Pd2_4 Pd2_7 2.773264 1_554
Pd2_4 Pd3_6 2.849968 1_555
Pd2_4 Pd3_0 2.849968 1_655
Pd2_4 Pd3_5 2.849968 1_555
Pd2_5 Pd2_6 2.773264 1_546
Pd2_5 Pd2_6 2.773264 1_555
Pd2_5 Pd3_7 2.849968 1_555
Pd2_5 Pd3_1 2.849968 1_655
Pd2_5 Pd3_4 2.849968 1_556
Pd2_6 Pd3_4 2.849968 1_565
Pd2_6 Pd3_2 2.849968 1_655
Pd2_6 Pd3_7 2.849968 1_555
Pd2_7 Pd3_5 2.849968 1_565
Pd2_7 Pd3_3 2.849968 1_655
Pd2_7 Pd3_6 2.849968 1_556
Pd3_0 V0_2 2.649706 1_555
Pd3_0 V0_4 2.649706 1_555
Pd3_0 V0_1 2.649706 1_555
Pd3_0 Pd3_6 2.773264 1_545
Pd3_0 Pd3_6 2.773264 1_455
Pd3_0 Pd3_5 2.773264 1_554
Pd3_0 Pd3_5 2.773264 1_455
Pd3_0 Pd3_3 2.773264 1_545
Pd3_0 Pd3_3 2.773264 1_554
Pd3_1 V0_3 2.649706 1_555
Pd3_1 V0_5 2.649706 1_555
Pd3_1 V0_0 2.649706 1_556
Pd3_1 Pd3_7 2.773264 1_455
Pd3_1 Pd3_7 2.773264 1_545
Pd3_1 Pd3_4 2.773264 1_555
Pd3_1 Pd3_2 2.773264 1_555
Pd3_1 Pd3_4 2.773264 1_456
Pd3_1 Pd3_2 2.773264 1_546
Pd3_2 V0_0 2.649706 1_565
Pd3_2 V0_6 2.649706 1_555
Pd3_2 V0_3 2.649706 1_555
Pd3_2 Pd3_4 2.773264 1_555
Pd3_2 Pd3_4 2.773264 1_465
Pd3_2 Pd3_7 2.773264 1_455
Pd3_2 Pd3_7 2.773264 1_554
Pd3_3 V0_1 2.649706 1_565
Pd3_3 V0_7 2.649706 1_555
Pd3_3 V0_2 2.649706 1_556
Pd3_3 Pd3_5 2.773264 1_555
Pd3_3 Pd3_5 2.773264 1_465
Pd3_3 Pd3_6 2.773264 1_456
Pd3_3 Pd3_6 2.773264 1_555
Pd3_4 V0_0 2.649706 1_655
Pd3_4 V0_6 2.649706 1_555
Pd3_4 V0_5 2.649706 1_555
Pd3_4 Pd3_7 2.773264 1_545
Pd3_4 Pd3_7 2.773264 1_554
Pd3_5 V0_7 2.649706 1_555
Pd3_5 V0_1 2.649706 1_655
Pd3_5 V0_4 2.649706 1_556
Pd3_5 Pd3_6 2.773264 1_546
Pd3_5 Pd3_6 2.773264 1_555
Pd3_6 V0_2 2.649706 1_655
Pd3_6 V0_4 2.649706 1_565
Pd3_6 V0_7 2.649706 1_555
Pd3_7 V0_3 2.649706 1_655
Pd3_7 V0_5 2.649706 1_565
Pd3_7 V0_6 2.649706 1_556
