# generated using pymatgen
data_LiLa8Cu3O16
_symmetry_space_group_name_H-M   'P 1'
_cell_length_a   7.09102500
_cell_length_b   7.57231323
_cell_length_c   8.45853599
_cell_angle_alpha   116.44042439
_cell_angle_beta   96.89403815
_cell_angle_gamma   105.59337669
_symmetry_Int_Tables_number   1
_chemical_formula_structural   LiLa8Cu3O16
_chemical_formula_sum   'Li1 La8 Cu3 O16'
_cell_volume   376.27170868
_cell_formula_units_Z   1
loop_
 _symmetry_equiv_pos_site_id
 _symmetry_equiv_pos_as_xyz
  1  'x, y, z'
loop_
 _atom_site_type_symbol
 _atom_site_label
 _atom_site_symmetry_multiplicity
 _atom_site_fract_x
 _atom_site_fract_y
 _atom_site_fract_z
 _atom_site_occupancy
  Li  Li0  1  0.00065400  0.25016800  0.50060600  1
  La  La0  1  0.27461900  0.16093000  0.32027200  1
  La  La1  1  0.72220200  0.84506400  0.67587500  1
  La  La2  1  0.27639600  0.65470200  0.32628000  1
  La  La3  1  0.27809100  0.40782500  0.81529600  1
  La  La4  1  0.27714900  0.91657800  0.81787900  1
  La  La5  1  0.72341000  0.33890300  0.68139300  1
  La  La6  1  0.72244300  0.09353400  0.18609100  1
  La  La7  1  0.72315200  0.58524000  0.18317500  1
  Cu  Cu0  1  0.00028700  0.75021300  0.50026500  1
  Cu  Cu1  1  0.00101900  0.49950500  0.00127900  1
  Cu  Cu2  1  0.99709600  0.99975500  0.99751100  1
  O  O0  1  0.99567500  0.87657100  0.24645800  1
  O  O1  1  0.62846200  0.70478400  0.41111900  1
  O  O2  1  0.00399800  0.37615900  0.24955100  1
  O  O3  1  0.00686900  0.99602200  0.50063500  1
  O  O4  1  0.63478700  0.20237500  0.40140100  1
  O  O5  1  0.63372300  0.44926700  0.90305900  1
  O  O6  1  0.62924600  0.95192000  0.89799600  1
  O  O7  1  0.36227900  0.29729500  0.59250800  1
  O  O8  1  0.99697700  0.12532600  0.74998600  1
  O  O9  1  0.99332900  0.50510600  0.49860200  1
  O  O10  1  0.99644600  0.74816900  0.00047100  1
  O  O11  1  0.99709800  0.24833900  0.00069200  1
  O  O12  1  0.36881600  0.79452400  0.58242300  1
  O  O13  1  0.37072300  0.53950700  0.08938000  1
  O  O14  1  0.36790800  0.04317300  0.08523600  1
  O  O15  1  0.00456700  0.62502000  0.75296500  1
loop_
_geom_bond_atom_site_label_1
_geom_bond_atom_site_label_2
_geom_bond_distance
_geom_bond_site_symmetry_2
Li0 O3 1.936893 1_545
Li0 O9 1.952572 1_455
Li0 O7 2.467726 1_555
Li0 O4 2.503604 1_455
La0 O7 1.987199 1_555
La0 O14 2.058946 1_555
La0 O0 2.270531 1_445
La0 O4 2.459406 1_555
La1 O1 1.931302 1_555
La1 O6 1.961984 1_555
La1 O8 2.234327 1_565
La1 O12 2.406278 1_555
La2 O12 1.867590 1_555
La2 O13 2.074239 1_555
La2 O2 2.211488 1_555
La2 O1 2.389541 1_555
La3 O7 1.934478 1_555
La3 O13 2.006021 1_556
La3 O8 2.290322 1_455
La3 O5 2.434478 1_555
La4 O14 1.958483 1_566
La4 O12 2.058590 1_555
La4 O15 2.298531 1_555
La4 O6 2.416113 1_555
La5 O5 1.948071 1_555
La5 O4 2.045892 1_555
La5 O15 2.292444 1_655
La5 O7 2.472904 1_555
La6 O4 1.895494 1_555
La6 O6 2.104815 1_544
La6 O2 2.297153 1_655
La6 O14 2.423523 1_555
La7 O1 2.017676 1_555
La7 O5 2.047422 1_554
La7 O0 2.301253 1_555
La7 O13 2.410155 1_555
Cu0 O9 1.837068 1_455
Cu0 O3 1.847933 1_555
Cu0 O12 2.511884 1_555
Cu0 O1 2.538264 1_455
Cu1 O11 1.892400 1_455
Cu1 O10 1.894961 1_455
Cu1 O5 2.506951 1_454
Cu1 O13 2.534330 1_555
Cu2 O11 1.870527 1_566
Cu2 O10 1.915148 1_556
Cu2 O6 2.517358 1_555
Cu2 O14 2.534209 1_666
