# generated using pymatgen
data_CaMg3(SiO3)4
_symmetry_space_group_name_H-M   'P 1'
_cell_length_a   6.68029006
_cell_length_b   6.68029006
_cell_length_c   5.31684749
_cell_angle_alpha   76.98940680
_cell_angle_beta   76.98940680
_cell_angle_gamma   84.63978546
_symmetry_Int_Tables_number   1
_chemical_formula_structural   CaMg3(SiO3)4
_chemical_formula_sum   'Ca1 Mg3 Si4 O12'
_cell_volume   225.01691483
_cell_formula_units_Z   1
loop_
 _symmetry_equiv_pos_site_id
 _symmetry_equiv_pos_as_xyz
  1  'x, y, z'
loop_
 _atom_site_type_symbol
 _atom_site_label
 _atom_site_symmetry_multiplicity
 _atom_site_fract_x
 _atom_site_fract_y
 _atom_site_fract_z
 _atom_site_occupancy
  Ca  Ca0  1  0.29970300  0.70029700  0.50000000  1
  Mg  Mg0  1  0.90660600  0.09339400  0.50000000  1
  Mg  Mg1  1  0.09535200  0.90464800  0.00000000  1
  Mg  Mg2  1  0.74562100  0.25437900  0.00000000  1
  Si  Si0  1  0.79959300  0.61685500  0.50031800  1
  Si  Si1  1  0.38314500  0.20040700  0.49968200  1
  Si  Si2  1  0.19556000  0.38330000  0.00734800  1
  Si  Si3  1  0.61670000  0.80444000  0.99265200  1
  O  O0  1  0.97139500  0.79056500  0.39806100  1
  O  O1  1  0.20943500  0.02860500  0.60193900  1
  O  O2  1  0.02389800  0.20819100  0.10542100  1
  O  O3  1  0.79180900  0.97610200  0.89457900  1
  O  O4  1  0.86766900  0.38022700  0.61029500  1
  O  O5  1  0.61977300  0.13233100  0.38970500  1
  O  O6  1  0.11068000  0.61597200  0.92332500  1
  O  O7  1  0.38402800  0.88932000  0.07667500  1
  O  O8  1  0.66365600  0.63512500  0.26419300  1
  O  O9  1  0.36487500  0.33634400  0.73580700  1
  O  O10  1  0.32546800  0.37496600  0.24216200  1
  O  O11  1  0.62503400  0.67453200  0.75783800  1
loop_
_geom_bond_atom_site_label_1
_geom_bond_atom_site_label_2
_geom_bond_distance
_geom_bond_site_symmetry_2
Ca0 O6 2.293476 1_555
Ca0 O7 2.293476 1_555
Ca0 O0 2.368217 1_455
Ca0 O1 2.368217 1_565
Ca0 O9 2.519564 1_555
Ca0 O8 2.519564 1_555
Ca0 O11 2.792413 1_555
Ca0 O10 2.792413 1_555
Mg0 O3 2.061798 1_545
Mg0 O2 2.061798 1_655
Mg0 O5 2.104100 1_555
Mg0 O4 2.104100 1_555
Mg0 O0 2.190441 1_545
Mg0 O1 2.190441 1_655
Mg1 O6 2.047889 1_554
Mg1 O7 2.047889 1_555
Mg1 O0 2.085265 1_455
Mg1 O1 2.085265 1_564
Mg1 O3 2.205506 1_454
Mg1 O2 2.205506 1_565
Mg2 O2 2.036975 1_655
Mg2 O3 2.036975 1_544
Mg2 O5 2.061020 1_555
Mg2 O4 2.061020 1_554
O0 Si0 1.625787 1_555
O1 Si1 1.625787 1_555
O2 Si2 1.631583 1_555
O3 Si3 1.631583 1_555
O4 Si0 1.617626 1_555
O5 Si1 1.617626 1_555
O6 Si2 1.604286 1_556
O7 Si3 1.604286 1_554
O8 Si0 1.685022 1_555
O8 Si3 1.692474 1_554
O9 Si1 1.685022 1_555
O9 Si2 1.692474 1_556
O10 Si2 1.662050 1_555
O10 Si1 1.678583 1_555
O11 Si3 1.662050 1_555
O11 Si0 1.678583 1_555
