# generated using pymatgen
data_GdCu4Pd
_symmetry_space_group_name_H-M   'P 1'
_cell_length_a   4.97513245
_cell_length_b   4.97513959
_cell_length_c   4.97514262
_cell_angle_alpha   60.00450219
_cell_angle_beta   60.00431817
_cell_angle_gamma   60.00435560
_symmetry_Int_Tables_number   1
_chemical_formula_structural   GdCu4Pd
_chemical_formula_sum   'Gd1 Cu4 Pd1'
_cell_volume   87.08506849
_cell_formula_units_Z   1
loop_
 _symmetry_equiv_pos_site_id
 _symmetry_equiv_pos_as_xyz
  1  'x, y, z'
loop_
 _atom_site_type_symbol
 _atom_site_label
 _atom_site_symmetry_multiplicity
 _atom_site_fract_x
 _atom_site_fract_y
 _atom_site_fract_z
 _atom_site_occupancy
  Gd  Gd0  1  0.24999817  0.24999956  0.24999984  1
  Cu  Cu0  1  0.62629250  0.62629225  0.62629289  1
  Cu  Cu1  1  0.62629996  0.62630011  0.12110717  1
  Cu  Cu2  1  0.62629827  0.12110767  0.62630172  1
  Cu  Cu3  1  0.12110857  0.62629997  0.62629871  1
  Pd  Pd0  1  0.00000153  0.00000044  0.99999966  1
loop_
_geom_bond_atom_site_label_1
_geom_bond_atom_site_label_2
_geom_bond_distance
_geom_bond_site_symmetry_2
Gd0 Pd0 3.046520 1_554
Gd0 Pd0 3.046809 1_555
Gd0 Pd0 3.046813 1_564
Gd0 Pd0 3.046813 1_654
Cu0 Cu3 2.461809 1_655
Cu0 Cu1 2.461810 1_556
Cu0 Cu2 2.461812 1_565
Cu0 Cu3 2.513323 1_555
Cu0 Cu2 2.513327 1_555
Cu0 Cu1 2.513333 1_555
Cu0 Pd0 2.914409 1_565
Cu0 Pd0 2.914422 1_655
Cu0 Pd0 2.914426 1_664
Cu0 Gd0 2.919893 1_655
Cu0 Gd0 2.919906 1_556
Cu0 Gd0 2.919909 1_565
Cu1 Cu2 2.461900 1_564
Cu1 Cu3 2.461901 1_654
Cu1 Cu3 2.513561 1_555
Cu1 Cu2 2.513580 1_555
Cu1 Pd0 2.914181 1_664
Cu1 Pd0 2.914339 1_564
Cu1 Pd0 2.914345 1_654
Cu1 Gd0 2.919732 1_555
Cu1 Gd0 2.919821 1_655
Cu1 Gd0 2.919827 1_565
Cu2 Cu3 2.461904 1_645
Cu2 Cu3 2.513559 1_555
Cu2 Pd0 2.914180 1_655
Cu2 Pd0 2.914329 1_555
Cu2 Pd0 2.914355 1_654
Cu2 Gd0 2.919734 1_555
Cu2 Gd0 2.919820 1_556
Cu2 Gd0 2.919825 1_655
Cu3 Pd0 2.914180 1_565
Cu3 Pd0 2.914348 1_555
Cu3 Pd0 2.914349 1_564
Cu3 Gd0 2.919726 1_555
Cu3 Gd0 2.919827 1_565
Cu3 Gd0 2.919835 1_556
