# generated using pymatgen
data_La7SmNi6(AgO12)2
_symmetry_space_group_name_H-M   'P 1'
_cell_length_a   7.79221796
_cell_length_b   7.79221796
_cell_length_c   7.87363400
_cell_angle_alpha   90.00000000
_cell_angle_beta   90.00000000
_cell_angle_gamma   90.11264848
_symmetry_Int_Tables_number   1
_chemical_formula_structural   La7SmNi6(AgO12)2
_chemical_formula_sum   'La7 Sm1 Ni6 Ag2 O24'
_cell_volume   478.07558801
_cell_formula_units_Z   1
loop_
 _symmetry_equiv_pos_site_id
 _symmetry_equiv_pos_as_xyz
  1  'x, y, z'
loop_
 _atom_site_type_symbol
 _atom_site_label
 _atom_site_symmetry_multiplicity
 _atom_site_fract_x
 _atom_site_fract_y
 _atom_site_fract_z
 _atom_site_occupancy
  La  La0  1  0.74347900  0.25652100  0.50000000  1
  La  La1  1  0.25703000  0.25713100  0.50000000  1
  La  La2  1  0.74286900  0.74297000  0.50000000  1
  La  La3  1  0.25700000  0.74300000  0.50000000  1
  La  La4  1  0.25704100  0.25656000  0.00000000  1
  La  La5  1  0.74344000  0.74295900  0.00000000  1
  La  La6  1  0.25710400  0.74289600  0.00000000  1
  Sm  Sm0  1  0.74065400  0.25934600  0.00000000  1
  Ni  Ni0  1  0.50065600  0.00042400  0.24940500  1
  Ni  Ni1  1  0.99957600  0.49934400  0.24940500  1
  Ni  Ni2  1  0.50039400  0.49960600  0.24966600  1
  Ni  Ni3  1  0.50065600  0.00042400  0.75059500  1
  Ni  Ni4  1  0.99957600  0.49934400  0.75059500  1
  Ni  Ni5  1  0.50039400  0.49960600  0.75033400  1
  Ag  Ag0  1  0.99989300  0.00010700  0.24971200  1
  Ag  Ag1  1  0.99989300  0.00010700  0.75028800  1
  O  O0  1  0.00001600  0.99998400  0.50000000  1
  O  O1  1  0.50043900  0.00044000  0.50000000  1
  O  O2  1  0.99956000  0.49956100  0.50000000  1
  O  O3  1  0.50023900  0.49976100  0.50000000  1
  O  O4  1  0.99685200  0.00314800  0.00000000  1
  O  O5  1  0.50207400  0.00238700  0.00000000  1
  O  O6  1  0.99761300  0.49792600  0.00000000  1
  O  O7  1  0.50330900  0.49669100  0.00000000  1
  O  O8  1  0.99718900  0.26202200  0.24729300  1
  O  O9  1  0.50256300  0.24051800  0.24721500  1
  O  O10  1  0.99976400  0.73754200  0.24967600  1
  O  O11  1  0.50028800  0.75960000  0.24971700  1
  O  O12  1  0.99718900  0.26202200  0.75270700  1
  O  O13  1  0.50256300  0.24051800  0.75278500  1
  O  O14  1  0.99976400  0.73754200  0.75032400  1
  O  O15  1  0.50028800  0.75960000  0.75028300  1
  O  O16  1  0.73797800  0.00281100  0.24729300  1
  O  O17  1  0.26245800  0.00023600  0.24967600  1
  O  O18  1  0.75948200  0.49743700  0.24721500  1
  O  O19  1  0.24040000  0.49971200  0.24971700  1
  O  O20  1  0.73797800  0.00281100  0.75270700  1
  O  O21  1  0.26245800  0.00023600  0.75032400  1
  O  O22  1  0.75948200  0.49743700  0.75278500  1
  O  O23  1  0.24040000  0.49971200  0.75028300  1
loop_
_geom_bond_atom_site_label_1
_geom_bond_atom_site_label_2
_geom_bond_distance
_geom_bond_site_symmetry_2
La0 O3 2.683105 1_555
La0 O22 2.738651 1_555
La0 O18 2.738651 1_555
La0 O13 2.738651 1_555
La0 O9 2.738651 1_555
La0 O1 2.748358 1_555
La0 O2 2.748358 1_555
La0 O12 2.805153 1_555
La0 O20 2.805153 1_555
La0 O8 2.805153 1_555
La0 O16 2.805153 1_555
La0 O0 2.829780 1_645
La1 O3 2.674308 1_555
La1 O23 2.733896 1_555
La1 O19 2.733896 1_555
La1 O2 2.758363 1_455
La1 O1 2.759192 1_555
La1 O13 2.763998 1_555
La1 O9 2.763998 1_555
La1 O21 2.809615 1_555
La1 O17 2.809615 1_555
La1 O0 2.830205 1_545
La1 O12 2.839069 1_455
La1 O8 2.839069 1_455
La2 O3 2.674308 1_555
La2 O15 2.733896 1_555
La2 O11 2.733896 1_555
La2 O1 2.758363 1_565
La2 O2 2.759192 1_555
La2 O22 2.763998 1_555
La2 O18 2.763998 1_555
La2 O14 2.809615 1_555
La2 O10 2.809615 1_555
La2 O0 2.830205 1_655
La2 O20 2.839069 1_565
La2 O16 2.839069 1_565
La3 O3 2.683094 1_555
La3 O23 2.737345 1_555
La3 O15 2.737345 1_555
La3 O11 2.737345 1_555
La3 O19 2.737345 1_555
La3 O1 2.758175 1_565
La3 O2 2.758175 1_455
La3 O21 2.811393 1_565
La3 O14 2.811393 1_455
La3 O17 2.811393 1_565
La3 O10 2.811393 1_455
La3 O0 2.834710 1_555
La4 O7 2.677603 1_555
La4 O9 2.732313 1_555
La4 O13 2.732313 1_554
La4 O19 2.733772 1_555
La4 O23 2.733772 1_554
La4 O5 2.753752 1_555
La4 O6 2.763840 1_455
La4 O17 2.802864 1_555
La4 O21 2.802864 1_554
La4 O8 2.809491 1_455
La4 O12 2.809491 1_454
La4 O4 2.827369 1_455
La5 O7 2.677603 1_555
La5 O18 2.732313 1_555
La5 O22 2.732313 1_554
La5 O11 2.733772 1_555
La5 O15 2.733772 1_554
La5 O6 2.753752 1_555
La5 O5 2.763840 1_565
La5 O10 2.802864 1_555
La5 O14 2.802864 1_554
La5 O16 2.809491 1_565
La5 O20 2.809491 1_564
La5 O4 2.827369 1_565
La6 O7 2.715811 1_555
La6 O11 2.733614 1_555
La6 O19 2.733614 1_555
La6 O15 2.733614 1_554
La6 O23 2.733614 1_554
La6 O5 2.777966 1_565
La6 O6 2.777966 1_455
La6 O17 2.808386 1_565
La6 O10 2.808386 1_455
La6 O21 2.808386 1_564
La6 O14 2.808386 1_454
La6 O4 2.870759 1_465
Ni0 O16 1.849396 1_555
Ni0 O17 1.856090 1_555
Ni0 O9 1.870974 1_555
Ni0 O11 1.876551 1_545
Ni0 O5 1.963814 1_555
Ni0 O1 1.973094 1_555
Ni1 O8 1.849396 1_555
Ni1 O10 1.856090 1_555
Ni1 O18 1.870974 1_555
Ni1 O19 1.876551 1_655
Ni1 O6 1.963814 1_555
Ni1 O2 1.973094 1_555
Ni2 O7 1.966042 1_555
Ni2 O3 1.971039 1_555
Ni2 O18 2.019066 1_555
Ni2 O9 2.019066 1_555
Ni2 O19 2.025932 1_555
Ni2 O11 2.025932 1_555
Ni3 O20 1.849396 1_555
Ni3 O21 1.856090 1_555
Ni3 O13 1.870974 1_555
Ni3 O15 1.876551 1_545
Ni3 O5 1.963814 1_556
Ni3 O1 1.973094 1_555
Ni4 O12 1.849396 1_555
Ni4 O14 1.856090 1_555
Ni4 O22 1.870974 1_555
Ni4 O23 1.876551 1_655
Ni4 O6 1.963814 1_556
Ni4 O2 1.973094 1_555
Ni5 O7 1.966042 1_556
Ni5 O3 1.971039 1_555
Ni5 O22 2.019066 1_555
Ni5 O13 2.019066 1_555
Ni5 O23 2.025932 1_555
Ni5 O15 2.025932 1_555
Ag0 O4 1.966427 1_555
Ag0 O0 1.970677 1_645
Ag0 O8 2.041138 1_555
Ag0 O16 2.041138 1_555
Ag0 O17 2.045962 1_655
Ag0 O10 2.045962 1_545
Ag1 O4 1.966427 1_556
Ag1 O0 1.970677 1_645
Ag1 O12 2.041138 1_555
Ag1 O20 2.041138 1_555
Ag1 O21 2.045962 1_655
Ag1 O14 2.045962 1_545
O4 Sm0 2.826040 1_555
O5 Sm0 2.729583 1_555
O6 Sm0 2.729583 1_555
O7 Sm0 2.618079 1_555
O8 Sm0 2.790583 1_555
O9 Sm0 2.692809 1_555
O12 Sm0 2.790583 1_556
O13 Sm0 2.692809 1_556
O16 Sm0 2.790583 1_555
O18 Sm0 2.692809 1_555
O20 Sm0 2.790583 1_556
O22 Sm0 2.692809 1_556
