# generated using pymatgen
data_Np2N3
_symmetry_space_group_name_H-M   'P 1'
_cell_length_a   9.25393564
_cell_length_b   9.25393564
_cell_length_c   9.25393564
_cell_angle_alpha   109.47122063
_cell_angle_beta   109.47122063
_cell_angle_gamma   109.47122063
_symmetry_Int_Tables_number   1
_chemical_formula_structural   Np2N3
_chemical_formula_sum   'Np16 N24'
_cell_volume   610.03890476
_cell_formula_units_Z   8
loop_
 _symmetry_equiv_pos_site_id
 _symmetry_equiv_pos_as_xyz
  1  'x, y, z'
loop_
 _atom_site_type_symbol
 _atom_site_label
 _atom_site_symmetry_multiplicity
 _atom_site_fract_x
 _atom_site_fract_y
 _atom_site_fract_z
 _atom_site_occupancy
  Np  Np0  1  0.50000000  0.00000000  0.50000000  1
  Np  Np1  1  0.50000000  0.50000000  0.00000000  1
  Np  Np2  1  0.00000000  0.50000000  0.50000000  1
  Np  Np3  1  0.00000000  0.00000000  0.00000000  1
  Np  Np4  1  0.77715290  0.25000000  0.02715290  1
  Np  Np5  1  0.72284710  0.75000000  0.47284710  1
  Np  Np6  1  0.25000000  0.02715290  0.77715290  1
  Np  Np7  1  0.75000000  0.47284710  0.72284710  1
  Np  Np8  1  0.02715290  0.77715290  0.25000000  1
  Np  Np9  1  0.47284710  0.72284710  0.75000000  1
  Np  Np10  1  0.22284710  0.75000000  0.97284710  1
  Np  Np11  1  0.27715290  0.25000000  0.52715290  1
  Np  Np12  1  0.75000000  0.97284710  0.22284710  1
  Np  Np13  1  0.25000000  0.52715290  0.27715290  1
  Np  Np14  1  0.97284710  0.22284710  0.75000000  1
  Np  Np15  1  0.52715290  0.27715290  0.25000000  1
  N  N0  1  0.50042540  0.23157398  0.46762175  1
  N  N1  1  0.23604776  0.26842602  0.76885141  1
  N  N2  1  -0.00042540  0.46719635  0.73114859  1
  N  N3  1  0.26395224  0.03280365  0.03237825  1
  N  N4  1  0.23157398  0.46762175  0.50042540  1
  N  N5  1  0.26842602  0.76885141  0.23604776  1
  N  N6  1  0.46719635  0.73114859  -0.00042540  1
  N  N7  1  0.03280365  0.03237825  0.26395224  1
  N  N8  1  0.46762175  0.50042540  0.23157398  1
  N  N9  1  0.76885141  0.23604776  0.26842602  1
  N  N10  1  0.73114859  -0.00042540  0.46719635  1
  N  N11  1  0.03237825  0.26395224  0.03280365  1
  N  N12  1  0.49957460  0.76842602  0.53237825  1
  N  N13  1  0.76395224  0.73157398  0.23114859  1
  N  N14  1  0.00042540  0.53280365  0.26885141  1
  N  N15  1  0.73604776  0.96719635  0.96762175  1
  N  N16  1  0.76842602  0.53237825  0.49957460  1
  N  N17  1  0.73157398  0.23114859  0.76395224  1
  N  N18  1  0.53280365  0.26885141  0.00042540  1
  N  N19  1  0.96719635  0.96762175  0.73604776  1
  N  N20  1  0.53237825  0.49957460  0.76842602  1
  N  N21  1  0.23114859  0.76395224  0.73157398  1
  N  N22  1  0.26885141  0.00042540  0.53280365  1
  N  N23  1  0.96762175  0.73604776  0.96719635  1
loop_
_geom_bond_atom_site_label_1
_geom_bond_atom_site_label_2
_geom_bond_distance
_geom_bond_site_symmetry_2
N0 Np0 2.259499 1_555
N0 Np15 2.263513 1_555
N0 Np7 2.303813 1_555
N0 Np11 2.352149 1_555
N1 Np1 2.259499 1_556
N1 Np14 2.263513 1_455
N1 Np6 2.303813 1_555
N1 Np11 2.352149 1_555
N2 Np2 2.259499 1_555
N2 Np14 2.263513 1_455
N2 Np7 2.303813 1_455
N2 Np10 2.352149 1_555
N3 Np3 2.259499 1_555
N3 Np15 2.263513 1_555
N3 Np6 2.303813 1_554
N3 Np10 2.352149 1_544
N4 Np2 2.259499 1_555
N4 Np11 2.263513 1_555
N4 Np9 2.303813 1_555
N4 Np13 2.352149 1_555
N5 Np0 2.259499 1_565
N5 Np10 2.263513 1_554
N5 Np8 2.303813 1_555
N5 Np13 2.352149 1_555
N6 Np1 2.259499 1_555
N6 Np10 2.263513 1_554
N6 Np9 2.303813 1_554
N6 Np12 2.352149 1_555
N7 Np3 2.259499 1_555
N7 Np11 2.263513 1_555
N7 Np8 2.303813 1_545
N7 Np12 2.352149 1_445
N8 Np1 2.259499 1_555
N8 Np13 2.263513 1_555
N8 Np5 2.303813 1_555
N8 Np15 2.352149 1_555
N9 Np2 2.259499 1_655
N9 Np12 2.263513 1_545
N9 Np4 2.303813 1_555
N9 Np15 2.352149 1_555
N10 Np0 2.259499 1_555
N10 Np12 2.263513 1_545
N10 Np5 2.303813 1_545
N10 Np14 2.352149 1_555
N11 Np3 2.259499 1_555
N11 Np13 2.263513 1_555
N11 Np4 2.303813 1_455
N11 Np14 2.352149 1_454
N12 Np0 2.259499 1_565
N12 Np9 2.263513 1_555
N12 Np13 2.303813 1_555
N12 Np5 2.352149 1_555
N13 Np1 2.259499 1_555
N13 Np8 2.263513 1_655
N13 Np12 2.303813 1_555
N13 Np5 2.352149 1_555
N14 Np2 2.259499 1_555
N14 Np8 2.263513 1_555
N14 Np13 2.303813 1_555
N14 Np4 2.352149 1_455
N15 Np3 2.259499 1_666
N15 Np9 2.263513 1_555
N15 Np12 2.303813 1_556
N15 Np4 2.352149 1_566
N16 Np2 2.259499 1_655
N16 Np5 2.263513 1_555
N16 Np15 2.303813 1_555
N16 Np7 2.352149 1_555
N17 Np0 2.259499 1_555
N17 Np4 2.263513 1_556
N17 Np14 2.303813 1_555
N17 Np7 2.352149 1_555
N18 Np1 2.259499 1_555
N18 Np4 2.263513 1_555
N18 Np15 2.303813 1_555
N18 Np6 2.352149 1_554
N19 Np3 2.259499 1_666
N19 Np5 2.263513 1_555
N19 Np14 2.303813 1_565
N19 Np6 2.352149 1_665
N20 Np1 2.259499 1_556
N20 Np7 2.263513 1_555
N20 Np11 2.303813 1_555
N20 Np9 2.352149 1_555
N21 Np2 2.259499 1_555
N21 Np6 2.263513 1_565
N21 Np10 2.303813 1_555
N21 Np9 2.352149 1_555
N22 Np0 2.259499 1_555
N22 Np6 2.263513 1_555
N22 Np11 2.303813 1_555
N22 Np8 2.352149 1_545
N23 Np3 2.259499 1_666
N23 Np7 2.263513 1_555
N23 Np10 2.303813 1_655
N23 Np8 2.352149 1_656
