# generated using pymatgen
data_Er4Zr3O12
_symmetry_space_group_name_H-M   'P 1'
_cell_length_a   6.28398851
_cell_length_b   6.32000168
_cell_length_c   6.47213184
_cell_angle_alpha   99.81399945
_cell_angle_beta   98.74816502
_cell_angle_gamma   99.52956043
_symmetry_Int_Tables_number   1
_chemical_formula_structural   Er4Zr3O12
_chemical_formula_sum   'Er4 Zr3 O12'
_cell_volume   245.44544984
_cell_formula_units_Z   1
loop_
 _symmetry_equiv_pos_site_id
 _symmetry_equiv_pos_as_xyz
  1  'x, y, z'
loop_
 _atom_site_type_symbol
 _atom_site_label
 _atom_site_symmetry_multiplicity
 _atom_site_fract_x
 _atom_site_fract_y
 _atom_site_fract_z
 _atom_site_occupancy
  Er  Er0  1  0.38866550  0.69909113  0.86499013  1
  Er  Er1  1  0.69468631  0.86453113  0.38980750  1
  Er  Er2  1  0.61133450  0.30090887  0.13500987  1
  Er  Er3  1  0.30531369  0.13546887  0.61019250  1
  Zr  Zr0  1  0.00000000  0.00000000  -0.00000000  1
  Zr  Zr1  1  0.84969754  0.39590516  0.67311545  1
  Zr  Zr2  1  0.15030246  0.60409484  0.32688455  1
  O  O0  1  0.03021970  0.67741302  0.88941242  1
  O  O1  1  0.68446112  0.93118133  0.05978498  1
  O  O2  1  0.92024408  0.08212826  0.69112352  1
  O  O3  1  0.96978030  0.32258698  0.11058758  1
  O  O4  1  0.31553888  0.06881867  0.94021502  1
  O  O5  1  0.07975592  0.91787174  0.30887648  1
  O  O6  1  0.58605802  0.18702880  0.43325693  1
  O  O7  1  0.17303140  0.42918228  0.57390330  1
  O  O8  1  0.41517806  0.58158499  0.17866270  1
  O  O9  1  0.41394198  0.81297120  0.56674307  1
  O  O10  1  0.82696860  0.57081772  0.42609670  1
  O  O11  1  0.58482194  0.41841501  0.82133730  1
loop_
_geom_bond_atom_site_label_1
_geom_bond_atom_site_label_2
_geom_bond_distance
_geom_bond_site_symmetry_2
Er0 O9 2.190498 1_555
Er0 O1 2.224865 1_556
Er0 O0 2.265143 1_555
Er0 O8 2.269965 1_556
Er0 O11 2.324854 1_555
Er0 O7 2.378617 1_555
Er0 O4 2.438040 1_565
Er1 O10 2.189076 1_555
Er1 O1 2.240039 1_555
Er1 O6 2.241189 1_565
Er1 O9 2.254180 1_555
Er1 O2 2.302797 1_565
Er1 O8 2.355224 1_555
Er1 O5 2.533564 1_655
Er2 O6 2.190498 1_555
Er2 O4 2.224865 1_554
Er2 O3 2.265143 1_555
Er2 O11 2.269965 1_554
Er2 O8 2.324854 1_555
Er2 O10 2.378617 1_555
Er2 O1 2.438040 1_545
Er3 O7 2.189076 1_555
Er3 O4 2.240039 1_555
Er3 O9 2.241189 1_545
Er3 O6 2.254180 1_555
Er3 O5 2.302797 1_545
Er3 O11 2.355224 1_555
Er3 O2 2.533564 1_455
O0 Zr0 2.092113 1_566
O0 Zr1 2.100361 1_455
O1 Zr0 2.067789 1_665
O2 Zr1 2.120576 1_555
O2 Zr0 2.156863 1_656
O3 Zr0 2.092113 1_655
O3 Zr2 2.100361 1_655
O4 Zr0 2.067789 1_556
O5 Zr2 2.120576 1_555
O5 Zr0 2.156863 1_565
O6 Zr1 2.166147 1_555
O7 Zr2 2.093724 1_555
O7 Zr1 2.210489 1_455
O8 Zr2 2.056351 1_555
O9 Zr2 2.166147 1_555
O10 Zr1 2.093724 1_555
O10 Zr2 2.210489 1_655
O11 Zr1 2.056351 1_555
