# generated using pymatgen
data_PmDyTl2
_symmetry_space_group_name_H-M   'P 1'
_cell_length_a   5.39573826
_cell_length_b   5.39573826
_cell_length_c   5.39573826
_cell_angle_alpha   60.00000000
_cell_angle_beta   60.00000000
_cell_angle_gamma   60.00000000
_symmetry_Int_Tables_number   1
_chemical_formula_structural   PmDyTl2
_chemical_formula_sum   'Pm1 Dy1 Tl2'
_cell_volume   111.08044848
_cell_formula_units_Z   1
loop_
 _symmetry_equiv_pos_site_id
 _symmetry_equiv_pos_as_xyz
  1  'x, y, z'
loop_
 _atom_site_type_symbol
 _atom_site_label
 _atom_site_symmetry_multiplicity
 _atom_site_fract_x
 _atom_site_fract_y
 _atom_site_fract_z
 _atom_site_occupancy
  Pm  Pm0  1  0.00000000  -0.00000000  0.00000000  1
  Dy  Dy0  1  0.50000000  0.50000000  0.50000000  1
  Tl  Tl0  1  0.25000000  0.25000000  0.25000000  1
  Tl  Tl1  1  0.75000000  0.75000000  0.75000000  1
loop_
_geom_bond_atom_site_label_1
_geom_bond_atom_site_label_2
_geom_bond_distance
_geom_bond_site_symmetry_2
Pm0 Tl1 3.304201 1_454
Pm0 Tl1 3.304201 1_445
Pm0 Tl1 3.304201 1_544
Pm0 Tl1 3.304201 1_444
Pm0 Tl0 3.304201 1_455
Pm0 Tl0 3.304201 1_545
Pm0 Tl0 3.304201 1_554
Pm0 Tl0 3.304201 1_555
Dy0 Tl0 3.304201 1_565
Dy0 Tl1 3.304201 1_555
Dy0 Tl1 3.304201 1_554
Dy0 Tl0 3.304201 1_655
Dy0 Tl1 3.304201 1_455
Dy0 Tl1 3.304201 1_545
Dy0 Tl0 3.304201 1_556
Dy0 Tl0 3.304201 1_555
