# generated using pymatgen
data_K2MgH4(I2O7)2
_symmetry_space_group_name_H-M   'P 1'
_cell_length_a   8.05597755
_cell_length_b   8.05597755
_cell_length_c   8.37912961
_cell_angle_alpha   59.24924127
_cell_angle_beta   59.24924127
_cell_angle_gamma   61.03726947
_symmetry_Int_Tables_number   1
_chemical_formula_structural   K2MgH4(I2O7)2
_chemical_formula_sum   'K2 Mg1 H4 I4 O14'
_cell_volume   382.91787139
_cell_formula_units_Z   1
loop_
 _symmetry_equiv_pos_site_id
 _symmetry_equiv_pos_as_xyz
  1  'x, y, z'
loop_
 _atom_site_type_symbol
 _atom_site_label
 _atom_site_symmetry_multiplicity
 _atom_site_fract_x
 _atom_site_fract_y
 _atom_site_fract_z
 _atom_site_occupancy
  K  K0  1  0.13404400  0.86595600  0.00000000  1
  K  K1  1  0.65528200  0.34471800  0.00000000  1
  Mg  Mg0  1  0.58082900  0.41917100  0.50000000  1
  H  H0  1  0.94067100  0.14403900  0.53856800  1
  H  H1  1  0.85596100  0.05932900  0.46143200  1
  H  H2  1  0.30933600  0.78354100  0.37517300  1
  H  H3  1  0.21645900  0.69066400  0.62482700  1
  I  I0  1  0.16728200  0.36406300  0.97964600  1
  I  I1  1  0.63593700  0.83271800  0.02035400  1
  I  I2  1  0.63500200  0.80793600  0.51773100  1
  I  I3  1  0.19206400  0.36499800  0.48226900  1
  O  O0  1  0.32936700  0.67063300  0.50000000  1
  O  O1  1  0.06866900  0.28951500  0.87902000  1
  O  O2  1  0.71048500  0.93133100  0.12098000  1
  O  O3  1  0.43639300  0.32102100  0.82047300  1
  O  O4  1  0.67897900  0.56360700  0.17952700  1
  O  O5  1  0.87261500  0.86241300  0.41427500  1
  O  O6  1  0.13758700  0.12738500  0.58572500  1
  O  O7  1  0.82908000  0.17092000  0.50000000  1
  O  O8  1  0.73870400  0.54300600  0.52855300  1
  O  O9  1  0.45699400  0.26129600  0.47144700  1
  O  O10  1  0.07898600  0.64204400  0.86484600  1
  O  O11  1  0.35795600  0.92101400  0.13515400  1
  O  O12  1  0.55664400  0.75366600  0.78320400  1
  O  O13  1  0.24633400  0.44335600  0.21679600  1
loop_
_geom_bond_atom_site_label_1
_geom_bond_atom_site_label_2
_geom_bond_distance
_geom_bond_site_symmetry_2
K0 O13 2.842904 1_555
K0 O12 2.842904 1_554
K0 O10 2.847899 1_554
K0 O11 2.847899 1_555
K0 O1 2.866415 1_564
K0 O2 2.866415 1_455
K0 O5 2.994479 1_455
K0 O6 2.994479 1_564
K1 O13 2.757849 1_555
K1 O12 2.757849 1_554
K1 O2 2.808971 1_545
K1 O1 2.808971 1_654
K1 O3 2.956520 1_554
K1 O4 2.956520 1_555
K1 O9 3.237329 1_555
K1 O8 3.237329 1_554
Mg0 O7 2.031177 1_555
Mg0 O0 2.057450 1_555
Mg0 O9 2.110471 1_555
Mg0 O8 2.110471 1_555
Mg0 O3 2.171284 1_555
Mg0 O4 2.171284 1_555
H0 O7 0.998233 1_555
H0 O6 1.752512 1_655
H1 O7 0.998233 1_555
H1 O5 1.752512 1_545
H2 O0 1.002468 1_555
H2 O11 1.661792 1_555
H3 O0 1.002468 1_555
H3 O10 1.661792 1_555
I0 O1 1.835085 1_555
I0 O3 1.840418 1_555
I0 O10 1.844005 1_555
I1 O2 1.835085 1_555
I1 O4 1.840418 1_555
I1 O11 1.844005 1_555
I2 O5 1.826451 1_555
I2 O12 1.837002 1_555
I2 O8 1.847702 1_555
I3 O6 1.826451 1_555
I3 O13 1.837002 1_555
I3 O9 1.847702 1_555
