# generated using pymatgen
data_Na2UI6
_symmetry_space_group_name_H-M   'P 1'
_cell_length_a   8.62888628
_cell_length_b   8.62888628
_cell_length_c   8.62888710
_cell_angle_alpha   54.62568092
_cell_angle_beta   54.62568092
_cell_angle_gamma   54.62567850
_symmetry_Int_Tables_number   1
_chemical_formula_structural   Na2UI6
_chemical_formula_sum   'Na2 U1 I6'
_cell_volume   397.41295626
_cell_formula_units_Z   1
loop_
 _symmetry_equiv_pos_site_id
 _symmetry_equiv_pos_as_xyz
  1  'x, y, z'
loop_
 _atom_site_type_symbol
 _atom_site_label
 _atom_site_symmetry_multiplicity
 _atom_site_fract_x
 _atom_site_fract_y
 _atom_site_fract_z
 _atom_site_occupancy
  Na  Na0  1  0.49845500  0.49845500  0.49845500  1
  Na  Na1  1  0.68138300  0.68138300  0.68138300  1
  U  U0  1  0.99876100  0.99876100  0.99876100  1
  I  I0  1  0.09304700  0.76981800  0.38216700  1
  I  I1  1  0.38216700  0.09304700  0.76981800  1
  I  I2  1  0.76981800  0.38216700  0.09304700  1
  I  I3  1  0.90539900  0.23929500  0.61667500  1
  I  I4  1  0.61667500  0.90539900  0.23929500  1
  I  I5  1  0.23929500  0.61667500  0.90539900  1
loop_
_geom_bond_atom_site_label_1
_geom_bond_atom_site_label_2
_geom_bond_distance
_geom_bond_site_symmetry_2
I0 U0 3.032841 1_454
I0 Na1 3.178834 1_455
I0 Na0 3.253769 1_555
I1 U0 3.032841 1_445
I1 Na1 3.178834 1_545
I1 Na0 3.253769 1_555
I2 U0 3.032841 1_544
I2 Na1 3.178834 1_554
I2 Na0 3.253769 1_555
I3 U0 3.007190 1_545
I3 Na0 3.284226 1_555
I3 Na1 3.358451 1_555
I4 U0 3.007189 1_554
I4 Na0 3.284226 1_555
I4 Na1 3.358452 1_555
I5 U0 3.007189 1_455
I5 Na0 3.284226 1_555
I5 Na1 3.358451 1_555
