# generated using pymatgen
data_Si
_symmetry_space_group_name_H-M   'P 1'
_cell_length_a   5.43112732
_cell_length_b   5.43112938
_cell_length_c   39.26156202
_cell_angle_alpha   90.00000000
_cell_angle_beta   90.00000000
_cell_angle_gamma   119.99999920
_symmetry_Int_Tables_number   1
_chemical_formula_structural   Si
_chemical_formula_sum   Si72
_cell_volume   1002.94782655
_cell_formula_units_Z   72
loop_
 _symmetry_equiv_pos_site_id
 _symmetry_equiv_pos_as_xyz
  1  'x, y, z'
loop_
 _atom_site_type_symbol
 _atom_site_label
 _atom_site_symmetry_multiplicity
 _atom_site_fract_x
 _atom_site_fract_y
 _atom_site_fract_z
 _atom_site_occupancy
  Si  Si0_0  1  0.00000000  0.00000000  0.00000000  1
  Si  Si0_1  1  0.00000000  0.00000000  0.50000000  1
  Si  Si0_2  1  0.00000000  0.50000000  0.00000000  1
  Si  Si0_3  1  0.00000000  0.50000000  0.50000000  1
  Si  Si0_4  1  0.50000000  0.00000000  0.00000000  1
  Si  Si0_5  1  0.50000000  0.00000000  0.50000000  1
  Si  Si0_6  1  0.50000000  0.50000000  0.00000000  1
  Si  Si0_7  1  0.50000000  0.50000000  0.50000000  1
  Si  Si1_0  1  0.16666650  0.33333350  0.44460417  1
  Si  Si1_1  1  0.16666650  0.33333350  0.94460417  1
  Si  Si1_2  1  0.16666650  0.83333350  0.44460417  1
  Si  Si1_3  1  0.16666650  0.83333350  0.94460417  1
  Si  Si1_4  1  0.66666650  0.33333350  0.44460417  1
  Si  Si1_5  1  0.66666650  0.33333350  0.94460417  1
  Si  Si1_6  1  0.66666650  0.83333350  0.44460417  1
  Si  Si1_7  1  0.66666650  0.83333350  0.94460417  1
  Si  Si2_0  1  0.33333350  0.16666650  0.05539583  1
  Si  Si2_1  1  0.33333350  0.16666650  0.55539583  1
  Si  Si2_2  1  0.33333350  0.66666650  0.05539583  1
  Si  Si2_3  1  0.33333350  0.66666650  0.55539583  1
  Si  Si2_4  1  0.83333350  0.16666650  0.05539583  1
  Si  Si2_5  1  0.83333350  0.16666650  0.55539583  1
  Si  Si2_6  1  0.83333350  0.66666650  0.05539583  1
  Si  Si2_7  1  0.83333350  0.66666650  0.55539583  1
  Si  Si3_0  1  0.33333350  0.16666650  0.16666650  1
  Si  Si3_1  1  0.33333350  0.16666650  0.66666650  1
  Si  Si3_2  1  0.33333350  0.66666650  0.16666650  1
  Si  Si3_3  1  0.33333350  0.66666650  0.66666650  1
  Si  Si3_4  1  0.83333350  0.16666650  0.16666650  1
  Si  Si3_5  1  0.83333350  0.16666650  0.66666650  1
  Si  Si3_6  1  0.83333350  0.66666650  0.16666650  1
  Si  Si3_7  1  0.83333350  0.66666650  0.66666650  1
  Si  Si4_0  1  0.00000000  0.00000000  0.11127067  1
  Si  Si4_1  1  0.00000000  0.00000000  0.61127067  1
  Si  Si4_2  1  0.00000000  0.50000000  0.11127067  1
  Si  Si4_3  1  0.00000000  0.50000000  0.61127067  1
  Si  Si4_4  1  0.50000000  0.00000000  0.11127067  1
  Si  Si4_5  1  0.50000000  0.00000000  0.61127067  1
  Si  Si4_6  1  0.50000000  0.50000000  0.11127067  1
  Si  Si4_7  1  0.50000000  0.50000000  0.61127067  1
  Si  Si5_0  1  0.16666650  0.33333350  0.22206283  1
  Si  Si5_1  1  0.16666650  0.33333350  0.72206283  1
  Si  Si5_2  1  0.16666650  0.83333350  0.22206283  1
  Si  Si5_3  1  0.16666650  0.83333350  0.72206283  1
  Si  Si5_4  1  0.66666650  0.33333350  0.22206283  1
  Si  Si5_5  1  0.66666650  0.33333350  0.72206283  1
  Si  Si5_6  1  0.66666650  0.83333350  0.22206283  1
  Si  Si5_7  1  0.66666650  0.83333350  0.72206283  1
  Si  Si6_0  1  0.16666650  0.33333350  0.33333350  1
  Si  Si6_1  1  0.16666650  0.33333350  0.83333350  1
  Si  Si6_2  1  0.16666650  0.83333350  0.33333350  1
  Si  Si6_3  1  0.16666650  0.83333350  0.83333350  1
  Si  Si6_4  1  0.66666650  0.33333350  0.33333350  1
  Si  Si6_5  1  0.66666650  0.33333350  0.83333350  1
  Si  Si6_6  1  0.66666650  0.83333350  0.33333350  1
  Si  Si6_7  1  0.66666650  0.83333350  0.83333350  1
  Si  Si7_0  1  0.33333350  0.16666650  0.27793717  1
  Si  Si7_1  1  0.33333350  0.16666650  0.77793717  1
  Si  Si7_2  1  0.33333350  0.66666650  0.27793717  1
  Si  Si7_3  1  0.33333350  0.66666650  0.77793717  1
  Si  Si7_4  1  0.83333350  0.16666650  0.27793717  1
  Si  Si7_5  1  0.83333350  0.16666650  0.77793717  1
  Si  Si7_6  1  0.83333350  0.66666650  0.27793717  1
  Si  Si7_7  1  0.83333350  0.66666650  0.77793717  1
  Si  Si8_0  1  0.00000000  0.00000000  0.38872933  1
  Si  Si8_1  1  0.00000000  0.00000000  0.88872933  1
  Si  Si8_2  1  0.00000000  0.50000000  0.38872933  1
  Si  Si8_3  1  0.00000000  0.50000000  0.88872933  1
  Si  Si8_4  1  0.50000000  0.00000000  0.38872933  1
  Si  Si8_5  1  0.50000000  0.00000000  0.88872933  1
  Si  Si8_6  1  0.50000000  0.50000000  0.38872933  1
  Si  Si8_7  1  0.50000000  0.50000000  0.88872933  1
loop_
_geom_bond_atom_site_label_1
_geom_bond_atom_site_label_2
_geom_bond_distance
_geom_bond_site_symmetry_2
Si0_0 Si1_3 2.681119 1_544
Si0_0 Si2_4 2.681119 1_455
Si0_0 Si1_7 2.681120 1_444
Si0_0 Si2_0 2.681120 1_555
Si0_0 Si1_1 2.681120 1_554
Si0_0 Si2_6 2.681120 1_445
Si0_0 Si0_4 2.715564 1_555
Si0_0 Si0_4 2.715564 1_455
Si0_0 Si0_6 2.715564 1_555
Si0_0 Si0_6 2.715564 1_445
Si0_0 Si0_2 2.715565 1_555
Si0_0 Si0_2 2.715565 1_545
Si0_1 Si1_2 2.681119 1_545
Si0_1 Si2_5 2.681119 1_455
Si0_1 Si1_6 2.681120 1_445
Si0_1 Si2_1 2.681120 1_555
Si0_1 Si1_0 2.681120 1_555
Si0_1 Si2_7 2.681120 1_445
Si0_1 Si0_5 2.715564 1_555
Si0_1 Si0_5 2.715564 1_455
Si0_1 Si0_7 2.715564 1_555
Si0_1 Si0_7 2.715564 1_445
Si0_1 Si0_3 2.715565 1_545
Si0_1 Si0_3 2.715565 1_555
Si0_2 Si1_1 2.681119 1_554
Si0_2 Si2_6 2.681119 1_455
Si0_2 Si1_5 2.681120 1_454
Si0_2 Si2_2 2.681120 1_555
Si0_2 Si1_3 2.681120 1_554
Si0_2 Si2_4 2.681120 1_455
Si0_2 Si0_6 2.715564 1_555
Si0_2 Si0_6 2.715564 1_455
Si0_2 Si0_4 2.715564 1_565
Si0_2 Si0_4 2.715564 1_455
Si0_3 Si1_0 2.681119 1_555
Si0_3 Si2_7 2.681119 1_455
Si0_3 Si1_4 2.681120 1_455
Si0_3 Si2_3 2.681120 1_555
Si0_3 Si1_2 2.681120 1_555
Si0_3 Si2_5 2.681120 1_455
Si0_3 Si0_7 2.715564 1_555
Si0_3 Si0_7 2.715564 1_455
Si0_3 Si0_5 2.715564 1_565
Si0_3 Si0_5 2.715564 1_455
Si0_4 Si1_7 2.681119 1_544
Si0_4 Si2_0 2.681119 1_555
Si0_4 Si1_3 2.681120 1_544
Si0_4 Si2_4 2.681120 1_555
Si0_4 Si1_5 2.681120 1_554
Si0_4 Si2_2 2.681120 1_545
Si0_4 Si0_6 2.715565 1_555
Si0_4 Si0_6 2.715565 1_545
Si0_5 Si1_6 2.681119 1_545
Si0_5 Si2_1 2.681119 1_555
Si0_5 Si1_2 2.681120 1_545
Si0_5 Si2_5 2.681120 1_555
Si0_5 Si1_4 2.681120 1_555
Si0_5 Si2_3 2.681120 1_545
Si0_5 Si0_7 2.715565 1_555
Si0_5 Si0_7 2.715565 1_545
Si0_6 Si1_5 2.681119 1_554
Si0_6 Si2_2 2.681119 1_555
Si0_6 Si1_1 2.681120 1_554
Si0_6 Si2_6 2.681120 1_555
Si0_6 Si1_7 2.681120 1_554
Si0_6 Si2_0 2.681120 1_555
Si0_7 Si1_4 2.681119 1_555
Si0_7 Si2_3 2.681119 1_555
Si0_7 Si1_0 2.681120 1_555
Si0_7 Si2_7 2.681120 1_555
Si0_7 Si1_6 2.681120 1_555
Si0_7 Si2_1 2.681120 1_555
Si1_0 Si8_2 2.696397 1_555
Si1_0 Si8_6 2.696398 1_555
Si1_0 Si8_0 2.696399 1_555
Si1_0 Si1_4 2.715564 1_555
Si1_0 Si1_4 2.715564 1_455
Si1_0 Si1_6 2.715564 1_445
Si1_0 Si1_6 2.715564 1_555
Si1_0 Si1_2 2.715565 1_545
Si1_0 Si1_2 2.715565 1_555
Si1_1 Si8_3 2.696397 1_555
Si1_1 Si8_7 2.696398 1_555
Si1_1 Si8_1 2.696399 1_555
Si1_1 Si1_5 2.715564 1_555
Si1_1 Si1_5 2.715564 1_455
Si1_1 Si1_7 2.715564 1_445
Si1_1 Si1_7 2.715564 1_555
Si1_1 Si1_3 2.715565 1_545
Si1_1 Si1_3 2.715565 1_555
Si1_2 Si8_0 2.696397 1_565
Si1_2 Si8_4 2.696398 1_565
Si1_2 Si8_2 2.696399 1_555
Si1_2 Si1_6 2.715564 1_455
Si1_2 Si1_6 2.715564 1_555
Si1_2 Si1_4 2.715564 1_565
Si1_2 Si1_4 2.715564 1_455
Si1_3 Si8_1 2.696397 1_565
Si1_3 Si8_5 2.696398 1_565
Si1_3 Si8_3 2.696399 1_555
Si1_3 Si1_7 2.715564 1_455
Si1_3 Si1_7 2.715564 1_555
Si1_3 Si1_5 2.715564 1_565
Si1_3 Si1_5 2.715564 1_455
Si1_4 Si8_6 2.696397 1_555
Si1_4 Si8_2 2.696398 1_655
Si1_4 Si8_4 2.696399 1_555
Si1_4 Si1_6 2.715565 1_555
Si1_4 Si1_6 2.715565 1_545
Si1_5 Si8_7 2.696397 1_555
Si1_5 Si8_3 2.696398 1_655
Si1_5 Si8_5 2.696399 1_555
Si1_5 Si1_7 2.715565 1_555
Si1_5 Si1_7 2.715565 1_545
Si1_6 Si8_4 2.696397 1_565
Si1_6 Si8_0 2.696398 1_665
Si1_6 Si8_6 2.696399 1_555
Si1_7 Si8_5 2.696397 1_565
Si1_7 Si8_1 2.696398 1_665
Si1_7 Si8_7 2.696399 1_555
Si2_0 Si4_4 2.696397 1_555
Si2_0 Si4_0 2.696398 1_555
Si2_0 Si4_6 2.696399 1_555
Si2_0 Si2_4 2.715564 1_555
Si2_0 Si2_4 2.715564 1_455
Si2_0 Si2_6 2.715564 1_555
Si2_0 Si2_6 2.715564 1_445
Si2_0 Si2_2 2.715565 1_555
Si2_0 Si2_2 2.715565 1_545
Si2_1 Si4_5 2.696397 1_555
Si2_1 Si4_1 2.696398 1_555
Si2_1 Si4_7 2.696399 1_555
Si2_1 Si2_5 2.715564 1_455
Si2_1 Si2_5 2.715564 1_555
Si2_1 Si2_7 2.715564 1_555
Si2_1 Si2_7 2.715564 1_445
Si2_1 Si2_3 2.715565 1_555
Si2_1 Si2_3 2.715565 1_545
Si2_2 Si4_6 2.696397 1_555
Si2_2 Si4_2 2.696398 1_555
Si2_2 Si4_4 2.696399 1_565
Si2_2 Si2_6 2.715564 1_555
Si2_2 Si2_6 2.715564 1_455
Si2_2 Si2_4 2.715564 1_455
Si2_2 Si2_4 2.715564 1_565
Si2_3 Si4_7 2.696397 1_555
Si2_3 Si4_3 2.696398 1_555
Si2_3 Si4_5 2.696399 1_565
Si2_3 Si2_7 2.715564 1_455
Si2_3 Si2_7 2.715564 1_555
Si2_3 Si2_5 2.715564 1_565
Si2_3 Si2_5 2.715564 1_455
Si2_4 Si4_0 2.696397 1_655
Si2_4 Si4_4 2.696398 1_555
Si2_4 Si4_2 2.696399 1_655
Si2_4 Si2_6 2.715565 1_555
Si2_4 Si2_6 2.715565 1_545
Si2_5 Si4_1 2.696397 1_655
Si2_5 Si4_5 2.696398 1_555
Si2_5 Si4_3 2.696399 1_655
Si2_5 Si2_7 2.715565 1_555
Si2_5 Si2_7 2.715565 1_545
Si2_6 Si4_2 2.696397 1_655
Si2_6 Si4_6 2.696398 1_555
Si2_6 Si4_0 2.696399 1_665
Si2_7 Si4_3 2.696397 1_655
Si2_7 Si4_7 2.696398 1_555
Si2_7 Si4_1 2.696399 1_665
Si3_0 Si4_4 2.681119 1_555
Si3_0 Si4_0 2.681120 1_555
Si3_0 Si4_6 2.681120 1_555
Si3_0 Si5_4 2.681135 1_555
Si3_0 Si5_2 2.681135 1_545
Si3_0 Si5_0 2.681137 1_555
Si3_0 Si3_4 2.715564 1_455
Si3_0 Si3_4 2.715564 1_555
Si3_0 Si3_6 2.715564 1_445
Si3_0 Si3_6 2.715564 1_555
Si3_0 Si3_2 2.715565 1_555
Si3_0 Si3_2 2.715565 1_545
Si3_1 Si4_5 2.681119 1_555
Si3_1 Si4_1 2.681120 1_555
Si3_1 Si4_7 2.681120 1_555
Si3_1 Si5_5 2.681135 1_555
Si3_1 Si5_3 2.681135 1_545
Si3_1 Si5_1 2.681137 1_555
Si3_1 Si3_5 2.715564 1_455
Si3_1 Si3_5 2.715564 1_555
Si3_1 Si3_7 2.715564 1_555
Si3_1 Si3_7 2.715564 1_445
Si3_1 Si3_3 2.715565 1_555
Si3_1 Si3_3 2.715565 1_545
Si3_2 Si4_6 2.681119 1_555
Si3_2 Si4_2 2.681120 1_555
Si3_2 Si4_4 2.681120 1_565
Si3_2 Si5_6 2.681135 1_555
Si3_2 Si5_0 2.681135 1_555
Si3_2 Si5_2 2.681137 1_555
Si3_2 Si3_6 2.715564 1_455
Si3_2 Si3_6 2.715564 1_555
Si3_2 Si3_4 2.715564 1_455
Si3_2 Si3_4 2.715564 1_565
Si3_3 Si4_7 2.681119 1_555
Si3_3 Si4_3 2.681120 1_555
Si3_3 Si4_5 2.681120 1_565
Si3_3 Si5_7 2.681135 1_555
Si3_3 Si5_1 2.681135 1_555
Si3_3 Si5_3 2.681137 1_555
Si3_3 Si3_7 2.715564 1_555
Si3_3 Si3_7 2.715564 1_455
Si3_3 Si3_5 2.715564 1_455
Si3_3 Si3_5 2.715564 1_565
Si3_4 Si4_0 2.681119 1_655
Si3_4 Si4_4 2.681120 1_555
Si3_4 Si4_2 2.681120 1_655
Si3_4 Si5_0 2.681135 1_655
Si3_4 Si5_6 2.681135 1_545
Si3_4 Si5_4 2.681137 1_555
Si3_4 Si3_6 2.715565 1_555
Si3_4 Si3_6 2.715565 1_545
Si3_5 Si4_1 2.681119 1_655
Si3_5 Si4_5 2.681120 1_555
Si3_5 Si4_3 2.681120 1_655
Si3_5 Si5_1 2.681135 1_655
Si3_5 Si5_7 2.681135 1_545
Si3_5 Si5_5 2.681137 1_555
Si3_5 Si3_7 2.715565 1_555
Si3_5 Si3_7 2.715565 1_545
Si3_6 Si4_2 2.681119 1_655
Si3_6 Si4_6 2.681120 1_555
Si3_6 Si4_0 2.681120 1_665
Si3_6 Si5_2 2.681135 1_655
Si3_6 Si5_4 2.681135 1_555
Si3_6 Si5_6 2.681137 1_555
Si3_7 Si4_3 2.681119 1_655
Si3_7 Si4_7 2.681120 1_555
Si3_7 Si4_1 2.681120 1_665
Si3_7 Si5_3 2.681135 1_655
Si3_7 Si5_5 2.681135 1_555
Si3_7 Si5_7 2.681137 1_555
Si4_0 Si4_4 2.715564 1_555
Si4_0 Si4_4 2.715564 1_455
Si4_0 Si4_6 2.715564 1_445
Si4_0 Si4_6 2.715564 1_555
Si4_0 Si4_2 2.715565 1_545
Si4_0 Si4_2 2.715565 1_555
Si4_1 Si4_5 2.715564 1_555
Si4_1 Si4_5 2.715564 1_455
Si4_1 Si4_7 2.715564 1_555
Si4_1 Si4_7 2.715564 1_445
Si4_1 Si4_3 2.715565 1_555
Si4_1 Si4_3 2.715565 1_545
Si4_2 Si4_6 2.715564 1_555
Si4_2 Si4_6 2.715564 1_455
Si4_2 Si4_4 2.715564 1_565
Si4_2 Si4_4 2.715564 1_455
Si4_3 Si4_7 2.715564 1_555
Si4_3 Si4_7 2.715564 1_455
Si4_3 Si4_5 2.715564 1_565
Si4_3 Si4_5 2.715564 1_455
Si4_4 Si4_6 2.715565 1_545
Si4_4 Si4_6 2.715565 1_555
Si4_5 Si4_7 2.715565 1_545
Si4_5 Si4_7 2.715565 1_555
Si5_0 Si7_4 2.696381 1_455
Si5_0 Si7_2 2.696381 1_555
Si5_0 Si7_0 2.696384 1_555
Si5_0 Si5_4 2.715564 1_555
Si5_0 Si5_4 2.715564 1_455
Si5_0 Si5_6 2.715564 1_445
Si5_0 Si5_6 2.715564 1_555
Si5_0 Si5_2 2.715565 1_545
Si5_0 Si5_2 2.715565 1_555
Si5_1 Si7_5 2.696381 1_455
Si5_1 Si7_3 2.696381 1_555
Si5_1 Si7_1 2.696384 1_555
Si5_1 Si5_5 2.715564 1_555
Si5_1 Si5_5 2.715564 1_455
Si5_1 Si5_7 2.715564 1_445
Si5_1 Si5_7 2.715564 1_555
Si5_1 Si5_3 2.715565 1_545
Si5_1 Si5_3 2.715565 1_555
Si5_2 Si7_6 2.696381 1_455
Si5_2 Si7_0 2.696381 1_565
Si5_2 Si7_2 2.696384 1_555
Si5_2 Si5_6 2.715564 1_455
Si5_2 Si5_6 2.715564 1_555
Si5_2 Si5_4 2.715564 1_565
Si5_2 Si5_4 2.715564 1_455
Si5_3 Si7_7 2.696381 1_455
Si5_3 Si7_1 2.696381 1_565
Si5_3 Si7_3 2.696384 1_555
Si5_3 Si5_7 2.715564 1_455
Si5_3 Si5_7 2.715564 1_555
Si5_3 Si5_5 2.715564 1_565
Si5_3 Si5_5 2.715564 1_455
Si5_4 Si7_0 2.696381 1_555
Si5_4 Si7_6 2.696381 1_555
Si5_4 Si7_4 2.696384 1_555
Si5_4 Si5_6 2.715565 1_555
Si5_4 Si5_6 2.715565 1_545
Si5_5 Si7_1 2.696381 1_555
Si5_5 Si7_7 2.696381 1_555
Si5_5 Si7_5 2.696384 1_555
Si5_5 Si5_7 2.715565 1_555
Si5_5 Si5_7 2.715565 1_545
Si5_6 Si7_2 2.696381 1_555
Si5_6 Si7_4 2.696381 1_565
Si5_6 Si7_6 2.696384 1_555
Si5_7 Si7_3 2.696381 1_555
Si5_7 Si7_5 2.696381 1_565
Si5_7 Si7_7 2.696384 1_555
Si6_0 Si8_2 2.681119 1_555
Si6_0 Si8_6 2.681120 1_555
Si6_0 Si8_0 2.681120 1_555
Si6_0 Si7_4 2.681135 1_455
Si6_0 Si7_2 2.681135 1_555
Si6_0 Si7_0 2.681137 1_555
Si6_0 Si6_4 2.715564 1_555
Si6_0 Si6_4 2.715564 1_455
Si6_0 Si6_6 2.715564 1_445
Si6_0 Si6_6 2.715564 1_555
Si6_0 Si6_2 2.715565 1_545
Si6_0 Si6_2 2.715565 1_555
Si6_1 Si8_3 2.681119 1_555
Si6_1 Si8_7 2.681120 1_555
Si6_1 Si8_1 2.681120 1_555
Si6_1 Si7_5 2.681135 1_455
Si6_1 Si7_3 2.681135 1_555
Si6_1 Si7_1 2.681137 1_555
Si6_1 Si6_5 2.715564 1_555
Si6_1 Si6_5 2.715564 1_455
Si6_1 Si6_7 2.715564 1_445
Si6_1 Si6_7 2.715564 1_555
Si6_1 Si6_3 2.715565 1_545
Si6_1 Si6_3 2.715565 1_555
Si6_2 Si8_0 2.681119 1_565
Si6_2 Si8_4 2.681120 1_565
Si6_2 Si8_2 2.681120 1_555
Si6_2 Si7_6 2.681135 1_455
Si6_2 Si7_0 2.681135 1_565
Si6_2 Si7_2 2.681137 1_555
Si6_2 Si6_6 2.715564 1_455
Si6_2 Si6_6 2.715564 1_555
Si6_2 Si6_4 2.715564 1_565
Si6_2 Si6_4 2.715564 1_455
Si6_3 Si8_1 2.681119 1_565
Si6_3 Si8_5 2.681120 1_565
Si6_3 Si8_3 2.681120 1_555
Si6_3 Si7_7 2.681135 1_455
Si6_3 Si7_1 2.681135 1_565
Si6_3 Si7_3 2.681137 1_555
Si6_3 Si6_7 2.715564 1_455
Si6_3 Si6_7 2.715564 1_555
Si6_3 Si6_5 2.715564 1_565
Si6_3 Si6_5 2.715564 1_455
Si6_4 Si8_6 2.681119 1_555
Si6_4 Si8_2 2.681120 1_655
Si6_4 Si8_4 2.681120 1_555
Si6_4 Si7_0 2.681135 1_555
Si6_4 Si7_6 2.681135 1_555
Si6_4 Si7_4 2.681137 1_555
Si6_4 Si6_6 2.715565 1_555
Si6_4 Si6_6 2.715565 1_545
Si6_5 Si8_7 2.681119 1_555
Si6_5 Si8_3 2.681120 1_655
Si6_5 Si8_5 2.681120 1_555
Si6_5 Si7_1 2.681135 1_555
Si6_5 Si7_7 2.681135 1_555
Si6_5 Si7_5 2.681137 1_555
Si6_5 Si6_7 2.715565 1_555
Si6_5 Si6_7 2.715565 1_545
Si6_6 Si8_4 2.681119 1_565
Si6_6 Si8_0 2.681120 1_665
Si6_6 Si8_6 2.681120 1_555
Si6_6 Si7_2 2.681135 1_555
Si6_6 Si7_4 2.681135 1_565
Si6_6 Si7_6 2.681137 1_555
Si6_7 Si8_5 2.681119 1_565
Si6_7 Si8_1 2.681120 1_665
Si6_7 Si8_7 2.681120 1_555
Si6_7 Si7_3 2.681135 1_555
Si6_7 Si7_5 2.681135 1_565
Si6_7 Si7_7 2.681137 1_555
Si7_0 Si7_4 2.715564 1_555
Si7_0 Si7_4 2.715564 1_455
Si7_0 Si7_6 2.715564 1_445
Si7_0 Si7_6 2.715564 1_555
Si7_0 Si7_2 2.715565 1_555
Si7_0 Si7_2 2.715565 1_545
Si7_1 Si7_5 2.715564 1_555
Si7_1 Si7_5 2.715564 1_455
Si7_1 Si7_7 2.715564 1_445
Si7_1 Si7_7 2.715564 1_555
Si7_1 Si7_3 2.715565 1_555
Si7_1 Si7_3 2.715565 1_545
Si7_2 Si7_6 2.715564 1_455
Si7_2 Si7_6 2.715564 1_555
Si7_2 Si7_4 2.715564 1_455
Si7_2 Si7_4 2.715564 1_565
Si7_3 Si7_7 2.715564 1_555
Si7_3 Si7_7 2.715564 1_455
Si7_3 Si7_5 2.715564 1_565
Si7_3 Si7_5 2.715564 1_455
Si7_4 Si7_6 2.715565 1_555
Si7_4 Si7_6 2.715565 1_545
Si7_5 Si7_7 2.715565 1_555
Si7_5 Si7_7 2.715565 1_545
Si8_0 Si8_4 2.715564 1_555
Si8_0 Si8_4 2.715564 1_455
Si8_0 Si8_6 2.715564 1_445
Si8_0 Si8_6 2.715564 1_555
Si8_0 Si8_2 2.715565 1_555
Si8_0 Si8_2 2.715565 1_545
Si8_1 Si8_5 2.715564 1_555
Si8_1 Si8_5 2.715564 1_455
Si8_1 Si8_7 2.715564 1_445
Si8_1 Si8_7 2.715564 1_555
Si8_1 Si8_3 2.715565 1_545
Si8_1 Si8_3 2.715565 1_555
Si8_2 Si8_6 2.715564 1_555
Si8_2 Si8_6 2.715564 1_455
Si8_2 Si8_4 2.715564 1_565
Si8_2 Si8_4 2.715564 1_455
Si8_3 Si8_7 2.715564 1_555
Si8_3 Si8_7 2.715564 1_455
Si8_3 Si8_5 2.715564 1_565
Si8_3 Si8_5 2.715564 1_455
Si8_4 Si8_6 2.715565 1_555
Si8_4 Si8_6 2.715565 1_545
Si8_5 Si8_7 2.715565 1_545
Si8_5 Si8_7 2.715565 1_555
