# generated using pymatgen
data_NaHoTi2O6
_symmetry_space_group_name_H-M   'P 1'
_cell_length_a   5.31843100
_cell_length_b   5.54303400
_cell_length_c   7.62179400
_cell_angle_alpha   90.00000000
_cell_angle_beta   90.00000000
_cell_angle_gamma   90.00000000
_symmetry_Int_Tables_number   1
_chemical_formula_structural   NaHoTi2O6
_chemical_formula_sum   'Na2 Ho2 Ti4 O12'
_cell_volume   224.69234577
_cell_formula_units_Z   2
loop_
 _symmetry_equiv_pos_site_id
 _symmetry_equiv_pos_as_xyz
  1  'x, y, z'
loop_
 _atom_site_type_symbol
 _atom_site_label
 _atom_site_symmetry_multiplicity
 _atom_site_fract_x
 _atom_site_fract_y
 _atom_site_fract_z
 _atom_site_occupancy
  Na  Na0  1  0.49511400  0.71557700  0.50000000  1
  Na  Na1  1  0.99511400  0.28442300  0.00000000  1
  Ho  Ho0  1  0.01790600  0.17713600  0.50000000  1
  Ho  Ho1  1  0.51790600  0.82286400  0.00000000  1
  Ti  Ti0  1  0.51342300  0.26624900  0.75288300  1
  Ti  Ti1  1  0.01342300  0.73375100  0.25288300  1
  Ti  Ti2  1  0.51342300  0.26624900  0.24711700  1
  Ti  Ti3  1  0.01342300  0.73375100  0.74711700  1
  O  O0  1  0.18925400  0.44289000  0.69636600  1
  O  O1  1  0.27758000  0.96356400  0.29095500  1
  O  O2  1  0.77758000  0.03643600  0.20904500  1
  O  O3  1  0.68925400  0.55711000  0.80363400  1
  O  O4  1  0.77758000  0.03643600  0.79095500  1
  O  O5  1  0.68925400  0.55711000  0.19636600  1
  O  O6  1  0.18925400  0.44289000  0.30363400  1
  O  O7  1  0.27758000  0.96356400  0.70904500  1
  O  O8  1  0.92149300  0.77395700  0.50000000  1
  O  O9  1  0.60497300  0.27701800  0.50000000  1
  O  O10  1  0.10497300  0.72298200  0.00000000  1
  O  O11  1  0.42149300  0.22604300  0.00000000  1
loop_
_geom_bond_atom_site_label_1
_geom_bond_atom_site_label_2
_geom_bond_distance
_geom_bond_site_symmetry_2
Na0 O8 2.290640 1_555
Na0 O7 2.401382 1_555
Na0 O1 2.401382 1_555
Na0 O9 2.500177 1_555
Na0 O0 2.677836 1_555
Na0 O6 2.677836 1_555
Na0 O3 2.682042 1_555
Na0 O5 2.682042 1_555
Na1 O11 2.290640 1_655
Na1 O2 2.401382 1_555
Na1 O4 2.401382 1_554
Na1 O10 2.500177 1_655
Na1 O5 2.677836 1_555
Na1 O3 2.677836 1_554
Na1 O6 2.682042 1_655
Na1 O0 2.682042 1_654
Ho0 O9 2.264868 1_455
Ho0 O0 2.289201 1_555
Ho0 O6 2.289201 1_555
Ho0 O8 2.292906 1_445
Ho0 O7 2.418138 1_545
Ho0 O1 2.418138 1_545
Ho0 O4 2.675758 1_455
Ho0 O2 2.675758 1_455
Ho1 O10 2.264868 1_555
Ho1 O5 2.289201 1_555
Ho1 O3 2.289201 1_554
Ho1 O11 2.292906 1_565
Ho1 O2 2.418138 1_565
Ho1 O4 2.418138 1_564
Ho1 O1 2.675758 1_555
Ho1 O7 2.675758 1_554
O0 Ti3 1.903544 1_555
O0 Ti0 2.028956 1_555
O1 Ti1 1.918508 1_555
O1 Ti2 2.121305 1_565
O2 Ti2 1.918508 1_555
O2 Ti1 2.121305 1_645
O3 Ti0 1.903544 1_555
O3 Ti3 2.028956 1_655
O4 Ti0 1.918508 1_555
O4 Ti3 2.121305 1_645
O5 Ti2 1.903544 1_555
O5 Ti1 2.028956 1_655
O6 Ti1 1.903544 1_555
O6 Ti2 2.028956 1_555
O7 Ti3 1.918508 1_555
O7 Ti0 2.121305 1_565
O8 Ti3 1.958620 1_655
O8 Ti1 1.958620 1_655
O9 Ti0 1.988867 1_555
O9 Ti2 1.988867 1_555
O10 Ti1 1.988867 1_555
O10 Ti3 1.988867 1_554
O11 Ti2 1.958620 1_555
O11 Ti0 1.958620 1_554
