# generated using pymatgen
data_ThCo2Ni3
_symmetry_space_group_name_H-M   'P 1'
_cell_length_a   4.98926686
_cell_length_b   4.98926686
_cell_length_c   4.02136300
_cell_angle_alpha   90.00000000
_cell_angle_beta   90.00000000
_cell_angle_gamma   122.10563250
_symmetry_Int_Tables_number   1
_chemical_formula_structural   ThCo2Ni3
_chemical_formula_sum   'Th1 Co2 Ni3'
_cell_volume   84.79414801
_cell_formula_units_Z   1
loop_
 _symmetry_equiv_pos_site_id
 _symmetry_equiv_pos_as_xyz
  1  'x, y, z'
loop_
 _atom_site_type_symbol
 _atom_site_label
 _atom_site_symmetry_multiplicity
 _atom_site_fract_x
 _atom_site_fract_y
 _atom_site_fract_z
 _atom_site_occupancy
  Th  Th0  1  0.50000000  0.50000000  0.00000000  1
  Co  Co0  1  0.00000000  0.50000000  0.50000000  1
  Co  Co1  1  0.50000000  0.00000000  0.50000000  1
  Ni  Ni0  1  0.00000000  0.00000000  0.50000000  1
  Ni  Ni1  1  0.16818000  0.83182000  0.00000000  1
  Ni  Ni2  1  0.83182000  0.16818000  0.00000000  1
loop_
_geom_bond_atom_site_label_1
_geom_bond_atom_site_label_2
_geom_bond_distance
_geom_bond_site_symmetry_2
Co0 Co1 2.414821 1_455
Co0 Co1 2.414821 1_565
Co0 Ni2 2.451756 1_455
Co0 Ni2 2.451756 1_456
Co0 Ni1 2.451756 1_555
Co0 Ni1 2.451756 1_556
Co0 Ni0 2.494633 1_555
Co0 Ni0 2.494633 1_565
Co0 Th0 3.204066 1_455
Co0 Th0 3.204066 1_456
Co0 Th0 3.204066 1_555
Co0 Th0 3.204066 1_556
Co1 Ni1 2.451756 1_546
Co1 Ni1 2.451756 1_545
Co1 Ni2 2.451756 1_556
Co1 Ni2 2.451756 1_555
Co1 Ni0 2.494633 1_655
Co1 Ni0 2.494633 1_555
Co1 Th0 3.204066 1_555
Co1 Th0 3.204066 1_556
Co1 Th0 3.204066 1_545
Co1 Th0 3.204066 1_546
Ni0 Ni1 2.489862 1_545
Ni0 Ni1 2.489862 1_546
Ni0 Ni2 2.489862 1_456
Ni0 Ni2 2.489862 1_455
Ni0 Th0 3.142324 1_556
Ni0 Th0 3.142324 1_445
Ni0 Th0 3.142324 1_446
Ni0 Th0 3.142324 1_555
Ni1 Ni2 2.805899 1_455
Ni1 Ni2 2.805899 1_565
Ni1 Th0 2.826293 1_565
Ni1 Th0 2.826293 1_455
Ni1 Th0 2.897412 1_555
Ni1 Ni2 2.937054 1_465
Ni2 Th0 2.826293 1_655
Ni2 Th0 2.826293 1_545
Ni2 Th0 2.897412 1_555
