# generated using pymatgen
data_Rb2MgNb2(TeO6)2
_symmetry_space_group_name_H-M   'P 1'
_cell_length_a   7.61644452
_cell_length_b   7.61977420
_cell_length_c   7.44045191
_cell_angle_alpha   90.00000000
_cell_angle_beta   60.76147197
_cell_angle_gamma   122.17577359
_symmetry_Int_Tables_number   1
_chemical_formula_structural   Rb2MgNb2(TeO6)2
_chemical_formula_sum   'Rb2 Mg1 Nb2 Te2 O12'
_cell_volume   298.49482946
_cell_formula_units_Z   1
loop_
 _symmetry_equiv_pos_site_id
 _symmetry_equiv_pos_as_xyz
  1  'x, y, z'
loop_
 _atom_site_type_symbol
 _atom_site_label
 _atom_site_symmetry_multiplicity
 _atom_site_fract_x
 _atom_site_fract_y
 _atom_site_fract_z
 _atom_site_occupancy
  Rb  Rb0  1  0.85356600  0.33397500  0.32321700  1
  Rb  Rb1  1  0.14643400  0.66602500  0.67678300  1
  Mg  Mg0  1  0.50000000  0.50000000  0.50000000  1
  Nb  Nb0  1  0.50000000  0.50000000  0.00000000  1
  Nb  Nb1  1  0.50000000  0.00000000  0.00000000  1
  Te  Te0  1  0.00000000  0.00000000  0.50000000  1
  Te  Te1  1  0.00000000  0.00000000  0.00000000  1
  O  O0  1  0.81187500  0.87910500  0.34406300  1
  O  O1  1  0.61256200  0.31164500  0.94371900  1
  O  O2  1  0.24734100  0.93371000  0.93392600  1
  O  O3  1  0.25335500  0.33124700  0.32790000  1
  O  O4  1  0.25335500  0.33124700  0.91874500  1
  O  O5  1  0.24734100  0.93371000  0.31873300  1
  O  O6  1  0.18812500  0.12089500  0.65593700  1
  O  O7  1  0.38743800  0.68835500  0.05628100  1
  O  O8  1  0.75265900  0.06629000  0.06607400  1
  O  O9  1  0.74664500  0.66875300  0.67210000  1
  O  O10  1  0.74664500  0.66875300  0.08125500  1
  O  O11  1  0.75265900  0.06629000  0.68126700  1
loop_
_geom_bond_atom_site_label_1
_geom_bond_atom_site_label_2
_geom_bond_distance
_geom_bond_site_symmetry_2
Mg0 O0 2.309286 1_555
Mg0 O6 2.309286 1_555
Mg0 O4 2.568920 1_555
Mg0 O10 2.568920 1_555
Mg0 O9 2.568920 1_555
Mg0 O3 2.568920 1_555
Mg0 Rb0 3.278776 1_555
Mg0 Rb1 3.278776 1_555
Nb0 O7 1.982418 1_555
Nb0 O1 1.982418 1_554
Nb0 O9 2.021076 1_554
Nb0 O10 2.021076 1_555
Nb0 O3 2.021076 1_555
Nb0 O4 2.021076 1_554
Nb1 O1 2.007590 1_554
Nb1 O7 2.007590 1_545
Nb1 O11 2.022118 1_554
Nb1 O8 2.022118 1_555
Nb1 O5 2.022118 1_545
Nb1 O2 2.022118 1_544
O0 Te0 2.113305 1_665
O0 Te1 2.113312 1_665
O0 Rb0 3.304211 1_565
O1 Rb1 2.861272 1_655
O2 Te1 2.038250 1_566
O2 Rb1 2.859809 1_555
O3 Te0 2.032946 1_555
O3 Rb0 3.073199 1_455
O4 Te1 2.032946 1_556
O4 Rb0 3.073199 1_456
O5 Te0 2.038250 1_565
O5 Rb1 2.859809 1_555
O6 Te0 2.113305 1_555
O6 Te1 2.113312 1_556
O6 Rb1 3.304211 1_545
O7 Rb0 2.861272 1_455
O8 Te1 2.038250 1_655
O8 Rb0 2.859809 1_555
O9 Te0 2.032946 1_665
O9 Rb1 3.073199 1_655
O10 Te1 2.032946 1_665
O10 Rb1 3.073199 1_654
O11 Te0 2.038250 1_655
O11 Rb0 2.859809 1_555
