# generated using pymatgen
data_Sr2CaAlO4F
_symmetry_space_group_name_H-M   'P 1'
_cell_length_a   6.71475344
_cell_length_b   6.71475344
_cell_length_c   7.25903671
_cell_angle_alpha   63.24264561
_cell_angle_beta   63.24264561
_cell_angle_gamma   91.52351155
_symmetry_Int_Tables_number   1
_chemical_formula_structural   Sr2CaAlO4F
_chemical_formula_sum   'Sr4 Ca2 Al2 O8 F2'
_cell_volume   249.93230555
_cell_formula_units_Z   2
loop_
 _symmetry_equiv_pos_site_id
 _symmetry_equiv_pos_as_xyz
  1  'x, y, z'
loop_
 _atom_site_type_symbol
 _atom_site_label
 _atom_site_symmetry_multiplicity
 _atom_site_fract_x
 _atom_site_fract_y
 _atom_site_fract_z
 _atom_site_occupancy
  Sr  Sr0  1  0.25000000  0.25000000  0.50000000  1
  Sr  Sr1  1  0.75000000  0.75000000  0.50000000  1
  Sr  Sr2  1  0.83175300  0.66824700  0.00000000  1
  Sr  Sr3  1  0.16824700  0.33175300  0.00000000  1
  Ca  Ca0  1  0.66982900  0.16982900  0.00000000  1
  Ca  Ca1  1  0.33017100  0.83017100  0.00000000  1
  Al  Al0  1  0.75017100  0.25017100  0.49965700  1
  Al  Al1  1  0.24982900  0.74982900  0.50034300  1
  O  O0  1  0.21425400  0.99471500  0.29103200  1
  O  O1  1  0.49471500  0.71425400  0.29103200  1
  O  O2  1  0.00174600  0.50174600  0.29065300  1
  O  O3  1  0.70760100  0.20760100  0.29065300  1
  O  O4  1  0.78574600  0.00528500  0.70896800  1
  O  O5  1  0.50528500  0.28574600  0.70896800  1
  O  O6  1  0.99825400  0.49825400  0.70934700  1
  O  O7  1  0.29239900  0.79239900  0.70934700  1
  F  F0  1  0.50000000  0.50000000  0.00000000  1
  F  F1  1  0.00000000  0.00000000  0.00000000  1
loop_
_geom_bond_atom_site_label_1
_geom_bond_atom_site_label_2
_geom_bond_distance
_geom_bond_site_symmetry_2
Ca0 O3 2.353811 1_555
Ca0 O6 2.353811 1_554
Ca0 F1 2.519925 1_655
Ca0 F0 2.519925 1_555
Ca0 O1 2.637523 1_545
Ca0 O0 2.637523 1_545
Ca0 O4 2.637528 1_554
Ca0 O5 2.637528 1_554
Ca1 O7 2.353811 1_554
Ca1 O2 2.353811 1_555
Ca1 F1 2.519925 1_565
Ca1 F0 2.519925 1_555
Ca1 O4 2.637523 1_564
Ca1 O5 2.637523 1_564
Ca1 O1 2.637528 1_555
Ca1 O0 2.637528 1_555
Al0 O5 1.779766 1_555
Al0 O4 1.779766 1_555
Al0 O3 1.800517 1_555
Al0 O2 1.800524 1_655
Al1 O1 1.779766 1_555
Al1 O0 1.779766 1_555
Al1 O7 1.800517 1_555
Al1 O6 1.800524 1_455
O0 Sr3 2.449511 1_565
O0 Sr0 2.818565 1_565
O0 Sr1 2.818573 1_455
O1 Sr2 2.449511 1_555
O1 Sr1 2.818565 1_555
O1 Sr0 2.818573 1_555
O2 Sr2 2.667734 1_455
O2 Sr3 2.667734 1_555
O2 Sr0 2.839608 1_555
O2 Sr1 2.839608 1_455
O3 Sr3 2.667734 1_655
O3 Sr2 2.667734 1_555
O3 Sr1 2.839609 1_545
O3 Sr0 2.839609 1_555
O4 Sr2 2.449511 1_546
O4 Sr1 2.818565 1_545
O4 Sr0 2.818573 1_655
O5 Sr3 2.449511 1_556
O5 Sr0 2.818565 1_555
O5 Sr1 2.818573 1_555
O6 Sr3 2.667734 1_656
O6 Sr2 2.667734 1_556
O6 Sr1 2.839608 1_555
O6 Sr0 2.839608 1_655
O7 Sr2 2.667734 1_456
O7 Sr3 2.667734 1_556
O7 Sr0 2.839609 1_565
O7 Sr1 2.839609 1_555
F0 Sr2 2.470802 1_555
F0 Sr3 2.470802 1_555
F0 Sr0 2.772591 1_555
F0 Sr1 2.772591 1_554
F1 Sr3 2.470802 1_555
F1 Sr2 2.470802 1_445
F1 Sr0 2.772591 1_554
F1 Sr1 2.772591 1_445
