# generated using pymatgen
data_Ho4CdIr
_symmetry_space_group_name_H-M   'P 1'
_cell_length_a   9.53645847
_cell_length_b   9.53646902
_cell_length_c   9.53640632
_cell_angle_alpha   59.99972293
_cell_angle_beta   59.99969284
_cell_angle_gamma   59.99998722
_symmetry_Int_Tables_number   1
_chemical_formula_structural   Ho4CdIr
_chemical_formula_sum   'Ho16 Cd4 Ir4'
_cell_volume   613.25699908
_cell_formula_units_Z   4
loop_
 _symmetry_equiv_pos_site_id
 _symmetry_equiv_pos_as_xyz
  1  'x, y, z'
loop_
 _atom_site_type_symbol
 _atom_site_label
 _atom_site_symmetry_multiplicity
 _atom_site_fract_x
 _atom_site_fract_y
 _atom_site_fract_z
 _atom_site_occupancy
  Ho  Ho0  1  0.59882338  0.59882404  0.59882793  1
  Ho  Ho1  1  0.59882470  0.59882647  0.20352439  1
  Ho  Ho2  1  0.59882796  0.20351619  0.59883047  1
  Ho  Ho3  1  0.20351552  0.59882583  0.59883251  1
  Ho  Ho4  1  0.05951976  0.44047994  0.44048148  1
  Ho  Ho5  1  0.44047963  0.05952264  0.05952284  1
  Ho  Ho6  1  0.44047996  0.05952061  0.44048141  1
  Ho  Ho7  1  0.05952254  0.44047919  0.05952256  1
  Ho  Ho8  1  0.44048047  0.44048135  0.05952060  1
  Ho  Ho9  1  0.05952031  0.05952097  0.44048156  1
  Ho  Ho10  1  0.18834213  0.81165632  0.81166132  1
  Ho  Ho11  1  0.81165791  0.18834227  0.18834400  1
  Ho  Ho12  1  0.81165654  0.18834430  0.81165828  1
  Ho  Ho13  1  0.18833983  0.81165957  0.18834324  1
  Ho  Ho14  1  0.81165709  0.81165673  0.18834465  1
  Ho  Ho15  1  0.18834365  0.18834133  0.81165914  1
  Cd  Cd0  1  0.83046611  0.83046789  0.83045103  1
  Cd  Cd1  1  0.83046792  0.83044796  0.50861804  1
  Cd  Cd2  1  0.83046430  0.50861023  0.83046399  1
  Cd  Cd3  1  0.50861721  0.83046900  0.83045054  1
  Ir  Ir0  1  0.39133085  0.39133781  0.39132527  1
  Ir  Ir1  1  0.39132446  0.39133005  0.82600771  1
  Ir  Ir2  1  0.39133217  0.82600926  0.39132465  1
  Ir  Ir3  1  0.82600761  0.39133304  0.39132337  1
loop_
_geom_bond_atom_site_label_1
_geom_bond_atom_site_label_2
_geom_bond_distance
_geom_bond_site_symmetry_2
Ho0 Ir1 2.804695 1_555
Ho0 Ir2 2.804714 1_555
Ho0 Ir3 2.804720 1_555
Ho1 Ir3 2.804633 1_555
Ho1 Ir0 2.804634 1_555
Ho1 Ir2 2.804641 1_555
Ho2 Ir1 2.804686 1_555
Ho2 Ir3 2.804720 1_555
Ho2 Ir0 2.804761 1_555
Ho3 Ir1 2.804640 1_555
Ho3 Ir0 2.804716 1_555
Ho3 Ir2 2.804746 1_555
Ho4 Ir0 2.775895 1_555
Ho4 Ir3 2.775933 1_455
Ho5 Ir2 2.775817 1_545
Ho5 Ir1 2.775870 1_554
Ho6 Ir2 2.775925 1_545
Ho6 Ir0 2.775934 1_555
Ho7 Ir3 2.775814 1_455
Ho7 Ir1 2.775831 1_554
Ho8 Ir0 2.775831 1_555
Ho8 Ir1 2.775946 1_554
Ho9 Ir2 2.775898 1_545
Ho9 Ir3 2.775904 1_455
Ho10 Ir1 3.433723 1_555
Ho10 Ir2 3.433759 1_555
Ho11 Ir3 3.433656 1_555
Ho11 Ir0 3.433708 1_555
Ho12 Ir3 3.433750 1_555
Ho12 Ir1 3.433760 1_555
Ho13 Ir0 3.433672 1_555
Ho13 Ir2 3.433685 1_555
Ho14 Ir3 3.433683 1_555
Ho14 Ir2 3.433683 1_555
Ho15 Ir1 3.433649 1_555
Ho15 Ir0 3.433741 1_555
Cd0 Cd1 3.069217 1_555
Cd0 Cd3 3.069296 1_555
Cd0 Cd2 3.069332 1_555
Cd0 Ho10 3.243504 1_655
Cd0 Ho12 3.243507 1_565
Cd0 Ho14 3.243571 1_556
Cd0 Ho2 3.402566 1_565
Cd0 Ho3 3.402576 1_655
Cd0 Ho1 3.402745 1_556
Cd0 Ho9 3.449284 1_665
Cd0 Ho5 3.449451 1_566
Cd0 Ho7 3.449468 1_656
Cd1 Cd3 3.069206 1_555
Cd1 Cd2 3.069212 1_555
Cd1 Ho13 3.243461 1_655
Cd1 Ho14 3.243480 1_555
Cd1 Ho11 3.243580 1_565
Cd1 Ho3 3.402585 1_655
Cd1 Ho0 3.402654 1_555
Cd1 Ho2 3.402745 1_565
Cd1 Ho4 3.449299 1_655
Cd1 Ho6 3.449459 1_565
Cd1 Ho9 3.449466 1_665
Cd2 Cd3 3.069338 1_555
Cd2 Ho11 3.243473 1_556
Cd2 Ho12 3.243488 1_555
Cd2 Ho15 3.243498 1_655
Cd2 Ho3 3.402607 1_655
Cd2 Ho1 3.402673 1_556
Cd2 Ho0 3.402702 1_555
Cd2 Ho4 3.449364 1_655
Cd2 Ho8 3.449383 1_556
Cd2 Ho7 3.449413 1_656
Cd3 Ho15 3.243481 1_565
Cd3 Ho10 3.243511 1_555
Cd3 Ho13 3.243577 1_556
Cd3 Ho2 3.402557 1_565
Cd3 Ho0 3.402656 1_555
Cd3 Ho1 3.402745 1_556
Cd3 Ho6 3.449284 1_565
Cd3 Ho8 3.449449 1_556
Cd3 Ho5 3.449462 1_566
