# generated using pymatgen
data_CeH(CO2)3
_symmetry_space_group_name_H-M   'P 1'
_cell_length_a   6.80671100
_cell_length_b   7.48062200
_cell_length_c   10.90619600
_cell_angle_alpha   90.00000000
_cell_angle_beta   90.00000000
_cell_angle_gamma   90.00000000
_symmetry_Int_Tables_number   1
_chemical_formula_structural   CeH(CO2)3
_chemical_formula_sum   'Ce4 H4 C12 O24'
_cell_volume   555.32640000
_cell_formula_units_Z   4
loop_
 _symmetry_equiv_pos_site_id
 _symmetry_equiv_pos_as_xyz
  1  'x, y, z'
loop_
 _atom_site_type_symbol
 _atom_site_label
 _atom_site_symmetry_multiplicity
 _atom_site_fract_x
 _atom_site_fract_y
 _atom_site_fract_z
 _atom_site_occupancy
  Ce  Ce0  1  0.62993600  0.29526400  0.53617600  1
  Ce  Ce1  1  0.37006400  0.70473600  0.03617600  1
  Ce  Ce2  1  0.12993600  0.20473600  0.03617600  1
  Ce  Ce3  1  0.87006400  0.79526400  0.53617600  1
  H  H0  1  0.38149800  0.72895300  0.53998200  1
  H  H1  1  0.61850200  0.27104700  0.03998200  1
  H  H2  1  0.88149800  0.77104700  0.03998200  1
  H  H3  1  0.11850200  0.22895300  0.53998200  1
  C  C0  1  0.37315200  0.87584000  0.53916400  1
  C  C1  1  0.62684800  0.12416000  0.03916400  1
  C  C2  1  0.87315200  0.62416000  0.03916400  1
  C  C3  1  0.12684800  0.37584000  0.53916400  1
  C  C4  1  0.45434700  0.40982900  0.80781500  1
  C  C5  1  0.54565300  0.59017100  0.30781500  1
  C  C6  1  0.95434700  0.09017100  0.30781500  1
  C  C7  1  0.04565300  0.90982900  0.80781500  1
  C  C8  1  0.45234500  0.41279400  0.26450500  1
  C  C9  1  0.54765500  0.58720600  0.76450500  1
  C  C10  1  0.95234500  0.08720600  0.76450500  1
  C  C11  1  0.04765500  0.91279400  0.26450500  1
  O  O0  1  0.53699900  0.96126200  0.53719300  1
  O  O1  1  0.46300100  0.03873800  0.03719300  1
  O  O2  1  0.03699900  0.53873800  0.03719300  1
  O  O3  1  0.96300100  0.46126200  0.53719300  1
  O  O4  1  0.85361500  0.08112100  0.40669300  1
  O  O5  1  0.14638500  0.91887900  0.90669300  1
  O  O6  1  0.35361500  0.41887900  0.90669300  1
  O  O7  1  0.64638500  0.58112100  0.40669300  1
  O  O8  1  0.85849700  0.08043800  0.66278500  1
  O  O9  1  0.14150300  0.91956200  0.16278500  1
  O  O10  1  0.35849700  0.41956200  0.16278500  1
  O  O11  1  0.64150300  0.58043800  0.66278500  1
  O  O12  1  0.48467500  0.27131900  0.74514600  1
  O  O13  1  0.51532500  0.72868100  0.24514600  1
  O  O14  1  0.98467500  0.22868100  0.24514600  1
  O  O15  1  0.01532500  0.77131900  0.74514600  1
  O  O16  1  0.20614700  0.94839300  0.54027200  1
  O  O17  1  0.79385300  0.05160700  0.04027200  1
  O  O18  1  0.70614700  0.55160700  0.04027200  1
  O  O19  1  0.29385300  0.44839300  0.54027200  1
  O  O20  1  0.47413800  0.27659600  0.33047000  1
  O  O21  1  0.52586200  0.72340400  0.83047000  1
  O  O22  1  0.97413800  0.22340400  0.83047000  1
  O  O23  1  0.02586200  0.77659600  0.33047000  1
loop_
_geom_bond_atom_site_label_1
_geom_bond_atom_site_label_2
_geom_bond_distance
_geom_bond_site_symmetry_2
Ce0 O20 2.485409 1_555
Ce0 O12 2.490755 1_555
Ce0 O11 2.542390 1_555
Ce0 O19 2.558783 1_555
Ce0 O7 2.565045 1_555
Ce0 O0 2.577405 1_545
Ce0 O3 2.584908 1_555
Ce0 O4 2.622677 1_555
Ce0 O8 2.628607 1_555
Ce1 O21 2.485409 1_554
Ce1 O13 2.490755 1_555
Ce1 O10 2.542390 1_555
Ce1 O18 2.558783 1_555
Ce1 O6 2.565045 1_554
Ce1 O1 2.577405 1_565
Ce1 O2 2.584908 1_555
Ce1 O5 2.622677 1_554
Ce1 O9 2.628607 1_555
Ce2 O22 2.485409 1_454
Ce2 O14 2.490755 1_455
Ce2 O9 2.542390 1_545
Ce2 O17 2.558783 1_455
Ce2 O5 2.565045 1_544
Ce2 O2 2.577405 1_555
Ce2 O1 2.584908 1_555
Ce2 O6 2.622677 1_554
Ce2 O10 2.628607 1_555
Ce3 O23 2.485409 1_655
Ce3 O15 2.490755 1_655
Ce3 O8 2.542390 1_565
Ce3 O16 2.558783 1_655
Ce3 O4 2.565045 1_565
Ce3 O3 2.577405 1_555
Ce3 O0 2.584908 1_555
Ce3 O7 2.622677 1_555
Ce3 O11 2.628607 1_555
C0 H0 1.100310 1_555
C0 O16 1.259732 1_555
C0 O0 1.285534 1_555
C1 H1 1.100310 1_555
C1 O17 1.259732 1_555
C1 O1 1.285534 1_555
C2 H2 1.100310 1_555
C2 O18 1.259732 1_555
C2 O2 1.285534 1_655
C3 H3 1.100310 1_555
C3 O19 1.259732 1_555
C3 O3 1.285534 1_455
C4 O12 1.258312 1_555
C4 O6 1.279693 1_555
C5 O13 1.258312 1_555
C5 O7 1.279693 1_555
C6 O14 1.258312 1_555
C6 O4 1.279693 1_555
C7 O15 1.258312 1_555
C7 O5 1.279693 1_555
C8 O20 1.256036 1_555
C8 O10 1.281149 1_555
C9 O21 1.256036 1_555
C9 O11 1.281149 1_555
C10 O22 1.256036 1_555
C10 O8 1.281149 1_555
C11 O23 1.256036 1_555
C11 O9 1.281149 1_555
