# generated using pymatgen
data_HoBeNF6
_symmetry_space_group_name_H-M   'P 1'
_cell_length_a   6.00697400
_cell_length_b   6.54714100
_cell_length_c   7.35061999
_cell_angle_alpha   69.72596216
_cell_angle_beta   90.00000000
_cell_angle_gamma   90.00000000
_symmetry_Int_Tables_number   1
_chemical_formula_structural   HoBeNF6
_chemical_formula_sum   'Ho2 Be2 N2 F12'
_cell_volume   271.17869950
_cell_formula_units_Z   2
loop_
 _symmetry_equiv_pos_site_id
 _symmetry_equiv_pos_as_xyz
  1  'x, y, z'
loop_
 _atom_site_type_symbol
 _atom_site_label
 _atom_site_symmetry_multiplicity
 _atom_site_fract_x
 _atom_site_fract_y
 _atom_site_fract_z
 _atom_site_occupancy
  Ho  Ho0  1  0.25000000  0.34776000  0.23474500  1
  Ho  Ho1  1  0.75000000  0.65224000  0.76525500  1
  Be  Be0  1  0.25000000  0.77185600  0.46024800  1
  Be  Be1  1  0.75000000  0.22814400  0.53975200  1
  N  N0  1  0.25000000  0.25591900  0.85642900  1
  N  N1  1  0.75000000  0.74408100  0.14357100  1
  F  F0  1  0.45828700  0.75046700  0.59390200  1
  F  F1  1  0.54171300  0.24953300  0.40609800  1
  F  F2  1  0.95828700  0.24953300  0.40609800  1
  F  F3  1  0.04171300  0.75046700  0.59390200  1
  F  F4  1  0.25000000  0.59352900  0.36677400  1
  F  F5  1  0.75000000  0.40647100  0.63322600  1
  F  F6  1  0.55736300  0.64862800  0.05455800  1
  F  F7  1  0.44263700  0.35137200  0.94544200  1
  F  F8  1  0.05736300  0.35137200  0.94544200  1
  F  F9  1  0.94263700  0.64862800  0.05455800  1
  F  F10  1  0.25000000  0.99982200  0.29720400  1
  F  F11  1  0.75000000  0.00017800  0.70279600  1
loop_
_geom_bond_atom_site_label_1
_geom_bond_atom_site_label_2
_geom_bond_distance
_geom_bond_site_symmetry_2
Be0 F4 1.546341 1_555
Be0 F10 1.557026 1_555
Be0 F0 1.566809 1_555
Be0 F3 1.566809 1_555
Be1 F5 1.546341 1_555
Be1 F11 1.557026 1_555
Be1 F2 1.566809 1_555
Be1 F1 1.566809 1_555
F0 Ho1 2.123508 1_555
F1 Ho0 2.123508 1_555
F2 Ho0 2.123508 1_655
F3 Ho1 2.123508 1_455
F4 Ho0 2.147846 1_555
F5 Ho1 2.147846 1_555
F6 N1 1.562394 1_555
F6 Ho1 2.413914 1_554
F6 Ho0 2.689848 1_555
F7 N0 1.562394 1_555
F7 Ho0 2.413914 1_556
F7 Ho1 2.689848 1_555
F8 N0 1.562394 1_555
F8 Ho0 2.413914 1_556
F8 Ho1 2.689848 1_455
F9 N1 1.562394 1_555
F9 Ho1 2.413914 1_554
F9 Ho0 2.689848 1_655
F10 Ho0 2.162236 1_565
F11 Ho1 2.162236 1_545
