# generated using pymatgen
data_Li2VFeP2(HO5)2
_symmetry_space_group_name_H-M   'P 1'
_cell_length_a   5.43420100
_cell_length_b   7.47967868
_cell_length_c   14.53160247
_cell_angle_alpha   95.50876257
_cell_angle_beta   92.41902780
_cell_angle_gamma   110.63940450
_symmetry_Int_Tables_number   1
_chemical_formula_structural   Li2VFeP2(HO5)2
_chemical_formula_sum   'Li6 V3 Fe3 P6 H6 O30'
_cell_volume   548.35364767
_cell_formula_units_Z   3
loop_
 _symmetry_equiv_pos_site_id
 _symmetry_equiv_pos_as_xyz
  1  'x, y, z'
loop_
 _atom_site_type_symbol
 _atom_site_label
 _atom_site_symmetry_multiplicity
 _atom_site_fract_x
 _atom_site_fract_y
 _atom_site_fract_z
 _atom_site_occupancy
  Li  Li0  1  0.26595800  0.86892400  0.69199500  1
  Li  Li1  1  0.06732800  0.46446600  0.64174800  1
  Li  Li2  1  0.40042200  0.79694800  0.97438500  1
  Li  Li3  1  0.59985900  0.20307600  0.02512200  1
  Li  Li4  1  0.93244600  0.53541700  0.35848100  1
  Li  Li5  1  0.73398900  0.13109400  0.30833100  1
  V  V0  1  0.66714800  0.66680700  0.16642300  1
  V  V1  1  0.00005900  0.00008500  0.50008700  1
  V  V2  1  0.99974900  0.99952700  0.99961300  1
  Fe  Fe0  1  0.33325300  0.33357300  0.83347700  1
  Fe  Fe1  1  0.33298700  0.33329600  0.33328000  1
  Fe  Fe2  1  0.66739200  0.66726900  0.66717500  1
  P  P0  1  0.01902000  0.37976400  0.14812100  1
  P  P1  1  0.31489800  0.95441600  0.18533200  1
  P  P2  1  0.35145500  0.71280400  0.48142900  1
  P  P3  1  0.64840700  0.28718200  0.51880900  1
  P  P4  1  0.68502100  0.04711300  0.81450900  1
  P  P5  1  0.98115100  0.61882200  0.85182300  1
  H  H0  1  0.04646700  0.98827200  0.32537900  1
  H  H1  1  0.28994000  0.34737500  0.00705500  1
  H  H2  1  0.38028800  0.32115300  0.65997300  1
  H  H3  1  0.61991100  0.67842800  0.34125000  1
  H  H4  1  0.70950100  0.65260200  0.99147400  1
  H  H5  1  0.95384100  0.01188000  0.67482400  1
  O  O0  1  0.08130000  0.82811300  0.90042000  1
  O  O1  1  0.04433800  0.83879800  0.21819700  1
  O  O2  1  0.13601700  0.79186500  0.45042100  1
  O  O3  1  0.19749800  0.54118500  0.88248400  1
  O  O4  1  0.29973900  0.95824700  0.07781000  1
  O  O5  1  0.03385100  0.37625200  0.25539800  1
  O  O6  1  0.36703400  0.70863500  0.58871800  1
  O  O7  1  0.25264100  0.50301500  0.43267200  1
  O  O8  1  0.04599500  0.09697400  0.36992800  1
  O  O9  1  0.28964400  0.49521600  0.11497700  1
  O  O10  1  0.28841700  0.23946800  0.96157800  1
  O  O11  1  0.58677300  0.83682700  0.76594000  1
  O  O12  1  0.53022100  0.87498400  0.21634600  1
  O  O13  1  0.37848300  0.42920100  0.70471000  1
  O  O14  1  0.62249900  0.82845500  0.44831800  1
  O  O15  1  0.37732400  0.17168500  0.55196500  1
  O  O16  1  0.62019100  0.56989600  0.29648600  1
  O  O17  1  0.46883100  0.12466600  0.78403900  1
  O  O18  1  0.41373000  0.16422300  0.23382900  1
  O  O19  1  0.71269200  0.76103900  0.03690400  1
  O  O20  1  0.70900400  0.50360700  0.88438600  1
  O  O21  1  0.95406500  0.90312500  0.63021200  1
  O  O22  1  0.74681900  0.49700000  0.56754600  1
  O  O23  1  0.63285500  0.29084900  0.41151700  1
  O  O24  1  0.96535400  0.62335200  0.74445100  1
  O  O25  1  0.70098900  0.04251300  0.92212100  1
  O  O26  1  0.80335000  0.45915400  0.11689200  1
  O  O27  1  0.86399400  0.20824200  0.54983100  1
  O  O28  1  0.95714300  0.16230500  0.78220800  1
  O  O29  1  0.91871900  0.17081500  0.09959800  1
loop_
_geom_bond_atom_site_label_1
_geom_bond_atom_site_label_2
_geom_bond_distance
_geom_bond_site_symmetry_2
Li0 O21 1.991343 1_455
Li0 O6 2.044453 1_555
Li0 O11 2.106673 1_555
Li0 O17 2.135677 1_565
Li0 O24 2.209531 1_455
Li1 O13 1.998980 1_555
Li1 O24 2.034781 1_455
Li1 O22 2.108573 1_455
Li1 O27 2.137515 1_455
Li1 O6 2.204777 1_555
Li2 O19 2.003779 1_556
Li2 O4 2.049473 1_556
Li2 O0 2.095875 1_555
Li2 O3 2.134751 1_555
Li2 O25 2.208135 1_565
Li3 O10 2.008035 1_554
Li3 O25 2.043094 1_554
Li3 O29 2.102028 1_555
Li3 O26 2.135846 1_555
Li3 O4 2.206506 1_545
Li4 O16 1.995367 1_555
Li4 O5 2.038289 1_655
Li4 O7 2.106603 1_655
Li4 O2 2.139010 1_655
Li4 O23 2.206326 1_555
Li5 O8 1.990443 1_655
Li5 O23 2.041264 1_555
Li5 O18 2.111586 1_555
Li5 O12 2.137882 1_545
Li5 O5 2.208977 1_655
Fe0 O3 2.025444 1_555
Fe0 O17 2.035006 1_555
Fe0 O10 2.046702 1_555
Fe0 O20 2.048231 1_555
Fe0 O28 2.053261 1_455
Fe0 O13 2.060395 1_555
Fe1 O18 1.993521 1_555
Fe1 O7 1.995030 1_555
Fe1 O8 2.036608 1_555
Fe1 O16 2.039247 1_555
Fe1 O5 2.075877 1_555
Fe1 O23 2.080002 1_555
Fe2 O11 1.988844 1_555
Fe2 O22 1.997635 1_555
Fe2 O21 2.035353 1_555
Fe2 O13 2.054530 1_555
Fe2 O24 2.069531 1_555
Fe2 O6 2.079983 1_555
H0 O8 0.990306 1_565
H1 O10 0.990275 1_554
H2 O13 0.990510 1_555
H3 O16 0.990811 1_555
H4 O19 0.990092 1_556
H5 O21 0.990704 1_545
O0 P5 1.549247 1_455
O0 V2 2.004399 1_455
O1 P1 1.542683 1_555
O1 V0 2.060932 1_455
O2 P2 1.555004 1_555
O2 V1 2.032900 1_565
O3 P5 1.550705 1_455
O4 P1 1.564706 1_555
O4 V2 2.076048 1_454
O5 P0 1.560809 1_555
O6 P2 1.561706 1_555
O7 P2 1.553385 1_555
O8 V1 2.083377 1_555
O9 P0 1.544276 1_555
O9 V0 2.060268 1_555
O10 V2 2.065448 1_445
O11 P4 1.555686 1_565
O12 P1 1.556354 1_555
O12 V0 2.037153 1_555
O14 P2 1.546212 1_555
O14 V1 2.061798 1_665
O15 P3 1.546349 1_555
O15 V1 2.060944 1_555
O16 V0 2.082326 1_555
O17 P4 1.548729 1_555
O18 P1 1.552199 1_545
O19 V2 2.050439 1_554
O19 V0 2.066747 1_555
O20 P5 1.546806 1_555
O21 V1 2.083130 1_665
O22 P3 1.553535 1_555
O23 P3 1.561245 1_555
O24 P5 1.563300 1_555
O25 P4 1.566871 1_555
O25 V2 2.071338 1_545
O26 P0 1.558713 1_655
O26 V0 2.029532 1_555
O27 P3 1.555163 1_555
O27 V1 2.033209 1_655
O28 P4 1.545140 1_555
O29 P0 1.546702 1_655
O29 V2 2.010142 1_544
