# generated using pymatgen
data_Li3Co4SnO8
_symmetry_space_group_name_H-M   'P 1'
_cell_length_a   6.02222269
_cell_length_b   10.45079830
_cell_length_c   6.07305179
_cell_angle_alpha   73.53444908
_cell_angle_beta   60.64558820
_cell_angle_gamma   74.27819040
_symmetry_Int_Tables_number   1
_chemical_formula_structural   Li3Co4SnO8
_chemical_formula_sum   'Li6 Co8 Sn2 O16'
_cell_volume   315.47196142
_cell_formula_units_Z   2
loop_
 _symmetry_equiv_pos_site_id
 _symmetry_equiv_pos_as_xyz
  1  'x, y, z'
loop_
 _atom_site_type_symbol
 _atom_site_label
 _atom_site_symmetry_multiplicity
 _atom_site_fract_x
 _atom_site_fract_y
 _atom_site_fract_z
 _atom_site_occupancy
  Li  Li0  1  0.99813500  0.49965200  0.99604900  1
  Li  Li1  1  0.50187100  0.00034300  0.50395700  1
  Li  Li2  1  0.25000500  0.25000500  0.75000500  1
  Li  Li3  1  0.75000700  0.74999900  0.24999700  1
  Li  Li4  1  0.00718100  0.49051400  0.51112400  1
  Li  Li5  1  0.49280800  0.00948400  0.98887400  1
  Co  Co0  1  0.74998900  0.75000100  0.74999700  1
  Co  Co1  1  0.25000500  0.25001900  0.24997100  1
  Co  Co2  1  0.00073300  0.99673400  0.00166400  1
  Co  Co3  1  0.49928300  0.50324000  0.49836400  1
  Co  Co4  1  0.74999200  0.25001100  0.25000700  1
  Co  Co5  1  0.25000100  0.74999200  0.75003700  1
  Co  Co6  1  0.00098300  0.00057800  0.50195800  1
  Co  Co7  1  0.49899600  0.49941300  0.99802700  1
  Sn  Sn0  1  0.74995400  0.25003600  0.75001600  1
  Sn  Sn1  1  0.25000600  0.75000200  0.24995100  1
  O  O0  1  0.14021100  0.63733500  0.09300600  1
  O  O1  1  0.63993100  0.12763800  0.61838700  1
  O  O2  1  0.86006000  0.37235200  0.88161800  1
  O  O3  1  0.35981400  0.86269200  0.40696900  1
  O  O4  1  0.91518200  0.86430900  0.85660900  1
  O  O5  1  0.37061100  0.36581400  0.35735700  1
  O  O6  1  0.12937300  0.13417600  0.14265700  1
  O  O7  1  0.58481600  0.63570500  0.64336600  1
  O  O8  1  0.88853000  0.87284100  0.36977900  1
  O  O9  1  0.38210300  0.36939600  0.87217300  1
  O  O10  1  0.12420300  0.62305800  0.60734500  1
  O  O11  1  0.62722600  0.12584400  0.11555200  1
  O  O12  1  0.87276100  0.37413400  0.38448900  1
  O  O13  1  0.37577900  0.87694000  0.89267200  1
  O  O14  1  0.11797500  0.13057700  0.62781700  1
  O  O15  1  0.61147700  0.62716500  0.13020800  1
loop_
_geom_bond_atom_site_label_1
_geom_bond_atom_site_label_2
_geom_bond_distance
_geom_bond_site_symmetry_2
Li0 O2 2.152780 1_555
Li0 O0 2.188754 1_656
Li0 O10 2.204519 1_655
Li0 O12 2.211798 1_556
Li0 O9 2.221510 1_655
Li0 O15 2.221617 1_556
Li1 O1 2.152669 1_555
Li1 O3 2.188515 1_545
Li1 O13 2.204553 1_545
Li1 O11 2.211577 1_555
Li1 O14 2.221105 1_555
Li1 O8 2.221576 1_545
Li2 O9 2.093209 1_555
Li2 O14 2.093312 1_555
Li2 O5 2.195644 1_555
Li2 O6 2.195724 1_556
Li2 O1 2.213658 1_555
Li2 O2 2.213659 1_455
Li3 O15 2.139614 1_555
Li3 O8 2.139621 1_555
Li3 O0 2.181218 1_655
Li3 O3 2.181276 1_555
Li3 O7 2.195409 1_555
Li3 O4 2.195545 1_554
Li4 O10 2.036789 1_555
Li4 O12 2.097676 1_455
Li4 O2 2.106164 1_455
Li4 O5 2.121541 1_555
Li4 O0 2.430439 1_555
Li4 O7 2.452258 1_455
Li5 O13 2.036742 1_545
Li5 O11 2.097691 1_556
Li5 O1 2.106102 1_555
Li5 O6 2.121533 1_556
Li5 O3 2.430215 1_546
Li5 O4 2.452224 1_545
Co0 O7 2.132962 1_555
Co0 O4 2.133071 1_555
Co0 O15 2.164961 1_556
Co0 O8 2.165012 1_555
Co0 O13 2.169398 1_555
Co0 O10 2.169424 1_655
Co1 O5 1.950752 1_555
Co1 O6 1.950969 1_555
Co1 O9 2.139916 1_554
Co1 O14 2.140384 1_555
Co1 O12 2.166851 1_455
Co1 O11 2.166998 1_555
Co2 O4 2.116430 1_454
Co2 O8 2.117332 1_455
Co2 O13 2.139728 1_554
Co2 O11 2.171977 1_465
Co2 O14 2.184734 1_564
Co2 O6 2.312385 1_565
Co3 O7 2.116480 1_555
Co3 O15 2.117648 1_555
Co3 O10 2.139981 1_555
Co3 O12 2.171836 1_555
Co3 O9 2.184582 1_555
Co3 O5 2.312441 1_555
Co4 O2 2.112626 1_554
Co4 O1 2.112718 1_555
Co4 O5 2.144314 1_555
Co4 O6 2.144435 1_655
Co4 O12 2.146781 1_555
Co4 O11 2.147020 1_555
Co5 O7 1.940277 1_555
Co5 O4 1.940429 1_455
Co5 O0 1.960409 1_556
Co5 O3 1.961019 1_555
Co5 O13 2.218926 1_555
Co5 O10 2.219144 1_555
Co6 O1 2.109782 1_455
Co6 O4 2.122009 1_445
Co6 O6 2.124253 1_555
Co6 O8 2.124967 1_445
Co6 O14 2.135833 1_555
Co6 O3 2.154191 1_545
Co7 O2 2.109836 1_555
Co7 O7 2.122151 1_555
Co7 O5 2.124373 1_556
Co7 O15 2.125218 1_556
Co7 O9 2.135563 1_555
Co7 O0 2.154180 1_556
O0 Sn1 2.099542 1_555
O1 Sn0 2.067014 1_555
O2 Sn0 2.066536 1_555
O3 Sn1 2.100122 1_555
O8 Sn1 2.092468 1_655
O9 Sn0 2.104669 1_555
O10 Sn1 2.084506 1_555
O11 Sn0 2.106372 1_554
O12 Sn0 2.105929 1_555
O13 Sn1 2.083997 1_556
O14 Sn0 2.105828 1_455
O15 Sn1 2.092431 1_555
