# generated using pymatgen
data_Te2MoW3(SeS2)2
_symmetry_space_group_name_H-M   'P 1'
_cell_length_a   3.30783686
_cell_length_b   3.30783686
_cell_length_c   39.69745300
_cell_angle_alpha   90.00000000
_cell_angle_beta   90.00000000
_cell_angle_gamma   120.00001719
_symmetry_Int_Tables_number   1
_chemical_formula_structural   Te2MoW3(SeS2)2
_chemical_formula_sum   'Te2 Mo1 W3 Se2 S4'
_cell_volume   376.16758090
_cell_formula_units_Z   1
loop_
 _symmetry_equiv_pos_site_id
 _symmetry_equiv_pos_as_xyz
  1  'x, y, z'
loop_
 _atom_site_type_symbol
 _atom_site_label
 _atom_site_symmetry_multiplicity
 _atom_site_fract_x
 _atom_site_fract_y
 _atom_site_fract_z
 _atom_site_occupancy
  Te  Te0  1  0.66666700  0.33333300  0.42035000  1
  Te  Te1  1  0.66666700  0.33333300  0.51729200  1
  Mo  Mo0  1  0.33333300  0.66666700  0.09382500  1
  W  W0  1  0.33333300  0.66666700  0.46878200  1
  W  W1  1  0.66666700  0.33333300  0.28096200  1
  W  W2  1  0.66666700  0.33333300  0.65931400  1
  Se  Se0  1  0.33333300  0.66666700  0.70180200  1
  Se  Se1  1  0.33333300  0.66666700  0.61685700  1
  S  S0  1  0.33333300  0.66666700  0.31956000  1
  S  S1  1  0.66666700  0.33333300  0.05535300  1
  S  S2  1  0.66666700  0.33333300  0.13229000  1
  S  S3  1  0.33333300  0.66666700  0.24236100  1
loop_
_geom_bond_atom_site_label_1
_geom_bond_atom_site_label_2
_geom_bond_distance
_geom_bond_site_symmetry_2
Te0 W0 2.709935 1_545
Te0 W0 2.709935 1_655
Te0 W0 2.709939 1_555
Te1 W0 2.712133 1_545
Te1 W0 2.712133 1_655
Te1 W0 2.712137 1_555
Mo0 S2 2.445172 1_455
Mo0 S2 2.445172 1_565
Mo0 S2 2.445177 1_555
Mo0 S1 2.445346 1_455
Mo0 S1 2.445346 1_565
Mo0 S1 2.445351 1_555
Se0 W2 2.547959 1_455
Se0 W2 2.547959 1_565
Se0 W2 2.547963 1_555
Se1 W2 2.547144 1_455
Se1 W2 2.547144 1_565
Se1 W2 2.547149 1_555
S0 W1 2.448473 1_455
S0 W1 2.448473 1_565
S0 W1 2.448478 1_555
S3 W1 2.448547 1_455
S3 W1 2.448547 1_565
S3 W1 2.448552 1_555
