# generated using pymatgen
data_ZnCu15H24(ClO3)8
_symmetry_space_group_name_H-M   'P 1'
_cell_length_a   6.96428412
_cell_length_b   18.91212487
_cell_length_c   6.96428400
_cell_angle_alpha   79.39004106
_cell_angle_beta   60.00000056
_cell_angle_gamma   90.00000111
_symmetry_Int_Tables_number   1
_chemical_formula_structural   ZnCu15H24(ClO3)8
_chemical_formula_sum   'Zn1 Cu15 H24 Cl8 O24'
_cell_volume   776.21104902
_cell_formula_units_Z   1
loop_
 _symmetry_equiv_pos_site_id
 _symmetry_equiv_pos_as_xyz
  1  'x, y, z'
loop_
 _atom_site_type_symbol
 _atom_site_label
 _atom_site_symmetry_multiplicity
 _atom_site_fract_x
 _atom_site_fract_y
 _atom_site_fract_z
 _atom_site_occupancy
  Zn  Zn0  1  0.12500000  0.37500000  0.75000000  1
  Cu  Cu0  1  0.74966800  0.74974600  0.50064500  1
  Cu  Cu1  1  0.00031200  0.49978200  0.99934300  1
  Cu  Cu2  1  0.50033200  0.00025400  0.99935500  1
  Cu  Cu3  1  0.24968800  0.25021800  0.50065700  1
  Cu  Cu4  1  0.00034500  0.49978200  0.50052900  1
  Cu  Cu5  1  0.24965500  0.25021800  0.99947100  1
  Cu  Cu6  1  0.74968700  0.74974600  0.99992200  1
  Cu  Cu7  1  0.50031300  0.00025400  0.50007800  1
  Cu  Cu8  1  0.25039000  0.74974600  0.99994100  1
  Cu  Cu9  1  0.49912600  0.49978200  0.50056200  1
  Cu  Cu10  1  0.99961000  0.00025400  0.50005900  1
  Cu  Cu11  1  0.75087400  0.25021800  0.99943800  1
  Cu  Cu12  1  0.87508100  0.62524400  0.24983700  1
  Cu  Cu13  1  0.62500000  0.87500000  0.75000000  1
  Cu  Cu14  1  0.37491900  0.12475600  0.25016300  1
  H  H0  1  0.09401300  0.68213000  0.81332000  1
  H  H1  1  0.34598300  0.43290000  0.30942200  1
  H  H2  1  0.84419200  0.93251200  0.31297600  1
  H  H3  1  0.59353300  0.18260600  0.81426900  1
  H  H4  1  0.09266700  0.68213000  0.41188300  1
  H  H5  1  0.34459400  0.43290000  0.91308300  1
  H  H6  1  0.84283200  0.93251200  0.91168000  1
  H  H7  1  0.59219800  0.18260600  0.41092800  1
  H  H8  1  0.49545000  0.68213000  0.41053700  1
  H  H9  1  0.74232300  0.43290000  0.91169400  1
  H  H10  1  0.24548800  0.93251200  0.91032000  1
  H  H11  1  0.99687500  0.18260600  0.40959200  1
  H  H12  1  0.65646700  0.56739400  0.68573100  1
  H  H13  1  0.90401700  0.31710000  0.19057800  1
  H  H14  1  0.40580800  0.81748800  0.18702400  1
  H  H15  1  0.15598700  0.06787000  0.68668000  1
  H  H16  1  0.65780200  0.56739400  0.08907200  1
  H  H17  1  0.90540600  0.31710000  0.58691700  1
  H  H18  1  0.40716800  0.81748800  0.58832000  1
  H  H19  1  0.15733300  0.06787000  0.08811700  1
  H  H20  1  0.25312500  0.56739400  0.09040800  1
  H  H21  1  0.50767700  0.31710000  0.58830600  1
  H  H22  1  0.00451200  0.81748800  0.58968000  1
  H  H23  1  0.75455000  0.06787000  0.08946300  1
  Cl  Cl0  1  0.95496500  0.86489400  0.09007100  1
  Cl  Cl1  1  0.20505300  0.61515800  0.58989500  1
  Cl  Cl2  1  0.70500900  0.11502700  0.58998200  1
  Cl  Cl3  1  0.45486100  0.36458200  0.09027800  1
  Cl  Cl4  1  0.79513900  0.38541800  0.40972200  1
  Cl  Cl5  1  0.04494700  0.13484200  0.91010500  1
  Cl  Cl6  1  0.54499100  0.63497300  0.91001800  1
  Cl  Cl7  1  0.29503500  0.88510600  0.40992900  1
  O  O0  1  0.02632500  0.70520500  0.94797300  1
  O  O1  1  0.27881300  0.45615100  0.44297100  1
  O  O2  1  0.77627800  0.95533900  0.44808000  1
  O  O3  1  0.52549100  0.20517600  0.94967400  1
  O  O4  1  0.02570200  0.70520500  0.32112000  1
  O  O5  1  0.27821700  0.45615100  0.82266200  1
  O  O6  1  0.77564300  0.95533900  0.82093900  1
  O  O7  1  0.52483600  0.20517600  0.32031500  1
  O  O8  1  0.65317900  0.70520500  0.32049600  1
  O  O9  1  0.89912200  0.45615100  0.82206600  1
  O  O10  1  0.40341900  0.95533900  0.82030500  1
  O  O11  1  0.15485000  0.20517600  0.31966000  1
  O  O12  1  0.72450900  0.54482400  0.55032600  1
  O  O13  1  0.97118700  0.29384900  0.05702900  1
  O  O14  1  0.47372200  0.79466100  0.05192000  1
  O  O15  1  0.22367500  0.04479500  0.55202700  1
  O  O16  1  0.72516400  0.54482400  0.17968500  1
  O  O17  1  0.97178300  0.29384900  0.67733900  1
  O  O18  1  0.47435700  0.79466100  0.67906200  1
  O  O19  1  0.22429800  0.04479500  0.17888100  1
  O  O20  1  0.09515000  0.54482400  0.18034100  1
  O  O21  1  0.35087800  0.29384900  0.67793500  1
  O  O22  1  0.84658100  0.79466100  0.67969600  1
  O  O23  1  0.59682100  0.04479500  0.17950300  1
loop_
_geom_bond_atom_site_label_1
_geom_bond_atom_site_label_2
_geom_bond_distance
_geom_bond_site_symmetry_2
Cu0 O18 1.986946 1_555
Cu0 O4 1.988121 1_655
Cu0 O22 1.990892 1_555
Cu0 O8 1.991838 1_555
Cu1 O5 1.983220 1_555
Cu1 O9 1.986694 1_455
Cu1 O16 1.990530 1_456
Cu1 O20 1.994676 1_556
Cu2 O6 1.986945 1_545
Cu2 O19 1.988123 1_556
Cu2 O10 1.990886 1_545
Cu2 O23 1.991832 1_556
Cu3 O17 1.983221 1_455
Cu3 O21 1.986700 1_555
Cu3 O7 1.990530 1_555
Cu3 O11 1.994670 1_555
Cu4 O9 1.983227 1_455
Cu4 O1 1.986702 1_555
Cu4 O20 1.990520 1_555
Cu4 O12 1.994675 1_455
Cu5 O21 1.983221 1_555
Cu5 O13 1.986702 1_456
Cu5 O11 1.990526 1_556
Cu5 O3 1.994675 1_555
Cu6 O22 1.986946 1_555
Cu6 O8 1.988116 1_556
Cu6 O14 1.990898 1_556
Cu6 O0 1.991836 1_655
Cu7 O10 1.986952 1_545
Cu7 O23 1.988123 1_555
Cu7 O2 1.990898 1_545
Cu7 O15 1.991836 1_555
Cu8 O14 1.986946 1_556
Cu8 O0 1.988115 1_555
Cu8 O18 1.990894 1_555
Cu8 O4 1.991835 1_556
Cu9 O1 1.983217 1_555
Cu9 O5 1.986705 1_555
Cu9 O12 1.990524 1_555
Cu9 O16 1.994668 1_555
Cu10 O2 1.986946 1_545
Cu10 O15 1.988115 1_655
Cu10 O6 1.990898 1_545
Cu10 O19 1.991830 1_655
Cu11 O13 1.983217 1_556
Cu11 O17 1.986700 1_555
Cu11 O3 1.990524 1_555
Cu11 O7 1.994668 1_556
Cu12 O16 2.103723 1_555
Cu12 O12 2.103723 1_555
Cu12 O20 2.103723 1_655
Cu12 O8 2.104943 1_555
Cu12 O0 2.104947 1_654
Cu12 O4 2.104952 1_655
Cu13 O18 2.109017 1_555
Cu13 O14 2.109017 1_556
Cu13 O2 2.109017 1_555
Cu13 O10 2.109017 1_555
Cu13 O22 2.109017 1_555
Cu13 O6 2.109022 1_555
Cu14 O7 2.103723 1_555
Cu14 O3 2.103723 1_554
Cu14 O11 2.103723 1_555
Cu14 O23 2.104943 1_555
Cu14 O19 2.104947 1_555
Cu14 O15 2.104947 1_555
H0 O0 1.000348 1_555
H1 O1 0.996367 1_555
H2 O2 0.999965 1_555
H3 O3 0.998681 1_555
H4 O4 1.000348 1_555
H5 O5 0.996356 1_555
H6 O6 0.999959 1_555
H7 O7 0.998681 1_555
H8 O8 1.000353 1_555
H9 O9 0.996361 1_555
H10 O10 0.999965 1_555
H11 O11 0.998681 1_655
H12 O12 0.998681 1_555
H13 O13 0.996367 1_555
H14 O14 0.999965 1_555
H15 O15 1.000348 1_555
H16 O16 0.998681 1_555
H17 O17 0.996361 1_555
H18 O18 0.999965 1_555
H19 O19 1.000353 1_555
H20 O20 0.998681 1_555
H21 O21 0.996361 1_555
H22 O22 0.999965 1_455
H23 O23 1.000353 1_555
Cl0 H2 2.042983 1_555
Cl0 H10 2.042983 1_654
Cl0 H6 2.042988 1_554
Cl0 Cu8 2.929381 1_654
Cl0 Cu0 2.929385 1_555
Cl0 Cu6 2.929389 1_554
Cl1 H0 2.036131 1_555
Cl1 H8 2.036131 1_555
Cl1 H4 2.036136 1_555
Cl1 Cu1 2.927160 1_555
Cl1 Cu9 2.927164 1_555
Cl1 Cu4 2.927168 1_555
Cl2 H7 2.049015 1_555
Cl2 H11 2.049020 1_555
Cl2 H3 2.049020 1_555
Cl2 Cu2 2.920409 1_555
Cl2 Cu7 2.920409 1_555
Cl2 Cu10 2.920413 1_555
Cl3 H9 2.035299 1_554
Cl3 H1 2.035299 1_555
Cl3 H5 2.035300 1_554
Cl3 Cu5 2.920233 1_554
Cl3 Cu11 2.920233 1_554
Cl3 Cu3 2.920241 1_555
Cl4 H21 2.035299 1_555
Cl4 H13 2.035299 1_555
Cl4 H17 2.035300 1_555
Cl4 Cu4 2.920233 1_655
Cl4 Cu9 2.920233 1_555
Cl4 Cu1 2.920241 1_654
Cl5 H15 2.036131 1_555
Cl5 H23 2.036131 1_456
Cl5 H19 2.036136 1_556
Cl5 Cu3 2.927160 1_555
Cl5 Cu11 2.927164 1_455
Cl5 Cu5 2.927168 1_555
Cl6 H16 2.049015 1_556
Cl6 H20 2.049020 1_556
Cl6 H12 2.049020 1_555
Cl6 Cu0 2.920409 1_555
Cl6 Cu6 2.920409 1_555
Cl6 Cu8 2.920413 1_555
Cl7 H14 2.042983 1_555
Cl7 H22 2.042983 1_555
Cl7 H18 2.042988 1_555
Cl7 Cu10 2.929381 1_465
Cl7 Cu2 2.929385 1_564
Cl7 Cu7 2.929389 1_565
O1 Zn0 2.139165 1_555
O5 Zn0 2.139169 1_555
O9 Zn0 2.139165 1_655
O13 Zn0 2.139165 1_654
O17 Zn0 2.139165 1_655
O21 Zn0 2.139165 1_555
