# generated using pymatgen
data_Er5CuPb3
_symmetry_space_group_name_H-M   'P 1'
_cell_length_a   9.03180111
_cell_length_b   9.03180111
_cell_length_c   6.61191363
_cell_angle_alpha   90.00000000
_cell_angle_beta   90.00000000
_cell_angle_gamma   120.00003642
_symmetry_Int_Tables_number   1
_chemical_formula_structural   Er5CuPb3
_chemical_formula_sum   'Er10 Cu2 Pb6'
_cell_volume   467.09624405
_cell_formula_units_Z   2
loop_
 _symmetry_equiv_pos_site_id
 _symmetry_equiv_pos_as_xyz
  1  'x, y, z'
loop_
 _atom_site_type_symbol
 _atom_site_label
 _atom_site_symmetry_multiplicity
 _atom_site_fract_x
 _atom_site_fract_y
 _atom_site_fract_z
 _atom_site_occupancy
  Er  Er0  1  0.25060995  -0.00000000  0.25000000  1
  Er  Er1  1  0.74938905  0.00000000  0.75000000  1
  Er  Er2  1  -0.00000000  0.25060995  0.25000000  1
  Er  Er3  1  0.00000000  0.74938905  0.75000000  1
  Er  Er4  1  0.74939005  0.74939005  0.25000000  1
  Er  Er5  1  0.25060895  0.25060895  0.75000000  1
  Er  Er6  1  0.33333300  0.66666700  0.00000000  1
  Er  Er7  1  0.66666700  0.33333300  0.00000000  1
  Er  Er8  1  0.66666700  0.33333300  0.50000000  1
  Er  Er9  1  0.33333300  0.66666700  0.50000000  1
  Cu  Cu0  1  0.00000000  0.00000000  -0.00000000  1
  Cu  Cu1  1  0.00000000  0.00000000  0.50000000  1
  Pb  Pb0  1  0.60936083  -0.00000000  0.25000000  1
  Pb  Pb1  1  0.39063917  0.00000000  0.75000000  1
  Pb  Pb2  1  -0.00000000  0.60936083  0.25000000  1
  Pb  Pb3  1  0.00000000  0.39063917  0.75000000  1
  Pb  Pb4  1  0.39063917  0.39063917  0.25000000  1
  Pb  Pb5  1  0.60936083  0.60936083  0.75000000  1
loop_
_geom_bond_atom_site_label_1
_geom_bond_atom_site_label_2
_geom_bond_distance
_geom_bond_site_symmetry_2
Er0 Pb2 3.096026 1_545
Er0 Pb4 3.096027 1_555
Er0 Pb0 3.240167 1_555
Er0 Pb1 3.539613 1_555
Er0 Pb1 3.539613 1_554
Er1 Pb3 3.096028 1_655
Er1 Pb5 3.096028 1_545
Er1 Pb1 3.240158 1_555
Er1 Pb0 3.539609 1_556
Er1 Pb0 3.539609 1_555
Er2 Pb0 3.096026 1_455
Er2 Pb4 3.096027 1_555
Er2 Pb2 3.240167 1_555
Er2 Pb3 3.539613 1_555
Er2 Pb3 3.539613 1_554
Er3 Pb1 3.096028 1_565
Er3 Pb5 3.096028 1_455
Er3 Pb3 3.240158 1_555
Er3 Pb2 3.539609 1_556
Er3 Pb2 3.539609 1_555
Er4 Pb2 3.096028 1_655
Er4 Pb0 3.096028 1_565
Er4 Pb4 3.240165 1_555
Er4 Pb5 3.539612 1_555
Er4 Pb5 3.539612 1_554
Er5 Pb3 3.096027 1_555
Er5 Pb1 3.096027 1_555
Er5 Pb5 3.240174 1_555
Er5 Pb4 3.539616 1_555
Er5 Pb4 3.539616 1_556
Er6 Pb1 3.241250 1_564
Er6 Pb2 3.241250 1_555
Er6 Pb3 3.241252 1_554
Er6 Pb0 3.241252 1_565
Er6 Pb4 3.241258 1_555
Er6 Pb5 3.241258 1_554
Er7 Pb0 3.241250 1_555
Er7 Pb3 3.241250 1_654
Er7 Pb1 3.241252 1_554
Er7 Pb2 3.241252 1_655
Er7 Pb4 3.241258 1_555
Er7 Pb5 3.241258 1_554
Er8 Pb0 3.241250 1_555
Er8 Pb3 3.241250 1_655
Er8 Pb1 3.241252 1_555
Er8 Pb2 3.241252 1_655
Er8 Pb4 3.241258 1_555
Er8 Pb5 3.241258 1_555
Er9 Pb1 3.241250 1_565
Er9 Pb2 3.241250 1_555
Er9 Pb0 3.241252 1_565
Er9 Pb3 3.241252 1_555
Er9 Pb4 3.241258 1_555
Er9 Pb5 3.241258 1_555
Cu0 Er5 2.802773 1_554
Cu0 Er4 2.802781 1_445
Cu0 Er0 2.802782 1_555
Cu0 Er2 2.802782 1_555
Cu0 Er3 2.802789 1_544
Cu0 Er1 2.802789 1_454
Cu1 Er5 2.802773 1_555
Cu1 Er4 2.802781 1_445
Cu1 Er0 2.802782 1_555
Cu1 Er2 2.802782 1_555
Cu1 Er1 2.802789 1_455
Cu1 Er3 2.802789 1_545
