# generated using pymatgen
data_Tl2Ag3(PO4)3
_symmetry_space_group_name_H-M   'P 1'
_cell_length_a   9.38634117
_cell_length_b   9.38634117
_cell_length_c   6.83893523
_cell_angle_alpha   72.45995553
_cell_angle_beta   72.45995553
_cell_angle_gamma   91.05913072
_symmetry_Int_Tables_number   1
_chemical_formula_structural   Tl2Ag3(PO4)3
_chemical_formula_sum   'Tl4 Ag6 P6 O24'
_cell_volume   543.83447098
_cell_formula_units_Z   2
loop_
 _symmetry_equiv_pos_site_id
 _symmetry_equiv_pos_as_xyz
  1  'x, y, z'
loop_
 _atom_site_type_symbol
 _atom_site_label
 _atom_site_symmetry_multiplicity
 _atom_site_fract_x
 _atom_site_fract_y
 _atom_site_fract_z
 _atom_site_occupancy
  Tl  Tl0  1  0.91902500  0.61018600  0.66474400  1
  Tl  Tl1  1  0.38981400  0.08097500  0.83525600  1
  Tl  Tl2  1  0.08097500  0.38981400  0.33525600  1
  Tl  Tl3  1  0.61018600  0.91902500  0.16474400  1
  Ag  Ag0  1  0.72685800  0.27314200  0.25000000  1
  Ag  Ag1  1  0.27314200  0.72685800  0.75000000  1
  Ag  Ag2  1  0.50000000  0.50000000  0.00000000  1
  Ag  Ag3  1  0.50000000  0.50000000  0.50000000  1
  Ag  Ag4  1  0.00783600  0.99216400  0.75000000  1
  Ag  Ag5  1  0.99216400  0.00783600  0.25000000  1
  P  P0  1  0.73733100  0.26266900  0.75000000  1
  P  P1  1  0.26266900  0.73733100  0.25000000  1
  P  P2  1  0.34523600  0.14356800  0.35531200  1
  P  P3  1  0.85643200  0.65476400  0.14468800  1
  P  P4  1  0.65476400  0.85643200  0.64468800  1
  P  P5  1  0.14356800  0.34523600  0.85531200  1
  O  O0  1  0.74558100  0.41585800  0.79608500  1
  O  O1  1  0.58414200  0.25441900  0.70391500  1
  O  O2  1  0.25441900  0.58414200  0.20391500  1
  O  O3  1  0.41585800  0.74558100  0.29608500  1
  O  O4  1  0.43901900  0.28878500  0.32377100  1
  O  O5  1  0.71121500  0.56098100  0.17622900  1
  O  O6  1  0.56098100  0.71121500  0.67622900  1
  O  O7  1  0.28878500  0.43901900  0.82377100  1
  O  O8  1  0.86064300  0.24904400  0.54725100  1
  O  O9  1  0.75095600  0.13935700  0.95274900  1
  O  O10  1  0.13935700  0.75095600  0.45274900  1
  O  O11  1  0.24904400  0.86064300  0.04725100  1
  O  O12  1  0.98179900  0.66378000  0.92751500  1
  O  O13  1  0.33622000  0.01820100  0.57248500  1
  O  O14  1  0.01820100  0.33622000  0.07248500  1
  O  O15  1  0.66378000  0.98179900  0.42751500  1
  O  O16  1  0.82224100  0.83196200  0.63604800  1
  O  O17  1  0.16803800  0.17775900  0.86395200  1
  O  O18  1  0.17775900  0.16803800  0.36395200  1
  O  O19  1  0.83196200  0.82224100  0.13604800  1
  O  O20  1  0.41482700  0.07634300  0.16832700  1
  O  O21  1  0.92365700  0.58517300  0.33167300  1
  O  O22  1  0.58517300  0.92365700  0.83167300  1
  O  O23  1  0.07634300  0.41482700  0.66832700  1
loop_
_geom_bond_atom_site_label_1
_geom_bond_atom_site_label_2
_geom_bond_distance
_geom_bond_site_symmetry_2
Ag0 O14 2.609313 1_655
Ag0 O15 2.609313 1_545
Ag0 O4 2.610231 1_555
Ag0 O5 2.610231 1_555
Ag0 O8 2.651925 1_555
Ag0 O9 2.651925 1_554
Ag1 O13 2.609313 1_565
Ag1 O12 2.609313 1_455
Ag1 O6 2.610231 1_555
Ag1 O7 2.610231 1_555
Ag1 O11 2.651925 1_556
Ag1 O10 2.651925 1_555
Ag2 O6 2.389384 1_554
Ag2 O4 2.389384 1_555
Ag2 O2 2.583730 1_555
Ag2 O0 2.583730 1_554
Ag2 O5 2.743114 1_555
Ag2 O7 2.743114 1_554
Ag3 O5 2.389384 1_555
Ag3 O7 2.389384 1_555
Ag3 O3 2.583730 1_555
Ag3 O1 2.583730 1_555
Ag3 O6 2.743114 1_555
Ag3 O4 2.743114 1_555
Ag4 O19 2.641408 1_456
Ag4 O18 2.641408 1_565
Ag4 O16 2.707585 1_455
Ag4 O17 2.707585 1_565
Ag5 O16 2.641408 1_545
Ag5 O17 2.641408 1_654
Ag5 O19 2.707585 1_545
Ag5 O18 2.707585 1_655
O0 P0 1.567351 1_555
O0 Tl0 2.192162 1_555
O1 P0 1.567351 1_555
O1 Tl1 2.192162 1_555
O2 P1 1.567351 1_555
O2 Tl2 2.192162 1_555
O3 P1 1.567351 1_555
O3 Tl3 2.192162 1_555
O4 P2 1.530789 1_555
O5 P3 1.530789 1_555
O6 P4 1.530789 1_555
O7 P5 1.530789 1_555
O8 P0 1.556816 1_555
O8 Tl2 2.249887 1_655
O9 P0 1.556816 1_555
O9 Tl3 2.249887 1_546
O10 P1 1.556816 1_555
O10 Tl0 2.249887 1_455
O11 P1 1.556816 1_555
O11 Tl1 2.249887 1_564
O12 P3 1.570004 1_556
O12 Tl0 2.236488 1_555
O13 P2 1.570004 1_555
O13 Tl1 2.236488 1_555
O14 P5 1.570004 1_554
O14 Tl2 2.236488 1_555
O15 P4 1.570004 1_555
O15 Tl3 2.236488 1_555
O16 P4 1.578911 1_555
O16 Tl0 2.264565 1_555
O17 P5 1.578911 1_555
O17 Tl1 2.264565 1_555
O18 P2 1.578911 1_555
O18 Tl2 2.264565 1_555
O19 P3 1.578911 1_555
O19 Tl3 2.264565 1_555
O20 P2 1.567874 1_555
O20 Tl1 2.347051 1_554
O20 Tl3 2.374526 1_545
O21 P3 1.567874 1_555
O21 Tl0 2.347051 1_555
O21 Tl2 2.374526 1_655
O22 P4 1.567874 1_555
O22 Tl3 2.347051 1_556
O22 Tl1 2.374526 1_565
O23 P5 1.567874 1_555
O23 Tl2 2.347051 1_555
O23 Tl0 2.374526 1_455
