# generated using pymatgen
data_Te6MoW3Se2
_symmetry_space_group_name_H-M   'P 1'
_cell_length_a   3.49815157
_cell_length_b   3.49815157
_cell_length_c   39.68219700
_cell_angle_alpha   90.00000000
_cell_angle_beta   90.00000000
_cell_angle_gamma   119.99999184
_symmetry_Int_Tables_number   1
_chemical_formula_structural   Te6MoW3Se2
_chemical_formula_sum   'Te6 Mo1 W3 Se2'
_cell_volume   420.53642815
_cell_formula_units_Z   1
loop_
 _symmetry_equiv_pos_site_id
 _symmetry_equiv_pos_as_xyz
  1  'x, y, z'
loop_
 _atom_site_type_symbol
 _atom_site_label
 _atom_site_symmetry_multiplicity
 _atom_site_fract_x
 _atom_site_fract_y
 _atom_site_fract_z
 _atom_site_occupancy
  Te  Te0  1  0.00000000  0.00000000  0.32823600  1
  Te  Te1  1  0.00000000  0.00000000  0.70397500  1
  Te  Te2  1  0.33333300  0.66666700  0.42350700  1
  Te  Te3  1  0.33333300  0.66666700  0.51581300  1
  Te  Te4  1  0.00000000  0.00000000  0.23534900  1
  Te  Te5  1  0.00000000  0.00000000  0.61108800  1
  Mo  Mo0  1  0.00000000  0.00000000  0.46965900  1
  W  W0  1  0.00000000  0.00000000  0.09391600  1
  W  W1  1  0.33333300  0.66666700  0.28177500  1
  W  W2  1  0.33333300  0.66666700  0.65755100  1
  Se  Se0  1  0.33333300  0.66666700  0.05303200  1
  Se  Se1  1  0.33333300  0.66666700  0.13484900  1
loop_
_geom_bond_atom_site_label_1
_geom_bond_atom_site_label_2
_geom_bond_distance
_geom_bond_site_symmetry_2
Te0 W1 2.734620 1_545
Te0 W1 2.734623 1_445
Te0 W1 2.734623 1_555
Te1 W2 2.733631 1_545
Te1 W2 2.733633 1_445
Te1 W2 2.733633 1_555
Te4 W1 2.733684 1_545
Te4 W1 2.733687 1_555
Te4 W1 2.733687 1_445
Te5 W2 2.734674 1_545
Te5 W2 2.734676 1_445
Te5 W2 2.734676 1_555
Mo0 Te2 2.726369 1_545
Mo0 Te2 2.726371 1_555
Mo0 Te2 2.726371 1_445
Mo0 Te3 2.726422 1_545
Mo0 Te3 2.726424 1_555
Mo0 Te3 2.726424 1_445
Se0 W0 2.590577 1_565
Se0 W0 2.590579 1_555
Se0 W0 2.590579 1_665
Se1 W0 2.591795 1_565
Se1 W0 2.591797 1_665
Se1 W0 2.591797 1_555
