# generated using pymatgen
data_Zn(SnO2)2
_symmetry_space_group_name_H-M   'P 1'
_cell_length_a   6.26838437
_cell_length_b   6.26838437
_cell_length_c   25.42531541
_cell_angle_alpha   81.31912259
_cell_angle_beta   81.31912259
_cell_angle_gamma   60.81557589
_symmetry_Int_Tables_number   1
_chemical_formula_structural   Zn(SnO2)2
_chemical_formula_sum   'Zn8 Sn16 O32'
_cell_volume   858.74586388
_cell_formula_units_Z   8
loop_
 _symmetry_equiv_pos_site_id
 _symmetry_equiv_pos_as_xyz
  1  'x, y, z'
loop_
 _atom_site_type_symbol
 _atom_site_label
 _atom_site_symmetry_multiplicity
 _atom_site_fract_x
 _atom_site_fract_y
 _atom_site_fract_z
 _atom_site_occupancy
  Zn  Zn0  1  0.63956800  0.63956800  0.06823800  1
  Zn  Zn1  1  0.12344300  0.12344300  0.12860300  1
  Zn  Zn2  1  0.87678000  0.87678000  0.32450500  1
  Zn  Zn3  1  0.36615100  0.36615100  0.39702600  1
  Zn  Zn4  1  0.63775300  0.63775300  0.65713700  1
  Zn  Zn5  1  0.50384000  0.50384000  0.50173700  1
  Zn  Zn6  1  0.88948600  0.88948600  0.86829900  1
  Zn  Zn7  1  0.75316700  0.75316700  0.75672800  1
  Sn  Sn0  1  0.62086600  0.12386400  0.12272700  1
  Sn  Sn1  1  0.24994100  0.24994100  0.26828200  1
  Sn  Sn2  1  0.12386400  0.62086600  0.12272700  1
  Sn  Sn3  1  0.14776300  0.14776300  0.53416300  1
  Sn  Sn4  1  0.85719600  0.36802300  0.38286400  1
  Sn  Sn5  1  0.59498400  0.59498400  0.21172600  1
  Sn  Sn6  1  0.41400900  0.41400900  0.77417500  1
  Sn  Sn7  1  0.36802300  0.85719600  0.38286400  1
  Sn  Sn8  1  0.12668900  0.63139500  0.62167000  1
  Sn  Sn9  1  0.83929400  0.83929400  0.48132200  1
  Sn  Sn10  1  0.63139500  0.12668900  0.62167000  1
  Sn  Sn11  1  0.88786700  0.39037200  0.86430900  1
  Sn  Sn12  1  0.39037200  0.88786700  0.86430900  1
  Sn  Sn13  1  0.10163100  0.10163100  0.71720200  1
  Sn  Sn14  1  0.01234000  0.01234000  0.00808900  1
  Sn  Sn15  1  0.36233400  0.36233400  0.95082400  1
  O  O0  1  0.28310100  0.81074500  0.06939400  1
  O  O1  1  0.93792500  0.93792500  0.16280200  1
  O  O2  1  0.81074500  0.28310100  0.06939400  1
  O  O3  1  0.82132800  0.82132800  0.07052100  1
  O  O4  1  0.44530600  0.44530600  0.16463200  1
  O  O5  1  0.52294900  0.03954900  0.32677800  1
  O  O6  1  0.44936600  0.93709800  0.16766100  1
  O  O7  1  0.18317400  0.18317400  0.41957800  1
  O  O8  1  0.03954900  0.52294900  0.32677800  1
  O  O9  1  0.30296300  0.30296300  0.08476100  1
  O  O10  1  0.05227200  0.05227200  0.33441800  1
  O  O11  1  0.93709800  0.44936600  0.16766100  1
  O  O12  1  0.75988200  0.26262800  0.54951000  1
  O  O13  1  0.68490400  0.68490400  0.42584100  1
  O  O14  1  0.68150900  0.21041300  0.43868100  1
  O  O15  1  0.46424800  0.46424800  0.65371400  1
  O  O16  1  0.26262800  0.75988200  0.54951000  1
  O  O17  1  0.53339600  0.53339600  0.34633200  1
  O  O18  1  0.28077100  0.28077100  0.59392300  1
  O  O19  1  0.21041300  0.68150900  0.43868100  1
  O  O20  1  0.98052300  0.98052300  0.64866900  1
  O  O21  1  0.03880900  0.57888100  0.80823000  1
  O  O22  1  0.95829900  0.50140900  0.69209600  1
  O  O23  1  0.70544700  0.70544700  0.90437900  1
  O  O24  1  0.57888100  0.03880900  0.80823000  1
  O  O25  1  0.77875000  0.77875000  0.59440200  1
  O  O26  1  0.58436700  0.58436700  0.81361200  1
  O  O27  1  0.50140900  0.95829900  0.69209600  1
  O  O28  1  0.21060900  0.21060900  0.90475000  1
  O  O29  1  0.20926400  0.71306000  0.90928300  1
  O  O30  1  0.07239500  0.07239500  0.82304400  1
  O  O31  1  0.71306000  0.20926400  0.90928300  1
loop_
_geom_bond_atom_site_label_1
_geom_bond_atom_site_label_2
_geom_bond_distance
_geom_bond_site_symmetry_2
O0 Zn0 1.948466 1_555
O0 Sn2 2.124759 1_555
O0 Sn14 2.240392 1_565
O0 Zn1 2.373332 1_565
O1 Zn1 2.041843 1_665
O1 Sn2 2.083343 1_655
O1 Sn0 2.083343 1_565
O2 Zn0 1.948466 1_555
O2 Sn0 2.124759 1_555
O2 Sn14 2.240392 1_655
O2 Zn1 2.373332 1_655
O3 Zn0 1.976223 1_555
O3 Sn0 2.206718 1_565
O3 Sn2 2.206718 1_655
O3 Sn14 2.374365 1_665
O4 Sn2 2.130201 1_555
O4 Sn0 2.130201 1_555
O4 Sn5 2.175097 1_555
O5 Zn2 1.932823 1_545
O5 Sn7 2.110851 1_545
O5 Sn1 2.203420 1_555
O6 Sn0 2.069882 1_565
O6 Sn5 2.088472 1_555
O6 Zn1 2.111736 1_565
O7 Zn3 1.961068 1_555
O7 Sn7 2.080744 1_545
O7 Sn4 2.080744 1_455
O8 Zn2 1.932823 1_455
O8 Sn4 2.110851 1_455
O8 Sn1 2.203420 1_555
O9 Sn0 2.057891 1_555
O9 Sn2 2.057891 1_555
O9 Zn1 2.062235 1_555
O10 Zn2 1.957369 1_445
O10 Sn4 2.202462 1_455
O10 Sn7 2.202462 1_545
O10 Sn1 2.477399 1_555
O11 Sn2 2.069882 1_655
O11 Sn5 2.088472 1_555
O11 Zn1 2.111736 1_655
O12 Zn5 2.001222 1_555
O12 Sn10 2.119483 1_555
O12 Sn3 2.161815 1_655
O13 Sn4 2.124320 1_555
O13 Sn7 2.124320 1_555
O13 Sn9 2.366563 1_555
O13 Zn5 2.496810 1_555
O14 Sn4 2.090208 1_555
O14 Zn3 2.102435 1_555
O14 Sn9 2.209942 1_545
O14 Zn5 2.355236 1_555
O15 Zn4 1.893154 1_555
O15 Sn8 2.083125 1_555
O15 Sn10 2.083125 1_555
O16 Zn5 2.001222 1_555
O16 Sn8 2.119483 1_555
O16 Sn3 2.161815 1_565
O17 Zn3 2.028660 1_555
O17 Sn4 2.069664 1_555
O17 Sn7 2.069664 1_555
O18 Sn8 2.110264 1_555
O18 Sn10 2.110264 1_555
O18 Sn3 2.267513 1_555
O19 Sn7 2.090208 1_555
O19 Zn3 2.102435 1_555
O19 Sn9 2.209942 1_455
O19 Zn5 2.355236 1_555
O20 Sn8 2.099577 1_655
O20 Sn10 2.099577 1_565
O20 Sn13 2.355735 1_665
O21 Zn7 2.117159 1_455
O21 Sn11 2.121092 1_455
O21 Sn6 2.152708 1_555
O21 Zn6 2.385006 1_455
O22 Zn4 2.047642 1_555
O22 Sn8 2.193657 1_655
O22 Sn13 2.233613 1_655
O22 Zn7 2.238358 1_555
O23 Zn6 2.040156 1_555
O23 Sn12 2.073499 1_555
O23 Sn11 2.073499 1_555
O24 Zn7 2.117159 1_545
O24 Sn12 2.121092 1_545
O24 Sn6 2.152708 1_555
O24 Zn6 2.385006 1_545
O25 Zn4 2.004296 1_555
O25 Sn8 2.095023 1_655
O25 Sn10 2.095023 1_565
O26 Zn7 2.121062 1_555
O26 Sn12 2.184139 1_555
O26 Sn11 2.184139 1_555
O26 Sn6 2.246029 1_555
O27 Zn4 2.047642 1_555
O27 Sn10 2.193657 1_565
O27 Sn13 2.233613 1_565
O27 Zn7 2.238358 1_555
O28 Sn12 2.115363 1_545
O28 Sn11 2.115363 1_455
O28 Sn15 2.176264 1_555
O29 Sn12 2.059154 1_555
O29 Sn15 2.101732 1_555
O29 Zn6 2.108931 1_455
O30 Sn11 2.104291 1_455
O30 Sn12 2.104291 1_545
O30 Zn6 2.106804 1_445
O30 Sn13 2.654058 1_555
O31 Sn11 2.059154 1_555
O31 Sn15 2.101732 1_555
O31 Zn6 2.108931 1_545
