# generated using pymatgen
data_Ba2ErReO6
_symmetry_space_group_name_H-M   'P 1'
_cell_length_a   5.95170300
_cell_length_b   5.96515300
_cell_length_c   10.34742152
_cell_angle_alpha   54.74879687
_cell_angle_beta   90.00000000
_cell_angle_gamma   90.00000000
_symmetry_Int_Tables_number   1
_chemical_formula_structural   Ba2ErReO6
_chemical_formula_sum   'Ba4 Er2 Re2 O12'
_cell_volume   299.99914012
_cell_formula_units_Z   2
loop_
 _symmetry_equiv_pos_site_id
 _symmetry_equiv_pos_as_xyz
  1  'x, y, z'
loop_
 _atom_site_type_symbol
 _atom_site_label
 _atom_site_symmetry_multiplicity
 _atom_site_fract_x
 _atom_site_fract_y
 _atom_site_fract_z
 _atom_site_occupancy
  Ba  Ba0  1  0.49579800  0.75064000  0.24976800  1
  Ba  Ba1  1  0.50420200  0.24936000  0.75023200  1
  Ba  Ba2  1  0.99579800  0.24936000  0.25023200  1
  Ba  Ba3  1  0.00420200  0.75064000  0.74976800  1
  Er  Er0  1  0.00000000  0.00000000  0.00000000  1
  Er  Er1  1  0.50000000  0.00000000  0.50000000  1
  Re  Re0  1  0.00000000  0.50000000  0.50000000  1
  Re  Re1  1  0.50000000  0.50000000  0.00000000  1
  O  O0  1  0.00026600  0.71636800  0.26366800  1
  O  O1  1  0.99973400  0.28363200  0.73633200  1
  O  O2  1  0.50026600  0.28363200  0.23633200  1
  O  O3  1  0.49973400  0.71636800  0.76366800  1
  O  O4  1  0.72598500  0.24436000  0.00998400  1
  O  O5  1  0.27401500  0.75564000  0.99001600  1
  O  O6  1  0.22598500  0.75564000  0.49001600  1
  O  O7  1  0.77401500  0.24436000  0.50998400  1
  O  O8  1  0.25343000  0.26357400  0.01017400  1
  O  O9  1  0.74657000  0.73642600  0.98982600  1
  O  O10  1  0.75343000  0.73642600  0.48982600  1
  O  O11  1  0.24657000  0.26357400  0.51017400  1
loop_
_geom_bond_atom_site_label_1
_geom_bond_atom_site_label_2
_geom_bond_distance
_geom_bond_site_symmetry_2
Ba0 O2 2.868387 1_555
Ba0 O4 2.876065 1_565
Ba0 O10 2.878436 1_555
Ba0 O0 2.954094 1_555
Ba0 O8 2.972007 1_565
Ba0 O6 2.974081 1_555
Ba0 O11 2.977470 1_555
Ba0 O5 2.979059 1_554
Ba0 O0 3.007193 1_655
Ba0 O2 3.101330 1_565
Ba0 O7 3.118631 1_555
Ba0 O9 3.119728 1_554
Ba1 O3 2.868387 1_555
Ba1 O5 2.876065 1_545
Ba1 O11 2.878436 1_555
Ba1 O1 2.954094 1_555
Ba1 O9 2.972007 1_545
Ba1 O7 2.974081 1_555
Ba1 O10 2.977470 1_555
Ba1 O4 2.979059 1_556
Ba1 O1 3.007193 1_455
Ba1 O3 3.101330 1_545
Ba1 O6 3.118631 1_555
Ba1 O8 3.119728 1_556
Ba2 O0 2.868387 1_655
Ba2 O6 2.876065 1_645
Ba2 O8 2.878436 1_655
Ba2 O2 2.954094 1_555
Ba2 O10 2.972007 1_545
Ba2 O4 2.974081 1_555
Ba2 O9 2.977470 1_554
Ba2 O7 2.979059 1_555
Ba2 O2 3.007193 1_655
Ba2 O0 3.101330 1_645
Ba2 O5 3.118631 1_654
Ba2 O11 3.119728 1_655
Ba3 O1 2.868387 1_455
Ba3 O7 2.876065 1_465
Ba3 O9 2.878436 1_455
Ba3 O3 2.954094 1_555
Ba3 O11 2.972007 1_565
Ba3 O5 2.974081 1_555
Ba3 O8 2.977470 1_556
Ba3 O6 2.979059 1_555
Ba3 O3 3.007193 1_455
Ba3 O1 3.101330 1_465
Ba3 O4 3.118631 1_456
Ba3 O10 3.119728 1_455
Er0 O8 2.224687 1_555
Er0 O9 2.224687 1_444
Er0 O5 2.229107 1_544
Er0 O4 2.229107 1_455
Er0 O0 2.231080 1_545
Er0 O1 2.231080 1_454
Er1 O11 2.224687 1_555
Er1 O10 2.224687 1_545
Er1 O7 2.229107 1_555
Er1 O6 2.229107 1_545
Er1 O3 2.231080 1_545
Er1 O2 2.231080 1_555
O0 Re0 2.000655 1_555
O1 Re0 2.000655 1_655
O2 Re1 2.000655 1_555
O3 Re1 2.000655 1_556
O4 Re1 1.990792 1_555
O5 Re1 1.990792 1_556
O6 Re0 1.990792 1_555
O7 Re0 1.990792 1_655
O8 Re1 1.995566 1_555
O9 Re1 1.995566 1_556
O10 Re0 1.995566 1_655
O11 Re0 1.995566 1_555
