# generated using pymatgen
data_Ca2VWO6
_symmetry_space_group_name_H-M   'P 1'
_cell_length_a   5.50359438
_cell_length_b   5.67621100
_cell_length_c   7.86924397
_cell_angle_alpha   89.99963618
_cell_angle_beta   90.26001752
_cell_angle_gamma   90.00028776
_symmetry_Int_Tables_number   1
_chemical_formula_structural   Ca2VWO6
_chemical_formula_sum   'Ca4 V2 W2 O12'
_cell_volume   245.82921092
_cell_formula_units_Z   2
loop_
 _symmetry_equiv_pos_site_id
 _symmetry_equiv_pos_as_xyz
  1  'x, y, z'
loop_
 _atom_site_type_symbol
 _atom_site_label
 _atom_site_symmetry_multiplicity
 _atom_site_fract_x
 _atom_site_fract_y
 _atom_site_fract_z
 _atom_site_occupancy
  Ca  Ca0  1  0.98751100  0.05232600  0.25220700  1
  Ca  Ca1  1  0.51249100  0.55233400  0.24781800  1
  Ca  Ca2  1  0.01248900  0.94767400  0.74779200  1
  Ca  Ca3  1  0.48750800  0.44766800  0.75218100  1
  V  V0  1  0.00000000  0.49999900  0.50000000  1
  V  V1  1  0.50000200  0.99999900  0.00000100  1
  W  W0  1  0.50000000  0.99999900  0.50000000  1
  W  W1  1  0.00000000  0.50000000  0.99999900  1
  O  O0  1  0.68698500  0.28432200  0.44588800  1
  O  O1  1  0.81301700  0.78432200  0.05411300  1
  O  O2  1  0.31301400  0.71567900  0.55411100  1
  O  O3  1  0.18698400  0.21567700  0.94588700  1
  O  O4  1  0.21234300  0.19166900  0.54704500  1
  O  O5  1  0.28765500  0.69166700  0.95295500  1
  O  O6  1  0.78765800  0.80833100  0.45295500  1
  O  O7  1  0.71234400  0.30833300  0.04704500  1
  O  O8  1  0.09737500  0.46644000  0.23840200  1
  O  O9  1  0.40261800  0.96644200  0.26159800  1
  O  O10  1  0.59738200  0.03355900  0.73840100  1
  O  O11  1  0.90262600  0.53355900  0.76159700  1
loop_
_geom_bond_atom_site_label_1
_geom_bond_atom_site_label_2
_geom_bond_distance
_geom_bond_site_symmetry_2
Ca0 O9 2.336857 1_645
Ca0 O6 2.374705 1_545
Ca0 O1 2.377582 1_545
Ca0 O8 2.429669 1_655
Ca0 O0 2.610675 1_555
Ca0 O7 2.643745 1_555
Ca0 O4 2.741125 1_655
Ca0 O3 2.810597 1_654
Ca1 O8 2.336918 1_555
Ca1 O7 2.374875 1_555
Ca1 O0 2.377481 1_555
Ca1 O9 2.429647 1_555
Ca1 O1 2.610744 1_555
Ca1 O6 2.643597 1_555
Ca1 O5 2.741280 1_554
Ca1 O2 2.810426 1_555
Ca2 O10 2.336858 1_465
Ca2 O4 2.374703 1_565
Ca2 O3 2.377586 1_565
Ca2 O11 2.429673 1_455
Ca2 O2 2.610668 1_555
Ca2 O5 2.643747 1_555
Ca2 O6 2.741116 1_455
Ca2 O1 2.810603 1_456
Ca3 O11 2.336925 1_555
Ca3 O5 2.374873 1_555
Ca3 O2 2.377477 1_555
Ca3 O10 2.429653 1_555
Ca3 O3 2.610750 1_555
Ca3 O4 2.643592 1_555
Ca3 O7 2.741290 1_556
Ca3 O0 2.810427 1_555
O0 W0 1.961861 1_545
O0 V0 2.154323 1_655
O1 W1 1.961867 1_654
O1 V1 2.154330 1_555
O2 W0 1.961849 1_555
O2 V0 2.154327 1_555
O3 W1 1.961872 1_555
O3 V1 2.154349 1_546
O4 W0 1.957654 1_545
O4 V0 2.135859 1_555
O5 W1 1.957622 1_555
O5 V1 2.135876 1_556
O6 W0 1.957652 1_555
O6 V0 2.135865 1_655
O7 W1 1.957630 1_654
O7 V1 2.135867 1_545
O8 W1 1.958042 1_554
O8 V0 2.138049 1_555
O9 W0 1.958045 1_555
O9 V1 2.138050 1_555
O10 W0 1.958039 1_545
O10 V1 2.138069 1_546
O11 W1 1.958033 1_655
O11 V0 2.138040 1_655
