# generated using pymatgen
data_Ba7Cd31
_symmetry_space_group_name_H-M   'P 1'
_cell_length_a   10.44481652
_cell_length_b   10.66245443
_cell_length_c   10.66237518
_cell_angle_alpha   60.00053262
_cell_angle_beta   89.99949627
_cell_angle_gamma   89.99962810
_symmetry_Int_Tables_number   1
_chemical_formula_structural   Ba7Cd31
_chemical_formula_sum   'Ba7 Cd31'
_cell_volume   1028.35940907
_cell_formula_units_Z   1
loop_
 _symmetry_equiv_pos_site_id
 _symmetry_equiv_pos_as_xyz
  1  'x, y, z'
loop_
 _atom_site_type_symbol
 _atom_site_label
 _atom_site_symmetry_multiplicity
 _atom_site_fract_x
 _atom_site_fract_y
 _atom_site_fract_z
 _atom_site_occupancy
  Ba  Ba0  1  0.00000164  0.33332438  0.33333750  1
  Ba  Ba1  1  0.99999772  0.66667201  0.66667754  1
  Ba  Ba2  1  0.50000330  0.49924073  0.49924432  1
  Ba  Ba3  1  0.50000022  0.49921362  0.00153796  1
  Ba  Ba4  1  0.49999938  0.00153238  0.49921257  1
  Ba  Ba5  1  0.20724633  0.00000552  0.00001195  1
  Ba  Ba6  1  0.79275338  0.00000269  0.00001230  1
  Cd  Cd0  1  0.00000213  0.27504718  0.72476735  1
  Cd  Cd1  1  0.00000095  0.72475961  0.00019719  1
  Cd  Cd2  1  -0.00000348  0.00018118  0.27507391  1
  Cd  Cd3  1  -0.00000056  0.72475575  0.27505529  1
  Cd  Cd4  1  0.00000067  0.27505308  0.00020068  1
  Cd  Cd5  1  0.00000022  0.00019849  0.72476879  1
  Cd  Cd6  1  0.16741009  0.49891331  0.49890536  1
  Cd  Cd7  1  0.16742152  0.49891538  0.00217604  1
  Cd  Cd8  1  0.16741101  0.00218124  0.49890706  1
  Cd  Cd9  1  0.83259455  0.49889813  0.49891354  1
  Cd  Cd10  1  0.83258422  0.49891140  0.00218194  1
  Cd  Cd11  1  0.83258646  0.00218094  0.49890500  1
  Cd  Cd12  1  0.34549952  0.33333276  0.33334341  1
  Cd  Cd13  1  0.35073407  0.66667321  0.66667418  1
  Cd  Cd14  1  0.64925899  0.66667198  0.66667583  1
  Cd  Cd15  1  0.65450756  0.33333117  0.33334071  1
  Cd  Cd16  1  0.26110488  0.18428979  0.63145061  1
  Cd  Cd17  1  0.26109842  0.63144626  0.18429452  1
  Cd  Cd18  1  0.26109756  0.18428697  0.18430210  1
  Cd  Cd19  1  0.26336514  0.36911876  0.81543151  1
  Cd  Cd20  1  0.26335182  0.81541795  0.36913642  1
  Cd  Cd21  1  0.26336093  0.81544572  0.81545143  1
  Cd  Cd22  1  0.73664388  0.81541457  0.36913527  1
  Cd  Cd23  1  0.73664693  0.36911820  0.81543967  1
  Cd  Cd24  1  0.73663001  0.81543903  0.81545731  1
  Cd  Cd25  1  0.73889601  0.63144511  0.18429603  1
  Cd  Cd26  1  0.73889493  0.18429087  0.63144929  1
  Cd  Cd27  1  0.73889964  0.18428340  0.18430317  1
  Cd  Cd28  1  0.50000266  0.09734116  0.80506588  1
  Cd  Cd29  1  0.49999530  0.80506096  0.09735218  1
  Cd  Cd30  1  0.50000101  0.09750615  0.09741020  1
loop_
_geom_bond_atom_site_label_1
_geom_bond_atom_site_label_2
_geom_bond_distance
_geom_bond_site_symmetry_2
Ba0 Cd8 3.522420 1_555
Ba0 Cd9 3.522420 1_455
Ba0 Cd11 3.522460 1_455
Ba0 Cd6 3.522510 1_555
Ba0 Cd10 3.522555 1_455
Ba0 Cd7 3.522595 1_555
Ba0 Cd15 3.608622 1_455
Ba0 Cd12 3.608662 1_555
Ba0 Cd18 3.874596 1_555
Ba0 Cd27 3.874692 1_455
Ba0 Cd26 3.874945 1_455
Ba0 Cd16 3.874953 1_555
Ba0 Cd17 3.874969 1_555
Ba0 Cd25 3.875018 1_455
Ba0 Cd4 3.899980 1_555
Ba0 Cd2 3.900020 1_555
Ba0 Cd5 3.900130 1_555
Ba0 Cd0 3.900191 1_555
Ba0 Cd3 3.900219 1_555
Ba0 Cd1 3.900223 1_555
Ba1 Cd10 3.557431 1_556
Ba1 Cd7 3.557456 1_656
Ba1 Cd11 3.557482 1_565
Ba1 Cd8 3.557502 1_665
Ba1 Cd6 3.557622 1_655
Ba1 Cd9 3.557658 1_555
Ba1 Cd13 3.663377 1_655
Ba1 Cd14 3.663402 1_555
Ba1 Cd20 3.887775 1_655
Ba1 Cd22 3.887806 1_555
Ba1 Cd23 3.887865 1_555
Ba1 Cd24 3.887900 1_555
Ba1 Cd21 3.887906 1_655
Ba1 Cd19 3.887975 1_655
Ba1 Cd2 3.902796 1_665
Ba1 Cd1 3.902819 1_656
Ba1 Cd5 3.902939 1_665
Ba1 Cd4 3.902961 1_656
Ba1 Cd3 3.902998 1_655
Ba1 Cd0 3.903034 1_655
Ba2 Cd14 3.462862 1_555
Ba2 Cd13 3.462898 1_555
Ba2 Cd12 3.462909 1_555
Ba2 Cd15 3.462921 1_555
Ba2 Cd9 3.473860 1_555
Ba2 Cd6 3.473881 1_555
Ba2 Cd22 3.836919 1_555
Ba2 Cd19 3.836953 1_555
Ba2 Cd20 3.837006 1_555
Ba2 Cd23 3.837077 1_555
Ba2 Cd25 3.841374 1_555
Ba2 Cd26 3.841402 1_555
Ba2 Cd16 3.841468 1_555
Ba2 Cd17 3.841493 1_555
Ba2 Cd29 3.875873 1_555
Ba2 Cd28 3.875946 1_555
Ba3 Cd12 3.462856 1_555
Ba3 Cd14 3.462862 1_554
Ba3 Cd15 3.462884 1_555
Ba3 Cd13 3.462928 1_554
Ba3 Cd7 3.473728 1_555
Ba3 Cd10 3.473784 1_555
Ba3 Cd23 3.837069 1_554
Ba3 Cd19 3.837082 1_554
Ba3 Cd24 3.837199 1_554
Ba3 Cd21 3.837307 1_554
Ba3 Cd27 3.841346 1_555
Ba3 Cd18 3.841349 1_555
Ba3 Cd25 3.841700 1_555
Ba3 Cd17 3.841703 1_555
Ba3 Cd29 3.874253 1_555
Ba3 Cd30 3.874574 1_555
Ba4 Cd12 3.462836 1_555
Ba4 Cd15 3.462870 1_555
Ba4 Cd14 3.462878 1_545
Ba4 Cd13 3.462902 1_545
Ba4 Cd11 3.473816 1_555
Ba4 Cd8 3.473830 1_555
Ba4 Cd22 3.837085 1_545
Ba4 Cd20 3.837105 1_545
Ba4 Cd21 3.837324 1_545
Ba4 Cd24 3.837337 1_545
Ba4 Cd27 3.841181 1_555
Ba4 Cd18 3.841223 1_555
Ba4 Cd16 3.841700 1_555
Ba4 Cd26 3.841739 1_555
Ba4 Cd28 3.874257 1_555
Ba4 Cd30 3.875214 1_555
Ba5 Cd17 3.449445 1_545
Ba5 Cd16 3.449448 1_554
Ba5 Cd18 3.449523 1_555
Ba5 Cd19 3.458429 1_554
Ba5 Cd21 3.458440 1_544
Ba5 Cd20 3.458485 1_545
Ba5 Cd30 3.548082 1_555
Ba5 Cd29 3.548238 1_545
Ba5 Cd28 3.548298 1_554
Ba5 Cd4 3.645837 1_555
Ba5 Cd0 3.645864 1_554
Ba5 Cd5 3.645889 1_554
Ba5 Cd3 3.645902 1_545
Ba5 Cd2 3.645908 1_555
Ba5 Cd1 3.645955 1_545
Ba6 Cd25 3.449442 1_545
Ba6 Cd26 3.449470 1_554
Ba6 Cd27 3.449517 1_555
Ba6 Cd23 3.458425 1_554
Ba6 Cd24 3.458450 1_544
Ba6 Cd22 3.458471 1_545
Ba6 Cd30 3.548045 1_555
Ba6 Cd28 3.548269 1_554
Ba6 Cd29 3.548314 1_545
Ba6 Cd5 3.645854 1_654
Ba6 Cd3 3.645891 1_645
Ba6 Cd4 3.645892 1_655
Ba6 Cd0 3.645898 1_654
Ba6 Cd2 3.645907 1_655
Ba6 Cd1 3.645923 1_645
Cd0 Cd5 2.930554 1_555
Cd0 Cd4 2.936805 1_556
Cd0 Cd9 2.967442 1_455
Cd0 Cd6 2.967538 1_555
Cd0 Cd16 3.213505 1_555
Cd0 Cd26 3.213571 1_455
Cd0 Cd23 3.236770 1_455
Cd0 Cd19 3.236828 1_555
Cd1 Cd3 2.930620 1_555
Cd1 Cd5 2.936811 1_564
Cd1 Cd7 2.967521 1_555
Cd1 Cd10 2.967524 1_455
Cd1 Cd17 3.213597 1_555
Cd1 Cd25 3.213652 1_455
Cd1 Cd21 3.236830 1_554
Cd1 Cd24 3.236918 1_454
Cd2 Cd4 2.930829 1_555
Cd2 Cd3 2.936810 1_545
Cd2 Cd8 2.967305 1_555
Cd2 Cd27 3.213610 1_455
Cd2 Cd22 3.236885 1_445
Cd2 Cd20 3.236886 1_545
Cd3 Cd6 2.967407 1_555
Cd3 Cd9 2.967467 1_455
Cd4 Cd7 2.967499 1_555
Cd5 Cd8 2.967577 1_555
Cd10 Cd4 2.967444 1_655
Cd10 Cd27 3.077030 1_555
Cd10 Cd25 3.077153 1_555
Cd10 Cd23 3.104739 1_554
Cd10 Cd24 3.104739 1_554
Cd11 Cd2 2.967234 1_655
Cd11 Cd5 2.967639 1_655
Cd11 Cd27 3.076789 1_555
Cd11 Cd26 3.077218 1_555
Cd11 Cd22 3.104791 1_545
Cd11 Cd24 3.104945 1_545
Cd12 Cd18 2.890239 1_555
Cd12 Cd16 2.890391 1_555
Cd12 Cd17 2.890490 1_555
Cd12 Cd15 3.227532 1_555
Cd13 Cd20 2.895081 1_555
Cd13 Cd21 2.895131 1_555
Cd13 Cd19 2.895199 1_555
Cd13 Cd14 3.118038 1_555
Cd14 Cd22 2.895103 1_555
Cd14 Cd24 2.895129 1_555
Cd14 Cd23 2.895252 1_555
Cd15 Cd27 2.890177 1_555
Cd15 Cd26 2.890391 1_555
Cd15 Cd25 2.890458 1_555
Cd16 Cd28 2.965871 1_555
Cd16 Cd6 3.076980 1_555
Cd16 Cd8 3.077223 1_555
Cd16 Cd5 3.213632 1_555
Cd16 Cd19 3.405638 1_555
Cd16 Cd21 3.405993 1_545
Cd17 Cd29 2.965861 1_555
Cd17 Cd6 3.076828 1_555
Cd17 Cd7 3.077149 1_555
Cd17 Cd3 3.213453 1_555
Cd17 Cd20 3.405671 1_555
Cd17 Cd21 3.405959 1_554
Cd18 Cd30 2.966183 1_555
Cd18 Cd8 3.076807 1_555
Cd18 Cd7 3.077006 1_555
Cd18 Cd4 3.213613 1_555
Cd18 Cd2 3.213672 1_555
Cd18 Cd19 3.406213 1_554
Cd18 Cd20 3.406223 1_545
Cd19 Cd6 3.104720 1_555
Cd19 Cd7 3.104792 1_556
Cd19 Cd4 3.236984 1_556
Cd20 Cd6 3.104523 1_555
Cd20 Cd8 3.104748 1_565
Cd20 Cd3 3.236771 1_555
Cd21 Cd7 3.104714 1_556
Cd21 Cd8 3.104862 1_565
Cd21 Cd5 3.236884 1_565
Cd22 Cd9 3.104645 1_555
Cd22 Cd3 3.236751 1_655
Cd22 Cd25 3.405626 1_555
Cd22 Cd27 3.406221 1_565
Cd23 Cd9 3.104697 1_555
Cd23 Cd4 3.236868 1_656
Cd23 Cd26 3.405709 1_555
Cd23 Cd27 3.406147 1_556
Cd24 Cd5 3.237008 1_665
Cd24 Cd25 3.405919 1_556
Cd24 Cd26 3.406065 1_565
Cd25 Cd29 2.965894 1_555
Cd25 Cd9 3.076923 1_555
Cd25 Cd3 3.213516 1_655
Cd26 Cd28 2.965812 1_555
Cd26 Cd9 3.076862 1_555
Cd26 Cd5 3.213637 1_655
Cd27 Cd30 2.966152 1_555
Cd27 Cd4 3.213636 1_655
Cd28 Cd29 3.116470 1_546
Cd28 Cd30 3.117965 1_556
Cd29 Cd30 3.118493 1_565
