# generated using pymatgen
data_CaO
_symmetry_space_group_name_H-M   'P 1'
_cell_length_a   3.33350702
_cell_length_b   3.33350702
_cell_length_c   16.74898800
_cell_angle_alpha   90.00000000
_cell_angle_beta   90.00000000
_cell_angle_gamma   90.10109397
_symmetry_Int_Tables_number   1
_chemical_formula_structural   CaO
_chemical_formula_sum   'Ca4 O4'
_cell_volume   186.11897103
_cell_formula_units_Z   4
loop_
 _symmetry_equiv_pos_site_id
 _symmetry_equiv_pos_as_xyz
  1  'x, y, z'
loop_
 _atom_site_type_symbol
 _atom_site_label
 _atom_site_symmetry_multiplicity
 _atom_site_fract_x
 _atom_site_fract_y
 _atom_site_fract_z
 _atom_site_occupancy
  Ca  Ca0  1  0.06720800  0.93279200  0.17848800  1
  Ca  Ca1  1  0.93279200  0.06720800  0.82151200  1
  Ca  Ca2  1  0.43279200  0.56720800  0.67848800  1
  Ca  Ca3  1  0.56720800  0.43279200  0.32151200  1
  O  O0  1  0.06700800  0.93299200  0.31963600  1
  O  O1  1  0.93299200  0.06700800  0.68036400  1
  O  O2  1  0.43299200  0.56700800  0.81963600  1
  O  O3  1  0.56700800  0.43299200  0.18036400  1
loop_
_geom_bond_atom_site_label_1
_geom_bond_atom_site_label_2
_geom_bond_distance
_geom_bond_site_symmetry_2
Ca0 O3 2.355275 1_565
Ca0 O3 2.355275 1_455
Ca0 O3 2.358490 1_555
Ca0 O3 2.360377 1_465
Ca0 O0 2.364086 1_555
Ca1 O2 2.355275 1_655
Ca1 O2 2.355275 1_545
Ca1 O2 2.358490 1_555
Ca1 O2 2.360377 1_645
Ca1 O1 2.364086 1_555
Ca2 O1 2.355275 1_455
Ca2 O1 2.355275 1_565
Ca2 O1 2.358490 1_465
Ca2 O1 2.360377 1_555
Ca2 O2 2.364086 1_555
Ca3 O0 2.355275 1_545
Ca3 O0 2.355275 1_655
Ca3 O0 2.358490 1_645
Ca3 O0 2.360377 1_555
Ca3 O3 2.364086 1_555
