# generated using pymatgen
data_Co2Mo3
_symmetry_space_group_name_H-M   'P 1'
_cell_length_a   4.18727300
_cell_length_b   6.87400200
_cell_length_c   9.91714700
_cell_angle_alpha   90.00000000
_cell_angle_beta   90.00000000
_cell_angle_gamma   90.00000000
_symmetry_Int_Tables_number   1
_chemical_formula_structural   Co2Mo3
_chemical_formula_sum   'Co8 Mo12'
_cell_volume   285.44844511
_cell_formula_units_Z   4
loop_
 _symmetry_equiv_pos_site_id
 _symmetry_equiv_pos_as_xyz
  1  'x, y, z'
loop_
 _atom_site_type_symbol
 _atom_site_label
 _atom_site_symmetry_multiplicity
 _atom_site_fract_x
 _atom_site_fract_y
 _atom_site_fract_z
 _atom_site_occupancy
  Co  Co0  1  0.75176500  0.08860500  0.03999900  1
  Co  Co1  1  0.25176500  0.41139500  0.46000100  1
  Co  Co2  1  0.24823500  0.58860500  0.96000100  1
  Co  Co3  1  0.74823500  0.91139500  0.53999900  1
  Co  Co4  1  0.24823500  0.91139500  0.96000100  1
  Co  Co5  1  0.74823500  0.58860500  0.53999900  1
  Co  Co6  1  0.75176500  0.41139500  0.03999900  1
  Co  Co7  1  0.25176500  0.08860500  0.46000100  1
  Mo  Mo0  1  0.75298700  0.04860700  0.32307000  1
  Mo  Mo1  1  0.25298700  0.45139300  0.17693000  1
  Mo  Mo2  1  0.24701300  0.54860700  0.67693000  1
  Mo  Mo3  1  0.74701300  0.95139300  0.82307000  1
  Mo  Mo4  1  0.24701300  0.95139300  0.67693000  1
  Mo  Mo5  1  0.74701300  0.54860700  0.82307000  1
  Mo  Mo6  1  0.75298700  0.45139300  0.32307000  1
  Mo  Mo7  1  0.25298700  0.04860700  0.17693000  1
  Mo  Mo8  1  0.74794900  0.25000000  0.62408700  1
  Mo  Mo9  1  0.24794900  0.25000000  0.87591300  1
  Mo  Mo10  1  0.25205100  0.75000000  0.37591300  1
  Mo  Mo11  1  0.75205100  0.75000000  0.12408700  1
loop_
_geom_bond_atom_site_label_1
_geom_bond_atom_site_label_2
_geom_bond_distance
_geom_bond_site_symmetry_2
Co0 Co6 2.218859 1_555
Co0 Mo3 2.349080 1_544
Co0 Mo11 2.472448 1_545
Co0 Mo7 2.506308 1_555
Co0 Mo7 2.514842 1_655
Co0 Co4 2.536714 1_644
Co0 Co4 2.560996 1_544
Co0 Mo0 2.820694 1_555
Co0 Mo9 2.862776 1_654
Co0 Mo9 2.886053 1_554
Co1 Co7 2.218859 1_555
Co1 Mo2 2.349080 1_555
Co1 Mo10 2.472448 1_555
Co1 Mo6 2.506308 1_455
Co1 Mo6 2.514842 1_555
Co1 Co5 2.536714 1_555
Co1 Co5 2.560996 1_455
Co1 Mo1 2.820694 1_555
Co1 Mo8 2.862776 1_555
Co1 Mo8 2.886053 1_455
Co2 Co4 2.218859 1_555
Co2 Mo1 2.349080 1_556
Co2 Mo9 2.472448 1_555
Co2 Mo5 2.506308 1_555
Co2 Mo5 2.514842 1_455
Co2 Co6 2.536714 1_456
Co2 Co6 2.560996 1_556
Co2 Mo2 2.820694 1_555
Co2 Mo11 2.862776 1_456
Co2 Mo11 2.886053 1_556
Co3 Co5 2.218859 1_555
Co3 Mo0 2.349080 1_565
Co3 Mo8 2.472448 1_565
Co3 Mo4 2.506308 1_655
Co3 Mo4 2.514842 1_555
Co3 Co7 2.536714 1_565
Co3 Co7 2.560996 1_665
Co3 Mo3 2.820694 1_555
Co3 Mo10 2.862776 1_555
Co3 Mo10 2.886053 1_655
Co4 Mo7 2.349080 1_566
Co4 Mo9 2.472448 1_565
Co4 Mo3 2.506308 1_555
Co4 Mo3 2.514842 1_455
Co4 Mo4 2.820694 1_555
Co4 Mo11 2.862776 1_456
Co4 Mo11 2.886053 1_556
Co5 Mo6 2.349080 1_555
Co5 Mo8 2.472448 1_555
Co5 Mo2 2.506308 1_655
Co5 Mo2 2.514842 1_555
Co5 Mo5 2.820694 1_555
Co5 Mo10 2.862776 1_555
Co5 Mo10 2.886053 1_655
Co6 Mo5 2.349080 1_554
Co6 Mo11 2.472448 1_555
Co6 Mo1 2.506308 1_555
Co6 Mo1 2.514842 1_655
Co6 Mo6 2.820694 1_555
Co6 Mo9 2.862776 1_654
Co6 Mo9 2.886053 1_554
Co7 Mo4 2.349080 1_545
Co7 Mo10 2.472448 1_545
Co7 Mo0 2.506308 1_455
Co7 Mo0 2.514842 1_555
Co7 Mo7 2.820694 1_555
Co7 Mo8 2.862776 1_555
Co7 Mo8 2.886053 1_455
