# generated using pymatgen
data_Li2MoO4
_symmetry_space_group_name_H-M   'P 1'
_cell_length_a   9.72563478
_cell_length_b   14.55632412
_cell_length_c   14.55632412
_cell_angle_alpha   119.99999932
_cell_angle_beta   90.00000000
_cell_angle_gamma   90.00000000
_symmetry_Int_Tables_number   1
_chemical_formula_structural   Li2MoO4
_chemical_formula_sum   'Li36 Mo18 O72'
_cell_volume   1784.64576621
_cell_formula_units_Z   18
loop_
 _symmetry_equiv_pos_site_id
 _symmetry_equiv_pos_as_xyz
  1  'x, y, z'
loop_
 _atom_site_type_symbol
 _atom_site_label
 _atom_site_symmetry_multiplicity
 _atom_site_fract_x
 _atom_site_fract_y
 _atom_site_fract_z
 _atom_site_occupancy
  Li  Li0  1  0.56469976  0.81063683  0.45397754  1
  Li  Li1  1  0.23136576  0.54602246  0.35665929  1
  Li  Li2  1  0.89803276  0.64334071  0.18936317  1
  Li  Li3  1  0.56858767  0.64814421  0.19304395  1
  Li  Li4  1  0.23525367  0.80695605  0.45510026  1
  Li  Li5  1  0.90192067  0.54489974  0.35185579  1
  Li  Li6  1  0.56526542  0.97412637  0.85637217  1
  Li  Li7  1  0.23193142  0.14362783  0.11775419  1
  Li  Li8  1  0.89859842  0.88224581  0.02587363  1
  Li  Li9  1  0.56429177  0.21036073  0.68693791  1
  Li  Li10  1  0.23095777  0.31306209  0.52342283  1
  Li  Li11  1  0.89762477  0.47657717  0.78963927  1
  Li  Li12  1  0.56900416  0.88022780  0.02161563  1
  Li  Li13  1  0.23567016  0.97838437  0.85861217  1
  Li  Li14  1  0.90233716  0.14138783  0.11977220  1
  Li  Li15  1  0.57022217  0.47303382  0.78880631  1
  Li  Li16  1  0.23688817  0.21119369  0.68422751  1
  Li  Li17  1  0.90355517  0.31577249  0.52696618  1
  Li  Li18  1  0.39525389  0.85477798  0.20869286  1
  Li  Li19  1  0.06191989  0.79130714  0.64608512  1
  Li  Li20  1  0.72858689  0.35391488  0.14522202  1
  Li  Li21  1  0.39969401  0.35799394  0.14152447  1
  Li  Li22  1  0.06636001  0.85847553  0.21646947  1
  Li  Li23  1  0.73302701  0.78353053  0.64200606  1
  Li  Li24  1  0.39994689  0.45364270  0.98097916  1
  Li  Li25  1  0.06661289  0.01902084  0.47266354  1
  Li  Li26  1  0.73327989  0.52733646  0.54635730  1
  Li  Li27  1  0.40219317  0.52292377  0.54783573  1
  Li  Li28  1  0.06885917  0.45216427  0.97508804  1
  Li  Li29  1  0.73552617  0.02491196  0.47707623  1
  Li  Li30  1  0.39945975  0.12339205  0.31196433  1
  Li  Li31  1  0.06612575  0.68803567  0.81142772  1
  Li  Li32  1  0.73279275  0.18857228  0.87660795  1
  Li  Li33  1  0.39818804  0.68658647  0.80909223  1
  Li  Li34  1  0.06485404  0.19090777  0.87749424  1
  Li  Li35  1  0.73152104  0.12250576  0.31341353  1
  Mo  Mo0  1  0.56452055  0.54981744  0.35447771  1
  Mo  Mo1  1  0.23118655  0.64552229  0.19533973  1
  Mo  Mo2  1  0.89785355  0.80466027  0.45018256  1
  Mo  Mo3  1  0.56686927  0.13788847  0.11929129  1
  Mo  Mo4  1  0.23353527  0.88070871  0.01859718  1
  Mo  Mo5  1  0.90020227  0.98140282  0.86211153  1
  Mo  Mo6  1  0.56838539  0.31620896  0.52950926  1
  Mo  Mo7  1  0.23505139  0.47049074  0.78669971  1
  Mo  Mo8  1  0.90171839  0.21330029  0.68379104  1
  Mo  Mo9  1  0.39952302  0.01798504  0.47028330  1
  Mo  Mo10  1  0.06618902  0.52971670  0.54770174  1
  Mo  Mo11  1  0.73285602  0.45229826  0.98201496  1
  Mo  Mo12  1  0.39909408  0.19302978  0.87987467  1
  Mo  Mo13  1  0.06576008  0.12012533  0.31315511  1
  Mo  Mo14  1  0.73242708  0.68684489  0.80697022  1
  Mo  Mo15  1  0.39683704  0.78333585  0.64725928  1
  Mo  Mo16  1  0.06350304  0.35274072  0.13607657  1
  Mo  Mo17  1  0.73017004  0.86392343  0.21666415  1
  O  O0  1  0.56785099  0.33060633  0.65960732  1
  O  O1  1  0.23451699  0.34039268  0.67099901  1
  O  O2  1  0.90118399  0.32900099  0.66939367  1
  O  O3  1  0.56581788  0.66312861  0.33654006  1
  O  O4  1  0.23248388  0.66345994  0.32658855  1
  O  O5  1  0.89915088  0.67341145  0.33687139  1
  O  O6  1  0.57000431  0.00721306  0.00527913  1
  O  O7  1  0.23667031  0.99472087  0.00193392  1
  O  O8  1  0.90333731  0.99806608  0.99278694  1
  O  O9  1  0.39931867  0.89833477  0.77744348  1
  O  O10  1  0.06598467  0.22255652  0.12089130  1
  O  O11  1  0.73265167  0.87910870  0.10166523  1
  O  O12  1  0.39898684  0.88991118  0.46072626  1
  O  O13  1  0.06565284  0.53927374  0.42918493  1
  O  O14  1  0.73231984  0.57081507  0.11008882  1
  O  O15  1  0.38824213  0.54080448  0.78886089  1
  O  O16  1  0.05490813  0.21113911  0.75194359  1
  O  O17  1  0.72157513  0.24805641  0.45919552  1
  O  O18  1  0.39902540  0.20621741  0.76335460  1
  O  O19  1  0.06569140  0.23664540  0.44286281  1
  O  O20  1  0.73235840  0.55713719  0.79378259  1
  O  O21  1  0.38767572  0.87597066  0.08458532  1
  O  O22  1  0.05434172  0.91541468  0.79138534  1
  O  O23  1  0.72100872  0.20861466  0.12402934  1
  O  O24  1  0.38612800  0.57896284  0.12641543  1
  O  O25  1  0.05279400  0.87358457  0.45254741  1
  O  O26  1  0.71946100  0.54745259  0.42103716  1
  O  O27  1  0.41226863  0.54919874  0.42514242  1
  O  O28  1  0.07893463  0.57485758  0.12405633  1
  O  O29  1  0.74560163  0.87594367  0.45080126  1
  O  O30  1  0.41401815  0.24961496  0.45878012  1
  O  O31  1  0.08068415  0.54121988  0.79083484  1
  O  O32  1  0.74735115  0.20916516  0.75038504  1
  O  O33  1  0.41482275  0.20934171  0.12015927  1
  O  O34  1  0.08148875  0.87984073  0.08918244  1
  O  O35  1  0.74815575  0.91081756  0.79065829  1
  O  O36  1  0.39854426  0.67012805  0.66535865  1
  O  O37  1  0.06521026  0.33464135  0.00476939  1
  O  O38  1  0.73187726  0.99523061  0.32987195  1
  O  O39  1  0.39722725  0.32456302  0.99297903  1
  O  O40  1  0.06389325  0.00702097  0.33158398  1
  O  O41  1  0.73056025  0.66841602  0.67543698  1
  O  O42  1  0.39802542  0.99939234  0.33887822  1
  O  O43  1  0.06469142  0.66112178  0.66051412  1
  O  O44  1  0.73135842  0.33948588  0.00060766  1
  O  O45  1  0.56484309  0.12272314  0.23458226  1
  O  O46  1  0.23150909  0.76541774  0.88814089  1
  O  O47  1  0.89817609  0.11185911  0.87727686  1
  O  O48  1  0.56203994  0.43396967  0.22458712  1
  O  O49  1  0.22870594  0.77541288  0.20938255  1
  O  O50  1  0.89537294  0.79061745  0.56603033  1
  O  O51  1  0.55274877  0.12341415  0.87916593  1
  O  O52  1  0.21941477  0.12083407  0.24424822  1
  O  O53  1  0.88608177  0.75575178  0.87658585  1
  O  O54  1  0.57053011  0.44701475  0.54598007  1
  O  O55  1  0.23719611  0.45401993  0.90103468  1
  O  O56  1  0.90386311  0.09896532  0.55298525  1
  O  O57  1  0.54938823  0.78437898  0.57724624  1
  O  O58  1  0.21605423  0.42275376  0.20713274  1
  O  O59  1  0.88272123  0.79286726  0.21562102  1
  O  O60  1  0.57527473  0.79419965  0.21351595  1
  O  O61  1  0.24194073  0.78648405  0.58068369  1
  O  O62  1  0.90860773  0.41931631  0.20580035  1
  O  O63  1  0.55268252  0.08773117  0.54027697  1
  O  O64  1  0.21934852  0.45972303  0.54745420  1
  O  O65  1  0.88601552  0.45254580  0.91226883  1
  O  O66  1  0.57945604  0.45194577  0.91253808  1
  O  O67  1  0.24612204  0.08746192  0.53940770  1
  O  O68  1  0.91278904  0.46059230  0.54805423  1
  O  O69  1  0.57955810  0.75598913  0.87687097  1
  O  O70  1  0.24622410  0.12312903  0.87911816  1
  O  O71  1  0.91289110  0.12088184  0.24401087  1
loop_
_geom_bond_atom_site_label_1
_geom_bond_atom_site_label_2
_geom_bond_distance
_geom_bond_site_symmetry_2
Li0 O12 1.955846 1_555
Li0 O3 1.965255 1_555
Li0 O29 2.011273 1_555
Li0 O57 2.018353 1_555
Li1 O13 1.955846 1_555
Li1 O4 1.965255 1_555
Li1 O27 2.011282 1_555
Li1 O58 2.018353 1_555
Li2 O14 1.955846 1_555
Li2 O5 1.965255 1_555
Li2 O28 2.011273 1_655
Li2 O59 2.018353 1_555
Li3 O14 1.975263 1_555
Li3 O3 1.988891 1_555
Li3 O60 1.994865 1_555
Li3 O24 2.031512 1_555
Li4 O12 1.975270 1_555
Li4 O4 1.988891 1_555
Li4 O61 1.994865 1_555
Li4 O25 2.031512 1_555
Li5 O13 1.975263 1_655
Li5 O5 1.988891 1_555
Li5 O62 1.994865 1_555
Li5 O26 2.031512 1_555
Li6 O9 1.968353 1_555
Li6 O6 1.971896 1_566
Li6 O35 2.011614 1_555
Li6 O51 2.031299 1_565
Li7 O10 1.968353 1_555
Li7 O7 1.971896 1_545
Li7 O33 2.011623 1_555
Li7 O52 2.031299 1_555
Li8 O11 1.968353 1_555
Li8 O8 1.971896 1_554
Li8 O34 2.011614 1_655
Li8 O53 2.031299 1_554
Li9 O18 1.972693 1_555
Li9 O0 1.979767 1_555
Li9 O63 1.986426 1_555
Li9 O32 2.009738 1_555
Li10 O19 1.972693 1_555
Li10 O1 1.979767 1_555
Li10 O64 1.986426 1_555
Li10 O30 2.009746 1_555
Li11 O20 1.972693 1_555
Li11 O2 1.979767 1_555
Li11 O65 1.986426 1_555
Li11 O31 2.009738 1_655
Li12 O69 1.977363 1_554
Li12 O11 1.977402 1_555
Li12 O6 1.978112 1_565
Li12 O21 2.002714 1_555
Li13 O70 1.977363 1_565
Li13 O9 1.977409 1_555
Li13 O7 1.978112 1_556
Li13 O22 2.002714 1_555
Li14 O71 1.977363 1_555
Li14 O10 1.977401 1_655
Li14 O8 1.978112 1_544
Li14 O23 2.002714 1_555
Li15 O66 1.974601 1_555
Li15 O20 1.975314 1_555
Li15 O0 1.984096 1_555
Li15 O15 2.026037 1_555
Li16 O67 1.974601 1_555
Li16 O18 1.975322 1_555
Li16 O1 1.984096 1_555
Li16 O16 2.026037 1_555
Li17 O68 1.974601 1_555
Li17 O19 1.975314 1_655
Li17 O2 1.984096 1_555
Li17 O17 2.026037 1_555
Li18 O60 1.977312 1_555
Li18 O21 1.980282 1_555
Li18 O49 1.992495 1_555
Li18 O42 2.008472 1_555
Li19 O61 1.977312 1_555
Li19 O22 1.980282 1_555
Li19 O50 1.992487 1_455
Li19 O43 2.008472 1_555
Li20 O62 1.977312 1_555
Li20 O23 1.980282 1_555
Li20 O48 1.992487 1_555
Li20 O44 2.008472 1_555
Li21 O48 1.959792 1_555
Li21 O39 1.964838 1_554
Li21 O58 2.022438 1_555
Li21 O33 2.031645 1_555
Li22 O49 1.959792 1_555
Li22 O40 1.964838 1_565
Li22 O59 2.022430 1_455
Li22 O34 2.031645 1_555
Li23 O50 1.959792 1_555
Li23 O41 1.964838 1_555
Li23 O57 2.022430 1_555
Li23 O35 2.031645 1_555
Li24 O55 1.966225 1_555
Li24 O39 1.972250 1_555
Li24 O24 1.991399 1_556
Li24 O66 2.004115 1_555
Li25 O56 1.966217 1_455
Li25 O40 1.972251 1_555
Li25 O25 1.991399 1_545
Li25 O67 2.004115 1_555
Li26 O54 1.966217 1_555
Li26 O41 1.972251 1_555
Li26 O26 1.991399 1_555
Li26 O68 2.004115 1_555
Li27 O36 1.963043 1_555
Li27 O54 1.967786 1_555
Li27 O64 2.000887 1_555
Li27 O27 2.007143 1_555
Li28 O37 1.963043 1_556
Li28 O55 1.967786 1_555
Li28 O65 2.000878 1_455
Li28 O28 2.007143 1_556
Li29 O38 1.963043 1_545
Li29 O56 1.967786 1_555
Li29 O63 2.000878 1_555
Li29 O29 2.007143 1_545
Li30 O45 1.960877 1_555
Li30 O52 2.000616 1_555
Li30 O30 2.009100 1_555
Li30 O42 2.029473 1_545
Li31 O46 1.960877 1_555
Li31 O53 2.000608 1_455
Li31 O31 2.009100 1_555
Li31 O43 2.029473 1_555
Li32 O47 1.960877 1_555
Li32 O51 2.000608 1_555
Li32 O32 2.009100 1_555
Li32 O44 2.029473 1_556
Li33 O36 1.983331 1_555
Li33 O46 1.987011 1_555
Li33 O15 1.993552 1_555
Li33 O69 2.027007 1_555
Li34 O37 1.983331 1_556
Li34 O47 1.987003 1_455
Li34 O16 1.993552 1_555
Li34 O70 2.027007 1_555
Li35 O38 1.983330 1_545
Li35 O45 1.987003 1_555
Li35 O17 1.993552 1_555
Li35 O71 2.027007 1_555
Mo0 O3 1.794298 1_555
Mo0 O48 1.797425 1_555
Mo0 O26 1.801099 1_555
Mo0 O27 1.805550 1_555
Mo1 O4 1.794298 1_555
Mo1 O49 1.797425 1_555
Mo1 O24 1.801107 1_555
Mo1 O28 1.805550 1_555
Mo2 O5 1.794298 1_555
Mo2 O50 1.797425 1_555
Mo2 O25 1.801099 1_655
Mo2 O29 1.805550 1_555
Mo3 O6 1.793481 1_555
Mo3 O45 1.798884 1_555
Mo3 O23 1.800268 1_555
Mo3 O33 1.804305 1_555
Mo4 O7 1.793481 1_555
Mo4 O46 1.798884 1_554
Mo4 O21 1.800276 1_555
Mo4 O34 1.804305 1_555
Mo5 O8 1.793481 1_555
Mo5 O47 1.798884 1_565
Mo5 O22 1.800268 1_655
Mo5 O35 1.804305 1_555
Mo6 O54 1.796336 1_555
Mo6 O0 1.798154 1_555
Mo6 O17 1.798907 1_555
Mo6 O30 1.804328 1_555
Mo7 O55 1.796336 1_555
Mo7 O1 1.798154 1_555
Mo7 O15 1.798916 1_555
Mo7 O31 1.804328 1_555
Mo8 O56 1.796336 1_555
Mo8 O2 1.798154 1_555
Mo8 O16 1.798907 1_655
Mo8 O32 1.804327 1_555
Mo9 O42 1.792900 1_545
Mo9 O12 1.798774 1_545
Mo9 O67 1.800959 1_555
Mo9 O63 1.803670 1_555
Mo10 O43 1.792900 1_555
Mo10 O13 1.798774 1_555
Mo10 O68 1.800951 1_455
Mo10 O64 1.803670 1_555
Mo11 O44 1.792900 1_556
Mo11 O14 1.798774 1_556
Mo11 O66 1.800951 1_555
Mo11 O65 1.803670 1_555
Mo12 O39 1.795696 1_555
Mo12 O70 1.798518 1_555
Mo12 O18 1.799780 1_555
Mo12 O51 1.802699 1_555
Mo13 O40 1.795696 1_555
Mo13 O71 1.798510 1_455
Mo13 O19 1.799780 1_555
Mo13 O52 1.802699 1_555
Mo14 O41 1.795696 1_555
Mo14 O69 1.798510 1_555
Mo14 O20 1.799780 1_555
Mo14 O53 1.802699 1_555
Mo15 O36 1.794263 1_555
Mo15 O9 1.794883 1_555
Mo15 O61 1.804188 1_555
Mo15 O57 1.804321 1_555
Mo16 O37 1.794263 1_555
Mo16 O10 1.794883 1_555
Mo16 O62 1.804180 1_455
Mo16 O58 1.804321 1_555
Mo17 O38 1.794263 1_555
Mo17 O11 1.794883 1_555
Mo17 O60 1.804180 1_555
Mo17 O59 1.804321 1_555
