# generated using pymatgen
data_Li9Mn2Co5O16
_symmetry_space_group_name_H-M   'P 1'
_cell_length_a   5.78369700
_cell_length_b   5.84166434
_cell_length_c   9.75383201
_cell_angle_alpha   98.37809189
_cell_angle_beta   90.04378028
_cell_angle_gamma   119.46308743
_symmetry_Int_Tables_number   1
_chemical_formula_structural   Li9Mn2Co5O16
_chemical_formula_sum   'Li9 Mn2 Co5 O16'
_cell_volume   282.86023367
_cell_formula_units_Z   1
loop_
 _symmetry_equiv_pos_site_id
 _symmetry_equiv_pos_as_xyz
  1  'x, y, z'
loop_
 _atom_site_type_symbol
 _atom_site_label
 _atom_site_symmetry_multiplicity
 _atom_site_fract_x
 _atom_site_fract_y
 _atom_site_fract_z
 _atom_site_occupancy
  Li  Li0  1  0.11853800  0.24784800  0.74976600  1
  Li  Li1  1  0.37802600  0.24853300  0.24514500  1
  Li  Li2  1  0.63002400  0.25459600  0.75843300  1
  Li  Li3  1  0.62121200  0.75191300  0.75659900  1
  Li  Li4  1  0.87606700  0.74808800  0.24831300  1
  Li  Li5  1  0.11755600  0.73830500  0.75324400  1
  Li  Li6  1  0.88727300  0.26369100  0.24389300  1
  Li  Li7  1  0.37740200  0.75071200  0.24436200  1
  Li  Li8  1  0.00011400  0.50035800  0.99970100  1
  Mn  Mn0  1  0.99997700  0.99993400  0.99979100  1
  Mn  Mn1  1  0.24943600  0.99934400  0.49992700  1
  Co  Co0  1  0.49968100  0.00021000  0.00044200  1
  Co  Co1  1  0.74942900  0.00023100  0.49982900  1
  Co  Co2  1  0.49985100  0.50013700  0.00014800  1
  Co  Co3  1  0.74864600  0.49953800  0.50069600  1
  Co  Co4  1  0.25169900  0.49986800  0.49945100  1
  O  O0  1  0.79836900  0.10840400  0.89067200  1
  O  O1  1  0.07507600  0.12471200  0.38527000  1
  O  O2  1  0.29582600  0.09282300  0.88451200  1
  O  O3  1  0.34255300  0.65070000  0.89755900  1
  O  O4  1  0.57249500  0.64666600  0.38240800  1
  O  O5  1  0.80229500  0.64082300  0.89295800  1
  O  O6  1  0.54706900  0.12035900  0.38569300  1
  O  O7  1  0.08230300  0.64452900  0.38304500  1
  O  O8  1  0.41442100  0.35163800  0.61554300  1
  O  O9  1  0.65819100  0.35012000  0.10324700  1
  O  O10  1  0.92925000  0.35583600  0.61884500  1
  O  O11  1  0.95129700  0.87937700  0.61506400  1
  O  O12  1  0.19978600  0.89081000  0.10810500  1
  O  O13  1  0.42454200  0.87326500  0.61417800  1
  O  O14  1  0.19569200  0.35841800  0.10625500  1
  O  O15  1  0.70590400  0.90821500  0.11690700  1
loop_
_geom_bond_atom_site_label_1
_geom_bond_atom_site_label_2
_geom_bond_distance
_geom_bond_site_symmetry_2
Li0 O10 2.034496 1_455
Li0 O8 2.055279 1_555
Li0 O11 2.102573 1_445
Li0 O0 2.197211 1_455
Li0 O2 2.203892 1_555
Li0 O3 2.303042 1_555
Li1 O9 2.047009 1_555
Li1 O14 2.067980 1_555
Li1 O12 2.069052 1_545
Li1 O6 2.100721 1_555
Li1 O1 2.122807 1_555
Li1 O4 2.232418 1_555
Li2 O10 2.104751 1_555
Li2 O0 2.116143 1_555
Li2 O2 2.164913 1_555
Li2 O5 2.174579 1_555
Li2 O8 2.177561 1_555
Li2 O13 2.198673 1_545
Li3 O3 2.034777 1_555
Li3 O0 2.049903 1_565
Li3 O5 2.050608 1_555
Li3 O13 2.191786 1_555
Li3 O11 2.238331 1_555
Li3 O8 2.258273 1_555
Li4 O4 2.085777 1_555
Li4 O7 2.110661 1_655
Li4 O1 2.144732 1_665
Li4 O15 2.177025 1_555
Li4 O12 2.207127 1_655
Li4 O9 2.269693 1_555
Li5 O2 2.028815 1_565
Li5 O11 2.126394 1_455
Li5 O13 2.133588 1_555
Li5 O10 2.155712 1_455
Li5 O5 2.171303 1_455
Li5 O3 2.190654 1_555
Li6 O15 2.013034 1_545
Li6 O14 2.130629 1_655
Li6 O7 2.170956 1_655
Li6 O9 2.179321 1_555
Li6 O1 2.220801 1_655
Li6 O6 2.281787 1_555
Li7 O7 2.081863 1_555
Li7 O4 2.089603 1_555
Li7 O6 2.138241 1_565
Li7 O15 2.149216 1_555
Li7 O12 2.152515 1_555
Li7 O14 2.213548 1_555
Li8 O14 2.054069 1_556
Li8 O3 2.057521 1_555
Li8 O5 2.058396 1_455
Li8 O9 2.062792 1_456
Li8 O12 2.087644 1_556
Li8 O0 2.096509 1_455
Mn0 O2 1.937517 1_665
Mn0 O15 1.941566 1_556
Mn0 O12 1.943470 1_656
Mn0 O14 1.943630 1_666
Mn0 O5 1.948214 1_555
Mn0 O0 1.953308 1_565
Mn1 O6 1.933874 1_565
Mn1 O1 1.940999 1_565
Mn1 O11 1.941450 1_455
Mn1 O13 1.944533 1_555
Mn1 O8 1.951354 1_565
Mn1 O7 1.966975 1_555
Co0 O3 1.891504 1_544
Co0 O9 1.892617 1_555
Co0 O12 1.904624 1_545
Co0 O0 1.912090 1_554
Co0 O2 1.940405 1_554
Co0 O15 1.951471 1_545
Co1 O4 1.963292 1_545
Co1 O10 1.978547 1_555
Co1 O6 2.033527 1_555
Co1 O11 2.040835 1_545
Co1 O13 2.048948 1_545
Co1 O1 2.053630 1_655
Co2 O3 1.909125 1_554
Co2 O9 1.913846 1_555
Co2 O5 1.915035 1_554
Co2 O14 1.915973 1_555
Co2 O2 2.186315 1_554
Co2 O15 2.193644 1_555
Co3 O4 2.063099 1_555
Co3 O6 2.063353 1_555
Co3 O11 2.063965 1_555
Co3 O10 2.065550 1_555
Co3 O8 2.092944 1_555
Co3 O7 2.106419 1_655
Co4 O8 2.000877 1_555
Co4 O7 2.013832 1_555
Co4 O13 2.037498 1_555
Co4 O1 2.042403 1_555
Co4 O4 2.050482 1_555
Co4 O10 2.070599 1_455
