# generated using pymatgen
data_Re3Mo2
_symmetry_space_group_name_H-M   'P 1'
_cell_length_a   9.61900654
_cell_length_b   9.61900654
_cell_length_c   5.05761000
_cell_angle_alpha   90.00000000
_cell_angle_beta   90.00000000
_cell_angle_gamma   90.03109220
_symmetry_Int_Tables_number   1
_chemical_formula_structural   Re3Mo2
_chemical_formula_sum   'Re18 Mo12'
_cell_volume   467.95674663
_cell_formula_units_Z   6
loop_
 _symmetry_equiv_pos_site_id
 _symmetry_equiv_pos_as_xyz
  1  'x, y, z'
loop_
 _atom_site_type_symbol
 _atom_site_label
 _atom_site_symmetry_multiplicity
 _atom_site_fract_x
 _atom_site_fract_y
 _atom_site_fract_z
 _atom_site_occupancy
  Re  Re0  1  0.09991000  0.09991000  0.49942600  1
  Re  Re1  1  0.90009000  0.90009000  0.49942600  1
  Re  Re2  1  0.59963600  0.40036400  0.00161400  1
  Re  Re3  1  0.40036400  0.59963600  0.00161400  1
  Re  Re4  1  0.76243700  0.43244900  0.50085900  1
  Re  Re5  1  0.23756300  0.56755100  0.50085900  1
  Re  Re6  1  0.26186900  0.06655100  0.99860300  1
  Re  Re7  1  0.73813100  0.93344900  0.99860300  1
  Re  Re8  1  0.56755100  0.23756300  0.50085900  1
  Re  Re9  1  0.43244900  0.76243700  0.50085900  1
  Re  Re10  1  0.93344900  0.73813100  0.99860300  1
  Re  Re11  1  0.06655100  0.26186900  0.99860300  1
  Re  Re12  1  0.81719100  0.18280900  0.74891100  1
  Re  Re13  1  0.18280900  0.81719100  0.74891100  1
  Re  Re14  1  0.68338900  0.68338900  0.74983400  1
  Re  Re15  1  0.31661100  0.31661100  0.74983400  1
  Re  Re16  1  0.18254800  0.81745200  0.25113700  1
  Re  Re17  1  0.81745200  0.18254800  0.25113700  1
  Mo  Mo0  1  0.03636000  0.36675500  0.49960100  1
  Mo  Mo1  1  0.96364000  0.63324500  0.49960100  1
  Mo  Mo2  1  0.53774900  0.13269200  0.00000400  1
  Mo  Mo3  1  0.46225100  0.86730800  0.00000400  1
  Mo  Mo4  1  0.63324500  0.96364000  0.49960100  1
  Mo  Mo5  1  0.36675500  0.03636000  0.49960100  1
  Mo  Mo6  1  0.86730800  0.46225100  0.00000400  1
  Mo  Mo7  1  0.13269200  0.53774900  0.00000400  1
  Mo  Mo8  1  0.50000000  0.50000000  0.50508200  1
  Mo  Mo9  1  0.00000000  0.00000000  0.00049200  1
  Mo  Mo10  1  0.31697400  0.31697400  0.24815600  1
  Mo  Mo11  1  0.68302600  0.68302600  0.24815600  1
loop_
_geom_bond_atom_site_label_1
_geom_bond_atom_site_label_2
_geom_bond_distance
_geom_bond_site_symmetry_2
Re0 Re6 2.984013 1_555
Re0 Re11 2.984013 1_555
Re0 Re6 2.991059 1_554
Re0 Re11 2.991059 1_554
Re0 Re17 3.097258 1_455
Re0 Re16 3.097258 1_545
Re0 Re12 3.102562 1_455
Re0 Re13 3.102562 1_545
Re1 Re10 2.984013 1_555
Re1 Re7 2.984013 1_555
Re1 Re7 2.991059 1_554
Re1 Re10 2.991059 1_554
Re1 Re17 3.097258 1_565
Re1 Re16 3.097258 1_655
Re1 Re12 3.102562 1_565
Re1 Re13 3.102562 1_655
Re2 Re8 2.987070 1_555
Re2 Re4 2.987070 1_555
Re2 Re8 2.993528 1_554
Re2 Re4 2.993528 1_554
Re3 Re5 2.987070 1_555
Re3 Re9 2.987070 1_555
Re3 Re5 2.993528 1_554
Re3 Re9 2.993528 1_554
Re4 Re8 2.650379 1_555
Re5 Re9 2.650379 1_555
Re10 Re7 2.657696 1_555
Re10 Re14 2.764871 1_555
Re10 Re13 2.815028 1_655
Re10 Re16 2.820049 1_656
Re11 Re6 2.657696 1_555
Re11 Re15 2.764871 1_555
Re11 Re12 2.815028 1_455
Re11 Re17 2.820049 1_456
Re12 Re17 2.517549 1_555
Re12 Re17 2.540066 1_556
Re12 Re4 2.760226 1_555
Re12 Re8 2.760226 1_555
Re12 Re7 2.815028 1_545
Re12 Re2 3.224392 1_556
Re13 Re16 2.517549 1_555
Re13 Re16 2.540066 1_556
Re13 Re9 2.760226 1_555
Re13 Re5 2.760226 1_555
Re13 Re6 2.815028 1_565
Re13 Re3 3.224392 1_556
Re14 Re7 2.764871 1_555
Re14 Re9 2.827043 1_555
Re14 Re4 2.827043 1_555
Re15 Re6 2.764871 1_555
Re15 Re8 2.827043 1_555
Re15 Re5 2.827043 1_555
Re16 Re5 2.766737 1_555
Re16 Re9 2.766737 1_555
Re16 Re6 2.820049 1_564
Re16 Re3 3.221318 1_555
Re17 Re8 2.766737 1_555
Re17 Re4 2.766737 1_555
Re17 Re7 2.820049 1_544
Re17 Re2 3.221318 1_555
Mo0 Re0 2.638893 1_555
Mo0 Re4 2.709923 1_455
Mo0 Re11 2.733475 1_555
Mo0 Re5 2.733529 1_555
Mo0 Re11 2.742798 1_554
Mo0 Mo10 3.022213 1_555
Mo0 Re17 3.024656 1_455
Mo0 Re12 3.026716 1_455
Mo1 Re1 2.638893 1_555
Mo1 Re5 2.709923 1_655
Mo1 Re10 2.733475 1_555
Mo1 Re4 2.733529 1_555
Mo1 Re10 2.742798 1_554
Mo1 Mo11 3.022213 1_555
Mo1 Re16 3.024656 1_655
Mo1 Re13 3.026716 1_655
Mo2 Re2 2.642358 1_555
Mo2 Re7 2.718873 1_544
Mo2 Re6 2.728564 1_554
Mo2 Re8 2.733579 1_554
Mo2 Re8 2.741568 1_555
Mo2 Re12 3.011447 1_554
Mo2 Re17 3.013374 1_555
Mo3 Re3 2.642358 1_555
Mo3 Re6 2.718873 1_564
Mo3 Re7 2.728564 1_554
Mo3 Re9 2.733579 1_554
Mo3 Re9 2.741568 1_555
Mo3 Re13 3.011447 1_554
Mo3 Re16 3.013374 1_555
Mo4 Re1 2.638893 1_555
Mo4 Re8 2.709923 1_565
Mo4 Re7 2.733475 1_555
Mo4 Re9 2.733529 1_555
Mo4 Re7 2.742798 1_554
Mo4 Re17 3.024656 1_565
Mo4 Re12 3.026716 1_565
Mo5 Re0 2.638893 1_555
Mo5 Re9 2.709923 1_545
Mo5 Re6 2.733475 1_555
Mo5 Re8 2.733529 1_555
Mo5 Re6 2.742798 1_554
Mo5 Re16 3.024656 1_545
Mo5 Re13 3.026716 1_545
Mo6 Re2 2.642358 1_555
Mo6 Re11 2.718873 1_654
Mo6 Re10 2.728564 1_554
Mo6 Re4 2.733579 1_554
Mo6 Re4 2.741568 1_555
Mo6 Re12 3.011447 1_554
Mo6 Re17 3.013374 1_555
Mo7 Re3 2.642358 1_555
Mo7 Re10 2.718873 1_454
Mo7 Re11 2.728564 1_554
Mo7 Re5 2.733579 1_554
Mo7 Re5 2.741568 1_555
Mo7 Re13 3.011447 1_554
Mo7 Re16 3.013374 1_555
Mo8 Re5 2.607097 1_555
Mo8 Re9 2.607097 1_555
Mo8 Re4 2.607097 1_555
Mo8 Re8 2.607097 1_555
Mo8 Re15 2.784323 1_555
Mo8 Re14 2.784323 1_555
Mo8 Re2 2.853859 1_556
Mo8 Re3 2.853859 1_556
Mo8 Re3 2.884775 1_555
Mo8 Re2 2.884775 1_555
Mo9 Re6 2.598672 1_554
Mo9 Re10 2.598672 1_444
Mo9 Re11 2.598672 1_554
Mo9 Re7 2.598672 1_444
Mo9 Re17 2.788710 1_455
Mo9 Re16 2.788710 1_545
Mo9 Re13 2.794026 1_544
Mo9 Re12 2.794026 1_454
Mo9 Re0 2.865971 1_555
Mo9 Re1 2.865971 1_445
Mo9 Re0 2.875470 1_554
Mo9 Re1 2.875470 1_444
Mo10 Re15 2.520323 1_554
Mo10 Re15 2.537296 1_555
Mo10 Re11 2.770377 1_554
Mo10 Re6 2.770377 1_554
Mo10 Mo8 2.807860 1_555
Mo10 Re8 2.833461 1_555
Mo10 Re5 2.833461 1_555
Mo10 Mo5 3.022213 1_555
Mo10 Mo7 3.038293 1_555
Mo10 Mo2 3.038293 1_555
Mo10 Re3 3.096515 1_555
Mo10 Re2 3.096515 1_555
Mo10 Re0 3.213916 1_555
Mo11 Re14 2.520323 1_554
Mo11 Re14 2.537296 1_555
Mo11 Re7 2.770377 1_554
Mo11 Re10 2.770377 1_554
Mo11 Mo8 2.807860 1_555
Mo11 Re4 2.833461 1_555
Mo11 Re9 2.833461 1_555
Mo11 Mo4 3.022213 1_555
Mo11 Mo3 3.038293 1_555
Mo11 Mo6 3.038293 1_555
Mo11 Re3 3.096515 1_555
Mo11 Re2 3.096515 1_555
Mo11 Re1 3.213916 1_555
