# generated using pymatgen
data_SnO2
_symmetry_space_group_name_H-M   'P 1'
_cell_length_a   11.23513349
_cell_length_b   10.95192772
_cell_length_c   10.73337457
_cell_angle_alpha   93.32083200
_cell_angle_beta   88.49796586
_cell_angle_gamma   94.46273054
_symmetry_Int_Tables_number   1
_chemical_formula_structural   SnO2
_chemical_formula_sum   'Sn30 O60'
_cell_volume   1314.17503596
_cell_formula_units_Z   30
loop_
 _symmetry_equiv_pos_site_id
 _symmetry_equiv_pos_as_xyz
  1  'x, y, z'
loop_
 _atom_site_type_symbol
 _atom_site_label
 _atom_site_symmetry_multiplicity
 _atom_site_fract_x
 _atom_site_fract_y
 _atom_site_fract_z
 _atom_site_occupancy
  Sn  Sn0  1  0.76195800  0.16655500  0.19048900  1
  Sn  Sn1  1  0.56779200  0.58343900  0.95661200  1
  Sn  Sn2  1  0.90537400  0.83196100  0.67321400  1
  Sn  Sn3  1  0.55574000  0.83728600  0.71400300  1
  Sn  Sn4  1  0.01306500  0.65539000  0.94455700  1
  Sn  Sn5  1  0.79671600  0.52333600  0.76327400  1
  Sn  Sn6  1  0.47704500  0.33437900  0.79040200  1
  Sn  Sn7  1  0.44874700  0.17729900  0.09276200  1
  Sn  Sn8  1  0.07481100  0.60021600  0.49981800  1
  Sn  Sn9  1  0.40739200  0.90784600  0.23317400  1
  Sn  Sn10  1  0.90499500  0.40795300  0.08124400  1
  Sn  Sn11  1  0.21049300  0.69049800  0.24936100  1
  Sn  Sn12  1  0.30437700  0.75223500  0.92940700  1
  Sn  Sn13  1  0.61641700  0.86297900  0.04574100  1
  Sn  Sn14  1  0.55144200  0.57349700  0.58330400  1
  Sn  Sn15  1  0.25351000  0.42581300  0.97665400  1
  Sn  Sn16  1  0.04548400  0.94278900  0.99832200  1
  Sn  Sn17  1  0.12586400  0.30158000  0.54395200  1
  Sn  Sn18  1  0.90726000  0.67221600  0.24259200  1
  Sn  Sn19  1  0.65452100  0.79423500  0.41967500  1
  Sn  Sn20  1  0.01834700  0.15797300  0.29100300  1
  Sn  Sn21  1  0.29103100  0.41379600  0.27824500  1
  Sn  Sn22  1  0.98692200  0.13871300  0.82062800  1
  Sn  Sn23  1  0.61777500  0.47062200  0.25901100  1
  Sn  Sn24  1  0.26522800  0.12703700  0.73108800  1
  Sn  Sn25  1  0.24792400  0.01569700  0.45418700  1
  Sn  Sn26  1  0.81388800  0.09533300  0.52966900  1
  Sn  Sn27  1  0.52213800  0.23468600  0.45723100  1
  Sn  Sn28  1  0.69657300  0.11860100  0.89655600  1
  Sn  Sn29  1  0.82402100  0.39184400  0.49522700  1
  O  O0  1  0.02583300  0.32086200  0.87510100  1
  O  O1  1  0.13126600  0.80790800  0.89954600  1
  O  O2  1  0.47010700  0.41051000  0.61614400  1
  O  O3  1  0.54177300  0.46852400  0.09873500  1
  O  O4  1  0.91285300  0.29254900  0.22733200  1
  O  O5  1  0.60105200  0.60803100  0.38994600  1
  O  O6  1  0.22773900  0.56689100  0.38581000  1
  O  O7  1  0.06979300  0.34647100  0.00275800  1
  O  O8  1  0.50441900  0.74683100  0.54534800  1
  O  O9  1  0.45300200  0.39539700  0.34329000  1
  O  O10  1  0.29126200  0.29373400  0.83749400  1
  O  O11  1  0.79823200  0.25125000  0.01830900  1
  O  O12  1  0.55132200  0.21579600  0.92942900  1
  O  O13  1  0.04898200  0.74766400  0.60737900  1
  O  O14  1  0.25253800  0.96596900  0.62727400  1
  O  O15  1  0.88704500  0.50940400  0.92897500  1
  O  O16  1  0.38433800  0.82820600  0.78573500  1
  O  O17  1  0.15117400  0.30388700  0.34573500  1
  O  O18  1  0.05869600  0.72481600  0.34057800  1
  O  O19  1  0.14505600  0.47478500  0.60255300  1
  O  O20  1  0.29792200  0.30921100  0.11289700  1
  O  O21  1  0.30042100  0.82803100  0.36416100  1
  O  O22  1  0.93266300  0.98554400  0.57861900  1
  O  O23  1  0.90613600  0.42204200  0.66192400  1
  O  O24  1  0.78950900  0.52436500  0.18228700  1
  O  O25  1  0.64616400  0.44250700  0.84479300  1
  O  O26  1  0.83692300  0.07959000  0.32986700  1
  O  O27  1  0.26160400  0.81634200  0.11704100  1
  O  O28  1  0.92887800  0.52583800  0.40779400  1
  O  O29  1  0.72050000  0.52531200  0.58957000  1
  O  O30  1  0.41434600  0.48828300  0.89110700  1
  O  O31  1  0.64798600  0.98280600  0.48928700  1
  O  O32  1  0.02192900  0.56920100  0.12666200  1
  O  O33  1  0.59026500  0.19760200  0.21439400  1
  O  O34  1  0.44625200  0.16462600  0.70863300  1
  O  O35  1  0.69739200  0.35640600  0.36175200  1
  O  O36  1  0.70070500  0.70991600  0.01601100  1
  O  O37  1  0.63075100  0.93543600  0.86298300  1
  O  O38  1  0.47083700  0.97641200  0.07181600  1
  O  O39  1  0.58135800  0.65749200  0.76502800  1
  O  O40  1  0.14651000  0.07578300  0.89091800  1
  O  O41  1  0.73160900  0.02259500  0.05901300  1
  O  O42  1  0.81589000  0.14570100  0.75657500  1
  O  O43  1  0.00069000  0.08087100  0.11272900  1
  O  O44  1  0.95631100  0.24193500  0.47693300  1
  O  O45  1  0.73363800  0.79785000  0.61011900  1
  O  O46  1  0.18850400  0.58790600  0.91410400  1
  O  O47  1  0.88931000  0.69313400  0.79947700  1
  O  O48  1  0.10649700  0.02420900  0.35150300  1
  O  O49  1  0.71621400  0.23817200  0.55328400  1
  O  O50  1  0.93194500  0.95278900  0.84626400  1
  O  O51  1  0.09416400  0.17721700  0.67678600  1
  O  O52  1  0.27926000  0.54576200  0.14761700  1
  O  O53  1  0.46358200  0.72619700  0.01437800  1
  O  O54  1  0.27317400  0.20179300  0.53528900  1
  O  O55  1  0.81215200  0.79183700  0.33370700  1
  O  O56  1  0.38260600  0.06533400  0.33162000  1
  O  O57  1  0.95980300  0.78730700  0.07894000  1
  O  O58  1  0.57861600  0.99701900  0.60894600  1
  O  O59  1  0.57289700  0.84610000  0.25169800  1
loop_
_geom_bond_atom_site_label_1
_geom_bond_atom_site_label_2
_geom_bond_distance
_geom_bond_site_symmetry_2
O0 O7 1.472894 1_556
O0 Sn22 2.062784 1_455
O1 Sn16 2.054645 1_555
O1 Sn12 2.120635 1_555
O1 Sn4 2.121738 1_555
O2 Sn14 1.986897 1_555
O2 Sn6 2.097142 1_555
O2 Sn27 2.588709 1_555
O3 Sn23 1.938679 1_555
O3 Sn1 2.034256 1_554
O4 Sn10 2.078011 1_555
O4 Sn20 2.115450 1_655
O4 Sn0 2.131302 1_555
O5 Sn23 2.014998 1_555
O5 Sn19 2.089360 1_555
O5 Sn14 2.181380 1_555
O6 Sn11 2.073756 1_555
O6 Sn8 2.125639 1_555
O6 Sn21 2.137315 1_555
O7 Sn10 2.153543 1_455
O7 Sn15 2.193807 1_554
O8 Sn14 2.075028 1_555
O8 Sn3 2.085399 1_555
O8 Sn19 2.181439 1_555
O9 Sn21 1.994877 1_555
O9 Sn23 2.164568 1_555
O9 Sn27 2.389326 1_555
O10 Sn15 2.077326 1_555
O10 Sn24 2.101379 1_555
O10 Sn6 2.153278 1_555
O11 Sn10 2.104341 1_555
O11 Sn0 2.131230 1_555
O11 Sn28 2.173222 1_554
O12 Sn28 2.029132 1_555
O12 Sn7 2.117403 1_556
O12 Sn6 2.251284 1_555
O13 Sn8 1.965743 1_555
O13 Sn2 2.012796 1_455
O14 Sn25 1.969113 1_565
O14 Sn24 2.028575 1_565
O15 Sn10 2.051546 1_556
O15 Sn4 2.053780 1_655
O15 Sn5 2.089630 1_555
O16 Sn12 1.958844 1_555
O16 Sn3 2.052421 1_555
O17 Sn21 2.046877 1_555
O17 Sn17 2.140399 1_555
O17 Sn20 2.166093 1_555
O18 Sn11 1.994495 1_555
O18 Sn18 2.050326 1_455
O18 Sn8 2.267407 1_555
O19 Sn17 1.961041 1_555
O19 Sn8 2.028720 1_555
O20 Sn21 2.058822 1_555
O20 Sn15 2.090926 1_554
O20 Sn7 2.308875 1_555
O21 Sn9 2.018777 1_555
O21 Sn11 2.102692 1_555
O21 Sn25 2.331210 1_565
O22 Sn26 1.965254 1_565
O22 Sn2 2.013800 1_555
O23 Sn5 1.981835 1_555
O23 Sn29 2.032814 1_555
O24 Sn18 2.093140 1_555
O24 Sn10 2.123358 1_555
O24 Sn23 2.131554 1_555
O25 Sn5 2.046808 1_555
O25 Sn1 2.130630 1_555
O25 Sn6 2.231895 1_555
O26 Sn0 2.051943 1_555
O26 Sn26 2.151931 1_555
O26 Sn20 2.188676 1_655
O27 Sn11 2.075384 1_555
O27 Sn12 2.148908 1_554
O27 Sn9 2.224364 1_555
O28 Sn8 2.027611 1_655
O28 Sn29 2.062681 1_555
O28 Sn18 2.487094 1_555
O29 Sn14 2.014320 1_555
O29 Sn5 2.073901 1_555
O29 Sn29 2.132167 1_555
O30 Sn1 2.061937 1_555
O30 Sn15 2.090429 1_555
O30 Sn6 2.106994 1_555
O31 O58 1.491458 1_555
O31 Sn19 2.161186 1_555
O31 Sn26 2.191775 1_565
O32 Sn18 2.111985 1_455
O32 Sn10 2.157566 1_455
O32 Sn4 2.227102 1_554
O33 Sn0 1.992106 1_555
O33 Sn7 2.074130 1_555
O33 Sn27 2.713963 1_555
O34 Sn6 2.018192 1_555
O34 Sn24 2.054148 1_555
O35 Sn23 1.991629 1_555
O35 Sn29 2.045396 1_555
O35 Sn27 2.519582 1_555
O36 Sn13 1.994477 1_555
O36 Sn1 2.044699 1_554
O37 Sn3 2.037950 1_555
O37 Sn28 2.097660 1_565
O37 Sn13 2.155795 1_556
O38 Sn9 2.018461 1_555
O38 Sn13 2.132796 1_555
O38 Sn7 2.230992 1_565
O39 Sn3 2.116956 1_555
O39 Sn14 2.131214 1_555
O39 Sn1 2.251018 1_555
O40 Sn22 2.140673 1_455
O40 Sn16 2.146497 1_545
O40 Sn24 2.216355 1_555
O41 Sn0 2.068160 1_555
O41 Sn13 2.092807 1_545
O41 Sn28 2.147983 1_554
O42 Sn28 2.006666 1_555
O42 Sn22 2.066200 1_555
O42 Sn26 2.466089 1_555
O43 Sn16 1.979655 1_544
O43 Sn20 2.054371 1_555
O44 Sn17 2.096841 1_655
O44 Sn26 2.262015 1_555
O44 Sn20 2.264555 1_655
O44 Sn29 2.295694 1_555
O45 Sn2 2.061090 1_555
O45 Sn19 2.247325 1_555
O45 Sn3 2.320854 1_555
O46 Sn15 2.121592 1_555
O46 Sn12 2.138487 1_555
O46 Sn4 2.168682 1_555
O47 Sn5 2.080340 1_555
O47 Sn2 2.089042 1_555
O47 Sn4 2.192370 1_655
O48 Sn25 1.968488 1_555
O48 Sn20 1.979492 1_555
O49 Sn26 1.980494 1_555
O49 Sn29 2.110115 1_555
O49 Sn27 2.432930 1_555
O50 Sn16 2.110580 1_655
O50 Sn22 2.112753 1_565
O50 Sn2 2.230033 1_555
O51 Sn22 1.977890 1_455
O51 Sn17 2.034104 1_555
O51 Sn24 2.143768 1_555
O52 Sn11 2.061062 1_555
O52 Sn21 2.084799 1_555
O52 Sn15 2.205925 1_554
O53 Sn12 2.075464 1_554
O53 Sn1 2.081873 1_554
O53 Sn13 2.208503 1_555
O54 Sn17 2.050319 1_555
O54 Sn25 2.170152 1_555
O54 Sn24 2.296315 1_555
O55 Sn18 1.956827 1_555
O55 Sn19 1.976698 1_555
O56 Sn9 2.004289 1_545
O56 Sn25 2.041172 1_555
O56 Sn27 2.661565 1_555
O57 Sn4 2.091343 1_654
O57 Sn16 2.108788 1_654
O57 Sn18 2.260319 1_555
O58 Sn3 2.131031 1_555
O59 Sn9 2.045753 1_555
O59 Sn19 2.168110 1_555
O59 Sn13 2.266423 1_555
