# generated using pymatgen
data_Zr3Al
_symmetry_space_group_name_H-M   'P 1'
_cell_length_a   4.37674312
_cell_length_b   4.37674209
_cell_length_c   4.37674415
_cell_angle_alpha   90.00000000
_cell_angle_beta   90.00000000
_cell_angle_gamma   90.00000000
_symmetry_Int_Tables_number   1
_chemical_formula_structural   Zr3Al
_chemical_formula_sum   'Zr3 Al1'
_cell_volume   83.84036748
_cell_formula_units_Z   1
loop_
 _symmetry_equiv_pos_site_id
 _symmetry_equiv_pos_as_xyz
  1  'x, y, z'
loop_
 _atom_site_type_symbol
 _atom_site_label
 _atom_site_symmetry_multiplicity
 _atom_site_fract_x
 _atom_site_fract_y
 _atom_site_fract_z
 _atom_site_occupancy
  Zr  Zr0  1  -0.00000000  0.50000000  0.50000000  1
  Zr  Zr1  1  0.50000000  0.50000000  -0.00000000  1
  Zr  Zr2  1  0.50000000  0.00000000  0.50000000  1
  Al  Al0  1  -0.00000000  0.00000000  -0.00000000  1
loop_
_geom_bond_atom_site_label_1
_geom_bond_atom_site_label_2
_geom_bond_distance
_geom_bond_site_symmetry_2
Zr0 Zr2 3.094824 1_465
Zr0 Zr2 3.094824 1_565
Zr0 Zr2 3.094824 1_455
Zr0 Zr2 3.094824 1_555
Zr0 Zr1 3.094825 1_555
Zr0 Zr1 3.094825 1_455
Zr0 Zr1 3.094825 1_456
Zr0 Zr1 3.094825 1_556
Zr1 Zr2 3.094825 1_555
Zr1 Zr2 3.094825 1_565
Zr1 Zr2 3.094825 1_564
Zr1 Zr2 3.094825 1_554
Al0 Zr1 3.094824 1_555
Al0 Zr1 3.094824 1_455
Al0 Zr1 3.094824 1_445
Al0 Zr1 3.094824 1_545
Al0 Zr0 3.094825 1_555
Al0 Zr0 3.094825 1_554
Al0 Zr0 3.094825 1_544
Al0 Zr0 3.094825 1_545
Al0 Zr2 3.094825 1_454
Al0 Zr2 3.094825 1_554
Al0 Zr2 3.094825 1_455
Al0 Zr2 3.094825 1_555
