# generated using pymatgen
data_BaCu5AgP2
_symmetry_space_group_name_H-M   'P 1'
_cell_length_a   4.11176900
_cell_length_b   4.11176900
_cell_length_c   9.20692700
_cell_angle_alpha   90.00000000
_cell_angle_beta   90.00000000
_cell_angle_gamma   90.00000000
_symmetry_Int_Tables_number   1
_chemical_formula_structural   BaCu5AgP2
_chemical_formula_sum   'Ba1 Cu5 Ag1 P2'
_cell_volume   155.65823997
_cell_formula_units_Z   1
loop_
 _symmetry_equiv_pos_site_id
 _symmetry_equiv_pos_as_xyz
  1  'x, y, z'
loop_
 _atom_site_type_symbol
 _atom_site_label
 _atom_site_symmetry_multiplicity
 _atom_site_fract_x
 _atom_site_fract_y
 _atom_site_fract_z
 _atom_site_occupancy
  Ba  Ba0  1  0.50000000  0.50000000  0.50000000  1
  Cu  Cu0  1  0.00000000  0.50000000  0.18844700  1
  Cu  Cu1  1  0.00000000  0.50000000  0.81155300  1
  Cu  Cu2  1  0.50000000  0.00000000  0.18844700  1
  Cu  Cu3  1  0.50000000  0.00000000  0.81155300  1
  Cu  Cu4  1  0.00000000  0.00000000  0.00000000  1
  Ag  Ag0  1  0.50000000  0.50000000  0.00000000  1
  P  P0  1  0.00000000  0.00000000  0.29839200  1
  P  P1  1  0.00000000  0.00000000  0.70160800  1
loop_
_geom_bond_atom_site_label_1
_geom_bond_atom_site_label_2
_geom_bond_distance
_geom_bond_site_symmetry_2
Ba0 P0 3.449459 1_665
Ba0 P1 3.449459 1_555
Ba0 P0 3.449459 1_555
Ba0 P1 3.449459 1_655
Ba0 P0 3.449459 1_565
Ba0 P1 3.449459 1_565
Ba0 P0 3.449459 1_655
Ba0 P1 3.449459 1_665
Ba0 Cu3 3.529113 1_555
Ba0 Cu0 3.529113 1_655
Ba0 Cu1 3.529113 1_655
Ba0 Cu2 3.529113 1_565
Ba0 Cu1 3.529113 1_555
Ba0 Cu3 3.529113 1_565
Ba0 Cu2 3.529113 1_555
Ba0 Cu0 3.529113 1_555
Cu0 P0 2.291576 1_555
Cu0 P0 2.291576 1_565
Cu0 Cu4 2.690158 1_565
Cu0 Cu4 2.690158 1_555
Cu1 P1 2.291576 1_565
Cu1 P1 2.291576 1_555
Cu1 Cu4 2.690158 1_566
Cu1 Cu4 2.690158 1_556
Cu2 P0 2.291576 1_655
Cu2 P0 2.291576 1_555
Cu2 Cu4 2.690158 1_655
Cu2 Cu4 2.690158 1_555
Cu3 P1 2.291576 1_655
Cu3 P1 2.291576 1_555
Cu3 Cu4 2.690158 1_656
Cu3 Cu4 2.690158 1_556
Cu4 P1 2.747273 1_554
Cu4 P0 2.747273 1_555
Ag0 Cu2 2.690158 1_565
Ag0 Cu2 2.690158 1_555
Ag0 Cu0 2.690158 1_655
Ag0 Cu0 2.690158 1_555
Ag0 Cu3 2.690158 1_564
Ag0 Cu1 2.690158 1_654
Ag0 Cu3 2.690158 1_554
Ag0 Cu1 2.690158 1_554
Ag0 Cu4 2.907460 1_565
Ag0 Cu4 2.907460 1_665
Ag0 Cu4 2.907460 1_555
Ag0 Cu4 2.907460 1_655
