# generated using pymatgen
data_Na3Mn2V3O12
_symmetry_space_group_name_H-M   'P 1'
_cell_length_a   10.86279933
_cell_length_b   10.86279933
_cell_length_c   10.86279933
_cell_angle_alpha   109.47122063
_cell_angle_beta   109.47122063
_cell_angle_gamma   109.47122063
_symmetry_Int_Tables_number   1
_chemical_formula_structural   Na3Mn2V3O12
_chemical_formula_sum   'Na12 Mn8 V12 O48'
_cell_volume   986.74146890
_cell_formula_units_Z   4
loop_
 _symmetry_equiv_pos_site_id
 _symmetry_equiv_pos_as_xyz
  1  'x, y, z'
loop_
 _atom_site_type_symbol
 _atom_site_label
 _atom_site_symmetry_multiplicity
 _atom_site_fract_x
 _atom_site_fract_y
 _atom_site_fract_z
 _atom_site_occupancy
  Na  Na0  1  0.87500000  0.62500000  0.75000000  1
  Na  Na1  1  0.12500000  0.37500000  0.25000000  1
  Na  Na2  1  0.62500000  0.87500000  0.25000000  1
  Na  Na3  1  0.62500000  0.75000000  0.87500000  1
  Na  Na4  1  0.87500000  0.25000000  0.62500000  1
  Na  Na5  1  0.37500000  0.12500000  0.75000000  1
  Na  Na6  1  0.37500000  0.25000000  0.12500000  1
  Na  Na7  1  0.12500000  0.75000000  0.37500000  1
  Na  Na8  1  0.75000000  0.87500000  0.62500000  1
  Na  Na9  1  0.25000000  0.12500000  0.37500000  1
  Na  Na10  1  0.25000000  0.62500000  0.87500000  1
  Na  Na11  1  0.75000000  0.37500000  0.12500000  1
  Mn  Mn0  1  -0.00000000  -0.00000000  -0.00000000  1
  Mn  Mn1  1  0.50000000  -0.00000000  0.50000000  1
  Mn  Mn2  1  0.50000000  0.50000000  -0.00000000  1
  Mn  Mn3  1  -0.00000000  -0.00000000  0.50000000  1
  Mn  Mn4  1  -0.00000000  0.50000000  0.50000000  1
  Mn  Mn5  1  0.50000000  0.50000000  0.50000000  1
  Mn  Mn6  1  0.50000000  -0.00000000  -0.00000000  1
  Mn  Mn7  1  -0.00000000  0.50000000  -0.00000000  1
  V  V0  1  0.62500000  0.37500000  0.75000000  1
  V  V1  1  0.37500000  0.62500000  0.25000000  1
  V  V2  1  0.87500000  0.12500000  0.25000000  1
  V  V3  1  0.37500000  0.75000000  0.62500000  1
  V  V4  1  0.62500000  0.25000000  0.37500000  1
  V  V5  1  0.12500000  0.87500000  0.75000000  1
  V  V6  1  0.12500000  0.25000000  0.87500000  1
  V  V7  1  0.87500000  0.75000000  0.12500000  1
  V  V8  1  0.75000000  0.62500000  0.37500000  1
  V  V9  1  0.25000000  0.37500000  0.62500000  1
  V  V10  1  0.25000000  0.87500000  0.12500000  1
  V  V11  1  0.75000000  0.12500000  0.87500000  1
  O  O0  1  0.69930911  0.61029048  0.50861824  1
  O  O1  1  0.30069089  0.38970952  0.49138176  1
  O  O2  1  0.80069089  0.80930913  0.41098137  1
  O  O3  1  0.39832776  0.88970952  0.08901863  1
  O  O4  1  0.61029048  0.50861824  0.69930911  1
  O  O5  1  0.69930911  0.08901863  0.69069087  1
  O  O6  1  0.19930911  0.19069087  0.58901863  1
  O  O7  1  0.60167224  0.11029048  0.91098137  1
  O  O8  1  0.38970952  0.49138176  0.30069089  1
  O  O9  1  0.30069089  0.91098137  0.30930913  1
  O  O10  1  0.10167224  0.69069087  0.99138176  1
  O  O11  1  0.80930913  0.41098137  0.80069089  1
  O  O12  1  0.80069089  0.99138176  0.88970952  1
  O  O13  1  0.89832776  0.30930913  0.00861824  1
  O  O14  1  0.19069087  0.58901863  0.19930911  1
  O  O15  1  0.19930911  0.00861824  0.11029048  1
  O  O16  1  0.88970952  0.08901863  0.39832776  1
  O  O17  1  0.39832776  0.50861824  0.80930913  1
  O  O18  1  0.11029048  0.91098137  0.60167224  1
  O  O19  1  0.60167224  0.49138176  0.19069087  1
  O  O20  1  0.69069087  0.99138176  0.10167224  1
  O  O21  1  0.10167224  0.41098137  0.61029048  1
  O  O22  1  0.30930913  0.00861824  0.89832776  1
  O  O23  1  0.89832776  0.58901863  0.38970952  1
  O  O24  1  0.50861824  0.69930911  0.61029048  1
  O  O25  1  0.61029048  0.10167224  0.41098137  1
  O  O26  1  0.49138176  0.30069089  0.38970952  1
  O  O27  1  0.38970952  0.89832776  0.58901863  1
  O  O28  1  0.08901863  0.39832776  0.88970952  1
  O  O29  1  0.88970952  0.80069089  0.99138176  1
  O  O30  1  0.91098137  0.60167224  0.11029048  1
  O  O31  1  0.11029048  0.19930911  0.00861824  1
  O  O32  1  0.99138176  0.10167224  0.69069087  1
  O  O33  1  0.69069087  0.69930911  0.08901863  1
  O  O34  1  0.00861824  0.89832776  0.30930913  1
  O  O35  1  0.30930913  0.30069089  0.91098137  1
  O  O36  1  0.41098137  0.80069089  0.80930913  1
  O  O37  1  0.80930913  0.39832776  0.50861824  1
  O  O38  1  0.58901863  0.19930911  0.19069087  1
  O  O39  1  0.19069087  0.60167224  0.49138176  1
  O  O40  1  0.08901863  0.69069087  0.69930911  1
  O  O41  1  0.91098137  0.30930913  0.30069089  1
  O  O42  1  0.99138176  0.88970952  0.80069089  1
  O  O43  1  0.00861824  0.11029048  0.19930911  1
  O  O44  1  0.41098137  0.61029048  0.10167224  1
  O  O45  1  0.58901863  0.38970952  0.89832776  1
  O  O46  1  0.50861824  0.80930913  0.39832776  1
  O  O47  1  0.49138176  0.19069087  0.60167224  1
loop_
_geom_bond_atom_site_label_1
_geom_bond_atom_site_label_2
_geom_bond_distance
_geom_bond_site_symmetry_2
Na0 O40 2.495339 1_655
Na0 O11 2.495339 1_555
Na0 O4 2.495339 1_555
Na0 O42 2.495339 1_555
Na0 O0 2.593150 1_555
Na0 O37 2.593150 1_555
Na0 O10 2.593150 1_655
Na0 O29 2.593150 1_555
Na1 O41 2.495339 1_455
Na1 O14 2.495339 1_555
Na1 O8 2.495339 1_555
Na1 O43 2.495339 1_555
Na1 O13 2.593150 1_455
Na1 O1 2.593150 1_555
Na1 O39 2.593150 1_555
Na1 O31 2.593150 1_555
Na2 O16 2.495339 1_565
Na2 O20 2.495339 1_555
Na2 O46 2.495339 1_555
Na2 O44 2.495339 1_555
Na2 O33 2.593150 1_555
Na2 O2 2.593150 1_555
Na2 O3 2.593150 1_555
Na2 O25 2.593150 1_565
Na3 O33 2.495339 1_556
Na3 O36 2.495339 1_555
Na3 O29 2.495339 1_555
Na3 O24 2.495339 1_555
Na3 O4 2.593150 1_555
Na3 O12 2.593150 1_555
Na3 O17 2.593150 1_555
Na3 O20 2.593150 1_556
Na4 O28 2.495339 1_655
Na4 O37 2.495339 1_555
Na4 O25 2.495339 1_555
Na4 O32 2.495339 1_555
Na4 O11 2.593150 1_555
Na4 O5 2.593150 1_555
Na4 O16 2.593150 1_555
Na4 O21 2.593150 1_655
Na5 O18 2.495339 1_545
Na5 O47 2.495339 1_555
Na5 O22 2.495339 1_555
Na5 O45 2.495339 1_555
Na5 O7 2.593150 1_555
Na5 O6 2.593150 1_555
Na5 O27 2.593150 1_545
Na5 O35 2.593150 1_555
Na6 O38 2.495339 1_555
Na6 O31 2.495339 1_555
Na6 O35 2.495339 1_554
Na6 O26 2.495339 1_555
Na6 O19 2.593150 1_555
Na6 O8 2.593150 1_555
Na6 O22 2.593150 1_554
Na6 O15 2.593150 1_555
Na7 O30 2.495339 1_455
Na7 O27 2.495339 1_555
Na7 O34 2.495339 1_555
Na7 O39 2.495339 1_555
Na7 O14 2.593150 1_555
Na7 O9 2.593150 1_555
Na7 O18 2.593150 1_555
Na7 O23 2.593150 1_455
Na8 O5 2.495339 1_565
Na8 O12 2.495339 1_555
Na8 O2 2.495339 1_555
Na8 O0 2.495339 1_555
Na8 O24 2.593150 1_555
Na8 O32 2.593150 1_565
Na8 O42 2.593150 1_555
Na8 O46 2.593150 1_555
Na9 O6 2.495339 1_555
Na9 O9 2.495339 1_545
Na9 O15 2.495339 1_555
Na9 O1 2.495339 1_555
Na9 O26 2.593150 1_555
Na9 O43 2.593150 1_555
Na9 O47 2.593150 1_555
Na9 O34 2.593150 1_545
Na10 O17 2.495339 1_555
Na10 O21 2.495339 1_555
Na10 O3 2.495339 1_556
Na10 O10 2.495339 1_555
Na10 O28 2.593150 1_555
Na10 O40 2.593150 1_555
Na10 O36 2.593150 1_555
Na10 O44 2.593150 1_556
Na11 O23 2.495339 1_555
Na11 O19 2.495339 1_555
Na11 O7 2.495339 1_554
Na11 O13 2.495339 1_555
Na11 O30 2.593150 1_555
Na11 O45 2.593150 1_554
Na11 O38 2.593150 1_555
Na11 O41 2.593150 1_555
Mn0 O12 2.047544 1_444
Mn0 O42 2.047544 1_444
Mn0 O29 2.047544 1_444
Mn0 O31 2.047544 1_555
Mn0 O43 2.047544 1_555
Mn0 O15 2.047544 1_555
Mn1 O27 2.047544 1_545
Mn1 O46 2.047544 1_545
Mn1 O25 2.047544 1_555
Mn1 O9 2.047544 1_545
Mn1 O47 2.047544 1_555
Mn1 O5 2.047544 1_555
Mn2 O44 2.047544 1_555
Mn2 O17 2.047544 1_554
Mn2 O45 2.047544 1_554
Mn2 O35 2.047544 1_554
Mn2 O19 2.047544 1_555
Mn2 O33 2.047544 1_555
Mn3 O2 2.047544 1_445
Mn3 O18 2.047544 1_545
Mn3 O16 2.047544 1_455
Mn3 O34 2.047544 1_545
Mn3 O6 2.047544 1_555
Mn3 O32 2.047544 1_455
Mn4 O23 2.047544 1_455
Mn4 O21 2.047544 1_555
Mn4 O37 2.047544 1_455
Mn4 O39 2.047544 1_555
Mn4 O41 2.047544 1_455
Mn4 O40 2.047544 1_555
Mn5 O8 2.047544 1_555
Mn5 O26 2.047544 1_555
Mn5 O1 2.047544 1_555
Mn5 O0 2.047544 1_555
Mn5 O24 2.047544 1_555
Mn5 O4 2.047544 1_555
Mn6 O3 2.047544 1_545
Mn6 O36 2.047544 1_544
Mn6 O7 2.047544 1_554
Mn6 O22 2.047544 1_554
Mn6 O38 2.047544 1_555
Mn6 O20 2.047544 1_545
Mn7 O11 2.047544 1_454
Mn7 O28 2.047544 1_554
Mn7 O30 2.047544 1_455
Mn7 O14 2.047544 1_555
Mn7 O13 2.047544 1_455
Mn7 O10 2.047544 1_554
O0 V8 1.750511 1_555
O1 V9 1.750511 1_555
O2 V8 1.750511 1_555
O3 V10 1.750511 1_555
O4 V0 1.750511 1_555
O5 V11 1.750511 1_555
O6 V9 1.750511 1_555
O7 V11 1.750511 1_555
O8 V1 1.750511 1_555
O9 V10 1.750511 1_555
O10 V10 1.750511 1_556
O11 V0 1.750511 1_555
O12 V11 1.750511 1_565
O13 V11 1.750511 1_554
O14 V1 1.750511 1_555
O15 V10 1.750511 1_545
O16 V2 1.750511 1_555
O17 V9 1.750511 1_555
O18 V5 1.750511 1_555
O19 V8 1.750511 1_555
O20 V2 1.750511 1_565
O21 V9 1.750511 1_555
O22 V5 1.750511 1_545
O23 V8 1.750511 1_555
O24 V3 1.750511 1_555
O25 V4 1.750511 1_555
O26 V4 1.750511 1_555
O27 V3 1.750511 1_555
O28 V6 1.750511 1_555
O29 V7 1.750511 1_556
O30 V7 1.750511 1_555
O31 V6 1.750511 1_554
O32 V6 1.750511 1_655
O33 V7 1.750511 1_555
O34 V7 1.750511 1_455
O35 V6 1.750511 1_555
O36 V3 1.750511 1_555
O37 V4 1.750511 1_555
O38 V4 1.750511 1_555
O39 V3 1.750511 1_555
O40 V5 1.750511 1_555
O41 V2 1.750511 1_555
O42 V5 1.750511 1_655
O43 V2 1.750511 1_455
O44 V1 1.750511 1_555
O45 V0 1.750511 1_555
O46 V1 1.750511 1_555
O47 V0 1.750511 1_555
