# generated using pymatgen
data_Tb3Pd4
_symmetry_space_group_name_H-M   'P 1'
_cell_length_a   5.72384457
_cell_length_b   7.87523814
_cell_length_c   7.87596176
_cell_angle_alpha   114.43973936
_cell_angle_beta   104.03995916
_cell_angle_gamma   104.01414121
_symmetry_Int_Tables_number   1
_chemical_formula_structural   Tb3Pd4
_chemical_formula_sum   'Tb6 Pd8'
_cell_volume   289.01355841
_cell_formula_units_Z   2
loop_
 _symmetry_equiv_pos_site_id
 _symmetry_equiv_pos_as_xyz
  1  'x, y, z'
loop_
 _atom_site_type_symbol
 _atom_site_label
 _atom_site_symmetry_multiplicity
 _atom_site_fract_x
 _atom_site_fract_y
 _atom_site_fract_z
 _atom_site_occupancy
  Tb  Tb0  1  0.40567534  0.12721635  0.37868692  1
  Tb  Tb1  1  0.02663569  0.62105934  0.74869891  1
  Tb  Tb2  1  0.27806973  0.25136460  0.87251485  1
  Tb  Tb3  1  0.59432193  0.87278087  0.62130939  1
  Tb  Tb4  1  0.97336735  0.37894170  0.25130507  1
  Tb  Tb5  1  0.72193254  0.74863784  0.12748623  1
  Pd  Pd0  1  0.99999832  0.00000133  0.99999686  1
  Pd  Pd1  1  0.50000055  0.00000186  0.99999763  1
  Pd  Pd2  1  0.22605500  0.67502535  0.16537829  1
  Pd  Pd3  1  0.06057697  0.83482518  0.51039799  1
  Pd  Pd4  1  0.55047725  0.48951981  0.32476715  1
  Pd  Pd5  1  0.77394531  0.32497398  0.83462385  1
  Pd  Pd6  1  0.93942027  0.16517273  0.48960374  1
  Pd  Pd7  1  0.44952574  0.51047705  0.67523512  1
loop_
_geom_bond_atom_site_label_1
_geom_bond_atom_site_label_2
_geom_bond_distance
_geom_bond_site_symmetry_2
Tb0 Tb3 3.470946 1_545
Tb1 Tb4 3.468878 1_455
Tb2 Tb5 3.467272 1_556
Pd0 Pd1 2.861912 1_555
Pd0 Pd1 2.861933 1_655
Pd0 Tb4 2.885418 1_556
Pd0 Tb1 2.885423 1_645
Pd0 Tb3 2.886429 1_545
Pd0 Tb0 2.886457 1_656
Pd0 Tb2 2.890341 1_655
Pd0 Tb5 2.890371 1_546
Pd1 Tb4 2.959528 1_556
Pd1 Tb1 2.959531 1_545
Pd1 Tb3 2.959962 1_545
Pd1 Tb0 2.959983 1_556
Pd1 Tb2 2.963789 1_555
Pd1 Tb5 2.963825 1_546
Pd2 Tb4 2.852049 1_455
Pd2 Tb5 2.870272 1_555
Pd2 Pd5 2.900710 1_454
Pd2 Pd4 2.976357 1_555
Pd2 Pd3 2.976796 1_555
Pd2 Tb0 2.999863 1_565
Pd2 Tb1 3.007797 1_554
Pd2 Tb5 3.047434 1_455
Pd2 Tb3 3.142159 1_555
Pd2 Tb2 3.314664 1_554
Pd3 Tb5 2.854055 1_455
Pd3 Tb3 2.869267 1_555
Pd3 Pd6 2.906394 1_465
Pd3 Pd4 2.975036 1_455
Pd3 Tb2 3.000408 1_565
Pd3 Tb1 3.004550 1_555
Pd3 Tb3 3.045680 1_455
Pd3 Tb4 3.142980 1_455
Pd3 Tb0 3.323841 1_565
Pd4 Tb3 2.853662 1_555
Pd4 Tb4 2.869790 1_555
Pd4 Pd7 2.902297 1_555
Pd4 Tb2 2.999519 1_554
Pd4 Tb0 3.006038 1_555
Pd4 Tb4 3.044235 1_455
Pd4 Tb5 3.151987 1_555
Pd4 Tb1 3.317316 1_655
Pd5 Tb1 2.852056 1_655
Pd5 Tb2 2.870258 1_555
Pd5 Pd7 2.976331 1_555
Pd5 Pd6 2.976789 1_555
Pd5 Tb3 2.999876 1_545
Pd5 Tb4 3.007806 1_556
Pd5 Tb2 3.047434 1_655
Pd5 Tb0 3.142197 1_555
Pd5 Tb5 3.314674 1_556
Pd6 Tb2 2.854048 1_655
Pd6 Tb0 2.869265 1_555
Pd6 Pd7 2.975053 1_655
Pd6 Tb5 3.000391 1_545
Pd6 Tb4 3.004557 1_555
Pd6 Tb0 3.045701 1_655
Pd6 Tb1 3.142994 1_655
Pd6 Tb3 3.323813 1_545
Pd7 Tb0 2.853665 1_555
Pd7 Tb1 2.869808 1_555
Pd7 Tb5 2.999511 1_556
Pd7 Tb3 3.006066 1_555
Pd7 Tb1 3.044231 1_655
Pd7 Tb2 3.151946 1_555
Pd7 Tb4 3.317317 1_455
