# generated using pymatgen
data_RbMg14Ni
_symmetry_space_group_name_H-M   'P 1'
_cell_length_a   6.42719338
_cell_length_b   6.42719285
_cell_length_c   10.61314893
_cell_angle_alpha   90.00000000
_cell_angle_beta   90.00000000
_cell_angle_gamma   120.00000273
_symmetry_Int_Tables_number   1
_chemical_formula_structural   RbMg14Ni
_chemical_formula_sum   'Rb1 Mg14 Ni1'
_cell_volume   379.67987388
_cell_formula_units_Z   1
loop_
 _symmetry_equiv_pos_site_id
 _symmetry_equiv_pos_as_xyz
  1  'x, y, z'
loop_
 _atom_site_type_symbol
 _atom_site_label
 _atom_site_symmetry_multiplicity
 _atom_site_fract_x
 _atom_site_fract_y
 _atom_site_fract_z
 _atom_site_occupancy
  Rb  Rb0  1  0.16666700  0.33333300  0.62500000  1
  Mg  Mg0  1  0.15401974  0.82700937  0.12500000  1
  Mg  Mg1  1  0.17371370  0.83685635  0.62500000  1
  Mg  Mg2  1  0.67299063  0.34598026  0.12500000  1
  Mg  Mg3  1  0.66314365  0.32628630  0.62500000  1
  Mg  Mg4  1  0.67299063  0.82700937  0.12500000  1
  Mg  Mg5  1  0.66314365  0.83685635  0.62500000  1
  Mg  Mg6  1  0.33004617  0.16995383  0.34273802  1
  Mg  Mg7  1  0.33004617  0.16995383  0.90726198  1
  Mg  Mg8  1  0.33004617  0.66009334  0.34273802  1
  Mg  Mg9  1  0.33004617  0.66009334  0.90726198  1
  Mg  Mg10  1  0.83990666  0.16995383  0.34273802  1
  Mg  Mg11  1  0.83990666  0.16995383  0.90726198  1
  Mg  Mg12  1  0.83333300  0.66666700  0.38426247  1
  Mg  Mg13  1  0.83333300  0.66666700  0.86573753  1
  Ni  Ni0  1  0.16666700  0.33333300  0.12500000  1
loop_
_geom_bond_atom_site_label_1
_geom_bond_atom_site_label_2
_geom_bond_distance
_geom_bond_site_symmetry_2
Mg0 Mg9 2.997463 1_554
Mg0 Mg8 2.997463 1_555
Mg0 Mg7 2.997470 1_564
Mg0 Mg6 2.997470 1_565
Mg0 Mg2 3.091667 1_455
Mg0 Mg4 3.091667 1_455
Mg0 Ni0 3.214367 1_565
Mg0 Ni0 3.214367 1_555
Mg0 Mg12 3.279848 1_455
Mg0 Mg13 3.279848 1_454
Mg0 Mg2 3.335526 1_565
Mg0 Mg4 3.335526 1_555
Mg1 Mg12 3.180792 1_455
Mg1 Mg13 3.180792 1_455
Mg1 Rb0 3.213836 1_555
Mg1 Rb0 3.213836 1_565
Mg2 Mg7 2.997470 1_554
Mg2 Mg6 2.997470 1_555
Mg2 Mg4 3.091667 1_555
Mg2 Ni0 3.214368 1_655
Mg2 Ni0 3.214368 1_555
Mg2 Mg4 3.335526 1_545
Mg3 Rb0 3.213836 1_555
Mg3 Rb0 3.213836 1_655
Mg4 Mg9 2.997470 1_554
Mg4 Mg8 2.997470 1_555
Mg4 Ni0 3.214367 1_665
Mg4 Ni0 3.214367 1_555
Mg5 Rb0 3.213836 1_555
Mg5 Rb0 3.213836 1_665
Mg6 Ni0 2.940771 1_555
Mg6 Rb0 3.504581 1_555
Mg7 Ni0 2.940771 1_556
Mg7 Rb0 3.504581 1_555
Mg8 Ni0 2.940777 1_555
Mg8 Rb0 3.504587 1_555
Mg9 Ni0 2.940777 1_556
Mg9 Rb0 3.504587 1_555
Mg10 Ni0 2.940778 1_655
Mg10 Mg2 2.997463 1_555
Mg10 Mg4 2.997470 1_545
Mg10 Mg12 3.243881 1_545
Mg10 Mg12 3.243881 1_555
Mg10 Rb0 3.504587 1_655
Mg11 Ni0 2.940778 1_656
Mg11 Mg2 2.997463 1_556
Mg11 Mg4 2.997470 1_546
Mg11 Mg13 3.243881 1_545
Mg11 Mg13 3.243881 1_555
Mg11 Rb0 3.504587 1_655
Mg12 Mg5 3.180785 1_555
Mg12 Mg3 3.180792 1_555
Mg12 Mg6 3.243881 1_665
Mg12 Mg6 3.243881 1_555
Mg12 Mg8 3.243881 1_555
Mg12 Mg8 3.243881 1_655
Mg12 Mg4 3.279842 1_555
Mg12 Mg2 3.279848 1_555
Mg13 Mg5 3.180785 1_555
Mg13 Mg3 3.180792 1_555
Mg13 Mg7 3.243881 1_665
Mg13 Mg7 3.243881 1_555
Mg13 Mg9 3.243881 1_555
Mg13 Mg9 3.243881 1_655
Mg13 Mg4 3.279842 1_556
Mg13 Mg2 3.279848 1_556
