# generated using pymatgen
data_Te3MoWS
_symmetry_space_group_name_H-M   'P 1'
_cell_length_a   3.45552128
_cell_length_b   3.45552128
_cell_length_c   39.43171900
_cell_angle_alpha   90.00000000
_cell_angle_beta   90.00000000
_cell_angle_gamma   119.99998615
_symmetry_Int_Tables_number   1
_chemical_formula_structural   Te3MoWS
_chemical_formula_sum   'Te6 Mo2 W2 S2'
_cell_volume   407.75899046
_cell_formula_units_Z   2
loop_
 _symmetry_equiv_pos_site_id
 _symmetry_equiv_pos_as_xyz
  1  'x, y, z'
loop_
 _atom_site_type_symbol
 _atom_site_label
 _atom_site_symmetry_multiplicity
 _atom_site_fract_x
 _atom_site_fract_y
 _atom_site_fract_z
 _atom_site_occupancy
  Te  Te0  1  0.00000000  0.00000000  0.32892600  1
  Te  Te1  1  0.00000000  0.00000000  0.70475700  1
  Te  Te2  1  0.33333300  0.66666700  0.42269200  1
  Te  Te3  1  0.33333300  0.66666700  0.51658900  1
  Te  Te4  1  0.00000000  0.00000000  0.23451700  1
  Te  Te5  1  0.00000000  0.00000000  0.61039900  1
  Mo  Mo0  1  0.00000000  0.00000000  0.09395600  1
  Mo  Mo1  1  0.00000000  0.00000000  0.46967400  1
  W  W0  1  0.33333300  0.66666700  0.28174500  1
  W  W1  1  0.33333300  0.66666700  0.65760100  1
  S  S0  1  0.33333300  0.66666700  0.05616300  1
  S  S1  1  0.33333300  0.66666700  0.13173000  1
loop_
_geom_bond_atom_site_label_1
_geom_bond_atom_site_label_2
_geom_bond_distance
_geom_bond_site_symmetry_2
Te0 W0 2.727892 1_545
Te0 W0 2.727894 1_555
Te0 W0 2.727894 1_445
Te1 W1 2.727219 1_545
Te1 W1 2.727222 1_555
Te1 W1 2.727222 1_445
Te4 W0 2.729156 1_545
Te4 W0 2.729158 1_445
Te4 W0 2.729158 1_555
Te5 W1 2.728456 1_545
Te5 W1 2.728459 1_445
Te5 W1 2.728459 1_555
Mo0 S1 2.489737 1_545
Mo0 S1 2.489740 1_555
Mo0 S1 2.489740 1_445
Mo0 S0 2.490186 1_545
Mo0 S0 2.490188 1_555
Mo0 S0 2.490188 1_445
Mo1 Te3 2.720749 1_545
Mo1 Te3 2.720752 1_555
Mo1 Te3 2.720752 1_445
Mo1 Te2 2.722546 1_545
Mo1 Te2 2.722549 1_555
Mo1 Te2 2.722549 1_445
