# generated using pymatgen
data_LiCu2PO4
_symmetry_space_group_name_H-M   'P 1'
_cell_length_a   5.46718200
_cell_length_b   6.27816381
_cell_length_c   10.35286361
_cell_angle_alpha   90.15938437
_cell_angle_beta   90.11656889
_cell_angle_gamma   92.00139025
_symmetry_Int_Tables_number   1
_chemical_formula_structural   LiCu2PO4
_chemical_formula_sum   'Li4 Cu8 P4 O16'
_cell_volume   355.13133133
_cell_formula_units_Z   4
loop_
 _symmetry_equiv_pos_site_id
 _symmetry_equiv_pos_as_xyz
  1  'x, y, z'
loop_
 _atom_site_type_symbol
 _atom_site_label
 _atom_site_symmetry_multiplicity
 _atom_site_fract_x
 _atom_site_fract_y
 _atom_site_fract_z
 _atom_site_occupancy
  Li  Li0  1  0.84359400  0.00001200  0.24675200  1
  Li  Li1  1  0.67493700  0.24546800  0.49536700  1
  Li  Li2  1  0.67207600  0.25712000  0.00314900  1
  Li  Li3  1  0.32608700  0.25461200  0.24903000  1
  Cu  Cu0  1  0.76575700  0.99845100  0.75221500  1
  Cu  Cu1  1  0.34687600  0.22342900  0.76093300  1
  Cu  Cu2  1  0.23151300  0.51434900  0.98887400  1
  Cu  Cu3  1  0.23191800  0.50535100  0.48868500  1
  Cu  Cu4  1  0.35003300  0.77087500  0.74830200  1
  Cu  Cu5  1  0.34931200  0.70801900  0.23040800  1
  Cu  Cu6  1  0.65617700  0.74504700  0.49625800  1
  Cu  Cu7  1  0.64676700  0.72491700  0.99547700  1
  P  P0  1  0.15472000  0.01404700  0.01039600  1
  P  P1  1  0.16252200  0.00977300  0.49399500  1
  P  P2  1  0.82012300  0.49051700  0.25134900  1
  P  P3  1  0.83651400  0.49467600  0.74756000  1
  O  O0  1  0.15481100  0.00745100  0.64424000  1
  O  O1  1  0.89856300  0.01277700  0.43785700  1
  O  O2  1  0.16980700  0.00571700  0.15957800  1
  O  O3  1  0.88613500  0.01939800  0.96264700  1
  O  O4  1  0.31709700  0.20809000  0.44337300  1
  O  O5  1  0.31016400  0.21471200  0.96151100  1
  O  O6  1  0.67740700  0.29097100  0.19648200  1
  O  O7  1  0.69648900  0.29452100  0.68784000  1
  O  O8  1  0.82200300  0.48962000  0.89757100  1
  O  O9  1  0.10485700  0.50002700  0.69934500  1
  O  O10  1  0.81332900  0.49035600  0.40120600  1
  O  O11  1  0.08969600  0.48196700  0.20280200  1
  O  O12  1  0.70342900  0.69604600  0.69586700  1
  O  O13  1  0.70950100  0.70572300  0.20105300  1
  O  O14  1  0.29589000  0.80892900  0.44249000  1
  O  O15  1  0.28189600  0.81703400  0.94998100  1
loop_
_geom_bond_atom_site_label_1
_geom_bond_atom_site_label_2
_geom_bond_distance
_geom_bond_site_symmetry_2
Li0 O2 1.999702 1_655
Li0 O1 2.001538 1_555
Li0 O13 2.018418 1_545
Li0 O6 2.133646 1_555
Li1 O10 1.953613 1_555
Li1 O7 2.018034 1_555
Li1 O1 2.026395 1_555
Li1 O4 2.033513 1_555
Li2 O3 1.973161 1_554
Li2 O8 1.981463 1_554
Li2 O6 2.012258 1_555
Li2 O5 2.032441 1_554
Li3 O2 1.981125 1_555
Li3 O6 2.002895 1_555
Li3 O11 2.016644 1_555
Li3 O4 2.034346 1_555
Cu0 O12 2.002188 1_555
Cu0 O7 2.024270 1_565
Cu0 O3 2.276651 1_565
Cu0 O0 2.403886 1_665
Cu1 O0 2.070507 1_555
Cu1 O5 2.087326 1_555
Cu1 O7 2.091281 1_555
Cu1 O9 2.309989 1_555
Cu2 O15 1.953795 1_555
Cu2 O5 1.964175 1_555
Cu2 O11 2.355028 1_556
Cu2 O8 2.428252 1_455
Cu3 O14 1.985634 1_555
Cu3 O4 1.994130 1_555
Cu3 O9 2.290218 1_555
Cu3 O10 2.458122 1_455
Cu4 O12 2.077155 1_555
Cu4 O15 2.142346 1_555
Cu4 O0 2.149599 1_565
Cu4 O9 2.185936 1_555
Cu5 O11 1.991428 1_555
Cu5 O13 1.993686 1_555
Cu5 O2 2.264244 1_565
Cu5 O14 2.305507 1_555
Cu6 O10 2.086620 1_555
Cu6 O14 2.098239 1_555
Cu6 O12 2.106850 1_555
Cu6 O1 2.190944 1_565
Cu7 O8 2.054737 1_555
Cu7 O15 2.147994 1_555
Cu7 O13 2.159435 1_556
Cu7 O3 2.254442 1_565
O0 P1 1.556218 1_555
O1 P1 1.555396 1_655
O2 P0 1.547621 1_555
O3 P0 1.549933 1_656
O4 P1 1.571932 1_555
O5 P0 1.579873 1_556
O6 P2 1.557845 1_555
O7 P3 1.572874 1_555
O8 P3 1.555585 1_555
O9 P3 1.549918 1_455
O10 P2 1.551972 1_555
O11 P2 1.560762 1_455
O12 P3 1.574969 1_555
O13 P2 1.588107 1_555
O14 P1 1.570984 1_565
O15 P0 1.569092 1_566
