# generated using pymatgen
data_Sr4Zr3TiO12
_symmetry_space_group_name_H-M   'P 1'
_cell_length_a   5.79640100
_cell_length_b   5.82518929
_cell_length_c   8.20686378
_cell_angle_alpha   89.99998516
_cell_angle_beta   89.97495755
_cell_angle_gamma   89.98202004
_symmetry_Int_Tables_number   1
_chemical_formula_structural   Sr4Zr3TiO12
_chemical_formula_sum   'Sr4 Zr3 Ti1 O12'
_cell_volume   277.10580712
_cell_formula_units_Z   1
loop_
 _symmetry_equiv_pos_site_id
 _symmetry_equiv_pos_as_xyz
  1  'x, y, z'
loop_
 _atom_site_type_symbol
 _atom_site_label
 _atom_site_symmetry_multiplicity
 _atom_site_fract_x
 _atom_site_fract_y
 _atom_site_fract_z
 _atom_site_occupancy
  Sr  Sr0  1  0.50618200  0.02677000  0.75825500  1
  Sr  Sr1  1  0.99280100  0.52276200  0.75809100  1
  Sr  Sr2  1  0.49381800  0.97323000  0.24174500  1
  Sr  Sr3  1  0.00719900  0.47723800  0.24190900  1
  Zr  Zr0  1  0.00000000  0.00000000  0.50000000  1
  Zr  Zr1  1  0.50000000  0.50000000  0.50000000  1
  Zr  Zr2  1  0.00000000  0.00000000  0.00000000  1
  Ti  Ti0  1  0.50000000  0.50000000  0.00000000  1
  O  O0  1  0.43421800  0.48729200  0.75999000  1
  O  O1  1  0.07359700  0.98494900  0.75113200  1
  O  O2  1  0.56578200  0.51270800  0.24001000  1
  O  O3  1  0.92640300  0.01505100  0.24886800  1
  O  O4  1  0.72166300  0.76335000  0.96681500  1
  O  O5  1  0.78816100  0.28851900  0.54134700  1
  O  O6  1  0.28835400  0.21227900  0.45974100  1
  O  O7  1  0.23739700  0.72165700  0.03357200  1
  O  O8  1  0.27833700  0.23665000  0.03318500  1
  O  O9  1  0.21183900  0.71148100  0.45865300  1
  O  O10  1  0.71164600  0.78772100  0.54025900  1
  O  O11  1  0.76260300  0.27834300  0.96642800  1
loop_
_geom_bond_atom_site_label_1
_geom_bond_atom_site_label_2
_geom_bond_distance
_geom_bond_site_symmetry_2
O0 Ti0 2.007829 1_556
O0 Zr1 2.168608 1_555
O0 Sr1 2.566949 1_455
O0 Sr0 2.714772 1_555
O0 Sr1 3.244452 1_555
O1 Zr2 2.088155 1_566
O1 Zr0 2.106695 1_565
O1 Sr0 2.520022 1_565
O1 Sr1 2.733493 1_455
O1 Sr1 3.168040 1_465
O2 Ti0 2.007829 1_555
O2 Zr1 2.168608 1_555
O2 Sr3 2.566949 1_655
O2 Sr2 2.714772 1_555
O2 Sr3 3.244452 1_555
O3 Zr2 2.088155 1_655
O3 Zr0 2.106695 1_655
O3 Sr2 2.520022 1_545
O3 Sr3 2.733493 1_655
O3 Sr3 3.168040 1_645
O4 Ti0 2.019725 1_556
O4 Zr2 2.139908 1_666
O4 Sr0 2.616287 1_565
O4 Sr1 2.713790 1_555
O4 Sr2 2.885526 1_556
O4 Sr3 3.258158 1_656
O5 Zr1 2.102822 1_555
O5 Zr0 2.108533 1_655
O5 Sr1 2.536898 1_555
O5 Sr0 2.857305 1_555
O5 Sr3 2.976184 1_655
O6 Zr1 2.103541 1_555
O6 Zr0 2.105398 1_555
O6 Sr2 2.560329 1_545
O6 Sr3 2.869665 1_555
O6 Sr0 2.960681 1_555
O7 Ti0 2.014557 1_555
O7 Zr2 2.144130 1_565
O7 Sr3 2.594257 1_555
O7 Sr2 2.697980 1_555
O7 Sr1 2.909924 1_454
O8 Ti0 2.019725 1_555
O8 Zr2 2.139908 1_555
O8 Sr2 2.616287 1_545
O8 Sr3 2.713790 1_555
O8 Sr0 2.885526 1_554
O8 Sr1 3.258158 1_454
O9 Zr1 2.102822 1_555
O9 Zr0 2.108533 1_565
O9 Sr3 2.536898 1_555
O9 Sr2 2.857305 1_555
O9 Sr1 2.976184 1_455
O10 Zr1 2.103541 1_555
O10 Zr0 2.105398 1_665
O10 Sr0 2.560329 1_565
O10 Sr1 2.869665 1_555
O10 Sr2 2.960681 1_555
O11 Ti0 2.014557 1_556
O11 Zr2 2.144130 1_656
O11 Sr1 2.594257 1_555
O11 Sr0 2.697980 1_555
O11 Sr3 2.909924 1_656
