# generated using pymatgen
data_MoC4IO4
_symmetry_space_group_name_H-M   'P 1'
_cell_length_a   9.39247000
_cell_length_b   9.82166629
_cell_length_c   10.94312208
_cell_angle_alpha   88.23762292
_cell_angle_beta   96.79897664
_cell_angle_gamma   118.40542980
_symmetry_Int_Tables_number   1
_chemical_formula_structural   MoC4IO4
_chemical_formula_sum   'Mo4 C16 I4 O16'
_cell_volume   881.33736657
_cell_formula_units_Z   4
loop_
 _symmetry_equiv_pos_site_id
 _symmetry_equiv_pos_as_xyz
  1  'x, y, z'
loop_
 _atom_site_type_symbol
 _atom_site_label
 _atom_site_symmetry_multiplicity
 _atom_site_fract_x
 _atom_site_fract_y
 _atom_site_fract_z
 _atom_site_occupancy
  Mo  Mo0  1  0.80343800  0.86533600  0.01874000  1
  Mo  Mo1  1  0.19656200  0.13466400  0.98126000  1
  Mo  Mo2  1  0.80223300  0.37139700  0.51833300  1
  Mo  Mo3  1  0.19776700  0.62860300  0.48166700  1
  C  C0  1  0.83000800  0.95927000  0.19457300  1
  C  C1  1  0.16999200  0.04073000  0.80542700  1
  C  C2  1  0.77513000  0.77652600  0.84108700  1
  C  C3  1  0.22487000  0.22347400  0.15891300  1
  C  C4  1  0.57662100  0.84180600  0.97475800  1
  C  C5  1  0.42337900  0.15819400  0.02524200  1
  C  C6  1  0.68635800  0.65501500  0.09318600  1
  C  C7  1  0.31364200  0.34498500  0.90681400  1
  C  C8  1  0.87709200  0.20369100  0.55897000  1
  C  C9  1  0.12290800  0.79630900  0.44103000  1
  C  C10  1  0.73458500  0.54330500  0.47369800  1
  C  C11  1  0.26541500  0.45669500  0.52630200  1
  C  C12  1  0.65846900  0.30627100  0.65665600  1
  C  C13  1  0.34153100  0.69372900  0.34334400  1
  C  C14  1  0.60393100  0.20818600  0.41356300  1
  C  C15  1  0.39606900  0.79181400  0.58643700  1
  I  I0  1  0.91041800  0.17496700  0.92825100  1
  I  I1  1  0.08958200  0.82503300  0.07174900  1
  I  I2  1  0.05215000  0.56734600  0.70919000  1
  I  I3  1  0.94785000  0.43265400  0.29081000  1
  O  O0  1  0.83246600  0.00423000  0.29142600  1
  O  O1  1  0.16753400  0.99577000  0.70857400  1
  O  O2  1  0.74930600  0.72404200  0.74281000  1
  O  O3  1  0.25069400  0.27595800  0.25719000  1
  O  O4  1  0.44465900  0.82229200  0.94914500  1
  O  O5  1  0.55534100  0.17770800  0.05085500  1
  O  O6  1  0.61277200  0.53502800  0.13572500  1
  O  O7  1  0.38722800  0.46497200  0.86427500  1
  O  O8  1  0.91148500  0.10686700  0.58241200  1
  O  O9  1  0.08851500  0.89313300  0.41758800  1
  O  O10  1  0.69066800  0.63305800  0.44672000  1
  O  O11  1  0.30933200  0.36694200  0.55328000  1
  O  O12  1  0.57179100  0.26476800  0.73283900  1
  O  O13  1  0.42820900  0.73523200  0.26716100  1
  O  O14  1  0.48804200  0.11337500  0.35668700  1
  O  O15  1  0.51195800  0.88662500  0.64331300  1
loop_
_geom_bond_atom_site_label_1
_geom_bond_atom_site_label_2
_geom_bond_distance
_geom_bond_site_symmetry_2
C0 O0 1.154190 1_565
C0 Mo0 2.095779 1_555
C1 O1 1.154190 1_545
C1 Mo1 2.095779 1_555
C2 O2 1.155223 1_555
C2 Mo0 2.090991 1_556
C3 O3 1.155223 1_555
C3 Mo1 2.090991 1_554
C4 O4 1.160416 1_555
C4 Mo0 2.029580 1_556
C5 O5 1.160416 1_555
C5 Mo1 2.029580 1_554
C6 O6 1.162193 1_555
C6 Mo0 2.021750 1_555
C7 O7 1.162193 1_555
C7 Mo1 2.021750 1_555
C8 O8 1.154190 1_555
C8 Mo2 2.094757 1_555
C9 O9 1.154190 1_555
C9 Mo3 2.094757 1_555
C10 O10 1.155639 1_555
C10 Mo2 2.095119 1_555
C11 O11 1.155639 1_555
C11 Mo3 2.095119 1_555
C12 O12 1.161051 1_555
C12 Mo2 2.031339 1_555
C13 O13 1.161051 1_555
C13 Mo3 2.031339 1_555
C14 O14 1.161984 1_555
C14 Mo2 2.029781 1_555
C15 O15 1.161984 1_555
C15 Mo3 2.029781 1_555
I0 Mo1 2.888822 1_655
I0 Mo0 2.895091 1_546
I1 Mo0 2.888822 1_455
I1 Mo1 2.895091 1_564
I2 Mo3 2.891886 1_555
I2 Mo2 2.892122 1_455
I3 Mo2 2.891886 1_555
I3 Mo3 2.892122 1_655
