# generated using pymatgen
data_Gd3Lu
_symmetry_space_group_name_H-M   'P 1'
_cell_length_a   7.15044970
_cell_length_b   7.15044970
_cell_length_c   5.71233800
_cell_angle_alpha   90.00000000
_cell_angle_beta   90.00000000
_cell_angle_gamma   119.99999721
_symmetry_Int_Tables_number   1
_chemical_formula_structural   Gd3Lu
_chemical_formula_sum   'Gd6 Lu2'
_cell_volume   252.93635303
_cell_formula_units_Z   2
loop_
 _symmetry_equiv_pos_site_id
 _symmetry_equiv_pos_as_xyz
  1  'x, y, z'
loop_
 _atom_site_type_symbol
 _atom_site_label
 _atom_site_symmetry_multiplicity
 _atom_site_fract_x
 _atom_site_fract_y
 _atom_site_fract_z
 _atom_site_occupancy
  Gd  Gd0  1  0.83218600  0.16781400  0.75000000  1
  Gd  Gd1  1  0.33562800  0.16781400  0.75000000  1
  Gd  Gd2  1  0.83218600  0.66437200  0.75000000  1
  Gd  Gd3  1  0.16781400  0.83218600  0.25000000  1
  Gd  Gd4  1  0.66437200  0.83218600  0.25000000  1
  Gd  Gd5  1  0.16781400  0.33562800  0.25000000  1
  Lu  Lu0  1  0.66666700  0.33333300  0.25000000  1
  Lu  Lu1  1  0.33333300  0.66666700  0.75000000  1
loop_
_geom_bond_atom_site_label_1
_geom_bond_atom_site_label_2
_geom_bond_distance
_geom_bond_site_symmetry_2
Gd0 Lu0 3.515675 1_556
Gd0 Lu0 3.515675 1_555
Gd0 Gd5 3.532324 1_655
Gd0 Gd5 3.532324 1_656
Gd0 Gd4 3.532324 1_545
Gd0 Gd4 3.532324 1_546
Gd0 Gd2 3.550613 1_555
Gd0 Gd1 3.550613 1_555
Gd0 Lu1 3.575253 1_545
Gd0 Lu1 3.575253 1_655
Gd0 Gd1 3.599837 1_655
Gd0 Gd2 3.599837 1_545
Gd1 Lu0 3.515678 1_556
Gd1 Lu0 3.515678 1_555
Gd1 Gd5 3.532324 1_555
Gd1 Gd5 3.532324 1_556
Gd1 Gd3 3.532324 1_545
Gd1 Gd3 3.532324 1_546
Gd1 Gd2 3.550613 1_555
Gd1 Lu1 3.575250 1_545
Gd1 Lu1 3.575257 1_555
Gd1 Gd2 3.599837 1_445
Gd2 Lu0 3.515678 1_556
Gd2 Lu0 3.515678 1_555
Gd2 Gd4 3.532324 1_556
Gd2 Gd4 3.532324 1_555
Gd2 Gd3 3.532324 1_656
Gd2 Gd3 3.532324 1_655
Gd2 Lu1 3.575250 1_655
Gd2 Lu1 3.575257 1_555
Gd3 Lu1 3.515675 1_554
Gd3 Lu1 3.515675 1_555
Gd3 Gd5 3.550613 1_555
Gd3 Gd4 3.550613 1_555
Gd3 Lu0 3.575253 1_455
Gd3 Lu0 3.575253 1_565
Gd3 Gd5 3.599837 1_565
Gd3 Gd4 3.599837 1_455
Gd4 Lu1 3.515678 1_554
Gd4 Lu1 3.515678 1_555
Gd4 Gd5 3.550613 1_555
Gd4 Lu0 3.575250 1_565
Gd4 Lu0 3.575257 1_555
Gd4 Gd5 3.599837 1_665
Gd5 Lu1 3.515678 1_554
Gd5 Lu1 3.515678 1_555
Gd5 Lu0 3.575250 1_455
Gd5 Lu0 3.575257 1_555
