# generated using pymatgen
data_DyB2Os
_symmetry_space_group_name_H-M   'P 1'
_cell_length_a   5.90936500
_cell_length_b   5.31045800
_cell_length_c   6.38149800
_cell_angle_alpha   90.00000000
_cell_angle_beta   90.00000000
_cell_angle_gamma   90.00000000
_symmetry_Int_Tables_number   1
_chemical_formula_structural   DyB2Os
_chemical_formula_sum   'Dy4 B8 Os4'
_cell_volume   200.26056239
_cell_formula_units_Z   4
loop_
 _symmetry_equiv_pos_site_id
 _symmetry_equiv_pos_as_xyz
  1  'x, y, z'
loop_
 _atom_site_type_symbol
 _atom_site_label
 _atom_site_symmetry_multiplicity
 _atom_site_fract_x
 _atom_site_fract_y
 _atom_site_fract_z
 _atom_site_occupancy
  Dy  Dy0  1  0.01025400  0.25000000  0.33586200  1
  Dy  Dy1  1  0.51025400  0.25000000  0.16413800  1
  Dy  Dy2  1  0.98974600  0.75000000  0.66413800  1
  Dy  Dy3  1  0.48974600  0.75000000  0.83586200  1
  B  B0  1  0.36360800  0.08170700  0.53974800  1
  B  B1  1  0.86360800  0.41829300  0.96025200  1
  B  B2  1  0.63639200  0.58170700  0.46025200  1
  B  B3  1  0.13639200  0.91829300  0.03974800  1
  B  B4  1  0.63639200  0.91829300  0.46025200  1
  B  B5  1  0.13639200  0.58170700  0.03974800  1
  B  B6  1  0.36360800  0.41829300  0.53974800  1
  B  B7  1  0.86360800  0.08170700  0.96025200  1
  Os  Os0  1  0.17704500  0.25000000  0.81807500  1
  Os  Os1  1  0.67704500  0.25000000  0.68192500  1
  Os  Os2  1  0.82295500  0.75000000  0.18192500  1
  Os  Os3  1  0.32295500  0.75000000  0.31807500  1
loop_
_geom_bond_atom_site_label_1
_geom_bond_atom_site_label_2
_geom_bond_distance
_geom_bond_site_symmetry_2
Dy0 Os1 2.958750 1_455
Dy1 Os0 2.958750 1_554
Dy2 Os3 2.958750 1_655
Dy3 Os2 2.958750 1_556
B0 B6 1.787426 1_555
B0 B4 1.899716 1_545
B0 Os1 2.247802 1_555
B0 Os3 2.271951 1_545
B0 Os0 2.273509 1_555
B0 Dy0 2.617581 1_555
B0 Dy3 2.688742 1_545
B0 Dy1 2.700941 1_555
B0 Dy2 2.934961 1_445
B1 B7 1.787426 1_555
B1 B5 1.899716 1_656
B1 Os0 2.247802 1_655
B1 Os2 2.271951 1_556
B1 Os1 2.273509 1_555
B1 Dy1 2.617581 1_556
B1 Dy2 2.688742 1_555
B1 Dy0 2.700941 1_656
B1 Dy3 2.934961 1_555
B2 B4 1.787426 1_555
B2 B6 1.899716 1_555
B2 Os3 2.247802 1_555
B2 Os1 2.271951 1_555
B2 Os2 2.273509 1_555
B2 Dy2 2.617581 1_555
B2 Dy1 2.688742 1_555
B2 Dy3 2.700941 1_555
B2 Dy0 2.934961 1_655
B3 B5 1.787426 1_555
B3 B7 1.899716 1_464
B3 Os2 2.247802 1_455
B3 Os0 2.271951 1_564
B3 Os3 2.273509 1_555
B3 Dy3 2.617581 1_554
B3 Dy0 2.688742 1_565
B3 Dy2 2.700941 1_454
B3 Dy1 2.934961 1_565
B4 Os3 2.247802 1_555
B4 Os1 2.271951 1_565
B4 Os2 2.273509 1_555
B4 Dy2 2.617581 1_555
B4 Dy1 2.688742 1_565
B4 Dy3 2.700941 1_555
B4 Dy0 2.934961 1_665
B5 Os2 2.247802 1_455
B5 Os0 2.271951 1_554
B5 Os3 2.273509 1_555
B5 Dy3 2.617581 1_554
B5 Dy0 2.688742 1_555
B5 Dy2 2.700941 1_454
B5 Dy1 2.934961 1_555
B6 Os1 2.247802 1_555
B6 Os3 2.271951 1_555
B6 Os0 2.273509 1_555
B6 Dy0 2.617581 1_555
B6 Dy3 2.688742 1_555
B6 Dy1 2.700941 1_555
B6 Dy2 2.934961 1_455
B7 Os0 2.247802 1_655
B7 Os2 2.271951 1_546
B7 Os1 2.273509 1_555
B7 Dy1 2.617581 1_556
B7 Dy2 2.688742 1_545
B7 Dy0 2.700941 1_656
B7 Dy3 2.934961 1_545
