# generated using pymatgen
data_V2Cu(PO7)2
_symmetry_space_group_name_H-M   'P 1'
_cell_length_a   8.93112200
_cell_length_b   7.20246100
_cell_length_c   8.86078170
_cell_angle_alpha   84.77414786
_cell_angle_beta   90.00000000
_cell_angle_gamma   90.00000000
_symmetry_Int_Tables_number   1
_chemical_formula_structural   V2Cu(PO7)2
_chemical_formula_sum   'V4 Cu2 P4 O28'
_cell_volume   567.60998286
_cell_formula_units_Z   2
loop_
 _symmetry_equiv_pos_site_id
 _symmetry_equiv_pos_as_xyz
  1  'x, y, z'
loop_
 _atom_site_type_symbol
 _atom_site_label
 _atom_site_symmetry_multiplicity
 _atom_site_fract_x
 _atom_site_fract_y
 _atom_site_fract_z
 _atom_site_occupancy
  V  V0  1  0.25000000  0.91798300  0.50593700  1
  V  V1  1  0.75000000  0.08201700  0.49406300  1
  V  V2  1  0.75000000  0.91346100  0.00751400  1
  V  V3  1  0.25000000  0.08653900  0.99248600  1
  Cu  Cu0  1  0.75000000  0.51691400  0.83162600  1
  Cu  Cu1  1  0.25000000  0.48308600  0.16837400  1
  P  P0  1  0.49822900  0.00673800  0.74985300  1
  P  P1  1  0.99822900  0.99326200  0.25014700  1
  P  P2  1  0.50177100  0.99326200  0.25014700  1
  P  P3  1  0.00177100  0.00673800  0.74985300  1
  O  O0  1  0.59670100  0.87687200  0.85685500  1
  O  O1  1  0.09670100  0.12312800  0.14314500  1
  O  O2  1  0.40329900  0.12312800  0.14314500  1
  O  O3  1  0.90329900  0.87687200  0.85685500  1
  O  O4  1  0.39959800  0.87752200  0.66058800  1
  O  O5  1  0.89959800  0.12247800  0.33941200  1
  O  O6  1  0.60040200  0.12247800  0.33941200  1
  O  O7  1  0.10040200  0.87752200  0.66058800  1
  O  O8  1  0.39973000  0.13602400  0.83860000  1
  O  O9  1  0.89973000  0.86397600  0.16140000  1
  O  O10  1  0.60027000  0.86397600  0.16140000  1
  O  O11  1  0.10027000  0.13602400  0.83860000  1
  O  O12  1  0.59668700  0.13544600  0.64009400  1
  O  O13  1  0.09668700  0.86455400  0.35990600  1
  O  O14  1  0.40331300  0.86455400  0.35990600  1
  O  O15  1  0.90331300  0.13544600  0.64009400  1
  O  O16  1  0.25000000  0.14098800  0.47650400  1
  O  O17  1  0.75000000  0.85901200  0.52349600  1
  O  O18  1  0.75000000  0.13852800  0.98914800  1
  O  O19  1  0.25000000  0.86147200  0.01085200  1
  O  O20  1  0.25000000  0.59618200  0.50473900  1
  O  O21  1  0.75000000  0.40381800  0.49526100  1
  O  O22  1  0.75000000  0.60106900  0.00664400  1
  O  O23  1  0.25000000  0.39893100  0.99335600  1
  O  O24  1  0.90734400  0.48500800  0.72949300  1
  O  O25  1  0.40734400  0.51499200  0.27050700  1
  O  O26  1  0.09265600  0.51499200  0.27050700  1
  O  O27  1  0.59265600  0.48500800  0.72949300  1
loop_
_geom_bond_atom_site_label_1
_geom_bond_atom_site_label_2
_geom_bond_distance
_geom_bond_site_symmetry_2
Cu0 O24 1.698361 1_555
Cu0 O27 1.698361 1_555
Cu0 O22 1.715687 1_556
Cu1 O26 1.698361 1_555
Cu1 O25 1.698361 1_555
Cu1 O23 1.715687 1_554
O0 P0 1.544582 1_565
O0 V2 1.946835 1_556
O1 P1 1.544582 1_445
O1 V3 1.946835 1_554
O2 P2 1.544582 1_545
O2 V3 1.946835 1_554
O3 P3 1.544582 1_665
O3 V2 1.946835 1_556
O4 P0 1.549781 1_565
O4 V0 1.917051 1_555
O5 P1 1.549781 1_545
O5 V1 1.917051 1_555
O6 P2 1.549781 1_545
O6 V1 1.917051 1_555
O7 P3 1.549781 1_565
O7 V0 1.917051 1_555
O8 P0 1.546848 1_555
O8 V3 1.919903 1_555
O9 P1 1.546848 1_555
O9 V2 1.919903 1_555
O10 P2 1.546848 1_555
O10 V2 1.919903 1_555
O11 P3 1.546848 1_555
O11 V3 1.919903 1_555
O12 P0 1.553775 1_555
O12 V1 1.946269 1_555
O13 P1 1.553775 1_455
O13 V0 1.946269 1_555
O14 P2 1.553775 1_555
O14 V0 1.946269 1_555
O15 P3 1.553775 1_655
O15 V1 1.946269 1_555
O16 V0 1.603602 1_545
O17 V1 1.603602 1_565
O18 V2 1.614369 1_546
O19 V3 1.614369 1_564
O20 V0 2.318750 1_555
O21 V1 2.318750 1_555
O22 V2 2.250706 1_555
O23 V3 2.250706 1_555
