# generated using pymatgen
data_Nd2O3
_symmetry_space_group_name_H-M   'P 1'
_cell_length_a   9.63734280
_cell_length_b   9.63734243
_cell_length_c   9.63734282
_cell_angle_alpha   109.47121282
_cell_angle_beta   109.47121205
_cell_angle_gamma   109.47122693
_symmetry_Int_Tables_number   1
_chemical_formula_structural   Nd2O3
_chemical_formula_sum   'Nd16 O24'
_cell_volume   689.04894042
_cell_formula_units_Z   8
loop_
 _symmetry_equiv_pos_site_id
 _symmetry_equiv_pos_as_xyz
  1  'x, y, z'
loop_
 _atom_site_type_symbol
 _atom_site_label
 _atom_site_symmetry_multiplicity
 _atom_site_fract_x
 _atom_site_fract_y
 _atom_site_fract_z
 _atom_site_occupancy
  Nd  Nd0  1  0.25000000  0.71953843  0.46953843  1
  Nd  Nd1  1  0.03046157  0.75000000  0.78046157  1
  Nd  Nd2  1  0.78046157  0.03046157  0.75000000  1
  Nd  Nd3  1  0.46953843  0.25000000  0.71953843  1
  Nd  Nd4  1  0.71953843  0.46953843  0.25000000  1
  Nd  Nd5  1  0.75000000  0.78046157  0.03046157  1
  Nd  Nd6  1  0.75000000  0.28046157  0.53046157  1
  Nd  Nd7  1  0.96953843  0.25000000  0.21953843  1
  Nd  Nd8  1  0.21953843  0.96953843  0.25000000  1
  Nd  Nd9  1  0.53046157  0.75000000  0.28046157  1
  Nd  Nd10  1  0.28046157  0.53046157  0.75000000  1
  Nd  Nd11  1  0.25000000  0.21953843  0.96953843  1
  Nd  Nd12  1  -0.00000000  0.50000000  -0.00000000  1
  Nd  Nd13  1  0.50000000  -0.00000000  -0.00000000  1
  Nd  Nd14  1  -0.00000000  -0.00000000  0.50000000  1
  Nd  Nd15  1  0.50000000  0.50000000  0.50000000  1
  O  O0  1  0.02790460  0.48769710  0.75874703  1
  O  O1  1  0.22895007  0.26915757  0.74125297  1
  O  O2  1  0.27104993  0.01230290  0.04020750  1
  O  O3  1  0.23084243  0.45979250  0.47209540  1
  O  O4  1  0.45979250  0.47209540  0.23084243  1
  O  O5  1  0.75874703  0.02790460  0.48769710  1
  O  O6  1  0.26915757  0.74125297  0.22895007  1
  O  O7  1  0.04020750  0.27104993  0.01230290  1
  O  O8  1  0.48769710  0.75874703  0.02790460  1
  O  O9  1  0.74125297  0.22895007  0.26915757  1
  O  O10  1  0.01230290  0.04020750  0.27104993  1
  O  O11  1  0.47209540  0.23084243  0.45979250  1
  O  O12  1  0.97209540  0.51230290  0.24125297  1
  O  O13  1  0.77104993  0.73084243  0.25874703  1
  O  O14  1  0.72895007  0.98769710  0.95979250  1
  O  O15  1  0.76915757  0.54020750  0.52790460  1
  O  O16  1  0.52790460  0.76915757  0.54020750  1
  O  O17  1  0.98769710  0.95979250  0.72895007  1
  O  O18  1  0.25874703  0.77104993  0.73084243  1
  O  O19  1  0.51230290  0.24125297  0.97209540  1
  O  O20  1  0.95979250  0.72895007  0.98769710  1
  O  O21  1  0.73084243  0.25874703  0.77104993  1
  O  O22  1  0.24125297  0.97209540  0.51230290  1
  O  O23  1  0.54020750  0.52790460  0.76915757  1
loop_
_geom_bond_atom_site_label_1
_geom_bond_atom_site_label_2
_geom_bond_distance
_geom_bond_site_symmetry_2
Nd0 O16 2.361910 1_555
Nd0 O12 2.361910 1_455
Nd0 O22 2.364827 1_555
Nd0 O18 2.364827 1_555
Nd0 O3 2.457041 1_555
Nd0 O6 2.457041 1_555
Nd1 O20 2.361910 1_455
Nd1 O18 2.361910 1_555
Nd1 O17 2.364827 1_455
Nd1 O15 2.364827 1_455
Nd1 O0 2.457041 1_555
Nd1 O2 2.457041 1_566
Nd2 O21 2.361910 1_555
Nd2 O17 2.361910 1_545
Nd2 O14 2.364827 1_545
Nd2 O16 2.364827 1_545
Nd2 O5 2.457041 1_555
Nd2 O7 2.457041 1_656
Nd3 O23 2.361910 1_555
Nd3 O22 2.361910 1_545
Nd3 O19 2.364827 1_555
Nd3 O21 2.364827 1_555
Nd3 O1 2.457041 1_555
Nd3 O11 2.457041 1_555
Nd4 O15 2.361910 1_555
Nd4 O19 2.361910 1_554
Nd4 O13 2.364827 1_555
Nd4 O12 2.364827 1_555
Nd4 O9 2.457041 1_555
Nd4 O4 2.457041 1_555
Nd5 O14 2.361910 1_554
Nd5 O13 2.361910 1_555
Nd5 O20 2.364827 1_554
Nd5 O23 2.364827 1_554
Nd5 O8 2.457041 1_555
Nd5 O10 2.457041 1_665
Nd6 O11 2.361910 1_555
Nd6 O0 2.361910 1_655
Nd6 O5 2.364827 1_555
Nd6 O9 2.364827 1_555
Nd6 O15 2.457041 1_555
Nd6 O21 2.457041 1_555
Nd7 O7 2.361910 1_655
Nd7 O9 2.361910 1_555
Nd7 O10 2.364827 1_655
Nd7 O3 2.364827 1_655
Nd7 O12 2.457041 1_555
Nd7 O14 2.457041 1_544
Nd8 O6 2.361910 1_555
Nd8 O10 2.361910 1_565
Nd8 O2 2.364827 1_565
Nd8 O11 2.364827 1_565
Nd8 O22 2.457041 1_555
Nd8 O20 2.457041 1_454
Nd9 O4 2.361910 1_555
Nd9 O5 2.361910 1_565
Nd9 O8 2.364827 1_555
Nd9 O6 2.364827 1_555
Nd9 O13 2.457041 1_555
Nd9 O16 2.457041 1_555
Nd10 O3 2.361910 1_555
Nd10 O8 2.361910 1_556
Nd10 O1 2.364827 1_555
Nd10 O0 2.364827 1_555
Nd10 O18 2.457041 1_555
Nd10 O23 2.457041 1_555
Nd11 O2 2.361910 1_556
Nd11 O1 2.361910 1_555
Nd11 O7 2.364827 1_556
Nd11 O4 2.364827 1_556
Nd11 O19 2.457041 1_555
Nd11 O17 2.457041 1_445
Nd12 O7 2.397185 1_555
Nd12 O20 2.397185 1_454
Nd12 O12 2.397185 1_455
Nd12 O0 2.397185 1_554
Nd12 O21 2.397185 1_454
Nd12 O6 2.397185 1_555
Nd13 O19 2.397185 1_554
Nd13 O8 2.397185 1_545
Nd13 O14 2.397185 1_544
Nd13 O2 2.397185 1_555
Nd13 O18 2.397186 1_544
Nd13 O9 2.397186 1_555
Nd14 O17 2.397185 1_445
Nd14 O10 2.397185 1_555
Nd14 O22 2.397185 1_545
Nd14 O5 2.397185 1_455
Nd14 O13 2.397185 1_445
Nd14 O1 2.397185 1_555
Nd15 O16 2.397185 1_555
Nd15 O11 2.397185 1_555
Nd15 O15 2.397185 1_555
Nd15 O3 2.397185 1_555
Nd15 O4 2.397185 1_555
Nd15 O23 2.397185 1_555
