# generated using pymatgen
data_K3Cd16
_symmetry_space_group_name_H-M   'P 1'
_cell_length_a   9.13218150
_cell_length_b   9.13218150
_cell_length_c   11.66668821
_cell_angle_alpha   90.00000000
_cell_angle_beta   90.00000000
_cell_angle_gamma   90.00000000
_symmetry_Int_Tables_number   1
_chemical_formula_structural   K3Cd16
_chemical_formula_sum   'K6 Cd32'
_cell_volume   972.96375105
_cell_formula_units_Z   2
loop_
 _symmetry_equiv_pos_site_id
 _symmetry_equiv_pos_as_xyz
  1  'x, y, z'
loop_
 _atom_site_type_symbol
 _atom_site_label
 _atom_site_symmetry_multiplicity
 _atom_site_fract_x
 _atom_site_fract_y
 _atom_site_fract_z
 _atom_site_occupancy
  K  K0  1  0.75000000  0.75000000  0.75000000  1
  K  K1  1  0.25000000  0.25000000  0.25000000  1
  K  K2  1  0.75000000  0.75000000  0.41498246  1
  K  K3  1  0.75000000  0.75000000  0.08501754  1
  K  K4  1  0.25000000  0.25000000  0.58501754  1
  K  K5  1  0.25000000  0.25000000  0.91498246  1
  Cd  Cd0  1  0.40545069  0.61088688  0.93756577  1
  Cd  Cd1  1  0.09454931  0.88911312  0.93756577  1
  Cd  Cd2  1  0.09454931  0.61088688  0.56243423  1
  Cd  Cd3  1  0.40545069  0.88911312  0.56243423  1
  Cd  Cd4  1  0.59454931  0.38911312  0.06243423  1
  Cd  Cd5  1  0.90545069  0.11088688  0.06243423  1
  Cd  Cd6  1  0.90545069  0.38911312  0.43756577  1
  Cd  Cd7  1  0.59454931  0.11088688  0.43756577  1
  Cd  Cd8  1  0.61088688  0.40545069  0.56243423  1
  Cd  Cd9  1  0.88911312  0.09454931  0.56243423  1
  Cd  Cd10  1  0.61088688  0.09454931  0.93756577  1
  Cd  Cd11  1  0.88911312  0.40545069  0.93756577  1
  Cd  Cd12  1  0.38911312  0.59454931  0.43756577  1
  Cd  Cd13  1  0.11088688  0.90545069  0.43756577  1
  Cd  Cd14  1  0.38911312  0.90545069  0.06243423  1
  Cd  Cd15  1  0.11088688  0.59454931  0.06243423  1
  Cd  Cd16  1  0.90024032  0.10624566  0.81237302  1
  Cd  Cd17  1  0.59975968  0.39375434  0.81237302  1
  Cd  Cd18  1  0.59975968  0.10624566  0.68762698  1
  Cd  Cd19  1  0.90024032  0.39375434  0.68762698  1
  Cd  Cd20  1  0.09975968  0.89375434  0.18762698  1
  Cd  Cd21  1  0.40024032  0.60624566  0.18762698  1
  Cd  Cd22  1  0.40024032  0.89375434  0.31237302  1
  Cd  Cd23  1  0.09975968  0.60624566  0.31237302  1
  Cd  Cd24  1  0.10624566  0.90024032  0.68762698  1
  Cd  Cd25  1  0.39375434  0.59975968  0.68762698  1
  Cd  Cd26  1  0.10624566  0.59975968  0.81237302  1
  Cd  Cd27  1  0.39375434  0.90024032  0.81237302  1
  Cd  Cd28  1  0.89375434  0.09975968  0.31237302  1
  Cd  Cd29  1  0.60624566  0.40024032  0.31237302  1
  Cd  Cd30  1  0.89375434  0.40024032  0.18762698  1
  Cd  Cd31  1  0.60624566  0.09975968  0.18762698  1
loop_
_geom_bond_atom_site_label_1
_geom_bond_atom_site_label_2
_geom_bond_distance
_geom_bond_site_symmetry_2
K0 K3 3.908545 1_556
K0 K2 3.908545 1_555
K1 K5 3.908545 1_554
K1 K4 3.908545 1_555
K2 K3 3.849598 1_555
K4 K5 3.849598 1_555
Cd0 Cd21 2.918082 1_556
Cd0 Cd25 2.919682 1_555
Cd0 Cd27 3.021116 1_555
Cd0 Cd4 3.034163 1_556
Cd0 Cd17 3.035441 1_555
Cd0 Cd15 3.062790 1_556
Cd0 Cd14 3.062790 1_556
Cd0 Cd26 3.099938 1_555
Cd0 K5 3.598087 1_555
Cd0 K3 3.804426 1_556
Cd0 K0 4.037678 1_555
Cd1 Cd20 2.918082 1_556
Cd1 Cd24 2.919682 1_555
Cd1 Cd26 3.021116 1_555
Cd1 Cd5 3.034163 1_466
Cd1 Cd16 3.035441 1_465
Cd1 Cd15 3.062790 1_556
Cd1 Cd14 3.062790 1_556
Cd1 Cd27 3.099938 1_555
Cd1 K5 3.598087 1_565
Cd1 K3 3.804426 1_456
Cd1 K0 4.037678 1_455
Cd2 Cd23 2.918082 1_555
Cd2 Cd26 2.919682 1_555
Cd2 Cd24 3.021116 1_555
Cd2 Cd6 3.034163 1_455
Cd2 Cd25 3.099938 1_555
Cd2 K4 3.598087 1_555
Cd2 K2 3.804426 1_455
Cd2 K0 4.037678 1_455
Cd3 Cd7 3.034163 1_565
Cd3 K4 3.598087 1_565
Cd3 K2 3.804426 1_555
Cd3 K0 4.037678 1_555
Cd4 K3 3.598087 1_555
Cd4 K5 3.804426 1_554
Cd4 K1 4.037678 1_555
Cd5 K3 3.598087 1_545
Cd5 K5 3.804426 1_654
Cd5 K1 4.037678 1_655
Cd6 Cd8 3.062790 1_555
Cd6 Cd9 3.062790 1_555
Cd6 K2 3.598087 1_555
Cd6 K4 3.804426 1_655
Cd6 K1 4.037678 1_655
Cd7 Cd8 3.062790 1_555
Cd7 Cd9 3.062790 1_555
Cd7 K2 3.598087 1_545
Cd7 K4 3.804426 1_555
Cd7 K1 4.037678 1_555
Cd8 K4 3.598087 1_555
Cd8 K2 3.804426 1_555
Cd8 K0 4.037678 1_555
Cd9 K4 3.598087 1_655
Cd9 K2 3.804426 1_545
Cd9 K0 4.037678 1_545
Cd10 Cd31 2.918082 1_556
Cd10 Cd18 2.919682 1_555
Cd10 Cd16 3.021116 1_555
Cd10 Cd14 3.034163 1_546
Cd10 Cd27 3.035441 1_545
Cd10 Cd5 3.062790 1_556
Cd10 Cd4 3.062790 1_556
Cd10 Cd17 3.099938 1_555
Cd10 K5 3.598087 1_555
Cd10 K3 3.804426 1_546
Cd10 K0 4.037678 1_545
Cd11 Cd30 2.918082 1_556
Cd11 Cd19 2.919682 1_555
Cd11 Cd17 3.021116 1_555
Cd11 Cd15 3.034163 1_656
Cd11 Cd26 3.035441 1_655
Cd11 Cd5 3.062790 1_556
Cd11 Cd4 3.062790 1_556
Cd11 Cd16 3.099938 1_555
Cd11 K5 3.598087 1_655
Cd11 K3 3.804426 1_556
Cd11 K0 4.037678 1_555
Cd12 Cd25 2.918082 1_555
Cd12 Cd21 2.919682 1_555
Cd12 Cd23 3.021116 1_555
Cd12 Cd8 3.034163 1_555
Cd12 Cd29 3.035441 1_555
Cd12 Cd2 3.062790 1_555
Cd12 Cd3 3.062790 1_555
Cd12 Cd22 3.099938 1_555
Cd12 K2 3.598087 1_555
Cd12 K4 3.804426 1_555
Cd12 K1 4.037678 1_555
Cd13 Cd24 2.918082 1_555
Cd13 Cd20 2.919682 1_555
Cd13 Cd22 3.021116 1_555
Cd13 Cd9 3.034163 1_465
Cd13 Cd28 3.035441 1_465
Cd13 Cd2 3.062790 1_555
Cd13 Cd3 3.062790 1_555
Cd13 Cd23 3.099938 1_555
Cd13 K2 3.598087 1_455
Cd13 K4 3.804426 1_565
Cd13 K1 4.037678 1_565
Cd14 Cd27 2.918082 1_554
Cd14 Cd22 2.919682 1_555
Cd14 Cd20 3.021116 1_555
Cd14 Cd31 3.035441 1_565
Cd14 Cd21 3.099938 1_555
Cd14 K3 3.598087 1_555
Cd14 K5 3.804426 1_564
Cd14 K1 4.037678 1_565
Cd15 Cd26 2.918082 1_554
Cd15 Cd23 2.919682 1_555
Cd15 Cd21 3.021116 1_555
Cd15 Cd30 3.035441 1_455
Cd15 Cd20 3.099938 1_555
Cd15 K3 3.598087 1_455
Cd15 K5 3.804426 1_554
Cd15 K1 4.037678 1_555
Cd16 Cd5 2.918082 1_556
Cd16 Cd9 2.919682 1_555
Cd16 Cd19 3.001964 1_555
Cd16 Cd24 3.032577 1_645
Cd16 Cd18 3.106105 1_555
Cd16 K0 3.604987 1_545
Cd16 K5 3.654938 1_655
Cd17 Cd4 2.918082 1_556
Cd17 Cd8 2.919682 1_555
Cd17 Cd18 3.001964 1_555
Cd17 Cd25 3.032577 1_555
Cd17 Cd19 3.106105 1_555
Cd17 K0 3.604987 1_555
Cd17 K5 3.654938 1_555
Cd18 Cd7 2.918082 1_555
Cd18 Cd9 3.021116 1_555
Cd18 Cd27 3.032577 1_545
Cd18 Cd3 3.035441 1_545
Cd18 Cd8 3.099938 1_555
Cd18 K0 3.604987 1_545
Cd18 K4 3.654938 1_555
Cd19 Cd6 2.918082 1_555
Cd19 Cd8 3.021116 1_555
Cd19 Cd26 3.032577 1_655
Cd19 Cd2 3.035441 1_655
Cd19 Cd9 3.099938 1_555
Cd19 K0 3.604987 1_555
Cd19 K4 3.654938 1_655
Cd20 Cd23 3.001964 1_555
Cd20 Cd28 3.032577 1_465
Cd20 Cd5 3.035441 1_465
Cd20 Cd22 3.106105 1_555
Cd20 K1 3.604987 1_565
Cd20 K3 3.654938 1_455
Cd21 Cd22 3.001964 1_555
Cd21 Cd29 3.032577 1_555
Cd21 Cd4 3.035441 1_555
Cd21 Cd23 3.106105 1_555
Cd21 K1 3.604987 1_555
Cd21 K3 3.654938 1_555
Cd22 Cd3 2.918082 1_555
Cd22 Cd31 3.032577 1_565
Cd22 Cd7 3.035441 1_565
Cd22 K1 3.604987 1_565
Cd22 K2 3.654938 1_555
Cd23 Cd30 3.032577 1_455
Cd23 Cd6 3.035441 1_455
Cd23 K1 3.604987 1_555
Cd23 K2 3.654938 1_455
Cd24 Cd27 3.001964 1_555
Cd24 Cd9 3.035441 1_465
Cd24 Cd3 3.099938 1_555
Cd24 Cd26 3.106105 1_555
Cd24 K0 3.604987 1_455
Cd24 K4 3.654938 1_565
Cd25 Cd26 3.001964 1_555
Cd25 Cd3 3.021116 1_555
Cd25 Cd8 3.035441 1_555
Cd25 Cd27 3.106105 1_555
Cd25 K0 3.604987 1_555
Cd25 K4 3.654938 1_555
Cd26 K0 3.604987 1_455
Cd26 K5 3.654938 1_555
Cd27 Cd3 2.919682 1_555
Cd27 K0 3.604987 1_555
Cd27 K5 3.654938 1_565
Cd28 Cd9 2.918082 1_555
Cd28 Cd5 2.919682 1_555
Cd28 Cd31 3.001964 1_555
Cd28 Cd6 3.021116 1_555
Cd28 Cd7 3.099938 1_555
Cd28 Cd30 3.106105 1_555
Cd28 K1 3.604987 1_655
Cd28 K2 3.654938 1_545
Cd29 Cd8 2.918082 1_555
Cd29 Cd4 2.919682 1_555
Cd29 Cd30 3.001964 1_555
Cd29 Cd7 3.021116 1_555
Cd29 Cd6 3.099938 1_555
Cd29 Cd31 3.106105 1_555
Cd29 K1 3.604987 1_555
Cd29 K2 3.654938 1_555
Cd30 Cd6 2.919682 1_555
Cd30 Cd5 3.021116 1_555
Cd30 Cd4 3.099938 1_555
Cd30 K1 3.604987 1_655
Cd30 K3 3.654938 1_555
Cd31 Cd7 2.919682 1_555
Cd31 Cd4 3.021116 1_555
Cd31 Cd5 3.099938 1_555
Cd31 K1 3.604987 1_555
Cd31 K3 3.654938 1_545
