# generated using pymatgen
data_Na3IrN2
_symmetry_space_group_name_H-M   'P 1'
_cell_length_a   7.03127800
_cell_length_b   7.73134600
_cell_length_c   11.05423098
_cell_angle_alpha   48.72186614
_cell_angle_beta   90.00000000
_cell_angle_gamma   90.00000000
_symmetry_Int_Tables_number   1
_chemical_formula_structural   Na3IrN2
_chemical_formula_sum   'Na12 Ir4 N8'
_cell_volume   451.60227563
_cell_formula_units_Z   4
loop_
 _symmetry_equiv_pos_site_id
 _symmetry_equiv_pos_as_xyz
  1  'x, y, z'
loop_
 _atom_site_type_symbol
 _atom_site_label
 _atom_site_symmetry_multiplicity
 _atom_site_fract_x
 _atom_site_fract_y
 _atom_site_fract_z
 _atom_site_occupancy
  Na  Na0  1  0.01023600  0.85761100  0.94530000  1
  Na  Na1  1  0.51023600  0.14238900  0.55470000  1
  Na  Na2  1  0.98976400  0.14238900  0.05470000  1
  Na  Na3  1  0.48976400  0.85761100  0.44530000  1
  Na  Na4  1  0.48174900  0.80545800  0.95839300  1
  Na  Na5  1  0.98174900  0.19454200  0.54160700  1
  Na  Na6  1  0.51825100  0.19454200  0.04160700  1
  Na  Na7  1  0.01825100  0.80545800  0.45839300  1
  Na  Na8  1  0.27006400  0.33536900  0.75854000  1
  Na  Na9  1  0.77006400  0.66463100  0.74146000  1
  Na  Na10  1  0.72993600  0.66463100  0.24146000  1
  Na  Na11  1  0.22993600  0.33536900  0.25854000  1
  Ir  Ir0  1  0.20203800  0.73807300  0.75181800  1
  Ir  Ir1  1  0.70203800  0.26192700  0.74818200  1
  Ir  Ir2  1  0.79796200  0.26192700  0.24818200  1
  Ir  Ir3  1  0.29796200  0.73807300  0.25181800  1
  N  N0  1  0.75159300  0.03915400  0.95897900  1
  N  N1  1  0.25159300  0.96084600  0.54102100  1
  N  N2  1  0.24840700  0.96084600  0.04102100  1
  N  N3  1  0.74840700  0.03915400  0.45897900  1
  N  N4  1  0.56577500  0.45956900  0.54863400  1
  N  N5  1  0.06577500  0.54043100  0.95136600  1
  N  N6  1  0.43422500  0.54043100  0.45136600  1
  N  N7  1  0.93422500  0.45956900  0.04863400  1
loop_
_geom_bond_atom_site_label_1
_geom_bond_atom_site_label_2
_geom_bond_distance
_geom_bond_site_symmetry_2
Ir0 N1 1.795075 1_555
Ir0 N5 1.916073 1_555
Ir1 N0 1.795075 1_555
Ir1 N4 1.916073 1_555
Ir2 N3 1.795075 1_555
Ir2 N7 1.916073 1_555
Ir3 N2 1.795075 1_555
Ir3 N6 1.916073 1_555
N0 Na0 2.362241 1_645
N0 Na2 2.382311 1_556
N0 Na10 2.495649 1_546
N0 Na6 2.533226 1_556
N0 Na4 2.622954 1_545
N1 Na1 2.362241 1_565
N1 Na3 2.382311 1_555
N1 Na11 2.495649 1_565
N1 Na7 2.533226 1_555
N1 Na5 2.622954 1_465
N2 Na2 2.362241 1_465
N2 Na0 2.382311 1_554
N2 Na8 2.495649 1_564
N2 Na4 2.533226 1_554
N2 Na6 2.622954 1_565
N3 Na3 2.362241 1_545
N3 Na1 2.382311 1_555
N3 Na9 2.495649 1_545
N3 Na5 2.533226 1_555
N3 Na7 2.622954 1_645
N4 N6 1.231091 1_555
N4 Na1 2.439971 1_555
N4 Na3 2.534307 1_555
N4 Na8 2.772988 1_555
N4 Na10 2.876244 1_555
N5 N7 1.231091 1_456
N5 Na0 2.439971 1_555
N5 Na2 2.534307 1_456
N5 Na9 2.772988 1_455
N5 Na11 2.876244 1_556
N6 Na3 2.439971 1_555
N6 Na1 2.534307 1_555
N6 Na10 2.772988 1_555
N6 Na8 2.876244 1_555
N7 Na2 2.439971 1_555
N7 Na0 2.534307 1_654
N7 Na11 2.772988 1_655
N7 Na9 2.876244 1_554
