# generated using pymatgen
data_Ca3(CoO3)2
_symmetry_space_group_name_H-M   'P 1'
_cell_length_a   6.25235201
_cell_length_b   6.25227102
_cell_length_c   6.30013215
_cell_angle_alpha   92.61749355
_cell_angle_beta   92.62128194
_cell_angle_gamma   92.73694976
_symmetry_Int_Tables_number   1
_chemical_formula_structural   Ca3(CoO3)2
_chemical_formula_sum   'Ca6 Co4 O12'
_cell_volume   245.45989675
_cell_formula_units_Z   2
loop_
 _symmetry_equiv_pos_site_id
 _symmetry_equiv_pos_as_xyz
  1  'x, y, z'
loop_
 _atom_site_type_symbol
 _atom_site_label
 _atom_site_symmetry_multiplicity
 _atom_site_fract_x
 _atom_site_fract_y
 _atom_site_fract_z
 _atom_site_occupancy
  Ca  Ca0  1  0.62189148  0.87811135  0.25001394  1
  Ca  Ca1  1  0.24511356  0.61787961  0.88211811  1
  Ca  Ca2  1  0.88214914  0.25484329  0.61782870  1
  Ca  Ca3  1  0.37814347  0.12187376  0.74996508  1
  Ca  Ca4  1  0.11782024  0.74517476  0.38218009  1
  Ca  Ca5  1  0.75491337  0.38214330  0.11784651  1
  Co  Co0  1  0.74309516  0.75683767  0.75000913  1
  Co  Co1  1  -0.00001883  0.00000310  0.00000149  1
  Co  Co2  1  0.50000417  0.49999810  0.50000336  1
  Co  Co3  1  0.25696309  0.24315820  0.24993223  1
  O  O0  1  0.78833587  0.58565371  0.45557747  1
  O  O1  1  0.59213906  0.46539142  0.78837856  1
  O  O2  1  0.46167400  0.79053836  0.58740109  1
  O  O3  1  0.03459094  0.90772462  0.71169732  1
  O  O4  1  0.91426074  0.71167844  0.04452300  1
  O  O5  1  0.70944617  0.03835096  0.91255131  1
  O  O6  1  0.21165682  0.41435380  0.54444652  1
  O  O7  1  0.40784987  0.53462927  0.21162544  1
  O  O8  1  0.53840630  0.20943273  0.41268000  1
  O  O9  1  0.96534804  0.09223783  0.28833252  1
  O  O10  1  0.29052070  0.96164031  0.08747577  1
  O  O11  1  0.08569566  0.28834641  0.95541438  1
loop_
_geom_bond_atom_site_label_1
_geom_bond_atom_site_label_2
_geom_bond_distance
_geom_bond_site_symmetry_2
Ca0 O10 2.360511 1_555
Ca0 O8 2.360543 1_565
Ca0 O2 2.463747 1_555
Ca0 O5 2.464174 1_564
Ca0 O7 2.471815 1_555
Ca0 O9 2.471939 1_565
Ca0 O4 2.524976 1_555
Ca0 O0 2.525562 1_555
Ca1 O11 2.320466 1_555
Ca1 O7 2.360464 1_556
Ca1 O6 2.423914 1_555
Ca1 O4 2.434050 1_456
Ca1 O10 2.455208 1_556
Ca1 O1 2.495753 1_555
Ca1 O3 2.538818 1_555
Ca1 O2 2.592233 1_555
Ca2 O6 2.320728 1_655
Ca2 O9 2.360071 1_555
Ca2 O11 2.423468 1_655
Ca2 O0 2.433311 1_555
Ca2 O8 2.454439 1_555
Ca2 O3 2.496299 1_645
Ca2 O1 2.540133 1_555
Ca2 O5 2.592133 1_555
Ca3 O5 2.360252 1_555
Ca3 O2 2.360440 1_545
Ca3 O8 2.463276 1_555
Ca3 O10 2.464530 1_546
Ca3 O1 2.471865 1_555
Ca3 O3 2.472502 1_545
Ca3 O11 2.525320 1_555
Ca3 O6 2.525632 1_555
Ca4 O0 2.320651 1_455
Ca4 O3 2.360100 1_555
Ca4 O4 2.423889 1_455
Ca4 O6 2.433450 1_555
Ca4 O2 2.455230 1_555
Ca4 O9 2.496030 1_465
Ca4 O7 2.540230 1_555
Ca4 O10 2.591949 1_555
Ca5 O4 2.320346 1_555
Ca5 O1 2.360340 1_554
Ca5 O0 2.424181 1_555
Ca5 O11 2.433735 1_654
Ca5 O5 2.455204 1_554
Ca5 O7 2.496025 1_555
Ca5 O9 2.538989 1_555
Ca5 O8 2.592749 1_555
Co0 O2 2.019936 1_555
Co0 O5 2.020223 1_565
Co0 O1 2.041206 1_555
Co0 O3 2.041250 1_655
Co0 O0 2.135877 1_555
Co0 O4 2.136093 1_556
Co1 O4 1.892949 1_445
Co1 O11 1.893135 1_554
Co1 O5 1.903396 1_454
Co1 O10 1.903478 1_545
Co1 O3 1.905518 1_544
Co1 O9 1.905631 1_455
Co2 O0 1.892801 1_555
Co2 O6 1.892899 1_555
Co2 O2 1.903341 1_555
Co2 O8 1.903455 1_555
Co2 O1 1.905652 1_555
Co2 O7 1.905726 1_555
Co3 O10 2.019897 1_545
Co3 O8 2.020495 1_555
Co3 O7 2.041086 1_555
Co3 O9 2.042093 1_455
Co3 O6 2.136435 1_555
Co3 O11 2.136447 1_554
