# generated using pymatgen
data_Sr4La13Cu17O35F16
_symmetry_space_group_name_H-M   'P 1'
_cell_length_a   3.92607900
_cell_length_b   3.94330500
_cell_length_c   66.66069500
_cell_angle_alpha   90.00000000
_cell_angle_beta   90.00000000
_cell_angle_gamma   90.00000000
_symmetry_Int_Tables_number   1
_chemical_formula_structural   Sr4La13Cu17O35F16
_chemical_formula_sum   'Sr4 La13 Cu17 O35 F16'
_cell_volume   1032.02267836
_cell_formula_units_Z   1
loop_
 _symmetry_equiv_pos_site_id
 _symmetry_equiv_pos_as_xyz
  1  'x, y, z'
loop_
 _atom_site_type_symbol
 _atom_site_label
 _atom_site_symmetry_multiplicity
 _atom_site_fract_x
 _atom_site_fract_y
 _atom_site_fract_z
 _atom_site_occupancy
  Sr  Sr0  1  0.50000000  0.50000000  0.91156300  1
  Sr  Sr1  1  0.50000000  0.50000000  0.96924500  1
  Sr  Sr2  1  0.50000000  0.50000000  0.79734200  1
  Sr  Sr3  1  0.50000000  0.50000000  0.85385100  1
  La  La0  1  0.50000000  0.50000000  0.73826700  1
  La  La1  1  0.50000000  0.50000000  0.61852700  1
  La  La2  1  0.50000000  0.50000000  0.67834000  1
  La  La3  1  0.50000000  0.50000000  0.50010500  1
  La  La4  1  0.50000000  0.50000000  0.55923400  1
  La  La5  1  0.50000000  0.50000000  0.38231400  1
  La  La6  1  0.50000000  0.50000000  0.44118700  1
  La  La7  1  0.50000000  0.50000000  0.26444800  1
  La  La8  1  0.50000000  0.50000000  0.32346700  1
  La  La9  1  0.50000000  0.50000000  0.14543900  1
  La  La10  1  0.50000000  0.50000000  0.20515600  1
  La  La11  1  0.50000000  0.50000000  0.08547000  1
  La  La12  1  0.50000000  0.50000000  0.02412000  1
  Cu  Cu0  1  0.00000000  0.00000000  0.99912500  1
  Cu  Cu1  1  0.00000000  0.00000000  0.11726500  1
  Cu  Cu2  1  0.00000000  0.00000000  0.94093300  1
  Cu  Cu3  1  0.00000000  0.00000000  0.88246600  1
  Cu  Cu4  1  0.00000000  0.00000000  0.82412600  1
  Cu  Cu5  1  0.00000000  0.00000000  0.76580400  1
  Cu  Cu6  1  0.00000000  0.00000000  0.70631200  1
  Cu  Cu7  1  0.00000000  0.00000000  0.64728200  1
  Cu  Cu8  1  0.00000000  0.00000000  0.58833500  1
  Cu  Cu9  1  0.00000000  0.00000000  0.52944500  1
  Cu  Cu10  1  0.00000000  0.00000000  0.47058900  1
  Cu  Cu11  1  0.00000000  0.00000000  0.41177000  1
  Cu  Cu12  1  0.00000000  0.00000000  0.35294500  1
  Cu  Cu13  1  0.00000000  0.00000000  0.29410000  1
  Cu  Cu14  1  0.00000000  0.00000000  0.23523200  1
  Cu  Cu15  1  0.00000000  0.00000000  0.17625800  1
  Cu  Cu16  1  0.00000000  0.00000000  0.05826800  1
  O  O0  1  0.00000000  0.00000000  0.97021500  1
  O  O1  1  0.00000000  0.00000000  0.91177000  1
  O  O2  1  0.00000000  0.00000000  0.85309500  1
  O  O3  1  0.00000000  0.00000000  0.79425300  1
  O  O4  1  0.00000000  0.00000000  0.73544900  1
  O  O5  1  0.00000000  0.00000000  0.67643300  1
  O  O6  1  0.00000000  0.00000000  0.61772300  1
  O  O7  1  0.00000000  0.00000000  0.55880200  1
  O  O8  1  0.00000000  0.00000000  0.50003100  1
  O  O9  1  0.00000000  0.00000000  0.44116800  1
  O  O10  1  0.00000000  0.00000000  0.08810000  1
  O  O11  1  0.00000000  0.50000000  0.00162700  1
  O  O12  1  0.00000000  0.50000000  0.88234100  1
  O  O13  1  0.50000000  0.00000000  0.00159600  1
  O  O14  1  0.50000000  0.00000000  0.94113200  1
  O  O15  1  0.50000000  0.00000000  0.82341500  1
  O  O16  1  0.50000000  0.00000000  0.76179300  1
  O  O17  1  0.50000000  0.00000000  0.70434900  1
  O  O18  1  0.50000000  0.00000000  0.64635200  1
  O  O19  1  0.50000000  0.00000000  0.58789700  1
  O  O20  1  0.50000000  0.00000000  0.52926900  1
  O  O21  1  0.50000000  0.00000000  0.47052500  1
  O  O22  1  0.50000000  0.00000000  0.41176900  1
  O  O23  1  0.00000000  0.00000000  0.32352600  1
  O  O24  1  0.50000000  0.00000000  0.35298300  1
  O  O25  1  0.50000000  0.00000000  0.29423900  1
  O  O26  1  0.00000000  0.00000000  0.38238400  1
  O  O27  1  0.00000000  0.00000000  0.26472500  1
  O  O28  1  0.00000000  0.00000000  0.20582900  1
  O  O29  1  0.50000000  0.00000000  0.23556500  1
  O  O30  1  0.50000000  0.00000000  0.17703000  1
  O  O31  1  0.50000000  0.00000000  0.11893300  1
  O  O32  1  0.50000000  0.00000000  0.06124500  1
  O  O33  1  0.00000000  0.00000000  0.02968400  1
  O  O34  1  0.00000000  0.00000000  0.14700600  1
  F  F0  1  0.00000000  0.50000000  0.94125500  1
  F  F1  1  0.00000000  0.50000000  0.82337900  1
  F  F2  1  0.00000000  0.50000000  0.76293200  1
  F  F3  1  0.00000000  0.50000000  0.70514500  1
  F  F4  1  0.00000000  0.50000000  0.64672100  1
  F  F5  1  0.00000000  0.50000000  0.58809000  1
  F  F6  1  0.00000000  0.50000000  0.52934900  1
  F  F7  1  0.00000000  0.50000000  0.47052800  1
  F  F8  1  0.00000000  0.50000000  0.41175600  1
  F  F9  1  0.00000000  0.50000000  0.35296800  1
  F  F10  1  0.00000000  0.50000000  0.29417400  1
  F  F11  1  0.00000000  0.50000000  0.23546000  1
  F  F12  1  0.00000000  0.50000000  0.17665400  1
  F  F13  1  0.00000000  0.50000000  0.11821400  1
  F  F14  1  0.00000000  0.50000000  0.06044600  1
  F  F15  1  0.50000000  0.00000000  0.88234700  1
loop_
_geom_bond_atom_site_label_1
_geom_bond_atom_site_label_2
_geom_bond_distance
_geom_bond_site_symmetry_2
La0 O16 2.519296 1_555
La0 O16 2.519296 1_565
La0 O4 2.788588 1_565
La0 O4 2.788588 1_655
La0 O4 2.788588 1_665
La0 O4 2.788588 1_555
La0 O17 2.999921 1_565
La0 O17 2.999921 1_555
La1 O18 2.706995 1_555
La1 O18 2.706995 1_565
La1 O6 2.782770 1_555
La1 O6 2.782770 1_565
La1 O6 2.782770 1_665
La1 O6 2.782770 1_655
La1 O19 2.838385 1_555
La1 O19 2.838385 1_565
La2 O17 2.625528 1_555
La2 O17 2.625528 1_565
La2 O5 2.785157 1_555
La2 O5 2.785157 1_565
La2 O5 2.785157 1_655
La2 O5 2.785157 1_665
La2 O18 2.904186 1_555
La2 O18 2.904186 1_565
La3 O20 2.768918 1_555
La3 O20 2.768918 1_565
La3 O8 2.782258 1_565
La3 O8 2.782258 1_665
La3 O8 2.782258 1_555
La3 O8 2.782258 1_655
La3 O21 2.788459 1_555
La3 O21 2.788459 1_565
La4 O19 2.745573 1_565
La4 O19 2.745573 1_555
La4 O7 2.782403 1_555
La4 O7 2.782403 1_655
La4 O7 2.782403 1_665
La4 O7 2.782403 1_565
La4 O20 2.806665 1_555
La4 O20 2.806665 1_565
La5 O24 2.776746 1_555
La5 O24 2.776746 1_565
La5 O26 2.782258 1_555
La5 O26 2.782258 1_565
La5 O26 2.782258 1_655
La5 O26 2.782258 1_665
La5 O22 2.782572 1_555
La5 O22 2.782572 1_565
La6 O21 2.777074 1_565
La6 O21 2.777074 1_555
La6 O22 2.780833 1_565
La6 O22 2.780833 1_555
La6 O9 2.782254 1_655
La6 O9 2.782254 1_555
La6 O9 2.782254 1_565
La6 O9 2.782254 1_665
La7 O29 2.755799 1_555
La7 O29 2.755799 1_565
La7 O27 2.782315 1_665
La7 O27 2.782315 1_655
La7 O27 2.782315 1_555
La7 O27 2.782315 1_565
La7 O25 2.798422 1_565
La7 O25 2.798422 1_555
La8 O25 2.771916 1_555
La8 O25 2.771916 1_565
La8 O23 2.782257 1_555
La8 O23 2.782257 1_565
La8 O23 2.782257 1_655
La8 O23 2.782257 1_665
La8 O24 2.785443 1_555
La8 O24 2.785443 1_565
La9 O31 2.647523 1_555
La9 O31 2.647523 1_565
La9 O34 2.784214 1_655
La9 O34 2.784214 1_665
La9 O34 2.784214 1_565
La9 O34 2.784214 1_555
La9 O30 2.884811 1_555
La9 O30 2.884811 1_565
La10 O30 2.720783 1_555
La10 O30 2.720783 1_565
La10 O28 2.782616 1_655
La10 O28 2.782616 1_565
La10 O28 2.782616 1_665
La10 O28 2.782616 1_555
La10 O29 2.827806 1_565
La10 O29 2.827806 1_555
La11 O32 2.548563 1_555
La11 O32 2.548563 1_565
La11 O10 2.787772 1_565
La11 O10 2.787772 1_665
La11 O10 2.787772 1_555
La11 O10 2.787772 1_655
La11 O31 2.977127 1_565
La11 O31 2.977127 1_555
La12 O11 2.470166 1_555
La12 O11 2.470166 1_655
La12 O13 2.478268 1_555
La12 O13 2.478268 1_565
La12 O33 2.806867 1_655
La12 O33 2.806867 1_565
La12 O33 2.806867 1_665
La12 O33 2.806867 1_555
La12 O32 3.164165 1_555
La12 O32 3.164165 1_565
Cu0 O0 1.927161 1_555
Cu0 O13 1.969938 1_456
Cu0 O13 1.969938 1_556
Cu0 O11 1.978694 1_556
Cu0 O11 1.978694 1_546
Cu0 O33 2.037084 1_556
Cu1 O10 1.944159 1_555
Cu1 O31 1.966186 1_455
Cu1 O31 1.966186 1_555
Cu1 F13 1.972667 1_545
Cu1 F13 1.972667 1_555
Cu1 O34 1.982556 1_555
Cu2 O1 1.944026 1_555
Cu2 O0 1.951958 1_555
Cu2 O14 1.963084 1_555
Cu2 O14 1.963084 1_455
Cu2 F0 1.971769 1_555
Cu2 F0 1.971769 1_545
Cu3 O1 1.953425 1_555
Cu3 O2 1.957891 1_555
Cu3 F15 1.963056 1_455
Cu3 F15 1.963056 1_555
Cu3 O12 1.971670 1_545
Cu3 O12 1.971670 1_555
Cu4 O2 1.931094 1_555
Cu4 O15 1.963612 1_455
Cu4 O15 1.963612 1_555
Cu4 F1 1.972281 1_545
Cu4 F1 1.972281 1_555
Cu4 O3 1.991355 1_555
Cu5 O3 1.896430 1_555
Cu5 F2 1.980926 1_555
Cu5 F2 1.980926 1_545
Cu5 O16 1.981165 1_555
Cu5 O16 1.981165 1_455
Cu5 O4 2.023485 1_555
Cu6 O4 1.942293 1_555
Cu6 O17 1.967396 1_555
Cu6 O17 1.967396 1_455
Cu6 F3 1.973187 1_555
Cu6 F3 1.973187 1_545
Cu6 O5 1.991755 1_555
Cu7 O5 1.943226 1_555
Cu7 O18 1.964018 1_555
Cu7 O18 1.964018 1_455
Cu7 O6 1.970423 1_555
Cu7 F4 1.972007 1_555
Cu7 F4 1.972007 1_545
Cu8 O6 1.959025 1_555
Cu8 O19 1.963257 1_455
Cu8 O19 1.963257 1_555
Cu8 O7 1.968690 1_555
Cu8 F5 1.971720 1_545
Cu8 F5 1.971720 1_555
Cu9 O7 1.956958 1_555
Cu9 O8 1.960758 1_555
Cu9 O20 1.963075 1_455
Cu9 O20 1.963075 1_555
Cu9 F6 1.971663 1_555
Cu9 F6 1.971663 1_545
Cu10 O9 1.961224 1_555
Cu10 O8 1.962624 1_555
Cu10 O21 1.963044 1_555
Cu10 O21 1.963044 1_455
Cu10 F7 1.971657 1_555
Cu10 F7 1.971657 1_545
Cu11 O26 1.958891 1_555
Cu11 O9 1.959691 1_555
Cu11 O22 1.963040 1_455
Cu11 O22 1.963040 1_555
Cu11 F8 1.971653 1_555
Cu11 F8 1.971653 1_545
Cu12 O23 1.961091 1_555
Cu12 O26 1.962424 1_555
Cu12 O24 1.963041 1_555
Cu12 O24 1.963041 1_455
Cu12 F9 1.971653 1_545
Cu12 F9 1.971653 1_555
Cu13 O27 1.958158 1_555
Cu13 O23 1.961558 1_555
Cu13 O25 1.963061 1_555
Cu13 O25 1.963061 1_455
Cu13 F10 1.971659 1_545
Cu13 F10 1.971659 1_555
Cu14 O28 1.960024 1_555
Cu14 O29 1.963165 1_555
Cu14 O29 1.963165 1_455
Cu14 O27 1.966024 1_555
Cu14 F11 1.971711 1_555
Cu14 F11 1.971711 1_545
Cu15 O34 1.949959 1_555
Cu15 O30 1.963714 1_455
Cu15 O30 1.963714 1_555
Cu15 O28 1.971223 1_555
Cu15 F12 1.971829 1_545
Cu15 F12 1.971829 1_555
Cu16 O33 1.905429 1_555
Cu16 O32 1.973045 1_555
Cu16 O32 1.973045 1_455
Cu16 F14 1.976991 1_545
Cu16 F14 1.976991 1_555
Cu16 O10 1.988622 1_555
O0 Sr1 2.783005 1_445
O0 Sr1 2.783005 1_455
O0 Sr1 2.783005 1_545
O0 Sr1 2.783005 1_555
O1 Sr0 2.782288 1_455
O1 Sr0 2.782288 1_555
O1 Sr0 2.782288 1_445
O1 Sr0 2.782288 1_545
O2 Sr3 2.782710 1_445
O2 Sr3 2.782710 1_545
O2 Sr3 2.782710 1_555
O2 Sr3 2.782710 1_455
O3 Sr2 2.789864 1_455
O3 Sr2 2.789864 1_555
O3 Sr2 2.789864 1_545
O3 Sr2 2.789864 1_445
O11 Sr1 2.917723 1_454
O11 Sr1 2.917723 1_554
O12 Sr3 2.731363 1_455
O12 Sr3 2.731363 1_555
O12 Sr0 2.765514 1_555
O12 Sr0 2.765514 1_455
O13 Sr1 2.921999 1_554
O13 Sr1 2.921999 1_544
O14 Sr1 2.720186 1_555
O14 Sr1 2.720186 1_545
O14 Sr0 2.787940 1_555
O14 Sr0 2.787940 1_545
O15 Sr2 2.628348 1_555
O15 Sr2 2.628348 1_545
O15 Sr3 2.829097 1_545
O15 Sr3 2.829097 1_555
O16 Sr2 3.082692 1_555
O16 Sr2 3.082692 1_545
F0 Sr1 2.708294 1_455
F0 Sr1 2.708294 1_555
F0 Sr0 2.787671 1_455
F0 Sr0 2.787671 1_555
F1 Sr2 2.620303 1_455
F1 Sr2 2.620303 1_555
F1 Sr3 2.824826 1_455
F1 Sr3 2.824826 1_555
F2 La0 2.560639 1_455
F2 La0 2.560639 1_555
F2 Sr2 3.019109 1_455
F2 Sr2 3.019109 1_555
F3 La2 2.654491 1_455
F3 La2 2.654491 1_555
F3 La0 2.954404 1_455
F3 La0 2.954404 1_555
F4 La1 2.717681 1_555
F4 La1 2.717681 1_455
F4 La2 2.880297 1_455
F4 La2 2.880297 1_555
F5 La4 2.748383 1_555
F5 La4 2.748383 1_455
F5 La1 2.823149 1_555
F5 La1 2.823149 1_455
F6 La3 2.766547 1_455
F6 La3 2.766547 1_555
F6 La4 2.796821 1_455
F6 La4 2.796821 1_555
F7 La6 2.771107 1_555
F7 La6 2.771107 1_455
F7 La3 2.782233 1_455
F7 La3 2.782233 1_555
F8 La6 2.775345 1_455
F8 La6 2.775345 1_555
F8 La5 2.775863 1_555
F8 La5 2.775863 1_455
F9 La5 2.771343 1_455
F9 La5 2.771343 1_555
F9 La8 2.778646 1_555
F9 La8 2.778646 1_455
F10 La8 2.768850 1_455
F10 La8 2.768850 1_555
F10 La7 2.789281 1_455
F10 La7 2.789281 1_555
F11 La7 2.754549 1_455
F11 La7 2.754549 1_555
F11 La10 2.816784 1_555
F11 La10 2.816784 1_455
F12 La10 2.731919 1_555
F12 La10 2.731919 1_455
F12 La9 2.860648 1_555
F12 La9 2.860648 1_455
F13 La9 2.673417 1_555
F13 La9 2.673417 1_455
F13 La11 2.935621 1_555
F13 La11 2.935621 1_455
F14 La11 2.576070 1_555
F14 La11 2.576070 1_455
F14 La12 3.117253 1_555
F14 La12 3.117253 1_455
F15 Sr3 2.737837 1_545
F15 Sr3 2.737837 1_555
F15 Sr0 2.771353 1_545
F15 Sr0 2.771353 1_555
