# generated using pymatgen
data_Ca3(MoN2)2
_symmetry_space_group_name_H-M   'P 1'
_cell_length_a   5.77195700
_cell_length_b   10.28560600
_cell_length_c   9.27574700
_cell_angle_alpha   90.00000000
_cell_angle_beta   90.00000000
_cell_angle_gamma   90.00000000
_symmetry_Int_Tables_number   1
_chemical_formula_structural   Ca3(MoN2)2
_chemical_formula_sum   'Ca12 Mo8 N16'
_cell_volume   550.68324869
_cell_formula_units_Z   4
loop_
 _symmetry_equiv_pos_site_id
 _symmetry_equiv_pos_as_xyz
  1  'x, y, z'
loop_
 _atom_site_type_symbol
 _atom_site_label
 _atom_site_symmetry_multiplicity
 _atom_site_fract_x
 _atom_site_fract_y
 _atom_site_fract_z
 _atom_site_occupancy
  Ca  Ca0  1  0.62014800  0.15703200  0.42085600  1
  Ca  Ca1  1  0.87985200  0.84296800  0.42085600  1
  Ca  Ca2  1  0.62014800  0.34296800  0.07914400  1
  Ca  Ca3  1  0.87985200  0.65703200  0.07914400  1
  Ca  Ca4  1  0.37985200  0.84296800  0.57914400  1
  Ca  Ca5  1  0.12014800  0.15703200  0.57914400  1
  Ca  Ca6  1  0.37985200  0.65703200  0.92085600  1
  Ca  Ca7  1  0.12014800  0.34296800  0.92085600  1
  Ca  Ca8  1  0.75000000  0.50000000  0.39745300  1
  Ca  Ca9  1  0.75000000  0.00000000  0.10254700  1
  Ca  Ca10  1  0.25000000  0.50000000  0.60254700  1
  Ca  Ca11  1  0.25000000  0.00000000  0.89745300  1
  Mo  Mo0  1  0.75000000  0.50000000  0.73438400  1
  Mo  Mo1  1  0.75000000  0.00000000  0.76561600  1
  Mo  Mo2  1  0.25000000  0.50000000  0.26561600  1
  Mo  Mo3  1  0.25000000  0.00000000  0.23438400  1
  Mo  Mo4  1  0.62665300  0.25000000  0.75000000  1
  Mo  Mo5  1  0.87334700  0.75000000  0.75000000  1
  Mo  Mo6  1  0.37334700  0.75000000  0.25000000  1
  Mo  Mo7  1  0.12665300  0.25000000  0.25000000  1
  N  N0  1  0.85405500  0.34589500  0.61704700  1
  N  N1  1  0.64594500  0.65410500  0.61704700  1
  N  N2  1  0.85405500  0.15410500  0.88295300  1
  N  N3  1  0.64594500  0.84589500  0.88295300  1
  N  N4  1  0.14594500  0.65410500  0.38295300  1
  N  N5  1  0.35405500  0.34589500  0.38295300  1
  N  N6  1  0.14594500  0.84589500  0.11704700  1
  N  N7  1  0.35405500  0.15410500  0.11704700  1
  N  N8  1  0.49336700  0.41850200  0.84289500  1
  N  N9  1  0.00663300  0.58149800  0.84289500  1
  N  N10  1  0.49336700  0.08149800  0.65710500  1
  N  N11  1  0.00663300  0.91850200  0.65710500  1
  N  N12  1  0.50663300  0.58149800  0.15710500  1
  N  N13  1  0.99336700  0.41850200  0.15710500  1
  N  N14  1  0.50663300  0.91850200  0.34289500  1
  N  N15  1  0.99336700  0.08149800  0.34289500  1
loop_
_geom_bond_atom_site_label_1
_geom_bond_atom_site_label_2
_geom_bond_distance
_geom_bond_site_symmetry_2
Ca0 N15 2.401485 1_555
Ca0 N10 2.437470 1_555
Ca0 N5 2.501221 1_555
Ca0 N14 2.640365 1_545
Ca0 N0 2.984642 1_555
Ca1 N14 2.401485 1_555
Ca1 N11 2.437470 1_655
Ca1 N4 2.501221 1_655
Ca1 N15 2.640365 1_565
Ca1 N1 2.984642 1_555
Ca2 N13 2.401485 1_555
Ca2 N8 2.437470 1_554
Ca2 N7 2.501221 1_555
Ca2 N12 2.640365 1_555
Ca2 N2 2.984642 1_554
Ca3 N12 2.401485 1_555
Ca3 N9 2.437470 1_654
Ca3 N6 2.501221 1_655
Ca3 N13 2.640365 1_555
Ca3 N3 2.984642 1_554
Ca4 N11 2.401485 1_555
Ca4 N14 2.437470 1_555
Ca4 N1 2.501221 1_555
Ca4 N10 2.640365 1_565
Ca4 N4 2.984642 1_555
Ca5 N10 2.401485 1_555
Ca5 N15 2.437470 1_455
Ca5 N0 2.501221 1_455
Ca5 N11 2.640365 1_545
Ca5 N5 2.984642 1_555
Ca6 N9 2.401485 1_555
Ca6 N12 2.437470 1_556
Ca6 N3 2.501221 1_555
Ca6 N8 2.640365 1_555
Ca6 N6 2.984642 1_556
Ca7 N8 2.401485 1_555
Ca7 N13 2.437470 1_456
Ca7 N2 2.501221 1_455
Ca7 N9 2.640365 1_555
Ca7 N7 2.984642 1_556
Ca8 N0 2.649925 1_555
Ca8 N1 2.649925 1_555
Ca8 N12 2.765162 1_555
Ca8 N13 2.765162 1_555
Ca8 N5 2.784505 1_555
Ca8 N4 2.784505 1_655
Ca9 N2 2.649925 1_554
Ca9 N3 2.649925 1_544
Ca9 N14 2.765162 1_545
Ca9 N15 2.765162 1_555
Ca9 N7 2.784505 1_555
Ca9 N6 2.784505 1_645
Ca10 N5 2.649925 1_555
Ca10 N4 2.649925 1_555
Ca10 N8 2.765162 1_555
Ca10 N9 2.765162 1_555
Ca10 N0 2.784505 1_455
Ca10 N1 2.784505 1_555
Ca11 N6 2.649925 1_546
Ca11 N7 2.649925 1_556
Ca11 N10 2.765162 1_555
Ca11 N11 2.765162 1_545
Ca11 N2 2.784505 1_455
Ca11 N3 2.784505 1_545
Mo0 N9 1.977355 1_655
Mo0 N8 1.977355 1_555
Mo0 N0 2.014382 1_555
Mo0 N1 2.014382 1_555
Mo1 N11 1.977355 1_645
Mo1 N10 1.977355 1_555
Mo1 N2 2.014382 1_555
Mo1 N3 2.014382 1_545
Mo2 N12 1.977355 1_555
Mo2 N13 1.977355 1_455
Mo2 N5 2.014382 1_555
Mo2 N4 2.014382 1_555
Mo3 N14 1.977355 1_545
Mo3 N15 1.977355 1_455
Mo3 N7 2.014382 1_555
Mo3 N6 2.014382 1_545
Mo4 N2 2.053421 1_555
Mo4 N0 2.053421 1_555
Mo4 N10 2.082816 1_555
Mo4 N8 2.082816 1_555
Mo5 N3 2.053421 1_555
Mo5 N1 2.053421 1_555
Mo5 N11 2.082816 1_655
Mo5 N9 2.082816 1_655
Mo6 N4 2.053421 1_555
Mo6 N6 2.053421 1_555
Mo6 N12 2.082816 1_555
Mo6 N14 2.082816 1_555
Mo7 N7 2.053421 1_555
Mo7 N5 2.053421 1_555
Mo7 N15 2.082816 1_455
Mo7 N13 2.082816 1_455
