# generated using pymatgen
data_LaSe2
_symmetry_space_group_name_H-M   'P 1'
_cell_length_a   4.22501545
_cell_length_b   4.22501545
_cell_length_c   8.69487244
_cell_angle_alpha   90.00000000
_cell_angle_beta   90.00000000
_cell_angle_gamma   90.00000000
_symmetry_Int_Tables_number   1
_chemical_formula_structural   LaSe2
_chemical_formula_sum   'La2 Se4'
_cell_volume   155.21004249
_cell_formula_units_Z   2
loop_
 _symmetry_equiv_pos_site_id
 _symmetry_equiv_pos_as_xyz
  1  'x, y, z'
loop_
 _atom_site_type_symbol
 _atom_site_label
 _atom_site_symmetry_multiplicity
 _atom_site_fract_x
 _atom_site_fract_y
 _atom_site_fract_z
 _atom_site_occupancy
  La  La0  1  0.75000000  0.75000000  0.72471063  1
  La  La1  1  0.25000000  0.25000000  0.27528937  1
  Se  Se0  1  0.75000000  0.75000000  0.36563770  1
  Se  Se1  1  0.25000000  0.25000000  0.63436230  1
  Se  Se2  1  0.75000000  0.25000000  0.00000000  1
  Se  Se3  1  0.25000000  0.75000000  0.00000000  1
loop_
_geom_bond_atom_site_label_1
_geom_bond_atom_site_label_2
_geom_bond_distance
_geom_bond_site_symmetry_2
La0 Se1 3.089093 1_665
La0 Se1 3.089093 1_565
La0 Se1 3.089093 1_555
La0 Se1 3.089093 1_655
La0 Se0 3.122093 1_555
La0 Se2 3.192497 1_556
La0 Se3 3.192497 1_656
La0 Se2 3.192497 1_566
La0 Se3 3.192497 1_556
La1 Se0 3.089093 1_445
La1 Se0 3.089093 1_455
La1 Se0 3.089093 1_545
La1 Se0 3.089093 1_555
La1 Se1 3.122093 1_555
La1 Se2 3.192497 1_555
La1 Se3 3.192497 1_555
La1 Se3 3.192497 1_545
La1 Se2 3.192497 1_455
Se2 Se3 2.987537 1_645
Se2 Se3 2.987537 1_555
Se2 Se3 2.987537 1_655
Se2 Se3 2.987537 1_545
