# generated using pymatgen
data_Cs3Y2(H2N)9
_symmetry_space_group_name_H-M   'P 1'
_cell_length_a   9.71005986
_cell_length_b   9.71005986
_cell_length_c   9.71005996
_cell_angle_alpha   82.86421014
_cell_angle_beta   82.86421014
_cell_angle_gamma   82.86420878
_symmetry_Int_Tables_number   1
_chemical_formula_structural   Cs3Y2(H2N)9
_chemical_formula_sum   'Cs6 Y4 H36 N18'
_cell_volume   895.86875659
_cell_formula_units_Z   2
loop_
 _symmetry_equiv_pos_site_id
 _symmetry_equiv_pos_as_xyz
  1  'x, y, z'
loop_
 _atom_site_type_symbol
 _atom_site_label
 _atom_site_symmetry_multiplicity
 _atom_site_fract_x
 _atom_site_fract_y
 _atom_site_fract_z
 _atom_site_occupancy
  Cs  Cs0  1  0.63129500  0.86870500  0.25000000  1
  Cs  Cs1  1  0.86870500  0.25000000  0.63129500  1
  Cs  Cs2  1  0.25000000  0.63129500  0.86870500  1
  Cs  Cs3  1  0.13129500  0.75000000  0.36870500  1
  Cs  Cs4  1  0.75000000  0.36870500  0.13129500  1
  Cs  Cs5  1  0.36870500  0.13129500  0.75000000  1
  Y  Y0  1  0.34379300  0.34379300  0.34379300  1
  Y  Y1  1  0.84379300  0.84379300  0.84379300  1
  Y  Y2  1  0.65620700  0.65620700  0.65620700  1
  Y  Y3  1  0.15620700  0.15620700  0.15620700  1
  H  H0  1  0.03755800  0.40556500  0.32910500  1
  H  H1  1  0.40556500  0.32910500  0.03755800  1
  H  H2  1  0.32910500  0.03755800  0.40556500  1
  H  H3  1  0.53755800  0.82910500  0.90556500  1
  H  H4  1  0.82910500  0.90556500  0.53755800  1
  H  H5  1  0.90556500  0.53755800  0.82910500  1
  H  H6  1  0.96244200  0.59443500  0.67089500  1
  H  H7  1  0.59443500  0.67089500  0.96244200  1
  H  H8  1  0.67089500  0.96244200  0.59443500  1
  H  H9  1  0.46244200  0.17089500  0.09443500  1
  H  H10  1  0.17089500  0.09443500  0.46244200  1
  H  H11  1  0.09443500  0.46244200  0.17089500  1
  H  H12  1  0.91146600  0.65879700  0.12428500  1
  H  H13  1  0.65879700  0.12428500  0.91146600  1
  H  H14  1  0.12428500  0.91146600  0.65879700  1
  H  H15  1  0.41146600  0.62428500  0.15879700  1
  H  H16  1  0.62428500  0.15879700  0.41146600  1
  H  H17  1  0.15879700  0.41146600  0.62428500  1
  H  H18  1  0.08853400  0.34120300  0.87571500  1
  H  H19  1  0.34120300  0.87571500  0.08853400  1
  H  H20  1  0.87571500  0.08853400  0.34120300  1
  H  H21  1  0.58853400  0.37571500  0.84120300  1
  H  H22  1  0.37571500  0.84120300  0.58853400  1
  H  H23  1  0.84120300  0.58853400  0.37571500  1
  H  H24  1  0.92311800  0.98797400  0.21669000  1
  H  H25  1  0.98797400  0.21669000  0.92311800  1
  H  H26  1  0.21669000  0.92311800  0.98797400  1
  H  H27  1  0.42311800  0.71669000  0.48797400  1
  H  H28  1  0.71669000  0.48797400  0.42311800  1
  H  H29  1  0.48797400  0.42311800  0.71669000  1
  H  H30  1  0.07688200  0.01202600  0.78331000  1
  H  H31  1  0.01202600  0.78331000  0.07688200  1
  H  H32  1  0.78331000  0.07688200  0.01202600  1
  H  H33  1  0.57688200  0.28331000  0.51202600  1
  H  H34  1  0.28331000  0.51202600  0.57688200  1
  H  H35  1  0.51202600  0.57688200  0.28331000  1
  N  N0  1  0.11460900  0.38539100  0.25000000  1
  N  N1  1  0.38539100  0.25000000  0.11460900  1
  N  N2  1  0.25000000  0.11460900  0.38539100  1
  N  N3  1  0.61460900  0.75000000  0.88539100  1
  N  N4  1  0.75000000  0.88539100  0.61460900  1
  N  N5  1  0.88539100  0.61460900  0.75000000  1
  N  N6  1  0.92075900  0.74923900  0.05850900  1
  N  N7  1  0.74923900  0.05850900  0.92075900  1
  N  N8  1  0.05850900  0.92075900  0.74923900  1
  N  N9  1  0.42075900  0.55850900  0.24923900  1
  N  N10  1  0.55850900  0.24923900  0.42075900  1
  N  N11  1  0.24923900  0.42075900  0.55850900  1
  N  N12  1  0.07924100  0.25076100  0.94149100  1
  N  N13  1  0.25076100  0.94149100  0.07924100  1
  N  N14  1  0.94149100  0.07924100  0.25076100  1
  N  N15  1  0.57924100  0.44149100  0.75076100  1
  N  N16  1  0.44149100  0.75076100  0.57924100  1
  N  N17  1  0.75076100  0.57924100  0.44149100  1
loop_
_geom_bond_atom_site_label_1
_geom_bond_atom_site_label_2
_geom_bond_distance
_geom_bond_site_symmetry_2
Cs0 H35 3.157493 1_555
Cs0 H24 3.157493 1_555
Cs0 H27 3.215254 1_555
Cs0 H32 3.215254 1_565
Cs0 N17 3.336241 1_555
Cs0 N6 3.336241 1_555
Cs0 H19 3.379385 1_555
Cs0 H16 3.379385 1_565
Cs0 H23 3.385400 1_555
Cs0 H12 3.385400 1_555
Cs0 H2 3.449468 1_565
Cs0 H9 3.449468 1_565
Cs1 H33 3.157493 1_555
Cs1 H25 3.157493 1_555
Cs1 H30 3.215254 1_655
Cs1 H28 3.215254 1_555
Cs1 N15 3.336241 1_555
Cs1 N7 3.336241 1_555
Cs1 H20 3.379385 1_555
Cs1 H17 3.379386 1_655
Cs1 H21 3.385400 1_555
Cs1 H13 3.385400 1_555
Cs1 H10 3.449468 1_655
Cs1 H0 3.449468 1_655
Cs2 H26 3.157493 1_555
Cs2 H34 3.157493 1_555
Cs2 H29 3.215254 1_555
Cs2 H31 3.215254 1_556
Cs2 N8 3.336241 1_555
Cs2 N16 3.336241 1_555
Cs2 H15 3.379385 1_556
Cs2 H18 3.379386 1_555
Cs2 H14 3.385400 1_555
Cs2 H22 3.385400 1_555
Cs2 H1 3.449468 1_556
Cs2 H11 3.449468 1_556
Cs3 H27 3.157493 1_555
Cs3 H31 3.157493 1_555
Cs3 H24 3.215254 1_455
Cs3 H34 3.215254 1_555
Cs3 N9 3.336241 1_555
Cs3 N13 3.336241 1_555
Cs3 H14 3.379385 1_555
Cs3 H23 3.379386 1_455
Cs3 H15 3.385400 1_555
Cs3 H19 3.385400 1_555
Cs3 H4 3.449468 1_455
Cs3 H6 3.449468 1_455
Cs4 H32 3.157493 1_555
Cs4 H28 3.157493 1_555
Cs4 H35 3.215254 1_555
Cs4 H25 3.215254 1_554
Cs4 N14 3.336241 1_555
Cs4 N10 3.336241 1_555
Cs4 H21 3.379385 1_554
Cs4 H12 3.379386 1_555
Cs4 H20 3.385400 1_555
Cs4 H16 3.385400 1_555
Cs4 H7 3.449468 1_554
Cs4 H5 3.449468 1_554
Cs5 H29 3.157493 1_555
Cs5 H30 3.157493 1_555
Cs5 H26 3.215254 1_545
Cs5 H33 3.215254 1_555
Cs5 N11 3.336241 1_555
Cs5 N12 3.336241 1_555
Cs5 H13 3.379385 1_555
Cs5 H22 3.379385 1_545
Cs5 H18 3.385400 1_555
Cs5 H17 3.385400 1_555
Cs5 H3 3.449468 1_545
Cs5 H8 3.449468 1_545
H0 N0 1.022901 1_555
H1 N1 1.022901 1_555
H2 N2 1.022901 1_555
H3 N3 1.022901 1_555
H4 N4 1.022901 1_555
H5 N5 1.022901 1_555
H6 N5 1.022901 1_555
H7 N3 1.022901 1_555
H8 N4 1.022901 1_555
H9 N1 1.022901 1_555
H10 N2 1.022901 1_555
H11 N0 1.022901 1_555
H12 N6 1.026312 1_555
H13 N7 1.026312 1_555
H14 N8 1.026312 1_555
H15 N9 1.026312 1_555
H16 N10 1.026312 1_555
H17 N11 1.026312 1_555
H18 N12 1.026312 1_555
H19 N13 1.026312 1_555
H20 N14 1.026312 1_555
H21 N15 1.026312 1_555
H22 N16 1.026312 1_555
H23 N17 1.026312 1_555
H24 N14 1.026365 1_565
H25 N12 1.026365 1_655
H26 N13 1.026365 1_556
H27 N16 1.026365 1_555
H28 N17 1.026365 1_555
H29 N15 1.026365 1_555
H30 N8 1.026365 1_545
H31 N6 1.026365 1_455
H32 N7 1.026365 1_554
H33 N10 1.026365 1_555
H34 N11 1.026365 1_555
H35 N9 1.026365 1_555
N0 Y0 2.476645 1_555
N0 Y3 2.476645 1_555
N1 Y0 2.476645 1_555
N1 Y3 2.476645 1_555
N2 Y0 2.476645 1_555
N2 Y3 2.476645 1_555
N3 Y2 2.476645 1_555
N3 Y1 2.476645 1_555
N4 Y2 2.476645 1_555
N4 Y1 2.476645 1_555
N5 Y2 2.476645 1_555
N5 Y1 2.476645 1_555
N6 Y1 2.342942 1_554
N7 Y1 2.342942 1_545
N8 Y1 2.342942 1_455
N9 Y0 2.342942 1_555
N10 Y0 2.342942 1_555
N11 Y0 2.342942 1_555
N12 Y3 2.342942 1_556
N13 Y3 2.342942 1_565
N14 Y3 2.342942 1_655
N15 Y2 2.342942 1_555
N16 Y2 2.342942 1_555
N17 Y2 2.342942 1_555
