# generated using pymatgen
data_NaSr3TaO6
_symmetry_space_group_name_H-M   'P 1'
_cell_length_a   6.91430278
_cell_length_b   6.91430278
_cell_length_c   6.91430316
_cell_angle_alpha   91.24678399
_cell_angle_beta   91.24678399
_cell_angle_gamma   91.24678179
_symmetry_Int_Tables_number   1
_chemical_formula_structural   NaSr3TaO6
_chemical_formula_sum   'Na2 Sr6 Ta2 O12'
_cell_volume   330.31788128
_cell_formula_units_Z   2
loop_
 _symmetry_equiv_pos_site_id
 _symmetry_equiv_pos_as_xyz
  1  'x, y, z'
loop_
 _atom_site_type_symbol
 _atom_site_label
 _atom_site_symmetry_multiplicity
 _atom_site_fract_x
 _atom_site_fract_y
 _atom_site_fract_z
 _atom_site_occupancy
  Na  Na0  1  0.25000000  0.25000000  0.25000000  1
  Na  Na1  1  0.75000000  0.75000000  0.75000000  1
  Sr  Sr0  1  0.90064000  0.59936000  0.25000000  1
  Sr  Sr1  1  0.25000000  0.90064000  0.59936000  1
  Sr  Sr2  1  0.59936000  0.25000000  0.90064000  1
  Sr  Sr3  1  0.09936000  0.40064000  0.75000000  1
  Sr  Sr4  1  0.75000000  0.09936000  0.40064000  1
  Sr  Sr5  1  0.40064000  0.75000000  0.09936000  1
  Ta  Ta0  1  0.50000000  0.50000000  0.50000000  1
  Ta  Ta1  1  0.00000000  0.00000000  0.00000000  1
  O  O0  1  0.42802700  0.22123200  0.55349700  1
  O  O1  1  0.55349700  0.42802700  0.22123200  1
  O  O2  1  0.22123200  0.55349700  0.42802700  1
  O  O3  1  0.07197300  0.94650300  0.27876800  1
  O  O4  1  0.27876800  0.07197300  0.94650300  1
  O  O5  1  0.94650300  0.27876800  0.07197300  1
  O  O6  1  0.57197300  0.77876800  0.44650300  1
  O  O7  1  0.44650300  0.57197300  0.77876800  1
  O  O8  1  0.77876800  0.44650300  0.57197300  1
  O  O9  1  0.92802700  0.05349700  0.72123200  1
  O  O10  1  0.05349700  0.72123200  0.92802700  1
  O  O11  1  0.72123200  0.92802700  0.05349700  1
loop_
_geom_bond_atom_site_label_1
_geom_bond_atom_site_label_2
_geom_bond_distance
_geom_bond_site_symmetry_2
Na0 O5 2.423788 1_455
Na0 O2 2.423788 1_555
Na0 O1 2.423788 1_555
Na0 O3 2.423788 1_545
Na0 O0 2.423788 1_555
Na0 O4 2.423788 1_554
Na1 O10 2.423788 1_655
Na1 O8 2.423788 1_555
Na1 O9 2.423788 1_565
Na1 O7 2.423788 1_555
Na1 O11 2.423788 1_556
Na1 O6 2.423788 1_555
O0 Ta0 2.024097 1_555
O0 Sr1 2.541302 1_545
O0 Sr4 2.632192 1_555
O0 Sr2 2.655070 1_555
O0 Sr3 2.955127 1_555
O1 Ta0 2.024097 1_555
O1 Sr2 2.541302 1_554
O1 Sr5 2.632192 1_555
O1 Sr0 2.655070 1_555
O1 Sr4 2.955127 1_555
O2 Ta0 2.024097 1_555
O2 Sr0 2.541302 1_455
O2 Sr3 2.632192 1_555
O2 Sr1 2.655070 1_555
O2 Sr5 2.955127 1_555
O3 Ta1 2.024097 1_565
O3 Sr1 2.541302 1_555
O3 Sr4 2.632192 1_465
O3 Sr0 2.655070 1_455
O3 Sr5 2.955127 1_555
O4 Ta1 2.024097 1_556
O4 Sr2 2.541302 1_555
O4 Sr5 2.632192 1_546
O4 Sr1 2.655070 1_545
O4 Sr3 2.955127 1_555
O5 Ta1 2.024097 1_655
O5 Sr0 2.541302 1_555
O5 Sr3 2.632192 1_654
O5 Sr2 2.655070 1_554
O5 Sr4 2.955127 1_555
O6 Ta0 2.024097 1_555
O6 Sr4 2.541302 1_565
O6 Sr1 2.632192 1_555
O6 Sr5 2.655070 1_555
O6 Sr0 2.955127 1_555
O7 Ta0 2.024097 1_555
O7 Sr5 2.541302 1_556
O7 Sr2 2.632192 1_555
O7 Sr3 2.655070 1_555
O7 Sr1 2.955127 1_555
O8 Ta0 2.024097 1_555
O8 Sr3 2.541302 1_655
O8 Sr0 2.632192 1_555
O8 Sr4 2.655070 1_555
O8 Sr2 2.955127 1_555
O9 Ta1 2.024097 1_656
O9 Sr4 2.541302 1_555
O9 Sr1 2.632192 1_645
O9 Sr3 2.655070 1_655
O9 Sr2 2.955127 1_555
O10 Ta1 2.024097 1_566
O10 Sr3 2.541302 1_555
O10 Sr0 2.632192 1_456
O10 Sr5 2.655070 1_556
O10 Sr1 2.955127 1_555
O11 Ta1 2.024097 1_665
O11 Sr5 2.541302 1_555
O11 Sr2 2.632192 1_564
O11 Sr4 2.655070 1_565
O11 Sr0 2.955127 1_555
