# generated using pymatgen
data_Sr3Nd4O9
_symmetry_space_group_name_H-M   'P 1'
_cell_length_a   6.88516595
_cell_length_b   6.88516595
_cell_length_c   13.26985300
_cell_angle_alpha   68.38414496
_cell_angle_beta   68.38414496
_cell_angle_gamma   63.34428672
_symmetry_Int_Tables_number   1
_chemical_formula_structural   Sr3Nd4O9
_chemical_formula_sum   'Sr6 Nd8 O18'
_cell_volume   506.81049953
_cell_formula_units_Z   2
loop_
 _symmetry_equiv_pos_site_id
 _symmetry_equiv_pos_as_xyz
  1  'x, y, z'
loop_
 _atom_site_type_symbol
 _atom_site_label
 _atom_site_symmetry_multiplicity
 _atom_site_fract_x
 _atom_site_fract_y
 _atom_site_fract_z
 _atom_site_occupancy
  Sr  Sr0  1  0.63313800  0.35655000  0.38139000  1
  Sr  Sr1  1  0.35655000  0.63313800  0.88139000  1
  Sr  Sr2  1  0.03827500  0.15433900  0.72671000  1
  Sr  Sr3  1  0.15433900  0.03827500  0.22671000  1
  Sr  Sr4  1  0.16018500  0.83439200  0.50043500  1
  Sr  Sr5  1  0.83439200  0.16018500  0.00043500  1
  Nd  Nd0  1  0.58863500  0.85379200  0.58559100  1
  Nd  Nd1  1  0.85379200  0.58863500  0.08559100  1
  Nd  Nd2  1  0.91164100  0.66939600  0.79130400  1
  Nd  Nd3  1  0.66939600  0.91164100  0.29130400  1
  Nd  Nd4  1  0.03876200  0.43789800  0.44936900  1
  Nd  Nd5  1  0.43789800  0.03876200  0.94936900  1
  Nd  Nd6  1  0.32912100  0.50641000  0.16837800  1
  Nd  Nd7  1  0.50641000  0.32912100  0.66837800  1
  O  O0  1  0.94184500  0.83746900  0.90661800  1
  O  O1  1  0.83746900  0.94184500  0.40661800  1
  O  O2  1  0.13535500  0.29767600  0.84848100  1
  O  O3  1  0.29767600  0.13535500  0.34848100  1
  O  O4  1  0.16281400  0.88382400  0.07913300  1
  O  O5  1  0.88382400  0.16281400  0.57913300  1
  O  O6  1  0.36249600  0.23800900  0.55780900  1
  O  O7  1  0.23800900  0.36249600  0.05780900  1
  O  O8  1  0.62103100  0.29161800  0.82425800  1
  O  O9  1  0.29161800  0.62103100  0.32425800  1
  O  O10  1  0.54207200  0.92802000  0.76581100  1
  O  O11  1  0.92802000  0.54207200  0.26581100  1
  O  O12  1  0.63011600  0.60002900  0.97999900  1
  O  O13  1  0.60002900  0.63011600  0.47999900  1
  O  O14  1  0.92764000  0.59192300  0.62321900  1
  O  O15  1  0.59192300  0.92764000  0.12321900  1
  O  O16  1  0.27246200  0.72366800  0.68849600  1
  O  O17  1  0.72366800  0.27246200  0.18849600  1
loop_
_geom_bond_atom_site_label_1
_geom_bond_atom_site_label_2
_geom_bond_distance
_geom_bond_site_symmetry_2
Nd0 O14 2.316801 1_555
Nd0 O6 2.359443 1_565
Nd0 O13 2.396185 1_555
Nd0 O1 2.411745 1_555
Nd0 O16 2.462668 1_555
Nd0 O10 2.504360 1_555
Nd1 O15 2.316801 1_555
Nd1 O7 2.359443 1_655
Nd1 O12 2.396185 1_554
Nd1 O0 2.411745 1_554
Nd1 O17 2.462668 1_555
Nd1 O11 2.504360 1_555
Nd2 O2 2.322004 1_655
Nd2 O0 2.340707 1_555
Nd2 O10 2.425871 1_555
Nd2 O14 2.431967 1_555
Nd2 O16 2.476471 1_655
Nd2 O12 2.574631 1_555
Nd3 O3 2.322004 1_565
Nd3 O1 2.340707 1_555
Nd3 O11 2.425871 1_555
Nd3 O15 2.431967 1_555
Nd3 O17 2.476471 1_565
Nd3 O13 2.574631 1_555
Nd4 O9 2.382206 1_555
Nd4 O5 2.397287 1_455
Nd4 O3 2.504747 1_555
Nd4 O11 2.572808 1_455
Nd4 O14 2.608861 1_455
Nd4 O13 2.635586 1_455
Nd4 O6 2.661693 1_555
Nd4 O1 3.015978 1_455
Nd5 O8 2.382206 1_555
Nd5 O4 2.397287 1_546
Nd5 O2 2.504747 1_555
Nd5 O10 2.572808 1_545
Nd5 O15 2.608861 1_546
Nd5 O12 2.635586 1_545
Nd5 O7 2.661693 1_556
Nd5 O0 3.015978 1_545
Nd6 O4 2.351201 1_555
Nd6 O9 2.365281 1_555
Nd6 O7 2.415604 1_555
Nd6 O17 2.517282 1_555
Nd6 O11 2.520599 1_455
Nd6 O12 2.674652 1_554
Nd6 O3 2.811072 1_555
Nd7 O5 2.351201 1_555
Nd7 O8 2.365281 1_555
Nd7 O6 2.415604 1_555
Nd7 O16 2.517282 1_555
Nd7 O10 2.520599 1_545
Nd7 O13 2.674652 1_555
Nd7 O2 2.811072 1_555
O0 Sr1 2.506506 1_655
O0 Sr5 2.630354 1_566
O0 Sr2 2.682264 1_665
O1 Sr0 2.506506 1_565
O1 Sr4 2.630354 1_655
O1 Sr3 2.682264 1_665
O2 Sr5 2.555628 1_456
O2 Sr2 2.567955 1_555
O3 Sr4 2.555628 1_545
O3 Sr3 2.567955 1_555
O4 Sr5 2.497920 1_465
O4 Sr3 2.522650 1_565
O5 Sr4 2.497920 1_645
O5 Sr2 2.522650 1_655
O6 Sr0 2.522268 1_555
O6 Sr2 2.618176 1_555
O7 Sr1 2.522268 1_554
O7 Sr3 2.618176 1_555
O8 Sr1 2.423688 1_555
O8 Sr2 2.558752 1_655
O8 Sr5 2.867276 1_556
O9 Sr0 2.423688 1_555
O9 Sr3 2.558752 1_565
O9 Sr4 2.867276 1_555
O10 Sr1 2.587551 1_555
O11 Sr0 2.587551 1_555
O12 Sr1 2.553979 1_555
O12 Sr5 2.660284 1_556
O13 Sr0 2.553979 1_555
O13 Sr4 2.660284 1_555
O14 Sr4 2.545104 1_655
O14 Sr2 2.684501 1_655
O15 Sr5 2.545104 1_565
O15 Sr3 2.684501 1_565
O16 Sr1 2.620727 1_555
O16 Sr4 2.626288 1_555
O16 Sr2 2.804487 1_565
O17 Sr0 2.620727 1_555
O17 Sr5 2.626288 1_555
O17 Sr3 2.804487 1_655
