# generated using pymatgen
data_Zr3FeF6
_symmetry_space_group_name_H-M   'P 1'
_cell_length_a   6.39251041
_cell_length_b   6.69666636
_cell_length_c   12.69909310
_cell_angle_alpha   91.87185069
_cell_angle_beta   86.58641338
_cell_angle_gamma   118.41266981
_symmetry_Int_Tables_number   1
_chemical_formula_structural   Zr3FeF6
_chemical_formula_sum   'Zr3 Fe1 F6'
_cell_volume   477.29133626
_cell_formula_units_Z   1
loop_
 _symmetry_equiv_pos_site_id
 _symmetry_equiv_pos_as_xyz
  1  'x, y, z'
loop_
 _atom_site_type_symbol
 _atom_site_label
 _atom_site_symmetry_multiplicity
 _atom_site_fract_x
 _atom_site_fract_y
 _atom_site_fract_z
 _atom_site_occupancy
  Zr  Zr0  1  0.00000000  0.00000000  0.50000000  1
  Zr  Zr1  1  0.50000000  0.50000000  0.00000000  1
  Zr  Zr2  1  0.00000000  0.50000000  0.00000000  1
  Fe  Fe0  1  0.00000000  0.00000000  0.00000000  1
  F  F0  1  0.91053300  0.21867200  0.90938000  1
  F  F1  1  0.08946700  0.78132800  0.09062000  1
  F  F2  1  0.92527000  0.99655600  0.65233500  1
  F  F3  1  0.07473000  0.00344400  0.34766500  1
  F  F4  1  0.69092600  0.78591100  0.91298800  1
  F  F5  1  0.30907400  0.21408900  0.08701200  1
loop_
_geom_bond_atom_site_label_1
_geom_bond_atom_site_label_2
_geom_bond_distance
_geom_bond_site_symmetry_2
F0 Zr2 2.027831 1_656
F0 Fe0 2.186611 1_656
F1 Zr2 2.027831 1_555
F1 Fe0 2.186611 1_565
F2 Zr0 1.963026 1_665
F3 Zr0 1.963026 1_555
F4 Zr1 2.032305 1_556
F4 Fe0 2.154277 1_666
F5 Zr1 2.032305 1_555
F5 Fe0 2.154277 1_555
