# generated using pymatgen
data_YbGaCoO4
_symmetry_space_group_name_H-M   'P 1'
_cell_length_a   8.58504606
_cell_length_b   8.58504606
_cell_length_c   8.58504602
_cell_angle_alpha   22.79447561
_cell_angle_beta   22.79447561
_cell_angle_gamma   22.79447526
_symmetry_Int_Tables_number   1
_chemical_formula_structural   YbGaCoO4
_chemical_formula_sum   'Yb1 Ga1 Co1 O4'
_cell_volume   83.33466177
_cell_formula_units_Z   1
loop_
 _symmetry_equiv_pos_site_id
 _symmetry_equiv_pos_as_xyz
  1  'x, y, z'
loop_
 _atom_site_type_symbol
 _atom_site_label
 _atom_site_symmetry_multiplicity
 _atom_site_fract_x
 _atom_site_fract_y
 _atom_site_fract_z
 _atom_site_occupancy
  Yb  Yb0  1  0.00176860  0.00176860  0.00176860  1
  Ga  Ga0  1  0.78681058  0.78681058  0.78681058  1
  Co  Co0  1  0.21610375  0.21610375  0.21610375  1
  O  O0  1  0.71060360  0.71060360  0.71060360  1
  O  O1  1  0.29434450  0.29434450  0.29434450  1
  O  O2  1  0.86373881  0.86373881  0.86373881  1
  O  O3  1  0.12182916  0.12182916  0.12182916  1
loop_
_geom_bond_atom_site_label_1
_geom_bond_atom_site_label_2
_geom_bond_distance
_geom_bond_site_symmetry_2
Ga0 O0 1.910943 1_555
Ga0 O2 1.929028 1_555
Ga0 O3 1.959396 1_566
Ga0 O3 1.959396 1_656
Ga0 O3 1.959396 1_665
Co0 O1 1.961941 1_555
Co0 O2 2.016233 1_454
Co0 O2 2.016233 1_544
Co0 O2 2.016233 1_445
Co0 O3 2.364000 1_555
O0 Yb0 2.226104 1_566
O0 Yb0 2.226104 1_656
O0 Yb0 2.226104 1_665
O1 Yb0 2.209518 1_565
O1 Yb0 2.209518 1_655
O1 Yb0 2.209518 1_556
