# generated using pymatgen
data_Sm3Ni7B2
_symmetry_space_group_name_H-M   'P 1'
_cell_length_a   5.24079467
_cell_length_b   5.24629222
_cell_length_c   7.19346100
_cell_angle_alpha   90.00000000
_cell_angle_beta   90.00000000
_cell_angle_gamma   119.89072462
_symmetry_Int_Tables_number   1
_chemical_formula_structural   Sm3Ni7B2
_chemical_formula_sum   'Sm3 Ni7 B2'
_cell_volume   171.47282771
_cell_formula_units_Z   1
loop_
 _symmetry_equiv_pos_site_id
 _symmetry_equiv_pos_as_xyz
  1  'x, y, z'
loop_
 _atom_site_type_symbol
 _atom_site_label
 _atom_site_symmetry_multiplicity
 _atom_site_fract_x
 _atom_site_fract_y
 _atom_site_fract_z
 _atom_site_occupancy
  Sm  Sm0  1  0.00015600  0.00017100  0.00000000  1
  Sm  Sm1  1  0.99995800  0.99998500  0.50000000  1
  Sm  Sm2  1  0.33339500  0.66636300  0.00000000  1
  Ni  Ni0  1  0.50472700  0.00955200  0.31104300  1
  Ni  Ni1  1  0.50470600  0.49528700  0.31089100  1
  Ni  Ni2  1  0.99044800  0.49526300  0.31104500  1
  Ni  Ni3  1  0.50472700  0.00955200  0.68895700  1
  Ni  Ni4  1  0.50470600  0.49528700  0.68910900  1
  Ni  Ni5  1  0.99044800  0.49526300  0.68895500  1
  Ni  Ni6  1  0.66659800  0.33326200  0.00000000  1
  B  B0  1  0.33332100  0.66676800  0.50000000  1
  B  B1  1  0.66661000  0.33324700  0.50000000  1
loop_
_geom_bond_atom_site_label_1
_geom_bond_atom_site_label_2
_geom_bond_distance
_geom_bond_site_symmetry_2
Sm0 Sm2 3.027422 1_545
Sm0 Sm2 3.029545 1_445
Sm0 Sm2 3.030123 1_555
Ni0 Ni6 2.678464 1_555
Ni0 Sm2 2.728171 1_545
Ni0 Sm1 2.952262 1_445
Ni0 Sm1 2.952296 1_545
Ni1 Ni6 2.676309 1_555
Ni1 Sm2 2.723256 1_555
Ni1 Sm1 2.957766 1_555
Ni1 Sm1 2.957907 1_445
Ni2 Ni6 2.677980 1_555
Ni2 Sm2 2.726619 1_655
Ni2 Sm1 2.954650 1_555
Ni2 Sm1 2.954765 1_545
Ni3 Ni6 2.678464 1_556
Ni3 Sm2 2.728171 1_546
Ni3 Sm1 2.952262 1_445
Ni3 Sm1 2.952296 1_545
Ni4 Ni6 2.676309 1_556
Ni4 Sm2 2.723256 1_556
Ni4 Sm1 2.957766 1_555
Ni4 Sm1 2.957907 1_445
Ni5 Ni6 2.677980 1_556
Ni5 Sm2 2.726619 1_656
Ni5 Sm1 2.954650 1_555
Ni5 Sm1 2.954765 1_545
Ni6 Sm2 3.024047 1_555
Ni6 Sm0 3.025612 1_655
Ni6 Sm0 3.028088 1_555
Ni6 Sm2 3.029699 1_655
Ni6 Sm2 3.033336 1_545
Ni6 Sm0 3.033384 1_665
B0 Ni4 2.066889 1_555
B0 Ni1 2.066889 1_555
B0 Ni5 2.067508 1_455
B0 Ni2 2.067508 1_455
B0 Ni3 2.068441 1_565
B0 Ni0 2.068441 1_565
B0 Sm1 3.025299 1_455
B0 Sm1 3.028974 1_555
B0 Sm1 3.032809 1_445
B1 Ni1 2.003031 1_555
B1 Ni4 2.003031 1_555
B1 Ni5 2.003145 1_555
B1 Ni2 2.003145 1_555
B1 Ni3 2.003808 1_555
B1 Ni0 2.003808 1_555
B1 Sm1 3.025436 1_545
B1 Sm1 3.029043 1_445
B1 Sm1 3.032605 1_555
