# generated using pymatgen
data_PNO
_symmetry_space_group_name_H-M   'P 1'
_cell_length_a   7.10074489
_cell_length_b   7.10074489
_cell_length_c   8.64067673
_cell_angle_alpha   54.88974927
_cell_angle_beta   54.88974927
_cell_angle_gamma   39.69423736
_symmetry_Int_Tables_number   1
_chemical_formula_structural   PNO
_chemical_formula_sum   'P6 N6 O6'
_cell_volume   220.17528799
_cell_formula_units_Z   6
loop_
 _symmetry_equiv_pos_site_id
 _symmetry_equiv_pos_as_xyz
  1  'x, y, z'
loop_
 _atom_site_type_symbol
 _atom_site_label
 _atom_site_symmetry_multiplicity
 _atom_site_fract_x
 _atom_site_fract_y
 _atom_site_fract_z
 _atom_site_occupancy
  P  P0  1  0.60374000  0.06149100  0.66700100  1
  P  P1  1  0.91858700  0.41028600  0.83591000  1
  P  P2  1  0.41028600  0.91858700  0.33591000  1
  P  P3  1  0.06149100  0.60374000  0.16700100  1
  P  P4  1  0.02172500  0.97675400  0.75158900  1
  P  P5  1  0.97675400  0.02172500  0.25158900  1
  N  N0  1  0.65411300  0.76259100  0.78410800  1
  N  N1  1  0.76259100  0.65411300  0.28410800  1
  N  N2  1  0.72550000  0.13408600  0.43971900  1
  N  N3  1  0.88300500  0.25863100  0.05739500  1
  N  N4  1  0.25863100  0.88300500  0.55739500  1
  N  N5  1  0.13408600  0.72550000  0.93971900  1
  O  O0  1  0.70128300  0.10788600  0.76429400  1
  O  O1  1  0.91307800  0.28564400  0.73354300  1
  O  O2  1  0.28564400  0.91307800  0.23354300  1
  O  O3  1  0.10788600  0.70128300  0.26429400  1
  O  O4  1  0.24009700  0.34150400  0.71644200  1
  O  O5  1  0.34150400  0.24009700  0.21644200  1
loop_
_geom_bond_atom_site_label_1
_geom_bond_atom_site_label_2
_geom_bond_distance
_geom_bond_site_symmetry_2
N0 P0 1.560161 1_565
N0 P1 1.560223 1_555
N1 P3 1.560161 1_655
N1 P2 1.560223 1_555
N2 P5 1.557975 1_555
N2 P0 1.561489 1_555
N3 P1 1.542041 1_554
N3 P5 1.550210 1_555
N4 P2 1.542041 1_555
N4 P4 1.550210 1_555
N5 P4 1.557975 1_555
N5 P3 1.561489 1_556
O0 P4 1.620541 1_645
O0 P0 1.623122 1_555
O1 P1 1.600254 1_555
O1 P4 1.603493 1_645
O2 P2 1.600254 1_555
O2 P5 1.603493 1_465
O3 P5 1.620541 1_465
O3 P3 1.623122 1_555
O4 P0 1.615704 1_555
O4 P1 1.633773 1_455
O5 P3 1.615704 1_555
O5 P2 1.633773 1_545
