# generated using pymatgen
data_CaEuMn4O12
_symmetry_space_group_name_H-M   'P 1'
_cell_length_a   5.65377723
_cell_length_b   5.65377723
_cell_length_c   8.03390279
_cell_angle_alpha   90.00000000
_cell_angle_beta   90.00000000
_cell_angle_gamma   90.00000000
_symmetry_Int_Tables_number   1
_chemical_formula_structural   CaEuMn4O12
_chemical_formula_sum   'Ca1 Eu1 Mn4 O12'
_cell_volume   256.80528509
_cell_formula_units_Z   1
loop_
 _symmetry_equiv_pos_site_id
 _symmetry_equiv_pos_as_xyz
  1  'x, y, z'
loop_
 _atom_site_type_symbol
 _atom_site_label
 _atom_site_symmetry_multiplicity
 _atom_site_fract_x
 _atom_site_fract_y
 _atom_site_fract_z
 _atom_site_occupancy
  Ca  Ca0  1  0.50000000  0.50000000  -0.00000000  1
  Eu  Eu0  1  0.00000000  0.00000000  0.50000000  1
  Mn  Mn0  1  0.00000000  0.50000000  0.75156869  1
  Mn  Mn1  1  0.00000000  0.50000000  0.24843131  1
  Mn  Mn2  1  0.50000000  0.00000000  0.75156869  1
  Mn  Mn3  1  0.50000000  0.00000000  0.24843131  1
  O  O0  1  0.24920251  0.24920251  0.74931794  1
  O  O1  1  0.24920251  0.24920251  0.25068206  1
  O  O2  1  0.75079749  0.75079749  0.74931794  1
  O  O3  1  0.75079749  0.75079749  0.25068206  1
  O  O4  1  0.75079749  0.24920251  0.74931794  1
  O  O5  1  0.75079749  0.24920251  0.25068206  1
  O  O6  1  0.24920251  0.75079749  0.74931794  1
  O  O7  1  0.24920251  0.75079749  0.25068206  1
  O  O8  1  0.00000000  0.50000000  0.50000000  1
  O  O9  1  0.00000000  0.50000000  -0.00000000  1
  O  O10  1  0.50000000  0.00000000  0.50000000  1
  O  O11  1  0.50000000  0.00000000  -0.00000000  1
loop_
_geom_bond_atom_site_label_1
_geom_bond_atom_site_label_2
_geom_bond_distance
_geom_bond_site_symmetry_2
Ca0 O9 2.826889 1_555
Ca0 O9 2.826889 1_655
Ca0 O11 2.826889 1_555
Ca0 O11 2.826889 1_565
Ca0 O7 2.842041 1_555
Ca0 O5 2.842041 1_555
Ca0 O3 2.842041 1_555
Ca0 O4 2.842041 1_554
Ca0 O6 2.842041 1_554
Ca0 O2 2.842041 1_554
Ca0 O1 2.842041 1_555
Ca0 O0 2.842041 1_554
Eu0 O4 2.825277 1_455
Eu0 O0 2.825277 1_555
Eu0 O6 2.825277 1_545
Eu0 O5 2.825277 1_455
Eu0 O7 2.825277 1_545
Eu0 O2 2.825277 1_445
Eu0 O1 2.825277 1_555
Eu0 O3 2.825277 1_445
Eu0 O10 2.826889 1_455
Eu0 O8 2.826889 1_545
Eu0 O10 2.826889 1_555
Eu0 O8 2.826889 1_555
Mn0 O9 1.995873 1_556
Mn0 O6 1.999004 1_555
Mn0 O0 1.999004 1_555
Mn0 O2 1.999004 1_455
Mn0 O4 1.999004 1_455
Mn0 O8 2.021078 1_555
Mn1 O9 1.995873 1_555
Mn1 O3 1.999004 1_455
Mn1 O7 1.999004 1_555
Mn1 O1 1.999004 1_555
Mn1 O5 1.999004 1_455
Mn1 O8 2.021078 1_555
Mn2 O11 1.995873 1_556
Mn2 O4 1.999004 1_555
Mn2 O2 1.999004 1_545
Mn2 O0 1.999004 1_555
Mn2 O6 1.999004 1_545
Mn2 O10 2.021078 1_555
Mn3 O11 1.995873 1_555
Mn3 O5 1.999004 1_555
Mn3 O1 1.999004 1_555
Mn3 O3 1.999004 1_545
Mn3 O7 1.999004 1_545
Mn3 O10 2.021078 1_555
