# generated using pymatgen
data_LiEuAs
_symmetry_space_group_name_H-M   'P 1'
_cell_length_a   4.44938851
_cell_length_b   7.45264293
_cell_length_c   7.94679720
_cell_angle_alpha   89.99396744
_cell_angle_beta   90.00000000
_cell_angle_gamma   90.00000000
_symmetry_Int_Tables_number   1
_chemical_formula_structural   LiEuAs
_chemical_formula_sum   'Li4 Eu4 As4'
_cell_volume   263.51344007
_cell_formula_units_Z   4
loop_
 _symmetry_equiv_pos_site_id
 _symmetry_equiv_pos_as_xyz
  1  'x, y, z'
loop_
 _atom_site_type_symbol
 _atom_site_label
 _atom_site_symmetry_multiplicity
 _atom_site_fract_x
 _atom_site_fract_y
 _atom_site_fract_z
 _atom_site_occupancy
  Li  Li0  1  0.25000000  0.15694170  0.92839012  1
  Li  Li1  1  0.25000000  0.65682229  0.57163107  1
  Li  Li2  1  0.75000000  0.84305830  0.07160988  1
  Li  Li3  1  0.75000000  0.34317771  0.42836893  1
  Eu  Eu0  1  0.25000000  0.00921249  0.29619684  1
  Eu  Eu1  1  0.25000000  0.50903031  0.20410385  1
  Eu  Eu2  1  0.75000000  0.99078751  0.70380316  1
  Eu  Eu3  1  0.75000000  0.49096969  0.79589615  1
  As  As0  1  0.25000000  0.27426247  0.59613120  1
  As  As1  1  0.25000000  0.77449828  0.90388805  1
  As  As2  1  0.75000000  0.72573753  0.40386880  1
  As  As3  1  0.75000000  0.22550172  0.09611195  1
loop_
_geom_bond_atom_site_label_1
_geom_bond_atom_site_label_2
_geom_bond_distance
_geom_bond_site_symmetry_2
Eu0 Li2 3.109406 1_445
Eu0 Li2 3.109406 1_545
Eu0 Li0 3.123255 1_554
Eu0 Li1 3.418604 1_545
Eu0 Li3 3.499683 1_555
Eu0 Li3 3.499683 1_455
Eu1 Li3 3.106895 1_455
Eu1 Li3 3.106895 1_555
Eu1 Li1 3.121559 1_555
Eu1 Li0 3.418655 1_554
Eu1 Li2 3.500627 1_455
Eu1 Li2 3.500627 1_555
Eu2 Li0 3.109406 1_665
Eu2 Li0 3.109406 1_565
Eu2 Li2 3.123255 1_556
Eu2 Li3 3.418604 1_565
Eu2 Li1 3.499683 1_655
Eu2 Li1 3.499683 1_555
Eu3 Li1 3.106895 1_655
Eu3 Li1 3.106895 1_555
Eu3 Li3 3.121559 1_555
Eu3 Li2 3.418655 1_556
Eu3 Li0 3.500627 1_555
Eu3 Li0 3.500627 1_655
As0 Li3 2.643909 1_555
As0 Li3 2.643909 1_455
As0 Li0 2.781310 1_555
As0 Li1 2.857701 1_555
As0 Eu0 3.095811 1_555
As0 Eu3 3.174633 1_455
As0 Eu3 3.174633 1_555
As0 Eu2 3.185005 1_545
As0 Eu2 3.185005 1_445
As0 Eu1 3.572894 1_555
As1 Li2 2.643288 1_456
As1 Li2 2.643288 1_556
As1 Li1 2.782303 1_555
As1 Li0 2.856878 1_565
As1 Eu1 3.099201 1_556
As1 Eu2 3.174152 1_455
As1 Eu2 3.174152 1_555
As1 Eu3 3.186073 1_455
As1 Eu3 3.186073 1_555
As1 Eu0 3.574970 1_566
As2 Li1 2.643909 1_655
As2 Li1 2.643909 1_555
As2 Li2 2.781310 1_555
As2 Li3 2.857701 1_555
As2 Eu2 3.095811 1_555
As2 Eu1 3.174633 1_555
As2 Eu1 3.174633 1_655
As2 Eu0 3.185005 1_565
As2 Eu0 3.185005 1_665
As2 Eu3 3.572894 1_555
As3 Li0 2.643288 1_554
As3 Li0 2.643288 1_654
As3 Li3 2.782303 1_555
As3 Li2 2.856878 1_545
As3 Eu3 3.099201 1_554
As3 Eu0 3.174152 1_555
As3 Eu0 3.174152 1_655
As3 Eu1 3.186073 1_655
As3 Eu1 3.186073 1_555
As3 Eu2 3.574970 1_544
