# generated using pymatgen
data_La5Sm3Cr8O24
_symmetry_space_group_name_H-M   'P 1'
_cell_length_a   7.84144100
_cell_length_b   7.84144100
_cell_length_c   7.84139500
_cell_angle_alpha   90.00000000
_cell_angle_beta   90.00000000
_cell_angle_gamma   90.00000000
_symmetry_Int_Tables_number   1
_chemical_formula_structural   La5Sm3Cr8O24
_chemical_formula_sum   'La5 Sm3 Cr8 O24'
_cell_volume   482.15324017
_cell_formula_units_Z   1
loop_
 _symmetry_equiv_pos_site_id
 _symmetry_equiv_pos_as_xyz
  1  'x, y, z'
loop_
 _atom_site_type_symbol
 _atom_site_label
 _atom_site_symmetry_multiplicity
 _atom_site_fract_x
 _atom_site_fract_y
 _atom_site_fract_z
 _atom_site_occupancy
  La  La0  1  0.00000000  0.50000000  0.00000000  1
  La  La1  1  0.50000000  0.50000000  0.00000000  1
  La  La2  1  0.00000000  0.00000000  0.00000000  1
  La  La3  1  0.50000000  0.00000000  0.00000000  1
  La  La4  1  0.00000000  0.00000000  0.50000000  1
  Sm  Sm0  1  0.00000000  0.50000000  0.50000000  1
  Sm  Sm1  1  0.50000000  0.50000000  0.50000000  1
  Sm  Sm2  1  0.50000000  0.00000000  0.50000000  1
  Cr  Cr0  1  0.74979000  0.25021000  0.74935200  1
  Cr  Cr1  1  0.25021000  0.25021000  0.74935200  1
  Cr  Cr2  1  0.74979000  0.74979000  0.74935200  1
  Cr  Cr3  1  0.25021000  0.74979000  0.74935200  1
  Cr  Cr4  1  0.74979000  0.25021000  0.25064800  1
  Cr  Cr5  1  0.25021000  0.25021000  0.25064800  1
  Cr  Cr6  1  0.74979000  0.74979000  0.25064800  1
  Cr  Cr7  1  0.25021000  0.74979000  0.25064800  1
  O  O0  1  0.74998300  0.25001700  0.00000000  1
  O  O1  1  0.25001700  0.25001700  0.00000000  1
  O  O2  1  0.74998300  0.74998300  0.00000000  1
  O  O3  1  0.25001700  0.74998300  0.00000000  1
  O  O4  1  0.74890900  0.25109100  0.50000000  1
  O  O5  1  0.25109100  0.25109100  0.50000000  1
  O  O6  1  0.74890900  0.74890900  0.50000000  1
  O  O7  1  0.25109100  0.74890900  0.50000000  1
  O  O8  1  0.74997800  0.50000000  0.74779600  1
  O  O9  1  0.25002200  0.50000000  0.74779600  1
  O  O10  1  0.74889500  0.00000000  0.74887000  1
  O  O11  1  0.25110500  0.00000000  0.74887000  1
  O  O12  1  0.74997800  0.50000000  0.25220400  1
  O  O13  1  0.25002200  0.50000000  0.25220400  1
  O  O14  1  0.74889500  0.00000000  0.25113000  1
  O  O15  1  0.25110500  0.00000000  0.25113000  1
  O  O16  1  0.00000000  0.25110500  0.74887000  1
  O  O17  1  0.50000000  0.25002200  0.74779600  1
  O  O18  1  0.00000000  0.74889500  0.74887000  1
  O  O19  1  0.50000000  0.74997800  0.74779600  1
  O  O20  1  0.00000000  0.25110500  0.25113000  1
  O  O21  1  0.50000000  0.25002200  0.25220400  1
  O  O22  1  0.00000000  0.74889500  0.25113000  1
  O  O23  1  0.50000000  0.74997800  0.25220400  1
loop_
_geom_bond_atom_site_label_1
_geom_bond_atom_site_label_2
_geom_bond_distance
_geom_bond_site_symmetry_2
La0 O3 2.772368 1_555
La0 O1 2.772368 1_555
La0 O2 2.772368 1_455
La0 O0 2.772368 1_455
La0 O16 2.772526 1_554
La0 O18 2.772526 1_554
La0 O22 2.772526 1_555
La0 O20 2.772526 1_555
La0 O8 2.784729 1_454
La0 O12 2.784729 1_455
La0 O9 2.784729 1_554
La0 O13 2.784729 1_555
La1 O3 2.772180 1_555
La1 O0 2.772180 1_555
La1 O2 2.772180 1_555
La1 O1 2.772180 1_555
La1 O13 2.784486 1_555
La1 O17 2.784486 1_554
La1 O21 2.784486 1_555
La1 O9 2.784486 1_554
La1 O8 2.784486 1_554
La1 O12 2.784486 1_555
La1 O19 2.784486 1_554
La1 O23 2.784486 1_555
La2 O1 2.772557 1_555
La2 O0 2.772557 1_455
La2 O3 2.772557 1_545
La2 O2 2.772557 1_445
La2 O11 2.784752 1_554
La2 O10 2.784752 1_454
La2 O16 2.784752 1_554
La2 O18 2.784752 1_544
La2 O14 2.784752 1_455
La2 O20 2.784752 1_555
La2 O22 2.784752 1_545
La2 O15 2.784752 1_555
La3 O0 2.772368 1_555
La3 O2 2.772368 1_545
La3 O1 2.772368 1_555
La3 O3 2.772368 1_545
La3 O11 2.772526 1_554
La3 O10 2.772526 1_554
La3 O14 2.772526 1_555
La3 O15 2.772526 1_555
La3 O19 2.784729 1_544
La3 O23 2.784729 1_545
La3 O21 2.784729 1_555
La3 O17 2.784729 1_554
La4 O18 2.772249 1_545
La4 O14 2.772249 1_455
La4 O20 2.772249 1_555
La4 O11 2.772249 1_555
La4 O22 2.772249 1_545
La4 O15 2.772249 1_555
La4 O10 2.772249 1_455
La4 O16 2.772249 1_555
La4 O6 2.784467 1_445
La4 O4 2.784467 1_455
La4 O7 2.784467 1_545
La4 O5 2.784467 1_555
Cr0 O4 1.955292 1_555
Cr0 O17 1.958752 1_555
Cr0 O8 1.958752 1_555
Cr0 O10 1.962023 1_555
Cr0 O16 1.962023 1_655
Cr0 O0 1.965431 1_556
Cr1 O5 1.955292 1_555
Cr1 O9 1.958752 1_555
Cr1 O17 1.958752 1_555
Cr1 O11 1.962023 1_555
Cr1 O16 1.962023 1_555
Cr1 O1 1.965431 1_556
Cr2 O6 1.955292 1_555
Cr2 O19 1.958752 1_555
Cr2 O8 1.958752 1_555
Cr2 O18 1.962023 1_655
Cr2 O10 1.962023 1_565
Cr2 O2 1.965431 1_556
Cr3 O7 1.955292 1_555
Cr3 O9 1.958752 1_555
Cr3 O19 1.958752 1_555
Cr3 O18 1.962023 1_555
Cr3 O11 1.962023 1_565
Cr3 O3 1.965431 1_556
Cr4 O4 1.955292 1_555
Cr4 O21 1.958752 1_555
Cr4 O12 1.958752 1_555
Cr4 O14 1.962023 1_555
Cr4 O20 1.962023 1_655
Cr4 O0 1.965431 1_555
Cr5 O5 1.955292 1_555
Cr5 O21 1.958752 1_555
Cr5 O13 1.958752 1_555
Cr5 O20 1.962023 1_555
Cr5 O15 1.962023 1_555
Cr5 O1 1.965431 1_555
Cr6 O6 1.955292 1_555
Cr6 O12 1.958752 1_555
Cr6 O23 1.958752 1_555
Cr6 O14 1.962023 1_565
Cr6 O22 1.962023 1_655
Cr6 O2 1.965431 1_555
Cr7 O7 1.955292 1_555
Cr7 O13 1.958752 1_555
Cr7 O23 1.958752 1_555
Cr7 O22 1.962023 1_555
Cr7 O15 1.962023 1_565
Cr7 O3 1.965431 1_555
O4 Sm1 2.760269 1_555
O4 Sm0 2.772394 1_655
O4 Sm2 2.772394 1_555
O5 Sm1 2.760269 1_555
O5 Sm2 2.772394 1_555
O5 Sm0 2.772394 1_555
O6 Sm1 2.760269 1_555
O6 Sm2 2.772394 1_565
O6 Sm0 2.772394 1_655
O7 Sm1 2.760269 1_555
O7 Sm2 2.772394 1_565
O7 Sm0 2.772394 1_555
O8 Sm1 2.760044 1_555
O8 Sm0 2.760289 1_655
O9 Sm1 2.760044 1_555
O9 Sm0 2.760289 1_555
O10 Sm2 2.759967 1_555
O11 Sm2 2.759967 1_555
O12 Sm1 2.760044 1_555
O12 Sm0 2.760289 1_655
O13 Sm1 2.760044 1_555
O13 Sm0 2.760289 1_555
O14 Sm2 2.759967 1_555
O15 Sm2 2.759967 1_555
O16 Sm0 2.759967 1_555
O17 Sm1 2.760044 1_555
O17 Sm2 2.760289 1_555
O18 Sm0 2.759967 1_555
O19 Sm1 2.760044 1_555
O19 Sm2 2.760289 1_565
O20 Sm0 2.759967 1_555
O21 Sm1 2.760044 1_555
O21 Sm2 2.760289 1_555
O22 Sm0 2.759967 1_555
O23 Sm1 2.760044 1_555
O23 Sm2 2.760289 1_565
