# generated using pymatgen
data_Mg14ZrCd
_symmetry_space_group_name_H-M   'P 1'
_cell_length_a   6.40830735
_cell_length_b   6.40830682
_cell_length_c   10.16626333
_cell_angle_alpha   90.00000000
_cell_angle_beta   90.00000000
_cell_angle_gamma   120.00000277
_symmetry_Int_Tables_number   1
_chemical_formula_structural   Mg14ZrCd
_chemical_formula_sum   'Mg14 Zr1 Cd1'
_cell_volume   361.55852367
_cell_formula_units_Z   1
loop_
 _symmetry_equiv_pos_site_id
 _symmetry_equiv_pos_as_xyz
  1  'x, y, z'
loop_
 _atom_site_type_symbol
 _atom_site_label
 _atom_site_symmetry_multiplicity
 _atom_site_fract_x
 _atom_site_fract_y
 _atom_site_fract_z
 _atom_site_occupancy
  Mg  Mg0  1  0.17196762  0.83598331  0.12500000  1
  Mg  Mg1  1  0.16522966  0.83261433  0.62500000  1
  Mg  Mg2  1  0.66401669  0.32803238  0.12500000  1
  Mg  Mg3  1  0.66738567  0.33477034  0.62500000  1
  Mg  Mg4  1  0.66401669  0.83598331  0.12500000  1
  Mg  Mg5  1  0.66738567  0.83261433  0.62500000  1
  Mg  Mg6  1  0.33046345  0.16953655  0.37507174  1
  Mg  Mg7  1  0.33046345  0.16953655  0.87492826  1
  Mg  Mg8  1  0.33046345  0.66092790  0.37507174  1
  Mg  Mg9  1  0.33046345  0.66092790  0.87492826  1
  Mg  Mg10  1  0.83907210  0.16953655  0.37507174  1
  Mg  Mg11  1  0.83907210  0.16953655  0.87492826  1
  Mg  Mg12  1  0.83333300  0.66666700  0.37258669  1
  Mg  Mg13  1  0.83333300  0.66666700  0.87741331  1
  Zr  Zr0  1  0.16666700  0.33333300  0.12500000  1
  Cd  Cd0  1  0.16666700  0.33333300  0.62500000  1
loop_
_geom_bond_atom_site_label_1
_geom_bond_atom_site_label_2
_geom_bond_distance
_geom_bond_site_symmetry_2
Mg0 Mg13 3.141236 1_454
Mg0 Mg12 3.141236 1_455
Mg0 Mg9 3.145275 1_554
Mg0 Mg8 3.145275 1_555
Mg0 Mg6 3.145282 1_565
Mg0 Mg7 3.145282 1_564
Mg0 Mg2 3.153201 1_565
Mg0 Mg4 3.153202 1_555
Mg0 Zr0 3.204288 1_555
Mg0 Zr0 3.204288 1_565
Mg0 Mg2 3.255105 1_455
Mg0 Mg4 3.255106 1_455
Mg1 Mg9 3.154762 1_555
Mg1 Mg8 3.154762 1_555
Mg1 Mg6 3.154769 1_565
Mg1 Mg7 3.154769 1_565
Mg1 Mg12 3.158739 1_455
Mg1 Mg13 3.158739 1_455
Mg1 Mg3 3.190337 1_455
Mg1 Mg5 3.190337 1_455
Mg1 Mg3 3.217970 1_565
Mg1 Mg5 3.217970 1_555
Mg2 Mg7 3.145282 1_554
Mg2 Mg6 3.145282 1_555
Mg2 Mg4 3.153201 1_545
Mg2 Zr0 3.204289 1_655
Mg2 Zr0 3.204289 1_555
Mg2 Mg4 3.255105 1_555
Mg3 Mg6 3.154769 1_555
Mg3 Mg7 3.154769 1_555
Mg3 Mg5 3.190337 1_555
Mg3 Mg5 3.217970 1_545
Mg4 Mg8 3.145282 1_555
Mg4 Mg9 3.145282 1_554
Mg4 Zr0 3.204288 1_555
Mg4 Zr0 3.204288 1_665
Mg5 Mg8 3.154769 1_555
Mg5 Mg9 3.154769 1_555
Mg6 Zr0 3.125478 1_555
Mg6 Mg8 3.148987 1_555
Mg6 Mg8 3.259320 1_545
Mg7 Zr0 3.125478 1_556
Mg7 Mg9 3.148987 1_555
Mg7 Mg9 3.259320 1_545
Mg8 Zr0 3.125484 1_555
Mg9 Zr0 3.125484 1_556
Mg10 Zr0 3.125484 1_655
Mg10 Mg2 3.145275 1_555
Mg10 Mg4 3.145281 1_545
Mg10 Mg8 3.148987 1_655
Mg10 Mg6 3.148987 1_655
Mg10 Mg3 3.154762 1_555
Mg10 Mg5 3.154769 1_545
Mg10 Mg12 3.204411 1_545
Mg10 Mg12 3.204411 1_555
Mg10 Mg8 3.259320 1_545
Mg10 Mg6 3.259321 1_555
Mg11 Zr0 3.125484 1_656
Mg11 Mg2 3.145275 1_556
Mg11 Mg4 3.145281 1_546
Mg11 Mg9 3.148987 1_655
Mg11 Mg7 3.148987 1_655
Mg11 Mg3 3.154762 1_555
Mg11 Mg5 3.154769 1_545
Mg11 Mg13 3.204411 1_545
Mg11 Mg13 3.204411 1_555
Mg11 Mg9 3.259320 1_545
Mg11 Mg7 3.259321 1_555
Mg12 Mg4 3.141230 1_555
Mg12 Mg2 3.141236 1_555
Mg12 Mg5 3.158733 1_555
Mg12 Mg3 3.158739 1_555
Mg12 Mg6 3.204411 1_665
Mg12 Mg6 3.204411 1_555
Mg12 Mg8 3.204412 1_555
Mg12 Mg8 3.204412 1_655
Mg13 Mg4 3.141230 1_556
Mg13 Mg2 3.141236 1_556
Mg13 Mg5 3.158733 1_555
Mg13 Mg3 3.158739 1_555
Mg13 Mg7 3.204411 1_665
Mg13 Mg7 3.204411 1_555
Mg13 Mg9 3.204412 1_555
Mg13 Mg9 3.204412 1_655
Cd0 Mg7 3.124291 1_555
Cd0 Mg6 3.124291 1_555
Cd0 Mg8 3.124298 1_555
Cd0 Mg9 3.124298 1_555
Cd0 Mg10 3.124298 1_455
Cd0 Mg11 3.124298 1_455
Cd0 Mg5 3.204163 1_445
Cd0 Mg5 3.204163 1_555
Cd0 Mg1 3.204163 1_545
Cd0 Mg1 3.204163 1_555
Cd0 Mg3 3.204164 1_555
Cd0 Mg3 3.204164 1_455
