# generated using pymatgen
data_K2TcBr6
_symmetry_space_group_name_H-M   'P 1'
_cell_length_a   7.37249775
_cell_length_b   7.37250510
_cell_length_c   7.37251539
_cell_angle_alpha   59.99988791
_cell_angle_beta   59.99998680
_cell_angle_gamma   60.00012529
_symmetry_Int_Tables_number   1
_chemical_formula_structural   K2TcBr6
_chemical_formula_sum   'K2 Tc1 Br6'
_cell_volume   283.35469973
_cell_formula_units_Z   1
loop_
 _symmetry_equiv_pos_site_id
 _symmetry_equiv_pos_as_xyz
  1  'x, y, z'
loop_
 _atom_site_type_symbol
 _atom_site_label
 _atom_site_symmetry_multiplicity
 _atom_site_fract_x
 _atom_site_fract_y
 _atom_site_fract_z
 _atom_site_occupancy
  K  K0  1  0.25000000  0.25000000  0.25000000  1
  K  K1  1  0.75000000  0.75000000  0.75000000  1
  Tc  Tc0  1  -0.00000000  0.00000000  0.00000000  1
  Br  Br0  1  0.75849456  0.24150544  0.24150544  1
  Br  Br1  1  0.24150544  0.75849456  0.75849456  1
  Br  Br2  1  0.24150544  0.75849456  0.24150544  1
  Br  Br3  1  0.75849456  0.24150544  0.75849456  1
  Br  Br4  1  0.24150544  0.24150544  0.75849456  1
  Br  Br5  1  0.75849456  0.75849456  0.24150544  1
loop_
_geom_bond_atom_site_label_1
_geom_bond_atom_site_label_2
_geom_bond_distance
_geom_bond_site_symmetry_2
Br0 Tc0 2.518013 1_655
Br0 K0 3.687313 1_655
Br0 K0 3.687313 1_555
Br0 K1 3.687313 1_554
Br0 K1 3.687313 1_545
Br1 Tc0 2.518013 1_566
Br1 K0 3.687313 1_556
Br1 K1 3.687313 1_555
Br1 K0 3.687313 1_565
Br1 K1 3.687313 1_455
Br2 Tc0 2.518008 1_565
Br2 K0 3.687316 1_555
Br2 K1 3.687316 1_554
Br2 K0 3.687316 1_565
Br2 K1 3.687316 1_455
Br3 Tc0 2.518008 1_656
Br3 K0 3.687316 1_655
Br3 K1 3.687316 1_555
Br3 K1 3.687316 1_545
Br3 K0 3.687316 1_556
Br4 Tc0 2.518001 1_556
Br4 K1 3.687321 1_455
Br4 K0 3.687321 1_555
Br4 K0 3.687321 1_556
Br4 K1 3.687321 1_545
Br5 Tc0 2.518001 1_665
Br5 K0 3.687321 1_655
Br5 K1 3.687321 1_555
Br5 K1 3.687321 1_554
Br5 K0 3.687321 1_565
