# generated using pymatgen
data_Cs3Nb2Se11
_symmetry_space_group_name_H-M   'P 1'
_cell_length_a   8.72701900
_cell_length_b   12.85398700
_cell_length_c   20.93226467
_cell_angle_alpha   76.91807023
_cell_angle_beta   90.00000000
_cell_angle_gamma   90.00000000
_symmetry_Int_Tables_number   1
_chemical_formula_structural   Cs3Nb2Se11
_chemical_formula_sum   'Cs12 Nb8 Se44'
_cell_volume   2287.17864331
_cell_formula_units_Z   4
loop_
 _symmetry_equiv_pos_site_id
 _symmetry_equiv_pos_as_xyz
  1  'x, y, z'
loop_
 _atom_site_type_symbol
 _atom_site_label
 _atom_site_symmetry_multiplicity
 _atom_site_fract_x
 _atom_site_fract_y
 _atom_site_fract_z
 _atom_site_occupancy
  Cs  Cs0  1  0.17193800  0.99677600  0.33823800  1
  Cs  Cs1  1  0.67193800  0.00322400  0.16176200  1
  Cs  Cs2  1  0.82806200  0.00322400  0.66176200  1
  Cs  Cs3  1  0.32806200  0.99677600  0.83823800  1
  Cs  Cs4  1  0.84479400  0.45889600  0.64013500  1
  Cs  Cs5  1  0.34479400  0.54110400  0.85986500  1
  Cs  Cs6  1  0.15520600  0.54110400  0.35986500  1
  Cs  Cs7  1  0.65520600  0.45889600  0.14013500  1
  Cs  Cs8  1  0.31872500  0.77042900  0.61974600  1
  Cs  Cs9  1  0.81872500  0.22957100  0.88025400  1
  Cs  Cs10  1  0.68127500  0.22957100  0.38025400  1
  Cs  Cs11  1  0.18127500  0.77042900  0.11974600  1
  Nb  Nb0  1  0.23113400  0.19813400  0.50670000  1
  Nb  Nb1  1  0.73113400  0.80186600  0.99330000  1
  Nb  Nb2  1  0.76886600  0.80186600  0.49330000  1
  Nb  Nb3  1  0.26886600  0.19813400  0.00670000  1
  Nb  Nb4  1  0.35616100  0.29177700  0.66023300  1
  Nb  Nb5  1  0.85616100  0.70822300  0.83976700  1
  Nb  Nb6  1  0.64383900  0.70822300  0.33976700  1
  Nb  Nb7  1  0.14383900  0.29177700  0.16023300  1
  Se  Se0  1  0.13427800  0.00026200  0.51353800  1
  Se  Se1  1  0.63427800  0.99973800  0.98646200  1
  Se  Se2  1  0.86572200  0.99973800  0.48646200  1
  Se  Se3  1  0.36572200  0.00026200  0.01353800  1
  Se  Se4  1  0.23765400  0.10837700  0.65404900  1
  Se  Se5  1  0.73765400  0.89162300  0.84595100  1
  Se  Se6  1  0.76234600  0.89162300  0.34595100  1
  Se  Se7  1  0.26234600  0.10837700  0.15404900  1
  Se  Se8  1  0.49552800  0.26332300  0.54988600  1
  Se  Se9  1  0.99552800  0.73667700  0.95011400  1
  Se  Se10  1  0.50447200  0.73667700  0.45011400  1
  Se  Se11  1  0.00447200  0.26332300  0.04988600  1
  Se  Se12  1  0.95013500  0.24476000  0.52765300  1
  Se  Se13  1  0.45013500  0.75524000  0.97234700  1
  Se  Se14  1  0.04986500  0.75524000  0.47234700  1
  Se  Se15  1  0.54986500  0.24476000  0.02765300  1
  Se  Se16  1  0.10961300  0.21061900  0.72035000  1
  Se  Se17  1  0.60961300  0.78938100  0.77965000  1
  Se  Se18  1  0.89038700  0.78938100  0.27965000  1
  Se  Se19  1  0.39038700  0.21061900  0.22035000  1
  Se  Se20  1  0.42905800  0.48568900  0.59320900  1
  Se  Se21  1  0.92905800  0.51431100  0.90679100  1
  Se  Se22  1  0.57094200  0.51431100  0.40679100  1
  Se  Se23  1  0.07094200  0.48568900  0.09320900  1
  Se  Se24  1  0.26361100  0.25737800  0.39185100  1
  Se  Se25  1  0.76361100  0.74262200  0.10814900  1
  Se  Se26  1  0.73638900  0.74262200  0.60814900  1
  Se  Se27  1  0.23638900  0.25737800  0.89185100  1
  Se  Se28  1  0.14307400  0.37172300  0.54086800  1
  Se  Se29  1  0.64307400  0.62827700  0.95913200  1
  Se  Se30  1  0.85692600  0.62827700  0.45913200  1
  Se  Se31  1  0.35692600  0.37172300  0.04086800  1
  Se  Se32  1  0.47906500  0.07882300  0.54477500  1
  Se  Se33  1  0.97906500  0.92117700  0.95522500  1
  Se  Se34  1  0.52093500  0.92117700  0.45522500  1
  Se  Se35  1  0.02093500  0.07882300  0.04477400  1
  Se  Se36  1  0.27331100  0.47232400  0.68746900  1
  Se  Se37  1  0.77331100  0.52767600  0.81253100  1
  Se  Se38  1  0.72668900  0.52767600  0.31253100  1
  Se  Se39  1  0.22668900  0.47232400  0.18746900  1
  Se  Se40  1  0.56471900  0.23651500  0.73211700  1
  Se  Se41  1  0.06471900  0.76348500  0.76788300  1
  Se  Se42  1  0.43528100  0.76348500  0.26788300  1
  Se  Se43  1  0.93528100  0.23651500  0.23211700  1
loop_
_geom_bond_atom_site_label_1
_geom_bond_atom_site_label_2
_geom_bond_distance
_geom_bond_site_symmetry_2
Cs0 Se0 3.694475 1_565
Cs0 Se19 3.769448 1_565
Cs0 Se6 3.812003 1_455
Cs0 Se14 3.835242 1_555
Cs0 Se24 3.849966 1_565
Cs0 Se7 3.878332 1_565
Cs0 Se34 3.891017 1_555
Cs0 Se43 3.949353 1_465
Cs0 Se18 4.015983 1_455
Cs0 Se2 4.101575 1_455
Cs0 Se42 4.294416 1_555
Cs1 Se1 3.694475 1_544
Cs1 Se18 3.769448 1_545
Cs1 Se7 3.812003 1_555
Cs1 Se15 3.835242 1_555
Cs1 Se25 3.849966 1_545
Cs1 Se6 3.878332 1_545
Cs1 Se35 3.891029 1_655
Cs1 Se42 3.949353 1_545
Cs1 Se19 4.015983 1_555
Cs1 Se3 4.101575 1_555
Cs1 Se43 4.294416 1_555
Cs2 Se2 3.694475 1_545
Cs2 Se17 3.769448 1_545
Cs2 Se4 3.812003 1_655
Cs2 Se12 3.835242 1_555
Cs2 Se26 3.849966 1_545
Cs2 Se5 3.878332 1_545
Cs2 Se32 3.891017 1_555
Cs2 Se41 3.949353 1_645
Cs2 Se16 4.015983 1_655
Cs2 Se0 4.101575 1_655
Cs2 Se40 4.294416 1_555
Cs3 Se3 3.694475 1_566
Cs3 Se16 3.769448 1_565
Cs3 Se5 3.812003 1_555
Cs3 Se13 3.835242 1_555
Cs3 Se27 3.849966 1_565
Cs3 Se4 3.878332 1_565
Cs3 Se33 3.891017 1_455
Cs3 Se40 3.949353 1_565
Cs3 Se17 4.015983 1_555
Cs3 Se1 4.101575 1_555
Cs3 Se41 4.294416 1_555
Cs4 Se28 3.661047 1_655
Cs4 Se26 3.679484 1_555
Cs4 Se20 3.754156 1_555
Cs4 Se36 3.882536 1_655
Cs4 Se40 3.919286 1_555
Cs4 Se30 3.920749 1_555
Cs4 Se37 3.954405 1_555
Cs4 Se16 3.989909 1_655
Cs4 Se12 4.110822 1_555
Cs5 Se29 3.661047 1_555
Cs5 Se27 3.679484 1_555
Cs5 Se21 3.754156 1_455
Cs5 Se37 3.882536 1_555
Cs5 Se41 3.919286 1_555
Cs5 Se31 3.920749 1_556
Cs5 Se36 3.954405 1_555
Cs5 Se17 3.989909 1_555
Cs5 Se13 4.110822 1_555
Cs6 Se30 3.661047 1_455
Cs6 Se24 3.679484 1_555
Cs6 Se22 3.754156 1_555
Cs6 Se38 3.882536 1_455
Cs6 Se42 3.919286 1_555
Cs6 Se28 3.920749 1_555
Cs6 Se39 3.954405 1_555
Cs6 Se18 3.989909 1_455
Cs6 Se14 4.110822 1_555
Cs7 Se31 3.661047 1_555
Cs7 Se25 3.679484 1_555
Cs7 Se23 3.754156 1_655
Cs7 Se39 3.882536 1_555
Cs7 Se43 3.919286 1_555
Cs7 Se29 3.920749 1_554
Cs7 Se38 3.954405 1_555
Cs7 Se19 3.989909 1_555
Cs7 Se15 4.110822 1_555
Cs8 Se0 3.645280 1_565
Cs8 Se26 3.675828 1_555
Cs8 Se36 3.793499 1_555
Cs8 Se41 3.796278 1_555
Cs8 Se14 3.916097 1_555
Cs8 Se20 3.943598 1_555
Cs8 Se34 3.963303 1_555
Cs8 Se10 4.015139 1_555
Cs8 Se32 4.161569 1_565
Cs8 Se17 4.251625 1_555
Cs9 Se1 3.645280 1_545
Cs9 Se27 3.675828 1_655
Cs9 Se37 3.793499 1_555
Cs9 Se40 3.796278 1_555
Cs9 Se15 3.916097 1_556
Cs9 Se21 3.943598 1_555
Cs9 Se35 3.963287 1_656
Cs9 Se11 4.015139 1_656
Cs9 Se33 4.161569 1_545
Cs9 Se16 4.251625 1_655
Cs10 Se2 3.645280 1_545
Cs10 Se24 3.675828 1_555
Cs10 Se38 3.793499 1_555
Cs10 Se43 3.796278 1_555
Cs10 Se12 3.916097 1_555
Cs10 Se22 3.943598 1_555
Cs10 Se32 3.963303 1_555
Cs10 Se8 4.015139 1_555
Cs10 Se34 4.161569 1_545
Cs10 Se19 4.251625 1_555
Cs11 Se3 3.645280 1_565
Cs11 Se25 3.675828 1_455
Cs11 Se39 3.793499 1_555
Cs11 Se42 3.796278 1_555
Cs11 Se13 3.916097 1_554
Cs11 Se23 3.943598 1_555
Cs11 Se33 3.963303 1_454
Cs11 Se9 4.015139 1_454
Cs11 Se35 4.161572 1_565
Cs11 Se18 4.251625 1_455
Nb0 Se24 2.368744 1_555
Nb0 Se12 2.585392 1_455
Nb0 Se28 2.608314 1_555
Nb0 Se0 2.653161 1_555
Nb0 Se32 2.667485 1_555
Nb0 Se8 2.680707 1_555
Nb0 Se4 3.039185 1_555
Nb1 Se25 2.368744 1_556
Nb1 Se13 2.585392 1_555
Nb1 Se29 2.608314 1_555
Nb1 Se1 2.653161 1_555
Nb1 Se33 2.667485 1_555
Nb1 Se9 2.680707 1_555
Nb1 Se5 3.039185 1_555
Nb2 Se26 2.368744 1_555
Nb2 Se14 2.585392 1_655
Nb2 Se30 2.608314 1_555
Nb2 Se2 2.653161 1_555
Nb2 Se34 2.667485 1_555
Nb2 Se10 2.680707 1_555
Nb2 Se6 3.039185 1_555
Nb3 Se27 2.368744 1_554
Nb3 Se15 2.585392 1_555
Nb3 Se31 2.608314 1_555
Nb3 Se3 2.653161 1_555
Nb3 Se35 2.667481 1_555
Nb3 Se11 2.680707 1_555
Nb3 Se7 3.039185 1_555
Nb4 Se40 2.365916 1_555
Nb4 Se16 2.589797 1_555
Nb4 Se4 2.604213 1_555
Nb4 Se36 2.613929 1_555
Nb4 Se20 2.646274 1_555
Nb4 Se8 2.707531 1_555
Nb4 Se28 3.097540 1_555
Nb5 Se41 2.365916 1_655
Nb5 Se17 2.589797 1_555
Nb5 Se5 2.604213 1_555
Nb5 Se37 2.613929 1_555
Nb5 Se21 2.646274 1_555
Nb5 Se9 2.707531 1_555
Nb5 Se29 3.097540 1_555
Nb6 Se42 2.365916 1_555
Nb6 Se18 2.589797 1_555
Nb6 Se6 2.604213 1_555
Nb6 Se38 2.613929 1_555
Nb6 Se22 2.646274 1_555
Nb6 Se10 2.707531 1_555
Nb6 Se30 3.097540 1_555
Nb7 Se43 2.365916 1_455
Nb7 Se19 2.589797 1_555
Nb7 Se7 2.604213 1_555
Nb7 Se39 2.613929 1_555
Nb7 Se23 2.646274 1_555
Nb7 Se11 2.707531 1_555
Nb7 Se31 3.097540 1_555
Se12 Se28 2.404031 1_655
Se13 Se29 2.404031 1_555
Se14 Se30 2.404031 1_455
Se15 Se31 2.404031 1_555
Se16 Se4 2.393224 1_555
Se17 Se5 2.393224 1_555
Se18 Se6 2.393224 1_555
Se19 Se7 2.393224 1_555
Se20 Se36 2.369924 1_555
Se21 Se37 2.369924 1_555
Se22 Se38 2.369924 1_555
Se23 Se39 2.369924 1_555
