# generated using pymatgen
data_Sr3Co2TeO9
_symmetry_space_group_name_H-M   'P 1'
_cell_length_a   9.70864165
_cell_length_b   9.70864165
_cell_length_c   9.70864165
_cell_angle_alpha   146.27178036
_cell_angle_beta   132.07035702
_cell_angle_gamma   59.88591505
_symmetry_Int_Tables_number   1
_chemical_formula_structural   Sr3Co2TeO9
_chemical_formula_sum   'Sr6 Co4 Te2 O18'
_cell_volume   373.74998638
_cell_formula_units_Z   2
loop_
 _symmetry_equiv_pos_site_id
 _symmetry_equiv_pos_as_xyz
  1  'x, y, z'
loop_
 _atom_site_type_symbol
 _atom_site_label
 _atom_site_symmetry_multiplicity
 _atom_site_fract_x
 _atom_site_fract_y
 _atom_site_fract_z
 _atom_site_occupancy
  Sr  Sr0  1  0.23966900  0.50000000  0.73966900  1
  Sr  Sr1  1  0.91760300  0.16253200  0.75507100  1
  Sr  Sr2  1  0.59254000  0.83746800  0.75507100  1
  Sr  Sr3  1  0.76033100  0.50000000  0.26033100  1
  Sr  Sr4  1  0.40746000  0.16253200  0.24492900  1
  Sr  Sr5  1  0.08239700  0.83746800  0.24492900  1
  Co  Co0  1  0.50000000  0.00000000  0.50000000  1
  Co  Co1  1  0.15863400  0.65863400  0.50000000  1
  Co  Co2  1  0.84136600  0.34136600  0.50000000  1
  Co  Co3  1  0.00000000  0.00000000  0.00000000  1
  Te  Te0  1  0.66781400  0.66781400  0.00000000  1
  Te  Te1  1  0.33218600  0.33218600  0.00000000  1
  O  O0  1  0.26159700  0.00000000  0.26159700  1
  O  O1  1  0.91238700  0.66716200  0.24522600  1
  O  O2  1  0.57806400  0.33283800  0.24522600  1
  O  O3  1  0.58634400  0.34374400  0.75740000  1
  O  O4  1  0.25146000  0.00742900  0.75596800  1
  O  O5  1  0.91973300  0.67710400  0.75737100  1
  O  O6  1  0.41365600  0.17105600  0.75740000  1
  O  O7  1  0.08026700  0.83763800  0.75737100  1
  O  O8  1  0.74854000  0.50450800  0.75596800  1
  O  O9  1  0.73840300  0.00000000  0.73840300  1
  O  O10  1  0.42193600  0.66716200  0.75477400  1
  O  O11  1  0.08761300  0.33283800  0.75477400  1
  O  O12  1  0.41365600  0.65625600  0.24260000  1
  O  O13  1  0.08026700  0.32289600  0.24262900  1
  O  O14  1  0.74854000  0.99257100  0.24403200  1
  O  O15  1  0.58634400  0.82894400  0.24260000  1
  O  O16  1  0.25146000  0.49549200  0.24403200  1
  O  O17  1  0.91973300  0.16236200  0.24262900  1
loop_
_geom_bond_atom_site_label_1
_geom_bond_atom_site_label_2
_geom_bond_distance
_geom_bond_site_symmetry_2
Co0 O0 1.880243 1_555
Co0 O9 1.880243 1_555
Co0 O6 2.052533 1_555
Co0 O15 2.052533 1_545
Co0 O3 2.052533 1_555
Co0 O12 2.052533 1_545
Co1 O7 1.959708 1_555
Co1 O13 1.959708 1_555
Co1 O10 2.014475 1_555
Co1 O1 2.014479 1_455
Co1 O16 2.125641 1_555
Co1 O4 2.125649 1_565
Co2 O5 1.959708 1_555
Co2 O17 1.959708 1_555
Co2 O2 2.014475 1_555
Co2 O11 2.014479 1_655
Co2 O8 2.125641 1_555
Co2 O14 2.125649 1_545
Co3 O5 1.921431 1_444
Co3 O7 1.921431 1_544
Co3 O17 1.921431 1_455
Co3 O13 1.921431 1_555
Co3 O9 2.063171 1_454
Co3 O0 2.063171 1_555
O0 Sr4 2.737835 1_555
O0 Sr5 2.737843 1_545
O0 Sr0 2.821809 1_544
O0 Sr0 2.821809 1_555
O1 Te0 1.934082 1_555
O1 Sr3 2.815101 1_555
O1 Sr1 2.818648 1_565
O1 Sr1 2.818654 1_554
O1 Sr5 2.865496 1_655
O2 Te1 1.934086 1_555
O2 Sr3 2.815109 1_555
O2 Sr2 2.818648 1_555
O2 Sr2 2.818654 1_544
O2 Sr4 2.865496 1_555
O3 Te0 1.935596 1_556
O3 Sr4 2.791508 1_555
O3 Sr1 2.791510 1_555
O3 Sr3 2.862456 1_556
O3 Sr0 2.862456 1_555
O4 Te1 1.932473 1_556
O4 Sr1 2.803557 1_455
O4 Sr4 2.803565 1_556
O4 Sr5 2.867068 1_545
O4 Sr2 2.867082 1_545
O5 Sr0 2.738384 1_655
O5 Sr3 2.738384 1_555
O5 Sr2 2.741404 1_555
O5 Sr5 2.741413 1_656
O6 Te1 1.935596 1_556
O6 Sr5 2.791510 1_545
O6 Sr2 2.791511 1_545
O6 Sr0 2.862456 1_555
O6 Sr3 2.862456 1_556
O7 Sr3 2.738384 1_455
O7 Sr0 2.738384 1_555
O7 Sr4 2.741407 1_566
O7 Sr1 2.741413 1_465
O8 Te0 1.932480 1_556
O8 Sr5 2.803556 1_656
O8 Sr2 2.803557 1_555
O8 Sr1 2.867074 1_555
O8 Sr4 2.867079 1_555
O9 Sr2 2.737835 1_545
O9 Sr1 2.737843 1_555
O9 Sr3 2.821809 1_556
O9 Sr3 2.821809 1_545
O10 Te0 1.934086 1_556
O10 Sr0 2.815109 1_555
O10 Sr4 2.818648 1_555
O10 Sr4 2.818654 1_566
O10 Sr2 2.865496 1_555
O11 Te1 1.934082 1_556
O11 Sr0 2.815101 1_555
O11 Sr5 2.818648 1_545
O11 Sr5 2.818654 1_556
O11 Sr1 2.865496 1_455
O12 Te1 1.935596 1_555
O12 Sr2 2.791508 1_555
O12 Sr5 2.791510 1_555
O12 Sr3 2.862456 1_555
O12 Sr0 2.862456 1_554
O13 Sr3 2.738384 1_455
O13 Sr0 2.738384 1_555
O13 Sr4 2.741404 1_555
O13 Sr1 2.741413 1_454
O14 Te0 1.932473 1_555
O14 Sr5 2.803557 1_655
O14 Sr2 2.803565 1_554
O14 Sr1 2.867068 1_565
O14 Sr4 2.867082 1_565
O15 Te0 1.935596 1_555
O15 Sr1 2.791510 1_565
O15 Sr4 2.791511 1_565
O15 Sr3 2.862456 1_555
O15 Sr0 2.862456 1_554
O16 Te1 1.932480 1_555
O16 Sr1 2.803556 1_454
O16 Sr4 2.803557 1_555
O16 Sr5 2.867074 1_555
O16 Sr2 2.867079 1_555
O17 Sr0 2.738384 1_655
O17 Sr3 2.738384 1_555
O17 Sr2 2.741407 1_544
O17 Sr5 2.741413 1_645
