# generated using pymatgen
data_LaBiSe2O
_symmetry_space_group_name_H-M   'P 1'
_cell_length_a   4.15404400
_cell_length_b   4.15404400
_cell_length_c   14.84366800
_cell_angle_alpha   90.00000000
_cell_angle_beta   90.00000000
_cell_angle_gamma   90.00000000
_symmetry_Int_Tables_number   1
_chemical_formula_structural   LaBiSe2O
_chemical_formula_sum   'La2 Bi2 Se4 O2'
_cell_volume   256.14354557
_cell_formula_units_Z   2
loop_
 _symmetry_equiv_pos_site_id
 _symmetry_equiv_pos_as_xyz
  1  'x, y, z'
loop_
 _atom_site_type_symbol
 _atom_site_label
 _atom_site_symmetry_multiplicity
 _atom_site_fract_x
 _atom_site_fract_y
 _atom_site_fract_z
 _atom_site_occupancy
  La  La0  1  0.00000000  0.50000000  0.91833500  1
  La  La1  1  0.50000000  0.00000000  0.08166500  1
  Bi  Bi0  1  0.00000000  0.50000000  0.36734200  1
  Bi  Bi1  1  0.50000000  0.00000000  0.63265800  1
  Se  Se0  1  0.00000000  0.50000000  0.18843800  1
  Se  Se1  1  0.50000000  0.00000000  0.81156200  1
  Se  Se2  1  0.00000000  0.50000000  0.60668300  1
  Se  Se3  1  0.50000000  0.00000000  0.39331700  1
  O  O0  1  0.00000000  0.00000000  0.00000000  1
  O  O1  1  0.50000000  0.50000000  0.00000000  1
loop_
_geom_bond_atom_site_label_1
_geom_bond_atom_site_label_2
_geom_bond_distance
_geom_bond_site_symmetry_2
La0 O0 2.404884 1_556
La0 O1 2.404884 1_456
La0 O1 2.404884 1_556
La0 O0 2.404884 1_566
La0 Se1 3.337658 1_555
La0 Se1 3.337658 1_465
La0 Se1 3.337658 1_565
La0 Se1 3.337658 1_455
La1 O0 2.404884 1_555
La1 O0 2.404884 1_655
La1 O1 2.404884 1_555
La1 O1 2.404884 1_545
La1 Se0 3.337658 1_645
La1 Se0 3.337658 1_545
La1 Se0 3.337658 1_555
La1 Se0 3.337658 1_655
Bi0 Se0 2.655592 1_555
Bi0 Se3 2.962550 1_455
Bi0 Se3 2.962550 1_565
Bi0 Se3 2.962550 1_555
Bi0 Se3 2.962550 1_465
Bi1 Se1 2.655592 1_555
Bi1 Se2 2.962550 1_645
Bi1 Se2 2.962550 1_655
Bi1 Se2 2.962550 1_555
Bi1 Se2 2.962550 1_545
