# generated using pymatgen
data_Ag2H2C2N6O13
_symmetry_space_group_name_H-M   'P 1'
_cell_length_a   8.82868500
_cell_length_b   9.17245800
_cell_length_c   15.59310700
_cell_angle_alpha   90.00000000
_cell_angle_beta   90.00000000
_cell_angle_gamma   90.00000000
_symmetry_Int_Tables_number   1
_chemical_formula_structural   Ag2H2C2N6O13
_chemical_formula_sum   'Ag8 H8 C8 N24 O52'
_cell_volume   1262.74138052
_cell_formula_units_Z   4
loop_
 _symmetry_equiv_pos_site_id
 _symmetry_equiv_pos_as_xyz
  1  'x, y, z'
loop_
 _atom_site_type_symbol
 _atom_site_label
 _atom_site_symmetry_multiplicity
 _atom_site_fract_x
 _atom_site_fract_y
 _atom_site_fract_z
 _atom_site_occupancy
  Ag  Ag0  1  0.41264600  0.99848100  0.58309100  1
  Ag  Ag1  1  0.58735400  0.00151900  0.08309100  1
  Ag  Ag2  1  0.08735400  0.49848100  0.08309100  1
  Ag  Ag3  1  0.91264600  0.50151900  0.58309100  1
  Ag  Ag4  1  0.61296000  0.74627300  0.78144700  1
  Ag  Ag5  1  0.38704000  0.25372700  0.28144700  1
  Ag  Ag6  1  0.88704000  0.24627300  0.28144700  1
  Ag  Ag7  1  0.11296000  0.75372700  0.78144700  1
  H  H0  1  0.36014700  0.65783400  0.88577000  1
  H  H1  1  0.63985300  0.34216600  0.38577000  1
  H  H2  1  0.13985300  0.15783400  0.38577000  1
  H  H3  1  0.86014700  0.84216600  0.88577000  1
  H  H4  1  0.36562200  0.82699200  0.89418000  1
  H  H5  1  0.63437800  0.17300800  0.39418000  1
  H  H6  1  0.13437800  0.32699200  0.39418000  1
  H  H7  1  0.86562200  0.67300800  0.89418000  1
  C  C0  1  0.90619700  0.99404200  0.58592500  1
  C  C1  1  0.09380300  0.00595800  0.08592500  1
  C  C2  1  0.59380300  0.49404200  0.08592500  1
  C  C3  1  0.40619700  0.50595800  0.58592500  1
  C  C4  1  0.48100500  0.78923000  0.32968100  1
  C  C5  1  0.51899500  0.21077000  0.82968100  1
  C  C6  1  0.01899500  0.28923000  0.82968100  1
  C  C7  1  0.98100500  0.71077000  0.32968100  1
  N  N0  1  0.44768900  0.86024900  0.40614200  1
  N  N1  1  0.55231100  0.13975100  0.90614200  1
  N  N2  1  0.05231100  0.36024900  0.90614200  1
  N  N3  1  0.94768900  0.63975100  0.40614200  1
  N  N4  1  0.06645700  0.99420800  0.58234800  1
  N  N5  1  0.93354300  0.00579200  0.08234800  1
  N  N6  1  0.43354300  0.49420800  0.08234800  1
  N  N7  1  0.56645700  0.50579200  0.58234800  1
  N  N8  1  0.52423200  0.86074400  0.25476600  1
  N  N9  1  0.47576800  0.13925600  0.75476600  1
  N  N10  1  0.97576800  0.36074400  0.75476600  1
  N  N11  1  0.02423200  0.63925600  0.25476600  1
  N  N12  1  0.83334700  0.89249500  0.63937200  1
  N  N13  1  0.16665300  0.10750500  0.13937200  1
  N  N14  1  0.66665300  0.39249500  0.13937200  1
  N  N15  1  0.33334700  0.60750500  0.63937200  1
  N  N16  1  0.48251200  0.63054000  0.32922400  1
  N  N17  1  0.51748800  0.36946000  0.82922400  1
  N  N18  1  0.01748800  0.13054000  0.82922400  1
  N  N19  1  0.98251200  0.86946000  0.32922400  1
  N  N20  1  0.82490600  0.09199400  0.53228600  1
  N  N21  1  0.17509400  0.90800600  0.03228600  1
  N  N22  1  0.67509400  0.59199400  0.03228600  1
  N  N23  1  0.32490600  0.40800600  0.53228600  1
  O  O0  1  0.43708700  0.78326600  0.47314400  1
  O  O1  1  0.56291300  0.21673400  0.97314400  1
  O  O2  1  0.06291300  0.28326600  0.97314400  1
  O  O3  1  0.93708700  0.71673400  0.47314400  1
  O  O4  1  0.43010400  0.99603200  0.40851500  1
  O  O5  1  0.56989600  0.00396800  0.90851500  1
  O  O6  1  0.06989600  0.49603200  0.90851500  1
  O  O7  1  0.93010400  0.50396800  0.40851500  1
  O  O8  1  0.14078100  0.96066600  0.64825300  1
  O  O9  1  0.85921900  0.03933400  0.14825300  1
  O  O10  1  0.35921900  0.46066600  0.14825300  1
  O  O11  1  0.64078100  0.53933400  0.64825300  1
  O  O12  1  0.55905900  0.99301400  0.25561800  1
  O  O13  1  0.44094100  0.00698600  0.75561800  1
  O  O14  1  0.94094100  0.49301400  0.75561800  1
  O  O15  1  0.05905900  0.50698600  0.25561800  1
  O  O16  1  0.13167000  0.02840200  0.51401400  1
  O  O17  1  0.86833000  0.97159800  0.01401400  1
  O  O18  1  0.36833000  0.52840200  0.01401400  1
  O  O19  1  0.63167000  0.47159800  0.51401400  1
  O  O20  1  0.60130200  0.56987300  0.30579500  1
  O  O21  1  0.39869800  0.43012700  0.80579500  1
  O  O22  1  0.89869800  0.06987300  0.80579500  1
  O  O23  1  0.10130200  0.93012700  0.30579500  1
  O  O24  1  0.90475600  0.78145700  0.66330900  1
  O  O25  1  0.09524400  0.21854300  0.16330900  1
  O  O26  1  0.59524400  0.28145700  0.16330900  1
  O  O27  1  0.40475600  0.71854300  0.66330900  1
  O  O28  1  0.36624000  0.56529500  0.35213600  1
  O  O29  1  0.63376000  0.43470500  0.85213600  1
  O  O30  1  0.13376000  0.06529500  0.85213600  1
  O  O31  1  0.86624000  0.93470500  0.35213600  1
  O  O32  1  0.69816100  0.91523200  0.66193500  1
  O  O33  1  0.30183900  0.08476800  0.16193500  1
  O  O34  1  0.80183900  0.41523200  0.16193500  1
  O  O35  1  0.19816100  0.58476800  0.66193500  1
  O  O36  1  0.68939400  0.06433900  0.51384800  1
  O  O37  1  0.31060600  0.93566100  0.01384800  1
  O  O38  1  0.81060600  0.56433900  0.01384800  1
  O  O39  1  0.18939400  0.43566100  0.51384800  1
  O  O40  1  0.52594000  0.78719500  0.18612500  1
  O  O41  1  0.47406000  0.21280500  0.68612500  1
  O  O42  1  0.97406000  0.28719500  0.68612500  1
  O  O43  1  0.02594000  0.71280500  0.18612500  1
  O  O44  1  0.89261600  0.20132200  0.50425700  1
  O  O45  1  0.10738400  0.79867800  0.00425700  1
  O  O46  1  0.60738400  0.70132200  0.00425700  1
  O  O47  1  0.39261600  0.29867800  0.50425700  1
  O  O48  1  0.36169700  0.74753300  0.85184800  1
  O  O49  1  0.63830300  0.25246700  0.35184800  1
  O  O50  1  0.13830300  0.24753300  0.35184800  1
  O  O51  1  0.86169700  0.75246700  0.85184800  1
loop_
_geom_bond_atom_site_label_1
_geom_bond_atom_site_label_2
_geom_bond_distance
_geom_bond_site_symmetry_2
Ag0 O41 2.596130 1_565
Ag0 O0 2.623482 1_555
Ag0 O8 2.629398 1_555
Ag0 O13 2.702931 1_565
Ag0 O16 2.718297 1_565
Ag0 O4 2.726635 1_555
Ag0 O36 2.738706 1_565
Ag1 O40 2.596130 1_545
Ag1 O1 2.623482 1_554
Ag1 O9 2.629398 1_555
Ag1 O12 2.702931 1_545
Ag1 O17 2.718297 1_545
Ag1 O5 2.726635 1_554
Ag1 O37 2.738706 1_545
Ag2 O43 2.596130 1_555
Ag2 O2 2.623482 1_554
Ag2 O10 2.629398 1_555
Ag2 O15 2.702931 1_555
Ag2 O18 2.718297 1_555
Ag2 O6 2.726635 1_554
Ag2 O38 2.738706 1_455
Ag3 O42 2.596130 1_555
Ag3 O3 2.623482 1_555
Ag3 O11 2.629398 1_555
Ag3 O14 2.702931 1_555
Ag3 O19 2.718297 1_555
Ag3 O7 2.726635 1_555
Ag3 O39 2.738706 1_655
Ag4 O51 2.455776 1_555
Ag4 O48 2.475113 1_555
Ag4 O32 2.537810 1_555
Ag4 O27 2.614771 1_555
Ag5 O50 2.455776 1_555
Ag5 O49 2.475113 1_555
Ag5 O33 2.537810 1_555
Ag5 O26 2.614771 1_555
Ag6 O49 2.455776 1_555
Ag6 O50 2.475113 1_655
Ag6 O34 2.537810 1_555
Ag6 O25 2.614771 1_655
Ag7 O48 2.455776 1_555
Ag7 O51 2.475113 1_455
Ag7 O35 2.537810 1_555
Ag7 O24 2.614771 1_455
H0 O48 0.978217 1_555
H1 O49 0.978217 1_555
H2 O50 0.978217 1_555
H3 O51 0.978217 1_555
H4 O48 0.983929 1_555
H5 O49 0.983929 1_555
H6 O50 0.983929 1_555
H7 O51 0.983929 1_555
C0 N12 1.405633 1_555
C0 N4 1.415985 1_655
C0 N20 1.421927 1_565
C1 N13 1.405633 1_555
C1 N5 1.415985 1_455
C1 N21 1.421927 1_545
C2 N14 1.405633 1_555
C2 N6 1.415985 1_555
C2 N22 1.421927 1_555
C3 N15 1.405633 1_555
C3 N7 1.415985 1_555
C3 N23 1.421927 1_555
C4 N0 1.390093 1_555
C4 N8 1.393026 1_555
C4 N16 1.455656 1_555
C5 N1 1.390093 1_555
C5 N9 1.393026 1_555
C5 N17 1.455656 1_555
C6 N2 1.390093 1_555
C6 N10 1.393026 1_455
C6 N18 1.455656 1_555
C7 N3 1.390093 1_555
C7 N11 1.393026 1_655
C7 N19 1.455656 1_555
N0 O4 1.255648 1_555
N0 O0 1.264482 1_555
N1 O5 1.255648 1_555
N1 O1 1.264482 1_555
N2 O6 1.255648 1_555
N2 O2 1.264482 1_555
N3 O7 1.255648 1_555
N3 O3 1.264482 1_555
N4 O16 1.251091 1_565
N4 O8 1.257508 1_555
N5 O17 1.251091 1_545
N5 O9 1.257508 1_555
N6 O18 1.251091 1_555
N6 O10 1.257508 1_555
N7 O19 1.251091 1_555
N7 O11 1.257508 1_555
N8 O12 1.251668 1_555
N8 O40 1.265285 1_555
N9 O13 1.251668 1_555
N9 O41 1.265285 1_555
N10 O14 1.251668 1_555
N10 O42 1.265285 1_555
N11 O15 1.251668 1_555
N11 O43 1.265285 1_555
N12 O24 1.254634 1_555
N12 O32 1.261647 1_555
N13 O25 1.254634 1_555
N13 O33 1.261647 1_555
N14 O26 1.254634 1_555
N14 O34 1.261647 1_555
N15 O27 1.254634 1_555
N15 O35 1.261647 1_555
N16 O28 1.240788 1_555
N16 O20 1.242182 1_555
N17 O29 1.240788 1_555
N17 O21 1.242182 1_555
N18 O30 1.240788 1_555
N18 O22 1.242182 1_455
N19 O31 1.240788 1_555
N19 O23 1.242182 1_655
N20 O44 1.246593 1_555
N20 O36 1.256328 1_555
N21 O45 1.246593 1_555
N21 O37 1.256328 1_555
N22 O46 1.246593 1_555
N22 O38 1.256328 1_555
N23 O47 1.246593 1_555
N23 O39 1.256328 1_555
