# generated using pymatgen
data_IrPtBr4N5Cl
_symmetry_space_group_name_H-M   'P 1'
_cell_length_a   8.49705200
_cell_length_b   17.52248200
_cell_length_c   7.91401200
_cell_angle_alpha   90.00000000
_cell_angle_beta   90.00000000
_cell_angle_gamma   90.00000000
_symmetry_Int_Tables_number   1
_chemical_formula_structural   IrPtBr4N5Cl
_chemical_formula_sum   'Ir4 Pt4 Br16 N20 Cl4'
_cell_volume   1178.31282056
_cell_formula_units_Z   4
loop_
 _symmetry_equiv_pos_site_id
 _symmetry_equiv_pos_as_xyz
  1  'x, y, z'
loop_
 _atom_site_type_symbol
 _atom_site_label
 _atom_site_symmetry_multiplicity
 _atom_site_fract_x
 _atom_site_fract_y
 _atom_site_fract_z
 _atom_site_occupancy
  Ir  Ir0  1  0.75000000  0.88517100  0.84999500  1
  Ir  Ir1  1  0.25000000  0.11482900  0.15000500  1
  Ir  Ir2  1  0.25000000  0.61482900  0.34999500  1
  Ir  Ir3  1  0.75000000  0.38517100  0.65000500  1
  Pt  Pt0  1  0.75000000  0.78291500  0.43934200  1
  Pt  Pt1  1  0.25000000  0.21708500  0.56065800  1
  Pt  Pt2  1  0.25000000  0.71708500  0.93934200  1
  Pt  Pt3  1  0.75000000  0.28291500  0.06065800  1
  Br  Br0  1  0.75000000  0.99153800  0.56293900  1
  Br  Br1  1  0.25000000  0.00846200  0.43706100  1
  Br  Br2  1  0.25000000  0.50846200  0.06293900  1
  Br  Br3  1  0.75000000  0.49153800  0.93706100  1
  Br  Br4  1  0.97879100  0.69333100  0.85507300  1
  Br  Br5  1  0.02120900  0.30666900  0.14492700  1
  Br  Br6  1  0.02120900  0.80666900  0.35507300  1
  Br  Br7  1  0.47879100  0.30666900  0.14492700  1
  Br  Br8  1  0.97879100  0.19333100  0.64492700  1
  Br  Br9  1  0.52120900  0.69333100  0.85507300  1
  Br  Br10  1  0.52120900  0.19333100  0.64492700  1
  Br  Br11  1  0.47879100  0.80666900  0.35507300  1
  Br  Br12  1  0.75000000  0.68367000  0.21541200  1
  Br  Br13  1  0.25000000  0.31633000  0.78458800  1
  Br  Br14  1  0.25000000  0.81633000  0.71541200  1
  Br  Br15  1  0.75000000  0.18367000  0.28458800  1
  N  N0  1  0.92214200  0.84888900  0.94423100  1
  N  N1  1  0.07785800  0.15111100  0.05576900  1
  N  N2  1  0.07785800  0.65111100  0.44423100  1
  N  N3  1  0.42214200  0.15111100  0.05576900  1
  N  N4  1  0.92214200  0.34888900  0.55576900  1
  N  N5  1  0.57785800  0.84888900  0.94423100  1
  N  N6  1  0.57785800  0.34888900  0.55576900  1
  N  N7  1  0.42214200  0.65111100  0.44423100  1
  N  N8  1  0.90934600  0.95088700  0.67169800  1
  N  N9  1  0.09065400  0.04911300  0.32830200  1
  N  N10  1  0.09065400  0.54911300  0.17169800  1
  N  N11  1  0.40934600  0.04911300  0.32830200  1
  N  N12  1  0.90934600  0.45088700  0.82830200  1
  N  N13  1  0.59065400  0.95088700  0.67169800  1
  N  N14  1  0.59065400  0.45088700  0.82830200  1
  N  N15  1  0.40934600  0.54911300  0.17169800  1
  N  N16  1  0.75000000  0.81206300  0.65661600  1
  N  N17  1  0.25000000  0.18793700  0.34338400  1
  N  N18  1  0.25000000  0.68793700  0.15661600  1
  N  N19  1  0.75000000  0.31206300  0.84338400  1
  Cl  Cl0  1  0.75000000  0.49784000  0.49161500  1
  Cl  Cl1  1  0.25000000  0.50216000  0.50838500  1
  Cl  Cl2  1  0.25000000  0.00216000  0.99161500  1
  Cl  Cl3  1  0.75000000  0.99784000  0.00838500  1
loop_
_geom_bond_atom_site_label_1
_geom_bond_atom_site_label_2
_geom_bond_distance
_geom_bond_site_symmetry_2
Ir0 N5 1.760643 1_555
Ir0 N0 1.760643 1_555
Ir0 N16 1.995791 1_555
Ir0 N13 2.269417 1_555
Ir0 N8 2.269417 1_555
Ir1 N3 1.760643 1_555
Ir1 N1 1.760643 1_555
Ir1 N17 1.995791 1_555
Ir1 N11 2.269417 1_555
Ir1 N9 2.269417 1_555
Ir2 N7 1.760643 1_555
Ir2 N2 1.760643 1_555
Ir2 N18 1.995791 1_555
Ir2 N15 2.269417 1_555
Ir2 N10 2.269417 1_555
Ir3 N6 1.760643 1_555
Ir3 N4 1.760643 1_555
Ir3 N19 1.995791 1_555
Ir3 N14 2.269417 1_555
Ir3 N12 2.269417 1_555
Br0 N13 1.755408 1_555
Br0 N8 1.755408 1_555
Br1 N11 1.755408 1_555
Br1 N9 1.755408 1_555
Br2 N15 1.755408 1_555
Br2 N10 1.755408 1_555
Br3 N12 1.755408 1_555
Br3 N14 1.755408 1_555
Br4 Pt2 2.434877 1_655
Br5 Pt3 2.434877 1_455
Br6 Pt0 2.434877 1_455
Br7 Pt3 2.434877 1_555
Br8 Pt1 2.434877 1_655
Br9 Pt2 2.434877 1_555
Br10 Pt1 2.434877 1_555
Br11 Pt0 2.434877 1_555
Br12 Pt0 2.482907 1_555
Br13 Pt1 2.482907 1_555
Br14 Pt2 2.482907 1_555
Br15 Pt3 2.482907 1_555
N16 Pt0 1.793759 1_555
N17 Pt1 1.793759 1_555
N18 Pt2 1.793759 1_554
N19 Pt3 1.793759 1_556
Cl0 Ir3 2.338566 1_555
Cl1 Ir2 2.338566 1_555
Cl2 Ir1 2.338566 1_556
Cl3 Ir0 2.338566 1_554
