# generated using pymatgen
data_Co7GeN6
_symmetry_space_group_name_H-M   'P 1'
_cell_length_a   10.01391300
_cell_length_b   5.58483800
_cell_length_c   11.01764700
_cell_angle_alpha   90.00000000
_cell_angle_beta   90.00000000
_cell_angle_gamma   90.00000000
_symmetry_Int_Tables_number   1
_chemical_formula_structural   Co7GeN6
_chemical_formula_sum   'Co28 Ge4 N24'
_cell_volume   616.17382793
_cell_formula_units_Z   4
loop_
 _symmetry_equiv_pos_site_id
 _symmetry_equiv_pos_as_xyz
  1  'x, y, z'
loop_
 _atom_site_type_symbol
 _atom_site_label
 _atom_site_symmetry_multiplicity
 _atom_site_fract_x
 _atom_site_fract_y
 _atom_site_fract_z
 _atom_site_occupancy
  Co  Co0  1  0.98772900  0.72987600  0.03233600  1
  Co  Co1  1  0.51227100  0.77012400  0.53233600  1
  Co  Co2  1  0.48772900  0.77012400  0.96766400  1
  Co  Co3  1  0.01227100  0.72987600  0.46766400  1
  Co  Co4  1  0.01227100  0.27012400  0.96766400  1
  Co  Co5  1  0.48772900  0.22987600  0.46766400  1
  Co  Co6  1  0.51227100  0.22987600  0.03233600  1
  Co  Co7  1  0.98772900  0.27012400  0.53233600  1
  Co  Co8  1  0.24305900  0.68254900  0.61186200  1
  Co  Co9  1  0.25694100  0.81745100  0.11186200  1
  Co  Co10  1  0.74305900  0.81745100  0.38813800  1
  Co  Co11  1  0.75694100  0.68254900  0.88813800  1
  Co  Co12  1  0.75694100  0.31745100  0.38813800  1
  Co  Co13  1  0.74305900  0.18254900  0.88813800  1
  Co  Co14  1  0.25694100  0.18254900  0.61186200  1
  Co  Co15  1  0.24305900  0.31745100  0.11186200  1
  Co  Co16  1  0.17566500  0.59417700  0.90722000  1
  Co  Co17  1  0.32433500  0.90582300  0.40722000  1
  Co  Co18  1  0.67566500  0.90582300  0.09278000  1
  Co  Co19  1  0.82433500  0.59417700  0.59278000  1
  Co  Co20  1  0.82433500  0.40582300  0.09278000  1
  Co  Co21  1  0.67566500  0.09417700  0.59278000  1
  Co  Co22  1  0.32433500  0.09417700  0.90722000  1
  Co  Co23  1  0.17566500  0.40582300  0.40722000  1
  Co  Co24  1  0.00000000  0.42835900  0.75000000  1
  Co  Co25  1  0.50000000  0.07164100  0.25000000  1
  Co  Co26  1  0.00000000  0.57164100  0.25000000  1
  Co  Co27  1  0.50000000  0.92835900  0.75000000  1
  Ge  Ge0  1  0.00000000  0.91603400  0.75000000  1
  Ge  Ge1  1  0.50000000  0.58396600  0.25000000  1
  Ge  Ge2  1  0.00000000  0.08396600  0.25000000  1
  Ge  Ge3  1  0.50000000  0.41603400  0.75000000  1
  N  N0  1  0.13713800  0.66713600  0.74912500  1
  N  N1  1  0.36286200  0.83286400  0.24912500  1
  N  N2  1  0.63713800  0.83286400  0.25087500  1
  N  N3  1  0.86286200  0.66713600  0.75087500  1
  N  N4  1  0.86286200  0.33286400  0.25087500  1
  N  N5  1  0.63713800  0.16713600  0.75087500  1
  N  N6  1  0.36286200  0.16713600  0.74912500  1
  N  N7  1  0.13713800  0.33286400  0.24912500  1
  N  N8  1  0.19005100  0.71650900  0.45549600  1
  N  N9  1  0.30994900  0.78349100  0.95549600  1
  N  N10  1  0.69005100  0.78349100  0.54450400  1
  N  N11  1  0.80994900  0.71650900  0.04450400  1
  N  N12  1  0.80994900  0.28349100  0.54450400  1
  N  N13  1  0.69005100  0.21650900  0.04450400  1
  N  N14  1  0.30994900  0.21650900  0.45549600  1
  N  N15  1  0.19005100  0.28349100  0.95549600  1
  N  N16  1  0.41525300  0.67995600  0.66214300  1
  N  N17  1  0.08474700  0.82004400  0.16214300  1
  N  N18  1  0.91525300  0.82004400  0.33785700  1
  N  N19  1  0.58474700  0.67995600  0.83785700  1
  N  N20  1  0.58474700  0.32004400  0.33785700  1
  N  N21  1  0.91525300  0.17995600  0.83785700  1
  N  N22  1  0.08474700  0.17995600  0.66214300  1
  N  N23  1  0.41525300  0.32004400  0.16214300  1
loop_
_geom_bond_atom_site_label_1
_geom_bond_atom_site_label_2
_geom_bond_distance
_geom_bond_site_symmetry_2
Co0 N11 1.786874 1_555
Co0 N17 1.800788 1_655
Co1 N10 1.786874 1_555
Co1 N16 1.800788 1_555
Co2 N9 1.786874 1_555
Co2 N19 1.800788 1_555
Co3 N8 1.786874 1_555
Co3 N18 1.800788 1_455
Co4 N15 1.786874 1_555
Co4 N21 1.800788 1_455
Co5 N14 1.786874 1_555
Co5 N20 1.800788 1_555
Co6 N13 1.786874 1_555
Co6 N23 1.800788 1_555
Co7 N12 1.786874 1_555
Co7 N22 1.800788 1_655
Co8 N16 1.811197 1_555
Co8 N8 1.812658 1_555
Co8 N0 1.849204 1_555
Co9 N17 1.811197 1_555
Co9 N9 1.812658 1_554
Co9 N1 1.849204 1_555
Co10 N18 1.811197 1_555
Co10 N10 1.812658 1_555
Co10 N2 1.849204 1_555
Co11 N19 1.811197 1_555
Co11 N11 1.812658 1_556
Co11 N3 1.849204 1_555
Co12 N20 1.811197 1_555
Co12 N12 1.812658 1_555
Co12 N4 1.849204 1_555
Co13 N21 1.811197 1_555
Co13 N13 1.812658 1_556
Co13 N5 1.849204 1_555
Co14 N22 1.811197 1_555
Co14 N14 1.812658 1_555
Co14 N6 1.849204 1_555
Co15 N23 1.811197 1_555
Co15 N15 1.812658 1_554
Co15 N7 1.849204 1_555
Co16 N9 1.791369 1_555
Co16 N15 1.820532 1_555
Co16 N0 1.829990 1_555
Co17 N8 1.791369 1_555
Co17 N14 1.820532 1_565
Co17 N1 1.829990 1_555
Co18 N11 1.791369 1_555
Co18 N13 1.820532 1_565
Co18 N2 1.829990 1_555
Co19 N10 1.791369 1_555
Co19 N12 1.820532 1_555
Co19 N3 1.829990 1_555
Co20 N13 1.791369 1_555
Co20 N11 1.820532 1_555
Co20 N4 1.829990 1_555
Co21 N12 1.791369 1_555
Co21 N10 1.820532 1_545
Co21 N5 1.829990 1_555
Co22 N15 1.791369 1_555
Co22 N9 1.820532 1_545
Co22 N6 1.829990 1_555
Co23 N14 1.791369 1_555
Co23 N8 1.820532 1_555
Co23 N7 1.829990 1_555
Co24 N21 1.892554 1_455
Co24 N22 1.892554 1_555
Co24 N0 1.914241 1_555
Co24 N3 1.914241 1_455
Co25 N20 1.892554 1_555
Co25 N23 1.892554 1_555
Co25 N2 1.914241 1_545
Co25 N1 1.914241 1_545
Co26 N18 1.892554 1_455
Co26 N17 1.892554 1_555
Co26 N7 1.914241 1_555
Co26 N4 1.914241 1_455
Co27 N19 1.892554 1_555
Co27 N16 1.892554 1_555
Co27 N5 1.914241 1_565
Co27 N6 1.914241 1_565
Ge0 N0 1.954038 1_555
Ge0 N3 1.954038 1_455
Ge0 N21 1.956974 1_465
Ge0 N22 1.956974 1_565
Ge1 N2 1.954038 1_555
Ge1 N1 1.954038 1_555
Ge1 N20 1.956974 1_555
Ge1 N23 1.956974 1_555
Ge2 N7 1.954038 1_555
Ge2 N4 1.954038 1_455
Ge2 N18 1.956974 1_445
Ge2 N17 1.956974 1_545
Ge3 N5 1.954038 1_555
Ge3 N6 1.954038 1_555
Ge3 N19 1.956974 1_555
Ge3 N16 1.956974 1_555
