# generated using pymatgen
data_NaLiMg30O31
_symmetry_space_group_name_H-M   'P 1'
_cell_length_a   8.52690200
_cell_length_b   8.53457100
_cell_length_c   8.57883700
_cell_angle_alpha   90.00000000
_cell_angle_beta   90.00000000
_cell_angle_gamma   90.00000000
_symmetry_Int_Tables_number   1
_chemical_formula_structural   NaLiMg30O31
_chemical_formula_sum   'Na1 Li1 Mg30 O31'
_cell_volume   624.31157002
_cell_formula_units_Z   1
loop_
 _symmetry_equiv_pos_site_id
 _symmetry_equiv_pos_as_xyz
  1  'x, y, z'
loop_
 _atom_site_type_symbol
 _atom_site_label
 _atom_site_symmetry_multiplicity
 _atom_site_fract_x
 _atom_site_fract_y
 _atom_site_fract_z
 _atom_site_occupancy
  Na  Na0  1  0.00271200  0.50000000  0.00000000  1
  Li  Li0  1  0.02258500  0.00000000  0.00000000  1
  Mg  Mg0  1  0.00376800  0.00000000  0.50000000  1
  Mg  Mg1  1  0.00140500  0.50000000  0.50000000  1
  Mg  Mg2  1  0.47962700  0.00000000  0.00000000  1
  Mg  Mg3  1  0.49839300  0.50000000  0.00000000  1
  Mg  Mg4  1  0.49720700  0.00000000  0.50000000  1
  Mg  Mg5  1  0.49863600  0.50000000  0.50000000  1
  Mg  Mg6  1  0.99938500  0.75239200  0.75461200  1
  Mg  Mg7  1  0.99938500  0.24760800  0.75461200  1
  Mg  Mg8  1  0.99938500  0.75239200  0.24538800  1
  Mg  Mg9  1  0.99938500  0.24760800  0.24538800  1
  Mg  Mg10  1  0.50022500  0.75030900  0.75134200  1
  Mg  Mg11  1  0.50022500  0.24969100  0.75134200  1
  Mg  Mg12  1  0.50022500  0.75030900  0.24865800  1
  Mg  Mg13  1  0.50022500  0.24969100  0.24865800  1
  Mg  Mg14  1  0.75576000  0.72935300  0.00000000  1
  Mg  Mg15  1  0.75576000  0.27064700  0.00000000  1
  Mg  Mg16  1  0.75148300  0.74706000  0.50000000  1
  Mg  Mg17  1  0.75148300  0.25294000  0.50000000  1
  Mg  Mg18  1  0.24159100  0.75068500  0.00000000  1
  Mg  Mg19  1  0.24159100  0.24931500  0.00000000  1
  Mg  Mg20  1  0.24842400  0.74915700  0.50000000  1
  Mg  Mg21  1  0.24842400  0.25084300  0.50000000  1
  Mg  Mg22  1  0.75472300  0.00000000  0.73035100  1
  Mg  Mg23  1  0.75229000  0.50000000  0.74856600  1
  Mg  Mg24  1  0.75472300  0.00000000  0.26964900  1
  Mg  Mg25  1  0.75229000  0.50000000  0.25143400  1
  Mg  Mg26  1  0.24288700  0.00000000  0.75249700  1
  Mg  Mg27  1  0.24732900  0.50000000  0.75149300  1
  Mg  Mg28  1  0.24288700  0.00000000  0.24750300  1
  Mg  Mg29  1  0.24732900  0.50000000  0.24850700  1
  O  O0  1  0.73594500  0.50000000  0.00000000  1
  O  O1  1  0.74664400  0.00000000  0.50000000  1
  O  O2  1  0.74656400  0.50000000  0.50000000  1
  O  O3  1  0.25089600  0.00000000  0.00000000  1
  O  O4  1  0.26385900  0.50000000  0.00000000  1
  O  O5  1  0.25305600  0.00000000  0.50000000  1
  O  O6  1  0.25301000  0.50000000  0.50000000  1
  O  O7  1  0.74951900  0.75499700  0.75446400  1
  O  O8  1  0.74951900  0.24500300  0.75446400  1
  O  O9  1  0.74951900  0.75499700  0.24553600  1
  O  O10  1  0.74951900  0.24500300  0.24553600  1
  O  O11  1  0.25052500  0.75131100  0.75166900  1
  O  O12  1  0.25052500  0.24868900  0.75166900  1
  O  O13  1  0.25052500  0.75131100  0.24833100  1
  O  O14  1  0.25052500  0.24868900  0.24833100  1
  O  O15  1  0.99173600  0.76633800  0.00000000  1
  O  O16  1  0.99173600  0.23366200  0.00000000  1
  O  O17  1  0.99863600  0.75207900  0.50000000  1
  O  O18  1  0.99863600  0.24792100  0.50000000  1
  O  O19  1  0.50891300  0.75937500  0.00000000  1
  O  O20  1  0.50891300  0.24062500  0.00000000  1
  O  O21  1  0.50134000  0.75197100  0.50000000  1
  O  O22  1  0.50134000  0.24802900  0.50000000  1
  O  O23  1  0.99601300  0.00000000  0.74222100  1
  O  O24  1  0.99825100  0.50000000  0.73742900  1
  O  O25  1  0.99601300  0.00000000  0.25777900  1
  O  O26  1  0.99825100  0.50000000  0.26257100  1
  O  O27  1  0.50751100  0.00000000  0.75559100  1
  O  O28  1  0.50164800  0.50000000  0.74871400  1
  O  O29  1  0.50751100  0.00000000  0.24440900  1
  O  O30  1  0.50164800  0.50000000  0.25128600  1
loop_
_geom_bond_atom_site_label_1
_geom_bond_atom_site_label_2
_geom_bond_distance
_geom_bond_site_symmetry_2
Na0 O4 2.226775 1_555
Na0 O26 2.252875 1_455
Na0 O24 2.252875 1_454
Na0 O0 2.274696 1_455
Na0 O15 2.275007 1_455
Na0 O16 2.275007 1_455
Li0 O3 1.946786 1_555
Li0 O16 2.011479 1_455
Li0 O15 2.011479 1_445
Li0 O23 2.223021 1_454
Li0 O25 2.223021 1_455
Mg0 O23 2.079026 1_455
Mg0 O25 2.079026 1_455
Mg0 O18 2.116352 1_455
Mg0 O17 2.116352 1_445
Mg0 O5 2.125654 1_555
Mg0 O1 2.192471 1_455
Mg1 O24 2.037042 1_455
Mg1 O26 2.037042 1_455
Mg1 O6 2.145411 1_555
Mg1 O17 2.151516 1_455
Mg1 O18 2.151516 1_455
Mg1 O2 2.173004 1_455
Mg2 O3 1.950367 1_555
Mg2 O20 2.068758 1_555
Mg2 O19 2.068758 1_545
Mg2 O27 2.110183 1_554
Mg2 O29 2.110183 1_555
Mg3 O4 1.999848 1_555
Mg3 O0 2.025583 1_555
Mg3 O30 2.155920 1_555
Mg3 O28 2.155920 1_554
Mg3 O19 2.215471 1_555
Mg3 O20 2.215471 1_555
Mg4 O5 2.081852 1_555
Mg4 O22 2.117114 1_555
Mg4 O21 2.117114 1_545
Mg4 O1 2.126925 1_555
Mg4 O27 2.194433 1_555
Mg4 O29 2.194433 1_555
Mg5 O6 2.094429 1_555
Mg5 O2 2.114058 1_555
Mg5 O30 2.133831 1_555
Mg5 O28 2.133831 1_555
Mg5 O21 2.150588 1_555
Mg5 O22 2.150588 1_555
Mg6 O15 2.109514 1_556
Mg6 O23 2.116095 1_565
Mg6 O7 2.130699 1_555
Mg6 O11 2.141615 1_655
Mg6 O24 2.159117 1_555
Mg6 O17 2.184286 1_555
Mg7 O16 2.109514 1_556
Mg7 O23 2.116095 1_555
Mg7 O8 2.130699 1_555
Mg7 O12 2.141615 1_655
Mg7 O24 2.159117 1_555
Mg7 O18 2.184286 1_555
Mg8 O15 2.109514 1_555
Mg8 O25 2.116095 1_565
Mg8 O9 2.130699 1_555
Mg8 O13 2.141615 1_655
Mg8 O26 2.159117 1_555
Mg8 O17 2.184286 1_555
Mg9 O16 2.109514 1_555
Mg9 O25 2.116095 1_555
Mg9 O10 2.130699 1_555
Mg9 O14 2.141615 1_655
Mg9 O26 2.159117 1_555
Mg9 O18 2.184286 1_555
Mg10 O7 2.126251 1_555
Mg10 O11 2.129186 1_555
Mg10 O27 2.132223 1_565
Mg10 O19 2.135884 1_556
Mg10 O28 2.136433 1_555
Mg10 O21 2.156290 1_555
Mg11 O8 2.126251 1_555
Mg11 O12 2.129186 1_555
Mg11 O27 2.132223 1_555
Mg11 O20 2.135884 1_556
Mg11 O28 2.136433 1_555
Mg11 O22 2.156290 1_555
Mg12 O9 2.126251 1_555
Mg12 O13 2.129186 1_555
Mg12 O29 2.132223 1_565
Mg12 O19 2.135884 1_555
Mg12 O30 2.136433 1_555
Mg12 O21 2.156290 1_555
Mg13 O10 2.126251 1_555
Mg13 O14 2.129186 1_555
Mg13 O29 2.132223 1_555
Mg13 O20 2.135884 1_555
Mg13 O30 2.136433 1_555
Mg13 O22 2.156290 1_555
Mg14 O0 1.964708 1_555
Mg14 O15 2.036752 1_555
Mg14 O9 2.118421 1_555
Mg14 O7 2.118421 1_554
Mg14 O19 2.120378 1_555
Mg15 O0 1.964708 1_555
Mg15 O16 2.036752 1_555
Mg15 O10 2.118421 1_555
Mg15 O8 2.118421 1_554
Mg15 O20 2.120378 1_555
Mg16 O17 2.107885 1_555
Mg16 O2 2.108968 1_555
Mg16 O21 2.133357 1_555
Mg16 O1 2.159129 1_565
Mg16 O7 2.184120 1_555
Mg16 O9 2.184120 1_555
Mg17 O18 2.107885 1_555
Mg17 O2 2.108968 1_555
Mg17 O22 2.133357 1_555
Mg17 O1 2.159129 1_555
Mg17 O8 2.184120 1_555
Mg17 O10 2.184120 1_555
Mg18 O3 2.129275 1_565
Mg18 O13 2.131759 1_555
Mg18 O11 2.131759 1_554
Mg18 O15 2.134673 1_455
Mg18 O4 2.147898 1_555
Mg18 O19 2.280635 1_555
Mg19 O3 2.129275 1_555
Mg19 O14 2.131759 1_555
Mg19 O12 2.131759 1_554
Mg19 O16 2.134673 1_455
Mg19 O4 2.147898 1_555
Mg19 O20 2.280635 1_555
Mg20 O6 2.126808 1_555
Mg20 O17 2.130064 1_455
Mg20 O5 2.141202 1_565
Mg20 O21 2.156724 1_555
Mg20 O11 2.159180 1_555
Mg20 O13 2.159180 1_555
Mg21 O6 2.126808 1_555
Mg21 O18 2.130064 1_455
Mg21 O5 2.141202 1_555
Mg21 O22 2.156724 1_555
Mg21 O12 2.159180 1_555
Mg21 O14 2.159180 1_555
Mg22 O1 1.977344 1_555
Mg22 O23 2.059975 1_555
Mg22 O8 2.101671 1_555
Mg22 O7 2.101671 1_545
Mg22 O27 2.119044 1_555
Mg23 O24 2.099460 1_555
Mg23 O2 2.132966 1_555
Mg23 O28 2.137200 1_555
Mg23 O0 2.161509 1_556
Mg23 O7 2.177006 1_555
Mg23 O8 2.177006 1_555
Mg24 O1 1.977344 1_555
Mg24 O25 2.059975 1_555
Mg24 O10 2.101671 1_555
Mg24 O9 2.101671 1_545
Mg24 O29 2.119044 1_555
Mg25 O26 2.099460 1_555
Mg25 O2 2.132966 1_555
Mg25 O30 2.137200 1_555
Mg25 O0 2.161509 1_555
Mg25 O9 2.177006 1_555
Mg25 O10 2.177006 1_555
Mg26 O23 2.106915 1_455
Mg26 O12 2.123465 1_555
Mg26 O11 2.123465 1_545
Mg26 O3 2.124386 1_556
Mg26 O5 2.167865 1_555
Mg26 O27 2.256579 1_555
Mg27 O24 2.127288 1_455
Mg27 O4 2.136555 1_556
Mg27 O11 2.145005 1_555
Mg27 O12 2.145005 1_555
Mg27 O6 2.158061 1_555
Mg27 O28 2.168684 1_555
Mg28 O25 2.106915 1_455
Mg28 O14 2.123465 1_555
Mg28 O13 2.123465 1_545
Mg28 O3 2.124386 1_555
Mg28 O5 2.167865 1_555
Mg28 O29 2.256579 1_555
Mg29 O26 2.127288 1_455
Mg29 O4 2.136555 1_555
Mg29 O13 2.145005 1_555
Mg29 O14 2.145005 1_555
Mg29 O6 2.158061 1_555
Mg29 O30 2.168684 1_555
