# generated using pymatgen
data_MgAg4Te8(MoO12)2
_symmetry_space_group_name_H-M   'P 1'
_cell_length_a   5.83690500
_cell_length_b   9.55743366
_cell_length_c   12.00548064
_cell_angle_alpha   102.06379198
_cell_angle_beta   89.28298771
_cell_angle_gamma   107.64404984
_symmetry_Int_Tables_number   1
_chemical_formula_structural   MgAg4Te8(MoO12)2
_chemical_formula_sum   'Mg1 Ag4 Te8 Mo2 O24'
_cell_volume   623.20571193
_cell_formula_units_Z   1
loop_
 _symmetry_equiv_pos_site_id
 _symmetry_equiv_pos_as_xyz
  1  'x, y, z'
loop_
 _atom_site_type_symbol
 _atom_site_label
 _atom_site_symmetry_multiplicity
 _atom_site_fract_x
 _atom_site_fract_y
 _atom_site_fract_z
 _atom_site_occupancy
  Mg  Mg0  1  0.03196363  0.93106086  0.96475618  1
  Ag  Ag0  1  0.93067780  0.45369778  0.31936368  1
  Ag  Ag1  1  0.53098018  0.57820488  0.25619395  1
  Ag  Ag2  1  0.01525224  0.57198477  0.74755898  1
  Ag  Ag3  1  0.48895352  0.43638462  0.76333611  1
  Te  Te0  1  0.98500438  0.66738257  0.07929224  1
  Te  Te1  1  0.31285262  0.29874871  0.42614789  1
  Te  Te2  1  0.00133362  0.30305392  0.91971263  1
  Te  Te3  1  0.69718339  0.67539312  0.55593308  1
  Te  Te4  1  0.51185169  0.81938782  0.88265940  1
  Te  Te5  1  0.81482270  0.19561880  0.59780792  1
  Te  Te6  1  0.42710813  0.21738349  0.10076622  1
  Te  Te7  1  0.27849238  0.83931661  0.38755578  1
  Mo  Mo0  1  0.13730052  0.99417673  0.72116838  1
  Mo  Mo1  1  0.86628867  0.99708267  0.24727407  1
  O  O0  1  0.80779472  0.96794195  0.86219128  1
  O  O1  1  0.87808346  0.02017121  0.62569814  1
  O  O2  1  0.17807758  0.03624302  0.11764057  1
  O  O3  1  0.14776879  0.98392803  0.34802417  1
  O  O4  1  0.80229712  0.77388368  0.18511173  1
  O  O5  1  0.99897935  0.21984790  0.34521076  1
  O  O6  1  0.20440405  0.20096062  0.82960568  1
  O  O7  1  0.97860450  0.77668595  0.66952670  1
  O  O8  1  0.77943464  0.47517105  0.08135731  1
  O  O9  1  0.33239767  0.49908837  0.42694958  1
  O  O10  1  0.18529443  0.49498106  0.90428949  1
  O  O11  1  0.70002379  0.48670915  0.58178054  1
  O  O12  1  0.29973482  0.94409774  0.85813208  1
  O  O13  1  0.37634079  0.03047978  0.63308757  1
  O  O14  1  0.71700112  0.03854995  0.13774184  1
  O  O15  1  0.61573099  0.95854622  0.35765544  1
  O  O16  1  0.84395971  0.71894492  0.95085505  1
  O  O17  1  0.14943165  0.30312860  0.58243424  1
  O  O18  1  0.19787334  0.31574636  0.06852129  1
  O  O19  1  0.89443224  0.68442275  0.42614344  1
  O  O20  1  0.45999447  0.68819324  0.74042660  1
  O  O21  1  0.80164618  0.29560476  0.75170134  1
  O  O22  1  0.49434691  0.30944374  0.25691728  1
  O  O23  1  0.22003322  0.69120961  0.25058336  1
loop_
_geom_bond_atom_site_label_1
_geom_bond_atom_site_label_2
_geom_bond_distance
_geom_bond_site_symmetry_2
Mg0 O0 1.963119 1_455
Mg0 O2 1.963413 1_566
Mg0 O16 1.963795 1_455
Mg0 O12 1.998871 1_555
Ag0 O19 2.375955 1_555
Ag0 O5 2.466499 1_555
Ag0 O22 2.536992 1_555
Ag0 O9 2.565056 1_655
Ag0 O23 2.666789 1_655
Ag1 O4 2.360442 1_555
Ag1 O23 2.384720 1_555
Ag1 O9 2.484949 1_555
Ag1 O22 2.513994 1_555
Ag1 O8 2.721052 1_555
Ag1 O19 2.762424 1_555
Ag2 O7 2.403284 1_455
Ag2 O10 2.477021 1_555
Ag2 O20 2.503213 1_555
Ag2 O11 2.552518 1_455
Ag2 O21 2.567352 1_455
Ag3 O20 2.533891 1_555
Ag3 O10 2.539538 1_555
Ag3 O11 2.551837 1_555
Ag3 O21 2.562188 1_555
Ag3 O6 2.627550 1_555
Ag3 O17 2.772664 1_555
Mo0 O13 1.734445 1_565
Mo0 O7 1.967656 1_455
Mo0 O1 2.013695 1_465
Mo0 O6 2.054777 1_565
Mo0 O12 2.115386 1_555
Mo0 O0 2.536129 1_455
Mo1 O14 1.761088 1_565
Mo1 O15 1.964584 1_555
Mo1 O4 2.026216 1_555
Mo1 O3 2.101596 1_655
Mo1 O5 2.119437 1_565
Mo1 O2 2.373573 1_665
O0 Te4 1.925760 1_555
O1 Te5 1.916596 1_555
O2 Te6 1.940314 1_555
O3 Te7 1.907937 1_555
O4 Te0 1.967469 1_555
O5 Te1 1.941651 1_655
O6 Te2 1.937802 1_555
O7 Te3 2.008842 1_555
O8 Te0 1.870070 1_555
O9 Te1 1.881280 1_555
O9 Te3 2.566644 1_555
O10 Te2 1.869496 1_555
O11 Te3 1.897564 1_555
O12 Te4 2.022540 1_555
O15 Te7 2.023767 1_555
O16 Te0 1.973214 1_556
O16 Te4 2.616469 1_555
O17 Te5 1.938578 1_455
O17 Te1 2.092530 1_555
O18 Te6 1.936893 1_555
O18 Te2 2.097318 1_554
O19 Te3 1.926659 1_555
O19 Te7 2.383358 1_655
O20 Te4 1.862130 1_555
O20 Te3 2.598126 1_555
O21 Te5 1.906723 1_555
O21 Te2 2.319616 1_655
O22 Te6 1.887373 1_555
O22 Te1 2.286435 1_555
O23 Te7 1.890108 1_555
O23 Te0 2.418304 1_455
