# generated using pymatgen
data_AgN2ClO4
_symmetry_space_group_name_H-M   'P 1'
_cell_length_a   7.00079500
_cell_length_b   7.44878900
_cell_length_c   10.87585700
_cell_angle_alpha   90.00000000
_cell_angle_beta   90.00000000
_cell_angle_gamma   90.00000000
_symmetry_Int_Tables_number   1
_chemical_formula_structural   AgN2ClO4
_chemical_formula_sum   'Ag4 N8 Cl4 O16'
_cell_volume   567.14815242
_cell_formula_units_Z   4
loop_
 _symmetry_equiv_pos_site_id
 _symmetry_equiv_pos_as_xyz
  1  'x, y, z'
loop_
 _atom_site_type_symbol
 _atom_site_label
 _atom_site_symmetry_multiplicity
 _atom_site_fract_x
 _atom_site_fract_y
 _atom_site_fract_z
 _atom_site_occupancy
  Ag  Ag0  1  0.00000000  0.50000000  0.50000000  1
  Ag  Ag1  1  0.50000000  0.00000000  0.00000000  1
  Ag  Ag2  1  0.00000000  0.00000000  0.00000000  1
  Ag  Ag3  1  0.50000000  0.50000000  0.50000000  1
  N  N0  1  0.00000000  0.21463200  0.45770100  1
  N  N1  1  0.00000000  0.78536800  0.54229900  1
  N  N2  1  0.50000000  0.71463200  0.04229900  1
  N  N3  1  0.50000000  0.28536800  0.95770100  1
  N  N4  1  0.00000000  0.92467300  0.81130800  1
  N  N5  1  0.00000000  0.07532700  0.18869200  1
  N  N6  1  0.50000000  0.42467300  0.68869200  1
  N  N7  1  0.50000000  0.57532700  0.31130800  1
  Cl  Cl0  1  0.00000000  0.45132400  0.81975600  1
  Cl  Cl1  1  0.00000000  0.54867600  0.18024400  1
  Cl  Cl2  1  0.50000000  0.95132400  0.68024400  1
  Cl  Cl3  1  0.50000000  0.04867600  0.31975600  1
  O  O0  1  0.82889000  0.55700500  0.83737800  1
  O  O1  1  0.82889000  0.44299500  0.16262200  1
  O  O2  1  0.67111000  0.05700500  0.66262200  1
  O  O3  1  0.67111000  0.94299500  0.33737800  1
  O  O4  1  0.17111000  0.44299500  0.16262200  1
  O  O5  1  0.17111000  0.55700500  0.83737800  1
  O  O6  1  0.32889000  0.94299500  0.33737800  1
  O  O7  1  0.32889000  0.05700500  0.66262200  1
  O  O8  1  0.00000000  0.37294800  0.69213000  1
  O  O9  1  0.00000000  0.62705200  0.30787000  1
  O  O10  1  0.50000000  0.87294800  0.80787000  1
  O  O11  1  0.50000000  0.12705200  0.19213000  1
  O  O12  1  0.00000000  0.29718700  0.90451800  1
  O  O13  1  0.00000000  0.70281300  0.09548200  1
  O  O14  1  0.50000000  0.79718700  0.59548200  1
  O  O15  1  0.50000000  0.20281300  0.40451800  1
loop_
_geom_bond_atom_site_label_1
_geom_bond_atom_site_label_2
_geom_bond_distance
_geom_bond_site_symmetry_2
Ag0 N1 2.174858 1_555
Ag0 N0 2.174858 1_555
Ag0 O9 2.293901 1_555
Ag0 O8 2.293901 1_555
Ag1 N2 2.174858 1_545
Ag1 N3 2.174858 1_554
Ag1 O11 2.293901 1_555
Ag1 O10 2.293901 1_544
Ag2 N5 2.127510 1_555
Ag2 N4 2.127510 1_544
Ag2 O12 2.445152 1_554
Ag2 O13 2.445152 1_545
Ag3 N6 2.127510 1_555
Ag3 N7 2.127510 1_555
Ag3 O14 2.445152 1_555
Ag3 O15 2.445152 1_555
Cl0 O0 1.446163 1_455
Cl0 O5 1.446163 1_555
Cl0 O12 1.472425 1_555
Cl0 O8 1.505819 1_555
Cl1 O1 1.446163 1_455
Cl1 O4 1.446163 1_555
Cl1 O13 1.472425 1_555
Cl1 O9 1.505819 1_555
Cl2 O2 1.446163 1_565
Cl2 O7 1.446163 1_565
Cl2 O14 1.472425 1_555
Cl2 O10 1.505819 1_555
Cl3 O6 1.446163 1_545
Cl3 O3 1.446163 1_545
Cl3 O15 1.472425 1_555
Cl3 O11 1.505819 1_555
