# generated using pymatgen
data_Nd(GeAu)2
_symmetry_space_group_name_H-M   'P 1'
_cell_length_a   6.09538773
_cell_length_b   6.09538773
_cell_length_c   6.09538773
_cell_angle_alpha   137.58299748
_cell_angle_beta   137.58299748
_cell_angle_gamma   61.54226118
_symmetry_Int_Tables_number   1
_chemical_formula_structural   Nd(GeAu)2
_chemical_formula_sum   'Nd1 Ge2 Au2'
_cell_volume   101.86273037
_cell_formula_units_Z   1
loop_
 _symmetry_equiv_pos_site_id
 _symmetry_equiv_pos_as_xyz
  1  'x, y, z'
loop_
 _atom_site_type_symbol
 _atom_site_label
 _atom_site_symmetry_multiplicity
 _atom_site_fract_x
 _atom_site_fract_y
 _atom_site_fract_z
 _atom_site_occupancy
  Nd  Nd0  1  -0.00000000  -0.00000000  0.00000000  1
  Ge  Ge0  1  0.61642919  0.61642919  0.00000000  1
  Ge  Ge1  1  0.38357081  0.38357081  -0.00000000  1
  Au  Au0  1  0.75000000  0.25000000  0.50000000  1
  Au  Au1  1  0.25000000  0.75000000  0.50000000  1
loop_
_geom_bond_atom_site_label_1
_geom_bond_atom_site_label_2
_geom_bond_distance
_geom_bond_site_symmetry_2
Ge0 Ge1 2.439082 1_555
Ge0 Nd0 3.348445 1_666
Ge0 Nd0 3.348445 1_655
Ge0 Nd0 3.348445 1_565
Ge0 Nd0 3.348445 1_554
Ge1 Nd0 3.348445 1_554
Ge1 Nd0 3.348445 1_565
Ge1 Nd0 3.348445 1_655
Ge1 Nd0 3.348445 1_666
Au0 Ge1 2.611486 1_656
Au0 Ge1 2.611486 1_555
Au0 Ge0 2.611486 1_556
Au0 Ge0 2.611486 1_545
Au0 Nd0 3.423396 1_656
Au0 Nd0 3.423396 1_655
Au0 Nd0 3.423396 1_666
Au0 Nd0 3.423396 1_555
Au1 Ge1 2.611486 1_566
Au1 Ge1 2.611486 1_555
Au1 Ge0 2.611486 1_556
Au1 Ge0 2.611486 1_455
Au1 Nd0 3.423396 1_565
Au1 Nd0 3.423396 1_566
Au1 Nd0 3.423396 1_555
Au1 Nd0 3.423396 1_666
