# generated using pymatgen
data_Rb4FeSbCl12
_symmetry_space_group_name_H-M   'P 1'
_cell_length_a   7.17338300
_cell_length_b   7.17338300
_cell_length_c   10.20773200
_cell_angle_alpha   90.00000000
_cell_angle_beta   90.00000000
_cell_angle_gamma   90.00000000
_symmetry_Int_Tables_number   1
_chemical_formula_structural   Rb4FeSbCl12
_chemical_formula_sum   'Rb4 Fe1 Sb1 Cl12'
_cell_volume   525.26359018
_cell_formula_units_Z   1
loop_
 _symmetry_equiv_pos_site_id
 _symmetry_equiv_pos_as_xyz
  1  'x, y, z'
loop_
 _atom_site_type_symbol
 _atom_site_label
 _atom_site_symmetry_multiplicity
 _atom_site_fract_x
 _atom_site_fract_y
 _atom_site_fract_z
 _atom_site_occupancy
  Rb  Rb0  1  0.50000000  0.00000000  0.75859500  1
  Rb  Rb1  1  0.00000000  0.50000000  0.24140500  1
  Rb  Rb2  1  0.50000000  0.00000000  0.24140500  1
  Rb  Rb3  1  0.00000000  0.50000000  0.75859500  1
  Fe  Fe0  1  0.00000000  0.00000000  0.00000000  1
  Sb  Sb0  1  0.50000000  0.50000000  0.50000000  1
  Cl  Cl0  1  0.00000000  0.00000000  0.77810700  1
  Cl  Cl1  1  0.50000000  0.50000000  0.25255300  1
  Cl  Cl2  1  0.74801100  0.74801100  0.50000000  1
  Cl  Cl3  1  0.22438300  0.22438300  0.00000000  1
  Cl  Cl4  1  0.74801100  0.25198900  0.50000000  1
  Cl  Cl5  1  0.22438300  0.77561700  0.00000000  1
  Cl  Cl6  1  0.00000000  0.00000000  0.22189300  1
  Cl  Cl7  1  0.50000000  0.50000000  0.74744700  1
  Cl  Cl8  1  0.25198900  0.25198900  0.50000000  1
  Cl  Cl9  1  0.77561700  0.77561700  0.00000000  1
  Cl  Cl10  1  0.25198900  0.74801100  0.50000000  1
  Cl  Cl11  1  0.77561700  0.22438300  0.00000000  1
loop_
_geom_bond_atom_site_label_1
_geom_bond_atom_site_label_2
_geom_bond_distance
_geom_bond_site_symmetry_2
Cl0 Fe0 2.265024 1_556
Cl0 Rb0 3.592217 1_455
Cl0 Rb0 3.592217 1_555
Cl0 Rb3 3.592217 1_545
Cl0 Rb3 3.592217 1_555
Cl1 Sb0 2.525873 1_555
Cl1 Rb1 3.588496 1_655
Cl1 Rb2 3.588496 1_555
Cl1 Rb2 3.588496 1_565
Cl1 Rb1 3.588496 1_555
Cl2 Sb0 2.515996 1_555
Cl2 Rb2 3.660660 1_565
Cl2 Rb1 3.660660 1_655
Cl2 Rb0 3.660660 1_565
Cl2 Rb3 3.660660 1_655
Cl3 Fe0 2.276297 1_555
Cl3 Rb0 3.545699 1_554
Cl3 Rb3 3.545699 1_554
Cl3 Rb2 3.545699 1_555
Cl3 Rb1 3.545699 1_555
Cl4 Sb0 2.515996 1_555
Cl4 Rb0 3.660660 1_555
Cl4 Rb2 3.660660 1_555
Cl4 Rb1 3.660660 1_655
Cl4 Rb3 3.660660 1_655
Cl5 Fe0 2.276297 1_565
Cl5 Rb3 3.545699 1_554
Cl5 Rb0 3.545699 1_564
Cl5 Rb2 3.545699 1_565
Cl5 Rb1 3.545699 1_555
Cl6 Fe0 2.265024 1_555
Cl6 Rb1 3.592217 1_545
Cl6 Rb2 3.592217 1_555
Cl6 Rb1 3.592217 1_555
Cl6 Rb2 3.592217 1_455
Cl7 Sb0 2.525873 1_555
Cl7 Rb0 3.588496 1_555
Cl7 Rb3 3.588496 1_655
Cl7 Rb0 3.588496 1_565
Cl7 Rb3 3.588496 1_555
Cl8 Sb0 2.515996 1_555
Cl8 Rb0 3.660660 1_555
Cl8 Rb1 3.660660 1_555
Cl8 Rb2 3.660660 1_555
Cl8 Rb3 3.660660 1_555
Cl9 Fe0 2.276297 1_665
Cl9 Rb3 3.545699 1_654
Cl9 Rb0 3.545699 1_564
Cl9 Rb1 3.545699 1_655
Cl9 Rb2 3.545699 1_565
Cl10 Sb0 2.515996 1_555
Cl10 Rb2 3.660660 1_565
Cl10 Rb1 3.660660 1_555
Cl10 Rb3 3.660660 1_555
Cl10 Rb0 3.660660 1_565
Cl11 Fe0 2.276297 1_655
Cl11 Rb0 3.545699 1_554
Cl11 Rb3 3.545699 1_654
Cl11 Rb1 3.545699 1_655
Cl11 Rb2 3.545699 1_555
