# generated using pymatgen
data_RbNd2CuS4
_symmetry_space_group_name_H-M   'P 1'
_cell_length_a   7.34774261
_cell_length_b   7.34774261
_cell_length_c   14.03353693
_cell_angle_alpha   90.00000000
_cell_angle_beta   90.00000000
_cell_angle_gamma   147.70587414
_symmetry_Int_Tables_number   1
_chemical_formula_structural   RbNd2CuS4
_chemical_formula_sum   'Rb2 Nd4 Cu2 S8'
_cell_volume   404.79234854
_cell_formula_units_Z   2
loop_
 _symmetry_equiv_pos_site_id
 _symmetry_equiv_pos_as_xyz
  1  'x, y, z'
loop_
 _atom_site_type_symbol
 _atom_site_label
 _atom_site_symmetry_multiplicity
 _atom_site_fract_x
 _atom_site_fract_y
 _atom_site_fract_z
 _atom_site_occupancy
  Rb  Rb0  1  0.10562679  0.89437321  0.25000000  1
  Rb  Rb1  1  0.89437321  0.10562679  0.75000000  1
  Nd  Nd0  1  0.63461824  0.36538176  0.93863587  1
  Nd  Nd1  1  0.36538176  0.63461824  0.43863587  1
  Nd  Nd2  1  0.63461824  0.36538176  0.56136413  1
  Nd  Nd3  1  0.36538176  0.63461824  0.06136413  1
  Cu  Cu0  1  0.16486944  0.83513056  0.75000000  1
  Cu  Cu1  1  0.83513056  0.16486944  0.25000000  1
  S  S0  1  -0.00000000  0.00000000  0.50000000  1
  S  S1  1  -0.00000000  0.00000000  0.00000000  1
  S  S2  1  0.42392638  0.57607362  0.25000000  1
  S  S3  1  0.57607362  0.42392638  0.75000000  1
  S  S4  1  0.73964657  0.26035343  0.38630599  1
  S  S5  1  0.26035343  0.73964657  0.88630599  1
  S  S6  1  0.26035343  0.73964657  0.61369401  1
  S  S7  1  0.73964657  0.26035343  0.11369401  1
loop_
_geom_bond_atom_site_label_1
_geom_bond_atom_site_label_2
_geom_bond_distance
_geom_bond_site_symmetry_2
Rb0 S2 3.279334 1_455
Rb0 S2 3.279334 1_565
Rb0 S7 3.378389 1_455
Rb0 S4 3.378389 1_455
Rb0 S7 3.378389 1_565
Rb0 S4 3.378389 1_565
Rb0 S0 3.812066 1_565
Rb0 S1 3.812066 1_565
Rb1 S3 3.279334 1_655
Rb1 S3 3.279334 1_545
Rb1 S6 3.378389 1_545
Rb1 S5 3.378389 1_545
Rb1 S5 3.378389 1_655
Rb1 S6 3.378389 1_655
Rb1 S1 3.812066 1_656
Rb1 S0 3.812066 1_655
Nd0 S3 2.773222 1_555
Nd0 S5 2.804464 1_655
Nd0 S5 2.804464 1_545
Nd0 S7 2.869368 1_556
Nd0 S1 2.920295 1_556
Nd0 S1 2.920295 1_666
Nd1 S2 2.773222 1_555
Nd1 S4 2.804464 1_565
Nd1 S4 2.804464 1_455
Nd1 S6 2.869368 1_555
Nd1 S0 2.920295 1_665
Nd1 S0 2.920295 1_555
Nd2 S3 2.773222 1_555
Nd2 S6 2.804464 1_655
Nd2 S6 2.804464 1_545
Nd2 S4 2.869368 1_555
Nd2 S0 2.920295 1_665
Nd2 S0 2.920295 1_555
Nd3 S2 2.773222 1_555
Nd3 S7 2.804464 1_565
Nd3 S7 2.804464 1_455
Nd3 S5 2.869368 1_554
Nd3 S1 2.920295 1_665
Nd3 S1 2.920295 1_555
Cu0 S6 2.340013 1_555
Cu0 S5 2.340013 1_555
Cu0 S3 2.397225 1_565
Cu0 S3 2.397225 1_455
Cu1 S4 2.340013 1_555
Cu1 S7 2.340013 1_555
Cu1 S2 2.397225 1_655
Cu1 S2 2.397225 1_545
