# generated using pymatgen
data_B10Pb4Cl2O19
_symmetry_space_group_name_H-M   'P 1'
_cell_length_a   6.62874200
_cell_length_b   11.52738600
_cell_length_c   11.68105400
_cell_angle_alpha   90.00000000
_cell_angle_beta   90.00000000
_cell_angle_gamma   90.00000000
_symmetry_Int_Tables_number   1
_chemical_formula_structural   B10Pb4Cl2O19
_chemical_formula_sum   'B20 Pb8 Cl4 O38'
_cell_volume   892.57348939
_cell_formula_units_Z   2
loop_
 _symmetry_equiv_pos_site_id
 _symmetry_equiv_pos_as_xyz
  1  'x, y, z'
loop_
 _atom_site_type_symbol
 _atom_site_label
 _atom_site_symmetry_multiplicity
 _atom_site_fract_x
 _atom_site_fract_y
 _atom_site_fract_z
 _atom_site_occupancy
  B  B0  1  0.14643400  0.31573800  0.76690500  1
  B  B1  1  0.14643400  0.68426200  0.23309500  1
  B  B2  1  0.64643400  0.18426200  0.26690500  1
  B  B3  1  0.64643400  0.81573800  0.73309500  1
  B  B4  1  0.03407900  0.23580500  0.95775400  1
  B  B5  1  0.03407900  0.76419500  0.04224600  1
  B  B6  1  0.53407900  0.26419500  0.45775400  1
  B  B7  1  0.53407900  0.73580500  0.54224600  1
  B  B8  1  0.37082800  0.48898100  0.74428300  1
  B  B9  1  0.37082800  0.51101900  0.25571700  1
  B  B10  1  0.87082800  0.01101900  0.24428300  1
  B  B11  1  0.87082800  0.98898100  0.75571700  1
  B  B12  1  0.99701800  0.20907400  0.18039600  1
  B  B13  1  0.99701800  0.79092600  0.81960400  1
  B  B14  1  0.49701800  0.29092600  0.68039600  1
  B  B15  1  0.49701800  0.70907400  0.31960400  1
  B  B16  1  0.81378800  0.21253900  0.78875200  1
  B  B17  1  0.81378800  0.78746100  0.21124800  1
  B  B18  1  0.31378800  0.28746100  0.28875200  1
  B  B19  1  0.31378800  0.71253900  0.71124800  1
  Pb  Pb0  1  0.84925800  0.53743000  0.73738600  1
  Pb  Pb1  1  0.84925800  0.46257000  0.26261400  1
  Pb  Pb2  1  0.34925800  0.96257000  0.23738600  1
  Pb  Pb3  1  0.34925800  0.03743000  0.76261400  1
  Pb  Pb4  1  0.00364400  0.23024500  0.52333600  1
  Pb  Pb5  1  0.00364400  0.76975500  0.47666400  1
  Pb  Pb6  1  0.50364400  0.26975500  0.02333600  1
  Pb  Pb7  1  0.50364400  0.73024500  0.97666400  1
  Cl  Cl0  1  0.24134000  0.00000000  0.50000000  1
  Cl  Cl1  1  0.74134000  0.50000000  0.00000000  1
  Cl  Cl2  1  0.96795200  0.50000000  0.50000000  1
  Cl  Cl3  1  0.46795200  0.00000000  0.00000000  1
  O  O0  1  0.18602000  0.44350800  0.77436700  1
  O  O1  1  0.18602000  0.55649200  0.22563300  1
  O  O2  1  0.68602000  0.05649200  0.27436700  1
  O  O3  1  0.68602000  0.94350800  0.72563300  1
  O  O4  1  0.18711200  0.26136400  0.87998200  1
  O  O5  1  0.18711200  0.73863600  0.12001800  1
  O  O6  1  0.68711200  0.23863600  0.37998200  1
  O  O7  1  0.68711200  0.76136400  0.62001800  1
  O  O8  1  0.93162100  0.30771200  0.73517100  1
  O  O9  1  0.93162100  0.69228800  0.26482900  1
  O  O10  1  0.43162100  0.19228800  0.23517100  1
  O  O11  1  0.43162100  0.80771200  0.76482900  1
  O  O12  1  0.84274200  0.21440300  0.91705700  1
  O  O13  1  0.84274200  0.78559700  0.08294300  1
  O  O14  1  0.34274200  0.28559700  0.41705700  1
  O  O15  1  0.34274200  0.71440300  0.58294300  1
  O  O16  1  0.52323200  0.41797600  0.70611300  1
  O  O17  1  0.52323200  0.58202400  0.29388700  1
  O  O18  1  0.02323200  0.08202400  0.20611300  1
  O  O19  1  0.02323200  0.91797600  0.79388700  1
  O  O20  1  0.27831400  0.26287200  0.67963800  1
  O  O21  1  0.27831400  0.73712800  0.32036200  1
  O  O22  1  0.77831400  0.23712800  0.17963800  1
  O  O23  1  0.77831400  0.76287200  0.82036200  1
  O  O24  1  0.09724300  0.28023200  0.26935300  1
  O  O25  1  0.09724300  0.71976800  0.73064700  1
  O  O26  1  0.59724300  0.21976800  0.76935300  1
  O  O27  1  0.59724300  0.78023200  0.23064700  1
  O  O28  1  0.91215200  0.10472500  0.74289300  1
  O  O29  1  0.91215200  0.89527500  0.25710700  1
  O  O30  1  0.41215200  0.39527500  0.24289300  1
  O  O31  1  0.41215200  0.60472500  0.75710700  1
  O  O32  1  0.09276200  0.23370900  0.06930300  1
  O  O33  1  0.09276200  0.76629100  0.93069700  1
  O  O34  1  0.59276200  0.26629100  0.56930300  1
  O  O35  1  0.59276200  0.73370900  0.43069700  1
  O  O36  1  0.37501400  0.50000000  0.00000000  1
  O  O37  1  0.87501400  0.00000000  0.50000000  1
loop_
_geom_bond_atom_site_label_1
_geom_bond_atom_site_label_2
_geom_bond_distance
_geom_bond_site_symmetry_2
B0 O8 1.474304 1_455
B0 O20 1.474692 1_555
B0 O4 1.486688 1_555
B0 O0 1.498584 1_555
B1 O9 1.474304 1_455
B1 O21 1.474692 1_555
B1 O5 1.486688 1_555
B1 O1 1.498584 1_555
B2 O10 1.474304 1_555
B2 O22 1.474692 1_555
B2 O6 1.486688 1_555
B2 O2 1.498584 1_555
B3 O11 1.474304 1_555
B3 O23 1.474692 1_555
B3 O7 1.486688 1_555
B3 O3 1.498584 1_555
B4 O32 1.360050 1_556
B4 O12 1.376772 1_455
B4 O4 1.393249 1_555
B5 O33 1.360050 1_554
B5 O13 1.376772 1_455
B5 O5 1.393249 1_555
B6 O34 1.360050 1_555
B6 O14 1.376772 1_555
B6 O6 1.393249 1_555
B7 O35 1.360050 1_555
B7 O15 1.376772 1_555
B7 O7 1.393249 1_555
B8 O31 1.370268 1_555
B8 O16 1.374533 1_555
B8 O0 1.378040 1_555
B9 O30 1.370268 1_555
B9 O17 1.374533 1_555
B9 O1 1.378040 1_555
B10 O29 1.370268 1_545
B10 O18 1.374533 1_655
B10 O2 1.378040 1_555
B11 O28 1.370268 1_565
B11 O19 1.374533 1_655
B11 O3 1.378040 1_555
B12 O32 1.472216 1_655
B12 O24 1.481206 1_655
B12 O22 1.485390 1_555
B12 O18 1.505110 1_655
B13 O33 1.472216 1_655
B13 O25 1.481206 1_655
B13 O23 1.485390 1_555
B13 O19 1.505110 1_655
B14 O34 1.472216 1_555
B14 O26 1.481206 1_555
B14 O20 1.485390 1_555
B14 O16 1.505110 1_555
B15 O35 1.472216 1_555
B15 O27 1.481206 1_555
B15 O21 1.485390 1_555
B15 O17 1.505110 1_555
B16 O26 1.455584 1_555
B16 O8 1.485073 1_555
B16 O28 1.502226 1_555
B16 O12 1.511130 1_555
B17 O27 1.455584 1_555
B17 O9 1.485073 1_555
B17 O29 1.502226 1_555
B17 O13 1.511130 1_555
B18 O24 1.455584 1_555
B18 O10 1.485073 1_555
B18 O30 1.502226 1_555
B18 O14 1.511130 1_555
B19 O25 1.455584 1_555
B19 O11 1.485073 1_555
B19 O31 1.502226 1_555
B19 O15 1.511130 1_555
Cl0 O37 2.428281 1_455
Cl0 Pb5 3.098591 1_545
Cl0 Pb4 3.098591 1_555
Cl0 Pb2 3.179328 1_545
Cl0 Pb3 3.179328 1_555
Cl1 O36 2.428281 1_555
Cl1 Pb7 3.098591 1_554
Cl1 Pb6 3.098591 1_555
Cl1 Pb1 3.179328 1_555
Cl1 Pb0 3.179328 1_554
Cl2 Pb1 2.914496 1_555
Cl2 Pb0 2.914496 1_555
Cl2 Pb5 3.130448 1_655
Cl2 Pb4 3.130448 1_655
Cl3 Pb2 2.914496 1_545
Cl3 Pb3 2.914496 1_554
Cl3 Pb7 3.130448 1_544
Cl3 Pb6 3.130448 1_555
O0 Pb0 2.518331 1_455
O1 Pb1 2.518331 1_455
O2 Pb2 2.518331 1_545
O3 Pb3 2.518331 1_565
O4 Pb6 2.686238 1_556
O5 Pb7 2.686238 1_554
O6 Pb4 2.686238 1_655
O7 Pb5 2.686238 1_655
O8 Pb4 2.673630 1_655
O8 Pb0 2.703868 1_555
O9 Pb5 2.673630 1_655
O9 Pb1 2.703868 1_555
O10 Pb6 2.673630 1_555
O10 Pb2 2.703868 1_545
O11 Pb7 2.673630 1_555
O11 Pb3 2.703868 1_565
O12 Pb6 2.645921 1_556
O13 Pb7 2.645921 1_554
O14 Pb4 2.645921 1_555
O15 Pb5 2.645921 1_555
O16 Pb0 2.588453 1_555
O17 Pb1 2.588453 1_555
O18 Pb2 2.588453 1_545
O19 Pb3 2.588453 1_565
O20 Pb4 2.605745 1_555
O20 Pb3 2.813207 1_555
O21 Pb5 2.605745 1_555
O21 Pb2 2.813207 1_555
O22 Pb6 2.605745 1_555
O22 Pb1 2.813207 1_555
O23 Pb7 2.605745 1_555
O23 Pb0 2.813207 1_555
O24 Pb1 2.669508 1_455
O25 Pb0 2.669508 1_455
O26 Pb3 2.669508 1_555
O27 Pb2 2.669508 1_555
O32 Pb6 2.806978 1_555
O33 Pb7 2.806978 1_555
O34 Pb4 2.806978 1_655
O35 Pb5 2.806978 1_655
O36 Pb6 2.801017 1_555
O36 Pb7 2.801017 1_554
O37 Pb4 2.801017 1_655
O37 Pb5 2.801017 1_645
