# generated using pymatgen
data_B4W
_symmetry_space_group_name_H-M   'P 1'
_cell_length_a   3.90622300
_cell_length_b   6.97563100
_cell_length_c   6.97563100
_cell_angle_alpha   90.00000000
_cell_angle_beta   90.00000000
_cell_angle_gamma   90.00000000
_symmetry_Int_Tables_number   1
_chemical_formula_structural   B4W
_chemical_formula_sum   'B16 W4'
_cell_volume   190.07457623
_cell_formula_units_Z   4
loop_
 _symmetry_equiv_pos_site_id
 _symmetry_equiv_pos_as_xyz
  1  'x, y, z'
loop_
 _atom_site_type_symbol
 _atom_site_label
 _atom_site_symmetry_multiplicity
 _atom_site_fract_x
 _atom_site_fract_y
 _atom_site_fract_z
 _atom_site_occupancy
  B  B0  1  0.79995800  0.50000000  0.50000000  1
  B  B1  1  0.79995800  0.00000000  0.00000000  1
  B  B2  1  0.20004200  0.50000000  0.50000000  1
  B  B3  1  0.20004200  0.00000000  0.00000000  1
  B  B4  1  0.50000000  0.91236600  0.41236600  1
  B  B5  1  0.50000000  0.08763400  0.58763400  1
  B  B6  1  0.50000000  0.58763400  0.91236600  1
  B  B7  1  0.50000000  0.41236600  0.08763400  1
  B  B8  1  0.50000000  0.52447400  0.68198700  1
  B  B9  1  0.50000000  0.47552600  0.31801300  1
  B  B10  1  0.50000000  0.97552600  0.18198700  1
  B  B11  1  0.50000000  0.02447400  0.81801300  1
  B  B12  1  0.50000000  0.68198700  0.47552600  1
  B  B13  1  0.50000000  0.31801300  0.52447400  1
  B  B14  1  0.50000000  0.18198700  0.02447400  1
  B  B15  1  0.50000000  0.81801300  0.97552600  1
  W  W0  1  0.00000000  0.38042000  0.88042000  1
  W  W1  1  0.00000000  0.61958000  0.11958000  1
  W  W2  1  0.00000000  0.11958000  0.38042000  1
  W  W3  1  0.00000000  0.88042000  0.61958000  1
loop_
_geom_bond_atom_site_label_1
_geom_bond_atom_site_label_2
_geom_bond_distance
_geom_bond_site_symmetry_2
B0 B2 1.562817 1_655
B0 B12 1.735972 1_555
B0 B9 1.735972 1_555
B0 B13 1.735972 1_555
B0 B8 1.735972 1_555
B0 W1 2.889353 1_655
B0 W0 2.889353 1_655
B0 W3 2.889353 1_655
B0 W2 2.889353 1_655
B1 B3 1.562817 1_655
B1 B15 1.735972 1_544
B1 B10 1.735972 1_545
B1 B14 1.735972 1_555
B1 B11 1.735972 1_554
B1 W1 2.889353 1_645
B1 W0 2.889353 1_654
B1 W3 2.889353 1_644
B1 W2 2.889353 1_655
B2 B8 1.735972 1_555
B2 B9 1.735972 1_555
B2 W3 2.889353 1_555
B2 W1 2.889353 1_555
B2 W2 2.889353 1_555
B2 W0 2.889353 1_555
B3 W3 2.889353 1_544
B3 W1 2.889353 1_545
B3 W2 2.889353 1_555
B3 W0 2.889353 1_554
B4 B5 1.729024 1_565
B4 W3 2.440005 1_655
B4 W2 2.440005 1_665
B4 W3 2.440005 1_555
B4 W2 2.440005 1_565
B5 W2 2.440005 1_555
B5 W3 2.440005 1_645
B5 W2 2.440005 1_655
B5 W3 2.440005 1_545
B6 B8 1.666339 1_555
B6 B7 1.729024 1_556
B6 W0 2.440005 1_655
B6 W1 2.440005 1_656
B6 W0 2.440005 1_555
B6 W1 2.440005 1_556
B7 B9 1.666339 1_555
B7 W1 2.440005 1_555
B7 W0 2.440005 1_554
B7 W0 2.440005 1_654
B7 W1 2.440005 1_655
B8 W0 2.596228 1_555
B8 W0 2.596228 1_655
B9 W1 2.596228 1_655
B9 W1 2.596228 1_555
B10 B4 1.666339 1_555
B10 B3 1.735972 1_565
B10 B14 1.811469 1_565
B10 B15 1.811469 1_554
B10 W2 2.596228 1_565
B10 W2 2.596228 1_665
B11 B5 1.666339 1_555
B11 B3 1.735972 1_556
B11 B15 1.811469 1_545
B11 B14 1.811469 1_556
B11 W3 2.596228 1_645
B11 W3 2.596228 1_545
B12 B4 1.666339 1_555
B12 B2 1.735972 1_555
B12 B8 1.811469 1_555
B12 B9 1.811469 1_555
B12 W3 2.596228 1_555
B12 W3 2.596228 1_655
B13 B5 1.666339 1_555
B13 B2 1.735972 1_555
B13 B9 1.811469 1_555
B13 B8 1.811469 1_555
B13 W2 2.596228 1_655
B13 W2 2.596228 1_555
B14 B7 1.666339 1_555
B14 B3 1.735972 1_555
B14 W0 2.596228 1_554
B14 W0 2.596228 1_654
B15 B6 1.666339 1_555
B15 B3 1.735972 1_566
B15 W1 2.596228 1_656
B15 W1 2.596228 1_556
W0 W1 2.359321 1_556
W2 W3 2.359321 1_545
