# generated using pymatgen
data_KYbBeF6
_symmetry_space_group_name_H-M   'P 1'
_cell_length_a   6.05594800
_cell_length_b   6.41907546
_cell_length_c   7.10185510
_cell_angle_alpha   111.71105838
_cell_angle_beta   90.00000000
_cell_angle_gamma   90.00000000
_symmetry_Int_Tables_number   1
_chemical_formula_structural   KYbBeF6
_chemical_formula_sum   'K2 Yb2 Be2 F12'
_cell_volume   256.49018175
_cell_formula_units_Z   2
loop_
 _symmetry_equiv_pos_site_id
 _symmetry_equiv_pos_as_xyz
  1  'x, y, z'
loop_
 _atom_site_type_symbol
 _atom_site_label
 _atom_site_symmetry_multiplicity
 _atom_site_fract_x
 _atom_site_fract_y
 _atom_site_fract_z
 _atom_site_occupancy
  K  K0  1  0.75000000  0.07377300  0.23444500  1
  K  K1  1  0.25000000  0.92622700  0.76555500  1
  Yb  Yb0  1  0.75000000  0.35197900  0.77897900  1
  Yb  Yb1  1  0.25000000  0.64802100  0.22102100  1
  Be  Be0  1  0.75000000  0.76607300  0.54082700  1
  Be  Be1  1  0.25000000  0.23392700  0.45917300  1
  F  F0  1  0.95809600  0.78190900  0.41794600  1
  F  F1  1  0.04190400  0.21809100  0.58205400  1
  F  F2  1  0.45809600  0.21809100  0.58205400  1
  F  F3  1  0.54190400  0.78190900  0.41794600  1
  F  F4  1  0.75000000  0.54769300  0.58129600  1
  F  F5  1  0.25000000  0.45230700  0.41870400  1
  F  F6  1  0.99449700  0.63846900  0.96879800  1
  F  F7  1  0.00550300  0.36153100  0.03120200  1
  F  F8  1  0.49449700  0.36153100  0.03120200  1
  F  F9  1  0.50550300  0.63846900  0.96879800  1
  F  F10  1  0.75000000  0.97564100  0.75374800  1
  F  F11  1  0.25000000  0.02435900  0.24625200  1
loop_
_geom_bond_atom_site_label_1
_geom_bond_atom_site_label_2
_geom_bond_distance
_geom_bond_site_symmetry_2
Be0 F4 1.531572 1_555
Be0 F3 1.557463 1_555
Be0 F0 1.557463 1_555
Be0 F10 1.609725 1_555
Be1 F5 1.531572 1_555
Be1 F1 1.557463 1_555
Be1 F2 1.557463 1_555
Be1 F11 1.609725 1_555
F0 Yb1 2.220410 1_655
F0 K1 2.895769 1_655
F0 K0 2.933060 1_565
F1 Yb0 2.220410 1_455
F1 K0 2.895769 1_455
F1 K1 2.933060 1_545
F2 Yb0 2.220410 1_555
F2 K0 2.895769 1_555
F2 K1 2.933060 1_545
F3 Yb1 2.220410 1_555
F3 K1 2.895769 1_555
F3 K0 2.933060 1_565
F4 Yb0 2.203222 1_555
F4 K0 3.127002 1_555
F5 Yb1 2.203222 1_555
F5 K1 3.127002 1_555
F6 Yb1 2.350587 1_656
F6 Yb0 2.357414 1_555
F6 K0 3.107925 1_566
F6 K1 3.140396 1_655
F7 Yb0 2.350587 1_454
F7 Yb1 2.357414 1_555
F7 K1 3.107925 1_544
F7 K0 3.140396 1_455
F8 Yb0 2.350587 1_554
F8 Yb1 2.357414 1_555
F8 K1 3.107925 1_544
F8 K0 3.140396 1_555
F9 Yb1 2.350587 1_556
F9 Yb0 2.357414 1_555
F9 K0 3.107925 1_566
F9 K1 3.140396 1_555
F10 Yb0 2.355347 1_565
F10 K1 3.048925 1_555
F10 K1 3.048925 1_655
F10 K0 3.234207 1_566
F11 Yb1 2.355347 1_545
F11 K0 3.048925 1_455
F11 K0 3.048925 1_555
F11 K1 3.234207 1_544
