# generated using pymatgen
data_Cr3Fe3GeAs2
_symmetry_space_group_name_H-M   'P 1'
_cell_length_a   6.01300021
_cell_length_b   6.01300021
_cell_length_c   3.76856400
_cell_angle_alpha   90.00000000
_cell_angle_beta   90.00000000
_cell_angle_gamma   120.00000235
_symmetry_Int_Tables_number   1
_chemical_formula_structural   Cr3Fe3GeAs2
_chemical_formula_sum   'Cr3 Fe3 Ge1 As2'
_cell_volume   118.00188777
_cell_formula_units_Z   1
loop_
 _symmetry_equiv_pos_site_id
 _symmetry_equiv_pos_as_xyz
  1  'x, y, z'
loop_
 _atom_site_type_symbol
 _atom_site_label
 _atom_site_symmetry_multiplicity
 _atom_site_fract_x
 _atom_site_fract_y
 _atom_site_fract_z
 _atom_site_occupancy
  Cr  Cr0  1  0.42072200  0.42072200  0.50000000  1
  Cr  Cr1  1  0.57927800  0.00000000  0.50000000  1
  Cr  Cr2  1  0.00000000  0.57927800  0.50000000  1
  Fe  Fe0  1  0.75482700  0.75482700  0.00000000  1
  Fe  Fe1  1  0.24517300  0.00000000  0.00000000  1
  Fe  Fe2  1  0.00000000  0.24517300  0.00000000  1
  Ge  Ge0  1  0.00000000  0.00000000  0.50000000  1
  As  As0  1  0.66666700  0.33333300  0.00000000  1
  As  As1  1  0.33333300  0.66666700  0.00000000  1
loop_
_geom_bond_atom_site_label_1
_geom_bond_atom_site_label_2
_geom_bond_distance
_geom_bond_site_symmetry_2
Cr0 Ge0 2.529801 1_555
Cr0 Fe0 2.754359 1_555
Cr0 Fe0 2.754359 1_556
Cr0 Fe2 2.897284 1_556
Cr0 Fe1 2.897284 1_556
Cr0 Fe2 2.897284 1_555
Cr0 Fe1 2.897284 1_555
Cr1 Ge0 2.529801 1_655
Cr1 Fe1 2.754359 1_556
Cr1 Fe1 2.754359 1_555
Cr1 Fe2 2.897284 1_655
Cr1 Fe2 2.897284 1_656
Cr1 Fe0 2.897284 1_546
Cr1 Fe0 2.897284 1_545
Cr2 Ge0 2.529801 1_565
Cr2 Fe2 2.754359 1_556
Cr2 Fe2 2.754359 1_555
Cr2 Fe1 2.897284 1_565
Cr2 Fe1 2.897284 1_566
Cr2 Fe0 2.897284 1_456
Cr2 Fe0 2.897284 1_455
Fe0 Ge0 2.392459 1_665
Fe0 Ge0 2.392459 1_664
Fe0 Fe2 2.553433 1_665
Fe0 Fe1 2.553433 1_665
Fe1 Ge0 2.392459 1_555
Fe1 Ge0 2.392459 1_554
Fe1 Fe2 2.553433 1_555
Fe2 Ge0 2.392459 1_555
Fe2 Ge0 2.392459 1_554
As0 Fe2 2.315354 1_655
As0 Fe1 2.315358 1_555
As0 Fe0 2.315360 1_555
As0 Cr1 2.605910 1_555
As0 Cr1 2.605910 1_554
As0 Cr2 2.605911 1_655
As0 Cr2 2.605911 1_654
As0 Cr0 2.605914 1_555
As0 Cr0 2.605914 1_554
As1 Fe1 2.315354 1_565
As1 Fe2 2.315358 1_555
As1 Fe0 2.315360 1_555
As1 Cr2 2.605910 1_555
As1 Cr2 2.605910 1_554
As1 Cr1 2.605911 1_565
As1 Cr1 2.605911 1_564
As1 Cr0 2.605914 1_555
As1 Cr0 2.605914 1_554
