# generated using pymatgen
data_VS2
_symmetry_space_group_name_H-M   'P 1'
_cell_length_a   6.63031401
_cell_length_b   6.63031401
_cell_length_c   6.63031401
_cell_angle_alpha   60.00000000
_cell_angle_beta   60.00000000
_cell_angle_gamma   60.00000000
_symmetry_Int_Tables_number   1
_chemical_formula_structural   VS2
_chemical_formula_sum   'V4 S8'
_cell_volume   206.10441438
_cell_formula_units_Z   4
loop_
 _symmetry_equiv_pos_site_id
 _symmetry_equiv_pos_as_xyz
  1  'x, y, z'
loop_
 _atom_site_type_symbol
 _atom_site_label
 _atom_site_symmetry_multiplicity
 _atom_site_fract_x
 _atom_site_fract_y
 _atom_site_fract_z
 _atom_site_occupancy
  V  V0  1  0.62500000  0.62500000  0.12500000  1
  V  V1  1  0.62500000  0.12500000  0.62500000  1
  V  V2  1  0.12500000  0.62500000  0.62500000  1
  V  V3  1  0.62500000  0.62500000  0.62500000  1
  S  S0  1  0.87671500  0.87671500  0.87671500  1
  S  S1  1  0.88014600  0.37328500  0.37328500  1
  S  S2  1  0.37328500  0.37328500  0.88014600  1
  S  S3  1  0.37328500  0.88014600  0.37328500  1
  S  S4  1  0.37328500  0.37328500  0.37328500  1
  S  S5  1  0.36985400  0.87671500  0.87671500  1
  S  S6  1  0.87671500  0.36985400  0.87671500  1
  S  S7  1  0.87671500  0.87671500  0.36985400  1
loop_
_geom_bond_atom_site_label_1
_geom_bond_atom_site_label_2
_geom_bond_distance
_geom_bond_site_symmetry_2
S0 V0 2.360361 1_556
S0 V2 2.360361 1_655
S0 V1 2.360361 1_565
S1 V3 2.360361 1_555
S1 V0 2.360365 1_555
S1 V1 2.360365 1_555
S2 V3 2.360361 1_555
S2 V2 2.360365 1_555
S2 V1 2.360365 1_555
S3 V3 2.360361 1_555
S3 V2 2.360365 1_555
S3 V0 2.360365 1_555
S4 V1 2.360361 1_555
S4 V0 2.360361 1_555
S4 V2 2.360361 1_555
S5 V3 2.360361 1_555
S5 V1 2.360365 1_565
S5 V0 2.360365 1_556
S6 V3 2.360361 1_555
S6 V2 2.360365 1_655
S6 V0 2.360365 1_556
S7 V3 2.360361 1_555
S7 V1 2.360365 1_565
S7 V2 2.360365 1_655
