# generated using pymatgen
data_CoSeS
_symmetry_space_group_name_H-M   'P 1'
_cell_length_a   5.66823000
_cell_length_b   5.66823000
_cell_length_c   5.66823000
_cell_angle_alpha   90.00000000
_cell_angle_beta   90.00000000
_cell_angle_gamma   90.00000000
_symmetry_Int_Tables_number   1
_chemical_formula_structural   CoSeS
_chemical_formula_sum   'Co4 Se4 S4'
_cell_volume   182.11360563
_cell_formula_units_Z   4
loop_
 _symmetry_equiv_pos_site_id
 _symmetry_equiv_pos_as_xyz
  1  'x, y, z'
loop_
 _atom_site_type_symbol
 _atom_site_label
 _atom_site_symmetry_multiplicity
 _atom_site_fract_x
 _atom_site_fract_y
 _atom_site_fract_z
 _atom_site_occupancy
  Co  Co0  1  0.50901900  0.49098100  0.99098100  1
  Co  Co1  1  0.49098100  0.99098100  0.50901900  1
  Co  Co2  1  0.99098100  0.50901900  0.49098100  1
  Co  Co3  1  0.00901900  0.00901900  0.00901900  1
  Se  Se0  1  0.87659300  0.12340700  0.62340700  1
  Se  Se1  1  0.12340700  0.62340700  0.87659300  1
  Se  Se2  1  0.62340700  0.87659300  0.12340700  1
  Se  Se3  1  0.37659300  0.37659300  0.37659300  1
  S  S0  1  0.12025000  0.87975000  0.37975000  1
  S  S1  1  0.87975000  0.37975000  0.12025000  1
  S  S2  1  0.37975000  0.12025000  0.87975000  1
  S  S3  1  0.62025000  0.62025000  0.62025000  1
loop_
_geom_bond_atom_site_label_1
_geom_bond_atom_site_label_2
_geom_bond_distance
_geom_bond_site_symmetry_2
Co0 S3 2.313057 1_555
Co0 S2 2.313057 1_555
Co0 S1 2.313057 1_556
Co0 Se2 2.400265 1_556
Co0 Se3 2.400265 1_556
Co0 Se1 2.400265 1_555
Co1 S3 2.313057 1_555
Co1 S0 2.313057 1_555
Co1 S2 2.313057 1_565
Co1 Se0 2.400265 1_565
Co1 Se3 2.400265 1_565
Co1 Se2 2.400265 1_555
Co2 S3 2.313057 1_555
Co2 S0 2.313057 1_655
Co2 S1 2.313057 1_555
Co2 Se1 2.400265 1_655
Co2 Se3 2.400265 1_655
Co2 Se0 2.400265 1_555
Co3 S0 2.313057 1_545
Co3 S2 2.313057 1_554
Co3 S1 2.313057 1_455
Co3 Se2 2.400265 1_445
Co3 Se0 2.400265 1_454
Co3 Se1 2.400265 1_544
S0 Se0 2.392142 1_465
S1 Se1 2.392142 1_654
S2 Se2 2.392142 1_546
S3 Se3 2.392142 1_555
