# generated using pymatgen
data_Ba2ScV3O11
_symmetry_space_group_name_H-M   'P 1'
_cell_length_a   7.74533800
_cell_length_b   12.20601923
_cell_length_c   11.50065705
_cell_angle_alpha   103.45965532
_cell_angle_beta   90.00000000
_cell_angle_gamma   90.00000000
_symmetry_Int_Tables_number   1
_chemical_formula_structural   Ba2ScV3O11
_chemical_formula_sum   'Ba8 Sc4 V12 O44'
_cell_volume   1057.40630972
_cell_formula_units_Z   4
loop_
 _symmetry_equiv_pos_site_id
 _symmetry_equiv_pos_as_xyz
  1  'x, y, z'
loop_
 _atom_site_type_symbol
 _atom_site_label
 _atom_site_symmetry_multiplicity
 _atom_site_fract_x
 _atom_site_fract_y
 _atom_site_fract_z
 _atom_site_occupancy
  Ba  Ba0  1  0.26985600  0.77457600  0.94377200  1
  Ba  Ba1  1  0.73014400  0.22542400  0.05622800  1
  Ba  Ba2  1  0.76985600  0.22542400  0.55622800  1
  Ba  Ba3  1  0.23014400  0.77457600  0.44377200  1
  Ba  Ba4  1  0.74812500  0.55652000  0.89001100  1
  Ba  Ba5  1  0.25187500  0.44348000  0.10998900  1
  Ba  Ba6  1  0.24812500  0.44348000  0.60998900  1
  Ba  Ba7  1  0.75187500  0.55652000  0.39001100  1
  Sc  Sc0  1  0.49382800  0.99833000  0.75726500  1
  Sc  Sc1  1  0.50617200  0.00167000  0.24273500  1
  Sc  Sc2  1  0.99382800  0.00167000  0.74273500  1
  Sc  Sc3  1  0.00617200  0.99833000  0.25726500  1
  V  V0  1  0.75251000  0.90547500  0.97452000  1
  V  V1  1  0.24749000  0.09452500  0.02548000  1
  V  V2  1  0.25251000  0.09452500  0.52548000  1
  V  V3  1  0.74749000  0.90547500  0.47452000  1
  V  V4  1  0.51943700  0.68790200  0.67364400  1
  V  V5  1  0.48056300  0.31209800  0.32635600  1
  V  V6  1  0.01943700  0.31209800  0.82635600  1
  V  V7  1  0.98056300  0.68790200  0.17364400  1
  V  V8  1  0.98102200  0.69114700  0.67247100  1
  V  V9  1  0.01897800  0.30885300  0.32752900  1
  V  V10  1  0.48102200  0.30885300  0.82752900  1
  V  V11  1  0.51897800  0.69114700  0.17247100  1
  O  O0  1  0.44900400  0.82706600  0.71644200  1
  O  O1  1  0.55099600  0.17293400  0.28355800  1
  O  O2  1  0.94900400  0.17293400  0.78355800  1
  O  O3  1  0.05099600  0.82706600  0.21644200  1
  O  O4  1  0.54529200  0.16859200  0.80071700  1
  O  O5  1  0.45470800  0.83140800  0.19928300  1
  O  O6  1  0.04529200  0.83140800  0.69928300  1
  O  O7  1  0.95470800  0.16859200  0.30071700  1
  O  O8  1  0.75039000  0.66591500  0.66718200  1
  O  O9  1  0.24961000  0.33408500  0.33281800  1
  O  O10  1  0.25039000  0.33408500  0.83281800  1
  O  O11  1  0.74961000  0.66591500  0.16718200  1
  O  O12  1  0.94340100  0.37378200  0.96437700  1
  O  O13  1  0.05659900  0.62621800  0.03562300  1
  O  O14  1  0.44340100  0.62621800  0.53562300  1
  O  O15  1  0.55659900  0.37378200  0.46437700  1
  O  O16  1  0.93911000  0.38892000  0.73193100  1
  O  O17  1  0.06089000  0.61108000  0.26806900  1
  O  O18  1  0.43911000  0.61108000  0.76806900  1
  O  O19  1  0.56089000  0.38892000  0.23193100  1
  O  O20  1  0.79800500  0.98818100  0.62231000  1
  O  O21  1  0.20199500  0.01181900  0.37769000  1
  O  O22  1  0.29800500  0.01181900  0.87769000  1
  O  O23  1  0.70199500  0.98818100  0.12231000  1
  O  O24  1  0.96507400  0.87728200  0.97143500  1
  O  O25  1  0.03492600  0.12271800  0.02856500  1
  O  O26  1  0.46507400  0.12271800  0.52856500  1
  O  O27  1  0.53492600  0.87728200  0.47143500  1
  O  O28  1  0.63656500  0.78395600  0.94554100  1
  O  O29  1  0.36343500  0.21604400  0.05445900  1
  O  O30  1  0.13656500  0.21604400  0.55445900  1
  O  O31  1  0.86343500  0.78395600  0.44554100  1
  O  O32  1  0.70961300  0.98412000  0.86232700  1
  O  O33  1  0.29038700  0.01588000  0.13767300  1
  O  O34  1  0.20961300  0.01588000  0.63767300  1
  O  O35  1  0.79038700  0.98412000  0.36232700  1
  O  O36  1  0.56019500  0.36900600  0.71990800  1
  O  O37  1  0.43980500  0.63099400  0.28009200  1
  O  O38  1  0.06019500  0.63099400  0.78009200  1
  O  O39  1  0.93980500  0.36900600  0.21990800  1
  O  O40  1  0.56478900  0.38402400  0.95943500  1
  O  O41  1  0.43521100  0.61597600  0.04056500  1
  O  O42  1  0.06478900  0.61597600  0.54056500  1
  O  O43  1  0.93521100  0.38402400  0.45943500  1
loop_
_geom_bond_atom_site_label_1
_geom_bond_atom_site_label_2
_geom_bond_distance
_geom_bond_site_symmetry_2
Ba0 O24 2.657021 1_455
Ba0 O41 2.762290 1_556
Ba0 O38 2.777816 1_555
Ba0 O18 2.811952 1_555
Ba0 O13 2.830874 1_556
Ba0 O28 2.842474 1_555
Ba0 O0 3.154506 1_555
Ba0 O22 3.167843 1_565
Ba0 O5 3.196435 1_556
Ba0 O33 3.258173 1_566
Ba1 O25 2.657021 1_655
Ba1 O40 2.762290 1_554
Ba1 O39 2.777816 1_555
Ba1 O19 2.811952 1_555
Ba1 O12 2.830874 1_554
Ba1 O29 2.842474 1_555
Ba1 O1 3.154506 1_555
Ba1 O23 3.167843 1_545
Ba1 O4 3.196435 1_554
Ba1 O32 3.258173 1_544
Ba2 O26 2.657021 1_555
Ba2 O43 2.762290 1_555
Ba2 O36 2.777816 1_555
Ba2 O16 2.811952 1_555
Ba2 O15 2.830874 1_555
Ba2 O30 2.842474 1_655
Ba2 O2 3.154506 1_555
Ba2 O20 3.167843 1_545
Ba2 O7 3.196435 1_555
Ba2 O35 3.258173 1_545
Ba3 O27 2.657021 1_555
Ba3 O42 2.762290 1_555
Ba3 O37 2.777816 1_555
Ba3 O17 2.811952 1_555
Ba3 O14 2.830874 1_555
Ba3 O31 2.842474 1_455
Ba3 O3 3.154506 1_555
Ba3 O21 3.167843 1_565
Ba3 O6 3.196435 1_555
Ba3 O34 3.258173 1_565
Ba4 O40 2.805269 1_555
Ba4 O16 2.819046 1_555
Ba4 O28 2.834751 1_555
Ba4 O13 2.928033 1_656
Ba4 O18 2.928058 1_555
Ba4 O38 2.966758 1_655
Ba4 O41 2.968781 1_556
Ba4 O12 2.980312 1_555
Ba4 O36 3.016623 1_555
Ba4 O8 3.153342 1_555
Ba4 O11 3.156384 1_556
Ba5 O41 2.805269 1_555
Ba5 O17 2.819046 1_555
Ba5 O29 2.834751 1_555
Ba5 O12 2.928033 1_454
Ba5 O19 2.928058 1_555
Ba5 O39 2.966758 1_455
Ba5 O40 2.968781 1_554
Ba5 O13 2.980312 1_555
Ba5 O37 3.016623 1_555
Ba5 O9 3.153342 1_555
Ba5 O10 3.156384 1_554
Ba6 O42 2.805269 1_555
Ba6 O18 2.819046 1_555
Ba6 O30 2.834751 1_555
Ba6 O15 2.928033 1_555
Ba6 O16 2.928058 1_455
Ba6 O36 2.966758 1_555
Ba6 O43 2.968781 1_455
Ba6 O14 2.980312 1_555
Ba6 O38 3.016623 1_555
Ba6 O10 3.153342 1_555
Ba6 O9 3.156384 1_555
Ba7 O43 2.805269 1_555
Ba7 O19 2.819046 1_555
Ba7 O31 2.834751 1_555
Ba7 O14 2.928033 1_555
Ba7 O17 2.928058 1_655
Ba7 O37 2.966758 1_555
Ba7 O42 2.968781 1_655
Ba7 O15 2.980312 1_555
Ba7 O39 3.016623 1_555
Ba7 O11 3.153342 1_555
Ba7 O8 3.156384 1_555
O0 V4 1.742420 1_555
O0 Sc0 2.062537 1_555
O1 V5 1.742420 1_555
O1 Sc1 2.062537 1_555
O2 V6 1.742420 1_655
O2 Sc2 2.062537 1_555
O3 V7 1.742420 1_455
O3 Sc3 2.062537 1_555
O4 V10 1.740163 1_555
O4 Sc0 2.060134 1_545
O5 V11 1.740163 1_555
O5 Sc1 2.060134 1_565
O6 V8 1.740163 1_455
O6 Sc2 2.060134 1_465
O7 V9 1.740163 1_655
O7 Sc3 2.060134 1_645
O8 V4 1.807789 1_555
O8 V8 1.811293 1_555
O9 V5 1.807789 1_555
O9 V9 1.811293 1_555
O10 V6 1.807789 1_555
O10 V10 1.811293 1_555
O11 V7 1.807789 1_555
O11 V11 1.811293 1_555
O12 V6 1.696166 1_655
O13 V7 1.696166 1_455
O14 V4 1.696166 1_555
O15 V5 1.696166 1_555
O16 V6 1.708703 1_655
O17 V7 1.708703 1_455
O18 V4 1.708703 1_555
O19 V5 1.708703 1_555
O20 V3 1.806197 1_555
O20 Sc2 2.034579 1_565
O20 Sc0 2.808075 1_555
O21 V2 1.806197 1_555
O21 Sc3 2.034579 1_545
O21 Sc1 2.808075 1_555
O22 V1 1.806197 1_556
O22 Sc0 2.034579 1_545
O22 Sc2 2.808075 1_455
O23 V0 1.806197 1_554
O23 Sc1 2.034579 1_565
O23 Sc3 2.808075 1_655
O24 V0 1.680644 1_555
O25 V1 1.680644 1_555
O26 V2 1.680644 1_555
O27 V3 1.680644 1_555
O28 V0 1.699259 1_555
O29 V1 1.699259 1_555
O30 V2 1.699259 1_555
O31 V3 1.699259 1_555
O32 V0 1.809236 1_555
O32 Sc0 2.093066 1_555
O32 Sc2 2.630710 1_565
O33 V1 1.809236 1_555
O33 Sc1 2.093066 1_555
O33 Sc3 2.630710 1_545
O34 V2 1.809236 1_555
O34 Sc2 2.093066 1_455
O34 Sc0 2.630710 1_545
O35 V3 1.809236 1_555
O35 Sc3 2.093066 1_655
O35 Sc1 2.630710 1_565
O36 V10 1.694141 1_555
O37 V11 1.694141 1_555
O38 V8 1.694141 1_455
O39 V9 1.694141 1_655
O40 V10 1.707678 1_555
O41 V11 1.707678 1_555
O42 V8 1.707678 1_455
O43 V9 1.707678 1_655
