# generated using pymatgen
data_LaMg14Co
_symmetry_space_group_name_H-M   'P 1'
_cell_length_a   6.48523412
_cell_length_b   6.48523358
_cell_length_c   10.18669141
_cell_angle_alpha   90.00000000
_cell_angle_beta   90.00000000
_cell_angle_gamma   120.00000277
_symmetry_Int_Tables_number   1
_chemical_formula_structural   LaMg14Co
_chemical_formula_sum   'La1 Mg14 Co1'
_cell_volume   371.03514718
_cell_formula_units_Z   1
loop_
 _symmetry_equiv_pos_site_id
 _symmetry_equiv_pos_as_xyz
  1  'x, y, z'
loop_
 _atom_site_type_symbol
 _atom_site_label
 _atom_site_symmetry_multiplicity
 _atom_site_fract_x
 _atom_site_fract_y
 _atom_site_fract_z
 _atom_site_occupancy
  La  La0  1  0.16666700  0.33333300  0.62500000  1
  Mg  Mg0  1  0.16079956  0.83039928  0.12500000  1
  Mg  Mg1  1  0.17950036  0.83974968  0.62500000  1
  Mg  Mg2  1  0.66960072  0.33920044  0.12500000  1
  Mg  Mg3  1  0.66025032  0.32049964  0.62500000  1
  Mg  Mg4  1  0.66960072  0.83039928  0.12500000  1
  Mg  Mg5  1  0.66025032  0.83974968  0.62500000  1
  Mg  Mg6  1  0.32946674  0.17053326  0.35542643  1
  Mg  Mg7  1  0.32946674  0.17053326  0.89457357  1
  Mg  Mg8  1  0.32946674  0.65893448  0.35542643  1
  Mg  Mg9  1  0.32946674  0.65893448  0.89457357  1
  Mg  Mg10  1  0.84106552  0.17053326  0.35542643  1
  Mg  Mg11  1  0.84106552  0.17053326  0.89457357  1
  Mg  Mg12  1  0.83333300  0.66666700  0.38365381  1
  Mg  Mg13  1  0.83333300  0.66666700  0.86634619  1
  Co  Co0  1  0.16666700  0.33333300  0.12500000  1
loop_
_geom_bond_atom_site_label_1
_geom_bond_atom_site_label_2
_geom_bond_distance
_geom_bond_site_symmetry_2
La0 Mg5 3.243418 1_555
La0 Mg1 3.243418 1_555
La0 Mg1 3.243418 1_545
La0 Mg5 3.243418 1_445
La0 Mg3 3.243418 1_555
La0 Mg3 3.243418 1_455
La0 Mg6 3.299237 1_555
La0 Mg7 3.299237 1_555
La0 Mg8 3.299243 1_555
La0 Mg9 3.299243 1_555
La0 Mg11 3.299243 1_455
La0 Mg10 3.299243 1_455
Mg0 Mg9 3.026401 1_554
Mg0 Mg8 3.026401 1_555
Mg0 Mg7 3.026408 1_564
Mg0 Mg6 3.026408 1_565
Mg0 Mg2 3.185539 1_455
Mg0 Mg4 3.185539 1_455
Mg0 Mg12 3.213235 1_455
Mg0 Mg13 3.213235 1_454
Mg0 Mg2 3.299694 1_565
Mg0 Mg4 3.299695 1_555
Mg1 Mg3 3.117776 1_565
Mg1 Mg5 3.117776 1_555
Mg1 Mg12 3.134367 1_455
Mg1 Mg13 3.134367 1_455
Mg1 Mg8 3.316966 1_555
Mg1 Mg9 3.316966 1_555
Mg1 Mg6 3.316973 1_565
Mg1 Mg7 3.316973 1_565
Mg1 Mg3 3.367458 1_455
Mg1 Mg5 3.367458 1_455
Mg2 Mg7 3.026408 1_554
Mg2 Mg6 3.026408 1_555
Mg2 Mg4 3.185539 1_555
Mg2 Mg4 3.299694 1_545
Mg3 Mg5 3.117776 1_545
Mg3 Mg6 3.316973 1_555
Mg3 Mg7 3.316973 1_555
Mg3 Mg5 3.367458 1_555
Mg4 Mg9 3.026408 1_554
Mg4 Mg8 3.026408 1_555
Mg5 Mg8 3.316972 1_555
Mg5 Mg9 3.316972 1_555
Mg6 Mg8 3.167396 1_555
Mg6 Mg8 3.317838 1_545
Mg7 Mg9 3.167396 1_555
Mg7 Mg9 3.317838 1_545
Mg10 Mg2 3.026401 1_555
Mg10 Mg4 3.026408 1_545
Mg10 Mg8 3.167396 1_655
Mg10 Mg6 3.167396 1_655
Mg10 Mg12 3.255631 1_545
Mg10 Mg12 3.255631 1_555
Mg10 Mg3 3.316966 1_555
Mg10 Mg5 3.316972 1_545
Mg10 Mg8 3.317838 1_545
Mg10 Mg6 3.317838 1_555
Mg11 Mg2 3.026401 1_556
Mg11 Mg4 3.026408 1_546
Mg11 Mg9 3.167396 1_655
Mg11 Mg7 3.167396 1_655
Mg11 Mg13 3.255631 1_545
Mg11 Mg13 3.255631 1_555
Mg11 Mg3 3.316966 1_555
Mg11 Mg5 3.316972 1_545
Mg11 Mg9 3.317838 1_545
Mg11 Mg7 3.317838 1_555
Mg12 Mg5 3.134360 1_555
Mg12 Mg3 3.134367 1_555
Mg12 Mg4 3.213228 1_555
Mg12 Mg2 3.213235 1_555
Mg12 Mg6 3.255631 1_665
Mg12 Mg6 3.255631 1_555
Mg12 Mg8 3.255631 1_655
Mg12 Mg8 3.255631 1_555
Mg13 Mg5 3.134360 1_555
Mg13 Mg3 3.134367 1_555
Mg13 Mg4 3.213228 1_556
Mg13 Mg2 3.213235 1_556
Mg13 Mg7 3.255631 1_665
Mg13 Mg7 3.255631 1_555
Mg13 Mg9 3.255631 1_555
Mg13 Mg9 3.255631 1_655
Co0 Mg7 2.975541 1_554
Co0 Mg6 2.975541 1_555
Co0 Mg9 2.975548 1_554
Co0 Mg8 2.975548 1_555
Co0 Mg11 2.975548 1_454
Co0 Mg10 2.975548 1_455
Co0 Mg0 3.242784 1_545
Co0 Mg4 3.242784 1_445
Co0 Mg0 3.242784 1_555
Co0 Mg4 3.242784 1_555
Co0 Mg2 3.242785 1_455
Co0 Mg2 3.242785 1_555
