# generated using pymatgen
data_Li9Mn2Co5O16
_symmetry_space_group_name_H-M   'P 1'
_cell_length_a   4.97799900
_cell_length_b   5.96084785
_cell_length_c   9.83118796
_cell_angle_alpha   87.96527047
_cell_angle_beta   78.98252142
_cell_angle_gamma   88.36600452
_symmetry_Int_Tables_number   1
_chemical_formula_structural   Li9Mn2Co5O16
_chemical_formula_sum   'Li9 Mn2 Co5 O16'
_cell_volume   286.09426602
_cell_formula_units_Z   1
loop_
 _symmetry_equiv_pos_site_id
 _symmetry_equiv_pos_as_xyz
  1  'x, y, z'
loop_
 _atom_site_type_symbol
 _atom_site_label
 _atom_site_symmetry_multiplicity
 _atom_site_fract_x
 _atom_site_fract_y
 _atom_site_fract_z
 _atom_site_occupancy
  Li  Li0  1  0.25220400  0.99543000  0.24653100  1
  Li  Li1  1  0.25579500  0.25641400  0.75366700  1
  Li  Li2  1  0.24358000  0.50326200  0.24620300  1
  Li  Li3  1  0.74350100  0.25881400  0.24433000  1
  Li  Li4  1  0.75413000  0.49570900  0.75419100  1
  Li  Li5  1  0.75598600  0.74591400  0.24841000  1
  Li  Li6  1  0.24443900  0.74380900  0.75446900  1
  Li  Li7  1  0.75202800  0.00361200  0.75348500  1
  Li  Li8  1  0.00059900  0.50013400  0.99930600  1
  Mn  Mn0  1  0.99745300  0.00314500  0.00149200  1
  Mn  Mn1  1  0.00041700  0.24953800  0.49890900  1
  Co  Co0  1  0.99982100  0.74972700  0.50097100  1
  Co  Co1  1  0.50141900  0.50191800  0.50010200  1
  Co  Co2  1  0.49921400  0.74554400  0.99938400  1
  Co  Co3  1  0.49885600  0.99731700  0.50032800  1
  Co  Co4  1  0.49442400  0.25744000  0.99803800  1
  O  O0  1  0.13492100  0.76247700  0.11097400  1
  O  O1  1  0.14123600  0.01546200  0.61899100  1
  O  O2  1  0.14438300  0.22948300  0.10827700  1
  O  O3  1  0.64160100  0.02532600  0.11582100  1
  O  O4  1  0.63866600  0.24587800  0.61388800  1
  O  O5  1  0.59575100  0.49388500  0.10468400  1
  O  O6  1  0.13715300  0.52262700  0.61740100  1
  O  O7  1  0.64160900  0.74356400  0.61446300  1
  O  O8  1  0.36323100  0.25429200  0.38449000  1
  O  O9  1  0.39103500  0.47293200  0.88146300  1
  O  O10  1  0.35881100  0.75424600  0.38647600  1
  O  O11  1  0.86010300  0.48428800  0.37897100  1
  O  O12  1  0.86327900  0.77308400  0.89448700  1
  O  O13  1  0.86222600  0.97532000  0.38484100  1
  O  O14  1  0.37213100  0.00256100  0.89455600  1
  O  O15  1  0.85999700  0.23684800  0.89040100  1
loop_
_geom_bond_atom_site_label_1
_geom_bond_atom_site_label_2
_geom_bond_distance
_geom_bond_site_symmetry_2
Li0 O2 2.045346 1_565
Li0 O10 2.082426 1_555
Li0 O3 2.119409 1_565
Li0 O0 2.126065 1_555
Li0 O13 2.150520 1_455
Li0 O8 2.238247 1_565
Li1 O9 2.045838 1_555
Li1 O4 2.126772 1_555
Li1 O1 2.147439 1_555
Li1 O14 2.156710 1_555
Li1 O15 2.166169 1_455
Li1 O6 2.181651 1_555
Li2 O5 2.019875 1_555
Li2 O11 2.100015 1_455
Li2 O8 2.126351 1_555
Li2 O0 2.128105 1_555
Li2 O10 2.228647 1_555
Li2 O2 2.281406 1_555
Li3 O3 2.049543 1_555
Li3 O11 2.088041 1_555
Li3 O8 2.118047 1_555
Li3 O5 2.140039 1_555
Li3 O2 2.185980 1_655
Li3 O13 2.280900 1_545
Li4 O9 1.997134 1_555
Li4 O7 2.118099 1_555
Li4 O6 2.119383 1_655
Li4 O15 2.128032 1_555
Li4 O4 2.224501 1_555
Li4 O12 2.330437 1_555
Li5 O13 2.095535 1_555
Li5 O11 2.101023 1_555
Li5 O0 2.102528 1_655
Li5 O10 2.174255 1_555
Li5 O3 2.207441 1_565
Li5 O5 2.353635 1_555
Li6 O6 2.068998 1_555
Li6 O12 2.127293 1_455
Li6 O1 2.172771 1_565
Li6 O7 2.182511 1_555
Li6 O9 2.199160 1_555
Li6 O14 2.284970 1_565
Li7 O12 2.057020 1_545
Li7 O4 2.096713 1_555
Li7 O15 2.117930 1_555
Li7 O14 2.120722 1_555
Li7 O1 2.128174 1_655
Li7 O7 2.249255 1_545
Li8 O12 2.064735 1_455
Li8 O9 2.069000 1_555
Li8 O5 2.083208 1_456
Li8 O2 2.089806 1_556
Li8 O0 2.135385 1_556
Li8 O15 2.137203 1_455
Mn0 O3 1.911799 1_555
Mn0 O15 1.929996 1_554
Mn0 O0 1.949543 1_645
Mn0 O14 1.958176 1_654
Mn0 O12 1.963837 1_544
Mn0 O2 1.976789 1_655
Mn1 O4 1.934827 1_455
Mn1 O8 1.937068 1_555
Mn1 O1 1.993863 1_555
Mn1 O11 1.994540 1_455
Mn1 O13 2.211740 1_445
Mn1 O6 2.229604 1_555
Co0 O7 1.914776 1_555
Co0 O10 1.921731 1_655
Co0 O13 1.928278 1_555
Co0 O6 1.935558 1_655
Co0 O1 2.203900 1_665
Co0 O11 2.223099 1_555
Co1 O11 1.950072 1_555
Co1 O6 1.957367 1_555
Co1 O10 2.033964 1_555
Co1 O4 2.039342 1_555
Co1 O7 2.073184 1_555
Co1 O8 2.102311 1_555
Co2 O5 1.895176 1_556
Co2 O12 1.914557 1_555
Co2 O0 1.933740 1_556
Co2 O14 1.972627 1_565
Co2 O9 2.167234 1_555
Co2 O3 2.259916 1_566
Co3 O1 1.935474 1_565
Co3 O13 1.946870 1_555
Co3 O7 2.043261 1_555
Co3 O8 2.051862 1_565
Co3 O10 2.075861 1_555
Co3 O4 2.097448 1_565
Co4 O9 1.819767 1_555
Co4 O2 1.876324 1_556
Co4 O5 1.920349 1_556
Co4 O15 1.925368 1_555
Co4 O3 1.986110 1_556
Co4 O14 2.028076 1_555
