# generated using pymatgen
data_Na8PtO6
_symmetry_space_group_name_H-M   'P 1'
_cell_length_a   4.50332177
_cell_length_b   10.77765576
_cell_length_c   8.24141314
_cell_angle_alpha   40.06044697
_cell_angle_beta   57.47189471
_cell_angle_gamma   65.71634534
_symmetry_Int_Tables_number   1
_chemical_formula_structural   Na8PtO6
_chemical_formula_sum   'Na8 Pt1 O6'
_cell_volume   217.05273372
_cell_formula_units_Z   1
loop_
 _symmetry_equiv_pos_site_id
 _symmetry_equiv_pos_as_xyz
  1  'x, y, z'
loop_
 _atom_site_type_symbol
 _atom_site_label
 _atom_site_symmetry_multiplicity
 _atom_site_fract_x
 _atom_site_fract_y
 _atom_site_fract_z
 _atom_site_occupancy
  Na  Na0  1  0.29322600  0.32565800  0.45578400  1
  Na  Na1  1  0.73836400  0.22533100  0.10716600  1
  Na  Na2  1  0.25283400  0.91993600  0.36853800  1
  Na  Na3  1  0.46408400  0.28880800  0.79076200  1
  Na  Na4  1  0.62814800  0.71083000  0.20823900  1
  Na  Na5  1  0.83620500  0.07989600  0.62979200  1
  Na  Na6  1  0.40141700  0.78055800  0.89039600  1
  Na  Na7  1  0.84748800  0.66747400  0.55578200  1
  Pt  Pt0  1  0.07671200  0.49992400  0.00080800  1
  O  O0  1  0.16975600  0.21811000  0.18735100  1
  O  O1  1  0.22748100  0.00189600  0.98896700  1
  O  O2  1  0.57070500  0.50048900  0.00381300  1
  O  O3  1  0.35554700  0.59422200  0.62323600  1
  O  O4  1  0.79622600  0.40550100  0.37755800  1
  O  O5  1  0.98180600  0.78136600  0.81180800  1
loop_
_geom_bond_atom_site_label_1
_geom_bond_atom_site_label_2
_geom_bond_distance
_geom_bond_site_symmetry_2
Na0 O2 2.274635 1_555
Na0 O4 2.298665 1_455
Na0 O4 2.338949 1_555
Na0 O1 2.748131 1_555
Na1 O2 2.252437 1_555
Na1 O0 2.294549 1_555
Na1 O0 2.322583 1_655
Na1 O1 2.918920 1_654
Na2 O0 2.227879 1_565
Na2 O3 2.317839 1_555
Na2 O5 2.327762 1_455
Na2 O1 2.578818 1_564
Na3 O4 2.220183 1_555
Na3 O0 2.319432 1_556
Na3 O3 2.329348 1_555
Na3 O1 2.543974 1_555
Na4 O3 2.226670 1_555
Na4 O5 2.320939 1_554
Na4 O4 2.325326 1_555
Na4 O1 2.556460 1_564
Na5 O5 2.228627 1_545
Na5 O4 2.320523 1_555
Na5 O0 2.325244 1_655
Na5 O1 2.518602 1_555
Na6 O2 2.262941 1_556
Na6 O5 2.298768 1_455
Na6 O5 2.332480 1_555
Na6 O1 2.776565 1_565
Na7 O2 2.269340 1_556
Na7 O3 2.298366 1_555
Na7 O3 2.318919 1_655
Na7 O1 2.905908 1_664
O0 Pt0 2.064593 1_555
O2 Pt0 2.240571 1_555
O2 Pt0 2.263031 1_655
O3 Pt0 2.073441 1_556
O4 Pt0 2.067506 1_655
O5 Pt0 2.055972 1_656
