# generated using pymatgen
data_BaAlFeCuO5
_symmetry_space_group_name_H-M   'P 1'
_cell_length_a   3.72858600
_cell_length_b   3.72858600
_cell_length_c   8.15671600
_cell_angle_alpha   90.00000000
_cell_angle_beta   90.00000000
_cell_angle_gamma   90.00000000
_symmetry_Int_Tables_number   1
_chemical_formula_structural   BaAlFeCuO5
_chemical_formula_sum   'Ba1 Al1 Fe1 Cu1 O5'
_cell_volume   113.39754972
_cell_formula_units_Z   1
loop_
 _symmetry_equiv_pos_site_id
 _symmetry_equiv_pos_as_xyz
  1  'x, y, z'
loop_
 _atom_site_type_symbol
 _atom_site_label
 _atom_site_symmetry_multiplicity
 _atom_site_fract_x
 _atom_site_fract_y
 _atom_site_fract_z
 _atom_site_occupancy
  Ba  Ba0  1  0.00000000  0.00000000  0.02793100  1
  Al  Al0  1  0.00000000  0.00000000  0.47513700  1
  Fe  Fe0  1  0.50000000  0.50000000  0.69089100  1
  Cu  Cu0  1  0.50000000  0.50000000  0.28001100  1
  O  O0  1  0.00000000  0.50000000  0.60092900  1
  O  O1  1  0.50000000  0.00000000  0.60092900  1
  O  O2  1  0.00000000  0.50000000  0.29594500  1
  O  O3  1  0.50000000  0.00000000  0.29594500  1
  O  O4  1  0.50000000  0.50000000  0.92019900  1
loop_
_geom_bond_atom_site_label_1
_geom_bond_atom_site_label_2
_geom_bond_distance
_geom_bond_site_symmetry_2
Ba0 O4 2.779093 1_454
Ba0 O4 2.779093 1_444
Ba0 O4 2.779093 1_544
Ba0 O4 2.779093 1_554
Ba0 O2 2.873096 1_545
Ba0 O3 2.873096 1_455
Ba0 O2 2.873096 1_555
Ba0 O3 2.873096 1_555
Al0 O1 2.127996 1_555
Al0 O0 2.127996 1_555
Al0 O1 2.127996 1_455
Al0 O0 2.127996 1_545
Al0 O3 2.368948 1_555
Al0 O2 2.368948 1_555
Al0 O2 2.368948 1_545
Al0 O3 2.368948 1_455
Fe0 O4 1.870400 1_555
Fe0 O0 2.003508 1_555
Fe0 O0 2.003508 1_655
Fe0 O1 2.003508 1_555
Fe0 O1 2.003508 1_565
Cu0 O2 1.868818 1_555
Cu0 O2 1.868818 1_655
Cu0 O3 1.868818 1_565
Cu0 O3 1.868818 1_555
