# generated using pymatgen
data_Mg2Fe2O5
_symmetry_space_group_name_H-M   'P 1'
_cell_length_a   7.85746448
_cell_length_b   7.85746448
_cell_length_c   7.85746448
_cell_angle_alpha   140.42303509
_cell_angle_beta   139.67164991
_cell_angle_gamma   57.78365492
_symmetry_Int_Tables_number   1
_chemical_formula_structural   Mg2Fe2O5
_chemical_formula_sum   'Mg4 Fe4 O10'
_cell_volume   198.26991421
_cell_formula_units_Z   2
loop_
 _symmetry_equiv_pos_site_id
 _symmetry_equiv_pos_as_xyz
  1  'x, y, z'
loop_
 _atom_site_type_symbol
 _atom_site_label
 _atom_site_symmetry_multiplicity
 _atom_site_fract_x
 _atom_site_fract_y
 _atom_site_fract_z
 _atom_site_occupancy
  Mg  Mg0  1  0.34072900  0.89314200  0.46920600  1
  Mg  Mg1  1  0.57606400  0.10685800  0.44758600  1
  Mg  Mg2  1  0.84072900  0.37152300  0.44758600  1
  Mg  Mg3  1  0.07606400  0.62847700  0.46920600  1
  Fe  Fe0  1  0.01303900  0.00000000  0.01303900  1
  Fe  Fe1  1  0.51303900  0.50000000  0.01303900  1
  Fe  Fe2  1  0.69316400  0.71673800  0.90990200  1
  Fe  Fe3  1  0.19316400  0.28326200  0.97642600  1
  O  O0  1  0.31196300  0.29855800  0.52606600  1
  O  O1  1  0.22750800  0.70144200  0.01340600  1
  O  O2  1  0.81196300  0.28589700  0.01340600  1
  O  O3  1  0.72750800  0.71410300  0.52606600  1
  O  O4  1  0.94053500  0.99458200  0.22075100  1
  O  O5  1  0.22616900  0.00541800  0.94595300  1
  O  O6  1  0.44053500  0.21978400  0.94595300  1
  O  O7  1  0.72616900  0.78021600  0.22075100  1
  O  O8  1  0.33482900  0.62263800  0.45746800  1
  O  O9  1  0.83482900  0.37736200  0.71219100  1
loop_
_geom_bond_atom_site_label_1
_geom_bond_atom_site_label_2
_geom_bond_distance
_geom_bond_site_symmetry_2
Mg0 O6 2.020127 1_565
Mg0 O1 2.035145 1_555
Mg0 O8 2.079579 1_555
Mg0 O4 2.168171 1_455
Mg0 O3 2.398939 1_555
Mg1 O7 2.020124 1_545
Mg1 O0 2.035156 1_555
Mg1 O9 2.079569 1_555
Mg1 O5 2.168166 1_554
Mg1 O2 2.398952 1_556
Mg2 O4 2.020126 1_545
Mg2 O3 2.035149 1_555
Mg2 O9 2.079581 1_555
Mg2 O6 2.168168 1_554
Mg2 O1 2.398940 1_656
Mg3 O5 2.020127 1_565
Mg3 O2 2.035152 1_455
Mg3 O8 2.079567 1_555
Mg3 O7 2.168171 1_455
Mg3 O0 2.398939 1_555
Fe0 O2 1.937863 1_455
Fe0 O3 1.937865 1_444
Fe0 O0 2.032490 1_555
Fe0 O1 2.032492 1_545
Fe0 O5 2.130894 1_554
Fe0 O4 2.130894 1_445
Fe1 O0 1.937865 1_554
Fe1 O1 1.937867 1_555
Fe1 O2 2.032488 1_555
Fe1 O3 2.032490 1_555
Fe1 O7 2.130894 1_555
Fe1 O6 2.130894 1_554
Fe2 O7 1.891010 1_556
Fe2 O4 1.891010 1_556
Fe2 O9 1.961891 1_555
Fe2 O8 2.004658 1_555
Fe3 O6 1.891010 1_555
Fe3 O5 1.891010 1_555
Fe3 O8 1.961895 1_556
Fe3 O9 2.004662 1_455
