# generated using pymatgen
data_NbCr3(AgS4)2
_symmetry_space_group_name_H-M   'P 1'
_cell_length_a   13.88764096
_cell_length_b   3.40162300
_cell_length_c   5.83111399
_cell_angle_alpha   90.00000000
_cell_angle_beta   112.59278490
_cell_angle_gamma   90.00000000
_symmetry_Int_Tables_number   1
_chemical_formula_structural   NbCr3(AgS4)2
_chemical_formula_sum   'Nb1 Cr3 Ag2 S8'
_cell_volume   254.32529309
_cell_formula_units_Z   1
loop_
 _symmetry_equiv_pos_site_id
 _symmetry_equiv_pos_as_xyz
  1  'x, y, z'
loop_
 _atom_site_type_symbol
 _atom_site_label
 _atom_site_symmetry_multiplicity
 _atom_site_fract_x
 _atom_site_fract_y
 _atom_site_fract_z
 _atom_site_occupancy
  Nb  Nb0  1  0.74710100  0.50000000  0.20552700  1
  Cr  Cr0  1  0.24678000  0.00000000  0.19774200  1
  Cr  Cr1  1  0.75526000  0.00000000  0.79457300  1
  Cr  Cr2  1  0.25265300  0.50000000  0.80057500  1
  Ag  Ag0  1  0.00271200  0.50000000  0.49664100  1
  Ag  Ag1  1  0.49458800  0.00000000  0.48752200  1
  S  S0  1  0.13492300  0.50000000  0.98477500  1
  S  S1  1  0.87391600  0.50000000  0.01620300  1
  S  S2  1  0.62294200  0.00000000  0.96528300  1
  S  S3  1  0.36482900  0.00000000  0.01263100  1
  S  S4  1  0.15901100  0.00000000  0.50024600  1
  S  S5  1  0.85244100  0.00000000  0.52936500  1
  S  S6  1  0.65387500  0.50000000  0.51188800  1
  S  S7  1  0.33897000  0.50000000  0.49703200  1
loop_
_geom_bond_atom_site_label_1
_geom_bond_atom_site_label_2
_geom_bond_distance
_geom_bond_site_symmetry_2
Nb0 S1 2.411293 1_555
Nb0 S2 2.443848 1_554
Nb0 S2 2.443848 1_564
Nb0 S5 2.544826 1_555
Nb0 S5 2.544826 1_565
Nb0 S6 2.577721 1_555
Cr0 S3 2.283090 1_555
Cr0 S0 2.316423 1_554
Cr0 S0 2.316423 1_544
Cr0 S7 2.420916 1_555
Cr0 S7 2.420916 1_545
Cr0 S4 2.499844 1_555
Cr1 S1 2.375299 1_546
Cr1 S1 2.375299 1_556
Cr1 S2 2.402721 1_555
Cr1 S6 2.410198 1_555
Cr1 S6 2.410198 1_545
Cr1 S5 2.411773 1_555
Cr2 S0 2.275128 1_555
Cr2 S3 2.317016 1_556
Cr2 S3 2.317016 1_566
Cr2 S4 2.429190 1_555
Cr2 S4 2.429190 1_565
Cr2 S7 2.490005 1_555
Ag0 S1 2.682813 1_455
Ag0 S0 2.730834 1_555
Ag0 S4 2.751318 1_555
Ag0 S4 2.751318 1_565
Ag0 S5 2.755057 1_455
Ag0 S5 2.755057 1_465
Ag1 S3 2.661076 1_555
Ag1 S2 2.668884 1_555
Ag1 S6 2.750442 1_555
Ag1 S6 2.750442 1_545
Ag1 S7 2.767411 1_545
Ag1 S7 2.767411 1_555
