# generated using pymatgen
data_Li7Mn2(CoO4)3
_symmetry_space_group_name_H-M   'P 1'
_cell_length_a   7.71098699
_cell_length_b   7.71098699
_cell_length_c   9.92051750
_cell_angle_alpha   78.26650924
_cell_angle_beta   78.26650924
_cell_angle_gamma   22.15672910
_symmetry_Int_Tables_number   1
_chemical_formula_structural   Li7Mn2(CoO4)3
_chemical_formula_sum   'Li7 Mn2 Co3 O12'
_cell_volume   217.63461589
_cell_formula_units_Z   1
loop_
 _symmetry_equiv_pos_site_id
 _symmetry_equiv_pos_as_xyz
  1  'x, y, z'
loop_
 _atom_site_type_symbol
 _atom_site_label
 _atom_site_symmetry_multiplicity
 _atom_site_fract_x
 _atom_site_fract_y
 _atom_site_fract_z
 _atom_site_occupancy
  Li  Li0  1  0.07967200  0.07967200  0.27150400  1
  Li  Li1  1  0.25361900  0.25361900  0.73716900  1
  Li  Li2  1  0.41377100  0.41377100  0.26143300  1
  Li  Li3  1  0.58793000  0.58793000  0.72181500  1
  Li  Li4  1  0.74769200  0.74769200  0.27401400  1
  Li  Li5  1  0.91499400  0.91499400  0.73181200  1
  Li  Li6  1  0.16694300  0.16694300  0.50244700  1
  Mn  Mn0  1  0.99969100  0.99969100  0.99703500  1
  Mn  Mn1  1  0.66882400  0.66882400  0.00058200  1
  Co  Co0  1  0.33377800  0.33377800  0.00251700  1
  Co  Co1  1  0.50335900  0.50335900  0.50159900  1
  Co  Co2  1  0.82510600  0.82510600  0.49682700  1
  O  O0  1  0.12754900  0.12754900  0.89461600  1
  O  O1  1  0.29310500  0.29310500  0.37657200  1
  O  O2  1  0.47032000  0.47032000  0.88674600  1
  O  O3  1  0.60991700  0.60991700  0.38563200  1
  O  O4  1  0.78532000  0.78532000  0.89003200  1
  O  O5  1  0.95376900  0.95376900  0.38845000  1
  O  O6  1  0.03758500  0.03758500  0.61932900  1
  O  O7  1  0.19696400  0.19696400  0.11431200  1
  O  O8  1  0.38515400  0.38515400  0.61032900  1
  O  O9  1  0.54116500  0.54116500  0.10209700  1
  O  O10  1  0.71918600  0.71918600  0.62174600  1
  O  O11  1  0.88458900  0.88458900  0.11138600  1
loop_
_geom_bond_atom_site_label_1
_geom_bond_atom_site_label_2
_geom_bond_distance
_geom_bond_site_symmetry_2
Li0 O3 1.975243 1_545
Li0 O3 1.975243 1_455
Li0 O5 2.015112 1_445
Li0 O7 2.106122 1_555
Li0 O9 2.401117 1_455
Li0 O9 2.401117 1_545
Li1 O10 2.006341 1_545
Li1 O10 2.006341 1_455
Li1 O8 2.123252 1_555
Li1 O0 2.201159 1_555
Li1 O4 2.242055 1_545
Li1 O4 2.242055 1_455
Li2 O1 1.943014 1_555
Li2 O5 2.113230 1_455
Li2 O5 2.113230 1_545
Li2 O11 2.208768 1_545
Li2 O11 2.208768 1_455
Li2 O9 2.225515 1_555
Li3 O10 2.028403 1_555
Li3 O6 2.032414 1_655
Li3 O6 2.032414 1_565
Li3 O2 2.153707 1_555
Li3 O0 2.433034 1_565
Li3 O0 2.433034 1_655
Li4 O1 1.998182 1_565
Li4 O1 1.998182 1_655
Li4 O3 2.148754 1_555
Li4 O11 2.347392 1_555
Li4 O7 2.408112 1_655
Li4 O7 2.408112 1_565
Li5 O6 1.956919 1_665
Li5 O8 2.019242 1_565
Li5 O8 2.019242 1_655
Li5 O4 2.244703 1_555
Li5 O2 2.406727 1_565
Li5 O2 2.406727 1_655
Li6 O1 2.053541 1_555
Li6 O6 2.058297 1_555
Li6 O10 2.146870 1_545
Li6 O10 2.146870 1_455
Li6 O3 2.167425 1_455
Li6 O3 2.167425 1_545
Mn0 O11 1.871506 1_556
Mn0 O2 1.947213 1_655
Mn0 O2 1.947213 1_565
Mn0 O9 1.986662 1_566
Mn0 O9 1.986662 1_656
Mn0 O0 1.990486 1_665
Mn1 O4 1.873496 1_554
Mn1 O7 1.961852 1_655
Mn1 O7 1.961852 1_565
Mn1 O9 1.985118 1_555
Mn1 O0 1.990691 1_564
Mn1 O0 1.990691 1_654
Co0 O11 2.073024 1_545
Co0 O11 2.073024 1_455
Co0 O4 2.077899 1_454
Co0 O4 2.077899 1_544
Co0 O7 2.136764 1_555
Co0 O2 2.146133 1_554
Co1 O3 1.776357 1_555
Co1 O8 1.887913 1_555
Co1 O6 2.019532 1_565
Co1 O6 2.019532 1_655
Co1 O5 2.089929 1_545
Co1 O5 2.089929 1_455
Co2 O10 1.811691 1_555
Co2 O5 2.019928 1_555
Co2 O1 2.023024 1_565
Co2 O1 2.023024 1_655
Co2 O8 2.171005 1_565
Co2 O8 2.171005 1_655
