# generated using pymatgen
data_Ba2Mn2ZnCuF14
_symmetry_space_group_name_H-M   'P 1'
_cell_length_a   7.43684962
_cell_length_b   7.43684962
_cell_length_c   14.81924743
_cell_angle_alpha   86.94346153
_cell_angle_beta   86.94346153
_cell_angle_gamma   42.31072499
_symmetry_Int_Tables_number   1
_chemical_formula_structural   Ba2Mn2ZnCuF14
_chemical_formula_sum   'Ba4 Mn4 Zn2 Cu2 F28'
_cell_volume   550.81481018
_cell_formula_units_Z   2
loop_
 _symmetry_equiv_pos_site_id
 _symmetry_equiv_pos_as_xyz
  1  'x, y, z'
loop_
 _atom_site_type_symbol
 _atom_site_label
 _atom_site_symmetry_multiplicity
 _atom_site_fract_x
 _atom_site_fract_y
 _atom_site_fract_z
 _atom_site_occupancy
  Ba  Ba0  1  0.73879500  0.88555500  0.62640600  1
  Ba  Ba1  1  0.88555500  0.73879500  0.12640600  1
  Ba  Ba2  1  0.26120500  0.11444500  0.37359400  1
  Ba  Ba3  1  0.11444500  0.26120500  0.87359400  1
  Mn  Mn0  1  0.86123300  0.89995900  0.87404400  1
  Mn  Mn1  1  0.13876700  0.10004100  0.12595600  1
  Mn  Mn2  1  0.89995900  0.86123300  0.37404400  1
  Mn  Mn3  1  0.10004100  0.13876700  0.62595600  1
  Zn  Zn0  1  0.43504100  0.56495900  0.75000000  1
  Zn  Zn1  1  0.56495900  0.43504100  0.25000000  1
  Cu  Cu0  1  0.50000000  0.50000000  0.00000000  1
  Cu  Cu1  1  0.50000000  0.50000000  0.50000000  1
  F  F0  1  0.91174300  0.09649700  0.33941800  1
  F  F1  1  0.59117200  0.12780300  0.45522400  1
  F  F2  1  0.40882800  0.87219700  0.54477600  1
  F  F3  1  0.14893800  0.34687400  0.59539100  1
  F  F4  1  0.50482600  0.39770900  0.62588500  1
  F  F5  1  0.60229100  0.49517400  0.87411500  1
  F  F6  1  0.12780300  0.59117200  0.95522400  1
  F  F7  1  0.90350300  0.08825700  0.16058200  1
  F  F8  1  0.05051000  0.62281600  0.77182200  1
  F  F9  1  0.85106200  0.65312600  0.40460900  1
  F  F10  1  0.58451700  0.18658900  0.79046200  1
  F  F11  1  0.65312600  0.85106200  0.90460900  1
  F  F12  1  0.18658900  0.58451700  0.29046200  1
  F  F13  1  0.41548300  0.81341100  0.20953800  1
  F  F14  1  0.39770900  0.50482600  0.12588500  1
  F  F15  1  0.94949000  0.37718400  0.22817800  1
  F  F16  1  0.28892500  0.87175700  0.01107800  1
  F  F17  1  0.08825700  0.90350300  0.66058200  1
  F  F18  1  0.71107500  0.12824300  0.98892200  1
  F  F19  1  0.87175700  0.28892500  0.51107800  1
  F  F20  1  0.87219700  0.40882800  0.04477600  1
  F  F21  1  0.81341100  0.41548300  0.70953800  1
  F  F22  1  0.62281600  0.05051000  0.27182200  1
  F  F23  1  0.12824300  0.71107500  0.48892200  1
  F  F24  1  0.49517400  0.60229100  0.37411500  1
  F  F25  1  0.09649700  0.91174300  0.83941800  1
  F  F26  1  0.37718400  0.94949000  0.72817800  1
  F  F27  1  0.34687400  0.14893800  0.09539100  1
loop_
_geom_bond_atom_site_label_1
_geom_bond_atom_site_label_2
_geom_bond_distance
_geom_bond_site_symmetry_2
Ba0 F8 2.687020 1_655
Ba0 F26 2.735968 1_555
Ba0 F3 2.745541 1_655
Ba0 F17 2.772944 1_655
Ba0 F4 2.780491 1_565
Ba0 F1 2.787574 1_565
Ba0 F2 2.860919 1_555
Ba0 F23 2.883995 1_655
Ba0 F10 2.953474 1_565
Ba0 F3 3.002098 1_565
Ba0 F21 3.284990 1_555
Ba1 F22 2.687020 1_565
Ba1 F15 2.735968 1_555
Ba1 F27 2.745541 1_565
Ba1 F7 2.772944 1_565
Ba1 F14 2.780491 1_655
Ba1 F6 2.787574 1_654
Ba1 F20 2.860919 1_555
Ba1 F18 2.883995 1_564
Ba1 F12 2.953474 1_655
Ba1 F27 3.002098 1_655
Ba1 F13 3.284990 1_555
Ba2 F15 2.687020 1_455
Ba2 F22 2.735968 1_555
Ba2 F9 2.745541 1_455
Ba2 F0 2.772944 1_455
Ba2 F24 2.780491 1_545
Ba2 F2 2.787574 1_545
Ba2 F1 2.860919 1_555
Ba2 F19 2.883995 1_455
Ba2 F13 2.953474 1_545
Ba2 F9 3.002098 1_545
Ba2 F12 3.284990 1_555
Ba3 F26 2.687020 1_545
Ba3 F8 2.735968 1_555
Ba3 F11 2.745541 1_545
Ba3 F25 2.772944 1_545
Ba3 F5 2.780491 1_455
Ba3 F20 2.787574 1_456
Ba3 F6 2.860919 1_555
Ba3 F16 2.883995 1_546
Ba3 F21 2.953474 1_455
Ba3 F11 3.002098 1_455
Ba3 F10 3.284990 1_555
Cu0 F16 1.933089 1_555
Cu0 F18 1.933089 1_554
Cu0 F14 1.968648 1_555
Cu0 F5 1.968648 1_554
Cu0 F20 2.435943 1_555
Cu0 F6 2.435943 1_554
Cu1 F19 1.933089 1_555
Cu1 F23 1.933089 1_555
Cu1 F4 1.968648 1_555
Cu1 F24 1.968648 1_555
Cu1 F2 2.435943 1_555
Cu1 F1 2.435943 1_555
F0 Mn2 1.859678 1_545
F0 Zn1 2.269618 1_555
F1 Mn2 1.969102 1_545
F2 Mn3 1.969102 1_565
F3 Mn3 1.863518 1_555
F4 Zn0 2.094482 1_555
F5 Zn0 2.094482 1_555
F6 Mn0 1.969102 1_455
F7 Mn1 1.859678 1_655
F7 Zn1 2.269618 1_555
F8 Mn0 2.082988 1_455
F9 Mn2 1.863518 1_555
F10 Mn0 1.953276 1_545
F10 Zn0 2.185864 1_555
F11 Mn0 1.863518 1_555
F12 Mn2 1.953276 1_455
F12 Zn1 2.185864 1_555
F13 Mn1 1.953276 1_565
F13 Zn1 2.185864 1_555
F14 Zn1 2.094482 1_555
F15 Mn1 2.082988 1_655
F16 Mn1 2.080614 1_565
F17 Mn3 1.859678 1_565
F17 Zn0 2.269618 1_555
F18 Mn0 2.080614 1_545
F19 Mn3 2.080614 1_655
F20 Mn1 1.969102 1_655
F21 Mn3 1.953276 1_655
F21 Zn0 2.185864 1_555
F22 Mn2 2.082988 1_545
F23 Mn2 2.080614 1_455
F24 Zn1 2.094482 1_555
F25 Mn0 1.859678 1_455
F25 Zn0 2.269618 1_555
F26 Mn3 2.082988 1_565
F27 Mn1 1.863518 1_555
