# generated using pymatgen
data_DyAl3Ni2
_symmetry_space_group_name_H-M   'P 1'
_cell_length_a   8.95007090
_cell_length_b   8.95007090
_cell_length_c   4.04101707
_cell_angle_alpha   90.00000000
_cell_angle_beta   90.00000000
_cell_angle_gamma   120.00000341
_symmetry_Int_Tables_number   1
_chemical_formula_structural   DyAl3Ni2
_chemical_formula_sum   'Dy3 Al9 Ni6'
_cell_volume   280.33301848
_cell_formula_units_Z   3
loop_
 _symmetry_equiv_pos_site_id
 _symmetry_equiv_pos_as_xyz
  1  'x, y, z'
loop_
 _atom_site_type_symbol
 _atom_site_label
 _atom_site_symmetry_multiplicity
 _atom_site_fract_x
 _atom_site_fract_y
 _atom_site_fract_z
 _atom_site_occupancy
  Dy  Dy0  1  0.33333300  0.66666700  0.50000000  1
  Dy  Dy1  1  0.66666700  0.33333300  0.50000000  1
  Dy  Dy2  1  -0.00000000  -0.00000000  -0.00000000  1
  Al  Al0  1  0.50000000  -0.00000000  -0.00000000  1
  Al  Al1  1  -0.00000000  0.50000000  -0.00000000  1
  Al  Al2  1  0.50000000  0.50000000  -0.00000000  1
  Al  Al3  1  0.29715398  -0.00000000  0.50000000  1
  Al  Al4  1  0.70284602  0.00000000  0.50000000  1
  Al  Al5  1  -0.00000000  0.29715398  0.50000000  1
  Al  Al6  1  0.00000000  0.70284602  0.50000000  1
  Al  Al7  1  0.70284602  0.70284602  0.50000000  1
  Al  Al8  1  0.29715398  0.29715398  0.50000000  1
  Ni  Ni0  1  0.18115347  0.36230795  0.00000000  1
  Ni  Ni1  1  0.81884653  0.63769205  -0.00000000  1
  Ni  Ni2  1  0.63769205  0.81884653  -0.00000000  1
  Ni  Ni3  1  0.36230795  0.18115347  0.00000000  1
  Ni  Ni4  1  0.18115347  0.81884653  -0.00000000  1
  Ni  Ni5  1  0.81884653  0.18115347  0.00000000  1
loop_
_geom_bond_atom_site_label_1
_geom_bond_atom_site_label_2
_geom_bond_distance
_geom_bond_site_symmetry_2
Dy0 Ni0 3.106079 1_556
Dy0 Ni0 3.106079 1_555
Dy0 Ni2 3.106079 1_556
Dy0 Ni2 3.106079 1_555
Dy0 Ni4 3.106080 1_556
Dy0 Ni4 3.106080 1_555
Dy1 Ni3 3.106079 1_555
Dy1 Ni3 3.106079 1_556
Dy1 Ni1 3.106079 1_556
Dy1 Ni1 3.106079 1_555
Dy1 Ni5 3.106080 1_555
Dy1 Ni5 3.106080 1_556
Dy2 Ni4 2.808237 1_545
Dy2 Ni5 2.808237 1_455
Dy2 Ni1 2.808245 1_445
Dy2 Ni2 2.808245 1_445
Dy2 Ni3 2.808245 1_555
Dy2 Ni0 2.808245 1_555
Al0 Ni3 2.479009 1_555
Al0 Ni2 2.479009 1_545
Al0 Ni4 2.479017 1_545
Al0 Ni5 2.479017 1_555
Al0 Dy1 3.279902 1_554
Al0 Dy0 3.279902 1_544
Al0 Dy0 3.279902 1_545
Al0 Dy1 3.279902 1_555
Al1 Ni1 2.479009 1_455
Al1 Ni0 2.479009 1_555
Al1 Ni5 2.479017 1_455
Al1 Ni4 2.479017 1_555
Al1 Dy0 3.279902 1_554
Al1 Dy0 3.279902 1_555
Al1 Dy1 3.279902 1_455
Al1 Dy1 3.279902 1_454
Al2 Ni3 2.479017 1_555
Al2 Ni0 2.479017 1_555
Al2 Ni1 2.479017 1_555
Al2 Ni2 2.479017 1_555
Al2 Dy1 3.279908 1_554
Al2 Dy0 3.279908 1_554
Al2 Dy1 3.279908 1_555
Al2 Dy0 3.279908 1_555
Al3 Ni3 2.470987 1_556
Al3 Ni3 2.470987 1_555
Al3 Ni4 2.470988 1_545
Al3 Ni4 2.470988 1_546
Al3 Dy0 3.157733 1_545
Al3 Dy1 3.157738 1_555
Al4 Ni2 2.470987 1_545
Al4 Ni2 2.470987 1_546
Al4 Ni5 2.470988 1_555
Al4 Ni5 2.470988 1_556
Al4 Dy1 3.157733 1_555
Al4 Dy0 3.157738 1_545
Al5 Ni0 2.470987 1_556
Al5 Ni0 2.470987 1_555
Al5 Ni5 2.470988 1_455
Al5 Ni5 2.470988 1_456
Al5 Dy1 3.157733 1_455
Al5 Dy0 3.157738 1_555
Al6 Ni1 2.470987 1_455
Al6 Ni1 2.470987 1_456
Al6 Ni4 2.470988 1_555
Al6 Ni4 2.470988 1_556
Al6 Dy0 3.157733 1_555
Al6 Dy1 3.157738 1_455
Al7 Ni1 2.470992 1_555
Al7 Ni2 2.470992 1_556
Al7 Ni1 2.470992 1_556
Al7 Ni2 2.470992 1_555
Al7 Dy1 3.157741 1_555
Al7 Dy0 3.157741 1_555
Al8 Ni0 2.470992 1_555
Al8 Ni3 2.470992 1_556
Al8 Ni0 2.470992 1_556
Al8 Ni3 2.470992 1_555
Al8 Dy1 3.157741 1_555
Al8 Dy0 3.157741 1_555
