# generated using pymatgen
data_Ca4Rh6Pb19
_symmetry_space_group_name_H-M   'P 1'
_cell_length_a   10.43146305
_cell_length_b   10.43146305
_cell_length_c   10.43146305
_cell_angle_alpha   109.47122063
_cell_angle_beta   109.47122063
_cell_angle_gamma   109.47122063
_symmetry_Int_Tables_number   1
_chemical_formula_structural   Ca4Rh6Pb19
_chemical_formula_sum   'Ca4 Rh6 Pb19'
_cell_volume   873.80350298
_cell_formula_units_Z   1
loop_
 _symmetry_equiv_pos_site_id
 _symmetry_equiv_pos_as_xyz
  1  'x, y, z'
loop_
 _atom_site_type_symbol
 _atom_site_label
 _atom_site_symmetry_multiplicity
 _atom_site_fract_x
 _atom_site_fract_y
 _atom_site_fract_z
 _atom_site_occupancy
  Ca  Ca0  1  0.65922000  0.65922000  0.65922000  1
  Ca  Ca1  1  0.34078000  0.00000000  0.00000000  1
  Ca  Ca2  1  0.00000000  0.34078000  0.00000000  1
  Ca  Ca3  1  0.00000000  0.00000000  0.34078000  1
  Rh  Rh0  1  0.38331500  0.88331500  0.50000000  1
  Rh  Rh1  1  0.61668500  0.11668500  0.50000000  1
  Rh  Rh2  1  0.88331500  0.50000000  0.38331500  1
  Rh  Rh3  1  0.11668500  0.50000000  0.61668500  1
  Rh  Rh4  1  0.50000000  0.38331500  0.88331500  1
  Rh  Rh5  1  0.50000000  0.61668500  0.11668500  1
  Pb  Pb0  1  0.69202800  0.69202800  0.00000000  1
  Pb  Pb1  1  0.30797200  0.30797200  0.00000000  1
  Pb  Pb2  1  0.69202800  0.00000000  0.69202800  1
  Pb  Pb3  1  0.30797200  0.00000000  0.30797200  1
  Pb  Pb4  1  0.00000000  0.69202800  0.69202800  1
  Pb  Pb5  1  0.00000000  0.30797200  0.30797200  1
  Pb  Pb6  1  0.00000000  0.00000000  0.00000000  1
  Pb  Pb7  1  0.36909900  0.61627500  0.31897500  1
  Pb  Pb8  1  0.63090100  0.94987600  0.24717600  1
  Pb  Pb9  1  0.70270000  0.38372500  0.75282400  1
  Pb  Pb10  1  0.61627500  0.31897500  0.36909900  1
  Pb  Pb11  1  0.29730000  0.05012400  0.68102500  1
  Pb  Pb12  1  0.94987600  0.24717600  0.63090100  1
  Pb  Pb13  1  0.38372500  0.75282400  0.70270000  1
  Pb  Pb14  1  0.05012400  0.68102500  0.29730000  1
  Pb  Pb15  1  0.31897500  0.36909900  0.61627500  1
  Pb  Pb16  1  0.75282400  0.70270000  0.38372500  1
  Pb  Pb17  1  0.68102500  0.29730000  0.05012400  1
  Pb  Pb18  1  0.24717600  0.63090100  0.94987600  1
loop_
_geom_bond_atom_site_label_1
_geom_bond_atom_site_label_2
_geom_bond_distance
_geom_bond_site_symmetry_2
Ca0 Pb0 3.342288 1_556
Ca0 Pb2 3.342288 1_565
Ca0 Pb4 3.342288 1_655
Ca0 Pb9 3.444180 1_555
Ca0 Pb13 3.444180 1_555
Ca0 Pb16 3.444180 1_555
Ca0 Pb6 3.554834 1_666
Ca0 Pb10 3.582195 1_555
Ca0 Pb15 3.582195 1_555
Ca0 Pb7 3.582195 1_555
Ca1 Pb3 3.342288 1_555
Ca1 Pb1 3.342288 1_555
Ca1 Pb4 3.342288 1_544
Ca1 Pb11 3.444180 1_554
Ca1 Pb10 3.444180 1_555
Ca1 Pb18 3.444180 1_544
Ca1 Pb6 3.554834 1_555
Ca1 Pb8 3.582195 1_545
Ca1 Pb17 3.582195 1_555
Ca1 Pb13 3.582195 1_544
Ca2 Pb5 3.342288 1_555
Ca2 Pb1 3.342288 1_555
Ca2 Pb2 3.342288 1_454
Ca2 Pb17 3.444180 1_455
Ca2 Pb7 3.444180 1_555
Ca2 Pb12 3.444180 1_454
Ca2 Pb6 3.554834 1_555
Ca2 Pb18 3.582195 1_554
Ca2 Pb9 3.582195 1_454
Ca2 Pb14 3.582195 1_555
Ca3 Pb5 3.342288 1_555
Ca3 Pb3 3.342288 1_555
Ca3 Pb0 3.342288 1_445
Ca3 Pb14 3.444180 1_545
Ca3 Pb15 3.444180 1_555
Ca3 Pb8 3.444180 1_445
Ca3 Pb6 3.554834 1_555
Ca3 Pb12 3.582195 1_455
Ca3 Pb16 3.582195 1_445
Ca3 Pb11 3.582195 1_555
Rh0 Rh1 2.810992 1_565
Rh2 Rh3 2.810992 1_655
Rh4 Rh5 2.810992 1_556
Pb0 Rh5 2.706561 1_555
Pb0 Rh4 2.706561 1_554
Pb1 Rh5 2.706561 1_555
Pb1 Rh4 2.706561 1_554
Pb2 Rh1 2.706561 1_555
Pb2 Rh0 2.706561 1_545
Pb3 Rh1 2.706561 1_555
Pb3 Rh0 2.706561 1_545
Pb4 Rh3 2.706561 1_555
Pb4 Rh2 2.706561 1_455
Pb5 Rh3 2.706561 1_555
Pb5 Rh2 2.706561 1_455
Pb7 Rh0 2.716365 1_555
Pb7 Rh5 2.870630 1_555
Pb8 Rh1 2.716365 1_565
Pb8 Rh5 2.870630 1_555
Pb9 Rh1 2.716365 1_555
Pb9 Rh4 2.870630 1_555
Pb10 Rh2 2.716365 1_555
Pb10 Rh1 2.870630 1_555
Pb11 Rh0 2.716365 1_545
Pb11 Rh4 2.870630 1_555
Pb12 Rh3 2.716365 1_655
Pb12 Rh1 2.870630 1_555
Pb13 Rh3 2.716365 1_555
Pb13 Rh0 2.870630 1_555
Pb14 Rh2 2.716365 1_455
Pb14 Rh0 2.870630 1_555
Pb15 Rh4 2.716365 1_555
Pb15 Rh3 2.870630 1_555
Pb16 Rh5 2.716365 1_555
Pb16 Rh2 2.870630 1_555
Pb17 Rh4 2.716365 1_554
Pb17 Rh2 2.870630 1_555
Pb18 Rh5 2.716365 1_556
Pb18 Rh3 2.870630 1_555
