# generated using pymatgen
data_Rb3Ru2N(Cl4O)2
_symmetry_space_group_name_H-M   'P 1'
_cell_length_a   8.67462917
_cell_length_b   8.67462917
_cell_length_c   8.59561067
_cell_angle_alpha   64.27149624
_cell_angle_beta   64.27149624
_cell_angle_gamma   55.16242008
_symmetry_Int_Tables_number   1
_chemical_formula_structural   Rb3Ru2N(Cl4O)2
_chemical_formula_sum   'Rb3 Ru2 N1 Cl8 O2'
_cell_volume   462.85621117
_cell_formula_units_Z   1
loop_
 _symmetry_equiv_pos_site_id
 _symmetry_equiv_pos_as_xyz
  1  'x, y, z'
loop_
 _atom_site_type_symbol
 _atom_site_label
 _atom_site_symmetry_multiplicity
 _atom_site_fract_x
 _atom_site_fract_y
 _atom_site_fract_z
 _atom_site_occupancy
  Rb  Rb0  1  0.85569100  0.85569100  0.03598000  1
  Rb  Rb1  1  0.14430900  0.14430900  0.96402000  1
  Rb  Rb2  1  0.50000000  0.50000000  0.50000000  1
  Ru  Ru0  1  0.87514600  0.87514600  0.50989300  1
  Ru  Ru1  1  0.12485400  0.12485400  0.49010700  1
  N  N0  1  0.00000000  0.00000000  0.50000000  1
  Cl  Cl0  1  0.03354000  0.60987000  0.73703800  1
  Cl  Cl1  1  0.60987000  0.03354000  0.73703800  1
  Cl  Cl2  1  0.96646000  0.39013000  0.26296200  1
  Cl  Cl3  1  0.39013000  0.96646000  0.26296200  1
  Cl  Cl4  1  0.14635400  0.72651400  0.28242400  1
  Cl  Cl5  1  0.72651400  0.14635400  0.28242400  1
  Cl  Cl6  1  0.85364600  0.27348600  0.71757600  1
  Cl  Cl7  1  0.27348600  0.85364600  0.71757600  1
  O  O0  1  0.76007500  0.76007500  0.51920400  1
  O  O1  1  0.23992500  0.23992500  0.48079600  1
loop_
_geom_bond_atom_site_label_1
_geom_bond_atom_site_label_2
_geom_bond_distance
_geom_bond_site_symmetry_2
N0 Ru0 1.879771 1_445
N0 Ru1 1.879771 1_555
Cl0 Ru0 2.410658 1_455
Cl0 Rb0 3.329700 1_456
Cl0 Rb1 3.375345 1_555
Cl0 Rb2 3.399231 1_555
Cl1 Ru0 2.410658 1_545
Cl1 Rb0 3.329700 1_546
Cl1 Rb1 3.375345 1_555
Cl1 Rb2 3.399231 1_555
Cl2 Ru1 2.410658 1_655
Cl2 Rb1 3.329700 1_654
Cl2 Rb0 3.375345 1_555
Cl2 Rb2 3.399231 1_555
Cl3 Ru1 2.410658 1_565
Cl3 Rb1 3.329700 1_564
Cl3 Rb0 3.375345 1_555
Cl3 Rb2 3.399231 1_555
Cl4 Ru0 2.397829 1_455
Cl4 Rb0 3.383607 1_455
Cl4 Rb2 3.416643 1_555
Cl4 Rb1 3.461590 1_564
Cl5 Ru0 2.397829 1_545
Cl5 Rb0 3.383607 1_545
Cl5 Rb2 3.416643 1_555
Cl5 Rb1 3.461590 1_654
Cl6 Ru1 2.397829 1_655
Cl6 Rb1 3.383607 1_655
Cl6 Rb2 3.416643 1_555
Cl6 Rb0 3.461590 1_546
Cl7 Ru1 2.397829 1_565
Cl7 Rb1 3.383607 1_565
Cl7 Rb2 3.416643 1_555
Cl7 Rb0 3.461590 1_456
O0 Ru0 1.731725 1_555
O1 Ru1 1.731725 1_555
