# generated using pymatgen
data_Li7V3P8O29
_symmetry_space_group_name_H-M   'P 1'
_cell_length_a   9.88766258
_cell_length_b   9.83083557
_cell_length_c   13.93546570
_cell_angle_alpha   90.26174908
_cell_angle_beta   90.75469710
_cell_angle_gamma   60.01873998
_symmetry_Int_Tables_number   1
_chemical_formula_structural   Li7V3P8O29
_chemical_formula_sum   'Li14 V6 P16 O58'
_cell_volume   1173.21962201
_cell_formula_units_Z   2
loop_
 _symmetry_equiv_pos_site_id
 _symmetry_equiv_pos_as_xyz
  1  'x, y, z'
loop_
 _atom_site_type_symbol
 _atom_site_label
 _atom_site_symmetry_multiplicity
 _atom_site_fract_x
 _atom_site_fract_y
 _atom_site_fract_z
 _atom_site_occupancy
  Li  Li0  1  0.91211893  0.77276863  0.06099018  1
  Li  Li1  1  0.69223123  0.66268938  0.38992598  1
  Li  Li2  1  0.66537575  0.66553220  0.88448413  1
  Li  Li3  1  0.76520766  0.32459226  0.06188786  1
  Li  Li4  1  0.32944856  0.90890164  0.06182320  1
  Li  Li5  1  0.66052656  0.24060863  0.43911867  1
  Li  Li6  1  0.32327329  0.76802448  0.56633264  1
  Li  Li7  1  0.66882491  0.09995367  0.93417504  1
  Li  Li8  1  0.23682910  0.66869975  0.93703837  1
  Li  Li9  1  0.33264173  0.33140457  0.61692848  1
  Li  Li10  1  0.09088636  0.67867804  0.43837680  1
  Li  Li11  1  0.22197940  0.08900312  0.44463331  1
  Li  Li12  1  0.01273597  0.07704333  0.96881620  1
  Li  Li13  1  0.93957633  0.02880099  0.50967492  1
  V  V0  1  0.56945435  0.43114052  0.24817983  1
  V  V1  1  0.43472607  0.56302504  0.74980003  1
  V  V2  1  0.56597461  0.99722522  0.74997726  1
  V  V3  1  0.43524060  0.00356106  0.25191110  1
  V  V4  1  0.00285528  0.56035665  0.24869412  1
  V  V5  1  0.00289198  0.43164137  0.74888531  1
  P  P0  1  0.91277291  0.77189469  0.84203055  1
  P  P1  1  0.78035419  0.91433963  0.33861459  1
  P  P2  1  0.91303813  0.30737489  0.34505343  1
  P  P3  1  0.66196874  0.67154036  0.12733512  1
  P  P4  1  0.66723917  0.66605797  0.62827294  1
  P  P5  1  0.77793214  0.31686711  0.83892845  1
  P  P6  1  0.67668274  0.22363734  0.65546155  1
  P  P7  1  0.31697431  0.90996745  0.84659583  1
  P  P8  1  0.68009110  0.08590803  0.15285597  1
  P  P9  1  0.32486339  0.76935543  0.34467407  1
  P  P10  1  0.23143194  0.68470944  0.15900017  1
  P  P11  1  0.33881691  0.33080827  0.37421137  1
  P  P12  1  0.33381126  0.33176768  0.87394594  1
  P  P13  1  0.08491831  0.68849940  0.65331702  1
  P  P14  1  0.22516654  0.09043943  0.66032138  1
  P  P15  1  0.08235162  0.22144688  0.15764280  1
  O  O0  1  0.00139056  0.77839847  0.56392102  1
  O  O1  1  0.91880124  0.74519005  0.34211822  1
  O  O2  1  0.75647377  0.00426597  0.06061097  1
  O  O3  1  0.74837478  0.91889629  0.84444945  1
  O  O4  1  0.89549372  0.62441374  0.83289031  1
  O  O5  1  0.80858600  0.67818573  0.16028707  1
  O  O6  1  0.89787961  0.47038774  0.33705934  1
  O  O7  1  0.99012795  0.20930436  0.07443830  1
  O  O8  1  0.92546388  0.32968907  0.83811365  1
  O  O9  1  0.65677765  0.81584637  0.67879840  1
  O  O10  1  0.62874580  0.90280323  0.33163585  1
  O  O11  1  0.81531332  0.52448885  0.67504957  1
  O  O12  1  0.63842264  0.68324372  0.01986427  1
  O  O13  1  0.67603447  0.67478027  0.52167103  1
  O  O14  1  0.67242999  0.51431867  0.16400944  1
  O  O15  1  0.47914000  0.89580976  0.83641756  1
  O  O16  1  0.51327857  0.81552634  0.17476582  1
  O  O17  1  0.74203054  0.33473679  0.33744711  1
  O  O18  1  0.78384692  0.21691751  0.74634067  1
  O  O19  1  0.75904480  0.22202899  0.56514225  1
  O  O20  1  0.78112886  0.22297612  0.92734908  1
  O  O21  1  0.63150388  0.48102703  0.83326537  1
  O  O22  1  0.51799116  0.66371544  0.65855550  1
  O  O23  1  0.66317776  0.25160353  0.15744515  1
  O  O24  1  0.48859157  0.62541629  0.32828807  1
  O  O25  1  0.33912174  0.91850477  0.34719161  1
  O  O26  1  0.79824734  0.98652138  0.23839559  1
  O  O27  1  0.78589043  0.01508797  0.41771852  1
  O  O28  1  0.23182323  0.99607277  0.57239997  1
  O  O29  1  0.66378999  0.07552479  0.66427542  1
  O  O30  1  0.51272977  0.36918688  0.66693510  1
  O  O31  1  0.33468111  0.74593775  0.84336102  1
  O  O32  1  0.48882153  0.32582421  0.33562471  1
  O  O33  1  0.38327490  0.52461712  0.17879397  1
  O  O34  1  0.24592698  0.76210849  0.06965316  1
  O  O35  1  0.24328648  0.75763543  0.43254220  1
  O  O36  1  0.21580233  0.79015966  0.25187814  1
  O  O37  1  0.24850206  0.67080192  0.65935274  1
  O  O38  1  0.48286526  0.18171430  0.83063759  1
  O  O39  1  0.52253324  0.09567072  0.17047263  1
  O  O40  1  0.33280144  0.48243453  0.83857490  1
  O  O41  1  0.33650773  0.32024844  0.98047368  1
  O  O42  1  0.34951155  0.31153010  0.48173184  1
  O  O43  1  0.19120710  0.48131527  0.33989641  1
  O  O44  1  0.37334282  0.10666859  0.67156685  1
  O  O45  1  0.33316727  0.18350532  0.32914879  1
  O  O46  1  0.08747710  0.66590862  0.15713867  1
  O  O47  1  0.99385748  0.78924669  0.74734928  1
  O  O48  1  0.00681210  0.76835028  0.92981170  1
  O  O49  1  0.10094443  0.52386596  0.66357248  1
  O  O50  1  0.18657436  0.33871601  0.82199782  1
  O  O51  1  0.08041953  0.37717979  0.16553824  1
  O  O52  1  0.24989816  0.07898138  0.16162988  1
  O  O53  1  0.22984191  0.99605390  0.93520909  1
  O  O54  1  0.21284851  0.00092942  0.75329872  1
  O  O55  1  0.08168123  0.25395154  0.65892822  1
  O  O56  1  0.99690480  0.20645757  0.43045063  1
  O  O57  1  0.99870155  0.20441155  0.25254038  1
loop_
_geom_bond_atom_site_label_1
_geom_bond_atom_site_label_2
_geom_bond_distance
_geom_bond_site_symmetry_2
Li0 O46 2.009084 1_655
Li0 O2 2.011778 1_565
Li0 O48 2.055226 1_654
Li0 O5 2.197202 1_555
Li1 O13 1.843132 1_555
Li1 O6 2.106222 1_555
Li1 O10 2.269162 1_555
Li1 O24 2.369659 1_555
Li2 O12 1.903789 1_556
Li2 O21 2.121472 1_555
Li2 O15 2.186204 1_555
Li2 O4 2.231293 1_555
Li3 O7 1.932216 1_555
Li3 O23 2.018281 1_555
Li3 O20 2.090770 1_554
Li3 O14 2.155395 1_555
Li4 O53 1.985433 1_554
Li4 O34 1.992822 1_555
Li4 O52 2.010469 1_565
Li4 O16 2.212225 1_555
Li5 O27 1.948811 1_555
Li5 O19 1.961258 1_555
Li5 O32 2.046780 1_555
Li5 O17 2.073775 1_555
Li6 O28 1.955800 1_555
Li6 O37 1.970589 1_555
Li6 O35 2.037690 1_555
Li6 O22 2.093723 1_555
Li7 O2 1.974981 1_556
Li7 O3 1.989129 1_545
Li7 O20 2.012661 1_555
Li7 O38 2.138301 1_555
Li8 O48 1.977503 1_555
Li8 O31 1.998351 1_555
Li8 O34 2.080697 1_556
Li8 O40 2.100240 1_555
Li9 O42 1.894176 1_555
Li9 O30 2.102441 1_555
Li9 O44 2.177516 1_555
Li9 O49 2.224110 1_555
Li10 O1 1.989481 1_455
Li10 O0 1.990735 1_555
Li10 O35 2.013113 1_555
Li10 O43 2.172533 1_555
Li11 O56 1.935791 1_455
Li11 O28 1.983852 1_545
Li11 O25 2.018719 1_545
Li11 O45 2.396407 1_555
Li12 O7 1.899407 1_456
Li12 O53 1.943279 1_545
Li12 O20 2.079816 1_455
Li13 O19 2.006561 1_555
Li13 O27 2.030107 1_555
Li13 O0 2.346472 1_645
Li13 O56 2.369396 1_555
O0 P13 1.506183 1_555
O1 P1 1.537991 1_555
O1 V4 2.045729 1_655
O2 P8 1.509091 1_555
O3 P0 1.544379 1_555
O3 V2 2.034097 1_555
O4 P0 1.546874 1_555
O4 V5 2.022550 1_655
O5 P3 1.547131 1_555
O5 V4 2.067908 1_655
O6 P2 1.537590 1_555
O6 V4 2.082589 1_655
O7 P15 1.506607 1_655
O8 P5 1.525835 1_555
O8 V5 1.984986 1_655
O9 P4 1.585891 1_555
O9 V2 1.837589 1_555
O10 P1 1.560594 1_555
O10 V3 1.983981 1_565
O11 P4 1.565922 1_555
O11 V5 1.896882 1_655
O12 P3 1.508653 1_555
O13 P4 1.494586 1_555
O14 P3 1.583313 1_555
O14 V0 1.988345 1_555
O15 P7 1.547022 1_555
O15 V2 2.018901 1_555
O16 P3 1.593478 1_555
O16 V3 1.935555 1_565
O17 P2 1.575940 1_555
O17 V0 1.922494 1_555
O18 P5 1.602069 1_555
O18 P6 1.620634 1_555
O19 P6 1.503853 1_555
O20 P5 1.533447 1_555
O21 P5 1.539421 1_555
O21 V1 2.041993 1_555
O22 P4 1.551389 1_555
O22 V1 2.031757 1_555
O23 P8 1.553231 1_555
O23 V0 1.987097 1_555
O24 P9 1.546795 1_555
O24 V0 2.002759 1_555
O25 P9 1.541763 1_555
O25 V3 2.050135 1_565
O26 P8 1.604244 1_565
O26 P1 1.620607 1_555
O27 P1 1.497253 1_545
O28 P14 1.515538 1_565
O29 P6 1.529391 1_555
O29 V2 1.933170 1_545
O30 P6 1.545126 1_555
O30 V1 2.023381 1_555
O31 P7 1.533095 1_555
O31 V1 2.036350 1_555
O32 P11 1.561907 1_555
O32 V0 2.013613 1_555
O33 P10 1.561619 1_555
O33 V0 1.854389 1_555
O34 P10 1.507352 1_555
O35 P9 1.511104 1_555
O36 P10 1.614514 1_555
O36 P9 1.619319 1_555
O37 P13 1.539099 1_555
O37 V1 2.025579 1_555
O38 P12 1.598386 1_555
O38 V2 1.935029 1_545
O39 P8 1.535218 1_555
O39 V3 1.915519 1_555
O40 P12 1.558435 1_555
O40 V1 2.003399 1_555
O41 P12 1.488218 1_555
O42 P11 1.506830 1_555
O43 P11 1.542041 1_555
O43 V4 2.046421 1_555
O44 P14 1.556896 1_555
O44 V2 1.971588 1_545
O45 P11 1.601907 1_555
O45 V3 1.879718 1_555
O46 P10 1.524057 1_555
O46 V4 2.076686 1_555
O47 P0 1.606045 1_555
O47 P13 1.623793 1_655
O48 P0 1.516651 1_455
O49 P13 1.552489 1_555
O49 V5 2.023386 1_555
O50 P12 1.587912 1_555
O50 V5 1.863519 1_555
O51 P15 1.525015 1_555
O51 V4 1.948821 1_555
O52 P15 1.545474 1_555
O52 V3 2.020099 1_555
O53 P7 1.507693 1_555
O54 P14 1.609237 1_555
O54 P7 1.614070 1_545
O55 P14 1.522303 1_555
O55 V5 1.968624 1_555
O56 P2 1.500231 1_555
O57 P2 1.601264 1_555
O57 P15 1.621812 1_655
