# generated using pymatgen
data_Li7Mn4CoO12
_symmetry_space_group_name_H-M   'P 1'
_cell_length_a   5.06259968
_cell_length_b   7.77354817
_cell_length_c   11.54473224
_cell_angle_alpha   84.62060762
_cell_angle_beta   99.29006162
_cell_angle_gamma   77.11113938
_symmetry_Int_Tables_number   1
_chemical_formula_structural   Li7Mn4CoO12
_chemical_formula_sum   'Li14 Mn8 Co2 O24'
_cell_volume   433.08515364
_cell_formula_units_Z   2
loop_
 _symmetry_equiv_pos_site_id
 _symmetry_equiv_pos_as_xyz
  1  'x, y, z'
loop_
 _atom_site_type_symbol
 _atom_site_label
 _atom_site_symmetry_multiplicity
 _atom_site_fract_x
 _atom_site_fract_y
 _atom_site_fract_z
 _atom_site_occupancy
  Li  Li0  1  0.08361400  0.33407800  0.08673800  1
  Li  Li1  1  0.58306900  0.33263800  0.57990800  1
  Li  Li2  1  0.83326400  0.83336900  0.33337800  1
  Li  Li3  1  0.33332100  0.83328100  0.83330600  1
  Li  Li4  1  0.58564800  0.83234300  0.08236100  1
  Li  Li5  1  0.08100900  0.83432800  0.58429200  1
  Li  Li6  1  0.67479900  0.15713900  0.16729900  1
  Li  Li7  1  0.16713100  0.15398300  0.66403900  1
  Li  Li8  1  0.49952800  0.51269500  0.00261700  1
  Li  Li9  1  0.99192000  0.50956500  0.49934400  1
  Li  Li10  1  0.26361000  0.99464500  0.25016200  1
  Li  Li11  1  0.75349300  0.99211000  0.74860700  1
  Li  Li12  1  0.40309100  0.67214200  0.41648100  1
  Li  Li13  1  0.91317200  0.67455100  0.91808000  1
  Mn  Mn0  1  0.00829300  0.99611700  0.99839600  1
  Mn  Mn1  1  0.49549600  0.99691100  0.50132400  1
  Mn  Mn2  1  0.17115500  0.66985000  0.16537100  1
  Mn  Mn3  1  0.65846200  0.67043200  0.66828300  1
  Mn  Mn4  1  0.91504200  0.16285100  0.41466400  1
  Mn  Mn5  1  0.42076200  0.16498400  0.91742400  1
  Mn  Mn6  1  0.75145100  0.50393200  0.25200000  1
  Mn  Mn7  1  0.24596000  0.50158200  0.74924000  1
  Co  Co0  1  0.83335000  0.33327500  0.83334500  1
  Co  Co1  1  0.33327000  0.33339900  0.33333600  1
  O  O0  1  0.74468700  0.23145000  0.99480400  1
  O  O1  1  0.24060200  0.23047400  0.49635900  1
  O  O2  1  0.42602800  0.43626800  0.17031000  1
  O  O3  1  0.92206000  0.43510000  0.67186700  1
  O  O4  1  0.68549000  0.40668200  0.40692600  1
  O  O5  1  0.19085800  0.40898800  0.90649900  1
  O  O6  1  0.98104100  0.26011200  0.25971900  1
  O  O7  1  0.47589400  0.25753200  0.76017600  1
  O  O8  1  0.31896800  0.09084400  0.06492500  1
  O  O9  1  0.81958600  0.08982700  0.56527200  1
  O  O10  1  0.84709400  0.57689700  0.10139500  1
  O  O11  1  0.34772900  0.57574000  0.60173200  1
  O  O12  1  0.05751500  0.58033500  0.33347700  1
  O  O13  1  0.56785000  0.58088800  0.82138100  1
  O  O14  1  0.60900600  0.08646800  0.33318200  1
  O  O15  1  0.09889500  0.08563300  0.84528600  1
  O  O16  1  0.50333500  0.73119100  0.24987800  1
  O  O17  1  0.99053200  0.72630000  0.74818200  1
  O  O18  1  0.16327900  0.93559700  0.41677600  1
  O  O19  1  0.67618500  0.94021900  0.91850200  1
  O  O20  1  0.94817600  0.91463100  0.15116100  1
  O  O21  1  0.43724200  0.89656100  0.67359400  1
  O  O22  1  0.22947500  0.76996900  0.99309200  1
  O  O23  1  0.71855400  0.75209700  0.51550600  1
loop_
_geom_bond_atom_site_label_1
_geom_bond_atom_site_label_2
_geom_bond_distance
_geom_bond_site_symmetry_2
Li0 O10 2.035265 1_455
Li0 O8 2.058952 1_555
Li0 O2 2.187463 1_555
Li0 O6 2.200243 1_455
Li0 O0 2.211006 1_454
Li0 O5 2.289596 1_554
Li1 O9 2.035145 1_555
Li1 O11 2.058141 1_555
Li1 O1 2.187468 1_555
Li1 O4 2.200053 1_555
Li1 O3 2.210624 1_555
Li1 O7 2.290090 1_555
Li2 O12 2.039804 1_655
Li2 O14 2.040040 1_565
Li2 O16 2.136733 1_555
Li2 O18 2.136883 1_655
Li2 O23 2.337998 1_555
Li2 O20 2.339382 1_555
Li3 O21 2.043790 1_555
Li3 O22 2.044456 1_555
Li3 O15 2.083513 1_565
Li3 O13 2.083812 1_555
Li3 O17 2.217079 1_455
Li3 O19 2.217476 1_555
Li4 O10 2.096432 1_555
Li4 O22 2.105314 1_554
Li4 O8 2.127755 1_565
Li4 O20 2.134680 1_555
Li4 O19 2.155421 1_554
Li4 O16 2.157153 1_555
Li5 O9 2.096727 1_465
Li5 O21 2.105196 1_555
Li5 O11 2.128370 1_555
Li5 O23 2.134084 1_455
Li5 O17 2.156020 1_455
Li5 O18 2.157346 1_555
Li6 O14 2.042199 1_555
Li6 O6 2.088669 1_555
Li6 O20 2.118750 1_545
Li6 O0 2.127806 1_554
Li6 O8 2.179113 1_555
Li6 O2 2.259346 1_555
Li7 O1 2.086775 1_555
Li7 O7 2.119405 1_555
Li7 O9 2.120139 1_455
Li7 O21 2.139064 1_545
Li7 O15 2.210608 1_555
Li7 O3 2.277412 1_455
Li8 O2 2.086853 1_555
Li8 O5 2.119690 1_554
Li8 O10 2.120446 1_555
Li8 O22 2.138082 1_554
Li8 O13 2.210418 1_554
Li8 O0 2.278362 1_554
Li9 O12 2.041818 1_655
Li9 O4 2.088952 1_555
Li9 O23 2.118941 1_555
Li9 O3 2.128320 1_555
Li9 O11 2.178655 1_655
Li9 O1 2.258884 1_655
Li10 O20 2.056807 1_455
Li10 O18 2.102976 1_555
Li10 O16 2.135608 1_555
Li10 O14 2.151676 1_565
Li10 O6 2.256944 1_465
Li10 O8 2.279943 1_565
Li11 O21 2.017049 1_555
Li11 O19 2.081558 1_555
Li11 O17 2.146448 1_555
Li11 O15 2.218366 1_665
Li11 O7 2.251370 1_565
Li11 O9 2.282400 1_565
Li12 O23 2.056803 1_555
Li12 O16 2.102666 1_555
Li12 O18 2.135794 1_555
Li12 O12 2.152286 1_555
Li12 O4 2.256519 1_555
Li12 O11 2.280523 1_555
Li13 O22 2.016661 1_655
Li13 O17 2.081529 1_555
Li13 O19 2.145426 1_555
Li13 O13 2.218744 1_555
Li13 O5 2.252451 1_655
Li13 O10 2.282023 1_556
Mn0 O22 1.874087 1_555
Mn0 O20 1.911571 1_456
Mn0 O19 1.940825 1_455
Mn0 O8 1.959240 1_566
Mn0 O15 1.998149 1_565
Mn0 O0 2.002015 1_465
Mn1 O23 1.961340 1_555
Mn1 O1 1.968837 1_565
Mn1 O18 1.980773 1_555
Mn1 O9 1.999085 1_565
Mn1 O21 2.156844 1_555
Mn1 O14 2.206403 1_565
Mn2 O20 1.960955 1_455
Mn2 O2 1.968953 1_555
Mn2 O16 1.980539 1_555
Mn2 O10 1.999215 1_455
Mn2 O22 2.156512 1_554
Mn2 O12 2.206249 1_555
Mn3 O21 1.874061 1_555
Mn3 O23 1.912040 1_555
Mn3 O17 1.940577 1_555
Mn3 O11 1.959397 1_555
Mn3 O13 1.998118 1_555
Mn3 O3 2.002007 1_555
Mn4 O14 1.918978 1_555
Mn4 O18 1.921541 1_645
Mn4 O9 1.946164 1_555
Mn4 O1 1.964674 1_655
Mn4 O4 1.975660 1_555
Mn4 O6 1.983724 1_555
Mn5 O19 1.925576 1_545
Mn5 O8 1.931135 1_556
Mn5 O0 1.935414 1_555
Mn5 O15 1.958538 1_555
Mn5 O5 1.972616 1_555
Mn5 O7 1.974689 1_555
Mn6 O12 1.919152 1_655
Mn6 O16 1.921277 1_555
Mn6 O10 1.946445 1_555
Mn6 O2 1.964243 1_555
Mn6 O6 1.975691 1_555
Mn6 O4 1.983422 1_555
Mn7 O17 1.925355 1_455
Mn7 O11 1.931186 1_555
Mn7 O3 1.935343 1_455
Mn7 O13 1.958457 1_555
Mn7 O7 1.972951 1_555
Mn7 O5 1.974859 1_555
Co0 O13 2.065603 1_555
Co0 O15 2.065911 1_655
Co0 O7 2.100032 1_555
Co0 O5 2.100089 1_655
Co0 O0 2.110572 1_555
Co0 O3 2.110870 1_555
Co1 O4 2.068991 1_555
Co1 O6 2.069139 1_455
Co1 O14 2.106961 1_555
Co1 O12 2.107006 1_555
Co1 O1 2.138356 1_555
Co1 O2 2.138441 1_555
