# generated using pymatgen
data_Ge
_symmetry_space_group_name_H-M   'P 1'
_cell_length_a   5.95221170
_cell_length_b   5.98221269
_cell_length_c   9.45519158
_cell_angle_alpha   90.00000000
_cell_angle_beta   90.00000000
_cell_angle_gamma   119.83425322
_symmetry_Int_Tables_number   1
_chemical_formula_structural   Ge
_chemical_formula_sum   Ge16
_cell_volume   292.05464005
_cell_formula_units_Z   16
loop_
 _symmetry_equiv_pos_site_id
 _symmetry_equiv_pos_as_xyz
  1  'x, y, z'
loop_
 _atom_site_type_symbol
 _atom_site_label
 _atom_site_symmetry_multiplicity
 _atom_site_fract_x
 _atom_site_fract_y
 _atom_site_fract_z
 _atom_site_occupancy
  Ge  Ge0_0  1  0.16672381  0.33344713  0.12500000  1
  Ge  Ge0_1  1  0.16672381  0.33344713  0.62500000  1
  Ge  Ge0_2  1  0.16672382  0.83344713  0.12500000  1
  Ge  Ge0_3  1  0.16672382  0.83344713  0.62500000  1
  Ge  Ge0_4  1  0.66672381  0.33344713  0.12500000  1
  Ge  Ge0_5  1  0.66672381  0.33344713  0.62500000  1
  Ge  Ge0_6  1  0.66672381  0.83344713  0.12500000  1
  Ge  Ge0_7  1  0.66672381  0.83344713  0.62500000  1
  Ge  Ge1_0  1  0.33327619  0.16655287  0.37500000  1
  Ge  Ge1_1  1  0.33327619  0.16655287  0.87500000  1
  Ge  Ge1_2  1  0.33327619  0.66655287  0.37500000  1
  Ge  Ge1_3  1  0.33327619  0.66655287  0.87500000  1
  Ge  Ge1_4  1  0.83327619  0.16655287  0.37500000  1
  Ge  Ge1_5  1  0.83327619  0.16655287  0.87500000  1
  Ge  Ge1_6  1  0.83327619  0.66655287  0.37500000  1
  Ge  Ge1_7  1  0.83327619  0.66655287  0.87500000  1
loop_
_geom_bond_atom_site_label_1
_geom_bond_atom_site_label_2
_geom_bond_distance
_geom_bond_site_symmetry_2
Ge0_0 Ge1_0 2.924367 1_555
Ge0_0 Ge1_1 2.924367 1_554
Ge0_0 Ge1_4 2.924370 1_455
Ge0_0 Ge1_5 2.924370 1_454
Ge0_0 Ge1_2 2.928419 1_555
Ge0_0 Ge1_3 2.928419 1_554
Ge0_0 Ge0_4 2.976106 1_555
Ge0_0 Ge0_4 2.976106 1_455
Ge0_0 Ge0_6 2.991106 1_555
Ge0_0 Ge0_6 2.991106 1_445
Ge0_0 Ge0_2 2.991106 1_545
Ge0_0 Ge0_2 2.991106 1_555
Ge0_1 Ge1_1 2.924367 1_555
Ge0_1 Ge1_0 2.924367 1_555
Ge0_1 Ge1_5 2.924370 1_455
Ge0_1 Ge1_4 2.924370 1_455
Ge0_1 Ge1_3 2.928419 1_555
Ge0_1 Ge1_2 2.928419 1_555
Ge0_1 Ge0_5 2.976106 1_455
Ge0_1 Ge0_5 2.976106 1_555
Ge0_1 Ge0_7 2.991106 1_445
Ge0_1 Ge0_7 2.991106 1_555
Ge0_1 Ge0_3 2.991106 1_555
Ge0_1 Ge0_3 2.991106 1_545
Ge0_2 Ge1_2 2.924367 1_555
Ge0_2 Ge1_3 2.924367 1_554
Ge0_2 Ge1_6 2.924370 1_455
Ge0_2 Ge1_7 2.924370 1_454
Ge0_2 Ge1_0 2.928419 1_565
Ge0_2 Ge1_1 2.928419 1_564
Ge0_2 Ge0_6 2.976106 1_455
Ge0_2 Ge0_6 2.976106 1_555
Ge0_2 Ge0_4 2.991106 1_565
Ge0_2 Ge0_4 2.991106 1_455
Ge0_3 Ge1_3 2.924367 1_555
Ge0_3 Ge1_2 2.924367 1_555
Ge0_3 Ge1_7 2.924370 1_455
Ge0_3 Ge1_6 2.924370 1_455
Ge0_3 Ge1_1 2.928419 1_565
Ge0_3 Ge1_0 2.928419 1_565
Ge0_3 Ge0_7 2.976106 1_455
Ge0_3 Ge0_7 2.976106 1_555
Ge0_3 Ge0_5 2.991106 1_455
Ge0_3 Ge0_5 2.991106 1_565
Ge0_4 Ge1_4 2.924367 1_555
Ge0_4 Ge1_5 2.924367 1_554
Ge0_4 Ge1_0 2.924370 1_555
Ge0_4 Ge1_1 2.924370 1_554
Ge0_4 Ge1_6 2.928419 1_555
Ge0_4 Ge1_7 2.928419 1_554
Ge0_4 Ge0_6 2.991106 1_545
Ge0_4 Ge0_6 2.991106 1_555
Ge0_5 Ge1_5 2.924367 1_555
Ge0_5 Ge1_4 2.924367 1_555
Ge0_5 Ge1_1 2.924370 1_555
Ge0_5 Ge1_0 2.924370 1_555
Ge0_5 Ge1_7 2.928419 1_555
Ge0_5 Ge1_6 2.928419 1_555
Ge0_5 Ge0_7 2.991106 1_545
Ge0_5 Ge0_7 2.991106 1_555
Ge0_6 Ge1_6 2.924367 1_555
Ge0_6 Ge1_7 2.924367 1_554
Ge0_6 Ge1_2 2.924370 1_555
Ge0_6 Ge1_3 2.924370 1_554
Ge0_6 Ge1_4 2.928419 1_565
Ge0_6 Ge1_5 2.928419 1_564
Ge0_7 Ge1_7 2.924367 1_555
Ge0_7 Ge1_6 2.924367 1_555
Ge0_7 Ge1_3 2.924370 1_555
Ge0_7 Ge1_2 2.924370 1_555
Ge0_7 Ge1_5 2.928419 1_565
Ge0_7 Ge1_4 2.928419 1_565
Ge1_0 Ge1_4 2.976106 1_455
Ge1_0 Ge1_4 2.976106 1_555
Ge1_0 Ge1_6 2.991106 1_555
Ge1_0 Ge1_6 2.991106 1_445
Ge1_0 Ge1_2 2.991106 1_555
Ge1_0 Ge1_2 2.991106 1_545
Ge1_1 Ge1_5 2.976106 1_455
Ge1_1 Ge1_5 2.976106 1_555
Ge1_1 Ge1_7 2.991106 1_445
Ge1_1 Ge1_7 2.991106 1_555
Ge1_1 Ge1_3 2.991106 1_555
Ge1_1 Ge1_3 2.991106 1_545
Ge1_2 Ge1_6 2.976106 1_555
Ge1_2 Ge1_6 2.976106 1_455
Ge1_2 Ge1_4 2.991106 1_455
Ge1_2 Ge1_4 2.991106 1_565
Ge1_3 Ge1_7 2.976106 1_555
Ge1_3 Ge1_7 2.976106 1_455
Ge1_3 Ge1_5 2.991106 1_455
Ge1_3 Ge1_5 2.991106 1_565
Ge1_4 Ge1_6 2.991106 1_545
Ge1_4 Ge1_6 2.991106 1_555
Ge1_5 Ge1_7 2.991106 1_555
Ge1_5 Ge1_7 2.991106 1_545
