# generated using pymatgen
data_Sr4LiMn2Ga2O11
_symmetry_space_group_name_H-M   'P 1'
_cell_length_a   5.72811983
_cell_length_b   5.72811195
_cell_length_c   8.68888519
_cell_angle_alpha   69.56395743
_cell_angle_beta   69.56412630
_cell_angle_gamma   86.51156146
_symmetry_Int_Tables_number   1
_chemical_formula_structural   Sr4LiMn2Ga2O11
_chemical_formula_sum   'Sr4 Li1 Mn2 Ga2 O11'
_cell_volume   249.73103700
_cell_formula_units_Z   1
loop_
 _symmetry_equiv_pos_site_id
 _symmetry_equiv_pos_as_xyz
  1  'x, y, z'
loop_
 _atom_site_type_symbol
 _atom_site_label
 _atom_site_symmetry_multiplicity
 _atom_site_fract_x
 _atom_site_fract_y
 _atom_site_fract_z
 _atom_site_occupancy
  Sr  Sr0  1  0.08196400  0.58196600  0.76047500  1
  Sr  Sr1  1  0.65598300  0.15598500  0.75937400  1
  Sr  Sr2  1  0.37131300  0.87131400  0.25816900  1
  Sr  Sr3  1  0.87051500  0.37051400  0.25816800  1
  Li  Li0  1  0.40989400  0.90989100  0.67611400  1
  Mn  Mn0  1  0.25053800  0.26141000  0.48831600  1
  Mn  Mn1  1  0.76141100  0.75053700  0.48831600  1
  Ga  Ga0  1  0.50940900  0.48368500  0.00552400  1
  Ga  Ga1  1  0.98368400  0.00941000  0.00552400  1
  O  O0  1  0.16391500  0.07869000  0.75792200  1
  O  O1  1  0.57869100  0.66390700  0.75791700  1
  O  O2  1  0.32201700  0.43720300  0.24086600  1
  O  O3  1  0.93720300  0.82202200  0.24086700  1
  O  O4  1  0.52749200  0.02749200  0.44604800  1
  O  O5  1  0.97931600  0.47931700  0.54017800  1
  O  O6  1  0.00096600  0.99993900  0.49918900  1
  O  O7  1  0.49993600  0.50096300  0.49918400  1
  O  O8  1  0.75079800  0.25079700  0.99721500  1
  O  O9  1  0.75023000  0.74948700  0.00016100  1
  O  O10  1  0.24948700  0.25023500  0.00016200  1
loop_
_geom_bond_atom_site_label_1
_geom_bond_atom_site_label_2
_geom_bond_distance
_geom_bond_site_symmetry_2
Li0 O1 1.743610 1_555
Li0 O0 1.743616 1_565
Li0 O4 1.754461 1_565
Li0 Sr0 2.469919 1_555
Li0 Sr1 2.482665 1_565
Mn0 O2 1.930784 1_555
Mn0 O5 1.960259 1_455
Mn0 O4 2.031029 1_555
Mn0 O7 2.087080 1_555
Mn0 O6 2.088844 1_545
Mn0 O0 2.090132 1_555
Mn1 O3 1.930773 1_555
Mn1 O5 1.960242 1_555
Mn1 O4 2.031036 1_565
Mn1 O6 2.087128 1_655
Mn1 O7 2.088889 1_555
Mn1 O1 2.090091 1_555
Ga0 O8 1.862724 1_554
Ga0 O2 1.877854 1_555
Ga0 O1 1.937656 1_554
Ga0 O10 2.083578 1_555
Ga0 O9 2.093885 1_555
Ga1 O8 1.862708 1_554
Ga1 O3 1.877855 1_545
Ga1 O0 1.937631 1_654
Ga1 O9 2.083603 1_545
Ga1 O10 2.093910 1_655
O0 Sr1 2.884690 1_555
O0 Sr0 2.899002 1_555
O0 Sr0 2.903054 1_545
O0 Sr1 2.912534 1_455
O1 Sr1 2.884757 1_565
O1 Sr0 2.898996 1_655
O1 Sr0 2.903046 1_555
O1 Sr1 2.912459 1_555
O2 Sr2 2.581058 1_555
O2 Sr3 2.581835 1_455
O2 Sr3 3.191160 1_555
O2 Sr2 3.191777 1_545
O3 Sr2 2.581047 1_655
O3 Sr3 2.581867 1_555
O3 Sr3 3.191119 1_565
O3 Sr2 3.191789 1_555
O4 Sr3 2.525149 1_555
O4 Sr2 2.530343 1_545
O5 Sr0 2.443220 1_655
O5 Sr1 2.445142 1_555
O5 Sr3 2.993524 1_555
O5 Sr2 3.002848 1_655
O6 Sr2 2.685837 1_555
O6 Sr3 2.691718 1_465
O6 Sr1 2.809146 1_465
O6 Sr0 2.811809 1_555
O7 Sr2 2.685810 1_555
O7 Sr3 2.691705 1_555
O7 Sr1 2.809160 1_555
O7 Sr0 2.811850 1_555
O8 Sr0 2.533053 1_655
O8 Sr1 2.542455 1_555
O8 Sr2 2.877963 1_546
O8 Sr3 2.882776 1_556
O9 Sr0 2.697957 1_654
O9 Sr1 2.706330 1_564
O9 Sr3 2.776864 1_555
O9 Sr2 2.780993 1_555
O10 Sr0 2.697956 1_554
O10 Sr1 2.706343 1_554
O10 Sr3 2.776846 1_455
O10 Sr2 2.780989 1_545
