# generated using pymatgen
data_BPb2O3F
_symmetry_space_group_name_H-M   'P 1'
_cell_length_a   7.41200644
_cell_length_b   7.41200644
_cell_length_c   14.85043000
_cell_angle_alpha   90.00000000
_cell_angle_beta   90.00000000
_cell_angle_gamma   120.00000395
_symmetry_Int_Tables_number   1
_chemical_formula_structural   BPb2O3F
_chemical_formula_sum   'B6 Pb12 O18 F6'
_cell_volume   706.54726513
_cell_formula_units_Z   6
loop_
 _symmetry_equiv_pos_site_id
 _symmetry_equiv_pos_as_xyz
  1  'x, y, z'
loop_
 _atom_site_type_symbol
 _atom_site_label
 _atom_site_symmetry_multiplicity
 _atom_site_fract_x
 _atom_site_fract_y
 _atom_site_fract_z
 _atom_site_occupancy
  B  B0  1  0.36570000  0.35896400  0.25000000  1
  B  B1  1  0.64103600  0.00673600  0.25000000  1
  B  B2  1  0.99326400  0.63430000  0.25000000  1
  B  B3  1  0.63430000  0.64103600  0.75000000  1
  B  B4  1  0.35896400  0.99326400  0.75000000  1
  B  B5  1  0.00673600  0.36570000  0.75000000  1
  Pb  Pb0  1  0.32468900  0.01077100  0.10672700  1
  Pb  Pb1  1  0.98922900  0.31391800  0.10672700  1
  Pb  Pb2  1  0.68608200  0.67531100  0.10672700  1
  Pb  Pb3  1  0.67531100  0.98922900  0.60672700  1
  Pb  Pb4  1  0.01077100  0.68608200  0.60672700  1
  Pb  Pb5  1  0.31391800  0.32468900  0.60672700  1
  Pb  Pb6  1  0.67531100  0.98922900  0.89327300  1
  Pb  Pb7  1  0.01077100  0.68608200  0.89327300  1
  Pb  Pb8  1  0.31391800  0.32468900  0.89327300  1
  Pb  Pb9  1  0.32468900  0.01077100  0.39327300  1
  Pb  Pb10  1  0.98922900  0.31391800  0.39327300  1
  Pb  Pb11  1  0.68608200  0.67531100  0.39327300  1
  O  O0  1  0.54947500  0.54909300  0.25000000  1
  O  O1  1  0.45090700  0.00038300  0.25000000  1
  O  O2  1  0.99961700  0.45052500  0.25000000  1
  O  O3  1  0.45052500  0.45090700  0.75000000  1
  O  O4  1  0.54909300  0.99961700  0.75000000  1
  O  O5  1  0.00038300  0.54947500  0.75000000  1
  O  O6  1  0.27704200  0.26992300  0.16756300  1
  O  O7  1  0.73007700  0.00711900  0.16756300  1
  O  O8  1  0.99288100  0.72295800  0.16756300  1
  O  O9  1  0.72295800  0.73007700  0.66756300  1
  O  O10  1  0.26992300  0.99288100  0.66756300  1
  O  O11  1  0.00711900  0.27704200  0.66756300  1
  O  O12  1  0.72295800  0.73007700  0.83243700  1
  O  O13  1  0.26992300  0.99288100  0.83243700  1
  O  O14  1  0.00711900  0.27704200  0.83243700  1
  O  O15  1  0.27704200  0.26992300  0.33243700  1
  O  O16  1  0.73007700  0.00711900  0.33243700  1
  O  O17  1  0.99288100  0.72295800  0.33243700  1
  F  F0  1  0.66666700  0.33333300  0.05932400  1
  F  F1  1  0.33333300  0.66666700  0.55932400  1
  F  F2  1  0.33333300  0.66666700  0.94067600  1
  F  F3  1  0.66666700  0.33333300  0.44067600  1
  F  F4  1  0.00000000  0.00000000  0.00000000  1
  F  F5  1  0.00000000  0.00000000  0.50000000  1
loop_
_geom_bond_atom_site_label_1
_geom_bond_atom_site_label_2
_geom_bond_distance
_geom_bond_site_symmetry_2
B0 O0 1.386289 1_555
B0 O15 1.390117 1_555
B0 O6 1.390117 1_555
B1 O1 1.386293 1_555
B1 O16 1.390117 1_555
B1 O7 1.390117 1_555
B2 O2 1.386286 1_555
B2 O17 1.390117 1_555
B2 O8 1.390117 1_555
B3 O3 1.386289 1_555
B3 O9 1.390117 1_555
B3 O12 1.390117 1_555
B4 O4 1.386293 1_555
B4 O13 1.390117 1_555
B4 O10 1.390117 1_555
B5 O5 1.386286 1_555
B5 O14 1.390117 1_555
B5 O11 1.390117 1_555
O0 Pb11 2.340971 1_555
O0 Pb2 2.340971 1_555
O1 Pb9 2.340969 1_555
O1 Pb0 2.340969 1_555
O2 Pb10 2.340972 1_555
O2 Pb1 2.340972 1_555
O3 Pb8 2.340971 1_555
O3 Pb5 2.340971 1_555
O4 Pb6 2.340969 1_555
O4 Pb3 2.340969 1_555
O5 Pb7 2.340972 1_555
O5 Pb4 2.340972 1_555
O6 Pb0 2.304105 1_555
O6 Pb1 2.483753 1_455
O7 Pb1 2.304105 1_555
O7 Pb2 2.483753 1_545
O8 Pb2 2.304105 1_555
O8 Pb0 2.483753 1_665
O9 Pb3 2.304105 1_555
O9 Pb4 2.483753 1_655
O10 Pb4 2.304105 1_555
O10 Pb5 2.483753 1_565
O11 Pb5 2.304105 1_555
O11 Pb3 2.483753 1_445
O12 Pb6 2.304105 1_555
O12 Pb7 2.483753 1_655
O13 Pb7 2.304105 1_555
O13 Pb8 2.483753 1_565
O14 Pb8 2.304105 1_555
O14 Pb6 2.483753 1_445
O15 Pb9 2.304105 1_555
O15 Pb10 2.483753 1_455
O16 Pb10 2.304105 1_555
O16 Pb11 2.483753 1_545
O17 Pb11 2.304105 1_555
O17 Pb9 2.483753 1_665
F0 Pb1 2.564447 1_555
F0 Pb0 2.564451 1_555
F0 Pb2 2.564454 1_555
F1 Pb4 2.564447 1_555
F1 Pb3 2.564451 1_555
F1 Pb5 2.564454 1_555
F2 Pb7 2.564447 1_555
F2 Pb6 2.564451 1_555
F2 Pb8 2.564454 1_555
F3 Pb10 2.564447 1_555
F3 Pb9 2.564451 1_555
F3 Pb11 2.564454 1_555
