# generated using pymatgen
data_Nb3Au
_symmetry_space_group_name_H-M   'P 1'
_cell_length_a   5.61824704
_cell_length_b   5.61824704
_cell_length_c   18.70491526
_cell_angle_alpha   90.00000000
_cell_angle_beta   90.00000000
_cell_angle_gamma   103.49870260
_symmetry_Int_Tables_number   1
_chemical_formula_structural   Nb3Au
_chemical_formula_sum   'Nb24 Au8'
_cell_volume   574.10494095
_cell_formula_units_Z   8
loop_
 _symmetry_equiv_pos_site_id
 _symmetry_equiv_pos_as_xyz
  1  'x, y, z'
loop_
 _atom_site_type_symbol
 _atom_site_label
 _atom_site_symmetry_multiplicity
 _atom_site_fract_x
 _atom_site_fract_y
 _atom_site_fract_z
 _atom_site_occupancy
  Nb  Nb0_0  1  0.25000000  0.25000000  0.37594962  1
  Nb  Nb0_1  1  0.25000000  0.25000000  0.87594962  1
  Nb  Nb0_2  1  0.25000000  0.75000000  0.37594962  1
  Nb  Nb0_3  1  0.25000000  0.75000000  0.87594962  1
  Nb  Nb0_4  1  0.75000000  0.25000000  0.37594962  1
  Nb  Nb0_5  1  0.75000000  0.25000000  0.87594962  1
  Nb  Nb0_6  1  0.75000000  0.75000000  0.37594962  1
  Nb  Nb0_7  1  0.75000000  0.75000000  0.87594962  1
  Nb  Nb1_0  1  0.00000000  0.00000000  0.25000000  1
  Nb  Nb1_1  1  0.00000000  0.00000000  0.75000000  1
  Nb  Nb1_2  1  0.00000000  0.50000000  0.25000000  1
  Nb  Nb1_3  1  0.00000000  0.50000000  0.75000000  1
  Nb  Nb1_4  1  0.50000000  0.00000000  0.25000000  1
  Nb  Nb1_5  1  0.50000000  0.00000000  0.75000000  1
  Nb  Nb1_6  1  0.50000000  0.50000000  0.25000000  1
  Nb  Nb1_7  1  0.50000000  0.50000000  0.75000000  1
  Nb  Nb2_0  1  0.25000000  0.25000000  0.12405038  1
  Nb  Nb2_1  1  0.25000000  0.25000000  0.62405038  1
  Nb  Nb2_2  1  0.25000000  0.75000000  0.12405038  1
  Nb  Nb2_3  1  0.25000000  0.75000000  0.62405038  1
  Nb  Nb2_4  1  0.75000000  0.25000000  0.12405038  1
  Nb  Nb2_5  1  0.75000000  0.25000000  0.62405038  1
  Nb  Nb2_6  1  0.75000000  0.75000000  0.12405038  1
  Nb  Nb2_7  1  0.75000000  0.75000000  0.62405038  1
  Au  Au0_0  1  0.00000000  0.00000000  0.00000000  1
  Au  Au0_1  1  0.00000000  0.00000000  0.50000000  1
  Au  Au0_2  1  0.00000000  0.50000000  0.00000000  1
  Au  Au0_3  1  0.00000000  0.50000000  0.50000000  1
  Au  Au0_4  1  0.50000000  0.00000000  0.00000000  1
  Au  Au0_5  1  0.50000000  0.00000000  0.50000000  1
  Au  Au0_6  1  0.50000000  0.50000000  0.00000000  1
  Au  Au0_7  1  0.50000000  0.50000000  0.50000000  1
loop_
_geom_bond_atom_site_label_1
_geom_bond_atom_site_label_2
_geom_bond_distance
_geom_bond_site_symmetry_2
Nb0_0 Nb0_2 2.809124 1_545
Nb0_0 Nb0_4 2.809124 1_455
Nb0_0 Nb0_4 2.809124 1_555
Nb0_0 Nb0_2 2.809124 1_555
Nb0_0 Nb1_6 2.928268 1_555
Nb0_0 Nb1_0 2.928268 1_555
Nb0_1 Nb0_3 2.809124 1_555
Nb0_1 Nb0_3 2.809124 1_545
Nb0_1 Nb0_5 2.809124 1_455
Nb0_1 Nb0_5 2.809124 1_555
Nb0_1 Nb1_1 2.928268 1_555
Nb0_1 Nb1_7 2.928268 1_555
Nb0_2 Nb0_6 2.809124 1_455
Nb0_2 Nb0_6 2.809124 1_555
Nb0_2 Nb1_4 2.928268 1_565
Nb0_2 Nb1_2 2.928268 1_555
Nb0_3 Nb0_7 2.809124 1_455
Nb0_3 Nb0_7 2.809124 1_555
Nb0_3 Nb1_5 2.928268 1_565
Nb0_3 Nb1_3 2.928268 1_555
Nb0_4 Nb0_6 2.809124 1_545
Nb0_4 Nb0_6 2.809124 1_555
Nb0_4 Nb1_2 2.928268 1_655
Nb0_4 Nb1_4 2.928268 1_555
Nb0_5 Nb0_7 2.809124 1_545
Nb0_5 Nb0_7 2.809124 1_555
Nb0_5 Nb1_5 2.928268 1_555
Nb0_5 Nb1_3 2.928268 1_655
Nb0_6 Nb1_0 2.928268 1_665
Nb0_6 Nb1_6 2.928268 1_555
Nb0_7 Nb1_1 2.928268 1_665
Nb0_7 Nb1_7 2.928268 1_555
Nb1_0 Nb1_4 2.809124 1_455
Nb1_0 Nb1_4 2.809124 1_555
Nb1_0 Nb1_2 2.809124 1_555
Nb1_0 Nb1_2 2.809124 1_545
Nb1_0 Nb2_6 2.928268 1_445
Nb1_0 Nb2_0 2.928268 1_555
Nb1_1 Nb1_3 2.809124 1_555
Nb1_1 Nb1_5 2.809124 1_455
Nb1_1 Nb1_3 2.809124 1_545
Nb1_1 Nb1_5 2.809124 1_555
Nb1_1 Nb2_7 2.928268 1_445
Nb1_1 Nb2_1 2.928268 1_555
Nb1_2 Nb1_6 2.809124 1_455
Nb1_2 Nb1_6 2.809124 1_555
Nb1_2 Nb2_4 2.928268 1_455
Nb1_2 Nb2_2 2.928268 1_555
Nb1_3 Nb1_7 2.809124 1_555
Nb1_3 Nb1_7 2.809124 1_455
Nb1_3 Nb2_3 2.928268 1_555
Nb1_3 Nb2_5 2.928268 1_455
Nb1_4 Nb1_6 2.809124 1_555
Nb1_4 Nb1_6 2.809124 1_545
Nb1_4 Nb2_4 2.928268 1_555
Nb1_4 Nb2_2 2.928268 1_545
Nb1_5 Nb1_7 2.809124 1_555
Nb1_5 Nb1_7 2.809124 1_545
Nb1_5 Nb2_3 2.928268 1_545
Nb1_5 Nb2_5 2.928268 1_555
Nb1_6 Nb2_0 2.928268 1_555
Nb1_6 Nb2_6 2.928268 1_555
Nb1_7 Nb2_1 2.928268 1_555
Nb1_7 Nb2_7 2.928268 1_555
Nb2_0 Nb2_2 2.809124 1_545
Nb2_0 Nb2_4 2.809124 1_455
Nb2_0 Nb2_4 2.809124 1_555
Nb2_0 Nb2_2 2.809124 1_555
Nb2_1 Nb2_5 2.809124 1_555
Nb2_1 Nb2_3 2.809124 1_545
Nb2_1 Nb2_3 2.809124 1_555
Nb2_1 Nb2_5 2.809124 1_455
Nb2_2 Nb2_6 2.809124 1_455
Nb2_2 Nb2_6 2.809124 1_555
Nb2_3 Nb2_7 2.809124 1_455
Nb2_3 Nb2_7 2.809124 1_555
Nb2_4 Nb2_6 2.809124 1_545
Nb2_4 Nb2_6 2.809124 1_555
Nb2_5 Nb2_7 2.809124 1_545
Nb2_5 Nb2_7 2.809124 1_555
Au0_0 Au0_4 2.809124 1_455
Au0_0 Au0_2 2.809124 1_545
Au0_0 Au0_4 2.809124 1_555
Au0_0 Au0_2 2.809124 1_555
Au0_0 Nb0_7 2.899764 1_444
Au0_0 Nb0_1 2.899764 1_554
Au0_0 Nb2_6 2.899764 1_445
Au0_0 Nb2_0 2.899764 1_555
Au0_1 Au0_3 2.809124 1_545
Au0_1 Au0_5 2.809124 1_455
Au0_1 Au0_3 2.809124 1_555
Au0_1 Au0_5 2.809124 1_555
Au0_1 Nb2_7 2.899764 1_445
Au0_1 Nb0_6 2.899764 1_445
Au0_1 Nb0_0 2.899764 1_555
Au0_1 Nb2_1 2.899764 1_555
Au0_2 Au0_6 2.809124 1_555
Au0_2 Au0_6 2.809124 1_455
Au0_2 Nb0_3 2.899764 1_554
Au0_2 Nb0_5 2.899764 1_454
Au0_2 Nb2_4 2.899764 1_455
Au0_2 Nb2_2 2.899764 1_555
Au0_3 Au0_7 2.809124 1_455
Au0_3 Au0_7 2.809124 1_555
Au0_3 Nb2_3 2.899764 1_555
Au0_3 Nb2_5 2.899764 1_455
Au0_3 Nb0_2 2.899764 1_555
Au0_3 Nb0_4 2.899764 1_455
Au0_4 Au0_6 2.809124 1_555
Au0_4 Au0_6 2.809124 1_545
Au0_4 Nb0_5 2.899764 1_554
Au0_4 Nb0_3 2.899764 1_544
Au0_4 Nb2_2 2.899764 1_545
Au0_4 Nb2_4 2.899764 1_555
Au0_5 Au0_7 2.809124 1_545
Au0_5 Au0_7 2.809124 1_555
Au0_5 Nb2_5 2.899764 1_555
Au0_5 Nb2_3 2.899764 1_545
Au0_5 Nb0_4 2.899764 1_555
Au0_5 Nb0_2 2.899764 1_545
Au0_6 Nb0_1 2.899764 1_554
Au0_6 Nb0_7 2.899764 1_554
Au0_6 Nb2_0 2.899764 1_555
Au0_6 Nb2_6 2.899764 1_555
Au0_7 Nb0_0 2.899764 1_555
Au0_7 Nb2_1 2.899764 1_555
Au0_7 Nb0_6 2.899764 1_555
Au0_7 Nb2_7 2.899764 1_555
