# generated using pymatgen
data_HfMg6C
_symmetry_space_group_name_H-M   'P 1'
_cell_length_a   4.72802200
_cell_length_b   5.43066200
_cell_length_c   12.06860400
_cell_angle_alpha   90.00000000
_cell_angle_beta   90.00000000
_cell_angle_gamma   90.00000000
_symmetry_Int_Tables_number   1
_chemical_formula_structural   HfMg6C
_chemical_formula_sum   'Hf2 Mg12 C2'
_cell_volume   309.87696909
_cell_formula_units_Z   2
loop_
 _symmetry_equiv_pos_site_id
 _symmetry_equiv_pos_as_xyz
  1  'x, y, z'
loop_
 _atom_site_type_symbol
 _atom_site_label
 _atom_site_symmetry_multiplicity
 _atom_site_fract_x
 _atom_site_fract_y
 _atom_site_fract_z
 _atom_site_occupancy
  Hf  Hf0  1  0.50000000  0.50000000  0.18756700  1
  Hf  Hf1  1  0.50000000  0.00000000  0.68756700  1
  Mg  Mg0  1  0.50000000  0.25278200  0.44764900  1
  Mg  Mg1  1  0.50000000  0.74721800  0.44764900  1
  Mg  Mg2  1  0.00000000  0.75167300  0.07856400  1
  Mg  Mg3  1  0.00000000  0.24832700  0.07856400  1
  Mg  Mg4  1  0.00000000  0.00000000  0.29534000  1
  Mg  Mg5  1  0.00000000  0.50000000  0.34284800  1
  Mg  Mg6  1  0.50000000  0.75278200  0.94764900  1
  Mg  Mg7  1  0.50000000  0.24721800  0.94764900  1
  Mg  Mg8  1  0.00000000  0.25167300  0.57856400  1
  Mg  Mg9  1  0.00000000  0.74832700  0.57856400  1
  Mg  Mg10  1  0.00000000  0.50000000  0.79534000  1
  Mg  Mg11  1  0.00000000  0.00000000  0.84284800  1
  C  C0  1  0.50000000  0.00000000  0.12181500  1
  C  C1  1  0.50000000  0.50000000  0.62181500  1
loop_
_geom_bond_atom_site_label_1
_geom_bond_atom_site_label_2
_geom_bond_distance
_geom_bond_site_symmetry_2
Hf0 Mg5 3.016706 1_655
Hf0 Mg5 3.016706 1_555
Hf1 Mg11 3.016706 1_555
Hf1 Mg11 3.016706 1_655
Mg0 Mg5 2.998455 1_655
Mg0 Mg5 2.998455 1_555
Mg0 Mg4 3.294219 1_555
Mg0 Mg4 3.294219 1_655
Mg1 Mg5 2.998455 1_655
Mg1 Mg5 2.998455 1_555
Mg1 Mg4 3.294219 1_665
Mg1 Mg4 3.294219 1_565
Mg2 Mg4 2.943312 1_565
Mg3 Mg4 2.943312 1_555
Mg4 Mg5 2.775204 1_545
Mg4 Mg5 2.775204 1_555
Mg5 Mg8 3.148229 1_555
Mg5 Mg9 3.148229 1_555
Mg10 Mg11 2.775204 1_555
Mg10 Mg11 2.775204 1_565
Mg10 Mg9 2.943312 1_555
Mg10 Mg8 2.943312 1_555
Mg10 Mg6 3.294219 1_555
Mg10 Mg6 3.294219 1_455
Mg10 Mg7 3.294219 1_555
Mg10 Mg7 3.294219 1_455
Mg11 Mg7 2.998455 1_455
Mg11 Mg6 2.998455 1_445
Mg11 Mg6 2.998455 1_545
Mg11 Mg7 2.998455 1_555
Mg11 Mg2 3.148229 1_546
Mg11 Mg3 3.148229 1_556
C0 Mg7 2.494116 1_554
C0 Mg6 2.494116 1_544
C0 Mg2 2.771223 1_645
C0 Mg2 2.771223 1_545
C0 Mg3 2.771223 1_655
C0 Mg3 2.771223 1_555
C0 Hf0 2.828908 1_545
C0 Hf0 2.828908 1_555
C1 Mg1 2.494116 1_555
C1 Mg0 2.494116 1_555
C1 Mg9 2.771223 1_555
C1 Mg9 2.771223 1_655
C1 Mg8 2.771223 1_555
C1 Mg8 2.771223 1_655
C1 Hf1 2.828908 1_555
C1 Hf1 2.828908 1_565
