# generated using pymatgen
data_BaTlV2O6
_symmetry_space_group_name_H-M   'P 1'
_cell_length_a   3.38792700
_cell_length_b   3.45836340
_cell_length_c   26.93867383
_cell_angle_alpha   93.52485499
_cell_angle_beta   93.44432263
_cell_angle_gamma   90.02740233
_symmetry_Int_Tables_number   1
_chemical_formula_structural   BaTlV2O6
_chemical_formula_sum   'Ba2 Tl2 V4 O12'
_cell_volume   314.46296887
_cell_formula_units_Z   2
loop_
 _symmetry_equiv_pos_site_id
 _symmetry_equiv_pos_as_xyz
  1  'x, y, z'
loop_
 _atom_site_type_symbol
 _atom_site_label
 _atom_site_symmetry_multiplicity
 _atom_site_fract_x
 _atom_site_fract_y
 _atom_site_fract_z
 _atom_site_occupancy
  Ba  Ba0  1  0.82519700  0.86357500  0.67258400  1
  Ba  Ba1  1  0.16564000  0.15384000  0.32708100  1
  Tl  Tl0  1  0.27091900  0.28880400  0.55164700  1
  Tl  Tl1  1  0.72181000  0.72704200  0.44692800  1
  V  V0  1  0.48424700  0.41670700  0.91559600  1
  V  V1  1  0.61254100  0.59160200  0.20838500  1
  V  V2  1  0.36251700  0.42165500  0.79122000  1
  V  V3  1  0.53611700  0.56866800  0.08520300  1
  O  O0  1  0.12911400  0.60963500  0.24669800  1
  O  O1  1  0.96949900  0.41398500  0.88563100  1
  O  O2  1  0.76509100  0.78176800  0.53945300  1
  O  O3  1  0.52279700  0.05564700  0.05905600  1
  O  O4  1  0.22617200  0.23198300  0.45605700  1
  O  O5  1  0.39862900  0.93208100  0.81429800  1
  O  O6  1  0.85203900  0.40454400  0.75281900  1
  O  O7  1  0.68284000  0.67258500  0.36340300  1
  O  O8  1  0.59797800  0.08090000  0.18522100  1
  O  O9  1  0.49688700  0.93037900  0.94169700  1
  O  O10  1  0.05072600  0.57597400  0.11539600  1
  O  O11  1  0.30876000  0.34498500  0.63584900  1
loop_
_geom_bond_atom_site_label_1
_geom_bond_atom_site_label_2
_geom_bond_distance
_geom_bond_site_symmetry_2
Ba0 O11 2.609552 1_565
Ba0 O11 2.613012 1_555
Ba0 O11 2.613405 1_665
Ba0 O11 2.619000 1_655
Ba0 O6 2.756557 1_555
Ba0 O6 2.767519 1_565
Ba1 O7 2.606321 1_445
Ba1 O7 2.606690 1_545
Ba1 O7 2.611768 1_555
Ba1 O7 2.613545 1_455
Ba1 O0 2.752592 1_555
Ba1 O0 2.777214 1_545
O0 V1 1.976602 1_455
O0 V1 1.986670 1_555
O1 V0 1.874288 1_555
O1 V0 1.876933 1_655
O2 Tl0 2.439188 1_555
O2 Tl0 2.440333 1_655
O2 Tl0 2.445030 1_665
O2 Tl0 2.446179 1_565
O2 Tl1 2.483532 1_555
O3 V3 1.864577 1_545
O3 V3 1.867736 1_555
O4 Tl1 2.431059 1_555
O4 Tl1 2.432205 1_455
O4 Tl1 2.433841 1_445
O4 Tl1 2.434998 1_545
O4 Tl0 2.565817 1_555
O5 V2 1.836640 1_555
O5 V2 1.840823 1_565
O6 V2 1.960122 1_655
O6 V2 2.005705 1_555
O7 Tl1 2.242278 1_555
O8 V1 1.836288 1_555
O8 V1 1.838880 1_545
O9 V0 1.861953 1_565
O9 V0 1.869429 1_555
O10 V3 1.877418 1_555
O10 V3 1.878531 1_455
O11 Tl0 2.260568 1_555
