# generated using pymatgen
data_Sc4Ge19Rh6
_symmetry_space_group_name_H-M   'P 1'
_cell_length_a   8.83956113
_cell_length_b   8.83956113
_cell_length_c   8.83956113
_cell_angle_alpha   109.47122063
_cell_angle_beta   109.47122063
_cell_angle_gamma   109.47122063
_symmetry_Int_Tables_number   1
_chemical_formula_structural   Sc4Ge19Rh6
_chemical_formula_sum   'Sc4 Ge19 Rh6'
_cell_volume   531.70435852
_cell_formula_units_Z   1
loop_
 _symmetry_equiv_pos_site_id
 _symmetry_equiv_pos_as_xyz
  1  'x, y, z'
loop_
 _atom_site_type_symbol
 _atom_site_label
 _atom_site_symmetry_multiplicity
 _atom_site_fract_x
 _atom_site_fract_y
 _atom_site_fract_z
 _atom_site_occupancy
  Sc  Sc0  1  0.64728900  0.64728900  0.64728900  1
  Sc  Sc1  1  0.35271100  0.00000000  0.00000000  1
  Sc  Sc2  1  0.00000000  0.35271100  0.00000000  1
  Sc  Sc3  1  0.00000000  0.00000000  0.35271100  1
  Ge  Ge0  1  0.70002800  0.70002800  0.00000000  1
  Ge  Ge1  1  0.29997200  0.29997200  0.00000000  1
  Ge  Ge2  1  0.70002800  0.00000000  0.70002800  1
  Ge  Ge3  1  0.29997200  0.00000000  0.29997200  1
  Ge  Ge4  1  0.00000000  0.70002800  0.70002800  1
  Ge  Ge5  1  0.00000000  0.29997200  0.29997200  1
  Ge  Ge6  1  0.00000000  0.00000000  0.00000000  1
  Ge  Ge7  1  0.33187400  0.55398700  0.33366100  1
  Ge  Ge8  1  0.66812600  0.00178700  0.22211400  1
  Ge  Ge9  1  0.77967400  0.44601300  0.77788600  1
  Ge  Ge10  1  0.55398700  0.33366100  0.33187400  1
  Ge  Ge11  1  0.22032600  0.99821300  0.66633900  1
  Ge  Ge12  1  0.00178700  0.22211400  0.66812600  1
  Ge  Ge13  1  0.44601300  0.77788600  0.77967400  1
  Ge  Ge14  1  0.99821300  0.66633900  0.22032600  1
  Ge  Ge15  1  0.33366100  0.33187400  0.55398700  1
  Ge  Ge16  1  0.77788600  0.77967400  0.44601300  1
  Ge  Ge17  1  0.66633900  0.22032600  0.99821300  1
  Ge  Ge18  1  0.22211400  0.66812600  0.00178700  1
  Rh  Rh0  1  0.35750900  0.85750900  0.50000000  1
  Rh  Rh1  1  0.64249100  0.14249100  0.50000000  1
  Rh  Rh2  1  0.85750900  0.50000000  0.35750900  1
  Rh  Rh3  1  0.14249100  0.50000000  0.64249100  1
  Rh  Rh4  1  0.50000000  0.35750900  0.85750900  1
  Rh  Rh5  1  0.50000000  0.64249100  0.14249100  1
loop_
_geom_bond_atom_site_label_1
_geom_bond_atom_site_label_2
_geom_bond_distance
_geom_bond_site_symmetry_2
Ge0 Rh5 2.506758 1_555
Ge0 Rh4 2.506758 1_554
Ge0 Sc3 2.841220 1_665
Ge0 Sc0 2.841220 1_554
Ge0 Ge6 3.061828 1_665
Ge1 Rh5 2.506758 1_555
Ge1 Rh4 2.506758 1_554
Ge1 Sc2 2.841220 1_555
Ge1 Sc1 2.841220 1_555
Ge1 Ge6 3.061828 1_555
Ge2 Rh1 2.506758 1_555
Ge2 Rh0 2.506758 1_545
Ge2 Sc2 2.841220 1_656
Ge2 Sc0 2.841220 1_545
Ge2 Ge6 3.061828 1_656
Ge3 Rh1 2.506758 1_555
Ge3 Rh0 2.506758 1_545
Ge3 Sc1 2.841220 1_555
Ge3 Sc3 2.841220 1_555
Ge3 Ge6 3.061828 1_555
Ge4 Rh3 2.506758 1_555
Ge4 Rh2 2.506758 1_455
Ge4 Sc0 2.841220 1_455
Ge4 Sc1 2.841220 1_566
Ge4 Ge6 3.061828 1_566
Ge5 Rh3 2.506758 1_555
Ge5 Rh2 2.506758 1_455
Ge5 Sc2 2.841220 1_555
Ge5 Sc3 2.841220 1_555
Ge5 Ge6 3.061828 1_555
Ge6 Sc2 3.117810 1_555
Ge6 Sc1 3.117810 1_555
Ge6 Sc0 3.117810 1_444
Ge6 Sc3 3.117810 1_555
Ge7 Rh0 2.480803 1_555
Ge7 Rh5 2.730724 1_555
Ge7 Sc2 2.779274 1_555
Ge7 Sc0 2.815902 1_555
Ge8 Rh1 2.480795 1_555
Ge8 Rh5 2.730721 1_545
Ge8 Sc3 2.779274 1_655
Ge8 Sc1 2.815906 1_555
Ge9 Rh1 2.480798 1_555
Ge9 Rh4 2.730730 1_555
Ge9 Sc0 2.779270 1_555
Ge9 Sc2 2.815907 1_656
Ge10 Rh2 2.480803 1_555
Ge10 Rh1 2.730724 1_555
Ge10 Sc1 2.779274 1_555
Ge10 Sc0 2.815902 1_555
Ge11 Rh0 2.480803 1_555
Ge11 Rh4 2.730724 1_565
Ge11 Sc1 2.779274 1_566
Ge11 Sc3 2.815902 1_565
Ge12 Rh3 2.480795 1_555
Ge12 Rh1 2.730721 1_455
Ge12 Sc2 2.779274 1_556
Ge12 Sc3 2.815906 1_555
Ge13 Rh3 2.480798 1_555
Ge13 Rh0 2.730730 1_555
Ge13 Sc0 2.779270 1_555
Ge13 Sc1 2.815907 1_566
Ge14 Rh2 2.480803 1_555
Ge14 Rh0 2.730724 1_655
Ge14 Sc3 2.779274 1_665
Ge14 Sc2 2.815902 1_655
Ge15 Rh4 2.480803 1_555
Ge15 Rh3 2.730724 1_555
Ge15 Sc3 2.779274 1_555
Ge15 Sc0 2.815902 1_555
Ge16 Rh5 2.480798 1_555
Ge16 Rh2 2.730730 1_555
Ge16 Sc0 2.779270 1_555
Ge16 Sc3 2.815907 1_665
Ge17 Rh4 2.480803 1_555
Ge17 Rh2 2.730724 1_556
Ge17 Sc2 2.779274 1_656
Ge17 Sc1 2.815902 1_556
Ge18 Rh5 2.480795 1_555
Ge18 Rh3 2.730721 1_554
Ge18 Sc1 2.779274 1_565
Ge18 Sc2 2.815906 1_555
