# generated using pymatgen
data_SmNiSb
_symmetry_space_group_name_H-M   'P 1'
_cell_length_a   4.31742492
_cell_length_b   4.31741543
_cell_length_c   8.18664987
_cell_angle_alpha   90.00000639
_cell_angle_beta   90.00004729
_cell_angle_gamma   119.99857400
_symmetry_Int_Tables_number   1
_chemical_formula_structural   SmNiSb
_chemical_formula_sum   'Sm2 Ni2 Sb2'
_cell_volume   132.15747169
_cell_formula_units_Z   2
loop_
 _symmetry_equiv_pos_site_id
 _symmetry_equiv_pos_as_xyz
  1  'x, y, z'
loop_
 _atom_site_type_symbol
 _atom_site_label
 _atom_site_symmetry_multiplicity
 _atom_site_fract_x
 _atom_site_fract_y
 _atom_site_fract_z
 _atom_site_occupancy
  Sm  Sm0  1  -0.00000045  -0.00000062  -0.00002683  1
  Sm  Sm1  1  0.00000033  -0.00000017  0.50002673  1
  Ni  Ni0  1  0.66666426  0.33333064  0.74999321  1
  Ni  Ni1  1  0.33333547  0.66667085  0.25000695  1
  Sb  Sb0  1  0.66666351  0.33333460  0.25000201  1
  Sb  Sb1  1  0.33333688  0.66666470  0.74999794  1
loop_
_geom_bond_atom_site_label_1
_geom_bond_atom_site_label_2
_geom_bond_distance
_geom_bond_site_symmetry_2
Ni0 Sb1 2.492626 1_555
Ni0 Sb1 2.492694 1_545
Ni0 Sb1 2.492725 1_655
Ni0 Sm1 3.225057 1_655
Ni0 Sm1 3.225090 1_555
Ni0 Sm1 3.225104 1_665
Ni0 Sm0 3.225125 1_656
Ni0 Sm0 3.225166 1_556
Ni0 Sm0 3.225171 1_666
Ni1 Sb0 2.492637 1_555
Ni1 Sb0 2.492686 1_565
Ni1 Sb0 2.492722 1_455
Ni1 Sm1 3.225326 1_565
Ni1 Sm1 3.225370 1_665
Ni1 Sm1 3.225386 1_555
Ni1 Sm0 3.225399 1_565
Ni1 Sm0 3.225444 1_665
Ni1 Sm0 3.225458 1_555
Sb0 Sm1 3.225372 1_655
Sb0 Sm1 3.225393 1_665
Sb0 Sm1 3.225394 1_555
Sb0 Sm0 3.225394 1_655
Sb0 Sm0 3.225414 1_555
Sb0 Sm0 3.225415 1_665
Sb1 Sm1 3.225095 1_565
Sb1 Sm1 3.225114 1_555
Sb1 Sm1 3.225117 1_665
Sb1 Sm0 3.225118 1_566
Sb1 Sm0 3.225132 1_666
Sb1 Sm0 3.225138 1_556
