# generated using pymatgen
data_YInPt
_symmetry_space_group_name_H-M   'P 1'
_cell_length_a   7.64089958
_cell_length_b   7.64089958
_cell_length_c   3.86448752
_cell_angle_alpha   90.00000000
_cell_angle_beta   90.00000000
_cell_angle_gamma   119.99999459
_symmetry_Int_Tables_number   1
_chemical_formula_structural   YInPt
_chemical_formula_sum   'Y3 In3 Pt3'
_cell_volume   195.39414596
_cell_formula_units_Z   3
loop_
 _symmetry_equiv_pos_site_id
 _symmetry_equiv_pos_as_xyz
  1  'x, y, z'
loop_
 _atom_site_type_symbol
 _atom_site_label
 _atom_site_symmetry_multiplicity
 _atom_site_fract_x
 _atom_site_fract_y
 _atom_site_fract_z
 _atom_site_occupancy
  Y  Y0  1  0.40640683  -0.00000000  0.50000000  1
  Y  Y1  1  -0.00000000  0.40640683  0.50000000  1
  Y  Y2  1  0.59359317  0.59359317  0.50000000  1
  In  In0  1  0.73989783  -0.00000000  0.00000000  1
  In  In1  1  0.26010217  0.26010217  -0.00000000  1
  In  In2  1  -0.00000000  0.73989783  -0.00000000  1
  Pt  Pt0  1  0.00000000  0.00000000  0.50000000  1
  Pt  Pt1  1  0.66666700  0.33333300  -0.00000000  1
  Pt  Pt2  1  0.33333300  0.66666700  -0.00000000  1
loop_
_geom_bond_atom_site_label_1
_geom_bond_atom_site_label_2
_geom_bond_distance
_geom_bond_site_symmetry_2
In0 Pt0 2.771892 1_654
In0 Pt0 2.771892 1_655
In0 Pt1 2.867974 1_555
In0 Pt2 2.867979 1_545
In0 Y0 3.197928 1_554
In0 Y0 3.197928 1_555
In0 Y2 3.339882 1_544
In0 Y2 3.339882 1_545
In0 Y1 3.339882 1_654
In0 Y1 3.339882 1_655
In1 Pt0 2.771892 1_554
In1 Pt0 2.771892 1_555
In1 Pt2 2.867981 1_555
In1 Pt1 2.867981 1_555
In1 Y2 3.197928 1_555
In1 Y2 3.197928 1_554
In1 Y1 3.339882 1_554
In1 Y0 3.339882 1_554
In1 Y1 3.339882 1_555
In1 Y0 3.339882 1_555
In2 Pt0 2.771892 1_565
In2 Pt0 2.771892 1_564
In2 Pt2 2.867974 1_555
In2 Pt1 2.867979 1_455
In2 Y1 3.197928 1_555
In2 Y1 3.197928 1_554
In2 Y2 3.339882 1_455
In2 Y2 3.339882 1_454
In2 Y0 3.339882 1_564
In2 Y0 3.339882 1_565
Pt0 Y0 3.105314 1_555
Pt0 Y1 3.105314 1_555
Pt0 Y2 3.105314 1_445
Pt1 Y1 3.018319 1_655
Pt1 Y1 3.018319 1_654
Pt1 Y0 3.018321 1_554
Pt1 Y0 3.018321 1_555
Pt1 Y2 3.018325 1_555
Pt1 Y2 3.018325 1_554
Pt2 Y0 3.018319 1_564
Pt2 Y0 3.018319 1_565
Pt2 Y1 3.018321 1_555
Pt2 Y1 3.018321 1_554
Pt2 Y2 3.018325 1_555
Pt2 Y2 3.018325 1_554
