# generated using pymatgen
data_TmAlFe
_symmetry_space_group_name_H-M   'P 1'
_cell_length_a   5.29528669
_cell_length_b   5.34927451
_cell_length_c   8.68028426
_cell_angle_alpha   90.00000000
_cell_angle_beta   90.00000000
_cell_angle_gamma   120.33763620
_symmetry_Int_Tables_number   1
_chemical_formula_structural   TmAlFe
_chemical_formula_sum   'Tm4 Al4 Fe4'
_cell_volume   212.20777361
_cell_formula_units_Z   4
loop_
 _symmetry_equiv_pos_site_id
 _symmetry_equiv_pos_as_xyz
  1  'x, y, z'
loop_
 _atom_site_type_symbol
 _atom_site_label
 _atom_site_symmetry_multiplicity
 _atom_site_fract_x
 _atom_site_fract_y
 _atom_site_fract_z
 _atom_site_occupancy
  Tm  Tm0  1  0.66704645  0.33352418  0.55399648  1
  Tm  Tm1  1  0.33770363  0.66885147  0.42599376  1
  Tm  Tm2  1  0.33770363  0.66885147  0.07400624  1
  Tm  Tm3  1  0.66704645  0.33352418  0.94600352  1
  Al  Al0  1  0.99092987  0.99546606  0.48663214  1
  Al  Al1  1  0.99092987  0.99546606  0.01336786  1
  Al  Al2  1  0.17370247  0.33976270  0.75000000  1
  Al  Al3  1  0.17370514  0.83395330  0.75000000  1
  Fe  Fe0  1  0.66893839  0.83447909  0.75000000  1
  Fe  Fe1  1  0.82316828  0.64388463  0.25000000  1
  Fe  Fe2  1  0.82317024  0.17926714  0.25000000  1
  Fe  Fe3  1  0.34595457  0.17296972  0.25000000  1
loop_
_geom_bond_atom_site_label_1
_geom_bond_atom_site_label_2
_geom_bond_distance
_geom_bond_site_symmetry_2
Tm0 Tm1 3.260196 1_655
Tm0 Tm1 3.263993 1_555
Tm0 Tm1 3.264013 1_545
Tm0 Tm3 3.402733 1_555
Tm1 Tm2 3.055352 1_555
Tm2 Tm3 3.260196 1_454
Tm2 Tm3 3.263993 1_554
Tm2 Tm3 3.264013 1_564
Al0 Fe3 2.617564 1_665
Al0 Fe2 2.618625 1_565
Al0 Fe1 2.618688 1_555
Al0 Fe0 2.718780 1_555
Al0 Al3 2.784635 1_655
Al0 Al2 2.784660 1_665
Al0 Tm1 3.031403 1_555
Al0 Tm0 3.112326 1_565
Al0 Tm0 3.112337 1_555
Al0 Tm0 3.144810 1_665
Al0 Tm1 3.153152 1_665
Al0 Tm1 3.153155 1_655
Al1 Fe3 2.617564 1_665
Al1 Fe2 2.618625 1_565
Al1 Fe1 2.618688 1_555
Al1 Fe0 2.718780 1_554
Al1 Al3 2.784635 1_654
Al1 Al2 2.784660 1_664
Al1 Tm2 3.031403 1_555
Al1 Tm3 3.112326 1_564
Al1 Tm3 3.112337 1_554
Al1 Tm3 3.144810 1_664
Al1 Tm2 3.153152 1_665
Al1 Tm2 3.153155 1_655
Al2 Fe0 2.621022 1_555
Al2 Al3 2.643554 1_555
Al2 Fe0 2.674284 1_445
Al2 Al3 2.705720 1_545
Al2 Tm0 3.131845 1_555
Al2 Tm3 3.131845 1_555
Al2 Tm0 3.162785 1_455
Al2 Tm3 3.162785 1_455
Al2 Tm1 3.196678 1_555
Al2 Tm2 3.196678 1_556
Al3 Fe0 2.620983 1_555
Al3 Fe0 2.674306 1_455
Al3 Tm0 3.131819 1_565
Al3 Tm3 3.131819 1_565
Al3 Tm3 3.162824 1_455
Al3 Tm0 3.162824 1_455
Al3 Tm1 3.196701 1_555
Al3 Tm2 3.196701 1_556
Fe0 Tm3 3.169882 1_565
Fe0 Tm0 3.169882 1_565
Fe0 Tm3 3.169963 1_555
Fe0 Tm0 3.169963 1_555
Fe0 Tm1 3.193987 1_555
Fe0 Tm2 3.193987 1_556
Fe1 Fe2 2.485372 1_555
Fe1 Fe3 2.510141 1_555
Fe1 Fe3 2.785482 1_665
Fe1 Fe2 2.863903 1_565
Fe1 Tm3 3.002727 1_554
Fe1 Tm0 3.002727 1_555
Fe1 Tm2 3.050708 1_555
Fe1 Tm1 3.050708 1_555
Fe1 Tm1 3.067173 1_655
Fe1 Tm2 3.067173 1_655
Fe2 Fe3 2.510147 1_555
Fe2 Fe3 2.785460 1_655
Fe2 Tm0 3.002770 1_555
Fe2 Tm3 3.002770 1_554
Fe2 Tm2 3.050680 1_545
Fe2 Tm1 3.050680 1_545
Fe2 Tm1 3.067209 1_655
Fe2 Tm2 3.067209 1_655
Fe3 Tm0 3.019360 1_555
Fe3 Tm3 3.019360 1_554
Fe3 Tm1 3.080372 1_545
Fe3 Tm2 3.080372 1_545
Fe3 Tm1 3.080439 1_555
Fe3 Tm2 3.080439 1_555
