# generated using pymatgen
data_Te2Mo(WSe2)3
_symmetry_space_group_name_H-M   'P 1'
_cell_length_a   3.38151484
_cell_length_b   3.38151484
_cell_length_c   38.52435300
_cell_angle_alpha   90.00000000
_cell_angle_beta   90.00000000
_cell_angle_gamma   120.00001648
_symmetry_Int_Tables_number   1
_chemical_formula_structural   Te2Mo(WSe2)3
_chemical_formula_sum   'Te2 Mo1 W3 Se6'
_cell_volume   381.49470039
_cell_formula_units_Z   1
loop_
 _symmetry_equiv_pos_site_id
 _symmetry_equiv_pos_as_xyz
  1  'x, y, z'
loop_
 _atom_site_type_symbol
 _atom_site_label
 _atom_site_symmetry_multiplicity
 _atom_site_fract_x
 _atom_site_fract_y
 _atom_site_fract_z
 _atom_site_occupancy
  Te  Te0  1  0.66666700  0.33333300  0.42058900  1
  Te  Te1  1  0.66666700  0.33333300  0.51870200  1
  Mo  Mo0  1  0.66666700  0.33333300  0.28180500  1
  W  W0  1  0.33333300  0.66666700  0.09392800  1
  W  W1  1  0.33333300  0.66666700  0.46967400  1
  W  W2  1  0.66666700  0.33333300  0.65755700  1
  Se  Se0  1  0.33333300  0.66666700  0.32476700  1
  Se  Se1  1  0.33333300  0.66666700  0.70065100  1
  Se  Se2  1  0.66666700  0.33333300  0.05080800  1
  Se  Se3  1  0.66666700  0.33333300  0.13704500  1
  Se  Se4  1  0.33333300  0.66666700  0.23880500  1
  Se  Se5  1  0.33333300  0.66666700  0.61441800  1
loop_
_geom_bond_atom_site_label_1
_geom_bond_atom_site_label_2
_geom_bond_distance
_geom_bond_site_symmetry_2
Te0 W1 2.717958 1_545
Te0 W1 2.717958 1_655
Te0 W1 2.717963 1_555
Te1 W1 2.716431 1_545
Te1 W1 2.716431 1_655
Te1 W1 2.716436 1_555
Mo0 Se0 2.559461 1_545
Mo0 Se0 2.559461 1_655
Mo0 Se0 2.559466 1_555
Mo0 Se4 2.560408 1_545
Mo0 Se4 2.560408 1_655
Mo0 Se4 2.560412 1_555
Se1 W2 2.562752 1_455
Se1 W2 2.562752 1_565
Se1 W2 2.562757 1_555
Se2 W0 2.563401 1_545
Se2 W0 2.563401 1_655
Se2 W0 2.563406 1_555
Se3 W0 2.563326 1_655
Se3 W0 2.563326 1_545
Se3 W0 2.563331 1_555
Se5 W2 2.563875 1_455
Se5 W2 2.563875 1_565
Se5 W2 2.563880 1_555
