# generated using pymatgen
data_Mg2Ti3AlS8
_symmetry_space_group_name_H-M   'P 1'
_cell_length_a   7.39300084
_cell_length_b   7.40358767
_cell_length_c   7.39864259
_cell_angle_alpha   58.68594950
_cell_angle_beta   58.63199929
_cell_angle_gamma   58.69446312
_symmetry_Int_Tables_number   1
_chemical_formula_structural   Mg2Ti3AlS8
_chemical_formula_sum   'Mg2 Ti3 Al1 S8'
_cell_volume   277.65311272
_cell_formula_units_Z   1
loop_
 _symmetry_equiv_pos_site_id
 _symmetry_equiv_pos_as_xyz
  1  'x, y, z'
loop_
 _atom_site_type_symbol
 _atom_site_label
 _atom_site_symmetry_multiplicity
 _atom_site_fract_x
 _atom_site_fract_y
 _atom_site_fract_z
 _atom_site_occupancy
  Mg  Mg0  1  0.87438395  0.87487813  0.87432146  1
  Mg  Mg1  1  0.12562003  0.12512296  0.12568211  1
  Ti  Ti0  1  0.50000283  0.49999792  0.99999735  1
  Ti  Ti1  1  0.99999501  0.49999280  0.50001713  1
  Ti  Ti2  1  0.49999063  0.99999894  0.50001174  1
  Al  Al0  1  0.50000359  0.50001497  0.49997594  1
  S  S0  1  0.74107196  0.74058180  0.74094918  1
  S  S1  1  0.26394045  0.26437185  0.71709740  1
  S  S2  1  0.26399350  0.71722891  0.26408199  1
  S  S3  1  0.71723342  0.26428992  0.26395064  1
  S  S4  1  0.73599924  0.28277191  0.73590695  1
  S  S5  1  0.28276956  0.73569690  0.73604631  1
  S  S6  1  0.25892850  0.25941185  0.25906173  1
  S  S7  1  0.73607130  0.73563614  0.28290106  1
loop_
_geom_bond_atom_site_label_1
_geom_bond_atom_site_label_2
_geom_bond_distance
_geom_bond_site_symmetry_2
Mg0 S5 2.423029 1_655
Mg0 S4 2.424977 1_565
Mg0 S7 2.425824 1_556
Mg0 S0 2.446289 1_555
Mg1 S3 2.423035 1_455
Mg1 S2 2.424980 1_545
Mg1 S1 2.425854 1_554
Mg1 S6 2.446267 1_555
Al0 S7 2.449884 1_555
Al0 S1 2.449951 1_555
Al0 S3 2.451519 1_555
Al0 S5 2.451527 1_555
Al0 S2 2.452245 1_555
Al0 S4 2.452352 1_555
S0 Ti0 2.493314 1_555
S0 Ti1 2.493853 1_555
S0 Ti2 2.496921 1_555
S1 Ti1 2.498679 1_455
S1 Ti2 2.501255 1_545
S2 Ti1 2.498016 1_455
S2 Ti0 2.499926 1_554
S3 Ti0 2.499709 1_554
S3 Ti2 2.500362 1_545
S4 Ti1 2.497938 1_555
S4 Ti0 2.499937 1_555
S5 Ti0 2.499712 1_555
S5 Ti2 2.500322 1_555
S6 Ti0 2.493354 1_554
S6 Ti1 2.493933 1_455
S6 Ti2 2.496886 1_545
S7 Ti1 2.498733 1_555
S7 Ti2 2.501316 1_555
