# generated using pymatgen
data_BaGaGeH
_symmetry_space_group_name_H-M   'P 1'
_cell_length_a   4.37804149
_cell_length_b   4.37804149
_cell_length_c   5.26955900
_cell_angle_alpha   90.00000000
_cell_angle_beta   90.00000000
_cell_angle_gamma   119.99999227
_symmetry_Int_Tables_number   1
_chemical_formula_structural   BaGaGeH
_chemical_formula_sum   'Ba1 Ga1 Ge1 H1'
_cell_volume   87.47111904
_cell_formula_units_Z   1
loop_
 _symmetry_equiv_pos_site_id
 _symmetry_equiv_pos_as_xyz
  1  'x, y, z'
loop_
 _atom_site_type_symbol
 _atom_site_label
 _atom_site_symmetry_multiplicity
 _atom_site_fract_x
 _atom_site_fract_y
 _atom_site_fract_z
 _atom_site_occupancy
  Ba  Ba0  1  0.33333300  0.66666700  0.00002100  1
  Ga  Ga0  1  0.00000000  0.00000000  0.55053300  1
  Ge  Ge0  1  0.66666700  0.33333300  0.44636300  1
  H  H0  1  0.00000000  0.00000000  0.88298300  1
loop_
_geom_bond_atom_site_label_1
_geom_bond_atom_site_label_2
_geom_bond_distance
_geom_bond_site_symmetry_2
Ba0 H0 2.601814 1_564
Ba0 H0 2.601818 1_664
Ba0 H0 2.601818 1_554
Ba0 Ge0 3.452694 1_565
Ba0 Ge0 3.452694 1_455
Ba0 Ge0 3.452699 1_555
Ga0 H0 1.751865 1_555
Ga0 Ge0 2.586579 1_455
Ga0 Ge0 2.586583 1_555
Ga0 Ge0 2.586583 1_445
