# generated using pymatgen
data_NbSi2
_symmetry_space_group_name_H-M   'P 1'
_cell_length_a   4.80595947
_cell_length_b   4.80576692
_cell_length_c   6.58815616
_cell_angle_alpha   89.99999739
_cell_angle_beta   90.00000311
_cell_angle_gamma   120.00133472
_symmetry_Int_Tables_number   1
_chemical_formula_structural   NbSi2
_chemical_formula_sum   'Nb3 Si6'
_cell_volume   131.77453204
_cell_formula_units_Z   3
loop_
 _symmetry_equiv_pos_site_id
 _symmetry_equiv_pos_as_xyz
  1  'x, y, z'
loop_
 _atom_site_type_symbol
 _atom_site_label
 _atom_site_symmetry_multiplicity
 _atom_site_fract_x
 _atom_site_fract_y
 _atom_site_fract_z
 _atom_site_occupancy
  Nb  Nb0  1  0.00000002  0.49999999  0.33322956  1
  Nb  Nb1  1  0.50000024  0.49999996  0.66676952  1
  Nb  Nb2  1  0.49999954  0.00000010  0.00000203  1
  Si  Si0  1  0.84191810  0.68383515  0.00000018  1
  Si  Si1  1  0.15805863  0.84189613  0.66665826  1
  Si  Si2  1  0.68383677  0.84189616  0.33334196  1
  Si  Si3  1  0.15808206  0.31616508  0.00000016  1
  Si  Si4  1  0.84194148  0.15810378  0.66665835  1
  Si  Si5  1  0.31616317  0.15810366  0.33334199  1
loop_
_geom_bond_atom_site_label_1
_geom_bond_atom_site_label_2
_geom_bond_distance
_geom_bond_site_symmetry_2
Nb0 Si3 2.616979 1_555
Nb0 Si0 2.616979 1_455
Nb0 Si1 2.618006 1_555
Nb0 Si4 2.618006 1_455
Nb0 Si2 2.739557 1_455
Nb0 Si5 2.739557 1_555
Nb0 Si5 2.739636 1_565
Nb0 Si2 2.739637 1_445
Nb0 Si2 2.846147 1_555
Nb0 Si5 2.846148 1_455
Nb1 Si0 2.616988 1_556
Nb1 Si3 2.616989 1_556
Nb1 Si2 2.618000 1_555
Nb1 Si5 2.618000 1_555
Nb1 Si1 2.739552 1_655
Nb1 Si4 2.739553 1_455
Nb1 Si4 2.739637 1_565
Nb1 Si1 2.739637 1_545
Nb1 Si4 2.846150 1_555
Nb1 Si1 2.846152 1_555
Nb2 Si5 2.617644 1_555
Nb2 Si2 2.617647 1_545
Nb2 Si1 2.617667 1_544
Nb2 Si4 2.617670 1_554
Nb2 Si0 2.739654 1_445
Nb2 Si3 2.739659 1_655
Nb2 Si3 2.739659 1_555
Nb2 Si0 2.739664 1_545
Nb2 Si3 2.846026 1_545
Nb2 Si0 2.846026 1_555
Si0 Si1 2.560114 1_654
Si0 Si2 2.560117 1_555
Si0 Si3 2.631669 1_665
Si0 Si3 2.848820 1_655
Si0 Si3 2.848828 1_555
Si1 Si5 2.560085 1_565
Si1 Si4 2.631753 1_465
Si1 Si4 2.848544 1_455
Si1 Si4 2.849030 1_565
Si2 Si4 2.560086 1_565
Si2 Si5 2.631760 1_665
Si2 Si5 2.848544 1_555
Si2 Si5 2.849023 1_565
Si3 Si4 2.560114 1_454
Si3 Si5 2.560118 1_555
