# generated using pymatgen
data_ZnWO4
_symmetry_space_group_name_H-M   'P 1'
_cell_length_a   6.73293446
_cell_length_b   6.73293446
_cell_length_c   5.39443800
_cell_angle_alpha   90.00000000
_cell_angle_beta   90.00000000
_cell_angle_gamma   109.70331613
_symmetry_Int_Tables_number   1
_chemical_formula_structural   ZnWO4
_chemical_formula_sum   'Zn4 W4 O16'
_cell_volume   230.22512403
_cell_formula_units_Z   4
loop_
 _symmetry_equiv_pos_site_id
 _symmetry_equiv_pos_as_xyz
  1  'x, y, z'
loop_
 _atom_site_type_symbol
 _atom_site_label
 _atom_site_symmetry_multiplicity
 _atom_site_fract_x
 _atom_site_fract_y
 _atom_site_fract_z
 _atom_site_occupancy
  Zn  Zn0  1  0.10994200  0.39005800  0.75000000  1
  Zn  Zn1  1  0.39005800  0.10994200  0.25000000  1
  Zn  Zn2  1  0.89005800  0.60994200  0.25000000  1
  Zn  Zn3  1  0.60994200  0.89005800  0.75000000  1
  W  W0  1  0.89174900  0.10825100  0.26547400  1
  W  W1  1  0.10825100  0.89174900  0.73452600  1
  W  W2  1  0.60825100  0.39174900  0.76547400  1
  W  W3  1  0.39174900  0.60825100  0.23452600  1
  O  O0  1  0.42040400  0.07959600  0.75000000  1
  O  O1  1  0.07959600  0.42040400  0.25000000  1
  O  O2  1  0.57959600  0.92040400  0.25000000  1
  O  O3  1  0.92040400  0.57959600  0.75000000  1
  O  O4  1  0.77933600  0.22066400  0.53546600  1
  O  O5  1  0.22066400  0.77933600  0.46453400  1
  O  O6  1  0.72066400  0.27933600  0.03546600  1
  O  O7  1  0.27933600  0.72066400  0.96453400  1
  O  O8  1  0.34826300  0.34826300  0.00000000  1
  O  O9  1  0.84826300  0.84826300  0.50000000  1
  O  O10  1  0.65173700  0.65173700  0.00000000  1
  O  O11  1  0.15173700  0.15173700  0.50000000  1
  O  O12  1  0.92022500  0.07977500  0.88322600  1
  O  O13  1  0.07977500  0.92022500  0.11677400  1
  O  O14  1  0.57977500  0.42022500  0.38322600  1
  O  O15  1  0.42022500  0.57977500  0.61677400  1
loop_
_geom_bond_atom_site_label_1
_geom_bond_atom_site_label_2
_geom_bond_distance
_geom_bond_site_symmetry_2
O0 W2 2.057028 1_555
O0 W1 2.057028 1_545
O0 Zn3 2.086920 1_545
O1 W3 2.057028 1_555
O1 W0 2.057028 1_455
O1 Zn2 2.086920 1_455
O2 W0 2.057028 1_565
O2 W3 2.057028 1_555
O2 Zn1 2.086920 1_565
O3 W1 2.057028 1_655
O3 W2 2.057028 1_555
O3 Zn0 2.086920 1_655
O4 W0 1.911344 1_555
O4 W2 2.255655 1_555
O4 Zn3 2.425507 1_545
O4 Zn0 2.425507 1_655
O5 W1 1.911344 1_555
O5 W3 2.255655 1_555
O5 Zn1 2.425507 1_565
O5 Zn2 2.425507 1_455
O6 W2 1.911344 1_554
O6 W0 2.255655 1_555
O6 Zn2 2.425507 1_555
O6 Zn1 2.425507 1_555
O7 W3 1.911344 1_556
O7 W1 2.255655 1_555
O7 Zn3 2.425507 1_555
O7 Zn0 2.425507 1_555
O8 W3 2.098783 1_555
O8 W2 2.098783 1_554
O8 Zn0 2.185669 1_554
O8 Zn1 2.185669 1_555
O9 W0 2.098783 1_565
O9 W1 2.098783 1_655
O9 Zn3 2.185669 1_555
O9 Zn2 2.185669 1_555
O10 W3 2.098783 1_555
O10 W2 2.098783 1_554
O10 Zn2 2.185669 1_555
O10 Zn3 2.185669 1_554
O11 W0 2.098783 1_455
O11 W1 2.098783 1_545
O11 Zn0 2.185669 1_555
O11 Zn1 2.185669 1_555
O12 W0 2.085714 1_556
O12 Zn0 2.170976 1_655
O12 Zn3 2.170976 1_545
O12 W1 2.220242 1_645
O13 W1 2.085714 1_554
O13 Zn1 2.170976 1_565
O13 Zn2 2.170976 1_455
O13 W0 2.220242 1_465
O14 W2 2.085714 1_555
O14 Zn1 2.170976 1_555
O14 Zn2 2.170976 1_555
O14 W3 2.220242 1_555
O15 W3 2.085714 1_555
O15 Zn0 2.170976 1_555
O15 Zn3 2.170976 1_555
O15 W2 2.220242 1_555
