# generated using pymatgen
data_Li9Mn2Co5O16
_symmetry_space_group_name_H-M   'P 1'
_cell_length_a   5.12354600
_cell_length_b   5.89621492
_cell_length_c   10.07338461
_cell_angle_alpha   104.80241263
_cell_angle_beta   100.69553002
_cell_angle_gamma   90.68706461
_symmetry_Int_Tables_number   1
_chemical_formula_structural   Li9Mn2Co5O16
_chemical_formula_sum   'Li9 Mn2 Co5 O16'
_cell_volume   288.53580490
_cell_formula_units_Z   1
loop_
 _symmetry_equiv_pos_site_id
 _symmetry_equiv_pos_as_xyz
  1  'x, y, z'
loop_
 _atom_site_type_symbol
 _atom_site_label
 _atom_site_symmetry_multiplicity
 _atom_site_fract_x
 _atom_site_fract_y
 _atom_site_fract_z
 _atom_site_occupancy
  Li  Li0  1  0.50163400  0.74789100  0.00531700  1
  Li  Li1  1  0.25560900  0.36591000  0.74137000  1
  Li  Li2  1  0.49597500  0.25116400  0.00138300  1
  Li  Li3  1  0.25273500  0.87503100  0.74596500  1
  Li  Li4  1  0.74352000  0.13174500  0.26021200  1
  Li  Li5  1  0.74706500  0.63584200  0.25715500  1
  Li  Li6  1  0.99429900  0.49011100  0.49556800  1
  Li  Li7  1  0.01097800  0.00763400  0.49669400  1
  Li  Li8  1  0.49783600  0.25471600  0.49740200  1
  Mn  Mn0  1  0.00158200  0.99632100  0.00011900  1
  Mn  Mn1  1  0.75368800  0.62362400  0.74828300  1
  Co  Co0  1  0.24592800  0.88029600  0.25351400  1
  Co  Co1  1  0.00101800  0.49310200  0.99885300  1
  Co  Co2  1  0.73711100  0.12320900  0.73909900  1
  Co  Co3  1  0.50382700  0.74566200  0.49375100  1
  Co  Co4  1  0.25090000  0.37224600  0.25924500  1
  O  O0  1  0.34914700  0.04905400  0.12546600  1
  O  O1  1  0.10112300  0.69774600  0.88622800  1
  O  O2  1  0.33854400  0.54280800  0.11938200  1
  O  O3  1  0.10605900  0.16626400  0.87737300  1
  O  O4  1  0.60764900  0.45297900  0.37174200  1
  O  O5  1  0.59233200  0.92757800  0.37154500  1
  O  O6  1  0.86462500  0.80795900  0.63263900  1
  O  O7  1  0.87469600  0.34228900  0.64225600  1
  O  O8  1  0.65672800  0.44384500  0.87344200  1
  O  O9  1  0.39953000  0.06478300  0.63305500  1
  O  O10  1  0.65876500  0.91851500  0.87409200  1
  O  O11  1  0.41106200  0.58182800  0.63254500  1
  O  O12  1  0.90020800  0.82290600  0.12540900  1
  O  O13  1  0.88909200  0.28831900  0.10475400  1
  O  O14  1  0.12183500  0.20158100  0.36743900  1
  O  O15  1  0.13490000  0.69704100  0.36870400  1
loop_
_geom_bond_atom_site_label_1
_geom_bond_atom_site_label_2
_geom_bond_distance
_geom_bond_site_symmetry_2
Li0 O10 2.112514 1_554
Li0 O0 2.124737 1_565
Li0 O2 2.126680 1_555
Li0 O12 2.148784 1_555
Li0 O1 2.151248 1_554
Li0 O8 2.195247 1_554
Li1 O7 2.006051 1_455
Li1 O9 2.055923 1_555
Li1 O11 2.114183 1_555
Li1 O8 2.203382 1_555
Li1 O3 2.245393 1_555
Li1 O1 2.364525 1_555
Li2 O13 2.069655 1_555
Li2 O2 2.089311 1_555
Li2 O3 2.128915 1_554
Li2 O0 2.153371 1_555
Li2 O8 2.179399 1_554
Li2 O10 2.310394 1_544
Li3 O9 2.014607 1_565
Li3 O11 2.078578 1_555
Li3 O6 2.078844 1_455
Li3 O3 2.122356 1_565
Li3 O1 2.198868 1_555
Li3 O10 2.209248 1_555
Li4 O14 2.017372 1_655
Li4 O5 2.072898 1_545
Li4 O4 2.137501 1_555
Li4 O0 2.187028 1_555
Li4 O12 2.231725 1_545
Li4 O13 2.239783 1_555
Li5 O4 1.982070 1_555
Li5 O5 2.067400 1_555
Li5 O15 2.070801 1_655
Li5 O12 2.169602 1_555
Li5 O2 2.261241 1_555
Li5 O13 2.434763 1_555
Li6 O14 2.050560 1_655
Li6 O7 2.073641 1_555
Li6 O4 2.112134 1_555
Li6 O15 2.181308 1_655
Li6 O6 2.215472 1_555
Li6 O11 2.292004 1_655
Li7 O14 2.084549 1_555
Li7 O15 2.131763 1_545
Li7 O9 2.167003 1_555
Li7 O6 2.237743 1_445
Li7 O5 2.254080 1_445
Li7 O7 2.337899 1_455
Li8 O4 2.071258 1_555
Li8 O14 2.088809 1_555
Li8 O9 2.097380 1_555
Li8 O5 2.136113 1_545
Li8 O7 2.160864 1_555
Li8 O11 2.162053 1_555
Mn0 O3 1.919720 1_564
Mn0 O13 1.931157 1_465
Mn0 O10 1.939750 1_454
Mn0 O12 1.948878 1_455
Mn0 O0 1.952855 1_565
Mn0 O1 1.970341 1_554
Mn1 O11 1.893350 1_555
Mn1 O7 1.908387 1_555
Mn1 O6 1.933738 1_555
Mn1 O8 1.965378 1_555
Mn1 O10 1.997238 1_555
Mn1 O1 2.010860 1_655
Co0 O5 1.917510 1_555
Co0 O15 1.925729 1_555
Co0 O0 1.957026 1_565
Co0 O12 1.957390 1_455
Co0 O14 2.121021 1_565
Co0 O2 2.212986 1_555
Co1 O2 1.891370 1_556
Co1 O8 1.940368 1_455
Co1 O13 1.947675 1_456
Co1 O1 1.976552 1_555
Co1 O3 2.136631 1_555
Co1 O12 2.162227 1_456
Co2 O9 1.833906 1_555
Co2 O7 1.998625 1_555
Co2 O6 2.074269 1_545
Co2 O3 2.099617 1_655
Co2 O8 2.119763 1_555
Co2 O10 2.120506 1_545
Co3 O5 1.934372 1_555
Co3 O4 1.988099 1_555
Co3 O11 2.009867 1_555
Co3 O15 2.039733 1_555
Co3 O6 2.066560 1_555
Co3 O9 2.179087 1_565
Co4 O14 1.857326 1_555
Co4 O4 1.945862 1_555
Co4 O2 2.036170 1_555
Co4 O15 2.104291 1_555
Co4 O13 2.148679 1_455
Co4 O0 2.159488 1_555
