# generated using pymatgen
data_La4Cd4In2S13
_symmetry_space_group_name_H-M   'P 1'
_cell_length_a   4.03496900
_cell_length_b   20.69918100
_cell_length_c   25.44053400
_cell_angle_alpha   90.00000000
_cell_angle_beta   90.00000000
_cell_angle_gamma   90.00000000
_symmetry_Int_Tables_number   1
_chemical_formula_structural   La4Cd4In2S13
_chemical_formula_sum   'La16 Cd16 In8 S52'
_cell_volume   2124.80748510
_cell_formula_units_Z   4
loop_
 _symmetry_equiv_pos_site_id
 _symmetry_equiv_pos_as_xyz
  1  'x, y, z'
loop_
 _atom_site_type_symbol
 _atom_site_label
 _atom_site_symmetry_multiplicity
 _atom_site_fract_x
 _atom_site_fract_y
 _atom_site_fract_z
 _atom_site_occupancy
  La  La0  1  0.50000000  0.88191500  0.25322500  1
  La  La1  1  0.50000000  0.11808500  0.74677500  1
  La  La2  1  0.50000000  0.38191500  0.24677500  1
  La  La3  1  0.50000000  0.61808500  0.75322500  1
  La  La4  1  0.50000000  0.67405900  0.22189900  1
  La  La5  1  0.50000000  0.32594100  0.77810100  1
  La  La6  1  0.50000000  0.17405900  0.27810100  1
  La  La7  1  0.50000000  0.82594100  0.72189900  1
  La  La8  1  0.50000000  0.53529900  0.34928700  1
  La  La9  1  0.50000000  0.46470100  0.65071300  1
  La  La10  1  0.50000000  0.03529900  0.15071300  1
  La  La11  1  0.50000000  0.96470100  0.84928700  1
  La  La12  1  0.50000000  0.68056000  0.06090300  1
  La  La13  1  0.50000000  0.31944000  0.93909700  1
  La  La14  1  0.50000000  0.18056000  0.43909700  1
  La  La15  1  0.50000000  0.81944000  0.56090300  1
  Cd  Cd0  1  0.00000000  0.52234300  0.16029900  1
  Cd  Cd1  1  0.00000000  0.47765700  0.83970100  1
  Cd  Cd2  1  0.00000000  0.02234300  0.33970100  1
  Cd  Cd3  1  0.00000000  0.97765700  0.66029900  1
  Cd  Cd4  1  0.50000000  0.88938400  0.41296100  1
  Cd  Cd5  1  0.50000000  0.11061600  0.58703900  1
  Cd  Cd6  1  0.50000000  0.38938400  0.08703900  1
  Cd  Cd7  1  0.50000000  0.61061600  0.91296100  1
  Cd  Cd8  1  0.50000000  0.65524200  0.48153500  1
  Cd  Cd9  1  0.50000000  0.34475800  0.51846500  1
  Cd  Cd10  1  0.50000000  0.15524200  0.01846500  1
  Cd  Cd11  1  0.50000000  0.84475800  0.98153500  1
  Cd  Cd12  1  0.00000000  0.84805700  0.11164200  1
  Cd  Cd13  1  0.00000000  0.15194300  0.88835800  1
  Cd  Cd14  1  0.00000000  0.34805700  0.38835800  1
  Cd  Cd15  1  0.00000000  0.65194300  0.61164200  1
  In  In0  1  0.00000000  0.73163000  0.35056900  1
  In  In1  1  0.00000000  0.26837000  0.64943100  1
  In  In2  1  0.00000000  0.23163000  0.14943100  1
  In  In3  1  0.00000000  0.76837000  0.85056900  1
  In  In4  1  0.00000000  0.50000000  0.00000000  1
  In  In5  1  0.00000000  0.00000000  0.50000000  1
  In  In6  1  0.00000000  0.50000000  0.50000000  1
  In  In7  1  0.00000000  0.00000000  0.00000000  1
  S  S0  1  0.00000000  0.58606600  0.42734700  1
  S  S1  1  0.00000000  0.41393400  0.57265300  1
  S  S2  1  0.00000000  0.08606600  0.07265300  1
  S  S3  1  0.00000000  0.91393400  0.92734700  1
  S  S4  1  0.00000000  0.87690400  0.48763300  1
  S  S5  1  0.00000000  0.12309600  0.51236700  1
  S  S6  1  0.00000000  0.37690400  0.01236700  1
  S  S7  1  0.00000000  0.62309600  0.98763300  1
  S  S8  1  0.50000000  0.93831300  0.05292200  1
  S  S9  1  0.50000000  0.06168700  0.94707800  1
  S  S10  1  0.50000000  0.43831300  0.44707800  1
  S  S11  1  0.50000000  0.56168700  0.55292200  1
  S  S12  1  0.50000000  0.78792500  0.15373300  1
  S  S13  1  0.50000000  0.21207500  0.84626700  1
  S  S14  1  0.50000000  0.28792500  0.34626700  1
  S  S15  1  0.50000000  0.71207500  0.65373300  1
  S  S16  1  0.50000000  0.52748700  0.22861000  1
  S  S17  1  0.50000000  0.47251300  0.77139000  1
  S  S18  1  0.50000000  0.02748700  0.27139000  1
  S  S19  1  0.50000000  0.97251300  0.72861000  1
  S  S20  1  0.00000000  0.89565200  0.33999600  1
  S  S21  1  0.00000000  0.10434800  0.66000400  1
  S  S22  1  0.00000000  0.39565200  0.16000400  1
  S  S23  1  0.00000000  0.60434800  0.83999600  1
  S  S24  1  0.50000000  0.51603300  0.07152600  1
  S  S25  1  0.50000000  0.48396700  0.92847400  1
  S  S26  1  0.50000000  0.01603300  0.42847400  1
  S  S27  1  0.50000000  0.98396700  0.57152600  1
  S  S28  1  0.00000000  0.62478200  0.30233500  1
  S  S29  1  0.00000000  0.37521800  0.69766500  1
  S  S30  1  0.00000000  0.12478200  0.19766500  1
  S  S31  1  0.00000000  0.87521800  0.80233500  1
  S  S32  1  0.50000000  0.75238400  0.40563600  1
  S  S33  1  0.50000000  0.24761600  0.59436400  1
  S  S34  1  0.50000000  0.25238400  0.09436400  1
  S  S35  1  0.50000000  0.74761600  0.90563600  1
  S  S36  1  0.00000000  0.64712600  0.14098100  1
  S  S37  1  0.00000000  0.35287400  0.85901900  1
  S  S38  1  0.00000000  0.14712600  0.35901900  1
  S  S39  1  0.00000000  0.85287400  0.64098100  1
  S  S40  1  0.00000000  0.77680800  0.02739000  1
  S  S41  1  0.00000000  0.22319200  0.97261000  1
  S  S42  1  0.00000000  0.27680800  0.47261000  1
  S  S43  1  0.00000000  0.72319200  0.52739000  1
  S  S44  1  0.00000000  0.77339400  0.25808700  1
  S  S45  1  0.00000000  0.22660600  0.74191300  1
  S  S46  1  0.00000000  0.27339400  0.24191300  1
  S  S47  1  0.00000000  0.72660600  0.75808700  1
  S  S48  1  0.00000000  0.94064500  0.18262700  1
  S  S49  1  0.00000000  0.05935500  0.81737300  1
  S  S50  1  0.00000000  0.44064500  0.31737300  1
  S  S51  1  0.00000000  0.55935500  0.68262700  1
loop_
_geom_bond_atom_site_label_1
_geom_bond_atom_site_label_2
_geom_bond_distance
_geom_bond_site_symmetry_2
La0 S48 2.962073 1_555
La0 S48 2.962073 1_655
La0 S20 3.004023 1_655
La0 S20 3.004023 1_555
La0 S44 3.021819 1_555
La0 S44 3.021819 1_655
La0 S18 3.048453 1_565
La0 S12 3.192436 1_555
La1 S49 2.962073 1_555
La1 S49 2.962073 1_655
La1 S21 3.004023 1_555
La1 S21 3.004023 1_655
La1 S45 3.021819 1_555
La1 S45 3.021819 1_655
La1 S19 3.048453 1_545
La1 S13 3.192436 1_555
La2 S50 2.962073 1_655
La2 S50 2.962073 1_555
La2 S22 3.004023 1_655
La2 S22 3.004023 1_555
La2 S46 3.021819 1_555
La2 S46 3.021819 1_655
La2 S16 3.048453 1_555
La2 S14 3.192436 1_555
La3 S51 2.962073 1_555
La3 S51 2.962073 1_655
La3 S23 3.004023 1_555
La3 S23 3.004023 1_655
La3 S47 3.021819 1_555
La3 S47 3.021819 1_655
La3 S17 3.048453 1_555
La3 S15 3.192436 1_555
La4 S12 2.926177 1_555
La4 S36 2.935790 1_555
La4 S36 2.935790 1_655
La4 S44 3.024168 1_555
La4 S44 3.024168 1_655
La4 S16 3.038720 1_555
La4 S28 3.049281 1_655
La4 S28 3.049281 1_555
La5 S13 2.926177 1_555
La5 S37 2.935790 1_555
La5 S37 2.935790 1_655
La5 S45 3.024168 1_555
La5 S45 3.024168 1_655
La5 S17 3.038720 1_555
La5 S29 3.049281 1_655
La5 S29 3.049281 1_555
La6 S14 2.926177 1_555
La6 S38 2.935790 1_555
La6 S38 2.935790 1_655
La6 S46 3.024168 1_655
La6 S46 3.024168 1_555
La6 S18 3.038720 1_555
La6 S30 3.049281 1_655
La6 S30 3.049281 1_555
La7 S15 2.926177 1_555
La7 S39 2.935790 1_555
La7 S39 2.935790 1_655
La7 S47 3.024168 1_555
La7 S47 3.024168 1_655
La7 S19 3.038720 1_555
La7 S31 3.049281 1_555
La7 S31 3.049281 1_655
La8 S50 2.927139 1_655
La8 S50 2.927139 1_555
La8 S28 2.987938 1_655
La8 S28 2.987938 1_555
La8 S0 3.019644 1_555
La8 S0 3.019644 1_655
La8 S16 3.074343 1_555
La8 S10 3.196811 1_555
La9 S51 2.927139 1_555
La9 S51 2.927139 1_655
La9 S29 2.987938 1_555
La9 S29 2.987938 1_655
La9 S1 3.019644 1_555
La9 S1 3.019644 1_655
La9 S17 3.074343 1_555
La9 S11 3.196811 1_555
La10 S48 2.927139 1_545
La10 S48 2.927139 1_645
La10 S30 2.987938 1_555
La10 S30 2.987938 1_655
La10 S2 3.019644 1_655
La10 S2 3.019644 1_555
La10 S18 3.074343 1_555
La10 S8 3.196811 1_545
La11 S49 2.927139 1_665
La11 S49 2.927139 1_565
La11 S31 2.987938 1_655
La11 S31 2.987938 1_555
La11 S3 3.019644 1_555
La11 S3 3.019644 1_655
La11 S19 3.074343 1_555
La11 S9 3.196811 1_565
La12 S36 2.949488 1_555
La12 S36 2.949488 1_655
La12 S40 2.960782 1_555
La12 S40 2.960782 1_655
La12 S7 2.993268 1_654
La12 S7 2.993268 1_554
La12 S12 3.242882 1_555
La12 S24 3.416281 1_555
La13 S37 2.949488 1_655
La13 S37 2.949488 1_555
La13 S41 2.960782 1_655
La13 S41 2.960782 1_555
La13 S6 2.993268 1_556
La13 S6 2.993268 1_656
La13 S13 3.242882 1_555
La13 S25 3.416281 1_555
La14 S38 2.949488 1_555
La14 S38 2.949488 1_655
La14 S42 2.960782 1_555
La14 S42 2.960782 1_655
La14 S5 2.993268 1_555
La14 S5 2.993268 1_655
La14 S14 3.242882 1_555
La14 S26 3.416281 1_555
La15 S39 2.949488 1_555
La15 S39 2.949488 1_655
La15 S43 2.960782 1_555
La15 S43 2.960782 1_655
La15 S4 2.993268 1_655
La15 S4 2.993268 1_555
La15 S15 3.242882 1_555
La15 S27 3.416281 1_555
Cd0 S22 2.622411 1_555
Cd0 S36 2.629246 1_555
Cd0 S16 2.664914 1_555
Cd0 S16 2.664914 1_455
Cd0 S24 3.031142 1_455
Cd0 S24 3.031142 1_555
Cd1 S23 2.622411 1_555
Cd1 S37 2.629246 1_555
Cd1 S17 2.664914 1_555
Cd1 S17 2.664914 1_455
Cd1 S25 3.031142 1_455
Cd1 S25 3.031142 1_555
Cd2 S20 2.622411 1_545
Cd2 S38 2.629246 1_555
Cd2 S18 2.664914 1_555
Cd2 S18 2.664914 1_455
Cd2 S26 3.031142 1_455
Cd2 S26 3.031142 1_555
Cd3 S21 2.622411 1_565
Cd3 S39 2.629246 1_555
Cd3 S19 2.664914 1_455
Cd3 S19 2.664914 1_555
Cd3 S27 3.031142 1_455
Cd3 S27 3.031142 1_555
Cd4 S26 2.651071 1_565
Cd4 S20 2.744596 1_555
Cd4 S20 2.744596 1_655
Cd4 S4 2.783131 1_655
Cd4 S4 2.783131 1_555
Cd4 S32 2.841904 1_555
Cd5 S27 2.651071 1_545
Cd5 S21 2.744596 1_555
Cd5 S21 2.744596 1_655
Cd5 S5 2.783131 1_555
Cd5 S5 2.783131 1_655
Cd5 S33 2.841904 1_555
Cd6 S24 2.651071 1_555
Cd6 S22 2.744596 1_555
Cd6 S22 2.744596 1_655
Cd6 S6 2.783131 1_555
Cd6 S6 2.783131 1_655
Cd6 S34 2.841904 1_555
Cd7 S25 2.651071 1_555
Cd7 S23 2.744596 1_655
Cd7 S23 2.744596 1_555
Cd7 S7 2.783131 1_555
Cd7 S7 2.783131 1_655
Cd7 S35 2.841904 1_555
Cd8 S11 2.654879 1_555
Cd8 S43 2.722023 1_555
Cd8 S43 2.722023 1_655
Cd8 S32 2.787754 1_555
Cd8 S0 2.832137 1_655
Cd8 S0 2.832137 1_555
Cd9 S10 2.654879 1_555
Cd9 S42 2.722023 1_555
Cd9 S42 2.722023 1_655
Cd9 S33 2.787754 1_555
Cd9 S1 2.832137 1_655
Cd9 S1 2.832137 1_555
Cd10 S9 2.654879 1_554
Cd10 S41 2.722023 1_554
Cd10 S41 2.722023 1_654
Cd10 S34 2.787754 1_555
Cd10 S2 2.832137 1_655
Cd10 S2 2.832137 1_555
Cd11 S8 2.654879 1_556
Cd11 S40 2.722023 1_656
Cd11 S40 2.722023 1_556
Cd11 S35 2.787754 1_555
Cd11 S3 2.832137 1_655
Cd11 S3 2.832137 1_555
Cd12 S12 2.601179 1_455
Cd12 S12 2.601179 1_555
Cd12 S40 2.601779 1_555
Cd12 S48 2.633290 1_555
Cd12 S8 3.129241 1_455
Cd12 S8 3.129241 1_555
Cd13 S13 2.601179 1_555
Cd13 S13 2.601179 1_455
Cd13 S41 2.601779 1_555
Cd13 S49 2.633290 1_555
Cd13 S9 3.129241 1_455
Cd13 S9 3.129241 1_555
Cd14 S14 2.601179 1_555
Cd14 S14 2.601179 1_455
Cd14 S42 2.601779 1_555
Cd14 S50 2.633290 1_555
Cd14 S10 3.129241 1_555
Cd14 S10 3.129241 1_455
Cd15 S15 2.601179 1_455
Cd15 S15 2.601179 1_555
Cd15 S43 2.601779 1_555
Cd15 S51 2.633290 1_555
Cd15 S11 3.129241 1_455
Cd15 S11 3.129241 1_555
In0 S32 2.493473 1_555
In0 S32 2.493473 1_455
In0 S44 2.506582 1_555
In0 S28 2.529276 1_555
In1 S33 2.493473 1_555
In1 S33 2.493473 1_455
In1 S45 2.506582 1_555
In1 S29 2.529276 1_555
In2 S34 2.493473 1_555
In2 S34 2.493473 1_455
In2 S46 2.506582 1_555
In2 S30 2.529276 1_555
In3 S35 2.493473 1_555
In3 S35 2.493473 1_455
In3 S47 2.506582 1_555
In3 S31 2.529276 1_555
In4 S7 2.567338 1_554
In4 S6 2.567338 1_555
In4 S24 2.737068 1_555
In4 S24 2.737068 1_455
In4 S25 2.737068 1_554
In4 S25 2.737068 1_454
In5 S5 2.567338 1_555
In5 S4 2.567338 1_545
In5 S27 2.737068 1_445
In5 S27 2.737068 1_545
In5 S26 2.737068 1_455
In5 S26 2.737068 1_555
In6 S0 2.567110 1_555
In6 S1 2.567110 1_555
In6 S11 2.741047 1_455
In6 S11 2.741047 1_555
In6 S10 2.741047 1_455
In6 S10 2.741047 1_555
In7 S2 2.567110 1_555
In7 S3 2.567110 1_544
In7 S8 2.741047 1_445
In7 S9 2.741047 1_454
In7 S9 2.741047 1_554
In7 S8 2.741047 1_545
