# generated using pymatgen
data_CsCu2F6
_symmetry_space_group_name_H-M   'P 1'
_cell_length_a   7.17809800
_cell_length_b   7.27398695
_cell_length_c   7.17809800
_cell_angle_alpha   59.55711020
_cell_angle_beta   60.86707000
_cell_angle_gamma   59.55711020
_symmetry_Int_Tables_number   1
_chemical_formula_structural   CsCu2F6
_chemical_formula_sum   'Cs2 Cu4 F12'
_cell_volume   264.88790157
_cell_formula_units_Z   2
loop_
 _symmetry_equiv_pos_site_id
 _symmetry_equiv_pos_as_xyz
  1  'x, y, z'
loop_
 _atom_site_type_symbol
 _atom_site_label
 _atom_site_symmetry_multiplicity
 _atom_site_fract_x
 _atom_site_fract_y
 _atom_site_fract_z
 _atom_site_occupancy
  Cs  Cs0  1  0.24997268  0.25002732  0.24997268  1
  Cs  Cs1  1  0.00002732  0.99997268  0.00002732  1
  Cu  Cu0  1  0.12500000  0.62500000  0.62500000  1
  Cu  Cu1  1  0.62500000  0.62500000  0.12500000  1
  Cu  Cu2  1  0.62500000  0.12500000  0.62500000  1
  Cu  Cu3  1  0.62500000  0.62500000  0.62500000  1
  F  F0  1  0.93988322  0.56004537  0.56003107  1
  F  F1  1  0.31011678  0.30995967  0.68996893  1
  F  F2  1  0.68996893  0.68995463  0.31011678  1
  F  F3  1  0.56003107  0.94004033  0.93988322  1
  F  F4  1  0.31011678  0.68995463  0.68996893  1
  F  F5  1  0.93988322  0.94004033  0.56003107  1
  F  F6  1  0.55334753  0.94665247  0.55334753  1
  F  F7  1  0.69665247  0.30334753  0.69665247  1
  F  F8  1  0.30333056  0.69666944  0.30333056  1
  F  F9  1  0.94666944  0.55333056  0.94666944  1
  F  F10  1  0.68996893  0.30995967  0.31011678  1
  F  F11  1  0.56003107  0.56004537  0.93988322  1
loop_
_geom_bond_atom_site_label_1
_geom_bond_atom_site_label_2
_geom_bond_distance
_geom_bond_site_symmetry_2
Cs0 F9 3.037699 1_454
Cs0 F6 3.038417 1_545
Cs0 F0 3.188911 1_455
Cs0 F11 3.188911 1_554
Cs0 F3 3.188911 1_544
Cs0 F5 3.188911 1_445
Cs1 F8 3.037699 1_555
Cs1 F7 3.038417 1_464
Cs1 F4 3.188911 1_554
Cs1 F2 3.188911 1_455
Cs1 F10 3.188911 1_465
Cs1 F1 3.188911 1_564
Cu0 F5 1.915532 1_455
Cu0 F1 1.915532 1_555
Cu0 F0 1.915532 1_455
Cu0 F4 1.915532 1_555
Cu0 F8 1.954565 1_555
Cu0 F9 1.954565 1_455
Cu1 F10 1.915532 1_555
Cu1 F3 1.915532 1_554
Cu1 F11 1.915532 1_554
Cu1 F2 1.915532 1_555
Cu1 F8 1.954565 1_555
Cu1 F9 1.954565 1_554
Cu2 F3 1.914228 1_545
Cu2 F10 1.914228 1_555
Cu2 F5 1.914228 1_545
Cu2 F1 1.914228 1_555
Cu2 F7 1.954973 1_555
Cu2 F6 1.954973 1_545
Cu3 F0 1.914228 1_555
Cu3 F4 1.914228 1_555
Cu3 F11 1.914228 1_555
Cu3 F2 1.914228 1_555
Cu3 F6 1.954973 1_555
Cu3 F7 1.954973 1_555
