# generated using pymatgen
data_MgBiAsO5
_symmetry_space_group_name_H-M   'P 1'
_cell_length_a   7.09421200
_cell_length_b   7.49625400
_cell_length_c   8.97062400
_cell_angle_alpha   90.00000000
_cell_angle_beta   90.00000000
_cell_angle_gamma   90.00000000
_symmetry_Int_Tables_number   1
_chemical_formula_structural   MgBiAsO5
_chemical_formula_sum   'Mg4 Bi4 As4 O20'
_cell_volume   477.05791961
_cell_formula_units_Z   4
loop_
 _symmetry_equiv_pos_site_id
 _symmetry_equiv_pos_as_xyz
  1  'x, y, z'
loop_
 _atom_site_type_symbol
 _atom_site_label
 _atom_site_symmetry_multiplicity
 _atom_site_fract_x
 _atom_site_fract_y
 _atom_site_fract_z
 _atom_site_occupancy
  Mg  Mg0  1  0.58557900  0.19603400  0.56258700  1
  Mg  Mg1  1  0.91442100  0.80396600  0.06258700  1
  Mg  Mg2  1  0.08557900  0.30396600  0.43741300  1
  Mg  Mg3  1  0.41442100  0.69603400  0.93741300  1
  Bi  Bi0  1  0.53158800  0.96242900  0.22652200  1
  Bi  Bi1  1  0.96841200  0.03757100  0.72652200  1
  Bi  Bi2  1  0.03158800  0.53757100  0.77347800  1
  Bi  Bi3  1  0.46841200  0.46242900  0.27347800  1
  As  As0  1  0.10525900  0.77781100  0.40095500  1
  As  As1  1  0.39474100  0.22218900  0.90095500  1
  As  As2  1  0.60525900  0.72218900  0.59904500  1
  As  As3  1  0.89474100  0.27781100  0.09904500  1
  O  O0  1  0.30528400  0.75728100  0.28716900  1
  O  O1  1  0.19471600  0.24271900  0.78716900  1
  O  O2  1  0.80528400  0.74271900  0.71283100  1
  O  O3  1  0.69471600  0.25728100  0.21283100  1
  O  O4  1  0.92605700  0.82867800  0.28206500  1
  O  O5  1  0.57394300  0.17132200  0.78206500  1
  O  O6  1  0.42605700  0.67132200  0.71793500  1
  O  O7  1  0.07394300  0.32867800  0.21793500  1
  O  O8  1  0.09299200  0.57548900  0.49007300  1
  O  O9  1  0.40700800  0.42451100  0.99007300  1
  O  O10  1  0.59299200  0.92451100  0.50992700  1
  O  O11  1  0.90700800  0.07548900  0.00992700  1
  O  O12  1  0.14395800  0.94930200  0.52562700  1
  O  O13  1  0.35604200  0.05069800  0.02562700  1
  O  O14  1  0.64395800  0.55069800  0.47437300  1
  O  O15  1  0.85604200  0.44930200  0.97437300  1
  O  O16  1  0.37266200  0.26635000  0.42830000  1
  O  O17  1  0.12733800  0.73365000  0.92830000  1
  O  O18  1  0.87266200  0.23365000  0.57170000  1
  O  O19  1  0.62733800  0.76635000  0.07170000  1
loop_
_geom_bond_atom_site_label_1
_geom_bond_atom_site_label_2
_geom_bond_distance
_geom_bond_site_symmetry_2
Mg0 O5 1.979272 1_555
Mg0 O16 2.002633 1_555
Mg0 O18 2.057680 1_555
Mg0 O10 2.090166 1_545
Mg1 O4 1.979272 1_555
Mg1 O17 2.002633 1_654
Mg1 O19 2.057680 1_555
Mg1 O11 2.090166 1_565
Mg2 O7 1.979272 1_555
Mg2 O18 2.002633 1_455
Mg2 O16 2.057680 1_555
Mg2 O8 2.090166 1_555
Mg3 O6 1.979272 1_555
Mg3 O19 2.002633 1_556
Mg3 O17 2.057680 1_555
Mg3 O9 2.090166 1_555
Bi0 O19 2.133259 1_555
Bi0 O13 2.288342 1_565
Bi0 O0 2.288756 1_555
Bi0 O3 2.497941 1_565
Bi0 O10 2.594984 1_555
Bi1 O18 2.133259 1_555
Bi1 O12 2.288342 1_645
Bi1 O1 2.288756 1_655
Bi1 O2 2.497941 1_545
Bi1 O11 2.594984 1_556
Bi2 O17 2.133259 1_555
Bi2 O15 2.288342 1_455
Bi2 O2 2.288756 1_455
Bi2 O1 2.497941 1_555
Bi2 O8 2.594984 1_555
Bi3 O16 2.133259 1_555
Bi3 O14 2.288342 1_555
Bi3 O3 2.288756 1_555
Bi3 O0 2.497941 1_555
Bi3 O9 2.594984 1_554
As0 O4 1.702661 1_455
As0 O8 1.716663 1_555
As0 O12 1.725912 1_555
As0 O0 1.754763 1_555
As1 O5 1.702661 1_555
As1 O9 1.716663 1_555
As1 O13 1.725912 1_556
As1 O1 1.754763 1_555
As2 O6 1.702661 1_555
As2 O10 1.716663 1_555
As2 O14 1.725912 1_555
As2 O2 1.754763 1_555
As3 O7 1.702661 1_655
As3 O11 1.716663 1_555
As3 O15 1.725912 1_554
As3 O3 1.754763 1_555
