# generated using pymatgen
data_WO4
_symmetry_space_group_name_H-M   'P 1'
_cell_length_a   5.36397700
_cell_length_b   10.31176200
_cell_length_c   11.79956300
_cell_angle_alpha   90.00000000
_cell_angle_beta   90.00000000
_cell_angle_gamma   90.00000000
_symmetry_Int_Tables_number   1
_chemical_formula_structural   WO4
_chemical_formula_sum   'W8 O32'
_cell_volume   652.65806816
_cell_formula_units_Z   8
loop_
 _symmetry_equiv_pos_site_id
 _symmetry_equiv_pos_as_xyz
  1  'x, y, z'
loop_
 _atom_site_type_symbol
 _atom_site_label
 _atom_site_symmetry_multiplicity
 _atom_site_fract_x
 _atom_site_fract_y
 _atom_site_fract_z
 _atom_site_occupancy
  W  W0  1  0.42536900  0.26456000  0.50000000  1
  W  W1  1  0.57463100  0.73544000  0.50000000  1
  W  W2  1  0.92536900  0.23544000  0.00000000  1
  W  W3  1  0.07463100  0.76456000  0.00000000  1
  W  W4  1  0.50000000  0.00000000  0.65624300  1
  W  W5  1  0.00000000  0.50000000  0.84375700  1
  W  W6  1  0.50000000  0.00000000  0.34375700  1
  W  W7  1  0.00000000  0.50000000  0.15624300  1
  O  O0  1  0.66932500  0.07642400  0.50000000  1
  O  O1  1  0.33067500  0.92357600  0.50000000  1
  O  O2  1  0.16932500  0.42357600  0.00000000  1
  O  O3  1  0.83067500  0.57642400  0.00000000  1
  O  O4  1  0.24395000  0.40695900  0.50000000  1
  O  O5  1  0.75605000  0.59304100  0.50000000  1
  O  O6  1  0.74395000  0.09304100  0.00000000  1
  O  O7  1  0.25605000  0.90695900  0.00000000  1
  O  O8  1  0.30876500  0.16033200  0.62279600  1
  O  O9  1  0.69123500  0.83966800  0.62279600  1
  O  O10  1  0.80876500  0.33966800  0.87720400  1
  O  O11  1  0.19123500  0.66033200  0.87720400  1
  O  O12  1  0.69123500  0.83966800  0.37720400  1
  O  O13  1  0.30876500  0.16033200  0.37720400  1
  O  O14  1  0.19123500  0.66033200  0.12279600  1
  O  O15  1  0.80876500  0.33966800  0.12279600  1
  O  O16  1  0.72107900  0.31939600  0.59084400  1
  O  O17  1  0.27892100  0.68060400  0.59084400  1
  O  O18  1  0.22107900  0.18060400  0.90915600  1
  O  O19  1  0.77892100  0.81939600  0.90915600  1
  O  O20  1  0.27892100  0.68060400  0.40915600  1
  O  O21  1  0.72107900  0.31939600  0.40915600  1
  O  O22  1  0.77892100  0.81939600  0.09084400  1
  O  O23  1  0.22107900  0.18060400  0.09084400  1
  O  O24  1  0.72713400  0.06616100  0.75081900  1
  O  O25  1  0.27286600  0.93383900  0.75081900  1
  O  O26  1  0.22713400  0.43383900  0.74918100  1
  O  O27  1  0.77286600  0.56616100  0.74918100  1
  O  O28  1  0.27286600  0.93383900  0.24918100  1
  O  O29  1  0.72713400  0.06616100  0.24918100  1
  O  O30  1  0.77286600  0.56616100  0.25081900  1
  O  O31  1  0.22713400  0.43383900  0.25081900  1
loop_
_geom_bond_atom_site_label_1
_geom_bond_atom_site_label_2
_geom_bond_distance
_geom_bond_site_symmetry_2
O0 W6 2.201098 1_555
O0 W4 2.201098 1_555
O0 W0 2.340090 1_555
O1 W4 2.201098 1_565
O1 W6 2.201098 1_565
O1 W1 2.340090 1_555
O2 W7 2.201098 1_555
O2 W5 2.201098 1_554
O2 W2 2.340090 1_455
O3 W7 2.201098 1_655
O3 W5 2.201098 1_654
O3 W3 2.340090 1_655
O4 W0 1.761570 1_555
O5 W1 1.761570 1_555
O6 W2 1.761570 1_555
O7 W3 1.761570 1_555
O8 W0 1.909389 1_555
O8 W4 1.985296 1_555
O9 W1 1.909389 1_555
O9 W4 1.985296 1_565
O10 W2 1.909389 1_556
O10 W5 1.985296 1_655
O11 W3 1.909389 1_556
O11 W5 1.985296 1_555
O12 W1 1.909389 1_555
O12 W6 1.985296 1_565
O13 W0 1.909389 1_555
O13 W6 1.985296 1_555
O14 W3 1.909389 1_555
O14 W7 1.985296 1_555
O15 W2 1.909389 1_555
O15 W7 1.985296 1_655
O16 W0 1.996177 1_555
O17 W1 1.996177 1_555
O18 W2 1.996177 1_456
O19 W3 1.996177 1_656
O20 W1 1.996177 1_555
O21 W0 1.996177 1_555
O22 W3 1.996177 1_655
O23 W2 1.996177 1_455
O24 W4 1.787501 1_555
O25 W4 1.787501 1_565
O26 W5 1.787501 1_555
O27 W5 1.787501 1_655
O28 W6 1.787501 1_565
O29 W6 1.787501 1_555
O30 W7 1.787501 1_655
O31 W7 1.787501 1_555
