# generated using pymatgen
data_H14Se2N3O8
_symmetry_space_group_name_H-M   'P 1'
_cell_length_a   6.29409600
_cell_length_b   8.91766646
_cell_length_c   10.51398635
_cell_angle_alpha   102.89638390
_cell_angle_beta   88.95052912
_cell_angle_gamma   110.60213146
_symmetry_Int_Tables_number   1
_chemical_formula_structural   H14Se2N3O8
_chemical_formula_sum   'H28 Se4 N6 O16'
_cell_volume   537.28658072
_cell_formula_units_Z   2
loop_
 _symmetry_equiv_pos_site_id
 _symmetry_equiv_pos_as_xyz
  1  'x, y, z'
loop_
 _atom_site_type_symbol
 _atom_site_label
 _atom_site_symmetry_multiplicity
 _atom_site_fract_x
 _atom_site_fract_y
 _atom_site_fract_z
 _atom_site_occupancy
  H  H0  1  0.56772500  0.40953700  0.65251300  1
  H  H1  1  0.43227500  0.59046300  0.34748700  1
  H  H2  1  0.82057700  0.57850800  0.68176200  1
  H  H3  1  0.17942300  0.42149200  0.31823800  1
  H  H4  1  0.99365600  0.86571000  0.23810200  1
  H  H5  1  0.00634400  0.13429000  0.76189800  1
  H  H6  1  0.43936200  0.97216700  0.33433900  1
  H  H7  1  0.56063800  0.02783300  0.66566100  1
  H  H8  1  0.08402600  0.48184200  0.89086500  1
  H  H9  1  0.91597400  0.51815800  0.10913500  1
  H  H10  1  0.23136600  0.13755500  0.85617600  1
  H  H11  1  0.76863400  0.86244500  0.14382400  1
  H  H12  1  0.87601200  0.41313800  0.41217300  1
  H  H13  1  0.12398800  0.58686200  0.58782700  1
  H  H14  1  0.76583100  0.41867200  0.75823300  1
  H  H15  1  0.23416900  0.58132800  0.24176700  1
  H  H16  1  0.53331800  0.84768300  0.55905500  1
  H  H17  1  0.46668200  0.15231700  0.44094500  1
  H  H18  1  0.00493300  0.96257100  0.80689400  1
  H  H19  1  0.99506700  0.03742900  0.19310600  1
  H  H20  1  0.63452200  0.55891600  0.79619400  1
  H  H21  1  0.36547800  0.44108400  0.20380600  1
  H  H22  1  0.29485100  0.87508600  0.62799200  1
  H  H23  1  0.70514900  0.12491400  0.37200800  1
  H  H24  1  0.49581600  0.85178400  0.71800200  1
  H  H25  1  0.50418400  0.14821600  0.28199800  1
  H  H26  1  0.02160300  0.87971600  0.07664900  1
  H  H27  1  0.97839700  0.12028400  0.92335100  1
  Se  Se0  1  0.88458200  0.71361600  0.44684200  1
  Se  Se1  1  0.11541800  0.28638400  0.55315800  1
  Se  Se2  1  0.36203400  0.73229100  0.96587300  1
  Se  Se3  1  0.63796600  0.26770900  0.03412700  1
  N  N0  1  0.94447100  0.91169800  0.16119400  1
  N  N1  1  0.05552900  0.08830200  0.83880600  1
  N  N2  1  0.47020500  0.90275200  0.64325800  1
  N  N3  1  0.52979500  0.09724800  0.35674200  1
  N  N4  1  0.69984000  0.49250700  0.72278300  1
  N  N5  1  0.30016000  0.50749300  0.27721700  1
  O  O0  1  0.57537800  0.76202600  0.86914300  1
  O  O1  1  0.42462200  0.23797400  0.13085700  1
  O  O2  1  0.22629600  0.51004000  0.94246200  1
  O  O3  1  0.77370400  0.48996000  0.05753800  1
  O  O4  1  0.34649000  0.23429300  0.57721500  1
  O  O5  1  0.65351000  0.76570700  0.42278500  1
  O  O6  1  0.55464900  0.21202200  0.87741000  1
  O  O7  1  0.44535100  0.78797800  0.12259000  1
  O  O8  1  0.09172800  0.80576600  0.34910200  1
  O  O9  1  0.90827200  0.19423400  0.65089800  1
  O  O10  1  0.73809300  0.44143500  0.41645200  1
  O  O11  1  0.26190700  0.55856500  0.58354800  1
  O  O12  1  0.98324200  0.79299500  0.60875400  1
  O  O13  1  0.01675800  0.20700500  0.39124600  1
  O  O14  1  0.15814500  0.79341200  0.92581400  1
  O  O15  1  0.84185500  0.20658800  0.07418600  1
loop_
_geom_bond_atom_site_label_1
_geom_bond_atom_site_label_2
_geom_bond_distance
_geom_bond_site_symmetry_2
H0 N4 1.063142 1_555
H0 O4 1.721819 1_555
H1 N5 1.063142 1_555
H1 O5 1.721819 1_555
H2 N4 1.037870 1_555
H3 N5 1.037870 1_555
H4 N0 1.079081 1_555
H4 O8 1.601836 1_655
H5 N1 1.079081 1_555
H5 O9 1.601836 1_455
H6 N3 1.031732 1_565
H7 N2 1.031732 1_545
H8 O2 0.978680 1_555
H9 O3 0.978680 1_555
H10 N1 1.039535 1_555
H11 N0 1.039535 1_555
H12 O10 0.983319 1_555
H13 O11 0.983319 1_555
H14 N4 1.025992 1_555
H15 N5 1.025992 1_555
H16 N2 1.055023 1_555
H16 O5 1.743965 1_555
H17 N3 1.055023 1_555
H17 O4 1.743965 1_555
H18 N1 1.027543 1_565
H19 N0 1.027543 1_545
H20 N4 1.034967 1_555
H21 N5 1.034967 1_555
H22 N2 1.049740 1_555
H23 N3 1.049740 1_555
H24 N2 1.032367 1_555
H25 N3 1.032367 1_555
H26 N0 1.037135 1_455
H27 N1 1.037135 1_655
O0 Se2 1.651527 1_555
O1 Se3 1.651527 1_555
O2 Se2 1.821250 1_555
O3 Se3 1.821250 1_555
O4 Se1 1.713592 1_555
O5 Se0 1.713592 1_555
O6 Se3 1.649159 1_556
O7 Se2 1.649159 1_554
O8 Se0 1.733518 1_455
O9 Se1 1.733518 1_655
O10 Se0 2.221093 1_555
O11 Se1 2.221093 1_555
O12 Se0 1.725146 1_555
O13 Se1 1.725146 1_555
O14 Se2 1.654043 1_555
O15 Se3 1.654043 1_555
