# generated using pymatgen
data_Hf(Ni2P)2
_symmetry_space_group_name_H-M   'P 1'
_cell_length_a   3.52226093
_cell_length_b   6.87112868
_cell_length_c   6.87112868
_cell_angle_alpha   90.00000000
_cell_angle_beta   90.00000000
_cell_angle_gamma   90.00000000
_symmetry_Int_Tables_number   1
_chemical_formula_structural   Hf(Ni2P)2
_chemical_formula_sum   'Hf2 Ni8 P4'
_cell_volume   166.29442482
_cell_formula_units_Z   2
loop_
 _symmetry_equiv_pos_site_id
 _symmetry_equiv_pos_as_xyz
  1  'x, y, z'
loop_
 _atom_site_type_symbol
 _atom_site_label
 _atom_site_symmetry_multiplicity
 _atom_site_fract_x
 _atom_site_fract_y
 _atom_site_fract_z
 _atom_site_occupancy
  Hf  Hf0  1  -0.00000000  0.50000000  0.50000000  1
  Hf  Hf1  1  0.50000000  0.00000000  0.00000000  1
  Ni  Ni0  1  0.50000000  0.16755830  0.58332117  1
  Ni  Ni1  1  0.50000000  0.83244170  0.41667883  1
  Ni  Ni2  1  0.00000000  0.33244170  0.08332117  1
  Ni  Ni3  1  0.00000000  0.66755830  0.91667883  1
  Ni  Ni4  1  0.50000000  0.58332117  0.16755830  1
  Ni  Ni5  1  0.50000000  0.41667883  0.83244170  1
  Ni  Ni6  1  -0.00000000  0.08332117  0.33244170  1
  Ni  Ni7  1  -0.00000000  0.91667883  0.66755830  1
  P  P0  1  0.50000000  0.71906569  0.71906569  1
  P  P1  1  0.50000000  0.28093431  0.28093431  1
  P  P2  1  -0.00000000  0.78093431  0.21906569  1
  P  P3  1  -0.00000000  0.21906569  0.78093431  1
loop_
_geom_bond_atom_site_label_1
_geom_bond_atom_site_label_2
_geom_bond_distance
_geom_bond_site_symmetry_2
Hf0 P2 2.729907 1_555
Hf0 P3 2.729907 1_555
Hf0 P0 2.762790 1_555
Hf0 P1 2.762790 1_455
Hf0 P1 2.762790 1_555
Hf0 P0 2.762790 1_455
Hf0 Ni1 2.940603 1_455
Hf0 Ni1 2.940603 1_555
Hf0 Ni5 2.940603 1_455
Hf0 Ni5 2.940603 1_555
Hf0 Ni0 2.940603 1_455
Hf0 Ni0 2.940603 1_555
Hf0 Ni4 2.940603 1_455
Hf0 Ni4 2.940603 1_555
Hf0 Ni2 3.085871 1_555
Hf0 Ni3 3.085871 1_555
Hf0 Ni6 3.085871 1_555
Hf0 Ni7 3.085871 1_555
Hf1 P0 2.729907 1_544
Hf1 P1 2.729907 1_555
Hf1 P3 2.762790 1_554
Hf1 P2 2.762790 1_545
Hf1 P3 2.762790 1_654
Hf1 P2 2.762790 1_645
Hf1 Ni7 2.940603 1_544
Hf1 Ni3 2.940603 1_644
Hf1 Ni7 2.940603 1_644
Hf1 Ni3 2.940603 1_544
Hf1 Ni6 2.940603 1_555
Hf1 Ni2 2.940603 1_655
Hf1 Ni6 2.940603 1_655
Hf1 Ni2 2.940603 1_555
Hf1 Ni1 3.085871 1_545
Hf1 Ni0 3.085871 1_554
Hf1 Ni5 3.085871 1_554
Hf1 Ni4 3.085871 1_545
Ni0 P1 2.218980 1_555
Ni0 P3 2.251783 1_555
Ni0 P3 2.251783 1_655
Ni1 P0 2.218980 1_555
Ni1 P2 2.251783 1_655
Ni1 P2 2.251783 1_555
Ni2 P3 2.218980 1_554
Ni2 P1 2.251783 1_455
Ni2 P1 2.251783 1_555
Ni3 P2 2.218980 1_556
Ni3 P0 2.251783 1_455
Ni3 P0 2.251783 1_555
Ni4 P1 2.218980 1_555
Ni4 P2 2.251783 1_655
Ni4 P2 2.251783 1_555
Ni5 P0 2.218980 1_555
Ni5 P3 2.251783 1_555
Ni5 P3 2.251783 1_655
Ni6 P2 2.218980 1_545
Ni6 P1 2.251783 1_455
Ni6 P1 2.251783 1_555
Ni7 P3 2.218980 1_565
Ni7 P0 2.251783 1_455
Ni7 P0 2.251783 1_555
