# generated using pymatgen
data_Pr5Sb3
_symmetry_space_group_name_H-M   'P 1'
_cell_length_a   6.57707384
_cell_length_b   9.43478274
_cell_length_c   9.43612539
_cell_angle_alpha   119.99525005
_cell_angle_beta   89.99975278
_cell_angle_gamma   90.00000417
_symmetry_Int_Tables_number   1
_chemical_formula_structural   Pr5Sb3
_chemical_formula_sum   'Pr10 Sb6'
_cell_volume   507.11883554
_cell_formula_units_Z   2
loop_
 _symmetry_equiv_pos_site_id
 _symmetry_equiv_pos_as_xyz
  1  'x, y, z'
loop_
 _atom_site_type_symbol
 _atom_site_label
 _atom_site_symmetry_multiplicity
 _atom_site_fract_x
 _atom_site_fract_y
 _atom_site_fract_z
 _atom_site_occupancy
  Pr  Pr0  1  0.50000608  0.33333419  0.66667432  1
  Pr  Pr1  1  0.50000745  0.66667591  0.33334956  1
  Pr  Pr2  1  -0.00000678  0.66667693  0.33334929  1
  Pr  Pr3  1  -0.00000531  0.33333661  0.66667455  1
  Pr  Pr4  1  0.75000621  0.25242005  0.00001544  1
  Pr  Pr5  1  0.74999968  0.74748707  0.74752223  1
  Pr  Pr6  1  0.74999947  0.99990034  0.25245108  1
  Pr  Pr7  1  0.25000307  0.74759809  0.00001850  1
  Pr  Pr8  1  0.24999663  0.25254764  0.25244829  1
  Pr  Pr9  1  0.24999720  0.00003729  0.74752078  1
  Sb  Sb0  1  0.74999837  0.61516908  0.00002630  1
  Sb  Sb1  1  0.75000260  0.38481422  0.38476312  1
  Sb  Sb2  1  0.74999678  -0.00000782  0.61520077  1
  Sb  Sb3  1  0.24999569  0.38485767  0.00002451  1
  Sb  Sb4  1  0.25000031  0.61520682  0.61519385  1
  Sb  Sb5  1  0.25000056  0.99994792  0.38476540  1
loop_
_geom_bond_atom_site_label_1
_geom_bond_atom_site_label_2
_geom_bond_distance
_geom_bond_site_symmetry_2
Pr0 Sb2 3.362003 1_555
Pr0 Sb4 3.362122 1_555
Pr0 Sb0 3.362374 1_556
Pr0 Sb3 3.362384 1_556
Pr0 Sb1 3.362687 1_555
Pr0 Sb5 3.362697 1_545
Pr1 Sb1 3.361658 1_555
Pr1 Sb5 3.361661 1_555
Pr1 Sb2 3.362112 1_565
Pr1 Sb4 3.362121 1_555
Pr1 Sb0 3.362153 1_555
Pr1 Sb3 3.362249 1_555
Pr2 Sb1 3.361651 1_455
Pr2 Sb5 3.361655 1_555
Pr2 Sb2 3.362120 1_465
Pr2 Sb4 3.362139 1_555
Pr2 Sb0 3.362173 1_455
Pr2 Sb3 3.362208 1_555
Pr3 Sb2 3.362047 1_455
Pr3 Sb4 3.362101 1_555
Pr3 Sb0 3.362365 1_456
Pr3 Sb3 3.362372 1_556
Pr3 Sb1 3.362674 1_455
Pr3 Sb5 3.362700 1_545
Pr4 Sb1 3.194797 1_555
Pr4 Sb2 3.195405 1_554
Pr4 Sb0 3.422407 1_555
Pr4 Sb3 3.517842 1_655
Pr4 Sb3 3.517972 1_555
Pr5 Sb2 3.195100 1_565
Pr5 Sb0 3.195249 1_556
Pr5 Sb1 3.422636 1_555
Pr5 Sb4 3.517538 1_655
Pr5 Sb4 3.517540 1_555
Pr6 Sb0 3.194464 1_555
Pr6 Sb1 3.195892 1_565
Pr6 Sb2 3.422518 1_565
Pr6 Sb5 3.517481 1_555
Pr6 Sb5 3.517504 1_655
Pr7 Sb5 3.194786 1_555
Pr7 Sb4 3.195485 1_554
Pr7 Sb3 3.422405 1_555
Pr7 Sb0 3.517877 1_555
Pr7 Sb0 3.517935 1_455
Pr8 Sb3 3.194479 1_555
Pr8 Sb5 3.195908 1_545
Pr8 Sb4 3.422507 1_555
Pr8 Sb1 3.517452 1_455
Pr8 Sb1 3.517535 1_555
Pr9 Sb4 3.195127 1_545
Pr9 Sb3 3.195239 1_556
Pr9 Sb5 3.422584 1_545
Pr9 Sb2 3.517508 1_555
Pr9 Sb2 3.517523 1_455
