# generated using pymatgen
data_YU(CrSi)4
_symmetry_space_group_name_H-M   'P 1'
_cell_length_a   3.87980000
_cell_length_b   3.87980000
_cell_length_c   10.48523300
_cell_angle_alpha   90.00000000
_cell_angle_beta   90.00000000
_cell_angle_gamma   90.00000000
_symmetry_Int_Tables_number   1
_chemical_formula_structural   YU(CrSi)4
_chemical_formula_sum   'Y1 U1 Cr4 Si4'
_cell_volume   157.83261901
_cell_formula_units_Z   1
loop_
 _symmetry_equiv_pos_site_id
 _symmetry_equiv_pos_as_xyz
  1  'x, y, z'
loop_
 _atom_site_type_symbol
 _atom_site_label
 _atom_site_symmetry_multiplicity
 _atom_site_fract_x
 _atom_site_fract_y
 _atom_site_fract_z
 _atom_site_occupancy
  Y  Y0  1  0.50000000  0.50000000  0.50000000  1
  U  U0  1  0.00000000  0.00000000  0.00000000  1
  Cr  Cr0  1  0.00000000  0.50000000  0.24459100  1
  Cr  Cr1  1  0.50000000  0.00000000  0.75540900  1
  Cr  Cr2  1  0.50000000  0.00000000  0.24459100  1
  Cr  Cr3  1  0.00000000  0.50000000  0.75540900  1
  Si  Si0  1  0.50000000  0.50000000  0.11291600  1
  Si  Si1  1  0.00000000  0.00000000  0.61828600  1
  Si  Si2  1  0.00000000  0.00000000  0.38171400  1
  Si  Si3  1  0.50000000  0.50000000  0.88708400  1
loop_
_geom_bond_atom_site_label_1
_geom_bond_atom_site_label_2
_geom_bond_distance
_geom_bond_site_symmetry_2
Cr0 Si0 2.381048 1_455
Cr0 Si0 2.381048 1_555
Cr0 Si2 2.414619 1_565
Cr0 Si2 2.414619 1_555
Cr0 U0 3.215642 1_555
Cr0 U0 3.215642 1_565
Cr1 Si3 2.381048 1_555
Cr1 Si3 2.381048 1_545
Cr1 Si1 2.414619 1_555
Cr1 Si1 2.414619 1_655
Cr1 U0 3.215642 1_656
Cr1 U0 3.215642 1_556
Cr2 Si0 2.381048 1_555
Cr2 Si0 2.381048 1_545
Cr2 Si2 2.414619 1_655
Cr2 Si2 2.414619 1_555
Cr2 U0 3.215642 1_555
Cr2 U0 3.215642 1_655
Cr3 Si3 2.381048 1_555
Cr3 Si3 2.381048 1_455
Cr3 Si1 2.414619 1_565
Cr3 Si1 2.414619 1_555
Cr3 U0 3.215642 1_556
Cr3 U0 3.215642 1_566
Si0 Si3 2.367901 1_554
Si0 U0 2.988003 1_655
Si0 U0 2.988003 1_665
Si0 U0 2.988003 1_555
Si0 U0 2.988003 1_565
Si1 Si2 2.480513 1_555
Si1 Y0 3.010757 1_455
Si1 Y0 3.010757 1_555
Si1 Y0 3.010757 1_445
Si1 Y0 3.010757 1_545
Si2 Y0 3.010757 1_455
Si2 Y0 3.010757 1_555
Si2 Y0 3.010757 1_445
Si2 Y0 3.010757 1_545
Si3 U0 2.988003 1_556
Si3 U0 2.988003 1_566
Si3 U0 2.988003 1_656
Si3 U0 2.988003 1_666
