# generated using pymatgen
data_Ca7(VN3)3
_symmetry_space_group_name_H-M   'P 1'
_cell_length_a   6.07800016
_cell_length_b   9.99816700
_cell_length_c   9.03075519
_cell_angle_alpha   90.00000000
_cell_angle_beta   91.49989182
_cell_angle_gamma   90.00000000
_symmetry_Int_Tables_number   1
_chemical_formula_structural   Ca7(VN3)3
_chemical_formula_sum   'Ca14 V6 N18'
_cell_volume   548.60067411
_cell_formula_units_Z   2
loop_
 _symmetry_equiv_pos_site_id
 _symmetry_equiv_pos_as_xyz
  1  'x, y, z'
loop_
 _atom_site_type_symbol
 _atom_site_label
 _atom_site_symmetry_multiplicity
 _atom_site_fract_x
 _atom_site_fract_y
 _atom_site_fract_z
 _atom_site_occupancy
  Ca  Ca0  1  0.06891300  0.41619700  0.16979100  1
  Ca  Ca1  1  0.93108700  0.91619600  0.83020900  1
  Ca  Ca2  1  0.93108700  0.58380400  0.83020900  1
  Ca  Ca3  1  0.06891300  0.08380400  0.16979100  1
  Ca  Ca4  1  0.24769900  0.91950600  0.51238500  1
  Ca  Ca5  1  0.75230100  0.41950600  0.48761500  1
  Ca  Ca6  1  0.75230100  0.08049400  0.48761500  1
  Ca  Ca7  1  0.24769900  0.58049400  0.51238500  1
  Ca  Ca8  1  0.57773300  0.93145300  0.16190300  1
  Ca  Ca9  1  0.42226700  0.43145300  0.83809700  1
  Ca  Ca10  1  0.42226700  0.06854700  0.83809700  1
  Ca  Ca11  1  0.57773300  0.56854700  0.16190300  1
  Ca  Ca12  1  0.91033100  0.25000000  0.79361900  1
  Ca  Ca13  1  0.08966900  0.75000000  0.20638100  1
  V  V0  1  0.28124400  0.25000000  0.57095600  1
  V  V1  1  0.71875600  0.75000000  0.42904400  1
  V  V2  1  0.45252000  0.25000000  0.28147100  1
  V  V3  1  0.54748000  0.75000000  0.71852900  1
  V  V4  1  0.67345000  0.25000000  0.06401800  1
  V  V5  1  0.32655000  0.75000000  0.93598200  1
  N  N0  1  0.12511400  0.39317400  0.65441700  1
  N  N1  1  0.87488600  0.89317400  0.34558300  1
  N  N2  1  0.87488600  0.60682600  0.34558300  1
  N  N3  1  0.12511400  0.10682600  0.65441700  1
  N  N4  1  0.23142900  0.90438200  0.02200900  1
  N  N5  1  0.76857100  0.40438200  0.97799100  1
  N  N6  1  0.76857100  0.09561800  0.97799100  1
  N  N7  1  0.23142900  0.59561800  0.02200900  1
  N  N8  1  0.36342900  0.39522200  0.37701600  1
  N  N9  1  0.63657100  0.89522200  0.62298400  1
  N  N10  1  0.63657100  0.60477800  0.62298400  1
  N  N11  1  0.36342900  0.10477800  0.37701600  1
  N  N12  1  0.35475000  0.25000000  0.07097800  1
  N  N13  1  0.64525000  0.75000000  0.92902200  1
  N  N14  1  0.54163600  0.25000000  0.66454000  1
  N  N15  1  0.45836400  0.75000000  0.33546000  1
  N  N16  1  0.77448500  0.25000000  0.26895500  1
  N  N17  1  0.22551500  0.75000000  0.73104500  1
loop_
_geom_bond_atom_site_label_1
_geom_bond_atom_site_label_2
_geom_bond_distance
_geom_bond_site_symmetry_2
Ca0 N7 2.458420 1_555
Ca0 N5 2.486155 1_454
Ca0 N8 2.564193 1_555
Ca0 N12 2.580089 1_555
Ca0 N16 2.617140 1_455
Ca0 N2 2.764349 1_455
Ca1 N6 2.458427 1_565
Ca1 N4 2.486155 1_656
Ca1 N9 2.564192 1_555
Ca1 N13 2.580083 1_555
Ca1 N17 2.617134 1_655
Ca1 N3 2.764355 1_665
Ca2 N5 2.458427 1_555
Ca2 N7 2.486155 1_656
Ca2 N10 2.564192 1_555
Ca2 N13 2.580083 1_555
Ca2 N17 2.617134 1_655
Ca2 N0 2.764355 1_655
Ca3 N4 2.458427 1_545
Ca3 N6 2.486155 1_454
Ca3 N11 2.564192 1_555
Ca3 N12 2.580083 1_555
Ca3 N16 2.617134 1_455
Ca3 N1 2.764355 1_445
Ca4 N11 2.337858 1_565
Ca4 N3 2.399575 1_565
Ca4 N9 2.553309 1_555
Ca4 N17 2.608370 1_555
Ca4 N15 2.677986 1_555
Ca4 N1 2.700791 1_455
Ca5 N10 2.337858 1_555
Ca5 N2 2.399575 1_555
Ca5 N8 2.553309 1_555
Ca5 N16 2.608370 1_555
Ca5 N14 2.677986 1_555
Ca5 N0 2.700791 1_655
Ca6 N9 2.337858 1_545
Ca6 N1 2.399575 1_545
Ca6 N11 2.553309 1_555
Ca6 N16 2.608370 1_555
Ca6 N14 2.677986 1_555
Ca6 N3 2.700791 1_655
Ca7 N8 2.337858 1_555
Ca7 N0 2.399575 1_555
Ca7 N10 2.553309 1_555
Ca7 N17 2.608370 1_555
Ca7 N15 2.677986 1_555
Ca7 N2 2.700791 1_455
Ca8 N4 2.441400 1_555
Ca8 N1 2.450130 1_555
Ca8 N15 2.516708 1_555
Ca8 N6 2.626546 1_564
Ca8 N13 2.815650 1_554
Ca8 N11 2.933590 1_565
Ca9 N5 2.441400 1_555
Ca9 N0 2.450130 1_555
Ca9 N14 2.516708 1_555
Ca9 N7 2.626546 1_556
Ca9 N12 2.815650 1_556
Ca9 N10 2.933590 1_555
Ca10 N6 2.441400 1_555
Ca10 N3 2.450130 1_555
Ca10 N14 2.516708 1_555
Ca10 N4 2.626546 1_546
Ca10 N12 2.815650 1_556
Ca10 N9 2.933590 1_545
Ca11 N7 2.441400 1_555
Ca11 N2 2.450130 1_555
Ca11 N15 2.516708 1_555
Ca11 N5 2.626546 1_554
Ca11 N13 2.815650 1_554
Ca11 N8 2.933590 1_555
Ca12 N3 2.327991 1_655
Ca12 N0 2.327991 1_655
Ca12 N6 2.443825 1_555
Ca12 N5 2.443825 1_555
Ca12 N14 2.498764 1_555
Ca13 N1 2.327991 1_455
Ca13 N2 2.327991 1_455
Ca13 N4 2.443825 1_555
Ca13 N7 2.443825 1_555
Ca13 N15 2.498764 1_555
N0 V0 1.885519 1_555
N1 V1 1.885519 1_555
N2 V1 1.885519 1_555
N3 V0 1.885519 1_555
N4 V5 1.828614 1_554
N5 V4 1.828614 1_556
N6 V4 1.828614 1_556
N7 V5 1.828614 1_554
N8 V2 1.780546 1_555
N8 V0 2.339012 1_555
N9 V3 1.780546 1_555
N9 V1 2.339012 1_555
N10 V3 1.780546 1_555
N10 V1 2.339012 1_555
N11 V2 1.780546 1_555
N11 V0 2.339012 1_555
N12 V4 1.939722 1_555
N12 V2 1.976728 1_555
N13 V5 1.939722 1_555
N13 V3 1.976728 1_555
N14 V0 1.774557 1_555
N15 V1 1.774557 1_555
N16 V4 1.934640 1_555
N16 V2 1.963116 1_555
N17 V5 1.934640 1_555
N17 V3 1.963116 1_555
