# generated using pymatgen
data_Cs2As2Se6O
_symmetry_space_group_name_H-M   'P 1'
_cell_length_a   11.86116859
_cell_length_b   11.86116859
_cell_length_c   12.49161185
_cell_angle_alpha   61.47091210
_cell_angle_beta   61.47091210
_cell_angle_gamma   28.25635659
_symmetry_Int_Tables_number   1
_chemical_formula_structural   Cs2As2Se6O
_chemical_formula_sum   'Cs4 As4 Se12 O2'
_cell_volume   724.08953904
_cell_formula_units_Z   2
loop_
 _symmetry_equiv_pos_site_id
 _symmetry_equiv_pos_as_xyz
  1  'x, y, z'
loop_
 _atom_site_type_symbol
 _atom_site_label
 _atom_site_symmetry_multiplicity
 _atom_site_fract_x
 _atom_site_fract_y
 _atom_site_fract_z
 _atom_site_occupancy
  Cs  Cs0  1  0.58131800  0.57267700  0.55342700  1
  Cs  Cs1  1  0.42732300  0.41868200  0.94657300  1
  Cs  Cs2  1  0.41868200  0.42732300  0.44657300  1
  Cs  Cs3  1  0.57267700  0.58131800  0.05342700  1
  As  As0  1  0.14815700  0.21113200  0.21470300  1
  As  As1  1  0.78886800  0.85184400  0.28529700  1
  As  As2  1  0.85184400  0.78886800  0.78529700  1
  As  As3  1  0.21113200  0.14815600  0.71470300  1
  Se  Se0  1  0.73735800  0.63802400  0.18735300  1
  Se  Se1  1  0.36197600  0.26264200  0.31264700  1
  Se  Se2  1  0.26264200  0.36197600  0.81264700  1
  Se  Se3  1  0.63802400  0.73735800  0.68735300  1
  Se  Se4  1  0.19250400  0.19545300  0.39735400  1
  Se  Se5  1  0.80454700  0.80749600  0.10264600  1
  Se  Se6  1  0.80749600  0.80454700  0.60264600  1
  Se  Se7  1  0.19545300  0.19250400  0.89735400  1
  Se  Se8  1  0.01917900  0.09776200  0.31938200  1
  Se  Se9  1  0.90223800  0.98082100  0.18061800  1
  Se  Se10  1  0.98082100  0.90223800  0.68061800  1
  Se  Se11  1  0.09776200  0.01917900  0.81938200  1
  O  O0  1  0.91918400  0.08081600  0.75000000  1
  O  O1  1  0.08081600  0.91918400  0.25000000  1
loop_
_geom_bond_atom_site_label_1
_geom_bond_atom_site_label_2
_geom_bond_distance
_geom_bond_site_symmetry_2
Cs0 O0 3.263983 1_555
Cs0 Se3 3.684740 1_555
Cs0 Se4 3.750234 1_655
Cs0 Se4 3.801691 1_565
Cs0 Se0 3.999305 1_555
Cs1 O0 3.263983 1_555
Cs1 Se2 3.684740 1_555
Cs1 Se5 3.750234 1_546
Cs1 Se5 3.801691 1_456
Cs1 Se1 3.999305 1_556
Cs2 O1 3.263983 1_555
Cs2 Se1 3.684740 1_555
Cs2 Se6 3.750234 1_455
Cs2 Se6 3.801691 1_545
Cs2 Se2 3.999305 1_555
Cs3 O1 3.263983 1_555
Cs3 Se0 3.684740 1_555
Cs3 Se7 3.750234 1_564
Cs3 Se7 3.801691 1_654
Cs3 Se3 3.999305 1_554
As0 Se8 2.427363 1_555
As0 Se0 2.443513 1_455
As0 Se4 2.466929 1_555
As1 Se9 2.427353 1_555
As1 Se1 2.443510 1_565
As1 Se5 2.466936 1_555
As2 Se10 2.427353 1_555
As2 Se2 2.443510 1_655
As2 Se6 2.466936 1_555
As3 Se11 2.427353 1_555
As3 Se3 2.443510 1_545
As3 Se7 2.466936 1_555
Se0 Se5 2.404229 1_555
Se1 Se4 2.404229 1_555
Se2 Se7 2.404229 1_555
Se3 Se6 2.404229 1_555
O0 Se11 2.047547 1_655
O0 Se10 2.047547 1_545
O1 Se8 2.047547 1_565
O1 Se9 2.047547 1_455
