# generated using pymatgen
data_Ho5Tl3
_symmetry_space_group_name_H-M   'P 1'
_cell_length_a   8.01023400
_cell_length_b   8.01023400
_cell_length_c   9.14551171
_cell_angle_alpha   115.97204208
_cell_angle_beta   115.97204208
_cell_angle_gamma   90.00000000
_symmetry_Int_Tables_number   1
_chemical_formula_structural   Ho5Tl3
_chemical_formula_sum   'Ho10 Tl6'
_cell_volume   460.72351106
_cell_formula_units_Z   2
loop_
 _symmetry_equiv_pos_site_id
 _symmetry_equiv_pos_as_xyz
  1  'x, y, z'
loop_
 _atom_site_type_symbol
 _atom_site_label
 _atom_site_symmetry_multiplicity
 _atom_site_fract_x
 _atom_site_fract_y
 _atom_site_fract_z
 _atom_site_occupancy
  Ho  Ho0  1  0.31215800  0.81215800  0.30280500  1
  Ho  Ho1  1  0.68784200  0.18784200  0.69719500  1
  Ho  Ho2  1  0.99064700  0.49064700  0.30280500  1
  Ho  Ho3  1  0.49064700  0.31215800  0.30280500  1
  Ho  Ho4  1  0.18784200  0.00935300  0.69719500  1
  Ho  Ho5  1  0.00935300  0.50935300  0.69719500  1
  Ho  Ho6  1  0.50935300  0.68784200  0.69719500  1
  Ho  Ho7  1  0.81215800  0.99064700  0.30280500  1
  Ho  Ho8  1  0.00000000  0.00000000  0.00000000  1
  Ho  Ho9  1  0.50000000  0.50000000  0.00000000  1
  Tl  Tl0  1  0.63524000  0.13524000  0.00000000  1
  Tl  Tl1  1  0.36476000  0.86476000  0.00000000  1
  Tl  Tl2  1  0.86476000  0.63524000  0.00000000  1
  Tl  Tl3  1  0.13524000  0.36476000  0.00000000  1
  Tl  Tl4  1  0.25000000  0.25000000  0.50000000  1
  Tl  Tl5  1  0.75000000  0.75000000  0.50000000  1
loop_
_geom_bond_atom_site_label_1
_geom_bond_atom_site_label_2
_geom_bond_distance
_geom_bond_site_symmetry_2
Ho0 Tl1 3.173037 1_555
Ho0 Tl3 3.223480 1_555
Ho0 Tl2 3.223480 1_455
Ho0 Tl4 3.323771 1_565
Ho0 Tl5 3.323771 1_555
Ho1 Tl0 3.173037 1_556
Ho1 Tl3 3.223480 1_656
Ho1 Tl2 3.223480 1_556
Ho1 Tl4 3.323771 1_555
Ho1 Tl5 3.323771 1_545
Ho2 Tl0 3.173037 1_555
Ho2 Tl3 3.223480 1_655
Ho2 Tl2 3.223480 1_555
Ho2 Tl4 3.323771 1_655
Ho2 Tl5 3.323771 1_555
Ho3 Tl3 3.173037 1_555
Ho3 Tl0 3.223480 1_555
Ho3 Tl1 3.223480 1_545
Ho3 Tl4 3.323771 1_555
Ho3 Tl5 3.323771 1_555
Ho4 Tl3 3.173037 1_556
Ho4 Tl1 3.223480 1_546
Ho4 Tl0 3.223480 1_556
Ho4 Tl5 3.323771 1_445
Ho4 Tl4 3.323771 1_555
Ho5 Tl1 3.173037 1_556
Ho5 Tl3 3.223480 1_556
Ho5 Tl2 3.223480 1_456
Ho5 Tl4 3.323771 1_555
Ho5 Tl5 3.323771 1_455
Ho6 Tl2 3.173037 1_556
Ho6 Tl1 3.223480 1_556
Ho6 Tl0 3.223480 1_566
Ho6 Tl4 3.323771 1_555
Ho6 Tl5 3.323771 1_555
Ho7 Tl2 3.173037 1_555
Ho7 Tl0 3.223480 1_565
Ho7 Tl1 3.223480 1_555
Ho7 Tl4 3.323771 1_665
Ho7 Tl5 3.323771 1_555
Ho8 Tl2 3.116174 1_445
Ho8 Tl3 3.116174 1_555
Ho8 Tl0 3.116174 1_455
Ho8 Tl1 3.116174 1_545
Ho8 Tl5 3.590211 1_444
Ho8 Tl4 3.590211 1_555
Ho9 Tl1 3.116174 1_555
Ho9 Tl3 3.116174 1_555
Ho9 Tl0 3.116174 1_555
Ho9 Tl2 3.116174 1_555
Ho9 Tl4 3.590211 1_554
Ho9 Tl5 3.590211 1_555
Tl0 Tl1 3.064047 1_545
Tl2 Tl3 3.064047 1_655
