# generated using pymatgen
data_TiAlCr
_symmetry_space_group_name_H-M   'P 1'
_cell_length_a   4.95993949
_cell_length_b   4.98171569
_cell_length_c   8.26897400
_cell_angle_alpha   90.00000000
_cell_angle_beta   90.00000000
_cell_angle_gamma   120.14388398
_symmetry_Int_Tables_number   1
_chemical_formula_structural   TiAlCr
_chemical_formula_sum   'Ti4 Al4 Cr4'
_cell_volume   176.68760190
_cell_formula_units_Z   4
loop_
 _symmetry_equiv_pos_site_id
 _symmetry_equiv_pos_as_xyz
  1  'x, y, z'
loop_
 _atom_site_type_symbol
 _atom_site_label
 _atom_site_symmetry_multiplicity
 _atom_site_fract_x
 _atom_site_fract_y
 _atom_site_fract_z
 _atom_site_occupancy
  Ti  Ti0  1  0.66987500  0.33489200  0.55734200  1
  Ti  Ti1  1  0.34266600  0.67136800  0.42864700  1
  Ti  Ti2  1  0.34266600  0.67136800  0.07135300  1
  Ti  Ti3  1  0.66987500  0.33489200  0.94265800  1
  Al  Al0  1  0.98510100  0.99262400  0.49255500  1
  Al  Al1  1  0.98510100  0.99262400  0.00744500  1
  Al  Al2  1  0.17488800  0.34250700  0.75000000  1
  Al  Al3  1  0.17480600  0.83234600  0.75000000  1
  Cr  Cr0  1  0.66443100  0.83232300  0.75000000  1
  Cr  Cr1  1  0.81960400  0.63974400  0.25000000  1
  Cr  Cr2  1  0.81934000  0.17965800  0.25000000  1
  Cr  Cr3  1  0.35164800  0.17565500  0.25000000  1
loop_
_geom_bond_atom_site_label_1
_geom_bond_atom_site_label_2
_geom_bond_distance
_geom_bond_site_symmetry_2
Ti0 Ti1 3.050365 1_545
Ti0 Ti1 3.050962 1_555
Ti0 Ti1 3.075696 1_655
Ti0 Ti3 3.186168 1_555
Ti1 Ti2 2.954455 1_555
Ti2 Ti3 3.050365 1_564
Ti2 Ti3 3.050962 1_554
Ti2 Ti3 3.075696 1_454
Al0 Cr2 2.517191 1_565
Al0 Cr1 2.517468 1_555
Al0 Cr0 2.534479 1_555
Al0 Cr3 2.548439 1_665
Al0 Al2 2.609242 1_665
Al0 Al3 2.609454 1_655
Al0 Ti1 2.805743 1_555
Al0 Ti0 2.883804 1_565
Al0 Ti0 2.884887 1_555
Al0 Ti1 2.972373 1_665
Al0 Ti1 2.972629 1_655
Al0 Ti0 2.985585 1_665
Al1 Cr2 2.517191 1_565
Al1 Cr1 2.517468 1_555
Al1 Cr0 2.534479 1_554
Al1 Cr3 2.548439 1_665
Al1 Al2 2.609242 1_664
Al1 Al3 2.609454 1_654
Al1 Ti2 2.805743 1_555
Al1 Ti3 2.883804 1_564
Al1 Ti3 2.884887 1_554
Al1 Ti2 2.972373 1_665
Al1 Ti2 2.972629 1_655
Al1 Ti3 2.985585 1_664
Al2 Cr0 2.428841 1_555
Al2 Al3 2.440443 1_555
Al2 Cr0 2.531209 1_445
Al2 Al3 2.541273 1_545
Al2 Ti0 2.942863 1_555
Al2 Ti3 2.942863 1_555
Al2 Ti0 2.952645 1_455
Al2 Ti3 2.952645 1_455
Al2 Ti1 3.011357 1_555
Al2 Ti2 3.011357 1_556
Al3 Cr0 2.428568 1_555
Al3 Cr0 2.531372 1_455
Al3 Ti0 2.942954 1_565
Al3 Ti3 2.942954 1_565
Al3 Ti0 2.952632 1_455
Al3 Ti3 2.952632 1_455
Al3 Ti2 3.011297 1_556
Al3 Ti1 3.011297 1_555
Cr0 Ti0 2.956187 1_565
Cr0 Ti3 2.956187 1_565
Cr0 Ti3 2.957470 1_555
Cr0 Ti0 2.957470 1_555
Cr0 Ti1 2.994284 1_555
Cr0 Ti2 2.994284 1_556
Cr1 Cr2 2.291360 1_555
Cr1 Cr3 2.311470 1_555
Cr1 Cr3 2.648691 1_665
Cr1 Cr2 2.690356 1_565
Cr1 Ti1 2.859599 1_555
Cr1 Ti2 2.859599 1_555
Cr1 Ti0 2.860754 1_555
Cr1 Ti3 2.860754 1_554
Cr1 Ti1 2.920138 1_655
Cr1 Ti2 2.920138 1_655
Cr2 Cr3 2.309774 1_555
Cr2 Cr3 2.650286 1_655
Cr2 Ti2 2.858509 1_545
Cr2 Ti1 2.858509 1_545
Cr2 Ti0 2.860445 1_555
Cr2 Ti3 2.860445 1_554
Cr2 Ti2 2.921326 1_655
Cr2 Ti1 2.921326 1_655
Cr3 Ti3 2.884750 1_554
Cr3 Ti0 2.884750 1_555
Cr3 Ti1 2.895341 1_545
Cr3 Ti2 2.895341 1_545
Cr3 Ti1 2.897088 1_555
Cr3 Ti2 2.897088 1_555
