# generated using pymatgen
data_Ba5(SnS4)2
_symmetry_space_group_name_H-M   'P 1'
_cell_length_a   13.47198434
_cell_length_b   13.47198434
_cell_length_c   12.16417100
_cell_angle_alpha   90.00000000
_cell_angle_beta   90.00000000
_cell_angle_gamma   126.42135624
_symmetry_Int_Tables_number   1
_chemical_formula_structural   Ba5(SnS4)2
_chemical_formula_sum   'Ba20 Sn8 S32'
_cell_volume   1776.49849112
_cell_formula_units_Z   4
loop_
 _symmetry_equiv_pos_site_id
 _symmetry_equiv_pos_as_xyz
  1  'x, y, z'
loop_
 _atom_site_type_symbol
 _atom_site_label
 _atom_site_symmetry_multiplicity
 _atom_site_fract_x
 _atom_site_fract_y
 _atom_site_fract_z
 _atom_site_occupancy
  Ba  Ba0  1  0.39838800  0.59075300  0.66574000  1
  Ba  Ba1  1  0.40924700  0.60161200  0.33426000  1
  Ba  Ba2  1  0.90924700  0.10161200  0.16574000  1
  Ba  Ba3  1  0.89838800  0.09075300  0.83426000  1
  Ba  Ba4  1  0.60161200  0.40924700  0.33426000  1
  Ba  Ba5  1  0.59075300  0.39838800  0.66574000  1
  Ba  Ba6  1  0.09075300  0.89838800  0.83426000  1
  Ba  Ba7  1  0.10161200  0.90924700  0.16574000  1
  Ba  Ba8  1  0.06836400  0.26284800  0.49811200  1
  Ba  Ba9  1  0.73715200  0.93163600  0.50188800  1
  Ba  Ba10  1  0.23715200  0.43163600  0.99811200  1
  Ba  Ba11  1  0.56836400  0.76284800  0.00188800  1
  Ba  Ba12  1  0.93163600  0.73715200  0.50188800  1
  Ba  Ba13  1  0.26284800  0.06836400  0.49811200  1
  Ba  Ba14  1  0.76284800  0.56836400  0.00188800  1
  Ba  Ba15  1  0.43163600  0.23715200  0.99811200  1
  Ba  Ba16  1  0.00727300  0.50727300  0.25000000  1
  Ba  Ba17  1  0.49272700  0.99272700  0.75000000  1
  Ba  Ba18  1  0.99272700  0.49272700  0.75000000  1
  Ba  Ba19  1  0.50727300  0.00727300  0.25000000  1
  Sn  Sn0  1  0.76863200  0.76863200  0.25228000  1
  Sn  Sn1  1  0.23136800  0.23136800  0.74772000  1
  Sn  Sn2  1  0.73136800  0.73136800  0.75228000  1
  Sn  Sn3  1  0.26863200  0.26863200  0.24772000  1
  Sn  Sn4  1  0.74956800  0.25043200  0.00000000  1
  Sn  Sn5  1  0.24956800  0.75043200  0.50000000  1
  Sn  Sn6  1  0.25043200  0.74956800  0.00000000  1
  Sn  Sn7  1  0.75043200  0.24956800  0.50000000  1
  S  S0  1  0.96645900  0.96645900  0.35190800  1
  S  S1  1  0.03354100  0.03354100  0.64809200  1
  S  S2  1  0.53354100  0.53354100  0.85190800  1
  S  S3  1  0.46645900  0.46645900  0.14809200  1
  S  S4  1  0.81208400  0.18443300  0.65082500  1
  S  S5  1  0.81556700  0.18791600  0.34917500  1
  S  S6  1  0.31556700  0.68791600  0.15082500  1
  S  S7  1  0.31208400  0.68443300  0.84917500  1
  S  S8  1  0.18791600  0.81556700  0.34917500  1
  S  S9  1  0.18443300  0.81208400  0.65082500  1
  S  S10  1  0.68443300  0.31208400  0.84917500  1
  S  S11  1  0.68791600  0.31556700  0.15082500  1
  S  S12  1  0.96408200  0.33726100  0.99502000  1
  S  S13  1  0.66273900  0.03591800  0.00498000  1
  S  S14  1  0.16273900  0.53591800  0.49502000  1
  S  S15  1  0.46408200  0.83726100  0.50498000  1
  S  S16  1  0.03591800  0.66273900  0.00498000  1
  S  S17  1  0.33726100  0.96408200  0.99502000  1
  S  S18  1  0.83726100  0.46408200  0.50498000  1
  S  S19  1  0.53591800  0.16273900  0.49502000  1
  S  S20  1  0.86878800  0.63904900  0.25069800  1
  S  S21  1  0.36095100  0.13121200  0.74930200  1
  S  S22  1  0.86095100  0.63121200  0.75069800  1
  S  S23  1  0.36878800  0.13904900  0.24930200  1
  S  S24  1  0.13121200  0.36095100  0.74930200  1
  S  S25  1  0.63904900  0.86878800  0.25069800  1
  S  S26  1  0.13904900  0.36878800  0.24930200  1
  S  S27  1  0.63121200  0.86095100  0.75069800  1
  S  S28  1  0.84844000  0.84844000  0.04535500  1
  S  S29  1  0.15156000  0.15156000  0.95464500  1
  S  S30  1  0.65156000  0.65156000  0.54535500  1
  S  S31  1  0.34844000  0.34844000  0.45464500  1
loop_
_geom_bond_atom_site_label_1
_geom_bond_atom_site_label_2
_geom_bond_distance
_geom_bond_site_symmetry_2
Ba0 S7 3.109002 1_555
Ba0 S24 3.215797 1_555
Ba0 S27 3.255609 1_555
Ba0 S2 3.271705 1_555
Ba0 S30 3.336288 1_555
Ba0 S15 3.485109 1_555
Ba0 S14 3.485960 1_555
Ba1 S6 3.109002 1_555
Ba1 S25 3.215797 1_555
Ba1 S26 3.255609 1_555
Ba1 S3 3.271705 1_555
Ba1 S31 3.336288 1_555
Ba1 S14 3.485109 1_555
Ba1 S15 3.485960 1_555
Ba2 S5 3.109002 1_555
Ba2 S26 3.215797 1_655
Ba2 S25 3.255609 1_545
Ba2 S0 3.271705 1_545
Ba2 S28 3.336288 1_545
Ba2 S13 3.485109 1_555
Ba2 S12 3.485960 1_554
Ba3 S4 3.109002 1_555
Ba3 S27 3.215797 1_545
Ba3 S24 3.255609 1_655
Ba3 S1 3.271705 1_655
Ba3 S29 3.336288 1_655
Ba3 S12 3.485109 1_555
Ba3 S13 3.485960 1_556
Ba4 S11 3.109002 1_555
Ba4 S20 3.215797 1_555
Ba4 S23 3.255609 1_555
Ba4 S3 3.271705 1_555
Ba4 S31 3.336288 1_555
Ba4 S19 3.485109 1_555
Ba4 S18 3.485960 1_555
Ba5 S10 3.109002 1_555
Ba5 S21 3.215797 1_555
Ba5 S22 3.255609 1_555
Ba5 S2 3.271705 1_555
Ba5 S30 3.336288 1_555
Ba5 S18 3.485109 1_555
Ba5 S19 3.485960 1_555
Ba6 S9 3.109002 1_555
Ba6 S22 3.215797 1_455
Ba6 S21 3.255609 1_565
Ba6 S1 3.271705 1_565
Ba6 S29 3.336288 1_565
Ba6 S17 3.485109 1_555
Ba6 S16 3.485960 1_556
Ba7 S8 3.109002 1_555
Ba7 S23 3.215797 1_565
Ba7 S20 3.255609 1_455
Ba7 S0 3.271705 1_455
Ba7 S28 3.336288 1_455
Ba7 S16 3.485109 1_555
Ba7 S17 3.485960 1_554
Ba8 S14 3.097977 1_555
Ba8 S24 3.235899 1_555
Ba8 S26 3.238834 1_555
Ba8 S31 3.267986 1_555
Ba8 S1 3.372067 1_555
Ba8 S5 3.437667 1_455
Ba8 S4 3.486577 1_455
Ba8 S0 3.805524 1_445
Ba9 S15 3.097977 1_555
Ba9 S25 3.235899 1_555
Ba9 S27 3.238834 1_555
Ba9 S30 3.267986 1_555
Ba9 S0 3.372067 1_555
Ba9 S4 3.437667 1_565
Ba9 S5 3.486577 1_565
Ba9 S1 3.805524 1_665
Ba10 S12 3.097977 1_455
Ba10 S26 3.235899 1_556
Ba10 S24 3.238834 1_555
Ba10 S29 3.267986 1_555
Ba10 S3 3.372067 1_556
Ba10 S7 3.437667 1_555
Ba10 S6 3.486577 1_556
Ba10 S2 3.805524 1_555
Ba11 S13 3.097977 1_565
Ba11 S27 3.235899 1_554
Ba11 S25 3.238834 1_555
Ba11 S28 3.267986 1_555
Ba11 S2 3.372067 1_554
Ba11 S6 3.437667 1_555
Ba11 S7 3.486577 1_554
Ba11 S3 3.805524 1_555
Ba12 S18 3.097977 1_555
Ba12 S20 3.235899 1_555
Ba12 S22 3.238834 1_555
Ba12 S30 3.267986 1_555
Ba12 S0 3.372067 1_555
Ba12 S9 3.437667 1_655
Ba12 S8 3.486577 1_655
Ba12 S1 3.805524 1_665
Ba13 S19 3.097977 1_555
Ba13 S21 3.235899 1_555
Ba13 S23 3.238834 1_555
Ba13 S31 3.267986 1_555
Ba13 S1 3.372067 1_555
Ba13 S8 3.437667 1_545
Ba13 S9 3.486577 1_545
Ba13 S0 3.805524 1_445
Ba14 S16 3.097977 1_655
Ba14 S22 3.235899 1_554
Ba14 S20 3.238834 1_555
Ba14 S28 3.267986 1_555
Ba14 S2 3.372067 1_554
Ba14 S11 3.437667 1_555
Ba14 S10 3.486577 1_554
Ba14 S3 3.805524 1_555
Ba15 S17 3.097977 1_545
Ba15 S23 3.235899 1_556
Ba15 S21 3.238834 1_555
Ba15 S29 3.267986 1_555
Ba15 S3 3.372067 1_556
Ba15 S10 3.437667 1_555
Ba15 S11 3.486577 1_556
Ba15 S2 3.805524 1_555
Ba16 S26 3.250434 1_555
Ba16 S20 3.250434 1_455
Ba16 S16 3.529732 1_555
Ba16 S14 3.529732 1_555
Ba16 S8 3.553287 1_555
Ba16 S6 3.553287 1_555
Ba16 S5 3.666280 1_455
Ba16 S11 3.666280 1_455
Ba16 S12 3.690804 1_454
Ba16 S18 3.690804 1_455
Ba17 S27 3.250434 1_555
Ba17 S21 3.250434 1_565
Ba17 S17 3.529732 1_555
Ba17 S15 3.529732 1_555
Ba17 S7 3.553287 1_555
Ba17 S9 3.553287 1_555
Ba17 S4 3.666280 1_565
Ba17 S10 3.666280 1_565
Ba17 S19 3.690804 1_565
Ba17 S13 3.690804 1_566
Ba18 S22 3.250434 1_555
Ba18 S24 3.250434 1_655
Ba18 S12 3.529732 1_555
Ba18 S18 3.529732 1_555
Ba18 S10 3.553287 1_555
Ba18 S4 3.553287 1_555
Ba18 S9 3.666280 1_655
Ba18 S7 3.666280 1_655
Ba18 S14 3.690804 1_655
Ba18 S16 3.690804 1_656
Ba19 S25 3.250434 1_545
Ba19 S23 3.250434 1_555
Ba19 S13 3.529732 1_555
Ba19 S19 3.529732 1_555
Ba19 S5 3.553287 1_555
Ba19 S11 3.553287 1_555
Ba19 S8 3.666280 1_545
Ba19 S6 3.666280 1_545
Ba19 S17 3.690804 1_544
Ba19 S15 3.690804 1_545
S0 Sn0 2.690764 1_555
S1 Sn1 2.690764 1_555
S2 Sn2 2.690764 1_555
S3 Sn3 2.690764 1_555
S4 Sn7 2.385639 1_555
S5 Sn7 2.385639 1_555
S6 Sn6 2.385639 1_555
S7 Sn6 2.385639 1_556
S8 Sn5 2.385639 1_555
S9 Sn5 2.385639 1_555
S10 Sn4 2.385639 1_556
S11 Sn4 2.385639 1_555
S12 Sn4 2.389464 1_556
S13 Sn4 2.389464 1_555
S14 Sn5 2.389464 1_555
S15 Sn5 2.389464 1_555
S16 Sn6 2.389464 1_555
S17 Sn6 2.389464 1_556
S18 Sn7 2.389464 1_555
S19 Sn7 2.389464 1_555
S20 Sn0 2.768688 1_555
S21 Sn1 2.768688 1_555
S22 Sn2 2.768688 1_555
S23 Sn3 2.768688 1_555
S24 Sn1 2.768688 1_555
S25 Sn0 2.768688 1_555
S26 Sn3 2.768688 1_555
S27 Sn2 2.768688 1_555
S28 Sn0 2.697214 1_555
S29 Sn1 2.697214 1_555
S30 Sn2 2.697214 1_555
S31 Sn3 2.697214 1_555
