# generated using pymatgen
data_LaZnFeCuO6
_symmetry_space_group_name_H-M   'P 1'
_cell_length_a   5.43436500
_cell_length_b   5.23596600
_cell_length_c   9.31474694
_cell_angle_alpha   57.92770650
_cell_angle_beta   90.00000000
_cell_angle_gamma   90.00000000
_symmetry_Int_Tables_number   1
_chemical_formula_structural   LaZnFeCuO6
_chemical_formula_sum   'La2 Zn2 Fe2 Cu2 O12'
_cell_volume   224.59199493
_cell_formula_units_Z   2
loop_
 _symmetry_equiv_pos_site_id
 _symmetry_equiv_pos_as_xyz
  1  'x, y, z'
loop_
 _atom_site_type_symbol
 _atom_site_label
 _atom_site_symmetry_multiplicity
 _atom_site_fract_x
 _atom_site_fract_y
 _atom_site_fract_z
 _atom_site_occupancy
  La  La0  1  0.21421600  0.73252300  0.25396400  1
  La  La1  1  0.78578400  0.73252300  0.75396400  1
  Zn  Zn0  1  0.70503500  0.28031500  0.24845200  1
  Zn  Zn1  1  0.29496500  0.28031500  0.74845200  1
  Fe  Fe0  1  0.74544600  0.00011400  0.00462000  1
  Fe  Fe1  1  0.25455400  0.00011400  0.50462000  1
  Cu  Cu0  1  0.74864300  0.49092400  0.50283700  1
  Cu  Cu1  1  0.25135700  0.49092400  0.00283700  1
  O  O0  1  0.23049700  0.90922200  0.73525700  1
  O  O1  1  0.05021000  0.26509700  0.93573600  1
  O  O2  1  0.04218300  0.63209300  0.55671900  1
  O  O3  1  0.95781700  0.63209300  0.05671900  1
  O  O4  1  0.94979000  0.26509700  0.43573600  1
  O  O5  1  0.76950300  0.90922200  0.23525700  1
  O  O6  1  0.70676300  0.16478300  0.76424900  1
  O  O7  1  0.51140900  0.69276800  0.56130300  1
  O  O8  1  0.50377400  0.33216000  0.93686100  1
  O  O9  1  0.49622600  0.33216000  0.43686100  1
  O  O10  1  0.48859100  0.69276800  0.06130300  1
  O  O11  1  0.29323700  0.16478300  0.26424900  1
loop_
_geom_bond_atom_site_label_1
_geom_bond_atom_site_label_2
_geom_bond_distance
_geom_bond_site_symmetry_2
La0 O11 2.355074 1_565
La0 O9 2.419265 1_555
La0 O10 2.425660 1_555
La0 O4 2.553607 1_455
La0 O5 2.560416 1_455
La0 O3 2.572863 1_455
La0 O2 2.743825 1_555
La0 O1 2.928950 1_564
La1 O6 2.355074 1_565
La1 O8 2.419265 1_555
La1 O7 2.425660 1_555
La1 O1 2.553607 1_655
La1 O0 2.560416 1_655
La1 O2 2.572863 1_655
La1 O3 2.743825 1_556
La1 O4 2.928950 1_565
Fe0 O6 1.936639 1_554
Fe0 O5 1.942450 1_545
Fe0 O10 1.978515 1_545
Fe0 O8 1.995130 1_554
Fe0 O1 2.033293 1_654
Fe0 O3 2.070626 1_545
Fe1 O11 1.936639 1_555
Fe1 O0 1.942450 1_545
Fe1 O7 1.978515 1_545
Fe1 O9 1.995130 1_555
Fe1 O4 2.033293 1_455
Fe1 O2 2.070626 1_545
Cu0 O9 1.868920 1_555
Cu0 O7 1.920109 1_555
Cu0 O2 1.933106 1_655
Cu0 O4 1.941267 1_555
Cu0 O6 2.116890 1_555
Cu0 O5 2.285782 1_555
Cu1 O8 1.868920 1_554
Cu1 O10 1.920109 1_555
Cu1 O3 1.933106 1_455
Cu1 O1 1.941267 1_554
Cu1 O11 2.116890 1_555
Cu1 O0 2.285782 1_554
O0 Zn1 2.041281 1_565
O1 Zn1 2.161286 1_555
O2 Zn1 2.230663 1_555
O3 Zn0 2.230663 1_555
O4 Zn0 2.161286 1_555
O5 Zn0 2.041281 1_565
O6 Zn1 2.302406 1_555
O7 Zn1 2.255713 1_555
O8 Zn1 2.224237 1_555
O9 Zn0 2.224237 1_555
O10 Zn0 2.255713 1_555
O11 Zn0 2.302406 1_555
