# generated using pymatgen
data_Lu2InNi2
_symmetry_space_group_name_H-M   'P 1'
_cell_length_a   3.44271271
_cell_length_b   7.23597151
_cell_length_c   7.23597151
_cell_angle_alpha   90.00000000
_cell_angle_beta   90.00000000
_cell_angle_gamma   90.00000000
_symmetry_Int_Tables_number   1
_chemical_formula_structural   Lu2InNi2
_chemical_formula_sum   'Lu4 In2 Ni4'
_cell_volume   180.25797146
_cell_formula_units_Z   2
loop_
 _symmetry_equiv_pos_site_id
 _symmetry_equiv_pos_as_xyz
  1  'x, y, z'
loop_
 _atom_site_type_symbol
 _atom_site_label
 _atom_site_symmetry_multiplicity
 _atom_site_fract_x
 _atom_site_fract_y
 _atom_site_fract_z
 _atom_site_occupancy
  Lu  Lu0  1  0.50000000  0.17270805  0.67270805  1
  Lu  Lu1  1  0.50000000  0.82729195  0.32729195  1
  Lu  Lu2  1  0.50000000  0.32729195  0.17270805  1
  Lu  Lu3  1  0.50000000  0.67270805  0.82729195  1
  In  In0  1  -0.00000000  0.50000000  0.50000000  1
  In  In1  1  0.00000000  0.00000000  -0.00000000  1
  Ni  Ni0  1  0.00000000  0.62053217  0.12053217  1
  Ni  Ni1  1  -0.00000000  0.37946783  0.87946783  1
  Ni  Ni2  1  -0.00000000  0.87946783  0.62053217  1
  Ni  Ni3  1  0.00000000  0.12053217  0.37946783  1
loop_
_geom_bond_atom_site_label_1
_geom_bond_atom_site_label_2
_geom_bond_distance
_geom_bond_site_symmetry_2
Lu0 Ni1 2.727590 1_655
Lu0 Ni1 2.727590 1_555
Lu0 Ni3 2.758255 1_555
Lu0 Ni3 2.758255 1_655
Lu0 Ni2 2.758255 1_645
Lu0 Ni2 2.758255 1_545
Lu1 Ni0 2.727590 1_655
Lu1 Ni0 2.727590 1_555
Lu1 Ni3 2.758255 1_665
Lu1 Ni3 2.758255 1_565
Lu1 Ni2 2.758255 1_555
Lu1 Ni2 2.758255 1_655
Lu2 Ni3 2.727590 1_555
Lu2 Ni3 2.727590 1_655
Lu2 Ni0 2.758255 1_655
Lu2 Ni1 2.758255 1_654
Lu2 Ni1 2.758255 1_554
Lu2 Ni0 2.758255 1_555
Lu3 Ni2 2.727590 1_555
Lu3 Ni2 2.727590 1_655
Lu3 Ni1 2.758255 1_655
Lu3 Ni0 2.758255 1_656
Lu3 Ni0 2.758255 1_556
Lu3 Ni1 2.758255 1_555
In0 Ni1 2.881006 1_555
In0 Ni2 2.881006 1_555
In0 Ni3 2.881006 1_555
In0 Ni0 2.881006 1_555
In0 Lu3 3.183327 1_555
In0 Lu1 3.183327 1_455
In0 Lu2 3.183327 1_455
In0 Lu1 3.183327 1_555
In0 Lu0 3.183327 1_455
In0 Lu2 3.183327 1_555
In0 Lu3 3.183327 1_455
In0 Lu0 3.183327 1_555
In1 Ni0 2.881006 1_545
In1 Ni2 2.881006 1_544
In1 Ni3 2.881006 1_555
In1 Ni1 2.881006 1_554
In1 Lu1 3.183327 1_445
In1 Lu2 3.183327 1_455
In1 Lu1 3.183327 1_545
In1 Lu3 3.183327 1_544
In1 Lu0 3.183327 1_454
In1 Lu2 3.183327 1_555
In1 Lu0 3.183327 1_554
In1 Lu3 3.183327 1_444
Ni0 Ni1 2.466862 1_554
Ni2 Ni3 2.466862 1_565
