# generated using pymatgen
data_MgV6(OF5)3
_symmetry_space_group_name_H-M   'P 1'
_cell_length_a   5.28627251
_cell_length_b   13.79161092
_cell_length_c   5.35993840
_cell_angle_alpha   89.82363684
_cell_angle_beta   120.77952458
_cell_angle_gamma   89.86221887
_symmetry_Int_Tables_number   1
_chemical_formula_structural   MgV6(OF5)3
_chemical_formula_sum   'Mg1 V6 O3 F15'
_cell_volume   335.72446766
_cell_formula_units_Z   1
loop_
 _symmetry_equiv_pos_site_id
 _symmetry_equiv_pos_as_xyz
  1  'x, y, z'
loop_
 _atom_site_type_symbol
 _atom_site_label
 _atom_site_symmetry_multiplicity
 _atom_site_fract_x
 _atom_site_fract_y
 _atom_site_fract_z
 _atom_site_occupancy
  Mg  Mg0  1  0.67247009  0.13118657  0.35401078  1
  V  V0  1  0.98868514  0.49946400  0.98352013  1
  V  V1  1  0.96938273  0.99219547  0.98267353  1
  V  V2  1  0.65017525  0.82138052  0.34827655  1
  V  V3  1  0.32883193  0.66607044  0.65727004  1
  V  V4  1  0.68466616  0.35177822  0.36694644  1
  V  V5  1  0.36380727  0.15816605  0.68352007  1
  O  O0  1  0.57486321  0.75225011  0.55726287  1
  O  O1  1  0.75649778  0.41897406  0.67857297  1
  O  O2  1  0.67292057  0.08073552  0.70887380  1
  F  F0  1  0.98946547  0.75325238  0.38869283  1
  F  F1  1  0.39671528  0.75800970  0.97844605  1
  F  F2  1  0.34926993  0.42610443  0.06552418  1
  F  F3  1  0.02647864  0.07969995  0.34201165  1
  F  F4  1  0.33203662  0.91963685  0.25631101  1
  F  F5  1  0.25532411  0.58417566  0.33304088  1
  F  F6  1  0.60710977  0.23273699  0.03597176  1
  F  F7  1  0.99659887  0.23122818  0.59801399  1
  F  F8  1  0.72677039  0.91433810  0.06996216  1
  F  F9  1  0.05995796  0.59251461  0.72971098  1
  F  F10  1  0.42223631  0.23757266  0.39497383  1
  F  F11  1  0.95331325  0.40760242  0.26577987  1
  F  F12  1  0.31058319  0.07822305  0.98841818  1
  F  F13  1  0.92367571  0.91445809  0.64769163  1
  F  F14  1  0.66316438  0.58824297  0.93452381  1
loop_
_geom_bond_atom_site_label_1
_geom_bond_atom_site_label_2
_geom_bond_distance
_geom_bond_site_symmetry_2
Mg0 O2 2.022159 1_555
O0 V2 1.665511 1_555
O0 V3 2.026958 1_555
O1 V4 1.776237 1_555
O1 V0 1.837074 1_555
O2 V5 1.895375 1_555
O2 V1 1.930474 1_545
F0 V2 1.933826 1_555
F0 V3 2.017977 1_655
F1 V2 1.945883 1_556
F1 V3 2.020755 1_555
F2 V4 1.963122 1_555
F2 V0 1.995176 1_454
F3 Mg0 2.031628 1_455
F3 V5 2.093394 1_555
F3 V1 2.162919 1_444
F4 V1 1.982867 1_454
F4 V2 2.011002 1_555
F5 V3 1.941608 1_555
F5 V0 2.044547 1_454
F6 V5 1.952506 1_554
F6 Mg0 2.089729 1_555
F6 V4 2.299428 1_555
F7 V5 2.017604 1_655
F7 Mg0 2.068563 1_555
F7 V4 2.213842 1_555
F8 V1 1.906409 1_554
F8 V2 2.154480 1_555
F9 V3 1.941501 1_555
F9 V0 2.038557 1_455
F10 V5 2.041273 1_555
F10 Mg0 2.059295 1_555
F10 V4 2.156460 1_555
F11 V4 1.922087 1_555
F11 V0 2.051284 1_554
F12 Mg0 2.052306 1_556
F12 V5 2.103921 1_555
F12 V1 2.148387 1_445
F13 V2 1.990122 1_555
F13 V1 2.000169 1_555
F14 V3 1.943473 1_555
F14 V0 2.013611 1_555
