# generated using pymatgen
data_Ce3Ta(Cl3O2)2
_symmetry_space_group_name_H-M   'P 1'
_cell_length_a   3.96200571
_cell_length_b   12.97974672
_cell_length_c   12.97974673
_cell_angle_alpha   120.00000361
_cell_angle_beta   90.00000000
_cell_angle_gamma   90.00000000
_symmetry_Int_Tables_number   1
_chemical_formula_structural   Ce3Ta(Cl3O2)2
_chemical_formula_sum   'Ce6 Ta2 Cl12 O8'
_cell_volume   578.06696250
_cell_formula_units_Z   2
loop_
 _symmetry_equiv_pos_site_id
 _symmetry_equiv_pos_as_xyz
  1  'x, y, z'
loop_
 _atom_site_type_symbol
 _atom_site_label
 _atom_site_symmetry_multiplicity
 _atom_site_fract_x
 _atom_site_fract_y
 _atom_site_fract_z
 _atom_site_occupancy
  Ce  Ce0  1  0.75000000  0.71897196  0.11450396  1
  Ce  Ce1  1  0.25000000  0.28102804  0.88549604  1
  Ce  Ce2  1  0.75000000  0.39553201  0.28102804  1
  Ce  Ce3  1  0.25000000  0.60446799  0.71897196  1
  Ce  Ce4  1  0.75000000  0.88549604  0.60446799  1
  Ce  Ce5  1  0.25000000  0.11450396  0.39553201  1
  Ta  Ta0  1  0.75000000  0.33333300  0.66666700  1
  Ta  Ta1  1  0.25000000  0.66666700  0.33333300  1
  Cl  Cl0  1  0.75000000  0.93082039  0.37231090  1
  Cl  Cl1  1  0.25000000  0.06917961  0.62768910  1
  Cl  Cl2  1  0.75000000  0.44149051  0.06917961  1
  Cl  Cl3  1  0.25000000  0.55850949  0.93082039  1
  Cl  Cl4  1  0.75000000  0.62768910  0.55850949  1
  Cl  Cl5  1  0.25000000  0.37231090  0.44149051  1
  Cl  Cl6  1  0.75000000  0.75078148  0.89354006  1
  Cl  Cl7  1  0.25000000  0.24921852  0.10645994  1
  Cl  Cl8  1  0.75000000  0.14275859  0.24921852  1
  Cl  Cl9  1  0.25000000  0.85724141  0.75078148  1
  Cl  Cl10  1  0.75000000  0.10645994  0.85724141  1
  Cl  Cl11  1  0.25000000  0.89354006  0.14275859  1
  O  O0  1  0.75000000  0.49155390  0.69249019  1
  O  O1  1  0.25000000  0.50844610  0.30750981  1
  O  O2  1  0.75000000  0.20093629  0.50844610  1
  O  O3  1  0.25000000  0.79906371  0.49155390  1
  O  O4  1  0.75000000  0.30750981  0.79906371  1
  O  O5  1  0.25000000  0.69249019  0.20093629  1
  O  O6  1  0.75000000  0.66666700  0.33333300  1
  O  O7  1  0.25000000  0.33333300  0.66666700  1
loop_
_geom_bond_atom_site_label_1
_geom_bond_atom_site_label_2
_geom_bond_distance
_geom_bond_site_symmetry_2
Ce0 O5 2.384686 1_555
Ce0 O5 2.384686 1_655
Ce0 Cl11 2.891707 1_555
Ce0 Cl11 2.891707 1_655
Ce0 Cl3 2.996810 1_554
Ce0 Cl3 2.996810 1_654
Ce0 Cl0 3.091474 1_555
Ce0 Cl6 3.095218 1_554
Ce0 Cl2 3.346500 1_555
Ce1 O4 2.384686 1_455
Ce1 O4 2.384686 1_555
Ce1 Cl10 2.891707 1_555
Ce1 Cl10 2.891707 1_455
Ce1 Cl2 2.996810 1_556
Ce1 Cl2 2.996810 1_456
Ce1 Cl1 3.091474 1_555
Ce1 Cl7 3.095218 1_556
Ce1 Cl3 3.346500 1_555
Ce2 O1 2.384686 1_555
Ce2 O1 2.384686 1_655
Ce2 Cl7 2.891707 1_655
Ce2 Cl7 2.891707 1_555
Ce2 Cl5 2.996810 1_555
Ce2 Cl5 2.996810 1_655
Ce2 Cl2 3.091474 1_555
Ce2 Cl8 3.095218 1_555
Ce2 Cl4 3.346499 1_555
Ce3 O0 2.384686 1_455
Ce3 O0 2.384686 1_555
Ce3 Cl6 2.891707 1_555
Ce3 Cl6 2.891707 1_455
Ce3 Cl4 2.996810 1_455
Ce3 Cl4 2.996810 1_555
Ce3 Cl3 3.091474 1_555
Ce3 Cl9 3.095218 1_555
Ce3 Cl5 3.346499 1_555
Ce4 O3 2.384686 1_655
Ce4 O3 2.384686 1_555
Ce4 Cl9 2.891707 1_655
Ce4 Cl9 2.891707 1_555
Ce4 Cl1 2.996810 1_565
Ce4 Cl1 2.996810 1_665
Ce4 Cl4 3.091474 1_555
Ce4 Cl10 3.095218 1_565
Ce4 Cl0 3.346499 1_555
Ce5 O2 2.384686 1_455
Ce5 O2 2.384686 1_555
Ce5 Cl8 2.891707 1_455
Ce5 Cl8 2.891707 1_555
Ce5 Cl0 2.996810 1_445
Ce5 Cl0 2.996810 1_545
Ce5 Cl5 3.091474 1_555
Ce5 Cl11 3.095218 1_545
Ce5 Cl1 3.346499 1_555
O0 Ta0 1.908284 1_555
O1 Ta1 1.908284 1_555
O2 Ta0 1.908279 1_555
O3 Ta1 1.908279 1_555
O4 Ta0 1.908271 1_555
O5 Ta1 1.908271 1_555
O6 Ta1 1.981003 1_655
O6 Ta1 1.981003 1_555
O7 Ta0 1.981003 1_455
O7 Ta0 1.981003 1_555
