# generated using pymatgen
data_Tm2MgTiO6
_symmetry_space_group_name_H-M   'P 1'
_cell_length_a   5.58375900
_cell_length_b   5.26002700
_cell_length_c   9.23821068
_cell_angle_alpha   56.00872130
_cell_angle_beta   90.00000000
_cell_angle_gamma   90.00000000
_symmetry_Int_Tables_number   1
_chemical_formula_structural   Tm2MgTiO6
_chemical_formula_sum   'Tm4 Mg2 Ti2 O12'
_cell_volume   224.96828438
_cell_formula_units_Z   2
loop_
 _symmetry_equiv_pos_site_id
 _symmetry_equiv_pos_as_xyz
  1  'x, y, z'
loop_
 _atom_site_type_symbol
 _atom_site_label
 _atom_site_symmetry_multiplicity
 _atom_site_fract_x
 _atom_site_fract_y
 _atom_site_fract_z
 _atom_site_occupancy
  Tm  Tm0  1  0.06778500  0.72419300  0.75546200  1
  Tm  Tm1  1  0.93221500  0.27580700  0.24453800  1
  Tm  Tm2  1  0.56778500  0.27580700  0.74453800  1
  Tm  Tm3  1  0.43221500  0.72419300  0.25546200  1
  Mg  Mg0  1  0.50000000  0.50000000  0.00000000  1
  Mg  Mg1  1  0.00000000  0.50000000  0.50000000  1
  Ti  Ti0  1  0.50000000  0.00000000  0.50000000  1
  Ti  Ti1  1  0.00000000  0.00000000  0.00000000  1
  O  O0  1  0.44848800  0.88087300  0.74229100  1
  O  O1  1  0.55151200  0.11912700  0.25770900  1
  O  O2  1  0.94848800  0.11912700  0.75770900  1
  O  O3  1  0.05151200  0.88087300  0.24229100  1
  O  O4  1  0.79662500  0.74621400  0.56903700  1
  O  O5  1  0.20337500  0.25378600  0.43096300  1
  O  O6  1  0.29662500  0.25378600  0.93096300  1
  O  O7  1  0.70337500  0.74621400  0.06903700  1
  O  O8  1  0.31357400  0.64038100  0.55642000  1
  O  O9  1  0.68642600  0.35961900  0.44358000  1
  O  O10  1  0.81357400  0.35961900  0.94358000  1
  O  O11  1  0.18642600  0.64038100  0.05642000  1
loop_
_geom_bond_atom_site_label_1
_geom_bond_atom_site_label_2
_geom_bond_distance
_geom_bond_site_symmetry_2
Mg0 O6 2.072960 1_554
Mg0 O7 2.072960 1_555
Mg0 O11 2.076772 1_555
Mg0 O10 2.076772 1_554
Mg0 O0 2.105071 1_554
Mg0 O1 2.105071 1_555
Mg1 O4 2.072960 1_455
Mg1 O5 2.072960 1_555
Mg1 O8 2.076772 1_555
Mg1 O9 2.076772 1_455
Mg1 O2 2.105071 1_455
Mg1 O3 2.105071 1_555
O0 Ti0 1.979207 1_565
O0 Tm2 2.192672 1_565
O0 Tm0 2.258477 1_555
O1 Ti0 1.979207 1_555
O1 Tm3 2.192672 1_545
O1 Tm1 2.258477 1_555
O2 Ti1 1.979207 1_656
O2 Tm0 2.192672 1_645
O2 Tm2 2.258477 1_555
O3 Ti1 1.979207 1_565
O3 Tm1 2.192672 1_465
O3 Tm3 2.258477 1_555
O4 Ti0 1.995016 1_565
O4 Tm0 2.246981 1_655
O4 Tm2 2.428622 1_555
O4 Tm1 2.825340 1_565
O5 Ti0 1.995016 1_555
O5 Tm1 2.246981 1_455
O5 Tm3 2.428622 1_555
O5 Tm0 2.825340 1_545
O6 Ti1 1.995016 1_556
O6 Tm2 2.246981 1_555
O6 Tm0 2.428622 1_555
O6 Tm3 2.825340 1_546
O7 Ti1 1.995016 1_665
O7 Tm3 2.246981 1_555
O7 Tm1 2.428622 1_555
O7 Tm2 2.825340 1_564
O8 Ti0 1.957299 1_565
O8 Tm2 2.232967 1_555
O8 Tm0 2.522987 1_555
O8 Tm3 2.644398 1_555
O9 Ti0 1.957299 1_555
O9 Tm3 2.232967 1_555
O9 Tm1 2.522987 1_555
O9 Tm2 2.644398 1_555
O10 Ti1 1.957299 1_656
O10 Tm0 2.232967 1_655
O10 Tm2 2.522987 1_555
O10 Tm1 2.644398 1_556
O11 Ti1 1.957299 1_565
O11 Tm1 2.232967 1_455
O11 Tm3 2.522987 1_555
O11 Tm0 2.644398 1_554
