# generated using pymatgen
data_Yb11(Mn2C3)6
_symmetry_space_group_name_H-M   'P 1'
_cell_length_a   8.81486036
_cell_length_b   8.81486036
_cell_length_c   8.81486036
_cell_angle_alpha   109.47122063
_cell_angle_beta   109.47122063
_cell_angle_gamma   109.47122063
_symmetry_Int_Tables_number   1
_chemical_formula_structural   Yb11(Mn2C3)6
_chemical_formula_sum   'Yb11 Mn12 C18'
_cell_volume   527.25950713
_cell_formula_units_Z   1
loop_
 _symmetry_equiv_pos_site_id
 _symmetry_equiv_pos_as_xyz
  1  'x, y, z'
loop_
 _atom_site_type_symbol
 _atom_site_label
 _atom_site_symmetry_multiplicity
 _atom_site_fract_x
 _atom_site_fract_y
 _atom_site_fract_z
 _atom_site_occupancy
  Yb  Yb0  1  0.41184900  0.41184900  0.41184900  1
  Yb  Yb1  1  0.58815100  0.00000000  0.00000000  1
  Yb  Yb2  1  0.00000000  0.58815100  0.00000000  1
  Yb  Yb3  1  0.00000000  0.00000000  0.58815100  1
  Yb  Yb4  1  0.25000000  0.75000000  0.50000000  1
  Yb  Yb5  1  0.75000000  0.25000000  0.50000000  1
  Yb  Yb6  1  0.75000000  0.50000000  0.25000000  1
  Yb  Yb7  1  0.25000000  0.50000000  0.75000000  1
  Yb  Yb8  1  0.50000000  0.25000000  0.75000000  1
  Yb  Yb9  1  0.50000000  0.75000000  0.25000000  1
  Yb  Yb10  1  0.00000000  0.00000000  0.00000000  1
  Mn  Mn0  1  0.84407600  0.65829300  0.65829300  1
  Mn  Mn1  1  0.15592400  0.81421700  0.81421700  1
  Mn  Mn2  1  0.00000000  0.34170700  0.18578300  1
  Mn  Mn3  1  0.65829300  0.65829300  0.84407600  1
  Mn  Mn4  1  0.00000000  0.18578300  0.34170700  1
  Mn  Mn5  1  0.81421700  0.81421700  0.15592400  1
  Mn  Mn6  1  0.34170700  0.18578300  0.00000000  1
  Mn  Mn7  1  0.18578300  0.34170700  0.00000000  1
  Mn  Mn8  1  0.65829300  0.84407600  0.65829300  1
  Mn  Mn9  1  0.18578300  0.00000000  0.34170700  1
  Mn  Mn10  1  0.34170700  0.00000000  0.18578300  1
  Mn  Mn11  1  0.81421700  0.15592400  0.81421700  1
  C  C0  1  0.56718600  0.56718600  0.00000000  1
  C  C1  1  0.43281400  0.43281400  0.00000000  1
  C  C2  1  0.56718600  0.00000000  0.56718600  1
  C  C3  1  0.43281400  0.00000000  0.43281400  1
  C  C4  1  0.00000000  0.56718600  0.56718600  1
  C  C5  1  0.00000000  0.43281400  0.43281400  1
  C  C6  1  0.49639900  0.70928400  0.70928400  1
  C  C7  1  0.50360100  0.21288500  0.21288500  1
  C  C8  1  0.00000000  0.29071600  0.78711500  1
  C  C9  1  0.70928400  0.70928400  0.49639900  1
  C  C10  1  0.00000000  0.78711500  0.29071600  1
  C  C11  1  0.21288500  0.21288500  0.50360100  1
  C  C12  1  0.29071600  0.78711500  0.00000000  1
  C  C13  1  0.78711500  0.29071600  0.00000000  1
  C  C14  1  0.70928400  0.49639900  0.70928400  1
  C  C15  1  0.78711500  0.00000000  0.29071600  1
  C  C16  1  0.29071600  0.00000000  0.78711500  1
  C  C17  1  0.21288500  0.50360100  0.21288500  1
loop_
_geom_bond_atom_site_label_1
_geom_bond_atom_site_label_2
_geom_bond_distance
_geom_bond_site_symmetry_2
Mn0 Yb10 2.909662 1_666
Mn1 Yb10 2.909662 1_566
Mn2 Yb10 2.909662 1_555
Mn3 Yb10 2.909662 1_666
Mn4 Yb10 2.909662 1_555
Mn5 Yb10 2.909662 1_665
Mn6 Yb10 2.909662 1_555
Mn7 Yb10 2.909662 1_555
Mn8 Yb10 2.909662 1_666
Mn9 Yb10 2.909662 1_555
Mn10 Yb10 2.909662 1_555
Mn11 Yb10 2.909662 1_656
C0 C1 1.367709 1_555
C0 Mn5 2.054461 1_555
C0 Mn3 2.054461 1_554
C0 Yb8 2.634920 1_554
C0 Yb6 2.634920 1_555
C0 Yb9 2.634920 1_555
C0 Yb7 2.634920 1_554
C1 Mn6 2.054461 1_555
C1 Mn7 2.054461 1_555
C1 Yb7 2.634920 1_554
C1 Yb8 2.634920 1_554
C1 Yb9 2.634920 1_555
C1 Yb6 2.634920 1_555
C2 C3 1.367709 1_555
C2 Mn11 2.054461 1_555
C2 Mn8 2.054461 1_545
C2 Yb5 2.634920 1_555
C2 Yb9 2.634920 1_545
C2 Yb4 2.634920 1_545
C2 Yb8 2.634920 1_555
C3 Mn9 2.054461 1_555
C3 Mn10 2.054461 1_555
C3 Yb4 2.634920 1_545
C3 Yb8 2.634920 1_555
C3 Yb5 2.634920 1_555
C3 Yb9 2.634920 1_545
C4 C5 1.367709 1_555
C4 Mn1 2.054461 1_555
C4 Mn0 2.054461 1_455
C4 Yb6 2.634920 1_455
C4 Yb7 2.634920 1_555
C4 Yb4 2.634920 1_555
C4 Yb5 2.634920 1_455
C5 Mn4 2.054461 1_555
C5 Mn2 2.054461 1_555
C5 Yb4 2.634920 1_555
C5 Yb5 2.634920 1_455
C5 Yb6 2.634920 1_455
C5 Yb7 2.634920 1_555
C6 Mn3 1.817576 1_555
C6 Mn8 1.817576 1_555
C6 Yb7 2.557234 1_555
C6 Yb4 2.557234 1_555
C6 Yb1 2.578119 1_566
C6 Yb0 2.667491 1_555
C7 Mn6 1.817576 1_555
C7 Mn10 1.817576 1_555
C7 Yb5 2.557234 1_555
C7 Yb6 2.557234 1_555
C7 Yb0 2.578119 1_555
C7 Yb1 2.667491 1_555
C8 Mn7 1.817576 1_556
C8 Mn11 1.817576 1_455
C8 Yb5 2.557234 1_455
C8 Yb7 2.557234 1_555
C8 Yb3 2.578119 1_555
C8 Yb2 2.667491 1_556
C9 Mn0 1.817576 1_555
C9 Mn8 1.817576 1_555
C9 Yb6 2.557234 1_555
C9 Yb9 2.557234 1_555
C9 Yb3 2.578119 1_665
C9 Yb0 2.667491 1_555
C10 Mn5 1.817576 1_455
C10 Mn9 1.817576 1_565
C10 Yb4 2.557234 1_555
C10 Yb6 2.557234 1_455
C10 Yb2 2.578119 1_555
C10 Yb3 2.667491 1_565
C11 Mn9 1.817576 1_555
C11 Mn4 1.817576 1_555
C11 Yb7 2.557234 1_555
C11 Yb8 2.557234 1_555
C11 Yb0 2.578119 1_555
C11 Yb3 2.667491 1_555
C12 Mn1 1.817576 1_554
C12 Mn10 1.817576 1_565
C12 Yb9 2.557234 1_555
C12 Yb7 2.557234 1_554
C12 Yb2 2.578119 1_555
C12 Yb1 2.667491 1_565
C13 Mn11 1.817576 1_554
C13 Mn2 1.817576 1_655
C13 Yb6 2.557234 1_555
C13 Yb8 2.557234 1_554
C13 Yb1 2.578119 1_555
C13 Yb2 2.667491 1_655
C14 Mn3 1.817576 1_555
C14 Mn0 1.817576 1_555
C14 Yb8 2.557234 1_555
C14 Yb5 2.557234 1_555
C14 Yb2 2.578119 1_656
C14 Yb0 2.667491 1_555
C15 Mn5 1.817576 1_545
C15 Mn4 1.817576 1_655
C15 Yb9 2.557234 1_545
C15 Yb5 2.557234 1_555
C15 Yb1 2.578119 1_555
C15 Yb3 2.667491 1_655
C16 Mn6 1.817576 1_556
C16 Mn1 1.817576 1_545
C16 Yb4 2.557234 1_545
C16 Yb8 2.557234 1_555
C16 Yb3 2.578119 1_555
C16 Yb1 2.667491 1_556
C17 Mn2 1.817576 1_555
C17 Mn7 1.817576 1_555
C17 Yb4 2.557234 1_555
C17 Yb9 2.557234 1_555
C17 Yb0 2.578119 1_555
C17 Yb2 2.667491 1_555
