# generated using pymatgen
data_La(CoO)3
_symmetry_space_group_name_H-M   'P 1'
_cell_length_a   6.37461130
_cell_length_b   6.63486179
_cell_length_c   5.40918223
_cell_angle_alpha   64.12261982
_cell_angle_beta   145.77319456
_cell_angle_gamma   93.39804808
_symmetry_Int_Tables_number   1
_chemical_formula_structural   La(CoO)3
_chemical_formula_sum   'La1 Co3 O3'
_cell_volume   92.97353925
_cell_formula_units_Z   1
loop_
 _symmetry_equiv_pos_site_id
 _symmetry_equiv_pos_as_xyz
  1  'x, y, z'
loop_
 _atom_site_type_symbol
 _atom_site_label
 _atom_site_symmetry_multiplicity
 _atom_site_fract_x
 _atom_site_fract_y
 _atom_site_fract_z
 _atom_site_occupancy
  La  La0  1  0.00000000  0.00000000  0.00000000  1
  Co  Co0  1  0.50000000  0.00000000  0.00000000  1
  Co  Co1  1  0.00000000  0.50000000  0.50000000  1
  Co  Co2  1  0.00000000  0.50000000  0.00000000  1
  O  O0  1  0.00000000  0.00000000  0.50000000  1
  O  O1  1  0.50000000  0.50000000  0.00000000  1
  O  O2  1  0.50000000  0.50000000  0.50000000  1
loop_
_geom_bond_atom_site_label_1
_geom_bond_atom_site_label_2
_geom_bond_distance
_geom_bond_site_symmetry_2
La0 O0 2.704591 1_555
La0 O0 2.704591 1_554
La0 O1 2.739235 1_546
La0 O1 2.739235 1_454
La0 O2 2.765095 1_454
La0 O2 2.765095 1_545
Co0 O0 1.794102 1_655
Co0 O0 1.794102 1_554
Co1 O1 1.794102 1_556
Co1 O1 1.794102 1_455
Co2 O2 1.794102 1_555
Co2 O2 1.794102 1_454
