# generated using pymatgen
data_Na3ScI6
_symmetry_space_group_name_H-M   'P 1'
_cell_length_a   8.44496922
_cell_length_b   8.44496922
_cell_length_c   8.44496922
_cell_angle_alpha   60.00000000
_cell_angle_beta   60.00000000
_cell_angle_gamma   60.00000000
_symmetry_Int_Tables_number   1
_chemical_formula_structural   Na3ScI6
_chemical_formula_sum   'Na3 Sc1 I6'
_cell_volume   425.87212494
_cell_formula_units_Z   1
loop_
 _symmetry_equiv_pos_site_id
 _symmetry_equiv_pos_as_xyz
  1  'x, y, z'
loop_
 _atom_site_type_symbol
 _atom_site_label
 _atom_site_symmetry_multiplicity
 _atom_site_fract_x
 _atom_site_fract_y
 _atom_site_fract_z
 _atom_site_occupancy
  Na  Na0  1  0.75000000  0.75000000  0.75000000  1
  Na  Na1  1  0.25000000  0.25000000  0.25000000  1
  Na  Na2  1  0.50000000  0.50000000  0.50000000  1
  Sc  Sc0  1  0.00000000  0.00000000  0.00000000  1
  I  I0  1  0.75914800  0.24085200  0.24085200  1
  I  I1  1  0.24085200  0.24085200  0.75914800  1
  I  I2  1  0.24085200  0.75914800  0.75914800  1
  I  I3  1  0.24085200  0.75914800  0.24085200  1
  I  I4  1  0.75914800  0.24085200  0.75914800  1
  I  I5  1  0.75914800  0.75914800  0.24085200  1
loop_
_geom_bond_atom_site_label_1
_geom_bond_atom_site_label_2
_geom_bond_distance
_geom_bond_site_symmetry_2
I0 Sc0 2.876493 1_655
I0 Na2 3.095002 1_555
I1 Sc0 2.876493 1_556
I1 Na2 3.095002 1_555
I2 Sc0 2.876493 1_566
I2 Na2 3.095002 1_555
I3 Sc0 2.876493 1_565
I3 Na2 3.095002 1_555
I4 Sc0 2.876493 1_656
I4 Na2 3.095002 1_555
I5 Sc0 2.876493 1_665
I5 Na2 3.095002 1_555
