# generated using pymatgen
data_Pb10SO13F2
_symmetry_space_group_name_H-M   'P 1'
_cell_length_a   9.70494700
_cell_length_b   10.58359664
_cell_length_c   11.17605858
_cell_angle_alpha   109.88366069
_cell_angle_beta   90.69485801
_cell_angle_gamma   107.41409218
_symmetry_Int_Tables_number   1
_chemical_formula_structural   Pb10SO13F2
_chemical_formula_sum   'Pb20 S2 O26 F4'
_cell_volume   1021.68446834
_cell_formula_units_Z   2
loop_
 _symmetry_equiv_pos_site_id
 _symmetry_equiv_pos_as_xyz
  1  'x, y, z'
loop_
 _atom_site_type_symbol
 _atom_site_label
 _atom_site_symmetry_multiplicity
 _atom_site_fract_x
 _atom_site_fract_y
 _atom_site_fract_z
 _atom_site_occupancy
  Pb  Pb0  1  0.53563300  0.55405000  0.81635200  1
  Pb  Pb1  1  0.46436700  0.44595000  0.18364800  1
  Pb  Pb2  1  0.65513900  0.95394500  0.90678400  1
  Pb  Pb3  1  0.34486100  0.04605500  0.09321600  1
  Pb  Pb4  1  0.56211100  0.69624300  0.55115300  1
  Pb  Pb5  1  0.43788900  0.30375700  0.44884700  1
  Pb  Pb6  1  0.17178800  0.50342900  0.41386800  1
  Pb  Pb7  1  0.82821200  0.49657100  0.58613200  1
  Pb  Pb8  1  0.58859200  0.83028900  0.17317100  1
  Pb  Pb9  1  0.41140800  0.16971100  0.82682900  1
  Pb  Pb10  1  0.18395200  0.65278900  0.16064100  1
  Pb  Pb11  1  0.81604800  0.34721100  0.83935900  1
  Pb  Pb12  1  0.91910200  0.76150700  0.96311800  1
  Pb  Pb13  1  0.08089800  0.23849300  0.03688200  1
  Pb  Pb14  1  0.27365800  0.75192700  0.75682100  1
  Pb  Pb15  1  0.72634200  0.24807300  0.24317900  1
  Pb  Pb16  1  0.27865800  0.89578500  0.47350800  1
  Pb  Pb17  1  0.72134200  0.10421500  0.52649200  1
  Pb  Pb18  1  0.89483200  0.72840300  0.31258000  1
  Pb  Pb19  1  0.10516800  0.27159700  0.68742000  1
  S  S0  1  0.97243600  0.92515600  0.70577500  1
  S  S1  1  0.02756400  0.07484400  0.29422500  1
  O  O0  1  0.50095300  0.73751600  0.76488000  1
  O  O1  1  0.49904700  0.26248400  0.23512000  1
  O  O2  1  0.40149200  0.48866000  0.39584900  1
  O  O3  1  0.59850800  0.51134000  0.60415100  1
  O  O4  1  0.57583800  0.00766700  0.11735700  1
  O  O5  1  0.42416200  0.99233300  0.88264300  1
  O  O6  1  0.32325400  0.73590200  0.55369300  1
  O  O7  1  0.67674600  0.26409800  0.44630700  1
  O  O8  1  0.68571400  0.75835500  0.97562400  1
  O  O9  1  0.31428600  0.24164500  0.02437600  1
  O  O10  1  0.10166200  0.69462700  0.35372100  1
  O  O11  1  0.89833800  0.30537300  0.64627900  1
  O  O12  1  0.20408700  0.46657500  0.18133000  1
  O  O13  1  0.79591300  0.53342500  0.81867000  1
  O  O14  1  0.85911200  0.81726000  0.74221700  1
  O  O15  1  0.14088800  0.18274000  0.25778300  1
  O  O16  1  0.90038100  0.00079600  0.19070600  1
  O  O17  1  0.09961900  0.99920400  0.80929400  1
  O  O18  1  0.02068500  0.85195500  0.58251400  1
  O  O19  1  0.97931500  0.14804500  0.41748600  1
  O  O20  1  0.90780700  0.03211800  0.69073800  1
  O  O21  1  0.09219300  0.96788200  0.30926200  1
  O  O22  1  0.36302000  0.82791800  0.27504800  1
  O  O23  1  0.63698000  0.17208200  0.72495200  1
  O  O24  1  0.97129500  0.64434600  0.10246100  1
  O  O25  1  0.02870500  0.35565400  0.89753900  1
  F  F0  1  0.34901000  0.66383900  0.01865000  1
  F  F1  1  0.65099000  0.33616100  0.98135000  1
  F  F2  1  0.77200800  0.52006800  0.35221600  1
  F  F3  1  0.22799200  0.47993200  0.64778400  1
loop_
_geom_bond_atom_site_label_1
_geom_bond_atom_site_label_2
_geom_bond_distance
_geom_bond_site_symmetry_2
O0 Pb14 2.259029 1_555
O0 Pb0 2.315336 1_555
O0 Pb2 2.328287 1_555
O0 Pb4 2.393419 1_555
O1 Pb15 2.259029 1_555
O1 Pb1 2.315336 1_555
O1 Pb3 2.328287 1_555
O1 Pb5 2.393419 1_555
O2 Pb6 2.287500 1_555
O2 Pb5 2.345707 1_555
O2 Pb4 2.357933 1_555
O2 Pb1 2.381597 1_555
O3 Pb7 2.287500 1_555
O3 Pb4 2.345707 1_555
O3 Pb5 2.357933 1_555
O3 Pb0 2.381597 1_555
O4 Pb8 2.205093 1_545
O4 Pb2 2.418598 1_544
O4 Pb3 2.422340 1_555
O4 Pb15 2.424169 1_555
O5 Pb9 2.205093 1_565
O5 Pb3 2.418598 1_566
O5 Pb2 2.422340 1_555
O5 Pb14 2.424169 1_555
O6 Pb14 2.286389 1_555
O6 Pb16 2.305251 1_555
O6 Pb6 2.412578 1_555
O6 Pb4 2.475160 1_555
O7 Pb15 2.286389 1_555
O7 Pb17 2.305251 1_555
O7 Pb7 2.412578 1_555
O7 Pb5 2.475160 1_555
O8 Pb12 2.261986 1_555
O8 Pb0 2.323650 1_555
O8 Pb8 2.383075 1_556
O8 Pb2 2.531896 1_555
O9 Pb13 2.261986 1_555
O9 Pb1 2.323650 1_555
O9 Pb9 2.383075 1_554
O9 Pb3 2.531896 1_555
O10 Pb18 2.210713 1_455
O10 Pb16 2.256539 1_555
O10 Pb10 2.256943 1_555
O10 Pb6 2.597754 1_555
O11 Pb19 2.210713 1_655
O11 Pb17 2.256539 1_555
O11 Pb11 2.256943 1_555
O11 Pb7 2.597754 1_555
O12 Pb10 2.124887 1_555
O12 Pb13 2.331852 1_555
O12 Pb6 2.531377 1_555
O12 Pb1 2.600252 1_555
O13 Pb11 2.124887 1_555
O13 Pb12 2.331852 1_555
O13 Pb7 2.531377 1_555
O13 Pb0 2.600252 1_555
O14 S0 1.501648 1_555
O15 S1 1.501648 1_555
O16 S1 1.498603 1_655
O17 S0 1.498603 1_455
O18 S0 1.491305 1_455
O19 S1 1.491305 1_655
O20 S0 1.501671 1_545
O20 Pb19 2.693307 1_655
O21 S1 1.501671 1_565
O21 Pb18 2.693307 1_455
O22 Pb10 2.120488 1_555
O22 Pb16 2.327684 1_555
O22 Pb8 2.477186 1_555
O23 Pb11 2.120488 1_555
O23 Pb17 2.327684 1_555
O23 Pb9 2.477186 1_555
O24 Pb10 2.123133 1_655
O24 Pb18 2.423421 1_555
O24 Pb12 2.426867 1_554
O25 Pb11 2.123133 1_455
O25 Pb19 2.423421 1_555
O25 Pb13 2.426867 1_556
F0 Pb10 2.274579 1_555
F0 Pb8 2.621723 1_555
F1 Pb11 2.274579 1_555
F1 Pb9 2.621723 1_555
F2 Pb18 2.362808 1_555
F2 Pb15 2.608698 1_555
F2 Pb7 2.771741 1_555
F3 Pb19 2.362808 1_555
F3 Pb14 2.608698 1_555
F3 Pb6 2.771741 1_555
