# generated using pymatgen
data_ErSn3
_symmetry_space_group_name_H-M   'P 1'
_cell_length_a   4.67302716
_cell_length_b   4.67302716
_cell_length_c   4.67302716
_cell_angle_alpha   90.00000000
_cell_angle_beta   90.00000000
_cell_angle_gamma   90.00000000
_symmetry_Int_Tables_number   1
_chemical_formula_structural   ErSn3
_chemical_formula_sum   'Er1 Sn3'
_cell_volume   102.04574850
_cell_formula_units_Z   1
loop_
 _symmetry_equiv_pos_site_id
 _symmetry_equiv_pos_as_xyz
  1  'x, y, z'
loop_
 _atom_site_type_symbol
 _atom_site_label
 _atom_site_symmetry_multiplicity
 _atom_site_fract_x
 _atom_site_fract_y
 _atom_site_fract_z
 _atom_site_occupancy
  Er  Er0  1  0.00000000  0.00000000  0.00000000  1
  Sn  Sn0  1  0.50000000  -0.00000000  0.50000000  1
  Sn  Sn1  1  -0.00000000  0.50000000  0.50000000  1
  Sn  Sn2  1  0.50000000  0.50000000  -0.00000000  1
loop_
_geom_bond_atom_site_label_1
_geom_bond_atom_site_label_2
_geom_bond_distance
_geom_bond_site_symmetry_2
Er0 Sn1 3.304329 1_545
Er0 Sn0 3.304329 1_455
Er0 Sn0 3.304329 1_454
Er0 Sn0 3.304329 1_554
Er0 Sn1 3.304329 1_554
Er0 Sn2 3.304329 1_545
Er0 Sn2 3.304329 1_555
Er0 Sn2 3.304329 1_445
Er0 Sn0 3.304329 1_555
Er0 Sn1 3.304329 1_555
Er0 Sn2 3.304329 1_455
Er0 Sn1 3.304329 1_544
Sn0 Sn1 3.304329 1_545
Sn0 Sn1 3.304329 1_655
Sn0 Sn2 3.304329 1_545
Sn0 Sn2 3.304329 1_555
Sn0 Sn1 3.304329 1_645
Sn0 Sn2 3.304329 1_556
Sn0 Sn2 3.304329 1_546
Sn0 Sn1 3.304329 1_555
Sn1 Sn2 3.304329 1_555
Sn1 Sn2 3.304329 1_456
Sn1 Sn2 3.304329 1_556
Sn1 Sn2 3.304329 1_455
