# generated using pymatgen
data_TiBi8W(ClO8)2
_symmetry_space_group_name_H-M   'P 1'
_cell_length_a   14.92657113
_cell_length_b   14.92657113
_cell_length_c   14.92657113
_cell_angle_alpha   158.76336017
_cell_angle_beta   158.23012678
_cell_angle_gamma   30.59647705
_symmetry_Int_Tables_number   1
_chemical_formula_structural   TiBi8W(ClO8)2
_chemical_formula_sum   'Ti1 Bi8 W1 Cl2 O16'
_cell_volume   446.48199197
_cell_formula_units_Z   1
loop_
 _symmetry_equiv_pos_site_id
 _symmetry_equiv_pos_as_xyz
  1  'x, y, z'
loop_
 _atom_site_type_symbol
 _atom_site_label
 _atom_site_symmetry_multiplicity
 _atom_site_fract_x
 _atom_site_fract_y
 _atom_site_fract_z
 _atom_site_occupancy
  Ti  Ti0  1  0.99819500  0.00000000  0.99819500  1
  Bi  Bi0  1  0.67317600  0.67994200  0.99323400  1
  Bi  Bi1  1  0.17378600  0.17993500  0.99385100  1
  Bi  Bi2  1  0.81391600  0.82006500  0.99385100  1
  Bi  Bi3  1  0.31329100  0.32005800  0.99323400  1
  Bi  Bi4  1  0.66069100  0.08850500  0.57218500  1
  Bi  Bi5  1  0.14728600  0.59123300  0.55605300  1
  Bi  Bi6  1  0.96482000  0.40876700  0.55605300  1
  Bi  Bi7  1  0.48368000  0.91149500  0.57218500  1
  W  W0  1  0.47742900  0.50000000  0.97742900  1
  Cl  Cl0  1  0.23883800  0.75056900  0.48827000  1
  Cl  Cl1  1  0.73770100  0.24943100  0.48827000  1
  O  O0  1  0.87891500  0.89342000  0.48889500  1
  O  O1  1  0.37744600  0.39766100  0.48921600  1
  O  O2  1  0.09155500  0.60233900  0.97978500  1
  O  O3  1  0.59547400  0.10658000  0.98549500  1
  O  O4  1  0.09155500  0.11177000  0.48921600  1
  O  O5  1  0.59547400  0.60997900  0.48889500  1
  O  O6  1  0.87891500  0.39002100  0.98549500  1
  O  O7  1  0.37744600  0.88823000  0.97978500  1
  O  O8  1  0.50805000  0.56816900  0.93988100  1
  O  O9  1  0.00962400  0.06724700  0.94237700  1
  O  O10  1  0.87513000  0.93275300  0.94237700  1
  O  O11  1  0.37171200  0.43183100  0.93988100  1
  O  O12  1  0.20731800  0.25641300  0.46373100  1
  O  O13  1  0.69662900  0.75236200  0.44899100  1
  O  O14  1  0.69662900  0.24763800  0.94426700  1
  O  O15  1  0.20731800  0.74358700  0.95090500  1
loop_
_geom_bond_atom_site_label_1
_geom_bond_atom_site_label_2
_geom_bond_distance
_geom_bond_site_symmetry_2
Bi0 O6 2.240495 1_555
Bi0 O0 2.240506 1_556
Bi0 O7 2.254541 1_555
Bi0 O1 2.254541 1_555
Bi1 O1 2.222209 1_556
Bi1 O7 2.222209 1_545
Bi1 O6 2.273750 1_455
Bi1 O0 2.273753 1_445
Bi2 O4 2.222209 1_666
Bi2 O2 2.222209 1_655
Bi2 O5 2.273739 1_555
Bi2 O3 2.273750 1_565
Bi3 O5 2.240499 1_556
Bi3 O3 2.240506 1_555
Bi3 O2 2.254544 1_555
Bi3 O4 2.254547 1_555
Bi4 O9 2.174839 1_655
Bi4 O0 2.253653 1_545
Bi4 O6 2.253666 1_555
Bi5 O7 2.247203 1_555
Bi5 O1 2.247203 1_555
Bi5 O8 2.263415 1_555
Bi5 O0 2.694746 1_455
Bi5 O6 2.694755 1_454
Bi6 O2 2.247203 1_655
Bi6 O4 2.247203 1_655
Bi6 O11 2.263415 1_655
Bi6 O3 2.694755 1_554
Bi6 O5 2.694762 1_555
Bi7 O10 2.174838 1_555
Bi7 O3 2.253676 1_565
Bi7 O5 2.253685 1_555
O8 W0 1.974327 1_555
O9 Ti0 1.961799 1_455
O10 Ti0 1.961799 1_565
O11 W0 1.974327 1_555
O12 Ti0 1.838299 1_454
O12 W0 2.028335 1_555
O13 W0 1.858533 1_554
O13 Ti0 2.178493 1_565
O14 W0 1.858533 1_555
O14 Ti0 2.178493 1_555
O15 Ti0 1.838299 1_465
O15 W0 2.028335 1_555
