# generated using pymatgen
data_Cs3Ho7Se12
_symmetry_space_group_name_H-M   'P 1'
_cell_length_a   4.15573342
_cell_length_b   12.90949515
_cell_length_c   26.35868314
_cell_angle_alpha   90.00000000
_cell_angle_beta   90.00000000
_cell_angle_gamma   90.00000000
_symmetry_Int_Tables_number   1
_chemical_formula_structural   Cs3Ho7Se12
_chemical_formula_sum   'Cs6 Ho14 Se24'
_cell_volume   1414.10171508
_cell_formula_units_Z   2
loop_
 _symmetry_equiv_pos_site_id
 _symmetry_equiv_pos_as_xyz
  1  'x, y, z'
loop_
 _atom_site_type_symbol
 _atom_site_label
 _atom_site_symmetry_multiplicity
 _atom_site_fract_x
 _atom_site_fract_y
 _atom_site_fract_z
 _atom_site_occupancy
  Cs  Cs0  1  0.50000000  0.77192566  0.12939683  1
  Cs  Cs1  1  0.50000000  0.21864551  0.86573654  1
  Cs  Cs2  1  -0.00000000  0.28135449  0.36573654  1
  Cs  Cs3  1  -0.00000000  0.72807434  0.62939683  1
  Cs  Cs4  1  0.50000000  0.05339533  0.47362491  1
  Cs  Cs5  1  -0.00000000  0.44660467  0.97362491  1
  Ho  Ho0  1  0.50000000  0.59140372  0.81481735  1
  Ho  Ho1  1  0.50000000  0.41067410  0.18423528  1
  Ho  Ho2  1  -0.00000000  0.08932590  0.68423528  1
  Ho  Ho3  1  -0.00000000  0.90859628  0.31481735  1
  Ho  Ho4  1  0.50000000  0.71103282  0.41558101  1
  Ho  Ho5  1  0.50000000  0.28925140  0.58595501  1
  Ho  Ho6  1  0.00000000  0.21074860  0.08595501  1
  Ho  Ho7  1  0.00000000  0.78896718  0.91558101  1
  Ho  Ho8  1  0.50000000  0.91892322  0.78837609  1
  Ho  Ho9  1  0.50000000  0.08070774  0.21134701  1
  Ho  Ho10  1  0.00000000  0.41929226  0.71134701  1
  Ho  Ho11  1  -0.00000000  0.58107678  0.28837609  1
  Ho  Ho12  1  0.00000000  0.49929835  0.49983910  1
  Ho  Ho13  1  0.50000000  0.00070165  0.99983910  1
  Se  Se0  1  0.50000000  0.56405050  0.70923477  1
  Se  Se1  1  0.50000000  0.43641410  0.29025017  1
  Se  Se2  1  0.00000000  0.06358590  0.79025017  1
  Se  Se3  1  -0.00000000  0.93594950  0.20923477  1
  Se  Se4  1  0.50000000  0.63848518  0.92014873  1
  Se  Se5  1  0.50000000  0.36193212  0.07947989  1
  Se  Se6  1  0.00000000  0.13806788  0.57947989  1
  Se  Se7  1  0.00000000  0.86151482  0.42014873  1
  Se  Se8  1  0.50000000  0.94310848  0.68084371  1
  Se  Se9  1  0.50000000  0.05730526  0.32066898  1
  Se  Se10  1  -0.00000000  0.44269474  0.82066898  1
  Se  Se11  1  0.00000000  0.55689152  0.18084371  1
  Se  Se12  1  0.50000000  0.74319991  0.30186988  1
  Se  Se13  1  0.50000000  0.25679737  0.69854848  1
  Se  Se14  1  -0.00000000  0.24320263  0.19854848  1
  Se  Se15  1  0.00000000  0.75680009  0.80186988  1
  Se  Se16  1  0.50000000  0.64838631  0.51670809  1
  Se  Se17  1  0.50000000  0.34572731  0.48271471  1
  Se  Se18  1  -0.00000000  0.15427269  0.98271471  1
  Se  Se19  1  -0.00000000  0.85161369  0.01670809  1
  Se  Se20  1  0.50000000  0.93796544  0.89648530  1
  Se  Se21  1  0.50000000  0.06083047  0.10373515  1
  Se  Se22  1  0.00000000  0.43916953  0.60373515  1
  Se  Se23  1  0.00000000  0.56203456  0.39648530  1
loop_
_geom_bond_atom_site_label_1
_geom_bond_atom_site_label_2
_geom_bond_distance
_geom_bond_site_symmetry_2
Cs0 Se3 3.637277 1_555
Cs0 Se3 3.637277 1_655
Cs0 Se11 3.723243 1_655
Cs0 Se11 3.723243 1_555
Cs0 Se19 3.768111 1_655
Cs0 Se19 3.768111 1_555
Cs0 Se21 3.790456 1_565
Cs1 Se2 3.504781 1_655
Cs1 Se2 3.504781 1_555
Cs1 Se20 3.712978 1_545
Cs1 Se10 3.754257 1_655
Cs1 Se10 3.754257 1_555
Cs1 Se18 3.809911 1_555
Cs1 Se18 3.809911 1_655
Cs2 Se1 3.504781 1_455
Cs2 Se1 3.504781 1_555
Cs2 Se23 3.712978 1_555
Cs2 Se9 3.754257 1_555
Cs2 Se9 3.754257 1_455
Cs2 Se17 3.809911 1_555
Cs2 Se17 3.809911 1_455
Cs3 Se0 3.637277 1_455
Cs3 Se0 3.637277 1_555
Cs3 Se8 3.723243 1_555
Cs3 Se8 3.723243 1_455
Cs3 Se16 3.768111 1_555
Cs3 Se16 3.768111 1_455
Cs3 Se22 3.790456 1_555
Cs4 Se7 3.527084 1_545
Cs4 Se7 3.527084 1_645
Cs4 Se6 3.646582 1_555
Cs4 Se6 3.646582 1_655
Cs4 Se17 3.781456 1_555
Cs4 Se9 4.032033 1_555
Cs5 Se4 3.527084 1_555
Cs5 Se4 3.527084 1_455
Cs5 Se5 3.646582 1_556
Cs5 Se5 3.646582 1_456
Cs5 Se18 3.781456 1_555
Cs5 Se10 4.032033 1_555
Ho0 Se0 2.805330 1_555
Ho0 Se10 2.833159 1_555
Ho0 Se10 2.833159 1_655
Ho0 Se4 2.842146 1_555
Ho0 Se15 2.998835 1_555
Ho0 Se15 2.998835 1_655
Ho1 Se11 2.808653 1_555
Ho1 Se11 2.808653 1_655
Ho1 Se1 2.814100 1_555
Ho1 Se5 2.832003 1_555
Ho1 Se14 3.022249 1_655
Ho1 Se14 3.022249 1_555
Ho2 Se8 2.808653 1_445
Ho2 Se8 2.808653 1_545
Ho2 Se2 2.814100 1_555
Ho2 Se6 2.832003 1_555
Ho2 Se13 3.022249 1_555
Ho2 Se13 3.022249 1_455
Ho3 Se3 2.805330 1_555
Ho3 Se9 2.833159 1_565
Ho3 Se9 2.833159 1_465
Ho3 Se7 2.842146 1_555
Ho3 Se12 2.998835 1_555
Ho3 Se12 2.998835 1_455
Ho4 Se16 2.785561 1_555
Ho4 Se7 2.847087 1_555
Ho4 Se7 2.847087 1_655
Ho4 Se23 2.875883 1_655
Ho4 Se23 2.875883 1_555
Ho4 Se12 3.025905 1_555
Ho5 Se17 2.817252 1_555
Ho5 Se6 2.855837 1_655
Ho5 Se6 2.855837 1_555
Ho5 Se22 2.877989 1_655
Ho5 Se22 2.877989 1_555
Ho5 Se13 2.997242 1_555
Ho6 Se18 2.817252 1_554
Ho6 Se5 2.855837 1_555
Ho6 Se5 2.855837 1_455
Ho6 Se21 2.877989 1_555
Ho6 Se21 2.877989 1_455
Ho6 Se14 2.997242 1_555
Ho7 Se19 2.785561 1_556
Ho7 Se4 2.847087 1_455
Ho7 Se4 2.847087 1_555
Ho7 Se20 2.875883 1_555
Ho7 Se20 2.875883 1_455
Ho7 Se15 3.025905 1_555
Ho8 Se2 2.794210 1_565
Ho8 Se2 2.794210 1_665
Ho8 Se8 2.851556 1_555
Ho8 Se20 2.860200 1_555
Ho8 Se15 2.970586 1_655
Ho8 Se15 2.970586 1_555
Ho9 Se3 2.795153 1_645
Ho9 Se3 2.795153 1_545
Ho9 Se21 2.848090 1_555
Ho9 Se9 2.897377 1_555
Ho9 Se14 2.971834 1_555
Ho9 Se14 2.971834 1_655
Ho10 Se0 2.795153 1_455
Ho10 Se0 2.795153 1_555
Ho10 Se22 2.848090 1_555
Ho10 Se10 2.897377 1_555
Ho10 Se13 2.971834 1_455
Ho10 Se13 2.971834 1_555
Ho11 Se1 2.794210 1_455
Ho11 Se1 2.794210 1_555
Ho11 Se11 2.851556 1_555
Ho11 Se23 2.860200 1_555
Ho11 Se12 2.970586 1_555
Ho11 Se12 2.970586 1_455
Ho12 Se23 2.842107 1_555
Ho12 Se22 2.846448 1_555
Ho12 Se16 2.866970 1_455
Ho12 Se16 2.866970 1_555
Ho12 Se17 2.907176 1_555
Ho12 Se17 2.907176 1_455
Ho13 Se20 2.842107 1_545
Ho13 Se21 2.846448 1_556
Ho13 Se19 2.866970 1_646
Ho13 Se19 2.866970 1_546
Ho13 Se18 2.907176 1_655
Ho13 Se18 2.907176 1_555
