# generated using pymatgen
data_Sr3Co2S2O5
_symmetry_space_group_name_H-M   'P 1'
_cell_length_a   11.65835433
_cell_length_b   11.65835433
_cell_length_c   11.65835433
_cell_angle_alpha   160.29366779
_cell_angle_beta   160.29366779
_cell_angle_gamma   28.00988692
_symmetry_Int_Tables_number   1
_chemical_formula_structural   Sr3Co2S2O5
_chemical_formula_sum   'Sr3 Co2 S2 O5'
_cell_volume   180.08908636
_cell_formula_units_Z   1
loop_
 _symmetry_equiv_pos_site_id
 _symmetry_equiv_pos_as_xyz
  1  'x, y, z'
loop_
 _atom_site_type_symbol
 _atom_site_label
 _atom_site_symmetry_multiplicity
 _atom_site_fract_x
 _atom_site_fract_y
 _atom_site_fract_z
 _atom_site_occupancy
  Sr  Sr0  1  0.50000000  0.50000000  0.00000000  1
  Sr  Sr1  1  0.65917500  0.65917500  0.00000000  1
  Sr  Sr2  1  0.34082500  0.34082500  0.00000000  1
  Co  Co0  1  0.08438300  0.08438300  0.00000000  1
  Co  Co1  1  0.91561700  0.91561700  0.00000000  1
  S  S0  1  0.19118400  0.19118400  0.00000000  1
  S  S1  1  0.80881600  0.80881600  0.00000000  1
  O  O0  1  0.58502300  0.08502300  0.50000000  1
  O  O1  1  0.08502300  0.58502300  0.50000000  1
  O  O2  1  0.41497700  0.91497700  0.50000000  1
  O  O3  1  0.91497700  0.41497700  0.50000000  1
  O  O4  1  0.00000000  0.00000000  0.00000000  1
loop_
_geom_bond_atom_site_label_1
_geom_bond_atom_site_label_2
_geom_bond_distance
_geom_bond_site_symmetry_2
Co0 O4 1.909049 1_555
Co0 O1 1.995075 1_555
Co0 O1 1.995075 1_544
Co0 O0 1.995075 1_555
Co0 O0 1.995075 1_454
Co0 S0 2.416225 1_555
Co1 O4 1.909049 1_665
Co1 O3 1.995075 1_565
Co1 O2 1.995075 1_655
Co1 O2 1.995075 1_554
Co1 O3 1.995075 1_554
Co1 S1 2.416225 1_555
S0 Sr1 2.912839 1_444
S0 Sr1 2.912839 1_545
S0 Sr1 2.912839 1_455
S0 Sr1 2.912839 1_556
S0 Sr2 3.385421 1_555
S1 Sr2 2.912839 1_565
S1 Sr2 2.912839 1_666
S1 Sr2 2.912839 1_655
S1 Sr2 2.912839 1_554
S1 Sr1 3.385421 1_555
O0 Sr1 2.606609 1_545
O0 Sr1 2.606609 1_556
O0 Sr0 2.771294 1_545
O0 Sr0 2.771294 1_556
O1 Sr1 2.606609 1_455
O1 Sr1 2.606609 1_556
O1 Sr0 2.771294 1_455
O1 Sr0 2.771294 1_556
O2 Sr2 2.606609 1_555
O2 Sr2 2.606609 1_566
O2 Sr0 2.771294 1_555
O2 Sr0 2.771294 1_566
O3 Sr2 2.606609 1_555
O3 Sr2 2.606609 1_656
O3 Sr0 2.771294 1_555
O3 Sr0 2.771294 1_656
O4 Sr0 2.821387 1_455
O4 Sr0 2.821387 1_556
O4 Sr0 2.821387 1_444
O4 Sr0 2.821387 1_545
