# generated using pymatgen
data_EuC10
_symmetry_space_group_name_H-M   'P 1'
_cell_length_a   10.86186036
_cell_length_b   10.86186036
_cell_length_c   10.86186036
_cell_angle_alpha   109.47122063
_cell_angle_beta   109.47122063
_cell_angle_gamma   109.47122063
_symmetry_Int_Tables_number   1
_chemical_formula_structural   EuC10
_chemical_formula_sum   'Eu6 C60'
_cell_volume   986.48560949
_cell_formula_units_Z   6
loop_
 _symmetry_equiv_pos_site_id
 _symmetry_equiv_pos_as_xyz
  1  'x, y, z'
loop_
 _atom_site_type_symbol
 _atom_site_label
 _atom_site_symmetry_multiplicity
 _atom_site_fract_x
 _atom_site_fract_y
 _atom_site_fract_z
 _atom_site_occupancy
  Eu  Eu0  1  0.37724200  0.50000000  0.87724200  1
  Eu  Eu1  1  0.50000000  0.87724100  0.37724200  1
  Eu  Eu2  1  0.12275800  0.62275800  0.50000000  1
  Eu  Eu3  1  0.50000000  0.12275800  0.62275800  1
  Eu  Eu4  1  0.87724100  0.37724100  0.50000000  1
  Eu  Eu5  1  0.62275800  0.50000000  0.12275800  1
  C  C0  1  0.54356000  0.13634100  0.40721900  1
  C  C1  1  0.86365900  0.40721900  0.27087900  1
  C  C2  1  0.59278100  0.45644000  0.86365900  1
  C  C3  1  0.13634100  0.59278100  0.72912100  1
  C  C4  1  0.40721900  0.27087900  0.86365900  1
  C  C5  1  0.86365900  0.59278100  0.45644000  1
  C  C6  1  0.59278100  0.72912100  0.13634100  1
  C  C7  1  0.40721900  0.54356000  0.13634100  1
  C  C8  1  0.13634100  0.40721900  0.54356000  1
  C  C9  1  0.27087900  0.86365900  0.40721900  1
  C  C10  1  0.45644000  0.86365900  0.59278100  1
  C  C11  1  0.72912100  0.13634100  0.59278100  1
  C  C12  1  0.58090200  0.28043100  0.41476600  1
  C  C13  1  0.71956900  0.30047100  0.13433600  1
  C  C14  1  0.69952900  0.41909800  0.83386500  1
  C  C15  1  0.16613500  0.58523400  0.86566400  1
  C  C16  1  0.30047100  0.13433600  0.71956900  1
  C  C17  1  0.83386500  0.69952900  0.41909800  1
  C  C18  1  0.58523400  0.86566400  0.16613500  1
  C  C19  1  0.41476600  0.58090200  0.28043100  1
  C  C20  1  0.28043100  0.41476600  0.58090200  1
  C  C21  1  0.13433600  0.71956900  0.30047100  1
  C  C22  1  0.41909800  0.83386500  0.69952900  1
  C  C23  1  0.86566400  0.16613500  0.58523400  1
  C  C24  1  0.41909800  0.71956900  0.58523400  1
  C  C25  1  0.28043100  0.69952900  0.86566400  1
  C  C26  1  0.30047100  0.58090200  0.16613500  1
  C  C27  1  0.83386500  0.41476600  0.13433600  1
  C  C28  1  0.69952900  0.86566400  0.28043100  1
  C  C29  1  0.16613500  0.30047100  0.58090200  1
  C  C30  1  0.41476600  0.13433600  0.83386500  1
  C  C31  1  0.58523400  0.41909800  0.71956900  1
  C  C32  1  0.71956900  0.58523400  0.41909800  1
  C  C33  1  0.86566400  0.28043100  0.69952900  1
  C  C34  1  0.58090200  0.16613500  0.30047100  1
  C  C35  1  0.13433600  0.83386500  0.41476600  1
  C  C36  1  0.40986800  0.47911000  0.57275800  1
  C  C37  1  0.52089000  0.93075900  0.09364900  1
  C  C38  1  0.06924100  0.59013200  0.16289000  1
  C  C39  1  0.83711000  0.42724200  0.90635100  1
  C  C40  1  0.93075900  0.09364900  0.52089000  1
  C  C41  1  0.16289000  0.06924100  0.59013200  1
  C  C42  1  0.42724200  0.90635100  0.83711000  1
  C  C43  1  0.57275800  0.40986800  0.47911000  1
  C  C44  1  0.47911000  0.57275800  0.40986800  1
  C  C45  1  0.09364900  0.52089000  0.93075900  1
  C  C46  1  0.59013200  0.16289000  0.06924100  1
  C  C47  1  0.90635100  0.83711000  0.42724200  1
  C  C48  1  0.59013200  0.52089000  0.42724200  1
  C  C49  1  0.47911000  0.06924100  0.90635100  1
  C  C50  1  0.93075900  0.40986800  0.83711000  1
  C  C51  1  0.16289000  0.57275800  0.09364900  1
  C  C52  1  0.06924100  0.90635100  0.47911000  1
  C  C53  1  0.83711000  0.93075900  0.40986800  1
  C  C54  1  0.57275800  0.09364900  0.16289000  1
  C  C55  1  0.42724200  0.59013200  0.52089000  1
  C  C56  1  0.52089000  0.42724200  0.59013200  1
  C  C57  1  0.90635100  0.47911000  0.06924100  1
  C  C58  1  0.40986800  0.83711000  0.93075900  1
  C  C59  1  0.09364900  0.16289000  0.57275800  1
loop_
_geom_bond_atom_site_label_1
_geom_bond_atom_site_label_2
_geom_bond_distance
_geom_bond_site_symmetry_2
C0 C34 1.445619 1_555
C0 C12 1.445623 1_555
C0 Eu3 2.578534 1_555
C0 Eu1 2.578544 1_545
C1 C13 1.445623 1_555
C1 C27 1.445624 1_555
C1 Eu4 2.578530 1_555
C1 Eu2 2.578530 1_655
C2 C31 1.445623 1_555
C2 Eu5 2.578534 1_556
C2 Eu0 2.578534 1_555
C3 Eu2 2.578523 1_555
C3 Eu4 2.578538 1_455
C4 Eu0 2.578523 1_555
C4 Eu5 2.578530 1_556
C5 Eu2 2.578534 1_655
C5 Eu4 2.578541 1_555
C6 Eu5 2.578523 1_555
C6 Eu0 2.578530 1_554
C7 Eu0 2.578534 1_554
C7 Eu5 2.578534 1_555
C8 Eu2 2.578534 1_555
C8 Eu4 2.578541 1_455
C9 Eu1 2.578525 1_555
C9 Eu3 2.578530 1_565
C10 C22 1.445619 1_555
C10 C24 1.445623 1_555
C10 Eu1 2.578530 1_555
C10 Eu3 2.578534 1_565
C11 C33 1.445623 1_555
C11 C23 1.445624 1_555
C11 Eu3 2.578523 1_555
C11 Eu1 2.578535 1_545
C12 C43 1.393547 1_555
C12 C34 1.433517 1_555
C12 Eu4 2.726053 1_555
C13 C46 1.393543 1_555
C13 C27 1.433517 1_555
C13 Eu5 2.726063 1_555
C14 C39 1.393543 1_555
C14 C31 1.433517 1_555
C14 C2 1.445619 1_555
C14 Eu3 2.726063 1_555
C15 C45 1.393553 1_555
C15 C25 1.433517 1_555
C15 C3 1.445624 1_555
C15 Eu0 2.726070 1_555
C16 C41 1.393543 1_555
C16 C30 1.433517 1_555
C16 C4 1.445623 1_555
C16 Eu3 2.726063 1_555
C17 C47 1.393543 1_555
C17 C32 1.433517 1_555
C17 C5 1.445619 1_555
C17 Eu5 2.726063 1_555
C18 C37 1.393553 1_555
C18 C28 1.433517 1_555
C18 C6 1.445624 1_555
C18 Eu1 2.726072 1_555
C19 C44 1.393547 1_555
C19 C26 1.433517 1_555
C19 C7 1.445623 1_555
C19 Eu1 2.726051 1_555
C20 C36 1.393547 1_555
C20 C29 1.433517 1_555
C20 C8 1.445623 1_555
C20 Eu0 2.726061 1_555
C21 C38 1.393543 1_555
C21 C35 1.433517 1_555
C21 C9 1.445623 1_555
C21 Eu2 2.726063 1_555
C22 C42 1.393543 1_555
C22 C24 1.433517 1_555
C22 Eu2 2.726063 1_555
C23 C40 1.393553 1_555
C23 C33 1.433517 1_555
C23 Eu4 2.726061 1_555
C24 C55 1.393547 1_555
C24 Eu2 2.726061 1_555
C25 C58 1.393543 1_555
C25 C3 1.445623 1_555
C25 Eu0 2.726063 1_555
C26 C51 1.393543 1_555
C26 C7 1.445619 1_555
C26 Eu1 2.726057 1_555
C27 C57 1.393553 1_555
C27 Eu5 2.726070 1_555
C28 C53 1.393543 1_555
C28 C6 1.445623 1_555
C28 Eu1 2.726061 1_555
C29 C59 1.393543 1_555
C29 C8 1.445619 1_555
C29 Eu0 2.726063 1_555
C30 C49 1.393553 1_555
C30 C4 1.445624 1_555
C30 Eu3 2.726070 1_555
C31 C56 1.393547 1_555
C31 Eu3 2.726061 1_555
C32 C48 1.393547 1_555
C32 C5 1.445623 1_555
C32 Eu5 2.726061 1_555
C33 C50 1.393543 1_555
C33 Eu4 2.726055 1_555
C34 C54 1.393543 1_555
C34 Eu4 2.726055 1_555
C35 C52 1.393553 1_555
C35 C9 1.445624 1_555
C35 Eu2 2.726070 1_555
C36 C56 1.476249 1_555
C36 C55 1.476249 1_555
C37 C58 1.476249 1_554
C37 C54 1.476249 1_565
C38 C57 1.476249 1_455
C38 C51 1.476251 1_555
C39 C57 1.476249 1_556
C39 C50 1.476251 1_555
C40 C53 1.476249 1_545
C40 C59 1.476249 1_655
C41 C52 1.476249 1_545
C41 C59 1.476251 1_555
C42 C49 1.476249 1_565
C42 C58 1.476251 1_555
C43 C48 1.476249 1_555
C43 C56 1.476249 1_555
C44 C55 1.476249 1_555
C44 C48 1.476249 1_555
C45 C50 1.476249 1_455
C45 C51 1.476249 1_556
C46 C49 1.476249 1_554
C46 C54 1.476251 1_555
C47 C52 1.476249 1_655
C47 C53 1.476251 1_555
