# generated using pymatgen
data_Rb2O3
_symmetry_space_group_name_H-M   'P 1'
_cell_length_a   8.19649242
_cell_length_b   8.19649242
_cell_length_c   8.19649242
_cell_angle_alpha   101.39626960
_cell_angle_beta   113.65342050
_cell_angle_gamma   113.65342050
_symmetry_Int_Tables_number   1
_chemical_formula_structural   Rb2O3
_chemical_formula_sum   'Rb8 O12'
_cell_volume   417.71087058
_cell_formula_units_Z   4
loop_
 _symmetry_equiv_pos_site_id
 _symmetry_equiv_pos_as_xyz
  1  'x, y, z'
loop_
 _atom_site_type_symbol
 _atom_site_label
 _atom_site_symmetry_multiplicity
 _atom_site_fract_x
 _atom_site_fract_y
 _atom_site_fract_z
 _atom_site_occupancy
  Rb  Rb0  1  0.14850400  0.65364700  0.89783800  1
  Rb  Rb1  1  0.74419100  0.09635300  0.74485800  1
  Rb  Rb2  1  0.85149600  0.74933400  0.50514200  1
  Rb  Rb3  1  0.25580900  0.00066600  0.35216200  1
  Rb  Rb4  1  0.75580900  0.10216200  0.25066600  1
  Rb  Rb5  1  0.64850400  0.64783800  0.90364700  1
  Rb  Rb6  1  0.24419100  0.49485800  0.34635300  1
  Rb  Rb7  1  0.35149600  0.25514200  0.99933400  1
  O  O0  1  0.50000000  0.82035300  0.32035300  1
  O  O1  1  0.00000000  0.92964700  0.92964700  1
  O  O2  1  0.50000000  0.67964700  0.17964700  1
  O  O3  1  0.00000000  0.07035300  0.07035300  1
  O  O4  1  0.90218400  0.56512900  0.21245400  1
  O  O5  1  0.14732500  0.18487100  0.58705500  1
  O  O6  1  0.09781600  0.31027100  0.66294500  1
  O  O7  1  0.85267500  0.43972900  0.03754600  1
  O  O8  1  0.35267500  0.78754600  0.68972900  1
  O  O9  1  0.40218400  0.96245400  0.81512900  1
  O  O10  1  0.64732500  0.33705500  0.43487100  1
  O  O11  1  0.59781600  0.41294500  0.56027100  1
loop_
_geom_bond_atom_site_label_1
_geom_bond_atom_site_label_2
_geom_bond_distance
_geom_bond_site_symmetry_2
O0 O2 1.461009 1_555
O0 Rb6 2.766610 1_555
O0 Rb4 2.766616 1_565
O0 Rb3 2.983011 1_565
O0 Rb1 2.983017 1_565
O0 Rb2 3.020920 1_555
O0 Rb0 3.020922 1_554
O1 O3 1.461009 1_566
O1 Rb7 2.766612 1_565
O1 Rb5 2.766616 1_455
O1 Rb0 2.983011 1_555
O1 Rb2 2.983018 1_455
O1 Rb1 3.020919 1_465
O1 Rb3 3.020922 1_566
O2 Rb2 2.766612 1_555
O2 Rb0 2.766616 1_554
O2 Rb5 2.983011 1_554
O2 Rb7 2.983018 1_554
O2 Rb6 3.020919 1_555
O2 Rb4 3.020922 1_565
O3 Rb1 2.766610 1_454
O3 Rb3 2.766616 1_555
O3 Rb4 2.983011 1_455
O3 Rb6 2.983017 1_555
O3 Rb7 3.020920 1_554
O3 Rb5 3.020922 1_444
O4 O7 1.375721 1_555
O4 Rb2 2.842388 1_555
O4 Rb6 2.910537 1_655
O4 Rb5 2.962398 1_554
O4 Rb3 3.142463 1_665
O5 O6 1.375724 1_555
O5 Rb3 2.842394 1_555
O5 Rb7 2.910545 1_555
O5 Rb4 2.962398 1_455
O5 Rb2 3.142460 1_445
O6 Rb0 2.842388 1_555
O6 Rb4 2.910543 1_455
O6 Rb7 2.962408 1_555
O6 Rb1 3.142470 1_455
O7 Rb1 2.842384 1_554
O7 Rb5 2.910550 1_554
O7 Rb6 2.962391 1_655
O7 Rb0 3.142465 1_654
O8 O9 1.375721 1_555
O8 Rb6 2.842384 1_555
O8 Rb0 2.910550 1_555
O8 Rb1 2.962391 1_565
O8 Rb5 3.142465 1_555
O9 Rb7 2.842388 1_565
O9 Rb1 2.910537 1_565
O9 Rb0 2.962398 1_555
O9 Rb4 3.142463 1_566
O10 O11 1.375724 1_555
O10 Rb4 2.842394 1_555
O10 Rb2 2.910545 1_555
O10 Rb3 2.962398 1_555
O10 Rb7 3.142460 1_554
O11 Rb5 2.842388 1_555
O11 Rb3 2.910543 1_555
O11 Rb2 2.962408 1_555
O11 Rb6 3.142470 1_555
