# generated using pymatgen
data_Na2Cd3P4NClO14
_symmetry_space_group_name_H-M   'P 1'
_cell_length_a   11.27823419
_cell_length_b   11.27823419
_cell_length_c   14.38223098
_cell_angle_alpha   60.22172496
_cell_angle_beta   60.22172496
_cell_angle_gamma   27.80379824
_symmetry_Int_Tables_number   1
_chemical_formula_structural   Na2Cd3P4NClO14
_chemical_formula_sum   'Na4 Cd6 P8 N2 Cl2 O28'
_cell_volume   733.17224736
_cell_formula_units_Z   2
loop_
 _symmetry_equiv_pos_site_id
 _symmetry_equiv_pos_as_xyz
  1  'x, y, z'
loop_
 _atom_site_type_symbol
 _atom_site_label
 _atom_site_symmetry_multiplicity
 _atom_site_fract_x
 _atom_site_fract_y
 _atom_site_fract_z
 _atom_site_occupancy
  Na  Na0  1  0.75854600  0.80900700  0.65199200  1
  Na  Na1  1  0.24145400  0.19099300  0.34800800  1
  Na  Na2  1  0.19099300  0.24145400  0.84800800  1
  Na  Na3  1  0.80900700  0.75854600  0.15199200  1
  Cd  Cd0  1  0.16053100  0.14235400  0.65794100  1
  Cd  Cd1  1  0.83946900  0.85764600  0.34206000  1
  Cd  Cd2  1  0.85764600  0.83946900  0.84206000  1
  Cd  Cd3  1  0.14235400  0.16053100  0.15794100  1
  Cd  Cd4  1  0.45634700  0.54365300  0.75000000  1
  Cd  Cd5  1  0.54365300  0.45634700  0.25000000  1
  P  P0  1  0.64305700  0.67463300  0.00326200  1
  P  P1  1  0.35694300  0.32536700  0.99673800  1
  P  P2  1  0.32536700  0.35694300  0.49673800  1
  P  P3  1  0.67463300  0.64305700  0.50326200  1
  P  P4  1  0.61472900  0.62300600  0.83476900  1
  P  P5  1  0.38527100  0.37699400  0.16523100  1
  P  P6  1  0.37699400  0.38527100  0.66523100  1
  P  P7  1  0.62300600  0.61472900  0.33476900  1
  N  N0  1  0.00000000  0.00000000  0.50000000  1
  N  N1  1  0.00000000  0.00000000  0.00000000  1
  Cl  Cl0  1  0.96255500  0.03744500  0.75000000  1
  Cl  Cl1  1  0.03744500  0.96255500  0.25000000  1
  O  O0  1  0.46388100  0.44957700  0.64396700  1
  O  O1  1  0.53611900  0.55042300  0.35603300  1
  O  O2  1  0.55042300  0.53611900  0.85603300  1
  O  O3  1  0.44957700  0.46388100  0.14396700  1
  O  O4  1  0.42926800  0.35505300  0.54628800  1
  O  O5  1  0.57073200  0.64494700  0.45371200  1
  O  O6  1  0.64494700  0.57073200  0.95371200  1
  O  O7  1  0.35505300  0.42926800  0.04628800  1
  O  O8  1  0.63272900  0.04095300  0.98580900  1
  O  O9  1  0.36727100  0.95904700  0.01419100  1
  O  O10  1  0.95904700  0.36727100  0.51419100  1
  O  O11  1  0.04095300  0.63272900  0.48580900  1
  O  O12  1  0.50422200  0.73512200  0.61390200  1
  O  O13  1  0.49577800  0.26487800  0.38609800  1
  O  O14  1  0.26487800  0.49577800  0.88609800  1
  O  O15  1  0.73512200  0.50422200  0.11390200  1
  O  O16  1  0.37554600  0.16492000  0.57563200  1
  O  O17  1  0.62445400  0.83508000  0.42436800  1
  O  O18  1  0.83508000  0.62445400  0.92436800  1
  O  O19  1  0.16492000  0.37554600  0.07563200  1
  O  O20  1  0.53592500  0.12796000  0.73905200  1
  O  O21  1  0.46407500  0.87204000  0.26094800  1
  O  O22  1  0.87204000  0.46407500  0.76094800  1
  O  O23  1  0.12796000  0.53592500  0.23905200  1
  O  O24  1  0.40336700  0.90986100  0.79103900  1
  O  O25  1  0.59663300  0.09013900  0.20896100  1
  O  O26  1  0.09013900  0.59663300  0.70896100  1
  O  O27  1  0.90986100  0.40336700  0.29103900  1
loop_
_geom_bond_atom_site_label_1
_geom_bond_atom_site_label_2
_geom_bond_distance
_geom_bond_site_symmetry_2
Na0 O16 2.374081 1_565
Na0 O26 2.375245 1_655
Na0 O11 2.401183 1_655
Na0 O20 2.486939 1_565
Na0 O22 2.521057 1_555
Na0 O24 2.753367 1_555
Na1 O17 2.374081 1_545
Na1 O27 2.375245 1_455
Na1 O10 2.401183 1_455
Na1 O21 2.486939 1_545
Na1 O23 2.521057 1_555
Na1 O25 2.753367 1_555
Na2 O18 2.374081 1_455
Na2 O24 2.375245 1_545
Na2 O9 2.401183 1_546
Na2 O22 2.486939 1_455
Na2 O20 2.521057 1_555
Na2 O26 2.753367 1_555
Na3 O19 2.374081 1_655
Na3 O25 2.375245 1_565
Na3 O8 2.401183 1_564
Na3 O23 2.486939 1_655
Na3 O21 2.521057 1_555
Na3 O27 2.753367 1_555
Cd0 O10 2.265486 1_455
Cd0 O16 2.299537 1_555
Cd0 O12 2.340146 1_545
Cd0 O24 2.357523 1_545
Cd0 O22 2.369104 1_455
Cd0 Cl0 2.884377 1_455
Cd1 O11 2.265473 1_655
Cd1 O17 2.299538 1_555
Cd1 O13 2.340140 1_565
Cd1 O25 2.357535 1_565
Cd1 O23 2.369114 1_655
Cd1 Cl1 2.884375 1_655
Cd2 O8 2.265473 1_565
Cd2 O18 2.299538 1_555
Cd2 O14 2.340140 1_655
Cd2 O26 2.357535 1_655
Cd2 O20 2.369114 1_565
Cd2 Cl0 2.884375 1_565
Cd3 O9 2.265486 1_545
Cd3 O19 2.299537 1_555
Cd3 O15 2.340146 1_455
Cd3 O27 2.357523 1_455
Cd3 O21 2.369104 1_545
Cd3 Cl1 2.884377 1_545
Cd4 O0 2.185758 1_555
Cd4 O2 2.185758 1_555
Cd4 O14 2.366541 1_555
Cd4 O12 2.366541 1_555
Cd4 Cl0 2.676067 1_465
Cd4 Cl0 2.743355 1_555
Cd5 O3 2.185758 1_555
Cd5 O1 2.185758 1_555
Cd5 O13 2.366541 1_555
Cd5 O15 2.366541 1_555
Cd5 Cl1 2.676067 1_645
Cd5 Cl1 2.743355 1_555
O0 P6 1.522863 1_555
O1 P7 1.522863 1_555
O2 P4 1.522863 1_555
O3 P5 1.522863 1_555
O4 P6 1.616159 1_555
O4 P2 1.628396 1_555
O5 P7 1.616159 1_555
O5 P3 1.628396 1_555
O6 P4 1.616159 1_555
O6 P0 1.628396 1_556
O7 P5 1.616159 1_555
O7 P1 1.628396 1_554
O8 P1 1.533977 1_555
O9 P0 1.533977 1_555
O10 P3 1.533977 1_555
O11 P2 1.533977 1_555
O12 P3 1.541758 1_555
O13 P2 1.541758 1_555
O14 P1 1.541758 1_555
O15 P0 1.541758 1_555
O16 P2 1.525341 1_555
O17 P3 1.525341 1_555
O18 P0 1.525341 1_556
O19 P1 1.525341 1_554
O20 P6 1.545736 1_555
O21 P7 1.545736 1_555
O22 P4 1.545736 1_555
O23 P5 1.545736 1_555
O24 P4 1.539255 1_555
O25 P5 1.539255 1_555
O26 P6 1.539255 1_555
O27 P7 1.539255 1_555
