# generated using pymatgen
data_LiTiSe2O
_symmetry_space_group_name_H-M   'P 1'
_cell_length_a   3.47868338
_cell_length_b   3.47868338
_cell_length_c   25.87274000
_cell_angle_alpha   90.00000000
_cell_angle_beta   90.00000000
_cell_angle_gamma   119.99998821
_symmetry_Int_Tables_number   1
_chemical_formula_structural   LiTiSe2O
_chemical_formula_sum   'Li3 Ti3 Se6 O3'
_cell_volume   271.14581900
_cell_formula_units_Z   3
loop_
 _symmetry_equiv_pos_site_id
 _symmetry_equiv_pos_as_xyz
  1  'x, y, z'
loop_
 _atom_site_type_symbol
 _atom_site_label
 _atom_site_symmetry_multiplicity
 _atom_site_fract_x
 _atom_site_fract_y
 _atom_site_fract_z
 _atom_site_occupancy
  Li  Li0  1  0.00000000  0.00000000  0.66493500  1
  Li  Li1  1  0.66666700  0.33333300  0.33562700  1
  Li  Li2  1  0.33333300  0.66666700  0.00181200  1
  Ti  Ti0  1  0.00000000  0.00000000  0.83147700  1
  Ti  Ti1  1  0.33333300  0.66666700  0.16772000  1
  Ti  Ti2  1  0.66666700  0.33333300  0.50021700  1
  Se  Se0  1  0.33333300  0.66666700  0.77024400  1
  Se  Se1  1  0.00000000  0.00000000  0.22864100  1
  Se  Se2  1  0.33333300  0.66666700  0.56100700  1
  Se  Se3  1  0.66666700  0.33333300  0.89188300  1
  Se  Se4  1  0.00000000  0.00000000  0.43910000  1
  Se  Se5  1  0.66666700  0.33333300  0.10695100  1
  O  O0  1  0.33333300  0.66666700  0.33460700  1
  O  O1  1  0.66666700  0.33333300  0.66384700  1
  O  O2  1  0.00000000  0.00000000  0.00193200  1
loop_
_geom_bond_atom_site_label_1
_geom_bond_atom_site_label_2
_geom_bond_distance
_geom_bond_site_symmetry_2
Li0 O1 2.008614 1_455
Li0 O1 2.008617 1_445
Li0 O1 2.008617 1_555
Li1 O0 2.008590 1_545
Li1 O0 2.008590 1_655
Li1 O0 2.008596 1_555
Li2 O2 2.008419 1_565
Li2 O2 2.008422 1_555
Li2 O2 2.008422 1_665
Se0 Ti0 2.558053 1_565
Se0 Ti0 2.558056 1_555
Se0 Ti0 2.558056 1_665
Se1 Ti1 2.553061 1_545
Se1 Ti1 2.553064 1_555
Se1 Ti1 2.553064 1_445
Se2 Ti2 2.550971 1_455
Se2 Ti2 2.550971 1_565
Se2 Ti2 2.550975 1_555
Se3 Ti0 2.544857 1_655
Se3 Ti0 2.544859 1_555
Se3 Ti0 2.544859 1_665
Se4 Ti2 2.556195 1_455
Se4 Ti2 2.556198 1_555
Se4 Ti2 2.556198 1_445
Se5 Ti1 2.550636 1_545
Se5 Ti1 2.550636 1_655
Se5 Ti1 2.550640 1_555
