# generated using pymatgen
data_KBaSb
_symmetry_space_group_name_H-M   'P 1'
_cell_length_a   5.61007211
_cell_length_b   5.61007142
_cell_length_c   5.61007200
_cell_angle_alpha   59.99999659
_cell_angle_beta   60.00000067
_cell_angle_gamma   59.99999977
_symmetry_Int_Tables_number   1
_chemical_formula_structural   KBaSb
_chemical_formula_sum   'K1 Ba1 Sb1'
_cell_volume   124.85049297
_cell_formula_units_Z   1
loop_
 _symmetry_equiv_pos_site_id
 _symmetry_equiv_pos_as_xyz
  1  'x, y, z'
loop_
 _atom_site_type_symbol
 _atom_site_label
 _atom_site_symmetry_multiplicity
 _atom_site_fract_x
 _atom_site_fract_y
 _atom_site_fract_z
 _atom_site_occupancy
  K  K0  1  0.25000000  0.25000000  0.25000000  1
  Ba  Ba0  1  0.50000000  0.50000000  0.50000000  1
  Sb  Sb0  1  0.00000000  0.00000000  0.00000000  1
loop_
_geom_bond_atom_site_label_1
_geom_bond_atom_site_label_2
_geom_bond_distance
_geom_bond_site_symmetry_2
K0 Sb0 3.435453 1_565
K0 Sb0 3.435453 1_555
K0 Sb0 3.435453 1_556
K0 Sb0 3.435454 1_655
Ba0 K0 3.435453 1_565
Ba0 K0 3.435453 1_555
Ba0 K0 3.435453 1_556
Ba0 K0 3.435454 1_655
Ba0 Sb0 3.966920 1_556
Ba0 Sb0 3.966920 1_665
Ba0 Sb0 3.966920 1_655
Ba0 Sb0 3.966920 1_565
Ba0 Sb0 3.966920 1_566
Ba0 Sb0 3.966920 1_656
