# generated using pymatgen
data_NaV6O15
_symmetry_space_group_name_H-M   'P 1'
_cell_length_a   5.76771159
_cell_length_b   8.13205718
_cell_length_c   9.00668577
_cell_angle_alpha   88.23669935
_cell_angle_beta   86.43788557
_cell_angle_gamma   98.58124700
_symmetry_Int_Tables_number   1
_chemical_formula_structural   NaV6O15
_chemical_formula_sum   'Na1 V6 O15'
_cell_volume   416.56438317
_cell_formula_units_Z   1
loop_
 _symmetry_equiv_pos_site_id
 _symmetry_equiv_pos_as_xyz
  1  'x, y, z'
loop_
 _atom_site_type_symbol
 _atom_site_label
 _atom_site_symmetry_multiplicity
 _atom_site_fract_x
 _atom_site_fract_y
 _atom_site_fract_z
 _atom_site_occupancy
  Na  Na0  1  0.01752800  0.97501500  0.50850500  1
  V  V0  1  0.04170600  0.19379500  0.08881800  1
  V  V1  1  0.35943700  0.60696800  0.45819000  1
  V  V2  1  0.41672300  0.72230200  0.08981800  1
  V  V3  1  0.58376800  0.27431900  0.90996000  1
  V  V4  1  0.80711900  0.40289200  0.55523600  1
  V  V5  1  0.94911500  0.79908600  0.92210400  1
  O  O0  1  0.99209900  0.98819200  0.01617400  1
  O  O1  1  0.07626400  0.17580600  0.26684300  1
  O  O2  1  0.29406000  0.31022900  0.98941600  1
  O  O3  1  0.13798800  0.45111800  0.53884000  1
  O  O4  1  0.32681200  0.60199500  0.25564900  1
  O  O5  1  0.19554500  0.69650000  0.95409600  1
  O  O6  1  0.31128700  0.79080900  0.51273800  1
  O  O7  1  0.46071700  0.91472600  0.13489200  1
  O  O8  1  0.55575700  0.08740700  0.84948800  1
  O  O9  1  0.70707700  0.21668000  0.50121900  1
  O  O10  1  0.79069500  0.29023900  0.05716800  1
  O  O11  1  0.70177900  0.40609300  0.75896000  1
  O  O12  1  0.65076700  0.57626900  0.48666900  1
  O  O13  1  0.68969500  0.67210300  0.00679800  1
  O  O14  1  0.92706200  0.83345800  0.74442000  1
loop_
_geom_bond_atom_site_label_1
_geom_bond_atom_site_label_2
_geom_bond_distance
_geom_bond_site_symmetry_2
Na0 O14 2.375855 1_455
Na0 O6 2.424461 1_555
Na0 O1 2.653865 1_565
Na0 O9 2.851222 1_465
O0 V5 1.771077 1_554
O0 V0 1.803683 1_665
O1 V0 1.632804 1_555
O2 V0 1.786389 1_556
O2 V3 1.843741 1_555
O3 V1 1.763591 1_555
O3 V4 1.885606 1_455
O4 V2 1.766156 1_555
O4 V1 1.846553 1_555
O5 V5 1.785811 1_455
O5 V2 1.815315 1_556
O6 V1 1.644898 1_555
O7 V2 1.615923 1_555
O8 V3 1.619161 1_555
O9 V4 1.637735 1_555
O10 V0 1.780097 1_655
O10 V3 1.833077 1_554
O11 V3 1.743229 1_555
O11 V4 1.898875 1_555
O12 V1 1.768148 1_555
O12 V4 1.891431 1_555
O13 V5 1.798781 1_554
O13 V2 1.807999 1_555
O14 V5 1.632110 1_555
