# generated using pymatgen
data_RbMg14BO15
_symmetry_space_group_name_H-M   'P 1'
_cell_length_a   4.31153800
_cell_length_b   8.14269800
_cell_length_c   9.71069900
_cell_angle_alpha   90.00000000
_cell_angle_beta   90.00000000
_cell_angle_gamma   90.00000000
_symmetry_Int_Tables_number   1
_chemical_formula_structural   RbMg14BO15
_chemical_formula_sum   'Rb1 Mg14 B1 O15'
_cell_volume   340.91886864
_cell_formula_units_Z   1
loop_
 _symmetry_equiv_pos_site_id
 _symmetry_equiv_pos_as_xyz
  1  'x, y, z'
loop_
 _atom_site_type_symbol
 _atom_site_label
 _atom_site_symmetry_multiplicity
 _atom_site_fract_x
 _atom_site_fract_y
 _atom_site_fract_z
 _atom_site_occupancy
  Rb  Rb0  1  0.00000000  0.00000000  0.05002400  1
  Mg  Mg0  1  0.00000000  0.00000000  0.51827700  1
  Mg  Mg1  1  0.00000000  0.50000000  0.49367200  1
  Mg  Mg2  1  0.50000000  0.74379600  0.97428500  1
  Mg  Mg3  1  0.50000000  0.25620400  0.97428500  1
  Mg  Mg4  1  0.50000000  0.74473400  0.52974100  1
  Mg  Mg5  1  0.50000000  0.25526600  0.52974100  1
  Mg  Mg6  1  0.50000000  0.00000000  0.74652300  1
  Mg  Mg7  1  0.50000000  0.50000000  0.75324500  1
  Mg  Mg8  1  0.50000000  0.00000000  0.29801900  1
  Mg  Mg9  1  0.50000000  0.50000000  0.20515900  1
  Mg  Mg10  1  0.00000000  0.75204800  0.74760700  1
  Mg  Mg11  1  0.00000000  0.24795200  0.74760700  1
  Mg  Mg12  1  0.00000000  0.74573700  0.28829800  1
  Mg  Mg13  1  0.00000000  0.25426300  0.28829800  1
  B  B0  1  0.00000000  0.50000000  0.91593900  1
  O  O0  1  0.00000000  0.00000000  0.72672900  1
  O  O1  1  0.00000000  0.00000000  0.31049000  1
  O  O2  1  0.00000000  0.50000000  0.28033300  1
  O  O3  1  0.50000000  0.74609900  0.74408200  1
  O  O4  1  0.50000000  0.25390100  0.74408200  1
  O  O5  1  0.50000000  0.75769900  0.23452700  1
  O  O6  1  0.50000000  0.24230100  0.23452700  1
  O  O7  1  0.50000000  0.00000000  0.94672300  1
  O  O8  1  0.50000000  0.50000000  0.98093900  1
  O  O9  1  0.50000000  0.00000000  0.51231400  1
  O  O10  1  0.50000000  0.50000000  0.52737100  1
  O  O11  1  0.00000000  0.67002400  0.96040800  1
  O  O12  1  0.00000000  0.32997600  0.96040800  1
  O  O13  1  0.00000000  0.74458200  0.51317400  1
  O  O14  1  0.00000000  0.25541800  0.51317400  1
loop_
_geom_bond_atom_site_label_1
_geom_bond_atom_site_label_2
_geom_bond_distance
_geom_bond_site_symmetry_2
Mg0 O1 2.017757 1_555
Mg0 O0 2.024215 1_555
Mg0 O14 2.080382 1_555
Mg0 O13 2.080382 1_545
Mg0 O9 2.156547 1_555
Mg0 O9 2.156547 1_455
Mg1 O13 2.000541 1_555
Mg1 O14 2.000541 1_555
Mg1 O2 2.071671 1_555
Mg1 O10 2.180465 1_555
Mg1 O10 2.180465 1_455
Mg2 O8 1.986209 1_555
Mg2 O7 2.103290 1_565
Mg2 O3 2.235511 1_555
Mg2 O11 2.241951 1_555
Mg2 O11 2.241951 1_655
Mg2 O5 2.529666 1_556
Mg3 O8 1.986209 1_555
Mg3 O7 2.103290 1_555
Mg3 O4 2.235511 1_555
Mg3 O12 2.241951 1_655
Mg3 O12 2.241951 1_555
Mg3 O6 2.529666 1_556
Mg4 O10 1.992928 1_555
Mg4 O3 2.081431 1_555
Mg4 O9 2.085432 1_565
Mg4 O13 2.161764 1_555
Mg4 O13 2.161764 1_655
Mg5 O10 1.992928 1_555
Mg5 O4 2.081431 1_555
Mg5 O9 2.085432 1_555
Mg5 O14 2.161764 1_655
Mg5 O14 2.161764 1_555
Mg6 O7 1.944082 1_555
Mg6 O4 2.067575 1_555
Mg6 O3 2.067575 1_545
Mg6 O0 2.164321 1_555
Mg6 O0 2.164321 1_655
Mg6 O9 2.274333 1_555
Mg7 O3 2.005884 1_555
Mg7 O4 2.005884 1_555
Mg7 O10 2.193394 1_555
Mg7 O8 2.211068 1_555
Mg8 O6 2.067076 1_555
Mg8 O5 2.067076 1_545
Mg8 O9 2.080954 1_555
Mg8 O1 2.159168 1_655
Mg8 O1 2.159168 1_555
Mg9 O5 2.117656 1_555
Mg9 O6 2.117656 1_555
Mg9 O8 2.177333 1_554
Mg9 O2 2.276012 1_655
Mg9 O2 2.276012 1_555
Mg10 O0 2.029152 1_565
Mg10 O3 2.156585 1_555
Mg10 O3 2.156585 1_455
Mg10 O11 2.171701 1_555
Mg10 O13 2.277320 1_555
Mg11 O0 2.029152 1_555
Mg11 O4 2.156585 1_555
Mg11 O4 2.156585 1_455
Mg11 O12 2.171701 1_555
Mg11 O14 2.277320 1_555
Mg12 O2 2.002456 1_555
Mg12 O1 2.081572 1_565
Mg12 O13 2.183723 1_555
Mg12 O5 2.220241 1_555
Mg12 O5 2.220241 1_455
Mg13 O2 2.002456 1_555
Mg13 O1 2.081572 1_555
Mg13 O14 2.183723 1_555
Mg13 O6 2.220241 1_555
Mg13 O6 2.220241 1_455
B0 O11 1.450237 1_555
B0 O12 1.450237 1_555
O1 Rb0 2.529307 1_555
O7 Rb0 2.377730 1_556
O7 Rb0 2.377730 1_656
O11 Rb0 2.824307 1_566
O12 Rb0 2.824307 1_556
