# generated using pymatgen
data_Cs2CdBr4
_symmetry_space_group_name_H-M   'P 1'
_cell_length_a   10.29056502
_cell_length_b   7.93097727
_cell_length_c   14.23828582
_cell_angle_alpha   88.96272665
_cell_angle_beta   90.00000000
_cell_angle_gamma   90.00000000
_symmetry_Int_Tables_number   1
_chemical_formula_structural   Cs2CdBr4
_chemical_formula_sum   'Cs8 Cd4 Br16'
_cell_volume   1161.85641236
_cell_formula_units_Z   4
loop_
 _symmetry_equiv_pos_site_id
 _symmetry_equiv_pos_as_xyz
  1  'x, y, z'
loop_
 _atom_site_type_symbol
 _atom_site_label
 _atom_site_symmetry_multiplicity
 _atom_site_fract_x
 _atom_site_fract_y
 _atom_site_fract_z
 _atom_site_occupancy
  Cs  Cs0  1  0.61846806  0.23396642  0.39642380  1
  Cs  Cs1  1  0.38153194  0.76603358  0.60357620  1
  Cs  Cs2  1  0.88153194  0.73396642  0.89642380  1
  Cs  Cs3  1  0.11846806  0.26603358  0.10357620  1
  Cs  Cs4  1  0.48861165  0.22723330  0.82266770  1
  Cs  Cs5  1  0.51138835  0.77276670  0.17733230  1
  Cs  Cs6  1  0.01138835  0.72723330  0.32266770  1
  Cs  Cs7  1  0.98861165  0.27276670  0.67733230  1
  Cd  Cd0  1  0.72087243  0.25201638  0.07578758  1
  Cd  Cd1  1  0.27912757  0.74798362  0.92421242  1
  Cd  Cd2  1  0.77912757  0.75201638  0.57578758  1
  Cd  Cd3  1  0.22087243  0.24798362  0.42421242  1
  Br  Br0  1  0.46985100  0.23513052  0.07985946  1
  Br  Br1  1  0.53014900  0.76486948  0.92014054  1
  Br  Br2  1  0.03014900  0.73513052  0.57985946  1
  Br  Br3  1  0.96985100  0.26486948  0.42014054  1
  Br  Br4  1  0.83049015  0.20152387  0.91276003  1
  Br  Br5  1  0.16950985  0.79847613  0.08723997  1
  Br  Br6  1  0.66950985  0.70152387  0.41276003  1
  Br  Br7  1  0.33049015  0.29847613  0.58723997  1
  Br  Br8  1  0.81693073  0.53946725  0.13069384  1
  Br  Br9  1  0.18306927  0.46053275  0.86930616  1
  Br  Br10  1  0.68306927  0.03946725  0.63069384  1
  Br  Br11  1  0.31693073  0.96053275  0.36930616  1
  Br  Br12  1  0.80946489  0.02870924  0.19680184  1
  Br  Br13  1  0.19053511  0.97129076  0.80319816  1
  Br  Br14  1  0.69053511  0.52870924  0.69680184  1
  Br  Br15  1  0.30946489  0.47129076  0.30319816  1
loop_
_geom_bond_atom_site_label_1
_geom_bond_atom_site_label_2
_geom_bond_distance
_geom_bond_site_symmetry_2
Br0 Cd0 2.587217 1_555
Br0 Cs3 3.640335 1_555
Br0 Cs4 3.668722 1_554
Br0 Cs5 3.920642 1_545
Br1 Cd1 2.587217 1_555
Br1 Cs2 3.640335 1_555
Br1 Cs5 3.668722 1_556
Br1 Cs4 3.920642 1_565
Br2 Cd2 2.587217 1_455
Br2 Cs1 3.640335 1_555
Br2 Cs6 3.668722 1_555
Br2 Cs7 3.920642 1_455
Br3 Cd3 2.587217 1_655
Br3 Cs0 3.640335 1_555
Br3 Cs7 3.668722 1_555
Br3 Cs6 3.920642 1_655
Br4 Cd0 2.618127 1_556
Br4 Cs4 3.748969 1_555
Br4 Cs2 3.756577 1_545
Br4 Cs7 3.759630 1_555
Br4 Cs3 4.059024 1_656
Br4 Cs2 4.257509 1_555
Br5 Cd1 2.618127 1_554
Br5 Cs5 3.748969 1_555
Br5 Cs3 3.756577 1_565
Br5 Cs6 3.759630 1_555
Br5 Cs2 4.059024 1_454
Br5 Cs3 4.257509 1_555
Br6 Cd2 2.618127 1_555
Br6 Cs6 3.748969 1_655
Br6 Cs0 3.756577 1_555
Br6 Cs5 3.759630 1_555
Br6 Cs1 4.059024 1_555
Br6 Cs0 4.257509 1_565
Br7 Cd3 2.618127 1_555
Br7 Cs7 3.748969 1_455
Br7 Cs1 3.756577 1_555
Br7 Cs4 3.759630 1_555
Br7 Cs0 4.059024 1_555
Br7 Cs1 4.257509 1_545
Br8 Cd0 2.617279 1_555
Br8 Cs2 3.709638 1_554
Br8 Cs5 3.714169 1_555
Br8 Cs6 3.720305 1_655
Br8 Cs3 3.809298 1_655
Br9 Cd1 2.617279 1_555
Br9 Cs3 3.709638 1_556
Br9 Cs4 3.714169 1_555
Br9 Cs7 3.720305 1_455
Br9 Cs2 3.809298 1_455
Br10 Cd2 2.617279 1_545
Br10 Cs0 3.709638 1_555
Br10 Cs7 3.714169 1_555
Br10 Cs4 3.720305 1_555
Br10 Cs1 3.809298 1_545
Br11 Cd3 2.617279 1_565
Br11 Cs1 3.709638 1_555
Br11 Cs6 3.714169 1_555
Br11 Cs5 3.720305 1_555
Br11 Cs0 3.809298 1_565
Br12 Cd0 2.612681 1_555
Br12 Cs6 3.618163 1_645
Br12 Cs5 3.691396 1_545
Br12 Cs0 3.841761 1_555
Br12 Cs3 3.914771 1_655
Br13 Cd1 2.612681 1_555
Br13 Cs7 3.618163 1_465
Br13 Cs4 3.691396 1_565
Br13 Cs1 3.841761 1_555
Br13 Cs2 3.914771 1_455
Br14 Cd2 2.612681 1_555
Br14 Cs4 3.618163 1_555
Br14 Cs7 3.691396 1_555
Br14 Cs2 3.841761 1_555
Br14 Cs1 3.914771 1_555
Br15 Cd3 2.612681 1_555
Br15 Cs5 3.618163 1_555
Br15 Cs6 3.691396 1_555
Br15 Cs3 3.841761 1_555
Br15 Cs0 3.914771 1_555
