# generated using pymatgen
data_Cs3NiCl5
_symmetry_space_group_name_H-M   'P 1'
_cell_length_a   9.99320812
_cell_length_b   9.99320812
_cell_length_c   9.99320812
_cell_angle_alpha   124.74537208
_cell_angle_beta   124.74537208
_cell_angle_gamma   81.96020924
_symmetry_Int_Tables_number   1
_chemical_formula_structural   Cs3NiCl5
_chemical_formula_sum   'Cs6 Ni2 Cl10'
_cell_volume   648.02901548
_cell_formula_units_Z   2
loop_
 _symmetry_equiv_pos_site_id
 _symmetry_equiv_pos_as_xyz
  1  'x, y, z'
loop_
 _atom_site_type_symbol
 _atom_site_label
 _atom_site_symmetry_multiplicity
 _atom_site_fract_x
 _atom_site_fract_y
 _atom_site_fract_z
 _atom_site_occupancy
  Cs  Cs0  1  0.75000000  0.75000000  0.00000000  1
  Cs  Cs1  1  0.25000000  0.25000000  0.00000000  1
  Cs  Cs2  1  0.16764200  0.66764200  0.83528400  1
  Cs  Cs3  1  0.83235800  0.33235800  0.16471600  1
  Cs  Cs4  1  0.66764200  0.83235800  0.50000000  1
  Cs  Cs5  1  0.33235800  0.16764200  0.50000000  1
  Ni  Ni0  1  0.75000000  0.25000000  0.50000000  1
  Ni  Ni1  1  0.25000000  0.75000000  0.50000000  1
  Cl  Cl0  1  0.00000000  0.00000000  0.00000000  1
  Cl  Cl1  1  0.50000000  0.50000000  0.00000000  1
  Cl  Cl2  1  0.47674500  0.97674500  0.76326600  1
  Cl  Cl3  1  0.21347900  0.71347900  0.23673400  1
  Cl  Cl4  1  0.97674500  0.21347900  0.50000000  1
  Cl  Cl5  1  0.71347900  0.47674500  0.50000000  1
  Cl  Cl6  1  0.52325500  0.02325500  0.23673400  1
  Cl  Cl7  1  0.78652100  0.28652100  0.76326600  1
  Cl  Cl8  1  0.02325500  0.78652100  0.50000000  1
  Cl  Cl9  1  0.28652100  0.52325500  0.50000000  1
loop_
_geom_bond_atom_site_label_1
_geom_bond_atom_site_label_2
_geom_bond_distance
_geom_bond_site_symmetry_2
Cl0 Cs3 3.449985 1_455
Cl0 Cs4 3.449985 1_444
Cl0 Cs5 3.449985 1_555
Cl0 Cs2 3.449985 1_544
Cl0 Cs0 3.772123 1_445
Cl0 Cs1 3.772123 1_555
Cl1 Cs5 3.449985 1_554
Cl1 Cs2 3.449985 1_554
Cl1 Cs4 3.449985 1_555
Cl1 Cs3 3.449985 1_555
Cl1 Cs0 3.772123 1_555
Cl1 Cs1 3.772123 1_555
Cl2 Ni1 2.244153 1_555
Cl2 Cs3 3.519002 1_566
Cl2 Cs4 3.642319 1_555
Cl2 Cs5 3.642319 1_565
Cl2 Cs0 3.899180 1_556
Cl2 Cs1 3.899180 1_566
Cl3 Ni1 2.244153 1_555
Cl3 Cs2 3.519002 1_554
Cl3 Cs4 3.642319 1_555
Cl3 Cs5 3.642319 1_565
Cl3 Cs0 3.899180 1_455
Cl3 Cs1 3.899180 1_555
Cl4 Ni0 2.244153 1_555
Cl4 Cs5 3.519002 1_655
Cl4 Cs2 3.642319 1_655
Cl4 Cs3 3.642319 1_555
Cl4 Cs0 3.899180 1_545
Cl4 Cs1 3.899180 1_656
Cl5 Ni0 2.244153 1_555
Cl5 Cs4 3.519002 1_555
Cl5 Cs3 3.642319 1_555
Cl5 Cs2 3.642319 1_655
Cl5 Cs0 3.899180 1_556
Cl5 Cs1 3.899180 1_555
Cl6 Ni0 2.244153 1_555
Cl6 Cs2 3.519002 1_544
Cl6 Cs4 3.642319 1_545
Cl6 Cs5 3.642319 1_555
Cl6 Cs0 3.899180 1_545
Cl6 Cs1 3.899180 1_555
Cl7 Ni0 2.244153 1_555
Cl7 Cs3 3.519002 1_556
Cl7 Cs4 3.642319 1_545
Cl7 Cs5 3.642319 1_555
Cl7 Cs0 3.899180 1_556
Cl7 Cs1 3.899180 1_656
Cl8 Ni1 2.244153 1_555
Cl8 Cs4 3.519002 1_455
Cl8 Cs3 3.642319 1_455
Cl8 Cs2 3.642319 1_555
Cl8 Cs0 3.899180 1_455
Cl8 Cs1 3.899180 1_566
Cl9 Ni1 2.244153 1_555
Cl9 Cs5 3.519002 1_555
Cl9 Cs3 3.642319 1_455
Cl9 Cs2 3.642319 1_555
Cl9 Cs0 3.899180 1_556
Cl9 Cs1 3.899180 1_555
