# generated using pymatgen
data_La6Co13Pb
_symmetry_space_group_name_H-M   'P 1'
_cell_length_a   8.08453600
_cell_length_b   8.08453600
_cell_length_c   12.86771914
_cell_angle_alpha   108.30891690
_cell_angle_beta   108.30891690
_cell_angle_gamma   90.00000000
_symmetry_Int_Tables_number   1
_chemical_formula_structural   La6Co13Pb
_chemical_formula_sum   'La12 Co26 Pb2'
_cell_volume   753.47694448
_cell_formula_units_Z   2
loop_
 _symmetry_equiv_pos_site_id
 _symmetry_equiv_pos_as_xyz
  1  'x, y, z'
loop_
 _atom_site_type_symbol
 _atom_site_label
 _atom_site_symmetry_multiplicity
 _atom_site_fract_x
 _atom_site_fract_y
 _atom_site_fract_z
 _atom_site_occupancy
  La  La0  1  0.59971800  0.59971800  0.19943600  1
  La  La1  1  0.09971800  0.09971800  0.19943600  1
  La  La2  1  0.40028200  0.40028200  0.80056400  1
  La  La3  1  0.90028200  0.90028200  0.80056400  1
  La  La4  1  0.98094800  0.48094800  0.63996200  1
  La  La5  1  0.65901400  0.15901400  0.63996200  1
  La  La6  1  0.15901400  0.98094800  0.63996200  1
  La  La7  1  0.48094800  0.65901400  0.63996200  1
  La  La8  1  0.01905200  0.51905200  0.36003800  1
  La  La9  1  0.34098600  0.84098600  0.36003800  1
  La  La10  1  0.84098600  0.01905200  0.36003800  1
  La  La11  1  0.51905200  0.34098600  0.36003800  1
  Co  Co0  1  0.00000000  0.50000000  0.00000000  1
  Co  Co1  1  0.50000000  0.00000000  0.00000000  1
  Co  Co2  1  0.71499100  0.56493100  0.00000000  1
  Co  Co3  1  0.28500900  0.43506900  0.00000000  1
  Co  Co4  1  0.78500900  0.06493100  0.00000000  1
  Co  Co5  1  0.21499100  0.93506900  0.00000000  1
  Co  Co6  1  0.56493100  0.28500900  0.00000000  1
  Co  Co7  1  0.43506900  0.71499100  0.00000000  1
  Co  Co8  1  0.06493100  0.21499100  0.00000000  1
  Co  Co9  1  0.93506900  0.78500900  0.00000000  1
  Co  Co10  1  0.12069100  0.62069100  0.88758900  1
  Co  Co11  1  0.76689900  0.26689900  0.88758900  1
  Co  Co12  1  0.26689900  0.12069100  0.88758900  1
  Co  Co13  1  0.62069100  0.76689900  0.88758900  1
  Co  Co14  1  0.87930900  0.37930900  0.11241100  1
  Co  Co15  1  0.23310100  0.73310100  0.11241100  1
  Co  Co16  1  0.73310100  0.87930900  0.11241100  1
  Co  Co17  1  0.37930900  0.23310100  0.11241100  1
  Co  Co18  1  0.29822000  0.79822000  0.82290800  1
  Co  Co19  1  0.52468800  0.02468800  0.82290800  1
  Co  Co20  1  0.02468800  0.29822000  0.82290800  1
  Co  Co21  1  0.79822000  0.52468800  0.82290800  1
  Co  Co22  1  0.70178000  0.20178000  0.17709200  1
  Co  Co23  1  0.47531200  0.97531200  0.17709200  1
  Co  Co24  1  0.97531200  0.70178000  0.17709200  1
  Co  Co25  1  0.20178000  0.47531200  0.17709200  1
  Pb  Pb0  1  0.25000000  0.25000000  0.50000000  1
  Pb  Pb1  1  0.75000000  0.75000000  0.50000000  1
loop_
_geom_bond_atom_site_label_1
_geom_bond_atom_site_label_2
_geom_bond_distance
_geom_bond_site_symmetry_2
La0 Pb1 3.464948 1_555
La0 La11 3.554435 1_555
La0 La9 3.554435 1_555
La0 La8 3.554435 1_655
La0 La10 3.554435 1_565
La1 Pb0 3.464948 1_555
La1 La10 3.554435 1_455
La1 La9 3.554435 1_545
La1 La8 3.554435 1_555
La1 La11 3.554435 1_555
La2 Pb0 3.464948 1_555
La2 La6 3.554435 1_545
La2 La4 3.554435 1_455
La2 La5 3.554435 1_555
La2 La7 3.554435 1_555
La3 Pb1 3.464948 1_555
La3 La7 3.554435 1_555
La3 La4 3.554435 1_555
La3 La5 3.554435 1_565
La3 La6 3.554435 1_655
La4 Pb1 3.436503 1_555
La4 Pb0 3.436503 1_655
La4 La5 3.680755 1_555
La4 La8 3.815542 1_655
La5 Pb0 3.436503 1_555
La5 Pb1 3.436503 1_545
La5 La9 3.815542 1_545
La6 Pb1 3.436503 1_455
La6 Pb0 3.436503 1_565
La6 La7 3.680755 1_555
La6 La8 4.145787 1_555
La6 La9 4.145787 1_555
La7 Pb1 3.436503 1_555
La7 Pb0 3.436503 1_555
La7 La8 4.145787 1_555
La7 La9 4.145787 1_555
La8 Pb0 3.436503 1_555
La8 Pb1 3.436503 1_455
La8 La9 3.680755 1_555
La9 Pb0 3.436503 1_565
La9 Pb1 3.436503 1_555
La10 Pb0 3.436503 1_655
La10 Pb1 3.436503 1_545
La10 La11 3.680755 1_555
La10 La6 3.815542 1_645
La10 La4 4.145787 1_555
La10 La5 4.145787 1_555
La11 Pb1 3.436503 1_555
La11 Pb0 3.436503 1_555
La11 La7 3.815542 1_555
La11 La4 4.145787 1_555
La11 La5 4.145787 1_555
Co0 Co8 2.363205 1_555
Co0 Co3 2.363205 1_555
Co0 Co9 2.363205 1_455
Co0 Co2 2.363205 1_455
Co0 Co15 2.402043 1_555
Co0 Co11 2.402043 1_454
Co0 Co10 2.402052 1_554
Co0 Co14 2.402052 1_455
Co0 Co21 2.417432 1_454
Co0 Co20 2.417432 1_554
Co0 Co24 2.417432 1_455
Co0 Co25 2.417432 1_555
Co1 Co4 2.363205 1_555
Co1 Co6 2.363205 1_555
Co1 Co5 2.363205 1_545
Co1 Co7 2.363205 1_545
Co1 Co12 2.402048 1_554
Co1 Co16 2.402048 1_545
Co1 Co17 2.402048 1_555
Co1 Co13 2.402048 1_544
Co1 Co19 2.417432 1_554
Co1 Co18 2.417432 1_544
Co1 Co22 2.417432 1_555
Co1 Co23 2.417432 1_545
Co2 Co21 2.499789 1_554
Co2 Co24 2.499789 1_555
Co2 Co9 2.516209 1_555
Co2 Co7 2.567707 1_555
Co2 Co6 2.567707 1_555
Co2 La0 2.929599 1_555
Co2 La2 2.929599 1_554
Co3 Co8 2.516209 1_555
Co3 Co7 2.567707 1_555
Co3 Co6 2.567707 1_555
Co3 La0 2.929599 1_555
Co3 La2 2.929599 1_554
Co4 Co6 2.516209 1_555
Co4 Co9 2.567707 1_545
Co4 Co8 2.567707 1_655
Co4 La1 2.929599 1_655
Co4 La3 2.929599 1_544
Co5 Co7 2.516209 1_555
Co5 Co9 2.567707 1_455
Co5 Co8 2.567707 1_565
Co5 La1 2.929599 1_565
Co5 La3 2.929599 1_454
Co6 La0 2.929599 1_555
Co6 La2 2.929599 1_554
Co7 La0 2.929599 1_555
Co7 La2 2.929599 1_554
Co8 La1 2.929599 1_555
Co8 La3 2.929599 1_444
Co9 La1 2.929599 1_665
Co9 La3 2.929599 1_554
Co10 Co5 2.476006 1_556
Co10 Co7 2.476006 1_556
Co10 Co9 2.503108 1_456
Co10 Co3 2.503108 1_556
Co10 Co18 2.512680 1_555
Co10 Co21 2.514477 1_455
Co10 Co20 2.514477 1_555
Co10 Co15 2.591783 1_556
Co10 La4 2.860486 1_455
Co10 La3 3.142456 1_455
Co10 La2 3.142456 1_555
Co11 Co6 2.476014 1_556
Co11 Co4 2.476014 1_556
Co11 Co8 2.503105 1_656
Co11 Co2 2.503105 1_556
Co11 Co19 2.512691 1_555
Co11 Co20 2.514468 1_655
Co11 Co21 2.514468 1_555
Co11 Co14 2.591783 1_556
Co11 La5 2.860485 1_555
Co11 La3 3.142459 1_545
Co11 La2 3.142459 1_555
Co12 Co3 2.476007 1_556
Co12 Co8 2.476013 1_556
Co12 Co6 2.503102 1_556
Co12 Co5 2.503111 1_546
Co12 Co20 2.512686 1_555
Co12 Co19 2.514470 1_555
Co12 Co18 2.514476 1_545
Co12 Co17 2.591783 1_556
Co12 La6 2.860486 1_545
Co12 La2 3.142453 1_555
Co12 La3 3.142463 1_445
Co13 Co9 2.476007 1_556
Co13 Co2 2.476013 1_556
Co13 Co4 2.503102 1_566
Co13 Co7 2.503111 1_556
Co13 Co21 2.512686 1_555
Co13 Co19 2.514470 1_565
Co13 Co18 2.514476 1_555
Co13 Co16 2.591783 1_556
Co13 La7 2.860486 1_555
Co13 La3 3.142453 1_555
Co13 La2 3.142463 1_555
Co14 Co4 2.476006 1_555
Co14 Co6 2.476006 1_555
Co14 Co8 2.503108 1_655
Co14 Co2 2.503108 1_555
Co14 Co22 2.512680 1_555
Co14 Co25 2.514477 1_655
Co14 Co24 2.514477 1_555
Co14 La8 2.860486 1_655
Co14 La0 3.142456 1_555
Co14 La1 3.142456 1_655
Co15 Co5 2.476014 1_555
Co15 Co7 2.476014 1_555
Co15 Co3 2.503105 1_555
Co15 Co9 2.503105 1_455
Co15 Co23 2.512691 1_555
Co15 Co24 2.514468 1_455
Co15 Co25 2.514468 1_555
Co15 La9 2.860485 1_555
Co15 La1 3.142459 1_565
Co15 La0 3.142459 1_555
Co16 Co2 2.476007 1_555
Co16 Co9 2.476013 1_555
Co16 Co7 2.503102 1_555
Co16 Co4 2.503111 1_565
Co16 Co24 2.512686 1_555
Co16 Co23 2.514470 1_555
Co16 Co22 2.514476 1_565
Co16 La10 2.860486 1_565
Co16 La0 3.142453 1_555
Co16 La1 3.142463 1_665
Co17 Co8 2.476007 1_555
Co17 Co3 2.476013 1_555
Co17 Co5 2.503102 1_545
Co17 Co6 2.503111 1_555
Co17 Co25 2.512686 1_555
Co17 Co23 2.514470 1_545
Co17 Co22 2.514476 1_555
Co17 La11 2.860486 1_555
Co17 La1 3.142453 1_555
Co17 La0 3.142463 1_555
Co18 Co5 2.499789 1_556
Co18 Co7 2.499789 1_556
Co18 Co19 2.589268 1_565
Co18 La6 3.084003 1_555
Co18 La7 3.084003 1_555
Co18 La2 3.268243 1_555
Co18 La3 3.268243 1_455
Co18 La4 3.333581 1_455
Co19 Co4 2.499789 1_556
Co19 Co6 2.499789 1_556
Co19 La6 3.084003 1_545
Co19 La7 3.084003 1_545
Co19 La3 3.268243 1_545
Co19 La2 3.268243 1_555
Co19 La5 3.333581 1_555
Co20 Co8 2.499789 1_556
Co20 Co3 2.499789 1_556
Co20 Co21 2.589268 1_455
Co20 La5 3.084003 1_455
Co20 La4 3.084003 1_455
Co20 La2 3.268243 1_555
Co20 La3 3.268243 1_445
Co20 La6 3.333581 1_545
Co21 Co9 2.499789 1_556
Co21 La5 3.084003 1_555
Co21 La4 3.084003 1_555
Co21 La3 3.268243 1_555
Co21 La2 3.268243 1_555
Co21 La7 3.333581 1_555
Co22 Co4 2.499789 1_555
Co22 Co6 2.499789 1_555
Co22 Co23 2.589268 1_545
Co22 La10 3.084003 1_555
Co22 La11 3.084003 1_555
Co22 La1 3.268243 1_655
Co22 La0 3.268243 1_555
Co22 La8 3.333581 1_655
Co23 Co5 2.499789 1_555
Co23 Co7 2.499789 1_555
Co23 La11 3.084003 1_565
Co23 La10 3.084003 1_565
Co23 La1 3.268243 1_565
Co23 La0 3.268243 1_555
Co23 La9 3.333581 1_555
Co24 Co9 2.499789 1_555
Co24 Co25 2.589268 1_655
Co24 La8 3.084003 1_655
Co24 La9 3.084003 1_655
Co24 La1 3.268243 1_665
Co24 La0 3.268243 1_555
Co24 La10 3.333581 1_565
Co25 Co8 2.499789 1_555
Co25 Co3 2.499789 1_555
Co25 La8 3.084003 1_555
Co25 La9 3.084003 1_555
Co25 La1 3.268243 1_555
Co25 La0 3.268243 1_555
Co25 La11 3.333581 1_555
