# generated using pymatgen
data_KMgBO3
_symmetry_space_group_name_H-M   'P 1'
_cell_length_a   6.90845100
_cell_length_b   6.90845100
_cell_length_c   6.90845100
_cell_angle_alpha   90.00000000
_cell_angle_beta   90.00000000
_cell_angle_gamma   90.00000000
_symmetry_Int_Tables_number   1
_chemical_formula_structural   KMgBO3
_chemical_formula_sum   'K4 Mg4 B4 O12'
_cell_volume   329.71753532
_cell_formula_units_Z   4
loop_
 _symmetry_equiv_pos_site_id
 _symmetry_equiv_pos_as_xyz
  1  'x, y, z'
loop_
 _atom_site_type_symbol
 _atom_site_label
 _atom_site_symmetry_multiplicity
 _atom_site_fract_x
 _atom_site_fract_y
 _atom_site_fract_z
 _atom_site_occupancy
  K  K0  1  0.36597000  0.86597000  0.63403000  1
  K  K1  1  0.86597000  0.63403000  0.36597000  1
  K  K2  1  0.63403000  0.36597000  0.86597000  1
  K  K3  1  0.13403000  0.13403000  0.13403000  1
  Mg  Mg0  1  0.64504200  0.14504200  0.35495800  1
  Mg  Mg1  1  0.14504200  0.35495800  0.64504200  1
  Mg  Mg2  1  0.35495800  0.64504200  0.14504200  1
  Mg  Mg3  1  0.85495800  0.85495800  0.85495800  1
  B  B0  1  0.09552600  0.59552500  0.90447500  1
  B  B1  1  0.59552600  0.90447500  0.09552500  1
  B  B2  1  0.90447400  0.09552500  0.59552500  1
  B  B3  1  0.40447400  0.40447500  0.40447500  1
  O  O0  1  0.96242200  0.58554500  0.75483600  1
  O  O1  1  0.24516400  0.46242200  0.91445500  1
  O  O2  1  0.08554500  0.74516400  0.03757800  1
  O  O3  1  0.46242200  0.91445500  0.24516400  1
  O  O4  1  0.74516400  0.03757800  0.08554500  1
  O  O5  1  0.58554500  0.75483600  0.96242200  1
  O  O6  1  0.03757800  0.08554500  0.74516400  1
  O  O7  1  0.75483600  0.96242200  0.58554500  1
  O  O8  1  0.91445500  0.24516400  0.46242200  1
  O  O9  1  0.53757800  0.41445500  0.25483600  1
  O  O10  1  0.25483600  0.53757800  0.41445500  1
  O  O11  1  0.41445500  0.25483600  0.53757800  1
loop_
_geom_bond_atom_site_label_1
_geom_bond_atom_site_label_2
_geom_bond_distance
_geom_bond_site_symmetry_2
K0 O7 2.788059 1_555
K0 O11 2.788059 1_565
K0 O3 2.788059 1_555
K0 O6 2.835035 1_565
K0 O5 2.835035 1_555
K0 O10 2.835035 1_555
K1 O0 2.788059 1_555
K1 O10 2.788059 1_655
K1 O8 2.788059 1_555
K1 O2 2.835035 1_655
K1 O7 2.835035 1_555
K1 O9 2.835035 1_555
K2 O5 2.788059 1_555
K2 O9 2.788059 1_556
K2 O1 2.788059 1_555
K2 O4 2.835035 1_556
K2 O0 2.835035 1_555
K2 O11 2.835035 1_555
K3 O4 2.788059 1_455
K3 O2 2.788059 1_545
K3 O6 2.788059 1_554
K3 O8 2.835035 1_455
K3 O1 2.835035 1_554
K3 O3 2.835035 1_545
Mg0 O8 2.119851 1_555
Mg0 O9 2.119851 1_555
Mg0 O4 2.119851 1_555
Mg0 O7 2.169024 1_545
Mg0 O11 2.169024 1_555
Mg0 O3 2.169024 1_545
Mg1 O1 2.119851 1_555
Mg1 O11 2.119851 1_555
Mg1 O6 2.119851 1_555
Mg1 O0 2.169024 1_455
Mg1 O8 2.169024 1_455
Mg1 O10 2.169024 1_555
Mg2 O10 2.119851 1_555
Mg2 O3 2.119851 1_555
Mg2 O2 2.119851 1_555
Mg2 O5 2.169024 1_554
Mg2 O9 2.169024 1_555
Mg2 O1 2.169024 1_554
Mg3 O7 2.119851 1_555
Mg3 O5 2.119851 1_555
Mg3 O0 2.119851 1_555
Mg3 O4 2.169024 1_566
Mg3 O2 2.169024 1_656
Mg3 O6 2.169024 1_665
B0 O1 1.385270 1_555
B0 O2 1.385276 1_556
B0 O0 1.385280 1_455
B1 O4 1.385270 1_565
B1 O5 1.385276 1_554
B1 O3 1.385280 1_555
B2 O7 1.385270 1_545
B2 O8 1.385276 1_555
B2 O6 1.385280 1_655
B3 O10 1.385270 1_555
B3 O11 1.385276 1_555
B3 O9 1.385280 1_555
