# generated using pymatgen
data_SiPt3
_symmetry_space_group_name_H-M   'P 1'
_cell_length_a   5.39143227
_cell_length_b   5.50272918
_cell_length_c   5.50272989
_cell_angle_alpha   91.15604718
_cell_angle_beta   118.52431796
_cell_angle_gamma   118.52433043
_symmetry_Int_Tables_number   1
_chemical_formula_structural   SiPt3
_chemical_formula_sum   'Si2 Pt6'
_cell_volume   119.33297683
_cell_formula_units_Z   2
loop_
 _symmetry_equiv_pos_site_id
 _symmetry_equiv_pos_as_xyz
  1  'x, y, z'
loop_
 _atom_site_type_symbol
 _atom_site_label
 _atom_site_symmetry_multiplicity
 _atom_site_fract_x
 _atom_site_fract_y
 _atom_site_fract_z
 _atom_site_occupancy
  Si  Si0  1  0.07910810  0.28766168  0.28766168  1
  Si  Si1  1  0.92089190  0.71233832  0.71233832  1
  Pt  Pt0  1  0.50000000  0.72641156  0.27358844  1
  Pt  Pt1  1  0.50000000  0.27358844  0.72641156  1
  Pt  Pt2  1  -0.00000000  0.81721785  0.18278215  1
  Pt  Pt3  1  0.00000000  0.18278215  0.81721785  1
  Pt  Pt4  1  0.64168430  0.28514584  0.28514584  1
  Pt  Pt5  1  0.35831570  0.71485416  0.71485416  1
loop_
_geom_bond_atom_site_label_1
_geom_bond_atom_site_label_2
_geom_bond_distance
_geom_bond_site_symmetry_2
Pt0 Si0 2.434589 1_555
Pt0 Si1 2.434590 1_555
Pt1 Si1 2.434589 1_555
Pt1 Si0 2.434590 1_555
Pt2 Si0 2.422109 1_565
Pt2 Si1 2.422110 1_454
Pt3 Si1 2.422109 1_445
Pt3 Si0 2.422110 1_556
Pt4 Si0 2.345162 1_655
Pt4 Si1 2.517072 1_555
Pt5 Si1 2.345162 1_455
Pt5 Si0 2.517072 1_555
