# generated using pymatgen
data_Mg6MnZn
_symmetry_space_group_name_H-M   'P 1'
_cell_length_a   4.91963000
_cell_length_b   6.15576800
_cell_length_c   10.67099200
_cell_angle_alpha   90.00000000
_cell_angle_beta   90.00000000
_cell_angle_gamma   90.00000000
_symmetry_Int_Tables_number   1
_chemical_formula_structural   Mg6MnZn
_chemical_formula_sum   'Mg12 Mn2 Zn2'
_cell_volume   323.16139871
_cell_formula_units_Z   2
loop_
 _symmetry_equiv_pos_site_id
 _symmetry_equiv_pos_as_xyz
  1  'x, y, z'
loop_
 _atom_site_type_symbol
 _atom_site_label
 _atom_site_symmetry_multiplicity
 _atom_site_fract_x
 _atom_site_fract_y
 _atom_site_fract_z
 _atom_site_occupancy
  Mg  Mg0  1  0.00000000  0.25583100  0.08557900  1
  Mg  Mg1  1  0.00000000  0.74416900  0.08557900  1
  Mg  Mg2  1  0.00000000  0.00000000  0.33345900  1
  Mg  Mg3  1  0.50000000  0.74312000  0.41257600  1
  Mg  Mg4  1  0.50000000  0.25688000  0.41257600  1
  Mg  Mg5  1  0.50000000  0.00000000  0.16716000  1
  Mg  Mg6  1  0.00000000  0.75583100  0.58557900  1
  Mg  Mg7  1  0.00000000  0.24416900  0.58557900  1
  Mg  Mg8  1  0.00000000  0.50000000  0.83345900  1
  Mg  Mg9  1  0.50000000  0.24312000  0.91257600  1
  Mg  Mg10  1  0.50000000  0.75688000  0.91257600  1
  Mg  Mg11  1  0.50000000  0.50000000  0.66716000  1
  Mn  Mn0  1  0.00000000  0.50000000  0.32952600  1
  Mn  Mn1  1  0.00000000  0.00000000  0.82952600  1
  Zn  Zn0  1  0.50000000  0.50000000  0.17354500  1
  Zn  Zn1  1  0.50000000  0.00000000  0.67354500  1
loop_
_geom_bond_atom_site_label_1
_geom_bond_atom_site_label_2
_geom_bond_distance
_geom_bond_site_symmetry_2
Mg0 Mn0 3.005924 1_555
Mg0 Mg1 3.006095 1_555
Mg0 Zn0 3.031661 1_555
Mg0 Zn0 3.031661 1_455
Mg0 Mg5 3.047730 1_555
Mg0 Mg5 3.047730 1_455
Mg0 Mg9 3.076516 1_554
Mg0 Mg9 3.076516 1_454
Mg0 Mg2 3.078441 1_555
Mg0 Mg8 3.081760 1_554
Mg0 Mg1 3.149673 1_545
Mg0 Mn1 3.153694 1_554
Mg1 Mn0 3.005924 1_555
Mg1 Zn0 3.031661 1_455
Mg1 Zn0 3.031661 1_555
Mg1 Mg5 3.047730 1_465
Mg1 Mg5 3.047730 1_565
Mg1 Mg10 3.076516 1_554
Mg1 Mg10 3.076516 1_454
Mg1 Mg2 3.078441 1_565
Mg1 Mg8 3.081760 1_554
Mg1 Mn1 3.153694 1_564
Mg2 Mg5 3.033118 1_455
Mg2 Mg5 3.033118 1_555
Mg2 Mg3 3.043674 1_445
Mg2 Mg4 3.043674 1_555
Mg2 Mg3 3.043674 1_545
Mg2 Mg4 3.043674 1_455
Mg2 Mn0 3.078170 1_555
Mg2 Mn0 3.078170 1_545
Mg2 Mg7 3.081760 1_555
Mg2 Mg6 3.081760 1_545
Mg3 Zn0 2.957337 1_555
Mg3 Mg4 2.993181 1_555
Mg3 Mn0 3.012618 1_555
Mg3 Mn0 3.012618 1_655
Mg3 Mg5 3.059211 1_565
Mg3 Mg6 3.076516 1_555
Mg3 Mg6 3.076516 1_655
Mg3 Mg4 3.162587 1_565
Mg3 Zn1 3.202435 1_565
Mg4 Zn0 2.957337 1_555
Mg4 Mn0 3.012618 1_555
Mg4 Mn0 3.012618 1_655
Mg4 Mg5 3.059211 1_555
Mg4 Mg7 3.076516 1_555
Mg4 Mg7 3.076516 1_655
Mg4 Zn1 3.202435 1_555
Mg5 Zn0 3.078638 1_545
Mg5 Zn0 3.078638 1_555
Mg5 Mg9 3.101620 1_554
Mg6 Mn1 3.005924 1_565
Mg6 Mg7 3.006095 1_565
Mg6 Zn1 3.031661 1_565
Mg6 Zn1 3.031661 1_465
Mg6 Mg8 3.078441 1_555
Mg6 Mg7 3.149673 1_555
Mg6 Mn0 3.153694 1_555
Mg7 Mn1 3.005924 1_555
Mg7 Zn1 3.031661 1_455
Mg7 Zn1 3.031661 1_555
Mg7 Mg8 3.078441 1_555
Mg7 Mn0 3.153694 1_555
Mg8 Mg9 3.043674 1_555
Mg8 Mg9 3.043674 1_455
Mg8 Mn1 3.078170 1_555
Mg8 Mn1 3.078170 1_565
Mg9 Zn1 2.957337 1_555
Mg9 Mn1 3.012618 1_555
Mg9 Mn1 3.012618 1_655
Mg9 Zn0 3.202435 1_556
Mg10 Zn1 2.957337 1_565
Mg10 Mg9 2.993181 1_565
Mg10 Mn1 3.012618 1_665
Mg10 Mn1 3.012618 1_565
Mg10 Mg8 3.043674 1_555
Mg10 Mg8 3.043674 1_655
Mg10 Mg11 3.059211 1_555
Mg10 Mg5 3.101620 1_566
Mg10 Mg9 3.162587 1_555
Mg10 Zn0 3.202435 1_556
Mg11 Mg8 3.033118 1_655
Mg11 Mg8 3.033118 1_555
Mg11 Mg6 3.047730 1_555
Mg11 Mg6 3.047730 1_655
Mg11 Mg7 3.047730 1_655
Mg11 Mg7 3.047730 1_555
Mg11 Mg9 3.059211 1_555
Mg11 Zn1 3.078638 1_565
Mg11 Zn1 3.078638 1_555
Mg11 Mg3 3.101620 1_555
Mg11 Mg4 3.101620 1_555
Mn0 Zn0 2.970043 1_455
Mn0 Zn0 2.970043 1_555
Mn1 Zn1 2.970043 1_555
Mn1 Zn1 2.970043 1_455
