# generated using pymatgen
data_ScGeIr
_symmetry_space_group_name_H-M   'P 1'
_cell_length_a   4.13303271
_cell_length_b   6.50001847
_cell_length_c   7.46161089
_cell_angle_alpha   90.00000000
_cell_angle_beta   90.00000000
_cell_angle_gamma   90.00000000
_symmetry_Int_Tables_number   1
_chemical_formula_structural   ScGeIr
_chemical_formula_sum   'Sc4 Ge4 Ir4'
_cell_volume   200.45460180
_cell_formula_units_Z   4
loop_
 _symmetry_equiv_pos_site_id
 _symmetry_equiv_pos_as_xyz
  1  'x, y, z'
loop_
 _atom_site_type_symbol
 _atom_site_label
 _atom_site_symmetry_multiplicity
 _atom_site_fract_x
 _atom_site_fract_y
 _atom_site_fract_z
 _atom_site_occupancy
  Sc  Sc0  1  0.75000000  0.48535044  0.18949467  1
  Sc  Sc1  1  0.75000000  0.98535044  0.31050533  1
  Sc  Sc2  1  0.25000000  0.51464956  0.81050533  1
  Sc  Sc3  1  0.25000000  0.01464956  0.68949467  1
  Ge  Ge0  1  0.75000000  0.21704777  0.87882577  1
  Ge  Ge1  1  0.75000000  0.71704777  0.62117423  1
  Ge  Ge2  1  0.25000000  0.78295223  0.12117423  1
  Ge  Ge3  1  0.25000000  0.28295223  0.37882577  1
  Ir  Ir0  1  0.75000000  0.33781601  0.55830696  1
  Ir  Ir1  1  0.75000000  0.83781601  0.94169304  1
  Ir  Ir2  1  0.25000000  0.66218399  0.44169304  1
  Ir  Ir3  1  0.25000000  0.16218399  0.05830696  1
loop_
_geom_bond_atom_site_label_1
_geom_bond_atom_site_label_2
_geom_bond_distance
_geom_bond_site_symmetry_2
Ge0 Ir3 2.488206 1_556
Ge0 Ir3 2.488206 1_656
Ge0 Ir1 2.509250 1_545
Ge0 Ir0 2.517122 1_555
Ge0 Sc3 2.827903 1_655
Ge0 Sc3 2.827903 1_555
Ge0 Sc2 2.876167 1_655
Ge0 Sc2 2.876167 1_555
Ge0 Sc0 2.900859 1_556
Ge1 Ir2 2.488206 1_555
Ge1 Ir2 2.488206 1_655
Ge1 Ir0 2.509250 1_555
Ge1 Ir1 2.517122 1_555
Ge1 Sc2 2.827903 1_555
Ge1 Sc2 2.827903 1_655
Ge1 Sc3 2.876167 1_565
Ge1 Sc3 2.876167 1_665
Ge1 Sc1 2.900859 1_555
Ge2 Ir1 2.488206 1_454
Ge2 Ir1 2.488206 1_554
Ge2 Ir3 2.509250 1_565
Ge2 Ir2 2.517122 1_555
Ge2 Sc1 2.827903 1_555
Ge2 Sc1 2.827903 1_455
Ge2 Sc0 2.876167 1_455
Ge2 Sc0 2.876167 1_555
Ge2 Sc2 2.900859 1_554
Ge3 Ir0 2.488206 1_555
Ge3 Ir0 2.488206 1_455
Ge3 Ir2 2.509250 1_555
Ge3 Ir3 2.517122 1_555
Ge3 Sc0 2.827903 1_555
Ge3 Sc0 2.827903 1_455
Ge3 Sc1 2.876167 1_445
Ge3 Sc1 2.876167 1_545
Ge3 Sc3 2.900859 1_555
Ir0 Sc0 2.914237 1_555
Ir0 Sc1 2.944084 1_545
Ir0 Sc2 3.022061 1_555
Ir0 Sc2 3.022061 1_655
Ir0 Sc3 3.105020 1_555
Ir0 Sc3 3.105020 1_655
Ir1 Sc1 2.914237 1_556
Ir1 Sc0 2.944084 1_556
Ir1 Sc3 3.022061 1_565
Ir1 Sc3 3.022061 1_665
Ir1 Sc2 3.105020 1_555
Ir1 Sc2 3.105020 1_655
Ir2 Sc2 2.914237 1_555
Ir2 Sc3 2.944084 1_565
Ir2 Sc0 3.022061 1_555
Ir2 Sc0 3.022061 1_455
Ir2 Sc1 3.105020 1_555
Ir2 Sc1 3.105020 1_455
Ir3 Sc3 2.914237 1_554
Ir3 Sc2 2.944084 1_554
Ir3 Sc1 3.022061 1_445
Ir3 Sc1 3.022061 1_545
Ir3 Sc0 3.105020 1_555
Ir3 Sc0 3.105020 1_455
