# generated using pymatgen
data_K2PdBr6
_symmetry_space_group_name_H-M   'P 1'
_cell_length_a   7.29248651
_cell_length_b   7.29248651
_cell_length_c   7.29248651
_cell_angle_alpha   60.00000000
_cell_angle_beta   60.00000000
_cell_angle_gamma   60.00000000
_symmetry_Int_Tables_number   1
_chemical_formula_structural   K2PdBr6
_chemical_formula_sum   'K2 Pd1 Br6'
_cell_volume   274.22806845
_cell_formula_units_Z   1
loop_
 _symmetry_equiv_pos_site_id
 _symmetry_equiv_pos_as_xyz
  1  'x, y, z'
loop_
 _atom_site_type_symbol
 _atom_site_label
 _atom_site_symmetry_multiplicity
 _atom_site_fract_x
 _atom_site_fract_y
 _atom_site_fract_z
 _atom_site_occupancy
  K  K0  1  0.25000000  0.25000000  0.25000000  1
  K  K1  1  0.75000000  0.75000000  0.75000000  1
  Pd  Pd0  1  0.00000000  0.00000000  0.00000000  1
  Br  Br0  1  0.75900825  0.24099175  0.24099175  1
  Br  Br1  1  0.24099175  0.75900825  0.75900825  1
  Br  Br2  1  0.24099175  0.75900825  0.24099175  1
  Br  Br3  1  0.75900825  0.24099175  0.75900825  1
  Br  Br4  1  0.24099175  0.24099175  0.75900825  1
  Br  Br5  1  0.75900825  0.75900825  0.24099175  1
loop_
_geom_bond_atom_site_label_1
_geom_bond_atom_site_label_2
_geom_bond_distance
_geom_bond_site_symmetry_2
Br0 Pd0 2.485380 1_655
Br0 K0 3.647427 1_655
Br0 K1 3.647427 1_554
Br0 K1 3.647427 1_545
Br0 K0 3.647427 1_555
Br1 Pd0 2.485380 1_566
Br1 K1 3.647427 1_555
Br1 K0 3.647427 1_556
Br1 K0 3.647427 1_565
Br1 K1 3.647427 1_455
Br2 Pd0 2.485380 1_565
Br2 K0 3.647427 1_565
Br2 K1 3.647427 1_554
Br2 K1 3.647427 1_455
Br2 K0 3.647427 1_555
Br3 Pd0 2.485380 1_656
Br3 K1 3.647427 1_555
Br3 K0 3.647427 1_556
Br3 K0 3.647427 1_655
Br3 K1 3.647427 1_545
Br4 Pd0 2.485380 1_556
Br4 K0 3.647427 1_556
Br4 K1 3.647427 1_545
Br4 K1 3.647427 1_455
Br4 K0 3.647427 1_555
Br5 Pd0 2.485380 1_665
Br5 K1 3.647427 1_555
Br5 K0 3.647427 1_655
Br5 K0 3.647427 1_565
Br5 K1 3.647427 1_554
