# generated using pymatgen
data_Rb2NbCuS2
_symmetry_space_group_name_H-M   'P 1'
_cell_length_a   7.36711500
_cell_length_b   6.11152231
_cell_length_c   22.57035617
_cell_angle_alpha   84.35488607
_cell_angle_beta   80.60712003
_cell_angle_gamma   52.93479735
_symmetry_Int_Tables_number   1
_chemical_formula_structural   Rb2NbCuS2
_chemical_formula_sum   'Rb8 Nb4 Cu4 S8'
_cell_volume   800.01623227
_cell_formula_units_Z   4
loop_
 _symmetry_equiv_pos_site_id
 _symmetry_equiv_pos_as_xyz
  1  'x, y, z'
loop_
 _atom_site_type_symbol
 _atom_site_label
 _atom_site_symmetry_multiplicity
 _atom_site_fract_x
 _atom_site_fract_y
 _atom_site_fract_z
 _atom_site_occupancy
  Rb  Rb0  1  0.85991400  0.12398900  0.60890500  1
  Rb  Rb1  1  0.53118100  0.87601100  0.60890500  1
  Rb  Rb2  1  0.01609700  0.12398900  0.39109500  1
  Rb  Rb3  1  0.89008600  0.37601100  0.89109500  1
  Rb  Rb4  1  0.59280800  0.87601100  0.39109500  1
  Rb  Rb5  1  0.21881900  0.62398900  0.89109500  1
  Rb  Rb6  1  0.73390300  0.37601100  0.10890600  1
  Rb  Rb7  1  0.15719200  0.62398900  0.10890600  1
  Nb  Nb0  1  0.37500000  0.25000000  0.25000000  1
  Nb  Nb1  1  0.37500000  0.75000000  0.25000000  1
  Nb  Nb2  1  0.37500000  0.25000000  0.75000000  1
  Nb  Nb3  1  0.87500000  0.75000000  0.75000000  1
  Cu  Cu0  1  0.87500000  0.25000000  0.25000000  1
  Cu  Cu1  1  0.87500000  0.75000000  0.25000000  1
  Cu  Cu2  1  0.87500000  0.25000000  0.75000000  1
  Cu  Cu3  1  0.37500000  0.75000000  0.75000000  1
  S  S0  1  0.15903600  0.14000700  0.18286700  1
  S  S1  1  0.65809700  0.85999300  0.18286700  1
  S  S2  1  0.70095600  0.14000700  0.81713300  1
  S  S3  1  0.59096400  0.35999300  0.31713300  1
  S  S4  1  0.48191000  0.85999300  0.81713300  1
  S  S5  1  0.09190300  0.64000700  0.31713300  1
  S  S6  1  0.04904400  0.35999300  0.68286700  1
  S  S7  1  0.26809000  0.64000700  0.68286700  1
loop_
_geom_bond_atom_site_label_1
_geom_bond_atom_site_label_2
_geom_bond_distance
_geom_bond_site_symmetry_2
Rb0 S6 3.234802 1_655
Rb0 S7 3.243985 1_645
Rb0 S7 3.718495 1_555
Rb1 S7 3.234797 1_555
Rb1 S6 3.243981 1_565
Rb1 S6 3.718500 1_655
Rb2 S3 3.234797 1_455
Rb2 S5 3.243985 1_545
Rb2 S5 3.718496 1_555
Rb3 S2 3.234802 1_555
Rb3 S4 3.243985 1_555
Rb3 S4 3.718495 1_645
Rb4 S5 3.234796 1_655
Rb4 S3 3.243985 1_565
Rb4 S3 3.718496 1_555
Rb5 S4 3.234797 1_555
Rb5 S2 3.243981 1_555
Rb5 S2 3.718500 1_465
Rb6 S0 3.234782 1_655
Rb6 S1 3.243972 1_555
Rb6 S1 3.718488 1_545
Rb7 S1 3.234788 1_455
Rb7 S0 3.243975 1_555
Rb7 S0 3.718484 1_565
Nb0 S1 2.452240 1_545
Nb0 S5 2.452240 1_555
Nb0 S3 2.748760 1_555
Nb0 S0 2.748760 1_555
Nb1 S3 2.452240 1_555
Nb1 S0 2.452240 1_565
Nb1 S1 2.748760 1_555
Nb1 S5 2.748760 1_555
Nb2 S4 2.452241 1_545
Nb2 S7 2.452241 1_555
Nb2 S2 2.748754 1_555
Nb2 S6 2.748754 1_555
Nb3 S2 2.452239 1_565
Nb3 S6 2.452239 1_655
Nb3 S4 2.748760 1_555
Nb3 S7 2.748760 1_655
Cu0 S0 2.143889 1_655
Cu0 S3 2.143889 1_555
Cu0 Rb6 3.383478 1_555
Cu0 Rb2 3.383500 1_655
Cu1 S5 2.143889 1_655
Cu1 S1 2.143889 1_555
Cu1 Rb7 3.383481 1_655
Cu1 Rb4 3.383500 1_555
Cu2 S2 2.143894 1_555
Cu2 S6 2.143894 1_655
Cu2 Rb3 3.383500 1_555
Cu2 Rb0 3.383500 1_555
Cu3 S7 2.143889 1_555
Cu3 S4 2.143889 1_555
Cu3 Rb5 3.383500 1_555
Cu3 Rb1 3.383500 1_555
