# generated using pymatgen
data_Sr4LiMn2(GaO5)2
_symmetry_space_group_name_H-M   'P 1'
_cell_length_a   5.83394403
_cell_length_b   5.86225594
_cell_length_c   8.87257266
_cell_angle_alpha   72.39292798
_cell_angle_beta   72.48922691
_cell_angle_gamma   94.84020121
_symmetry_Int_Tables_number   1
_chemical_formula_structural   Sr4LiMn2(GaO5)2
_chemical_formula_sum   'Sr4 Li1 Mn2 Ga2 O10'
_cell_volume   270.64139740
_cell_formula_units_Z   1
loop_
 _symmetry_equiv_pos_site_id
 _symmetry_equiv_pos_as_xyz
  1  'x, y, z'
loop_
 _atom_site_type_symbol
 _atom_site_label
 _atom_site_symmetry_multiplicity
 _atom_site_fract_x
 _atom_site_fract_y
 _atom_site_fract_z
 _atom_site_occupancy
  Sr  Sr0  1  0.05774900  0.65821400  0.78465100  1
  Sr  Sr1  1  0.91494800  0.36890700  0.21515600  1
  Sr  Sr2  1  0.65857800  0.05583200  0.78436600  1
  Sr  Sr3  1  0.37048100  0.91553000  0.21506400  1
  Li  Li0  1  0.38295400  0.38162200  0.73691900  1
  Mn  Mn0  1  0.49273100  0.49202500  0.01185800  1
  Mn  Mn1  1  0.99615400  0.99558900  0.01172800  1
  Ga  Ga0  1  0.68855900  0.69021800  0.48743200  1
  Ga  Ga1  1  0.32428800  0.32205300  0.48775700  1
  O  O0  1  0.26567800  0.26544600  0.96961800  1
  O  O1  1  0.24898400  0.74740100  0.00384900  1
  O  O2  1  0.74933100  0.24969400  0.00078500  1
  O  O3  1  0.73919100  0.73826600  0.02195100  1
  O  O4  1  0.67192500  0.67579600  0.70107000  1
  O  O5  1  0.31334600  0.30727200  0.28999300  1
  O  O6  1  0.12772200  0.12238600  0.70141100  1
  O  O7  1  0.89726700  0.90255600  0.28965800  1
  O  O8  1  0.34096000  0.64711000  0.50756500  1
  O  O9  1  0.65201200  0.34503300  0.50773800  1
loop_
_geom_bond_atom_site_label_1
_geom_bond_atom_site_label_2
_geom_bond_distance
_geom_bond_site_symmetry_2
Li0 O0 1.848056 1_555
Li0 O4 2.184507 1_555
Li0 O6 2.194537 1_555
Li0 O9 2.246027 1_555
Li0 O8 2.252034 1_555
Mn0 O0 1.990561 1_554
Mn0 O3 1.991127 1_555
Mn0 O2 2.150247 1_555
Mn0 O1 2.150372 1_555
Mn0 O5 2.235128 1_555
Mn0 O4 2.476946 1_554
Mn1 O0 1.995934 1_664
Mn1 O3 1.996217 1_555
Mn1 O1 2.158469 1_655
Mn1 O2 2.158817 1_565
Mn1 O7 2.233469 1_555
Mn1 O6 2.473102 1_664
Ga0 O7 1.802292 1_555
Ga0 O4 1.844052 1_555
Ga0 O9 1.963731 1_555
Ga0 O8 1.968823 1_555
Ga1 O5 1.802477 1_555
Ga1 O6 1.844344 1_555
Ga1 O8 1.962944 1_555
Ga1 O9 1.969767 1_555
O0 Sr1 2.761697 1_456
O0 Sr3 2.763071 1_546
O1 Sr3 2.604740 1_555
O1 Sr1 2.605930 1_455
O1 Sr2 2.666823 1_564
O1 Sr0 2.668880 1_554
O2 Sr3 2.612388 1_545
O2 Sr1 2.614524 1_555
O2 Sr0 2.658627 1_654
O2 Sr2 2.662605 1_554
O3 Sr0 2.548980 1_654
O3 Sr2 2.549655 1_564
O3 Sr1 2.804498 1_555
O3 Sr3 2.806970 1_555
O4 Sr2 2.550763 1_565
O4 Sr0 2.573789 1_655
O5 Sr3 2.597387 1_545
O5 Sr1 2.626552 1_455
O6 Sr0 2.555734 1_545
O6 Sr2 2.572688 1_455
O7 Sr1 2.596099 1_565
O7 Sr3 2.626765 1_655
O8 Sr0 2.539443 1_555
O8 Sr3 2.540809 1_555
O9 Sr2 2.539685 1_555
O9 Sr1 2.541508 1_555
