# generated using pymatgen
data_Sr2Fe3Sb(PO4)6
_symmetry_space_group_name_H-M   'P 1'
_cell_length_a   9.12999437
_cell_length_b   9.12999437
_cell_length_c   9.12999463
_cell_angle_alpha   56.24255070
_cell_angle_beta   56.24255070
_cell_angle_gamma   56.24254916
_symmetry_Int_Tables_number   1
_chemical_formula_structural   Sr2Fe3Sb(PO4)6
_chemical_formula_sum   'Sr2 Fe3 Sb1 P6 O24'
_cell_volume   491.34872151
_cell_formula_units_Z   1
loop_
 _symmetry_equiv_pos_site_id
 _symmetry_equiv_pos_as_xyz
  1  'x, y, z'
loop_
 _atom_site_type_symbol
 _atom_site_label
 _atom_site_symmetry_multiplicity
 _atom_site_fract_x
 _atom_site_fract_y
 _atom_site_fract_z
 _atom_site_occupancy
  Sr  Sr0  1  0.50441600  0.50441600  0.50441600  1
  Sr  Sr1  1  0.00003600  0.00003600  0.00003600  1
  Fe  Fe0  1  0.85001900  0.85001900  0.85001900  1
  Fe  Fe1  1  0.65038900  0.65038900  0.65038900  1
  Fe  Fe2  1  0.14917100  0.14917100  0.14917100  1
  Sb  Sb0  1  0.35021900  0.35021900  0.35021900  1
  P  P0  1  0.95818500  0.53812700  0.24897500  1
  P  P1  1  0.24897500  0.95818500  0.53812700  1
  P  P2  1  0.53812700  0.24897500  0.95818500  1
  P  P3  1  0.75254400  0.03407000  0.46214200  1
  P  P4  1  0.46214200  0.75254400  0.03407000  1
  P  P5  1  0.03407000  0.46214200  0.75254400  1
  O  O0  1  0.13458400  0.52081900  0.26276700  1
  O  O1  1  0.26276700  0.13458400  0.52081900  1
  O  O2  1  0.52081900  0.26276700  0.13458400  1
  O  O3  1  0.76193600  0.01907600  0.63250700  1
  O  O4  1  0.63250700  0.76193600  0.01907600  1
  O  O5  1  0.01907600  0.63250700  0.76193600  1
  O  O6  1  0.86922900  0.48354000  0.73010700  1
  O  O7  1  0.73010700  0.86922900  0.48354000  1
  O  O8  1  0.48354000  0.73010700  0.86922900  1
  O  O9  1  0.23389000  0.98715900  0.36543400  1
  O  O10  1  0.36543400  0.23389000  0.98715900  1
  O  O11  1  0.98715900  0.36543400  0.23389000  1
  O  O12  1  0.22124500  0.43469700  0.56922200  1
  O  O13  1  0.56922200  0.22124500  0.43469700  1
  O  O14  1  0.43469700  0.56922200  0.22124500  1
  O  O15  1  0.07401100  0.93703000  0.71767500  1
  O  O16  1  0.71767500  0.07401100  0.93703000  1
  O  O17  1  0.93703000  0.71767500  0.07401100  1
  O  O18  1  0.78383100  0.56490500  0.42623800  1
  O  O19  1  0.42623800  0.78383100  0.56490500  1
  O  O20  1  0.56490500  0.42623800  0.78383100  1
  O  O21  1  0.92150900  0.07005800  0.28023900  1
  O  O22  1  0.28023900  0.92150900  0.07005800  1
  O  O23  1  0.07005800  0.28023900  0.92150900  1
loop_
_geom_bond_atom_site_label_1
_geom_bond_atom_site_label_2
_geom_bond_distance
_geom_bond_site_symmetry_2
Fe0 O5 1.990401 1_655
Fe0 O4 1.990401 1_556
Fe0 O3 1.990401 1_565
Fe0 O16 2.065389 1_565
Fe0 O15 2.065390 1_655
Fe0 O17 2.065390 1_556
Fe1 O6 1.960536 1_555
Fe1 O7 1.960536 1_555
Fe1 O8 1.960536 1_555
Fe1 O19 2.056452 1_555
Fe1 O20 2.056452 1_555
Fe1 O18 2.056452 1_555
Fe2 O11 1.965897 1_455
Fe2 O10 1.965897 1_554
Fe2 O9 1.965897 1_545
Fe2 O22 2.053711 1_545
Fe2 O21 2.053711 1_455
Fe2 O23 2.053711 1_554
O0 P0 1.598448 1_455
O0 Sb0 1.973933 1_555
O1 P1 1.598448 1_545
O1 Sb0 1.973933 1_555
O2 P2 1.598448 1_554
O2 Sb0 1.973933 1_555
O3 P3 1.531013 1_555
O4 P4 1.531013 1_555
O5 P5 1.531013 1_555
O6 P5 1.522017 1_655
O7 P3 1.522017 1_565
O8 P4 1.522017 1_556
O9 P1 1.520591 1_555
O10 P2 1.520591 1_555
O11 P0 1.520591 1_555
O12 P5 1.611200 1_555
O12 Sb0 2.016768 1_555
O12 Sr0 2.673875 1_555
O13 P3 1.611200 1_555
O13 Sb0 2.016768 1_555
O13 Sr0 2.673875 1_555
O14 P4 1.611200 1_555
O14 Sb0 2.016768 1_555
O14 Sr0 2.673876 1_555
O15 P1 1.535279 1_555
O15 Sr1 2.591179 1_566
O16 P2 1.535279 1_555
O16 Sr1 2.591178 1_656
O17 P0 1.535279 1_555
O17 Sr1 2.591178 1_665
O18 P0 1.535278 1_555
O18 Sr0 2.535033 1_555
O19 P1 1.535277 1_555
O19 Sr0 2.535033 1_555
O20 P2 1.535278 1_555
O20 Sr0 2.535033 1_555
O21 P3 1.534755 1_555
O21 Sr1 2.595615 1_655
O22 P4 1.534755 1_555
O22 Sr1 2.595615 1_565
O23 P5 1.534755 1_555
O23 Sr1 2.595615 1_556
