# generated using pymatgen
data_Li2CoO3
_symmetry_space_group_name_H-M   'P 1'
_cell_length_a   2.97889900
_cell_length_b   5.06672064
_cell_length_c   7.46761147
_cell_angle_alpha   75.75157525
_cell_angle_beta   81.14577858
_cell_angle_gamma   75.79996494
_symmetry_Int_Tables_number   1
_chemical_formula_structural   Li2CoO3
_chemical_formula_sum   'Li4 Co2 O6'
_cell_volume   105.37924418
_cell_formula_units_Z   2
loop_
 _symmetry_equiv_pos_site_id
 _symmetry_equiv_pos_as_xyz
  1  'x, y, z'
loop_
 _atom_site_type_symbol
 _atom_site_label
 _atom_site_symmetry_multiplicity
 _atom_site_fract_x
 _atom_site_fract_y
 _atom_site_fract_z
 _atom_site_occupancy
  Li  Li0  1  0.16726500  0.51038600  0.66514500  1
  Li  Li1  1  0.83273500  0.48961400  0.33485500  1
  Li  Li2  1  0.50000000  0.50000000  0.00000000  1
  Li  Li3  1  0.50000000  0.00000000  0.50000000  1
  Co  Co0  1  0.84404900  0.99861300  0.82291200  1
  Co  Co1  1  0.15595100  0.00138700  0.17708800  1
  O  O0  1  0.51492800  0.76926100  0.75779800  1
  O  O1  1  0.17404700  0.76344200  0.38966600  1
  O  O2  1  0.84605200  0.78317700  0.06958300  1
  O  O3  1  0.82595300  0.23655800  0.61033400  1
  O  O4  1  0.48507200  0.23073900  0.24220200  1
  O  O5  1  0.15394800  0.21682300  0.93041700  1
loop_
_geom_bond_atom_site_label_1
_geom_bond_atom_site_label_2
_geom_bond_distance
_geom_bond_site_symmetry_2
Li0 O3 2.055702 1_455
Li0 O1 2.139587 1_555
Li0 O0 2.146042 1_555
Li0 O3 2.153884 1_555
Li0 O5 2.166205 1_555
Li0 O0 2.181208 1_455
Li1 O1 2.055702 1_655
Li1 O3 2.139587 1_555
Li1 O4 2.146042 1_555
Li1 O1 2.153884 1_555
Li1 O2 2.166205 1_555
Li1 O4 2.181208 1_655
Li2 O0 1.981126 1_554
Li2 O4 1.981126 1_555
Li2 O2 2.156105 1_555
Li2 O5 2.156105 1_554
Li2 O2 2.192619 1_455
Li2 O5 2.192619 1_654
Li3 O4 1.991946 1_555
Li3 O0 1.991946 1_545
Li3 O3 2.088449 1_555
Li3 O1 2.088449 1_545
Li3 O3 2.223347 1_455
Li3 O1 2.223347 1_645
Co0 O3 1.740329 1_565
Co0 O0 1.879337 1_555
Co0 O2 1.896067 1_556
Co0 O5 1.971015 1_665
Co0 O0 2.102466 1_655
Co0 O5 2.215110 1_565
Co1 O1 1.740329 1_545
Co1 O4 1.879337 1_555
Co1 O5 1.896067 1_554
Co1 O2 1.971015 1_445
Co1 O4 2.102466 1_455
Co1 O2 2.215110 1_545
