# generated using pymatgen
data_BaZr2SnO6
_symmetry_space_group_name_H-M   'P 1'
_cell_length_a   8.45713783
_cell_length_b   8.45713783
_cell_length_c   8.45592610
_cell_angle_alpha   90.00000000
_cell_angle_beta   90.00000000
_cell_angle_gamma   90.00000000
_symmetry_Int_Tables_number   1
_chemical_formula_structural   BaZr2SnO6
_chemical_formula_sum   'Ba4 Zr8 Sn4 O24'
_cell_volume   604.79472685
_cell_formula_units_Z   4
loop_
 _symmetry_equiv_pos_site_id
 _symmetry_equiv_pos_as_xyz
  1  'x, y, z'
loop_
 _atom_site_type_symbol
 _atom_site_label
 _atom_site_symmetry_multiplicity
 _atom_site_fract_x
 _atom_site_fract_y
 _atom_site_fract_z
 _atom_site_occupancy
  Ba  Ba0  1  -0.00000000  -0.00000000  0.00000000  1
  Ba  Ba1  1  -0.00000000  -0.00000000  0.50000000  1
  Ba  Ba2  1  0.50000000  -0.00000000  0.00000000  1
  Ba  Ba3  1  -0.00000000  0.50000000  0.00000000  1
  Zr  Zr0  1  0.25149273  0.25149273  0.25151045  1
  Zr  Zr1  1  0.25149273  0.25149273  0.74848955  1
  Zr  Zr2  1  0.74850727  0.25149273  0.25151045  1
  Zr  Zr3  1  0.74850727  0.25149273  0.74848955  1
  Zr  Zr4  1  0.25149273  0.74850727  0.25151045  1
  Zr  Zr5  1  0.25149273  0.74850727  0.74848955  1
  Zr  Zr6  1  0.74850727  0.74850727  0.25151045  1
  Zr  Zr7  1  0.74850727  0.74850727  0.74848955  1
  Sn  Sn0  1  0.50000000  -0.00000000  0.50000000  1
  Sn  Sn1  1  -0.00000000  0.50000000  0.50000000  1
  Sn  Sn2  1  0.50000000  0.50000000  0.00000000  1
  Sn  Sn3  1  0.50000000  0.50000000  0.50000000  1
  O  O0  1  0.25013689  0.25013689  0.00000000  1
  O  O1  1  0.25017744  0.25017744  0.50000000  1
  O  O2  1  0.74986311  0.25013689  0.00000000  1
  O  O3  1  0.74982256  0.25017744  0.50000000  1
  O  O4  1  0.25013689  0.74986311  0.00000000  1
  O  O5  1  0.25017744  0.74982256  0.50000000  1
  O  O6  1  0.74986311  0.74986311  0.00000000  1
  O  O7  1  0.74982256  0.74982256  0.50000000  1
  O  O8  1  -0.00000000  0.25011098  0.74988855  1
  O  O9  1  -0.00000000  0.25011098  0.25011145  1
  O  O10  1  0.50000000  0.25015097  0.74984684  1
  O  O11  1  0.50000000  0.25015097  0.25015316  1
  O  O12  1  -0.00000000  0.74988902  0.74988855  1
  O  O13  1  -0.00000000  0.74988902  0.25011145  1
  O  O14  1  0.50000000  0.74984903  0.74984684  1
  O  O15  1  0.50000000  0.74984903  0.25015316  1
  O  O16  1  0.25011098  -0.00000000  0.25011145  1
  O  O17  1  0.25011098  -0.00000000  0.74988855  1
  O  O18  1  0.74988902  -0.00000000  0.25011145  1
  O  O19  1  0.74988902  -0.00000000  0.74988855  1
  O  O20  1  0.25015097  0.50000000  0.25015316  1
  O  O21  1  0.25015097  0.50000000  0.74984684  1
  O  O22  1  0.74984903  0.50000000  0.25015316  1
  O  O23  1  0.74984903  0.50000000  0.74984684  1
loop_
_geom_bond_atom_site_label_1
_geom_bond_atom_site_label_2
_geom_bond_distance
_geom_bond_site_symmetry_2
Ba0 O18 2.991166 1_455
Ba0 O13 2.991166 1_545
Ba0 O19 2.991166 1_454
Ba0 O12 2.991166 1_544
Ba0 O16 2.991166 1_555
Ba0 O9 2.991166 1_555
Ba0 O8 2.991166 1_554
Ba0 O17 2.991166 1_554
Ba0 O4 2.991687 1_545
Ba0 O2 2.991687 1_455
Ba0 O6 2.991687 1_445
Ba0 O0 2.991687 1_555
Ba1 O16 2.989833 1_555
Ba1 O9 2.989833 1_555
Ba1 O12 2.989833 1_545
Ba1 O17 2.989833 1_555
Ba1 O18 2.989833 1_455
Ba1 O8 2.989833 1_555
Ba1 O19 2.989833 1_455
Ba1 O13 2.989833 1_545
Ba1 O7 2.992172 1_445
Ba1 O1 2.992172 1_555
Ba1 O5 2.992172 1_545
Ba1 O3 2.992172 1_455
Ba2 O18 2.989838 1_555
Ba2 O19 2.989838 1_554
Ba2 O16 2.989838 1_555
Ba2 O17 2.989838 1_554
Ba2 O4 2.990050 1_545
Ba2 O6 2.990050 1_545
Ba2 O0 2.990050 1_555
Ba2 O2 2.990050 1_555
Ba2 O10 2.991654 1_554
Ba2 O15 2.991654 1_545
Ba2 O11 2.991654 1_555
Ba2 O14 2.991654 1_544
Ba3 O12 2.989838 1_554
Ba3 O13 2.989838 1_555
Ba3 O9 2.989838 1_555
Ba3 O8 2.989838 1_554
Ba3 O0 2.990050 1_555
Ba3 O2 2.990050 1_455
Ba3 O6 2.990050 1_455
Ba3 O4 2.990050 1_555
Ba3 O23 2.991654 1_454
Ba3 O20 2.991654 1_555
Ba3 O21 2.991654 1_554
Ba3 O22 2.991654 1_455
O0 Zr0 2.126816 1_555
O0 Zr1 2.126816 1_554
O1 Zr1 2.101268 1_555
O1 Zr0 2.101268 1_555
O2 Zr2 2.126816 1_555
O2 Zr3 2.126816 1_554
O3 Zr3 2.101268 1_555
O3 Zr2 2.101268 1_555
O4 Zr4 2.126816 1_555
O4 Zr5 2.126816 1_554
O5 Zr5 2.101268 1_555
O5 Zr4 2.101268 1_555
O6 Zr6 2.126816 1_555
O6 Zr7 2.126816 1_554
O7 Zr7 2.101268 1_555
O7 Zr6 2.101268 1_555
O8 Zr1 2.126974 1_555
O8 Zr3 2.126974 1_455
O9 Zr0 2.126974 1_555
O9 Zr2 2.126974 1_455
O10 Zr3 2.101722 1_555
O10 Zr1 2.101722 1_555
O11 Zr2 2.101722 1_555
O11 Zr0 2.101722 1_555
O12 Zr5 2.126974 1_555
O12 Zr7 2.126974 1_455
O13 Zr4 2.126974 1_555
O13 Zr6 2.126974 1_455
O14 Zr7 2.101722 1_555
O14 Zr5 2.101722 1_555
O15 Zr6 2.101722 1_555
O15 Zr4 2.101722 1_555
O16 Zr0 2.126974 1_555
O16 Zr4 2.126974 1_545
O17 Zr1 2.126974 1_555
O17 Zr5 2.126974 1_545
O18 Zr2 2.126974 1_555
O18 Zr6 2.126974 1_545
O19 Zr3 2.126974 1_555
O19 Zr7 2.126974 1_545
O20 Zr4 2.101722 1_555
O20 Zr0 2.101722 1_555
O21 Zr5 2.101722 1_555
O21 Zr1 2.101722 1_555
O22 Zr6 2.101722 1_555
O22 Zr2 2.101722 1_555
O23 Zr7 2.101722 1_555
O23 Zr3 2.101722 1_555
