# generated using pymatgen
data_Ba3LiTi3O8
_symmetry_space_group_name_H-M   'P 1'
_cell_length_a   5.60436715
_cell_length_b   6.46844138
_cell_length_c   7.46715703
_cell_angle_alpha   101.44093497
_cell_angle_beta   91.46718990
_cell_angle_gamma   116.69359557
_symmetry_Int_Tables_number   1
_chemical_formula_structural   Ba3LiTi3O8
_chemical_formula_sum   'Ba3 Li1 Ti3 O8'
_cell_volume   234.99728441
_cell_formula_units_Z   1
loop_
 _symmetry_equiv_pos_site_id
 _symmetry_equiv_pos_as_xyz
  1  'x, y, z'
loop_
 _atom_site_type_symbol
 _atom_site_label
 _atom_site_symmetry_multiplicity
 _atom_site_fract_x
 _atom_site_fract_y
 _atom_site_fract_z
 _atom_site_occupancy
  Ba  Ba0  1  0.97743100  0.94052500  0.04028400  1
  Ba  Ba1  1  0.29481400  0.58952100  0.70402800  1
  Ba  Ba2  1  0.69875700  0.38088000  0.31805000  1
  Li  Li0  1  0.48477600  0.99115300  0.48933700  1
  Ti  Ti0  1  0.96770100  0.97042200  0.54327300  1
  Ti  Ti1  1  0.32121600  0.60727500  0.17458900  1
  Ti  Ti2  1  0.64406400  0.28789600  0.85076600  1
  O  O0  1  0.00894000  0.52366900  0.00220500  1
  O  O1  1  0.19338000  0.38392200  0.30600500  1
  O  O2  1  0.52920900  0.04800300  0.96903500  1
  O  O3  1  0.66949700  0.84018900  0.33292100  1
  O  O4  1  0.34129100  0.17710900  0.64219200  1
  O  O5  1  0.51170900  0.50738700  0.99055900  1
  O  O6  1  0.86160100  0.72691300  0.65556100  1
  O  O7  1  0.82894300  0.19180600  0.64789500  1
loop_
_geom_bond_atom_site_label_1
_geom_bond_atom_site_label_2
_geom_bond_distance
_geom_bond_site_symmetry_2
Ba0 O0 2.740229 1_655
Ba0 O5 2.787057 1_554
Ba0 O3 2.814945 1_555
Ba0 O6 2.847351 1_554
Ba0 O1 2.851040 1_665
Ba0 O2 2.937444 1_664
Ba0 O2 2.953614 1_564
Ba1 O7 2.663142 1_455
Ba1 O5 2.689905 1_555
Ba1 O4 2.745771 1_555
Ba1 O0 2.766143 1_556
Ba1 O2 2.911224 1_565
Ba1 O1 2.931105 1_555
Ba1 O6 2.942962 1_555
Ba1 O6 2.972636 1_455
Ba2 O1 2.767164 1_655
Ba2 O6 2.829055 1_555
Ba2 O1 2.840463 1_555
Ba2 O2 2.853064 1_554
Ba2 O0 3.011476 1_655
Li0 O4 1.941037 1_565
Li0 O7 1.957297 1_565
Li0 O3 1.976656 1_555
O0 Ti1 1.941756 1_555
O0 Ti2 2.044932 1_454
O1 Ti1 1.797783 1_555
O2 Ti2 1.810390 1_555
O3 Ti1 2.002663 1_555
O3 Ti0 2.011384 1_555
O4 Ti0 1.931545 1_445
O4 Ti2 2.036641 1_555
O5 Ti1 1.946336 1_556
O5 Ti2 2.013322 1_555
O6 Ti0 1.801560 1_555
O7 Ti0 1.963036 1_545
O7 Ti2 2.010017 1_555
