# generated using pymatgen
data_Li3Co2O5
_symmetry_space_group_name_H-M   'P 1'
_cell_length_a   10.38399391
_cell_length_b   10.38399391
_cell_length_c   5.94769925
_cell_angle_alpha   82.61546620
_cell_angle_beta   82.61546620
_cell_angle_gamma   16.17543845
_symmetry_Int_Tables_number   1
_chemical_formula_structural   Li3Co2O5
_chemical_formula_sum   'Li6 Co4 O10'
_cell_volume   177.14794184
_cell_formula_units_Z   2
loop_
 _symmetry_equiv_pos_site_id
 _symmetry_equiv_pos_as_xyz
  1  'x, y, z'
loop_
 _atom_site_type_symbol
 _atom_site_label
 _atom_site_symmetry_multiplicity
 _atom_site_fract_x
 _atom_site_fract_y
 _atom_site_fract_z
 _atom_site_occupancy
  Li  Li0  1  0.90214000  0.90214000  0.79194600  1
  Li  Li1  1  0.69732200  0.69732200  0.40225500  1
  Li  Li2  1  0.50000000  0.50000000  0.00000000  1
  Li  Li3  1  0.30267800  0.30267800  0.59774500  1
  Li  Li4  1  0.09786000  0.09786000  0.20805400  1
  Li  Li5  1  0.50000000  0.50000000  0.50000000  1
  Co  Co0  1  0.09426000  0.09426000  0.69673100  1
  Co  Co1  1  0.90574000  0.90574000  0.30326900  1
  Co  Co2  1  0.69797800  0.69797800  0.90561200  1
  Co  Co3  1  0.30202200  0.30202200  0.09438800  1
  O  O0  1  0.80898800  0.80898800  0.33155300  1
  O  O1  1  0.60025900  0.60025900  0.93464400  1
  O  O2  1  0.40029400  0.40029400  0.52934200  1
  O  O3  1  0.20196900  0.20196900  0.14110700  1
  O  O4  1  0.00941400  0.00941400  0.74580300  1
  O  O5  1  0.99058600  0.99058600  0.25419700  1
  O  O6  1  0.79803100  0.79803100  0.85889300  1
  O  O7  1  0.59970600  0.59970600  0.47065800  1
  O  O8  1  0.39974100  0.39974100  0.06535600  1
  O  O9  1  0.19101200  0.19101200  0.66844700  1
loop_
_geom_bond_atom_site_label_1
_geom_bond_atom_site_label_2
_geom_bond_distance
_geom_bond_site_symmetry_2
Li0 O6 2.125920 1_555
Li0 O2 2.142569 1_565
Li0 O2 2.142569 1_655
Li0 O8 2.181805 1_566
Li0 O8 2.181805 1_656
Li0 O4 2.187073 1_665
Li1 O7 1.995508 1_555
Li1 O3 2.125415 1_655
Li1 O3 2.125415 1_565
Li1 O9 2.145784 1_565
Li1 O9 2.145784 1_655
Li1 O0 2.279873 1_555
Li2 O1 2.047607 1_554
Li2 O8 2.047607 1_555
Li2 O5 2.093217 1_455
Li2 O4 2.093217 1_564
Li2 O5 2.093217 1_545
Li2 O4 2.093217 1_654
Li3 O2 1.995508 1_555
Li3 O6 2.125415 1_545
Li3 O6 2.125415 1_455
Li3 O0 2.145784 1_455
Li3 O0 2.145784 1_545
Li3 O9 2.279873 1_555
Li4 O3 2.125920 1_555
Li4 O7 2.142569 1_545
Li4 O7 2.142569 1_455
Li4 O1 2.181805 1_544
Li4 O1 2.181805 1_454
Li4 O5 2.187073 1_445
Li5 O7 2.034813 1_555
Li5 O2 2.034813 1_555
Li5 O4 2.093453 1_655
Li5 O4 2.093453 1_565
Li5 O5 2.093453 1_545
Li5 O5 2.093453 1_455
Co0 O4 1.731027 1_555
Co0 O9 1.974578 1_555
Co0 O7 1.978814 1_455
Co0 O7 1.978814 1_545
Co0 O1 2.048689 1_545
Co0 O1 2.048689 1_455
Co1 O5 1.731027 1_555
Co1 O0 1.974578 1_555
Co1 O2 1.978814 1_655
Co1 O2 1.978814 1_565
Co1 O8 2.048689 1_655
Co1 O8 2.048689 1_565
Co2 O1 1.994189 1_555
Co2 O3 2.032898 1_566
Co2 O3 2.032898 1_656
Co2 O6 2.039852 1_555
Co2 O9 2.048657 1_655
Co2 O9 2.048657 1_565
Co3 O8 1.994189 1_555
Co3 O6 2.032898 1_544
Co3 O6 2.032898 1_454
Co3 O3 2.039852 1_555
Co3 O0 2.048657 1_455
Co3 O0 2.048657 1_545
