# generated using pymatgen
data_MgCuBiO5
_symmetry_space_group_name_H-M   'P 1'
_cell_length_a   10.30540900
_cell_length_b   5.39152400
_cell_length_c   8.51683592
_cell_angle_alpha   71.54323706
_cell_angle_beta   90.00000000
_cell_angle_gamma   90.00000000
_symmetry_Int_Tables_number   1
_chemical_formula_structural   MgCuBiO5
_chemical_formula_sum   'Mg4 Cu4 Bi4 O20'
_cell_volume   448.87059835
_cell_formula_units_Z   4
loop_
 _symmetry_equiv_pos_site_id
 _symmetry_equiv_pos_as_xyz
  1  'x, y, z'
loop_
 _atom_site_type_symbol
 _atom_site_label
 _atom_site_symmetry_multiplicity
 _atom_site_fract_x
 _atom_site_fract_y
 _atom_site_fract_z
 _atom_site_occupancy
  Mg  Mg0  1  0.10003600  0.51125900  0.84373400  1
  Mg  Mg1  1  0.89996400  0.48874100  0.15626600  1
  Mg  Mg2  1  0.60003600  0.48874100  0.65626600  1
  Mg  Mg3  1  0.39996400  0.51125900  0.34373400  1
  Cu  Cu0  1  0.38024600  0.05998600  0.07037800  1
  Cu  Cu1  1  0.61975400  0.94001400  0.92962200  1
  Cu  Cu2  1  0.88024600  0.94001400  0.42962200  1
  Cu  Cu3  1  0.11975400  0.05998600  0.57037800  1
  Bi  Bi0  1  0.90611500  0.04561100  0.83314700  1
  Bi  Bi1  1  0.09388500  0.95438900  0.16685300  1
  Bi  Bi2  1  0.59388500  0.04561100  0.33314700  1
  Bi  Bi3  1  0.40611500  0.95438900  0.66685300  1
  O  O0  1  0.97165300  0.84930300  0.64915300  1
  O  O1  1  0.03639300  0.31162300  0.68899400  1
  O  O2  1  0.78010700  0.20412200  0.27552600  1
  O  O3  1  0.46340700  0.74775200  0.49039100  1
  O  O4  1  0.72545000  0.76700300  0.49424800  1
  O  O5  1  0.77455000  0.76700300  0.99424800  1
  O  O6  1  0.46360700  0.31162300  0.18899400  1
  O  O7  1  0.53639300  0.68837700  0.81100600  1
  O  O8  1  0.53659300  0.25224800  0.50960900  1
  O  O9  1  0.47165300  0.15069700  0.85084700  1
  O  O10  1  0.27455000  0.23299700  0.50575200  1
  O  O11  1  0.02834700  0.15069700  0.35084700  1
  O  O12  1  0.52834700  0.84930300  0.14915300  1
  O  O13  1  0.22545000  0.23299700  0.00575200  1
  O  O14  1  0.96340700  0.25224800  0.00960900  1
  O  O15  1  0.03659300  0.74775200  0.99039100  1
  O  O16  1  0.21989300  0.79587800  0.72447400  1
  O  O17  1  0.96360700  0.68837700  0.31100600  1
  O  O18  1  0.28010700  0.79587800  0.22447400  1
  O  O19  1  0.71989300  0.20412200  0.77552600  1
loop_
_geom_bond_atom_site_label_1
_geom_bond_atom_site_label_2
_geom_bond_distance
_geom_bond_site_symmetry_2
Mg0 O16 1.981217 1_555
Mg0 O1 2.055162 1_555
Mg0 O13 2.124726 1_556
Mg0 O15 2.149832 1_555
Mg0 O14 2.163165 1_456
Mg0 O0 2.430250 1_455
Mg1 O2 1.981217 1_555
Mg1 O17 2.055162 1_555
Mg1 O5 2.124726 1_554
Mg1 O14 2.149832 1_555
Mg1 O15 2.163165 1_654
Mg1 O11 2.430250 1_655
Mg2 O19 1.981217 1_555
Mg2 O7 2.055162 1_555
Mg2 O4 2.124726 1_555
Mg2 O8 2.149832 1_555
Mg2 O3 2.163165 1_555
Mg2 O9 2.430250 1_555
Mg3 O18 1.981217 1_555
Mg3 O6 2.055162 1_555
Mg3 O10 2.124726 1_555
Mg3 O3 2.149832 1_555
Mg3 O8 2.163165 1_555
Mg3 O12 2.430250 1_555
Cu0 O13 1.841941 1_555
Cu0 O12 1.894010 1_545
Cu0 O18 1.905709 1_545
Cu0 O9 2.010809 1_554
Cu0 O6 2.113540 1_555
Cu1 O5 1.841941 1_555
Cu1 O9 1.894010 1_565
Cu1 O19 1.905709 1_565
Cu1 O12 2.010809 1_556
Cu1 O7 2.113540 1_555
Cu2 O4 1.841941 1_555
Cu2 O11 1.894010 1_665
Cu2 O2 1.905709 1_565
Cu2 O0 2.010809 1_555
Cu2 O17 2.113540 1_555
Cu3 O10 1.841941 1_555
Cu3 O0 1.894010 1_445
Cu3 O16 1.905709 1_545
Cu3 O11 2.010809 1_555
Cu3 O1 2.113540 1_555
Bi0 O1 2.062002 1_655
Bi0 O19 2.094891 1_555
Bi0 O5 2.161535 1_545
Bi0 O15 2.195163 1_645
Bi0 O14 2.215549 1_556
Bi0 O0 2.254366 1_545
Bi1 O17 2.062002 1_455
Bi1 O18 2.094891 1_555
Bi1 O13 2.161535 1_565
Bi1 O14 2.195163 1_465
Bi1 O15 2.215549 1_554
Bi1 O11 2.254366 1_565
Bi2 O6 2.062002 1_555
Bi2 O2 2.094891 1_555
Bi2 O4 2.161535 1_545
Bi2 O3 2.195163 1_545
Bi2 O8 2.215549 1_555
Bi2 O12 2.254366 1_545
Bi3 O7 2.062002 1_555
Bi3 O16 2.094891 1_555
Bi3 O10 2.161535 1_565
Bi3 O8 2.195163 1_565
Bi3 O3 2.215549 1_555
Bi3 O9 2.254366 1_565
