# generated using pymatgen
data_CeTiNbO6
_symmetry_space_group_name_H-M   'P 1'
_cell_length_a   5.35731700
_cell_length_b   7.55207800
_cell_length_c   11.18033000
_cell_angle_alpha   90.00000000
_cell_angle_beta   90.00000000
_cell_angle_gamma   90.00000000
_symmetry_Int_Tables_number   1
_chemical_formula_structural   CeTiNbO6
_chemical_formula_sum   'Ce4 Ti4 Nb4 O24'
_cell_volume   452.34358348
_cell_formula_units_Z   4
loop_
 _symmetry_equiv_pos_site_id
 _symmetry_equiv_pos_as_xyz
  1  'x, y, z'
loop_
 _atom_site_type_symbol
 _atom_site_label
 _atom_site_symmetry_multiplicity
 _atom_site_fract_x
 _atom_site_fract_y
 _atom_site_fract_z
 _atom_site_occupancy
  Ce  Ce0  1  0.54735400  0.74970700  0.04185300  1
  Ce  Ce1  1  0.95264600  0.74970700  0.54185300  1
  Ce  Ce2  1  0.45264600  0.24970700  0.95814700  1
  Ce  Ce3  1  0.04735400  0.24970700  0.45814700  1
  Ti  Ti0  1  0.52808900  0.99143100  0.35869900  1
  Ti  Ti1  1  0.47191100  0.49143100  0.64130100  1
  Ti  Ti2  1  0.02808900  0.49143100  0.14130100  1
  Ti  Ti3  1  0.97191100  0.99143100  0.85869900  1
  Nb  Nb0  1  0.96638100  0.50558200  0.85282000  1
  Nb  Nb1  1  0.03361900  0.00558200  0.14718000  1
  Nb  Nb2  1  0.46638100  0.00558200  0.64718000  1
  Nb  Nb3  1  0.53361900  0.50558200  0.35282000  1
  O  O0  1  0.87461400  0.43820500  0.28801800  1
  O  O1  1  0.63316200  0.06451200  0.79087000  1
  O  O2  1  0.12538600  0.93820500  0.71198200  1
  O  O3  1  0.36683800  0.56451200  0.20913000  1
  O  O4  1  0.13316200  0.56451200  0.70913000  1
  O  O5  1  0.37461400  0.93820500  0.21198200  1
  O  O6  1  0.86683800  0.06451200  0.29087000  1
  O  O7  1  0.62538600  0.43820500  0.78801800  1
  O  O8  1  0.93830300  0.74749000  0.14458800  1
  O  O9  1  0.56169700  0.74749000  0.64458800  1
  O  O10  1  0.06169700  0.24749000  0.85541200  1
  O  O11  1  0.43830300  0.24749000  0.35541200  1
  O  O12  1  0.65990200  0.75292100  0.38130300  1
  O  O13  1  0.84009800  0.75292100  0.88130300  1
  O  O14  1  0.34009800  0.25292100  0.61869700  1
  O  O15  1  0.15990200  0.25292100  0.11869700  1
  O  O16  1  0.76172900  0.46012500  0.02624400  1
  O  O17  1  0.73483300  0.04002800  0.52474300  1
  O  O18  1  0.23827100  0.96012500  0.97375600  1
  O  O19  1  0.26516700  0.54002800  0.47525700  1
  O  O20  1  0.23483300  0.54002800  0.97525700  1
  O  O21  1  0.26172900  0.96012500  0.47375600  1
  O  O22  1  0.76516700  0.04002800  0.02474300  1
  O  O23  1  0.73827100  0.46012500  0.52624400  1
loop_
_geom_bond_atom_site_label_1
_geom_bond_atom_site_label_2
_geom_bond_distance
_geom_bond_site_symmetry_2
Ce0 O13 2.383748 1_554
Ce0 O8 2.388777 1_555
Ce0 O18 2.418000 1_554
Ce0 O20 2.421793 1_554
Ce0 O16 2.476324 1_555
Ce0 O22 2.491066 1_565
Ce0 O3 2.527655 1_555
Ce0 O5 2.549683 1_555
Ce1 O12 2.383748 1_555
Ce1 O9 2.388777 1_555
Ce1 O21 2.418000 1_655
Ce1 O19 2.421793 1_655
Ce1 O23 2.476324 1_555
Ce1 O17 2.491066 1_565
Ce1 O4 2.527655 1_655
Ce1 O2 2.549683 1_655
Ce2 O15 2.383748 1_556
Ce2 O10 2.388777 1_555
Ce2 O16 2.418000 1_556
Ce2 O22 2.421793 1_556
Ce2 O18 2.476324 1_545
Ce2 O20 2.491066 1_555
Ce2 O1 2.527655 1_555
Ce2 O7 2.549683 1_555
Ce3 O14 2.383748 1_555
Ce3 O11 2.388777 1_555
Ce3 O23 2.418000 1_455
Ce3 O17 2.421793 1_455
Ce3 O21 2.476324 1_545
Ce3 O19 2.491066 1_555
Ce3 O6 2.527655 1_455
Ce3 O0 2.549683 1_455
Nb0 O4 1.891362 1_655
Nb0 O20 2.002471 1_655
Nb0 O13 2.012027 1_555
Nb0 O10 2.015118 1_655
Nb0 O7 2.030047 1_555
Nb0 O16 2.253751 1_556
Nb1 O6 1.891362 1_455
Nb1 O22 2.002471 1_455
Nb1 O15 2.012027 1_555
Nb1 O8 2.015118 1_445
Nb1 O5 2.030047 1_545
Nb1 O18 2.253751 1_544
Nb2 O1 1.891362 1_555
Nb2 O17 2.002471 1_555
Nb2 O14 2.012027 1_555
Nb2 O9 2.015118 1_545
Nb2 O2 2.030047 1_545
Nb2 O21 2.253751 1_545
Nb3 O3 1.891362 1_555
Nb3 O19 2.002471 1_555
Nb3 O12 2.012027 1_555
Nb3 O11 2.015118 1_555
Nb3 O0 2.030047 1_555
Nb3 O23 2.253751 1_555
O0 Ti2 1.878389 1_655
O1 Ti3 2.042829 1_545
O2 Ti3 1.878389 1_455
O3 Ti2 2.042829 1_555
O4 Ti1 2.042829 1_555
O5 Ti0 1.878389 1_555
O6 Ti0 2.042829 1_545
O7 Ti1 1.878389 1_555
O8 Ti2 1.993043 1_655
O9 Ti1 1.993043 1_555
O10 Ti3 1.993043 1_445
O11 Ti0 1.993043 1_545
O12 Ti0 1.951159 1_555
O13 Ti3 1.951159 1_555
O14 Ti1 1.951159 1_555
O15 Ti2 1.951159 1_555
O16 Ti2 1.935695 1_655
O17 Ti0 2.192665 1_545
O18 Ti3 1.935695 1_455
O19 Ti1 2.192665 1_555
O20 Ti2 2.192665 1_556
O21 Ti0 1.935695 1_555
O22 Ti3 2.192665 1_544
O23 Ti1 1.935695 1_555
