# generated using pymatgen
data_SrMg14Mn
_symmetry_space_group_name_H-M   'P 1'
_cell_length_a   6.52403492
_cell_length_b   6.52403437
_cell_length_c   10.45000596
_cell_angle_alpha   90.00000000
_cell_angle_beta   90.00000000
_cell_angle_gamma   120.00000279
_symmetry_Int_Tables_number   1
_chemical_formula_structural   SrMg14Mn
_chemical_formula_sum   'Sr1 Mg14 Mn1'
_cell_volume   385.19414293
_cell_formula_units_Z   1
loop_
 _symmetry_equiv_pos_site_id
 _symmetry_equiv_pos_as_xyz
  1  'x, y, z'
loop_
 _atom_site_type_symbol
 _atom_site_label
 _atom_site_symmetry_multiplicity
 _atom_site_fract_x
 _atom_site_fract_y
 _atom_site_fract_z
 _atom_site_occupancy
  Sr  Sr0  1  0.16666700  0.33333300  0.62500000  1
  Mg  Mg0  1  0.16445983  0.83222942  0.12500000  1
  Mg  Mg1  1  0.17873042  0.83936471  0.62500000  1
  Mg  Mg2  1  0.66777058  0.33554017  0.12500000  1
  Mg  Mg3  1  0.66063529  0.32126958  0.62500000  1
  Mg  Mg4  1  0.66777058  0.83222942  0.12500000  1
  Mg  Mg5  1  0.66063529  0.83936471  0.62500000  1
  Mg  Mg6  1  0.33444622  0.16555378  0.35754117  1
  Mg  Mg7  1  0.33444622  0.16555378  0.89245883  1
  Mg  Mg8  1  0.33444622  0.66889344  0.35754117  1
  Mg  Mg9  1  0.33444622  0.66889344  0.89245883  1
  Mg  Mg10  1  0.83110656  0.16555378  0.35754117  1
  Mg  Mg11  1  0.83110656  0.16555378  0.89245883  1
  Mg  Mg12  1  0.83333300  0.66666700  0.38143359  1
  Mg  Mg13  1  0.83333300  0.66666700  0.86856641  1
  Mn  Mn0  1  0.16666700  0.33333300  0.12500000  1
loop_
_geom_bond_atom_site_label_1
_geom_bond_atom_site_label_2
_geom_bond_distance
_geom_bond_site_symmetry_2
Mg0 Mg9 3.074464 1_554
Mg0 Mg8 3.074464 1_555
Mg0 Mg7 3.074471 1_564
Mg0 Mg6 3.074471 1_565
Mg0 Mg2 3.240418 1_455
Mg0 Mg4 3.240418 1_455
Mg0 Mn0 3.262041 1_565
Mg0 Mn0 3.262041 1_555
Mg0 Mg13 3.268193 1_454
Mg0 Mg12 3.268193 1_455
Mg0 Mg2 3.283617 1_565
Mg0 Mg4 3.283617 1_555
Mg1 Mg3 3.143964 1_565
Mg1 Mg5 3.143964 1_555
Mg1 Mg12 3.207290 1_455
Mg1 Mg13 3.207290 1_455
Mg1 Sr0 3.262729 1_555
Mg1 Sr0 3.262729 1_565
Mg1 Mg9 3.348210 1_555
Mg1 Mg8 3.348210 1_555
Mg1 Mg6 3.348216 1_565
Mg1 Mg7 3.348216 1_565
Mg1 Mg3 3.380070 1_455
Mg1 Mg5 3.380071 1_455
Mg2 Mg7 3.074471 1_554
Mg2 Mg6 3.074471 1_555
Mg2 Mg4 3.240418 1_555
Mg2 Mn0 3.262041 1_555
Mg2 Mn0 3.262041 1_655
Mg2 Mg4 3.283617 1_545
Mg3 Mg5 3.143964 1_545
Mg3 Sr0 3.262729 1_655
Mg3 Sr0 3.262729 1_555
Mg3 Mg6 3.348216 1_555
Mg3 Mg7 3.348216 1_555
Mg3 Mg5 3.380070 1_555
Mg4 Mg9 3.074471 1_554
Mg4 Mg8 3.074471 1_555
Mg4 Mn0 3.262041 1_665
Mg4 Mn0 3.262041 1_555
Mg5 Sr0 3.262729 1_555
Mg5 Sr0 3.262729 1_665
Mg5 Mg8 3.348216 1_555
Mg5 Mg9 3.348216 1_555
Mg6 Mn0 3.082143 1_555
Mg6 Mg8 3.240229 1_545
Mg6 Mg8 3.283805 1_555
Mg6 Sr0 3.377300 1_555
Mg7 Mn0 3.082143 1_556
Mg7 Mg9 3.240229 1_545
Mg7 Mg9 3.283805 1_555
Mg7 Sr0 3.377300 1_555
Mg8 Mn0 3.082150 1_555
Mg8 Sr0 3.377306 1_555
Mg9 Mn0 3.082150 1_556
Mg9 Sr0 3.377306 1_555
Mg10 Mg2 3.074464 1_555
Mg10 Mg4 3.074471 1_545
Mg10 Mn0 3.082150 1_655
Mg10 Mg8 3.240229 1_545
Mg10 Mg6 3.240229 1_555
Mg10 Mg12 3.271583 1_555
Mg10 Mg12 3.271583 1_545
Mg10 Mg8 3.283805 1_655
Mg10 Mg6 3.283806 1_655
Mg10 Mg3 3.348210 1_555
Mg10 Mg5 3.348216 1_545
Mg10 Sr0 3.377306 1_655
Mg11 Mg2 3.074464 1_556
Mg11 Mg4 3.074471 1_546
Mg11 Mn0 3.082150 1_656
Mg11 Mg9 3.240229 1_545
Mg11 Mg7 3.240229 1_555
Mg11 Mg13 3.271583 1_555
Mg11 Mg13 3.271583 1_545
Mg11 Mg9 3.283805 1_655
Mg11 Mg7 3.283806 1_655
Mg11 Mg3 3.348210 1_555
Mg11 Mg5 3.348216 1_545
Mg11 Sr0 3.377306 1_655
Mg12 Mg5 3.207283 1_555
Mg12 Mg3 3.207290 1_555
Mg12 Mg4 3.268186 1_555
Mg12 Mg2 3.268193 1_555
Mg12 Mg6 3.271583 1_555
Mg12 Mg6 3.271583 1_665
Mg12 Mg8 3.271583 1_655
Mg12 Mg8 3.271583 1_555
Mg13 Mg5 3.207283 1_555
Mg13 Mg3 3.207290 1_555
Mg13 Mg4 3.268186 1_556
Mg13 Mg2 3.268193 1_556
Mg13 Mg7 3.271583 1_555
Mg13 Mg7 3.271583 1_665
Mg13 Mg9 3.271583 1_555
Mg13 Mg9 3.271583 1_655
