# generated using pymatgen
data_Cu2WO4
_symmetry_space_group_name_H-M   'P 1'
_cell_length_a   5.76992361
_cell_length_b   8.45947645
_cell_length_c   9.66740987
_cell_angle_alpha   119.70788235
_cell_angle_beta   80.97764478
_cell_angle_gamma   98.53725071
_symmetry_Int_Tables_number   1
_chemical_formula_structural   Cu2WO4
_chemical_formula_sum   'Cu8 W4 O16'
_cell_volume   403.40070346
_cell_formula_units_Z   4
loop_
 _symmetry_equiv_pos_site_id
 _symmetry_equiv_pos_as_xyz
  1  'x, y, z'
loop_
 _atom_site_type_symbol
 _atom_site_label
 _atom_site_symmetry_multiplicity
 _atom_site_fract_x
 _atom_site_fract_y
 _atom_site_fract_z
 _atom_site_occupancy
  Cu  Cu0  1  0.02083200  0.11128200  0.37452900  1
  Cu  Cu1  1  0.64914600  0.17904000  0.84500600  1
  Cu  Cu2  1  0.35085300  0.82096000  0.15499400  1
  Cu  Cu3  1  0.49276000  0.87063700  0.84921100  1
  Cu  Cu4  1  0.97916800  0.88871800  0.62547100  1
  Cu  Cu5  1  0.32977000  0.45286000  0.84179200  1
  Cu  Cu6  1  0.50724000  0.12936300  0.15078900  1
  Cu  Cu7  1  0.67023000  0.54714000  0.15820800  1
  W  W0  1  0.27961000  0.50683800  0.41445100  1
  W  W1  1  0.72039000  0.49316300  0.58554900  1
  W  W2  1  0.07564800  0.20317800  0.00627800  1
  W  W3  1  0.92435200  0.79682200  0.99372200  1
  O  O0  1  0.45134900  0.64770300  0.60093400  1
  O  O1  1  0.60269300  0.36814000  0.69014900  1
  O  O2  1  0.91930600  0.40776500  0.11076800  1
  O  O3  1  0.54865100  0.35229700  0.39906600  1
  O  O4  1  0.39730700  0.63186000  0.30985100  1
  O  O5  1  0.23091000  0.27255400  0.21131900  1
  O  O6  1  0.81726900  0.05653700  0.07683200  1
  O  O7  1  0.36825900  0.28556200  0.93095000  1
  O  O8  1  0.95916800  0.11910700  0.79894300  1
  O  O9  1  0.08069400  0.59223500  0.88923200  1
  O  O10  1  0.99008900  0.63748000  0.49335500  1
  O  O11  1  0.76909000  0.72744600  0.78868100  1
  O  O12  1  0.18273100  0.94346300  0.92316800  1
  O  O13  1  0.63174100  0.71443800  0.06905000  1
  O  O14  1  0.04083200  0.88089300  0.20105700  1
  O  O15  1  0.00991100  0.36252000  0.50664500  1
loop_
_geom_bond_atom_site_label_1
_geom_bond_atom_site_label_2
_geom_bond_distance
_geom_bond_site_symmetry_2
Cu0 O14 1.841393 1_545
Cu0 O15 1.864494 1_555
Cu0 O5 2.619683 1_555
Cu1 O7 1.843419 1_555
Cu1 O8 1.857640 1_555
Cu2 O13 1.843424 1_555
Cu2 O14 1.857635 1_555
Cu3 O12 1.892136 1_555
Cu3 O11 1.982443 1_555
Cu3 O0 2.221315 1_555
Cu4 O8 1.841393 1_565
Cu4 O10 1.864494 1_555
Cu4 O11 2.619683 1_555
Cu5 O9 1.851023 1_555
Cu5 O1 1.926723 1_555
Cu5 O7 2.039017 1_555
Cu6 O6 1.892136 1_555
Cu6 O5 1.982443 1_555
Cu6 O3 2.221315 1_555
Cu7 O2 1.851023 1_555
Cu7 O4 1.926723 1_555
Cu7 O13 2.039017 1_555
O0 W0 1.931956 1_555
O0 W1 2.116226 1_555
O1 W1 1.798251 1_555
O2 W2 1.809532 1_655
O3 W1 1.931957 1_555
O3 W0 2.116232 1_555
O4 W0 1.798244 1_555
O5 W0 2.003358 1_555
O5 W2 2.079415 1_555
O6 W2 2.048723 1_655
O6 W3 2.086157 1_544
O7 W2 1.906458 1_556
O8 W2 1.960297 1_656
O9 W3 1.809532 1_455
O10 W0 1.976559 1_655
O10 W1 2.187657 1_555
O11 W1 2.003354 1_555
O11 W3 2.079415 1_555
O12 W3 2.048723 1_455
O12 W2 2.086157 1_566
O13 W3 1.906458 1_554
O14 W3 1.960297 1_454
O15 W1 1.976563 1_455
O15 W0 2.187663 1_555
