# generated using pymatgen
data_Lu3Pt
_symmetry_space_group_name_H-M   'P 1'
_cell_length_a   6.31913789
_cell_length_b   6.87020434
_cell_length_c   9.29548763
_cell_angle_alpha   89.99625011
_cell_angle_beta   90.00286267
_cell_angle_gamma   89.99856505
_symmetry_Int_Tables_number   1
_chemical_formula_structural   Lu3Pt
_chemical_formula_sum   'Lu12 Pt4'
_cell_volume   403.55214741
_cell_formula_units_Z   4
loop_
 _symmetry_equiv_pos_site_id
 _symmetry_equiv_pos_as_xyz
  1  'x, y, z'
loop_
 _atom_site_type_symbol
 _atom_site_label
 _atom_site_symmetry_multiplicity
 _atom_site_fract_x
 _atom_site_fract_y
 _atom_site_fract_z
 _atom_site_occupancy
  Lu  Lu0  1  0.31485807  0.67967260  0.06085283  1
  Lu  Lu1  1  0.18512302  0.17970456  0.43922808  1
  Lu  Lu2  1  0.68514981  0.32032088  0.56061229  1
  Lu  Lu3  1  0.81482270  0.82034644  0.93928839  1
  Lu  Lu4  1  0.68515319  0.32037837  0.93929168  1
  Lu  Lu5  1  0.81487390  0.82032689  0.56062211  1
  Lu  Lu6  1  0.31489924  0.67970471  0.43923750  1
  Lu  Lu7  1  0.18512601  0.17965014  0.06085466  1
  Lu  Lu8  1  0.87473541  0.52718766  0.24991650  1
  Lu  Lu9  1  0.62526647  0.02718391  0.24991470  1
  Lu  Lu10  1  0.12513732  0.47281232  0.75007771  1
  Lu  Lu11  1  0.37488413  0.97283098  0.75007921  1
  Pt  Pt0  1  0.04275487  0.89285813  0.25004389  1
  Pt  Pt1  1  0.45726210  0.39289481  0.25004019  1
  Pt  Pt2  1  0.95728553  0.10708255  0.74998296  1
  Pt  Pt3  1  0.54266822  0.60704405  0.74995630  1
loop_
_geom_bond_atom_site_label_1
_geom_bond_atom_site_label_2
_geom_bond_distance
_geom_bond_site_symmetry_2
Lu0 Pt1 2.789888 1_555
Lu0 Pt0 2.862680 1_555
Lu0 Pt3 3.267049 1_554
Lu1 Pt0 2.790324 1_545
Lu1 Pt1 2.862741 1_555
Lu1 Pt2 3.265907 1_455
Lu2 Pt3 2.790919 1_555
Lu2 Pt2 2.863792 1_555
Lu2 Pt1 3.264356 1_555
Lu3 Pt2 2.790586 1_565
Lu3 Pt3 2.864030 1_555
Lu3 Pt0 3.265991 1_656
Lu4 Pt3 2.790377 1_555
Lu4 Pt2 2.863851 1_555
Lu4 Pt1 3.265940 1_556
Lu5 Pt2 2.791008 1_565
Lu5 Pt3 2.864155 1_555
Lu5 Pt0 3.264481 1_655
Lu6 Pt1 2.790238 1_555
Lu6 Pt0 2.862515 1_555
Lu6 Pt3 3.265322 1_555
Lu7 Pt0 2.789990 1_545
Lu7 Pt1 2.862920 1_555
Lu7 Pt2 3.266749 1_454
Lu8 Pt0 2.727403 1_655
Lu8 Pt1 2.794776 1_555
Lu9 Pt1 2.727573 1_555
Lu9 Pt0 2.794897 1_645
Lu10 Pt2 2.727366 1_455
Lu10 Pt3 2.794981 1_555
Lu11 Pt3 2.727513 1_555
Lu11 Pt2 2.795386 1_465
