# generated using pymatgen
data_Ba6MgSc2C2(O3F7)2
_symmetry_space_group_name_H-M   'P 1'
_cell_length_a   6.12561732
_cell_length_b   8.89152595
_cell_length_c   9.99134860
_cell_angle_alpha   95.58471021
_cell_angle_beta   90.00000000
_cell_angle_gamma   90.00000000
_symmetry_Int_Tables_number   1
_chemical_formula_structural   Ba6MgSc2C2(O3F7)2
_chemical_formula_sum   'Ba6 Mg1 Sc2 C2 O6 F14'
_cell_volume   541.60659834
_cell_formula_units_Z   1
loop_
 _symmetry_equiv_pos_site_id
 _symmetry_equiv_pos_as_xyz
  1  'x, y, z'
loop_
 _atom_site_type_symbol
 _atom_site_label
 _atom_site_symmetry_multiplicity
 _atom_site_fract_x
 _atom_site_fract_y
 _atom_site_fract_z
 _atom_site_occupancy
  Ba  Ba0  1  0.25000000  0.81610997  0.59729023  1
  Ba  Ba1  1  0.75000000  0.57597730  0.87275059  1
  Ba  Ba2  1  0.25000000  0.40895893  0.19929537  1
  Ba  Ba3  1  0.75000000  0.03966272  0.81775879  1
  Ba  Ba4  1  0.25000000  0.89286485  0.09362864  1
  Ba  Ba5  1  0.75000000  0.22227891  0.46840515  1
  Mg  Mg0  1  0.75000000  0.15816583  0.13179824  1
  Sc  Sc0  1  0.25000000  0.24892589  0.71721537  1
  Sc  Sc1  1  0.75000000  0.74222083  0.26903226  1
  C  C0  1  0.25000000  0.45973117  0.54175471  1
  C  C1  1  0.75000000  0.58759344  0.48416946  1
  O  O0  1  0.25000000  0.54823465  0.44706967  1
  O  O1  1  0.75000000  0.73417398  0.49978217  1
  O  O2  1  0.25000000  0.50883688  0.66743023  1
  O  O3  1  0.25000000  0.31184802  0.51132964  1
  O  O4  1  0.75000000  0.50579277  0.58226856  1
  O  O5  1  0.75000000  0.52504781  0.35742617  1
  F  F0  1  0.50087168  0.17480193  0.25498672  1
  F  F1  1  0.25000000  0.09936299  0.86250228  1
  F  F2  1  0.75000000  0.91424117  0.11873941  1
  F  F3  1  0.49389318  0.80736829  0.83689673  1
  F  F4  1  0.47663707  0.08132398  0.61995229  1
  F  F5  1  0.51599186  0.63731066  0.12046791  1
  F  F6  1  0.97637283  0.32745176  0.80249429  1
  F  F7  1  0.52362717  0.32745176  0.80249429  1
  F  F8  1  0.02336293  0.08132398  0.61995229  1
  F  F9  1  0.01802582  0.85744382  0.32752159  1
  F  F10  1  0.00610682  0.80736829  0.83689673  1
  F  F11  1  0.99912832  0.17480193  0.25498672  1
  F  F12  1  0.98400814  0.63731066  0.12046791  1
  F  F13  1  0.48197418  0.85744382  0.32752159  1
loop_
_geom_bond_atom_site_label_1
_geom_bond_atom_site_label_2
_geom_bond_distance
_geom_bond_site_symmetry_2
Ba0 O0 2.688864 1_555
Ba0 F4 2.726830 1_565
Ba0 F8 2.726830 1_565
Ba0 F10 2.829396 1_555
Ba0 F3 2.829396 1_555
Ba0 O2 2.885877 1_555
Ba0 F9 3.100323 1_555
Ba0 F13 3.100323 1_555
Ba0 O1 3.274531 1_455
Ba0 O1 3.274531 1_555
Ba1 F3 2.639304 1_555
Ba1 F10 2.639304 1_655
Ba1 F7 2.645143 1_555
Ba1 F6 2.645143 1_555
Ba1 F12 2.866223 1_556
Ba1 F5 2.866223 1_556
Ba1 O4 2.908660 1_555
Ba2 O0 2.658095 1_555
Ba2 F11 2.689137 1_455
Ba2 F0 2.689137 1_555
Ba2 F12 2.776487 1_455
Ba2 F5 2.776487 1_555
Ba3 F10 2.615472 1_645
Ba3 F3 2.615472 1_545
Ba3 F4 2.643803 1_555
Ba3 F8 2.643803 1_655
Ba3 F7 2.927451 1_555
Ba3 F6 2.927451 1_555
Ba3 F1 3.133088 1_655
Ba3 F1 3.133088 1_555
Ba3 Mg0 3.211194 1_556
Ba3 F2 3.307512 1_546
Ba4 F9 2.778987 1_555
Ba4 F13 2.778987 1_555
Ba4 F12 2.829935 1_455
Ba4 F5 2.829935 1_555
Ba4 F10 3.001686 1_554
Ba4 F3 3.001686 1_554
Ba4 F2 3.077432 1_555
Ba4 F2 3.077432 1_455
Ba4 F1 3.086933 1_564
Ba4 F11 3.233946 1_465
Ba4 F0 3.233946 1_565
Ba5 F0 2.622736 1_555
Ba5 F11 2.622736 1_555
Ba5 F4 2.652700 1_555
Ba5 F8 2.652700 1_655
Ba5 O4 2.662865 1_555
Ba5 O5 3.009615 1_555
Ba5 O3 3.183161 1_555
Ba5 O3 3.183161 1_655
C0 O0 1.288074 1_555
C0 O2 1.288656 1_555
C0 O3 1.320451 1_555
C1 O4 1.276105 1_555
C1 O1 1.297466 1_555
C1 O5 1.332597 1_555
O1 Sc1 2.313562 1_555
O2 Sc0 2.410791 1_555
O3 Sc0 2.183706 1_555
O5 Sc1 2.200156 1_555
F0 Mg0 1.957098 1_555
F1 Sc0 2.061889 1_555
F2 Mg0 2.160072 1_565
F2 Sc1 2.245298 1_555
F4 Sc0 2.193323 1_555
F5 Sc1 2.204251 1_555
F6 Sc0 1.976647 1_655
F7 Sc0 1.976647 1_555
F8 Sc0 2.193323 1_555
F9 Sc1 1.992531 1_455
F11 Mg0 1.957098 1_555
F12 Sc1 2.204251 1_555
F13 Sc1 1.992531 1_555
