# generated using pymatgen
data_Zn(SbO3)2
_symmetry_space_group_name_H-M   'P 1'
_cell_length_a   5.25533900
_cell_length_b   5.38590600
_cell_length_c   7.62815200
_cell_angle_alpha   90.00000000
_cell_angle_beta   90.00000000
_cell_angle_gamma   90.00000000
_symmetry_Int_Tables_number   1
_chemical_formula_structural   Zn(SbO3)2
_chemical_formula_sum   'Zn2 Sb4 O12'
_cell_volume   215.91302573
_cell_formula_units_Z   2
loop_
 _symmetry_equiv_pos_site_id
 _symmetry_equiv_pos_as_xyz
  1  'x, y, z'
loop_
 _atom_site_type_symbol
 _atom_site_label
 _atom_site_symmetry_multiplicity
 _atom_site_fract_x
 _atom_site_fract_y
 _atom_site_fract_z
 _atom_site_occupancy
  Zn  Zn0  1  0.51119000  0.30688100  0.50000000  1
  Zn  Zn1  1  0.01119000  0.69311900  0.00000000  1
  Sb  Sb0  1  0.50154400  0.75281400  0.74965500  1
  Sb  Sb1  1  0.00154400  0.24718600  0.75034500  1
  Sb  Sb2  1  0.00154400  0.24718600  0.24965500  1
  Sb  Sb3  1  0.50154400  0.75281400  0.25034500  1
  O  O0  1  0.67366300  0.07171400  0.31495800  1
  O  O1  1  0.17366300  0.92828600  0.18504200  1
  O  O2  1  0.80770200  0.55111400  0.68903100  1
  O  O3  1  0.30770200  0.44888600  0.81096900  1
  O  O4  1  0.30770200  0.44888600  0.18903100  1
  O  O5  1  0.80770200  0.55111400  0.31096900  1
  O  O6  1  0.17366300  0.92828600  0.81495800  1
  O  O7  1  0.67366300  0.07171400  0.68504200  1
  O  O8  1  0.13458300  0.20851100  0.50000000  1
  O  O9  1  0.63458300  0.79148900  0.00000000  1
  O  O10  1  0.39864300  0.68476600  0.50000000  1
  O  O11  1  0.89864300  0.31523400  0.00000000  1
loop_
_geom_bond_atom_site_label_1
_geom_bond_atom_site_label_2
_geom_bond_distance
_geom_bond_site_symmetry_2
O0 Sb3 2.002788 1_545
O0 Sb2 2.027431 1_655
O0 Zn0 2.079836 1_555
O1 Sb2 2.002788 1_565
O1 Sb3 2.027431 1_555
O1 Zn1 2.079836 1_555
O2 Sb1 1.983948 1_655
O2 Sb0 1.995684 1_555
O3 Sb0 1.983948 1_555
O3 Sb1 1.995684 1_555
O4 Sb3 1.983948 1_555
O4 Sb2 1.995684 1_555
O5 Sb2 1.983948 1_655
O5 Sb3 1.995684 1_555
O6 Sb1 2.002788 1_565
O6 Sb0 2.027431 1_555
O6 Zn1 2.079836 1_556
O7 Sb0 2.002788 1_545
O7 Sb1 2.027431 1_655
O7 Zn0 2.079836 1_555
O8 Sb1 2.044275 1_555
O8 Sb2 2.044275 1_555
O8 Zn0 2.048883 1_555
O9 Sb3 2.044275 1_555
O9 Sb0 2.044275 1_554
O9 Zn1 2.048883 1_655
O10 Sb0 2.013338 1_555
O10 Sb3 2.013338 1_555
O10 Zn0 2.119456 1_555
O11 Sb1 2.013338 1_654
O11 Sb2 2.013338 1_655
O11 Zn1 2.119456 1_655
