# generated using pymatgen
data_Fe9PO12
_symmetry_space_group_name_H-M   'P 1'
_cell_length_a   13.64119329
_cell_length_b   13.64119329
_cell_length_c   3.10432100
_cell_angle_alpha   90.00000000
_cell_angle_beta   90.00000000
_cell_angle_gamma   154.55761077
_symmetry_Int_Tables_number   1
_chemical_formula_structural   Fe9PO12
_chemical_formula_sum   'Fe9 P1 O12'
_cell_volume   248.16411921
_cell_formula_units_Z   1
loop_
 _symmetry_equiv_pos_site_id
 _symmetry_equiv_pos_as_xyz
  1  'x, y, z'
loop_
 _atom_site_type_symbol
 _atom_site_label
 _atom_site_symmetry_multiplicity
 _atom_site_fract_x
 _atom_site_fract_y
 _atom_site_fract_z
 _atom_site_occupancy
  Fe  Fe0  1  0.50400200  0.49599800  0.00000000  1
  Fe  Fe1  1  0.67277600  0.32722400  0.00000000  1
  Fe  Fe2  1  0.32382000  0.67618000  0.00000000  1
  Fe  Fe3  1  0.84416000  0.66770400  0.50000000  1
  Fe  Fe4  1  0.15972800  0.33048900  0.50000000  1
  Fe  Fe5  1  0.66951100  0.84027200  0.50000000  1
  Fe  Fe6  1  0.33229600  0.15584000  0.50000000  1
  Fe  Fe7  1  0.99993600  0.00006400  0.00000000  1
  Fe  Fe8  1  0.20646600  0.79353400  0.50000000  1
  P  P0  1  0.79676100  0.20323900  0.50000000  1
  O  O0  1  0.90513700  0.57043000  0.50000000  1
  O  O1  1  0.04582600  0.38764500  0.50000000  1
  O  O2  1  0.61235500  0.95417400  0.50000000  1
  O  O3  1  0.42957000  0.09486300  0.50000000  1
  O  O4  1  0.74128400  0.74540200  0.50000000  1
  O  O5  1  0.25459800  0.25871600  0.50000000  1
  O  O6  1  0.40195300  0.59804700  0.00000000  1
  O  O7  1  0.58585600  0.41414400  0.00000000  1
  O  O8  1  0.92318800  0.07681200  0.00000000  1
  O  O9  1  0.07474200  0.92525800  0.00000000  1
  O  O10  1  0.76707300  0.23292700  0.00000000  1
  O  O11  1  0.24896300  0.75103700  0.00000000  1
loop_
_geom_bond_atom_site_label_1
_geom_bond_atom_site_label_2
_geom_bond_distance
_geom_bond_site_symmetry_2
Fe0 O4 2.138344 1_555
Fe0 O4 2.138344 1_554
Fe0 O5 2.138344 1_555
Fe0 O5 2.138344 1_554
Fe0 O7 2.178355 1_555
Fe0 O6 2.715798 1_555
Fe1 O3 2.114422 1_554
Fe1 O3 2.114422 1_555
Fe1 O0 2.114422 1_554
Fe1 O0 2.114422 1_555
Fe1 O7 2.313175 1_555
Fe1 O10 2.509497 1_555
Fe2 O11 1.992146 1_555
Fe2 O6 2.079329 1_555
Fe2 O2 2.307588 1_554
Fe2 O2 2.307588 1_555
Fe2 O1 2.307588 1_555
Fe2 O1 2.307588 1_554
Fe3 O0 2.108563 1_555
Fe3 O9 2.165193 1_655
Fe3 O9 2.165193 1_656
Fe3 O7 2.185714 1_556
Fe3 O7 2.185714 1_555
Fe3 O4 2.403970 1_555
Fe4 O8 2.151656 1_455
Fe4 O8 2.151656 1_456
Fe4 O6 2.206310 1_555
Fe4 O6 2.206310 1_556
Fe4 O5 2.218494 1_555
Fe4 O1 2.282531 1_555
Fe5 O8 2.151656 1_566
Fe5 O8 2.151656 1_565
Fe5 O6 2.206310 1_555
Fe5 O6 2.206310 1_556
Fe5 O4 2.218494 1_555
Fe5 O2 2.282531 1_555
Fe6 O3 2.108563 1_555
Fe6 O9 2.165193 1_545
Fe6 O9 2.165193 1_546
Fe6 O7 2.185714 1_556
Fe6 O7 2.185714 1_555
Fe6 O5 2.403970 1_555
Fe7 O9 1.990789 1_645
Fe7 O8 2.042471 1_555
Fe7 O4 2.188514 1_544
Fe7 O4 2.188514 1_545
Fe7 O5 2.188514 1_655
Fe7 O5 2.188514 1_654
Fe8 O3 1.888157 1_565
Fe8 O0 1.888157 1_455
Fe8 O11 1.920487 1_555
Fe8 O11 1.920487 1_556
O1 P0 1.560674 1_455
O2 P0 1.560674 1_565
O10 P0 1.741673 1_555
O10 P0 1.741673 1_554
