# generated using pymatgen
data_VCuN2
_symmetry_space_group_name_H-M   'P 1'
_cell_length_a   5.34146800
_cell_length_b   6.28683700
_cell_length_c   5.30068800
_cell_angle_alpha   90.00000000
_cell_angle_beta   90.00000000
_cell_angle_gamma   90.00000000
_symmetry_Int_Tables_number   1
_chemical_formula_structural   VCuN2
_chemical_formula_sum   'V4 Cu4 N8'
_cell_volume   178.00207857
_cell_formula_units_Z   4
loop_
 _symmetry_equiv_pos_site_id
 _symmetry_equiv_pos_as_xyz
  1  'x, y, z'
loop_
 _atom_site_type_symbol
 _atom_site_label
 _atom_site_symmetry_multiplicity
 _atom_site_fract_x
 _atom_site_fract_y
 _atom_site_fract_z
 _atom_site_occupancy
  V  V0  1  0.58182000  0.38156400  0.99042600  1
  V  V1  1  0.41818000  0.61843600  0.49042600  1
  V  V2  1  0.91818000  0.88156400  0.49042600  1
  V  V3  1  0.08182000  0.11843600  0.99042600  1
  Cu  Cu0  1  0.59593700  0.86503300  0.01998500  1
  Cu  Cu1  1  0.40406300  0.13496700  0.51998500  1
  Cu  Cu2  1  0.90406300  0.36503300  0.51998500  1
  Cu  Cu3  1  0.09593700  0.63496700  0.01998500  1
  N  N0  1  0.56645900  0.38867800  0.34034700  1
  N  N1  1  0.43354100  0.61132200  0.84034700  1
  N  N2  1  0.93354100  0.88867800  0.84034700  1
  N  N3  1  0.06645900  0.11132200  0.34034700  1
  N  N4  1  0.58509500  0.86272900  0.39924300  1
  N  N5  1  0.41490500  0.13727100  0.89924300  1
  N  N6  1  0.91490500  0.36272900  0.89924300  1
  N  N7  1  0.08509500  0.63727100  0.39924300  1
loop_
_geom_bond_atom_site_label_1
_geom_bond_atom_site_label_2
_geom_bond_distance
_geom_bond_site_symmetry_2
Cu0 N4 2.011214 1_555
Cu0 N2 2.044673 1_554
Cu0 N1 2.050192 1_554
Cu0 N5 2.067354 1_564
Cu1 N5 2.011214 1_555
Cu1 N3 2.044673 1_555
Cu1 N0 2.050192 1_555
Cu1 N4 2.067354 1_545
Cu2 N6 2.011214 1_555
Cu2 N0 2.044673 1_555
Cu2 N3 2.050192 1_655
Cu2 N7 2.067354 1_655
Cu3 N7 2.011214 1_555
Cu3 N1 2.044673 1_554
Cu3 N2 2.050192 1_454
Cu3 N6 2.067354 1_454
N0 V1 1.829372 1_555
N0 V0 1.857175 1_554
N1 V0 1.829372 1_555
N1 V1 1.857175 1_555
N2 V3 1.829372 1_665
N2 V2 1.857175 1_555
N3 V2 1.829372 1_445
N3 V3 1.857175 1_554
N4 V1 1.840458 1_555
N4 V2 1.847445 1_555
N5 V0 1.840458 1_555
N5 V3 1.847445 1_555
N6 V3 1.840458 1_655
N6 V0 1.847445 1_555
N7 V2 1.840458 1_455
N7 V1 1.847445 1_555
