# generated using pymatgen
data_Y5Mg(MoO6)2
_symmetry_space_group_name_H-M   'P 1'
_cell_length_a   5.93237834
_cell_length_b   7.13586525
_cell_length_c   7.51658237
_cell_angle_alpha   105.50897406
_cell_angle_beta   89.94100388
_cell_angle_gamma   114.81310047
_symmetry_Int_Tables_number   1
_chemical_formula_structural   Y5Mg(MoO6)2
_chemical_formula_sum   'Y5 Mg1 Mo2 O12'
_cell_volume   276.04725184
_cell_formula_units_Z   1
loop_
 _symmetry_equiv_pos_site_id
 _symmetry_equiv_pos_as_xyz
  1  'x, y, z'
loop_
 _atom_site_type_symbol
 _atom_site_label
 _atom_site_symmetry_multiplicity
 _atom_site_fract_x
 _atom_site_fract_y
 _atom_site_fract_z
 _atom_site_occupancy
  Y  Y0  1  0.47745500  0.96006800  0.50753800  1
  Y  Y1  1  0.18955300  0.38412300  0.80212900  1
  Y  Y2  1  0.81902700  0.63607100  0.15219200  1
  Y  Y3  1  0.81583300  0.63518600  0.66035100  1
  Y  Y4  1  0.20695100  0.41057000  0.35120000  1
  Mg  Mg0  1  0.64961300  0.29238500  0.32356700  1
  Mo  Mo0  1  0.73639100  0.99836800  0.00070500  1
  Mo  Mo1  1  0.26396500  0.99952900  0.00148400  1
  O  O0  1  0.01562100  0.02616600  0.81778400  1
  O  O1  1  0.00220700  0.00051900  0.18601600  1
  O  O2  1  0.48771700  0.98011200  0.20496800  1
  O  O3  1  0.50354600  0.01191900  0.80404000  1
  O  O4  1  0.60404800  0.70255100  0.43441200  1
  O  O5  1  0.89421900  0.31631300  0.54530800  1
  O  O6  1  0.42354700  0.31699100  0.54519900  1
  O  O7  1  0.44146100  0.33969400  0.12832000  1
  O  O8  1  0.06588300  0.65202500  0.90367800  1
  O  O9  1  0.58282800  0.65005800  0.90419200  1
  O  O10  1  0.90492100  0.34021700  0.12482600  1
  O  O11  1  0.09229800  0.69898800  0.43244800  1
loop_
_geom_bond_atom_site_label_1
_geom_bond_atom_site_label_2
_geom_bond_distance
_geom_bond_site_symmetry_2
Mg0 O2 1.955959 1_545
Mg0 O7 2.100281 1_555
Mg0 O10 2.115699 1_555
Mg0 O5 2.134869 1_555
Mg0 O6 2.154365 1_555
Mo0 O3 2.072531 1_564
Mo0 O1 2.097588 1_665
Mo0 O2 2.119339 1_555
Mo0 O0 2.130533 1_664
Mo0 O10 2.135056 1_565
Mo0 O9 2.161139 1_554
Mo1 O3 2.047142 1_564
Mo1 O1 2.082024 1_565
Mo1 O2 2.095806 1_555
Mo1 O0 2.119632 1_564
Mo1 O7 2.128152 1_565
Mo1 O8 2.156753 1_554
O0 Y1 2.356159 1_555
O0 Y3 2.459869 1_445
O1 Y2 2.298673 1_445
O1 Y4 2.579928 1_555
O2 Y0 2.315802 1_555
O3 Y0 2.153958 1_545
O4 Y0 2.204587 1_555
O4 Y4 2.338446 1_555
O4 Y3 2.375219 1_555
O4 Y2 2.513091 1_555
O5 Y4 2.344138 1_655
O5 Y1 2.413740 1_655
O5 Y3 2.444712 1_555
O5 Y0 2.644992 1_545
O6 Y4 2.338395 1_555
O6 Y3 2.416336 1_555
O6 Y1 2.438022 1_555
O6 Y0 2.639559 1_545
O7 Y4 2.265060 1_555
O7 Y2 2.311701 1_555
O7 Y1 3.027576 1_554
O8 Y1 2.274027 1_555
O8 Y3 2.301855 1_455
O8 Y2 2.369610 1_456
O9 Y1 2.267602 1_555
O9 Y3 2.301124 1_555
O9 Y2 2.381294 1_556
O10 Y4 2.269846 1_655
O10 Y2 2.330122 1_555
O10 Y1 2.964240 1_654
O11 Y0 2.208548 1_555
O11 Y4 2.360788 1_555
O11 Y3 2.369876 1_455
O11 Y2 2.481466 1_455
