# generated using pymatgen
data_CeMg2
_symmetry_space_group_name_H-M   'P 1'
_cell_length_a   13.15822830
_cell_length_b   13.15822830
_cell_length_c   15.69827032
_cell_angle_alpha   72.70137315
_cell_angle_beta   72.70137315
_cell_angle_gamma   28.02377224
_symmetry_Int_Tables_number   1
_chemical_formula_structural   CeMg2
_chemical_formula_sum   'Ce16 Mg32'
_cell_volume   1215.56130426
_cell_formula_units_Z   16
loop_
 _symmetry_equiv_pos_site_id
 _symmetry_equiv_pos_as_xyz
  1  'x, y, z'
loop_
 _atom_site_type_symbol
 _atom_site_label
 _atom_site_symmetry_multiplicity
 _atom_site_fract_x
 _atom_site_fract_y
 _atom_site_fract_z
 _atom_site_occupancy
  Ce  Ce0_0  1  0.29793565  0.29793565  0.15456278  1
  Ce  Ce0_1  1  0.29793565  0.29793565  0.65456277  1
  Ce  Ce0_2  1  0.29793565  0.79793565  0.15456277  1
  Ce  Ce0_3  1  0.29793565  0.79793565  0.65456277  1
  Ce  Ce0_4  1  0.79793565  0.29793565  0.15456277  1
  Ce  Ce0_5  1  0.79793565  0.29793565  0.65456277  1
  Ce  Ce0_6  1  0.79793565  0.79793565  0.15456278  1
  Ce  Ce0_7  1  0.79793565  0.79793565  0.65456278  1
  Ce  Ce1_0  1  0.47983665  0.47983664  0.28908249  1
  Ce  Ce1_1  1  0.47983664  0.47983664  0.78908249  1
  Ce  Ce1_2  1  0.47983665  0.97983664  0.28908249  1
  Ce  Ce1_3  1  0.47983664  0.97983665  0.78908249  1
  Ce  Ce1_4  1  0.97983665  0.47983665  0.28908249  1
  Ce  Ce1_5  1  0.97983665  0.47983665  0.78908249  1
  Ce  Ce1_6  1  0.97983664  0.97983664  0.28908249  1
  Ce  Ce1_7  1  0.97983665  0.97983665  0.78908249  1
  Mg  Mg0_0  1  0.49779036  0.49779036  0.49804750  1
  Mg  Mg0_1  1  0.49779036  0.49779036  0.99804750  1
  Mg  Mg0_2  1  0.49779036  0.99779036  0.49804750  1
  Mg  Mg0_3  1  0.49779036  0.99779036  0.99804750  1
  Mg  Mg0_4  1  0.99779036  0.49779037  0.49804750  1
  Mg  Mg0_5  1  0.99779037  0.49779037  0.99804750  1
  Mg  Mg0_6  1  0.99779036  0.99779036  0.49804750  1
  Mg  Mg0_7  1  0.99779036  0.99779036  0.99804750  1
  Mg  Mg1_0  1  0.16447981  0.16447981  0.16077172  1
  Mg  Mg1_1  1  0.16447981  0.16447981  0.66077171  1
  Mg  Mg1_2  1  0.16447981  0.66447981  0.16077172  1
  Mg  Mg1_3  1  0.16447981  0.66447981  0.66077171  1
  Mg  Mg1_4  1  0.66447981  0.16447981  0.16077172  1
  Mg  Mg1_5  1  0.66447981  0.16447981  0.66077171  1
  Mg  Mg1_6  1  0.66447981  0.66447981  0.16077172  1
  Mg  Mg1_7  1  0.66447981  0.66447981  0.66077171  1
  Mg  Mg2_0  1  0.33809704  0.33809704  0.33978214  1
  Mg  Mg2_1  1  0.33809704  0.33809704  0.83978214  1
  Mg  Mg2_2  1  0.33809704  0.83809704  0.33978214  1
  Mg  Mg2_3  1  0.33809704  0.83809704  0.83978214  1
  Mg  Mg2_4  1  0.83809704  0.33809704  0.33978214  1
  Mg  Mg2_5  1  0.83809704  0.33809704  0.83978214  1
  Mg  Mg2_6  1  0.83809704  0.83809704  0.33978214  1
  Mg  Mg2_7  1  0.83809704  0.83809704  0.83978214  1
  Mg  Mg3_0  1  0.13852799  0.13852799  0.47441937  1
  Mg  Mg3_1  1  0.13852799  0.13852799  0.97441937  1
  Mg  Mg3_2  1  0.13852799  0.63852799  0.47441937  1
  Mg  Mg3_3  1  0.13852799  0.63852799  0.97441937  1
  Mg  Mg3_4  1  0.63852799  0.13852799  0.47441937  1
  Mg  Mg3_5  1  0.63852799  0.13852799  0.97441937  1
  Mg  Mg3_6  1  0.63852799  0.63852799  0.47441937  1
  Mg  Mg3_7  1  0.63852799  0.63852799  0.97441937  1
loop_
_geom_bond_atom_site_label_1
_geom_bond_atom_site_label_2
_geom_bond_distance
_geom_bond_site_symmetry_2
Ce0_0 Ce1_4 2.787415 1_455
Ce0_0 Ce1_2 2.787415 1_545
Ce0_0 Ce0_6 3.185912 1_545
Ce0_0 Ce0_6 3.185912 1_455
Ce0_0 Mg2_0 3.366514 1_555
Ce0_0 Mg1_0 3.378987 1_555
Ce0_0 Mg1_2 3.402941 1_555
Ce0_0 Mg1_4 3.402941 1_555
Ce0_0 Mg3_3 3.446134 1_554
Ce0_0 Mg3_5 3.446134 1_554
Ce0_0 Mg0_5 3.484551 1_454
Ce0_0 Mg0_3 3.484551 1_544
Ce0_1 Ce1_5 2.787415 1_455
Ce0_1 Ce1_3 2.787415 1_545
Ce0_1 Ce0_7 3.185912 1_545
Ce0_1 Ce0_7 3.185912 1_455
Ce0_1 Mg2_1 3.366514 1_555
Ce0_1 Mg1_1 3.378987 1_555
Ce0_1 Mg1_3 3.402941 1_555
Ce0_1 Mg1_5 3.402941 1_555
Ce0_1 Mg3_2 3.446134 1_555
Ce0_1 Mg3_4 3.446134 1_555
Ce0_1 Mg0_4 3.484551 1_455
Ce0_1 Mg0_2 3.484551 1_545
Ce0_2 Ce1_0 2.787415 1_555
Ce0_2 Ce1_6 2.787415 1_455
Ce0_2 Ce0_4 3.185912 1_555
Ce0_2 Ce0_4 3.185912 1_465
Ce0_2 Mg2_2 3.366514 1_555
Ce0_2 Mg1_2 3.378987 1_555
Ce0_2 Mg1_0 3.402941 1_565
Ce0_2 Mg1_6 3.402941 1_555
Ce0_2 Mg3_7 3.446134 1_554
Ce0_2 Mg3_1 3.446134 1_564
Ce0_2 Mg0_1 3.484551 1_554
Ce0_2 Mg0_7 3.484551 1_454
Ce0_3 Ce1_7 2.787415 1_455
Ce0_3 Ce1_1 2.787415 1_555
Ce0_3 Ce0_5 3.185912 1_555
Ce0_3 Ce0_5 3.185912 1_465
Ce0_3 Mg2_3 3.366514 1_555
Ce0_3 Mg1_3 3.378987 1_555
Ce0_3 Mg1_1 3.402941 1_565
Ce0_3 Mg1_7 3.402941 1_555
Ce0_3 Mg3_6 3.446134 1_555
Ce0_3 Mg3_0 3.446134 1_565
Ce0_3 Mg0_0 3.484551 1_555
Ce0_3 Mg0_6 3.484551 1_455
Ce0_4 Ce1_0 2.787415 1_555
Ce0_4 Ce1_6 2.787415 1_545
Ce0_4 Mg2_4 3.366514 1_555
Ce0_4 Mg1_4 3.378987 1_555
Ce0_4 Mg1_6 3.402941 1_555
Ce0_4 Mg1_0 3.402941 1_655
Ce0_4 Mg3_7 3.446134 1_554
Ce0_4 Mg3_1 3.446134 1_654
Ce0_4 Mg0_1 3.484551 1_554
Ce0_4 Mg0_7 3.484551 1_544
Ce0_5 Ce1_7 2.787415 1_545
Ce0_5 Ce1_1 2.787415 1_555
Ce0_5 Mg2_5 3.366514 1_555
Ce0_5 Mg1_5 3.378987 1_555
Ce0_5 Mg1_1 3.402941 1_655
Ce0_5 Mg1_7 3.402941 1_555
Ce0_5 Mg3_6 3.446134 1_555
Ce0_5 Mg3_0 3.446134 1_655
Ce0_5 Mg0_0 3.484551 1_555
Ce0_5 Mg0_6 3.484551 1_545
Ce0_6 Ce1_4 2.787415 1_555
Ce0_6 Ce1_2 2.787415 1_555
Ce0_6 Mg2_6 3.366514 1_555
Ce0_6 Mg1_6 3.378987 1_555
Ce0_6 Mg1_2 3.402941 1_655
Ce0_6 Mg1_4 3.402941 1_565
Ce0_6 Mg3_3 3.446134 1_654
Ce0_6 Mg3_5 3.446134 1_564
Ce0_6 Mg0_5 3.484551 1_554
Ce0_6 Mg0_3 3.484551 1_554
Ce0_7 Ce1_5 2.787415 1_555
Ce0_7 Ce1_3 2.787415 1_555
Ce0_7 Mg2_7 3.366514 1_555
Ce0_7 Mg1_7 3.378987 1_555
Ce0_7 Mg1_5 3.402941 1_565
Ce0_7 Mg1_3 3.402941 1_655
Ce0_7 Mg3_2 3.446134 1_655
Ce0_7 Mg3_4 3.446134 1_565
Ce0_7 Mg0_4 3.484551 1_555
Ce0_7 Mg0_2 3.484551 1_555
Ce1_0 Ce1_6 3.185912 1_545
Ce1_0 Ce1_6 3.185912 1_455
Ce1_0 Mg1_4 3.382292 1_555
Ce1_0 Mg1_2 3.382292 1_555
Ce1_0 Mg0_0 3.448600 1_555
Ce1_0 Mg2_0 3.459159 1_555
Ce1_0 Mg2_2 3.487205 1_555
Ce1_0 Mg2_4 3.487205 1_555
Ce1_0 Mg3_4 3.504332 1_555
Ce1_0 Mg3_2 3.504332 1_555
Ce1_1 Ce1_7 3.185912 1_455
Ce1_1 Ce1_7 3.185912 1_545
Ce1_1 Mg1_5 3.382292 1_555
Ce1_1 Mg1_3 3.382292 1_555
Ce1_1 Mg0_1 3.448600 1_555
Ce1_1 Mg2_1 3.459159 1_555
Ce1_1 Mg2_3 3.487205 1_555
Ce1_1 Mg2_5 3.487205 1_555
Ce1_1 Mg3_5 3.504332 1_555
Ce1_1 Mg3_3 3.504332 1_555
Ce1_2 Ce1_4 3.185912 1_555
Ce1_2 Ce1_4 3.185912 1_465
Ce1_2 Mg1_6 3.382292 1_555
Ce1_2 Mg1_0 3.382292 1_565
Ce1_2 Mg0_2 3.448600 1_555
Ce1_2 Mg2_2 3.459159 1_555
Ce1_2 Mg2_6 3.487205 1_555
Ce1_2 Mg2_0 3.487205 1_565
Ce1_2 Mg3_0 3.504332 1_565
Ce1_2 Mg3_6 3.504332 1_555
Ce1_3 Ce1_5 3.185912 1_465
Ce1_3 Ce1_5 3.185912 1_555
Ce1_3 Mg1_7 3.382292 1_555
Ce1_3 Mg1_1 3.382292 1_565
Ce1_3 Mg0_3 3.448600 1_555
Ce1_3 Mg2_3 3.459159 1_555
Ce1_3 Mg2_7 3.487205 1_555
Ce1_3 Mg2_1 3.487205 1_565
Ce1_3 Mg3_7 3.504332 1_555
Ce1_3 Mg3_1 3.504332 1_565
Ce1_4 Mg1_0 3.382292 1_655
Ce1_4 Mg1_6 3.382292 1_555
Ce1_4 Mg0_4 3.448600 1_555
Ce1_4 Mg2_4 3.459159 1_555
Ce1_4 Mg2_6 3.487205 1_555
Ce1_4 Mg2_0 3.487205 1_655
Ce1_4 Mg3_6 3.504332 1_555
Ce1_4 Mg3_0 3.504332 1_655
Ce1_5 Mg1_7 3.382292 1_555
Ce1_5 Mg1_1 3.382292 1_655
Ce1_5 Mg0_5 3.448600 1_555
Ce1_5 Mg2_5 3.459159 1_555
Ce1_5 Mg2_7 3.487205 1_555
Ce1_5 Mg2_1 3.487205 1_655
Ce1_5 Mg3_7 3.504332 1_555
Ce1_5 Mg3_1 3.504332 1_655
Ce1_6 Mg1_4 3.382292 1_565
Ce1_6 Mg1_2 3.382292 1_655
Ce1_6 Mg0_6 3.448600 1_555
Ce1_6 Mg2_6 3.459159 1_555
Ce1_6 Mg2_2 3.487205 1_655
Ce1_6 Mg2_4 3.487205 1_565
Ce1_6 Mg3_4 3.504332 1_565
Ce1_6 Mg3_2 3.504332 1_655
Ce1_7 Mg1_3 3.382292 1_655
Ce1_7 Mg1_5 3.382292 1_565
Ce1_7 Mg0_7 3.448600 1_555
Ce1_7 Mg2_7 3.459159 1_555
Ce1_7 Mg2_3 3.487205 1_655
Ce1_7 Mg2_5 3.487205 1_565
Ce1_7 Mg3_5 3.504332 1_565
Ce1_7 Mg3_3 3.504332 1_655
Mg0_0 Mg0_6 3.185912 1_545
Mg0_0 Mg0_6 3.185912 1_455
Mg0_0 Mg1_5 3.202693 1_555
Mg0_0 Mg1_3 3.202693 1_555
Mg0_0 Mg2_2 3.242786 1_555
Mg0_0 Mg2_4 3.242786 1_555
Mg0_0 Mg3_2 3.330554 1_555
Mg0_0 Mg3_4 3.330554 1_555
Mg0_0 Mg3_6 3.497703 1_555
Mg0_1 Mg0_7 3.185912 1_545
Mg0_1 Mg0_7 3.185912 1_455
Mg0_1 Mg1_4 3.202693 1_556
Mg0_1 Mg1_2 3.202693 1_556
Mg0_1 Mg2_3 3.242786 1_555
Mg0_1 Mg2_5 3.242786 1_555
Mg0_1 Mg3_5 3.330554 1_555
Mg0_1 Mg3_3 3.330554 1_555
Mg0_1 Mg3_7 3.497703 1_555
Mg0_2 Mg0_4 3.185912 1_555
Mg0_2 Mg0_4 3.185912 1_465
Mg0_2 Mg1_7 3.202693 1_555
Mg0_2 Mg1_1 3.202693 1_565
Mg0_2 Mg2_0 3.242786 1_565
Mg0_2 Mg2_6 3.242786 1_555
Mg0_2 Mg3_0 3.330554 1_565
Mg0_2 Mg3_6 3.330554 1_555
Mg0_2 Mg3_4 3.497703 1_565
Mg0_3 Mg0_5 3.185912 1_555
Mg0_3 Mg0_5 3.185912 1_465
Mg0_3 Mg1_6 3.202693 1_556
Mg0_3 Mg1_0 3.202693 1_566
Mg0_3 Mg2_7 3.242786 1_555
Mg0_3 Mg2_1 3.242786 1_565
Mg0_3 Mg3_1 3.330554 1_565
Mg0_3 Mg3_7 3.330554 1_555
Mg0_3 Mg3_5 3.497703 1_565
Mg0_4 Mg1_7 3.202693 1_555
Mg0_4 Mg1_1 3.202693 1_655
Mg0_4 Mg2_6 3.242786 1_555
Mg0_4 Mg2_0 3.242786 1_655
Mg0_4 Mg3_0 3.330554 1_655
Mg0_4 Mg3_6 3.330554 1_555
Mg0_4 Mg3_2 3.497703 1_655
Mg0_5 Mg1_6 3.202693 1_556
Mg0_5 Mg1_0 3.202693 1_656
Mg0_5 Mg2_7 3.242786 1_555
Mg0_5 Mg2_1 3.242786 1_655
Mg0_5 Mg3_1 3.330554 1_655
Mg0_5 Mg3_7 3.330554 1_555
Mg0_5 Mg3_3 3.497703 1_655
Mg0_6 Mg1_5 3.202693 1_565
Mg0_6 Mg1_3 3.202693 1_655
Mg0_6 Mg2_2 3.242786 1_655
Mg0_6 Mg2_4 3.242786 1_565
Mg0_6 Mg3_4 3.330554 1_565
Mg0_6 Mg3_2 3.330554 1_655
Mg0_6 Mg3_0 3.497703 1_665
Mg0_7 Mg1_4 3.202693 1_566
Mg0_7 Mg1_2 3.202693 1_656
Mg0_7 Mg2_3 3.242786 1_655
Mg0_7 Mg2_5 3.242786 1_565
Mg0_7 Mg3_5 3.330554 1_565
Mg0_7 Mg3_3 3.330554 1_655
Mg0_7 Mg3_1 3.497703 1_665
Mg1_0 Mg1_6 3.185912 1_455
Mg1_0 Mg1_6 3.185912 1_545
Mg1_0 Mg3_1 3.191440 1_554
Mg1_0 Mg2_4 3.298312 1_455
Mg1_0 Mg2_2 3.298312 1_545
Mg1_1 Mg1_7 3.185912 1_455
Mg1_1 Mg1_7 3.185912 1_545
Mg1_1 Mg3_0 3.191440 1_555
Mg1_1 Mg2_5 3.298312 1_455
Mg1_1 Mg2_3 3.298312 1_545
Mg1_2 Mg1_4 3.185912 1_555
Mg1_2 Mg1_4 3.185912 1_465
Mg1_2 Mg3_3 3.191440 1_554
Mg1_2 Mg2_0 3.298312 1_555
Mg1_2 Mg2_6 3.298312 1_455
Mg1_3 Mg1_5 3.185912 1_555
Mg1_3 Mg1_5 3.185912 1_465
Mg1_3 Mg3_2 3.191440 1_555
Mg1_3 Mg2_1 3.298312 1_555
Mg1_3 Mg2_7 3.298312 1_455
Mg1_4 Mg3_5 3.191440 1_554
Mg1_4 Mg2_0 3.298312 1_555
Mg1_4 Mg2_6 3.298312 1_545
Mg1_5 Mg3_4 3.191440 1_555
Mg1_5 Mg2_1 3.298312 1_555
Mg1_5 Mg2_7 3.298312 1_545
Mg1_6 Mg3_7 3.191440 1_554
Mg1_6 Mg2_4 3.298312 1_555
Mg1_6 Mg2_2 3.298312 1_555
Mg1_7 Mg3_6 3.191440 1_555
Mg1_7 Mg2_5 3.298312 1_555
Mg1_7 Mg2_3 3.298312 1_555
Mg2_0 Mg2_6 3.185912 1_455
Mg2_0 Mg2_6 3.185912 1_545
Mg2_0 Mg3_2 3.214184 1_555
Mg2_0 Mg3_4 3.214184 1_555
Mg2_1 Mg2_7 3.185912 1_455
Mg2_1 Mg2_7 3.185912 1_545
Mg2_1 Mg3_3 3.214184 1_555
Mg2_1 Mg3_5 3.214184 1_555
Mg2_2 Mg2_4 3.185912 1_555
Mg2_2 Mg2_4 3.185912 1_465
Mg2_2 Mg3_6 3.214184 1_555
Mg2_2 Mg3_0 3.214184 1_565
Mg2_3 Mg2_5 3.185912 1_555
Mg2_3 Mg2_5 3.185912 1_465
Mg2_3 Mg3_7 3.214184 1_555
Mg2_3 Mg3_1 3.214184 1_565
Mg2_4 Mg3_6 3.214184 1_555
Mg2_4 Mg3_0 3.214184 1_655
Mg2_5 Mg3_7 3.214184 1_555
Mg2_5 Mg3_1 3.214184 1_655
Mg2_6 Mg3_2 3.214184 1_655
Mg2_6 Mg3_4 3.214184 1_565
Mg2_7 Mg3_3 3.214184 1_655
Mg2_7 Mg3_5 3.214184 1_565
Mg3_0 Mg3_6 3.185912 1_545
Mg3_0 Mg3_6 3.185912 1_455
Mg3_1 Mg3_7 3.185912 1_545
Mg3_1 Mg3_7 3.185912 1_455
Mg3_2 Mg3_4 3.185912 1_555
Mg3_2 Mg3_4 3.185912 1_465
Mg3_3 Mg3_5 3.185912 1_555
Mg3_3 Mg3_5 3.185912 1_465
