# generated using pymatgen
data_Li2IO6
_symmetry_space_group_name_H-M   'P 1'
_cell_length_a   5.49260298
_cell_length_b   5.49260298
_cell_length_c   28.78043900
_cell_angle_alpha   90.00000000
_cell_angle_beta   90.00000000
_cell_angle_gamma   120.00001184
_symmetry_Int_Tables_number   1
_chemical_formula_structural   Li2IO6
_chemical_formula_sum   'Li12 I6 O36'
_cell_volume   751.94211719
_cell_formula_units_Z   6
loop_
 _symmetry_equiv_pos_site_id
 _symmetry_equiv_pos_as_xyz
  1  'x, y, z'
loop_
 _atom_site_type_symbol
 _atom_site_label
 _atom_site_symmetry_multiplicity
 _atom_site_fract_x
 _atom_site_fract_y
 _atom_site_fract_z
 _atom_site_occupancy
  Li  Li0  1  0.31943700  0.60022500  0.99860000  1
  Li  Li1  1  0.28078800  0.68056300  0.66526700  1
  Li  Li2  1  0.68056300  0.39977500  0.49860000  1
  Li  Li3  1  0.39977500  0.71921200  0.33193400  1
  Li  Li4  1  0.71921200  0.31943700  0.16526700  1
  Li  Li5  1  0.60022500  0.28078800  0.83193400  1
  Li  Li6  1  0.65309700  0.26809400  0.99616600  1
  Li  Li7  1  0.61499700  0.34690300  0.66283200  1
  Li  Li8  1  0.34690300  0.73190600  0.49616600  1
  Li  Li9  1  0.73190600  0.38500300  0.32949900  1
  Li  Li10  1  0.38500300  0.65309700  0.16283200  1
  Li  Li11  1  0.26809400  0.61499700  0.82949900  1
  I  I0  1  0.93513400  0.94883500  0.82867900  1
  I  I1  1  0.01370100  0.06486600  0.49534500  1
  I  I2  1  0.06486600  0.05116500  0.32867900  1
  I  I3  1  0.05116500  0.98629900  0.16201200  1
  I  I4  1  0.98629900  0.93513400  0.99534500  1
  I  I5  1  0.94883500  0.01370100  0.66201200  1
  O  O0  1  0.91229300  0.22886600  0.86301900  1
  O  O1  1  0.31657300  0.08770700  0.52968500  1
  O  O2  1  0.08770700  0.77113400  0.36301900  1
  O  O3  1  0.77113400  0.68342700  0.19635200  1
  O  O4  1  0.68342700  0.91229300  0.02968500  1
  O  O5  1  0.22886600  0.31657300  0.69635200  1
  O  O6  1  0.65239600  0.64690500  0.86303100  1
  O  O7  1  0.99450900  0.34760400  0.52969800  1
  O  O8  1  0.34760400  0.35309500  0.36303100  1
  O  O9  1  0.35309500  0.00549100  0.19636500  1
  O  O10  1  0.00549100  0.65239600  0.02969800  1
  O  O11  1  0.64690500  0.99450900  0.69636500  1
  O  O12  1  0.73205600  0.76462000  0.52997500  1
  O  O13  1  0.03256400  0.26794400  0.19664200  1
  O  O14  1  0.26794400  0.23538000  0.02997500  1
  O  O15  1  0.23538000  0.96743600  0.86330900  1
  O  O16  1  0.96743600  0.73205600  0.69664200  1
  O  O17  1  0.76462000  0.03256400  0.36330900  1
  O  O18  1  0.64561300  0.73327900  0.62781400  1
  O  O19  1  0.08766700  0.35438700  0.29448100  1
  O  O20  1  0.35438700  0.26672100  0.12781400  1
  O  O21  1  0.26672100  0.91233300  0.96114700  1
  O  O22  1  0.91233300  0.64561300  0.79448100  1
  O  O23  1  0.73327900  0.08766700  0.46114700  1
  O  O24  1  0.65467700  0.97021300  0.79428100  1
  O  O25  1  0.31553700  0.34532300  0.46094800  1
  O  O26  1  0.34532300  0.02978700  0.29428100  1
  O  O27  1  0.02978700  0.68446300  0.12761500  1
  O  O28  1  0.68446300  0.65467700  0.96094800  1
  O  O29  1  0.97021300  0.31553700  0.62761500  1
  O  O30  1  0.00957000  0.23874600  0.96143400  1
  O  O31  1  0.22917700  0.99043000  0.62810100  1
  O  O32  1  0.99043000  0.76125400  0.46143400  1
  O  O33  1  0.76125400  0.77082300  0.29476800  1
  O  O34  1  0.77082300  0.00957000  0.12810100  1
  O  O35  1  0.23874600  0.22917700  0.79476800  1
loop_
_geom_bond_atom_site_label_1
_geom_bond_atom_site_label_2
_geom_bond_distance
_geom_bond_site_symmetry_2
Li0 O4 2.075707 1_556
Li0 O14 2.084325 1_556
Li0 O10 2.085853 1_556
Li0 O30 2.145630 1_555
Li0 O21 2.163534 1_555
Li0 O28 2.164227 1_555
Li1 O5 2.075708 1_555
Li1 O16 2.084325 1_455
Li1 O11 2.085853 1_555
Li1 O31 2.145628 1_555
Li1 O18 2.163538 1_555
Li1 O29 2.164229 1_455
Li2 O1 2.075707 1_555
Li2 O12 2.084325 1_555
Li2 O7 2.085853 1_555
Li2 O32 2.145630 1_555
Li2 O23 2.163534 1_555
Li2 O25 2.164227 1_555
Li3 O2 2.075708 1_555
Li3 O17 2.084325 1_565
Li3 O8 2.085840 1_555
Li3 O33 2.145632 1_555
Li3 O19 2.163536 1_555
Li3 O26 2.164247 1_565
Li4 O3 2.075708 1_555
Li4 O13 2.084325 1_655
Li4 O9 2.085853 1_555
Li4 O34 2.145628 1_555
Li4 O20 2.163538 1_555
Li4 O27 2.164229 1_655
Li5 O0 2.075708 1_555
Li5 O15 2.084325 1_545
Li5 O6 2.085840 1_555
Li5 O35 2.145632 1_555
Li5 O22 2.163536 1_555
Li5 O24 2.164247 1_545
Li6 O10 2.246705 1_656
Li6 O14 2.252615 1_556
Li6 O4 2.259011 1_546
Li6 O30 2.274738 1_655
Li6 O21 2.278371 1_545
Li6 O28 2.280314 1_555
Li7 O11 2.246717 1_545
Li7 O16 2.252627 1_555
Li7 O5 2.259023 1_555
Li7 O31 2.274722 1_545
Li7 O18 2.278356 1_555
Li7 O29 2.280297 1_555
Li8 O7 2.246705 1_455
Li8 O12 2.252615 1_555
Li8 O1 2.259011 1_565
Li8 O32 2.274738 1_455
Li8 O23 2.278371 1_565
Li8 O25 2.280314 1_555
Li9 O8 2.246705 1_555
Li9 O17 2.252628 1_555
Li9 O2 2.259023 1_655
Li9 O33 2.274720 1_555
Li9 O19 2.278361 1_655
Li9 O26 2.280312 1_555
Li10 O9 2.246717 1_565
Li10 O13 2.252627 1_555
Li10 O3 2.259023 1_555
Li10 O34 2.274722 1_565
Li10 O20 2.278356 1_555
Li10 O27 2.280297 1_555
Li11 O6 2.246705 1_555
Li11 O15 2.252628 1_555
Li11 O0 2.259023 1_455
Li11 O35 2.274720 1_555
Li11 O22 2.278361 1_455
Li11 O24 2.280312 1_555
I0 O35 1.880604 1_665
I0 O24 1.883534 1_555
I0 O22 1.884048 1_555
I0 O0 1.884471 1_565
I0 O15 1.885452 1_655
I0 O6 1.887852 1_555
I1 O32 1.880603 1_445
I1 O25 1.883521 1_555
I1 O23 1.884053 1_455
I1 O1 1.884471 1_555
I1 O12 1.885452 1_445
I1 O7 1.887867 1_455
I2 O33 1.880604 1_445
I2 O26 1.883534 1_555
I2 O19 1.884048 1_555
I2 O2 1.884471 1_545
I2 O17 1.885452 1_455
I2 O8 1.887852 1_555
I3 O34 1.880607 1_465
I3 O27 1.883523 1_555
I3 O20 1.884050 1_565
I3 O3 1.884470 1_455
I3 O13 1.885452 1_565
I3 O9 1.887867 1_565
I4 O30 1.880603 1_665
I4 O28 1.883521 1_555
I4 O21 1.884053 1_655
I4 O4 1.884471 1_556
I4 O14 1.885452 1_666
I4 O10 1.887867 1_656
I5 O31 1.880607 1_645
I5 O29 1.883523 1_555
I5 O18 1.884050 1_545
I5 O5 1.884470 1_655
I5 O16 1.885452 1_545
I5 O11 1.887867 1_545
