# generated using pymatgen
data_TmMoBrO4
_symmetry_space_group_name_H-M   'P 1'
_cell_length_a   6.93463800
_cell_length_b   7.23145890
_cell_length_c   10.85649611
_cell_angle_alpha   103.51926857
_cell_angle_beta   107.72106499
_cell_angle_gamma   94.67890173
_symmetry_Int_Tables_number   1
_chemical_formula_structural   TmMoBrO4
_chemical_formula_sum   'Tm4 Mo4 Br4 O16'
_cell_volume   497.32079766
_cell_formula_units_Z   4
loop_
 _symmetry_equiv_pos_site_id
 _symmetry_equiv_pos_as_xyz
  1  'x, y, z'
loop_
 _atom_site_type_symbol
 _atom_site_label
 _atom_site_symmetry_multiplicity
 _atom_site_fract_x
 _atom_site_fract_y
 _atom_site_fract_z
 _atom_site_occupancy
  Tm  Tm0  1  0.65806300  0.10702100  0.73041300  1
  Tm  Tm1  1  0.34193700  0.89297900  0.26958700  1
  Tm  Tm2  1  0.38271500  0.66222700  0.76792500  1
  Tm  Tm3  1  0.61728500  0.33777300  0.23207500  1
  Mo  Mo0  1  0.72941700  0.81443800  0.13433000  1
  Mo  Mo1  1  0.27058300  0.18556200  0.86567000  1
  Mo  Mo2  1  0.77289900  0.58831700  0.62690200  1
  Mo  Mo3  1  0.22710100  0.41168300  0.37309800  1
  Br  Br0  1  0.26314200  0.00196200  0.52016600  1
  Br  Br1  1  0.73685800  0.99803800  0.47983400  1
  Br  Br2  1  0.19033400  0.71943700  0.98284200  1
  Br  Br3  1  0.80966600  0.28056300  0.01715800  1
  O  O0  1  0.66000600  0.73145200  0.95710600  1
  O  O1  1  0.33999400  0.26854800  0.04289400  1
  O  O2  1  0.00110600  0.88012500  0.20632000  1
  O  O3  1  0.99889400  0.11987500  0.79368000  1
  O  O4  1  0.63814500  0.63278900  0.20074400  1
  O  O5  1  0.36185500  0.36721100  0.79925600  1
  O  O6  1  0.40437500  0.98555100  0.81598100  1
  O  O7  1  0.59562500  0.01444900  0.18401900  1
  O  O8  1  0.04234300  0.65255100  0.66983500  1
  O  O9  1  0.95765700  0.34744900  0.33016500  1
  O  O10  1  0.72540700  0.39959100  0.69930600  1
  O  O11  1  0.27459300  0.60040900  0.30069400  1
  O  O12  1  0.66836300  0.50368800  0.44765300  1
  O  O13  1  0.33163700  0.49631200  0.55234700  1
  O  O14  1  0.65530900  0.78698900  0.70342500  1
  O  O15  1  0.34469100  0.21301100  0.29657500  1
loop_
_geom_bond_atom_site_label_1
_geom_bond_atom_site_label_2
_geom_bond_distance
_geom_bond_site_symmetry_2
Mo0 O0 1.772841 1_554
Mo0 O2 1.780499 1_655
Mo0 O4 1.797498 1_555
Mo0 O7 1.844620 1_565
Mo1 O1 1.772841 1_556
Mo1 O3 1.780499 1_455
Mo1 O5 1.797498 1_555
Mo1 O6 1.844620 1_545
Mo2 O8 1.775188 1_655
Mo2 O10 1.781788 1_555
Mo2 O12 1.788584 1_555
Mo2 O14 1.861370 1_555
Mo3 O9 1.775188 1_455
Mo3 O11 1.781788 1_555
Mo3 O13 1.788584 1_555
Mo3 O15 1.861370 1_555
Br0 Tm1 2.879770 1_545
Br0 Tm0 2.886463 1_555
Br1 Tm0 2.879770 1_565
Br1 Tm1 2.886463 1_555
Br2 Tm1 2.887396 1_556
Br2 Tm2 2.988088 1_555
Br3 Tm0 2.887396 1_554
Br3 Tm3 2.988088 1_555
O0 Tm2 2.263730 1_555
O1 Tm3 2.263730 1_555
O2 Tm1 2.238919 1_555
O3 Tm0 2.238919 1_555
O4 Tm3 2.237608 1_555
O4 Tm1 3.037396 1_555
O5 Tm2 2.237608 1_555
O5 Tm0 3.037396 1_555
O6 Tm2 2.255251 1_555
O6 Tm0 2.419460 1_565
O7 Tm3 2.255251 1_555
O7 Tm1 2.419460 1_545
O8 Tm2 2.262356 1_555
O9 Tm3 2.262356 1_555
O10 Tm0 2.253274 1_555
O11 Tm1 2.253274 1_555
O12 Tm3 2.270614 1_555
O13 Tm2 2.270614 1_555
O14 Tm0 2.261535 1_565
O14 Tm2 2.387610 1_555
O15 Tm1 2.261535 1_545
O15 Tm3 2.387610 1_555
