# generated using pymatgen
data_GdWC2
_symmetry_space_group_name_H-M   'P 1'
_cell_length_a   3.41942621
_cell_length_b   5.75429845
_cell_length_c   10.80875777
_cell_angle_alpha   90.00115621
_cell_angle_beta   90.00000011
_cell_angle_gamma   90.00000017
_symmetry_Int_Tables_number   1
_chemical_formula_structural   GdWC2
_chemical_formula_sum   'Gd4 W4 C8'
_cell_volume   212.67742991
_cell_formula_units_Z   4
loop_
 _symmetry_equiv_pos_site_id
 _symmetry_equiv_pos_as_xyz
  1  'x, y, z'
loop_
 _atom_site_type_symbol
 _atom_site_label
 _atom_site_symmetry_multiplicity
 _atom_site_fract_x
 _atom_site_fract_y
 _atom_site_fract_z
 _atom_site_occupancy
  Gd  Gd0  1  0.25000001  0.58523838  0.86234130  1
  Gd  Gd1  1  0.74999998  0.41477129  0.13767589  1
  Gd  Gd2  1  0.75000003  0.91476470  0.36238335  1
  Gd  Gd3  1  0.24999998  0.08524381  0.63759834  1
  W  W0  1  0.24999998  0.90601624  0.11083968  1
  W  W1  1  0.74999998  0.09400142  0.88913790  1
  W  W2  1  0.75000005  0.59392591  0.61081815  1
  W  W3  1  0.25000000  0.40605198  0.38920959  1
  C  C0  1  0.25000002  0.66009525  0.24762080  1
  C  C1  1  0.75000001  0.33989509  0.75238959  1
  C  C2  1  0.74999999  0.83990567  0.74755771  1
  C  C3  1  0.25000002  0.16008321  0.25242900  1
  C  C4  1  0.25000000  0.71591284  0.51989701  1
  C  C5  1  0.75000001  0.28409038  0.48005129  1
  C  C6  1  0.74999998  0.78410495  0.01996626  1
  C  C7  1  0.24999996  0.21589990  0.98008416  1
loop_
_geom_bond_atom_site_label_1
_geom_bond_atom_site_label_2
_geom_bond_distance
_geom_bond_site_symmetry_2
C0 W0 2.046550 1_555
C0 W3 2.116410 1_555
C0 Gd1 2.515566 1_555
C0 Gd1 2.515566 1_455
C0 Gd2 2.570849 1_455
C0 Gd2 2.570849 1_555
C1 W1 2.046185 1_555
C1 W2 2.116225 1_555
C1 Gd0 2.515663 1_655
C1 Gd0 2.515663 1_555
C1 Gd3 2.570939 1_655
C1 Gd3 2.570939 1_555
C2 W2 2.046418 1_555
C2 W1 2.116508 1_565
C2 Gd3 2.515713 1_665
C2 Gd3 2.515713 1_565
C2 Gd0 2.570980 1_555
C2 Gd0 2.570980 1_655
C3 W3 2.046695 1_555
C3 W0 2.116465 1_545
C3 Gd2 2.515624 1_445
C3 Gd2 2.515624 1_545
C3 Gd1 2.570889 1_555
C3 Gd1 2.570890 1_455
C4 W2 2.093243 1_455
C4 W2 2.093243 1_555
C4 W3 2.274742 1_555
C4 Gd3 2.476902 1_565
C4 Gd2 2.670414 1_455
C4 Gd2 2.670414 1_555
C5 W3 2.092791 1_655
C5 W3 2.092791 1_555
C5 W2 2.275161 1_555
C5 Gd2 2.476691 1_545
C5 Gd3 2.670631 1_655
C5 Gd3 2.670631 1_555
C6 W0 2.092842 1_655
C6 W0 2.092842 1_555
C6 W1 2.275894 1_564
C6 Gd1 2.477006 1_555
C6 Gd0 2.671188 1_554
C6 Gd0 2.671188 1_654
C7 W1 2.093187 1_455
C7 W1 2.093187 1_555
C7 W0 2.275347 1_546
C7 Gd0 2.477214 1_555
C7 Gd1 2.670971 1_456
C7 Gd1 2.670971 1_556
