# generated using pymatgen
data_NaLi2NbF6
_symmetry_space_group_name_H-M   'P 1'
_cell_length_a   6.02541245
_cell_length_b   6.02541245
_cell_length_c   6.02541245
_cell_angle_alpha   60.00000000
_cell_angle_beta   60.00000000
_cell_angle_gamma   60.00000000
_symmetry_Int_Tables_number   1
_chemical_formula_structural   NaLi2NbF6
_chemical_formula_sum   'Na1 Li2 Nb1 F6'
_cell_volume   154.68398173
_cell_formula_units_Z   1
loop_
 _symmetry_equiv_pos_site_id
 _symmetry_equiv_pos_as_xyz
  1  'x, y, z'
loop_
 _atom_site_type_symbol
 _atom_site_label
 _atom_site_symmetry_multiplicity
 _atom_site_fract_x
 _atom_site_fract_y
 _atom_site_fract_z
 _atom_site_occupancy
  Na  Na0  1  0.50000000  0.50000000  0.50000000  1
  Li  Li0  1  0.75000000  0.75000000  0.75000000  1
  Li  Li1  1  0.25000000  0.25000000  0.25000000  1
  Nb  Nb0  1  0.00000000  0.00000000  0.00000000  1
  F  F0  1  0.75562600  0.24437400  0.24437400  1
  F  F1  1  0.24437400  0.24437400  0.75562600  1
  F  F2  1  0.24437400  0.75562600  0.75562600  1
  F  F3  1  0.24437400  0.75562600  0.24437400  1
  F  F4  1  0.75562600  0.24437400  0.75562600  1
  F  F5  1  0.75562600  0.75562600  0.24437400  1
loop_
_geom_bond_atom_site_label_1
_geom_bond_atom_site_label_2
_geom_bond_distance
_geom_bond_site_symmetry_2
F0 Nb0 2.082365 1_655
F0 Na0 2.178245 1_555
F1 Nb0 2.082365 1_556
F1 Na0 2.178245 1_555
F2 Nb0 2.082365 1_566
F2 Na0 2.178245 1_555
F3 Nb0 2.082365 1_565
F3 Na0 2.178245 1_555
F4 Nb0 2.082365 1_656
F4 Na0 2.178245 1_555
F5 Nb0 2.082365 1_665
F5 Na0 2.178245 1_555
