# generated using pymatgen
data_Sm(Cd10Ni)2
_symmetry_space_group_name_H-M   'P 1'
_cell_length_a   11.14671533
_cell_length_b   11.14671533
_cell_length_c   11.14671533
_cell_angle_alpha   60.00000000
_cell_angle_beta   60.00000000
_cell_angle_gamma   60.00000000
_symmetry_Int_Tables_number   1
_chemical_formula_structural   Sm(Cd10Ni)2
_chemical_formula_sum   'Sm2 Cd40 Ni4'
_cell_volume   979.32250030
_cell_formula_units_Z   2
loop_
 _symmetry_equiv_pos_site_id
 _symmetry_equiv_pos_as_xyz
  1  'x, y, z'
loop_
 _atom_site_type_symbol
 _atom_site_label
 _atom_site_symmetry_multiplicity
 _atom_site_fract_x
 _atom_site_fract_y
 _atom_site_fract_z
 _atom_site_occupancy
  Sm  Sm0  1  0.50000000  0.50000000  0.50000000  1
  Sm  Sm1  1  0.75000000  0.75000000  0.75000000  1
  Cd  Cd0  1  0.56876500  0.30119600  0.30119600  1
  Cd  Cd1  1  0.30119600  0.56876500  0.82884400  1
  Cd  Cd2  1  0.30119600  0.82884400  0.56876500  1
  Cd  Cd3  1  0.82884400  0.30119600  0.30119600  1
  Cd  Cd4  1  0.30119600  0.30119600  0.56876500  1
  Cd  Cd5  1  0.56876500  0.82884400  0.30119600  1
  Cd  Cd6  1  0.82884400  0.56876500  0.30119600  1
  Cd  Cd7  1  0.30119600  0.30119600  0.82884400  1
  Cd  Cd8  1  0.30119600  0.56876500  0.30119600  1
  Cd  Cd9  1  0.82884400  0.30119600  0.56876500  1
  Cd  Cd10  1  0.56876500  0.30119600  0.82884400  1
  Cd  Cd11  1  0.30119600  0.82884400  0.30119600  1
  Cd  Cd12  1  0.68123500  0.94880400  0.94880400  1
  Cd  Cd13  1  0.94880400  0.68123500  0.42115600  1
  Cd  Cd14  1  0.94880400  0.42115600  0.68123500  1
  Cd  Cd15  1  0.42115600  0.94880400  0.94880400  1
  Cd  Cd16  1  0.94880400  0.94880400  0.68123500  1
  Cd  Cd17  1  0.68123500  0.42115600  0.94880400  1
  Cd  Cd18  1  0.42115600  0.68123500  0.94880400  1
  Cd  Cd19  1  0.94880400  0.94880400  0.42115600  1
  Cd  Cd20  1  0.94880400  0.68123500  0.94880400  1
  Cd  Cd21  1  0.42115600  0.94880400  0.68123500  1
  Cd  Cd22  1  0.68123500  0.94880400  0.42115600  1
  Cd  Cd23  1  0.94880400  0.42115600  0.94880400  1
  Cd  Cd24  1  0.86351400  0.86351400  0.13648600  1
  Cd  Cd25  1  0.13648600  0.13648600  0.86351400  1
  Cd  Cd26  1  0.86351400  0.13648600  0.86351400  1
  Cd  Cd27  1  0.13648600  0.86351400  0.13648600  1
  Cd  Cd28  1  0.13648600  0.86351400  0.86351400  1
  Cd  Cd29  1  0.86351400  0.13648600  0.13648600  1
  Cd  Cd30  1  0.38648600  0.38648600  0.11351400  1
  Cd  Cd31  1  0.11351400  0.11351400  0.38648600  1
  Cd  Cd32  1  0.38648600  0.11351400  0.38648600  1
  Cd  Cd33  1  0.11351400  0.38648600  0.11351400  1
  Cd  Cd34  1  0.11351400  0.38648600  0.38648600  1
  Cd  Cd35  1  0.38648600  0.11351400  0.11351400  1
  Cd  Cd36  1  0.12500000  0.62500000  0.62500000  1
  Cd  Cd37  1  0.62500000  0.12500000  0.62500000  1
  Cd  Cd38  1  0.62500000  0.62500000  0.12500000  1
  Cd  Cd39  1  0.62500000  0.62500000  0.62500000  1
  Ni  Ni0  1  0.62500000  0.12500000  0.12500000  1
  Ni  Ni1  1  0.12500000  0.62500000  0.12500000  1
  Ni  Ni2  1  0.12500000  0.12500000  0.62500000  1
  Ni  Ni3  1  0.12500000  0.12500000  0.12500000  1
loop_
_geom_bond_atom_site_label_1
_geom_bond_atom_site_label_2
_geom_bond_distance
_geom_bond_site_symmetry_2
Cd0 Cd3 2.899027 1_555
Cd0 Cd29 2.973665 1_555
Cd0 Cd4 2.982515 1_555
Cd0 Cd8 2.982515 1_555
Cd0 Ni0 3.082640 1_555
Cd0 Cd32 3.120703 1_555
Cd0 Cd30 3.120703 1_555
Cd0 Cd17 3.207572 1_554
Cd0 Cd22 3.207572 1_545
Cd0 Cd38 3.349661 1_555
Cd0 Cd37 3.349661 1_555
Cd0 Sm0 3.452896 1_555
Cd1 Cd2 2.899027 1_555
Cd1 Cd28 2.973661 1_555
Cd1 Cd7 2.982515 1_555
Cd1 Cd10 2.982515 1_555
Cd1 Ni1 3.082631 1_556
Cd1 Cd30 3.120694 1_556
Cd1 Cd33 3.120699 1_556
Cd1 Cd18 3.207553 1_555
Cd1 Cd20 3.207572 1_455
Cd1 Cd39 3.349662 1_555
Cd1 Cd36 3.349671 1_555
Cd1 Sm0 3.452905 1_555
Cd2 Cd28 2.973661 1_555
Cd2 Cd5 2.982515 1_555
Cd2 Ni2 3.082631 1_565
Cd2 Cd32 3.120694 1_565
Cd2 Cd31 3.120699 1_565
Cd2 Cd21 3.207553 1_555
Cd2 Cd39 3.349662 1_555
Cd2 Cd36 3.349671 1_555
Cd2 Sm0 3.452905 1_555
Cd3 Cd6 2.982515 1_555
Cd3 Cd9 2.982515 1_555
Cd3 Ni3 3.082635 1_655
Cd3 Cd33 3.120694 1_655
Cd3 Cd31 3.120694 1_655
Cd3 Cd37 3.349666 1_555
Cd3 Cd38 3.349666 1_555
Cd3 Sm0 3.452900 1_555
Cd4 Cd7 2.899027 1_555
Cd4 Cd8 2.982515 1_555
Cd4 Ni2 3.082640 1_555
Cd4 Sm0 3.452896 1_555
Cd5 Cd6 2.899027 1_555
Cd5 Ni0 3.082631 1_565
Cd5 Sm0 3.452905 1_555
Cd6 Cd9 2.982515 1_555
Cd6 Ni1 3.082631 1_655
Cd6 Sm0 3.452905 1_555
Cd7 Ni3 3.082635 1_556
Cd7 Sm0 3.452900 1_555
Cd8 Ni1 3.082640 1_555
Cd8 Sm0 3.452896 1_555
Cd9 Ni2 3.082631 1_655
Cd9 Sm0 3.452905 1_555
Cd10 Cd9 2.899027 1_555
Cd10 Cd26 2.973661 1_555
Cd10 Cd7 2.982515 1_555
Cd10 Ni0 3.082631 1_556
Cd10 Cd30 3.120694 1_556
Cd10 Cd35 3.120699 1_556
Cd10 Cd17 3.207553 1_555
Cd10 Cd12 3.207572 1_545
Cd10 Cd39 3.349662 1_555
Cd10 Cd37 3.349671 1_555
Cd10 Sm0 3.452905 1_555
Cd11 Cd8 2.899027 1_555
Cd11 Cd27 2.973671 1_555
Cd11 Cd2 2.982515 1_555
Cd11 Cd5 2.982515 1_555
Cd11 Ni3 3.082635 1_565
Cd11 Cd31 3.120694 1_565
Cd11 Cd35 3.120694 1_565
Cd11 Cd19 3.207571 1_455
Cd11 Cd15 3.207571 1_554
Cd11 Cd38 3.349666 1_555
Cd11 Cd36 3.349666 1_555
Cd11 Sm0 3.452900 1_555
Cd12 Cd15 2.899027 1_555
Cd12 Cd35 2.973665 1_566
Cd12 Cd16 2.982515 1_555
Cd12 Cd20 2.982515 1_555
Cd12 Ni0 3.082640 1_566
Cd12 Cd24 3.120703 1_556
Cd12 Cd26 3.120703 1_565
Cd12 Cd5 3.207572 1_556
Cd12 Cd37 3.349661 1_565
Cd12 Cd38 3.349661 1_556
Cd12 Sm1 3.452896 1_555
Cd13 Cd14 2.899027 1_555
Cd13 Cd34 2.973661 1_655
Cd13 Cd22 2.982515 1_555
Cd13 Cd19 2.982515 1_555
Cd13 Ni1 3.082631 1_655
Cd13 Cd24 3.120694 1_555
Cd13 Cd27 3.120699 1_655
Cd13 Cd6 3.207553 1_555
Cd13 Cd8 3.207572 1_655
Cd13 Cd39 3.349662 1_555
Cd13 Cd36 3.349671 1_655
Cd13 Sm1 3.452905 1_555
Cd14 Cd34 2.973661 1_655
Cd14 Cd23 2.982515 1_555
Cd14 Cd17 2.982515 1_555
Cd14 Ni2 3.082631 1_655
Cd14 Cd26 3.120694 1_555
Cd14 Cd25 3.120699 1_655
Cd14 Cd9 3.207553 1_555
Cd14 Cd4 3.207572 1_655
Cd14 Cd39 3.349662 1_555
Cd14 Cd36 3.349671 1_655
Cd14 Sm1 3.452905 1_555
Cd15 Cd35 2.973671 1_566
Cd15 Cd21 2.982515 1_555
Cd15 Cd18 2.982515 1_555
Cd15 Ni3 3.082635 1_566
Cd15 Cd25 3.120694 1_565
Cd15 Cd27 3.120694 1_556
Cd15 Cd7 3.207571 1_565
Cd15 Cd37 3.349666 1_565
Cd15 Cd38 3.349666 1_556
Cd15 Sm1 3.452900 1_555
Cd16 Cd19 2.899027 1_555
Cd16 Cd31 2.973665 1_665
Cd16 Cd20 2.982515 1_555
Cd16 Ni2 3.082640 1_665
Cd16 Cd28 3.120703 1_655
Cd16 Cd26 3.120703 1_565
Cd16 Cd2 3.207572 1_655
Cd16 Cd9 3.207572 1_565
Cd16 Cd37 3.349661 1_565
Cd16 Cd36 3.349661 1_655
Cd16 Sm1 3.452896 1_555
Cd17 Cd18 2.899027 1_555
Cd17 Cd30 2.973661 1_556
Cd17 Cd23 2.982515 1_555
Cd17 Ni0 3.082631 1_556
Cd17 Cd26 3.120694 1_555
Cd17 Cd29 3.120699 1_556
Cd17 Cd39 3.349662 1_555
Cd17 Cd38 3.349671 1_556
Cd17 Sm1 3.452905 1_555
Cd18 Cd30 2.973661 1_556
Cd18 Cd21 2.982515 1_555
Cd18 Ni1 3.082631 1_556
Cd18 Cd28 3.120694 1_555
Cd18 Cd27 3.120699 1_556
Cd18 Cd8 3.207572 1_556
Cd18 Cd39 3.349662 1_555
Cd18 Cd38 3.349671 1_556
Cd18 Sm1 3.452905 1_555
Cd19 Cd31 2.973671 1_665
Cd19 Cd22 2.982515 1_555
Cd19 Ni3 3.082635 1_665
Cd19 Cd29 3.120694 1_565
Cd19 Cd27 3.120694 1_655
Cd19 Cd3 3.207571 1_565
Cd19 Cd36 3.349666 1_655
Cd19 Cd37 3.349666 1_565
Cd19 Sm1 3.452900 1_555
Cd20 Cd23 2.899027 1_555
Cd20 Cd33 2.973665 1_656
Cd20 Ni1 3.082640 1_656
Cd20 Cd24 3.120703 1_556
Cd20 Cd28 3.120703 1_655
Cd20 Cd6 3.207572 1_556
Cd20 Cd38 3.349661 1_556
Cd20 Cd36 3.349661 1_655
Cd20 Sm1 3.452896 1_555
Cd21 Cd22 2.899027 1_555
Cd21 Cd32 2.973661 1_565
Cd21 Ni2 3.082631 1_565
Cd21 Cd28 3.120694 1_555
Cd21 Cd25 3.120699 1_565
Cd21 Cd4 3.207572 1_565
Cd21 Cd39 3.349662 1_555
Cd21 Cd37 3.349671 1_565
Cd21 Sm1 3.452905 1_555
Cd22 Cd32 2.973661 1_565
Cd22 Ni0 3.082631 1_565
Cd22 Cd24 3.120694 1_555
Cd22 Cd29 3.120699 1_565
Cd22 Cd5 3.207553 1_555
Cd22 Cd39 3.349662 1_555
Cd22 Cd37 3.349671 1_565
Cd22 Sm1 3.452905 1_555
Cd23 Cd33 2.973671 1_656
Cd23 Ni3 3.082635 1_656
Cd23 Cd29 3.120694 1_556
Cd23 Cd25 3.120694 1_655
Cd23 Cd7 3.207571 1_655
Cd23 Cd3 3.207571 1_556
Cd23 Cd36 3.349666 1_655
Cd23 Cd38 3.349666 1_556
Cd23 Sm1 3.452900 1_555
Cd24 Ni1 2.792555 1_655
Cd24 Ni0 2.792555 1_565
Cd24 Cd5 2.973661 1_555
Cd24 Cd6 2.973661 1_555
Cd24 Cd28 3.042741 1_654
Cd24 Cd26 3.042741 1_564
Cd24 Cd29 3.042741 1_565
Cd24 Cd27 3.042741 1_655
Cd25 Ni2 2.792555 1_555
Cd25 Ni3 2.792555 1_556
Cd25 Cd4 2.973665 1_555
Cd25 Cd7 2.973671 1_555
Cd25 Cd26 3.042741 1_455
Cd25 Cd28 3.042741 1_545
Cd25 Cd27 3.042741 1_546
Cd25 Cd29 3.042741 1_456
Cd26 Ni0 2.792555 1_556
Cd26 Ni2 2.792555 1_655
Cd26 Cd9 2.973661 1_555
Cd26 Cd28 3.042741 1_645
Cd26 Cd29 3.042741 1_556
Cd27 Ni1 2.792555 1_555
Cd27 Ni3 2.792555 1_565
Cd27 Cd8 2.973665 1_555
Cd27 Cd28 3.042741 1_554
Cd27 Cd29 3.042741 1_465
Cd28 Ni2 2.792555 1_565
Cd28 Ni1 2.792555 1_556
Cd29 Ni0 2.792555 1_555
Cd29 Ni3 2.792555 1_655
Cd29 Cd3 2.973671 1_555
Cd30 Ni0 2.792555 1_555
Cd30 Ni1 2.792555 1_555
Cd30 Cd34 3.042741 1_555
Cd30 Cd35 3.042741 1_555
Cd30 Cd32 3.042741 1_555
Cd30 Cd33 3.042741 1_555
Cd30 Cd8 3.120703 1_555
Cd31 Ni3 2.792555 1_555
Cd31 Ni2 2.792555 1_555
Cd31 Cd34 3.042741 1_555
Cd31 Cd35 3.042741 1_555
Cd31 Cd32 3.042741 1_555
Cd31 Cd33 3.042741 1_555
Cd31 Cd9 3.120699 1_455
Cd32 Ni2 2.792555 1_555
Cd32 Ni0 2.792555 1_555
Cd32 Cd34 3.042741 1_555
Cd32 Cd35 3.042741 1_555
Cd32 Cd5 3.120694 1_545
Cd32 Cd4 3.120703 1_555
Cd33 Ni3 2.792555 1_555
Cd33 Ni1 2.792555 1_555
Cd33 Cd34 3.042741 1_555
Cd33 Cd35 3.042741 1_555
Cd33 Cd7 3.120694 1_554
Cd33 Cd6 3.120699 1_455
Cd34 Ni1 2.792555 1_555
Cd34 Ni2 2.792555 1_555
Cd34 Cd9 3.120694 1_455
Cd34 Cd6 3.120694 1_455
Cd34 Cd4 3.120703 1_555
Cd34 Cd8 3.120703 1_555
Cd35 Ni3 2.792555 1_555
Cd35 Ni0 2.792555 1_555
Cd35 Cd7 3.120694 1_554
Cd35 Cd5 3.120699 1_545
Cd36 Cd4 3.349661 1_555
Cd36 Cd8 3.349661 1_555
Cd36 Cd7 3.349666 1_555
Cd36 Sm1 3.412971 1_455
Cd36 Sm0 3.412971 1_555
Cd37 Cd4 3.349661 1_555
Cd37 Cd7 3.349666 1_555
Cd37 Cd9 3.349671 1_555
Cd37 Sm1 3.412971 1_545
Cd37 Sm0 3.412971 1_555
Cd38 Cd8 3.349661 1_555
Cd38 Cd6 3.349671 1_555
Cd38 Cd5 3.349671 1_555
Cd38 Sm0 3.412971 1_555
Cd38 Sm1 3.412971 1_554
Cd39 Cd9 3.349662 1_555
Cd39 Cd5 3.349662 1_555
Cd39 Cd6 3.349662 1_555
Cd39 Sm1 3.412971 1_555
Cd39 Sm0 3.412971 1_555
