# generated using pymatgen
data_Mg6TiSb
_symmetry_space_group_name_H-M   'P 1'
_cell_length_a   5.05115700
_cell_length_b   6.40074100
_cell_length_c   10.73789900
_cell_angle_alpha   90.00000000
_cell_angle_beta   90.00000000
_cell_angle_gamma   90.00000000
_symmetry_Int_Tables_number   1
_chemical_formula_structural   Mg6TiSb
_chemical_formula_sum   'Mg12 Ti2 Sb2'
_cell_volume   347.16859864
_cell_formula_units_Z   2
loop_
 _symmetry_equiv_pos_site_id
 _symmetry_equiv_pos_as_xyz
  1  'x, y, z'
loop_
 _atom_site_type_symbol
 _atom_site_label
 _atom_site_symmetry_multiplicity
 _atom_site_fract_x
 _atom_site_fract_y
 _atom_site_fract_z
 _atom_site_occupancy
  Mg  Mg0  1  0.50000000  0.75650400  0.91931600  1
  Mg  Mg1  1  0.50000000  0.24349600  0.91931600  1
  Mg  Mg2  1  0.50000000  0.50000000  0.16497000  1
  Mg  Mg3  1  0.00000000  0.75237700  0.08417400  1
  Mg  Mg4  1  0.00000000  0.24762300  0.08417400  1
  Mg  Mg5  1  0.00000000  0.50000000  0.33342500  1
  Mg  Mg6  1  0.50000000  0.25650400  0.41931600  1
  Mg  Mg7  1  0.50000000  0.74349600  0.41931600  1
  Mg  Mg8  1  0.50000000  0.00000000  0.66497000  1
  Mg  Mg9  1  0.00000000  0.25237700  0.58417400  1
  Mg  Mg10  1  0.00000000  0.74762300  0.58417400  1
  Mg  Mg11  1  0.00000000  0.00000000  0.83342500  1
  Ti  Ti0  1  0.50000000  0.50000000  0.66890900  1
  Ti  Ti1  1  0.50000000  0.00000000  0.16890900  1
  Sb  Sb0  1  0.00000000  0.50000000  0.82571600  1
  Sb  Sb1  1  0.00000000  0.00000000  0.32571600  1
loop_
_geom_bond_atom_site_label_1
_geom_bond_atom_site_label_2
_geom_bond_distance
_geom_bond_site_symmetry_2
Mg0 Mg3 3.084308 1_656
Mg0 Mg3 3.084308 1_556
Mg0 Ti1 3.100331 1_566
Mg0 Mg2 3.107023 1_556
Mg0 Mg11 3.107774 1_665
Mg0 Mg11 3.107774 1_565
Mg0 Mg1 3.117110 1_565
Mg0 Mg8 3.144555 1_565
Mg0 Ti0 3.150468 1_555
Mg0 Sb0 3.175573 1_555
Mg0 Sb0 3.175573 1_655
Mg0 Mg1 3.283631 1_555
Mg1 Mg4 3.084308 1_556
Mg1 Mg4 3.084308 1_656
Mg1 Ti1 3.100331 1_556
Mg1 Mg2 3.107023 1_556
Mg1 Mg11 3.107774 1_555
Mg1 Mg11 3.107774 1_655
Mg1 Mg8 3.144555 1_555
Mg1 Ti0 3.150468 1_555
Mg1 Sb0 3.175573 1_555
Mg1 Sb0 3.175573 1_655
Mg2 Mg5 3.106525 1_655
Mg2 Mg5 3.106525 1_555
Mg2 Mg3 3.121019 1_555
Mg2 Mg3 3.121019 1_655
Mg2 Mg4 3.121019 1_655
Mg2 Mg4 3.121019 1_555
Mg2 Mg7 3.144555 1_555
Mg2 Mg6 3.144555 1_555
Mg2 Ti1 3.200650 1_555
Mg2 Ti1 3.200650 1_565
Mg3 Sb1 3.039600 1_565
Mg3 Ti1 3.117459 1_565
Mg3 Ti1 3.117459 1_465
Mg3 Mg5 3.126149 1_555
Mg3 Mg4 3.169941 1_565
Mg3 Sb0 3.211197 1_554
Mg3 Mg4 3.230800 1_555
Mg4 Sb1 3.039600 1_555
Mg4 Ti1 3.117459 1_555
Mg4 Ti1 3.117459 1_455
Mg4 Mg5 3.126149 1_555
Mg4 Sb0 3.211197 1_554
Mg5 Mg7 3.107774 1_455
Mg5 Mg7 3.107774 1_555
Mg5 Mg6 3.107774 1_455
Mg5 Mg6 3.107774 1_555
Mg5 Mg9 3.124385 1_555
Mg5 Sb1 3.201441 1_555
Mg5 Sb1 3.201441 1_565
Mg6 Mg9 3.084308 1_555
Mg6 Mg9 3.084308 1_655
Mg6 Ti0 3.100331 1_555
Mg6 Mg8 3.107023 1_555
Mg6 Mg7 3.117110 1_555
Mg6 Ti1 3.150468 1_555
Mg6 Sb1 3.175573 1_555
Mg6 Sb1 3.175573 1_655
Mg6 Mg7 3.283631 1_545
Mg7 Ti0 3.100331 1_555
Mg7 Mg8 3.107023 1_565
Mg7 Ti1 3.150468 1_565
Mg7 Sb1 3.175573 1_565
Mg7 Sb1 3.175573 1_665
Mg8 Mg9 3.121019 1_655
Mg8 Mg9 3.121019 1_555
Mg8 Ti0 3.200650 1_545
Mg8 Ti0 3.200650 1_555
Mg9 Sb0 3.039600 1_555
Mg9 Ti0 3.117459 1_555
Mg9 Ti0 3.117459 1_455
Mg9 Sb1 3.211197 1_555
Mg10 Sb0 3.039600 1_555
Mg10 Mg7 3.084308 1_455
Mg10 Mg7 3.084308 1_555
Mg10 Ti0 3.117459 1_555
Mg10 Ti0 3.117459 1_455
Mg10 Mg8 3.121019 1_565
Mg10 Mg8 3.121019 1_465
Mg10 Mg5 3.124385 1_555
Mg10 Mg11 3.126149 1_565
Mg10 Mg9 3.169941 1_555
Mg10 Sb1 3.211197 1_565
Mg10 Mg9 3.230800 1_565
Mg11 Mg8 3.106525 1_455
Mg11 Mg8 3.106525 1_555
Mg11 Mg4 3.124385 1_556
Mg11 Mg3 3.124385 1_546
Mg11 Mg9 3.126149 1_555
Mg11 Sb0 3.201441 1_545
Mg11 Sb0 3.201441 1_555
Sb0 Ti0 3.035400 1_455
Sb0 Ti0 3.035400 1_555
Sb1 Ti1 3.035400 1_455
Sb1 Ti1 3.035400 1_555
