# generated using pymatgen
data_Ir3F
_symmetry_space_group_name_H-M   'P 1'
_cell_length_a   4.27641918
_cell_length_b   4.27641918
_cell_length_c   4.27641918
_cell_angle_alpha   60.00000000
_cell_angle_beta   60.00000000
_cell_angle_gamma   60.00000000
_symmetry_Int_Tables_number   1
_chemical_formula_structural   Ir3F
_chemical_formula_sum   'Ir3 F1'
_cell_volume   55.30008613
_cell_formula_units_Z   1
loop_
 _symmetry_equiv_pos_site_id
 _symmetry_equiv_pos_as_xyz
  1  'x, y, z'
loop_
 _atom_site_type_symbol
 _atom_site_label
 _atom_site_symmetry_multiplicity
 _atom_site_fract_x
 _atom_site_fract_y
 _atom_site_fract_z
 _atom_site_occupancy
  Ir  Ir0  1  0.25000000  0.25000000  0.25000000  1
  Ir  Ir1  1  0.75000000  0.75000000  0.75000000  1
  Ir  Ir2  1  0.50000000  0.50000000  0.50000000  1
  F  F0  1  0.00000000  0.00000000  0.00000000  1
loop_
_geom_bond_atom_site_label_1
_geom_bond_atom_site_label_2
_geom_bond_distance
_geom_bond_site_symmetry_2
Ir0 Ir2 2.618761 1_555
Ir0 Ir2 2.618761 1_554
Ir0 Ir2 2.618761 1_455
Ir0 Ir2 2.618761 1_545
Ir1 Ir2 2.618761 1_555
Ir1 Ir2 2.618761 1_556
Ir1 Ir2 2.618761 1_565
Ir1 Ir2 2.618761 1_655
F0 Ir0 2.618761 1_555
F0 Ir0 2.618761 1_545
F0 Ir1 2.618761 1_454
F0 Ir1 2.618761 1_445
F0 Ir1 2.618761 1_544
F0 Ir1 2.618761 1_444
F0 Ir0 2.618761 1_455
F0 Ir0 2.618761 1_554
