# generated using pymatgen
data_K4Ca(SiO3)3
_symmetry_space_group_name_H-M   'P 1'
_cell_length_a   16.15509829
_cell_length_b   16.15509829
_cell_length_c   16.15509829
_cell_angle_alpha   90.00000000
_cell_angle_beta   90.00000000
_cell_angle_gamma   90.00000000
_symmetry_Int_Tables_number   1
_chemical_formula_structural   K4Ca(SiO3)3
_chemical_formula_sum   'K64 Ca16 Si48 O144'
_cell_volume   4216.27388070
_cell_formula_units_Z   16
loop_
 _symmetry_equiv_pos_site_id
 _symmetry_equiv_pos_as_xyz
  1  'x, y, z'
loop_
 _atom_site_type_symbol
 _atom_site_label
 _atom_site_symmetry_multiplicity
 _atom_site_fract_x
 _atom_site_fract_y
 _atom_site_fract_z
 _atom_site_occupancy
  K  K0  1  0.50000000  0.50000000  -0.00000000  1
  K  K1  1  0.50000000  -0.00000000  0.50000000  1
  K  K2  1  -0.00000000  0.50000000  0.50000000  1
  K  K3  1  0.00000000  -0.00000000  -0.00000000  1
  K  K4  1  0.00000000  -0.00000000  0.50000000  1
  K  K5  1  0.00000000  0.50000000  -0.00000000  1
  K  K6  1  0.50000000  -0.00000000  -0.00000000  1
  K  K7  1  0.50000000  0.50000000  0.50000000  1
  K  K8  1  0.25104760  0.74895240  0.24895240  1
  K  K9  1  0.74895240  0.24895240  0.25104760  1
  K  K10  1  0.24895240  0.25104760  0.74895240  1
  K  K11  1  0.75104760  0.75104760  0.75104760  1
  K  K12  1  0.74895240  0.25104760  0.75104760  1
  K  K13  1  0.25104760  0.75104760  0.74895240  1
  K  K14  1  0.75104760  0.74895240  0.25104760  1
  K  K15  1  0.24895240  0.24895240  0.24895240  1
  K  K16  1  0.11021374  0.89155541  0.14980977  1
  K  K17  1  0.88978626  0.39155541  0.35019023  1
  K  K18  1  0.38978626  0.10844459  0.64980977  1
  K  K19  1  0.61021374  0.60844459  0.85019023  1
  K  K20  1  0.14980977  0.11021374  0.89155541  1
  K  K21  1  0.35019023  0.88978626  0.39155541  1
  K  K22  1  0.64980977  0.38978626  0.10844459  1
  K  K23  1  0.85019023  0.61021374  0.60844459  1
  K  K24  1  0.89155541  0.14980977  0.11021374  1
  K  K25  1  0.39155541  0.35019023  0.88978626  1
  K  K26  1  0.10844459  0.64980977  0.38978626  1
  K  K27  1  0.60844459  0.85019023  0.61021374  1
  K  K28  1  0.88978626  0.10844459  0.85019023  1
  K  K29  1  0.11021374  0.60844459  0.64980977  1
  K  K30  1  0.61021374  0.89155541  0.35019023  1
  K  K31  1  0.38978626  0.39155541  0.14980977  1
  K  K32  1  0.85019023  0.88978626  0.10844459  1
  K  K33  1  0.64980977  0.11021374  0.60844459  1
  K  K34  1  0.35019023  0.61021374  0.89155541  1
  K  K35  1  0.14980977  0.38978626  0.39155541  1
  K  K36  1  0.10844459  0.85019023  0.88978626  1
  K  K37  1  0.60844459  0.64980977  0.11021374  1
  K  K38  1  0.89155541  0.35019023  0.61021374  1
  K  K39  1  0.39155541  0.14980977  0.38978626  1
  K  K40  1  0.35588189  0.58552157  0.34601682  1
  K  K41  1  0.64411811  0.08552157  0.15398318  1
  K  K42  1  0.14411811  0.41447843  0.84601682  1
  K  K43  1  0.85588189  0.91447843  0.65398318  1
  K  K44  1  0.34601682  0.35588189  0.58552157  1
  K  K45  1  0.15398318  0.64411811  0.08552157  1
  K  K46  1  0.84601682  0.14411811  0.41447843  1
  K  K47  1  0.65398318  0.85588189  0.91447843  1
  K  K48  1  0.58552157  0.34601682  0.35588189  1
  K  K49  1  0.08552157  0.15398318  0.64411811  1
  K  K50  1  0.41447843  0.84601682  0.14411811  1
  K  K51  1  0.91447843  0.65398318  0.85588189  1
  K  K52  1  0.64411811  0.41447843  0.65398318  1
  K  K53  1  0.35588189  0.91447843  0.84601682  1
  K  K54  1  0.85588189  0.58552157  0.15398318  1
  K  K55  1  0.14411811  0.08552157  0.34601682  1
  K  K56  1  0.65398318  0.64411811  0.41447843  1
  K  K57  1  0.84601682  0.35588189  0.91447843  1
  K  K58  1  0.15398318  0.85588189  0.58552157  1
  K  K59  1  0.34601682  0.14411811  0.08552157  1
  K  K60  1  0.41447843  0.65398318  0.64411811  1
  K  K61  1  0.91447843  0.84601682  0.35588189  1
  K  K62  1  0.58552157  0.15398318  0.85588189  1
  K  K63  1  0.08552157  0.34601682  0.14411811  1
  Ca  Ca0  1  0.37556072  0.62443928  0.12443928  1
  Ca  Ca1  1  0.62443928  0.12443928  0.37556072  1
  Ca  Ca2  1  0.12443928  0.37556072  0.62443928  1
  Ca  Ca3  1  0.87556072  0.87556072  0.87556072  1
  Ca  Ca4  1  0.62443928  0.37556072  0.87556072  1
  Ca  Ca5  1  0.37556072  0.87556072  0.62443928  1
  Ca  Ca6  1  0.87556072  0.62443928  0.37556072  1
  Ca  Ca7  1  0.12443928  0.12443928  0.12443928  1
  Ca  Ca8  1  0.12756181  0.87243819  0.37243819  1
  Ca  Ca9  1  0.87243819  0.37243819  0.12756181  1
  Ca  Ca10  1  0.37243819  0.12756181  0.87243819  1
  Ca  Ca11  1  0.62756181  0.62756181  0.62756181  1
  Ca  Ca12  1  0.87243819  0.12756181  0.62756181  1
  Ca  Ca13  1  0.12756181  0.62756181  0.87243819  1
  Ca  Ca14  1  0.62756181  0.87243819  0.12756181  1
  Ca  Ca15  1  0.37243819  0.37243819  0.37243819  1
  Si  Si0  1  0.27929655  0.99079794  0.21757466  1
  Si  Si1  1  0.72070345  0.49079794  0.28242534  1
  Si  Si2  1  0.22070345  0.00920206  0.71757466  1
  Si  Si3  1  0.77929655  0.50920206  0.78242534  1
  Si  Si4  1  0.21757466  0.27929655  0.99079794  1
  Si  Si5  1  0.28242534  0.72070345  0.49079794  1
  Si  Si6  1  0.71757466  0.22070345  0.00920206  1
  Si  Si7  1  0.78242534  0.77929655  0.50920206  1
  Si  Si8  1  0.99079794  0.21757466  0.27929655  1
  Si  Si9  1  0.49079794  0.28242534  0.72070345  1
  Si  Si10  1  0.00920206  0.71757466  0.22070345  1
  Si  Si11  1  0.50920206  0.78242534  0.77929655  1
  Si  Si12  1  0.72070345  0.00920206  0.78242534  1
  Si  Si13  1  0.27929655  0.50920206  0.71757466  1
  Si  Si14  1  0.77929655  0.99079794  0.28242534  1
  Si  Si15  1  0.22070345  0.49079794  0.21757466  1
  Si  Si16  1  0.78242534  0.72070345  0.00920206  1
  Si  Si17  1  0.71757466  0.27929655  0.50920206  1
  Si  Si18  1  0.28242534  0.77929655  0.99079794  1
  Si  Si19  1  0.21757466  0.22070345  0.49079794  1
  Si  Si20  1  0.00920206  0.78242534  0.72070345  1
  Si  Si21  1  0.50920206  0.71757466  0.27929655  1
  Si  Si22  1  0.99079794  0.28242534  0.77929655  1
  Si  Si23  1  0.49079794  0.21757466  0.22070345  1
  Si  Si24  1  0.25671911  0.97346014  0.02431612  1
  Si  Si25  1  0.74328089  0.47346014  0.47568388  1
  Si  Si26  1  0.24328089  0.02653986  0.52431612  1
  Si  Si27  1  0.75671911  0.52653986  0.97568388  1
  Si  Si28  1  0.02431612  0.25671911  0.97346014  1
  Si  Si29  1  0.47568388  0.74328089  0.47346014  1
  Si  Si30  1  0.52431612  0.24328089  0.02653986  1
  Si  Si31  1  0.97568388  0.75671911  0.52653986  1
  Si  Si32  1  0.97346014  0.02431612  0.25671911  1
  Si  Si33  1  0.47346014  0.47568388  0.74328089  1
  Si  Si34  1  0.02653986  0.52431612  0.24328089  1
  Si  Si35  1  0.52653986  0.97568388  0.75671911  1
  Si  Si36  1  0.74328089  0.02653986  0.97568388  1
  Si  Si37  1  0.25671911  0.52653986  0.52431612  1
  Si  Si38  1  0.75671911  0.97346014  0.47568388  1
  Si  Si39  1  0.24328089  0.47346014  0.02431612  1
  Si  Si40  1  0.97568388  0.74328089  0.02653986  1
  Si  Si41  1  0.52431612  0.25671911  0.52653986  1
  Si  Si42  1  0.47568388  0.75671911  0.97346014  1
  Si  Si43  1  0.02431612  0.24328089  0.47346014  1
  Si  Si44  1  0.02653986  0.97568388  0.74328089  1
  Si  Si45  1  0.52653986  0.52431612  0.25671911  1
  Si  Si46  1  0.97346014  0.47568388  0.75671911  1
  Si  Si47  1  0.47346014  0.02431612  0.24328089  1
  O  O0  1  0.07794409  0.77018958  0.27248324  1
  O  O1  1  0.92205591  0.27018958  0.22751676  1
  O  O2  1  0.42205591  0.22981042  0.77248324  1
  O  O3  1  0.57794409  0.72981042  0.72751676  1
  O  O4  1  0.27248324  0.07794409  0.77018958  1
  O  O5  1  0.22751676  0.92205591  0.27018958  1
  O  O6  1  0.77248324  0.42205591  0.22981042  1
  O  O7  1  0.72751676  0.57794409  0.72981042  1
  O  O8  1  0.77018958  0.27248324  0.07794409  1
  O  O9  1  0.27018958  0.22751676  0.92205591  1
  O  O10  1  0.22981042  0.77248324  0.42205591  1
  O  O11  1  0.72981042  0.72751676  0.57794409  1
  O  O12  1  0.92205591  0.22981042  0.72751676  1
  O  O13  1  0.07794409  0.72981042  0.77248324  1
  O  O14  1  0.57794409  0.77018958  0.22751676  1
  O  O15  1  0.42205591  0.27018958  0.27248324  1
  O  O16  1  0.72751676  0.92205591  0.22981042  1
  O  O17  1  0.77248324  0.07794409  0.72981042  1
  O  O18  1  0.22751676  0.57794409  0.77018958  1
  O  O19  1  0.27248324  0.42205591  0.27018958  1
  O  O20  1  0.22981042  0.72751676  0.92205591  1
  O  O21  1  0.72981042  0.77248324  0.07794409  1
  O  O22  1  0.77018958  0.22751676  0.57794409  1
  O  O23  1  0.27018958  0.27248324  0.42205591  1
  O  O24  1  0.03066434  0.82490923  0.47683398  1
  O  O25  1  0.96933566  0.32490923  0.02316602  1
  O  O26  1  0.46933566  0.17509077  0.97683398  1
  O  O27  1  0.53066434  0.67509077  0.52316602  1
  O  O28  1  0.47683398  0.03066434  0.82490923  1
  O  O29  1  0.02316602  0.96933566  0.32490923  1
  O  O30  1  0.97683398  0.46933566  0.17509077  1
  O  O31  1  0.52316602  0.53066434  0.67509077  1
  O  O32  1  0.82490923  0.47683398  0.03066434  1
  O  O33  1  0.32490923  0.02316602  0.96933566  1
  O  O34  1  0.17509077  0.97683398  0.46933566  1
  O  O35  1  0.67509077  0.52316602  0.53066434  1
  O  O36  1  0.96933566  0.17509077  0.52316602  1
  O  O37  1  0.03066434  0.67509077  0.97683398  1
  O  O38  1  0.53066434  0.82490923  0.02316602  1
  O  O39  1  0.46933566  0.32490923  0.47683398  1
  O  O40  1  0.52316602  0.96933566  0.17509077  1
  O  O41  1  0.97683398  0.03066434  0.67509077  1
  O  O42  1  0.02316602  0.53066434  0.82490923  1
  O  O43  1  0.47683398  0.46933566  0.32490923  1
  O  O44  1  0.17509077  0.52316602  0.96933566  1
  O  O45  1  0.67509077  0.97683398  0.03066434  1
  O  O46  1  0.82490923  0.02316602  0.53066434  1
  O  O47  1  0.32490923  0.47683398  0.46933566  1
  O  O48  1  0.04244352  0.61996604  0.20637380  1
  O  O49  1  0.95755648  0.11996604  0.29362620  1
  O  O50  1  0.45755648  0.38003396  0.70637380  1
  O  O51  1  0.54244352  0.88003396  0.79362620  1
  O  O52  1  0.20637380  0.04244352  0.61996604  1
  O  O53  1  0.29362620  0.95755648  0.11996604  1
  O  O54  1  0.70637380  0.45755648  0.38003396  1
  O  O55  1  0.79362620  0.54244352  0.88003396  1
  O  O56  1  0.61996604  0.20637380  0.04244352  1
  O  O57  1  0.11996604  0.29362620  0.95755648  1
  O  O58  1  0.38003396  0.70637380  0.45755648  1
  O  O59  1  0.88003396  0.79362620  0.54244352  1
  O  O60  1  0.95755648  0.38003396  0.79362620  1
  O  O61  1  0.04244352  0.88003396  0.70637380  1
  O  O62  1  0.54244352  0.61996604  0.29362620  1
  O  O63  1  0.45755648  0.11996604  0.20637380  1
  O  O64  1  0.79362620  0.95755648  0.38003396  1
  O  O65  1  0.70637380  0.04244352  0.88003396  1
  O  O66  1  0.29362620  0.54244352  0.61996604  1
  O  O67  1  0.20637380  0.45755648  0.11996604  1
  O  O68  1  0.38003396  0.79362620  0.95755648  1
  O  O69  1  0.88003396  0.70637380  0.04244352  1
  O  O70  1  0.61996604  0.29362620  0.54244352  1
  O  O71  1  0.11996604  0.20637380  0.45755648  1
  O  O72  1  0.25952418  0.58319648  0.21386377  1
  O  O73  1  0.74047582  0.08319648  0.28613623  1
  O  O74  1  0.24047582  0.41680352  0.71386377  1
  O  O75  1  0.75952418  0.91680352  0.78613623  1
  O  O76  1  0.21386377  0.25952418  0.58319648  1
  O  O77  1  0.28613623  0.74047582  0.08319648  1
  O  O78  1  0.71386377  0.24047582  0.41680352  1
  O  O79  1  0.78613623  0.75952418  0.91680352  1
  O  O80  1  0.58319648  0.21386377  0.25952418  1
  O  O81  1  0.08319648  0.28613623  0.74047582  1
  O  O82  1  0.41680352  0.71386377  0.24047582  1
  O  O83  1  0.91680352  0.78613623  0.75952418  1
  O  O84  1  0.74047582  0.41680352  0.78613623  1
  O  O85  1  0.25952418  0.91680352  0.71386377  1
  O  O86  1  0.75952418  0.58319648  0.28613623  1
  O  O87  1  0.24047582  0.08319648  0.21386377  1
  O  O88  1  0.78613623  0.74047582  0.41680352  1
  O  O89  1  0.71386377  0.25952418  0.91680352  1
  O  O90  1  0.28613623  0.75952418  0.58319648  1
  O  O91  1  0.21386377  0.24047582  0.08319648  1
  O  O92  1  0.41680352  0.78613623  0.74047582  1
  O  O93  1  0.91680352  0.71386377  0.25952418  1
  O  O94  1  0.58319648  0.28613623  0.75952418  1
  O  O95  1  0.08319648  0.21386377  0.24047582  1
  O  O96  1  0.33407946  0.51617609  0.03037966  1
  O  O97  1  0.66592054  0.01617609  0.46962034  1
  O  O98  1  0.16592054  0.48382391  0.53037966  1
  O  O99  1  0.83407946  0.98382391  0.96962034  1
  O  O100  1  0.03037966  0.33407946  0.51617609  1
  O  O101  1  0.46962034  0.66592054  0.01617609  1
  O  O102  1  0.53037966  0.16592054  0.48382391  1
  O  O103  1  0.96962034  0.83407946  0.98382391  1
  O  O104  1  0.51617609  0.03037966  0.33407946  1
  O  O105  1  0.01617609  0.46962034  0.66592054  1
  O  O106  1  0.48382391  0.53037966  0.16592054  1
  O  O107  1  0.98382391  0.96962034  0.83407946  1
  O  O108  1  0.66592054  0.48382391  0.96962034  1
  O  O109  1  0.33407946  0.98382391  0.53037966  1
  O  O110  1  0.83407946  0.51617609  0.46962034  1
  O  O111  1  0.16592054  0.01617609  0.03037966  1
  O  O112  1  0.96962034  0.66592054  0.48382391  1
  O  O113  1  0.53037966  0.33407946  0.98382391  1
  O  O114  1  0.46962034  0.83407946  0.51617609  1
  O  O115  1  0.03037966  0.16592054  0.01617609  1
  O  O116  1  0.48382391  0.96962034  0.66592054  1
  O  O117  1  0.98382391  0.53037966  0.33407946  1
  O  O118  1  0.51617609  0.46962034  0.83407946  1
  O  O119  1  0.01617609  0.03037966  0.16592054  1
  O  O120  1  0.01186666  0.75576637  0.12345200  1
  O  O121  1  0.98813334  0.25576637  0.37654800  1
  O  O122  1  0.48813334  0.24423363  0.62345200  1
  O  O123  1  0.51186666  0.74423363  0.87654800  1
  O  O124  1  0.12345200  0.01186666  0.75576637  1
  O  O125  1  0.37654800  0.98813334  0.25576637  1
  O  O126  1  0.62345200  0.48813334  0.24423363  1
  O  O127  1  0.87654800  0.51186666  0.74423363  1
  O  O128  1  0.75576637  0.12345200  0.01186666  1
  O  O129  1  0.25576637  0.37654800  0.98813334  1
  O  O130  1  0.24423363  0.62345200  0.48813334  1
  O  O131  1  0.74423363  0.87654800  0.51186666  1
  O  O132  1  0.98813334  0.24423363  0.87654800  1
  O  O133  1  0.01186666  0.74423363  0.62345200  1
  O  O134  1  0.51186666  0.75576637  0.37654800  1
  O  O135  1  0.48813334  0.25576637  0.12345200  1
  O  O136  1  0.87654800  0.98813334  0.24423363  1
  O  O137  1  0.62345200  0.01186666  0.74423363  1
  O  O138  1  0.37654800  0.51186666  0.75576637  1
  O  O139  1  0.12345200  0.48813334  0.25576637  1
  O  O140  1  0.24423363  0.87654800  0.98813334  1
  O  O141  1  0.74423363  0.62345200  0.01186666  1
  O  O142  1  0.75576637  0.37654800  0.51186666  1
  O  O143  1  0.25576637  0.12345200  0.48813334  1
loop_
_geom_bond_atom_site_label_1
_geom_bond_atom_site_label_2
_geom_bond_distance
_geom_bond_site_symmetry_2
K0 O118 2.737525 1_554
K0 O101 2.737525 1_555
K0 O113 2.737525 1_554
K0 O106 2.737525 1_555
K0 O96 2.737525 1_555
K0 O108 2.737525 1_554
K1 O97 2.737525 1_555
K1 O114 2.737525 1_545
K1 O102 2.737525 1_555
K1 O109 2.737525 1_545
K1 O116 2.737525 1_545
K1 O104 2.737525 1_555
K2 O110 2.737525 1_455
K2 O100 2.737525 1_555
K2 O117 2.737525 1_455
K2 O105 2.737525 1_555
K2 O112 2.737525 1_455
K2 O98 2.737525 1_555
K3 O99 2.737525 1_444
K3 O111 2.737525 1_555
K3 O115 2.737525 1_555
K3 O103 2.737525 1_444
K3 O107 2.737525 1_444
K3 O119 2.737525 1_555
K4 O24 2.895945 1_545
K4 O41 2.895945 1_455
K4 O46 2.895945 1_455
K4 O34 2.895945 1_545
K4 O36 2.895945 1_455
K4 O29 2.895945 1_545
K5 O42 2.895945 1_554
K5 O32 2.895945 1_455
K5 O37 2.895945 1_554
K5 O25 2.895945 1_455
K5 O30 2.895945 1_455
K5 O44 2.895945 1_554
K6 O45 2.895945 1_545
K6 O28 2.895945 1_554
K6 O38 2.895945 1_545
K6 O33 2.895945 1_554
K6 O40 2.895945 1_545
K6 O26 2.895945 1_554
K7 O27 2.895945 1_555
K7 O31 2.895945 1_555
K7 O35 2.895945 1_555
K7 O47 2.895945 1_555
K7 O39 2.895945 1_555
K7 O43 2.895945 1_555
K8 O72 2.740568 1_555
K8 O77 2.740568 1_555
K8 O82 2.740568 1_555
K8 O5 2.843001 1_555
K8 O10 2.843001 1_555
K8 O0 2.843001 1_555
K9 O80 2.740568 1_555
K9 O78 2.740568 1_555
K9 O73 2.740568 1_555
K9 O8 2.843001 1_555
K9 O1 2.843001 1_555
K9 O6 2.843001 1_555
K10 O76 2.740568 1_555
K10 O81 2.740568 1_555
K10 O74 2.740568 1_555
K10 O2 2.843001 1_555
K10 O4 2.843001 1_555
K10 O9 2.843001 1_555
K11 O75 2.740568 1_555
K11 O79 2.740568 1_555
K11 O83 2.740568 1_555
K11 O3 2.843001 1_555
K11 O7 2.843001 1_555
K11 O11 2.843001 1_555
K12 O89 2.740568 1_555
K12 O94 2.740568 1_555
K12 O84 2.740568 1_555
K12 O22 2.843001 1_555
K12 O17 2.843001 1_555
K12 O12 2.843001 1_555
K13 O90 2.740568 1_555
K13 O85 2.740568 1_555
K13 O92 2.740568 1_555
K13 O13 2.843001 1_555
K13 O20 2.843001 1_555
K13 O18 2.843001 1_555
K14 O93 2.740568 1_555
K14 O86 2.740568 1_555
K14 O88 2.740568 1_555
K14 O21 2.843001 1_555
K14 O14 2.843001 1_555
K14 O16 2.843001 1_555
K15 O87 2.740568 1_555
K15 O91 2.740568 1_555
K15 O95 2.740568 1_555
K15 O15 2.843001 1_555
K15 O19 2.843001 1_555
K15 O23 2.843001 1_555
K16 O119 2.721298 1_565
K16 O120 2.741875 1_555
K16 O5 2.759713 1_555
K16 O0 2.836118 1_555
K16 O111 2.930141 1_565
K17 O117 2.721298 1_555
K17 O121 2.741875 1_555
K17 O6 2.759713 1_555
K17 O1 2.836118 1_555
K17 O110 2.930141 1_555
K18 O116 2.721298 1_545
K18 O122 2.741875 1_555
K18 O4 2.759713 1_555
K18 O2 2.836118 1_555
K18 O109 2.930141 1_545
K19 O118 2.721298 1_555
K19 O123 2.741875 1_555
K19 O7 2.759713 1_555
K19 O3 2.836118 1_555
K19 O108 2.930141 1_555
K20 O111 2.721298 1_556
K20 O124 2.741875 1_555
K20 O9 2.759713 1_555
K20 O4 2.836118 1_555
K20 O115 2.930141 1_556
K21 O109 2.721298 1_555
K21 O125 2.741875 1_555
K21 O10 2.759713 1_555
K21 O5 2.836118 1_555
K21 O114 2.930141 1_555
K22 O108 2.721298 1_554
K22 O126 2.741875 1_555
K22 O8 2.759713 1_555
K22 O6 2.836118 1_555
K22 O113 2.930141 1_554
K23 O110 2.721298 1_555
K23 O127 2.741875 1_555
K23 O11 2.759713 1_555
K23 O7 2.836118 1_555
K23 O112 2.930141 1_555
K24 O115 2.721298 1_655
K24 O128 2.741875 1_555
K24 O1 2.759713 1_555
K24 O8 2.836118 1_555
K24 O119 2.930141 1_655
K25 O113 2.721298 1_555
K25 O129 2.741875 1_555
K25 O2 2.759713 1_555
K25 O9 2.836118 1_555
K25 O118 2.930141 1_555
K26 O112 2.721298 1_455
K26 O130 2.741875 1_555
K26 O0 2.759713 1_555
K26 O10 2.836118 1_555
K26 O117 2.930141 1_455
K27 O114 2.721298 1_555
K27 O131 2.741875 1_555
K27 O3 2.759713 1_555
K27 O11 2.836118 1_555
K27 O116 2.930141 1_555
K28 O107 2.721298 1_545
K28 O132 2.741875 1_555
K28 O17 2.759713 1_555
K28 O12 2.836118 1_555
K28 O99 2.930141 1_545
K29 O105 2.721298 1_555
K29 O133 2.741875 1_555
K29 O18 2.759713 1_555
K29 O13 2.836118 1_555
K29 O98 2.930141 1_555
K30 O104 2.721298 1_565
K30 O134 2.741875 1_555
K30 O16 2.759713 1_555
K30 O14 2.836118 1_555
K30 O97 2.930141 1_565
K31 O106 2.721298 1_555
K31 O135 2.741875 1_555
K31 O19 2.759713 1_555
K31 O15 2.836118 1_555
K31 O96 2.930141 1_555
K32 O99 2.721298 1_554
K32 O136 2.741875 1_555
K32 O21 2.759713 1_555
K32 O16 2.836118 1_555
K32 O103 2.930141 1_554
K33 O97 2.721298 1_555
K33 O137 2.741875 1_555
K33 O22 2.759713 1_555
K33 O17 2.836118 1_555
K33 O102 2.930141 1_555
K34 O96 2.721298 1_556
K34 O138 2.741875 1_555
K34 O20 2.759713 1_555
K34 O18 2.836118 1_555
K34 O101 2.930141 1_556
K35 O98 2.721298 1_555
K35 O139 2.741875 1_555
K35 O23 2.759713 1_555
K35 O19 2.836118 1_555
K35 O100 2.930141 1_555
K36 O103 2.721298 1_455
K36 O140 2.741875 1_555
K36 O13 2.759713 1_555
K36 O20 2.836118 1_555
K36 O107 2.930141 1_455
K37 O101 2.721298 1_555
K37 O141 2.741875 1_555
K37 O14 2.759713 1_555
K37 O21 2.836118 1_555
K37 O106 2.930141 1_555
K38 O100 2.721298 1_655
K38 O142 2.741875 1_555
K38 O12 2.759713 1_555
K38 O22 2.836118 1_555
K38 O105 2.930141 1_655
K39 O102 2.721298 1_555
K39 O143 2.741875 1_555
K39 O15 2.759713 1_555
K39 O23 2.836118 1_555
K39 O104 2.930141 1_555
K40 O72 2.642465 1_555
K40 O58 2.685329 1_555
K40 O47 2.702291 1_555
K40 O43 2.730838 1_555
K40 O82 2.859136 1_555
K40 O130 2.983281 1_555
K40 O62 3.179578 1_555
K40 O19 3.207758 1_555
K41 O73 2.642465 1_555
K41 O56 2.685329 1_555
K41 O45 2.702291 1_545
K41 O40 2.730838 1_545
K41 O80 2.859136 1_555
K41 O128 2.983281 1_555
K41 O63 3.179578 1_555
K41 O16 3.207758 1_545
K42 O74 2.642465 1_555
K42 O57 2.685329 1_555
K42 O44 2.702291 1_555
K42 O42 2.730838 1_555
K42 O81 2.859136 1_555
K42 O129 2.983281 1_555
K42 O60 3.179578 1_455
K42 O18 3.207758 1_555
K43 O75 2.642465 1_555
K43 O59 2.685329 1_555
K43 O46 2.702291 1_565
K43 O41 2.730838 1_565
K43 O83 2.859136 1_555
K43 O131 2.983281 1_555
K43 O61 3.179578 1_655
K43 O17 3.207758 1_565
K44 O76 2.642465 1_555
K44 O50 2.685329 1_555
K44 O39 2.702291 1_555
K44 O47 2.730838 1_555
K44 O74 2.859136 1_555
K44 O122 2.983281 1_555
K44 O66 3.179578 1_555
K44 O23 3.207758 1_555
K45 O77 2.642465 1_555
K45 O48 2.685329 1_555
K45 O37 2.702291 1_554
K45 O44 2.730838 1_554
K45 O72 2.859136 1_555
K45 O120 2.983281 1_555
K45 O67 3.179578 1_555
K45 O20 3.207758 1_554
K46 O78 2.642465 1_555
K46 O49 2.685329 1_555
K46 O36 2.702291 1_555
K46 O46 2.730838 1_555
K46 O73 2.859136 1_555
K46 O121 2.983281 1_555
K46 O64 3.179578 1_545
K46 O22 3.207758 1_555
K47 O79 2.642465 1_555
K47 O51 2.685329 1_555
K47 O38 2.702291 1_556
K47 O45 2.730838 1_556
K47 O75 2.859136 1_555
K47 O123 2.983281 1_555
K47 O65 3.179578 1_565
K47 O21 3.207758 1_556
K48 O80 2.642465 1_555
K48 O54 2.685329 1_555
K48 O43 2.702291 1_555
K48 O39 2.730838 1_555
K48 O78 2.859136 1_555
K48 O126 2.983281 1_555
K48 O70 3.179578 1_555
K48 O15 3.207758 1_555
K49 O81 2.642465 1_555
K49 O52 2.685329 1_555
K49 O41 2.702291 1_455
K49 O36 2.730838 1_455
K49 O76 2.859136 1_555
K49 O124 2.983281 1_555
K49 O71 3.179578 1_555
K49 O12 3.207758 1_455
K50 O82 2.642465 1_555
K50 O53 2.685329 1_555
K50 O40 2.702291 1_555
K50 O38 2.730838 1_555
K50 O77 2.859136 1_555
K50 O125 2.983281 1_555
K50 O68 3.179578 1_554
K50 O14 3.207758 1_555
K51 O83 2.642465 1_555
K51 O55 2.685329 1_555
K51 O42 2.702291 1_655
K51 O37 2.730838 1_655
K51 O79 2.859136 1_555
K51 O127 2.983281 1_555
K51 O69 3.179578 1_556
K51 O13 3.207758 1_655
K52 O84 2.642465 1_555
K52 O70 2.685329 1_555
K52 O35 2.702291 1_555
K52 O31 2.730838 1_555
K52 O94 2.859136 1_555
K52 O142 2.983281 1_555
K52 O50 3.179578 1_555
K52 O7 3.207758 1_555
K53 O85 2.642465 1_555
K53 O68 2.685329 1_555
K53 O33 2.702291 1_565
K53 O28 2.730838 1_565
K53 O92 2.859136 1_555
K53 O140 2.983281 1_555
K53 O51 3.179578 1_555
K53 O4 3.207758 1_565
K54 O86 2.642465 1_555
K54 O69 2.685329 1_555
K54 O32 2.702291 1_555
K54 O30 2.730838 1_555
K54 O93 2.859136 1_555
K54 O141 2.983281 1_555
K54 O48 3.179578 1_655
K54 O6 3.207758 1_555
K55 O87 2.642465 1_555
K55 O71 2.685329 1_555
K55 O34 2.702291 1_545
K55 O29 2.730838 1_545
K55 O95 2.859136 1_555
K55 O143 2.983281 1_555
K55 O49 3.179578 1_455
K55 O5 3.207758 1_545
K56 O88 2.642465 1_555
K56 O62 2.685329 1_555
K56 O27 2.702291 1_555
K56 O35 2.730838 1_555
K56 O86 2.859136 1_555
K56 O134 2.983281 1_555
K56 O54 3.179578 1_555
K56 O11 3.207758 1_555
K57 O89 2.642465 1_555
K57 O60 2.685329 1_555
K57 O25 2.702291 1_556
K57 O32 2.730838 1_556
K57 O84 2.859136 1_555
K57 O132 2.983281 1_555
K57 O55 3.179578 1_555
K57 O8 3.207758 1_556
K58 O90 2.642465 1_555
K58 O61 2.685329 1_555
K58 O24 2.702291 1_555
K58 O34 2.730838 1_555
K58 O85 2.859136 1_555
K58 O133 2.983281 1_555
K58 O52 3.179578 1_565
K58 O10 3.207758 1_555
K59 O91 2.642465 1_555
K59 O63 2.685329 1_555
K59 O26 2.702291 1_554
K59 O33 2.730838 1_554
K59 O87 2.859136 1_555
K59 O135 2.983281 1_555
K59 O53 3.179578 1_545
K59 O9 3.207758 1_554
K60 O92 2.642465 1_555
K60 O66 2.685329 1_555
K60 O31 2.702291 1_555
K60 O27 2.730838 1_555
K60 O90 2.859136 1_555
K60 O138 2.983281 1_555
K60 O58 3.179578 1_555
K60 O3 3.207758 1_555
K61 O93 2.642465 1_555
K61 O64 2.685329 1_555
K61 O29 2.702291 1_655
K61 O24 2.730838 1_655
K61 O88 2.859136 1_555
K61 O136 2.983281 1_555
K61 O59 3.179578 1_555
K61 O0 3.207758 1_655
K62 O94 2.642465 1_555
K62 O65 2.685329 1_555
K62 O28 2.702291 1_555
K62 O26 2.730838 1_555
K62 O89 2.859136 1_555
K62 O137 2.983281 1_555
K62 O56 3.179578 1_556
K62 O2 3.207758 1_555
K63 O95 2.642465 1_555
K63 O67 2.685329 1_555
K63 O30 2.702291 1_455
K63 O25 2.730838 1_455
K63 O91 2.859136 1_555
K63 O139 2.983281 1_555
K63 O57 3.179578 1_554
K63 O1 3.207758 1_455
Ca0 O101 2.411866 1_555
Ca0 O106 2.411866 1_555
Ca0 O96 2.411866 1_555
Ca0 O77 2.458665 1_555
Ca0 O82 2.458665 1_555
Ca0 O72 2.458665 1_555
Ca1 O97 2.411866 1_555
Ca1 O102 2.411866 1_555
Ca1 O104 2.411866 1_555
Ca1 O78 2.458665 1_555
Ca1 O73 2.458665 1_555
Ca1 O80 2.458665 1_555
Ca2 O105 2.411866 1_555
Ca2 O98 2.411866 1_555
Ca2 O100 2.411866 1_555
Ca2 O81 2.458665 1_555
Ca2 O74 2.458665 1_555
Ca2 O76 2.458665 1_555
Ca3 O107 2.411866 1_555
Ca3 O99 2.411866 1_555
Ca3 O103 2.411866 1_555
Ca3 O79 2.458665 1_555
Ca3 O83 2.458665 1_555
Ca3 O75 2.458665 1_555
Ca4 O108 2.411866 1_555
Ca4 O118 2.411866 1_555
Ca4 O113 2.411866 1_555
Ca4 O84 2.458665 1_555
Ca4 O94 2.458665 1_555
Ca4 O89 2.458665 1_555
Ca5 O116 2.411866 1_555
Ca5 O114 2.411866 1_555
Ca5 O109 2.411866 1_555
Ca5 O92 2.458665 1_555
Ca5 O90 2.458665 1_555
Ca5 O85 2.458665 1_555
Ca6 O112 2.411866 1_555
Ca6 O110 2.411866 1_555
Ca6 O117 2.411866 1_555
Ca6 O88 2.458665 1_555
Ca6 O86 2.458665 1_555
Ca6 O93 2.458665 1_555
Ca7 O119 2.411866 1_555
Ca7 O111 2.411866 1_555
Ca7 O115 2.411866 1_555
Ca7 O87 2.458665 1_555
Ca7 O91 2.458665 1_555
Ca7 O95 2.458665 1_555
Ca8 O24 2.425773 1_555
Ca8 O34 2.425773 1_555
Ca8 O29 2.425773 1_555
Ca8 O10 2.445120 1_555
Ca8 O0 2.445120 1_555
Ca8 O5 2.445120 1_555
Ca9 O32 2.425773 1_555
Ca9 O30 2.425773 1_555
Ca9 O25 2.425773 1_555
Ca9 O8 2.445120 1_555
Ca9 O6 2.445120 1_555
Ca9 O1 2.445120 1_555
Ca10 O28 2.425773 1_555
Ca10 O26 2.425773 1_555
Ca10 O33 2.425773 1_555
Ca10 O4 2.445120 1_555
Ca10 O2 2.445120 1_555
Ca10 O9 2.445120 1_555
Ca11 O31 2.425773 1_555
Ca11 O35 2.425773 1_555
Ca11 O27 2.425773 1_555
Ca11 O3 2.445120 1_555
Ca11 O7 2.445120 1_555
Ca11 O11 2.445120 1_555
Ca12 O41 2.425773 1_555
Ca12 O46 2.425773 1_555
Ca12 O36 2.425773 1_555
Ca12 O17 2.445120 1_555
Ca12 O12 2.445120 1_555
Ca12 O22 2.445120 1_555
Ca13 O37 2.425773 1_555
Ca13 O44 2.425773 1_555
Ca13 O42 2.425773 1_555
Ca13 O13 2.445120 1_555
Ca13 O20 2.445120 1_555
Ca13 O18 2.445120 1_555
Ca14 O45 2.425773 1_555
Ca14 O40 2.425773 1_555
Ca14 O38 2.425773 1_555
Ca14 O21 2.445120 1_555
Ca14 O16 2.445120 1_555
Ca14 O14 2.445120 1_555
Ca15 O47 2.425773 1_555
Ca15 O39 2.425773 1_555
Ca15 O43 2.425773 1_555
Ca15 O15 2.445120 1_555
Ca15 O19 2.445120 1_555
Ca15 O23 2.445120 1_555
O0 Si10 1.629580 1_555
O1 Si8 1.629580 1_555
O2 Si9 1.629580 1_555
O3 Si11 1.629580 1_555
O4 Si2 1.629580 1_555
O5 Si0 1.629580 1_555
O6 Si1 1.629580 1_555
O7 Si3 1.629580 1_555
O8 Si6 1.629580 1_555
O9 Si4 1.629580 1_555
O10 Si5 1.629580 1_555
O11 Si7 1.629580 1_555
O12 Si22 1.629580 1_555
O13 Si20 1.629580 1_555
O14 Si21 1.629580 1_555
O15 Si23 1.629580 1_555
O16 Si14 1.629580 1_555
O17 Si12 1.629580 1_555
O18 Si13 1.629580 1_555
O19 Si15 1.629580 1_555
O20 Si18 1.629580 1_555
O21 Si16 1.629580 1_555
O22 Si17 1.629580 1_555
O23 Si19 1.629580 1_555
O24 Si31 1.627053 1_455
O25 Si28 1.627053 1_654
O26 Si30 1.627053 1_556
O27 Si29 1.627053 1_555
O28 Si35 1.627053 1_545
O29 Si32 1.627053 1_465
O30 Si34 1.627053 1_655
O31 Si33 1.627053 1_555
O32 Si27 1.627053 1_554
O33 Si24 1.627053 1_546
O34 Si26 1.627053 1_565
O35 Si25 1.627053 1_555
O36 Si43 1.627053 1_655
O37 Si40 1.627053 1_456
O38 Si42 1.627053 1_554
O39 Si41 1.627053 1_555
O40 Si47 1.627053 1_565
O41 Si44 1.627053 1_645
O42 Si46 1.627053 1_455
O43 Si45 1.627053 1_555
O44 Si39 1.627053 1_556
O45 Si36 1.627053 1_564
O46 Si38 1.627053 1_545
O47 Si37 1.627053 1_555
O48 Si34 1.676084 1_555
O48 Si10 1.681821 1_555
O49 Si32 1.676084 1_555
O49 Si8 1.681821 1_555
O50 Si33 1.676084 1_555
O50 Si9 1.681821 1_555
O51 Si35 1.676084 1_555
O51 Si11 1.681821 1_555
O52 Si26 1.676084 1_555
O52 Si2 1.681821 1_555
O53 Si24 1.676084 1_555
O53 Si0 1.681821 1_555
O54 Si25 1.676084 1_555
O54 Si1 1.681821 1_555
O55 Si27 1.676084 1_555
O55 Si3 1.681821 1_555
O56 Si30 1.676084 1_555
O56 Si6 1.681821 1_555
O57 Si28 1.676084 1_555
O57 Si4 1.681821 1_555
O58 Si29 1.676084 1_555
O58 Si5 1.681821 1_555
O59 Si31 1.676084 1_555
O59 Si7 1.681821 1_555
O60 Si46 1.676084 1_555
O60 Si22 1.681821 1_555
O61 Si44 1.676084 1_555
O61 Si20 1.681821 1_555
O62 Si45 1.676084 1_555
O62 Si21 1.681821 1_555
O63 Si47 1.676084 1_555
O63 Si23 1.681821 1_555
O64 Si38 1.676084 1_555
O64 Si14 1.681821 1_555
O65 Si36 1.676084 1_555
O65 Si12 1.681821 1_555
O66 Si37 1.676084 1_555
O66 Si13 1.681821 1_555
O67 Si39 1.676084 1_555
O67 Si15 1.681821 1_555
O68 Si42 1.676084 1_555
O68 Si18 1.681821 1_555
O69 Si40 1.676084 1_555
O69 Si16 1.681821 1_555
O70 Si41 1.676084 1_555
O70 Si17 1.681821 1_555
O71 Si43 1.676084 1_555
O71 Si19 1.681821 1_555
O72 Si15 1.620213 1_555
O73 Si14 1.620213 1_545
O74 Si13 1.620213 1_555
O75 Si12 1.620213 1_565
O76 Si19 1.620213 1_555
O77 Si18 1.620213 1_554
O78 Si17 1.620213 1_555
O79 Si16 1.620213 1_556
O80 Si23 1.620213 1_555
O81 Si22 1.620213 1_455
O82 Si21 1.620213 1_555
O83 Si20 1.620213 1_655
O84 Si3 1.620213 1_555
O85 Si2 1.620213 1_565
O86 Si1 1.620213 1_555
O87 Si0 1.620213 1_545
O88 Si7 1.620213 1_555
O89 Si6 1.620213 1_556
O90 Si5 1.620213 1_555
O91 Si4 1.620213 1_554
O92 Si11 1.620213 1_555
O93 Si10 1.620213 1_655
O94 Si9 1.620213 1_555
O95 Si8 1.620213 1_455
O96 Si39 1.624033 1_555
O97 Si38 1.624033 1_545
O98 Si37 1.624033 1_555
O99 Si36 1.624033 1_565
O100 Si43 1.624033 1_555
O101 Si42 1.624033 1_554
O102 Si41 1.624033 1_555
O103 Si40 1.624033 1_556
O104 Si47 1.624033 1_555
O105 Si46 1.624033 1_455
O106 Si45 1.624033 1_555
O107 Si44 1.624033 1_655
O108 Si27 1.624033 1_555
O109 Si26 1.624033 1_565
O110 Si25 1.624033 1_555
O111 Si24 1.624033 1_545
O112 Si31 1.624033 1_555
O113 Si30 1.624033 1_556
O114 Si29 1.624033 1_555
O115 Si28 1.624033 1_554
O116 Si35 1.624033 1_555
O117 Si34 1.624033 1_655
O118 Si33 1.624033 1_555
O119 Si32 1.624033 1_455
O120 Si40 1.683315 1_455
O120 Si10 1.688463 1_555
O121 Si43 1.683315 1_655
O121 Si8 1.688463 1_555
O122 Si41 1.683315 1_555
O122 Si9 1.688463 1_555
O123 Si42 1.683315 1_555
O123 Si11 1.688463 1_555
O124 Si44 1.683315 1_545
O124 Si2 1.688463 1_555
O125 Si47 1.683315 1_565
O125 Si0 1.688463 1_555
O126 Si45 1.683315 1_555
O126 Si1 1.688463 1_555
O127 Si46 1.683315 1_555
O127 Si3 1.688463 1_555
O128 Si36 1.683315 1_554
O128 Si6 1.688463 1_555
O129 Si39 1.683315 1_556
O129 Si4 1.688463 1_555
O130 Si37 1.683315 1_555
O130 Si5 1.688463 1_555
O131 Si38 1.683315 1_555
O131 Si7 1.688463 1_555
O132 Si28 1.683315 1_655
O132 Si22 1.688463 1_555
O133 Si31 1.683315 1_455
O133 Si20 1.688463 1_555
O134 Si29 1.683315 1_555
O134 Si21 1.688463 1_555
O135 Si30 1.683315 1_555
O135 Si23 1.688463 1_555
O136 Si32 1.683315 1_565
O136 Si14 1.688463 1_555
O137 Si35 1.683315 1_545
O137 Si12 1.688463 1_555
O138 Si33 1.683315 1_555
O138 Si13 1.688463 1_555
O139 Si34 1.683315 1_555
O139 Si15 1.688463 1_555
O140 Si24 1.683315 1_556
O140 Si18 1.688463 1_555
O141 Si27 1.683315 1_554
O141 Si16 1.688463 1_555
O142 Si25 1.683315 1_555
O142 Si17 1.688463 1_555
O143 Si26 1.683315 1_555
O143 Si19 1.688463 1_555
