# generated using pymatgen
data_MgCu(Si2O5)2
_symmetry_space_group_name_H-M   'P 1'
_cell_length_a   7.23679700
_cell_length_b   7.23679700
_cell_length_c   14.86892400
_cell_angle_alpha   90.00000000
_cell_angle_beta   90.00000000
_cell_angle_gamma   90.00000000
_symmetry_Int_Tables_number   1
_chemical_formula_structural   MgCu(Si2O5)2
_chemical_formula_sum   'Mg4 Cu4 Si16 O40'
_cell_volume   778.70385084
_cell_formula_units_Z   4
loop_
 _symmetry_equiv_pos_site_id
 _symmetry_equiv_pos_as_xyz
  1  'x, y, z'
loop_
 _atom_site_type_symbol
 _atom_site_label
 _atom_site_symmetry_multiplicity
 _atom_site_fract_x
 _atom_site_fract_y
 _atom_site_fract_z
 _atom_site_occupancy
  Mg  Mg0  1  0.50000000  0.50000000  0.50000000  1
  Mg  Mg1  1  0.00000000  0.00000000  0.50000000  1
  Mg  Mg2  1  0.00000000  0.00000000  0.00000000  1
  Mg  Mg3  1  0.50000000  0.50000000  0.00000000  1
  Cu  Cu0  1  0.50000000  0.00000000  0.57272500  1
  Cu  Cu1  1  0.00000000  0.50000000  0.92727500  1
  Cu  Cu2  1  0.00000000  0.50000000  0.42727500  1
  Cu  Cu3  1  0.50000000  0.00000000  0.07272500  1
  Si  Si0  1  0.16874200  0.24244900  0.64393000  1
  Si  Si1  1  0.83125800  0.75755100  0.64393000  1
  Si  Si2  1  0.24244900  0.16874200  0.85607000  1
  Si  Si3  1  0.74244900  0.33125800  0.64393000  1
  Si  Si4  1  0.25755100  0.66874200  0.64393000  1
  Si  Si5  1  0.33125800  0.74244900  0.85607000  1
  Si  Si6  1  0.66874200  0.25755100  0.85607000  1
  Si  Si7  1  0.75755100  0.83125800  0.85607000  1
  Si  Si8  1  0.33125800  0.25755100  0.35607000  1
  Si  Si9  1  0.66874200  0.74244900  0.35607000  1
  Si  Si10  1  0.25755100  0.33125800  0.14393000  1
  Si  Si11  1  0.75755100  0.16874200  0.35607000  1
  Si  Si12  1  0.24244900  0.83125800  0.35607000  1
  Si  Si13  1  0.16874200  0.75755100  0.14393000  1
  Si  Si14  1  0.83125800  0.24244900  0.14393000  1
  Si  Si15  1  0.74244900  0.66874200  0.14393000  1
  O  O0  1  0.23952400  0.08407400  0.57530100  1
  O  O1  1  0.76047600  0.91592600  0.57530100  1
  O  O2  1  0.08407400  0.23952400  0.92469900  1
  O  O3  1  0.58407400  0.26047600  0.57530100  1
  O  O4  1  0.41592600  0.73952400  0.57530100  1
  O  O5  1  0.26047600  0.58407400  0.92469900  1
  O  O6  1  0.73952400  0.41592600  0.92469900  1
  O  O7  1  0.91592600  0.76047600  0.92469900  1
  O  O8  1  0.26047600  0.41592600  0.42469900  1
  O  O9  1  0.73952400  0.58407400  0.42469900  1
  O  O10  1  0.41592600  0.26047600  0.07530100  1
  O  O11  1  0.91592600  0.23952400  0.42469900  1
  O  O12  1  0.08407400  0.76047600  0.42469900  1
  O  O13  1  0.23952400  0.91592600  0.07530100  1
  O  O14  1  0.76047600  0.08407400  0.07530100  1
  O  O15  1  0.24605400  0.05335300  0.37748000  1
  O  O16  1  0.58407400  0.73952400  0.07530100  1
  O  O17  1  0.74605400  0.55335300  0.62252000  1
  O  O18  1  0.44664700  0.25394600  0.87748000  1
  O  O19  1  0.94664700  0.24605400  0.62252000  1
  O  O20  1  0.05335300  0.75394600  0.62252000  1
  O  O21  1  0.24605400  0.94664700  0.87748000  1
  O  O22  1  0.75394600  0.05335300  0.87748000  1
  O  O23  1  0.55335300  0.74605400  0.87748000  1
  O  O24  1  0.70024300  0.70024300  0.25000000  1
  O  O25  1  0.79975700  0.20024300  0.25000000  1
  O  O26  1  0.20024300  0.79975700  0.25000000  1
  O  O27  1  0.29975700  0.29975700  0.25000000  1
  O  O28  1  0.79975700  0.79975700  0.75000000  1
  O  O29  1  0.70024300  0.29975700  0.75000000  1
  O  O30  1  0.29975700  0.70024300  0.75000000  1
  O  O31  1  0.20024300  0.20024300  0.75000000  1
  O  O32  1  0.94664700  0.75394600  0.12252000  1
  O  O33  1  0.74605400  0.44664700  0.12252000  1
  O  O34  1  0.25394600  0.55335300  0.12252000  1
  O  O35  1  0.44664700  0.74605400  0.37748000  1
  O  O36  1  0.55335300  0.25394600  0.37748000  1
  O  O37  1  0.05335300  0.24605400  0.12252000  1
  O  O38  1  0.75394600  0.94664700  0.37748000  1
  O  O39  1  0.25394600  0.44664700  0.62252000  1
loop_
_geom_bond_atom_site_label_1
_geom_bond_atom_site_label_2
_geom_bond_distance
_geom_bond_site_symmetry_2
Mg0 O9 2.151375 1_555
Mg0 O3 2.151375 1_555
Mg0 O4 2.151375 1_555
Mg0 O8 2.151375 1_555
Mg0 O36 2.576530 1_555
Mg0 O17 2.576530 1_555
Mg0 O35 2.576530 1_555
Mg0 O39 2.576530 1_555
Mg1 O0 2.151375 1_555
Mg1 O11 2.151375 1_455
Mg1 O12 2.151375 1_545
Mg1 O1 2.151375 1_445
Mg1 O15 2.576530 1_555
Mg1 O38 2.576530 1_445
Mg1 O20 2.576530 1_545
Mg1 O19 2.576530 1_455
Mg2 O13 2.151375 1_545
Mg2 O14 2.151375 1_455
Mg2 O2 2.151375 1_554
Mg2 O7 2.151375 1_444
Mg2 O22 2.576530 1_454
Mg2 O37 2.576530 1_555
Mg2 O21 2.576530 1_544
Mg2 O32 2.576530 1_445
Mg3 O16 2.151375 1_555
Mg3 O10 2.151375 1_555
Mg3 O5 2.151375 1_554
Mg3 O6 2.151375 1_554
Mg3 O23 2.576530 1_554
Mg3 O34 2.576530 1_555
Mg3 O18 2.576530 1_554
Mg3 O33 2.576530 1_555
Cu0 O1 1.981141 1_545
Cu0 O3 1.981141 1_555
Cu0 O0 1.981141 1_555
Cu0 O4 1.981141 1_545
Cu1 O7 1.981141 1_455
Cu1 O5 1.981141 1_555
Cu1 O2 1.981141 1_555
Cu1 O6 1.981141 1_455
Cu2 O12 1.981141 1_555
Cu2 O9 1.981141 1_455
Cu2 O8 1.981141 1_555
Cu2 O11 1.981141 1_455
Cu3 O14 1.981141 1_555
Cu3 O16 1.981141 1_545
Cu3 O10 1.981141 1_555
Cu3 O13 1.981141 1_545
O0 Si0 1.617804 1_555
O1 Si1 1.617804 1_555
O2 Si2 1.617804 1_555
O3 Si3 1.617804 1_555
O4 Si4 1.617804 1_555
O5 Si5 1.617804 1_555
O6 Si6 1.617804 1_555
O7 Si7 1.617804 1_555
O8 Si8 1.617804 1_555
O9 Si9 1.617804 1_555
O10 Si10 1.617804 1_555
O11 Si11 1.617804 1_555
O12 Si12 1.617804 1_555
O13 Si13 1.617804 1_555
O14 Si14 1.617804 1_555
O15 Si8 1.632562 1_555
O15 Si12 1.638687 1_545
O16 Si15 1.617804 1_555
O17 Si1 1.632562 1_555
O17 Si3 1.638687 1_555
O18 Si2 1.632562 1_555
O18 Si6 1.638687 1_555
O19 Si3 1.632562 1_555
O19 Si0 1.638687 1_655
O20 Si4 1.632562 1_555
O20 Si1 1.638687 1_455
O21 Si5 1.632562 1_555
O21 Si2 1.638687 1_565
O22 Si6 1.632562 1_555
O22 Si7 1.638687 1_545
O23 Si7 1.632562 1_555
O23 Si5 1.638687 1_555
O24 Si15 1.622545 1_555
O24 Si9 1.622545 1_555
O25 Si11 1.622545 1_555
O25 Si14 1.622545 1_555
O26 Si13 1.622545 1_555
O26 Si12 1.622545 1_555
O27 Si10 1.622545 1_555
O27 Si8 1.622545 1_555
O28 Si1 1.622545 1_555
O28 Si7 1.622545 1_555
O29 Si3 1.622545 1_555
O29 Si6 1.622545 1_555
O30 Si4 1.622545 1_555
O30 Si5 1.622545 1_555
O31 Si0 1.622545 1_555
O31 Si2 1.622545 1_555
O32 Si15 1.632562 1_555
O32 Si13 1.638687 1_655
O33 Si14 1.632562 1_555
O33 Si15 1.638687 1_555
O34 Si13 1.632562 1_555
O34 Si10 1.638687 1_555
O35 Si12 1.632562 1_555
O35 Si9 1.638687 1_555
O36 Si11 1.632562 1_555
O36 Si8 1.638687 1_555
O37 Si10 1.632562 1_555
O37 Si14 1.638687 1_455
O38 Si9 1.632562 1_555
O38 Si11 1.638687 1_565
O39 Si0 1.632562 1_555
O39 Si4 1.638687 1_555
