# generated using pymatgen
data_Li19Cu4(HO2)8
_symmetry_space_group_name_H-M   'P 1'
_cell_length_a   5.49808500
_cell_length_b   7.44292738
_cell_length_c   11.00248027
_cell_angle_alpha   89.63459794
_cell_angle_beta   89.50661660
_cell_angle_gamma   89.86593122
_symmetry_Int_Tables_number   1
_chemical_formula_structural   Li19Cu4(HO2)8
_chemical_formula_sum   'Li19 Cu4 H8 O16'
_cell_volume   450.21479387
_cell_formula_units_Z   1
loop_
 _symmetry_equiv_pos_site_id
 _symmetry_equiv_pos_as_xyz
  1  'x, y, z'
loop_
 _atom_site_type_symbol
 _atom_site_label
 _atom_site_symmetry_multiplicity
 _atom_site_fract_x
 _atom_site_fract_y
 _atom_site_fract_z
 _atom_site_occupancy
  Li  Li0  1  0.94004800  0.74858000  0.95127600  1
  Li  Li1  1  0.93868300  0.24096500  0.78020200  1
  Li  Li2  1  0.94096800  0.23485100  0.27404200  1
  Li  Li3  1  0.79566700  0.49391400  0.15456700  1
  Li  Li4  1  0.77603200  0.00553000  0.15203200  1
  Li  Li5  1  0.71366300  0.99082400  0.65230900  1
  Li  Li6  1  0.71631600  0.50818100  0.65371700  1
  Li  Li7  1  0.51422000  0.74709100  0.75594200  1
  Li  Li8  1  0.55720300  0.73301800  0.27946300  1
  Li  Li9  1  0.54796400  0.25114000  0.45166000  1
  Li  Li10  1  0.44506000  0.25847300  0.22563800  1
  Li  Li11  1  0.42589300  0.25005400  0.71619600  1
  Li  Li12  1  0.28823600  0.00292100  0.34182600  1
  Li  Li13  1  0.26643500  0.49459200  0.34047200  1
  Li  Li14  1  0.21215500  0.49983100  0.85004200  1
  Li  Li15  1  0.21744100  0.99613900  0.85124500  1
  Li  Li16  1  0.05897600  0.24988400  0.04901600  1
  Li  Li17  1  0.06253300  0.76558600  0.20572000  1
  Li  Li18  1  0.03568900  0.75001800  0.73836900  1
  Cu  Cu0  1  0.00008500  0.25050900  0.51758100  1
  Cu  Cu1  1  0.49784800  0.75031900  0.01957700  1
  Cu  Cu2  1  0.50676600  0.24880000  0.98142200  1
  Cu  Cu3  1  0.01683400  0.74972600  0.47840000  1
  H  H0  1  0.74094400  0.48882400  0.88597700  1
  H  H1  1  0.74008400  0.00580500  0.88578900  1
  H  H2  1  0.74101800  0.97863100  0.38848100  1
  H  H3  1  0.74163800  0.51049300  0.38953300  1
  H  H4  1  0.27242400  0.97258400  0.61195000  1
  H  H5  1  0.26316900  0.99191800  0.10958400  1
  H  H6  1  0.27312900  0.52714000  0.61177800  1
  H  H7  1  0.25916000  0.51780600  0.10781900  1
  O  O0  1  0.85809700  0.96617700  0.82465400  1
  O  O1  1  0.85396800  0.53840900  0.82579600  1
  O  O2  1  0.81274000  0.75021100  0.60244500  1
  O  O3  1  0.74468000  0.25025200  0.62149400  1
  O  O4  1  0.75606900  0.74981400  0.12134100  1
  O  O5  1  0.72433400  0.25126100  0.10187000  1
  O  O6  1  0.64314900  0.46509700  0.32283900  1
  O  O7  1  0.65511400  0.04381400  0.32464500  1
  O  O8  1  0.35780100  0.97940700  0.68891900  1
  O  O9  1  0.35782000  0.52053100  0.68896800  1
  O  O10  1  0.27382800  0.74762500  0.90309500  1
  O  O11  1  0.24156400  0.24800600  0.88508200  1
  O  O12  1  0.23201800  0.74934600  0.35604400  1
  O  O13  1  0.21687600  0.24783200  0.39500700  1
  O  O14  1  0.15035000  0.03847200  0.17149200  1
  O  O15  1  0.16011800  0.45423600  0.16856800  1
loop_
_geom_bond_atom_site_label_1
_geom_bond_atom_site_label_2
_geom_bond_distance
_geom_bond_site_symmetry_2
Li0 O10 1.905801 1_655
Li0 O4 2.119437 1_556
Li0 O1 2.149251 1_555
Li0 O0 2.178414 1_555
Li1 O11 2.035119 1_655
Li1 O3 2.054715 1_555
Li1 O0 2.146210 1_545
Li1 O1 2.318417 1_555
Li2 O13 2.029520 1_655
Li2 O14 2.173821 1_655
Li2 O7 2.187940 1_555
Li2 O5 2.248831 1_555
Li2 O15 2.329316 1_655
Li2 O6 2.426867 1_555
Li3 O5 1.942262 1_555
Li3 O4 1.949169 1_555
Li3 O15 2.031762 1_655
Li3 O6 2.036157 1_555
Li4 O5 1.928179 1_555
Li4 O4 1.938645 1_545
Li4 O7 2.028373 1_555
Li4 O14 2.086163 1_655
Li5 O2 1.951344 1_555
Li5 O3 1.965863 1_565
Li5 O8 1.996087 1_555
Li5 O0 2.068994 1_555
Li6 O2 1.957225 1_555
Li6 O3 1.960043 1_555
Li6 O9 2.007566 1_555
Li6 O1 2.058853 1_555
Li7 O9 2.039479 1_555
Li7 O8 2.064200 1_555
Li7 O10 2.081205 1_555
Li7 O2 2.344891 1_555
Li8 O12 1.973734 1_555
Li8 O4 2.050096 1_555
Li8 O6 2.101164 1_555
Li9 O13 1.929445 1_555
Li9 O7 2.165706 1_555
Li9 O3 2.167044 1_555
Li9 O6 2.186561 1_555
Li10 O5 2.044375 1_555
Li10 O6 2.178041 1_555
Li10 O15 2.228498 1_555
Li10 O13 2.238550 1_555
Li10 O7 2.250301 1_555
Li10 O14 2.388125 1_555
Li11 O3 2.031314 1_555
Li11 O9 2.067189 1_555
Li11 O8 2.073941 1_545
Li11 O11 2.108882 1_555
Li12 O12 1.918383 1_545
Li12 O13 1.955864 1_555
Li12 O14 2.043083 1_555
Li12 O7 2.047619 1_555
Li13 O12 1.913719 1_555
Li13 O13 1.947537 1_555
Li13 O15 2.009054 1_555
Li13 O6 2.089789 1_555
Li14 O11 1.917882 1_555
Li14 O9 1.943845 1_555
Li14 O10 1.969075 1_555
Li14 O1 2.009314 1_455
Li15 O11 1.918681 1_565
Li15 O8 1.944082 1_555
Li15 O10 1.956974 1_555
Li15 O0 2.012854 1_455
Li16 O5 1.924846 1_455
Li16 O11 2.056773 1_554
Li16 O15 2.096395 1_555
Li16 O14 2.127239 1_555
Li17 O12 1.908380 1_555
Li17 O4 1.934950 1_455
Li17 O14 2.119409 1_565
Li18 O2 1.941811 1_455
Li18 O1 2.091793 1_455
Li18 O0 2.106949 1_455
Li18 O10 2.244934 1_555
Cu0 O13 1.792324 1_555
Cu0 O3 1.803153 1_455
Cu1 O10 1.785369 1_554
Cu1 O4 1.815640 1_555
Cu2 O5 1.793094 1_556
Cu2 O11 1.810081 1_555
Cu3 O2 1.759413 1_455
Cu3 O12 1.784557 1_555
H0 O1 0.975531 1_555
H1 O0 0.977013 1_545
H2 O7 0.975727 1_565
H3 O6 0.978115 1_555
H4 O8 0.973440 1_555
H5 O14 0.981581 1_565
H6 O9 0.972979 1_555
H7 O15 0.978796 1_555
