# generated using pymatgen
data_Li2Fe2(SiO3)3
_symmetry_space_group_name_H-M   'P 1'
_cell_length_a   10.49464780
_cell_length_b   7.19738700
_cell_length_c   11.96964166
_cell_angle_alpha   90.00000000
_cell_angle_beta   110.08212510
_cell_angle_gamma   90.00000000
_symmetry_Int_Tables_number   1
_chemical_formula_structural   Li2Fe2(SiO3)3
_chemical_formula_sum   'Li8 Fe8 Si12 O36'
_cell_volume   849.14647859
_cell_formula_units_Z   4
loop_
 _symmetry_equiv_pos_site_id
 _symmetry_equiv_pos_as_xyz
  1  'x, y, z'
loop_
 _atom_site_type_symbol
 _atom_site_label
 _atom_site_symmetry_multiplicity
 _atom_site_fract_x
 _atom_site_fract_y
 _atom_site_fract_z
 _atom_site_occupancy
  Li  Li0  1  0.05057900  0.93430400  0.62005000  1
  Li  Li1  1  0.05057900  0.56569600  0.12005000  1
  Li  Li2  1  0.42141600  0.08009500  0.69102600  1
  Li  Li3  1  0.57858400  0.58009500  0.80897400  1
  Li  Li4  1  0.42141600  0.41990500  0.19102600  1
  Li  Li5  1  0.57858400  0.91990500  0.30897400  1
  Li  Li6  1  0.94942100  0.43430400  0.87995000  1
  Li  Li7  1  0.94942100  0.06569600  0.37995000  1
  Fe  Fe0  1  0.05483500  0.88975000  0.91824500  1
  Fe  Fe1  1  0.05483500  0.61025000  0.41824500  1
  Fe  Fe2  1  0.42920800  0.66162100  0.55195400  1
  Fe  Fe3  1  0.57079200  0.16162100  0.94804600  1
  Fe  Fe4  1  0.42920800  0.83837900  0.05195400  1
  Fe  Fe5  1  0.57079200  0.33837900  0.44804600  1
  Fe  Fe6  1  0.94516500  0.38975000  0.58175500  1
  Fe  Fe7  1  0.94516500  0.11025000  0.08175500  1
  Si  Si0  1  0.22433200  0.52943600  0.94489100  1
  Si  Si1  1  0.23832900  0.14680700  0.84954200  1
  Si  Si2  1  0.26331500  0.48448600  0.70723100  1
  Si  Si3  1  0.22433200  0.97056400  0.44489100  1
  Si  Si4  1  0.23832900  0.35319300  0.34954200  1
  Si  Si5  1  0.26331500  0.01551400  0.20723100  1
  Si  Si6  1  0.73668500  0.98448600  0.79276900  1
  Si  Si7  1  0.76167100  0.64680700  0.65045800  1
  Si  Si8  1  0.77566800  0.02943600  0.55510900  1
  Si  Si9  1  0.73668500  0.51551400  0.29276900  1
  Si  Si10  1  0.76167100  0.85319300  0.15045800  1
  Si  Si11  1  0.77566800  0.47056400  0.05510900  1
  O  O0  1  0.09087300  0.62197900  0.96420800  1
  O  O1  1  0.11730500  0.99870800  0.79134000  1
  O  O2  1  0.12599900  0.51298800  0.59225300  1
  O  O3  1  0.18347700  0.30585300  0.92367700  1
  O  O4  1  0.09087300  0.87802100  0.46420800  1
  O  O5  1  0.24334000  0.59732400  0.82032800  1
  O  O6  1  0.27804500  0.25566600  0.74173900  1
  O  O7  1  0.11730500  0.50129200  0.29134000  1
  O  O8  1  0.36341000  0.57478700  0.05467300  1
  O  O9  1  0.12599900  0.98701200  0.09225300  1
  O  O10  1  0.38019200  0.06098000  0.93700600  1
  O  O11  1  0.18347700  0.19414700  0.42367700  1
  O  O12  1  0.24334000  0.90267600  0.32032800  1
  O  O13  1  0.40491000  0.54920700  0.69471200  1
  O  O14  1  0.27804500  0.24433400  0.24173900  1
  O  O15  1  0.36341000  0.92521300  0.55467300  1
  O  O16  1  0.38019200  0.43902000  0.43700600  1
  O  O17  1  0.40491000  0.95079300  0.19471200  1
  O  O18  1  0.59509000  0.04920700  0.80528800  1
  O  O19  1  0.61980800  0.56098000  0.56299400  1
  O  O20  1  0.63659000  0.07478700  0.44532700  1
  O  O21  1  0.72195500  0.75566600  0.75826100  1
  O  O22  1  0.59509000  0.45079300  0.30528800  1
  O  O23  1  0.75666000  0.09732400  0.67967200  1
  O  O24  1  0.81652300  0.80585300  0.57632300  1
  O  O25  1  0.61980800  0.93902000  0.06299400  1
  O  O26  1  0.87400100  0.01298800  0.90774700  1
  O  O27  1  0.63659000  0.42521300  0.94532700  1
  O  O28  1  0.88269500  0.49870800  0.70866000  1
  O  O29  1  0.72195500  0.74433400  0.25826100  1
  O  O30  1  0.75666000  0.40267600  0.17967200  1
  O  O31  1  0.90912700  0.12197900  0.53579200  1
  O  O32  1  0.81652300  0.69414700  0.07632300  1
  O  O33  1  0.87400100  0.48701200  0.40774700  1
  O  O34  1  0.88269500  0.00129200  0.20866000  1
  O  O35  1  0.90912700  0.37802100  0.03579200  1
loop_
_geom_bond_atom_site_label_1
_geom_bond_atom_site_label_2
_geom_bond_distance
_geom_bond_site_symmetry_2
Li0 O1 1.980636 1_555
Li0 O31 2.004316 1_465
Li0 O4 2.089076 1_555
Li0 O24 2.505865 1_455
Li1 O7 1.980636 1_555
Li1 O35 2.004316 1_455
Li1 O0 2.089076 1_554
Li1 O32 2.505865 1_455
Li2 O18 1.878861 1_555
Li2 O15 1.895964 1_545
Li2 O6 2.203726 1_555
Li3 O13 1.878861 1_555
Li3 O27 1.895964 1_555
Li3 O21 2.203726 1_555
Li4 O22 1.878861 1_555
Li4 O8 1.895964 1_555
Li4 O14 2.203726 1_555
Li5 O17 1.878861 1_555
Li5 O20 1.895964 1_565
Li5 O29 2.203726 1_555
Li6 O28 1.980636 1_555
Li6 O0 2.004316 1_655
Li6 O35 2.089076 1_556
Li6 O3 2.505865 1_655
Li7 O34 1.980636 1_555
Li7 O4 2.004316 1_645
Li7 O31 2.089076 1_555
Li7 O11 2.505865 1_655
Fe0 O0 2.004276 1_555
Fe0 O1 2.008999 1_555
Fe0 O26 2.059219 1_465
Fe0 O9 2.077906 1_556
Fe1 O4 2.004276 1_555
Fe1 O7 2.008999 1_555
Fe1 O33 2.059219 1_455
Fe1 O2 2.077906 1_555
Fe2 O13 1.984628 1_555
Fe2 O15 2.023014 1_555
Fe2 O16 2.058762 1_555
Fe2 O19 2.088479 1_555
Fe3 O18 1.984628 1_555
Fe3 O27 2.023014 1_555
Fe3 O25 2.058762 1_546
Fe3 O10 2.088479 1_555
Fe4 O17 1.984628 1_555
Fe4 O8 2.023014 1_555
Fe4 O10 2.058762 1_564
Fe4 O25 2.088479 1_555
Fe5 O22 1.984628 1_555
Fe5 O20 2.023014 1_555
Fe5 O19 2.058762 1_555
Fe5 O16 2.088479 1_555
Fe6 O31 2.004276 1_555
Fe6 O28 2.008999 1_555
Fe6 O2 2.059219 1_655
Fe6 O33 2.077906 1_555
Fe7 O35 2.004276 1_555
Fe7 O34 2.008999 1_555
Fe7 O9 2.059219 1_645
Fe7 O26 2.077906 1_554
O0 Si0 1.637436 1_555
O1 Si1 1.620819 1_565
O2 Si2 1.628148 1_555
O3 Si0 1.662261 1_555
O3 Si1 1.667324 1_555
O4 Si3 1.637436 1_555
O5 Si0 1.644930 1_555
O5 Si2 1.652569 1_555
O6 Si1 1.679876 1_555
O6 Si2 1.692027 1_555
O7 Si4 1.620819 1_555
O8 Si0 1.626809 1_554
O9 Si5 1.628148 1_565
O10 Si1 1.619807 1_555
O11 Si3 1.662261 1_545
O11 Si4 1.667324 1_555
O12 Si3 1.644930 1_555
O12 Si5 1.652569 1_565
O13 Si2 1.612615 1_555
O14 Si4 1.679876 1_555
O14 Si5 1.692027 1_555
O15 Si3 1.626809 1_555
O16 Si4 1.619807 1_555
O17 Si5 1.612615 1_565
O18 Si6 1.612615 1_545
O19 Si7 1.619807 1_555
O20 Si8 1.626809 1_555
O21 Si7 1.679876 1_555
O21 Si6 1.692027 1_555
O22 Si9 1.612615 1_555
O23 Si8 1.644930 1_555
O23 Si6 1.652569 1_545
O24 Si8 1.662261 1_565
O24 Si7 1.667324 1_555
O25 Si10 1.619807 1_555
O26 Si6 1.628148 1_545
O27 Si11 1.626809 1_556
O28 Si7 1.620819 1_555
O29 Si10 1.679876 1_555
O29 Si9 1.692027 1_555
O30 Si11 1.644930 1_555
O30 Si9 1.652569 1_555
O31 Si8 1.637436 1_555
O32 Si11 1.662261 1_555
O32 Si10 1.667324 1_555
O33 Si9 1.628148 1_555
O34 Si10 1.620819 1_545
O35 Si11 1.637436 1_555
