# generated using pymatgen
data_ThUB8
_symmetry_space_group_name_H-M   'P 1'
_cell_length_a   7.14993523
_cell_length_b   7.14993523
_cell_length_c   4.03598100
_cell_angle_alpha   90.00000000
_cell_angle_beta   90.00000000
_cell_angle_gamma   91.30965308
_symmetry_Int_Tables_number   1
_chemical_formula_structural   ThUB8
_chemical_formula_sum   'Th2 U2 B16'
_cell_volume   206.27180269
_cell_formula_units_Z   2
loop_
 _symmetry_equiv_pos_site_id
 _symmetry_equiv_pos_as_xyz
  1  'x, y, z'
loop_
 _atom_site_type_symbol
 _atom_site_label
 _atom_site_symmetry_multiplicity
 _atom_site_fract_x
 _atom_site_fract_y
 _atom_site_fract_z
 _atom_site_occupancy
  Th  Th0  1  0.81172700  0.81172700  0.00000000  1
  Th  Th1  1  0.18827300  0.18827300  0.00000000  1
  U  U0  1  0.68970100  0.31029900  0.00000000  1
  U  U1  1  0.31029900  0.68970100  0.00000000  1
  B  B0  1  0.00000000  0.50000000  0.79931300  1
  B  B1  1  0.50000000  0.00000000  0.79931300  1
  B  B2  1  0.00000000  0.50000000  0.20068700  1
  B  B3  1  0.50000000  0.00000000  0.20068700  1
  B  B4  1  0.04451400  0.67630200  0.50000000  1
  B  B5  1  0.95548600  0.32369800  0.50000000  1
  B  B6  1  0.46696900  0.17887600  0.50000000  1
  B  B7  1  0.53303100  0.82112400  0.50000000  1
  B  B8  1  0.17887600  0.46696900  0.50000000  1
  B  B9  1  0.82112400  0.53303100  0.50000000  1
  B  B10  1  0.67630200  0.04451400  0.50000000  1
  B  B11  1  0.32369800  0.95548600  0.50000000  1
  B  B12  1  0.58780100  0.58780100  0.50000000  1
  B  B13  1  0.41219900  0.41219900  0.50000000  1
  B  B14  1  0.91134200  0.08865800  0.50000000  1
  B  B15  1  0.08865800  0.91134200  0.50000000  1
loop_
_geom_bond_atom_site_label_1
_geom_bond_atom_site_label_2
_geom_bond_distance
_geom_bond_site_symmetry_2
B0 B2 1.619938 1_556
B0 B4 1.769535 1_555
B0 B5 1.769535 1_455
B0 B8 1.778937 1_555
B0 B9 1.778937 1_455
B0 U1 2.698230 1_556
B0 U0 2.698230 1_456
B0 Th0 2.751902 1_456
B0 Th1 2.751902 1_556
B1 B3 1.619938 1_556
B1 B10 1.769535 1_555
B1 B11 1.769535 1_545
B1 B6 1.778937 1_555
B1 B7 1.778937 1_545
B1 U1 2.698230 1_546
B1 U0 2.698230 1_556
B1 Th1 2.751902 1_556
B1 Th0 2.751902 1_546
B2 B4 1.769535 1_555
B2 B5 1.769535 1_455
B2 B8 1.778937 1_555
B2 B9 1.778937 1_455
B2 U1 2.698230 1_555
B2 U0 2.698230 1_455
B2 Th0 2.751902 1_455
B2 Th1 2.751902 1_555
B3 B6 1.778937 1_555
B3 B7 1.778937 1_545
B3 U0 2.698230 1_555
B3 U1 2.698230 1_545
B3 Th0 2.751902 1_545
B3 Th1 2.751902 1_555
B4 B8 1.796885 1_555
B4 B9 1.877681 1_455
B4 U1 2.772085 1_555
B4 U1 2.772085 1_556
B4 Th0 2.802461 1_455
B4 Th0 2.802461 1_456
B5 B9 1.796885 1_555
B5 B8 1.877681 1_655
B5 U0 2.772085 1_555
B5 U0 2.772085 1_556
B5 Th1 2.802461 1_656
B5 Th1 2.802461 1_655
B6 U0 2.724513 1_556
B6 U0 2.724513 1_555
B6 Th1 2.837888 1_556
B6 Th1 2.837888 1_555
B7 U1 2.724513 1_555
B7 U1 2.724513 1_556
B7 Th0 2.837888 1_555
B7 Th0 2.837888 1_556
B8 U1 2.724513 1_555
B8 U1 2.724513 1_556
B8 Th1 2.837888 1_556
B8 Th1 2.837888 1_555
B9 U0 2.724513 1_555
B9 U0 2.724513 1_556
B9 Th0 2.837888 1_555
B9 Th0 2.837888 1_556
B10 B14 1.702799 1_555
B10 B3 1.769535 1_555
B10 B6 1.796885 1_555
B10 B7 1.877681 1_545
B10 U0 2.772085 1_555
B10 U0 2.772085 1_556
B10 Th0 2.802461 1_545
B10 Th0 2.802461 1_546
B11 B15 1.702799 1_555
B11 B3 1.769535 1_565
B11 B7 1.796885 1_555
B11 B6 1.877681 1_565
B11 U1 2.772085 1_555
B11 U1 2.772085 1_556
B11 Th1 2.802461 1_566
B11 Th1 2.802461 1_565
B12 B9 1.722282 1_555
B12 B7 1.722282 1_555
B12 B13 1.755197 1_555
B12 U0 2.933586 1_555
B12 U0 2.933586 1_556
B12 U1 2.933586 1_555
B12 U1 2.933586 1_556
B12 Th0 3.013615 1_555
B12 Th0 3.013615 1_556
B13 B6 1.722282 1_555
B13 B8 1.722282 1_555
B13 U0 2.933586 1_555
B13 U0 2.933586 1_556
B13 U1 2.933586 1_555
B13 U1 2.933586 1_556
B13 Th1 3.013615 1_555
B13 Th1 3.013615 1_556
B14 B5 1.702799 1_555
B14 B15 1.813311 1_645
B14 Th1 2.904421 1_656
B14 Th1 2.904421 1_655
B14 Th0 2.904421 1_545
B14 Th0 2.904421 1_546
B14 U0 3.034757 1_555
B14 U0 3.034757 1_556
B15 B4 1.702799 1_555
B15 Th1 2.904421 1_566
B15 Th1 2.904421 1_565
B15 Th0 2.904421 1_455
B15 Th0 2.904421 1_456
B15 U1 3.034757 1_555
B15 U1 3.034757 1_556
