# generated using pymatgen
data_LiTl4(NiO3)4
_symmetry_space_group_name_H-M   'P 1'
_cell_length_a   5.35192509
_cell_length_b   5.54549689
_cell_length_c   8.00238471
_cell_angle_alpha   88.04595666
_cell_angle_beta   93.07771793
_cell_angle_gamma   90.51655261
_symmetry_Int_Tables_number   1
_chemical_formula_structural   LiTl4(NiO3)4
_chemical_formula_sum   'Li1 Tl4 Ni4 O12'
_cell_volume   237.01682687
_cell_formula_units_Z   1
loop_
 _symmetry_equiv_pos_site_id
 _symmetry_equiv_pos_as_xyz
  1  'x, y, z'
loop_
 _atom_site_type_symbol
 _atom_site_label
 _atom_site_symmetry_multiplicity
 _atom_site_fract_x
 _atom_site_fract_y
 _atom_site_fract_z
 _atom_site_occupancy
  Li  Li0  1  0.86309600  0.10933400  0.94130500  1
  Tl  Tl0  1  0.52123200  0.55667600  0.25194000  1
  Tl  Tl1  1  0.04162800  0.91394500  0.70982300  1
  Tl  Tl2  1  0.47328900  0.43873900  0.76675600  1
  Tl  Tl3  1  0.98811700  0.05632100  0.27249000  1
  Ni  Ni0  1  0.47163800  0.99637600  0.00922100  1
  Ni  Ni1  1  0.51407900  0.99764700  0.50330800  1
  Ni  Ni2  1  0.00904700  0.48896600  0.49399300  1
  Ni  Ni3  1  0.99140200  0.52327700  0.00620300  1
  O  O0  1  0.72197500  0.29170100  0.43100300  1
  O  O1  1  0.69270500  0.32723100  0.05705300  1
  O  O2  1  0.20358200  0.19994400  0.54707100  1
  O  O3  1  0.81402200  0.78238200  0.45057600  1
  O  O4  1  0.78373500  0.82455600  0.07520600  1
  O  O5  1  0.38704300  0.95121500  0.25021400  1
  O  O6  1  0.19545800  0.19191600  0.92729900  1
  O  O7  1  0.62151300  0.04778900  0.76057000  1
  O  O8  1  0.88049600  0.54350500  0.76878800  1
  O  O9  1  0.27960000  0.70278000  0.93740200  1
  O  O10  1  0.11582600  0.45735500  0.23860900  1
  O  O11  1  0.30551900  0.68167700  0.55950100  1
loop_
_geom_bond_atom_site_label_1
_geom_bond_atom_site_label_2
_geom_bond_distance
_geom_bond_site_symmetry_2
Li0 O1 1.826624 1_556
Li0 O6 1.841074 1_655
Li0 O7 1.924807 1_555
Li0 O4 1.934924 1_546
Li0 Tl1 2.421573 1_645
Li0 Tl3 2.705189 1_556
Ni0 O6 1.914878 1_564
Ni0 O4 1.968844 1_555
Ni0 O9 2.001915 1_554
Ni0 O5 2.011383 1_555
Ni0 O7 2.193756 1_564
Ni0 O1 2.207435 1_565
Ni1 O0 2.050352 1_565
Ni1 O2 2.065308 1_565
Ni1 O3 2.078859 1_555
Ni1 O11 2.117368 1_555
Ni1 O5 2.124889 1_555
Ni1 O7 2.134304 1_565
Ni2 O0 1.932719 1_455
Ni2 O2 1.941501 1_555
Ni2 O3 1.952140 1_455
Ni2 O11 1.962854 1_555
Ni2 O10 2.164623 1_555
Ni2 O8 2.368976 1_455
Ni3 O9 1.923327 1_654
Ni3 O8 1.959602 1_554
Ni3 O10 1.964937 1_655
Ni3 O1 1.977728 1_555
Ni3 O4 2.119867 1_555
Ni3 O6 2.270979 1_654
O0 Tl0 2.255282 1_555
O0 Tl3 2.383724 1_555
O1 Tl0 2.281108 1_555
O1 Tl2 2.603881 1_554
O1 Tl3 2.702286 1_555
O2 Tl1 2.217774 1_545
O2 Tl3 2.573510 1_455
O2 Tl2 2.603755 1_555
O3 Tl3 2.275141 1_565
O3 Tl1 2.477076 1_655
O3 Tl0 2.526192 1_555
O4 Tl3 2.295293 1_565
O4 Tl0 2.492630 1_555
O5 Tl3 2.236117 1_465
O5 Tl0 2.308275 1_555
O6 Tl2 2.404889 1_555
O6 Tl1 2.467576 1_545
O7 Tl2 2.318312 1_555
O7 Tl1 2.433090 1_645
O8 Tl2 2.249742 1_555
O8 Tl1 2.265396 1_655
O9 Tl2 2.323592 1_555
O9 Tl1 2.437708 1_555
O10 Tl0 2.231582 1_555
O10 Tl3 2.331934 1_455
O11 Tl2 2.254207 1_555
O11 Tl1 2.328446 1_555
