# generated using pymatgen
data_CaCoP2O7
_symmetry_space_group_name_H-M   'P 1'
_cell_length_a   6.25114327
_cell_length_b   12.31105925
_cell_length_c   7.17073493
_cell_angle_alpha   82.98199675
_cell_angle_beta   89.30112883
_cell_angle_gamma   96.09511545
_symmetry_Int_Tables_number   1
_chemical_formula_structural   CaCoP2O7
_chemical_formula_sum   'Ca4 Co4 P8 O28'
_cell_volume   544.43889797
_cell_formula_units_Z   4
loop_
 _symmetry_equiv_pos_site_id
 _symmetry_equiv_pos_as_xyz
  1  'x, y, z'
loop_
 _atom_site_type_symbol
 _atom_site_label
 _atom_site_symmetry_multiplicity
 _atom_site_fract_x
 _atom_site_fract_y
 _atom_site_fract_z
 _atom_site_occupancy
  Ca  Ca0  1  0.65954100  0.35830500  0.63541300  1
  Ca  Ca1  1  0.15968300  0.85841800  0.63509800  1
  Ca  Ca2  1  0.84047100  0.14168700  0.36459300  1
  Ca  Ca3  1  0.34030800  0.64158900  0.36490000  1
  Co  Co0  1  0.81677500  0.56740800  0.19438900  1
  Co  Co1  1  0.68321900  0.93259200  0.80561800  1
  Co  Co2  1  0.31718200  0.06739700  0.19430600  1
  Co  Co3  1  0.18282600  0.43260500  0.80568900  1
  P  P0  1  0.49551500  0.33029500  0.12178100  1
  P  P1  1  0.99560000  0.83023400  0.12206800  1
  P  P2  1  0.00449400  0.16970600  0.87821200  1
  P  P3  1  0.50439400  0.66976600  0.87794200  1
  P  P4  1  0.35126100  0.10928900  0.62150300  1
  P  P5  1  0.85141600  0.60930100  0.62175800  1
  P  P6  1  0.14874400  0.39071000  0.37849300  1
  P  P7  1  0.64857800  0.89070000  0.37824300  1
  O  O0  1  0.44798300  0.37016700  0.91527000  1
  O  O1  1  0.94874900  0.87015900  0.91544600  1
  O  O2  1  0.05202500  0.12982900  0.08472100  1
  O  O3  1  0.55124400  0.62984400  0.08456500  1
  O  O4  1  0.65555100  0.40822100  0.21170600  1
  O  O5  1  0.15514000  0.90813900  0.21266400  1
  O  O6  1  0.84445900  0.09178100  0.78828000  1
  O  O7  1  0.34484900  0.59186000  0.78735200  1
  O  O8  1  0.54490000  0.20976900  0.14584500  1
  O  O9  1  0.04487300  0.70968900  0.14631100  1
  O  O10  1  0.95510500  0.29023100  0.85415400  1
  O  O11  1  0.45512400  0.79031100  0.85369200  1
  O  O12  1  0.95369900  0.31268400  0.45219300  1
  O  O13  1  0.45348200  0.81273400  0.45185000  1
  O  O14  1  0.54630600  0.18731200  0.54779700  1
  O  O15  1  0.04651200  0.68727000  0.54815700  1
  O  O16  1  0.19222100  0.08039200  0.46679000  1
  O  O17  1  0.69252100  0.58038200  0.46692500  1
  O  O18  1  0.30778200  0.41960100  0.53321200  1
  O  O19  1  0.80747100  0.91962500  0.53307400  1
  O  O20  1  0.23624600  0.17476000  0.76649300  1
  O  O21  1  0.73651800  0.67478900  0.76678700  1
  O  O22  1  0.26376000  0.32524500  0.23349600  1
  O  O23  1  0.76347500  0.82520500  0.23322400  1
  O  O24  1  0.59446300  0.99953400  0.26820100  1
  O  O25  1  0.09433800  0.49949600  0.26863700  1
  O  O26  1  0.90553700  0.50046400  0.73178600  1
  O  O27  1  0.40566300  0.00050500  0.73137200  1
loop_
_geom_bond_atom_site_label_1
_geom_bond_atom_site_label_2
_geom_bond_distance
_geom_bond_site_symmetry_2
Ca0 O14 2.311892 1_555
Ca0 O26 2.378060 1_555
Ca0 O12 2.400737 1_555
Ca0 O0 2.417711 1_555
Ca0 O18 2.489622 1_555
Ca0 O10 2.579654 1_555
Ca0 O17 2.836201 1_555
Ca0 O4 3.026272 1_555
Ca1 O15 2.311679 1_555
Ca1 O27 2.377104 1_565
Ca1 O13 2.399389 1_555
Ca1 O1 2.418196 1_455
Ca1 O19 2.491490 1_455
Ca1 O11 2.578596 1_555
Ca1 O16 2.834756 1_565
Ca1 O5 3.017285 1_555
Ca2 O12 2.311883 1_555
Ca2 O24 2.378103 1_545
Ca2 O14 2.400726 1_555
Ca2 O2 2.417776 1_655
Ca2 O16 2.489558 1_655
Ca2 O8 2.579748 1_555
Ca2 O19 2.836015 1_545
Ca2 O6 3.026121 1_555
Ca3 O13 2.311674 1_555
Ca3 O25 2.377089 1_555
Ca3 O15 2.399396 1_555
Ca3 O3 2.418136 1_555
Ca3 O17 2.491497 1_555
Ca3 O9 2.578518 1_555
Ca3 O18 2.834923 1_555
Ca3 O7 3.017419 1_555
Co0 O3 2.030049 1_555
Co0 O25 2.053002 1_655
Co0 O4 2.095199 1_555
Co0 O17 2.124532 1_555
Co0 O9 2.128434 1_655
Co1 O1 2.030038 1_555
Co1 O27 2.052966 1_565
Co1 O6 2.095250 1_565
Co1 O19 2.124561 1_555
Co1 O11 2.128422 1_555
Co2 O2 2.027410 1_555
Co2 O24 2.050594 1_545
Co2 O5 2.097477 1_545
Co2 O16 2.125852 1_555
Co2 O8 2.128025 1_555
Co3 O0 2.027430 1_555
Co3 O26 2.050628 1_455
Co3 O7 2.097408 1_555
Co3 O18 2.125819 1_555
Co3 O10 2.128055 1_455
O0 P0 1.544730 1_556
O1 P1 1.544602 1_556
O2 P2 1.544729 1_554
O3 P3 1.544599 1_554
O4 P0 1.516598 1_555
O5 P1 1.517053 1_455
O6 P2 1.516612 1_655
O7 P3 1.517057 1_555
O8 P0 1.537126 1_555
O9 P1 1.537137 1_455
O10 P2 1.537122 1_655
O11 P3 1.537131 1_555
O12 P6 1.516612 1_655
O13 P7 1.516298 1_555
O14 P4 1.516604 1_555
O15 P5 1.516305 1_455
O16 P4 1.547249 1_555
O17 P5 1.547397 1_555
O18 P6 1.547256 1_555
O19 P7 1.547397 1_555
O20 P4 1.599106 1_555
O20 P2 1.638531 1_555
O21 P5 1.599073 1_555
O21 P3 1.638700 1_555
O22 P6 1.599098 1_555
O22 P0 1.638540 1_555
O23 P7 1.599074 1_555
O23 P1 1.638700 1_555
O24 P7 1.541662 1_555
O25 P6 1.541207 1_555
O26 P5 1.541664 1_555
O27 P4 1.541217 1_555
