# generated using pymatgen
data_CaCoF6
_symmetry_space_group_name_H-M   'P 1'
_cell_length_a   5.62041083
_cell_length_b   5.62028298
_cell_length_c   5.62002302
_cell_angle_alpha   55.60110175
_cell_angle_beta   55.60340407
_cell_angle_gamma   55.60143088
_symmetry_Int_Tables_number   1
_chemical_formula_structural   CaCoF6
_chemical_formula_sum   'Ca1 Co1 F6'
_cell_volume   112.71773403
_cell_formula_units_Z   1
loop_
 _symmetry_equiv_pos_site_id
 _symmetry_equiv_pos_as_xyz
  1  'x, y, z'
loop_
 _atom_site_type_symbol
 _atom_site_label
 _atom_site_symmetry_multiplicity
 _atom_site_fract_x
 _atom_site_fract_y
 _atom_site_fract_z
 _atom_site_occupancy
  Ca  Ca0  1  0.50000000  0.50000000  0.50000000  1
  Co  Co0  1  -0.00000000  0.00000000  0.00000000  1
  F  F0  1  0.64034094  0.91941142  0.21495030  1
  F  F1  1  0.91942113  0.21498455  0.64029088  1
  F  F2  1  0.78502380  0.35968034  0.08058924  1
  F  F3  1  0.08057887  0.78501545  0.35970912  1
  F  F4  1  0.35965906  0.08058858  0.78504970  1
  F  F5  1  0.21497620  0.64031966  0.91941076  1
loop_
_geom_bond_atom_site_label_1
_geom_bond_atom_site_label_2
_geom_bond_distance
_geom_bond_site_symmetry_2
Ca0 F5 2.269539 1_555
Ca0 F2 2.269539 1_555
Ca0 F3 2.269546 1_555
Ca0 F1 2.269546 1_555
Ca0 F0 2.269660 1_555
Ca0 F4 2.269660 1_555
Co0 F4 1.846058 1_554
Co0 F0 1.846058 1_445
Co0 F2 1.846064 1_455
Co0 F5 1.846064 1_544
Co0 F1 1.846077 1_454
Co0 F3 1.846077 1_545
