# generated using pymatgen
data_BaAs2F12
_symmetry_space_group_name_H-M   'P 1'
_cell_length_a   10.07244781
_cell_length_b   10.07244781
_cell_length_c   10.07244781
_cell_angle_alpha   90.00000000
_cell_angle_beta   90.00000000
_cell_angle_gamma   90.00000000
_symmetry_Int_Tables_number   1
_chemical_formula_structural   BaAs2F12
_chemical_formula_sum   'Ba4 As8 F48'
_cell_volume   1021.89218381
_cell_formula_units_Z   4
loop_
 _symmetry_equiv_pos_site_id
 _symmetry_equiv_pos_as_xyz
  1  'x, y, z'
loop_
 _atom_site_type_symbol
 _atom_site_label
 _atom_site_symmetry_multiplicity
 _atom_site_fract_x
 _atom_site_fract_y
 _atom_site_fract_z
 _atom_site_occupancy
  Ba  Ba0  1  0.50000000  -0.00000000  -0.00000000  1
  Ba  Ba1  1  -0.00000000  0.50000000  -0.00000000  1
  Ba  Ba2  1  -0.00000000  -0.00000000  0.50000000  1
  Ba  Ba3  1  -0.00000000  -0.00000000  -0.00000000  1
  As  As0  1  0.25000007  0.25000007  0.25000007  1
  As  As1  1  0.74999993  0.74999993  0.25000007  1
  As  As2  1  0.74999993  0.25000007  0.74999993  1
  As  As3  1  0.25000007  0.74999993  0.74999993  1
  As  As4  1  0.74999993  0.74999993  0.74999993  1
  As  As5  1  0.25000007  0.25000007  0.74999993  1
  As  As6  1  0.25000007  0.74999993  0.25000007  1
  As  As7  1  0.74999993  0.25000007  0.25000007  1
  F  F0  1  0.12940034  0.12940034  0.29899544  1
  F  F1  1  0.87059966  0.87059966  0.29899544  1
  F  F2  1  0.87059966  0.12940034  0.70100456  1
  F  F3  1  0.29899544  0.12940034  0.12940034  1
  F  F4  1  0.12940034  0.87059966  0.70100456  1
  F  F5  1  0.29899544  0.87059966  0.87059966  1
  F  F6  1  0.70100456  0.87059966  0.12940034  1
  F  F7  1  0.70100456  0.12940034  0.87059966  1
  F  F8  1  0.12940034  0.29899544  0.12940034  1
  F  F9  1  0.12940034  0.70100456  0.87059966  1
  F  F10  1  0.87059966  0.70100456  0.12940034  1
  F  F11  1  0.87059966  0.29899544  0.87059966  1
  F  F12  1  0.36020627  0.36020627  0.81638943  1
  F  F13  1  0.63979373  0.63979373  0.81638943  1
  F  F14  1  0.63979373  0.36020627  0.18361057  1
  F  F15  1  0.81638943  0.36020627  0.36020627  1
  F  F16  1  0.36020627  0.63979373  0.18361057  1
  F  F17  1  0.81638943  0.63979373  0.63979373  1
  F  F18  1  0.18361057  0.63979373  0.36020627  1
  F  F19  1  0.18361057  0.36020627  0.63979373  1
  F  F20  1  0.36020627  0.81638943  0.36020627  1
  F  F21  1  0.36020627  0.18361057  0.63979373  1
  F  F22  1  0.63979373  0.18361057  0.36020627  1
  F  F23  1  0.63979373  0.81638943  0.63979373  1
  F  F24  1  0.12940034  0.12940034  0.70100456  1
  F  F25  1  0.87059966  0.87059966  0.70100456  1
  F  F26  1  0.87059966  0.12940034  0.29899544  1
  F  F27  1  0.70100456  0.12940034  0.12940034  1
  F  F28  1  0.12940034  0.87059966  0.29899544  1
  F  F29  1  0.70100456  0.87059966  0.87059966  1
  F  F30  1  0.29899544  0.87059966  0.12940034  1
  F  F31  1  0.29899544  0.12940034  0.87059966  1
  F  F32  1  0.12940034  0.70100456  0.12940034  1
  F  F33  1  0.12940034  0.29899544  0.87059966  1
  F  F34  1  0.87059966  0.29899544  0.12940034  1
  F  F35  1  0.87059966  0.70100456  0.87059966  1
  F  F36  1  0.36020627  0.36020627  0.18361057  1
  F  F37  1  0.63979373  0.63979373  0.18361057  1
  F  F38  1  0.63979373  0.36020627  0.81638943  1
  F  F39  1  0.18361057  0.36020627  0.36020627  1
  F  F40  1  0.36020627  0.63979373  0.81638943  1
  F  F41  1  0.18361057  0.63979373  0.63979373  1
  F  F42  1  0.81638943  0.63979373  0.36020627  1
  F  F43  1  0.81638943  0.36020627  0.63979373  1
  F  F44  1  0.36020627  0.18361057  0.36020627  1
  F  F45  1  0.36020627  0.81638943  0.63979373  1
  F  F46  1  0.63979373  0.81638943  0.36020627  1
  F  F47  1  0.63979373  0.18361057  0.63979373  1
loop_
_geom_bond_atom_site_label_1
_geom_bond_atom_site_label_2
_geom_bond_distance
_geom_bond_site_symmetry_2
Ba0 F29 2.737997 1_544
Ba0 F7 2.737997 1_554
Ba0 F3 2.737997 1_555
Ba0 F5 2.737997 1_544
Ba0 F30 2.737997 1_545
Ba0 F31 2.737997 1_554
Ba0 F27 2.737997 1_555
Ba0 F6 2.737997 1_545
Ba1 F8 2.737997 1_555
Ba1 F35 2.737997 1_454
Ba1 F11 2.737997 1_454
Ba1 F32 2.737997 1_555
Ba1 F33 2.737997 1_554
Ba1 F10 2.737997 1_455
Ba1 F9 2.737997 1_554
Ba1 F34 2.737997 1_455
Ba2 F4 2.737997 1_545
Ba2 F0 2.737997 1_555
Ba2 F26 2.737997 1_455
Ba2 F24 2.737997 1_555
Ba2 F25 2.737997 1_445
Ba2 F28 2.737997 1_545
Ba2 F2 2.737997 1_455
Ba2 F1 2.737997 1_445
As0 F36 1.706333 1_555
As0 F39 1.706333 1_555
As0 F44 1.706333 1_555
As0 F8 1.787374 1_555
As0 F3 1.787374 1_555
As0 F0 1.787374 1_555
As1 F42 1.706333 1_555
As1 F46 1.706333 1_555
As1 F37 1.706333 1_555
As1 F6 1.787374 1_555
As1 F10 1.787374 1_555
As1 F1 1.787374 1_555
As2 F43 1.706333 1_555
As2 F38 1.706333 1_555
As2 F47 1.706333 1_555
As2 F7 1.787374 1_555
As2 F11 1.787374 1_555
As2 F2 1.787374 1_555
As3 F45 1.706333 1_555
As3 F40 1.706333 1_555
As3 F41 1.706333 1_555
As3 F5 1.787374 1_555
As3 F9 1.787374 1_555
As3 F4 1.787374 1_555
As4 F23 1.706333 1_555
As4 F17 1.706333 1_555
As4 F13 1.706333 1_555
As4 F25 1.787374 1_555
As4 F29 1.787374 1_555
As4 F35 1.787374 1_555
As5 F12 1.706333 1_555
As5 F21 1.706333 1_555
As5 F19 1.706333 1_555
As5 F31 1.787374 1_555
As5 F24 1.787374 1_555
As5 F33 1.787374 1_555
As6 F20 1.706333 1_555
As6 F16 1.706333 1_555
As6 F18 1.706333 1_555
As6 F30 1.787374 1_555
As6 F28 1.787374 1_555
As6 F32 1.787374 1_555
As7 F15 1.706333 1_555
As7 F14 1.706333 1_555
As7 F22 1.706333 1_555
As7 F27 1.787374 1_555
As7 F34 1.787374 1_555
As7 F26 1.787374 1_555
