# generated using pymatgen
data_Eu(Ga4Ir)2
_symmetry_space_group_name_H-M   'P 1'
_cell_length_a   12.73049300
_cell_length_b   14.69225600
_cell_length_c   4.17501300
_cell_angle_alpha   90.00000000
_cell_angle_beta   90.00000000
_cell_angle_gamma   90.00000000
_symmetry_Int_Tables_number   1
_chemical_formula_structural   Eu(Ga4Ir)2
_chemical_formula_sum   'Eu4 Ga32 Ir8'
_cell_volume   780.89302104
_cell_formula_units_Z   4
loop_
 _symmetry_equiv_pos_site_id
 _symmetry_equiv_pos_as_xyz
  1  'x, y, z'
loop_
 _atom_site_type_symbol
 _atom_site_label
 _atom_site_symmetry_multiplicity
 _atom_site_fract_x
 _atom_site_fract_y
 _atom_site_fract_z
 _atom_site_occupancy
  Eu  Eu0  1  0.15675900  0.31963000  0.50000000  1
  Eu  Eu1  1  0.84324100  0.68037000  0.50000000  1
  Eu  Eu2  1  0.65675900  0.18037000  0.50000000  1
  Eu  Eu3  1  0.34324100  0.81963000  0.50000000  1
  Ga  Ga0  1  0.50000000  0.50000000  0.00000000  1
  Ga  Ga1  1  0.00000000  0.00000000  0.00000000  1
  Ga  Ga2  1  0.50000000  0.00000000  0.50000000  1
  Ga  Ga3  1  0.00000000  0.50000000  0.50000000  1
  Ga  Ga4  1  0.65907600  0.45647900  0.50000000  1
  Ga  Ga5  1  0.34092400  0.54352100  0.50000000  1
  Ga  Ga6  1  0.15907600  0.04352100  0.50000000  1
  Ga  Ga7  1  0.84092400  0.95647900  0.50000000  1
  Ga  Ga8  1  0.39909400  0.25147900  0.50000000  1
  Ga  Ga9  1  0.60090600  0.74852100  0.50000000  1
  Ga  Ga10  1  0.89909400  0.24852100  0.50000000  1
  Ga  Ga11  1  0.10090600  0.75147900  0.50000000  1
  Ga  Ga12  1  0.55074000  0.31510700  0.00000000  1
  Ga  Ga13  1  0.44926000  0.68489300  0.00000000  1
  Ga  Ga14  1  0.05074000  0.18489300  0.00000000  1
  Ga  Ga15  1  0.94926000  0.81510700  0.00000000  1
  Ga  Ga16  1  0.33231500  0.37649500  0.00000000  1
  Ga  Ga17  1  0.66768500  0.62350500  0.00000000  1
  Ga  Ga18  1  0.83231500  0.12350500  0.00000000  1
  Ga  Ga19  1  0.16768500  0.87649500  0.00000000  1
  Ga  Ga20  1  0.16998800  0.48685200  0.00000000  1
  Ga  Ga21  1  0.83001200  0.51314800  0.00000000  1
  Ga  Ga22  1  0.66998800  0.01314800  0.00000000  1
  Ga  Ga23  1  0.33001200  0.98685200  0.00000000  1
  Ga  Ga24  1  0.75829500  0.32292800  0.00000000  1
  Ga  Ga25  1  0.24170500  0.67707200  0.00000000  1
  Ga  Ga26  1  0.25829500  0.17707200  0.00000000  1
  Ga  Ga27  1  0.74170500  0.82292800  0.00000000  1
  Ga  Ga28  1  0.97955700  0.36686300  0.00000000  1
  Ga  Ga29  1  0.02044300  0.63313700  0.00000000  1
  Ga  Ga30  1  0.47955700  0.13313700  0.00000000  1
  Ga  Ga31  1  0.52044300  0.86686300  0.00000000  1
  Ir  Ir0  1  0.84415600  0.40511800  0.50000000  1
  Ir  Ir1  1  0.15584400  0.59488200  0.50000000  1
  Ir  Ir2  1  0.34415600  0.09488200  0.50000000  1
  Ir  Ir3  1  0.65584400  0.90511800  0.50000000  1
  Ir  Ir4  1  0.46415000  0.40299700  0.50000000  1
  Ir  Ir5  1  0.53585000  0.59700300  0.50000000  1
  Ir  Ir6  1  0.96415000  0.09700300  0.50000000  1
  Ir  Ir7  1  0.03585000  0.90299700  0.50000000  1
loop_
_geom_bond_atom_site_label_1
_geom_bond_atom_site_label_2
_geom_bond_distance
_geom_bond_site_symmetry_2
Eu0 Ga28 3.150906 1_456
Eu0 Ga28 3.150906 1_455
Eu0 Ga16 3.170259 1_556
Eu0 Ga16 3.170259 1_555
Eu0 Ga14 3.177748 1_555
Eu0 Ga14 3.177748 1_556
Eu0 Ga26 3.227295 1_555
Eu0 Ga26 3.227295 1_556
Eu0 Ga20 3.228351 1_556
Eu0 Ga20 3.228351 1_555
Eu0 Ga8 3.243468 1_555
Eu0 Ga3 3.317412 1_555
Eu0 Ga10 3.442562 1_455
Eu1 Ga29 3.150906 1_655
Eu1 Ga29 3.150906 1_656
Eu1 Ga17 3.170259 1_556
Eu1 Ga17 3.170259 1_555
Eu1 Ga15 3.177748 1_556
Eu1 Ga15 3.177748 1_555
Eu1 Ga27 3.227295 1_556
Eu1 Ga27 3.227295 1_555
Eu1 Ga21 3.228351 1_556
Eu1 Ga21 3.228351 1_555
Eu1 Ga9 3.243468 1_555
Eu1 Ga3 3.317412 1_655
Eu1 Ga11 3.442562 1_655
Eu2 Ga30 3.150906 1_555
Eu2 Ga30 3.150906 1_556
Eu2 Ga18 3.170259 1_556
Eu2 Ga18 3.170259 1_555
Eu2 Ga12 3.177748 1_555
Eu2 Ga12 3.177748 1_556
Eu2 Ga24 3.227295 1_556
Eu2 Ga24 3.227295 1_555
Eu2 Ga22 3.228351 1_555
Eu2 Ga22 3.228351 1_556
Eu2 Ga10 3.243468 1_555
Eu2 Ga2 3.317412 1_555
Eu2 Ga8 3.442562 1_555
Eu3 Ga31 3.150906 1_556
Eu3 Ga31 3.150906 1_555
Eu3 Ga19 3.170259 1_556
Eu3 Ga19 3.170259 1_555
Eu3 Ga13 3.177748 1_555
Eu3 Ga13 3.177748 1_556
Eu3 Ga25 3.227295 1_555
Eu3 Ga25 3.227295 1_556
Eu3 Ga23 3.228351 1_555
Eu3 Ga23 3.228351 1_556
Eu3 Ga11 3.243468 1_555
Eu3 Ga2 3.317412 1_565
Eu3 Ga9 3.442562 1_555
Ga0 Ir5 2.568491 1_555
Ga0 Ir5 2.568491 1_554
Ga0 Ir4 2.568491 1_555
Ga0 Ir4 2.568491 1_554
Ga0 Ga13 2.792238 1_555
Ga0 Ga12 2.792238 1_555
Ga1 Ir6 2.568491 1_455
Ga1 Ir6 2.568491 1_454
Ga1 Ir7 2.568491 1_545
Ga1 Ir7 2.568491 1_544
Ga1 Ga14 2.792238 1_555
Ga1 Ga15 2.792238 1_445
Ga2 Ir3 2.424760 1_545
Ga2 Ir2 2.424760 1_555
Ga2 Ga30 2.872573 1_556
Ga2 Ga30 2.872573 1_555
Ga2 Ga31 2.872573 1_546
Ga2 Ga31 2.872573 1_545
Ga3 Ir1 2.424760 1_555
Ga3 Ir0 2.424760 1_455
Ga4 Ir0 2.474050 1_555
Ga4 Ir5 2.592979 1_555
Ga4 Ir4 2.602940 1_555
Ga5 Ir1 2.474050 1_555
Ga5 Ir4 2.592979 1_555
Ga5 Ir5 2.602940 1_555
Ga6 Ir2 2.474050 1_555
Ga6 Ir7 2.592979 1_545
Ga6 Ir6 2.602940 1_455
Ga7 Ir3 2.474050 1_555
Ga7 Ir6 2.592979 1_565
Ga7 Ir7 2.602940 1_655
Ga8 Ir4 2.375208 1_555
Ga8 Ir2 2.404715 1_555
Ga9 Ir5 2.375208 1_555
Ga9 Ir3 2.404715 1_555
Ga10 Ir6 2.375208 1_555
Ga10 Ir0 2.404715 1_555
Ga10 Ga28 2.903456 1_556
Ga10 Ga28 2.903456 1_555
Ga10 Ga14 2.993083 1_655
Ga10 Ga14 2.993083 1_656
Ga11 Ir7 2.375208 1_555
Ga11 Ir1 2.404715 1_555
Ga11 Ga29 2.903456 1_556
Ga11 Ga29 2.903456 1_555
Ga11 Ga15 2.993083 1_456
Ga11 Ga15 2.993083 1_455
Ga12 Ga24 2.644775 1_555
Ga12 Ir4 2.690778 1_555
Ga12 Ir4 2.690778 1_554
Ga12 Ga30 2.822952 1_555
Ga12 Ga16 2.923274 1_555
Ga12 Ga8 2.993083 1_554
Ga12 Ga8 2.993083 1_555
Ga13 Ga25 2.644775 1_555
Ga13 Ir5 2.690778 1_555
Ga13 Ir5 2.690778 1_554
Ga13 Ga31 2.822952 1_555
Ga13 Ga17 2.923274 1_555
Ga13 Ga9 2.993083 1_555
Ga13 Ga9 2.993083 1_554
Ga14 Ga26 2.644775 1_555
Ga14 Ir6 2.690778 1_455
Ga14 Ir6 2.690778 1_454
Ga14 Ga28 2.822952 1_455
Ga14 Ga18 2.923274 1_455
Ga15 Ga27 2.644775 1_555
Ga15 Ir7 2.690778 1_654
Ga15 Ir7 2.690778 1_655
Ga15 Ga29 2.822952 1_655
Ga15 Ga19 2.923274 1_655
Ga16 Ga20 2.626661 1_555
Ga16 Ir4 2.706671 1_555
Ga16 Ir4 2.706671 1_554
Ga17 Ga21 2.626661 1_555
Ga17 Ir5 2.706671 1_554
Ga17 Ir5 2.706671 1_555
Ga18 Ga22 2.626661 1_555
Ga18 Ir6 2.706671 1_555
Ga18 Ir6 2.706671 1_554
Ga19 Ga23 2.626661 1_555
Ga19 Ir7 2.706671 1_554
Ga19 Ir7 2.706671 1_555
Ga20 Ir1 2.628559 1_554
Ga20 Ir1 2.628559 1_555
Ga20 Ga29 2.871182 1_555
Ga20 Ga28 2.997496 1_455
Ga21 Ir0 2.628559 1_555
Ga21 Ir0 2.628559 1_554
Ga21 Ga28 2.871182 1_555
Ga21 Ga29 2.997496 1_655
Ga22 Ir3 2.628559 1_545
Ga22 Ir3 2.628559 1_544
Ga22 Ga31 2.871182 1_545
Ga22 Ga30 2.997496 1_555
Ga23 Ir2 2.628559 1_565
Ga23 Ir2 2.628559 1_564
Ga23 Ga30 2.871182 1_565
Ga23 Ga31 2.997496 1_555
Ga24 Ir0 2.647761 1_555
Ga24 Ir0 2.647761 1_554
Ga24 Ga28 2.889791 1_555
Ga25 Ir1 2.647761 1_555
Ga25 Ir1 2.647761 1_554
Ga25 Ga29 2.889791 1_555
Ga26 Ir2 2.647761 1_554
Ga26 Ir2 2.647761 1_555
Ga26 Ga30 2.889791 1_555
Ga27 Ir3 2.647761 1_554
Ga27 Ir3 2.647761 1_555
Ga27 Ga31 2.889791 1_555
Ga28 Ir0 2.764923 1_554
Ga28 Ir0 2.764923 1_555
Ga28 Ga3 2.872573 1_654
Ga28 Ga3 2.872573 1_655
Ga29 Ir1 2.764923 1_554
Ga29 Ir1 2.764923 1_555
Ga29 Ga3 2.872573 1_555
Ga29 Ga3 2.872573 1_554
Ga30 Ir2 2.764923 1_555
Ga30 Ir2 2.764923 1_554
Ga30 Ga8 2.903456 1_554
Ga30 Ga8 2.903456 1_555
Ga31 Ir3 2.764923 1_554
Ga31 Ir3 2.764923 1_555
Ga31 Ga9 2.903456 1_555
Ga31 Ga9 2.903456 1_554
