# generated using pymatgen
data_Zr3MnF6
_symmetry_space_group_name_H-M   'P 1'
_cell_length_a   6.15745377
_cell_length_b   6.49932377
_cell_length_c   8.58902718
_cell_angle_alpha   48.12267895
_cell_angle_beta   128.02955388
_cell_angle_gamma   108.05965908
_symmetry_Int_Tables_number   1
_chemical_formula_structural   Zr3MnF6
_chemical_formula_sum   'Zr3 Mn1 F6'
_cell_volume   198.56851352
_cell_formula_units_Z   1
loop_
 _symmetry_equiv_pos_site_id
 _symmetry_equiv_pos_as_xyz
  1  'x, y, z'
loop_
 _atom_site_type_symbol
 _atom_site_label
 _atom_site_symmetry_multiplicity
 _atom_site_fract_x
 _atom_site_fract_y
 _atom_site_fract_z
 _atom_site_occupancy
  Zr  Zr0  1  0.00000000  0.00000000  0.50000000  1
  Zr  Zr1  1  0.50000000  0.50000000  0.00000000  1
  Zr  Zr2  1  0.00000000  0.50000000  0.00000000  1
  Mn  Mn0  1  0.00000000  0.00000000  0.00000000  1
  F  F0  1  0.75156400  0.37586000  0.77843600  1
  F  F1  1  0.24843600  0.62413900  0.22156300  1
  F  F2  1  0.89016600  0.97335100  0.71095700  1
  F  F3  1  0.10983400  0.02664900  0.28904300  1
  F  F4  1  0.72525700  0.74913600  0.10432000  1
  F  F5  1  0.27474300  0.25086400  0.89568000  1
loop_
_geom_bond_atom_site_label_1
_geom_bond_atom_site_label_2
_geom_bond_distance
_geom_bond_site_symmetry_2
F0 Zr2 2.076124 1_656
F0 Mn0 2.110118 1_656
F1 Zr2 2.076113 1_555
F1 Mn0 2.110126 1_565
F2 Zr0 2.188301 1_665
F2 Mn0 2.254636 1_666
F2 Zr2 2.260479 1_656
F3 Zr0 2.188301 1_555
F3 Mn0 2.254636 1_555
F3 Zr2 2.260479 1_555
F4 Zr1 2.088473 1_555
F4 Mn0 2.128425 1_665
F5 Zr1 2.088473 1_556
F5 Mn0 2.128425 1_556
