# generated using pymatgen
data_CeTh2O6
_symmetry_space_group_name_H-M   'P 1'
_cell_length_a   3.92737960
_cell_length_b   3.92737960
_cell_length_c   9.59332643
_cell_angle_alpha   90.00000000
_cell_angle_beta   90.00000000
_cell_angle_gamma   119.99998688
_symmetry_Int_Tables_number   1
_chemical_formula_structural   CeTh2O6
_chemical_formula_sum   'Ce1 Th2 O6'
_cell_volume   128.14618209
_cell_formula_units_Z   1
loop_
 _symmetry_equiv_pos_site_id
 _symmetry_equiv_pos_as_xyz
  1  'x, y, z'
loop_
 _atom_site_type_symbol
 _atom_site_label
 _atom_site_symmetry_multiplicity
 _atom_site_fract_x
 _atom_site_fract_y
 _atom_site_fract_z
 _atom_site_occupancy
  Ce  Ce0  1  0.00000000  -0.00000000  -0.00000000  1
  Th  Th0  1  0.33333300  0.66666700  0.67007615  1
  Th  Th1  1  0.66666700  0.33333300  0.32992385  1
  O  O0  1  -0.00000000  -0.00000000  0.24491250  1
  O  O1  1  0.33333300  0.66666700  0.92078825  1
  O  O2  1  0.66666700  0.33333300  0.58453671  1
  O  O3  1  0.66666700  0.33333300  0.07921175  1
  O  O4  1  0.00000000  -0.00000000  0.75508750  1
  O  O5  1  0.33333300  0.66666700  0.41546329  1
loop_
_geom_bond_atom_site_label_1
_geom_bond_atom_site_label_2
_geom_bond_distance
_geom_bond_site_symmetry_2
Ce0 O4 2.349526 1_554
Ce0 O0 2.349526 1_555
Ce0 O1 2.391418 1_544
Ce0 O3 2.391418 1_455
Ce0 O3 2.391422 1_555
Ce0 O1 2.391422 1_444
Ce0 O1 2.391422 1_554
Ce0 O3 2.391422 1_445
O0 Th1 2.409675 1_455
O0 Th1 2.409679 1_555
O0 Th1 2.409679 1_445
O1 Th0 2.405163 1_555
O2 Th0 2.411395 1_655
O2 Th0 2.411395 1_545
O2 Th0 2.411401 1_555
O2 Th1 2.442584 1_555
O3 Th1 2.405163 1_555
O4 Th0 2.409675 1_545
O4 Th0 2.409679 1_555
O4 Th0 2.409679 1_445
O5 Th1 2.411395 1_455
O5 Th1 2.411395 1_565
O5 Th1 2.411401 1_555
O5 Th0 2.442584 1_555
