# generated using pymatgen
data_CaMg
_symmetry_space_group_name_H-M   'P 1'
_cell_length_a   14.06122875
_cell_length_b   14.06122875
_cell_length_c   16.41585554
_cell_angle_alpha   74.59921860
_cell_angle_beta   74.59921860
_cell_angle_gamma   29.76255038
_symmetry_Int_Tables_number   1
_chemical_formula_structural   CaMg
_chemical_formula_sum   'Ca24 Mg24'
_cell_volume   1549.17137538
_cell_formula_units_Z   24
loop_
 _symmetry_equiv_pos_site_id
 _symmetry_equiv_pos_as_xyz
  1  'x, y, z'
loop_
 _atom_site_type_symbol
 _atom_site_label
 _atom_site_symmetry_multiplicity
 _atom_site_fract_x
 _atom_site_fract_y
 _atom_site_fract_z
 _atom_site_occupancy
  Ca  Ca0_0  1  0.30569200  0.30569200  0.12674250  1
  Ca  Ca0_1  1  0.30569200  0.30569200  0.62674250  1
  Ca  Ca0_2  1  0.30569200  0.80569200  0.12674250  1
  Ca  Ca0_3  1  0.30569200  0.80569200  0.62674250  1
  Ca  Ca0_4  1  0.80569200  0.30569200  0.12674250  1
  Ca  Ca0_5  1  0.80569200  0.30569200  0.62674250  1
  Ca  Ca0_6  1  0.80569200  0.80569200  0.12674250  1
  Ca  Ca0_7  1  0.80569200  0.80569200  0.62674250  1
  Ca  Ca1_0  1  0.16625300  0.16625300  0.16360750  1
  Ca  Ca1_1  1  0.16625300  0.16625300  0.66360750  1
  Ca  Ca1_2  1  0.16625300  0.66625300  0.16360750  1
  Ca  Ca1_3  1  0.16625300  0.66625300  0.66360750  1
  Ca  Ca1_4  1  0.66625300  0.16625300  0.16360750  1
  Ca  Ca1_5  1  0.66625300  0.16625300  0.66360750  1
  Ca  Ca1_6  1  0.66625300  0.66625300  0.16360750  1
  Ca  Ca1_7  1  0.66625300  0.66625300  0.66360750  1
  Ca  Ca2_0  1  0.47266800  0.47266800  0.31757350  1
  Ca  Ca2_1  1  0.47266800  0.47266800  0.81757350  1
  Ca  Ca2_2  1  0.47266800  0.97266800  0.31757350  1
  Ca  Ca2_3  1  0.47266800  0.97266800  0.81757350  1
  Ca  Ca2_4  1  0.97266800  0.47266800  0.31757350  1
  Ca  Ca2_5  1  0.97266800  0.47266800  0.81757350  1
  Ca  Ca2_6  1  0.97266800  0.97266800  0.31757350  1
  Ca  Ca2_7  1  0.97266800  0.97266800  0.81757350  1
  Mg  Mg0_0  1  0.00131150  0.00131150  0.49760400  1
  Mg  Mg0_1  1  0.00131150  0.00131150  0.99760400  1
  Mg  Mg0_2  1  0.00131150  0.50131150  0.49760400  1
  Mg  Mg0_3  1  0.00131150  0.50131150  0.99760400  1
  Mg  Mg0_4  1  0.50131150  0.00131150  0.49760400  1
  Mg  Mg0_5  1  0.50131150  0.00131150  0.99760400  1
  Mg  Mg0_6  1  0.50131150  0.50131150  0.49760400  1
  Mg  Mg0_7  1  0.50131150  0.50131150  0.99760400  1
  Mg  Mg1_0  1  0.33356800  0.33356800  0.33928750  1
  Mg  Mg1_1  1  0.33356800  0.33356800  0.83928750  1
  Mg  Mg1_2  1  0.33356800  0.83356800  0.33928750  1
  Mg  Mg1_3  1  0.33356800  0.83356800  0.83928750  1
  Mg  Mg1_4  1  0.83356800  0.33356800  0.33928750  1
  Mg  Mg1_5  1  0.83356800  0.33356800  0.83928750  1
  Mg  Mg1_6  1  0.83356800  0.83356800  0.33928750  1
  Mg  Mg1_7  1  0.83356800  0.83356800  0.83928750  1
  Mg  Mg2_0  1  0.13717450  0.13717450  0.47185150  1
  Mg  Mg2_1  1  0.13717450  0.13717450  0.97185150  1
  Mg  Mg2_2  1  0.13717450  0.63717450  0.47185150  1
  Mg  Mg2_3  1  0.13717450  0.63717450  0.97185150  1
  Mg  Mg2_4  1  0.63717450  0.13717450  0.47185150  1
  Mg  Mg2_5  1  0.63717450  0.13717450  0.97185150  1
  Mg  Mg2_6  1  0.63717450  0.63717450  0.47185150  1
  Mg  Mg2_7  1  0.63717450  0.63717450  0.97185150  1
loop_
_geom_bond_atom_site_label_1
_geom_bond_atom_site_label_2
_geom_bond_distance
_geom_bond_site_symmetry_2
Ca0_0 Mg2_5 3.396351 1_554
Ca0_0 Mg2_3 3.396351 1_554
Ca0_0 Mg0_3 3.414774 1_554
Ca0_0 Mg0_5 3.414774 1_554
Ca0_0 Ca0_6 3.611162 1_455
Ca0_0 Ca0_6 3.611162 1_545
Ca0_0 Ca1_0 3.669975 1_555
Ca0_0 Ca1_4 3.695343 1_555
Ca0_0 Ca1_2 3.695343 1_555
Ca0_0 Mg1_0 3.768382 1_555
Ca0_0 Ca2_4 3.778980 1_455
Ca0_0 Ca2_2 3.778980 1_545
Ca0_1 Mg2_4 3.396351 1_555
Ca0_1 Mg2_2 3.396351 1_555
Ca0_1 Mg0_4 3.414774 1_555
Ca0_1 Mg0_2 3.414774 1_555
Ca0_1 Ca0_7 3.611162 1_455
Ca0_1 Ca0_7 3.611162 1_545
Ca0_1 Ca1_1 3.669975 1_555
Ca0_1 Ca1_5 3.695343 1_555
Ca0_1 Ca1_3 3.695343 1_555
Ca0_1 Mg1_1 3.768382 1_555
Ca0_1 Ca2_5 3.778980 1_455
Ca0_1 Ca2_3 3.778980 1_545
Ca0_2 Mg2_1 3.396351 1_564
Ca0_2 Mg2_7 3.396351 1_554
Ca0_2 Mg0_7 3.414774 1_554
Ca0_2 Mg0_1 3.414774 1_564
Ca0_2 Ca0_4 3.611162 1_555
Ca0_2 Ca0_4 3.611162 1_465
Ca0_2 Ca1_2 3.669975 1_555
Ca0_2 Ca1_6 3.695343 1_555
Ca0_2 Ca1_0 3.695343 1_565
Ca0_2 Mg1_2 3.768382 1_555
Ca0_2 Ca2_0 3.778980 1_555
Ca0_2 Ca2_6 3.778980 1_455
Ca0_3 Mg2_0 3.396351 1_565
Ca0_3 Mg2_6 3.396351 1_555
Ca0_3 Mg0_6 3.414774 1_555
Ca0_3 Mg0_0 3.414774 1_565
Ca0_3 Ca0_5 3.611162 1_465
Ca0_3 Ca0_5 3.611162 1_555
Ca0_3 Ca1_3 3.669975 1_555
Ca0_3 Ca1_1 3.695343 1_565
Ca0_3 Ca1_7 3.695343 1_555
Ca0_3 Mg1_3 3.768382 1_555
Ca0_3 Ca2_7 3.778980 1_455
Ca0_3 Ca2_1 3.778980 1_555
Ca0_4 Mg2_1 3.396351 1_654
Ca0_4 Mg2_7 3.396351 1_554
Ca0_4 Mg0_7 3.414774 1_554
Ca0_4 Mg0_1 3.414774 1_654
Ca0_4 Ca1_4 3.669975 1_555
Ca0_4 Ca1_0 3.695343 1_655
Ca0_4 Ca1_6 3.695343 1_555
Ca0_4 Mg1_4 3.768382 1_555
Ca0_4 Ca2_0 3.778980 1_555
Ca0_4 Ca2_6 3.778980 1_545
Ca0_5 Mg2_6 3.396351 1_555
Ca0_5 Mg2_0 3.396351 1_655
Ca0_5 Mg0_6 3.414774 1_555
Ca0_5 Mg0_0 3.414774 1_655
Ca0_5 Ca1_5 3.669975 1_555
Ca0_5 Ca1_1 3.695343 1_655
Ca0_5 Ca1_7 3.695343 1_555
Ca0_5 Mg1_5 3.768382 1_555
Ca0_5 Ca2_7 3.778980 1_545
Ca0_5 Ca2_1 3.778980 1_555
Ca0_6 Mg2_3 3.396351 1_654
Ca0_6 Mg2_5 3.396351 1_564
Ca0_6 Mg0_5 3.414774 1_564
Ca0_6 Mg0_3 3.414774 1_654
Ca0_6 Ca1_6 3.669975 1_555
Ca0_6 Ca1_2 3.695343 1_655
Ca0_6 Ca1_4 3.695343 1_565
Ca0_6 Mg1_6 3.768382 1_555
Ca0_6 Ca2_2 3.778980 1_555
Ca0_6 Ca2_4 3.778980 1_555
Ca0_7 Mg2_2 3.396351 1_655
Ca0_7 Mg2_4 3.396351 1_565
Ca0_7 Mg0_2 3.414774 1_655
Ca0_7 Mg0_4 3.414774 1_565
Ca0_7 Ca1_7 3.669975 1_555
Ca0_7 Ca1_3 3.695343 1_655
Ca0_7 Ca1_5 3.695343 1_565
Ca0_7 Mg1_7 3.768382 1_555
Ca0_7 Ca2_3 3.778980 1_555
Ca0_7 Ca2_5 3.778980 1_555
Ca1_0 Mg2_1 3.449747 1_554
Ca1_0 Mg0_3 3.545209 1_554
Ca1_0 Mg0_5 3.545209 1_554
Ca1_0 Ca1_6 3.611162 1_545
Ca1_0 Ca1_6 3.611162 1_455
Ca1_0 Mg1_2 3.614666 1_545
Ca1_0 Mg1_4 3.614666 1_455
Ca1_0 Ca2_2 3.758880 1_545
Ca1_0 Ca2_4 3.758880 1_455
Ca1_1 Mg2_0 3.449747 1_555
Ca1_1 Mg0_4 3.545209 1_555
Ca1_1 Mg0_2 3.545209 1_555
Ca1_1 Ca1_7 3.611162 1_545
Ca1_1 Ca1_7 3.611162 1_455
Ca1_1 Mg1_3 3.614666 1_545
Ca1_1 Mg1_5 3.614666 1_455
Ca1_1 Ca2_3 3.758880 1_545
Ca1_1 Ca2_5 3.758880 1_455
Ca1_2 Mg2_3 3.449747 1_554
Ca1_2 Mg0_1 3.545209 1_564
Ca1_2 Mg0_7 3.545209 1_554
Ca1_2 Ca1_4 3.611162 1_555
Ca1_2 Ca1_4 3.611162 1_465
Ca1_2 Mg1_6 3.614666 1_455
Ca1_2 Mg1_0 3.614666 1_555
Ca1_2 Ca2_6 3.758880 1_455
Ca1_2 Ca2_0 3.758880 1_555
Ca1_3 Mg2_2 3.449747 1_555
Ca1_3 Mg0_0 3.545209 1_565
Ca1_3 Mg0_6 3.545209 1_555
Ca1_3 Ca1_5 3.611162 1_465
Ca1_3 Ca1_5 3.611162 1_555
Ca1_3 Mg1_1 3.614666 1_555
Ca1_3 Mg1_7 3.614666 1_455
Ca1_3 Ca2_1 3.758880 1_555
Ca1_3 Ca2_7 3.758880 1_455
Ca1_4 Mg2_5 3.449747 1_554
Ca1_4 Mg0_1 3.545209 1_654
Ca1_4 Mg0_7 3.545209 1_554
Ca1_4 Mg1_6 3.614666 1_545
Ca1_4 Mg1_0 3.614666 1_555
Ca1_4 Ca2_6 3.758880 1_545
Ca1_4 Ca2_0 3.758880 1_555
Ca1_5 Mg2_4 3.449747 1_555
Ca1_5 Mg0_0 3.545209 1_655
Ca1_5 Mg0_6 3.545209 1_555
Ca1_5 Mg1_1 3.614666 1_555
Ca1_5 Mg1_7 3.614666 1_545
Ca1_5 Ca2_1 3.758880 1_555
Ca1_5 Ca2_7 3.758880 1_545
Ca1_6 Mg2_7 3.449747 1_554
Ca1_6 Mg0_3 3.545209 1_654
Ca1_6 Mg0_5 3.545209 1_564
Ca1_6 Mg1_4 3.614666 1_555
Ca1_6 Mg1_2 3.614666 1_555
Ca1_6 Ca2_2 3.758880 1_555
Ca1_6 Ca2_4 3.758880 1_555
Ca1_7 Mg2_6 3.449747 1_555
Ca1_7 Mg0_4 3.545209 1_565
Ca1_7 Mg0_2 3.545209 1_655
Ca1_7 Mg1_3 3.614666 1_555
Ca1_7 Mg1_5 3.614666 1_555
Ca1_7 Ca2_5 3.758880 1_555
Ca1_7 Ca2_3 3.758880 1_555
Ca2_0 Mg0_6 3.256475 1_555
Ca2_0 Mg2_2 3.440841 1_555
Ca2_0 Mg2_4 3.440841 1_555
Ca2_0 Ca2_6 3.611162 1_455
Ca2_0 Ca2_6 3.611162 1_545
Ca2_0 Mg1_4 3.614265 1_555
Ca2_0 Mg1_2 3.614265 1_555
Ca2_0 Mg1_0 3.698597 1_555
Ca2_1 Mg0_7 3.256475 1_555
Ca2_1 Mg2_5 3.440841 1_555
Ca2_1 Mg2_3 3.440841 1_555
Ca2_1 Ca2_7 3.611162 1_545
Ca2_1 Ca2_7 3.611162 1_455
Ca2_1 Mg1_5 3.614265 1_555
Ca2_1 Mg1_3 3.614265 1_555
Ca2_1 Mg1_1 3.698597 1_555
Ca2_2 Mg0_4 3.256475 1_565
Ca2_2 Mg2_0 3.440841 1_565
Ca2_2 Mg2_6 3.440841 1_555
Ca2_2 Ca2_4 3.611162 1_555
Ca2_2 Ca2_4 3.611162 1_465
Ca2_2 Mg1_6 3.614265 1_555
Ca2_2 Mg1_0 3.614265 1_565
Ca2_2 Mg1_2 3.698597 1_555
Ca2_3 Mg0_5 3.256475 1_565
Ca2_3 Mg2_7 3.440841 1_555
Ca2_3 Mg2_1 3.440841 1_565
Ca2_3 Ca2_5 3.611162 1_465
Ca2_3 Ca2_5 3.611162 1_555
Ca2_3 Mg1_7 3.614265 1_555
Ca2_3 Mg1_1 3.614265 1_565
Ca2_3 Mg1_3 3.698597 1_555
Ca2_4 Mg0_2 3.256475 1_655
Ca2_4 Mg2_6 3.440841 1_555
Ca2_4 Mg2_0 3.440841 1_655
Ca2_4 Mg1_0 3.614265 1_655
Ca2_4 Mg1_6 3.614265 1_555
Ca2_4 Mg1_4 3.698597 1_555
Ca2_5 Mg0_3 3.256475 1_655
Ca2_5 Mg2_7 3.440841 1_555
Ca2_5 Mg2_1 3.440841 1_655
Ca2_5 Mg1_1 3.614265 1_655
Ca2_5 Mg1_7 3.614265 1_555
Ca2_5 Mg1_5 3.698597 1_555
Ca2_6 Mg0_0 3.256475 1_665
Ca2_6 Mg2_2 3.440841 1_655
Ca2_6 Mg2_4 3.440841 1_565
Ca2_6 Mg1_2 3.614265 1_655
Ca2_6 Mg1_4 3.614265 1_565
Ca2_6 Mg1_6 3.698597 1_555
Ca2_7 Mg0_1 3.256475 1_665
Ca2_7 Mg2_5 3.440841 1_565
Ca2_7 Mg2_3 3.440841 1_655
Ca2_7 Mg1_5 3.614265 1_565
Ca2_7 Mg1_3 3.614265 1_655
Ca2_7 Mg1_7 3.698597 1_555
Mg0_0 Mg1_2 3.437944 1_545
Mg0_0 Mg1_4 3.437944 1_455
Mg0_1 Mg1_5 3.437944 1_455
Mg0_1 Mg1_3 3.437944 1_545
Mg0_2 Mg1_6 3.437944 1_455
Mg0_2 Mg1_0 3.437944 1_555
Mg0_3 Mg1_7 3.437944 1_455
Mg0_3 Mg1_1 3.437944 1_555
Mg0_4 Mg1_6 3.437944 1_545
Mg0_4 Mg1_0 3.437944 1_555
Mg0_5 Mg1_7 3.437944 1_545
Mg0_5 Mg1_1 3.437944 1_555
Mg0_6 Mg1_4 3.437944 1_555
Mg0_6 Mg1_2 3.437944 1_555
Mg0_7 Mg1_3 3.437944 1_555
Mg0_7 Mg1_5 3.437944 1_555
Mg1_0 Mg2_2 3.443986 1_555
Mg1_0 Mg2_4 3.443986 1_555
Mg1_1 Mg2_5 3.443986 1_555
Mg1_1 Mg2_3 3.443986 1_555
Mg1_2 Mg2_0 3.443986 1_565
Mg1_2 Mg2_6 3.443986 1_555
Mg1_3 Mg2_1 3.443986 1_565
Mg1_3 Mg2_7 3.443986 1_555
Mg1_4 Mg2_6 3.443986 1_555
Mg1_4 Mg2_0 3.443986 1_655
Mg1_5 Mg2_1 3.443986 1_655
Mg1_5 Mg2_7 3.443986 1_555
Mg1_6 Mg2_4 3.443986 1_565
Mg1_6 Mg2_2 3.443986 1_655
Mg1_7 Mg2_3 3.443986 1_655
Mg1_7 Mg2_5 3.443986 1_565
