# generated using pymatgen
data_BaIn2(P2O7)2
_symmetry_space_group_name_H-M   'P 1'
_cell_length_a   7.74981326
_cell_length_b   7.74981326
_cell_length_c   10.04150390
_cell_angle_alpha   80.34366516
_cell_angle_beta   80.34366516
_cell_angle_gamma   88.72441891
_symmetry_Int_Tables_number   1
_chemical_formula_structural   BaIn2(P2O7)2
_chemical_formula_sum   'Ba2 In4 P8 O28'
_cell_volume   586.10950183
_cell_formula_units_Z   2
loop_
 _symmetry_equiv_pos_site_id
 _symmetry_equiv_pos_as_xyz
  1  'x, y, z'
loop_
 _atom_site_type_symbol
 _atom_site_label
 _atom_site_symmetry_multiplicity
 _atom_site_fract_x
 _atom_site_fract_y
 _atom_site_fract_z
 _atom_site_occupancy
  Ba  Ba0  1  0.50000000  0.00000000  0.00000000  1
  Ba  Ba1  1  0.00000000  0.50000000  0.50000000  1
  In  In0  1  0.44706000  0.55294000  0.75000000  1
  In  In1  1  0.55294000  0.44706000  0.25000000  1
  In  In2  1  0.00000000  0.00000000  0.00000000  1
  In  In3  1  0.00000000  0.00000000  0.50000000  1
  P  P0  1  0.63433000  0.25210000  0.56046500  1
  P  P1  1  0.74790000  0.36567000  0.93953500  1
  P  P2  1  0.36567000  0.74790000  0.43953500  1
  P  P3  1  0.25210000  0.63433000  0.06046500  1
  P  P4  1  0.26929400  0.17884500  0.70050000  1
  P  P5  1  0.82115500  0.73070600  0.79950000  1
  P  P6  1  0.73070600  0.82115500  0.29950000  1
  P  P7  1  0.17884500  0.26929400  0.20050000  1
  O  O0  1  0.47833700  0.13817100  0.66261900  1
  O  O1  1  0.86182900  0.52166300  0.83738100  1
  O  O2  1  0.52166300  0.86182900  0.33738100  1
  O  O3  1  0.13817100  0.47833700  0.16261900  1
  O  O4  1  0.80372700  0.16100400  0.59361300  1
  O  O5  1  0.83899600  0.19627300  0.90638700  1
  O  O6  1  0.19627300  0.83899600  0.40638700  1
  O  O7  1  0.16100400  0.80372700  0.09361300  1
  O  O8  1  0.17569100  0.14822300  0.58464700  1
  O  O9  1  0.85177700  0.82430900  0.91535300  1
  O  O10  1  0.82430900  0.85177700  0.41535300  1
  O  O11  1  0.14822300  0.17569100  0.08464700  1
  O  O12  1  0.22250000  0.04951500  0.83448000  1
  O  O13  1  0.95048500  0.77750000  0.66552000  1
  O  O14  1  0.77750000  0.95048500  0.16552000  1
  O  O15  1  0.04951500  0.22250000  0.33448000  1
  O  O16  1  0.25280900  0.37300600  0.71453200  1
  O  O17  1  0.62699400  0.74719100  0.78546800  1
  O  O18  1  0.74719100  0.62699400  0.28546800  1
  O  O19  1  0.37300600  0.25280900  0.21453200  1
  O  O20  1  0.56323500  0.36384900  0.90095000  1
  O  O21  1  0.63615100  0.43676500  0.59905000  1
  O  O22  1  0.43676500  0.63615100  0.09905000  1
  O  O23  1  0.36384900  0.56323500  0.40095000  1
  O  O24  1  0.25319000  0.61190000  0.91279000  1
  O  O25  1  0.38810000  0.74681000  0.58721000  1
  O  O26  1  0.74681000  0.38810000  0.08721000  1
  O  O27  1  0.61190000  0.25319000  0.41279000  1
loop_
_geom_bond_atom_site_label_1
_geom_bond_atom_site_label_2
_geom_bond_distance
_geom_bond_site_symmetry_2
Ba0 O22 2.852649 1_545
Ba0 O20 2.852649 1_554
Ba0 O12 2.912578 1_554
Ba0 O14 2.912578 1_545
Ba0 O5 2.994832 1_554
Ba0 O7 2.994832 1_545
Ba0 O11 3.074762 1_555
Ba0 O9 3.074762 1_544
Ba0 O17 3.172798 1_544
Ba0 O19 3.172798 1_555
Ba0 O2 3.408501 1_545
Ba0 O0 3.408501 1_554
Ba1 O21 2.852649 1_455
Ba1 O23 2.852649 1_555
Ba1 O15 2.912578 1_555
Ba1 O13 2.912578 1_455
Ba1 O4 2.994832 1_455
Ba1 O6 2.994832 1_555
Ba1 O8 3.074762 1_555
Ba1 O10 3.074762 1_455
Ba1 O16 3.172798 1_555
Ba1 O18 3.172798 1_455
Ba1 O3 3.408501 1_555
Ba1 O1 3.408501 1_455
In0 O24 2.129399 1_555
In0 O25 2.129399 1_555
In0 O16 2.185760 1_555
In0 O17 2.185760 1_555
In0 O21 2.215742 1_555
In0 O20 2.215742 1_555
In1 O26 2.129399 1_555
In1 O27 2.129399 1_555
In1 O19 2.185760 1_555
In1 O18 2.185760 1_555
In1 O22 2.215742 1_555
In1 O23 2.215742 1_555
In2 O5 2.140910 1_454
In2 O7 2.140910 1_545
In2 O11 2.163631 1_555
In2 O9 2.163631 1_444
In2 O12 2.176485 1_554
In2 O14 2.176485 1_445
In3 O4 2.140910 1_455
In3 O6 2.140910 1_545
In3 O10 2.163631 1_445
In3 O8 2.163631 1_555
In3 O13 2.176485 1_445
In3 O15 2.176485 1_555
O0 P0 1.618930 1_555
O0 P4 1.636872 1_555
O1 P1 1.618930 1_555
O1 P5 1.636872 1_555
O2 P2 1.618930 1_555
O2 P6 1.636872 1_555
O3 P3 1.618930 1_555
O3 P7 1.636872 1_555
O4 P0 1.535944 1_555
O5 P1 1.535944 1_555
O6 P2 1.535944 1_555
O7 P3 1.535944 1_555
O8 P4 1.522917 1_555
O9 P5 1.522917 1_555
O10 P6 1.522917 1_555
O11 P7 1.522917 1_555
O12 P4 1.531737 1_555
O13 P5 1.531737 1_555
O14 P6 1.531737 1_555
O15 P7 1.531737 1_555
O16 P4 1.535207 1_555
O17 P5 1.535207 1_555
O18 P6 1.535207 1_555
O19 P7 1.535207 1_555
O20 P1 1.545047 1_555
O21 P0 1.545047 1_555
O22 P3 1.545047 1_555
O23 P2 1.545047 1_555
O24 P3 1.520337 1_556
O25 P2 1.520337 1_555
O26 P1 1.520337 1_554
O27 P0 1.520337 1_555
