# generated using pymatgen
data_AsC3S3NF11
_symmetry_space_group_name_H-M   'P 1'
_cell_length_a   6.03293800
_cell_length_b   15.01312100
_cell_length_c   15.49164322
_cell_angle_alpha   67.29023653
_cell_angle_beta   90.00000000
_cell_angle_gamma   90.00000000
_symmetry_Int_Tables_number   1
_chemical_formula_structural   AsC3S3NF11
_chemical_formula_sum   'As4 C12 S12 N4 F44'
_cell_volume   1294.34686150
_cell_formula_units_Z   4
loop_
 _symmetry_equiv_pos_site_id
 _symmetry_equiv_pos_as_xyz
  1  'x, y, z'
loop_
 _atom_site_type_symbol
 _atom_site_label
 _atom_site_symmetry_multiplicity
 _atom_site_fract_x
 _atom_site_fract_y
 _atom_site_fract_z
 _atom_site_occupancy
  As  As0  1  0.11159400  0.94756300  0.33194000  1
  As  As1  1  0.61159400  0.55243700  0.66806000  1
  As  As2  1  0.88840600  0.05243700  0.66806000  1
  As  As3  1  0.38840600  0.44756300  0.33194000  1
  C  C0  1  0.29537400  0.26078500  0.77912900  1
  C  C1  1  0.79537400  0.23921500  0.22087100  1
  C  C2  1  0.70462600  0.73921500  0.22087100  1
  C  C3  1  0.20462600  0.76078500  0.77912900  1
  C  C4  1  0.33532800  0.22322300  0.88475800  1
  C  C5  1  0.83532800  0.27677700  0.11524200  1
  C  C6  1  0.66467200  0.77677700  0.11524200  1
  C  C7  1  0.16467200  0.72322300  0.88475800  1
  C  C8  1  0.23515700  0.12035500  0.94061800  1
  C  C9  1  0.73515700  0.37964500  0.05938200  1
  C  C10  1  0.76484300  0.87964500  0.05938200  1
  C  C11  1  0.26484300  0.62035500  0.94061800  1
  S  S0  1  0.06395000  0.33543200  0.73508200  1
  S  S1  1  0.56395000  0.16456800  0.26491800  1
  S  S2  1  0.93605000  0.66456800  0.26491800  1
  S  S3  1  0.43605000  0.83543200  0.73508200  1
  S  S4  1  0.10785000  0.36195100  0.59756000  1
  S  S5  1  0.60785000  0.13804900  0.40244000  1
  S  S6  1  0.89215000  0.63804900  0.40244000  1
  S  S7  1  0.39215000  0.86195100  0.59756000  1
  S  S8  1  0.39876700  0.27725100  0.61492000  1
  S  S9  1  0.89876700  0.22274900  0.38508000  1
  S  S10  1  0.60123300  0.72274900  0.38508000  1
  S  S11  1  0.10123300  0.77725100  0.61492000  1
  N  N0  1  0.42965300  0.23947100  0.72544400  1
  N  N1  1  0.92965300  0.26052900  0.27455600  1
  N  N2  1  0.57034700  0.76052900  0.27455600  1
  N  N3  1  0.07034700  0.73947100  0.72544400  1
  F  F0  1  0.55690700  0.21942400  0.90214900  1
  F  F1  1  0.05690700  0.28057600  0.09785100  1
  F  F2  1  0.44309300  0.78057600  0.09785100  1
  F  F3  1  0.94309300  0.71942400  0.90214900  1
  F  F4  1  0.23939800  0.28590900  0.91878600  1
  F  F5  1  0.73939800  0.21409100  0.08121400  1
  F  F6  1  0.76060200  0.71409100  0.08121400  1
  F  F7  1  0.26060200  0.78590900  0.91878600  1
  F  F8  1  0.32415000  0.05501400  0.91070800  1
  F  F9  1  0.82415000  0.44498600  0.08929200  1
  F  F10  1  0.67585000  0.94498600  0.08929200  1
  F  F11  1  0.17585000  0.55501400  0.91070800  1
  F  F12  1  0.01240300  0.12270700  0.92830000  1
  F  F13  1  0.51240300  0.37729300  0.07170000  1
  F  F14  1  0.98759700  0.87729300  0.07170000  1
  F  F15  1  0.48759700  0.62270700  0.92830000  1
  F  F16  1  0.27872700  0.09392900  0.03252200  1
  F  F17  1  0.77872700  0.40607100  0.96747800  1
  F  F18  1  0.72127300  0.90607100  0.96747800  1
  F  F19  1  0.22127300  0.59392900  0.03252200  1
  F  F20  1  0.01236900  0.87407700  0.27441600  1
  F  F21  1  0.51236900  0.62592300  0.72558400  1
  F  F22  1  0.98763100  0.12592300  0.72558400  1
  F  F23  1  0.48763100  0.37407700  0.27441600  1
  F  F24  1  0.21257800  0.01922100  0.39311800  1
  F  F25  1  0.71257800  0.48077900  0.60688200  1
  F  F26  1  0.78742200  0.98077900  0.60688200  1
  F  F27  1  0.28742200  0.51922100  0.39311800  1
  F  F28  1  0.00594100  0.05314000  0.24349200  1
  F  F29  1  0.50594100  0.44686000  0.75650800  1
  F  F30  1  0.99405900  0.94686000  0.75650800  1
  F  F31  1  0.49405900  0.55314000  0.24349200  1
  F  F32  1  0.86011200  0.92990100  0.39525200  1
  F  F33  1  0.36011200  0.57009900  0.60474800  1
  F  F34  1  0.13988800  0.07009900  0.60474800  1
  F  F35  1  0.63988800  0.42990100  0.39525200  1
  F  F36  1  0.22280800  0.84166900  0.42426400  1
  F  F37  1  0.72280800  0.65833100  0.57573600  1
  F  F38  1  0.77719200  0.15833100  0.57573600  1
  F  F39  1  0.27719200  0.34166900  0.42426400  1
  F  F40  1  0.36707600  0.96245000  0.27291100  1
  F  F41  1  0.86707600  0.53755000  0.72708900  1
  F  F42  1  0.63292400  0.03755000  0.72708900  1
  F  F43  1  0.13292400  0.46245000  0.27291100  1
loop_
_geom_bond_atom_site_label_1
_geom_bond_atom_site_label_2
_geom_bond_distance
_geom_bond_site_symmetry_2
As0 F40 1.761818 1_555
As0 F28 1.766115 1_565
As0 F20 1.768832 1_555
As0 F32 1.770114 1_455
As0 F24 1.792767 1_565
As0 F36 1.807645 1_555
As1 F41 1.761818 1_555
As1 F29 1.766115 1_555
As1 F21 1.768832 1_555
As1 F33 1.770114 1_555
As1 F25 1.792767 1_555
As1 F37 1.807645 1_555
As2 F42 1.761818 1_555
As2 F30 1.766115 1_545
As2 F22 1.768832 1_555
As2 F34 1.770114 1_655
As2 F26 1.792767 1_545
As2 F38 1.807645 1_555
As3 F43 1.761818 1_555
As3 F31 1.766115 1_555
As3 F23 1.768832 1_555
As3 F35 1.770114 1_555
As3 F27 1.792767 1_555
As3 F39 1.807645 1_555
C0 N0 1.286781 1_555
C0 C4 1.530130 1_555
C0 S0 1.755100 1_555
C1 N1 1.286781 1_555
C1 C5 1.530130 1_555
C1 S1 1.755100 1_555
C2 N2 1.286781 1_555
C2 C6 1.530130 1_555
C2 S2 1.755100 1_555
C3 N3 1.286781 1_555
C3 C7 1.530130 1_555
C3 S3 1.755100 1_555
C4 F0 1.360490 1_555
C4 F4 1.371706 1_555
C5 F1 1.360490 1_655
C5 F5 1.371706 1_555
C6 F2 1.360490 1_555
C6 F6 1.371706 1_555
C7 F3 1.360490 1_455
C7 F7 1.371706 1_555
C8 F8 1.347671 1_555
C8 F16 1.348111 1_556
C8 F12 1.355884 1_555
C9 F9 1.347671 1_555
C9 F17 1.348111 1_554
C9 F13 1.355884 1_555
C10 F10 1.347671 1_555
C10 F18 1.348111 1_554
C10 F14 1.355884 1_555
C11 F11 1.347671 1_555
C11 F19 1.348111 1_556
C11 F15 1.355884 1_555
S0 S4 2.027935 1_555
S1 S5 2.027935 1_555
S2 S6 2.027935 1_555
S3 S7 2.027935 1_555
S4 S8 2.122637 1_555
S5 S9 2.122637 1_555
S10 S6 2.122637 1_555
S11 S7 2.122637 1_555
N0 S8 1.593174 1_555
N1 S9 1.593174 1_555
N2 S10 1.593174 1_555
N3 S11 1.593174 1_555
