# generated using pymatgen
data_Cr4In2(CuSe4)3
_symmetry_space_group_name_H-M   'P 1'
_cell_length_a   7.51337821
_cell_length_b   7.51337821
_cell_length_c   18.84870507
_cell_angle_alpha   89.99569125
_cell_angle_beta   89.99569125
_cell_angle_gamma   59.54372439
_symmetry_Int_Tables_number   1
_chemical_formula_structural   Cr4In2(CuSe4)3
_chemical_formula_sum   'Cr8 In4 Cu6 Se24'
_cell_volume   917.20721489
_cell_formula_units_Z   2
loop_
 _symmetry_equiv_pos_site_id
 _symmetry_equiv_pos_as_xyz
  1  'x, y, z'
loop_
 _atom_site_type_symbol
 _atom_site_label
 _atom_site_symmetry_multiplicity
 _atom_site_fract_x
 _atom_site_fract_y
 _atom_site_fract_z
 _atom_site_occupancy
  Cr  Cr0  1  0.16682800  0.16682800  0.66592000  1
  Cr  Cr1  1  0.83317200  0.83317200  0.33408000  1
  Cr  Cr2  1  0.50000000  0.00000000  0.00000000  1
  Cr  Cr3  1  0.16708400  0.66657600  0.66629000  1
  Cr  Cr4  1  0.83291600  0.33342400  0.33371000  1
  Cr  Cr5  1  0.00000000  0.50000000  0.00000000  1
  Cr  Cr6  1  0.66657600  0.16708400  0.66629000  1
  Cr  Cr7  1  0.33342400  0.83291600  0.33371000  1
  In  In0  1  0.33202700  0.33202700  0.83275000  1
  In  In1  1  0.00000000  0.00000000  0.50000000  1
  In  In2  1  0.66797300  0.66797300  0.16725000  1
  In  In3  1  0.50000000  0.50000000  0.00000000  1
  Cu  Cu0  1  0.33308100  0.33308100  0.45911700  1
  Cu  Cu1  1  0.99773500  0.99773500  0.12774200  1
  Cu  Cu2  1  0.66682000  0.66682000  0.79096400  1
  Cu  Cu3  1  0.33318000  0.33318000  0.20903600  1
  Cu  Cu4  1  0.00226500  0.00226500  0.87225800  1
  Cu  Cu5  1  0.66691900  0.66691900  0.54088300  1
  Se  Se0  1  0.99892300  0.99892300  0.25959100  1
  Se  Se1  1  0.67784400  0.67784400  0.92138300  1
  Se  Se2  1  0.33337300  0.33337300  0.59190800  1
  Se  Se3  1  0.16256800  0.16256800  0.40696900  1
  Se  Se4  1  0.82913600  0.82913600  0.07398700  1
  Se  Se5  1  0.49534000  0.49534000  0.74008500  1
  Se  Se6  1  0.16276300  0.67550900  0.40702800  1
  Se  Se7  1  0.85028200  0.33851000  0.07900200  1
  Se  Se8  1  0.49485700  0.00973400  0.73888800  1
  Se  Se9  1  0.67550900  0.16276300  0.40702800  1
  Se  Se10  1  0.33851000  0.85028200  0.07900200  1
  Se  Se11  1  0.00973400  0.49485700  0.73888800  1
  Se  Se12  1  0.66662700  0.66662700  0.40809200  1
  Se  Se13  1  0.32215600  0.32215600  0.07861700  1
  Se  Se14  1  0.00107700  0.00107700  0.74040900  1
  Se  Se15  1  0.50466000  0.50466000  0.25991500  1
  Se  Se16  1  0.17086400  0.17086400  0.92601300  1
  Se  Se17  1  0.83743200  0.83743200  0.59303100  1
  Se  Se18  1  0.50514300  0.99026600  0.26111200  1
  Se  Se19  1  0.14971800  0.66149000  0.92099800  1
  Se  Se20  1  0.83723700  0.32449100  0.59297200  1
  Se  Se21  1  0.99026600  0.50514300  0.26111200  1
  Se  Se22  1  0.66149000  0.14971800  0.92099800  1
  Se  Se23  1  0.32449100  0.83723700  0.59297200  1
loop_
_geom_bond_atom_site_label_1
_geom_bond_atom_site_label_2
_geom_bond_distance
_geom_bond_site_symmetry_2
Cr0 Se8 2.531846 1_555
Cr0 Se11 2.531846 1_555
Cr0 Se23 2.540183 1_545
Cr0 Se20 2.540183 1_455
Cr0 Se14 2.577747 1_555
Cr0 Se2 2.581570 1_555
Cr1 Se18 2.531846 1_555
Cr1 Se21 2.531846 1_555
Cr1 Se6 2.540183 1_655
Cr1 Se9 2.540183 1_565
Cr1 Se0 2.577747 1_555
Cr1 Se12 2.581570 1_555
Cr2 Se10 2.517550 1_545
Cr2 Se22 2.517550 1_554
Cr2 Se4 2.547569 1_545
Cr2 Se16 2.547569 1_554
Cr2 Se13 2.561535 1_555
Cr2 Se1 2.561535 1_544
Cr3 Se5 2.540899 1_555
Cr3 Se17 2.542865 1_455
Cr3 Se11 2.545682 1_555
Cr3 Se23 2.547433 1_555
Cr3 Se2 2.573597 1_555
Cr3 Se14 2.578024 1_565
Cr4 Se15 2.540899 1_555
Cr4 Se3 2.542865 1_655
Cr4 Se21 2.545682 1_555
Cr4 Se9 2.547433 1_555
Cr4 Se12 2.573597 1_555
Cr4 Se0 2.578024 1_545
Cr5 Se7 2.517550 1_455
Cr5 Se19 2.517550 1_554
Cr5 Se16 2.547569 1_554
Cr5 Se4 2.547569 1_455
Cr5 Se13 2.561535 1_555
Cr5 Se1 2.561535 1_454
Cr6 Se5 2.540899 1_555
Cr6 Se17 2.542865 1_545
Cr6 Se8 2.545682 1_555
Cr6 Se20 2.547433 1_555
Cr6 Se2 2.573597 1_555
Cr6 Se14 2.578024 1_655
Cr7 Se15 2.540899 1_555
Cr7 Se3 2.542865 1_565
Cr7 Se18 2.545682 1_555
Cr7 Se6 2.547433 1_555
Cr7 Se12 2.573597 1_555
Cr7 Se0 2.578024 1_455
In0 Se22 2.708036 1_555
In0 Se19 2.708036 1_555
In0 Se8 2.736326 1_555
In0 Se11 2.736326 1_555
In0 Se16 2.740143 1_555
In0 Se5 2.754553 1_555
In1 Se23 2.736455 1_545
In1 Se20 2.736455 1_455
In1 Se6 2.736455 1_545
In1 Se9 2.736455 1_455
In1 Se17 2.751437 1_445
In1 Se3 2.751437 1_555
In2 Se10 2.708036 1_555
In2 Se7 2.708036 1_555
In2 Se18 2.736326 1_555
In2 Se21 2.736326 1_555
In2 Se4 2.740143 1_555
In2 Se15 2.754553 1_555
In3 Se10 2.716441 1_555
In3 Se7 2.716441 1_555
In3 Se19 2.716441 1_554
In3 Se22 2.716441 1_554
In3 Se13 2.752482 1_555
In3 Se1 2.752482 1_554
Cu0 Se6 2.425477 1_555
Cu0 Se9 2.425477 1_555
Cu0 Se3 2.431661 1_555
Cu0 Se2 2.502942 1_555
Cu1 Se7 2.398138 1_565
Cu1 Se10 2.398138 1_655
Cu1 Se4 2.421367 1_555
Cu1 Se0 2.485233 1_555
Cu2 Se8 2.428174 1_565
Cu2 Se11 2.428174 1_655
Cu2 Se5 2.433676 1_555
Cu2 Se1 2.462443 1_555
Cu3 Se21 2.428174 1_455
Cu3 Se18 2.428174 1_545
Cu3 Se15 2.433676 1_555
Cu3 Se13 2.462443 1_555
Cu4 Se22 2.398138 1_455
Cu4 Se19 2.398138 1_545
Cu4 Se16 2.421367 1_555
Cu4 Se14 2.485233 1_555
Cu5 Se23 2.425477 1_555
Cu5 Se20 2.425477 1_555
Cu5 Se17 2.431661 1_555
Cu5 Se12 2.502942 1_555
