# generated using pymatgen
data_KFe2F6
_symmetry_space_group_name_H-M   'P 1'
_cell_length_a   12.80949300
_cell_length_b   12.80949300
_cell_length_c   4.02665600
_cell_angle_alpha   90.00000000
_cell_angle_beta   90.00000000
_cell_angle_gamma   90.00000000
_symmetry_Int_Tables_number   1
_chemical_formula_structural   KFe2F6
_chemical_formula_sum   'K5 Fe10 F30'
_cell_volume   660.70624307
_cell_formula_units_Z   5
loop_
 _symmetry_equiv_pos_site_id
 _symmetry_equiv_pos_as_xyz
  1  'x, y, z'
loop_
 _atom_site_type_symbol
 _atom_site_label
 _atom_site_symmetry_multiplicity
 _atom_site_fract_x
 _atom_site_fract_y
 _atom_site_fract_z
 _atom_site_occupancy
  K  K0  1  0.32863500  0.17230600  0.00000000  1
  K  K1  1  0.67136500  0.82769400  0.00000000  1
  K  K2  1  0.82769400  0.32863500  0.00000000  1
  K  K3  1  0.17230600  0.67136500  0.00000000  1
  K  K4  1  0.50000000  0.50000000  0.00000000  1
  Fe  Fe0  1  0.00000000  0.50000000  0.50000000  1
  Fe  Fe1  1  0.50000000  0.00000000  0.50000000  1
  Fe  Fe2  1  0.28582600  0.42381800  0.50000000  1
  Fe  Fe3  1  0.71417400  0.57618200  0.50000000  1
  Fe  Fe4  1  0.79350100  0.07314800  0.50000000  1
  Fe  Fe5  1  0.20649900  0.92685200  0.50000000  1
  Fe  Fe6  1  0.57618200  0.28582600  0.50000000  1
  Fe  Fe7  1  0.42381800  0.71417400  0.50000000  1
  Fe  Fe8  1  0.92685200  0.79350100  0.50000000  1
  Fe  Fe9  1  0.07314800  0.20649900  0.50000000  1
  F  F0  1  0.15600900  0.51045400  0.50000000  1
  F  F1  1  0.84399100  0.48954600  0.50000000  1
  F  F2  1  0.65801900  0.99589100  0.50000000  1
  F  F3  1  0.34198100  0.00410900  0.50000000  1
  F  F4  1  0.48954600  0.15600900  0.50000000  1
  F  F5  1  0.51045400  0.84399100  0.50000000  1
  F  F6  1  0.00410900  0.65801900  0.50000000  1
  F  F7  1  0.99589100  0.34198100  0.50000000  1
  F  F8  1  0.21503400  0.27453300  0.50000000  1
  F  F9  1  0.78496600  0.72546700  0.50000000  1
  F  F10  1  0.72546700  0.21503400  0.50000000  1
  F  F11  1  0.27453300  0.78496600  0.50000000  1
  F  F12  1  0.29115900  0.42154900  0.00000000  1
  F  F13  1  0.70884100  0.57845100  0.00000000  1
  F  F14  1  0.79010500  0.07664200  0.00000000  1
  F  F15  1  0.20989500  0.92335800  0.00000000  1
  F  F16  1  0.57845100  0.29115900  0.00000000  1
  F  F17  1  0.42154900  0.70884100  0.00000000  1
  F  F18  1  0.92335800  0.79010500  0.00000000  1
  F  F19  1  0.07664200  0.20989500  0.00000000  1
  F  F20  1  0.35851000  0.57113100  0.50000000  1
  F  F21  1  0.64149000  0.42886900  0.50000000  1
  F  F22  1  0.85529300  0.93039400  0.50000000  1
  F  F23  1  0.14470700  0.06960600  0.50000000  1
  F  F24  1  0.42886900  0.35851000  0.50000000  1
  F  F25  1  0.57113100  0.64149000  0.50000000  1
  F  F26  1  0.06960600  0.85529300  0.50000000  1
  F  F27  1  0.93039400  0.14470700  0.50000000  1
  F  F28  1  0.00000000  0.50000000  0.00000000  1
  F  F29  1  0.50000000  0.00000000  0.00000000  1
loop_
_geom_bond_atom_site_label_1
_geom_bond_atom_site_label_2
_geom_bond_distance
_geom_bond_site_symmetry_2
F0 Fe2 1.999194 1_555
F0 Fe0 2.002878 1_555
F0 K3 2.888869 1_556
F0 K3 2.888869 1_555
F1 Fe3 1.999194 1_555
F1 Fe0 2.002878 1_655
F1 K2 2.888869 1_556
F1 K2 2.888869 1_555
F2 Fe4 1.997789 1_565
F2 Fe1 2.024827 1_565
F2 K1 2.953754 1_555
F2 K1 2.953754 1_556
F3 Fe5 1.997789 1_545
F3 Fe1 2.024827 1_555
F3 K0 2.953754 1_556
F3 K0 2.953754 1_555
F4 Fe6 1.999194 1_555
F4 Fe1 2.002878 1_555
F4 K0 2.888869 1_555
F4 K0 2.888869 1_556
F5 Fe7 1.999194 1_555
F5 Fe1 2.002878 1_565
F5 K1 2.888869 1_556
F5 K1 2.888869 1_555
F6 Fe8 1.997789 1_455
F6 Fe0 2.024827 1_555
F6 K3 2.953754 1_556
F6 K3 2.953754 1_555
F7 Fe9 1.997789 1_655
F7 Fe0 2.024827 1_655
F7 K2 2.953754 1_556
F7 K2 2.953754 1_555
F8 Fe9 2.015624 1_555
F8 Fe2 2.116379 1_555
F8 K0 2.808156 1_555
F8 K0 2.808156 1_556
F9 Fe8 2.015624 1_555
F9 Fe3 2.116379 1_555
F9 K1 2.808156 1_556
F9 K1 2.808156 1_555
F10 Fe4 2.015624 1_555
F10 Fe6 2.116379 1_555
F10 K2 2.808156 1_556
F10 K2 2.808156 1_555
F11 Fe5 2.015624 1_555
F11 Fe7 2.116379 1_555
F11 K3 2.808156 1_556
F11 K3 2.808156 1_555
F12 Fe2 2.014696 1_555
F12 Fe2 2.014696 1_554
F12 K4 2.857669 1_555
F13 Fe3 2.014696 1_554
F13 Fe3 2.014696 1_555
F13 K4 2.857669 1_555
F14 Fe4 2.014295 1_554
F14 Fe4 2.014295 1_555
F15 Fe5 2.014295 1_554
F15 Fe5 2.014295 1_555
F16 Fe6 2.014696 1_554
F16 Fe6 2.014696 1_555
F16 K4 2.857669 1_555
F17 Fe7 2.014696 1_555
F17 Fe7 2.014696 1_554
F17 K4 2.857669 1_555
F18 Fe8 2.014295 1_555
F18 Fe8 2.014295 1_554
F19 Fe9 2.014295 1_555
F19 Fe9 2.014295 1_554
F20 Fe7 2.014247 1_555
F20 Fe2 2.104194 1_555
F20 K4 2.858065 1_555
F20 K4 2.858065 1_556
F21 Fe6 2.014247 1_555
F21 Fe3 2.104194 1_555
F21 K4 2.858065 1_555
F21 K4 2.858065 1_556
F22 Fe8 1.978658 1_555
F22 Fe4 1.992564 1_565
F23 Fe9 1.978658 1_555
F23 Fe5 1.992564 1_545
F24 Fe2 2.014247 1_555
F24 Fe6 2.104194 1_555
F24 K4 2.858065 1_555
F24 K4 2.858065 1_556
F25 Fe3 2.014247 1_555
F25 Fe7 2.104194 1_555
F25 K4 2.858065 1_555
F25 K4 2.858065 1_556
F26 Fe5 1.978658 1_555
F26 Fe8 1.992564 1_455
F27 Fe4 1.978658 1_555
F27 Fe9 1.992564 1_655
F28 Fe0 2.013328 1_554
F28 Fe0 2.013328 1_555
F29 Fe1 2.013328 1_554
F29 Fe1 2.013328 1_555
