# generated using pymatgen
data_Li6MnV3(PO4)6
_symmetry_space_group_name_H-M   'P 1'
_cell_length_a   8.51428600
_cell_length_b   8.79823145
_cell_length_c   12.42107976
_cell_angle_alpha   90.41519596
_cell_angle_beta   92.50469619
_cell_angle_gamma   90.12653201
_symmetry_Int_Tables_number   1
_chemical_formula_structural   Li6MnV3(PO4)6
_chemical_formula_sum   'Li12 Mn2 V6 P12 O48'
_cell_volume   929.55496044
_cell_formula_units_Z   2
loop_
 _symmetry_equiv_pos_site_id
 _symmetry_equiv_pos_as_xyz
  1  'x, y, z'
loop_
 _atom_site_type_symbol
 _atom_site_label
 _atom_site_symmetry_multiplicity
 _atom_site_fract_x
 _atom_site_fract_y
 _atom_site_fract_z
 _atom_site_occupancy
  Li  Li0  1  0.99994600  0.00127500  0.99868000  1
  Li  Li1  1  0.00093500  0.90070200  0.74922700  1
  Li  Li2  1  0.00018400  0.00609500  0.50377300  1
  Li  Li3  1  0.00142400  0.10474000  0.25098700  1
  Li  Li4  1  0.28803900  0.19272900  0.95007300  1
  Li  Li5  1  0.30173400  0.81521400  0.45582200  1
  Li  Li6  1  0.51036100  0.49508500  0.99803600  1
  Li  Li7  1  0.49945500  0.59757800  0.74987000  1
  Li  Li8  1  0.50262300  0.49898700  0.50060300  1
  Li  Li9  1  0.50609500  0.39738500  0.24882700  1
  Li  Li10  1  0.70943000  0.19055200  0.55067200  1
  Li  Li11  1  0.71420300  0.80698000  0.05136100  1
  Mn  Mn0  1  0.28552000  0.00148300  0.64415200  1
  Mn  Mn1  1  0.78891700  0.50246200  0.14700800  1
  V  V0  1  0.21184800  0.49939700  0.85680500  1
  V  V1  1  0.21460500  0.50063400  0.35642000  1
  V  V2  1  0.28496400  0.99579300  0.14249500  1
  V  V3  1  0.71613000  0.00117100  0.85701900  1
  V  V4  1  0.71887200  0.99835700  0.35850200  1
  V  V5  1  0.78647700  0.50086000  0.64419000  1
  P  P0  1  0.99640600  0.20324300  0.75029900  1
  P  P1  1  0.00194300  0.79887000  0.24957400  1
  P  P2  1  0.15983500  0.64606900  0.60596300  1
  P  P3  1  0.15098400  0.35644900  0.10583900  1
  P  P4  1  0.34819400  0.85321900  0.89683100  1
  P  P5  1  0.35112900  0.14680300  0.39858800  1
  P  P6  1  0.49668500  0.29052700  0.74871500  1
  P  P7  1  0.50374000  0.70490600  0.25064400  1
  P  P8  1  0.65147500  0.85148900  0.59956800  1
  P  P9  1  0.64927100  0.14575800  0.10330600  1
  P  P10  1  0.84188300  0.64436300  0.89360200  1
  P  P11  1  0.84305200  0.35584900  0.39610800  1
  O  O0  1  0.00836100  0.58217100  0.89414900  1
  O  O1  1  0.00921000  0.41711700  0.39230800  1
  O  O2  1  0.05586200  0.09324400  0.66249000  1
  O  O3  1  0.07098700  0.90880700  0.16459500  1
  O  O4  1  0.12742600  0.29567900  0.80967500  1
  O  O5  1  0.12693400  0.70219700  0.30863500  1
  O  O6  1  0.14846900  0.82633000  0.59520300  1
  O  O7  1  0.14022700  0.17876700  0.09219200  1
  O  O8  1  0.25347700  0.59633500  0.70828800  1
  O  O9  1  0.25228900  0.93890500  0.98281700  1
  O  O10  1  0.25568300  0.59686400  0.50761500  1
  O  O11  1  0.24548100  0.40462500  0.20900000  1
  O  O12  1  0.25242000  0.05843300  0.48047100  1
  O  O13  1  0.26811800  0.90488500  0.78936400  1
  O  O14  1  0.24670700  0.40975300  0.00902300  1
  O  O15  1  0.27798600  0.09729800  0.28742800  1
  O  O16  1  0.34350900  0.67767200  0.91109600  1
  O  O17  1  0.34413500  0.32225700  0.41369700  1
  O  O18  1  0.37510700  0.19297000  0.68385700  1
  O  O19  1  0.38301300  0.79974200  0.18695400  1
  O  O20  1  0.42592800  0.39609500  0.83650200  1
  O  O21  1  0.43376700  0.59440900  0.33380500  1
  O  O22  1  0.47587500  0.88845600  0.58385500  1
  O  O23  1  0.47338500  0.10176000  0.09161200  1
  O  O24  1  0.52465200  0.89274900  0.90615300  1
  O  O25  1  0.52831100  0.10881100  0.41062000  1
  O  O26  1  0.56589300  0.39917200  0.66359800  1
  O  O27  1  0.57910800  0.59976300  0.16264300  1
  O  O28  1  0.61501300  0.19127000  0.80999200  1
  O  O29  1  0.62118300  0.80450200  0.31401800  1
  O  O30  1  0.65875500  0.67590200  0.58498600  1
  O  O31  1  0.64805000  0.32114000  0.08985300  1
  O  O32  1  0.72376200  0.90253300  0.71062100  1
  O  O33  1  0.74050500  0.59312000  0.98737900  1
  O  O34  1  0.72620800  0.09675100  0.21282400  1
  O  O35  1  0.75245400  0.93870200  0.51750300  1
  O  O36  1  0.74908800  0.59874900  0.78830300  1
  O  O37  1  0.74882000  0.40787700  0.49510500  1
  O  O38  1  0.74639500  0.05906300  0.01868900  1
  O  O39  1  0.74274400  0.39928500  0.29539800  1
  O  O40  1  0.85948800  0.82177400  0.90732400  1
  O  O41  1  0.85905300  0.17881800  0.41104100  1
  O  O42  1  0.86839500  0.30127700  0.69460500  1
  O  O43  1  0.87275900  0.70944700  0.18604600  1
  O  O44  1  0.93075500  0.09574600  0.83836400  1
  O  O45  1  0.93574500  0.90957300  0.33569200  1
  O  O46  1  0.99103700  0.59125600  0.60477200  1
  O  O47  1  0.98111300  0.41292200  0.10628000  1
loop_
_geom_bond_atom_site_label_1
_geom_bond_atom_site_label_2
_geom_bond_distance
_geom_bond_site_symmetry_2
Li0 O44 2.219638 1_555
Li0 O9 2.235336 1_645
Li0 O38 2.242906 1_556
Li0 O7 2.249125 1_656
Li0 O40 2.249233 1_545
Li0 O3 2.278668 1_646
Li1 O2 2.077535 1_565
Li1 O44 2.136002 1_465
Li1 O13 2.307636 1_555
Li1 O32 2.387645 1_455
Li1 O6 2.421099 1_555
Li1 O40 2.451866 1_455
Li2 O2 2.143365 1_555
Li2 O35 2.203850 1_445
Li2 O12 2.227091 1_555
Li2 O41 2.234379 1_455
Li2 O45 2.291947 1_445
Li2 O6 2.301036 1_545
Li3 O45 2.107503 1_445
Li3 O3 2.123030 1_545
Li3 O34 2.371128 1_455
Li3 O15 2.379467 1_555
Li3 O7 2.435202 1_555
Li3 O41 2.458016 1_455
Li4 O14 2.076327 1_556
Li4 O7 2.216250 1_556
Li4 O9 2.294830 1_545
Li4 O4 2.356183 1_555
Li4 O23 2.450558 1_556
Li4 O20 2.596508 1_555
Li5 O10 2.072399 1_555
Li5 O12 2.203384 1_565
Li5 O6 2.214786 1_555
Li5 O22 2.217550 1_555
Li5 O5 2.505086 1_555
Li6 O33 2.148961 1_555
Li6 O31 2.221153 1_556
Li6 O20 2.268682 1_555
Li6 O27 2.288432 1_556
Li6 O14 2.375361 1_556
Li6 O16 2.380364 1_555
Li7 O26 2.132070 1_555
Li7 O8 2.135033 1_555
Li7 O36 2.157932 1_555
Li7 O20 2.184924 1_555
Li7 O16 2.546772 1_555
Li7 O30 2.601551 1_555
Li8 O37 2.249533 1_555
Li8 O26 2.256736 1_555
Li8 O30 2.265833 1_555
Li8 O10 2.278739 1_555
Li8 O17 2.289760 1_555
Li8 O21 2.293940 1_555
Li9 O39 2.071847 1_555
Li9 O21 2.129145 1_555
Li9 O27 2.187177 1_555
Li9 O11 2.253358 1_555
Li9 O31 2.450095 1_555
Li9 O17 2.606653 1_555
Li10 O37 2.069158 1_555
Li10 O41 2.198339 1_555
Li10 O35 2.284162 1_545
Li10 O25 2.379912 1_555
Li10 O42 2.394704 1_555
Li11 O33 2.053744 1_554
Li11 O40 2.223525 1_554
Li11 O38 2.275722 1_565
Li11 O43 2.277296 1_555
Li11 O24 2.489557 1_554
Li11 O27 2.593013 1_555
Mn0 O18 1.900741 1_555
Mn0 O6 2.005633 1_545
Mn0 O13 2.010618 1_545
Mn0 O22 2.068585 1_545
Mn0 O12 2.104582 1_555
Mn0 O2 2.137848 1_555
Mn1 O47 1.904378 1_555
Mn1 O27 1.999095 1_555
Mn1 O43 2.003080 1_555
Mn1 O31 2.094815 1_555
Mn1 O39 2.112313 1_555
Mn1 O33 2.165736 1_554
O0 P10 1.520273 1_455
O0 V0 1.954012 1_555
O1 P11 1.515606 1_455
O1 V1 1.965737 1_555
O2 P0 1.554865 1_455
O3 P1 1.569019 1_555
O3 V2 2.005205 1_555
O4 P0 1.537909 1_455
O4 V0 2.003556 1_555
O5 P1 1.529364 1_555
O5 V1 2.009180 1_555
O6 P2 1.595360 1_555
O7 P3 1.573264 1_555
O7 V2 2.111088 1_545
O8 P2 1.537396 1_555
O8 V0 2.082000 1_555
O9 P4 1.563042 1_555
O9 V2 2.049012 1_556
O10 P2 1.557789 1_555
O10 V1 2.069853 1_555
O11 P3 1.539294 1_555
O11 V1 2.038692 1_555
O12 P5 1.558386 1_555
O13 P4 1.543998 1_555
O14 P3 1.556434 1_555
O14 V0 2.063623 1_554
O15 P5 1.548832 1_555
O15 V2 2.007034 1_545
O16 P4 1.556531 1_555
O16 V0 2.020503 1_555
O17 P5 1.555286 1_555
O17 V1 2.034874 1_555
O18 P6 1.539621 1_555
O19 P7 1.523453 1_555
O19 V2 1.989230 1_555
O20 P6 1.568385 1_555
O20 V0 2.063055 1_555
O21 P7 1.559756 1_555
O21 V1 2.069777 1_555
O22 P8 1.535184 1_555
O23 P9 1.546350 1_555
O23 V2 1.983157 1_545
O24 P4 1.540623 1_555
O24 V3 2.007196 1_565
O25 P5 1.546971 1_555
O25 V4 2.021286 1_545
O26 P6 1.563750 1_555
O26 V5 2.102653 1_555
O27 P7 1.584807 1_555
O28 P6 1.517713 1_555
O28 V3 1.963761 1_555
O29 P7 1.518128 1_555
O29 V4 1.961129 1_555
O30 P8 1.555819 1_555
O30 V5 2.012226 1_555
O31 P9 1.553285 1_555
O32 P8 1.548816 1_555
O32 V3 2.012891 1_565
O33 P10 1.548827 1_555
O34 P9 1.548350 1_555
O34 V4 2.014914 1_545
O35 P8 1.565899 1_555
O35 V4 2.055248 1_555
O36 P10 1.548108 1_555
O36 V5 2.018912 1_555
O37 P11 1.563645 1_555
O37 V5 2.031307 1_555
O38 P9 1.561232 1_555
O38 V3 2.073098 1_554
O39 P11 1.534686 1_555
O40 P10 1.575060 1_555
O40 V3 2.080309 1_565
O41 P11 1.575396 1_555
O41 V4 2.068783 1_545
O42 P0 1.535363 1_555
O42 V5 1.986262 1_555
O43 P1 1.537133 1_655
O44 P0 1.571493 1_555
O44 V3 2.029401 1_555
O45 P1 1.565429 1_655
O45 V4 2.036904 1_555
O46 P2 1.514363 1_655
O46 V5 1.994938 1_555
O47 P3 1.530556 1_655
