# generated using pymatgen
data_Ba6Pr2Co4O15
_symmetry_space_group_name_H-M   'P 1'
_cell_length_a   7.11493900
_cell_length_b   11.93116929
_cell_length_c   11.98341413
_cell_angle_alpha   119.53520605
_cell_angle_beta   90.63380676
_cell_angle_gamma   90.17443033
_symmetry_Int_Tables_number   1
_chemical_formula_structural   Ba6Pr2Co4O15
_chemical_formula_sum   'Ba12 Pr4 Co8 O30'
_cell_volume   884.97938807
_cell_formula_units_Z   2
loop_
 _symmetry_equiv_pos_site_id
 _symmetry_equiv_pos_as_xyz
  1  'x, y, z'
loop_
 _atom_site_type_symbol
 _atom_site_label
 _atom_site_symmetry_multiplicity
 _atom_site_fract_x
 _atom_site_fract_y
 _atom_site_fract_z
 _atom_site_occupancy
  Ba  Ba0  1  0.99714800  0.33408700  0.66262100  1
  Ba  Ba1  1  0.48754900  0.66571600  0.33400500  1
  Ba  Ba2  1  0.67458900  0.65220000  0.82212700  1
  Ba  Ba3  1  0.67529400  0.17074800  0.35290500  1
  Ba  Ba4  1  0.67576600  0.17382800  0.82007000  1
  Ba  Ba5  1  0.17621500  0.35372500  0.17446600  1
  Ba  Ba6  1  0.17394600  0.82425000  0.65012000  1
  Ba  Ba7  1  0.17077000  0.82242800  0.17863200  1
  Ba  Ba8  1  0.33439400  0.04678300  0.52050800  1
  Ba  Ba9  1  0.83761100  0.52202400  0.04979900  1
  Ba  Ba10  1  0.49923300  0.00369000  0.00367200  1
  Ba  Ba11  1  0.00066600  0.00153500  0.00045500  1
  Pr  Pr0  1  0.33809200  0.47339600  0.95279500  1
  Pr  Pr1  1  0.34430500  0.48011600  0.52569900  1
  Pr  Pr2  1  0.83932100  0.95040200  0.47421700  1
  Pr  Pr3  1  0.84583500  0.52669800  0.47983800  1
  Co  Co0  1  0.17752900  0.64828100  0.82334900  1
  Co  Co1  1  0.16533100  0.18265000  0.35496200  1
  Co  Co2  1  0.17145500  0.17430400  0.81934400  1
  Co  Co3  1  0.66793600  0.35683100  0.18336400  1
  Co  Co4  1  0.67536600  0.82264300  0.64802600  1
  Co  Co5  1  0.66904200  0.81651200  0.17063500  1
  Co  Co6  1  0.54269200  0.33526400  0.66547300  1
  Co  Co7  1  0.02766700  0.66064300  0.33140600  1
  O  O0  1  0.53782100  0.40216000  0.33158700  1
  O  O1  1  0.56077800  0.93302000  0.60601900  1
  O  O2  1  0.52096300  0.67680800  0.06514800  1
  O  O3  1  0.55123500  0.66228000  0.60159100  1
  O  O4  1  0.51938200  0.39369700  0.07006800  1
  O  O5  1  0.56065400  0.93282800  0.32983200  1
  O  O6  1  0.04852600  0.59968500  0.66242700  1
  O  O7  1  0.01727400  0.06901900  0.39199300  1
  O  O8  1  0.06257900  0.32875700  0.93653100  1
  O  O9  1  0.03710300  0.33333900  0.39880800  1
  O  O10  1  0.05811700  0.60192700  0.92767900  1
  O  O11  1  0.02138700  0.06222600  0.67500800  1
  O  O12  1  0.35315400  0.50603200  0.74663100  1
  O  O13  1  0.34755300  0.26062600  0.49551400  1
  O  O14  1  0.34163500  0.25635900  0.75792800  1
  O  O15  1  0.85482300  0.49752500  0.26185500  1
  O  O16  1  0.84771400  0.74926700  0.50599900  1
  O  O17  1  0.84439700  0.75719500  0.25932900  1
  O  O18  1  0.68515300  0.17371100  0.58458900  1
  O  O19  1  0.66193900  0.41353600  0.82418300  1
  O  O20  1  0.67942300  0.41698100  0.58108200  1
  O  O21  1  0.16476600  0.81728800  0.40932200  1
  O  O22  1  0.18774200  0.58550500  0.17145100  1
  O  O23  1  0.17634400  0.58486100  0.42003600  1
  O  O24  1  0.76886700  0.19890100  0.09020600  1
  O  O25  1  0.75637600  0.89240100  0.81320600  1
  O  O26  1  0.76766500  0.90416200  0.09741300  1
  O  O27  1  0.26536300  0.81092100  0.89126100  1
  O  O28  1  0.26285600  0.09190500  0.19563600  1
  O  O29  1  0.26164000  0.08832000  0.89917900  1
loop_
_geom_bond_atom_site_label_1
_geom_bond_atom_site_label_2
_geom_bond_distance
_geom_bond_site_symmetry_2
Ba0 O18 2.761801 1_555
Ba0 O20 2.821476 1_555
Ba0 O19 2.939663 1_555
Ba0 O14 3.027875 1_655
Ba0 O13 3.063851 1_655
Ba0 O12 3.084443 1_655
Ba0 O9 3.172901 1_655
Ba0 O6 3.189946 1_655
Ba0 O7 3.231227 1_655
Ba0 O10 3.231548 1_655
Ba0 O11 3.324211 1_655
Ba0 O8 3.341697 1_655
Ba1 O22 2.705222 1_555
Ba1 O21 2.796648 1_555
Ba1 O23 2.813223 1_555
Ba1 O17 3.071594 1_555
Ba1 O16 3.106504 1_555
Ba1 O0 3.151840 1_555
Ba1 O15 3.158202 1_555
Ba1 O4 3.238536 1_555
Ba1 O5 3.252285 1_555
Ba1 O3 3.253739 1_555
Ba1 O1 3.281919 1_555
Ba1 O2 3.300199 1_555
Ba2 O12 2.732141 1_555
Ba2 O3 2.834023 1_555
Ba2 O19 2.860918 1_555
Ba2 O20 2.869040 1_555
Ba2 O25 2.976002 1_555
Ba2 O2 2.998559 1_556
Ba2 O6 3.173970 1_655
Ba2 O10 3.176086 1_655
Ba2 O26 3.243528 1_556
Ba2 O27 3.360093 1_555
Ba3 O18 2.759218 1_555
Ba3 O13 2.793670 1_555
Ba3 O5 2.829638 1_545
Ba3 O7 2.857652 1_655
Ba3 O20 2.861150 1_555
Ba3 O0 3.058021 1_555
Ba3 O9 3.094957 1_655
Ba3 O26 3.221595 1_545
Ba3 O28 3.340775 1_555
Ba3 O24 3.399074 1_555
Ba4 O14 2.806038 1_555
Ba4 O18 2.822708 1_555
Ba4 O19 2.838051 1_555
Ba4 O1 2.859550 1_545
Ba4 O11 2.945216 1_655
Ba4 O4 3.072123 1_556
Ba4 O24 3.162914 1_556
Ba4 O8 3.206176 1_655
Ba4 O25 3.369078 1_545
Ba4 O29 3.408564 1_555
Ba5 O15 2.752214 1_455
Ba5 O22 2.784366 1_555
Ba5 O8 2.825297 1_554
Ba5 O23 2.874682 1_555
Ba5 O4 2.898750 1_555
Ba5 O9 2.994712 1_555
Ba5 O0 3.051133 1_555
Ba5 O24 3.300822 1_455
Ba5 O28 3.315447 1_555
Ba5 O29 3.322094 1_554
Ba6 O16 2.747008 1_455
Ba6 O23 2.827968 1_555
Ba6 O21 2.845564 1_555
Ba6 O6 2.893917 1_555
Ba6 O11 2.918903 1_565
Ba6 O27 3.034929 1_555
Ba6 O29 3.146355 1_565
Ba6 O1 3.197678 1_555
Ba6 O3 3.199497 1_555
Ba6 O25 3.447282 1_455
Ba7 O17 2.777386 1_455
Ba7 O22 2.788385 1_555
Ba7 O21 2.795985 1_555
Ba7 O10 2.956525 1_554
Ba7 O2 2.974548 1_555
Ba7 O7 3.008465 1_565
Ba7 O28 3.185349 1_565
Ba7 O5 3.197905 1_555
Ba7 O26 3.318900 1_455
Ba7 O27 3.452027 1_554
Ba8 O5 2.587063 1_545
Ba8 O1 2.614351 1_545
Ba8 O21 2.660205 1_545
Ba8 O14 2.707715 1_555
Ba8 O13 2.713058 1_555
Ba8 O7 2.804027 1_555
Ba8 O18 2.810569 1_555
Ba8 O11 2.859861 1_555
Ba9 O8 2.589654 1_654
Ba9 O10 2.632300 1_654
Ba9 O19 2.648113 1_554
Ba9 O17 2.688915 1_555
Ba9 O15 2.698807 1_555
Ba9 O22 2.779264 1_655
Ba9 O4 2.808462 1_555
Ba9 O2 2.866991 1_555
Ba10 O29 2.579789 1_554
Ba10 O27 2.597257 1_544
Ba10 O28 2.633878 1_555
Ba10 O25 2.727467 1_544
Ba10 O26 2.757017 1_545
Ba10 O24 2.779921 1_555
Ba11 O25 2.602079 1_444
Ba11 O26 2.609538 1_445
Ba11 O24 2.643436 1_455
Ba11 O29 2.696278 1_554
Ba11 O28 2.741896 1_555
Ba11 O27 2.752793 1_544
Co0 O27 1.800758 1_555
Co0 O10 1.814699 1_555
Co0 O6 1.937158 1_555
Co0 O12 1.946039 1_555
Co1 O28 1.815173 1_555
Co1 O9 1.852051 1_555
Co1 O7 1.933770 1_555
Co1 O13 1.944925 1_555
Co2 O29 1.826886 1_555
Co2 O8 1.857261 1_555
Co2 O11 1.894719 1_555
Co2 O14 1.920699 1_555
Co3 O24 1.806807 1_555
Co3 O0 1.843042 1_555
Co3 O4 1.927109 1_555
Co3 O15 1.967915 1_555
Co4 O25 1.814005 1_555
Co4 O1 1.817535 1_555
Co4 O3 1.918230 1_555
Co4 O16 1.936619 1_555
Co5 O26 1.808249 1_555
Co5 O2 1.835419 1_555
Co5 O5 1.894441 1_555
Co5 O17 1.976055 1_555
Co6 O19 1.848650 1_555
Co6 O18 1.968210 1_555
Co6 O20 1.976814 1_555
Co6 O12 2.237815 1_555
Co6 O13 2.238422 1_555
Co6 O14 2.283715 1_555
Co7 O21 1.888011 1_555
Co7 O23 1.998075 1_555
Co7 O22 2.033546 1_555
Co7 O15 2.087625 1_455
Co7 O17 2.176831 1_455
Co7 O16 2.240790 1_455
O0 Pr1 2.473310 1_555
O0 Pr3 2.730958 1_555
O1 Pr2 2.618190 1_555
O2 Pr0 2.473083 1_554
O3 Pr1 2.391789 1_555
O3 Pr3 2.626854 1_555
O4 Pr0 2.414085 1_554
O5 Pr2 2.555901 1_555
O6 Pr3 2.381089 1_455
O6 Pr1 2.634106 1_555
O7 Pr2 2.443023 1_445
O8 Pr0 2.549123 1_555
O9 Pr3 2.440660 1_455
O9 Pr1 2.726560 1_555
O10 Pr0 2.621213 1_555
O11 Pr2 2.450135 1_445
O12 Pr1 2.509586 1_555
O12 Pr0 2.687149 1_555
O13 Pr1 2.460889 1_555
O14 Pr0 2.489804 1_555
O15 Pr3 2.460924 1_555
O16 Pr3 2.515771 1_555
O16 Pr2 2.609408 1_555
O17 Pr2 2.469085 1_555
O18 Pr2 2.574260 1_545
O19 Pr0 2.682887 1_555
O20 Pr3 2.485086 1_555
O20 Pr1 2.676155 1_555
O21 Pr2 2.708012 1_455
O22 Pr0 2.532672 1_554
O23 Pr1 2.475670 1_555
O23 Pr3 2.653785 1_455
