# generated using pymatgen
data_KV3(PbO3)4
_symmetry_space_group_name_H-M   'P 1'
_cell_length_a   10.34517358
_cell_length_b   10.34517358
_cell_length_c   7.54029700
_cell_angle_alpha   90.00000000
_cell_angle_beta   90.00000000
_cell_angle_gamma   119.99999728
_symmetry_Int_Tables_number   1
_chemical_formula_structural   KV3(PbO3)4
_chemical_formula_sum   'K2 V6 Pb8 O24'
_cell_volume   698.86720227
_cell_formula_units_Z   2
loop_
 _symmetry_equiv_pos_site_id
 _symmetry_equiv_pos_as_xyz
  1  'x, y, z'
loop_
 _atom_site_type_symbol
 _atom_site_label
 _atom_site_symmetry_multiplicity
 _atom_site_fract_x
 _atom_site_fract_y
 _atom_site_fract_z
 _atom_site_occupancy
  K  K0  1  0.33333300  0.66666700  0.01489200  1
  K  K1  1  0.66666700  0.33333300  0.51489200  1
  V  V0  1  0.01506600  0.38970800  0.24703500  1
  V  V1  1  0.61029200  0.62535900  0.24703500  1
  V  V2  1  0.37464100  0.98493400  0.24703500  1
  V  V3  1  0.98493400  0.61029200  0.74703500  1
  V  V4  1  0.38970800  0.37464100  0.74703500  1
  V  V5  1  0.62535900  0.01506600  0.74703500  1
  Pb  Pb0  1  0.25823000  0.00176000  0.75054200  1
  Pb  Pb1  1  0.99824000  0.25647000  0.75054200  1
  Pb  Pb2  1  0.74353000  0.74177000  0.75054200  1
  Pb  Pb3  1  0.74177000  0.99824000  0.25054200  1
  Pb  Pb4  1  0.00176000  0.74353000  0.25054200  1
  Pb  Pb5  1  0.25647000  0.25823000  0.25054200  1
  Pb  Pb6  1  0.66666700  0.33333300  0.02687700  1
  Pb  Pb7  1  0.33333300  0.66666700  0.52687700  1
  O  O0  1  0.33955600  0.25354100  0.56817400  1
  O  O1  1  0.74645900  0.08601500  0.56817400  1
  O  O2  1  0.91398500  0.66044400  0.56817400  1
  O  O3  1  0.66044400  0.74645900  0.06817400  1
  O  O4  1  0.25354100  0.91398500  0.06817400  1
  O  O5  1  0.08601500  0.33955600  0.06817400  1
  O  O6  1  0.66226800  0.74142500  0.43084300  1
  O  O7  1  0.25857500  0.92084300  0.43084300  1
  O  O8  1  0.07915700  0.33773200  0.43084300  1
  O  O9  1  0.33773200  0.25857500  0.93084300  1
  O  O10  1  0.74142500  0.07915700  0.93084300  1
  O  O11  1  0.92084300  0.66226800  0.93084300  1
  O  O12  1  0.09227500  0.58552200  0.25280500  1
  O  O13  1  0.41447800  0.50675400  0.25280500  1
  O  O14  1  0.49324600  0.90772500  0.25280500  1
  O  O15  1  0.90772500  0.41447800  0.75280500  1
  O  O16  1  0.58552200  0.49324600  0.75280500  1
  O  O17  1  0.50675400  0.09227500  0.75280500  1
  O  O18  1  0.70524900  0.52490300  0.23667100  1
  O  O19  1  0.47509700  0.18034600  0.23667100  1
  O  O20  1  0.81965400  0.29475100  0.23667100  1
  O  O21  1  0.29475100  0.47509700  0.73667100  1
  O  O22  1  0.52490300  0.81965400  0.73667100  1
  O  O23  1  0.18034600  0.70524900  0.73667100  1
loop_
_geom_bond_atom_site_label_1
_geom_bond_atom_site_label_2
_geom_bond_distance
_geom_bond_site_symmetry_2
K0 O23 2.774335 1_554
K0 O22 2.774340 1_554
K0 O21 2.774342 1_554
K0 O13 2.836976 1_555
K0 O12 2.836976 1_555
K0 O14 2.836976 1_555
K0 O4 3.082361 1_555
K0 O5 3.082368 1_555
K0 O3 3.082371 1_555
K1 O20 2.774335 1_555
K1 O19 2.774340 1_555
K1 O18 2.774342 1_555
K1 O16 2.836976 1_555
K1 O15 2.836976 1_555
K1 O17 2.836976 1_555
K1 O1 3.082361 1_555
K1 O2 3.082368 1_555
K1 O0 3.082371 1_555
O0 V4 1.734243 1_555
O0 Pb5 2.553247 1_555
O0 Pb0 2.681770 1_555
O1 V5 1.734244 1_555
O1 Pb3 2.553247 1_545
O1 Pb1 2.681770 1_555
O2 V3 1.734249 1_555
O2 Pb4 2.553247 1_655
O2 Pb2 2.681770 1_555
O3 V1 1.734243 1_555
O3 Pb2 2.553247 1_554
O3 Pb3 2.681770 1_555
O4 V2 1.734244 1_555
O4 Pb0 2.553247 1_564
O4 Pb4 2.681770 1_555
O5 V0 1.734249 1_555
O5 Pb1 2.553247 1_454
O5 Pb5 2.681770 1_555
O6 V1 1.733820 1_555
O6 Pb2 2.552421 1_555
O6 Pb3 2.719963 1_555
O7 V2 1.733821 1_555
O7 Pb0 2.552421 1_565
O7 Pb4 2.719963 1_555
O8 V0 1.733826 1_555
O8 Pb1 2.552421 1_455
O8 Pb5 2.719963 1_555
O9 V4 1.733820 1_555
O9 Pb5 2.552421 1_556
O9 Pb0 2.719963 1_555
O10 V5 1.733821 1_555
O10 Pb3 2.552421 1_546
O10 Pb1 2.719963 1_555
O11 V3 1.733826 1_555
O11 Pb4 2.552421 1_656
O11 Pb2 2.719963 1_555
O12 V0 1.767888 1_555
O12 Pb4 2.253831 1_555
O13 V1 1.767888 1_555
O13 Pb5 2.253839 1_555
O14 V2 1.767888 1_555
O14 Pb3 2.253841 1_555
O15 V3 1.767888 1_555
O15 Pb1 2.253831 1_555
O16 V4 1.767888 1_555
O16 Pb2 2.253839 1_555
O17 V5 1.767888 1_555
O17 Pb0 2.253841 1_555
O18 V1 1.752715 1_555
O18 Pb6 2.407978 1_555
O18 Pb4 2.756430 1_655
O19 V2 1.752706 1_545
O19 Pb6 2.407975 1_555
O19 Pb5 2.756430 1_555
O20 V0 1.752706 1_655
O20 Pb6 2.407970 1_555
O20 Pb3 2.756430 1_545
O21 V4 1.752715 1_555
O21 Pb7 2.407978 1_555
O21 Pb1 2.756430 1_455
O22 V5 1.752706 1_565
O22 Pb7 2.407975 1_555
O22 Pb2 2.756430 1_555
O23 V3 1.752706 1_455
O23 Pb7 2.407970 1_555
O23 Pb0 2.756430 1_565
