# generated using pymatgen
data_PtC4S2(BrO)2
_symmetry_space_group_name_H-M   'P 1'
_cell_length_a   10.01838500
_cell_length_b   10.92610218
_cell_length_c   16.50247426
_cell_angle_alpha   108.39353905
_cell_angle_beta   88.75492640
_cell_angle_gamma   111.95190066
_symmetry_Int_Tables_number   1
_chemical_formula_structural   PtC4S2(BrO)2
_chemical_formula_sum   'Pt4 C16 S8 Br8 O8'
_cell_volume   1580.29877499
_cell_formula_units_Z   4
loop_
 _symmetry_equiv_pos_site_id
 _symmetry_equiv_pos_as_xyz
  1  'x, y, z'
loop_
 _atom_site_type_symbol
 _atom_site_label
 _atom_site_symmetry_multiplicity
 _atom_site_fract_x
 _atom_site_fract_y
 _atom_site_fract_z
 _atom_site_occupancy
  Pt  Pt0  1  0.95731900  0.28900600  0.51032200  1
  Pt  Pt1  1  0.04268100  0.71099400  0.48967800  1
  Pt  Pt2  1  0.56468500  0.72463900  0.03009600  1
  Pt  Pt3  1  0.43531500  0.27536100  0.96990400  1
  C  C0  1  0.37811200  0.12749900  0.43010900  1
  C  C1  1  0.62188800  0.87250100  0.56989100  1
  C  C2  1  0.23521100  0.76785800  0.93123600  1
  C  C3  1  0.76478900  0.23214200  0.06876400  1
  C  C4  1  0.26075300  0.29764500  0.62396100  1
  C  C5  1  0.73924700  0.70235500  0.37603900  1
  C  C6  1  0.26781600  0.70770600  0.09562900  1
  C  C7  1  0.73218400  0.29229400  0.90437100  1
  C  C8  1  0.75572900  0.31428000  0.82738500  1
  C  C9  1  0.24427100  0.68572000  0.17261500  1
  C  C10  1  0.67187100  0.68026500  0.30745800  1
  C  C11  1  0.32812900  0.31973500  0.69254200  1
  C  C12  1  0.95813700  0.10001700  0.69845500  1
  C  C13  1  0.04186300  0.89998300  0.30154500  1
  C  C14  1  0.59236700  0.64592300  0.14538800  1
  C  C15  1  0.40763300  0.35407700  0.85461200  1
  S  S0  1  0.18164800  0.27354000  0.53093800  1
  S  S1  1  0.81835200  0.72646000  0.46906200  1
  S  S2  1  0.31121900  0.66227800  0.02506000  1
  S  S3  1  0.68878100  0.33772200  0.97494000  1
  S  S4  1  0.92405200  0.24146800  0.65512900  1
  S  S5  1  0.07594800  0.75853200  0.34487100  1
  S  S6  1  0.54568100  0.68007000  0.22478400  1
  S  S7  1  0.45431900  0.31993000  0.77521600  1
  Br  Br0  1  0.73051100  0.34062800  0.47246900  1
  Br  Br1  1  0.26948900  0.65937200  0.52753100  1
  Br  Br2  1  0.75798400  0.88993200  0.94927400  1
  Br  Br3  1  0.24201600  0.11006800  0.05072600  1
  Br  Br4  1  0.97724300  0.33818900  0.35813500  1
  Br  Br5  1  0.02275700  0.66181100  0.64186500  1
  Br  Br6  1  0.35362600  0.86188500  0.84273900  1
  Br  Br7  1  0.64637400  0.13811500  0.15726100  1
  O  O0  1  0.35910900  0.04451200  0.49454500  1
  O  O1  1  0.64089100  0.95548800  0.50545500  1
  O  O2  1  0.23318900  0.52361800  0.01492100  1
  O  O3  1  0.76681100  0.47638200  0.98507900  1
  O  O4  1  0.98222300  0.99689200  0.73402300  1
  O  O5  1  0.01777700  0.00310800  0.26597700  1
  O  O6  1  0.22455500  0.67289500  0.24317800  1
  O  O7  1  0.77544500  0.32710500  0.75682200  1
loop_
_geom_bond_atom_site_label_1
_geom_bond_atom_site_label_2
_geom_bond_distance
_geom_bond_site_symmetry_2
Pt0 S0 2.355552 1_655
Pt0 S4 2.590496 1_555
Pt1 S1 2.355552 1_455
Pt1 S5 2.590496 1_555
Pt2 S2 2.366252 1_555
Pt3 S3 2.366252 1_555
C0 O0 1.568351 1_555
C1 O1 1.568351 1_555
C4 S0 1.641845 1_555
C5 S1 1.641845 1_555
C6 S2 1.251486 1_555
C6 C9 1.365513 1_555
C6 O2 1.935879 1_555
C7 S3 1.251486 1_555
C7 C8 1.365513 1_555
C7 O3 1.935879 1_555
C8 O7 1.219391 1_555
C9 O6 1.219391 1_555
C10 C5 1.238449 1_555
C10 S6 1.879029 1_555
C11 C4 1.238449 1_555
C11 S7 1.879029 1_555
C12 O4 1.516289 1_545
C12 S4 2.029521 1_555
C13 O5 1.516289 1_565
C13 S5 2.029521 1_555
C14 S6 1.367480 1_555
C14 Pt2 2.381270 1_555
C15 S7 1.367480 1_555
C15 Pt3 2.381270 1_555
Br0 Pt0 2.667151 1_555
Br1 Pt1 2.667151 1_555
Br2 Pt2 2.753875 1_556
Br3 Pt3 2.753875 1_554
Br4 Pt0 2.717681 1_555
Br5 Pt1 2.717681 1_555
Br6 C2 2.134474 1_555
Br7 C3 2.134474 1_555
O2 S2 1.376446 1_555
O3 S3 1.376446 1_555
O6 S5 2.418743 1_555
O7 S4 2.418743 1_555
