# generated using pymatgen
data_Mn2TeO6
_symmetry_space_group_name_H-M   'P 1'
_cell_length_a   4.60580976
_cell_length_b   4.60581536
_cell_length_c   9.07836630
_cell_angle_alpha   89.99941611
_cell_angle_beta   90.00066607
_cell_angle_gamma   89.99866247
_symmetry_Int_Tables_number   1
_chemical_formula_structural   Mn2TeO6
_chemical_formula_sum   'Mn4 Te2 O12'
_cell_volume   192.58400824
_cell_formula_units_Z   2
loop_
 _symmetry_equiv_pos_site_id
 _symmetry_equiv_pos_as_xyz
  1  'x, y, z'
loop_
 _atom_site_type_symbol
 _atom_site_label
 _atom_site_symmetry_multiplicity
 _atom_site_fract_x
 _atom_site_fract_y
 _atom_site_fract_z
 _atom_site_occupancy
  Mn  Mn0  1  0.00000584  -0.00000605  0.66558719  1
  Mn  Mn1  1  0.49999596  0.50000359  0.83442008  1
  Mn  Mn2  1  0.00000661  -0.00000636  0.33434345  1
  Mn  Mn3  1  0.49999623  0.50000364  0.16567277  1
  Te  Te0  1  -0.00000306  0.00000247  -0.00007142  1
  Te  Te1  1  0.50000152  0.50000032  0.50002790  1
  O  O0  1  0.29895099  0.29894722  0.00002840  1
  O  O1  1  0.70105364  0.70104722  0.00002846  1
  O  O2  1  0.20103703  0.79896368  0.49999386  1
  O  O3  1  0.79896751  0.20103211  0.49999559  1
  O  O4  1  0.30856612  0.30856497  0.33664474  1
  O  O5  1  0.69150360  0.69149798  0.66342700  1
  O  O6  1  0.69144057  0.69143432  0.33664255  1
  O  O7  1  0.19144779  0.80855283  0.83651461  1
  O  O8  1  0.19145157  0.80854543  0.16340135  1
  O  O9  1  0.30850148  0.30849701  0.66342642  1
  O  O10  1  0.80853709  0.19146187  0.16340649  1
  O  O11  1  0.80853851  0.19145773  0.83650857  1
loop_
_geom_bond_atom_site_label_1
_geom_bond_atom_site_label_2
_geom_bond_distance
_geom_bond_site_symmetry_2
Mn0 O7 1.990666 1_545
Mn0 O11 1.990751 1_455
Mn0 O3 1.993630 1_455
Mn0 O2 1.993640 1_545
Mn0 O5 2.009560 1_445
Mn0 O9 2.009561 1_555
Mn1 O5 1.991407 1_555
Mn1 O9 1.991408 1_555
Mn1 O1 1.993832 1_556
Mn1 O0 1.993834 1_556
Mn1 O11 2.009800 1_555
Mn1 O7 2.009830 1_555
Mn2 O8 1.990820 1_545
Mn2 O10 1.990845 1_455
Mn2 O2 1.993998 1_545
Mn2 O3 1.994077 1_455
Mn2 O6 2.009987 1_445
Mn2 O4 2.010005 1_555
Mn3 O6 1.990982 1_555
Mn3 O4 1.990986 1_555
Mn3 O0 1.994079 1_555
Mn3 O1 1.994079 1_555
Mn3 O10 2.009798 1_555
Mn3 O8 2.009810 1_555
O0 Te0 1.947261 1_555
O1 Te0 1.947260 1_665
O2 Te1 1.947309 1_555
O3 Te1 1.947330 1_555
O4 Te1 1.937760 1_555
O5 Te1 1.938141 1_555
O6 Te1 1.937782 1_555
O7 Te0 1.938033 1_566
O8 Te0 1.938436 1_565
O9 Te1 1.938147 1_555
O10 Te0 1.938517 1_655
O11 Te0 1.938074 1_656
