# generated using pymatgen
data_SrV(PO4)2
_symmetry_space_group_name_H-M   'P 1'
_cell_length_a   8.50149092
_cell_length_b   9.60103642
_cell_length_c   9.56814186
_cell_angle_alpha   64.58919914
_cell_angle_beta   98.62601426
_cell_angle_gamma   87.28673716
_symmetry_Int_Tables_number   1
_chemical_formula_structural   SrV(PO4)2
_chemical_formula_sum   'Sr4 V4 P8 O32'
_cell_volume   691.96876105
_cell_formula_units_Z   4
loop_
 _symmetry_equiv_pos_site_id
 _symmetry_equiv_pos_as_xyz
  1  'x, y, z'
loop_
 _atom_site_type_symbol
 _atom_site_label
 _atom_site_symmetry_multiplicity
 _atom_site_fract_x
 _atom_site_fract_y
 _atom_site_fract_z
 _atom_site_occupancy
  Sr  Sr0  1  0.51350800  0.76452400  0.28547300  1
  Sr  Sr1  1  0.01351100  0.26455900  0.78555200  1
  Sr  Sr2  1  0.98648900  0.73544200  0.21444600  1
  Sr  Sr3  1  0.48649300  0.23547500  0.71452800  1
  V  V0  1  0.01467600  0.71921700  0.82425800  1
  V  V1  1  0.98530600  0.28082400  0.17572100  1
  V  V2  1  0.51467600  0.21921100  0.32442900  1
  V  V3  1  0.48532700  0.78078700  0.67557600  1
  P  P0  1  0.70346800  0.10079500  0.11981500  1
  P  P1  1  0.20348200  0.60083000  0.61974300  1
  P  P2  1  0.79652000  0.39917100  0.38025500  1
  P  P3  1  0.29653100  0.89920500  0.88018600  1
  P  P4  1  0.71459000  0.56091400  0.73718100  1
  P  P5  1  0.21461800  0.06077600  0.23726500  1
  P  P6  1  0.78538600  0.93922000  0.76273800  1
  P  P7  1  0.28540600  0.43908400  0.26281800  1
  O  O0  1  0.73675300  0.57079700  0.31882700  1
  O  O1  1  0.23678600  0.07081900  0.81879400  1
  O  O2  1  0.76321500  0.92918100  0.18120800  1
  O  O3  1  0.26324700  0.42920500  0.68117400  1
  O  O4  1  0.55647200  0.16278200  0.99233200  1
  O  O5  1  0.05650000  0.66276500  0.49222700  1
  O  O6  1  0.94350100  0.33723900  0.50777500  1
  O  O7  1  0.44353000  0.83721800  0.00766800  1
  O  O8  1  0.65364700  0.29594800  0.43787100  1
  O  O9  1  0.15363800  0.79598400  0.93780200  1
  O  O10  1  0.84635600  0.20401200  0.06219500  1
  O  O11  1  0.34635400  0.70405200  0.56213000  1
  O  O12  1  0.83751300  0.78368300  0.91730000  1
  O  O13  1  0.33754200  0.28358800  0.41742700  1
  O  O14  1  0.66245800  0.71640900  0.58257600  1
  O  O15  1  0.16248800  0.21631500  0.08270100  1
  O  O16  1  0.41019900  0.40829600  0.16502600  1
  O  O17  1  0.91018300  0.90851200  0.66492100  1
  O  O18  1  0.08982100  0.09147400  0.33508300  1
  O  O19  1  0.58979800  0.59170000  0.83497400  1
  O  O20  1  0.79829900  0.08440400  0.78493900  1
  O  O21  1  0.29832300  0.58434100  0.28488100  1
  O  O22  1  0.70167700  0.41565800  0.71511700  1
  O  O23  1  0.20170600  0.91559300  0.21505700  1
  O  O24  1  0.67287200  0.12522700  0.26813200  1
  O  O25  1  0.17280900  0.62529300  0.76802300  1
  O  O26  1  0.82719500  0.37470400  0.23198500  1
  O  O27  1  0.32713000  0.87477400  0.73186800  1
  O  O28  1  0.38901700  0.05171900  0.32572100  1
  O  O29  1  0.88899500  0.55188200  0.82559500  1
  O  O30  1  0.11100400  0.44811100  0.17440800  1
  O  O31  1  0.61098300  0.94828000  0.67427700  1
loop_
_geom_bond_atom_site_label_1
_geom_bond_atom_site_label_2
_geom_bond_distance
_geom_bond_site_symmetry_2
O0 P2 1.522764 1_555
O0 Sr0 2.477526 1_555
O0 Sr2 2.757327 1_555
O1 P3 1.522663 1_545
O1 Sr1 2.478120 1_555
O1 Sr3 2.756910 1_555
O2 P0 1.522665 1_565
O2 Sr2 2.478119 1_555
O2 Sr0 2.756913 1_555
O3 P1 1.522748 1_555
O3 Sr3 2.477551 1_555
O3 Sr1 2.757325 1_555
O4 P0 1.501027 1_556
O4 Sr3 2.408443 1_555
O5 P1 1.501105 1_555
O5 Sr2 2.408284 1_455
O6 P2 1.501118 1_555
O6 Sr1 2.408242 1_655
O7 P3 1.501040 1_554
O7 Sr0 2.408450 1_555
O8 P2 1.614734 1_555
O8 V2 1.871057 1_555
O8 Sr3 3.041564 1_555
O9 P3 1.614866 1_555
O9 V0 1.871846 1_555
O9 Sr2 3.041326 1_456
O10 P0 1.614819 1_555
O10 V1 1.871967 1_555
O10 Sr1 3.041341 1_654
O11 P1 1.614717 1_555
O11 V3 1.871078 1_555
O11 Sr0 3.041566 1_555
O12 P6 1.568090 1_555
O12 V0 2.056922 1_655
O12 Sr2 2.763366 1_556
O13 P7 1.568108 1_555
O13 V2 2.056060 1_555
O13 Sr3 2.763285 1_555
O14 P4 1.568081 1_555
O14 V3 2.056057 1_555
O14 Sr0 2.763293 1_555
O15 P5 1.568112 1_555
O15 V1 2.057094 1_455
O15 Sr1 2.763386 1_554
O16 P7 1.610562 1_555
O16 V2 1.864286 1_555
O17 P6 1.610460 1_555
O17 V0 1.865332 1_655
O18 P5 1.610429 1_555
O18 V1 1.865785 1_455
O19 P4 1.610555 1_555
O19 V3 1.864266 1_555
O20 P6 1.503924 1_545
O20 Sr1 2.577679 1_655
O20 Sr3 2.801097 1_555
O21 P7 1.503925 1_555
O21 Sr0 2.577662 1_555
O21 Sr2 2.801386 1_455
O22 P4 1.503917 1_555
O22 Sr3 2.577650 1_555
O22 Sr1 2.801379 1_655
O23 P5 1.503949 1_565
O23 Sr2 2.577680 1_455
O23 Sr0 2.801054 1_555
O24 P0 1.589722 1_555
O24 V2 1.852752 1_555
O25 P1 1.589721 1_555
O25 V0 1.851659 1_555
O26 P2 1.589652 1_555
O26 V1 1.851444 1_555
O27 P3 1.589734 1_555
O27 V3 1.852746 1_555
O28 P5 1.571737 1_555
O28 V2 1.968988 1_555
O28 Sr0 3.103028 1_545
O29 P4 1.571684 1_555
O29 V0 1.967718 1_655
O29 Sr1 3.103142 1_655
O30 P7 1.571658 1_555
O30 V1 1.967476 1_455
O30 Sr2 3.103183 1_455
O31 P6 1.571778 1_555
O31 V3 1.968964 1_555
O31 Sr3 3.103041 1_565
