# generated using pymatgen
data_Tm3Ge4
_symmetry_space_group_name_H-M   'P 1'
_cell_length_a   3.99719959
_cell_length_b   5.61311674
_cell_length_c   14.06274302
_cell_angle_alpha   90.00000000
_cell_angle_beta   90.00000000
_cell_angle_gamma   110.85834051
_symmetry_Int_Tables_number   1
_chemical_formula_structural   Tm3Ge4
_chemical_formula_sum   'Tm6 Ge8'
_cell_volume   294.84403324
_cell_formula_units_Z   2
loop_
 _symmetry_equiv_pos_site_id
 _symmetry_equiv_pos_as_xyz
  1  'x, y, z'
loop_
 _atom_site_type_symbol
 _atom_site_label
 _atom_site_symmetry_multiplicity
 _atom_site_fract_x
 _atom_site_fract_y
 _atom_site_fract_z
 _atom_site_occupancy
  Tm  Tm0  1  0.33165936  0.66331972  0.40310772  1
  Tm  Tm1  1  0.66834064  0.33668028  0.59689228  1
  Tm  Tm2  1  0.33165936  0.66331972  0.09689228  1
  Tm  Tm3  1  0.66834064  0.33668028  0.90310772  1
  Tm  Tm4  1  0.04856803  0.09713705  0.25000000  1
  Tm  Tm5  1  0.95143197  0.90286295  0.75000000  1
  Ge  Ge0  1  0.37856317  0.75712634  0.60870802  1
  Ge  Ge1  1  0.62143683  0.24287366  0.39129198  1
  Ge  Ge2  1  0.37856317  0.75712634  0.89129198  1
  Ge  Ge3  1  0.62143683  0.24287366  0.10870802  1
  Ge  Ge4  1  0.77769952  0.55540204  0.25000000  1
  Ge  Ge5  1  0.22230048  0.44459796  0.75000000  1
  Ge  Ge6  1  0.00000000  0.00000000  0.50000000  1
  Ge  Ge7  1  0.00000000  0.00000000  0.00000000  1
loop_
_geom_bond_atom_site_label_1
_geom_bond_atom_site_label_2
_geom_bond_distance
_geom_bond_site_symmetry_2
Ge0 Ge5 2.575899 1_555
Ge0 Ge6 2.820343 1_565
Ge0 Ge6 2.820343 1_665
Ge0 Tm5 2.920055 1_455
Ge0 Tm5 2.920058 1_555
Ge0 Tm0 2.932873 1_555
Ge0 Tm1 2.980865 1_455
Ge0 Tm1 2.980867 1_555
Ge0 Tm1 3.044445 1_565
Ge1 Ge4 2.575899 1_555
Ge1 Ge6 2.820343 1_655
Ge1 Ge6 2.820343 1_555
Ge1 Tm4 2.920055 1_655
Ge1 Tm4 2.920058 1_555
Ge1 Tm1 2.932873 1_555
Ge1 Tm0 2.980865 1_655
Ge1 Tm0 2.980867 1_555
Ge1 Tm0 3.044445 1_545
Ge2 Ge5 2.575899 1_555
Ge2 Ge7 2.820343 1_566
Ge2 Ge7 2.820343 1_666
Ge2 Tm5 2.920055 1_455
Ge2 Tm5 2.920058 1_555
Ge2 Tm2 2.932873 1_556
Ge2 Tm3 2.980865 1_455
Ge2 Tm3 2.980867 1_555
Ge2 Tm3 3.044445 1_565
Ge3 Ge4 2.575899 1_555
Ge3 Ge7 2.820343 1_655
Ge3 Ge7 2.820343 1_555
Ge3 Tm4 2.920055 1_655
Ge3 Tm4 2.920058 1_555
Ge3 Tm3 2.932873 1_554
Ge3 Tm2 2.980865 1_655
Ge3 Tm2 2.980867 1_555
Ge3 Tm2 3.044445 1_545
Ge4 Tm4 2.841537 1_665
Ge4 Tm2 2.991773 1_555
Ge4 Tm0 2.991773 1_555
Ge4 Tm0 2.991779 1_655
Ge4 Tm2 2.991779 1_655
Ge4 Tm4 3.126058 1_555
Ge4 Tm4 3.126062 1_655
Ge5 Tm5 2.841537 1_445
Ge5 Tm1 2.991773 1_555
Ge5 Tm3 2.991773 1_555
Ge5 Tm1 2.991779 1_455
Ge5 Tm3 2.991779 1_455
Ge5 Tm5 3.126058 1_555
Ge5 Tm5 3.126062 1_455
Ge6 Tm1 2.994938 1_455
Ge6 Tm0 2.994938 1_545
Ge6 Tm0 2.994941 1_445
Ge6 Tm1 2.994941 1_555
Ge7 Tm2 2.994938 1_545
Ge7 Tm3 2.994938 1_454
Ge7 Tm2 2.994941 1_445
Ge7 Tm3 2.994941 1_554
