# generated using pymatgen
data_CaCo3O7
_symmetry_space_group_name_H-M   'P 1'
_cell_length_a   14.25753600
_cell_length_b   6.73948600
_cell_length_c   10.99854836
_cell_angle_alpha   77.44045308
_cell_angle_beta   90.00000000
_cell_angle_gamma   90.00000000
_symmetry_Int_Tables_number   1
_chemical_formula_structural   CaCo3O7
_chemical_formula_sum   'Ca8 Co24 O56'
_cell_volume   1031.54415966
_cell_formula_units_Z   8
loop_
 _symmetry_equiv_pos_site_id
 _symmetry_equiv_pos_as_xyz
  1  'x, y, z'
loop_
 _atom_site_type_symbol
 _atom_site_label
 _atom_site_symmetry_multiplicity
 _atom_site_fract_x
 _atom_site_fract_y
 _atom_site_fract_z
 _atom_site_occupancy
  Ca  Ca0  1  0.50728200  0.91406900  0.73624600  1
  Ca  Ca1  1  0.87418800  0.66238000  0.97674300  1
  Ca  Ca2  1  0.37418800  0.33762000  0.52325700  1
  Ca  Ca3  1  0.12581200  0.33762000  0.02325700  1
  Ca  Ca4  1  0.62581200  0.66238000  0.47674300  1
  Ca  Ca5  1  0.99271800  0.91406900  0.23624600  1
  Ca  Ca6  1  0.49271800  0.08593100  0.26375400  1
  Ca  Ca7  1  0.00728200  0.08593100  0.76375400  1
  Co  Co0  1  0.86217700  0.15988600  0.97911300  1
  Co  Co1  1  0.01369200  0.60157900  0.68161800  1
  Co  Co2  1  0.48630800  0.60157900  0.18161800  1
  Co  Co3  1  0.98630800  0.39842100  0.31838200  1
  Co  Co4  1  0.70296100  0.50272400  0.80764200  1
  Co  Co5  1  0.20296100  0.49727600  0.69235800  1
  Co  Co6  1  0.29703900  0.49727600  0.19235800  1
  Co  Co7  1  0.79703900  0.50272400  0.30764200  1
  Co  Co8  1  0.51369200  0.39842100  0.81838200  1
  Co  Co9  1  0.14525700  0.12692100  0.47990300  1
  Co  Co10  1  0.64525700  0.87307900  0.02009700  1
  Co  Co11  1  0.85474300  0.87307900  0.52009700  1
  Co  Co12  1  0.36217700  0.84011400  0.52088700  1
  Co  Co13  1  0.63782300  0.15988600  0.47911300  1
  Co  Co14  1  0.13782300  0.84011400  0.02088700  1
  Co  Co15  1  0.35474300  0.12692100  0.97990300  1
  Co  Co16  1  0.67637700  0.36851800  0.08262600  1
  Co  Co17  1  0.17637700  0.63148200  0.41737400  1
  Co  Co18  1  0.32362300  0.63148200  0.91737400  1
  Co  Co19  1  0.82362300  0.36851800  0.58262600  1
  Co  Co20  1  0.75196900  0.01148000  0.24752000  1
  Co  Co21  1  0.25196900  0.98852000  0.25248000  1
  Co  Co22  1  0.24803100  0.98852000  0.75248000  1
  Co  Co23  1  0.74803100  0.01148000  0.74752000  1
  O  O0  1  0.97859600  0.23502000  0.95878700  1
  O  O1  1  0.47859600  0.76498000  0.54121300  1
  O  O2  1  0.02140400  0.76498000  0.04121300  1
  O  O3  1  0.52140400  0.23502000  0.45878700  1
  O  O4  1  0.84597300  0.00349000  0.86537300  1
  O  O5  1  0.34597300  0.99651000  0.63462700  1
  O  O6  1  0.15402700  0.99651000  0.13462700  1
  O  O7  1  0.65402700  0.00349000  0.36537300  1
  O  O8  1  0.84685700  0.99438300  0.12824000  1
  O  O9  1  0.34685700  0.00561700  0.37176000  1
  O  O10  1  0.15314300  0.00561700  0.87176000  1
  O  O11  1  0.65314300  0.99438300  0.62824000  1
  O  O12  1  0.28741300  0.35229300  0.94432700  1
  O  O13  1  0.78741300  0.64770700  0.55567300  1
  O  O14  1  0.71258700  0.64770700  0.05567300  1
  O  O15  1  0.21258700  0.35229300  0.44432700  1
  O  O16  1  0.35170400  0.00631300  0.14108100  1
  O  O17  1  0.85170400  0.99368700  0.35891900  1
  O  O18  1  0.64829600  0.99368700  0.85891900  1
  O  O19  1  0.14829600  0.00631300  0.64108100  1
  O  O20  1  0.33658300  0.92919500  0.88163200  1
  O  O21  1  0.43066200  0.61726100  0.83428700  1
  O  O22  1  0.83658300  0.07080500  0.61836800  1
  O  O23  1  0.16341700  0.92919500  0.38163200  1
  O  O24  1  0.47867700  0.27806500  0.70591900  1
  O  O25  1  0.97867700  0.72193500  0.79408100  1
  O  O26  1  0.52132300  0.72193500  0.29408100  1
  O  O27  1  0.02132300  0.27806500  0.20591900  1
  O  O28  1  0.47050700  0.20423000  0.94923000  1
  O  O29  1  0.97050700  0.79577000  0.55077000  1
  O  O30  1  0.52949300  0.79577000  0.05077000  1
  O  O31  1  0.02949300  0.20423000  0.44923000  1
  O  O32  1  0.90095300  0.58189600  0.21202200  1
  O  O33  1  0.40095300  0.41810400  0.28797800  1
  O  O34  1  0.09904700  0.41810400  0.78797800  1
  O  O35  1  0.59904700  0.58189600  0.71202200  1
  O  O36  1  0.75577700  0.30431700  0.21314100  1
  O  O37  1  0.25577700  0.69568300  0.28685900  1
  O  O38  1  0.24422300  0.69568300  0.78685900  1
  O  O39  1  0.74422300  0.30431700  0.71314100  1
  O  O40  1  0.71629300  0.37292000  0.45591700  1
  O  O41  1  0.21629300  0.62708000  0.04408300  1
  O  O42  1  0.28370700  0.62708000  0.54408300  1
  O  O43  1  0.78370700  0.37292000  0.95591700  1
  O  O44  1  0.73260300  0.72816700  0.28537400  1
  O  O45  1  0.23260300  0.27183300  0.21462600  1
  O  O46  1  0.26739700  0.27183300  0.71462600  1
  O  O47  1  0.76739700  0.72816700  0.78537400  1
  O  O48  1  0.88549900  0.41809300  0.42626300  1
  O  O49  1  0.38549900  0.58190700  0.07373700  1
  O  O50  1  0.11450100  0.58190700  0.57373700  1
  O  O51  1  0.61450100  0.41809300  0.92626300  1
  O  O52  1  0.06933800  0.61726100  0.33428700  1
  O  O53  1  0.56933800  0.38273900  0.16571300  1
  O  O54  1  0.93066200  0.38273900  0.66571300  1
  O  O55  1  0.66341700  0.07080500  0.11836800  1
loop_
_geom_bond_atom_site_label_1
_geom_bond_atom_site_label_2
_geom_bond_distance
_geom_bond_site_symmetry_2
Ca0 O21 2.327952 1_555
Ca0 O11 2.397766 1_555
Ca0 O24 2.437139 1_565
Ca0 O18 2.542706 1_555
Ca0 O5 2.564604 1_555
Ca0 O1 2.591449 1_555
Ca0 O35 2.655901 1_555
Ca0 O20 2.925974 1_555
Ca1 O2 2.366368 1_656
Ca1 O43 2.390954 1_555
Ca1 O4 2.392178 1_565
Ca1 O14 2.456549 1_556
Ca1 O25 2.462910 1_555
Ca1 O32 2.554549 1_556
Ca1 O47 2.557160 1_555
Ca2 O3 2.366368 1_555
Ca2 O42 2.390954 1_555
Ca2 O5 2.392178 1_545
Ca2 O15 2.456549 1_555
Ca2 O24 2.462910 1_555
Ca2 O33 2.554549 1_555
Ca2 O46 2.557160 1_555
Ca3 O0 2.366368 1_454
Ca3 O41 2.390954 1_555
Ca3 O6 2.392178 1_545
Ca3 O12 2.456549 1_554
Ca3 O27 2.462910 1_555
Ca3 O34 2.554549 1_554
Ca3 O45 2.557160 1_555
Ca4 O1 2.366368 1_555
Ca4 O40 2.390954 1_555
Ca4 O7 2.392178 1_565
Ca4 O13 2.456549 1_555
Ca4 O26 2.462910 1_555
Ca4 O35 2.554549 1_555
Ca4 O44 2.557160 1_555
Ca5 O52 2.327952 1_655
Ca5 O8 2.397766 1_555
Ca5 O27 2.437139 1_665
Ca5 O17 2.542706 1_555
Ca5 O6 2.564604 1_655
Ca5 O2 2.591449 1_655
Ca5 O32 2.655901 1_555
Ca5 O23 2.925974 1_655
Ca6 O53 2.327952 1_555
Ca6 O9 2.397766 1_555
Ca6 O26 2.437139 1_545
Ca6 O16 2.542706 1_555
Ca6 O7 2.564604 1_555
Ca6 O3 2.591449 1_555
Ca6 O33 2.655901 1_555
Ca6 O55 2.925974 1_555
Ca7 O54 2.327952 1_455
Ca7 O10 2.397766 1_555
Ca7 O25 2.437139 1_445
Ca7 O19 2.542706 1_555
Ca7 O4 2.564604 1_455
Ca7 O0 2.591449 1_455
Ca7 O34 2.655901 1_555
Ca7 O22 2.925974 1_455
Co0 O0 1.735582 1_555
Co0 O8 1.785044 1_546
Co0 O43 1.794108 1_555
Co0 O4 1.817345 1_555
Co1 O25 1.695146 1_455
Co1 O29 1.828634 1_455
Co1 O50 1.886704 1_555
Co1 O54 1.928584 1_455
Co1 O34 1.936317 1_555
Co2 O26 1.695146 1_555
Co2 O30 1.828634 1_555
Co2 O49 1.886704 1_555
Co2 O53 1.928584 1_555
Co2 O33 1.936317 1_555
Co3 O27 1.695146 1_655
Co3 O31 1.828634 1_655
Co3 O48 1.886704 1_555
Co3 O52 1.928584 1_655
Co3 O32 1.936317 1_555
Co4 O47 1.746608 1_555
Co4 O51 1.815077 1_555
Co4 O35 1.828032 1_555
Co4 O39 1.954182 1_555
Co4 O43 2.032173 1_555
Co5 O46 1.746608 1_555
Co5 O50 1.815077 1_555
Co5 O34 1.828032 1_555
Co5 O38 1.954182 1_555
Co5 O42 2.032173 1_555
Co6 O45 1.746608 1_555
Co6 O49 1.815077 1_555
Co6 O33 1.828032 1_555
Co6 O37 1.954182 1_555
Co6 O41 2.032173 1_555
Co7 O44 1.746608 1_555
Co7 O48 1.815077 1_555
Co7 O32 1.828032 1_555
Co7 O36 1.954182 1_555
Co7 O40 2.032173 1_555
Co8 O24 1.695146 1_555
Co8 O28 1.828634 1_555
Co8 O51 1.886704 1_555
Co8 O21 1.928584 1_555
Co8 O35 1.936317 1_555
Co9 O31 1.741555 1_555
Co9 O15 1.767253 1_555
Co9 O19 1.782822 1_555
Co9 O23 1.907195 1_545
Co10 O30 1.741555 1_555
Co10 O14 1.767253 1_555
Co10 O18 1.782822 1_554
Co10 O55 1.907195 1_565
Co11 O29 1.741555 1_555
Co11 O13 1.767253 1_555
Co11 O17 1.782822 1_555
Co11 O22 1.907195 1_565
Co12 O1 1.735582 1_555
Co12 O9 1.785044 1_565
Co12 O42 1.794108 1_555
Co12 O5 1.817345 1_555
Co13 O3 1.735582 1_555
Co13 O11 1.785044 1_545
Co13 O40 1.794108 1_555
Co13 O7 1.817345 1_555
Co14 O2 1.735582 1_555
Co14 O10 1.785044 1_564
Co14 O41 1.794108 1_555
Co14 O6 1.817345 1_555
Co15 O28 1.741555 1_555
Co15 O12 1.767253 1_555
Co15 O16 1.782822 1_556
Co15 O20 1.907195 1_545
Co16 O53 1.792036 1_555
Co16 O36 1.805329 1_555
Co16 O51 1.896736 1_554
Co16 O14 1.911074 1_555
Co16 O55 1.967592 1_555
Co16 O43 2.065614 1_554
Co17 O52 1.792036 1_555
Co17 O37 1.805329 1_555
Co17 O50 1.896736 1_555
Co17 O15 1.911074 1_555
Co17 O23 1.967592 1_555
Co17 O42 2.065614 1_555
Co18 O21 1.792036 1_555
Co18 O38 1.805329 1_555
Co18 O49 1.896736 1_556
Co18 O12 1.911074 1_555
Co18 O20 1.967592 1_555
Co18 O41 2.065614 1_556
Co19 O54 1.792036 1_555
Co19 O39 1.805329 1_555
Co19 O48 1.896736 1_555
Co19 O13 1.911074 1_555
Co19 O22 1.967592 1_555
Co19 O40 2.065614 1_555
Co20 O17 1.863780 1_545
Co20 O55 1.877398 1_555
Co20 O44 1.884036 1_545
Co20 O7 1.898071 1_555
Co20 O8 1.905354 1_545
Co20 O36 1.927785 1_555
Co21 O16 1.863780 1_565
Co21 O23 1.877398 1_555
Co21 O45 1.884036 1_565
Co21 O6 1.898071 1_555
Co21 O9 1.905354 1_565
Co21 O37 1.927785 1_555
Co22 O19 1.863780 1_565
Co22 O20 1.877398 1_555
Co22 O46 1.884036 1_565
Co22 O5 1.898071 1_555
Co22 O10 1.905354 1_565
Co22 O38 1.927785 1_555
Co23 O18 1.863780 1_545
Co23 O22 1.877398 1_555
Co23 O47 1.884036 1_545
Co23 O4 1.898071 1_555
Co23 O11 1.905354 1_545
Co23 O39 1.927785 1_555
