# generated using pymatgen
data_YFeCo
_symmetry_space_group_name_H-M   'P 1'
_cell_length_a   5.11124679
_cell_length_b   5.11124679
_cell_length_c   5.11124679
_cell_angle_alpha   87.08754077
_cell_angle_beta   61.82824429
_cell_angle_gamma   118.49444938
_symmetry_Int_Tables_number   1
_chemical_formula_structural   YFeCo
_chemical_formula_sum   'Y2 Fe2 Co2'
_cell_volume   96.66327783
_cell_formula_units_Z   2
loop_
 _symmetry_equiv_pos_site_id
 _symmetry_equiv_pos_as_xyz
  1  'x, y, z'
loop_
 _atom_site_type_symbol
 _atom_site_label
 _atom_site_symmetry_multiplicity
 _atom_site_fract_x
 _atom_site_fract_y
 _atom_site_fract_z
 _atom_site_occupancy
  Y  Y0  1  0.50000000  0.74562087  0.75437913  1
  Y  Y1  1  -0.00000000  0.00437913  0.99562087  1
  Fe  Fe0  1  0.25000000  0.87500000  0.37500000  1
  Fe  Fe1  1  0.75000000  0.37500000  0.37500000  1
  Co  Co0  1  0.75000000  0.37500000  0.87500000  1
  Co  Co1  1  0.25000000  0.37500000  0.37500000  1
loop_
_geom_bond_atom_site_label_1
_geom_bond_atom_site_label_2
_geom_bond_distance
_geom_bond_site_symmetry_2
Fe0 Fe1 2.613558 1_565
Fe0 Fe1 2.613558 1_455
Fe0 Y1 2.974187 1_564
Fe0 Y0 2.974187 1_555
Fe0 Y1 3.053635 1_565
Fe0 Y0 3.053635 1_554
Fe0 Y0 3.053635 1_455
Fe0 Y1 3.053635 1_664
Fe1 Y1 2.974187 1_664
Fe1 Y0 2.974187 1_545
Fe1 Y0 3.053635 1_654
Fe1 Y1 3.053635 1_555
Fe1 Y1 3.053635 1_654
Fe1 Y0 3.053635 1_555
Co0 Fe1 2.555623 1_556
Co0 Fe0 2.555623 1_655
Co0 Fe1 2.555623 1_555
Co0 Fe0 2.555623 1_546
Co0 Co1 2.625917 1_556
Co0 Co1 2.625917 1_655
Co0 Y0 2.921678 1_555
Co0 Y1 2.921678 1_655
Co0 Y0 3.063448 1_545
Co0 Y0 3.063448 1_655
Co0 Y1 3.063448 1_555
Co0 Y1 3.063448 1_665
Co1 Fe1 2.555623 1_455
Co1 Fe0 2.555623 1_555
Co1 Fe1 2.555623 1_555
Co1 Fe0 2.555623 1_545
Co1 Y0 2.921678 1_554
Co1 Y1 2.921678 1_555
Co1 Y0 3.063448 1_445
Co1 Y0 3.063448 1_555
Co1 Y1 3.063448 1_554
Co1 Y1 3.063448 1_664
