# generated using pymatgen
data_LuSnAu
_symmetry_space_group_name_H-M   'P 1'
_cell_length_a   4.66696590
_cell_length_b   4.66696590
_cell_length_c   7.38713200
_cell_angle_alpha   90.00000000
_cell_angle_beta   90.00000000
_cell_angle_gamma   119.99999859
_symmetry_Int_Tables_number   1
_chemical_formula_structural   LuSnAu
_chemical_formula_sum   'Lu2 Sn2 Au2'
_cell_volume   139.33998285
_cell_formula_units_Z   2
loop_
 _symmetry_equiv_pos_site_id
 _symmetry_equiv_pos_as_xyz
  1  'x, y, z'
loop_
 _atom_site_type_symbol
 _atom_site_label
 _atom_site_symmetry_multiplicity
 _atom_site_fract_x
 _atom_site_fract_y
 _atom_site_fract_z
 _atom_site_occupancy
  Lu  Lu0  1  0.00000000  0.00000000  0.47749300  1
  Lu  Lu1  1  0.00000000  0.00000000  0.97749300  1
  Sn  Sn0  1  0.33333300  0.66666700  0.70678400  1
  Sn  Sn1  1  0.66666700  0.33333300  0.20678400  1
  Au  Au0  1  0.66666700  0.33333300  0.81572400  1
  Au  Au1  1  0.33333300  0.66666700  0.31572400  1
loop_
_geom_bond_atom_site_label_1
_geom_bond_atom_site_label_2
_geom_bond_distance
_geom_bond_site_symmetry_2
Lu0 Sn0 3.182632 1_545
Lu0 Sn0 3.182635 1_445
Lu0 Sn0 3.182635 1_555
Lu0 Sn1 3.355477 1_455
Lu0 Sn1 3.355481 1_555
Lu0 Sn1 3.355481 1_445
Lu1 Sn1 3.182632 1_456
Lu1 Sn1 3.182635 1_446
Lu1 Sn1 3.182635 1_556
Lu1 Sn0 3.355477 1_545
Lu1 Sn0 3.355481 1_445
Lu1 Sn0 3.355481 1_555
Au0 Sn0 2.812082 1_545
Au0 Sn0 2.812082 1_655
Au0 Sn0 2.812090 1_555
Au0 Sn1 2.888812 1_556
Au0 Lu1 2.947579 1_655
Au0 Lu1 2.947583 1_555
Au0 Lu1 2.947583 1_665
Au1 Sn1 2.812082 1_455
Au1 Sn1 2.812082 1_565
Au1 Sn1 2.812090 1_555
Au1 Sn0 2.888812 1_555
Au1 Lu0 2.947579 1_565
Au1 Lu0 2.947583 1_665
Au1 Lu0 2.947583 1_555
