# generated using pymatgen
data_AlC7IN
_symmetry_space_group_name_H-M   'P 1'
_cell_length_a   10.59107003
_cell_length_b   10.59107003
_cell_length_c   10.59107003
_cell_angle_alpha   128.60154576
_cell_angle_beta   117.75493099
_cell_angle_gamma   84.85990104
_symmetry_Int_Tables_number   1
_chemical_formula_structural   AlC7IN
_chemical_formula_sum   'Al4 C28 I4 N4'
_cell_volume   786.16551614
_cell_formula_units_Z   4
loop_
 _symmetry_equiv_pos_site_id
 _symmetry_equiv_pos_as_xyz
  1  'x, y, z'
loop_
 _atom_site_type_symbol
 _atom_site_label
 _atom_site_symmetry_multiplicity
 _atom_site_fract_x
 _atom_site_fract_y
 _atom_site_fract_z
 _atom_site_occupancy
  Al  Al0  1  0.08914100  0.10496100  0.28585000  1
  Al  Al1  1  0.91085900  0.19670900  0.01582000  1
  Al  Al2  1  0.18088900  0.69670900  0.78585000  1
  Al  Al3  1  0.81911100  0.60496100  0.51582000  1
  C  C0  1  0.15725000  0.89989700  0.21029200  1
  C  C1  1  0.84275000  0.05304200  0.74264700  1
  C  C2  1  0.31039600  0.55304200  0.71029200  1
  C  C3  1  0.68960400  0.39989700  0.24264700  1
  C  C4  1  0.18490900  0.23117700  0.26025300  1
  C  C5  1  0.81509100  0.07534400  0.04626800  1
  C  C6  1  0.02907700  0.57534400  0.76025300  1
  C  C7  1  0.97092300  0.73117700  0.54626800  1
  C  C8  1  0.18926700  0.01013100  0.40429300  1
  C  C9  1  0.81073300  0.21502600  0.82086400  1
  C  C10  1  0.39416200  0.71502600  0.90429300  1
  C  C11  1  0.60583800  0.51013100  0.32086400  1
  C  C12  1  0.78684200  0.07171500  0.37333000  1
  C  C13  1  0.21315800  0.58648800  0.28487300  1
  C  C14  1  0.30161500  0.08648800  0.87333000  1
  C  C15  1  0.69838500  0.57171500  0.78487300  1
  C  C16  1  0.79530000  0.10869700  0.64145600  1
  C  C17  1  0.20470000  0.84615600  0.31339700  1
  C  C18  1  0.53275900  0.34615600  0.14145600  1
  C  C19  1  0.46724100  0.60869700  0.81339700  1
  C  C20  1  0.76448600  0.07752900  0.48517700  1
  C  C21  1  0.23551400  0.72069000  0.31304300  1
  C  C22  1  0.40764700  0.22069000  0.98517700  1
  C  C23  1  0.59235300  0.57752900  0.81304300  1
  C  C24  1  0.87408400  0.09042100  0.20413400  1
  C  C25  1  0.12591600  0.33005000  0.21633700  1
  C  C26  1  0.11371300  0.83005000  0.70413400  1
  C  C27  1  0.88628700  0.59042100  0.71633700  1
  I  I0  1  0.40944800  0.23136800  0.35205100  1
  I  I1  1  0.59055200  0.94260300  0.82191900  1
  I  I2  1  0.12068400  0.44260300  0.85205100  1
  I  I3  1  0.87931600  0.73136800  0.32191900  1
  N  N0  1  0.79354800  0.06015500  0.25378800  1
  N  N1  1  0.20645200  0.46024000  0.26660700  1
  N  N2  1  0.19363300  0.96024000  0.75378800  1
  N  N3  1  0.80636700  0.56015500  0.76660700  1
loop_
_geom_bond_atom_site_label_1
_geom_bond_atom_site_label_2
_geom_bond_distance
_geom_bond_site_symmetry_2
Al0 C4 1.959707 1_555
Al0 C8 1.961926 1_555
Al0 C0 1.991455 1_545
Al0 C24 2.005279 1_455
Al1 C5 1.959707 1_555
Al1 C9 1.961926 1_554
Al1 C1 1.991455 1_554
Al1 C25 2.005279 1_655
Al2 C6 1.959699 1_555
Al2 C10 1.961926 1_555
Al2 C2 1.991463 1_555
Al2 C26 2.005279 1_555
Al3 C7 1.959699 1_555
Al3 C11 1.961926 1_555
Al3 C3 1.991456 1_555
Al3 C27 2.005279 1_555
C0 C17 1.407884 1_555
C0 C8 1.458934 1_565
C1 C16 1.407884 1_555
C1 C9 1.458934 1_555
C4 I0 2.108464 1_555
C5 I1 2.108466 1_544
C6 I2 2.108464 1_555
C7 I3 2.108474 1_555
C10 C19 1.406783 1_555
C10 C2 1.458933 1_555
C11 C18 1.406783 1_555
C11 C3 1.458926 1_555
C12 N0 1.229536 1_555
C12 C20 1.276982 1_555
C13 N1 1.229536 1_555
C13 C21 1.276972 1_555
C14 N2 1.229536 1_545
C14 C22 1.276970 1_555
C15 N3 1.229536 1_555
C15 C23 1.276972 1_555
C16 C20 1.337711 1_555
C16 C9 1.406783 1_555
C17 C21 1.337721 1_555
C17 C8 1.406783 1_565
C18 C22 1.337720 1_554
C18 C3 1.407875 1_555
C19 C23 1.337721 1_555
C19 C2 1.407875 1_555
C24 N0 1.335656 1_555
C24 C5 1.386769 1_555
C25 N1 1.335656 1_555
C25 C4 1.386769 1_555
C26 N2 1.335656 1_555
C26 C7 1.386775 1_455
C27 N3 1.335656 1_555
C27 C6 1.386779 1_655
