# generated using pymatgen
data_Li2Ni3TeO8
_symmetry_space_group_name_H-M   'P 1'
_cell_length_a   5.90839734
_cell_length_b   10.49391086
_cell_length_c   5.90707739
_cell_angle_alpha   106.32512417
_cell_angle_beta   59.85309260
_cell_angle_gamma   90.06813571
_symmetry_Int_Tables_number   1
_chemical_formula_structural   Li2Ni3TeO8
_chemical_formula_sum   'Li4 Ni6 Te2 O16'
_cell_volume   299.58864657
_cell_formula_units_Z   2
loop_
 _symmetry_equiv_pos_site_id
 _symmetry_equiv_pos_as_xyz
  1  'x, y, z'
loop_
 _atom_site_type_symbol
 _atom_site_label
 _atom_site_symmetry_multiplicity
 _atom_site_fract_x
 _atom_site_fract_y
 _atom_site_fract_z
 _atom_site_occupancy
  Li  Li0  1  0.93248100  0.20191200  0.13334100  1
  Li  Li1  1  0.43120000  0.70201700  0.13467500  1
  Li  Li2  1  0.56874800  0.29811100  0.86536600  1
  Li  Li3  1  0.06749500  0.79813700  0.86663400  1
  Ni  Ni0  1  0.49991300  0.00001900  0.50003900  1
  Ni  Ni1  1  0.00000100  0.50004900  0.00019000  1
  Ni  Ni2  1  0.50021500  0.99993800  0.99978400  1
  Ni  Ni3  1  0.49992000  0.50000200  0.50015300  1
  Ni  Ni4  1  0.00003100  0.00007100  0.49997600  1
  Ni  Ni5  1  0.99993900  0.49989900  0.50007400  1
  Te  Te0  1  0.75163500  0.75001400  0.49822000  1
  Te  Te1  1  0.24841000  0.24998600  0.50166200  1
  O  O0  1  0.87407500  0.40558600  0.25682500  1
  O  O1  1  0.35106800  0.90564500  0.28033100  1
  O  O2  1  0.64903600  0.09439200  0.71955000  1
  O  O3  1  0.12582700  0.59436200  0.74343100  1
  O  O4  1  0.63972200  0.63013600  0.72266900  1
  O  O5  1  0.13448300  0.12792900  0.72350600  1
  O  O6  1  0.64261800  0.62969600  0.26259000  1
  O  O7  1  0.13286000  0.12975800  0.27254700  1
  O  O8  1  0.09532900  0.62781700  0.26232900  1
  O  O9  1  0.59238900  0.13004900  0.27004300  1
  O  O10  1  0.40764300  0.86994200  0.72981900  1
  O  O11  1  0.90471900  0.37215500  0.73768000  1
  O  O12  1  0.86712400  0.87022500  0.72736400  1
  O  O13  1  0.35734600  0.37020400  0.73736300  1
  O  O14  1  0.86548100  0.87208100  0.27649200  1
  O  O15  1  0.36029000  0.36986500  0.27734600  1
loop_
_geom_bond_atom_site_label_1
_geom_bond_atom_site_label_2
_geom_bond_distance
_geom_bond_site_symmetry_2
Li0 O5 1.982790 1_654
Li0 O9 1.991830 1_555
Li0 O7 1.995288 1_655
Li0 O0 2.022827 1_555
Li1 O8 1.984021 1_555
Li1 O4 1.992093 1_554
Li1 O6 1.994980 1_555
Li1 O1 2.022435 1_555
Li2 O11 1.983682 1_555
Li2 O15 1.991920 1_556
Li2 O13 1.994153 1_555
Li2 O2 2.023361 1_555
Li3 O14 1.982879 1_456
Li3 O10 1.991801 1_555
Li3 O12 1.995216 1_455
Li3 O3 2.023881 1_555
Ni0 O1 1.964779 1_545
Ni0 O2 1.965190 1_555
Ni0 O10 2.073494 1_545
Ni0 O9 2.073901 1_555
Ni0 O5 2.086622 1_555
Ni0 O14 2.087313 1_545
Ni1 O3 1.882060 1_554
Ni1 O0 1.882685 1_455
Ni1 O8 2.054209 1_555
Ni1 O11 2.056166 1_454
Ni1 O6 2.060594 1_455
Ni1 O13 2.061517 1_554
Ni2 O2 1.988510 1_565
Ni2 O1 1.988708 1_556
Ni2 O10 2.086751 1_555
Ni2 O9 2.087002 1_566
Ni2 O12 2.100848 1_555
Ni2 O7 2.103176 1_566
Ni3 O3 1.986418 1_555
Ni3 O0 1.986874 1_555
Ni3 O4 2.086538 1_555
Ni3 O15 2.086939 1_555
Ni3 O13 2.100699 1_555
Ni3 O6 2.101186 1_555
Ni4 O2 1.882585 1_455
Ni4 O1 1.883135 1_545
Ni4 O5 2.056663 1_555
Ni4 O14 2.057549 1_445
Ni4 O7 2.058918 1_555
Ni4 O12 2.060194 1_445
Ni5 O0 1.967047 1_555
Ni5 O3 1.968118 1_655
Ni5 O15 2.076075 1_655
Ni5 O4 2.076591 1_555
Ni5 O11 2.084784 1_555
Ni5 O8 2.086824 1_655
O4 Te0 1.957728 1_555
O5 Te1 1.966345 1_555
O6 Te0 1.963928 1_555
O7 Te1 1.963591 1_555
O8 Te0 1.967023 1_455
O9 Te1 1.957435 1_555
O10 Te0 1.957446 1_555
O11 Te1 1.966883 1_655
O12 Te0 1.963378 1_555
O13 Te1 1.963427 1_555
O14 Te0 1.965966 1_555
O15 Te1 1.957197 1_555
