# generated using pymatgen
data_Ca2Nd3Si3O13
_symmetry_space_group_name_H-M   'P 1'
_cell_length_a   9.62198573
_cell_length_b   9.62198573
_cell_length_c   7.08576200
_cell_angle_alpha   90.00000000
_cell_angle_beta   90.00000000
_cell_angle_gamma   119.99999815
_symmetry_Int_Tables_number   1
_chemical_formula_structural   Ca2Nd3Si3O13
_chemical_formula_sum   'Ca4 Nd6 Si6 O26'
_cell_volume   568.12855455
_cell_formula_units_Z   2
loop_
 _symmetry_equiv_pos_site_id
 _symmetry_equiv_pos_as_xyz
  1  'x, y, z'
loop_
 _atom_site_type_symbol
 _atom_site_label
 _atom_site_symmetry_multiplicity
 _atom_site_fract_x
 _atom_site_fract_y
 _atom_site_fract_z
 _atom_site_occupancy
  Ca  Ca0  1  0.66666700  0.33333300  0.00324300  1
  Ca  Ca1  1  0.33333300  0.66666700  0.99675700  1
  Ca  Ca2  1  0.33333300  0.66666700  0.50324300  1
  Ca  Ca3  1  0.66666700  0.33333300  0.49675700  1
  Nd  Nd0  1  0.74861000  0.98884600  0.75000000  1
  Nd  Nd1  1  0.25139000  0.01115400  0.25000000  1
  Nd  Nd2  1  0.24023600  0.25139000  0.75000000  1
  Nd  Nd3  1  0.75976400  0.74861000  0.25000000  1
  Nd  Nd4  1  0.01115400  0.75976400  0.75000000  1
  Nd  Nd5  1  0.98884600  0.24023600  0.25000000  1
  Si  Si0  1  0.97161700  0.37065300  0.75000000  1
  Si  Si1  1  0.02838300  0.62934700  0.25000000  1
  Si  Si2  1  0.39903600  0.02838300  0.75000000  1
  Si  Si3  1  0.60096400  0.97161700  0.25000000  1
  Si  Si4  1  0.62934700  0.60096400  0.75000000  1
  Si  Si5  1  0.37065300  0.39903600  0.25000000  1
  O  O0  1  0.87476200  0.47043500  0.75000000  1
  O  O1  1  0.12523800  0.52956500  0.25000000  1
  O  O2  1  0.59567300  0.12523800  0.75000000  1
  O  O3  1  0.40432700  0.87476200  0.25000000  1
  O  O4  1  0.52956500  0.40432700  0.75000000  1
  O  O5  1  0.47043500  0.59567300  0.25000000  1
  O  O6  1  0.91029400  0.24715700  0.93258200  1
  O  O7  1  0.08970600  0.75284300  0.06741800  1
  O  O8  1  0.33686300  0.08970600  0.93258200  1
  O  O9  1  0.08970600  0.75284300  0.43258200  1
  O  O10  1  0.66313700  0.91029400  0.06741800  1
  O  O11  1  0.91029400  0.24715700  0.56741800  1
  O  O12  1  0.75284300  0.66313700  0.93258200  1
  O  O13  1  0.66313700  0.91029400  0.43258200  1
  O  O14  1  0.24715700  0.33686300  0.06741800  1
  O  O15  1  0.33686300  0.08970600  0.56741800  1
  O  O16  1  0.24715700  0.33686300  0.43258200  1
  O  O17  1  0.75284300  0.66313700  0.56741800  1
  O  O18  1  0.51722700  0.68375500  0.75000000  1
  O  O19  1  0.48277300  0.31624500  0.25000000  1
  O  O20  1  0.16652800  0.48277300  0.75000000  1
  O  O21  1  0.83347200  0.51722700  0.25000000  1
  O  O22  1  0.31624500  0.83347200  0.75000000  1
  O  O23  1  0.68375500  0.16652800  0.25000000  1
  O  O24  1  0.00000000  0.00000000  0.75000000  1
  O  O25  1  0.00000000  0.00000000  0.25000000  1
loop_
_geom_bond_atom_site_label_1
_geom_bond_atom_site_label_2
_geom_bond_distance
_geom_bond_site_symmetry_2
Ca0 O23 2.433938 1_555
Ca0 O21 2.433942 1_555
Ca0 O19 2.433945 1_555
Ca0 O2 2.515543 1_554
Ca0 O0 2.515544 1_554
Ca0 O4 2.515549 1_554
Ca0 O6 2.894330 1_554
Ca0 O8 2.894337 1_554
Ca0 O12 2.894339 1_554
Ca1 O22 2.433938 1_555
Ca1 O20 2.433942 1_555
Ca1 O18 2.433945 1_555
Ca1 O3 2.515543 1_556
Ca1 O1 2.515544 1_556
Ca1 O5 2.515549 1_556
Ca1 O7 2.894330 1_556
Ca1 O10 2.894337 1_556
Ca1 O14 2.894339 1_556
Ca2 O22 2.433938 1_555
Ca2 O20 2.433942 1_555
Ca2 O18 2.433945 1_555
Ca2 O3 2.515543 1_555
Ca2 O1 2.515544 1_555
Ca2 O5 2.515549 1_555
Ca2 O9 2.894330 1_555
Ca2 O13 2.894337 1_555
Ca2 O16 2.894339 1_555
Ca3 O23 2.433938 1_555
Ca3 O21 2.433942 1_555
Ca3 O19 2.433945 1_555
Ca3 O2 2.515543 1_555
Ca3 O0 2.515544 1_555
Ca3 O4 2.515549 1_555
Ca3 O11 2.894330 1_555
Ca3 O15 2.894337 1_555
Ca3 O17 2.894339 1_555
Nd0 O24 2.367035 1_665
Nd0 O10 2.384263 1_556
Nd0 O13 2.384263 1_555
Nd0 O2 2.412259 1_565
Nd0 O6 2.530782 1_565
Nd0 O11 2.530782 1_565
Nd0 O18 2.653048 1_555
Nd1 O25 2.367035 1_555
Nd1 O8 2.384263 1_554
Nd1 O15 2.384263 1_555
Nd1 O3 2.412259 1_545
Nd1 O9 2.530782 1_545
Nd1 O7 2.530782 1_545
Nd1 O19 2.653048 1_555
Nd2 O24 2.367035 1_555
Nd2 O16 2.384263 1_555
Nd2 O14 2.384263 1_556
Nd2 O4 2.412259 1_555
Nd2 O8 2.530782 1_555
Nd2 O15 2.530782 1_555
Nd2 O20 2.653048 1_555
Nd3 O25 2.367035 1_665
Nd3 O17 2.384263 1_555
Nd3 O12 2.384263 1_554
Nd3 O5 2.412259 1_555
Nd3 O13 2.530782 1_555
Nd3 O10 2.530782 1_555
Nd3 O21 2.653048 1_555
Nd4 O24 2.367035 1_565
Nd4 O9 2.384263 1_555
Nd4 O7 2.384263 1_556
Nd4 O0 2.412259 1_455
Nd4 O17 2.530782 1_455
Nd4 O12 2.530782 1_455
Nd4 O22 2.653048 1_555
Nd5 O25 2.367035 1_655
Nd5 O11 2.384263 1_555
Nd5 O6 2.384263 1_554
Nd5 O1 2.412259 1_655
Nd5 O16 2.530782 1_655
Nd5 O14 2.530782 1_655
Nd5 O23 2.653048 1_555
O0 Si0 1.638614 1_555
O1 Si1 1.638614 1_555
O2 Si2 1.638614 1_555
O3 Si3 1.638614 1_555
O4 Si4 1.638614 1_555
O5 Si5 1.638614 1_555
O6 Si0 1.653107 1_555
O7 Si1 1.653107 1_555
O8 Si2 1.653107 1_555
O9 Si1 1.653107 1_555
O10 Si3 1.653107 1_555
O11 Si0 1.653107 1_555
O12 Si4 1.653107 1_555
O13 Si3 1.653107 1_555
O14 Si5 1.653107 1_555
O15 Si2 1.653107 1_555
O16 Si5 1.653107 1_555
O17 Si4 1.653107 1_555
O18 Si4 1.630288 1_555
O19 Si5 1.630288 1_555
O20 Si0 1.630288 1_455
O21 Si1 1.630288 1_655
O22 Si2 1.630288 1_565
O23 Si3 1.630288 1_545
