# generated using pymatgen
data_Y2Mn5Co12
_symmetry_space_group_name_H-M   'P 1'
_cell_length_a   6.24398890
_cell_length_b   6.24398890
_cell_length_c   6.24398886
_cell_angle_alpha   82.96286513
_cell_angle_beta   82.96286513
_cell_angle_gamma   82.96287647
_symmetry_Int_Tables_number   1
_chemical_formula_structural   Y2Mn5Co12
_chemical_formula_sum   'Y2 Mn5 Co12'
_cell_volume   238.35064519
_cell_formula_units_Z   1
loop_
 _symmetry_equiv_pos_site_id
 _symmetry_equiv_pos_as_xyz
  1  'x, y, z'
loop_
 _atom_site_type_symbol
 _atom_site_label
 _atom_site_symmetry_multiplicity
 _atom_site_fract_x
 _atom_site_fract_y
 _atom_site_fract_z
 _atom_site_occupancy
  Y  Y0  1  0.65158600  0.65158600  0.65158600  1
  Y  Y1  1  0.34841400  0.34841400  0.34841400  1
  Mn  Mn0  1  0.00000000  0.00000000  0.50000000  1
  Mn  Mn1  1  0.00000000  0.50000000  0.00000000  1
  Mn  Mn2  1  0.50000000  0.00000000  0.00000000  1
  Mn  Mn3  1  0.90946600  0.90946600  0.90946600  1
  Mn  Mn4  1  0.09053400  0.09053400  0.09053400  1
  Co  Co0  1  0.29171700  0.70828300  0.00000000  1
  Co  Co1  1  0.70828300  0.00000000  0.29171700  1
  Co  Co2  1  0.00000000  0.29171700  0.70828300  1
  Co  Co3  1  0.29171700  0.00000000  0.70828300  1
  Co  Co4  1  0.00000000  0.70828300  0.29171700  1
  Co  Co5  1  0.70828300  0.29171700  0.00000000  1
  Co  Co6  1  0.34320000  0.34320000  0.85807500  1
  Co  Co7  1  0.34320000  0.85807500  0.34320000  1
  Co  Co8  1  0.85807500  0.34320000  0.34320000  1
  Co  Co9  1  0.65680000  0.65680000  0.14192500  1
  Co  Co10  1  0.65680000  0.14192500  0.65680000  1
  Co  Co11  1  0.14192500  0.65680000  0.65680000  1
loop_
_geom_bond_atom_site_label_1
_geom_bond_atom_site_label_2
_geom_bond_distance
_geom_bond_site_symmetry_2
Mn0 Mn3 2.558490 1_445
Mn0 Mn4 2.558490 1_555
Mn1 Mn3 2.558490 1_454
Mn1 Mn4 2.558490 1_555
Mn2 Mn3 2.558490 1_544
Mn2 Mn4 2.558490 1_555
Mn3 Mn4 2.185010 1_666
Mn3 Y0 3.111927 1_555
Mn4 Y1 3.111927 1_555
Co0 Mn1 2.364224 1_555
Co0 Mn2 2.364224 1_565
Co0 Co3 2.413011 1_564
Co0 Co4 2.413011 1_555
Co0 Co7 2.510749 1_555
Co0 Co11 2.510749 1_554
Co0 Co9 2.516095 1_555
Co0 Co6 2.516095 1_554
Co0 Mn4 2.648809 1_565
Co0 Mn3 2.648809 1_454
Co0 Y0 2.950120 1_554
Co0 Y1 2.950120 1_555
Co1 Mn2 2.364224 1_555
Co1 Mn0 2.364224 1_655
Co1 Co5 2.413011 1_555
Co1 Co4 2.413011 1_645
Co1 Co8 2.510749 1_555
Co1 Co9 2.510749 1_545
Co1 Co7 2.516094 1_545
Co1 Co10 2.516094 1_555
Co1 Mn4 2.648809 1_655
Co1 Mn3 2.648809 1_544
Co1 Y0 2.950120 1_545
Co1 Y1 2.950120 1_555
Co2 Mn1 2.364224 1_556
Co2 Mn0 2.364224 1_555
Co2 Co5 2.413011 1_456
Co2 Co3 2.413011 1_555
Co2 Co6 2.510749 1_555
Co2 Co8 2.516094 1_455
Co2 Mn3 2.648809 1_445
Co2 Mn4 2.648809 1_556
Co2 Y1 2.950120 1_555
Co2 Y0 2.950120 1_455
Co3 Mn2 2.364224 1_556
Co3 Mn0 2.364224 1_555
Co3 Co6 2.510749 1_555
Co3 Co7 2.516094 1_545
Co3 Mn3 2.648809 1_445
Co3 Mn4 2.648809 1_556
Co3 Y1 2.950120 1_555
Co3 Y0 2.950120 1_545
Co4 Mn1 2.364224 1_555
Co4 Mn0 2.364224 1_565
Co4 Co7 2.510749 1_555
Co4 Co9 2.510749 1_455
Co4 Co8 2.516094 1_455
Co4 Mn4 2.648809 1_565
Co4 Mn3 2.648809 1_454
Co4 Y0 2.950120 1_455
Co4 Y1 2.950120 1_555
Co5 Mn2 2.364224 1_555
Co5 Mn1 2.364224 1_655
Co5 Co8 2.510749 1_555
Co5 Co9 2.516095 1_555
Co5 Co6 2.516095 1_554
Co5 Mn4 2.648809 1_655
Co5 Mn3 2.648809 1_544
Co5 Y0 2.950120 1_554
Co5 Y1 2.950120 1_555
Co6 Mn2 2.359925 1_556
Co6 Mn1 2.359925 1_556
Co6 Mn4 2.563665 1_556
Co6 Y0 2.961378 1_555
Co6 Y1 3.070026 1_556
Co6 Y1 3.174705 1_555
Co7 Mn2 2.359925 1_565
Co7 Mn0 2.359925 1_565
Co7 Co9 2.484784 1_555
Co7 Mn4 2.563665 1_565
Co7 Y0 2.961378 1_555
Co7 Y1 3.070026 1_565
Co7 Y1 3.174705 1_555
Co8 Mn1 2.359925 1_655
Co8 Mn0 2.359925 1_655
Co8 Co9 2.484784 1_555
Co8 Mn4 2.563665 1_655
Co8 Y0 2.961378 1_555
Co8 Y1 3.070026 1_655
Co8 Y1 3.174705 1_555
Co9 Mn1 2.359925 1_655
Co9 Mn2 2.359925 1_565
Co9 Mn3 2.563665 1_554
Co9 Y1 2.961378 1_555
Co9 Y0 3.070026 1_554
Co9 Y0 3.174705 1_555
Co10 Mn2 2.359925 1_556
Co10 Mn0 2.359925 1_655
Co10 Co8 2.484783 1_555
Co10 Co6 2.484784 1_555
Co10 Co2 2.510749 1_655
Co10 Co5 2.510749 1_556
Co10 Co3 2.516094 1_555
Co10 Mn3 2.563665 1_545
Co10 Y1 2.961378 1_555
Co10 Y0 3.070026 1_545
Co10 Y0 3.174705 1_555
Co11 Mn1 2.359925 1_556
Co11 Mn0 2.359925 1_565
Co11 Co7 2.484783 1_555
Co11 Co6 2.484784 1_555
Co11 Co3 2.510749 1_565
Co11 Co2 2.516094 1_555
Co11 Co4 2.516094 1_555
Co11 Mn3 2.563665 1_455
Co11 Y1 2.961378 1_555
Co11 Y0 3.070026 1_455
Co11 Y0 3.174705 1_555
