# generated using pymatgen
data_Dy3Mg
_symmetry_space_group_name_H-M   'P 1'
_cell_length_a   7.12460590
_cell_length_b   7.12460590
_cell_length_c   18.60599132
_cell_angle_alpha   90.00000000
_cell_angle_beta   90.00000000
_cell_angle_gamma   90.00000000
_symmetry_Int_Tables_number   1
_chemical_formula_structural   Dy3Mg
_chemical_formula_sum   'Dy24 Mg8'
_cell_volume   944.44029114
_cell_formula_units_Z   8
loop_
 _symmetry_equiv_pos_site_id
 _symmetry_equiv_pos_as_xyz
  1  'x, y, z'
loop_
 _atom_site_type_symbol
 _atom_site_label
 _atom_site_symmetry_multiplicity
 _atom_site_fract_x
 _atom_site_fract_y
 _atom_site_fract_z
 _atom_site_occupancy
  Dy  Dy0_0  1  0.25000000  0.25000000  0.38272589  1
  Dy  Dy0_1  1  0.25000000  0.25000000  0.88272589  1
  Dy  Dy0_2  1  0.25000000  0.75000000  0.38272589  1
  Dy  Dy0_3  1  0.25000000  0.75000000  0.88272589  1
  Dy  Dy0_4  1  0.75000000  0.25000000  0.38272589  1
  Dy  Dy0_5  1  0.75000000  0.25000000  0.88272589  1
  Dy  Dy0_6  1  0.75000000  0.75000000  0.38272589  1
  Dy  Dy0_7  1  0.75000000  0.75000000  0.88272589  1
  Dy  Dy1_0  1  0.00000000  0.00000000  0.25000000  1
  Dy  Dy1_1  1  0.00000000  0.00000000  0.75000000  1
  Dy  Dy1_2  1  0.00000000  0.50000000  0.25000000  1
  Dy  Dy1_3  1  0.00000000  0.50000000  0.75000000  1
  Dy  Dy1_4  1  0.50000000  0.00000000  0.25000000  1
  Dy  Dy1_5  1  0.50000000  0.00000000  0.75000000  1
  Dy  Dy1_6  1  0.50000000  0.50000000  0.25000000  1
  Dy  Dy1_7  1  0.50000000  0.50000000  0.75000000  1
  Dy  Dy2_0  1  0.25000000  0.25000000  0.11727411  1
  Dy  Dy2_1  1  0.25000000  0.25000000  0.61727411  1
  Dy  Dy2_2  1  0.25000000  0.75000000  0.11727411  1
  Dy  Dy2_3  1  0.25000000  0.75000000  0.61727411  1
  Dy  Dy2_4  1  0.75000000  0.25000000  0.11727411  1
  Dy  Dy2_5  1  0.75000000  0.25000000  0.61727411  1
  Dy  Dy2_6  1  0.75000000  0.75000000  0.11727411  1
  Dy  Dy2_7  1  0.75000000  0.75000000  0.61727411  1
  Mg  Mg0_0  1  0.00000000  0.00000000  0.00000000  1
  Mg  Mg0_1  1  0.00000000  0.00000000  0.50000000  1
  Mg  Mg0_2  1  0.00000000  0.50000000  0.00000000  1
  Mg  Mg0_3  1  0.00000000  0.50000000  0.50000000  1
  Mg  Mg0_4  1  0.50000000  0.00000000  0.00000000  1
  Mg  Mg0_5  1  0.50000000  0.00000000  0.50000000  1
  Mg  Mg0_6  1  0.50000000  0.50000000  0.00000000  1
  Mg  Mg0_7  1  0.50000000  0.50000000  0.50000000  1
loop_
_geom_bond_atom_site_label_1
_geom_bond_atom_site_label_2
_geom_bond_distance
_geom_bond_site_symmetry_2
Dy0_0 Mg0_1 3.332586 1_555
Dy0_0 Mg0_7 3.332586 1_555
Dy0_0 Mg0_5 3.332586 1_555
Dy0_0 Mg0_3 3.332586 1_555
Dy0_0 Dy1_6 3.527523 1_555
Dy0_0 Dy1_2 3.527523 1_555
Dy0_0 Dy1_0 3.527523 1_555
Dy0_0 Dy1_4 3.527523 1_555
Dy0_0 Dy0_4 3.562303 1_555
Dy0_0 Dy0_2 3.562303 1_555
Dy0_0 Dy0_2 3.562303 1_545
Dy0_0 Dy0_4 3.562303 1_455
Dy0_1 Mg0_0 3.332586 1_556
Dy0_1 Mg0_4 3.332586 1_556
Dy0_1 Mg0_6 3.332586 1_556
Dy0_1 Mg0_2 3.332586 1_556
Dy0_1 Dy1_5 3.527523 1_555
Dy0_1 Dy1_1 3.527523 1_555
Dy0_1 Dy1_3 3.527523 1_555
Dy0_1 Dy1_7 3.527523 1_555
Dy0_1 Dy0_5 3.562303 1_455
Dy0_1 Dy0_5 3.562303 1_555
Dy0_1 Dy0_3 3.562303 1_545
Dy0_1 Dy0_3 3.562303 1_555
Dy0_2 Mg0_7 3.332586 1_555
Dy0_2 Mg0_5 3.332586 1_565
Dy0_2 Mg0_1 3.332586 1_565
Dy0_2 Mg0_3 3.332586 1_555
Dy0_2 Dy1_6 3.527523 1_555
Dy0_2 Dy1_0 3.527523 1_565
Dy0_2 Dy1_2 3.527523 1_555
Dy0_2 Dy1_4 3.527523 1_565
Dy0_2 Dy0_6 3.562303 1_455
Dy0_2 Dy0_6 3.562303 1_555
Dy0_3 Mg0_4 3.332586 1_566
Dy0_3 Mg0_6 3.332586 1_556
Dy0_3 Mg0_2 3.332586 1_556
Dy0_3 Mg0_0 3.332586 1_566
Dy0_3 Dy1_5 3.527523 1_565
Dy0_3 Dy1_1 3.527523 1_565
Dy0_3 Dy1_3 3.527523 1_555
Dy0_3 Dy1_7 3.527523 1_555
Dy0_3 Dy0_7 3.562303 1_455
Dy0_3 Dy0_7 3.562303 1_555
Dy0_4 Mg0_3 3.332586 1_655
Dy0_4 Mg0_7 3.332586 1_555
Dy0_4 Mg0_1 3.332586 1_655
Dy0_4 Mg0_5 3.332586 1_555
Dy0_4 Dy1_6 3.527523 1_555
Dy0_4 Dy1_0 3.527523 1_655
Dy0_4 Dy1_4 3.527523 1_555
Dy0_4 Dy1_2 3.527523 1_655
Dy0_4 Dy0_6 3.562303 1_555
Dy0_4 Dy0_6 3.562303 1_545
Dy0_5 Mg0_2 3.332586 1_656
Dy0_5 Mg0_4 3.332586 1_556
Dy0_5 Mg0_6 3.332586 1_556
Dy0_5 Mg0_0 3.332586 1_656
Dy0_5 Dy1_1 3.527523 1_655
Dy0_5 Dy1_5 3.527523 1_555
Dy0_5 Dy1_3 3.527523 1_655
Dy0_5 Dy1_7 3.527523 1_555
Dy0_5 Dy0_7 3.562303 1_545
Dy0_5 Dy0_7 3.562303 1_555
Dy0_6 Mg0_3 3.332586 1_655
Dy0_6 Mg0_7 3.332586 1_555
Dy0_6 Mg0_5 3.332586 1_565
Dy0_6 Mg0_1 3.332586 1_665
Dy0_6 Dy1_6 3.527523 1_555
Dy0_6 Dy1_0 3.527523 1_665
Dy0_6 Dy1_4 3.527523 1_565
Dy0_6 Dy1_2 3.527523 1_655
Dy0_7 Mg0_4 3.332586 1_566
Dy0_7 Mg0_2 3.332586 1_656
Dy0_7 Mg0_6 3.332586 1_556
Dy0_7 Mg0_0 3.332586 1_666
Dy0_7 Dy1_5 3.527523 1_565
Dy0_7 Dy1_3 3.527523 1_655
Dy0_7 Dy1_7 3.527523 1_555
Dy0_7 Dy1_1 3.527523 1_665
Dy1_0 Dy2_0 3.527523 1_555
Dy1_0 Dy2_4 3.527523 1_455
Dy1_0 Dy2_2 3.527523 1_545
Dy1_0 Dy2_6 3.527523 1_445
Dy1_0 Dy1_2 3.562303 1_555
Dy1_0 Dy1_4 3.562303 1_555
Dy1_0 Dy1_4 3.562303 1_455
Dy1_0 Dy1_2 3.562303 1_545
Dy1_1 Dy2_7 3.527523 1_445
Dy1_1 Dy2_1 3.527523 1_555
Dy1_1 Dy2_5 3.527523 1_455
Dy1_1 Dy2_3 3.527523 1_545
Dy1_1 Dy1_5 3.562303 1_555
Dy1_1 Dy1_5 3.562303 1_455
Dy1_1 Dy1_3 3.562303 1_555
Dy1_1 Dy1_3 3.562303 1_545
Dy1_2 Dy2_0 3.527523 1_555
Dy1_2 Dy2_6 3.527523 1_455
Dy1_2 Dy2_4 3.527523 1_455
Dy1_2 Dy2_2 3.527523 1_555
Dy1_2 Dy1_6 3.562303 1_455
Dy1_2 Dy1_6 3.562303 1_555
Dy1_3 Dy2_1 3.527523 1_555
Dy1_3 Dy2_5 3.527523 1_455
Dy1_3 Dy2_7 3.527523 1_455
Dy1_3 Dy2_3 3.527523 1_555
Dy1_3 Dy1_7 3.562303 1_455
Dy1_3 Dy1_7 3.562303 1_555
Dy1_4 Dy2_6 3.527523 1_545
Dy1_4 Dy2_0 3.527523 1_555
Dy1_4 Dy2_4 3.527523 1_555
Dy1_4 Dy2_2 3.527523 1_545
Dy1_4 Dy1_6 3.562303 1_545
Dy1_4 Dy1_6 3.562303 1_555
Dy1_5 Dy2_7 3.527523 1_545
Dy1_5 Dy2_1 3.527523 1_555
Dy1_5 Dy2_5 3.527523 1_555
Dy1_5 Dy2_3 3.527523 1_545
Dy1_5 Dy1_7 3.562303 1_555
Dy1_5 Dy1_7 3.562303 1_545
Dy1_6 Dy2_6 3.527523 1_555
Dy1_6 Dy2_0 3.527523 1_555
Dy1_6 Dy2_4 3.527523 1_555
Dy1_6 Dy2_2 3.527523 1_555
Dy1_7 Dy2_1 3.527523 1_555
Dy1_7 Dy2_5 3.527523 1_555
Dy1_7 Dy2_3 3.527523 1_555
Dy1_7 Dy2_7 3.527523 1_555
Dy2_0 Mg0_2 3.332586 1_555
Dy2_0 Mg0_6 3.332586 1_555
Dy2_0 Mg0_0 3.332586 1_555
Dy2_0 Mg0_4 3.332586 1_555
Dy2_0 Dy2_2 3.562303 1_545
Dy2_0 Dy2_2 3.562303 1_555
Dy2_0 Dy2_4 3.562303 1_455
Dy2_0 Dy2_4 3.562303 1_555
Dy2_1 Mg0_1 3.332586 1_555
Dy2_1 Mg0_7 3.332586 1_555
Dy2_1 Mg0_5 3.332586 1_555
Dy2_1 Mg0_3 3.332586 1_555
Dy2_1 Dy2_5 3.562303 1_455
Dy2_1 Dy2_3 3.562303 1_555
Dy2_1 Dy2_5 3.562303 1_555
Dy2_1 Dy2_3 3.562303 1_545
Dy2_2 Mg0_2 3.332586 1_555
Dy2_2 Mg0_6 3.332586 1_555
Dy2_2 Mg0_0 3.332586 1_565
Dy2_2 Mg0_4 3.332586 1_565
Dy2_2 Dy2_6 3.562303 1_555
Dy2_2 Dy2_6 3.562303 1_455
Dy2_3 Mg0_7 3.332586 1_555
Dy2_3 Mg0_5 3.332586 1_565
Dy2_3 Mg0_1 3.332586 1_565
Dy2_3 Mg0_3 3.332586 1_555
Dy2_3 Dy2_7 3.562303 1_455
Dy2_3 Dy2_7 3.562303 1_555
Dy2_4 Mg0_0 3.332586 1_655
Dy2_4 Mg0_2 3.332586 1_655
Dy2_4 Mg0_6 3.332586 1_555
Dy2_4 Mg0_4 3.332586 1_555
Dy2_4 Dy2_6 3.562303 1_545
Dy2_4 Dy2_6 3.562303 1_555
Dy2_5 Mg0_3 3.332586 1_655
Dy2_5 Mg0_7 3.332586 1_555
Dy2_5 Mg0_1 3.332586 1_655
Dy2_5 Mg0_5 3.332586 1_555
Dy2_5 Dy2_7 3.562303 1_555
Dy2_5 Dy2_7 3.562303 1_545
Dy2_6 Mg0_2 3.332586 1_655
Dy2_6 Mg0_6 3.332586 1_555
Dy2_6 Mg0_4 3.332586 1_565
Dy2_6 Mg0_0 3.332586 1_665
Dy2_7 Mg0_3 3.332586 1_655
Dy2_7 Mg0_7 3.332586 1_555
Dy2_7 Mg0_5 3.332586 1_565
Dy2_7 Mg0_1 3.332586 1_665
