# generated using pymatgen
data_Pr2SiS5
_symmetry_space_group_name_H-M   'P 1'
_cell_length_a   12.58108904
_cell_length_b   7.59900760
_cell_length_c   7.85517588
_cell_angle_alpha   78.62708248
_cell_angle_beta   90.00000000
_cell_angle_gamma   90.00000000
_symmetry_Int_Tables_number   1
_chemical_formula_structural   Pr2SiS5
_chemical_formula_sum   'Pr8 Si4 S20'
_cell_volume   736.23863292
_cell_formula_units_Z   4
loop_
 _symmetry_equiv_pos_site_id
 _symmetry_equiv_pos_as_xyz
  1  'x, y, z'
loop_
 _atom_site_type_symbol
 _atom_site_label
 _atom_site_symmetry_multiplicity
 _atom_site_fract_x
 _atom_site_fract_y
 _atom_site_fract_z
 _atom_site_occupancy
  Pr  Pr0  1  0.83547796  0.83808593  0.63196673  1
  Pr  Pr1  1  0.16452204  0.16191407  0.36803327  1
  Pr  Pr2  1  0.33547796  0.16191407  0.86803327  1
  Pr  Pr3  1  0.66452204  0.83808593  0.13196673  1
  Pr  Pr4  1  0.40545947  0.75963594  0.54279189  1
  Pr  Pr5  1  0.59454053  0.24036406  0.45720811  1
  Pr  Pr6  1  0.90545947  0.24036406  0.95720811  1
  Pr  Pr7  1  0.09454053  0.75963594  0.04279189  1
  Si  Si0  1  0.11636117  0.66848864  0.59472377  1
  Si  Si1  1  0.88363883  0.33151136  0.40527623  1
  Si  Si2  1  0.61636117  0.33151136  0.90527623  1
  Si  Si3  1  0.38363883  0.66848864  0.09472377  1
  S  S0  1  0.47021482  0.82520018  0.88633321  1
  S  S1  1  0.52978518  0.17479982  0.11366679  1
  S  S2  1  0.97021482  0.17479982  0.61366679  1
  S  S3  1  0.02978518  0.82520018  0.38633321  1
  S  S4  1  0.20285702  0.86993893  0.69412490  1
  S  S5  1  0.79714298  0.13006107  0.30587510  1
  S  S6  1  0.70285702  0.13006107  0.80587510  1
  S  S7  1  0.29714298  0.86993893  0.19412490  1
  S  S8  1  0.22655696  0.47461982  0.54975302  1
  S  S9  1  0.77344304  0.52538018  0.45024698  1
  S  S10  1  0.72655696  0.52538018  0.95024698  1
  S  S11  1  0.27344304  0.47461982  0.04975302  1
  S  S12  1  0.87879972  0.86298285  0.99657658  1
  S  S13  1  0.12120028  0.13701715  0.00342342  1
  S  S14  1  0.37879972  0.13701715  0.50342342  1
  S  S15  1  0.62120028  0.86298285  0.49657658  1
  S  S16  1  0.49778142  0.42114044  0.71978264  1
  S  S17  1  0.50221858  0.57885956  0.28021736  1
  S  S18  1  0.99778142  0.57885956  0.78021736  1
  S  S19  1  0.00221858  0.42114044  0.21978264  1
loop_
_geom_bond_atom_site_label_1
_geom_bond_atom_site_label_2
_geom_bond_distance
_geom_bond_site_symmetry_2
Pr0 S15 2.890517 1_555
Pr0 S18 2.915710 1_555
Pr0 S12 2.957952 1_555
Pr0 S2 3.048933 1_565
Pr0 S5 3.078188 1_565
Pr0 S9 3.103392 1_555
Pr0 S3 3.127795 1_655
Pr0 S6 3.281496 1_565
Pr0 S10 3.381140 1_555
Pr1 S14 2.890517 1_555
Pr1 S19 2.915710 1_555
Pr1 S13 2.957952 1_555
Pr1 S3 3.048933 1_545
Pr1 S4 3.078188 1_545
Pr1 S8 3.103392 1_555
Pr1 S2 3.127795 1_455
Pr1 S7 3.281496 1_545
Pr1 S11 3.381140 1_555
Pr2 S13 2.890517 1_556
Pr2 S16 2.915710 1_555
Pr2 S14 2.957952 1_555
Pr2 S0 3.048933 1_545
Pr2 S7 3.078188 1_546
Pr2 S11 3.103392 1_556
Pr2 S1 3.127795 1_556
Pr2 S4 3.281496 1_545
Pr2 S8 3.381140 1_555
Pr3 S12 2.890517 1_554
Pr3 S17 2.915710 1_555
Pr3 S15 2.957952 1_555
Pr3 S1 3.048933 1_565
Pr3 S6 3.078188 1_564
Pr3 S10 3.103392 1_554
Pr3 S0 3.127795 1_554
Pr3 S5 3.281496 1_565
Pr3 S9 3.381140 1_555
Pr4 S15 2.829006 1_555
Pr4 S14 2.842923 1_565
Pr4 S16 2.913417 1_555
Pr4 S0 2.953730 1_555
Pr4 S17 2.956461 1_555
Pr4 S4 3.000975 1_555
Pr4 S7 3.025803 1_555
Pr4 S8 3.116600 1_555
Pr5 S14 2.829006 1_555
Pr5 S15 2.842923 1_545
Pr5 S17 2.913417 1_555
Pr5 S1 2.953730 1_555
Pr5 S16 2.956461 1_555
Pr5 S5 3.000975 1_555
Pr5 S6 3.025803 1_555
Pr5 S9 3.116600 1_555
Pr6 S13 2.829006 1_656
Pr6 S12 2.842923 1_545
Pr6 S18 2.913417 1_555
Pr6 S2 2.953730 1_555
Pr6 S19 2.956461 1_656
Pr6 S6 3.000975 1_555
Pr6 S5 3.025803 1_556
Pr6 S10 3.116600 1_555
Pr7 S12 2.829006 1_454
Pr7 S13 2.842923 1_565
Pr7 S19 2.913417 1_555
Pr7 S3 2.953730 1_555
Pr7 S18 2.956461 1_454
Pr7 S7 3.000975 1_555
Pr7 S4 3.025803 1_554
Pr7 S11 3.116600 1_555
S0 Si3 2.124927 1_556
S1 Si2 2.124927 1_554
S2 Si1 2.124927 1_555
S3 Si0 2.124927 1_555
S4 Si0 2.146788 1_555
S5 Si1 2.146788 1_555
S6 Si2 2.146788 1_555
S7 Si3 2.146788 1_555
S8 Si0 2.102960 1_555
S9 Si1 2.102960 1_555
S10 Si2 2.102960 1_555
S11 Si3 2.102960 1_555
S16 Si2 2.102675 1_555
S17 Si3 2.102675 1_555
S18 Si0 2.102675 1_655
S19 Si1 2.102675 1_455
