# generated using pymatgen
data_BaSrNbSbO6
_symmetry_space_group_name_H-M   'P 1'
_cell_length_a   8.58530517
_cell_length_b   8.76515871
_cell_length_c   8.55954490
_cell_angle_alpha   90.00000000
_cell_angle_beta   90.00000000
_cell_angle_gamma   90.00000000
_symmetry_Int_Tables_number   1
_chemical_formula_structural   BaSrNbSbO6
_chemical_formula_sum   'Ba4 Sr4 Nb4 Sb4 O24'
_cell_volume   644.11912706
_cell_formula_units_Z   4
loop_
 _symmetry_equiv_pos_site_id
 _symmetry_equiv_pos_as_xyz
  1  'x, y, z'
loop_
 _atom_site_type_symbol
 _atom_site_label
 _atom_site_symmetry_multiplicity
 _atom_site_fract_x
 _atom_site_fract_y
 _atom_site_fract_z
 _atom_site_occupancy
  Ba  Ba0  1  0.00000000  -0.00000000  0.00000000  1
  Ba  Ba1  1  0.50000000  0.50000000  0.50000000  1
  Ba  Ba2  1  0.50000000  0.00000000  0.50000000  1
  Ba  Ba3  1  0.50000000  0.50000000  0.00000000  1
  Sr  Sr0  1  0.00000000  0.50000000  0.50000000  1
  Sr  Sr1  1  0.50000000  0.00000000  0.00000000  1
  Sr  Sr2  1  0.00000000  0.50000000  0.00000000  1
  Sr  Sr3  1  0.00000000  0.00000000  0.50000000  1
  Nb  Nb0  1  0.75127142  0.74664416  0.75474891  1
  Nb  Nb1  1  0.24872858  0.25335584  0.75474891  1
  Nb  Nb2  1  0.24872858  0.74664416  0.24525109  1
  Nb  Nb3  1  0.75127142  0.25335584  0.24525109  1
  Sb  Sb0  1  0.23004628  0.26495694  0.26828050  1
  Sb  Sb1  1  0.76995372  0.73504306  0.26828050  1
  Sb  Sb2  1  0.76995372  0.26495694  0.73171950  1
  Sb  Sb3  1  0.23004628  0.73504306  0.73171950  1
  O  O0  1  0.99669248  0.21723262  0.28873836  1
  O  O1  1  0.00330752  0.78276738  0.28873836  1
  O  O2  1  0.00330752  0.21723262  0.71126164  1
  O  O3  1  0.99669248  0.78276738  0.71126164  1
  O  O4  1  0.29152190  0.95697389  0.20509519  1
  O  O5  1  0.29152190  0.04302611  0.79490481  1
  O  O6  1  0.70847810  0.04302611  0.20509519  1
  O  O7  1  0.70847810  0.95697389  0.79490481  1
  O  O8  1  0.19962717  0.30023950  0.96744119  1
  O  O9  1  0.80037283  0.30023950  0.03255881  1
  O  O10  1  0.19962717  0.69976050  0.03255881  1
  O  O11  1  0.80037283  0.69976050  0.96744119  1
  O  O12  1  0.53797888  0.31381604  0.24796325  1
  O  O13  1  0.46202112  0.68618396  0.24796325  1
  O  O14  1  0.46202112  0.31381604  0.75203675  1
  O  O15  1  0.53797888  0.68618396  0.75203675  1
  O  O16  1  0.20082955  0.49141301  0.29221232  1
  O  O17  1  0.20082955  0.50858699  0.70778768  1
  O  O18  1  0.79917045  0.50858699  0.29221232  1
  O  O19  1  0.79917045  0.49141301  0.70778768  1
  O  O20  1  0.25714055  0.22160600  0.50505202  1
  O  O21  1  0.74285945  0.22160600  0.49494798  1
  O  O22  1  0.25714055  0.77839400  0.49494798  1
  O  O23  1  0.74285945  0.77839400  0.50505202  1
loop_
_geom_bond_atom_site_label_1
_geom_bond_atom_site_label_2
_geom_bond_distance
_geom_bond_site_symmetry_2
Ba0 O5 3.080278 1_554
Ba0 O7 3.080278 1_444
Ba0 O6 3.080278 1_455
Ba0 O4 3.080278 1_545
Ba0 O3 3.120013 1_444
Ba0 O2 3.120013 1_554
Ba0 O0 3.120013 1_455
Ba0 O1 3.120013 1_545
Ba0 O11 3.152864 1_444
Ba0 O9 3.152864 1_455
Ba0 O10 3.152864 1_545
Ba0 O8 3.152864 1_554
Ba1 O14 2.724619 1_555
Ba1 O12 2.724619 1_555
Ba1 O13 2.724619 1_555
Ba1 O15 2.724619 1_555
Ba1 O18 3.125061 1_555
Ba1 O16 3.125061 1_555
Ba1 O17 3.125061 1_555
Ba1 O19 3.125061 1_555
Ba1 O21 3.209923 1_555
Ba1 O22 3.209923 1_555
Ba1 O20 3.209923 1_555
Ba1 O23 3.209923 1_555
Ba2 O22 2.849939 1_545
Ba2 O23 2.849939 1_545
Ba2 O21 2.849939 1_555
Ba2 O20 2.849939 1_555
Ba2 O6 3.117311 1_555
Ba2 O5 3.117311 1_555
Ba2 O4 3.117311 1_545
Ba2 O7 3.117311 1_545
Ba3 O14 2.697095 1_554
Ba3 O15 2.697095 1_554
Ba3 O12 2.697095 1_555
Ba3 O13 2.697095 1_555
Ba3 O11 3.129473 1_554
Ba3 O8 3.129473 1_554
Ba3 O10 3.129473 1_555
Ba3 O9 3.129473 1_555
Nb0 O15 1.906464 1_555
Nb0 O7 1.910990 1_555
Nb0 O11 1.913368 1_555
Nb0 O23 2.156543 1_555
Nb0 O3 2.162942 1_555
Nb0 O19 2.309867 1_555
Nb1 O14 1.906464 1_555
Nb1 O5 1.910990 1_555
Nb1 O8 1.913368 1_555
Nb1 O20 2.156543 1_555
Nb1 O2 2.162942 1_555
Nb1 O17 2.309867 1_555
Nb2 O13 1.906464 1_555
Nb2 O4 1.910990 1_555
Nb2 O10 1.913368 1_555
Nb2 O22 2.156543 1_555
Nb2 O1 2.162942 1_555
Nb2 O16 2.309867 1_555
Nb3 O12 1.906464 1_555
Nb3 O6 1.910990 1_555
Nb3 O9 1.913368 1_555
Nb3 O21 2.156543 1_555
Nb3 O0 2.162942 1_555
Nb3 O18 2.309867 1_555
O0 Sb0 2.054097 1_655
O0 Sr3 2.626077 1_655
O0 Sr0 3.068181 1_655
O1 Sb1 2.054097 1_455
O1 Sr3 2.626077 1_565
O1 Sr0 3.068181 1_555
O2 Sb2 2.054097 1_455
O2 Sr3 2.626077 1_555
O2 Sr0 3.068181 1_555
O3 Sb3 2.054097 1_655
O3 Sr3 2.626077 1_665
O3 Sr0 3.068181 1_655
O4 Sr1 2.535279 1_565
O5 Sr1 2.535279 1_556
O6 Sr1 2.535279 1_555
O7 Sr1 2.535279 1_566
O8 Sr2 2.465917 1_556
O8 Sb0 2.606667 1_556
O9 Sr2 2.465917 1_655
O9 Sb2 2.606667 1_554
O10 Sr2 2.465917 1_555
O10 Sb3 2.606667 1_554
O11 Sr2 2.465917 1_656
O11 Sb1 2.606667 1_556
O16 Sb0 2.011169 1_555
O16 Sr0 2.478261 1_555
O16 Sr2 3.038831 1_555
O17 Sb3 2.011169 1_555
O17 Sr0 2.478261 1_555
O17 Sr2 3.038831 1_556
O18 Sb1 2.011169 1_555
O18 Sr0 2.478261 1_655
O18 Sr2 3.038831 1_655
O19 Sb2 2.011169 1_555
O19 Sr0 2.478261 1_655
O19 Sr2 3.038831 1_656
O20 Sb0 2.075049 1_555
O20 Sr3 2.940827 1_555
O21 Sb2 2.075049 1_555
O21 Sr3 2.940827 1_655
O22 Sb3 2.075049 1_555
O22 Sr3 2.940827 1_565
O23 Sb1 2.075049 1_555
O23 Sr3 2.940827 1_665
