# generated using pymatgen
data_SrLa3
_symmetry_space_group_name_H-M   'P 1'
_cell_length_a   7.81578357
_cell_length_b   7.81578357
_cell_length_c   6.18769000
_cell_angle_alpha   90.00000000
_cell_angle_beta   90.00000000
_cell_angle_gamma   119.99999637
_symmetry_Int_Tables_number   1
_chemical_formula_structural   SrLa3
_chemical_formula_sum   'Sr2 La6'
_cell_volume   327.34389426
_cell_formula_units_Z   2
loop_
 _symmetry_equiv_pos_site_id
 _symmetry_equiv_pos_as_xyz
  1  'x, y, z'
loop_
 _atom_site_type_symbol
 _atom_site_label
 _atom_site_symmetry_multiplicity
 _atom_site_fract_x
 _atom_site_fract_y
 _atom_site_fract_z
 _atom_site_occupancy
  Sr  Sr0  1  0.33333300  0.66666700  0.75000000  1
  Sr  Sr1  1  0.66666700  0.33333300  0.25000000  1
  La  La0  1  0.16038700  0.32077500  0.25000000  1
  La  La1  1  0.67922500  0.83961300  0.25000000  1
  La  La2  1  0.16038700  0.83961300  0.25000000  1
  La  La3  1  0.83961300  0.67922500  0.75000000  1
  La  La4  1  0.32077500  0.16038700  0.75000000  1
  La  La5  1  0.83961300  0.16038700  0.75000000  1
loop_
_geom_bond_atom_site_label_1
_geom_bond_atom_site_label_2
_geom_bond_distance
_geom_bond_site_symmetry_2
La0 La2 3.760658 1_545
La0 La1 3.760658 1_445
La0 La5 3.779688 1_455
La0 La5 3.779688 1_454
La0 La4 3.779696 1_554
La0 La4 3.779696 1_555
La0 Sr0 3.879849 1_555
La0 Sr0 3.879849 1_554
La0 Sr1 3.908808 1_455
La0 Sr1 3.908824 1_555
La0 La2 4.055126 1_555
La0 La1 4.055126 1_555
La1 La2 3.760658 1_655
La1 La5 3.779688 1_564
La1 La5 3.779688 1_565
La1 La3 3.779696 1_554
La1 La3 3.779696 1_555
La1 Sr0 3.879849 1_555
La1 Sr0 3.879849 1_554
La1 Sr1 3.908808 1_565
La1 Sr1 3.908824 1_555
La1 La2 4.055126 1_555
La2 La3 3.779688 1_454
La2 La3 3.779688 1_455
La2 La4 3.779688 1_565
La2 La4 3.779688 1_564
La2 Sr0 3.879848 1_555
La2 Sr0 3.879848 1_554
La2 Sr1 3.908817 1_455
La2 Sr1 3.908817 1_565
La3 La5 3.760658 1_565
La3 La4 3.760658 1_665
La3 Sr1 3.879849 1_555
La3 Sr1 3.879849 1_556
La3 Sr0 3.908808 1_655
La3 Sr0 3.908824 1_555
La3 La5 4.055126 1_555
La3 La4 4.055126 1_555
La4 La5 3.760658 1_455
La4 Sr1 3.879849 1_555
La4 Sr1 3.879849 1_556
La4 Sr0 3.908808 1_545
La4 Sr0 3.908824 1_555
La4 La5 4.055126 1_555
La5 Sr1 3.879848 1_555
La5 Sr1 3.879848 1_556
La5 Sr0 3.908817 1_545
La5 Sr0 3.908817 1_655
