# generated using pymatgen
data_Tb(Zn10Fe)2
_symmetry_space_group_name_H-M   'P 1'
_cell_length_a   9.84237412
_cell_length_b   9.84237412
_cell_length_c   9.84237412
_cell_angle_alpha   60.00000000
_cell_angle_beta   60.00000000
_cell_angle_gamma   60.00000000
_symmetry_Int_Tables_number   1
_chemical_formula_structural   Tb(Zn10Fe)2
_chemical_formula_sum   'Tb2 Zn40 Fe4'
_cell_volume   674.19357389
_cell_formula_units_Z   2
loop_
 _symmetry_equiv_pos_site_id
 _symmetry_equiv_pos_as_xyz
  1  'x, y, z'
loop_
 _atom_site_type_symbol
 _atom_site_label
 _atom_site_symmetry_multiplicity
 _atom_site_fract_x
 _atom_site_fract_y
 _atom_site_fract_z
 _atom_site_occupancy
  Tb  Tb0  1  0.75000000  0.75000000  0.75000000  1
  Tb  Tb1  1  0.50000000  0.50000000  0.50000000  1
  Zn  Zn0  1  0.62500000  0.62500000  0.62500000  1
  Zn  Zn1  1  0.12500000  0.62500000  0.62500000  1
  Zn  Zn2  1  0.29812471  0.56907467  0.83467590  1
  Zn  Zn3  1  0.95187529  0.95187529  0.68092533  1
  Zn  Zn4  1  0.68092533  0.41532410  0.95187529  1
  Zn  Zn5  1  0.95187529  0.41532410  0.95187529  1
  Zn  Zn6  1  0.41532410  0.95187529  0.68092533  1
  Zn  Zn7  1  0.41532410  0.95187529  0.95187529  1
  Zn  Zn8  1  0.68092533  0.95187529  0.95187529  1
  Zn  Zn9  1  0.83467590  0.56907467  0.29812471  1
  Zn  Zn10  1  0.29812471  0.56907467  0.29812471  1
  Zn  Zn11  1  0.56907467  0.29812471  0.83467590  1
  Zn  Zn12  1  0.29812471  0.29812471  0.83467590  1
  Zn  Zn13  1  0.56907467  0.83467590  0.29812471  1
  Zn  Zn14  1  0.83467590  0.29812471  0.56907467  1
  Zn  Zn15  1  0.29812471  0.29812471  0.56907467  1
  Zn  Zn16  1  0.29812471  0.83467590  0.29812471  1
  Zn  Zn17  1  0.68092533  0.95187529  0.41532410  1
  Zn  Zn18  1  0.95187529  0.95187529  0.41532410  1
  Zn  Zn19  1  0.95187529  0.41532410  0.68092533  1
  Zn  Zn20  1  0.95187529  0.68092533  0.41532410  1
  Zn  Zn21  1  0.41532410  0.68092533  0.95187529  1
  Zn  Zn22  1  0.95187529  0.68092533  0.95187529  1
  Zn  Zn23  1  0.83467590  0.29812471  0.29812471  1
  Zn  Zn24  1  0.56907467  0.29812471  0.29812471  1
  Zn  Zn25  1  0.29812471  0.83467590  0.56907467  1
  Zn  Zn26  1  0.86443451  0.86443451  0.13556549  1
  Zn  Zn27  1  0.11443451  0.38556549  0.38556549  1
  Zn  Zn28  1  0.38556549  0.11443451  0.11443451  1
  Zn  Zn29  1  0.11443451  0.11443451  0.38556549  1
  Zn  Zn30  1  0.11443451  0.38556549  0.11443451  1
  Zn  Zn31  1  0.38556549  0.11443451  0.38556549  1
  Zn  Zn32  1  0.13556549  0.86443451  0.13556549  1
  Zn  Zn33  1  0.13556549  0.86443451  0.86443451  1
  Zn  Zn34  1  0.86443451  0.13556549  0.13556549  1
  Zn  Zn35  1  0.86443451  0.13556549  0.86443451  1
  Zn  Zn36  1  0.38556549  0.38556549  0.11443451  1
  Zn  Zn37  1  0.13556549  0.13556549  0.86443451  1
  Zn  Zn38  1  0.62500000  0.12500000  0.62500000  1
  Zn  Zn39  1  0.62500000  0.62500000  0.12500000  1
  Fe  Fe0  1  0.12500000  0.62500000  0.12500000  1
  Fe  Fe1  1  0.12500000  0.12500000  0.12500000  1
  Fe  Fe2  1  0.62500000  0.12500000  0.12500000  1
  Fe  Fe3  1  0.12500000  0.12500000  0.62500000  1
loop_
_geom_bond_atom_site_label_1
_geom_bond_atom_site_label_2
_geom_bond_distance
_geom_bond_site_symmetry_2
Tb0 Zn1 3.013599 1_655
Tb0 Zn38 3.013599 1_565
Tb0 Zn0 3.013599 1_555
Tb0 Zn39 3.013599 1_556
Tb0 Zn21 3.099071 1_555
Tb0 Zn20 3.099071 1_555
Tb0 Zn6 3.099071 1_555
Tb0 Zn19 3.099071 1_555
Tb0 Zn4 3.099071 1_555
Tb0 Zn17 3.099071 1_555
Tb0 Zn18 3.099071 1_555
Tb0 Zn5 3.099071 1_555
Tb0 Zn7 3.099071 1_555
Tb0 Zn22 3.099071 1_555
Tb0 Zn3 3.099071 1_555
Tb0 Zn8 3.099071 1_555
Tb1 Zn1 3.013599 1_555
Tb1 Zn39 3.013599 1_555
Tb1 Zn38 3.013599 1_555
Tb1 Zn0 3.013599 1_555
Tb1 Zn2 3.099071 1_555
Tb1 Zn25 3.099071 1_555
Tb1 Zn9 3.099071 1_555
Tb1 Zn11 3.099071 1_555
Tb1 Zn13 3.099071 1_555
Tb1 Zn14 3.099071 1_555
Tb1 Zn16 3.099071 1_555
Tb1 Zn23 3.099071 1_555
Tb1 Zn12 3.099071 1_555
Tb1 Zn15 3.099071 1_555
Tb1 Zn10 3.099071 1_555
Tb1 Zn24 3.099071 1_555
Zn0 Zn14 2.984620 1_555
Zn0 Zn25 2.984620 1_555
Zn0 Zn9 2.984620 1_555
Zn0 Zn13 2.984620 1_555
Zn0 Zn11 2.984620 1_555
Zn0 Zn2 2.984620 1_555
Zn0 Zn20 2.984620 1_555
Zn0 Zn21 2.984620 1_555
Zn0 Zn6 2.984620 1_555
Zn0 Zn17 2.984620 1_555
Zn0 Zn19 2.984620 1_555
Zn0 Zn4 2.984620 1_555
Zn1 Zn19 2.984620 1_455
Zn1 Zn20 2.984620 1_455
Zn1 Zn2 2.984620 1_555
Zn1 Zn25 2.984620 1_555
Zn1 Zn12 2.984620 1_555
Zn1 Zn16 2.984620 1_555
Zn1 Zn18 2.984620 1_455
Zn1 Zn5 2.984620 1_455
Zn1 Zn15 2.984620 1_555
Zn1 Zn10 2.984620 1_555
Zn1 Zn22 2.984620 1_455
Zn1 Zn3 2.984620 1_455
Zn2 Zn33 2.613090 1_555
Zn2 Zn25 2.614147 1_555
Zn2 Zn30 2.725187 1_556
Zn2 Zn36 2.725187 1_556
Zn2 Zn22 2.782718 1_455
Zn2 Zn21 2.782718 1_555
Zn3 Zn8 2.666791 1_555
Zn3 Zn33 2.725187 1_655
Zn3 Zn35 2.725187 1_565
Zn3 Zn38 2.984620 1_565
Zn4 Zn5 2.666791 1_555
Zn6 Zn7 2.666791 1_555
Zn7 Zn8 2.614147 1_555
Zn10 Zn32 2.613090 1_555
Zn10 Zn16 2.614147 1_555
Zn10 Zn15 2.666791 1_555
Zn10 Zn24 2.666791 1_555
Zn10 Zn36 2.725187 1_555
Zn10 Zn27 2.725187 1_555
Zn10 Zn20 2.782718 1_455
Zn10 Zn21 2.782718 1_554
Zn10 Zn39 2.984620 1_555
Zn11 Zn35 2.613090 1_555
Zn11 Zn14 2.614147 1_555
Zn11 Zn2 2.666791 1_555
Zn11 Zn12 2.666791 1_555
Zn11 Zn28 2.725187 1_556
Zn11 Zn36 2.725187 1_556
Zn11 Zn8 2.782718 1_545
Zn11 Zn4 2.782718 1_555
Zn11 Zn38 2.984620 1_555
Zn12 Zn37 2.613090 1_555
Zn12 Zn15 2.614147 1_555
Zn12 Zn2 2.666791 1_555
Zn12 Zn30 2.725187 1_556
Zn12 Zn28 2.725187 1_556
Zn12 Zn5 2.782718 1_455
Zn12 Zn7 2.782718 1_545
Zn12 Zn38 2.984620 1_555
Zn13 Zn26 2.613090 1_555
Zn13 Zn9 2.614147 1_555
Zn13 Zn16 2.666791 1_555
Zn13 Zn25 2.666791 1_555
Zn13 Zn28 2.725187 1_565
Zn13 Zn31 2.725187 1_565
Zn13 Zn8 2.782718 1_554
Zn13 Zn17 2.782718 1_555
Zn13 Zn39 2.984620 1_555
Zn14 Zn35 2.613090 1_555
Zn14 Zn9 2.666791 1_555
Zn14 Zn23 2.666791 1_555
Zn14 Zn29 2.725187 1_655
Zn14 Zn27 2.725187 1_655
Zn14 Zn3 2.782718 1_545
Zn14 Zn19 2.782718 1_555
Zn14 Zn38 2.984620 1_555
Zn15 Zn37 2.613090 1_555
Zn15 Zn24 2.666791 1_555
Zn15 Zn31 2.725187 1_555
Zn15 Zn27 2.725187 1_555
Zn15 Zn6 2.782718 1_545
Zn15 Zn19 2.782718 1_455
Zn15 Zn38 2.984620 1_555
Zn16 Zn32 2.613090 1_555
Zn16 Zn25 2.666791 1_555
Zn16 Zn29 2.725187 1_565
Zn16 Zn28 2.725187 1_565
Zn16 Zn18 2.782718 1_455
Zn16 Zn7 2.782718 1_554
Zn16 Zn39 2.984620 1_555
Zn17 Zn31 2.613090 1_565
Zn17 Zn6 2.614147 1_555
Zn17 Zn20 2.666791 1_555
Zn17 Zn18 2.666791 1_555
Zn17 Zn34 2.725187 1_565
Zn17 Zn26 2.725187 1_555
Zn17 Zn24 2.782718 1_565
Zn17 Zn38 2.984620 1_565
Zn18 Zn29 2.613090 1_665
Zn18 Zn3 2.614147 1_555
Zn18 Zn20 2.666791 1_555
Zn18 Zn32 2.725187 1_655
Zn18 Zn34 2.725187 1_565
Zn18 Zn23 2.782718 1_565
Zn18 Zn38 2.984620 1_565
Zn19 Zn27 2.613090 1_655
Zn19 Zn20 2.614147 1_555
Zn19 Zn4 2.666791 1_555
Zn19 Zn5 2.666791 1_555
Zn19 Zn37 2.725187 1_655
Zn19 Zn35 2.725187 1_555
Zn20 Zn27 2.613090 1_655
Zn20 Zn32 2.725187 1_655
Zn20 Zn26 2.725187 1_555
Zn20 Zn9 2.782718 1_555
Zn21 Zn36 2.613090 1_556
Zn21 Zn4 2.614147 1_555
Zn21 Zn6 2.666791 1_555
Zn21 Zn7 2.666791 1_555
Zn21 Zn32 2.725187 1_556
Zn21 Zn33 2.725187 1_555
Zn21 Zn39 2.984620 1_556
Zn22 Zn30 2.613090 1_656
Zn22 Zn5 2.614147 1_555
Zn22 Zn3 2.666791 1_555
Zn22 Zn8 2.666791 1_555
Zn22 Zn33 2.725187 1_655
Zn22 Zn26 2.725187 1_556
Zn22 Zn9 2.782718 1_556
Zn22 Zn39 2.984620 1_556
Zn23 Zn34 2.613090 1_555
Zn23 Zn24 2.614147 1_555
Zn23 Zn9 2.666791 1_555
Zn23 Zn29 2.725187 1_655
Zn23 Zn30 2.725187 1_655
Zn23 Zn5 2.782718 1_554
Zn23 Zn38 2.984620 1_555
Zn23 Zn39 2.984620 1_555
Zn24 Zn34 2.613090 1_555
Zn24 Zn31 2.725187 1_555
Zn24 Zn36 2.725187 1_555
Zn24 Zn4 2.782718 1_554
Zn24 Zn39 2.984620 1_555
Zn24 Zn38 2.984620 1_555
Zn25 Zn33 2.613090 1_555
Zn25 Zn29 2.725187 1_565
Zn25 Zn31 2.725187 1_565
Zn25 Zn3 2.782718 1_455
Zn25 Zn6 2.782718 1_555
Zn26 Zn9 2.613090 1_555
Zn26 Zn35 2.668573 1_564
Zn26 Zn33 2.668573 1_654
Zn26 Zn34 2.668573 1_565
Zn26 Zn32 2.668573 1_655
Zn26 Zn8 2.725187 1_554
Zn27 Zn30 2.668573 1_555
Zn27 Zn31 2.668573 1_555
Zn27 Zn29 2.668573 1_555
Zn27 Zn36 2.668573 1_555
Zn27 Zn9 2.725187 1_455
Zn28 Zn7 2.613090 1_544
Zn28 Zn8 2.613090 1_544
Zn28 Zn30 2.668573 1_555
Zn28 Zn31 2.668573 1_555
Zn28 Zn29 2.668573 1_555
Zn28 Zn36 2.668573 1_555
Zn29 Zn3 2.613090 1_445
Zn29 Zn30 2.668573 1_555
Zn29 Zn31 2.668573 1_555
Zn30 Zn5 2.613090 1_454
Zn30 Zn36 2.668573 1_555
Zn30 Zn9 2.725187 1_455
Zn31 Zn6 2.613090 1_545
Zn31 Zn36 2.668573 1_555
Zn32 Zn33 2.668573 1_554
Zn32 Zn37 2.668573 1_564
Zn32 Zn34 2.668573 1_465
Zn32 Zn7 2.725187 1_554
Zn33 Zn35 2.668573 1_465
Zn33 Zn37 2.668573 1_565
Zn33 Zn6 2.725187 1_555
Zn34 Zn35 2.668573 1_554
Zn34 Zn37 2.668573 1_654
Zn34 Zn4 2.725187 1_554
Zn34 Zn5 2.725187 1_554
Zn35 Zn37 2.668573 1_655
Zn35 Zn8 2.725187 1_545
Zn35 Zn4 2.725187 1_555
Zn36 Zn4 2.613090 1_554
Zn37 Zn6 2.725187 1_545
Zn37 Zn5 2.725187 1_455
Zn37 Zn7 2.725187 1_545
Zn38 Zn6 2.984620 1_545
Zn38 Zn7 2.984620 1_545
Zn38 Zn8 2.984620 1_545
Zn39 Zn4 2.984620 1_554
Zn39 Zn9 2.984620 1_555
Zn39 Zn7 2.984620 1_554
Zn39 Zn5 2.984620 1_554
Zn39 Zn8 2.984620 1_554
Fe0 Zn26 2.464984 1_455
Fe0 Zn36 2.464984 1_555
Fe0 Zn27 2.464984 1_555
Fe0 Zn30 2.464984 1_555
Fe0 Zn33 2.464984 1_554
Fe0 Zn32 2.464984 1_555
Fe0 Zn22 2.671620 1_454
Fe0 Zn10 2.671620 1_555
Fe0 Zn21 2.671620 1_554
Fe0 Zn2 2.671620 1_554
Fe0 Zn9 2.671620 1_455
Fe0 Zn20 2.671620 1_455
Fe1 Zn34 2.464984 1_455
Fe1 Zn37 2.464984 1_554
Fe1 Zn32 2.464984 1_545
Fe1 Zn28 2.464984 1_555
Fe1 Zn29 2.464984 1_555
Fe1 Zn30 2.464984 1_555
Fe1 Zn7 2.671620 1_544
Fe1 Zn5 2.671620 1_454
Fe1 Zn18 2.671620 1_445
Fe1 Zn12 2.671620 1_554
Fe1 Zn23 2.671620 1_455
Fe1 Zn16 2.671620 1_545
Fe2 Zn31 2.464984 1_555
Fe2 Zn28 2.464984 1_555
Fe2 Zn26 2.464984 1_545
Fe2 Zn36 2.464984 1_555
Fe2 Zn35 2.464984 1_554
Fe2 Zn34 2.464984 1_555
Fe2 Zn8 2.671620 1_544
Fe2 Zn24 2.671620 1_555
Fe2 Zn17 2.671620 1_545
Fe2 Zn11 2.671620 1_554
Fe2 Zn4 2.671620 1_554
Fe2 Zn13 2.671620 1_545
Fe3 Zn31 2.464984 1_555
Fe3 Zn29 2.464984 1_555
Fe3 Zn27 2.464984 1_555
Fe3 Zn33 2.464984 1_545
Fe3 Zn35 2.464984 1_455
Fe3 Zn37 2.464984 1_555
Fe3 Zn3 2.671620 1_445
Fe3 Zn15 2.671620 1_555
Fe3 Zn14 2.671620 1_455
Fe3 Zn19 2.671620 1_455
Fe3 Zn25 2.671620 1_545
Fe3 Zn6 2.671620 1_545
