# generated using pymatgen
data_La2P2AuO
_symmetry_space_group_name_H-M   'P 1'
_cell_length_a   4.29286200
_cell_length_b   8.03550145
_cell_length_c   8.05371853
_cell_angle_alpha   78.15818423
_cell_angle_beta   74.54304897
_cell_angle_gamma   74.50712819
_symmetry_Int_Tables_number   1
_chemical_formula_structural   La2P2AuO
_chemical_formula_sum   'La4 P4 Au2 O2'
_cell_volume   255.33712999
_cell_formula_units_Z   2
loop_
 _symmetry_equiv_pos_site_id
 _symmetry_equiv_pos_as_xyz
  1  'x, y, z'
loop_
 _atom_site_type_symbol
 _atom_site_label
 _atom_site_symmetry_multiplicity
 _atom_site_fract_x
 _atom_site_fract_y
 _atom_site_fract_z
 _atom_site_occupancy
  La  La0  1  0.86758800  0.31232500  0.95249900  1
  La  La1  1  0.13241200  0.68767500  0.04750100  1
  La  La2  1  0.82667300  0.73179900  0.61485500  1
  La  La3  1  0.17332700  0.26820100  0.38514500  1
  P  P0  1  0.45334200  0.45139000  0.64192600  1
  P  P1  1  0.54665800  0.54861000  0.35807400  1
  P  P2  1  0.85270400  0.02631800  0.26827400  1
  P  P3  1  0.14729600  0.97368200  0.73172600  1
  Au  Au0  1  0.58843200  0.12450800  0.69862800  1
  Au  Au1  1  0.41156800  0.87549200  0.30137200  1
  O  O0  1  0.72260800  0.62962300  0.92516100  1
  O  O1  1  0.27739200  0.37037700  0.07483900  1
loop_
_geom_bond_atom_site_label_1
_geom_bond_atom_site_label_2
_geom_bond_distance
_geom_bond_site_symmetry_2
La0 O1 2.415425 1_556
La0 O1 2.415425 1_656
La0 O0 2.435453 1_555
La0 P2 3.057216 1_556
La0 P0 3.290827 1_655
La0 P0 3.290827 1_555
La0 P3 3.333189 1_645
La1 O0 2.415425 1_454
La1 O0 2.415425 1_554
La1 O1 2.435453 1_555
La1 P3 3.057216 1_554
La1 P1 3.290827 1_555
La1 P1 3.290827 1_455
La1 P2 3.333189 1_465
La2 O0 2.424456 1_555
La2 P0 3.038819 1_555
La2 P0 3.038819 1_655
La2 P3 3.070631 1_555
La2 P3 3.070631 1_655
La2 P2 3.266242 1_565
La2 P1 3.377627 1_655
La2 P1 3.377627 1_555
La3 O1 2.424456 1_555
La3 P1 3.038819 1_555
La3 P1 3.038819 1_455
La3 P2 3.070631 1_455
La3 P2 3.070631 1_555
La3 P3 3.266242 1_545
La3 P0 3.377627 1_555
La3 P0 3.377627 1_455
P0 P1 2.223271 1_555
Au0 P3 2.439391 1_545
Au0 P3 2.439391 1_645
Au0 P0 2.505849 1_555
Au0 La2 3.200142 1_545
Au0 La3 3.314400 1_555
Au0 La3 3.314400 1_655
Au0 La0 3.381260 1_455
Au0 La0 3.381260 1_555
Au1 P2 2.439391 1_465
Au1 P2 2.439391 1_565
Au1 P1 2.505849 1_555
Au1 La3 3.200142 1_565
Au1 La2 3.314400 1_555
Au1 La2 3.314400 1_455
Au1 La1 3.381260 1_555
Au1 La1 3.381260 1_655
