# generated using pymatgen
data_YBi3
_symmetry_space_group_name_H-M   'P 1'
_cell_length_a   6.44070068
_cell_length_b   6.44070068
_cell_length_c   6.44070068
_cell_angle_alpha   137.34760382
_cell_angle_beta   137.34760382
_cell_angle_gamma   61.90365733
_symmetry_Int_Tables_number   1
_chemical_formula_structural   YBi3
_chemical_formula_sum   'Y1 Bi3'
_cell_volume   121.22055675
_cell_formula_units_Z   1
loop_
 _symmetry_equiv_pos_site_id
 _symmetry_equiv_pos_as_xyz
  1  'x, y, z'
loop_
 _atom_site_type_symbol
 _atom_site_label
 _atom_site_symmetry_multiplicity
 _atom_site_fract_x
 _atom_site_fract_y
 _atom_site_fract_z
 _atom_site_occupancy
  Y  Y0  1  0.00000000  0.00000000  0.00000000  1
  Bi  Bi0  1  0.75000000  0.25000000  0.50000000  1
  Bi  Bi1  1  0.25000000  0.75000000  0.50000000  1
  Bi  Bi2  1  0.50000000  0.50000000  0.00000000  1
loop_
_geom_bond_atom_site_label_1
_geom_bond_atom_site_label_2
_geom_bond_distance
_geom_bond_site_symmetry_2
Bi0 Bi1 3.312563 1_544
Bi0 Bi1 3.312563 1_555
Bi0 Bi1 3.312563 1_656
Bi0 Bi1 3.312563 1_645
Bi0 Bi2 3.621315 1_555
Bi0 Y0 3.621315 1_666
Bi0 Bi2 3.621315 1_545
Bi0 Y0 3.621315 1_555
Bi0 Y0 3.621315 1_656
Bi0 Bi2 3.621315 1_556
Bi0 Bi2 3.621315 1_656
Bi0 Y0 3.621315 1_655
Bi1 Bi2 3.621315 1_455
Bi1 Bi2 3.621315 1_555
Bi1 Y0 3.621315 1_666
Bi1 Y0 3.621315 1_555
Bi1 Bi2 3.621315 1_566
Bi1 Y0 3.621315 1_565
Bi1 Y0 3.621315 1_566
Bi1 Bi2 3.621315 1_556
Bi2 Y0 3.312563 1_666
Bi2 Y0 3.312563 1_565
Bi2 Y0 3.312563 1_655
Bi2 Y0 3.312563 1_554
