# generated using pymatgen
data_K3V2O12
_symmetry_space_group_name_H-M   'P 1'
_cell_length_a   10.06703600
_cell_length_b   6.86245400
_cell_length_c   15.86331889
_cell_angle_alpha   86.99374279
_cell_angle_beta   90.00000000
_cell_angle_gamma   90.00000000
_symmetry_Int_Tables_number   1
_chemical_formula_structural   K3V2O12
_chemical_formula_sum   'K12 V8 O48'
_cell_volume   1094.40240987
_cell_formula_units_Z   4
loop_
 _symmetry_equiv_pos_site_id
 _symmetry_equiv_pos_as_xyz
  1  'x, y, z'
loop_
 _atom_site_type_symbol
 _atom_site_label
 _atom_site_symmetry_multiplicity
 _atom_site_fract_x
 _atom_site_fract_y
 _atom_site_fract_z
 _atom_site_occupancy
  K  K0  1  0.59102800  0.26481900  0.87584400  1
  K  K1  1  0.09102800  0.73518100  0.62415600  1
  K  K2  1  0.40897200  0.73518100  0.12415600  1
  K  K3  1  0.90897200  0.26481900  0.37584400  1
  K  K4  1  0.55775400  0.80220500  0.68169100  1
  K  K5  1  0.05775400  0.19779500  0.81830900  1
  K  K6  1  0.44224600  0.19779500  0.31830900  1
  K  K7  1  0.94224600  0.80220500  0.18169100  1
  K  K8  1  0.28138500  0.72656000  0.87482400  1
  K  K9  1  0.78138500  0.27344000  0.62517600  1
  K  K10  1  0.71861500  0.27344000  0.12517600  1
  K  K11  1  0.21861500  0.72656000  0.37482400  1
  V  V0  1  0.38081400  0.26198400  0.68692100  1
  V  V1  1  0.88081400  0.73801600  0.81307900  1
  V  V2  1  0.61918600  0.73801600  0.31307900  1
  V  V3  1  0.11918600  0.26198400  0.18692100  1
  V  V4  1  0.69408200  0.74359100  0.95694700  1
  V  V5  1  0.19408200  0.25640900  0.54305300  1
  V  V6  1  0.30591800  0.25640900  0.04305300  1
  V  V7  1  0.80591800  0.74359100  0.45694700  1
  O  O0  1  0.34626300  0.53056100  0.71876000  1
  O  O1  1  0.84626300  0.46943900  0.78124000  1
  O  O2  1  0.65373700  0.46943900  0.28124000  1
  O  O3  1  0.15373700  0.53056100  0.21876000  1
  O  O4  1  0.32345600  0.38974000  0.78654700  1
  O  O5  1  0.82345600  0.61026000  0.71345300  1
  O  O6  1  0.67654400  0.61026000  0.21345300  1
  O  O7  1  0.17654400  0.38974000  0.28654700  1
  O  O8  1  0.30490400  0.02767900  0.73905600  1
  O  O9  1  0.80490400  0.97232100  0.76094400  1
  O  O10  1  0.69509600  0.97232100  0.26094400  1
  O  O11  1  0.19509600  0.02767900  0.23905600  1
  O  O12  1  0.31873600  0.01038300  0.64924200  1
  O  O13  1  0.81873600  0.98961700  0.85075800  1
  O  O14  1  0.68126400  0.98961700  0.35075800  1
  O  O15  1  0.18126400  0.01038300  0.14924200  1
  O  O16  1  0.63710900  0.67166800  0.84544100  1
  O  O17  1  0.13710900  0.32833200  0.65455900  1
  O  O18  1  0.36289100  0.32833200  0.15455900  1
  O  O19  1  0.86289100  0.67166800  0.34544100  1
  O  O20  1  0.55392100  0.82126700  0.87999700  1
  O  O21  1  0.05392100  0.17873300  0.62000300  1
  O  O22  1  0.44607900  0.17873300  0.12000300  1
  O  O23  1  0.94607900  0.82126700  0.37999700  1
  O  O24  1  0.65580800  0.98397200  0.01320600  1
  O  O25  1  0.15580800  0.01602800  0.48679400  1
  O  O26  1  0.34419200  0.01602800  0.98679400  1
  O  O27  1  0.84419200  0.98397200  0.51320600  1
  O  O28  1  0.78478400  0.92310300  0.03394800  1
  O  O29  1  0.28478400  0.07689700  0.46605200  1
  O  O30  1  0.21521600  0.07689700  0.96605200  1
  O  O31  1  0.71521600  0.92310300  0.53394800  1
  O  O32  1  0.54324400  0.23439400  0.70175700  1
  O  O33  1  0.04324400  0.76560600  0.79824300  1
  O  O34  1  0.45675600  0.76560600  0.29824300  1
  O  O35  1  0.95675600  0.23439400  0.20175700  1
  O  O36  1  0.63244400  0.57334800  0.02315000  1
  O  O37  1  0.13244400  0.42665200  0.47685000  1
  O  O38  1  0.36755600  0.42665200  0.97685000  1
  O  O39  1  0.86755600  0.57334800  0.52315000  1
  O  O40  1  0.86080600  0.64776400  0.92675000  1
  O  O41  1  0.36080600  0.35223600  0.57325000  1
  O  O42  1  0.13919400  0.35223600  0.07325000  1
  O  O43  1  0.63919400  0.64776400  0.42675000  1
  O  O44  1  0.92373200  0.26509700  0.97352600  1
  O  O45  1  0.42373200  0.73490300  0.52647400  1
  O  O46  1  0.07626800  0.73490300  0.02647400  1
  O  O47  1  0.57626800  0.26509700  0.47352600  1
loop_
_geom_bond_atom_site_label_1
_geom_bond_atom_site_label_2
_geom_bond_distance
_geom_bond_site_symmetry_2
K0 O32 2.821683 1_555
K0 O16 2.846355 1_555
K0 O24 2.906440 1_546
K0 O38 3.008073 1_555
K0 O13 3.009767 1_545
K0 O20 3.063969 1_545
K0 O4 3.141643 1_555
K0 O1 3.256540 1_555
K0 O36 3.261297 1_556
K1 O33 2.821683 1_555
K1 O17 2.846355 1_555
K1 O25 2.906440 1_565
K1 O39 3.008073 1_455
K1 O12 3.009767 1_565
K1 O21 3.063969 1_565
K1 O5 3.141643 1_455
K1 O0 3.256540 1_555
K1 O37 3.261297 1_555
K2 O34 2.821683 1_555
K2 O18 2.846355 1_555
K2 O26 2.906440 1_564
K2 O36 3.008073 1_555
K2 O15 3.009767 1_565
K2 O22 3.063969 1_565
K2 O6 3.141643 1_555
K2 O3 3.256540 1_555
K2 O38 3.261297 1_554
K3 O35 2.821683 1_555
K3 O19 2.846355 1_555
K3 O27 2.906440 1_545
K3 O37 3.008073 1_655
K3 O14 3.009767 1_545
K3 O23 3.063969 1_545
K3 O7 3.141643 1_655
K3 O2 3.256540 1_555
K3 O39 3.261297 1_555
K4 O16 2.818547 1_555
K4 O12 2.831709 1_565
K4 O45 2.866296 1_555
K4 O0 2.870341 1_555
K4 O31 2.913771 1_555
K4 O32 3.003017 1_565
K4 O5 3.012313 1_555
K4 O9 3.047601 1_555
K4 O8 3.138353 1_565
K4 O20 3.155593 1_555
K5 O17 2.818547 1_555
K5 O13 2.831709 1_445
K5 O44 2.866296 1_455
K5 O1 2.870341 1_455
K5 O30 2.913771 1_555
K5 O33 3.003017 1_545
K5 O4 3.012313 1_555
K5 O8 3.047601 1_555
K5 O9 3.138353 1_445
K5 O21 3.155593 1_555
K6 O18 2.818547 1_555
K6 O14 2.831709 1_545
K6 O47 2.866296 1_555
K6 O2 2.870341 1_555
K6 O29 2.913771 1_555
K6 O34 3.003017 1_545
K6 O7 3.012313 1_555
K6 O11 3.047601 1_555
K6 O10 3.138353 1_545
K6 O22 3.155593 1_555
K7 O19 2.818547 1_555
K7 O15 2.831709 1_665
K7 O46 2.866296 1_655
K7 O3 2.870341 1_655
K7 O28 2.913771 1_555
K7 O35 3.003017 1_565
K7 O6 3.012313 1_555
K7 O10 3.047601 1_555
K7 O11 3.138353 1_665
K7 O23 3.155593 1_555
K8 O38 2.694140 1_555
K8 O33 2.694599 1_555
K8 O4 2.796880 1_555
K8 O26 2.805502 1_565
K8 O20 2.821743 1_555
K8 O8 2.915111 1_565
K8 O30 2.946698 1_565
K8 O0 2.951952 1_555
K8 O46 3.173150 1_556
K9 O39 2.694140 1_555
K9 O32 2.694599 1_555
K9 O5 2.796880 1_555
K9 O27 2.805502 1_545
K9 O21 2.821743 1_655
K9 O9 2.915111 1_545
K9 O31 2.946698 1_545
K9 O1 2.951952 1_555
K9 O47 3.173150 1_555
K10 O36 2.694140 1_555
K10 O35 2.694599 1_555
K10 O6 2.796880 1_555
K10 O24 2.805502 1_545
K10 O22 2.821743 1_555
K10 O10 2.915111 1_545
K10 O28 2.946698 1_545
K10 O2 2.951952 1_555
K10 O44 3.173150 1_554
K11 O37 2.694140 1_555
K11 O34 2.694599 1_555
K11 O7 2.796880 1_555
K11 O25 2.805502 1_565
K11 O23 2.821743 1_455
K11 O11 2.915111 1_565
K11 O29 2.946698 1_565
K11 O3 2.951952 1_555
K11 O45 3.173150 1_555
O0 O4 1.426159 1_555
O0 V0 1.967417 1_555
O1 O5 1.426159 1_555
O1 V1 1.967417 1_555
O2 O6 1.426159 1_555
O2 V2 1.967417 1_555
O3 O7 1.426159 1_555
O3 V3 1.967417 1_555
O4 V0 1.935213 1_555
O5 V1 1.935213 1_555
O6 V2 1.935213 1_555
O7 V3 1.935213 1_555
O8 V0 1.927136 1_555
O9 V1 1.927136 1_555
O10 O14 1.442610 1_555
O10 V2 1.927136 1_555
O11 O15 1.442610 1_555
O11 V3 1.927136 1_555
O12 O8 1.442610 1_555
O12 V0 1.958880 1_555
O12 V5 2.639039 1_555
O13 O9 1.442610 1_555
O13 V1 1.958880 1_555
O13 V4 2.639039 1_555
O14 V2 1.958880 1_555
O14 V7 2.639039 1_555
O15 V3 1.958880 1_555
O15 V6 2.639039 1_555
O16 O20 1.454234 1_555
O16 V4 1.947560 1_555
O16 V1 2.542724 1_555
O17 O21 1.454234 1_555
O17 V5 1.947560 1_555
O17 V0 2.542724 1_555
O18 O22 1.454234 1_555
O18 V6 1.947560 1_555
O18 V3 2.542724 1_555
O19 O23 1.454234 1_555
O19 V7 1.947560 1_555
O19 V2 2.542724 1_555
O20 V4 1.922731 1_555
O21 V5 1.922731 1_555
O22 V6 1.922731 1_555
O23 V7 1.922731 1_555
O24 O28 1.397923 1_555
O24 V4 1.954622 1_554
O25 O29 1.397923 1_555
O25 V5 1.954622 1_555
O26 O30 1.397923 1_555
O26 V6 1.954622 1_556
O27 O31 1.397923 1_555
O27 V7 1.954622 1_555
O28 V4 2.000297 1_554
O29 V5 2.000297 1_555
O30 V6 2.000297 1_556
O31 V7 2.000297 1_555
O32 V0 1.661447 1_555
O33 V1 1.661447 1_455
O34 V2 1.661447 1_555
O35 V3 1.661447 1_655
O36 V4 1.650500 1_554
O37 V5 1.650500 1_555
O38 V6 1.650500 1_556
O39 V7 1.650500 1_555
O40 V4 1.874043 1_555
O40 V1 1.886412 1_555
O41 V5 1.874043 1_555
O41 V0 1.886412 1_555
O42 V6 1.874043 1_555
O42 V3 1.886412 1_555
O43 V7 1.874043 1_555
O43 V2 1.886412 1_555
