# generated using pymatgen
data_Er2Si5Rh3
_symmetry_space_group_name_H-M   'P 1'
_cell_length_a   8.08826972
_cell_length_b   8.08842639
_cell_length_c   8.08739923
_cell_angle_alpha   138.87728413
_cell_angle_beta   105.15619016
_cell_angle_gamma   89.16357746
_symmetry_Int_Tables_number   1
_chemical_formula_structural   Er2Si5Rh3
_chemical_formula_sum   'Er4 Si10 Rh6'
_cell_volume   321.70830524
_cell_formula_units_Z   2
loop_
 _symmetry_equiv_pos_site_id
 _symmetry_equiv_pos_as_xyz
  1  'x, y, z'
loop_
 _atom_site_type_symbol
 _atom_site_label
 _atom_site_symmetry_multiplicity
 _atom_site_fract_x
 _atom_site_fract_y
 _atom_site_fract_z
 _atom_site_occupancy
  Er  Er0  1  0.63741146  0.86805873  0.76928000  1
  Er  Er1  1  0.36258863  0.13194018  0.23071964  1
  Er  Er2  1  0.09859241  0.36797848  0.73063378  1
  Er  Er3  1  0.90140811  0.63202166  0.26936661  1
  Si  Si0  1  0.27831490  0.02828265  0.74980075  1
  Si  Si1  1  0.72168547  0.97171551  0.25019819  1
  Si  Si2  1  0.72156830  0.47137302  0.74990001  1
  Si  Si3  1  0.27843228  0.52862816  0.25010179  1
  Si  Si4  1  0.44806748  0.60556493  0.84255776  1
  Si  Si5  1  0.55193309  0.39443423  0.15744200  1
  Si  Si6  1  0.76311856  0.10554621  0.65762513  1
  Si  Si7  1  0.23688183  0.89445381  0.34237571  1
  Si  Si8  1  0.99994684  0.74996903  0.74990688  1
  Si  Si9  1  0.00005366  0.25003057  0.25009378  1
  Rh  Rh0  1  0.25060248  0.64023341  0.61026539  1
  Rh  Rh1  1  0.74939780  0.35976627  0.38973380  1
  Rh  Rh2  1  0.03008701  0.14038324  0.88996461  1
  Rh  Rh3  1  0.96991265  0.85961679  0.11003571  1
  Rh  Rh4  1  0.50004703  0.75008672  0.25007552  1
  Rh  Rh5  1  0.49995200  0.24991340  0.74992290  1
loop_
_geom_bond_atom_site_label_1
_geom_bond_atom_site_label_2
_geom_bond_distance
_geom_bond_site_symmetry_2
Er0 Si6 2.947790 1_565
Er0 Rh0 3.054813 1_555
Er0 Si5 3.060643 1_555
Er0 Si5 3.061375 1_566
Er0 Si8 3.077038 1_555
Er0 Si9 3.077307 1_666
Er0 Rh1 3.078522 1_555
Er0 Rh1 3.078736 1_566
Er0 Si4 3.109597 1_555
Er0 Si1 3.164221 1_556
Er0 Si2 3.164986 1_555
Er0 Si3 3.176189 1_555
Er0 Si0 3.177847 1_565
Er0 Rh3 3.351805 1_556
Er0 Rh2 3.352028 1_665
Er0 Rh4 3.366236 1_555
Er0 Rh5 3.367090 1_565
Er1 Si7 2.947790 1_545
Er1 Rh1 3.054818 1_555
Er1 Si4 3.060643 1_555
Er1 Si4 3.061376 1_544
Er1 Si9 3.077037 1_555
Er1 Si8 3.077302 1_444
Er1 Rh0 3.078524 1_555
Er1 Rh0 3.078738 1_544
Er1 Si5 3.109600 1_555
Er1 Si0 3.164223 1_554
Er1 Si3 3.164992 1_555
Er1 Si2 3.176197 1_555
Er1 Si1 3.177851 1_545
Er1 Rh2 3.351809 1_554
Er1 Rh3 3.352030 1_445
Er1 Rh5 3.366220 1_555
Er1 Rh4 3.367072 1_545
Er2 Si4 2.949950 1_555
Er2 Rh2 3.055040 1_555
Er2 Si7 3.060400 1_556
Er2 Si7 3.061453 1_545
Er2 Si9 3.076604 1_555
Er2 Si8 3.078092 1_455
Er2 Rh3 3.078539 1_456
Er2 Rh3 3.079295 1_445
Er2 Si6 3.107896 1_455
Er2 Si1 3.161068 1_445
Er2 Si2 3.162378 1_455
Er2 Si3 3.176339 1_556
Er2 Si0 3.177056 1_555
Er2 Rh1 3.352669 1_455
Er2 Rh0 3.353088 1_555
Er2 Rh4 3.367859 1_556
Er2 Rh5 3.368071 1_555
Er3 Si5 2.949950 1_555
Er3 Rh3 3.055037 1_555
Er3 Si6 3.060398 1_554
Er3 Si6 3.061454 1_565
Er3 Si8 3.076609 1_555
Er3 Si9 3.078097 1_655
Er3 Rh2 3.078535 1_654
Er3 Rh2 3.079295 1_665
Er3 Si7 3.107893 1_655
Er3 Si0 3.161063 1_665
Er3 Si3 3.162376 1_655
Er3 Si2 3.176333 1_554
Er3 Si1 3.177049 1_555
Er3 Rh0 3.352664 1_655
Er3 Rh1 3.353083 1_555
Er3 Rh5 3.367872 1_554
Er3 Rh4 3.368083 1_555
Si0 Si7 2.490111 1_545
Si0 Si5 2.490724 1_556
Si1 Si6 2.490117 1_565
Si1 Si4 2.490720 1_554
Si2 Si6 2.490098 1_555
Si2 Si4 2.490892 1_555
Si3 Si7 2.490094 1_555
Si3 Si5 2.490898 1_555
Rh0 Si4 2.317425 1_555
Rh0 Si3 2.392764 1_555
Rh0 Si0 2.393141 1_565
Rh0 Si9 2.408721 1_555
Rh0 Si8 2.409966 1_455
Rh1 Si5 2.317417 1_555
Rh1 Si2 2.392776 1_555
Rh1 Si1 2.393152 1_545
Rh1 Si8 2.408721 1_555
Rh1 Si9 2.409963 1_655
Rh2 Si6 2.317585 1_455
Rh2 Si3 2.392565 1_556
Rh2 Si0 2.393009 1_555
Rh2 Si9 2.408385 1_556
Rh2 Si8 2.409045 1_445
Rh3 Si7 2.317591 1_655
Rh3 Si2 2.392557 1_554
Rh3 Si1 2.392999 1_555
Rh3 Si8 2.408383 1_554
Rh3 Si9 2.409041 1_665
Rh4 Si4 2.427078 1_554
Rh4 Si6 2.427270 1_565
Rh4 Si5 2.427935 1_555
Rh4 Si7 2.428273 1_555
Rh4 Si3 2.552661 1_555
Rh4 Si1 2.552920 1_555
Rh5 Si5 2.427090 1_556
Rh5 Si7 2.427260 1_545
Rh5 Si4 2.427918 1_555
Rh5 Si6 2.428280 1_555
Rh5 Si2 2.552657 1_555
Rh5 Si0 2.552927 1_555
