# generated using pymatgen
data_Ba2MgV2(Si2O7)2
_symmetry_space_group_name_H-M   'P 1'
_cell_length_a   5.71081942
_cell_length_b   7.45894916
_cell_length_c   8.33414792
_cell_angle_alpha   104.59417360
_cell_angle_beta   110.96342917
_cell_angle_gamma   85.45544635
_symmetry_Int_Tables_number   1
_chemical_formula_structural   Ba2MgV2(Si2O7)2
_chemical_formula_sum   'Ba2 Mg1 V2 Si4 O14'
_cell_volume   320.78939784
_cell_formula_units_Z   1
loop_
 _symmetry_equiv_pos_site_id
 _symmetry_equiv_pos_as_xyz
  1  'x, y, z'
loop_
 _atom_site_type_symbol
 _atom_site_label
 _atom_site_symmetry_multiplicity
 _atom_site_fract_x
 _atom_site_fract_y
 _atom_site_fract_z
 _atom_site_occupancy
  Ba  Ba0  1  0.81585000  0.68932900  0.62691700  1
  Ba  Ba1  1  0.16094600  0.31159300  0.28731000  1
  Mg  Mg0  1  0.29922600  0.06839000  0.55367600  1
  V  V0  1  0.05455600  0.74286900  0.18013500  1
  V  V1  1  0.91891000  0.21967100  0.75453000  1
  Si  Si0  1  0.41625700  0.46116400  0.77075900  1
  Si  Si1  1  0.58948200  0.49576700  0.18822500  1
  Si  Si2  1  0.40629400  0.91054300  0.83408400  1
  Si  Si3  1  0.65502500  0.06415800  0.25833100  1
  O  O0  1  0.15868600  0.33355200  0.65130500  1
  O  O1  1  0.38917600  0.60535900  0.27588700  1
  O  O2  1  0.12929700  0.98730900  0.72503000  1
  O  O3  1  0.50724300  0.04421700  0.38640400  1
  O  O4  1  0.49988900  0.45309800  0.97521300  1
  O  O5  1  0.50552300  0.95609400  0.05008900  1
  O  O6  1  0.98232500  0.75506200  0.96507200  1
  O  O7  1  0.02451000  0.31108500  0.98197300  1
  O  O8  1  0.36433300  0.67970000  0.75373700  1
  O  O9  1  0.64894100  0.29133400  0.25172900  1
  O  O10  1  0.61741600  0.38171000  0.67310400  1
  O  O11  1  0.85979300  0.60445600  0.27986200  1
  O  O12  1  0.58097700  0.98469900  0.74518600  1
  O  O13  1  0.95384200  0.00069500  0.32363100  1
loop_
_geom_bond_atom_site_label_1
_geom_bond_atom_site_label_2
_geom_bond_distance
_geom_bond_site_symmetry_2
Ba0 O6 2.558719 1_555
Ba0 O12 2.647248 1_555
Ba0 O2 2.734988 1_655
Ba0 O10 2.804715 1_555
Ba0 O11 2.898485 1_555
Ba0 O8 2.926978 1_655
Ba0 O1 3.017619 1_555
Ba0 O8 3.128707 1_555
Ba0 O0 3.174988 1_655
Ba1 O7 2.378989 1_554
Ba1 O11 2.670223 1_455
Ba1 O1 2.675004 1_555
Ba1 O3 2.758053 1_555
Ba1 O13 2.812949 1_455
Ba1 O9 2.843830 1_455
Ba1 O9 2.894706 1_555
Ba1 O0 3.001156 1_555
Mg0 O12 2.007841 1_545
Mg0 O3 2.100368 1_555
Mg0 O0 2.150059 1_555
Mg0 O13 2.187525 1_455
Mg0 O2 2.206091 1_545
O0 Si0 1.660512 1_555
O0 V1 2.175356 1_455
O1 Si1 1.630755 1_555
O1 V0 2.085974 1_555
O2 Si2 1.657173 1_555
O2 V1 2.043170 1_465
O3 Si3 1.618073 1_555
O4 Si0 1.612439 1_555
O4 Si1 1.614251 1_556
O5 Si2 1.633911 1_554
O5 Si3 1.653634 1_565
O6 V0 1.714110 1_656
O7 V1 1.737112 1_455
O8 Si0 1.665818 1_555
O8 Si2 1.685260 1_555
O9 Si3 1.706409 1_555
O9 Si1 1.707819 1_555
O10 Si0 1.628301 1_555
O10 V1 2.033064 1_555
O11 Si1 1.632858 1_555
O11 V0 2.066316 1_655
O12 Si2 1.634886 1_555
O12 V1 2.676177 1_565
O13 Si3 1.664224 1_555
O13 V0 2.148785 1_645
