# generated using pymatgen
data_Bi2O3
_symmetry_space_group_name_H-M   'P 1'
_cell_length_a   11.26512286
_cell_length_b   11.26512286
_cell_length_c   11.26512286
_cell_angle_alpha   90.00000000
_cell_angle_beta   90.00000000
_cell_angle_gamma   90.00000000
_symmetry_Int_Tables_number   1
_chemical_formula_structural   Bi2O3
_chemical_formula_sum   'Bi32 O48'
_cell_volume   1429.57780802
_cell_formula_units_Z   16
loop_
 _symmetry_equiv_pos_site_id
 _symmetry_equiv_pos_as_xyz
  1  'x, y, z'
loop_
 _atom_site_type_symbol
 _atom_site_label
 _atom_site_symmetry_multiplicity
 _atom_site_fract_x
 _atom_site_fract_y
 _atom_site_fract_z
 _atom_site_occupancy
  Bi  Bi0  1  0.24602132  0.75397868  0.25397868  1
  Bi  Bi1  1  0.75397868  0.25397868  0.24602132  1
  Bi  Bi2  1  0.25397868  0.24602132  0.75397868  1
  Bi  Bi3  1  0.74602132  0.74602132  0.74602132  1
  Bi  Bi4  1  0.75397868  0.24602132  0.74602132  1
  Bi  Bi5  1  0.24602132  0.74602132  0.75397868  1
  Bi  Bi6  1  0.74602132  0.75397868  0.24602132  1
  Bi  Bi7  1  0.25397868  0.25397868  0.25397868  1
  Bi  Bi8  1  0.24236766  0.47914024  0.99371817  1
  Bi  Bi9  1  0.75763234  0.97914024  0.50628183  1
  Bi  Bi10  1  0.25763234  0.52085976  0.49371817  1
  Bi  Bi11  1  0.74236766  0.02085976  0.00628183  1
  Bi  Bi12  1  0.99371817  0.24236766  0.47914024  1
  Bi  Bi13  1  0.50628183  0.75763234  0.97914024  1
  Bi  Bi14  1  0.49371817  0.25763234  0.52085976  1
  Bi  Bi15  1  0.00628183  0.74236766  0.02085976  1
  Bi  Bi16  1  0.47914024  0.99371817  0.24236766  1
  Bi  Bi17  1  0.97914024  0.50628183  0.75763234  1
  Bi  Bi18  1  0.52085976  0.49371817  0.25763234  1
  Bi  Bi19  1  0.02085976  0.00628183  0.74236766  1
  Bi  Bi20  1  0.75763234  0.52085976  0.00628183  1
  Bi  Bi21  1  0.24236766  0.02085976  0.49371817  1
  Bi  Bi22  1  0.74236766  0.47914024  0.50628183  1
  Bi  Bi23  1  0.25763234  0.97914024  0.99371817  1
  Bi  Bi24  1  0.00628183  0.75763234  0.52085976  1
  Bi  Bi25  1  0.49371817  0.24236766  0.02085976  1
  Bi  Bi26  1  0.50628183  0.74236766  0.47914024  1
  Bi  Bi27  1  0.99371817  0.25763234  0.97914024  1
  Bi  Bi28  1  0.52085976  0.00628183  0.75763234  1
  Bi  Bi29  1  0.02085976  0.49371817  0.24236766  1
  Bi  Bi30  1  0.47914024  0.50628183  0.74236766  1
  Bi  Bi31  1  0.97914024  0.99371817  0.25763234  1
  O  O0  1  0.36932129  0.11847797  0.08633444  1
  O  O1  1  0.63067871  0.61847797  0.41366556  1
  O  O2  1  0.13067871  0.88152203  0.58633444  1
  O  O3  1  0.86932129  0.38152203  0.91366556  1
  O  O4  1  0.08633444  0.36932129  0.11847797  1
  O  O5  1  0.41366556  0.63067871  0.61847797  1
  O  O6  1  0.58633444  0.13067871  0.88152203  1
  O  O7  1  0.91366556  0.86932129  0.38152203  1
  O  O8  1  0.11847797  0.08633444  0.36932129  1
  O  O9  1  0.61847797  0.41366556  0.63067871  1
  O  O10  1  0.88152203  0.58633444  0.13067871  1
  O  O11  1  0.38152203  0.91366556  0.86932129  1
  O  O12  1  0.63067871  0.88152203  0.91366556  1
  O  O13  1  0.36932129  0.38152203  0.58633444  1
  O  O14  1  0.86932129  0.11847797  0.41366556  1
  O  O15  1  0.13067871  0.61847797  0.08633444  1
  O  O16  1  0.91366556  0.63067871  0.88152203  1
  O  O17  1  0.58633444  0.36932129  0.38152203  1
  O  O18  1  0.41366556  0.86932129  0.11847797  1
  O  O19  1  0.08633444  0.13067871  0.61847797  1
  O  O20  1  0.88152203  0.91366556  0.63067871  1
  O  O21  1  0.38152203  0.58633444  0.36932129  1
  O  O22  1  0.11847797  0.41366556  0.86932129  1
  O  O23  1  0.61847797  0.08633444  0.13067871  1
  O  O24  1  0.81565997  0.59988724  0.64259812  1
  O  O25  1  0.18434003  0.09988724  0.85740188  1
  O  O26  1  0.68434003  0.40011276  0.14259812  1
  O  O27  1  0.31565997  0.90011276  0.35740188  1
  O  O28  1  0.64259812  0.81565997  0.59988724  1
  O  O29  1  0.85740188  0.18434003  0.09988724  1
  O  O30  1  0.14259812  0.68434003  0.40011276  1
  O  O31  1  0.35740188  0.31565997  0.90011276  1
  O  O32  1  0.59988724  0.64259812  0.81565997  1
  O  O33  1  0.09988724  0.85740188  0.18434003  1
  O  O34  1  0.40011276  0.14259812  0.68434003  1
  O  O35  1  0.90011276  0.35740188  0.31565997  1
  O  O36  1  0.18434003  0.40011276  0.35740188  1
  O  O37  1  0.81565997  0.90011276  0.14259812  1
  O  O38  1  0.31565997  0.59988724  0.85740188  1
  O  O39  1  0.68434003  0.09988724  0.64259812  1
  O  O40  1  0.35740188  0.18434003  0.40011276  1
  O  O41  1  0.14259812  0.81565997  0.90011276  1
  O  O42  1  0.85740188  0.31565997  0.59988724  1
  O  O43  1  0.64259812  0.68434003  0.09988724  1
  O  O44  1  0.40011276  0.35740188  0.18434003  1
  O  O45  1  0.90011276  0.14259812  0.81565997  1
  O  O46  1  0.59988724  0.85740188  0.31565997  1
  O  O47  1  0.09988724  0.64259812  0.68434003  1
loop_
_geom_bond_atom_site_label_1
_geom_bond_atom_site_label_2
_geom_bond_distance
_geom_bond_site_symmetry_2
Bi0 O27 2.163991 1_555
Bi0 O33 2.163991 1_555
Bi0 O30 2.163991 1_555
Bi0 O15 2.754062 1_555
Bi0 O21 2.754062 1_555
Bi0 O18 2.754062 1_555
Bi1 O35 2.163991 1_555
Bi1 O29 2.163991 1_555
Bi1 O26 2.163991 1_555
Bi1 O23 2.754062 1_555
Bi1 O17 2.754062 1_555
Bi1 O14 2.754062 1_555
Bi2 O31 2.163991 1_555
Bi2 O25 2.163991 1_555
Bi2 O34 2.163991 1_555
Bi2 O19 2.754062 1_555
Bi2 O13 2.754062 1_555
Bi2 O22 2.754062 1_555
Bi3 O32 2.163991 1_555
Bi3 O24 2.163991 1_555
Bi3 O28 2.163991 1_555
Bi3 O16 2.754062 1_555
Bi3 O12 2.754062 1_555
Bi3 O20 2.754062 1_555
Bi4 O42 2.163991 1_555
Bi4 O45 2.163991 1_555
Bi4 O39 2.163991 1_555
Bi4 O9 2.754062 1_555
Bi4 O6 2.754062 1_555
Bi4 O3 2.754062 1_555
Bi5 O38 2.163991 1_555
Bi5 O41 2.163991 1_555
Bi5 O47 2.163991 1_555
Bi5 O5 2.754062 1_555
Bi5 O2 2.754062 1_555
Bi5 O11 2.754062 1_555
Bi6 O46 2.163991 1_555
Bi6 O37 2.163991 1_555
Bi6 O43 2.163991 1_555
Bi6 O10 2.754062 1_555
Bi6 O1 2.754062 1_555
Bi6 O7 2.754062 1_555
Bi7 O44 2.163991 1_555
Bi7 O36 2.163991 1_555
Bi7 O40 2.163991 1_555
Bi7 O8 2.754062 1_555
Bi7 O0 2.754062 1_555
Bi7 O4 2.754062 1_555
Bi8 O22 2.110826 1_555
Bi8 O38 2.211345 1_555
Bi8 O15 2.266144 1_556
Bi8 O31 2.486523 1_555
Bi8 O4 2.568141 1_556
Bi9 O20 2.110826 1_555
Bi9 O39 2.211345 1_565
Bi9 O14 2.266144 1_565
Bi9 O28 2.486523 1_555
Bi9 O7 2.568141 1_555
Bi10 O21 2.110826 1_555
Bi10 O36 2.211345 1_555
Bi10 O13 2.266144 1_555
Bi10 O30 2.486523 1_555
Bi10 O5 2.568141 1_555
Bi11 O23 2.110826 1_555
Bi11 O37 2.211345 1_545
Bi11 O12 2.266144 1_544
Bi11 O29 2.486523 1_555
Bi11 O6 2.568141 1_554
Bi12 O14 2.110826 1_555
Bi12 O42 2.211345 1_555
Bi12 O19 2.266144 1_655
Bi12 O35 2.486523 1_555
Bi12 O8 2.568141 1_655
Bi13 O12 2.110826 1_555
Bi13 O43 2.211345 1_556
Bi13 O18 2.266144 1_556
Bi13 O32 2.486523 1_555
Bi13 O11 2.568141 1_555
Bi14 O13 2.110826 1_555
Bi14 O40 2.211345 1_555
Bi14 O17 2.266144 1_555
Bi14 O34 2.486523 1_555
Bi14 O9 2.568141 1_555
Bi15 O15 2.110826 1_555
Bi15 O41 2.211345 1_554
Bi15 O16 2.266144 1_454
Bi15 O33 2.486523 1_555
Bi15 O10 2.568141 1_455
Bi16 O18 2.110826 1_555
Bi16 O46 2.211345 1_555
Bi16 O23 2.266144 1_565
Bi16 O27 2.486523 1_555
Bi16 O0 2.568141 1_565
Bi17 O16 2.110826 1_555
Bi17 O47 2.211345 1_655
Bi17 O22 2.266144 1_655
Bi17 O24 2.486523 1_555
Bi17 O3 2.568141 1_555
Bi18 O17 2.110826 1_555
Bi18 O44 2.211345 1_555
Bi18 O21 2.266144 1_555
Bi18 O26 2.486523 1_555
Bi18 O1 2.568141 1_555
Bi19 O19 2.110826 1_555
Bi19 O45 2.211345 1_455
Bi19 O20 2.266144 1_445
Bi19 O25 2.486523 1_555
Bi19 O2 2.568141 1_545
Bi20 O10 2.110826 1_555
Bi20 O26 2.211345 1_555
Bi20 O3 2.266144 1_554
Bi20 O43 2.486523 1_555
Bi20 O16 2.568141 1_554
Bi21 O8 2.110826 1_555
Bi21 O27 2.211345 1_545
Bi21 O2 2.266144 1_545
Bi21 O40 2.486523 1_555
Bi21 O19 2.568141 1_555
Bi22 O9 2.110826 1_555
Bi22 O24 2.211345 1_555
Bi22 O1 2.266144 1_555
Bi22 O42 2.486523 1_555
Bi22 O17 2.568141 1_555
Bi23 O11 2.110826 1_555
Bi23 O25 2.211345 1_565
Bi23 O0 2.266144 1_566
Bi23 O41 2.486523 1_555
Bi23 O18 2.568141 1_556
Bi24 O2 2.110826 1_555
Bi24 O30 2.211345 1_555
Bi24 O7 2.266144 1_455
Bi24 O47 2.486523 1_555
Bi24 O20 2.568141 1_455
Bi25 O0 2.110826 1_555
Bi25 O31 2.211345 1_554
Bi25 O6 2.266144 1_554
Bi25 O44 2.486523 1_555
Bi25 O23 2.568141 1_555
Bi26 O1 2.110826 1_555
Bi26 O28 2.211345 1_555
Bi26 O5 2.266144 1_555
Bi26 O46 2.486523 1_555
Bi26 O21 2.568141 1_555
Bi27 O3 2.110826 1_555
Bi27 O29 2.211345 1_556
Bi27 O4 2.266144 1_656
Bi27 O45 2.486523 1_555
Bi27 O22 2.568141 1_655
Bi28 O6 2.110826 1_555
Bi28 O34 2.211345 1_555
Bi28 O11 2.266144 1_545
Bi28 O39 2.486523 1_555
Bi28 O12 2.568141 1_545
Bi29 O4 2.110826 1_555
Bi29 O35 2.211345 1_455
Bi29 O10 2.266144 1_455
Bi29 O36 2.486523 1_555
Bi29 O15 2.568141 1_555
Bi30 O5 2.110826 1_555
Bi30 O32 2.211345 1_555
Bi30 O9 2.266144 1_555
Bi30 O38 2.486523 1_555
Bi30 O13 2.568141 1_555
Bi31 O7 2.110826 1_555
Bi31 O33 2.211345 1_655
Bi31 O8 2.266144 1_665
Bi31 O37 2.486523 1_555
Bi31 O14 2.568141 1_565
