# generated using pymatgen
data_Eu4Ti3O10
_symmetry_space_group_name_H-M   'P 1'
_cell_length_a   14.23831672
_cell_length_b   14.23831672
_cell_length_c   14.23831672
_cell_angle_alpha   164.09651859
_cell_angle_beta   164.09651859
_cell_angle_gamma   22.56432429
_symmetry_Int_Tables_number   1
_chemical_formula_structural   Eu4Ti3O10
_chemical_formula_sum   'Eu4 Ti3 O10'
_cell_volume   216.69573335
_cell_formula_units_Z   1
loop_
 _symmetry_equiv_pos_site_id
 _symmetry_equiv_pos_as_xyz
  1  'x, y, z'
loop_
 _atom_site_type_symbol
 _atom_site_label
 _atom_site_symmetry_multiplicity
 _atom_site_fract_x
 _atom_site_fract_y
 _atom_site_fract_z
 _atom_site_occupancy
  Eu  Eu0  1  0.29828500  0.29828500  0.00000000  1
  Eu  Eu1  1  0.70171500  0.70171500  0.00000000  1
  Eu  Eu2  1  0.43194300  0.43194300  0.00000000  1
  Eu  Eu3  1  0.56805700  0.56805700  0.00000000  1
  Ti  Ti0  1  0.14074100  0.14074100  0.00000000  1
  Ti  Ti1  1  0.85925900  0.85925900  0.00000000  1
  Ti  Ti2  1  0.00000000  0.00000000  0.00000000  1
  O  O0  1  0.21208000  0.21208000  0.00000000  1
  O  O1  1  0.78792000  0.78792000  0.00000000  1
  O  O2  1  0.63997200  0.13997200  0.50000000  1
  O  O3  1  0.36002800  0.86002800  0.50000000  1
  O  O4  1  0.13997200  0.63997200  0.50000000  1
  O  O5  1  0.86002800  0.36002800  0.50000000  1
  O  O6  1  0.06999600  0.06999600  0.00000000  1
  O  O7  1  0.93000400  0.93000400  0.00000000  1
  O  O8  1  0.50000000  0.00000000  0.50000000  1
  O  O9  1  0.00000000  0.50000000  0.50000000  1
loop_
_geom_bond_atom_site_label_1
_geom_bond_atom_site_label_2
_geom_bond_distance
_geom_bond_site_symmetry_2
Eu0 O0 2.407390 1_555
Eu0 O3 2.617791 1_544
Eu0 O5 2.617791 1_454
Eu0 O3 2.617791 1_555
Eu0 O5 2.617791 1_555
Eu0 O1 2.800595 1_556
Eu0 O1 2.800595 1_444
Eu0 O1 2.800595 1_545
Eu0 O1 2.800595 1_455
Eu1 O1 2.407390 1_555
Eu1 O4 2.617791 1_655
Eu1 O2 2.617791 1_565
Eu1 O2 2.617791 1_554
Eu1 O4 2.617791 1_554
Eu1 O0 2.800595 1_666
Eu1 O0 2.800595 1_554
Eu1 O0 2.800595 1_565
Eu1 O0 2.800595 1_655
Eu2 O9 2.737150 1_554
Eu2 O8 2.737150 1_565
Eu2 O9 2.737150 1_655
Eu2 O8 2.737150 1_554
Eu2 O7 2.786123 1_444
Eu2 O7 2.786123 1_545
Eu2 O7 2.786123 1_455
Eu2 O7 2.786123 1_556
Eu2 O5 2.813029 1_454
Eu2 O3 2.813029 1_544
Eu2 O3 2.813029 1_555
Eu2 O5 2.813029 1_555
Eu3 O9 2.737150 1_554
Eu3 O8 2.737150 1_554
Eu3 O8 2.737150 1_565
Eu3 O9 2.737150 1_655
Eu3 O6 2.786123 1_565
Eu3 O6 2.786123 1_554
Eu3 O6 2.786123 1_655
Eu3 O6 2.786123 1_666
Eu3 O4 2.813029 1_655
Eu3 O2 2.813029 1_565
Eu3 O2 2.813029 1_554
Eu3 O4 2.813029 1_554
O0 Ti0 1.992237 1_555
O1 Ti1 1.992237 1_555
O2 Ti0 1.969831 1_656
O2 Ti0 1.969831 1_555
O3 Ti1 1.969831 1_455
O3 Ti1 1.969831 1_556
O4 Ti0 1.969831 1_566
O4 Ti0 1.969831 1_555
O5 Ti1 1.969831 1_545
O5 Ti1 1.969831 1_556
O6 Ti2 1.954732 1_555
O6 Ti0 1.975649 1_555
O7 Ti2 1.954732 1_665
O7 Ti1 1.975649 1_555
O8 Ti2 1.969714 1_555
O8 Ti2 1.969714 1_656
O9 Ti2 1.969714 1_555
O9 Ti2 1.969714 1_566
