# generated using pymatgen
data_Li3Mn(PO4)2
_symmetry_space_group_name_H-M   'P 1'
_cell_length_a   7.68627039
_cell_length_b   7.64764098
_cell_length_c   11.07922869
_cell_angle_alpha   74.67887439
_cell_angle_beta   76.92651996
_cell_angle_gamma   103.82967593
_symmetry_Int_Tables_number   1
_chemical_formula_structural   Li3Mn(PO4)2
_chemical_formula_sum   'Li12 Mn4 P8 O32'
_cell_volume   580.05957820
_cell_formula_units_Z   4
loop_
 _symmetry_equiv_pos_site_id
 _symmetry_equiv_pos_as_xyz
  1  'x, y, z'
loop_
 _atom_site_type_symbol
 _atom_site_label
 _atom_site_symmetry_multiplicity
 _atom_site_fract_x
 _atom_site_fract_y
 _atom_site_fract_z
 _atom_site_occupancy
  Li  Li0  1  0.99995200  0.99995600  0.00001300  1
  Li  Li1  1  0.50001100  0.50000300  0.99999600  1
  Li  Li2  1  0.24997300  0.74997600  0.00000100  1
  Li  Li3  1  0.74999500  0.25000600  0.99999000  1
  Li  Li4  1  0.51341600  0.75155000  0.21567900  1
  Li  Li5  1  0.01338400  0.25154800  0.21566900  1
  Li  Li6  1  0.98658800  0.74844800  0.78433200  1
  Li  Li7  1  0.48661100  0.24844400  0.78431700  1
  Li  Li8  1  0.99999500  0.99998700  0.50001200  1
  Li  Li9  1  0.50002400  0.50002500  0.49997800  1
  Li  Li10  1  0.25000500  0.74999700  0.50000400  1
  Li  Li11  1  0.74999200  0.25002500  0.50000500  1
  Mn  Mn0  1  0.97574200  0.72014100  0.28275100  1
  Mn  Mn1  1  0.52426900  0.77988600  0.71720400  1
  Mn  Mn2  1  0.47573100  0.22006400  0.28275600  1
  Mn  Mn3  1  0.02437300  0.27992300  0.71720500  1
  P  P0  1  0.28175600  0.02203900  0.10321600  1
  P  P1  1  0.78172600  0.52203100  0.10324500  1
  P  P2  1  0.21824600  0.47794800  0.89677500  1
  P  P3  1  0.71825900  0.97797400  0.89676000  1
  P  P4  1  0.63276700  0.88744100  0.40952400  1
  P  P5  1  0.13275300  0.38744900  0.40951800  1
  P  P6  1  0.86724700  0.61256600  0.59048800  1
  P  P7  1  0.36725200  0.11256600  0.59047900  1
  O  O0  1  0.70905400  0.94506500  0.04100000  1
  O  O1  1  0.20904300  0.44504400  0.04101300  1
  O  O2  1  0.79093100  0.55493600  0.95900500  1
  O  O3  1  0.29092500  0.05493800  0.95898800  1
  O  O4  1  0.43598500  0.18582500  0.11651000  1
  O  O5  1  0.93597000  0.68582200  0.11652700  1
  O  O6  1  0.06403700  0.31417900  0.88346900  1
  O  O7  1  0.56402200  0.81417600  0.88347200  1
  O  O8  1  0.28979500  0.54428100  0.41594100  1
  O  O9  1  0.78979800  0.04430600  0.41593000  1
  O  O10  1  0.21020400  0.95570800  0.58407600  1
  O  O11  1  0.71021100  0.45572500  0.58405700  1
  O  O12  1  0.00211400  0.75275000  0.44745700  1
  O  O13  1  0.50208100  0.25273200  0.44745000  1
  O  O14  1  0.49789700  0.74726400  0.55254200  1
  O  O15  1  0.99791900  0.24727900  0.55256100  1
  O  O16  1  0.07561900  0.00906100  0.18114500  1
  O  O17  1  0.57559700  0.50903400  0.18116900  1
  O  O18  1  0.29217000  0.81955500  0.16573400  1
  O  O19  1  0.79213400  0.31953300  0.16574700  1
  O  O20  1  0.20785200  0.68044600  0.83425700  1
  O  O21  1  0.70783800  0.18046100  0.83426700  1
  O  O22  1  0.42438300  0.49093600  0.81885300  1
  O  O23  1  0.92439900  0.99093300  0.81886000  1
  O  O24  1  0.49046000  0.96069700  0.34256200  1
  O  O25  1  0.99046400  0.46073900  0.34257500  1
  O  O26  1  0.69535700  0.75276100  0.33928900  1
  O  O27  1  0.19534100  0.25277000  0.33928200  1
  O  O28  1  0.80462800  0.74721900  0.66073300  1
  O  O29  1  0.30465100  0.24725400  0.66071200  1
  O  O30  1  0.00953100  0.53929000  0.65745200  1
  O  O31  1  0.50952300  0.03928500  0.65744600  1
loop_
_geom_bond_atom_site_label_1
_geom_bond_atom_site_label_2
_geom_bond_distance
_geom_bond_site_symmetry_2
Li0 O0 2.091165 1_555
Li0 O3 2.091614 1_664
Li0 O23 2.225198 1_554
Li0 O16 2.225503 1_665
Li0 O5 2.277896 1_555
Li0 O6 2.278426 1_664
Li1 O2 2.091290 1_555
Li1 O1 2.091604 1_556
Li1 O22 2.225424 1_555
Li1 O17 2.225542 1_556
Li1 O4 2.278128 1_556
Li1 O7 2.278141 1_555
Li2 O20 2.112412 1_554
Li2 O18 2.112630 1_555
Li2 O1 2.183652 1_555
Li2 O3 2.183848 1_564
Li2 O5 2.328523 1_455
Li2 O7 2.328772 1_554
Li3 O21 2.112318 1_555
Li3 O19 2.112582 1_556
Li3 O2 2.183662 1_555
Li3 O0 2.183708 1_546
Li3 O4 2.328514 1_556
Li3 O6 2.328740 1_655
Li4 O18 2.040838 1_555
Li4 O0 2.074312 1_555
Li4 O17 2.128446 1_555
Li4 O26 2.167538 1_555
Li4 O8 2.345930 1_555
Li4 O24 2.403454 1_555
Li5 O19 2.040709 1_455
Li5 O1 2.074177 1_555
Li5 O16 2.128448 1_555
Li5 O27 2.167662 1_555
Li5 O9 2.345775 1_455
Li5 O25 2.403898 1_455
Li6 O20 2.040874 1_655
Li6 O2 2.074317 1_555
Li6 O23 2.128311 1_555
Li6 O28 2.167560 1_555
Li6 O10 2.345859 1_655
Li6 O30 2.403490 1_655
Li7 O21 2.040656 1_555
Li7 O3 2.074367 1_555
Li7 O22 2.128512 1_555
Li7 O29 2.167607 1_555
Li7 O11 2.345882 1_555
Li7 O31 2.403398 1_555
Li8 O10 2.090061 1_655
Li8 O9 2.090162 1_565
Li8 O12 2.122872 1_655
Li8 O15 2.123191 1_565
Li8 O28 2.178537 1_555
Li8 O27 2.178591 1_665
Li9 O8 2.089989 1_555
Li9 O11 2.090040 1_555
Li9 O14 2.122947 1_555
Li9 O13 2.123057 1_555
Li9 O26 2.178185 1_555
Li9 O29 2.178624 1_555
Li10 O8 2.076422 1_555
Li10 O10 2.076468 1_555
Li10 O14 2.117552 1_555
Li10 O12 2.117615 1_555
Li10 O24 2.165047 1_555
Li10 O30 2.165164 1_555
Li11 O11 2.076220 1_555
Li11 O9 2.076553 1_555
Li11 O13 2.117752 1_555
Li11 O15 2.117921 1_555
Li11 O25 2.165091 1_555
Li11 O31 2.165195 1_555
Mn0 O12 1.953687 1_655
Mn0 O25 1.958066 1_555
Mn0 O5 2.006420 1_555
Mn0 O16 2.054842 1_665
Mn0 O26 2.197273 1_555
Mn0 O18 2.311447 1_655
Mn1 O14 1.953239 1_555
Mn1 O31 1.958052 1_565
Mn1 O7 2.006778 1_555
Mn1 O22 2.055120 1_555
Mn1 O28 2.197168 1_555
Mn1 O20 2.311456 1_555
Mn2 O13 1.953665 1_555
Mn2 O24 1.957818 1_545
Mn2 O4 2.006389 1_555
Mn2 O17 2.055127 1_555
Mn2 O27 2.197576 1_555
Mn2 O19 2.311234 1_555
Mn3 O15 1.953279 1_455
Mn3 O30 1.958096 1_555
Mn3 O6 2.006422 1_555
Mn3 O23 2.055384 1_445
Mn3 O29 2.196609 1_555
Mn3 O21 2.312235 1_455
O0 P3 1.532958 1_554
O1 P2 1.532944 1_554
O2 P1 1.532962 1_556
O3 P0 1.532899 1_556
O4 P0 1.569247 1_555
O5 P1 1.569276 1_555
O6 P2 1.569136 1_555
O7 P3 1.569310 1_555
O8 P5 1.514086 1_555
O9 P4 1.514107 1_545
O10 P7 1.514140 1_565
O11 P6 1.514139 1_555
O12 P6 1.600897 1_455
O13 P7 1.600770 1_555
O14 P4 1.600793 1_555
O15 P5 1.600891 1_655
O16 P0 1.589453 1_555
O17 P1 1.589337 1_555
O18 P0 1.549718 1_565
O19 P1 1.549761 1_555
O20 P2 1.549753 1_555
O21 P3 1.549706 1_545
O22 P2 1.589405 1_555
O23 P3 1.589422 1_555
O24 P4 1.581491 1_555
O25 P5 1.581359 1_655
O26 P4 1.545608 1_555
O27 P5 1.545603 1_555
O28 P6 1.545575 1_555
O29 P7 1.545679 1_555
O30 P6 1.581407 1_455
O31 P7 1.581352 1_555
