# generated using pymatgen
data_Li8Ag5
_symmetry_space_group_name_H-M   'P 1'
_cell_length_a   8.20357991
_cell_length_b   8.20357991
_cell_length_c   8.20357991
_cell_angle_alpha   109.47122063
_cell_angle_beta   109.47122063
_cell_angle_gamma   109.47122063
_symmetry_Int_Tables_number   1
_chemical_formula_structural   Li8Ag5
_chemical_formula_sum   'Li16 Ag10'
_cell_volume   424.99943040
_cell_formula_units_Z   2
loop_
 _symmetry_equiv_pos_site_id
 _symmetry_equiv_pos_as_xyz
  1  'x, y, z'
loop_
 _atom_site_type_symbol
 _atom_site_label
 _atom_site_symmetry_multiplicity
 _atom_site_fract_x
 _atom_site_fract_y
 _atom_site_fract_z
 _atom_site_occupancy
  Li  Li0  1  0.37129194  0.65290887  0.65290887  1
  Li  Li1  1  0.62870806  0.28161692  0.28161692  1
  Li  Li2  1  -0.00000000  0.34709113  0.71838308  1
  Li  Li3  1  0.65290887  0.65290887  0.37129194  1
  Li  Li4  1  -0.00000000  0.71838308  0.34709113  1
  Li  Li5  1  0.28161692  0.28161692  0.62870806  1
  Li  Li6  1  0.34709113  0.71838308  -0.00000000  1
  Li  Li7  1  0.71838308  0.34709113  -0.00000000  1
  Li  Li8  1  0.65290887  0.37129194  0.65290887  1
  Li  Li9  1  0.71838308  -0.00000000  0.34709113  1
  Li  Li10  1  0.34709113  -0.00000000  0.71838308  1
  Li  Li11  1  0.28161692  0.62870806  0.28161692  1
  Li  Li12  1  0.77133412  0.77133412  0.77133412  1
  Li  Li13  1  0.22866588  -0.00000000  -0.00000000  1
  Li  Li14  1  0.00000000  0.22866588  0.00000000  1
  Li  Li15  1  -0.00000000  -0.00000000  0.22866588  1
  Ag  Ag0  1  0.34378024  0.34378024  0.34378024  1
  Ag  Ag1  1  0.65621976  0.00000000  0.00000000  1
  Ag  Ag2  1  0.00000000  0.65621976  -0.00000000  1
  Ag  Ag3  1  0.00000000  0.00000000  0.65621976  1
  Ag  Ag4  1  0.64586098  0.64586098  0.00000000  1
  Ag  Ag5  1  0.35413902  0.35413902  0.00000000  1
  Ag  Ag6  1  0.64586098  -0.00000000  0.64586098  1
  Ag  Ag7  1  0.35413902  -0.00000000  0.35413902  1
  Ag  Ag8  1  -0.00000000  0.64586098  0.64586098  1
  Ag  Ag9  1  0.00000000  0.35413902  0.35413902  1
loop_
_geom_bond_atom_site_label_1
_geom_bond_atom_site_label_2
_geom_bond_distance
_geom_bond_site_symmetry_2
Li0 Li12 2.788811 1_555
Li0 Li10 2.804266 1_565
Li0 Li6 2.804266 1_556
Li0 Li5 2.804266 1_555
Li0 Li11 2.804266 1_555
Li1 Li13 2.788811 1_555
Li1 Li9 2.804266 1_555
Li1 Li7 2.804266 1_555
Li1 Li8 2.804266 1_555
Li1 Li3 2.804266 1_555
Li2 Li8 2.804266 1_455
Li2 Li5 2.804266 1_555
Li2 Li6 2.804266 1_556
Li2 Li9 2.804266 1_455
Li3 Li9 2.804266 1_565
Li3 Li4 2.804266 1_655
Li4 Li7 2.804266 1_455
Li5 Li8 2.804266 1_555
Li6 Li9 2.804266 1_565
Li7 Li8 2.804266 1_554
Li10 Li13 2.788811 1_556
Li10 Li5 2.804266 1_555
Li10 Li7 2.804266 1_556
Li10 Li4 2.804266 1_545
Li11 Li14 2.788811 1_555
Li11 Li6 2.804266 1_555
Li11 Li4 2.804266 1_555
Li11 Li3 2.804266 1_555
Li12 Li8 2.788811 1_555
Li12 Li3 2.788811 1_555
Li12 Li13 3.063297 1_666
Li12 Li15 3.063297 1_666
Li12 Li14 3.063297 1_666
Li13 Li6 2.788811 1_545
Li13 Li15 3.063297 1_555
Li13 Li14 3.063297 1_555
Li14 Li7 2.788811 1_455
Li14 Li2 2.788811 1_554
Li14 Li15 3.063297 1_555
Li15 Li4 2.788811 1_545
Li15 Li9 2.788811 1_455
Li15 Li5 2.788811 1_555
Ag0 Li5 2.720230 1_555
Ag0 Li1 2.720230 1_555
Ag0 Li11 2.720230 1_555
Ag0 Li8 2.804033 1_555
Ag0 Li3 2.804033 1_555
Ag0 Li0 2.804033 1_555
Ag0 Li15 2.818807 1_555
Ag0 Li13 2.818807 1_555
Ag0 Li14 2.818807 1_555
Ag0 Ag5 2.877997 1_555
Ag0 Ag7 2.877997 1_555
Ag0 Ag9 2.877997 1_555
Ag1 Li9 2.720230 1_555
Ag1 Li7 2.720230 1_555
Ag1 Li0 2.720230 1_544
Ag1 Li1 2.804033 1_555
Ag1 Li6 2.804033 1_545
Ag1 Li10 2.804033 1_554
Ag1 Li14 2.818807 1_655
Ag1 Li12 2.818807 1_544
Ag1 Li15 2.818807 1_655
Ag1 Ag4 2.877997 1_545
Ag1 Ag6 2.877997 1_554
Ag1 Ag9 2.877997 1_655
Ag2 Li6 2.720230 1_555
Ag2 Li4 2.720230 1_555
Ag2 Li8 2.720230 1_454
Ag2 Li11 2.804033 1_555
Ag2 Li7 2.804033 1_455
Ag2 Li2 2.804033 1_554
Ag2 Li13 2.818807 1_565
Ag2 Li15 2.818807 1_565
Ag2 Li12 2.818807 1_454
Ag2 Ag8 2.877997 1_554
Ag2 Ag7 2.877997 1_565
Ag2 Ag4 2.877997 1_455
Ag3 Li10 2.720230 1_555
Ag3 Li2 2.720230 1_555
Ag3 Li3 2.720230 1_445
Ag3 Li5 2.804033 1_555
Ag3 Li4 2.804033 1_545
Ag3 Li9 2.804033 1_455
Ag3 Li13 2.818807 1_556
Ag3 Li14 2.818807 1_556
Ag3 Li12 2.818807 1_445
Ag3 Ag8 2.877997 1_545
Ag3 Ag6 2.877997 1_455
Ag3 Ag5 2.877997 1_556
Ag4 Li7 2.708024 1_555
Ag4 Li6 2.708024 1_555
Ag4 Li15 2.739734 1_665
Ag4 Li12 2.739734 1_554
Ag4 Ag5 2.763388 1_555
Ag4 Li3 3.007872 1_555
Ag4 Li5 3.007872 1_554
Ag4 Li4 3.017505 1_655
Ag4 Li9 3.017505 1_565
Ag4 Li8 3.017506 1_554
Ag4 Li0 3.017506 1_554
Ag5 Li5 2.708024 1_554
Ag5 Li3 2.708024 1_555
Ag5 Li13 2.739734 1_555
Ag5 Li14 2.739734 1_555
Ag5 Li6 3.007872 1_555
Ag5 Li7 3.007872 1_555
Ag5 Li2 3.017505 1_554
Ag5 Li10 3.017505 1_554
Ag5 Li1 3.017506 1_555
Ag5 Li11 3.017506 1_555
Ag6 Li9 2.708024 1_555
Ag6 Li10 2.708024 1_555
Ag6 Li14 2.739734 1_656
Ag6 Li12 2.739734 1_545
Ag6 Ag7 2.763388 1_555
Ag6 Li8 3.007872 1_555
Ag6 Li11 3.007872 1_545
Ag6 Li2 3.017505 1_655
Ag6 Li7 3.017505 1_556
Ag6 Li0 3.017506 1_545
Ag6 Li3 3.017506 1_545
Ag7 Li11 2.708024 1_545
Ag7 Li8 2.708024 1_555
Ag7 Li15 2.739734 1_555
Ag7 Li13 2.739734 1_555
Ag7 Li9 3.007872 1_555
Ag7 Li10 3.007872 1_555
Ag7 Li6 3.017505 1_545
Ag7 Li4 3.017505 1_545
Ag7 Li1 3.017506 1_555
Ag7 Li5 3.017506 1_555
Ag8 Li4 2.708024 1_555
Ag8 Li2 2.708024 1_555
Ag8 Li12 2.739734 1_455
Ag8 Li13 2.739734 1_566
Ag8 Ag9 2.763388 1_555
Ag8 Li0 3.007872 1_555
Ag8 Li1 3.007872 1_455
Ag8 Li10 3.017505 1_565
Ag8 Li6 3.017505 1_556
Ag8 Li8 3.017506 1_455
Ag8 Li3 3.017506 1_455
Ag9 Li1 2.708024 1_455
Ag9 Li0 2.708024 1_555
Ag9 Li15 2.739734 1_555
Ag9 Li14 2.739734 1_555
Ag9 Li4 3.007872 1_555
Ag9 Li2 3.007872 1_555
Ag9 Li9 3.017505 1_455
Ag9 Li7 3.017505 1_455
Ag9 Li5 3.017506 1_555
Ag9 Li11 3.017506 1_555
