# generated using pymatgen
data_LiMgAlF6
_symmetry_space_group_name_H-M   'P 1'
_cell_length_a   8.46017881
_cell_length_b   8.46017881
_cell_length_c   4.57500500
_cell_angle_alpha   90.00000000
_cell_angle_beta   90.00000000
_cell_angle_gamma   120.00000631
_symmetry_Int_Tables_number   1
_chemical_formula_structural   LiMgAlF6
_chemical_formula_sum   'Li3 Mg3 Al3 F18'
_cell_volume   283.58369773
_cell_formula_units_Z   3
loop_
 _symmetry_equiv_pos_site_id
 _symmetry_equiv_pos_as_xyz
  1  'x, y, z'
loop_
 _atom_site_type_symbol
 _atom_site_label
 _atom_site_symmetry_multiplicity
 _atom_site_fract_x
 _atom_site_fract_y
 _atom_site_fract_z
 _atom_site_occupancy
  Li  Li0  1  0.30043600  0.30043600  0.50000000  1
  Li  Li1  1  0.00000000  0.69956400  0.50000000  1
  Li  Li2  1  0.69956400  0.00000000  0.50000000  1
  Mg  Mg0  1  0.64244300  0.64244300  0.00000000  1
  Mg  Mg1  1  0.00000000  0.35755700  0.00000000  1
  Mg  Mg2  1  0.35755700  0.00000000  0.00000000  1
  Al  Al0  1  0.00000000  0.00000000  0.00000000  1
  Al  Al1  1  0.33333300  0.66666700  0.49433400  1
  Al  Al2  1  0.66666700  0.33333300  0.50566600  1
  F  F0  1  0.09589900  0.20858200  0.21781000  1
  F  F1  1  0.11268300  0.90410100  0.21781000  1
  F  F2  1  0.79141800  0.88731700  0.21781000  1
  F  F3  1  0.88731700  0.79141800  0.78219000  1
  F  F4  1  0.90410100  0.11268300  0.78219000  1
  F  F5  1  0.20858200  0.09589900  0.78219000  1
  F  F6  1  0.44409200  0.87224000  0.26665700  1
  F  F7  1  0.42814900  0.55590800  0.26665700  1
  F  F8  1  0.12776000  0.57185100  0.26665700  1
  F  F9  1  0.57185100  0.12776000  0.73334300  1
  F  F10  1  0.55590800  0.42814900  0.73334300  1
  F  F11  1  0.87224000  0.44409200  0.73334300  1
  F  F12  1  0.21904200  0.46049700  0.71947600  1
  F  F13  1  0.24145400  0.78095800  0.71947600  1
  F  F14  1  0.53950300  0.75854600  0.71947600  1
  F  F15  1  0.75854600  0.53950300  0.28052400  1
  F  F16  1  0.78095800  0.24145400  0.28052400  1
  F  F17  1  0.46049700  0.21904200  0.28052400  1
loop_
_geom_bond_atom_site_label_1
_geom_bond_atom_site_label_2
_geom_bond_distance
_geom_bond_site_symmetry_2
Al0 F2 1.825783 1_445
Al0 F3 1.825783 1_444
Al0 F5 1.825783 1_554
Al0 F0 1.825783 1_555
Al0 F4 1.825783 1_454
Al0 F1 1.825783 1_545
Al1 F12 1.830767 1_555
Al1 F14 1.830767 1_555
Al1 F13 1.830767 1_555
Al1 F8 1.832511 1_555
Al1 F6 1.832512 1_555
Al1 F7 1.832524 1_555
Al2 F17 1.830767 1_555
Al2 F15 1.830767 1_555
Al2 F16 1.830767 1_555
Al2 F9 1.832511 1_555
Al2 F11 1.832512 1_555
Al2 F10 1.832524 1_555
F0 Li0 1.979965 1_555
F0 Mg1 2.064527 1_555
F1 Li1 1.979965 1_555
F1 Mg2 2.064527 1_565
F2 Li2 1.979965 1_565
F2 Mg0 2.064527 1_555
F3 Li1 1.979965 1_655
F3 Mg0 2.064527 1_556
F4 Li2 1.979965 1_555
F4 Mg1 2.064527 1_656
F5 Li0 1.979965 1_555
F5 Mg2 2.064527 1_556
F6 Mg2 1.995961 1_565
F6 Li2 2.154807 1_565
F7 Mg0 1.995955 1_555
F7 Li0 2.154807 1_555
F8 Mg1 1.995956 1_555
F8 Li1 2.154813 1_555
F9 Mg2 1.995956 1_556
F9 Li2 2.154813 1_555
F10 Mg0 1.995955 1_556
F10 Li0 2.154807 1_555
F11 Mg1 1.995961 1_656
F11 Li1 2.154807 1_655
F12 Mg1 2.055673 1_556
F12 Li0 2.061210 1_555
F13 Mg2 2.055673 1_566
F13 Li1 2.061203 1_555
F14 Mg0 2.055679 1_556
F14 Li2 2.061204 1_565
F15 Mg0 2.055679 1_555
F15 Li1 2.061204 1_655
F16 Mg1 2.055673 1_655
F16 Li2 2.061203 1_555
F17 Mg2 2.055673 1_555
F17 Li0 2.061210 1_555
