# generated using pymatgen
data_DyMg2V3S8
_symmetry_space_group_name_H-M   'P 1'
_cell_length_a   7.44845125
_cell_length_b   7.45461163
_cell_length_c   7.45578173
_cell_angle_alpha   59.29958851
_cell_angle_beta   59.33978468
_cell_angle_gamma   59.19571073
_symmetry_Int_Tables_number   1
_chemical_formula_structural   DyMg2V3S8
_chemical_formula_sum   'Dy1 Mg2 V3 S8'
_cell_volume   287.91961241
_cell_formula_units_Z   1
loop_
 _symmetry_equiv_pos_site_id
 _symmetry_equiv_pos_as_xyz
  1  'x, y, z'
loop_
 _atom_site_type_symbol
 _atom_site_label
 _atom_site_symmetry_multiplicity
 _atom_site_fract_x
 _atom_site_fract_y
 _atom_site_fract_z
 _atom_site_occupancy
  Dy  Dy0  1  0.50000100  0.50001700  0.49997600  1
  Mg  Mg0  1  0.87379700  0.87382900  0.87387500  1
  Mg  Mg1  1  0.12620400  0.12616800  0.12613600  1
  V  V0  1  0.50001800  0.50000000  0.99997400  1
  V  V1  1  0.99999600  0.49998400  0.50002500  1
  V  V2  1  0.49998900  0.99999100  0.50002200  1
  S  S0  1  0.73826000  0.73808300  0.73785100  1
  S  S1  1  0.24485400  0.24485700  0.72224100  1
  S  S2  1  0.24459400  0.72240600  0.24479900  1
  S  S3  1  0.72239900  0.24474500  0.24494300  1
  S  S4  1  0.75539500  0.27758200  0.75518800  1
  S  S5  1  0.27759700  0.75525200  0.75505200  1
  S  S6  1  0.26174800  0.26193100  0.26214800  1
  S  S7  1  0.75515400  0.75515100  0.27777100  1
loop_
_geom_bond_atom_site_label_1
_geom_bond_atom_site_label_2
_geom_bond_distance
_geom_bond_site_symmetry_2
Dy0 S2 2.688434 1_555
Dy0 S4 2.688522 1_555
Dy0 S3 2.689711 1_555
Dy0 S5 2.689740 1_555
Dy0 S7 2.692098 1_555
Dy0 S1 2.692164 1_555
Mg0 S5 2.443651 1_655
Mg0 S4 2.444895 1_565
Mg0 S7 2.449126 1_556
Mg0 S0 2.492020 1_555
Mg1 S3 2.443693 1_455
Mg1 S2 2.444976 1_545
Mg1 S1 2.449108 1_554
Mg1 S6 2.492094 1_555
S0 V2 2.496292 1_555
S0 V1 2.497839 1_555
S0 V0 2.503062 1_555
S1 V1 2.449495 1_455
S1 V2 2.452040 1_545
S2 V0 2.453163 1_554
S2 V1 2.454768 1_455
S3 V0 2.451299 1_554
S3 V2 2.455521 1_545
S4 V0 2.453002 1_555
S4 V1 2.454661 1_555
S5 V0 2.451251 1_555
S5 V2 2.455336 1_555
S6 V2 2.496381 1_545
S6 V1 2.497871 1_455
S6 V0 2.503154 1_554
S7 V1 2.449614 1_555
S7 V2 2.452074 1_555
