# generated using pymatgen
data_ZnCuP2O7
_symmetry_space_group_name_H-M   'P 1'
_cell_length_a   5.38203994
_cell_length_b   5.38203994
_cell_length_c   4.61465236
_cell_angle_alpha   78.33251242
_cell_angle_beta   78.33251242
_cell_angle_gamma   100.46269952
_symmetry_Int_Tables_number   1
_chemical_formula_structural   ZnCuP2O7
_chemical_formula_sum   'Zn1 Cu1 P2 O7'
_cell_volume   124.70556578
_cell_formula_units_Z   1
loop_
 _symmetry_equiv_pos_site_id
 _symmetry_equiv_pos_as_xyz
  1  'x, y, z'
loop_
 _atom_site_type_symbol
 _atom_site_label
 _atom_site_symmetry_multiplicity
 _atom_site_fract_x
 _atom_site_fract_y
 _atom_site_fract_z
 _atom_site_occupancy
  Zn  Zn0  1  0.30940500  0.69059500  0.50000000  1
  Cu  Cu0  1  0.68959600  0.31040400  0.50000000  1
  P  P0  1  0.21038300  0.19621000  0.09155300  1
  P  P1  1  0.80379000  0.78961700  0.90844700  1
  O  O0  1  0.04746700  0.34924700  0.26439100  1
  O  O1  1  0.37400500  0.06413200  0.28012600  1
  O  O2  1  0.93586800  0.62599500  0.71987400  1
  O  O3  1  0.65075300  0.95253300  0.73560900  1
  O  O4  1  0.38014300  0.37625400  0.78128800  1
  O  O5  1  0.62374600  0.61985700  0.21871200  1
  O  O6  1  0.03164500  0.96835500  0.00000000  1
loop_
_geom_bond_atom_site_label_1
_geom_bond_atom_site_label_2
_geom_bond_distance
_geom_bond_site_symmetry_2
Cu0 O0 1.962249 1_655
Cu0 O3 1.962249 1_545
Cu0 O5 2.027418 1_555
Cu0 O4 2.027418 1_555
Cu0 O2 2.468730 1_555
Cu0 O1 2.468730 1_555
O0 P0 1.525943 1_555
O1 P0 1.524844 1_555
O1 Zn0 1.992605 1_545
O2 P1 1.524844 1_555
O2 Zn0 1.992605 1_655
O3 P1 1.525943 1_555
O4 P0 1.553029 1_556
O4 Zn0 2.058552 1_555
O5 P1 1.553029 1_554
O5 Zn0 2.058552 1_555
O6 P1 1.597887 1_454
O6 P0 1.597887 1_565
