# generated using pymatgen
data_Ce2(B2Rh3)3
_symmetry_space_group_name_H-M   'P 1'
_cell_length_a   5.62529459
_cell_length_b   5.62525743
_cell_length_c   8.52431739
_cell_angle_alpha   90.00007933
_cell_angle_beta   90.00017290
_cell_angle_gamma   59.99978744
_symmetry_Int_Tables_number   1
_chemical_formula_structural   Ce2(B2Rh3)3
_chemical_formula_sum   'Ce2 B6 Rh9'
_cell_volume   233.60223091
_cell_formula_units_Z   1
loop_
 _symmetry_equiv_pos_site_id
 _symmetry_equiv_pos_as_xyz
  1  'x, y, z'
loop_
 _atom_site_type_symbol
 _atom_site_label
 _atom_site_symmetry_multiplicity
 _atom_site_fract_x
 _atom_site_fract_y
 _atom_site_fract_z
 _atom_site_occupancy
  Ce  Ce0  1  0.99989045  -0.00000000  0.29216671  1
  Ce  Ce1  1  0.00006822  0.00000000  0.70737689  1
  B  B0  1  0.66666554  0.66666347  0.00002133  1
  B  B1  1  0.33332900  0.33333653  0.00002133  1
  B  B2  1  0.66665806  0.66666052  0.33339928  1
  B  B3  1  0.33331859  0.33333948  0.33339928  1
  B  B4  1  0.33336762  0.33333533  0.66668768  1
  B  B5  1  0.66670295  0.66666467  0.66668768  1
  Rh  Rh0  1  0.49983666  -0.00000000  0.16335911  1
  Rh  Rh1  1  0.99991850  0.50003234  0.16335515  1
  Rh  Rh2  1  0.49995083  0.49996766  0.16335515  1
  Rh  Rh3  1  0.49997537  0.00000000  0.83673342  1
  Rh  Rh4  1  0.00004891  0.50007262  0.83673175  1
  Rh  Rh5  1  0.50012152  0.49992738  0.83673175  1
  Rh  Rh6  1  0.50041133  -0.00000000  0.49999190  1
  Rh  Rh7  1  0.00001965  0.49959615  0.49999179  1
  Rh  Rh8  1  0.49961580  0.50040385  0.49999179  1
loop_
_geom_bond_atom_site_label_1
_geom_bond_atom_site_label_2
_geom_bond_distance
_geom_bond_site_symmetry_2
Ce0 Rh0 3.019089 1_655
Ce0 Rh1 3.019118 1_545
Ce0 Rh2 3.019118 1_555
Ce0 Rh1 3.019607 1_555
Ce0 Rh2 3.019608 1_645
Ce0 Rh0 3.019647 1_555
Ce1 Rh3 3.020583 1_555
Ce1 Rh4 3.020722 1_545
Ce1 Rh5 3.020722 1_455
Ce1 Rh5 3.021378 1_545
Ce1 Rh4 3.021378 1_555
Ce1 Rh3 3.021562 1_455
B0 Rh5 2.138599 1_554
B0 Rh1 2.138744 1_555
B0 Rh3 2.138793 1_564
B0 Rh4 2.138986 1_654
B0 Rh0 2.139070 1_565
B0 Rh2 2.139332 1_555
B1 Rh4 2.138599 1_554
B1 Rh2 2.138744 1_555
B1 Rh3 2.138793 1_554
B1 Rh5 2.138986 1_554
B1 Rh0 2.139070 1_555
B1 Rh1 2.139332 1_455
B2 Rh8 2.157105 1_555
B2 Rh6 2.157244 1_565
B2 Rh7 2.157330 1_655
B2 Rh1 2.176447 1_555
B2 Rh0 2.176701 1_565
B2 Rh2 2.176949 1_555
B3 Rh7 2.157106 1_555
B3 Rh6 2.157244 1_555
B3 Rh8 2.157330 1_555
B3 Rh2 2.176447 1_555
B3 Rh0 2.176701 1_555
B3 Rh1 2.176949 1_455
B4 Rh8 2.157751 1_555
B4 Rh6 2.157808 1_555
B4 Rh7 2.157860 1_555
B4 Rh4 2.176659 1_555
B4 Rh3 2.176718 1_555
B4 Rh5 2.176752 1_555
B5 Rh7 2.157751 1_655
B5 Rh6 2.157808 1_565
B5 Rh8 2.157860 1_555
B5 Rh5 2.176659 1_555
B5 Rh3 2.176718 1_565
B5 Rh4 2.176752 1_655
