# generated using pymatgen
data_Na4Ca2P8O35
_symmetry_space_group_name_H-M   'P 1'
_cell_length_a   28.55613342
_cell_length_b   7.77551493
_cell_length_c   7.46464441
_cell_angle_alpha   90.00000000
_cell_angle_beta   90.00000000
_cell_angle_gamma   90.00000000
_symmetry_Int_Tables_number   1
_chemical_formula_structural   Na4Ca2P8O35
_chemical_formula_sum   'Na8 Ca4 P16 O70'
_cell_volume   1657.43950595
_cell_formula_units_Z   2
loop_
 _symmetry_equiv_pos_site_id
 _symmetry_equiv_pos_as_xyz
  1  'x, y, z'
loop_
 _atom_site_type_symbol
 _atom_site_label
 _atom_site_symmetry_multiplicity
 _atom_site_fract_x
 _atom_site_fract_y
 _atom_site_fract_z
 _atom_site_occupancy
  Na  Na0  1  0.87427054  0.96018257  0.10402268  1
  Na  Na1  1  0.12572946  0.03981743  0.10402268  1
  Na  Na2  1  0.62572946  0.96018257  0.10402268  1
  Na  Na3  1  0.37427054  0.03981743  0.10402268  1
  Na  Na4  1  0.63223439  0.48970013  0.59374573  1
  Na  Na5  1  0.36776561  0.51029987  0.59374573  1
  Na  Na6  1  0.86776561  0.48970013  0.59374573  1
  Na  Na7  1  0.13223439  0.51029987  0.59374573  1
  Ca  Ca0  1  0.50000000  -0.00000000  0.05575288  1
  Ca  Ca1  1  -0.00000000  -0.00000000  0.05575288  1
  Ca  Ca2  1  0.75000000  0.57796428  0.61688738  1
  Ca  Ca3  1  0.25000000  0.42203572  0.61688738  1
  P  P0  1  0.55061404  0.69200597  0.33701998  1
  P  P1  1  0.44938596  0.30799403  0.33701998  1
  P  P2  1  0.94938596  0.69200597  0.33701998  1
  P  P3  1  0.05061404  0.30799403  0.33701998  1
  P  P4  1  0.55299394  0.31043594  0.31863028  1
  P  P5  1  0.44700606  0.68956406  0.31863028  1
  P  P6  1  0.94700606  0.31043594  0.31863028  1
  P  P7  1  0.05299394  0.68956406  0.31863028  1
  P  P8  1  0.69731837  0.29152631  0.92638358  1
  P  P9  1  0.30268163  0.70847369  0.92638358  1
  P  P10  1  0.80268163  0.29152631  0.92638358  1
  P  P11  1  0.19731837  0.70847369  0.92638358  1
  P  P12  1  0.69740457  0.58169135  0.18931069  1
  P  P13  1  0.30259543  0.41830865  0.18931069  1
  P  P14  1  0.80259543  0.58169135  0.18931069  1
  P  P15  1  0.19740457  0.41830865  0.18931069  1
  O  O0  1  0.91527916  0.70330525  0.48817127  1
  O  O1  1  0.08472084  0.29669475  0.48817127  1
  O  O2  1  0.58472084  0.70330525  0.48817127  1
  O  O3  1  0.41527916  0.29669475  0.48817127  1
  O  O4  1  0.94568058  0.82229241  0.18755210  1
  O  O5  1  0.05431942  0.17770759  0.18755210  1
  O  O6  1  0.55431942  0.82229241  0.18755210  1
  O  O7  1  0.44568058  0.17770759  0.18755210  1
  O  O8  1  0.94803365  0.50591235  0.23935301  1
  O  O9  1  0.05196635  0.49408765  0.23935301  1
  O  O10  1  0.55196635  0.50591235  0.23935301  1
  O  O11  1  0.44803365  0.49408765  0.23935301  1
  O  O12  1  0.50198411  0.29871752  0.42023281  1
  O  O13  1  0.49801589  0.70128248  0.42023281  1
  O  O14  1  0.99801589  0.29871752  0.42023281  1
  O  O15  1  0.00198411  0.70128248  0.42023281  1
  O  O16  1  0.58971709  0.28661743  0.45728245  1
  O  O17  1  0.41028291  0.71338257  0.45728245  1
  O  O18  1  0.91028291  0.28661743  0.45728245  1
  O  O19  1  0.08971709  0.71338257  0.45728245  1
  O  O20  1  0.94747781  0.19634207  0.15487211  1
  O  O21  1  0.05252219  0.80365793  0.15487211  1
  O  O22  1  0.55252219  0.19634207  0.15487211  1
  O  O23  1  0.44747781  0.80365793  0.15487211  1
  O  O24  1  0.69617756  0.42608029  0.77851146  1
  O  O25  1  0.30382244  0.57391971  0.77851146  1
  O  O26  1  0.80382244  0.42608029  0.77851146  1
  O  O27  1  0.19617756  0.57391971  0.77851146  1
  O  O28  1  0.83601969  0.14521211  0.92004040  1
  O  O29  1  0.16398031  0.85478789  0.92004040  1
  O  O30  1  0.66398031  0.14521211  0.92004040  1
  O  O31  1  0.33601969  0.85478789  0.92004040  1
  O  O32  1  0.83556710  0.70139234  0.09948521  1
  O  O33  1  0.16443290  0.29860766  0.09948521  1
  O  O34  1  0.66443290  0.70139234  0.09948521  1
  O  O35  1  0.33556710  0.29860766  0.09948521  1
  O  O36  1  0.69682881  0.56485768  0.39193045  1
  O  O37  1  0.30317119  0.43514232  0.39193045  1
  O  O38  1  0.80317119  0.56485768  0.39193045  1
  O  O39  1  0.19682881  0.43514232  0.39193045  1
  O  O40  1  0.75000000  0.63087873  0.12095727  1
  O  O41  1  0.25000000  0.36912127  0.12095727  1
  O  O42  1  0.75000000  0.21221672  0.93691031  1
  O  O43  1  0.25000000  0.78778328  0.93691031  1
  O  O44  1  0.80822800  0.38467997  0.11939573  1
  O  O45  1  0.19177200  0.61532003  0.11939573  1
  O  O46  1  0.69177200  0.38467997  0.11939573  1
  O  O47  1  0.30822800  0.61532003  0.11939573  1
  O  O48  1  0.94059214  0.57177766  0.80931546  1
  O  O49  1  0.05940786  0.42822234  0.80931546  1
  O  O50  1  0.55940786  0.57177766  0.80931546  1
  O  O51  1  0.44059214  0.42822234  0.80931546  1
  O  O52  1  0.67705290  0.88284450  0.65603990  1
  O  O53  1  0.32294710  0.11715550  0.65603990  1
  O  O54  1  0.82294710  0.88284450  0.65603990  1
  O  O55  1  0.17705290  0.11715550  0.65603990  1
  O  O56  1  0.55198298  0.85374762  0.81648286  1
  O  O57  1  0.44801702  0.14625238  0.81648286  1
  O  O58  1  0.94801702  0.85374762  0.81648286  1
  O  O59  1  0.05198298  0.14625238  0.81648286  1
  O  O60  1  0.96739767  0.70073861  0.82585314  1
  O  O61  1  0.03260233  0.29926139  0.82585314  1
  O  O62  1  0.53260233  0.70073861  0.82585314  1
  O  O63  1  0.46739767  0.29926139  0.82585314  1
  O  O64  1  0.69870622  0.97153920  0.54599949  1
  O  O65  1  0.30129378  0.02846080  0.54599949  1
  O  O66  1  0.80129378  0.97153920  0.54599949  1
  O  O67  1  0.19870622  0.02846080  0.54599949  1
  O  O68  1  0.75000000  0.87960759  0.48912660  1
  O  O69  1  0.25000000  0.12039241  0.48912660  1
loop_
_geom_bond_atom_site_label_1
_geom_bond_atom_site_label_2
_geom_bond_distance
_geom_bond_site_symmetry_2
Na0 O28 2.269161 1_564
Na0 O32 2.296022 1_555
Na0 O4 2.386762 1_555
Na0 O20 2.808236 1_565
Na1 O29 2.269161 1_544
Na1 O33 2.296022 1_555
Na1 O5 2.386762 1_555
Na1 O21 2.808236 1_545
Na2 O30 2.269161 1_564
Na2 O34 2.296022 1_555
Na2 O6 2.386762 1_555
Na2 O22 2.808236 1_565
Na3 O31 2.269161 1_544
Na3 O35 2.296022 1_555
Na3 O7 2.386762 1_555
Na3 O23 2.808236 1_545
Na4 O16 2.237237 1_555
Na4 O2 2.284849 1_555
Na4 O24 2.341173 1_555
Na4 O36 2.452227 1_555
Na4 O50 2.705842 1_555
Na5 O17 2.237237 1_555
Na5 O3 2.284849 1_555
Na5 O25 2.341173 1_555
Na5 O37 2.452227 1_555
Na5 O51 2.705842 1_555
Na6 O18 2.237237 1_555
Na6 O0 2.284849 1_555
Na6 O26 2.341173 1_555
Na6 O38 2.452227 1_555
Na6 O48 2.705842 1_555
Na7 O19 2.237237 1_555
Na7 O1 2.284849 1_555
Na7 O27 2.341173 1_555
Na7 O39 2.452227 1_555
Na7 O49 2.705842 1_555
Ca0 O23 2.264425 1_545
Ca0 O22 2.264425 1_555
Ca0 O7 2.298540 1_555
Ca0 O6 2.298540 1_545
Ca0 O56 2.585878 1_544
Ca0 O57 2.585878 1_554
Ca1 O21 2.264425 1_545
Ca1 O20 2.264425 1_455
Ca1 O4 2.298540 1_445
Ca1 O5 2.298540 1_555
Ca1 O59 2.585878 1_554
Ca1 O58 2.585878 1_444
Ca2 O36 2.266187 1_555
Ca2 O38 2.266187 1_555
Ca2 O24 2.283093 1_555
Ca2 O26 2.283093 1_555
Ca2 O68 2.531911 1_555
Ca3 O37 2.266187 1_555
Ca3 O39 2.266187 1_555
Ca3 O27 2.283093 1_555
Ca3 O25 2.283093 1_555
Ca3 O69 2.531911 1_555
O0 P2 1.493102 1_555
O1 P3 1.493102 1_555
O2 P0 1.493102 1_555
O3 P1 1.493102 1_555
O4 P2 1.510727 1_555
O5 P3 1.510727 1_555
O6 P0 1.510727 1_555
O7 P1 1.510727 1_555
O8 P2 1.620721 1_555
O8 P6 1.631333 1_555
O9 P3 1.620721 1_555
O9 P7 1.631333 1_555
O10 P0 1.620721 1_555
O10 P4 1.631333 1_555
O11 P1 1.620721 1_555
O11 P5 1.631333 1_555
O12 P1 1.626972 1_555
O12 P4 1.644787 1_555
O13 P0 1.626972 1_555
O13 P5 1.644787 1_555
O14 P3 1.626972 1_655
O14 P6 1.644787 1_555
O15 P2 1.626972 1_455
O15 P7 1.644787 1_555
O16 P4 1.484996 1_555
O17 P5 1.484996 1_555
O18 P6 1.484996 1_555
O19 P7 1.484996 1_555
O20 P6 1.510447 1_555
O21 P7 1.510447 1_555
O22 P4 1.510447 1_555
O23 P5 1.510447 1_555
O24 P8 1.521201 1_555
O25 P9 1.521201 1_555
O26 P10 1.521201 1_555
O27 P11 1.521201 1_555
O28 P10 1.484199 1_555
O29 P11 1.484199 1_555
O30 P8 1.484199 1_555
O31 P9 1.484199 1_555
O32 P14 1.484037 1_555
O33 P15 1.484037 1_555
O34 P12 1.484037 1_555
O35 P13 1.484037 1_555
O36 P12 1.518227 1_555
O37 P13 1.518227 1_555
O38 P14 1.518227 1_555
O39 P15 1.518227 1_555
O40 P14 1.631681 1_555
O40 P12 1.631681 1_555
O41 P15 1.631681 1_555
O41 P13 1.631681 1_555
O42 P8 1.627768 1_555
O42 P10 1.627768 1_555
O43 P9 1.627768 1_555
O43 P11 1.627768 1_555
O44 P10 1.620349 1_554
O44 P14 1.626300 1_555
O45 P11 1.620349 1_554
O45 P15 1.626300 1_555
O46 P8 1.620349 1_554
O46 P12 1.626300 1_555
O47 P9 1.620349 1_554
O47 P13 1.626300 1_555
O48 O60 1.267539 1_555
O49 O61 1.267539 1_555
O50 O62 1.267539 1_555
O51 O63 1.267539 1_555
O52 O64 1.238010 1_555
O53 O65 1.238010 1_555
O54 O66 1.238010 1_555
O55 O67 1.238010 1_555
O56 O62 1.314012 1_555
O57 O63 1.314012 1_555
O58 O60 1.314012 1_555
O59 O61 1.314012 1_555
O64 O68 1.684248 1_555
O65 O69 1.684248 1_555
O66 O68 1.684248 1_555
O67 O69 1.684248 1_555
