# generated using pymatgen
data_NiMo2P
_symmetry_space_group_name_H-M   'P 1'
_cell_length_a   7.08648595
_cell_length_b   7.08648595
_cell_length_c   4.78868516
_cell_angle_alpha   71.45112814
_cell_angle_beta   71.45112814
_cell_angle_gamma   73.66893321
_symmetry_Int_Tables_number   1
_chemical_formula_structural   NiMo2P
_chemical_formula_sum   'Ni4 Mo8 P4'
_cell_volume   211.76564085
_cell_formula_units_Z   4
loop_
 _symmetry_equiv_pos_site_id
 _symmetry_equiv_pos_as_xyz
  1  'x, y, z'
loop_
 _atom_site_type_symbol
 _atom_site_label
 _atom_site_symmetry_multiplicity
 _atom_site_fract_x
 _atom_site_fract_y
 _atom_site_fract_z
 _atom_site_occupancy
  Ni  Ni0  1  0.98762600  0.68666000  0.90957500  1
  Ni  Ni1  1  0.68666000  0.98762600  0.90957500  1
  Ni  Ni2  1  0.31334000  0.01237400  0.09042500  1
  Ni  Ni3  1  0.01237400  0.31334000  0.09042500  1
  Mo  Mo0  1  0.36390500  0.36390500  0.12838300  1
  Mo  Mo1  1  0.07735300  0.07735300  0.64485500  1
  Mo  Mo2  1  0.34133500  0.65866500  0.50000000  1
  Mo  Mo3  1  0.65866500  0.34133500  0.50000000  1
  Mo  Mo4  1  0.63609500  0.63609500  0.87161700  1
  Mo  Mo5  1  0.00000000  0.50000000  0.50000000  1
  Mo  Mo6  1  0.50000000  0.00000000  0.50000000  1
  Mo  Mo7  1  0.92264700  0.92264700  0.35514500  1
  P  P0  1  0.69922300  0.69922300  0.30059400  1
  P  P1  1  0.30077700  0.30077700  0.69940600  1
  P  P2  1  0.24733200  0.75266800  0.00000000  1
  P  P3  1  0.75266800  0.24733200  0.00000000  1
loop_
_geom_bond_atom_site_label_1
_geom_bond_atom_site_label_2
_geom_bond_distance
_geom_bond_site_symmetry_2
Ni0 P2 2.216623 1_656
Ni0 P0 2.293469 1_556
Ni1 P3 2.216623 1_566
Ni1 P0 2.293469 1_556
Ni2 P2 2.216623 1_545
Ni2 P1 2.293469 1_554
Ni3 P3 2.216623 1_455
Ni3 P1 2.293469 1_554
Mo0 P1 2.429411 1_554
Mo0 P1 2.536426 1_555
Mo0 P2 2.572133 1_555
Mo0 P3 2.572133 1_555
Mo0 Ni2 2.683028 1_555
Mo0 Ni3 2.683028 1_555
Mo0 Mo5 2.742396 1_555
Mo0 Mo6 2.742396 1_555
Mo1 P2 2.625340 1_546
Mo1 P3 2.625340 1_456
Mo1 Mo7 2.634352 1_445
Mo1 P1 2.649134 1_555
Mo1 Ni2 2.752740 1_555
Mo1 Ni3 2.752740 1_555
Mo1 Mo6 2.783698 1_555
Mo1 Mo5 2.783698 1_555
Mo1 Ni1 2.814405 1_445
Mo1 Ni0 2.814405 1_445
Mo1 Ni2 2.961988 1_556
Mo1 Ni3 2.961988 1_556
Mo2 P0 2.474086 1_555
Mo2 P1 2.474086 1_555
Mo2 P2 2.524051 1_555
Mo2 P2 2.524051 1_556
Mo2 Ni0 2.647466 1_455
Mo2 Ni2 2.647466 1_565
Mo2 Mo5 2.940176 1_555
Mo2 Mo6 2.940176 1_565
Mo3 P0 2.474086 1_555
Mo3 P1 2.474086 1_555
Mo3 P3 2.524051 1_556
Mo3 P3 2.524051 1_555
Mo3 Ni1 2.647466 1_545
Mo3 Ni3 2.647466 1_655
Mo3 Mo6 2.940176 1_555
Mo3 Mo5 2.940176 1_655
Mo4 P0 2.429411 1_556
Mo4 P0 2.536426 1_555
Mo4 P2 2.572133 1_556
Mo4 P3 2.572133 1_556
Mo4 Ni1 2.683028 1_555
Mo4 Ni0 2.683028 1_555
Mo4 Mo6 2.742396 1_565
Mo4 Mo5 2.742396 1_655
Mo5 P1 2.488574 1_555
Mo5 P0 2.488574 1_455
Mo5 Ni0 2.660855 1_455
Mo5 Ni3 2.660855 1_555
Mo5 Ni3 2.732109 1_556
Mo5 Ni0 2.732109 1_454
Mo5 Mo7 2.783698 1_455
Mo5 P3 2.894510 1_456
Mo5 P2 2.894510 1_555
Mo6 P1 2.488574 1_555
Mo6 P0 2.488574 1_545
Mo6 Ni1 2.660855 1_545
Mo6 Ni2 2.660855 1_555
Mo6 Ni2 2.732109 1_556
Mo6 Ni1 2.732109 1_544
Mo6 Mo7 2.783698 1_545
Mo6 P3 2.894510 1_555
Mo6 P2 2.894510 1_546
Mo7 P3 2.625340 1_565
Mo7 P2 2.625340 1_655
Mo7 P0 2.649134 1_555
Mo7 Ni0 2.752740 1_555
Mo7 Ni1 2.752740 1_555
Mo7 Ni3 2.814405 1_665
Mo7 Ni2 2.814405 1_665
Mo7 Ni0 2.961988 1_554
Mo7 Ni1 2.961988 1_554
