# generated using pymatgen
data_MgV3CoSn2(PO4)6
_symmetry_space_group_name_H-M   'P 1'
_cell_length_a   9.79209171
_cell_length_b   8.38173240
_cell_length_c   8.37149367
_cell_angle_alpha   60.07143570
_cell_angle_beta   64.19653045
_cell_angle_gamma   64.47111726
_symmetry_Int_Tables_number   1
_chemical_formula_structural   MgV3CoSn2(PO4)6
_chemical_formula_sum   'Mg1 V3 Co1 Sn2 P6 O24'
_cell_volume   515.57307292
_cell_formula_units_Z   1
loop_
 _symmetry_equiv_pos_site_id
 _symmetry_equiv_pos_as_xyz
  1  'x, y, z'
loop_
 _atom_site_type_symbol
 _atom_site_label
 _atom_site_symmetry_multiplicity
 _atom_site_fract_x
 _atom_site_fract_y
 _atom_site_fract_z
 _atom_site_occupancy
  Mg  Mg0  1  0.32911400  0.55042400  0.55015300  1
  V  V0  1  0.01664000  0.66376300  0.65936000  1
  V  V1  1  0.44745900  0.85197700  0.85343300  1
  V  V2  1  0.99666500  0.34011100  0.32847500  1
  Co  Co0  1  0.50765400  0.17087500  0.16590700  1
  Sn  Sn0  1  0.89210200  0.03410200  0.03596300  1
  Sn  Sn1  1  0.64015200  0.45207800  0.45524100  1
  P  P0  1  0.24970400  0.24291900  0.54550300  1
  P  P1  1  0.25319700  0.96242000  0.24838000  1
  P  P2  1  0.25604100  0.53851400  0.95634100  1
  P  P3  1  0.74424100  0.47201800  0.03095600  1
  P  P4  1  0.74385800  0.03192800  0.75221900  1
  P  P5  1  0.74246300  0.75536600  0.47377500  1
  O  O0  1  0.10909100  0.13842600  0.22257600  1
  O  O1  1  0.10364000  0.52860100  0.13114100  1
  O  O2  1  0.10852500  0.23295200  0.51624300  1
  O  O3  1  0.30599100  0.05125700  0.70301100  1
  O  O4  1  0.38753700  0.29037400  0.36483600  1
  O  O5  1  0.18540100  0.40956900  0.61864300  1
  O  O6  1  0.32789300  0.92909200  0.05465800  1
  O  O7  1  0.19340400  0.78236800  0.40694100  1
  O  O8  1  0.59575700  0.63938800  0.02047300  1
  O  O9  1  0.19857700  0.61212600  0.77724900  1
  O  O10  1  0.70704500  0.28109400  0.09937900  1
  O  O11  1  0.59617300  0.01844500  0.74481200  1
  O  O12  1  0.38255200  0.97005400  0.29637400  1
  O  O13  1  0.32161600  0.68654800  0.93654800  1
  O  O14  1  0.80375300  0.45005300  0.19451100  1
  O  O15  1  0.38364000  0.34891900  0.96948300  1
  O  O16  1  0.80372200  0.19451900  0.55108700  1
  O  O17  1  0.70573400  0.09823900  0.91378300  1
  O  O18  1  0.79790700  0.55293400  0.45746400  1
  O  O19  1  0.59365500  0.75431300  0.64520900  1
  O  O20  1  0.70334500  0.91297700  0.28426200  1
  O  O21  1  0.88506700  0.77746000  0.48331500  1
  O  O22  1  0.88486900  0.48707200  0.85220900  1
  O  O23  1  0.88867400  0.85704200  0.77040000  1
loop_
_geom_bond_atom_site_label_1
_geom_bond_atom_site_label_2
_geom_bond_distance
_geom_bond_site_symmetry_2
Mg0 O5 1.938317 1_555
Mg0 O9 1.952274 1_555
Mg0 O7 1.953782 1_555
Mg0 Sn1 2.640070 1_555
Co0 O4 2.025766 1_555
Co0 O15 2.033073 1_554
Co0 O12 2.074813 1_545
Co0 O10 2.251743 1_555
Co0 O20 2.296027 1_545
Co0 O17 2.299572 1_554
O0 P1 1.538596 1_545
O0 V2 1.974152 1_455
O1 P2 1.568347 1_554
O1 V2 1.907348 1_455
O2 P0 1.546893 1_555
O2 V2 1.928604 1_455
O3 P0 1.542399 1_555
O3 V1 1.928755 1_545
O4 P0 1.533839 1_555
O5 P0 1.575485 1_555
O5 V0 2.141490 1_555
O6 P1 1.576815 1_555
O6 V1 1.828515 1_554
O7 P1 1.571118 1_555
O7 V0 2.156926 1_555
O8 P3 1.523112 1_555
O8 V1 2.071338 1_554
O9 P2 1.567565 1_555
O9 V0 2.185186 1_555
O10 P3 1.558121 1_555
O10 Sn0 2.208401 1_555
O11 P4 1.527703 1_555
O11 V1 2.055915 1_545
O12 P1 1.519375 1_555
O13 P2 1.538914 1_555
O13 V1 1.920631 1_555
O14 P3 1.612085 1_555
O14 Sn1 2.073712 1_555
O14 V2 2.233369 1_555
O15 P2 1.527220 1_555
O16 P4 1.604850 1_555
O16 Sn1 2.068740 1_555
O16 V2 2.276934 1_555
O17 P4 1.552201 1_555
O17 Sn0 2.212757 1_556
O18 P5 1.601546 1_555
O18 Sn1 2.065792 1_555
O18 V2 2.288229 1_555
O19 P5 1.536523 1_555
O19 V1 1.999839 1_555
O20 P5 1.552569 1_555
O20 Sn0 2.221410 1_565
O21 P5 1.524898 1_555
O21 V0 1.983266 1_655
O22 P3 1.522760 1_556
O22 V0 1.977979 1_655
O23 P4 1.535046 1_565
O23 V0 1.948748 1_655
