# generated using pymatgen
data_BaCeEuWO6
_symmetry_space_group_name_H-M   'P 1'
_cell_length_a   6.01230211
_cell_length_b   6.09433405
_cell_length_c   8.51571485
_cell_angle_alpha   89.94606110
_cell_angle_beta   90.33754094
_cell_angle_gamma   90.23838334
_symmetry_Int_Tables_number   1
_chemical_formula_structural   BaCeEuWO6
_chemical_formula_sum   'Ba2 Ce2 Eu2 W2 O12'
_cell_volume   312.01586981
_cell_formula_units_Z   2
loop_
 _symmetry_equiv_pos_site_id
 _symmetry_equiv_pos_as_xyz
  1  'x, y, z'
loop_
 _atom_site_type_symbol
 _atom_site_label
 _atom_site_symmetry_multiplicity
 _atom_site_fract_x
 _atom_site_fract_y
 _atom_site_fract_z
 _atom_site_occupancy
  Ba  Ba0  1  0.50947501  0.53144837  0.25084919  1
  Ba  Ba1  1  0.49052499  0.46855163  0.74915081  1
  Ce  Ce0  1  0.00000000  0.50000000  -0.00000000  1
  Ce  Ce1  1  0.50000000  -0.00000000  0.50000000  1
  Eu  Eu0  1  0.99070111  0.04066654  0.25143089  1
  Eu  Eu1  1  0.00929889  0.95933346  0.74856911  1
  W  W0  1  0.50000000  -0.00000000  -0.00000000  1
  W  W1  1  0.00000000  0.50000000  0.50000000  1
  O  O0  1  0.21077238  0.19902679  0.95414357  1
  O  O1  1  0.26970290  0.71745493  0.53893530  1
  O  O2  1  0.78922762  0.80097321  0.04585643  1
  O  O3  1  0.73029710  0.28254507  0.46106470  1
  O  O4  1  0.29251060  0.73412588  0.95905525  1
  O  O5  1  0.18973002  0.21434379  0.54404795  1
  O  O6  1  0.70748940  0.26587412  0.04094475  1
  O  O7  1  0.81026998  0.78565621  0.45595205  1
  O  O8  1  0.40354278  0.99366360  0.23528300  1
  O  O9  1  0.06260524  0.46498003  0.26362635  1
  O  O10  1  0.59645722  0.00633640  0.76471700  1
  O  O11  1  0.93739476  0.53501997  0.73637365  1
loop_
_geom_bond_atom_site_label_1
_geom_bond_atom_site_label_2
_geom_bond_distance
_geom_bond_site_symmetry_2
Ba0 O3 2.692929 1_555
Ba0 O6 2.697877 1_555
Ba0 O9 2.718212 1_555
Ba0 O8 2.893325 1_555
Ba0 O2 2.929260 1_555
Ba0 O7 2.943780 1_555
Ba0 O4 3.061229 1_554
Ba0 O1 3.072810 1_555
Ba0 O8 3.338754 1_545
Ba0 O9 3.352956 1_655
Ba1 O1 2.692929 1_555
Ba1 O4 2.697877 1_555
Ba1 O11 2.718212 1_555
Ba1 O10 2.893325 1_555
Ba1 O0 2.929260 1_555
Ba1 O5 2.943780 1_555
Ba1 O6 3.061229 1_556
Ba1 O3 3.072810 1_555
Ba1 O10 3.338754 1_565
Ba1 O11 3.352956 1_455
Ce0 O2 2.269203 1_455
Ce0 O0 2.269203 1_554
Ce0 O9 2.284056 1_555
Ce0 O11 2.284056 1_454
Ce0 O4 2.288176 1_554
Ce0 O6 2.288176 1_455
Ce1 O3 2.230832 1_555
Ce1 O1 2.230832 1_545
Ce1 O5 2.314384 1_555
Ce1 O7 2.314384 1_545
Ce1 O8 2.324661 1_545
Ce1 O10 2.324661 1_555
Eu0 O8 2.504384 1_645
Eu0 O7 2.574597 1_545
Eu0 O2 2.575054 1_545
Eu0 O9 2.622074 1_655
Eu0 O3 2.805012 1_555
Eu0 O6 2.823968 1_555
Eu0 O5 2.953099 1_655
Eu0 O0 3.019175 1_654
Eu1 O10 2.504384 1_465
Eu1 O5 2.574597 1_565
Eu1 O0 2.575054 1_565
Eu1 O11 2.622074 1_455
Eu1 O1 2.805012 1_555
Eu1 O4 2.823968 1_555
Eu1 O7 2.953099 1_455
Eu1 O2 3.019175 1_456
O0 W0 2.157827 1_556
O1 W1 2.114755 1_555
O2 W0 2.157827 1_565
O3 W1 2.114755 1_655
O4 W0 2.069390 1_566
O5 W1 2.117277 1_555
O6 W0 2.069390 1_555
O7 W1 2.117277 1_655
O8 W0 2.089400 1_565
O9 W1 2.061398 1_555
O10 W0 2.089400 1_556
O11 W1 2.061398 1_655
