# generated using pymatgen
data_Li7Mn4CoO12
_symmetry_space_group_name_H-M   'P 1'
_cell_length_a   14.61422700
_cell_length_b   14.61422700
_cell_length_c   5.34876733
_cell_angle_alpha   82.80303863
_cell_angle_beta   82.80303863
_cell_angle_gamma   11.32888177
_symmetry_Int_Tables_number   1
_chemical_formula_structural   Li7Mn4CoO12
_chemical_formula_sum   'Li7 Mn4 Co1 O12'
_cell_volume   222.62144964
_cell_formula_units_Z   1
loop_
 _symmetry_equiv_pos_site_id
 _symmetry_equiv_pos_as_xyz
  1  'x, y, z'
loop_
 _atom_site_type_symbol
 _atom_site_label
 _atom_site_symmetry_multiplicity
 _atom_site_fract_x
 _atom_site_fract_y
 _atom_site_fract_z
 _atom_site_occupancy
  Li  Li0  1  0.75017500  0.75017500  0.24845100  1
  Li  Li1  1  0.58104700  0.58104700  0.75404600  1
  Li  Li2  1  0.41895300  0.41895300  0.24595400  1
  Li  Li3  1  0.24982500  0.24982500  0.75154900  1
  Li  Li4  1  0.07872300  0.07872300  0.26818300  1
  Li  Li5  1  0.92127700  0.92127700  0.73181700  1
  Li  Li6  1  0.00000000  0.00000000  0.00000000  1
  Mn  Mn0  1  0.33560600  0.33560600  0.99623300  1
  Mn  Mn1  1  0.66439400  0.66439400  0.00376700  1
  Mn  Mn2  1  0.16578700  0.16578700  0.50264000  1
  Mn  Mn3  1  0.83421300  0.83421300  0.49736000  1
  Co  Co0  1  0.50000000  0.50000000  0.50000000  1
  O  O0  1  0.79557000  0.79557000  0.89669700  1
  O  O1  1  0.62653800  0.62653800  0.40212800  1
  O  O2  1  0.46623800  0.46623800  0.80743500  1
  O  O3  1  0.29493300  0.29493300  0.39289900  1
  O  O4  1  0.12453500  0.12453500  0.90232100  1
  O  O5  1  0.96276400  0.96276400  0.38891300  1
  O  O6  1  0.70506700  0.70506700  0.60710100  1
  O  O7  1  0.53376200  0.53376200  0.19256500  1
  O  O8  1  0.37346200  0.37346200  0.59787200  1
  O  O9  1  0.20443000  0.20443000  0.10330300  1
  O  O10  1  0.03723600  0.03723600  0.61108700  1
  O  O11  1  0.87546500  0.87546500  0.09767900  1
loop_
_geom_bond_atom_site_label_1
_geom_bond_atom_site_label_2
_geom_bond_distance
_geom_bond_site_symmetry_2
Li0 O3 2.150722 1_655
Li0 O3 2.150722 1_565
Li0 O0 2.158166 1_554
Li0 O9 2.171132 1_565
Li0 O9 2.171132 1_655
Li0 O6 2.183491 1_555
Li1 O10 2.129435 1_565
Li1 O10 2.129435 1_655
Li1 O4 2.135925 1_565
Li1 O4 2.135925 1_655
Li1 O1 2.160266 1_555
Li1 O7 2.565307 1_556
Li2 O5 2.129435 1_545
Li2 O5 2.129435 1_455
Li2 O11 2.135925 1_545
Li2 O11 2.135925 1_455
Li2 O8 2.160266 1_555
Li2 O2 2.565307 1_554
Li3 O6 2.150722 1_455
Li3 O6 2.150722 1_545
Li3 O9 2.158166 1_556
Li3 O0 2.171132 1_455
Li3 O0 2.171132 1_545
Li3 O3 2.183491 1_555
Li4 O7 2.021779 1_545
Li4 O7 2.021779 1_455
Li4 O10 2.064652 1_555
Li4 O1 2.186089 1_455
Li4 O1 2.186089 1_545
Li4 O4 2.224508 1_554
Li5 O2 2.021779 1_565
Li5 O2 2.021779 1_655
Li5 O5 2.064652 1_555
Li5 O8 2.186089 1_655
Li5 O8 2.186089 1_565
Li5 O11 2.224508 1_556
Li6 O7 2.088188 1_545
Li6 O7 2.088188 1_455
Li6 O2 2.088188 1_454
Li6 O2 2.088188 1_544
Li6 O5 2.221025 1_445
Li6 O10 2.221025 1_554
Mn0 O0 1.968814 1_545
Mn0 O0 1.968814 1_455
Mn0 O11 1.969147 1_546
Mn0 O11 1.969147 1_456
Mn0 O8 2.271934 1_555
Mn0 O3 2.295434 1_556
Mn1 O9 1.968814 1_655
Mn1 O9 1.968814 1_565
Mn1 O4 1.969147 1_564
Mn1 O4 1.969147 1_654
Mn1 O1 2.271934 1_555
Mn1 O6 2.295434 1_554
Mn2 O1 1.956390 1_545
Mn2 O1 1.956390 1_455
Mn2 O6 1.964402 1_545
Mn2 O6 1.964402 1_455
Mn2 O9 2.284980 1_555
Mn2 O4 2.316024 1_555
Mn3 O8 1.956390 1_655
Mn3 O8 1.956390 1_565
Mn3 O3 1.964402 1_565
Mn3 O3 1.964402 1_655
Mn3 O0 2.284980 1_555
Mn3 O11 2.316024 1_555
Co0 O7 1.806036 1_555
Co0 O2 1.806036 1_555
Co0 O10 1.941321 1_655
Co0 O10 1.941321 1_565
Co0 O5 1.941321 1_455
Co0 O5 1.941321 1_545
