# generated using pymatgen
data_HfMg14CdO16
_symmetry_space_group_name_H-M   'P 1'
_cell_length_a   8.77300093
_cell_length_b   8.77300093
_cell_length_c   4.35013469
_cell_angle_alpha   90.00000000
_cell_angle_beta   90.00000000
_cell_angle_gamma   90.00000000
_symmetry_Int_Tables_number   1
_chemical_formula_structural   HfMg14CdO16
_chemical_formula_sum   'Hf1 Mg14 Cd1 O16'
_cell_volume   334.81048862
_cell_formula_units_Z   1
loop_
 _symmetry_equiv_pos_site_id
 _symmetry_equiv_pos_as_xyz
  1  'x, y, z'
loop_
 _atom_site_type_symbol
 _atom_site_label
 _atom_site_symmetry_multiplicity
 _atom_site_fract_x
 _atom_site_fract_y
 _atom_site_fract_z
 _atom_site_occupancy
  Hf  Hf0  1  0.50000000  0.50000000  -0.00000000  1
  Mg  Mg0  1  -0.00000000  0.50000000  -0.00000000  1
  Mg  Mg1  1  0.50000000  0.00000000  -0.00000000  1
  Mg  Mg2  1  -0.00000000  0.25213617  0.50000000  1
  Mg  Mg3  1  -0.00000000  0.74786383  0.50000000  1
  Mg  Mg4  1  0.50000000  0.24001234  0.50000000  1
  Mg  Mg5  1  0.50000000  0.75998766  0.50000000  1
  Mg  Mg6  1  0.25213617  0.00000000  0.50000000  1
  Mg  Mg7  1  0.24001234  0.50000000  0.50000000  1
  Mg  Mg8  1  0.74786383  -0.00000000  0.50000000  1
  Mg  Mg9  1  0.75998766  0.50000000  0.50000000  1
  Mg  Mg10  1  0.24355899  0.24355899  0.00000000  1
  Mg  Mg11  1  0.24355899  0.75644101  0.00000000  1
  Mg  Mg12  1  0.75644101  0.24355899  -0.00000000  1
  Mg  Mg13  1  0.75644101  0.75644101  -0.00000000  1
  Cd  Cd0  1  -0.00000000  0.00000000  -0.00000000  1
  O  O0  1  0.27457087  0.00000000  -0.00000000  1
  O  O1  1  0.25514682  0.50000000  0.00000000  1
  O  O2  1  0.72542913  -0.00000000  -0.00000000  1
  O  O3  1  0.74485318  0.50000000  -0.00000000  1
  O  O4  1  0.25307119  0.25307119  0.50000000  1
  O  O5  1  0.25307119  0.74692881  0.50000000  1
  O  O6  1  0.74692881  0.25307119  0.50000000  1
  O  O7  1  0.74692881  0.74692881  0.50000000  1
  O  O8  1  -0.00000000  0.00000000  0.50000000  1
  O  O9  1  -0.00000000  0.50000000  0.50000000  1
  O  O10  1  0.50000000  0.00000000  0.50000000  1
  O  O11  1  0.50000000  0.50000000  0.50000000  1
  O  O12  1  -0.00000000  0.27457087  -0.00000000  1
  O  O13  1  -0.00000000  0.72542913  0.00000000  1
  O  O14  1  0.50000000  0.25514682  -0.00000000  1
  O  O15  1  0.50000000  0.74485318  0.00000000  1
loop_
_geom_bond_atom_site_label_1
_geom_bond_atom_site_label_2
_geom_bond_distance
_geom_bond_site_symmetry_2
Hf0 O14 2.148097 1_555
Hf0 O15 2.148097 1_555
Hf0 O3 2.148097 1_555
Hf0 O1 2.148097 1_555
Hf0 O11 2.175067 1_554
Hf0 O11 2.175067 1_555
Mg0 O13 1.977690 1_555
Mg0 O12 1.977690 1_555
Mg0 O9 2.175067 1_554
Mg0 O9 2.175067 1_555
Mg0 O1 2.238403 1_555
Mg0 O3 2.238403 1_455
Mg1 O0 1.977690 1_555
Mg1 O2 1.977690 1_555
Mg1 O10 2.175067 1_555
Mg1 O10 2.175067 1_554
Mg1 O15 2.238403 1_545
Mg1 O14 2.238403 1_555
Mg2 O9 2.174510 1_555
Mg2 O12 2.183954 1_556
Mg2 O12 2.183954 1_555
Mg2 O8 2.211991 1_555
Mg2 O4 2.220209 1_555
Mg2 O6 2.220209 1_455
Mg3 O9 2.174510 1_555
Mg3 O13 2.183954 1_555
Mg3 O13 2.183954 1_556
Mg3 O8 2.211991 1_565
Mg3 O7 2.220209 1_455
Mg3 O5 2.220209 1_555
Mg4 O10 2.105628 1_555
Mg4 O6 2.169334 1_555
Mg4 O4 2.169334 1_555
Mg4 O14 2.179116 1_556
Mg4 O14 2.179116 1_555
Mg4 O11 2.280872 1_555
Mg5 O10 2.105628 1_565
Mg5 O7 2.169334 1_555
Mg5 O5 2.169334 1_555
Mg5 O15 2.179116 1_556
Mg5 O15 2.179116 1_555
Mg5 O11 2.280872 1_555
Mg6 O10 2.174510 1_555
Mg6 O0 2.183954 1_555
Mg6 O0 2.183954 1_556
Mg6 O8 2.211991 1_555
Mg6 O5 2.220209 1_545
Mg6 O4 2.220209 1_555
Mg7 O9 2.105628 1_555
Mg7 O5 2.169334 1_555
Mg7 O4 2.169334 1_555
Mg7 O1 2.179116 1_556
Mg7 O1 2.179116 1_555
Mg7 O11 2.280872 1_555
Mg8 O10 2.174510 1_555
Mg8 O2 2.183954 1_556
Mg8 O2 2.183954 1_555
Mg8 O8 2.211991 1_655
Mg8 O6 2.220209 1_555
Mg8 O7 2.220209 1_545
Mg9 O9 2.105628 1_655
Mg9 O6 2.169334 1_555
Mg9 O7 2.169334 1_555
Mg9 O3 2.179116 1_556
Mg9 O3 2.179116 1_555
Mg9 O11 2.280872 1_555
Mg10 O0 2.153994 1_555
Mg10 O12 2.153994 1_555
Mg10 O4 2.178267 1_554
Mg10 O4 2.178267 1_555
Mg10 O1 2.252053 1_555
Mg10 O14 2.252053 1_555
Mg11 O13 2.153994 1_555
Mg11 O0 2.153994 1_565
Mg11 O5 2.178267 1_554
Mg11 O5 2.178267 1_555
Mg11 O1 2.252053 1_555
Mg11 O15 2.252053 1_555
Mg12 O12 2.153994 1_655
Mg12 O2 2.153994 1_555
Mg12 O6 2.178267 1_554
Mg12 O6 2.178267 1_555
Mg12 O3 2.252053 1_555
Mg12 O14 2.252053 1_555
Mg13 O2 2.153994 1_565
Mg13 O13 2.153994 1_655
Mg13 O7 2.178267 1_554
Mg13 O7 2.178267 1_555
Mg13 O15 2.252053 1_555
Mg13 O3 2.252053 1_555
Cd0 O8 2.175067 1_554
Cd0 O8 2.175067 1_555
Cd0 O0 2.408810 1_555
Cd0 O13 2.408810 1_545
Cd0 O12 2.408810 1_555
Cd0 O2 2.408810 1_455
