# generated using pymatgen
data_HoTi2ZnO6
_symmetry_space_group_name_H-M   'P 1'
_cell_length_a   5.27312500
_cell_length_b   5.49526800
_cell_length_c   7.63853300
_cell_angle_alpha   90.00000000
_cell_angle_beta   90.00000000
_cell_angle_gamma   90.00000000
_symmetry_Int_Tables_number   1
_chemical_formula_structural   HoTi2ZnO6
_chemical_formula_sum   'Ho2 Ti4 Zn2 O12'
_cell_volume   221.34356635
_cell_formula_units_Z   2
loop_
 _symmetry_equiv_pos_site_id
 _symmetry_equiv_pos_as_xyz
  1  'x, y, z'
loop_
 _atom_site_type_symbol
 _atom_site_label
 _atom_site_symmetry_multiplicity
 _atom_site_fract_x
 _atom_site_fract_y
 _atom_site_fract_z
 _atom_site_occupancy
  Ho  Ho0  1  0.01702600  0.67688000  0.00000000  1
  Ho  Ho1  1  0.51702600  0.32312000  0.50000000  1
  Ti  Ti0  1  0.00301400  0.23171400  0.74789700  1
  Ti  Ti1  1  0.00301400  0.23171400  0.25210300  1
  Ti  Ti2  1  0.50301400  0.76828600  0.24789700  1
  Ti  Ti3  1  0.50301400  0.76828600  0.75210300  1
  Zn  Zn0  1  0.49594000  0.23332500  0.00000000  1
  Zn  Zn1  1  0.99594000  0.76667500  0.50000000  1
  O  O0  1  0.10760500  0.20100800  0.50000000  1
  O  O1  1  0.18855700  0.94333500  0.81034900  1
  O  O2  1  0.18855700  0.94333500  0.18965100  1
  O  O3  1  0.31179400  0.44176200  0.81074300  1
  O  O4  1  0.31179400  0.44176200  0.18925700  1
  O  O5  1  0.37226600  0.71550200  0.50000000  1
  O  O6  1  0.60760500  0.79899200  0.00000000  1
  O  O7  1  0.68855700  0.05666500  0.31034900  1
  O  O8  1  0.68855700  0.05666500  0.68965100  1
  O  O9  1  0.81179400  0.55823800  0.68925700  1
  O  O10  1  0.81179400  0.55823800  0.31074300  1
  O  O11  1  0.87226600  0.28449800  0.00000000  1
loop_
_geom_bond_atom_site_label_1
_geom_bond_atom_site_label_2
_geom_bond_distance
_geom_bond_site_symmetry_2
Ho0 O1 2.249608 1_554
Ho0 O2 2.249608 1_555
Ho0 O6 2.260810 1_455
Ho0 O11 2.287373 1_455
Ho0 O4 2.485005 1_555
Ho0 O3 2.485005 1_554
Ho0 O9 2.688927 1_454
Ho0 O10 2.688927 1_455
Ho1 O8 2.249608 1_555
Ho1 O7 2.249608 1_555
Ho1 O0 2.260810 1_555
Ho1 O5 2.287373 1_555
Ho1 O10 2.485005 1_555
Ho1 O9 2.485005 1_555
Ho1 O3 2.688927 1_555
Ho1 O4 2.688927 1_555
O0 Ti0 1.979458 1_555
O0 Ti1 1.979458 1_555
O0 Zn1 2.458336 1_445
O1 Ti0 1.922539 1_565
O1 Ti3 1.967946 1_555
O2 Ti1 1.922539 1_565
O2 Ti2 1.967946 1_555
O3 Ti0 2.052788 1_555
O3 Zn0 2.084409 1_556
O3 Ti3 2.106420 1_555
O4 Ti1 2.052788 1_555
O4 Zn0 2.084409 1_555
O4 Ti2 2.106420 1_555
O5 Zn1 2.004240 1_455
O5 Ti3 2.065862 1_555
O5 Ti2 2.065862 1_555
O6 Ti2 1.979458 1_555
O6 Ti3 1.979458 1_554
O6 Zn0 2.458336 1_565
O7 Ti2 1.922539 1_545
O7 Ti1 1.967946 1_655
O8 Ti3 1.922539 1_545
O8 Ti0 1.967946 1_655
O9 Ti3 2.052788 1_555
O9 Zn1 2.084409 1_555
O9 Ti0 2.106420 1_655
O10 Ti2 2.052788 1_555
O10 Zn1 2.084409 1_555
O10 Ti1 2.106420 1_655
O11 Zn0 2.004240 1_555
O11 Ti1 2.065862 1_655
O11 Ti0 2.065862 1_654
