# generated using pymatgen
data_BaNdCo2O5
_symmetry_space_group_name_H-M   'P 1'
_cell_length_a   3.93980600
_cell_length_b   3.91493600
_cell_length_c   7.89822800
_cell_angle_alpha   90.00000000
_cell_angle_beta   90.00000000
_cell_angle_gamma   90.00000000
_symmetry_Int_Tables_number   1
_chemical_formula_structural   BaNdCo2O5
_chemical_formula_sum   'Ba1 Nd1 Co2 O5'
_cell_volume   121.82296642
_cell_formula_units_Z   1
loop_
 _symmetry_equiv_pos_site_id
 _symmetry_equiv_pos_as_xyz
  1  'x, y, z'
loop_
 _atom_site_type_symbol
 _atom_site_label
 _atom_site_symmetry_multiplicity
 _atom_site_fract_x
 _atom_site_fract_y
 _atom_site_fract_z
 _atom_site_occupancy
  Ba  Ba0  1  0.50000000  0.50000000  0.50330300  1
  Nd  Nd0  1  0.50000000  0.50000000  0.00048800  1
  Co  Co0  1  0.00000000  0.00000000  0.75962100  1
  Co  Co1  1  0.00000000  0.00000000  0.24067700  1
  O  O0  1  0.00000000  0.50000000  0.80749600  1
  O  O1  1  0.50000000  0.00000000  0.80558200  1
  O  O2  1  0.00000000  0.50000000  0.18582500  1
  O  O3  1  0.00000000  0.00000000  0.49918900  1
  O  O4  1  0.50000000  0.00000000  0.19781900  1
loop_
_geom_bond_atom_site_label_1
_geom_bond_atom_site_label_2
_geom_bond_distance
_geom_bond_site_symmetry_2
Ba0 O3 2.777275 1_665
Ba0 O3 2.777275 1_655
Ba0 O3 2.777275 1_555
Ba0 O3 2.777275 1_565
Ba0 O1 3.087343 1_565
Ba0 O1 3.087343 1_555
Ba0 O0 3.106917 1_555
Ba0 O0 3.106917 1_655
Ba0 O4 3.106960 1_565
Ba0 O4 3.106960 1_555
Ba0 O2 3.188752 1_555
Ba0 O2 3.188752 1_655
Nd0 O2 2.454247 1_655
Nd0 O2 2.454247 1_555
Nd0 O1 2.490275 1_564
Nd0 O1 2.490275 1_554
Nd0 O0 2.490782 1_654
Nd0 O0 2.490782 1_554
Nd0 O4 2.502160 1_565
Nd0 O4 2.502160 1_555
Co0 O0 1.993655 1_555
Co0 O0 1.993655 1_545
Co0 O1 2.003071 1_455
Co0 O1 2.003071 1_555
Co0 O3 2.056951 1_555
Co1 O4 1.998775 1_455
Co1 O4 1.998775 1_555
Co1 O2 2.004837 1_545
Co1 O2 2.004837 1_555
Co1 O3 2.041787 1_555
