# generated using pymatgen
data_TeMoWSe2S
_symmetry_space_group_name_H-M   'P 1'
_cell_length_a   3.34571596
_cell_length_b   3.34571596
_cell_length_c   38.10389300
_cell_angle_alpha   90.00000000
_cell_angle_beta   90.00000000
_cell_angle_gamma   119.99999915
_symmetry_Int_Tables_number   1
_chemical_formula_structural   TeMoWSe2S
_chemical_formula_sum   'Te2 Mo2 W2 Se4 S2'
_cell_volume   369.38403384
_cell_formula_units_Z   2
loop_
 _symmetry_equiv_pos_site_id
 _symmetry_equiv_pos_as_xyz
  1  'x, y, z'
loop_
 _atom_site_type_symbol
 _atom_site_label
 _atom_site_symmetry_multiplicity
 _atom_site_fract_x
 _atom_site_fract_y
 _atom_site_fract_z
 _atom_site_occupancy
  Te  Te0  1  0.33333300  0.66666700  0.33191500  1
  Te  Te1  1  0.33333300  0.66666700  0.23173400  1
  Mo  Mo0  1  0.33333300  0.66666700  0.09385800  1
  Mo  Mo1  1  0.33333300  0.66666700  0.46968400  1
  W  W0  1  0.66666700  0.33333300  0.28183700  1
  W  W1  1  0.66666700  0.33333300  0.65753600  1
  Se  Se0  1  0.33333300  0.66666700  0.70151800  1
  Se  Se1  1  0.66666700  0.33333300  0.05012900  1
  Se  Se2  1  0.66666700  0.33333300  0.13763500  1
  Se  Se3  1  0.33333300  0.66666700  0.61354500  1
  S  S0  1  0.66666700  0.33333300  0.42987700  1
  S  S1  1  0.66666700  0.33333300  0.50947900  1
loop_
_geom_bond_atom_site_label_1
_geom_bond_atom_site_label_2
_geom_bond_distance
_geom_bond_site_symmetry_2
Te0 W0 2.715210 1_455
Te0 W0 2.715210 1_565
Te0 W0 2.715214 1_555
Te1 W0 2.715879 1_565
Te1 W0 2.715879 1_455
Te1 W0 2.715884 1_555
Mo0 Se1 2.551007 1_455
Mo0 Se1 2.551007 1_565
Mo0 Se1 2.551011 1_555
Mo0 Se2 2.552202 1_565
Mo0 Se2 2.552202 1_455
Mo0 Se2 2.552206 1_555
Mo1 S1 2.455721 1_455
Mo1 S1 2.455721 1_565
Mo1 S1 2.455725 1_555
Mo1 S0 2.456003 1_455
Mo1 S0 2.456003 1_565
Mo1 S0 2.456008 1_555
Se0 W1 2.557314 1_455
Se0 W1 2.557314 1_565
Se0 W1 2.557319 1_555
Se3 W1 2.557539 1_455
Se3 W1 2.557539 1_565
Se3 W1 2.557543 1_555
