# generated using pymatgen
data_GeAs2O9
_symmetry_space_group_name_H-M   'P 1'
_cell_length_a   5.58205200
_cell_length_b   8.12888097
_cell_length_c   17.94874716
_cell_angle_alpha   95.49713742
_cell_angle_beta   90.00000000
_cell_angle_gamma   90.00000000
_symmetry_Int_Tables_number   1
_chemical_formula_structural   GeAs2O9
_chemical_formula_sum   'Ge4 As8 O36'
_cell_volume   810.69379425
_cell_formula_units_Z   4
loop_
 _symmetry_equiv_pos_site_id
 _symmetry_equiv_pos_as_xyz
  1  'x, y, z'
loop_
 _atom_site_type_symbol
 _atom_site_label
 _atom_site_symmetry_multiplicity
 _atom_site_fract_x
 _atom_site_fract_y
 _atom_site_fract_z
 _atom_site_occupancy
  Ge  Ge0  1  0.27517500  0.77024500  0.52666500  1
  Ge  Ge1  1  0.72482500  0.22975500  0.47333500  1
  Ge  Ge2  1  0.77517500  0.72975500  0.97333500  1
  Ge  Ge3  1  0.22482500  0.27024500  0.02666500  1
  As  As0  1  0.32668100  0.14679300  0.59800400  1
  As  As1  1  0.67331900  0.85320700  0.40199600  1
  As  As2  1  0.82668100  0.35320700  0.90199600  1
  As  As3  1  0.17331900  0.64679300  0.09800400  1
  As  As4  1  0.27359500  0.86907200  0.95705800  1
  As  As5  1  0.72640500  0.13092800  0.04294200  1
  As  As6  1  0.77359500  0.63092800  0.54294200  1
  As  As7  1  0.22640500  0.36907200  0.45705800  1
  O  O0  1  0.65082500  0.21703400  0.95925200  1
  O  O1  1  0.34917500  0.78296600  0.04074800  1
  O  O2  1  0.15082500  0.28296600  0.54074800  1
  O  O3  1  0.84917500  0.71703400  0.45925200  1
  O  O4  1  0.19641500  0.90876700  0.77538600  1
  O  O5  1  0.80358500  0.09123300  0.22461400  1
  O  O6  1  0.69641500  0.59123300  0.72461400  1
  O  O7  1  0.30358500  0.40876700  0.27538600  1
  O  O8  1  0.10667300  0.37493400  0.94680600  1
  O  O9  1  0.89332700  0.62506600  0.05319400  1
  O  O10  1  0.60667300  0.12506600  0.55319400  1
  O  O11  1  0.39332700  0.87493400  0.44680600  1
  O  O12  1  0.16401400  0.96352900  0.57401300  1
  O  O13  1  0.83598600  0.03647100  0.42598700  1
  O  O14  1  0.66401400  0.53647100  0.92598700  1
  O  O15  1  0.33598600  0.46352900  0.07401300  1
  O  O16  1  0.30589900  0.21583600  0.68575600  1
  O  O17  1  0.69410100  0.78416400  0.31424400  1
  O  O18  1  0.80589900  0.28416400  0.81424400  1
  O  O19  1  0.19410100  0.71583600  0.18575600  1
  O  O20  1  0.48697200  0.55844400  0.73928500  1
  O  O21  1  0.51302800  0.44155600  0.26071500  1
  O  O22  1  0.98697200  0.94155600  0.76071500  1
  O  O23  1  0.01302800  0.05844400  0.23928500  1
  O  O24  1  0.54285100  0.74511100  0.58568200  1
  O  O25  1  0.45714900  0.25488900  0.41431800  1
  O  O26  1  0.04285100  0.75488900  0.91431800  1
  O  O27  1  0.95714900  0.24511100  0.08568200  1
  O  O28  1  0.18277800  0.07122800  0.95978200  1
  O  O29  1  0.81722200  0.92877200  0.04021800  1
  O  O30  1  0.68277800  0.42877200  0.54021800  1
  O  O31  1  0.31722200  0.57122800  0.45978200  1
  O  O32  1  0.05144400  0.65563000  0.58399700  1
  O  O33  1  0.94855600  0.34437000  0.41600300  1
  O  O34  1  0.55144400  0.84437000  0.91600300  1
  O  O35  1  0.44855600  0.15563000  0.08399700  1
loop_
_geom_bond_atom_site_label_1
_geom_bond_atom_site_label_2
_geom_bond_distance
_geom_bond_site_symmetry_2
Ge0 O12 1.822099 1_555
Ge0 O24 1.854147 1_555
Ge0 O11 1.856728 1_555
Ge0 O32 1.915816 1_555
Ge0 O31 1.934256 1_555
Ge1 O13 1.822099 1_555
Ge1 O25 1.854147 1_555
Ge1 O10 1.856728 1_555
Ge1 O33 1.915816 1_555
Ge1 O30 1.934256 1_555
Ge2 O14 1.822099 1_555
Ge2 O26 1.854147 1_655
Ge2 O9 1.856728 1_556
Ge2 O34 1.915816 1_555
Ge2 O29 1.934256 1_556
Ge3 O15 1.822099 1_555
Ge3 O27 1.854147 1_455
Ge3 O8 1.856728 1_554
Ge3 O35 1.915816 1_555
Ge3 O28 1.934256 1_554
As0 O16 1.624756 1_555
As0 O10 1.758863 1_555
As0 O12 1.762473 1_545
As0 O2 1.860907 1_555
As1 O17 1.624756 1_555
As1 O11 1.758863 1_555
As1 O13 1.762473 1_565
As1 O3 1.860907 1_555
As2 O18 1.624756 1_555
As2 O8 1.758863 1_655
As2 O14 1.762473 1_555
As2 O0 1.860907 1_555
As3 O19 1.624756 1_555
As3 O9 1.758863 1_455
As3 O15 1.762473 1_555
As3 O1 1.860907 1_555
As4 O28 1.715935 1_565
As4 O34 1.720602 1_555
As4 O26 1.724121 1_555
As4 O1 1.767980 1_556
As5 O29 1.715935 1_545
As5 O35 1.720602 1_555
As5 O27 1.724121 1_555
As5 O0 1.767980 1_554
As6 O30 1.715935 1_555
As6 O32 1.720602 1_655
As6 O24 1.724121 1_555
As6 O3 1.767980 1_555
As7 O31 1.715935 1_555
As7 O33 1.720602 1_455
As7 O25 1.724121 1_555
As7 O2 1.767980 1_555
O20 O6 1.233157 1_555
O21 O7 1.233157 1_555
O22 O4 1.233157 1_655
O23 O5 1.233157 1_455
