# generated using pymatgen
data_Ba2B6H4O13
_symmetry_space_group_name_H-M   'P 1'
_cell_length_a   8.73830860
_cell_length_b   6.82489647
_cell_length_c   8.48618779
_cell_angle_alpha   79.33061900
_cell_angle_beta   90.00000000
_cell_angle_gamma   90.00000000
_symmetry_Int_Tables_number   1
_chemical_formula_structural   Ba2B6H4O13
_chemical_formula_sum   'Ba4 B12 H8 O26'
_cell_volume   497.35019107
_cell_formula_units_Z   2
loop_
 _symmetry_equiv_pos_site_id
 _symmetry_equiv_pos_as_xyz
  1  'x, y, z'
loop_
 _atom_site_type_symbol
 _atom_site_label
 _atom_site_symmetry_multiplicity
 _atom_site_fract_x
 _atom_site_fract_y
 _atom_site_fract_z
 _atom_site_occupancy
  Ba  Ba0  1  0.56748117  0.19343726  0.71671695  1
  Ba  Ba1  1  0.06748117  0.80656274  0.28328305  1
  Ba  Ba2  1  0.42778372  0.24714155  0.23589227  1
  Ba  Ba3  1  0.92778372  0.75285845  0.76410773  1
  B  B0  1  0.27303098  0.45780477  0.54792468  1
  B  B1  1  0.77303098  0.54219523  0.45207532  1
  B  B2  1  0.49676530  0.64586790  0.40921435  1
  B  B3  1  0.99676530  0.35413210  0.59078565  1
  B  B4  1  0.70336590  0.90565585  0.36607680  1
  B  B5  1  0.20336590  0.09434415  0.63392320  1
  B  B6  1  0.71283071  0.92755823  0.05726629  1
  B  B7  1  0.21283071  0.07244177  0.94273371  1
  B  B8  1  0.93275793  0.14106321  0.94704930  1
  B  B9  1  0.43275793  0.85893679  0.05295070  1
  B  B10  1  0.10394173  0.36840270  0.03698061  1
  B  B11  1  0.60394173  0.63159730  0.96301939  1
  H  H0  1  0.29769356  0.44093834  0.79202184  1
  H  H1  1  0.79769356  0.55906166  0.20797816  1
  H  H2  1  0.76526808  0.18798577  0.39145320  1
  H  H3  1  0.26526808  0.81201423  0.60854680  1
  H  H4  1  0.01768584  0.32353684  0.26203830  1
  H  H5  1  0.51768584  0.67646316  0.73796170  1
  H  H6  1  0.22903095  0.62322950  0.00760440  1
  H  H7  1  0.72903095  0.37677050  0.99239560  1
  O  O0  1  0.34501076  0.51265556  0.69175234  1
  O  O1  1  0.84501076  0.48734444  0.30824766  1
  O  O2  1  0.29584834  0.25038786  0.53461506  1
  O  O3  1  0.79584834  0.74961214  0.46538494  1
  O  O4  1  0.34366069  0.59194550  0.40879084  1
  O  O5  1  0.84366069  0.40805450  0.59120916  1
  O  O6  1  0.60461039  0.49773427  0.45157206  1
  O  O7  1  0.10461039  0.50226573  0.54842794  1
  O  O8  1  0.53962026  0.83931932  0.36130113  1
  O  O9  1  0.03962026  0.16068068  0.63869887  1
  O  O10  1  0.69454844  0.08480708  0.44064309  1
  O  O11  1  0.19454844  0.91519292  0.55935691  1
  O  O12  1  0.77283909  0.96217791  0.20694961  1
  O  O13  1  0.27283909  0.03782209  0.79305039  1
  O  O14  1  0.55153099  0.99071017  0.03444829  1
  O  O15  1  0.05153099  0.00928983  0.96555171  1
  O  O16  1  0.79276313  0.06286469  0.92077423  1
  O  O17  1  0.29276313  0.93713531  0.07922577  1
  O  O18  1  0.95327638  0.33666860  0.95851993  1
  O  O19  1  0.45327638  0.66333140  0.04148007  1
  O  O20  1  0.22971032  0.28163811  0.96099356  1
  O  O21  1  0.72971032  0.71836189  0.03900644  1
  O  O22  1  0.12181727  0.58441707  0.01875745  1
  O  O23  1  0.62181727  0.41558293  0.98124255  1
  O  O24  1  0.10071908  0.26723279  0.20785967  1
  O  O25  1  0.60071908  0.73276721  0.79214033  1
loop_
_geom_bond_atom_site_label_1
_geom_bond_atom_site_label_2
_geom_bond_distance
_geom_bond_site_symmetry_2
Ba0 O16 2.663968 1_555
Ba0 O6 2.784035 1_555
Ba0 O14 2.796882 1_546
Ba0 O10 2.813269 1_555
Ba0 O13 2.814566 1_555
Ba0 O2 2.819717 1_555
Ba0 O0 2.898208 1_555
Ba0 O5 2.920003 1_555
Ba0 O23 2.970434 1_555
Ba0 O25 3.103834 1_545
Ba1 O17 2.663968 1_555
Ba1 O7 2.784035 1_555
Ba1 O15 2.796882 1_564
Ba1 O11 2.813269 1_555
Ba1 O12 2.814566 1_455
Ba1 O3 2.819717 1_455
Ba1 O1 2.898208 1_455
Ba1 O4 2.920003 1_555
Ba1 O22 2.970434 1_555
Ba1 O24 3.103834 1_565
Ba2 O2 2.788685 1_555
Ba2 O23 2.818941 1_554
Ba2 O24 2.869047 1_555
Ba2 O14 2.874437 1_545
Ba2 O20 2.879231 1_554
Ba2 O17 2.945783 1_545
Ba2 O8 2.955981 1_545
Ba2 O10 2.994604 1_555
Ba2 O19 3.017360 1_555
Ba2 O4 3.083746 1_555
Ba2 O6 3.133952 1_555
Ba3 O3 2.788685 1_555
Ba3 O22 2.818941 1_656
Ba3 O25 2.869047 1_555
Ba3 O15 2.874437 1_665
Ba3 O21 2.879231 1_556
Ba3 O16 2.945783 1_565
Ba3 O9 2.955981 1_665
Ba3 O11 2.994604 1_655
Ba3 O18 3.017360 1_555
Ba3 O5 3.083746 1_555
Ba3 O7 3.133952 1_655
B0 O2 1.454523 1_555
B0 O0 1.481446 1_555
B0 O4 1.487577 1_555
B0 O7 1.502833 1_555
B1 O3 1.454523 1_555
B1 O1 1.481446 1_555
B1 O5 1.487577 1_555
B1 O6 1.502833 1_555
B2 O8 1.360123 1_555
B2 O6 1.380161 1_555
B2 O4 1.387749 1_555
B3 O9 1.360123 1_655
B3 O7 1.380161 1_655
B3 O5 1.387749 1_555
B4 O12 1.465606 1_555
B4 O3 1.471451 1_555
B4 O10 1.479123 1_565
B4 O8 1.503586 1_555
B5 O13 1.465606 1_555
B5 O2 1.471451 1_555
B5 O11 1.479123 1_545
B5 O9 1.503586 1_555
B6 O12 1.433679 1_555
B6 O21 1.471781 1_555
B6 O14 1.476147 1_555
B6 O16 1.512024 1_564
B7 O13 1.433679 1_555
B7 O20 1.471781 1_555
B7 O15 1.476147 1_555
B7 O17 1.512024 1_546
B8 O15 1.363218 1_655
B8 O18 1.368185 1_555
B8 O16 1.369350 1_555
B9 O14 1.363218 1_555
B9 O19 1.368185 1_555
B9 O17 1.369350 1_555
B10 O20 1.454536 1_554
B10 O22 1.461979 1_555
B10 O24 1.486479 1_555
B10 O18 1.508963 1_454
B11 O21 1.454536 1_556
B11 O23 1.461979 1_555
B11 O25 1.486479 1_555
B11 O19 1.508963 1_556
H0 O0 0.990129 1_555
H1 O1 0.990129 1_555
H2 O10 0.971169 1_555
H3 O11 0.971169 1_555
H4 O24 0.975153 1_555
H5 O25 0.975153 1_555
H6 O22 0.973427 1_555
H7 O23 0.973427 1_555
