# generated using pymatgen
data_Dy4FeSn8
_symmetry_space_group_name_H-M   'P 1'
_cell_length_a   4.40194300
_cell_length_b   4.45376600
_cell_length_c   16.60215200
_cell_angle_alpha   90.00000000
_cell_angle_beta   90.00000000
_cell_angle_gamma   90.00000000
_symmetry_Int_Tables_number   1
_chemical_formula_structural   Dy4FeSn8
_chemical_formula_sum   'Dy4 Fe1 Sn8'
_cell_volume   325.48890996
_cell_formula_units_Z   1
loop_
 _symmetry_equiv_pos_site_id
 _symmetry_equiv_pos_as_xyz
  1  'x, y, z'
loop_
 _atom_site_type_symbol
 _atom_site_label
 _atom_site_symmetry_multiplicity
 _atom_site_fract_x
 _atom_site_fract_y
 _atom_site_fract_z
 _atom_site_occupancy
  Dy  Dy0  1  0.25000000  0.00000000  0.09838400  1
  Dy  Dy1  1  0.25000000  0.50000000  0.60337700  1
  Dy  Dy2  1  0.75000000  0.50000000  0.39647700  1
  Dy  Dy3  1  0.75000000  0.00000000  0.90028400  1
  Fe  Fe0  1  0.25000000  0.00000000  0.30796700  1
  Sn  Sn0  1  0.25000000  0.00000000  0.45644500  1
  Sn  Sn1  1  0.25000000  0.50000000  0.93699100  1
  Sn  Sn2  1  0.75000000  0.50000000  0.06257600  1
  Sn  Sn3  1  0.75000000  0.00000000  0.57514800  1
  Sn  Sn4  1  0.25000000  0.50000000  0.23818700  1
  Sn  Sn5  1  0.25000000  0.00000000  0.74849000  1
  Sn  Sn6  1  0.75000000  0.00000000  0.23829700  1
  Sn  Sn7  1  0.75000000  0.50000000  0.75337800  1
loop_
_geom_bond_atom_site_label_1
_geom_bond_atom_site_label_2
_geom_bond_distance
_geom_bond_site_symmetry_2
Dy0 Sn2 3.186958 1_445
Dy0 Sn2 3.186958 1_545
Dy0 Sn2 3.186958 1_555
Dy0 Sn2 3.186958 1_455
Dy0 Sn6 3.199991 1_455
Dy0 Sn6 3.199991 1_555
Dy0 Sn4 3.216550 1_545
Dy0 Sn4 3.216550 1_555
Dy0 Sn1 3.484046 1_554
Dy0 Sn1 3.484046 1_544
Dy1 Sn3 3.165901 1_455
Dy1 Sn3 3.165901 1_555
Dy1 Sn3 3.165901 1_565
Dy1 Sn3 3.165901 1_465
Dy1 Sn5 3.280731 1_565
Dy1 Sn5 3.280731 1_555
Dy1 Sn0 3.302971 1_555
Dy1 Sn0 3.302971 1_565
Dy1 Sn7 3.323562 1_455
Dy1 Sn7 3.323562 1_555
Dy2 Sn0 3.285498 1_665
Dy2 Sn0 3.285498 1_555
Dy2 Sn0 3.285498 1_565
Dy2 Sn0 3.285498 1_655
Dy2 Sn4 3.427889 1_655
Dy2 Sn4 3.427889 1_555
Dy2 Sn6 3.443190 1_555
Dy2 Sn6 3.443190 1_565
Dy2 Fe0 3.458697 1_565
Dy2 Fe0 3.458697 1_655
Dy2 Fe0 3.458697 1_665
Dy2 Fe0 3.458697 1_555
Dy2 Sn3 3.709189 1_555
Dy2 Sn3 3.709189 1_565
Dy3 Sn1 3.189776 1_655
Dy3 Sn1 3.189776 1_645
Dy3 Sn1 3.189776 1_555
Dy3 Sn1 3.189776 1_545
Dy3 Sn7 3.302652 1_555
Dy3 Sn7 3.302652 1_545
Dy3 Sn5 3.345925 1_555
Dy3 Sn5 3.345925 1_655
Dy3 Sn2 3.495537 1_556
Dy3 Sn2 3.495537 1_546
Fe0 Sn0 2.465054 1_555
Fe0 Sn6 2.486396 1_555
Fe0 Sn6 2.486396 1_455
Fe0 Sn4 2.510204 1_545
Fe0 Sn4 2.510204 1_555
Sn0 Sn3 2.954325 1_455
Sn0 Sn3 2.954325 1_555
Sn1 Sn2 3.031736 1_456
Sn1 Sn2 3.031736 1_556
Sn4 Sn6 3.131020 1_555
Sn4 Sn6 3.131020 1_465
Sn4 Sn6 3.131020 1_565
Sn4 Sn6 3.131020 1_455
Sn5 Sn7 3.132071 1_455
Sn5 Sn7 3.132071 1_555
Sn5 Sn7 3.132071 1_445
Sn5 Sn7 3.132071 1_545
