# generated using pymatgen
data_AgS8N9(ClO6)2
_symmetry_space_group_name_H-M   'P 1'
_cell_length_a   12.97720299
_cell_length_b   12.97720299
_cell_length_c   12.97720299
_cell_angle_alpha   106.62865230
_cell_angle_beta   106.62865230
_cell_angle_gamma   115.31945774
_symmetry_Int_Tables_number   1
_chemical_formula_structural   AgS8N9(ClO6)2
_chemical_formula_sum   'Ag2 S16 N18 Cl4 O24'
_cell_volume   1669.09006169
_cell_formula_units_Z   2
loop_
 _symmetry_equiv_pos_site_id
 _symmetry_equiv_pos_as_xyz
  1  'x, y, z'
loop_
 _atom_site_type_symbol
 _atom_site_label
 _atom_site_symmetry_multiplicity
 _atom_site_fract_x
 _atom_site_fract_y
 _atom_site_fract_z
 _atom_site_occupancy
  Ag  Ag0  1  0.25000000  0.75000000  0.50000000  1
  Ag  Ag1  1  0.00000000  0.00000000  0.00000000  1
  S  S0  1  0.14164000  0.52252700  0.25414300  1
  S  S1  1  0.10836000  0.86250300  0.88088700  1
  S  S2  1  0.26838400  0.88749700  0.74585700  1
  S  S3  1  0.98161600  0.22747300  0.11911300  1
  S  S4  1  0.47747300  0.73161600  0.61911300  1
  S  S5  1  0.77252700  0.89164000  0.75414300  1
  S  S6  1  0.11250300  0.85836000  0.38088700  1
  S  S7  1  0.13749700  0.01838400  0.24585700  1
  S  S8  1  0.37528700  0.57040600  0.26269000  1
  S  S9  1  0.87471300  0.63740300  0.69511900  1
  S  S10  1  0.30771600  0.11259700  0.73731000  1
  S  S11  1  0.94228400  0.17959400  0.30488100  1
  S  S12  1  0.42959400  0.69228400  0.80488100  1
  S  S13  1  0.82040600  0.12528700  0.76269000  1
  S  S14  1  0.88740300  0.62471300  0.19511900  1
  S  S15  1  0.36259700  0.05771600  0.23731000  1
  N  N0  1  0.75000000  0.25000000  0.50000000  1
  N  N1  1  0.50000000  0.50000000  0.00000000  1
  N  N2  1  0.39874800  0.89874800  0.50000000  1
  N  N3  1  0.85125200  0.85125200  0.00000000  1
  N  N4  1  0.10125200  0.60125200  0.50000000  1
  N  N5  1  0.14874800  0.14874800  0.00000000  1
  N  N6  1  0.62500000  0.80966400  0.68466400  1
  N  N7  1  0.12500000  0.94033600  0.31533600  1
  N  N8  1  0.19033600  0.87500000  0.81533600  1
  N  N9  1  0.05966400  0.37500000  0.18466400  1
  N  N10  1  0.81336700  0.37828800  0.80186700  1
  N  N11  1  0.43663300  0.73849900  0.06492100  1
  N  N12  1  0.57642100  0.01150100  0.19813300  1
  N  N13  1  0.67357900  0.37171200  0.93507900  1
  N  N14  1  0.62171200  0.42357900  0.43507900  1
  N  N15  1  0.62828800  0.56336700  0.30186700  1
  N  N16  1  0.98849900  0.18663300  0.56492100  1
  N  N17  1  0.26150100  0.32642100  0.69813300  1
  Cl  Cl0  1  0.12500000  0.22562300  0.60062300  1
  Cl  Cl1  1  0.62500000  0.52437700  0.39937700  1
  Cl  Cl2  1  0.77437700  0.37500000  0.89937700  1
  Cl  Cl3  1  0.47562300  0.87500000  0.10062300  1
  O  O0  1  0.45163300  0.70535300  0.35168100  1
  O  O1  1  0.79836700  0.65004800  0.75372000  1
  O  O2  1  0.35367200  0.09995200  0.64831900  1
  O  O3  1  0.89632800  0.04464700  0.24628000  1
  O  O4  1  0.29464700  0.64632800  0.74628000  1
  O  O5  1  0.95535300  0.20163300  0.85168100  1
  O  O6  1  0.90004800  0.54836700  0.25372000  1
  O  O7  1  0.34995200  0.10367200  0.14831900  1
  O  O8  1  0.36320200  0.47636000  0.30519700  1
  O  O9  1  0.88679800  0.69199500  0.61315800  1
  O  O10  1  0.17116200  0.05800500  0.69480300  1
  O  O11  1  0.07883800  0.27364000  0.38684200  1
  O  O12  1  0.52364000  0.82883800  0.88684200  1
  O  O13  1  0.72636000  0.11320200  0.80519700  1
  O  O14  1  0.94199500  0.63679800  0.11315800  1
  O  O15  1  0.30800500  0.92116200  0.19480300  1
  O  O16  1  0.32854600  0.53225300  0.13519200  1
  O  O17  1  0.92145400  0.55664600  0.70370800  1
  O  O18  1  0.39706100  0.19335400  0.86480800  1
  O  O19  1  0.85293900  0.21774700  0.29629200  1
  O  O20  1  0.46774700  0.60293900  0.79629200  1
  O  O21  1  0.78225300  0.07854600  0.63519200  1
  O  O22  1  0.80664600  0.67145400  0.20370800  1
  O  O23  1  0.44335400  0.14706100  0.36480800  1
loop_
_geom_bond_atom_site_label_1
_geom_bond_atom_site_label_2
_geom_bond_distance
_geom_bond_site_symmetry_2
Ag0 N4 2.065249 1_555
Ag0 N2 2.065249 1_555
Ag1 N3 2.065249 1_445
Ag1 N5 2.065249 1_555
N6 S5 1.526755 1_555
N6 S4 1.526755 1_555
N7 S6 1.526755 1_555
N7 S7 1.526755 1_565
N8 S2 1.526755 1_555
N8 S1 1.526755 1_555
N9 S0 1.526755 1_555
N9 S3 1.526755 1_455
Cl0 N17 1.495995 1_555
Cl0 N16 1.496000 1_455
Cl1 N15 1.495988 1_555
Cl1 N14 1.495988 1_555
Cl2 N13 1.495988 1_555
Cl2 N10 1.495988 1_555
Cl3 N12 1.495995 1_565
Cl3 N11 1.496000 1_555
O0 S8 1.444201 1_555
O1 S9 1.444201 1_555
O2 S10 1.444201 1_555
O3 S11 1.444201 1_555
O4 S12 1.444201 1_555
O5 S13 1.444201 1_555
O6 S14 1.444201 1_555
O7 S15 1.444201 1_555
O8 S8 1.445511 1_555
O9 S9 1.445511 1_555
O10 S10 1.445523 1_555
O11 S11 1.445520 1_455
O12 S12 1.445520 1_555
O13 S13 1.445511 1_555
O14 S14 1.445511 1_555
O15 S15 1.445523 1_565
O16 S8 1.431965 1_555
O17 S9 1.431967 1_555
O18 S10 1.431965 1_555
O19 S11 1.431964 1_555
O20 S12 1.431964 1_555
O21 S13 1.431965 1_555
O22 S14 1.431967 1_555
O23 S15 1.431965 1_555
