# generated using pymatgen
data_KEu(CO3)2
_symmetry_space_group_name_H-M   'P 1'
_cell_length_a   6.63249824
_cell_length_b   6.63249824
_cell_length_c   7.20383333
_cell_angle_alpha   75.96471314
_cell_angle_beta   75.96471314
_cell_angle_gamma   96.28509747
_symmetry_Int_Tables_number   1
_chemical_formula_structural   KEu(CO3)2
_chemical_formula_sum   'K2 Eu2 C4 O12'
_cell_volume   293.45161780
_cell_formula_units_Z   2
loop_
 _symmetry_equiv_pos_site_id
 _symmetry_equiv_pos_as_xyz
  1  'x, y, z'
loop_
 _atom_site_type_symbol
 _atom_site_label
 _atom_site_symmetry_multiplicity
 _atom_site_fract_x
 _atom_site_fract_y
 _atom_site_fract_z
 _atom_site_occupancy
  K  K0  1  0.62012100  0.37987900  0.75000000  1
  K  K1  1  0.37987900  0.62012100  0.25000000  1
  Eu  Eu0  1  0.09843200  0.90156800  0.75000000  1
  Eu  Eu1  1  0.90156800  0.09843200  0.25000000  1
  C  C0  1  0.64666700  0.89016200  0.75737000  1
  C  C1  1  0.35333300  0.10983800  0.24263000  1
  C  C2  1  0.10983800  0.35333300  0.74263000  1
  C  C3  1  0.89016200  0.64666700  0.25737000  1
  O  O0  1  0.44978400  0.89580600  0.77895700  1
  O  O1  1  0.55021600  0.10419400  0.22104300  1
  O  O2  1  0.10419400  0.55021600  0.72104300  1
  O  O3  1  0.89580600  0.44978400  0.27895700  1
  O  O4  1  0.71003600  0.75104500  0.88047400  1
  O  O5  1  0.28996400  0.24895500  0.11952600  1
  O  O6  1  0.24895500  0.28996400  0.61952600  1
  O  O7  1  0.75104500  0.71003600  0.38047400  1
  O  O8  1  0.79177500  0.03019400  0.61200500  1
  O  O9  1  0.20822500  0.96980600  0.38799500  1
  O  O10  1  0.96980600  0.20822500  0.88799500  1
  O  O11  1  0.03019400  0.79177500  0.11200500  1
loop_
_geom_bond_atom_site_label_1
_geom_bond_atom_site_label_2
_geom_bond_distance
_geom_bond_site_symmetry_2
K0 O7 2.875843 1_555
K0 O5 2.875843 1_556
K0 O4 2.893453 1_555
K0 O6 2.893453 1_555
K0 O10 2.968326 1_555
K0 O8 2.968326 1_555
K1 O6 2.875843 1_555
K1 O4 2.875843 1_554
K1 O7 2.893453 1_555
K1 O5 2.893453 1_555
K1 O9 2.968326 1_555
K1 O11 2.968326 1_555
Eu0 O2 2.393091 1_555
Eu0 O0 2.393091 1_555
Eu0 O11 2.443383 1_556
Eu0 O9 2.443383 1_555
Eu0 O6 2.514648 1_565
Eu0 O4 2.514648 1_455
Eu0 O8 2.608071 1_465
Eu0 O10 2.608071 1_465
Eu1 O3 2.393091 1_555
Eu1 O1 2.393091 1_555
Eu1 O10 2.443383 1_554
Eu1 O8 2.443383 1_555
Eu1 O5 2.514648 1_655
Eu1 O7 2.514648 1_545
Eu1 O11 2.608071 1_645
Eu1 O9 2.608071 1_645
C0 O0 1.282886 1_555
C0 O4 1.297408 1_555
C0 O8 1.314978 1_565
C1 O1 1.282886 1_555
C1 O5 1.297408 1_555
C1 O9 1.314978 1_545
C2 O2 1.282886 1_555
C2 O6 1.297408 1_555
C2 O10 1.314978 1_455
C3 O3 1.282886 1_555
C3 O7 1.297408 1_555
C3 O11 1.314978 1_655
