# generated using pymatgen
data_MnSiO4
_symmetry_space_group_name_H-M   'P 1'
_cell_length_a   10.01614152
_cell_length_b   10.01614152
_cell_length_c   10.01614152
_cell_angle_alpha   109.47122063
_cell_angle_beta   109.47122063
_cell_angle_gamma   109.47122063
_symmetry_Int_Tables_number   1
_chemical_formula_structural   MnSiO4
_chemical_formula_sum   'Mn12 Si12 O48'
_cell_volume   773.53410251
_cell_formula_units_Z   12
loop_
 _symmetry_equiv_pos_site_id
 _symmetry_equiv_pos_as_xyz
  1  'x, y, z'
loop_
 _atom_site_type_symbol
 _atom_site_label
 _atom_site_symmetry_multiplicity
 _atom_site_fract_x
 _atom_site_fract_y
 _atom_site_fract_z
 _atom_site_occupancy
  Mn  Mn0  1  0.37500000  0.12500000  0.25000000  1
  Mn  Mn1  1  0.75000000  0.12500000  0.37500000  1
  Mn  Mn2  1  0.25000000  0.37500000  0.12500000  1
  Mn  Mn3  1  0.37500000  0.75000000  0.12500000  1
  Mn  Mn4  1  0.12500000  0.37500000  0.75000000  1
  Mn  Mn5  1  0.12500000  0.25000000  0.37500000  1
  Mn  Mn6  1  0.62500000  0.25000000  0.87500000  1
  Mn  Mn7  1  0.25000000  0.87500000  0.62500000  1
  Mn  Mn8  1  0.62500000  0.87500000  0.75000000  1
  Mn  Mn9  1  0.87500000  0.62500000  0.25000000  1
  Mn  Mn10  1  0.87500000  0.75000000  0.62500000  1
  Mn  Mn11  1  0.75000000  0.62500000  0.87500000  1
  Si  Si0  1  0.62500000  0.37500000  0.25000000  1
  Si  Si1  1  0.87500000  0.12500000  0.75000000  1
  Si  Si2  1  0.25000000  0.62500000  0.37500000  1
  Si  Si3  1  0.62500000  0.75000000  0.37500000  1
  Si  Si4  1  0.37500000  0.25000000  0.62500000  1
  Si  Si5  1  0.37500000  0.62500000  0.75000000  1
  Si  Si6  1  0.25000000  0.12500000  0.87500000  1
  Si  Si7  1  0.12500000  0.87500000  0.25000000  1
  Si  Si8  1  0.75000000  0.37500000  0.62500000  1
  Si  Si9  1  0.87500000  0.25000000  0.12500000  1
  Si  Si10  1  0.75000000  0.87500000  0.12500000  1
  Si  Si11  1  0.12500000  0.75000000  0.87500000  1
  O  O0  1  0.58993400  0.89692300  0.36697600  1
  O  O1  1  0.36697600  0.58993400  0.89692300  1
  O  O2  1  0.27704200  0.30698900  0.91006600  1
  O  O3  1  0.47005300  0.60307700  0.19301100  1
  O  O4  1  0.30698900  0.89692300  0.02994700  1
  O  O5  1  0.13302400  0.02994700  0.22295800  1
  O  O6  1  0.36697600  0.27704200  0.47005300  1
  O  O7  1  0.89692300  0.36697600  0.58993400  1
  O  O8  1  0.19301100  0.22295800  0.58993400  1
  O  O9  1  0.47005300  0.36697600  0.27704200  1
  O  O10  1  0.89692300  0.02994700  0.30698900  1
  O  O11  1  0.60307700  0.91006600  0.13302400  1
  O  O12  1  0.91006600  0.13302400  0.60307700  1
  O  O13  1  0.27704200  0.47005300  0.36697600  1
  O  O14  1  0.58993400  0.19301100  0.22295800  1
  O  O15  1  0.22295800  0.58993400  0.19301100  1
  O  O16  1  0.02994700  0.30698900  0.89692300  1
  O  O17  1  0.91006600  0.27704200  0.30698900  1
  O  O18  1  0.02994700  0.22295800  0.13302400  1
  O  O19  1  0.80698900  0.77704200  0.41006600  1
  O  O20  1  0.19301100  0.47005300  0.60307700  1
  O  O21  1  0.60307700  0.19301100  0.47005300  1
  O  O22  1  0.22295800  0.13302400  0.02994700  1
  O  O23  1  0.13302400  0.60307700  0.91006600  1
  O  O24  1  0.41006600  0.10307700  0.63302400  1
  O  O25  1  0.63302400  0.41006600  0.10307700  1
  O  O26  1  0.72295800  0.69301100  0.08993400  1
  O  O27  1  0.52994700  0.39692300  0.80698900  1
  O  O28  1  0.69301100  0.10307700  0.97005300  1
  O  O29  1  0.86697600  0.97005300  0.77704200  1
  O  O30  1  0.63302400  0.72295800  0.52994700  1
  O  O31  1  0.10307700  0.63302400  0.41006600  1
  O  O32  1  0.86697600  0.39692300  0.08993400  1
  O  O33  1  0.77704200  0.86697600  0.97005300  1
  O  O34  1  0.39692300  0.80698900  0.52994700  1
  O  O35  1  0.69301100  0.08993400  0.72295800  1
  O  O36  1  0.80698900  0.52994700  0.39692300  1
  O  O37  1  0.97005300  0.77704200  0.86697600  1
  O  O38  1  0.08993400  0.72295800  0.69301100  1
  O  O39  1  0.97005300  0.69301100  0.10307700  1
  O  O40  1  0.77704200  0.41006600  0.80698900  1
  O  O41  1  0.41006600  0.80698900  0.77704200  1
  O  O42  1  0.72295800  0.52994700  0.63302400  1
  O  O43  1  0.08993400  0.86697600  0.39692300  1
  O  O44  1  0.39692300  0.08993400  0.86697600  1
  O  O45  1  0.10307700  0.97005300  0.69301100  1
  O  O46  1  0.52994700  0.63302400  0.72295800  1
  O  O47  1  0.30698900  0.91006600  0.27704200  1
loop_
_geom_bond_atom_site_label_1
_geom_bond_atom_site_label_2
_geom_bond_distance
_geom_bond_site_symmetry_2
Mn0 O14 2.169346 1_555
Mn0 O47 2.169346 1_545
Mn0 O9 2.169346 1_555
Mn0 O5 2.169346 1_555
Mn0 O21 2.268387 1_555
Mn0 O4 2.268387 1_545
Mn0 O6 2.268387 1_555
Mn0 O22 2.268387 1_555
Mn1 O11 2.169346 1_545
Mn1 O21 2.169346 1_555
Mn1 O10 2.169346 1_555
Mn1 O7 2.169346 1_555
Mn1 O0 2.268387 1_545
Mn1 O14 2.268387 1_555
Mn1 O17 2.268387 1_555
Mn1 O12 2.268387 1_555
Mn2 O2 2.169346 1_554
Mn2 O15 2.169346 1_555
Mn2 O13 2.169346 1_555
Mn2 O22 2.169346 1_555
Mn2 O18 2.268387 1_555
Mn2 O3 2.268387 1_555
Mn2 O9 2.268387 1_555
Mn2 O16 2.268387 1_554
Mn3 O23 2.169346 1_554
Mn3 O3 2.169346 1_555
Mn3 O0 2.169346 1_555
Mn3 O4 2.169346 1_555
Mn3 O11 2.268387 1_555
Mn3 O47 2.268387 1_555
Mn3 O1 2.268387 1_554
Mn3 O15 2.268387 1_555
Mn4 O20 2.169346 1_555
Mn4 O16 2.169346 1_555
Mn4 O1 2.169346 1_555
Mn4 O12 2.169346 1_455
Mn4 O7 2.268387 1_455
Mn4 O8 2.268387 1_555
Mn4 O23 2.268387 1_555
Mn4 O2 2.268387 1_555
Mn5 O17 2.169346 1_455
Mn5 O8 2.169346 1_555
Mn5 O6 2.169346 1_555
Mn5 O18 2.169346 1_555
Mn5 O5 2.268387 1_555
Mn5 O20 2.268387 1_555
Mn5 O10 2.268387 1_455
Mn5 O13 2.268387 1_555
Mn6 O32 2.169346 1_556
Mn6 O24 2.169346 1_555
Mn6 O28 2.169346 1_555
Mn6 O27 2.169346 1_555
Mn6 O44 2.268387 1_555
Mn6 O40 2.268387 1_555
Mn6 O25 2.268387 1_556
Mn6 O35 2.268387 1_555
Mn7 O31 2.169346 1_555
Mn7 O44 2.169346 1_565
Mn7 O45 2.169346 1_555
Mn7 O34 2.169346 1_555
Mn7 O43 2.268387 1_555
Mn7 O24 2.268387 1_565
Mn7 O38 2.268387 1_555
Mn7 O41 2.268387 1_555
Mn8 O35 2.169346 1_565
Mn8 O29 2.169346 1_555
Mn8 O41 2.169346 1_555
Mn8 O46 2.169346 1_555
Mn8 O34 2.268387 1_555
Mn8 O28 2.268387 1_565
Mn8 O33 2.268387 1_555
Mn8 O30 2.268387 1_555
Mn9 O43 2.169346 1_655
Mn9 O25 2.169346 1_555
Mn9 O39 2.169346 1_555
Mn9 O36 2.169346 1_555
Mn9 O32 2.268387 1_555
Mn9 O31 2.268387 1_655
Mn9 O19 2.268387 1_555
Mn9 O26 2.268387 1_555
Mn10 O38 2.169346 1_655
Mn10 O37 2.169346 1_555
Mn10 O19 2.169346 1_555
Mn10 O30 2.169346 1_555
Mn10 O36 2.268387 1_555
Mn10 O29 2.268387 1_555
Mn10 O42 2.268387 1_555
Mn10 O45 2.268387 1_655
Mn11 O33 2.169346 1_555
Mn11 O26 2.169346 1_556
Mn11 O42 2.169346 1_555
Mn11 O40 2.169346 1_555
Mn11 O46 2.268387 1_555
Mn11 O27 2.268387 1_555
Mn11 O37 2.268387 1_555
Mn11 O39 2.268387 1_556
O0 Si3 1.643179 1_555
O1 Si5 1.643179 1_555
O2 Si6 1.643179 1_555
O3 Si3 1.643179 1_555
O4 Si11 1.643179 1_554
O5 Si7 1.643179 1_545
O6 Si4 1.643179 1_555
O7 Si8 1.643179 1_555
O8 Si4 1.643179 1_555
O9 Si0 1.643179 1_555
O10 Si10 1.643179 1_545
O11 Si10 1.643179 1_555
O12 Si1 1.643179 1_555
O13 Si2 1.643179 1_555
O14 Si0 1.643179 1_555
O15 Si2 1.643179 1_555
O16 Si1 1.643179 1_455
O17 Si9 1.643179 1_555
O18 Si9 1.643179 1_455
O19 Si3 1.643179 1_555
O20 Si5 1.643179 1_555
O21 Si8 1.643179 1_555
O22 Si6 1.643179 1_554
O23 Si11 1.643179 1_555
O24 Si4 1.643179 1_555
O25 Si0 1.643179 1_555
O26 Si10 1.643179 1_555
O27 Si4 1.643179 1_555
O28 Si9 1.643179 1_556
O29 Si1 1.643179 1_565
O30 Si3 1.643179 1_555
O31 Si2 1.643179 1_555
O32 Si9 1.643179 1_555
O33 Si10 1.643179 1_556
O34 Si2 1.643179 1_555
O35 Si1 1.643179 1_555
O36 Si0 1.643179 1_555
O37 Si11 1.643179 1_655
O38 Si11 1.643179 1_555
O39 Si7 1.643179 1_655
O40 Si8 1.643179 1_555
O41 Si5 1.643179 1_555
O42 Si8 1.643179 1_555
O43 Si7 1.643179 1_555
O44 Si6 1.643179 1_555
O45 Si6 1.643179 1_565
O46 Si5 1.643179 1_555
O47 Si7 1.643179 1_555
