# generated using pymatgen
data_PdAu3
_symmetry_space_group_name_H-M   'P 1'
_cell_length_a   5.72616124
_cell_length_b   5.72618563
_cell_length_c   4.76219309
_cell_angle_alpha   90.00000000
_cell_angle_beta   90.00000000
_cell_angle_gamma   119.99892122
_symmetry_Int_Tables_number   1
_chemical_formula_structural   PdAu3
_chemical_formula_sum   'Pd2 Au6'
_cell_volume   135.22947079
_cell_formula_units_Z   2
loop_
 _symmetry_equiv_pos_site_id
 _symmetry_equiv_pos_as_xyz
  1  'x, y, z'
loop_
 _atom_site_type_symbol
 _atom_site_label
 _atom_site_symmetry_multiplicity
 _atom_site_fract_x
 _atom_site_fract_y
 _atom_site_fract_z
 _atom_site_occupancy
  Pd  Pd0  1  0.66666611  0.33333417  0.25000000  1
  Pd  Pd1  1  0.33333617  0.66666911  0.75000000  1
  Au  Au0  1  0.83214107  0.16786131  0.75000000  1
  Au  Au1  1  0.33573407  0.16786559  0.75000000  1
  Au  Au2  1  0.83213640  0.66426729  0.75000000  1
  Au  Au3  1  0.16786131  0.83213807  0.25000000  1
  Au  Au4  1  0.66426329  0.83213340  0.25000000  1
  Au  Au5  1  0.16786559  0.33573707  0.25000000  1
loop_
_geom_bond_atom_site_label_1
_geom_bond_atom_site_label_2
_geom_bond_distance
_geom_bond_site_symmetry_2
Au0 Au1 2.842519 1_555
Au0 Au2 2.842526 1_555
Au0 Pd1 2.863150 1_545
Au0 Pd1 2.863166 1_655
Au0 Au1 2.883642 1_655
Au0 Au2 2.883659 1_545
Au0 Pd0 2.891893 1_556
Au0 Pd0 2.891893 1_555
Au0 Au5 2.905415 1_655
Au0 Au5 2.905415 1_656
Au0 Au4 2.905428 1_545
Au0 Au4 2.905428 1_546
Au1 Au2 2.842530 1_555
Au1 Pd1 2.863104 1_545
Au1 Pd1 2.863131 1_555
Au1 Au2 2.883736 1_445
Au1 Pd0 2.891862 1_556
Au1 Pd0 2.891862 1_555
Au1 Au3 2.905427 1_546
Au1 Au3 2.905427 1_545
Au1 Au5 2.905445 1_555
Au1 Au5 2.905445 1_556
Au2 Pd1 2.863099 1_655
Au2 Pd1 2.863112 1_555
Au2 Pd0 2.891869 1_556
Au2 Pd0 2.891869 1_555
Au2 Au3 2.905416 1_655
Au2 Au3 2.905416 1_656
Au2 Au4 2.905443 1_556
Au2 Au4 2.905443 1_555
Au3 Au4 2.842491 1_555
Au3 Au5 2.842497 1_555
Au3 Pd0 2.863155 1_455
Au3 Pd0 2.863161 1_565
Au3 Au4 2.883670 1_455
Au3 Au5 2.883689 1_565
Au3 Pd1 2.891882 1_554
Au3 Pd1 2.891882 1_555
Au4 Au5 2.842502 1_555
Au4 Pd0 2.863114 1_565
Au4 Pd0 2.863121 1_555
Au4 Au5 2.883765 1_665
Au4 Pd1 2.891848 1_555
Au4 Pd1 2.891848 1_554
Au5 Pd0 2.863094 1_455
Au5 Pd0 2.863117 1_555
Au5 Pd1 2.891866 1_555
Au5 Pd1 2.891866 1_554
