# generated using pymatgen
data_Ba2NdVO6
_symmetry_space_group_name_H-M   'P 1'
_cell_length_a   8.49974699
_cell_length_b   8.49974699
_cell_length_c   8.49974699
_cell_angle_alpha   90.00000000
_cell_angle_beta   90.00000000
_cell_angle_gamma   90.00000000
_symmetry_Int_Tables_number   1
_chemical_formula_structural   Ba2NdVO6
_chemical_formula_sum   'Ba8 Nd4 V4 O24'
_cell_volume   614.07016171
_cell_formula_units_Z   4
loop_
 _symmetry_equiv_pos_site_id
 _symmetry_equiv_pos_as_xyz
  1  'x, y, z'
loop_
 _atom_site_type_symbol
 _atom_site_label
 _atom_site_symmetry_multiplicity
 _atom_site_fract_x
 _atom_site_fract_y
 _atom_site_fract_z
 _atom_site_occupancy
  Ba  Ba0  1  0.50000000  0.50000000  0.50000000  1
  Ba  Ba1  1  -0.00000000  -0.00000000  0.00000000  1
  Ba  Ba2  1  -0.00000000  -0.00000000  0.50000000  1
  Ba  Ba3  1  -0.00000000  0.50000000  0.00000000  1
  Ba  Ba4  1  0.50000000  -0.00000000  0.00000000  1
  Ba  Ba5  1  0.50000000  0.50000000  0.00000000  1
  Ba  Ba6  1  0.50000000  -0.00000000  0.50000000  1
  Ba  Ba7  1  -0.00000000  0.50000000  0.50000000  1
  Nd  Nd0  1  0.75000000  0.75000000  0.75000000  1
  Nd  Nd1  1  0.75000000  0.25000000  0.25000000  1
  Nd  Nd2  1  0.25000000  0.75000000  0.25000000  1
  Nd  Nd3  1  0.25000000  0.25000000  0.75000000  1
  V  V0  1  0.25000000  0.25000000  0.25000000  1
  V  V1  1  0.25000000  0.75000000  0.75000000  1
  V  V2  1  0.75000000  0.25000000  0.75000000  1
  V  V3  1  0.75000000  0.75000000  0.25000000  1
  O  O0  1  0.23923602  0.26151530  0.47544183  1
  O  O1  1  0.23923602  0.73848470  0.52455817  1
  O  O2  1  0.76076398  0.26151530  0.52455817  1
  O  O3  1  0.76076398  0.73848470  0.47544183  1
  O  O4  1  0.26151530  0.47544183  0.23923602  1
  O  O5  1  0.73848470  0.52455817  0.23923602  1
  O  O6  1  0.26151530  0.52455817  0.76076398  1
  O  O7  1  0.73848470  0.47544183  0.76076398  1
  O  O8  1  0.47544183  0.23923602  0.26151530  1
  O  O9  1  0.52455817  0.23923602  0.73848470  1
  O  O10  1  0.52455817  0.76076398  0.26151530  1
  O  O11  1  0.47544183  0.76076398  0.73848470  1
  O  O12  1  0.26076398  0.23848470  0.02455817  1
  O  O13  1  0.26076398  0.76151530  0.97544183  1
  O  O14  1  0.73923602  0.23848470  0.97544183  1
  O  O15  1  0.73923602  0.76151530  0.02455817  1
  O  O16  1  0.23848470  0.02455817  0.26076398  1
  O  O17  1  0.76151530  0.97544183  0.26076398  1
  O  O18  1  0.23848470  0.97544183  0.73923602  1
  O  O19  1  0.76151530  0.02455817  0.73923602  1
  O  O20  1  0.02455817  0.26076398  0.23848470  1
  O  O21  1  0.97544183  0.26076398  0.76151530  1
  O  O22  1  0.97544183  0.73923602  0.23848470  1
  O  O23  1  0.02455817  0.73923602  0.76151530  1
loop_
_geom_bond_atom_site_label_1
_geom_bond_atom_site_label_2
_geom_bond_distance
_geom_bond_site_symmetry_2
Ba0 O8 3.010830 1_555
Ba0 O7 3.010830 1_555
Ba0 O6 3.010830 1_555
Ba0 O5 3.010830 1_555
Ba0 O4 3.010830 1_555
Ba0 O11 3.010830 1_555
Ba0 O1 3.010830 1_555
Ba0 O0 3.010830 1_555
Ba0 O9 3.010830 1_555
Ba0 O10 3.010830 1_555
Ba0 O2 3.010830 1_555
Ba0 O3 3.010830 1_555
Ba1 O23 3.010830 1_544
Ba1 O19 3.010830 1_454
Ba1 O16 3.010830 1_555
Ba1 O21 3.010830 1_454
Ba1 O18 3.010830 1_544
Ba1 O22 3.010830 1_445
Ba1 O20 3.010830 1_555
Ba1 O17 3.010830 1_445
Ba1 O13 3.010830 1_544
Ba1 O14 3.010830 1_454
Ba1 O15 3.010830 1_445
Ba1 O12 3.010830 1_555
Ba2 O16 2.878792 1_555
Ba2 O18 2.878792 1_545
Ba2 O17 2.878792 1_445
Ba2 O19 2.878792 1_455
Ba2 O3 3.019830 1_445
Ba2 O1 3.019830 1_545
Ba2 O0 3.019830 1_555
Ba2 O2 3.019830 1_455
Ba2 O22 3.145954 1_445
Ba2 O23 3.145954 1_545
Ba2 O20 3.145954 1_555
Ba2 O21 3.145954 1_455
Ba3 O21 2.878792 1_454
Ba3 O22 2.878792 1_455
Ba3 O23 2.878792 1_554
Ba3 O20 2.878792 1_555
Ba3 O4 3.019830 1_555
Ba3 O5 3.019830 1_455
Ba3 O6 3.019830 1_554
Ba3 O7 3.019830 1_454
Ba3 O12 3.145954 1_555
Ba3 O13 3.145954 1_554
Ba3 O15 3.145954 1_455
Ba3 O14 3.145954 1_454
Ba4 O12 2.878792 1_555
Ba4 O14 2.878792 1_554
Ba4 O15 2.878792 1_545
Ba4 O13 2.878792 1_544
Ba4 O8 3.019830 1_555
Ba4 O9 3.019830 1_554
Ba4 O11 3.019830 1_544
Ba4 O10 3.019830 1_545
Ba4 O17 3.145954 1_545
Ba4 O16 3.145954 1_555
Ba4 O19 3.145954 1_554
Ba4 O18 3.145954 1_544
Ba5 O6 2.878792 1_554
Ba5 O7 2.878792 1_554
Ba5 O4 2.878792 1_555
Ba5 O5 2.878792 1_555
Ba5 O15 3.019830 1_555
Ba5 O12 3.019830 1_555
Ba5 O13 3.019830 1_554
Ba5 O14 3.019830 1_554
Ba5 O10 3.145954 1_555
Ba5 O8 3.145954 1_555
Ba5 O11 3.145954 1_554
Ba5 O9 3.145954 1_554
Ba6 O9 2.878792 1_555
Ba6 O11 2.878792 1_545
Ba6 O8 2.878792 1_555
Ba6 O10 2.878792 1_545
Ba6 O17 3.019830 1_545
Ba6 O19 3.019830 1_555
Ba6 O16 3.019830 1_555
Ba6 O18 3.019830 1_545
Ba6 O1 3.145954 1_545
Ba6 O0 3.145954 1_555
Ba6 O2 3.145954 1_555
Ba6 O3 3.145954 1_545
Ba7 O3 2.878792 1_455
Ba7 O0 2.878792 1_555
Ba7 O2 2.878792 1_455
Ba7 O1 2.878792 1_555
Ba7 O21 3.019830 1_455
Ba7 O23 3.019830 1_555
Ba7 O22 3.019830 1_455
Ba7 O20 3.019830 1_555
Ba7 O7 3.145954 1_455
Ba7 O4 3.145954 1_555
Ba7 O5 3.145954 1_455
Ba7 O6 3.145954 1_555
Nd0 O15 2.337518 1_556
Nd0 O19 2.337518 1_565
Nd0 O23 2.337518 1_655
Nd0 O7 2.337518 1_555
Nd0 O3 2.337518 1_555
Nd0 O11 2.337518 1_555
Nd1 O14 2.337518 1_554
Nd1 O20 2.337518 1_655
Nd1 O17 2.337518 1_545
Nd1 O2 2.337518 1_555
Nd1 O5 2.337518 1_555
Nd1 O8 2.337518 1_555
Nd2 O13 2.337518 1_554
Nd2 O16 2.337518 1_565
Nd2 O22 2.337518 1_455
Nd2 O4 2.337518 1_555
Nd2 O1 2.337518 1_555
Nd2 O10 2.337518 1_555
Nd3 O12 2.337518 1_556
Nd3 O21 2.337518 1_455
Nd3 O18 2.337518 1_545
Nd3 O0 2.337518 1_555
Nd3 O6 2.337518 1_555
Nd3 O9 2.337518 1_555
O0 V0 1.920877 1_555
O1 V1 1.920877 1_555
O2 V2 1.920877 1_555
O3 V3 1.920877 1_555
O4 V0 1.920877 1_555
O5 V3 1.920877 1_555
O6 V1 1.920877 1_555
O7 V2 1.920877 1_555
O8 V0 1.920877 1_555
O9 V2 1.920877 1_555
O10 V3 1.920877 1_555
O11 V1 1.920877 1_555
O12 V0 1.920877 1_555
O13 V1 1.920877 1_555
O14 V2 1.920877 1_555
O15 V3 1.920877 1_555
O16 V0 1.920877 1_555
O17 V3 1.920877 1_555
O18 V1 1.920877 1_555
O19 V2 1.920877 1_555
O20 V0 1.920877 1_555
O21 V2 1.920877 1_555
O22 V3 1.920877 1_555
O23 V1 1.920877 1_555
