# generated using pymatgen
data_Mg14CrFe
_symmetry_space_group_name_H-M   'P 1'
_cell_length_a   6.32759210
_cell_length_b   6.32759159
_cell_length_c   9.91181588
_cell_angle_alpha   90.00000000
_cell_angle_beta   90.00000000
_cell_angle_gamma   120.00000264
_symmetry_Int_Tables_number   1
_chemical_formula_structural   Mg14CrFe
_chemical_formula_sum   'Mg14 Cr1 Fe1'
_cell_volume   343.68514555
_cell_formula_units_Z   1
loop_
 _symmetry_equiv_pos_site_id
 _symmetry_equiv_pos_as_xyz
  1  'x, y, z'
loop_
 _atom_site_type_symbol
 _atom_site_label
 _atom_site_symmetry_multiplicity
 _atom_site_fract_x
 _atom_site_fract_y
 _atom_site_fract_z
 _atom_site_occupancy
  Mg  Mg0  1  0.16658093  0.83328996  0.12500000  1
  Mg  Mg1  1  0.16833999  0.83416950  0.62500000  1
  Mg  Mg2  1  0.66671004  0.33341907  0.12500000  1
  Mg  Mg3  1  0.66583050  0.33166001  0.62500000  1
  Mg  Mg4  1  0.66671004  0.83328996  0.12500000  1
  Mg  Mg5  1  0.66583050  0.83416950  0.62500000  1
  Mg  Mg6  1  0.32712778  0.17287222  0.37139027  1
  Mg  Mg7  1  0.32712778  0.17287222  0.87860973  1
  Mg  Mg8  1  0.32712778  0.65425655  0.37139027  1
  Mg  Mg9  1  0.32712778  0.65425655  0.87860973  1
  Mg  Mg10  1  0.84574345  0.17287222  0.37139027  1
  Mg  Mg11  1  0.84574345  0.17287222  0.87860973  1
  Mg  Mg12  1  0.83333300  0.66666700  0.37492064  1
  Mg  Mg13  1  0.83333300  0.66666700  0.87507936  1
  Cr  Cr0  1  0.16666700  0.33333300  0.62500000  1
  Fe  Fe0  1  0.16666700  0.33333300  0.12500000  1
loop_
_geom_bond_atom_site_label_1
_geom_bond_atom_site_label_2
_geom_bond_distance
_geom_bond_site_symmetry_2
Mg0 Mg9 3.070896 1_554
Mg0 Mg8 3.070896 1_555
Mg0 Mg7 3.070903 1_564
Mg0 Mg6 3.070903 1_565
Mg0 Mg13 3.077529 1_454
Mg0 Mg12 3.077529 1_455
Mg0 Mg2 3.162979 1_455
Mg0 Mg4 3.162979 1_455
Mg0 Mg2 3.164613 1_565
Mg0 Mg4 3.164613 1_555
Mg1 Mg12 3.084523 1_455
Mg1 Mg13 3.084523 1_455
Mg1 Mg8 3.125407 1_555
Mg1 Mg9 3.125407 1_555
Mg1 Mg7 3.125414 1_565
Mg1 Mg6 3.125414 1_565
Mg1 Mg3 3.147917 1_565
Mg1 Mg5 3.147917 1_555
Mg1 Mg3 3.179675 1_455
Mg1 Mg5 3.179675 1_455
Mg2 Mg6 3.070903 1_555
Mg2 Mg7 3.070903 1_554
Mg2 Mg4 3.162979 1_555
Mg2 Mg4 3.164613 1_545
Mg3 Mg7 3.125414 1_555
Mg3 Mg6 3.125414 1_555
Mg3 Mg5 3.147917 1_545
Mg3 Mg5 3.179675 1_555
Mg4 Mg8 3.070903 1_555
Mg4 Mg9 3.070903 1_554
Mg5 Mg8 3.125414 1_555
Mg5 Mg9 3.125414 1_555
Mg6 Mg8 3.046003 1_555
Mg6 Mg8 3.281588 1_545
Mg7 Mg9 3.046003 1_555
Mg7 Mg9 3.281588 1_545
Mg10 Mg8 3.046003 1_655
Mg10 Mg6 3.046004 1_655
Mg10 Mg2 3.070896 1_555
Mg10 Mg4 3.070903 1_545
Mg10 Mg3 3.125407 1_555
Mg10 Mg5 3.125414 1_545
Mg10 Mg12 3.164720 1_545
Mg10 Mg12 3.164720 1_555
Mg10 Mg8 3.281588 1_545
Mg10 Mg6 3.281588 1_555
Mg11 Mg9 3.046003 1_655
Mg11 Mg7 3.046004 1_655
Mg11 Mg2 3.070896 1_556
Mg11 Mg4 3.070903 1_546
Mg11 Mg3 3.125407 1_555
Mg11 Mg5 3.125414 1_545
Mg11 Mg13 3.164720 1_545
Mg11 Mg13 3.164720 1_555
Mg11 Mg9 3.281588 1_545
Mg11 Mg7 3.281588 1_555
Mg12 Mg4 3.077522 1_555
Mg12 Mg2 3.077529 1_555
Mg12 Mg5 3.084516 1_555
Mg12 Mg3 3.084522 1_555
Mg12 Mg6 3.164720 1_665
Mg12 Mg6 3.164720 1_555
Mg12 Mg8 3.164720 1_555
Mg12 Mg8 3.164720 1_655
Mg13 Mg4 3.077522 1_556
Mg13 Mg2 3.077529 1_556
Mg13 Mg5 3.084516 1_555
Mg13 Mg3 3.084522 1_555
Mg13 Mg7 3.164720 1_665
Mg13 Mg7 3.164720 1_555
Mg13 Mg9 3.164720 1_555
Mg13 Mg9 3.164720 1_655
Cr0 Mg6 3.067823 1_555
Cr0 Mg7 3.067823 1_555
Cr0 Mg8 3.067830 1_555
Cr0 Mg9 3.067830 1_555
Cr0 Mg11 3.067830 1_455
Cr0 Mg10 3.067830 1_455
Cr0 Mg1 3.163809 1_545
Cr0 Mg5 3.163809 1_555
Cr0 Mg5 3.163809 1_445
Cr0 Mg1 3.163809 1_555
Cr0 Mg3 3.163809 1_555
Cr0 Mg3 3.163809 1_455
Fe0 Mg7 3.009469 1_554
Fe0 Mg6 3.009469 1_555
Fe0 Mg9 3.009476 1_554
Fe0 Mg8 3.009476 1_555
Fe0 Mg11 3.009476 1_454
Fe0 Mg10 3.009476 1_455
Fe0 Mg0 3.163796 1_555
Fe0 Mg4 3.163796 1_445
Fe0 Mg4 3.163796 1_555
Fe0 Mg0 3.163796 1_545
Fe0 Mg2 3.163796 1_455
Fe0 Mg2 3.163796 1_555
