# generated using pymatgen
data_AlW3O8
_symmetry_space_group_name_H-M   'P 1'
_cell_length_a   5.24106000
_cell_length_b   5.61319754
_cell_length_c   9.32323023
_cell_angle_alpha   90.09163638
_cell_angle_beta   90.20654408
_cell_angle_gamma   90.76286761
_symmetry_Int_Tables_number   1
_chemical_formula_structural   AlW3O8
_chemical_formula_sum   'Al2 W6 O16'
_cell_volume   274.25462423
_cell_formula_units_Z   2
loop_
 _symmetry_equiv_pos_site_id
 _symmetry_equiv_pos_as_xyz
  1  'x, y, z'
loop_
 _atom_site_type_symbol
 _atom_site_label
 _atom_site_symmetry_multiplicity
 _atom_site_fract_x
 _atom_site_fract_y
 _atom_site_fract_z
 _atom_site_occupancy
  Al  Al0  1  0.25192400  0.33465200  0.75119900  1
  Al  Al1  1  0.74807600  0.66534800  0.24880100  1
  W  W0  1  0.75954100  0.63776400  0.74925800  1
  W  W1  1  0.24045900  0.36223600  0.25074200  1
  W  W2  1  0.24467900  0.84524100  0.50149600  1
  W  W3  1  0.25672900  0.83750800  0.99561600  1
  W  W4  1  0.75532100  0.15475900  0.49850400  1
  W  W5  1  0.74327100  0.16249200  0.00438400  1
  O  O0  1  0.41275800  0.60257300  0.85864300  1
  O  O1  1  0.08370200  0.59702800  0.63888100  1
  O  O2  1  0.58724200  0.39742700  0.14135700  1
  O  O3  1  0.91629800  0.40297200  0.36111900  1
  O  O4  1  0.40539900  0.12549000  0.38427300  1
  O  O5  1  0.10351100  0.12977500  0.11599100  1
  O  O6  1  0.59460100  0.87451000  0.61572700  1
  O  O7  1  0.89648900  0.87022500  0.88400900  1
  O  O8  1  0.93377700  0.37076400  0.85717900  1
  O  O9  1  0.57323400  0.37905400  0.64236000  1
  O  O10  1  0.06622300  0.62923600  0.14282100  1
  O  O11  1  0.42676600  0.62094600  0.35764000  1
  O  O12  1  0.40380000  0.11898700  0.88183500  1
  O  O13  1  0.59620000  0.88101300  0.11816500  1
  O  O14  1  0.09756500  0.11450900  0.62140100  1
  O  O15  1  0.90243500  0.88549100  0.37859900  1
loop_
_geom_bond_atom_site_label_1
_geom_bond_atom_site_label_2
_geom_bond_distance
_geom_bond_site_symmetry_2
Al0 O12 1.898913 1_555
Al0 O14 1.899323 1_555
Al0 O8 1.953954 1_455
Al0 O9 1.982328 1_555
Al0 O0 1.982684 1_555
Al0 O1 2.018857 1_555
Al1 O13 1.898913 1_555
Al1 O15 1.899323 1_555
Al1 O10 1.953954 1_655
Al1 O11 1.982328 1_555
Al1 O2 1.982684 1_555
Al1 O3 2.018857 1_555
O0 W3 2.017290 1_555
O0 W0 2.094480 1_555
O1 W0 2.004966 1_455
O1 W2 2.067811 1_555
O2 W5 2.017290 1_555
O2 W1 2.094480 1_555
O3 W1 2.004966 1_655
O3 W4 2.067811 1_555
O4 W1 2.022689 1_555
O4 W2 2.086969 1_545
O4 W4 2.121785 1_555
O5 W1 1.938928 1_555
O5 W3 2.152085 1_544
O5 W5 2.162595 1_455
O6 W0 2.022689 1_555
O6 W4 2.086969 1_565
O6 W2 2.121785 1_555
O7 W0 1.938928 1_555
O7 W5 2.152085 1_566
O7 W3 2.162595 1_655
O8 W0 2.031526 1_555
O8 W5 2.056969 1_556
O9 W0 2.001544 1_555
O9 W4 2.080985 1_555
O10 W1 2.031526 1_555
O10 W3 2.056969 1_554
O11 W1 2.001544 1_555
O11 W2 2.080985 1_555
O12 W3 2.048090 1_545
O12 W5 2.122134 1_556
O13 W5 2.048090 1_565
O13 W3 2.122134 1_554
O14 W2 2.039739 1_545
O14 W4 2.139657 1_455
O15 W4 2.039739 1_565
O15 W2 2.139657 1_655
