# generated using pymatgen
data_NdCd2
_symmetry_space_group_name_H-M   'P 1'
_cell_length_a   6.84049000
_cell_length_b   11.04778435
_cell_length_c   11.04778435
_cell_angle_alpha   120.00000208
_cell_angle_beta   90.00000000
_cell_angle_gamma   90.00000000
_symmetry_Int_Tables_number   1
_chemical_formula_structural   NdCd2
_chemical_formula_sum   'Nd8 Cd16'
_cell_volume   723.04980174
_cell_formula_units_Z   8
loop_
 _symmetry_equiv_pos_site_id
 _symmetry_equiv_pos_as_xyz
  1  'x, y, z'
loop_
 _atom_site_type_symbol
 _atom_site_label
 _atom_site_symmetry_multiplicity
 _atom_site_fract_x
 _atom_site_fract_y
 _atom_site_fract_z
 _atom_site_occupancy
  Nd  Nd0_0  1  0.00000000  0.00000000  0.00000000  1
  Nd  Nd0_1  1  0.00000000  0.00000000  0.50000000  1
  Nd  Nd0_2  1  0.00000000  0.50000000  0.00000000  1
  Nd  Nd0_3  1  0.00000000  0.50000000  0.50000000  1
  Nd  Nd0_4  1  0.50000000  0.00000000  0.00000000  1
  Nd  Nd0_5  1  0.50000000  0.00000000  0.50000000  1
  Nd  Nd0_6  1  0.50000000  0.50000000  0.00000000  1
  Nd  Nd0_7  1  0.50000000  0.50000000  0.50000000  1
  Cd  Cd0_0  1  0.02425100  0.33333350  0.16666650  1
  Cd  Cd0_1  1  0.02425100  0.33333350  0.66666650  1
  Cd  Cd0_2  1  0.02425100  0.83333350  0.16666650  1
  Cd  Cd0_3  1  0.02425100  0.83333350  0.66666650  1
  Cd  Cd0_4  1  0.52425100  0.33333350  0.16666650  1
  Cd  Cd0_5  1  0.52425100  0.33333350  0.66666650  1
  Cd  Cd0_6  1  0.52425100  0.83333350  0.16666650  1
  Cd  Cd0_7  1  0.52425100  0.83333350  0.66666650  1
  Cd  Cd1_0  1  0.47574900  0.16666650  0.33333350  1
  Cd  Cd1_1  1  0.47574900  0.16666650  0.83333350  1
  Cd  Cd1_2  1  0.47574900  0.66666650  0.33333350  1
  Cd  Cd1_3  1  0.47574900  0.66666650  0.83333350  1
  Cd  Cd1_4  1  0.97574900  0.16666650  0.33333350  1
  Cd  Cd1_5  1  0.97574900  0.16666650  0.83333350  1
  Cd  Cd1_6  1  0.97574900  0.66666650  0.33333350  1
  Cd  Cd1_7  1  0.97574900  0.66666650  0.83333350  1
loop_
_geom_bond_atom_site_label_1
_geom_bond_atom_site_label_2
_geom_bond_distance
_geom_bond_site_symmetry_2
Nd0_0 Nd0_4 3.420245 1_555
Nd0_0 Nd0_4 3.420245 1_455
Nd0_1 Nd0_5 3.420245 1_455
Nd0_1 Nd0_5 3.420245 1_555
Nd0_2 Nd0_6 3.420245 1_455
Nd0_2 Nd0_6 3.420245 1_555
Nd0_3 Nd0_7 3.420245 1_455
Nd0_3 Nd0_7 3.420245 1_555
Cd0_0 Nd0_2 3.193529 1_555
Cd0_0 Nd0_0 3.193534 1_555
Cd0_0 Nd0_3 3.193534 1_555
Cd0_0 Cd1_6 3.206429 1_455
Cd0_0 Cd1_5 3.206429 1_454
Cd0_0 Cd1_4 3.206438 1_455
Cd0_0 Cd0_4 3.420245 1_455
Cd0_0 Cd0_4 3.420245 1_555
Cd0_1 Nd0_3 3.193529 1_555
Cd0_1 Nd0_2 3.193534 1_556
Cd0_1 Nd0_1 3.193534 1_555
Cd0_1 Cd1_7 3.206429 1_455
Cd0_1 Cd1_4 3.206429 1_455
Cd0_1 Cd1_5 3.206438 1_455
Cd0_1 Cd0_5 3.420245 1_455
Cd0_1 Cd0_5 3.420245 1_555
Cd0_2 Nd0_0 3.193529 1_565
Cd0_2 Nd0_2 3.193534 1_555
Cd0_2 Nd0_1 3.193534 1_565
Cd0_2 Cd1_7 3.206429 1_454
Cd0_2 Cd1_4 3.206429 1_465
Cd0_2 Cd1_6 3.206438 1_455
Cd0_2 Cd0_6 3.420245 1_455
Cd0_2 Cd0_6 3.420245 1_555
Cd0_3 Nd0_1 3.193529 1_565
Cd0_3 Nd0_0 3.193534 1_566
Cd0_3 Nd0_3 3.193534 1_555
Cd0_3 Cd1_6 3.206429 1_455
Cd0_3 Cd1_5 3.206429 1_465
Cd0_3 Cd1_7 3.206438 1_455
Cd0_3 Cd0_7 3.420245 1_455
Cd0_3 Cd0_7 3.420245 1_555
Cd0_4 Nd0_6 3.193529 1_555
Cd0_4 Nd0_7 3.193534 1_555
Cd0_4 Nd0_4 3.193534 1_555
Cd0_4 Cd1_2 3.206429 1_555
Cd0_4 Cd1_1 3.206429 1_554
Cd0_4 Cd1_0 3.206438 1_555
Cd0_5 Nd0_7 3.193529 1_555
Cd0_5 Nd0_6 3.193534 1_556
Cd0_5 Nd0_5 3.193534 1_555
Cd0_5 Cd1_3 3.206429 1_555
Cd0_5 Cd1_0 3.206429 1_555
Cd0_5 Cd1_1 3.206438 1_555
Cd0_6 Nd0_4 3.193529 1_565
Cd0_6 Nd0_6 3.193534 1_555
Cd0_6 Nd0_5 3.193534 1_565
Cd0_6 Cd1_3 3.206429 1_554
Cd0_6 Cd1_0 3.206429 1_565
Cd0_6 Cd1_2 3.206438 1_555
Cd0_7 Nd0_5 3.193529 1_565
Cd0_7 Nd0_7 3.193534 1_555
Cd0_7 Nd0_4 3.193534 1_566
Cd0_7 Cd1_2 3.206429 1_555
Cd0_7 Cd1_1 3.206429 1_565
Cd0_7 Cd1_3 3.206438 1_555
Cd1_0 Nd0_5 3.193529 1_555
Cd1_0 Nd0_7 3.193534 1_555
Cd1_0 Nd0_4 3.193534 1_555
Cd1_0 Cd1_4 3.420245 1_455
Cd1_0 Cd1_4 3.420245 1_555
Cd1_1 Nd0_4 3.193529 1_556
Cd1_1 Nd0_6 3.193534 1_556
Cd1_1 Nd0_5 3.193534 1_555
Cd1_1 Cd1_5 3.420245 1_455
Cd1_1 Cd1_5 3.420245 1_555
Cd1_2 Nd0_7 3.193529 1_555
Cd1_2 Nd0_6 3.193534 1_555
Cd1_2 Nd0_5 3.193534 1_565
Cd1_2 Cd1_6 3.420245 1_455
Cd1_2 Cd1_6 3.420245 1_555
Cd1_3 Nd0_6 3.193529 1_556
Cd1_3 Nd0_7 3.193534 1_555
Cd1_3 Nd0_4 3.193534 1_566
Cd1_3 Cd1_7 3.420245 1_455
Cd1_3 Cd1_7 3.420245 1_555
Cd1_4 Nd0_1 3.193529 1_655
Cd1_4 Nd0_3 3.193534 1_655
Cd1_4 Nd0_0 3.193534 1_655
Cd1_5 Nd0_0 3.193529 1_656
Cd1_5 Nd0_2 3.193534 1_656
Cd1_5 Nd0_1 3.193534 1_655
Cd1_6 Nd0_3 3.193529 1_655
Cd1_6 Nd0_2 3.193534 1_655
Cd1_6 Nd0_1 3.193534 1_665
Cd1_7 Nd0_2 3.193529 1_656
Cd1_7 Nd0_0 3.193534 1_666
Cd1_7 Nd0_3 3.193534 1_655
