# generated using pymatgen
data_Ca10Nb5InO24
_symmetry_space_group_name_H-M   'P 1'
_cell_length_a   8.05298600
_cell_length_b   8.08881186
_cell_length_c   9.83577068
_cell_angle_alpha   113.28450967
_cell_angle_beta   112.89796420
_cell_angle_gamma   92.30678055
_symmetry_Int_Tables_number   1
_chemical_formula_structural   Ca10Nb5InO24
_chemical_formula_sum   'Ca10 Nb5 In1 O24'
_cell_volume   527.68641624
_cell_formula_units_Z   1
loop_
 _symmetry_equiv_pos_site_id
 _symmetry_equiv_pos_as_xyz
  1  'x, y, z'
loop_
 _atom_site_type_symbol
 _atom_site_label
 _atom_site_symmetry_multiplicity
 _atom_site_fract_x
 _atom_site_fract_y
 _atom_site_fract_z
 _atom_site_occupancy
  Ca  Ca0  1  0.74788500  0.25027700  0.49833800  1
  Ca  Ca1  1  0.00138900  0.99880100  0.99911300  1
  Ca  Ca2  1  0.84660000  0.40212700  0.73937000  1
  Ca  Ca3  1  0.33680900  0.88640500  0.75734700  1
  Ca  Ca4  1  0.63826300  0.58285100  0.25255200  1
  Ca  Ca5  1  0.14434900  0.08759900  0.25803200  1
  Ca  Ca6  1  0.65832200  0.10800100  0.24082300  1
  Ca  Ca7  1  0.15735600  0.60225500  0.26084700  1
  Ca  Ca8  1  0.85625200  0.91316600  0.73834900  1
  Ca  Ca9  1  0.35790100  0.41876600  0.74975200  1
  Nb  Nb0  1  0.99512500  0.50070800  0.00177500  1
  Nb  Nb1  1  0.49710200  0.01506300  0.99550300  1
  Nb  Nb2  1  0.74617100  0.74976500  0.49173500  1
  Nb  Nb3  1  0.25517600  0.24857300  0.50829500  1
  Nb  Nb4  1  0.49766300  0.51018100  0.00134100  1
  In  In0  1  0.24990800  0.74932300  0.50168800  1
  O  O0  1  0.09152700  0.53849300  0.76051500  1
  O  O1  1  0.57603800  0.03359100  0.77459900  1
  O  O2  1  0.77905200  0.82646700  0.27181200  1
  O  O3  1  0.31296000  0.35025300  0.23555900  1
  O  O4  1  0.41537200  0.94538000  0.24146900  1
  O  O5  1  0.91950700  0.47831400  0.22376600  1
  O  O6  1  0.68056800  0.64899600  0.76471600  1
  O  O7  1  0.22923300  0.16964300  0.72737800  1
  O  O8  1  0.33238400  0.52265900  0.43802900  1
  O  O9  1  0.83206200  0.00005500  0.45959900  1
  O  O10  1  0.28348300  0.57169000  0.94647600  1
  O  O11  1  0.75895600  0.08252400  0.94664500  1
  O  O12  1  0.17450300  0.98992200  0.54241500  1
  O  O13  1  0.66642400  0.48026300  0.57211900  1
  O  O14  1  0.23428300  0.91206100  0.06647900  1
  O  O15  1  0.72223200  0.42893900  0.04759500  1
  O  O16  1  0.00746600  0.71295400  0.45619700  1
  O  O17  1  0.52148800  0.24169400  0.41455300  1
  O  O18  1  0.99271200  0.76752300  0.91754600  1
  O  O19  1  0.46991100  0.27207500  0.95292300  1
  O  O20  1  0.47688200  0.76932800  0.56940200  1
  O  O21  1  0.99801700  0.27881100  0.55222800  1
  O  O22  1  0.52402700  0.71499600  0.05308000  1
  O  O23  1  0.01464000  0.23950900  0.07003900  1
loop_
_geom_bond_atom_site_label_1
_geom_bond_atom_site_label_2
_geom_bond_distance
_geom_bond_site_symmetry_2
Ca0 O17 1.668320 1_555
Ca0 O21 1.851126 1_555
Ca0 O13 1.954258 1_555
Ca0 Ca2 1.978301 1_555
Ca0 O9 2.098334 1_555
Ca0 Ca6 2.113545 1_555
Ca1 O18 1.705157 1_455
Ca1 O23 1.772151 1_566
Ca1 O14 1.988771 1_556
Ca1 O11 2.033511 1_465
Ca2 O13 2.061377 1_555
Ca2 O0 2.115315 1_655
Ca2 Nb0 2.149801 1_556
Ca2 O6 2.432719 1_555
Ca2 O21 2.502572 1_555
Ca2 O18 2.685470 1_555
Ca3 Nb1 1.961615 1_565
Ca3 In0 2.099097 1_555
Ca3 O1 2.135161 1_565
Ca3 O20 2.431280 1_555
Ca3 O12 2.493176 1_555
Ca3 O7 2.565404 1_565
Ca4 Nb2 1.978901 1_555
Ca4 Nb4 2.086560 1_555
Ca4 O2 2.135962 1_555
Ca4 O15 2.283736 1_555
Ca4 O22 2.484095 1_555
Ca4 O5 2.527575 1_555
Ca4 O16 2.721519 1_655
Ca4 O19 2.757165 1_554
Ca4 O3 3.073154 1_555
Ca5 Nb3 2.052806 1_555
Ca5 O14 2.262738 1_545
Ca5 O23 2.533095 1_555
Ca5 O4 2.538516 1_545
Ca5 O3 2.603631 1_555
Ca6 Nb1 2.030374 1_554
Ca6 O4 2.316731 1_545
Ca6 O17 2.324617 1_555
Ca6 O9 2.567342 1_555
Ca6 O2 2.592397 1_545
Ca6 O22 2.865903 1_545
Ca6 O21 2.933171 1_555
Ca7 O5 1.954368 1_455
Ca7 In0 1.977106 1_555
Ca7 O8 2.118234 1_555
Ca7 Nb0 2.131413 1_455
Ca7 O3 2.415461 1_555
Ca8 Nb2 2.028355 1_555
Ca8 O11 2.409280 1_565
Ca8 O18 2.437334 1_555
Ca8 O1 2.587762 1_565
Ca8 O6 2.667423 1_555
Ca8 O9 3.027837 1_565
Ca9 Nb3 2.003602 1_555
Ca9 Nb4 2.063023 1_556
Ca9 O7 2.118161 1_555
Ca9 O10 2.168639 1_555
Ca9 O0 2.411115 1_555
Ca9 O6 3.055778 1_555
Nb0 O23 2.450620 1_655
Nb0 O15 2.498887 1_555
Nb0 O18 2.597891 1_554
Nb0 O10 2.672130 1_654
Nb1 O19 2.280107 1_555
Nb1 O11 2.424583 1_555
Nb1 O1 2.544012 1_555
Nb1 O14 2.669954 1_546
Nb1 O22 2.700459 1_546
Nb2 O16 2.275749 1_655
Nb2 O9 2.289203 1_565
Nb2 O20 2.555885 1_555
Nb2 O13 2.726678 1_555
Nb3 O21 2.277883 1_455
Nb3 O12 2.351008 1_545
Nb3 O7 2.553802 1_555
Nb3 O17 2.638252 1_555
Nb3 O8 2.685936 1_555
Nb4 O22 1.506587 1_555
Nb4 O10 1.752338 1_554
Nb4 O19 1.773014 1_554
Nb4 O15 1.897657 1_555
In0 O20 1.659621 1_555
In0 O16 1.807883 1_555
In0 O8 1.925811 1_555
In0 O12 1.996201 1_555
O0 O10 1.784713 1_555
O1 O11 1.635185 1_555
O2 O9 1.689115 1_565
O3 O8 1.865350 1_555
O10 O22 1.863655 1_556
O12 O7 1.688443 1_565
O13 O6 1.799949 1_555
O13 O17 1.880068 1_555
O14 O4 1.676334 1_555
O14 O18 1.882154 1_454
O15 O5 1.716238 1_555
O20 O8 1.899870 1_555
