# generated using pymatgen
data_NaSr11(PtO6)3
_symmetry_space_group_name_H-M   'P 1'
_cell_length_a   9.71990050
_cell_length_b   9.71990057
_cell_length_c   11.83104196
_cell_angle_alpha   89.99997958
_cell_angle_beta   90.00001967
_cell_angle_gamma   120.00001991
_symmetry_Int_Tables_number   1
_chemical_formula_structural   NaSr11(PtO6)3
_chemical_formula_sum   'Na2 Sr22 Pt6 O36'
_cell_volume   968.00406421
_cell_formula_units_Z   2
loop_
 _symmetry_equiv_pos_site_id
 _symmetry_equiv_pos_as_xyz
  1  'x, y, z'
loop_
 _atom_site_type_symbol
 _atom_site_label
 _atom_site_symmetry_multiplicity
 _atom_site_fract_x
 _atom_site_fract_y
 _atom_site_fract_z
 _atom_site_occupancy
  Na  Na0  1  0.66666686  0.33333318  0.83345995  1
  Na  Na1  1  0.33333314  0.66666693  0.16653520  1
  Sr  Sr0  1  0.36734771  -0.00000404  0.49999802  1
  Sr  Sr1  1  0.69106332  0.66636330  0.16580974  1
  Sr  Sr2  1  0.02471956  0.33365423  0.83419178  1
  Sr  Sr3  1  0.63264803  0.63265226  0.49999804  1
  Sr  Sr4  1  0.97530049  0.30893657  0.16580973  1
  Sr  Sr5  1  0.30893435  0.97528042  0.83419186  1
  Sr  Sr6  1  0.00000425  0.36735188  0.49999809  1
  Sr  Sr7  1  0.33363661  0.02469964  0.16580973  1
  Sr  Sr8  1  0.66634560  0.69106564  0.83419181  1
  Sr  Sr9  1  0.03719112  0.69960649  0.32899606  1
  Sr  Sr10  1  0.36819843  0.36820630  -0.00000640  1
  Sr  Sr11  1  0.69959972  0.03718433  0.67100336  1
  Sr  Sr12  1  0.66241521  0.96280861  0.32899605  1
  Sr  Sr13  1  0.00000780  0.63180162  -0.00000641  1
  Sr  Sr14  1  0.33758475  0.30040047  0.67100330  1
  Sr  Sr15  1  0.30039361  0.33758487  0.32899610  1
  Sr  Sr16  1  0.63179372  -0.00000788  -0.00000647  1
  Sr  Sr17  1  0.96281549  0.66241519  0.67100335  1
  Sr  Sr18  1  0.99999999  1.00000000  0.49999789  1
  Sr  Sr19  1  0.66666679  0.33333323  0.33349607  1
  Sr  Sr20  1  0.33333319  0.66666680  0.66653371  1
  Sr  Sr21  1  0.99999998  0.00000002  -0.00000378  1
  Pt  Pt0  1  0.66666667  0.33333327  0.07979088  1
  Pt  Pt1  1  0.33333311  0.66666683  0.41305092  1
  Pt  Pt2  1  0.99999986  0.00000015  0.75033120  1
  Pt  Pt3  1  0.66666686  0.33333314  0.58696236  1
  Pt  Pt4  1  0.33333324  0.66666667  0.92020160  1
  Pt  Pt5  1  0.00000010  0.99999984  0.24968269  1
  O  O0  1  0.48972354  0.64094301  0.31389103  1
  O  O1  1  0.82304100  0.30791316  0.98142537  1
  O  O2  1  0.15958908  0.97377200  0.65059533  1
  O  O3  1  0.15121865  0.51027649  0.31389119  1
  O  O4  1  0.48487223  0.17695898  0.98142533  1
  O  O5  1  0.81418234  0.84041104  0.65059531  1
  O  O6  1  0.35905723  0.84878126  0.31389124  1
  O  O7  1  0.69208678  0.51512772  0.98142535  1
  O  O8  1  0.02622814  0.18581749  0.65059535  1
  O  O9  1  0.82520873  0.51806279  0.48481885  1
  O  O10  1  0.15882275  0.18447845  0.14958147  1
  O  O11  1  0.49108886  0.85012205  0.81812510  1
  O  O12  1  0.69285417  0.17479106  0.48481876  1
  O  O13  1  0.02565577  0.84117718  0.14958136  1
  O  O14  1  0.35903302  0.50891115  0.81812507  1
  O  O15  1  0.48193737  0.30714596  0.48481889  1
  O  O16  1  0.81552166  0.97434423  0.14958150  1
  O  O17  1  0.14987783  0.64096695  0.81812508  1
  O  O18  1  0.17478392  0.69285485  0.51518406  1
  O  O19  1  0.50888023  0.35903666  0.18188571  1
  O  O20  1  0.84117987  0.02565469  0.85041824  1
  O  O21  1  0.51807064  0.82521585  0.51518392  1
  O  O22  1  0.85015657  0.49111980  0.18188565  1
  O  O23  1  0.18447463  0.15882010  0.85041814  1
  O  O24  1  0.30714521  0.48192948  0.51518388  1
  O  O25  1  0.64096335  0.14984330  0.18188568  1
  O  O26  1  0.97434535  0.81552550  0.85041812  1
  O  O27  1  0.84041122  0.81417853  0.34939727  1
  O  O28  1  0.17698111  0.48489637  0.01855920  1
  O  O29  1  0.51028906  0.15123190  0.68611332  1
  O  O30  1  0.97376858  0.15958920  0.34939681  1
  O  O31  1  0.30791515  0.82301885  0.01855917  1
  O  O32  1  0.64094373  0.48971103  0.68611352  1
  O  O33  1  0.18582100  0.02623162  0.34939683  1
  O  O34  1  0.51510357  0.69208476  0.01855917  1
  O  O35  1  0.84876810  0.35905657  0.68611328  1
loop_
_geom_bond_atom_site_label_1
_geom_bond_atom_site_label_2
_geom_bond_distance
_geom_bond_site_symmetry_2
Na0 O32 2.406624 1_555
Na0 O29 2.406627 1_555
Na0 O35 2.406628 1_555
Na0 O1 2.410677 1_555
Na0 O4 2.410679 1_555
Na0 O7 2.410680 1_555
Na1 O0 2.406791 1_555
Na1 O6 2.406793 1_555
Na1 O3 2.406793 1_555
Na1 O31 2.410613 1_555
Na1 O28 2.410615 1_555
Na1 O34 2.410617 1_555
O0 Pt1 2.032144 1_555
O0 Sr1 2.544940 1_555
O0 Sr15 2.585845 1_555
O0 Sr3 2.626109 1_555
O0 Sr12 2.717653 1_555
O1 Pt0 2.025137 1_556
O1 Sr2 2.539528 1_655
O1 Sr16 2.626399 1_556
O1 Sr4 2.633322 1_556
O1 Sr13 2.739120 1_656
O2 Pt2 2.063733 1_465
O2 Sr18 2.457880 1_455
O2 Sr0 2.608204 1_565
O2 Sr5 2.608509 1_555
O2 Sr17 2.662137 1_455
O2 Sr14 2.763721 1_565
O3 Pt1 2.032143 1_555
O3 Sr4 2.544938 1_455
O3 Sr9 2.585841 1_555
O3 Sr6 2.626106 1_555
O3 Sr15 2.717662 1_555
O4 Pt0 2.025136 1_556
O4 Sr5 2.539527 1_545
O4 Sr10 2.626401 1_556
O4 Sr7 2.633320 1_556
O4 Sr16 2.739120 1_556
O5 Pt2 2.063732 1_565
O5 Sr18 2.457882 1_555
O5 Sr3 2.608202 1_555
O5 Sr8 2.608509 1_555
O5 Sr11 2.662131 1_565
O5 Sr17 2.763727 1_555
O6 Pt1 2.032143 1_555
O6 Sr7 2.544935 1_565
O6 Sr12 2.585844 1_555
O6 Sr0 2.626106 1_565
O6 Sr9 2.717657 1_555
O7 Pt0 2.025136 1_556
O7 Sr8 2.539530 1_555
O7 Sr13 2.626399 1_656
O7 Sr1 2.633320 1_556
O7 Sr10 2.739119 1_556
O8 Pt2 2.063731 1_455
O8 Sr18 2.457883 1_445
O8 Sr6 2.608200 1_555
O8 Sr2 2.608509 1_555
O8 Sr14 2.662136 1_555
O8 Sr11 2.763721 1_455
O9 Pt3 2.071749 1_555
O9 Sr19 2.457021 1_555
O9 Sr17 2.594822 1_555
O9 Sr3 2.619278 1_555
O9 Sr9 2.668714 1_655
O9 Sr6 2.748382 1_655
O10 Pt5 2.057391 1_545
O10 Sr21 2.441782 1_455
O10 Sr15 2.562437 1_555
O10 Sr10 2.613159 1_555
O10 Sr4 2.615381 1_455
O10 Sr7 2.823977 1_555
O11 Pt4 2.062795 1_555
O11 Sr20 2.452190 1_555
O11 Sr16 2.574876 1_566
O11 Sr11 2.599648 1_565
O11 Sr5 2.608585 1_555
O11 Sr8 2.821653 1_555
O12 Pt3 2.071750 1_555
O12 Sr19 2.457021 1_555
O12 Sr11 2.594823 1_555
O12 Sr6 2.619276 1_655
O12 Sr12 2.668713 1_545
O12 Sr0 2.748381 1_555
O13 Pt5 2.057391 1_555
O13 Sr21 2.441782 1_465
O13 Sr9 2.562435 1_555
O13 Sr13 2.613158 1_555
O13 Sr7 2.615384 1_565
O13 Sr1 2.823974 1_455
O14 Pt4 2.062795 1_555
O14 Sr20 2.452191 1_555
O14 Sr10 2.574877 1_556
O14 Sr14 2.599649 1_555
O14 Sr8 2.608582 1_555
O14 Sr2 2.821655 1_555
O15 Pt3 2.071749 1_555
O15 Sr19 2.457022 1_555
O15 Sr14 2.594823 1_555
O15 Sr0 2.619275 1_555
O15 Sr15 2.668715 1_555
O15 Sr3 2.748380 1_555
O16 Pt5 2.057391 1_655
O16 Sr21 2.441782 1_565
O16 Sr12 2.562436 1_555
O16 Sr16 2.613161 1_565
O16 Sr1 2.615385 1_555
O16 Sr4 2.823973 1_565
O17 Pt4 2.062795 1_555
O17 Sr20 2.452191 1_555
O17 Sr13 2.574877 1_556
O17 Sr17 2.599647 1_455
O17 Sr2 2.608583 1_555
O17 Sr5 2.821655 1_555
O18 Pt1 2.071737 1_555
O18 Sr20 2.457303 1_555
O18 Sr9 2.594802 1_555
O18 Sr0 2.619218 1_565
O18 Sr17 2.668586 1_455
O18 Sr6 2.748352 1_555
O19 Pt0 2.063181 1_555
O19 Sr19 2.452573 1_555
O19 Sr10 2.575000 1_555
O19 Sr15 2.599375 1_555
O19 Sr1 2.608729 1_555
O19 Sr7 2.821853 1_555
O20 Pt2 2.057268 1_555
O20 Sr21 2.441698 1_556
O20 Sr11 2.562471 1_555
O20 Sr16 2.613092 1_556
O20 Sr2 2.615547 1_655
O20 Sr8 2.823950 1_545
O21 Pt1 2.071736 1_555
O21 Sr20 2.457304 1_555
O21 Sr12 2.594801 1_555
O21 Sr3 2.619217 1_555
O21 Sr11 2.668587 1_565
O21 Sr0 2.748353 1_565
O22 Pt0 2.063180 1_555
O22 Sr19 2.452572 1_555
O22 Sr13 2.574999 1_655
O22 Sr9 2.599374 1_655
O22 Sr4 2.608734 1_555
O22 Sr1 2.821851 1_555
O23 Pt2 2.057267 1_455
O23 Sr21 2.441698 1_456
O23 Sr14 2.562473 1_555
O23 Sr10 2.613093 1_556
O23 Sr5 2.615546 1_545
O23 Sr2 2.823951 1_555
O24 Pt1 2.071736 1_555
O24 Sr20 2.457306 1_555
O24 Sr15 2.594802 1_555
O24 Sr6 2.619216 1_555
O24 Sr14 2.668587 1_555
O24 Sr3 2.748350 1_555
O25 Pt0 2.063181 1_555
O25 Sr19 2.452573 1_555
O25 Sr16 2.575000 1_555
O25 Sr12 2.599373 1_545
O25 Sr7 2.608730 1_555
O25 Sr4 2.821854 1_555
O26 Pt2 2.057267 1_565
O26 Sr21 2.441698 1_566
O26 Sr17 2.562473 1_555
O26 Sr13 2.613094 1_656
O26 Sr8 2.615548 1_555
O26 Sr5 2.823949 1_655
O27 Pt5 2.063606 1_655
O27 Sr18 2.457924 1_555
O27 Sr3 2.608227 1_555
O27 Sr1 2.608370 1_555
O27 Sr9 2.662103 1_655
O27 Sr12 2.763696 1_555
O28 Pt4 2.024898 1_554
O28 Sr4 2.539736 1_455
O28 Sr10 2.626253 1_555
O28 Sr2 2.633178 1_554
O28 Sr13 2.739041 1_555
O29 Pt3 2.031981 1_555
O29 Sr5 2.545069 1_545
O29 Sr11 2.585824 1_555
O29 Sr0 2.626292 1_555
O29 Sr14 2.717723 1_555
O30 Pt5 2.063603 1_645
O30 Sr18 2.457926 1_545
O30 Sr6 2.608232 1_655
O30 Sr4 2.608365 1_555
O30 Sr12 2.662114 1_545
O30 Sr15 2.763686 1_655
O31 Pt4 2.024898 1_554
O31 Sr7 2.539736 1_565
O31 Sr13 2.626252 1_555
O31 Sr5 2.633177 1_554
O31 Sr16 2.739041 1_565
O32 Pt3 2.031983 1_555
O32 Sr8 2.545071 1_555
O32 Sr14 2.585829 1_555
O32 Sr3 2.626296 1_555
O32 Sr17 2.717713 1_555
O33 Pt5 2.063602 1_545
O33 Sr18 2.457928 1_445
O33 Sr0 2.608228 1_555
O33 Sr7 2.608367 1_555
O33 Sr15 2.662113 1_555
O33 Sr9 2.763687 1_545
O34 Pt4 2.024898 1_554
O34 Sr1 2.539738 1_555
O34 Sr16 2.626252 1_565
O34 Sr8 2.633176 1_554
O34 Sr10 2.739040 1_555
O35 Pt3 2.031981 1_555
O35 Sr2 2.545065 1_655
O35 Sr17 2.585827 1_555
O35 Sr6 2.626291 1_655
O35 Sr11 2.717716 1_555
