# generated using pymatgen
data_Ca2Si3O11
_symmetry_space_group_name_H-M   'P 1'
_cell_length_a   23.39576588
_cell_length_b   23.03724359
_cell_length_c   6.70754898
_cell_angle_alpha   84.73777653
_cell_angle_beta   78.67402670
_cell_angle_gamma   16.58819677
_symmetry_Int_Tables_number   1
_chemical_formula_structural   Ca2Si3O11
_chemical_formula_sum   'Ca8 Si12 O44'
_cell_volume   949.96847300
_cell_formula_units_Z   4
loop_
 _symmetry_equiv_pos_site_id
 _symmetry_equiv_pos_as_xyz
  1  'x, y, z'
loop_
 _atom_site_type_symbol
 _atom_site_label
 _atom_site_symmetry_multiplicity
 _atom_site_fract_x
 _atom_site_fract_y
 _atom_site_fract_z
 _atom_site_occupancy
  Ca  Ca0  1  0.35640600  0.34602300  0.15061100  1
  Ca  Ca1  1  0.15061100  0.14696100  0.35640600  1
  Ca  Ca2  1  0.90397700  0.89359400  0.10303900  1
  Ca  Ca3  1  0.10303900  0.09938900  0.90397700  1
  Ca  Ca4  1  0.85031500  0.85754300  0.63891900  1
  Ca  Ca5  1  0.63891900  0.65322400  0.85031500  1
  Ca  Ca6  1  0.39245700  0.39968500  0.59677600  1
  Ca  Ca7  1  0.59677600  0.61108100  0.39245700  1
  Si  Si0  1  0.86757600  0.78957100  0.12675200  1
  Si  Si1  1  0.12675200  0.21610100  0.86757600  1
  Si  Si2  1  0.46042900  0.38242400  0.03389900  1
  Si  Si3  1  0.03389900  0.12324800  0.46042900  1
  Si  Si4  1  0.45508600  0.11455600  0.38609000  1
  Si  Si5  1  0.38609000  0.04426800  0.45508600  1
  Si  Si6  1  0.13544400  0.79491400  0.20573200  1
  Si  Si7  1  0.20573200  0.86391000  0.13544400  1
  Si  Si8  1  0.28349200  0.37209100  0.71124300  1
  Si  Si9  1  0.71124300  0.63317400  0.28349200  1
  Si  Si10  1  0.87790900  0.96650800  0.61682600  1
  Si  Si11  1  0.61682600  0.53875700  0.87790900  1
  O  O0  1  0.73926200  0.96144600  0.02682700  1
  O  O1  1  0.02682700  0.27246600  0.73926200  1
  O  O2  1  0.28855400  0.51073800  0.97753400  1
  O  O3  1  0.97753400  0.22317300  0.28855400  1
  O  O4  1  0.23023800  0.46940100  0.53718500  1
  O  O5  1  0.53718500  0.76317600  0.23023800  1
  O  O6  1  0.78059900  0.01976200  0.48682400  1
  O  O7  1  0.48682400  0.71281500  0.78059900  1
  O  O8  1  0.52585200  0.27858800  0.21106400  1
  O  O9  1  0.21106400  0.98449600  0.52585200  1
  O  O10  1  0.97141200  0.72414800  0.26550400  1
  O  O11  1  0.26550400  0.03893600  0.97141200  1
  O  O12  1  0.01997300  0.78651900  0.71770800  1
  O  O13  1  0.71770800  0.47580000  0.01997300  1
  O  O14  1  0.46348100  0.23002700  0.77420000  1
  O  O15  1  0.77420000  0.53229200  0.46348100  1
  O  O16  1  0.44163700  0.05836300  0.44163700  1
  O  O17  1  0.19163700  0.80836300  0.19163700  1
  O  O18  1  0.05973200  0.57377800  0.92743000  1
  O  O19  1  0.92743000  0.43906000  0.05973200  1
  O  O20  1  0.67622200  0.19026800  0.81094000  1
  O  O21  1  0.81094000  0.32257000  0.67622200  1
  O  O22  1  0.71151500  0.88582600  0.27040500  1
  O  O23  1  0.27040500  0.13225400  0.71151500  1
  O  O24  1  0.36417400  0.53848500  0.11774600  1
  O  O25  1  0.11774600  0.97959500  0.36417400  1
  O  O26  1  0.36124000  0.23393200  0.61821300  1
  O  O27  1  0.61821300  0.78661600  0.36124000  1
  O  O28  1  0.01606800  0.88876000  0.46338400  1
  O  O29  1  0.46338400  0.63178700  0.01606800  1
  O  O30  1  0.32566200  0.26434900  0.23275400  1
  O  O31  1  0.23275400  0.17723500  0.32566200  1
  O  O32  1  0.98565100  0.92433800  0.07276500  1
  O  O33  1  0.07276500  0.01724600  0.98565100  1
  O  O34  1  0.80906800  0.78811200  0.69191800  1
  O  O35  1  0.69191800  0.71090300  0.80906800  1
  O  O36  1  0.46188800  0.44093200  0.53909700  1
  O  O37  1  0.53909700  0.55808200  0.46188800  1
  O  O38  1  0.01503600  0.48496400  0.01503600  1
  O  O39  1  0.76503600  0.23496400  0.76503600  1
  O  O40  1  0.02416300  0.47955900  0.31963000  1
  O  O41  1  0.31963000  0.17664800  0.02416300  1
  O  O42  1  0.77044100  0.22583700  0.07335200  1
  O  O43  1  0.07335200  0.93037000  0.77044100  1
loop_
_geom_bond_atom_site_label_1
_geom_bond_atom_site_label_2
_geom_bond_distance
_geom_bond_site_symmetry_2
Ca0 O14 2.390188 1_554
Ca0 O10 2.391132 1_455
Ca0 O0 2.394272 1_545
Ca0 O4 2.404028 1_555
Ca0 O30 2.570873 1_555
Ca0 O2 2.576117 1_554
Ca0 O8 2.646671 1_555
Ca1 O15 2.390183 1_455
Ca1 O11 2.391133 1_554
Ca1 O1 2.394272 1_555
Ca1 O5 2.404030 1_545
Ca1 O31 2.570851 1_555
Ca1 O3 2.576156 1_455
Ca1 O9 2.646691 1_545
Ca2 O12 2.390181 1_654
Ca2 O8 2.391131 1_565
Ca2 O2 2.394272 1_654
Ca2 O6 2.404034 1_565
Ca2 O32 2.570874 1_555
Ca2 O0 2.576111 1_555
Ca2 O10 2.646673 1_555
Ca3 O13 2.390182 1_456
Ca3 O9 2.391127 1_545
Ca3 O3 2.394272 1_456
Ca3 O7 2.404030 1_545
Ca3 O33 2.570851 1_555
Ca3 O1 2.576150 1_555
Ca3 O11 2.646693 1_555
Ca4 O10 2.383353 1_555
Ca4 O14 2.389659 1_565
Ca4 O0 2.411753 1_556
Ca4 O4 2.412662 1_655
Ca4 O6 2.436743 1_565
Ca4 O34 2.517049 1_555
Ca4 O12 2.632199 1_655
Ca5 O11 2.383347 1_565
Ca5 O15 2.389659 1_555
Ca5 O1 2.411753 1_655
Ca5 O5 2.412657 1_556
Ca5 O7 2.436763 1_555
Ca5 O35 2.517049 1_555
Ca5 O13 2.632218 1_556
Ca6 O8 2.383347 1_555
Ca6 O12 2.389658 1_555
Ca6 O2 2.411753 1_555
Ca6 O6 2.412662 1_555
Ca6 O4 2.436740 1_555
Ca6 O36 2.517049 1_555
Ca6 O14 2.632202 1_555
Ca7 O9 2.383347 1_555
Ca7 O13 2.389652 1_555
Ca7 O3 2.411753 1_555
Ca7 O7 2.412663 1_555
Ca7 O5 2.436760 1_555
Ca7 O37 2.517049 1_555
Ca7 O15 2.632221 1_555
O0 Si0 1.630645 1_555
O1 Si1 1.630631 1_555
O2 Si2 1.630649 1_556
O3 Si3 1.630636 1_655
O4 Si8 1.636613 1_555
O5 Si9 1.636613 1_555
O6 Si10 1.636613 1_545
O7 Si11 1.636613 1_555
O8 Si2 1.628519 1_555
O9 Si3 1.628519 1_565
O10 Si0 1.628519 1_555
O11 Si1 1.628519 1_555
O12 Si10 1.628088 1_455
O13 Si11 1.628088 1_554
O14 Si8 1.628088 1_555
O15 Si9 1.628088 1_555
O16 Si4 1.599957 1_555
O16 Si5 1.599957 1_555
O17 Si6 1.599957 1_555
O17 Si7 1.599957 1_555
O18 Si8 1.651704 1_555
O18 Si0 1.652967 1_456
O19 Si9 1.651704 1_555
O19 Si1 1.652967 1_654
O20 Si10 1.651704 1_545
O20 Si2 1.652967 1_556
O21 Si11 1.651704 1_555
O21 Si3 1.652967 1_655
O22 Si0 1.633393 1_555
O22 Si4 1.639484 1_565
O23 Si1 1.633393 1_555
O23 Si5 1.639484 1_555
O24 Si2 1.633393 1_555
O24 Si6 1.639484 1_555
O25 Si3 1.633393 1_565
O25 Si7 1.639484 1_555
O26 Si8 1.627815 1_555
O26 Si4 1.636130 1_555
O27 Si9 1.627836 1_555
O27 Si5 1.636119 1_565
O28 Si10 1.627818 1_455
O28 Si6 1.636125 1_555
O29 Si11 1.627835 1_554
O29 Si7 1.636119 1_555
O30 Si4 1.636639 1_555
O31 Si5 1.636639 1_555
O32 Si6 1.636639 1_655
O33 Si7 1.636639 1_546
O38 O41 2.075814 1_555
O38 O40 2.075814 1_555
O39 O43 2.075814 1_645
O39 O42 2.075814 1_556
