# generated using pymatgen
data_MgMn8O13F3
_symmetry_space_group_name_H-M   'P 1'
_cell_length_a   6.63758372
_cell_length_b   5.86495616
_cell_length_c   7.04040305
_cell_angle_alpha   84.91358839
_cell_angle_beta   93.85197762
_cell_angle_gamma   89.90465979
_symmetry_Int_Tables_number   1
_chemical_formula_structural   MgMn8O13F3
_chemical_formula_sum   'Mg1 Mn8 O13 F3'
_cell_volume   272.37281151
_cell_formula_units_Z   1
loop_
 _symmetry_equiv_pos_site_id
 _symmetry_equiv_pos_as_xyz
  1  'x, y, z'
loop_
 _atom_site_type_symbol
 _atom_site_label
 _atom_site_symmetry_multiplicity
 _atom_site_fract_x
 _atom_site_fract_y
 _atom_site_fract_z
 _atom_site_occupancy
  Mg  Mg0  1  0.11663800  0.10506800  0.39206800  1
  Mn  Mn0  1  0.36998100  0.36079300  0.10966300  1
  Mn  Mn1  1  0.13195300  0.65693000  0.36807800  1
  Mn  Mn2  1  0.84602600  0.14688100  0.09067800  1
  Mn  Mn3  1  0.41477700  0.15666800  0.67214100  1
  Mn  Mn4  1  0.14042200  0.83916100  0.87273800  1
  Mn  Mn5  1  0.61661400  0.86527600  0.37582500  1
  Mn  Mn6  1  0.61640300  0.63364700  0.86876300  1
  Mn  Mn7  1  0.87139700  0.37844800  0.64023800  1
  O  O0  1  0.14362200  0.14273400  0.09799000  1
  O  O1  1  0.17512600  0.61614100  0.09835400  1
  O  O2  1  0.57858300  0.58357700  0.13243000  1
  O  O3  1  0.07274200  0.61343700  0.63156800  1
  O  O4  1  0.33896900  0.87633000  0.43102000  1
  O  O5  1  0.11248400  0.12099800  0.67923400  1
  O  O6  1  0.57276500  0.11565800  0.16446000  1
  O  O7  1  0.42205600  0.87476300  0.83923300  1
  O  O8  1  0.67626900  0.14042100  0.59808200  1
  O  O9  1  0.89359500  0.90161900  0.30682500  1
  O  O10  1  0.41604100  0.40605900  0.84975400  1
  O  O11  1  0.66477400  0.61579300  0.59526000  1
  O  O12  1  0.82696400  0.39978700  0.89595700  1
  F  F0  1  0.33081100  0.35287700  0.40045600  1
  F  F1  1  0.92929900  0.37906700  0.36051100  1
  F  F2  1  0.84169400  0.86072400  0.90867500  1
loop_
_geom_bond_atom_site_label_1
_geom_bond_atom_site_label_2
_geom_bond_distance
_geom_bond_site_symmetry_2
Mg0 O4 1.981551 1_545
Mg0 O9 1.997300 1_445
Mg0 O5 2.034206 1_555
Mg0 O0 2.082404 1_555
Mn0 O10 1.871269 1_554
Mn0 O2 1.914010 1_555
Mn0 O6 1.962901 1_555
Mn0 O1 1.969906 1_555
Mn0 O0 1.976925 1_555
Mn1 O3 1.917087 1_555
Mn1 O4 1.940475 1_555
Mn1 O1 1.974552 1_555
Mn1 O9 2.130634 1_455
Mn2 O6 1.924588 1_555
Mn2 O12 1.926408 1_554
Mn2 O0 1.972582 1_655
Mn2 O9 2.007582 1_545
Mn3 O8 1.850233 1_555
Mn3 O7 1.940891 1_545
Mn3 O10 2.006509 1_555
Mn3 O5 2.021210 1_555
Mn3 O4 2.494232 1_545
Mn4 O7 1.909345 1_555
Mn4 O1 1.966842 1_556
Mn4 O5 2.046557 1_565
Mn4 O3 2.266157 1_555
Mn4 O0 2.486293 1_566
Mn5 O4 1.910955 1_555
Mn5 O9 1.940203 1_555
Mn5 O6 2.002118 1_565
Mn5 O11 2.039895 1_555
Mn5 O8 2.361358 1_565
Mn5 O2 2.484960 1_555
Mn6 O2 1.887162 1_556
Mn6 O10 1.892601 1_555
Mn6 O7 1.900750 1_555
Mn6 O12 1.944819 1_555
Mn6 O11 1.985089 1_555
Mn7 O12 1.858798 1_555
Mn7 O3 1.921306 1_655
Mn7 O8 1.934497 1_555
Mn7 O11 1.943212 1_555
Mn7 O5 2.185280 1_655
F0 Mg0 2.036557 1_555
F0 Mn0 2.077473 1_555
F0 Mn3 2.181260 1_555
F0 Mn1 2.203149 1_555
F1 Mg0 2.017659 1_655
F1 Mn7 2.031417 1_555
F1 Mn1 2.116850 1_655
F1 Mn2 2.467595 1_555
F2 Mn4 2.020860 1_655
F2 Mn6 2.026167 1_555
F2 Mn2 2.199083 1_566
