# generated using pymatgen
data_CeYCo17
_symmetry_space_group_name_H-M   'P 1'
_cell_length_a   6.24937457
_cell_length_b   6.24937457
_cell_length_c   6.24937424
_cell_angle_alpha   82.73265553
_cell_angle_beta   82.73265553
_cell_angle_gamma   82.73267254
_symmetry_Int_Tables_number   1
_chemical_formula_structural   CeYCo17
_chemical_formula_sum   'Ce1 Y1 Co17'
_cell_volume   238.64273354
_cell_formula_units_Z   1
loop_
 _symmetry_equiv_pos_site_id
 _symmetry_equiv_pos_as_xyz
  1  'x, y, z'
loop_
 _atom_site_type_symbol
 _atom_site_label
 _atom_site_symmetry_multiplicity
 _atom_site_fract_x
 _atom_site_fract_y
 _atom_site_fract_z
 _atom_site_occupancy
  Ce  Ce0  1  0.65254666  0.65254666  0.65254666  1
  Y  Y0  1  0.34357955  0.34357955  0.34357955  1
  Co  Co0  1  0.71454860  0.28873672  0.99895778  1
  Co  Co1  1  0.99895778  0.71454860  0.28873672  1
  Co  Co2  1  0.28873672  0.99895778  0.71454860  1
  Co  Co3  1  0.99895778  0.28873672  0.71454860  1
  Co  Co4  1  0.71454860  0.99895778  0.28873672  1
  Co  Co5  1  0.28873672  0.71454860  0.99895778  1
  Co  Co6  1  0.34565439  0.34565439  0.84592541  1
  Co  Co7  1  0.84592541  0.34565439  0.34565439  1
  Co  Co8  1  0.34565439  0.84592541  0.34565439  1
  Co  Co9  1  0.65558051  0.65558051  0.14270161  1
  Co  Co10  1  0.14270161  0.65558051  0.65558051  1
  Co  Co11  1  0.65558051  0.14270161  0.65558051  1
  Co  Co12  1  0.00500312  0.00500312  0.49820203  1
  Co  Co13  1  0.49820203  0.00500312  0.00500312  1
  Co  Co14  1  0.00500312  0.49820203  0.00500312  1
  Co  Co15  1  0.90481872  0.90481872  0.90481872  1
  Co  Co16  1  0.09526179  0.09526179  0.09526179  1
loop_
_geom_bond_atom_site_label_1
_geom_bond_atom_site_label_2
_geom_bond_distance
_geom_bond_site_symmetry_2
Ce0 Co6 2.928284 1_555
Ce0 Co7 2.928284 1_555
Ce0 Co8 2.928284 1_555
Ce0 Co1 2.958039 1_555
Ce0 Co4 2.958039 1_555
Ce0 Co5 2.958040 1_555
Ce0 Co0 2.958040 1_555
Ce0 Co2 2.958040 1_555
Ce0 Co3 2.958040 1_555
Ce0 Co15 3.056621 1_555
Ce0 Co9 3.068087 1_556
Ce0 Co10 3.068087 1_655
Ce0 Co11 3.068087 1_565
Ce0 Co9 3.181539 1_555
Ce0 Co10 3.181540 1_555
Ce0 Co11 3.181540 1_555
Ce0 Co12 3.284200 1_665
Ce0 Co13 3.284200 1_566
Ce0 Co14 3.284200 1_656
Co0 Co3 2.349237 1_555
Co0 Co13 2.355878 1_556
Co0 Co14 2.375035 1_656
Co0 Co4 2.393591 1_546
Co0 Co7 2.492755 1_556
Co0 Co11 2.520750 1_555
Co0 Co9 2.534177 1_556
Co0 Co6 2.572953 1_555
Co0 Co16 2.633473 1_656
Co0 Co15 2.640973 1_545
Co0 Y0 2.975385 1_556
Co1 Co4 2.349237 1_555
Co1 Co14 2.355878 1_655
Co1 Co12 2.375035 1_665
Co1 Co5 2.393591 1_654
Co1 Co8 2.492755 1_655
Co1 Co9 2.520750 1_555
Co1 Co10 2.534177 1_655
Co1 Co7 2.572953 1_555
Co1 Co16 2.633472 1_665
Co1 Co15 2.640972 1_554
Co1 Y0 2.975386 1_655
Co2 Co5 2.349237 1_555
Co2 Co3 2.393592 1_465
Co2 Co6 2.492755 1_565
Co2 Co8 2.572953 1_555
Co2 Y0 2.975385 1_565
Co3 Co6 2.492755 1_655
Co3 Co7 2.572953 1_555
Co3 Y0 2.975385 1_655
Co4 Co7 2.492755 1_565
Co4 Co9 2.520750 1_555
Co4 Co8 2.572953 1_555
Co4 Y0 2.975386 1_565
Co5 Co8 2.492755 1_556
Co5 Co9 2.534177 1_556
Co5 Co6 2.572953 1_555
Co5 Y0 2.975385 1_556
Co6 Y0 3.106806 1_556
Co6 Y0 3.142686 1_555
Co7 Co9 2.439739 1_555
Co7 Y0 3.106806 1_655
Co7 Y0 3.142686 1_555
Co8 Co9 2.439739 1_555
Co8 Y0 3.106806 1_565
Co8 Y0 3.142686 1_555
Co9 Y0 2.983749 1_555
Co10 Co14 2.381511 1_556
Co10 Co12 2.381511 1_565
Co10 Co8 2.439738 1_555
Co10 Co6 2.439739 1_555
Co10 Co2 2.520750 1_555
Co10 Co5 2.520750 1_555
Co10 Co3 2.534177 1_455
Co10 Co15 2.550354 1_455
Co10 Y0 2.983749 1_555
Co11 Co13 2.381511 1_556
Co11 Co12 2.381511 1_655
Co11 Co7 2.439738 1_555
Co11 Co6 2.439739 1_555
Co11 Co3 2.520750 1_555
Co11 Co2 2.534177 1_545
Co11 Co4 2.534177 1_545
Co11 Co15 2.550354 1_545
Co11 Y0 2.983749 1_555
Co12 Co2 2.355878 1_545
Co12 Co3 2.355878 1_455
Co12 Co8 2.370665 1_545
Co12 Co7 2.370665 1_455
Co12 Co4 2.375035 1_445
Co12 Co16 2.517751 1_555
Co12 Co15 2.556427 1_445
Co12 Y0 3.160037 1_555
Co13 Co4 2.355878 1_545
Co13 Co8 2.370664 1_545
Co13 Co6 2.370665 1_554
Co13 Co5 2.375035 1_544
Co13 Co2 2.375035 1_544
Co13 Co9 2.381511 1_545
Co13 Co16 2.517751 1_555
Co13 Co15 2.556427 1_544
Co13 Y0 3.160038 1_555
Co14 Co5 2.355878 1_554
Co14 Co7 2.370664 1_455
Co14 Co6 2.370665 1_554
Co14 Co3 2.375035 1_454
Co14 Co9 2.381511 1_455
Co14 Co16 2.517751 1_555
Co14 Co15 2.556427 1_454
Co14 Y0 3.160038 1_555
Co15 Co16 2.307478 1_666
Co15 Co9 2.550353 1_556
Co15 Co2 2.640972 1_655
Co15 Co3 2.640972 1_565
Co15 Co4 2.640972 1_556
Co15 Co5 2.640973 1_655
Co16 Co6 2.590539 1_554
Co16 Co7 2.590539 1_455
Co16 Co8 2.590539 1_545
Co16 Co4 2.633472 1_445
Co16 Co3 2.633472 1_454
Co16 Co2 2.633472 1_544
Co16 Co5 2.633473 1_544
Co16 Y0 3.008709 1_555
