# generated using pymatgen
data_Lu2MgS4
_symmetry_space_group_name_H-M   'P 1'
_cell_length_a   7.09229200
_cell_length_b   8.19378914
_cell_length_c   12.91389420
_cell_angle_alpha   99.24409267
_cell_angle_beta   95.40155176
_cell_angle_gamma   90.01077558
_symmetry_Int_Tables_number   1
_chemical_formula_structural   Lu2MgS4
_chemical_formula_sum   'Lu8 Mg4 S16'
_cell_volume   737.33682259
_cell_formula_units_Z   4
loop_
 _symmetry_equiv_pos_site_id
 _symmetry_equiv_pos_as_xyz
  1  'x, y, z'
loop_
 _atom_site_type_symbol
 _atom_site_label
 _atom_site_symmetry_multiplicity
 _atom_site_fract_x
 _atom_site_fract_y
 _atom_site_fract_z
 _atom_site_occupancy
  Lu  Lu0  1  0.86380600  0.29976600  0.69672000  1
  Lu  Lu1  1  0.13619400  0.70023400  0.30328000  1
  Lu  Lu2  1  0.75806300  0.12640500  0.00043700  1
  Lu  Lu3  1  0.24193700  0.87359500  0.99956300  1
  Lu  Lu4  1  0.63204100  0.44560600  0.30207500  1
  Lu  Lu5  1  0.36795900  0.55439400  0.69792500  1
  Lu  Lu6  1  0.63248300  0.95548000  0.30483800  1
  Lu  Lu7  1  0.36751700  0.04452000  0.69516200  1
  Mg  Mg0  1  0.86683400  0.79985800  0.70018800  1
  Mg  Mg1  1  0.13316600  0.20014200  0.29981200  1
  Mg  Mg2  1  0.75094700  0.62360900  0.99731000  1
  Mg  Mg3  1  0.24905300  0.37639100  0.00269000  1
  S  S0  1  0.90193300  0.35143200  0.89542600  1
  S  S1  1  0.09806700  0.64856800  0.10457400  1
  S  S2  1  0.89548800  0.84636800  0.89237800  1
  S  S3  1  0.10451200  0.15363200  0.10762200  1
  S  S4  1  0.82323000  0.21859700  0.37322300  1
  S  S5  1  0.17677000  0.78140300  0.62677700  1
  S  S6  1  0.81053400  0.71826700  0.37476700  1
  S  S7  1  0.18946600  0.28173300  0.62523300  1
  S  S8  1  0.69295800  0.02464100  0.62724600  1
  S  S9  1  0.30704200  0.97535900  0.37275400  1
  S  S10  1  0.69188900  0.53923300  0.62777800  1
  S  S11  1  0.30811100  0.46076700  0.37222200  1
  S  S12  1  0.60203300  0.90001800  0.10527400  1
  S  S13  1  0.39796700  0.09998200  0.89472600  1
  S  S14  1  0.59919100  0.40390400  0.10343600  1
  S  S15  1  0.40080900  0.59609600  0.89656400  1
loop_
_geom_bond_atom_site_label_1
_geom_bond_atom_site_label_2
_geom_bond_distance
_geom_bond_site_symmetry_2
Lu0 S0 2.521378 1_555
Lu0 S10 2.546976 1_555
Lu0 S8 2.549431 1_555
Lu0 S7 2.562504 1_655
Lu1 S1 2.521378 1_555
Lu1 S11 2.546976 1_555
Lu1 S9 2.549431 1_555
Lu1 S6 2.562504 1_455
Lu2 S3 2.695069 1_655
Lu2 S0 2.709795 1_554
Lu2 S2 2.718542 1_544
Lu2 S14 2.742315 1_555
Lu2 S12 2.754370 1_545
Lu2 S13 2.771527 1_554
Lu3 S2 2.695069 1_455
Lu3 S1 2.709795 1_556
Lu3 S3 2.718542 1_566
Lu3 S15 2.742315 1_555
Lu3 S13 2.754370 1_565
Lu3 S12 2.771527 1_556
Lu4 S14 2.521338 1_555
Lu4 S4 2.541288 1_555
Lu4 S11 2.543596 1_555
Lu4 S6 2.564470 1_555
Lu5 S15 2.521338 1_555
Lu5 S5 2.541288 1_555
Lu5 S10 2.543596 1_555
Lu5 S7 2.564470 1_555
Lu6 S12 2.532539 1_555
Lu6 S4 2.533839 1_565
Lu6 S9 2.541371 1_555
Lu6 S6 2.556984 1_555
Lu7 S13 2.532539 1_555
Lu7 S5 2.533839 1_545
Lu7 S8 2.541371 1_555
Lu7 S7 2.556984 1_555
Mg0 S2 2.438769 1_555
Mg0 S5 2.469799 1_655
Mg0 S10 2.472504 1_555
Mg0 S8 2.477884 1_565
Mg1 S3 2.438769 1_555
Mg1 S4 2.469799 1_455
Mg1 S11 2.472504 1_555
Mg1 S9 2.477884 1_545
Mg2 S0 2.678592 1_555
Mg2 S15 2.684671 1_555
Mg2 S2 2.697054 1_555
Mg2 S1 2.699664 1_656
Mg2 S14 2.710556 1_556
Mg2 S12 2.729914 1_556
Mg3 S1 2.678592 1_555
Mg3 S14 2.684671 1_555
Mg3 S3 2.697054 1_555
Mg3 S0 2.699664 1_454
Mg3 S15 2.710556 1_554
Mg3 S13 2.729914 1_554
