# generated using pymatgen
data_Y12Si5S28
_symmetry_space_group_name_H-M   'P 1'
_cell_length_a   9.82592800
_cell_length_b   11.35940685
_cell_length_c   11.36723977
_cell_angle_alpha   60.58157540
_cell_angle_beta   64.40593162
_cell_angle_gamma   64.38174217
_symmetry_Int_Tables_number   1
_chemical_formula_structural   Y12Si5S28
_chemical_formula_sum   'Y12 Si5 S28'
_cell_volume   956.77921070
_cell_formula_units_Z   1
loop_
 _symmetry_equiv_pos_site_id
 _symmetry_equiv_pos_as_xyz
  1  'x, y, z'
loop_
 _atom_site_type_symbol
 _atom_site_label
 _atom_site_symmetry_multiplicity
 _atom_site_fract_x
 _atom_site_fract_y
 _atom_site_fract_z
 _atom_site_occupancy
  Y  Y0  1  0.23280200  0.93079500  0.70145000  1
  Y  Y1  1  0.21928900  0.46666900  0.18462000  1
  Y  Y2  1  0.64973600  0.70444500  0.42402700  1
  Y  Y3  1  0.63474300  0.18468100  0.95153700  1
  Y  Y4  1  0.13144700  0.74879100  0.46831900  1
  Y  Y5  1  0.12958700  0.23398900  0.00294000  1
  Y  Y6  1  0.77991600  0.04112500  0.30434900  1
  Y  Y7  1  0.77381900  0.57070300  0.79659100  1
  Y  Y8  1  0.36684100  0.31660200  0.54516400  1
  Y  Y9  1  0.34447500  0.80695400  0.06654100  1
  Y  Y10  1  0.86197600  0.27182300  0.50172500  1
  Y  Y11  1  0.87200600  0.76136400  0.01982800  1
  Si  Si0  1  0.33418900  0.08728300  0.25169300  1
  Si  Si1  1  0.33359400  0.58155700  0.74448300  1
  Si  Si2  1  0.66632800  0.00492300  0.66266000  1
  Si  Si3  1  0.66689000  0.50503400  0.16031500  1
  Si  Si4  1  0.00120600  0.22596800  0.77396000  1
  S  S0  1  0.33272500  0.90139300  0.43363600  1
  S  S1  1  0.33338100  0.39924600  0.93204600  1
  S  S2  1  0.67431200  0.31271200  0.33871100  1
  S  S3  1  0.65954800  0.82750800  0.85388200  1
  S  S4  1  0.10799100  0.23828900  0.25292100  1
  S  S5  1  0.10389500  0.72517700  0.73888400  1
  S  S6  1  0.47024800  0.20919800  0.22198400  1
  S  S7  1  0.48703100  0.69218200  0.70774900  1
  S  S8  1  0.41248600  0.04620400  0.06365200  1
  S  S9  1  0.42135200  0.54421900  0.55532300  1
  S  S10  1  0.89468800  0.00798100  0.51856300  1
  S  S11  1  0.89558900  0.50784700  0.01364700  1
  S  S12  1  0.52041000  0.03658400  0.54811000  1
  S  S13  1  0.52665000  0.53688800  0.04117300  1
  S  S14  1  0.58219700  0.19502400  0.70091500  1
  S  S15  1  0.58008900  0.69264900  0.20161500  1
  S  S16  1  0.13864500  0.22323100  0.55090800  1
  S  S17  1  0.16600900  0.73667000  0.99790800  1
  S  S18  1  0.73638600  0.91677700  0.18083000  1
  S  S19  1  0.77464400  0.38162700  0.70734600  1
  S  S20  1  0.09454100  0.95037400  0.21605100  1
  S  S21  1  0.08902000  0.40717100  0.73197200  1
  S  S22  1  0.83908000  0.74252200  0.51599600  1
  S  S23  1  0.85033400  0.23520500  0.00115100  1
  S  S24  1  0.23631700  0.07424000  0.84014300  1
  S  S25  1  0.25820000  0.56380200  0.33767300  1
  S  S26  1  0.91375200  0.04156200  0.80813400  1
  S  S27  1  0.90163500  0.53350900  0.30637600  1
loop_
_geom_bond_atom_site_label_1
_geom_bond_atom_site_label_2
_geom_bond_distance
_geom_bond_site_symmetry_2
S0 Si0 2.108755 1_565
S0 Y0 2.911384 1_555
S0 Y2 2.939339 1_555
S0 Y4 2.948123 1_555
S1 Si1 2.120588 1_555
S1 Y3 2.924608 1_555
S1 Y5 2.924644 1_556
S1 Y1 2.953507 1_556
S2 Si3 2.127964 1_555
S2 Y10 2.900978 1_555
S2 Y8 2.915076 1_555
S2 Y6 2.968549 1_555
S3 Si2 2.116221 1_565
S3 Y7 2.932013 1_555
S3 Y9 3.014511 1_556
S3 Y11 3.022336 1_556
S4 Si0 2.140656 1_555
S4 Y5 2.780016 1_555
S4 Y1 2.875776 1_555
S4 Y10 2.888359 1_455
S5 Si1 2.144221 1_555
S5 Y4 2.852610 1_555
S5 Y0 2.890882 1_555
S5 Y11 3.122860 1_456
S6 Si0 2.137940 1_555
S6 Y1 2.874547 1_555
S6 Y3 2.880919 1_554
S6 Y6 3.076026 1_555
S7 Si1 2.146036 1_555
S7 Y0 2.775045 1_555
S7 Y2 2.876330 1_555
S7 Y7 2.931224 1_555
S8 Si0 2.151086 1_555
S8 Y3 2.732130 1_554
S8 Y5 2.799502 1_555
S8 Y9 3.049208 1_545
S9 Si1 2.127116 1_555
S9 Y8 2.920594 1_555
S9 Y2 2.923324 1_555
S9 Y4 2.990776 1_555
S10 Si2 2.134264 1_555
S10 Y10 2.789097 1_555
S10 Y6 2.906488 1_555
S10 Y4 2.997957 1_645
S11 Si3 2.145519 1_555
S11 Y11 2.821265 1_555
S11 Y7 2.847871 1_554
S11 Y5 2.987268 1_655
S12 Si2 2.141876 1_555
S12 Y6 2.837481 1_555
S12 Y8 2.860814 1_555
S12 Y0 3.015259 1_545
S13 Si3 2.136297 1_555
S13 Y7 2.774777 1_554
S13 Y9 2.893626 1_555
S13 Y1 2.994465 1_555
S14 Si2 2.145657 1_555
S14 Y8 2.797734 1_555
S14 Y10 2.863706 1_555
S14 Y3 3.047307 1_555
S15 Si3 2.134226 1_555
S15 Y9 2.813627 1_555
S15 Y11 2.887451 1_555
S15 Y2 2.963962 1_555
S16 Si4 2.310018 1_555
S16 Y10 2.778493 1_455
S16 Y0 2.818720 1_545
S16 Y8 2.831761 1_555
S17 Y11 2.689283 1_456
S17 Y9 2.706614 1_556
S17 Y1 2.713342 1_556
S17 Y0 2.947917 1_555
S18 Y6 2.671928 1_565
S18 Y11 2.697104 1_555
S18 Y2 2.716031 1_555
S18 Y3 2.980078 1_564
S19 Si4 2.322279 1_655
S19 Y7 2.785769 1_555
S19 Y3 2.803902 1_555
S19 Y10 2.821493 1_555
S20 Y6 2.684598 1_465
S20 Y9 2.688452 1_555
S20 Y4 2.706995 1_555
S20 Y5 2.989662 1_565
S21 Si4 2.328966 1_555
S21 Y8 2.780090 1_555
S21 Y5 2.818938 1_556
S21 Y7 2.825304 1_455
S22 Y4 2.710254 1_655
S22 Y2 2.749900 1_555
S22 Y7 2.755661 1_555
S22 Y6 3.019597 1_565
S23 Si4 2.387907 1_654
S23 Y3 2.745273 1_554
S23 Y5 2.746791 1_655
S23 Y6 3.002015 1_555
S23 Y7 3.289912 1_554
S24 Si4 2.378693 1_555
S24 Y0 2.785887 1_545
S24 Y5 2.791740 1_556
S24 Y9 2.977877 1_546
S24 Y8 3.276712 1_555
S25 Y1 2.686222 1_555
S25 Y4 2.716033 1_555
S25 Y8 2.768498 1_555
S25 Y9 3.041594 1_555
S26 Si4 2.397095 1_655
S26 Y0 2.772198 1_645
S26 Y3 2.775665 1_555
S26 Y11 2.973495 1_546
S26 Y10 3.265331 1_555
S27 Y2 2.687054 1_555
S27 Y1 2.735848 1_655
S27 Y10 2.772857 1_555
S27 Y11 3.046206 1_555
