# generated using pymatgen
data_Sm3Bi(Ru2O7)2
_symmetry_space_group_name_H-M   'P 1'
_cell_length_a   7.32278804
_cell_length_b   7.32278804
_cell_length_c   7.32278769
_cell_angle_alpha   60.27909381
_cell_angle_beta   60.27909381
_cell_angle_gamma   60.27909849
_symmetry_Int_Tables_number   1
_chemical_formula_structural   Sm3Bi(Ru2O7)2
_chemical_formula_sum   'Sm3 Bi1 Ru4 O14'
_cell_volume   279.41453350
_cell_formula_units_Z   1
loop_
 _symmetry_equiv_pos_site_id
 _symmetry_equiv_pos_as_xyz
  1  'x, y, z'
loop_
 _atom_site_type_symbol
 _atom_site_label
 _atom_site_symmetry_multiplicity
 _atom_site_fract_x
 _atom_site_fract_y
 _atom_site_fract_z
 _atom_site_occupancy
  Sm  Sm0  1  0.00000000  0.50000000  0.00000000  1
  Sm  Sm1  1  0.50000000  0.00000000  0.00000000  1
  Sm  Sm2  1  0.00000000  0.00000000  0.50000000  1
  Bi  Bi0  1  0.00000000  0.00000000  0.00000000  1
  Ru  Ru0  1  0.50000000  0.50000000  0.50000000  1
  Ru  Ru1  1  0.50000000  0.00000000  0.50000000  1
  Ru  Ru2  1  0.00000000  0.50000000  0.50000000  1
  Ru  Ru3  1  0.50000000  0.50000000  0.00000000  1
  O  O0  1  0.12713400  0.12713400  0.12713400  1
  O  O1  1  0.87286600  0.87286600  0.87286600  1
  O  O2  1  0.41809600  0.41809600  0.83135600  1
  O  O3  1  0.83135600  0.41809600  0.41809600  1
  O  O4  1  0.41809600  0.83135600  0.41809600  1
  O  O5  1  0.82998100  0.82998100  0.41914400  1
  O  O6  1  0.41914400  0.82998100  0.82998100  1
  O  O7  1  0.82998100  0.41914400  0.82998100  1
  O  O8  1  0.58190400  0.58190400  0.16864400  1
  O  O9  1  0.16864400  0.58190400  0.58190400  1
  O  O10  1  0.58190400  0.16864400  0.58190400  1
  O  O11  1  0.17001900  0.17001900  0.58085600  1
  O  O12  1  0.58085600  0.17001900  0.17001900  1
  O  O13  1  0.17001900  0.58085600  0.17001900  1
loop_
_geom_bond_atom_site_label_1
_geom_bond_atom_site_label_2
_geom_bond_distance
_geom_bond_site_symmetry_2
Bi0 O0 2.275593 1_555
Bi0 O1 2.275593 1_444
Bi0 O5 2.545510 1_445
Bi0 O11 2.545510 1_554
Bi0 O6 2.545510 1_544
Bi0 O7 2.545510 1_454
Bi0 O13 2.545510 1_545
Bi0 O12 2.545510 1_455
O0 Sm2 2.237645 1_555
O0 Sm1 2.237645 1_555
O0 Sm0 2.237645 1_555
O1 Sm2 2.237645 1_665
O1 Sm0 2.237645 1_656
O1 Sm1 2.237645 1_566
O2 Ru3 2.017435 1_556
O2 Ru0 2.019347 1_555
O2 Sm0 2.534374 1_556
O2 Sm1 2.534374 1_556
O3 Ru2 2.017435 1_655
O3 Ru0 2.019348 1_555
O3 Sm0 2.534374 1_655
O3 Sm2 2.534374 1_655
O4 Ru1 2.017435 1_565
O4 Ru0 2.019348 1_555
O4 Sm1 2.534374 1_565
O4 Sm2 2.534374 1_565
O5 Ru1 2.017132 1_565
O5 Ru2 2.017132 1_655
O5 Sm2 2.539590 1_665
O6 Ru1 2.017132 1_565
O6 Ru3 2.017132 1_556
O6 Sm1 2.539590 1_566
O7 Ru2 2.017132 1_655
O7 Ru3 2.017132 1_556
O7 Sm0 2.539590 1_656
O8 Ru3 2.017435 1_555
O8 Ru0 2.019347 1_555
O8 Sm1 2.534374 1_565
O8 Sm0 2.534374 1_655
O9 Ru2 2.017435 1_555
O9 Ru0 2.019348 1_555
O9 Sm0 2.534374 1_556
O9 Sm2 2.534374 1_565
O10 Ru1 2.017435 1_555
O10 Ru0 2.019348 1_555
O10 Sm1 2.534374 1_556
O10 Sm2 2.534374 1_655
O11 Ru2 2.017132 1_555
O11 Ru1 2.017132 1_555
O11 Sm2 2.539590 1_555
O12 Ru1 2.017132 1_555
O12 Ru3 2.017132 1_555
O12 Sm1 2.539590 1_555
O13 Ru2 2.017132 1_555
O13 Ru3 2.017132 1_555
O13 Sm0 2.539590 1_555
