# generated using pymatgen
data_K2CrF5
_symmetry_space_group_name_H-M   'P 1'
_cell_length_a   7.48359700
_cell_length_b   13.05096200
_cell_length_c   20.61458600
_cell_angle_alpha   90.00000000
_cell_angle_beta   90.00000000
_cell_angle_gamma   90.00000000
_symmetry_Int_Tables_number   1
_chemical_formula_structural   K2CrF5
_chemical_formula_sum   'K32 Cr16 F80'
_cell_volume   2013.38827294
_cell_formula_units_Z   16
loop_
 _symmetry_equiv_pos_site_id
 _symmetry_equiv_pos_as_xyz
  1  'x, y, z'
loop_
 _atom_site_type_symbol
 _atom_site_label
 _atom_site_symmetry_multiplicity
 _atom_site_fract_x
 _atom_site_fract_y
 _atom_site_fract_z
 _atom_site_occupancy
  K  K0  1  0.00000000  0.57366000  0.25000000  1
  K  K1  1  0.00000000  0.42634000  0.75000000  1
  K  K2  1  0.50000000  0.92634000  0.75000000  1
  K  K3  1  0.50000000  0.07366000  0.25000000  1
  K  K4  1  0.00000000  0.03730300  0.25000000  1
  K  K5  1  0.00000000  0.96269700  0.75000000  1
  K  K6  1  0.50000000  0.46269700  0.75000000  1
  K  K7  1  0.50000000  0.53730300  0.25000000  1
  K  K8  1  0.14629600  0.28817200  0.16327000  1
  K  K9  1  0.85370400  0.71182800  0.83673000  1
  K  K10  1  0.35370400  0.21182800  0.66327000  1
  K  K11  1  0.85370400  0.28817200  0.33673000  1
  K  K12  1  0.64629600  0.78817200  0.33673000  1
  K  K13  1  0.14629600  0.71182800  0.66327000  1
  K  K14  1  0.64629600  0.21182800  0.83673000  1
  K  K15  1  0.35370400  0.78817200  0.16327000  1
  K  K16  1  0.51145000  0.26828000  0.00661200  1
  K  K17  1  0.48855000  0.73172000  0.99338800  1
  K  K18  1  0.98855000  0.23172000  0.50661200  1
  K  K19  1  0.48855000  0.26828000  0.49338800  1
  K  K20  1  0.01145000  0.76828000  0.49338800  1
  K  K21  1  0.51145000  0.73172000  0.50661200  1
  K  K22  1  0.01145000  0.23172000  0.99338800  1
  K  K23  1  0.98855000  0.76828000  0.00661200  1
  K  K24  1  0.34178200  0.02140100  0.41626200  1
  K  K25  1  0.65821800  0.97859900  0.58373800  1
  K  K26  1  0.15821800  0.47859900  0.91626200  1
  K  K27  1  0.65821800  0.02140100  0.08373800  1
  K  K28  1  0.84178200  0.52140100  0.08373800  1
  K  K29  1  0.34178200  0.97859900  0.91626200  1
  K  K30  1  0.84178200  0.47859900  0.58373800  1
  K  K31  1  0.15821800  0.52140100  0.41626200  1
  Cr  Cr0  1  0.16545300  0.00034200  0.07757800  1
  Cr  Cr1  1  0.83454700  0.99965800  0.92242200  1
  Cr  Cr2  1  0.33454700  0.49965800  0.57757800  1
  Cr  Cr3  1  0.83454700  0.00034200  0.42242200  1
  Cr  Cr4  1  0.66545300  0.50034200  0.42242200  1
  Cr  Cr5  1  0.16545300  0.99965800  0.57757800  1
  Cr  Cr6  1  0.66545300  0.49965800  0.92242200  1
  Cr  Cr7  1  0.33454700  0.50034200  0.07757800  1
  Cr  Cr8  1  0.34018300  0.30419000  0.32827800  1
  Cr  Cr9  1  0.65981700  0.69581000  0.67172200  1
  Cr  Cr10  1  0.15981700  0.19581000  0.82827800  1
  Cr  Cr11  1  0.65981700  0.30419000  0.17172200  1
  Cr  Cr12  1  0.84018300  0.80419000  0.17172200  1
  Cr  Cr13  1  0.34018300  0.69581000  0.82827800  1
  Cr  Cr14  1  0.84018300  0.19581000  0.67172200  1
  Cr  Cr15  1  0.15981700  0.80419000  0.32827800  1
  F  F0  1  0.21933000  0.37935200  0.03978700  1
  F  F1  1  0.78067000  0.62064800  0.96021300  1
  F  F2  1  0.28067000  0.12064800  0.53978700  1
  F  F3  1  0.78067000  0.37935200  0.46021300  1
  F  F4  1  0.71933000  0.87935200  0.46021300  1
  F  F5  1  0.21933000  0.62064800  0.53978700  1
  F  F6  1  0.71933000  0.12064800  0.96021300  1
  F  F7  1  0.28067000  0.87935200  0.03978700  1
  F  F8  1  0.20407600  0.42042300  0.29639300  1
  F  F9  1  0.79592400  0.57957700  0.70360700  1
  F  F10  1  0.29592400  0.07957700  0.79639300  1
  F  F11  1  0.79592400  0.42042300  0.20360700  1
  F  F12  1  0.70407600  0.92042300  0.20360700  1
  F  F13  1  0.20407600  0.57957700  0.79639300  1
  F  F14  1  0.70407600  0.07957700  0.70360700  1
  F  F15  1  0.29592400  0.92042300  0.29639300  1
  F  F16  1  0.50659600  0.19750700  0.14006400  1
  F  F17  1  0.49340400  0.80249300  0.85993600  1
  F  F18  1  0.99340400  0.30249300  0.64006400  1
  F  F19  1  0.49340400  0.19750700  0.35993600  1
  F  F20  1  0.00659600  0.69750700  0.35993600  1
  F  F21  1  0.50659600  0.80249300  0.64006400  1
  F  F22  1  0.00659600  0.30249300  0.85993600  1
  F  F23  1  0.99340400  0.69750700  0.14006400  1
  F  F24  1  0.18187000  0.49283200  0.15150800  1
  F  F25  1  0.81813000  0.50716800  0.84849200  1
  F  F26  1  0.31813000  0.00716800  0.65150800  1
  F  F27  1  0.81813000  0.49283200  0.34849200  1
  F  F28  1  0.68187000  0.99283200  0.34849200  1
  F  F29  1  0.18187000  0.50716800  0.65150800  1
  F  F30  1  0.68187000  0.00716800  0.84849200  1
  F  F31  1  0.31813000  0.99283200  0.15150800  1
  F  F32  1  0.00000000  0.00000000  0.00000000  1
  F  F33  1  0.50000000  0.50000000  0.50000000  1
  F  F34  1  0.00000000  0.00000000  0.50000000  1
  F  F35  1  0.50000000  0.50000000  0.00000000  1
  F  F36  1  0.00000000  0.82193800  0.25000000  1
  F  F37  1  0.00000000  0.17806200  0.75000000  1
  F  F38  1  0.50000000  0.67806200  0.75000000  1
  F  F39  1  0.50000000  0.32193800  0.25000000  1
  F  F40  1  0.19075600  0.29833900  0.40350400  1
  F  F41  1  0.80924400  0.70166100  0.59649600  1
  F  F42  1  0.30924400  0.20166100  0.90350400  1
  F  F43  1  0.80924400  0.29833900  0.09649600  1
  F  F44  1  0.69075600  0.79833900  0.09649600  1
  F  F45  1  0.19075600  0.70166100  0.90350400  1
  F  F46  1  0.69075600  0.20166100  0.59649600  1
  F  F47  1  0.30924400  0.79833900  0.40350400  1
  F  F48  1  0.02835300  0.11108200  0.11246400  1
  F  F49  1  0.97164700  0.88891800  0.88753600  1
  F  F50  1  0.47164700  0.38891800  0.61246400  1
  F  F51  1  0.97164700  0.11108200  0.38753600  1
  F  F52  1  0.52835300  0.61108200  0.38753600  1
  F  F53  1  0.02835300  0.88891800  0.61246400  1
  F  F54  1  0.52835300  0.38891800  0.88753600  1
  F  F55  1  0.47164700  0.61108200  0.11246400  1
  F  F56  1  0.20199900  0.20606300  0.27932000  1
  F  F57  1  0.79800100  0.79393700  0.72068000  1
  F  F58  1  0.29800100  0.29393700  0.77932000  1
  F  F59  1  0.79800100  0.20606300  0.22068000  1
  F  F60  1  0.70199900  0.70606300  0.22068000  1
  F  F61  1  0.20199900  0.79393700  0.77932000  1
  F  F62  1  0.70199900  0.29393700  0.72068000  1
  F  F63  1  0.29800100  0.70606300  0.27932000  1
  F  F64  1  0.50498500  0.40475100  0.12328500  1
  F  F65  1  0.49501500  0.59524900  0.87671500  1
  F  F66  1  0.99501500  0.09524900  0.62328500  1
  F  F67  1  0.49501500  0.40475100  0.37671500  1
  F  F68  1  0.00498500  0.90475100  0.37671500  1
  F  F69  1  0.50498500  0.59524900  0.62328500  1
  F  F70  1  0.00498500  0.09524900  0.87671500  1
  F  F71  1  0.99501500  0.90475100  0.12328500  1
  F  F72  1  0.32093700  0.08940000  0.03025700  1
  F  F73  1  0.67906300  0.91060000  0.96974300  1
  F  F74  1  0.17906300  0.41060000  0.53025700  1
  F  F75  1  0.67906300  0.08940000  0.46974300  1
  F  F76  1  0.82093700  0.58940000  0.46974300  1
  F  F77  1  0.32093700  0.91060000  0.53025700  1
  F  F78  1  0.82093700  0.41060000  0.96974300  1
  F  F79  1  0.17906300  0.58940000  0.03025700  1
loop_
_geom_bond_atom_site_label_1
_geom_bond_atom_site_label_2
_geom_bond_distance
_geom_bond_site_symmetry_2
Cr0 F31 1.907293 1_545
Cr0 F72 1.912184 1_555
Cr0 F48 1.912762 1_555
Cr0 F7 1.960541 1_545
Cr0 F71 2.017688 1_445
Cr0 F32 2.022543 1_555
Cr1 F30 1.907293 1_565
Cr1 F73 1.912184 1_555
Cr1 F49 1.912762 1_555
Cr1 F6 1.960541 1_565
Cr1 F70 2.017688 1_665
Cr1 F32 2.022543 1_666
Cr2 F29 1.907293 1_555
Cr2 F74 1.912184 1_555
Cr2 F50 1.912762 1_555
Cr2 F5 1.960541 1_555
Cr2 F69 2.017688 1_555
Cr2 F33 2.022543 1_555
Cr3 F28 1.907293 1_545
Cr3 F75 1.912184 1_555
Cr3 F51 1.912762 1_555
Cr3 F4 1.960541 1_545
Cr3 F68 2.017688 1_645
Cr3 F34 2.022543 1_655
Cr4 F27 1.907293 1_555
Cr4 F76 1.912184 1_555
Cr4 F52 1.912762 1_555
Cr4 F3 1.960541 1_555
Cr4 F67 2.017688 1_555
Cr4 F33 2.022543 1_555
Cr5 F26 1.907293 1_565
Cr5 F77 1.912184 1_555
Cr5 F53 1.912762 1_555
Cr5 F2 1.960541 1_565
Cr5 F66 2.017688 1_465
Cr5 F34 2.022543 1_565
Cr6 F25 1.907293 1_555
Cr6 F78 1.912184 1_555
Cr6 F54 1.912762 1_555
Cr6 F1 1.960541 1_555
Cr6 F65 2.017688 1_555
Cr6 F35 2.022543 1_556
Cr7 F24 1.907293 1_555
Cr7 F79 1.912184 1_555
Cr7 F55 1.912762 1_555
Cr7 F0 1.960541 1_555
Cr7 F64 2.017688 1_555
Cr7 F35 2.022543 1_555
Cr8 F40 1.913414 1_555
Cr8 F19 1.918136 1_555
Cr8 F56 1.930814 1_555
Cr8 F8 1.941821 1_555
Cr8 F67 2.015452 1_555
Cr8 F39 2.021882 1_555
Cr9 F41 1.913414 1_555
Cr9 F21 1.918136 1_555
Cr9 F57 1.930814 1_555
Cr9 F9 1.941821 1_555
Cr9 F69 2.015452 1_555
Cr9 F38 2.021882 1_555
Cr10 F42 1.913414 1_555
Cr10 F22 1.918136 1_555
Cr10 F58 1.930814 1_555
Cr10 F10 1.941821 1_555
Cr10 F70 2.015452 1_555
Cr10 F37 2.021882 1_555
Cr11 F43 1.913414 1_555
Cr11 F16 1.918136 1_555
Cr11 F59 1.930814 1_555
Cr11 F11 1.941821 1_555
Cr11 F64 2.015452 1_555
Cr11 F39 2.021882 1_555
Cr12 F44 1.913414 1_555
Cr12 F23 1.918136 1_555
Cr12 F60 1.930814 1_555
Cr12 F12 1.941821 1_555
Cr12 F71 2.015452 1_555
Cr12 F36 2.021882 1_655
Cr13 F45 1.913414 1_555
Cr13 F17 1.918136 1_555
Cr13 F61 1.930814 1_555
Cr13 F13 1.941821 1_555
Cr13 F65 2.015452 1_555
Cr13 F38 2.021882 1_555
Cr14 F46 1.913414 1_555
Cr14 F18 1.918136 1_555
Cr14 F62 1.930814 1_555
Cr14 F14 1.941821 1_555
Cr14 F66 2.015452 1_555
Cr14 F37 2.021882 1_655
Cr15 F47 1.913414 1_555
Cr15 F20 1.918136 1_555
Cr15 F63 1.930814 1_555
Cr15 F15 1.941821 1_555
Cr15 F68 2.015452 1_555
Cr15 F36 2.021882 1_555
F0 K22 2.654691 1_554
F0 K16 2.710739 1_555
F0 K8 2.862625 1_555
F0 K26 2.893288 1_554
F1 K23 2.654691 1_556
F1 K17 2.710739 1_555
F1 K9 2.862625 1_555
F1 K28 2.893288 1_556
F2 K19 2.654691 1_555
F2 K18 2.710739 1_455
F2 K10 2.862625 1_555
F2 K24 2.893288 1_555
F3 K18 2.654691 1_555
F3 K19 2.710739 1_555
F3 K11 2.862625 1_555
F3 K30 2.893288 1_555
F4 K21 2.654691 1_555
F4 K20 2.710739 1_655
F4 K12 2.862625 1_555
F4 K25 2.893288 1_555
F5 K20 2.654691 1_555
F5 K21 2.710739 1_555
F5 K13 2.862625 1_555
F5 K31 2.893288 1_555
F6 K16 2.654691 1_556
F6 K22 2.710739 1_655
F6 K14 2.862625 1_555
F6 K27 2.893288 1_556
F7 K17 2.654691 1_554
F7 K23 2.710739 1_455
F7 K15 2.862625 1_555
F7 K29 2.893288 1_554
F8 K0 2.691954 1_555
F8 K31 2.821456 1_555
F8 K7 2.854090 1_555
F8 K11 3.247405 1_455
F8 K8 3.270643 1_555
F9 K1 2.691954 1_655
F9 K30 2.821456 1_555
F9 K6 2.854090 1_555
F9 K13 3.247405 1_655
F9 K9 3.270643 1_555
F10 K2 2.691954 1_545
F10 K29 2.821456 1_545
F10 K5 2.854090 1_545
F10 K14 3.247405 1_555
F10 K10 3.270643 1_555
F11 K0 2.691954 1_655
F11 K28 2.821456 1_555
F11 K7 2.854090 1_555
F11 K8 3.247405 1_655
F11 K11 3.270643 1_555
F12 K3 2.691954 1_565
F12 K27 2.821456 1_565
F12 K4 2.854090 1_665
F12 K15 3.247405 1_555
F12 K12 3.270643 1_555
F13 K1 2.691954 1_555
F13 K26 2.821456 1_555
F13 K6 2.854090 1_555
F13 K9 3.247405 1_455
F13 K13 3.270643 1_555
F14 K2 2.691954 1_545
F14 K25 2.821456 1_545
F14 K5 2.854090 1_645
F14 K10 3.247405 1_555
F14 K14 3.270643 1_555
F15 K3 2.691954 1_565
F15 K24 2.821456 1_565
F15 K4 2.854090 1_565
F15 K12 3.247405 1_555
F15 K15 3.270643 1_555
F16 K3 2.784059 1_555
F16 K27 2.813922 1_555
F16 K16 2.902202 1_555
F16 K8 2.983155 1_555
F17 K2 2.784059 1_555
F17 K29 2.813922 1_555
F17 K17 2.902202 1_555
F17 K9 2.983155 1_555
F18 K1 2.784059 1_655
F18 K30 2.813922 1_555
F18 K18 2.902202 1_555
F18 K10 2.983155 1_655
F19 K3 2.784059 1_555
F19 K24 2.813922 1_555
F19 K19 2.902202 1_555
F19 K11 2.983155 1_555
F20 K0 2.784059 1_555
F20 K31 2.813922 1_555
F20 K20 2.902202 1_555
F20 K12 2.983155 1_455
F21 K2 2.784059 1_555
F21 K25 2.813922 1_555
F21 K21 2.902202 1_555
F21 K13 2.983155 1_555
F22 K1 2.784059 1_555
F22 K26 2.813922 1_555
F22 K22 2.902202 1_555
F22 K14 2.983155 1_455
F23 K0 2.784059 1_655
F23 K28 2.813922 1_555
F23 K23 2.902202 1_555
F23 K15 2.983155 1_655
F24 K0 2.662259 1_555
F24 K8 2.695173 1_555
F24 K28 2.927150 1_455
F24 K7 3.182336 1_555
F25 K1 2.662259 1_655
F25 K9 2.695173 1_555
F25 K26 2.927150 1_655
F25 K6 3.182336 1_555
F26 K2 2.662259 1_545
F26 K10 2.695173 1_555
F26 K25 2.927150 1_545
F26 K5 3.182336 1_545
F27 K0 2.662259 1_655
F27 K11 2.695173 1_555
F27 K31 2.927150 1_655
F27 K7 3.182336 1_555
F28 K3 2.662259 1_565
F28 K12 2.695173 1_555
F28 K24 2.927150 1_565
F28 K4 3.182336 1_665
F29 K1 2.662259 1_555
F29 K13 2.695173 1_555
F29 K30 2.927150 1_455
F29 K6 3.182336 1_555
F30 K2 2.662259 1_545
F30 K14 2.695173 1_555
F30 K29 2.927150 1_545
F30 K5 3.182336 1_645
F31 K3 2.662259 1_565
F31 K15 2.695173 1_555
F31 K27 2.927150 1_565
F31 K4 3.182336 1_565
F32 K22 3.028452 1_554
F32 K23 3.028452 1_445
F32 K29 3.098385 1_544
F32 K27 3.098385 1_455
F33 K19 3.028452 1_555
F33 K21 3.028452 1_555
F33 K30 3.098385 1_555
F33 K31 3.098385 1_555
F34 K18 3.028452 1_455
F34 K20 3.028452 1_545
F34 K25 3.098385 1_445
F34 K24 3.098385 1_555
F35 K16 3.028452 1_555
F35 K17 3.028452 1_554
F35 K26 3.098385 1_554
F35 K28 3.098385 1_555
F36 K4 2.810720 1_565
F36 K12 3.224483 1_455
F36 K15 3.224483 1_555
F37 K5 2.810720 1_545
F37 K10 3.224483 1_555
F37 K14 3.224483 1_455
F38 K6 2.810720 1_555
F38 K9 3.224483 1_555
F38 K13 3.224483 1_555
F39 K7 2.810720 1_555
F39 K11 3.224483 1_555
F39 K8 3.224483 1_555
F40 K18 2.750211 1_455
F40 K11 2.876581 1_455
F40 K19 2.924678 1_555
F40 K31 2.933154 1_555
F41 K20 2.750211 1_655
F41 K13 2.876581 1_655
F41 K21 2.924678 1_555
F41 K30 2.933154 1_555
F42 K16 2.750211 1_556
F42 K14 2.876581 1_555
F42 K22 2.924678 1_555
F42 K29 2.933154 1_545
F43 K22 2.750211 1_654
F43 K8 2.876581 1_655
F43 K16 2.924678 1_555
F43 K28 2.933154 1_555
F44 K17 2.750211 1_554
F44 K15 2.876581 1_555
F44 K23 2.924678 1_555
F44 K27 2.933154 1_565
F45 K23 2.750211 1_456
F45 K9 2.876581 1_455
F45 K17 2.924678 1_555
F45 K26 2.933154 1_555
F46 K19 2.750211 1_555
F46 K10 2.876581 1_555
F46 K18 2.924678 1_555
F46 K25 2.933154 1_545
F47 K21 2.750211 1_555
F47 K12 2.876581 1_555
F47 K20 2.924678 1_555
F47 K24 2.933154 1_565
F48 K8 2.686560 1_555
F48 K22 2.918978 1_554
F48 K4 3.001800 1_555
F48 K27 3.064822 1_455
F49 K9 2.686560 1_555
F49 K23 2.918978 1_556
F49 K5 3.001800 1_655
F49 K29 3.064822 1_655
F50 K10 2.686560 1_555
F50 K19 2.918978 1_555
F50 K6 3.001800 1_555
F50 K30 3.064822 1_555
F51 K11 2.686560 1_555
F51 K18 2.918978 1_555
F51 K4 3.001800 1_655
F51 K24 3.064822 1_655
F52 K12 2.686560 1_555
F52 K21 2.918978 1_555
F52 K7 3.001800 1_555
F52 K31 3.064822 1_555
F53 K13 2.686560 1_555
F53 K20 2.918978 1_555
F53 K5 3.001800 1_555
F53 K25 3.064822 1_455
F54 K14 2.686560 1_555
F54 K16 2.918978 1_556
F54 K6 3.001800 1_555
F54 K26 3.064822 1_555
F55 K15 2.686560 1_555
F55 K17 2.918978 1_554
F55 K7 3.001800 1_555
F55 K28 3.064822 1_555
F56 K8 2.654300 1_555
F56 K4 2.738871 1_555
F56 K3 2.885254 1_555
F56 K11 3.056600 1_455
F57 K9 2.654300 1_555
F57 K5 2.738871 1_655
F57 K2 2.885254 1_555
F57 K13 3.056600 1_655
F58 K10 2.654300 1_555
F58 K6 2.738871 1_555
F58 K1 2.885254 1_555
F58 K14 3.056600 1_555
F59 K11 2.654300 1_555
F59 K4 2.738871 1_655
F59 K3 2.885254 1_555
F59 K8 3.056600 1_655
F60 K12 2.654300 1_555
F60 K7 2.738871 1_555
F60 K0 2.885254 1_655
F60 K15 3.056600 1_555
F61 K13 2.654300 1_555
F61 K5 2.738871 1_555
F61 K2 2.885254 1_555
F61 K9 3.056600 1_455
F62 K14 2.654300 1_555
F62 K6 2.738871 1_555
F62 K1 2.885254 1_655
F62 K10 3.056600 1_555
F63 K15 2.654300 1_555
F63 K7 2.738871 1_555
F63 K0 2.885254 1_555
F63 K12 3.056600 1_555
F64 K16 2.993226 1_555
F64 K28 3.055322 1_555
F64 K7 3.133293 1_555
F64 K8 3.193693 1_555
F65 K17 2.993226 1_555
F65 K26 3.055322 1_555
F65 K6 3.133293 1_555
F65 K9 3.193693 1_555
F66 K18 2.993226 1_555
F66 K25 3.055322 1_545
F66 K5 3.133293 1_645
F66 K10 3.193693 1_655
F67 K19 2.993226 1_555
F67 K31 3.055322 1_555
F67 K7 3.133293 1_555
F67 K11 3.193693 1_555
F68 K20 2.993226 1_555
F68 K24 3.055322 1_565
F68 K4 3.133293 1_565
F68 K12 3.193693 1_455
F69 K21 2.993226 1_555
F69 K30 3.055322 1_555
F69 K6 3.133293 1_555
F69 K13 3.193693 1_555
F70 K22 2.993226 1_555
F70 K29 3.055322 1_545
F70 K5 3.133293 1_545
F70 K14 3.193693 1_455
F71 K23 2.993226 1_555
F71 K27 3.055322 1_565
F71 K4 3.133293 1_665
F71 K15 3.193693 1_655
F72 K29 2.763645 1_544
F72 K16 2.778566 1_555
F72 K27 2.893788 1_555
F72 K22 3.064613 1_554
F73 K27 2.763645 1_566
F73 K17 2.778566 1_555
F73 K29 2.893788 1_555
F73 K23 3.064613 1_556
F74 K31 2.763645 1_555
F74 K18 2.778566 1_455
F74 K30 2.893788 1_455
F74 K19 3.064613 1_555
F75 K25 2.763645 1_545
F75 K19 2.778566 1_555
F75 K24 2.893788 1_555
F75 K18 3.064613 1_555
F76 K30 2.763645 1_555
F76 K20 2.778566 1_655
F76 K31 2.893788 1_655
F76 K21 3.064613 1_555
F77 K24 2.763645 1_565
F77 K21 2.778566 1_555
F77 K25 2.893788 1_555
F77 K20 3.064613 1_555
F78 K28 2.763645 1_556
F78 K22 2.778566 1_655
F78 K26 2.893788 1_655
F78 K16 3.064613 1_556
F79 K26 2.763645 1_554
F79 K23 2.778566 1_455
F79 K28 2.893788 1_455
F79 K17 3.064613 1_554
