# generated using pymatgen
data_PdS(NO)3
_symmetry_space_group_name_H-M   'P 1'
_cell_length_a   7.25973300
_cell_length_b   8.44902600
_cell_length_c   14.84303791
_cell_angle_alpha   60.67415233
_cell_angle_beta   90.00000000
_cell_angle_gamma   90.00000000
_symmetry_Int_Tables_number   1
_chemical_formula_structural   PdS(NO)3
_chemical_formula_sum   'Pd4 S4 N12 O12'
_cell_volume   793.76340275
_cell_formula_units_Z   4
loop_
 _symmetry_equiv_pos_site_id
 _symmetry_equiv_pos_as_xyz
  1  'x, y, z'
loop_
 _atom_site_type_symbol
 _atom_site_label
 _atom_site_symmetry_multiplicity
 _atom_site_fract_x
 _atom_site_fract_y
 _atom_site_fract_z
 _atom_site_occupancy
  Pd  Pd0  1  0.18174600  0.03902200  0.00709700  1
  Pd  Pd1  1  0.31825400  0.03902200  0.50709700  1
  Pd  Pd2  1  0.81825400  0.96097800  0.99290300  1
  Pd  Pd3  1  0.68174600  0.96097800  0.49290300  1
  S  S0  1  0.20031800  0.34356300  0.67935900  1
  S  S1  1  0.29968200  0.34356300  0.17935900  1
  S  S2  1  0.79968200  0.65643700  0.32064100  1
  S  S3  1  0.70031800  0.65643700  0.82064100  1
  N  N0  1  0.28376300  0.92277200  0.13045400  1
  N  N1  1  0.21623700  0.92277200  0.63045400  1
  N  N2  1  0.71623700  0.07722800  0.86954600  1
  N  N3  1  0.78376300  0.07722800  0.36954600  1
  N  N4  1  0.21348900  0.27614900  0.91239200  1
  N  N5  1  0.28651100  0.27614900  0.41239200  1
  N  N6  1  0.78651100  0.72385100  0.08760800  1
  N  N7  1  0.71348900  0.72385100  0.58760800  1
  N  N8  1  0.22446400  0.93106000  0.92194800  1
  N  N9  1  0.27553600  0.93106000  0.42194800  1
  N  N10  1  0.77553600  0.06894000  0.07805200  1
  N  N11  1  0.72446400  0.06894000  0.57805200  1
  O  O0  1  0.15476800  0.52004300  0.66467700  1
  O  O1  1  0.34523200  0.52004300  0.16467700  1
  O  O2  1  0.84523200  0.47995700  0.33532300  1
  O  O3  1  0.65476800  0.47995700  0.83532300  1
  O  O4  1  0.05810600  0.21183700  0.69999300  1
  O  O5  1  0.44189400  0.21183700  0.19999300  1
  O  O6  1  0.94189400  0.78816300  0.30000700  1
  O  O7  1  0.55810600  0.78816300  0.80000700  1
  O  O8  1  0.38838600  0.29970700  0.67036500  1
  O  O9  1  0.11161400  0.29970700  0.17036500  1
  O  O10  1  0.61161400  0.70029300  0.32963500  1
  O  O11  1  0.88838600  0.70029300  0.82963500  1
loop_
_geom_bond_atom_site_label_1
_geom_bond_atom_site_label_2
_geom_bond_distance
_geom_bond_site_symmetry_2
N0 Pd0 1.761856 1_565
N1 Pd1 1.761856 1_565
N2 Pd2 1.761856 1_545
N3 Pd3 1.761856 1_545
N4 Pd0 1.812282 1_556
N5 Pd1 1.812282 1_555
N6 Pd2 1.812282 1_554
N7 Pd3 1.812282 1_555
N8 Pd0 1.911779 1_566
N9 Pd1 1.911779 1_565
N10 Pd2 1.911779 1_544
N11 Pd3 1.911779 1_545
O0 S0 1.435922 1_555
O1 S1 1.435922 1_555
O2 S2 1.435922 1_555
O3 S3 1.435922 1_555
O4 S0 1.436827 1_555
O5 S1 1.436827 1_555
O6 S2 1.436827 1_555
O7 S3 1.436827 1_555
O8 S0 1.437945 1_555
O9 S1 1.437945 1_555
O10 S2 1.437945 1_555
O11 S3 1.437945 1_555
