# generated using pymatgen
data_ErNbO2
_symmetry_space_group_name_H-M   'P 1'
_cell_length_a   7.19108174
_cell_length_b   7.19108174
_cell_length_c   7.19108174
_cell_angle_alpha   129.06843002
_cell_angle_beta   129.06843002
_cell_angle_gamma   74.90049187
_symmetry_Int_Tables_number   1
_chemical_formula_structural   ErNbO2
_chemical_formula_sum   'Er4 Nb4 O8'
_cell_volume   218.31262428
_cell_formula_units_Z   4
loop_
 _symmetry_equiv_pos_site_id
 _symmetry_equiv_pos_as_xyz
  1  'x, y, z'
loop_
 _atom_site_type_symbol
 _atom_site_label
 _atom_site_symmetry_multiplicity
 _atom_site_fract_x
 _atom_site_fract_y
 _atom_site_fract_z
 _atom_site_occupancy
  Er  Er0  1  0.87500000  0.62500000  0.25000000  1
  Er  Er1  1  0.37500000  0.62500000  0.75000000  1
  Er  Er2  1  0.37500000  0.62500000  0.25000000  1
  Er  Er3  1  0.37500000  0.12500000  0.75000000  1
  Nb  Nb0  1  0.37500000  0.12500000  0.25000000  1
  Nb  Nb1  1  0.87500000  0.12500000  0.75000000  1
  Nb  Nb2  1  0.87500000  0.12500000  0.25000000  1
  Nb  Nb3  1  0.87500000  0.62500000  0.75000000  1
  O  O0  1  0.17485600  0.41262700  0.23777100  1
  O  O1  1  0.17485600  0.93708500  0.76222900  1
  O  O2  1  0.16262700  0.42485600  0.73777100  1
  O  O3  1  0.57514400  0.83737300  0.26222900  1
  O  O4  1  0.68708500  0.42485600  0.26222900  1
  O  O5  1  0.57514400  0.31291500  0.73777100  1
  O  O6  1  0.58737300  0.82514400  0.76222900  1
  O  O7  1  0.06291500  0.82514400  0.23777100  1
loop_
_geom_bond_atom_site_label_1
_geom_bond_atom_site_label_2
_geom_bond_distance
_geom_bond_site_symmetry_2
Er0 O7 2.286442 1_655
Er0 O4 2.286442 1_555
Er0 O1 2.311645 1_655
Er0 O3 2.311645 1_555
Er0 O0 2.311645 1_655
Er0 O5 2.311645 1_554
Er1 O6 2.286442 1_555
Er1 O2 2.286442 1_555
Er1 O5 2.311645 1_555
Er1 O3 2.311645 1_556
Er1 O0 2.311645 1_555
Er1 O1 2.311645 1_555
Er2 O3 2.286442 1_555
Er2 O0 2.286442 1_555
Er2 O6 2.311645 1_555
Er2 O7 2.311645 1_555
Er2 O2 2.311645 1_554
Er2 O4 2.311645 1_555
Er3 O5 2.286442 1_555
Er3 O1 2.286442 1_545
Er3 O2 2.311645 1_555
Er3 O6 2.311645 1_545
Er3 O4 2.311645 1_556
Er3 O7 2.311645 1_545
Nb0 O0 2.208179 1_555
Nb0 O5 2.208179 1_555
Nb0 O1 2.208179 1_544
Nb0 O3 2.208179 1_545
Nb1 O0 2.208179 1_656
Nb1 O1 2.208179 1_645
Nb1 O5 2.208179 1_555
Nb1 O3 2.208179 1_545
Nb2 O4 2.208179 1_555
Nb2 O2 2.208179 1_655
Nb2 O7 2.208179 1_645
Nb2 O6 2.208179 1_544
Nb3 O7 2.208179 1_656
Nb3 O4 2.208179 1_555
Nb3 O2 2.208179 1_655
Nb3 O6 2.208179 1_555
