# generated using pymatgen
data_Na3La(PO4)2
_symmetry_space_group_name_H-M   'P 1'
_cell_length_a   5.32569947
_cell_length_b   13.89912766
_cell_length_c   18.74543394
_cell_angle_alpha   90.00000000
_cell_angle_beta   90.00000000
_cell_angle_gamma   90.00000000
_symmetry_Int_Tables_number   1
_chemical_formula_structural   Na3La(PO4)2
_chemical_formula_sum   'Na24 La8 P16 O64'
_cell_volume   1387.58532370
_cell_formula_units_Z   8
loop_
 _symmetry_equiv_pos_site_id
 _symmetry_equiv_pos_as_xyz
  1  'x, y, z'
loop_
 _atom_site_type_symbol
 _atom_site_label
 _atom_site_symmetry_multiplicity
 _atom_site_fract_x
 _atom_site_fract_y
 _atom_site_fract_z
 _atom_site_occupancy
  Na  Na0  1  0.01568980  0.78441903  0.50729243  1
  Na  Na1  1  0.98431020  0.21558097  0.00729243  1
  Na  Na2  1  0.98431020  0.28441903  0.50729243  1
  Na  Na3  1  0.01568980  0.71558097  0.00729243  1
  Na  Na4  1  0.00447596  0.04924263  0.84957462  1
  Na  Na5  1  0.99552404  0.95075737  0.34957462  1
  Na  Na6  1  0.99552404  0.54924263  0.84957462  1
  Na  Na7  1  0.00447596  0.45075737  0.34957462  1
  Na  Na8  1  0.00438839  0.13345913  0.67317677  1
  Na  Na9  1  0.99561161  0.86654087  0.17317677  1
  Na  Na10  1  0.99561161  0.63345913  0.67317677  1
  Na  Na11  1  0.00438839  0.36654087  0.17317677  1
  Na  Na12  1  0.51374184  0.20171118  0.77030521  1
  Na  Na13  1  0.48625816  0.79828882  0.27030521  1
  Na  Na14  1  0.48625816  0.70171118  0.77030521  1
  Na  Na15  1  0.51374184  0.29828882  0.27030521  1
  Na  Na16  1  0.46173174  0.03236058  0.61360136  1
  Na  Na17  1  0.53826826  0.96763942  0.11360136  1
  Na  Na18  1  0.53826826  0.53236058  0.61360136  1
  Na  Na19  1  0.46173174  0.46763942  0.11360136  1
  Na  Na20  1  0.49857912  0.11483368  0.95038995  1
  Na  Na21  1  0.50142088  0.88516632  0.45038995  1
  Na  Na22  1  0.50142088  0.61483368  0.95038995  1
  Na  Na23  1  0.49857912  0.38516632  0.45038995  1
  La  La0  1  0.06192419  0.38244600  0.69773298  1
  La  La1  1  0.93807581  0.61755400  0.19773298  1
  La  La2  1  0.93807581  0.88244600  0.69773298  1
  La  La3  1  0.06192419  0.11755400  0.19773298  1
  La  La4  1  0.45149482  0.36642732  0.92503561  1
  La  La5  1  0.54850518  0.63357268  0.42503561  1
  La  La6  1  0.54850518  0.86642732  0.92503561  1
  La  La7  1  0.45149482  0.13357268  0.42503561  1
  P  P0  1  0.02673619  0.52358002  0.51928489  1
  P  P1  1  0.97326381  0.47641998  0.01928489  1
  P  P2  1  0.97326381  0.02358002  0.51928489  1
  P  P3  1  0.02673619  0.97641998  0.01928489  1
  P  P4  1  0.01419653  0.76683912  0.84775057  1
  P  P5  1  0.98580347  0.23316088  0.34775057  1
  P  P6  1  0.98580347  0.26683912  0.84775057  1
  P  P7  1  0.01419653  0.73316088  0.34775057  1
  P  P8  1  0.52524195  0.48265050  0.77492442  1
  P  P9  1  0.47475805  0.51734950  0.27492442  1
  P  P10  1  0.47475805  0.98265050  0.77492442  1
  P  P11  1  0.52524195  0.01734950  0.27492442  1
  P  P12  1  0.53476396  0.27249310  0.60338764  1
  P  P13  1  0.46523604  0.72750690  0.10338764  1
  P  P14  1  0.46523604  0.77249310  0.60338764  1
  P  P15  1  0.53476396  0.22750690  0.10338764  1
  O  O0  1  0.40091594  0.19735926  0.64922961  1
  O  O1  1  0.59908406  0.80264074  0.14922961  1
  O  O2  1  0.59908406  0.69735926  0.64922961  1
  O  O3  1  0.40091594  0.30264074  0.14922961  1
  O  O4  1  0.30493289  0.53098814  0.73552305  1
  O  O5  1  0.69506711  0.46901186  0.23552305  1
  O  O6  1  0.69506711  0.03098814  0.73552305  1
  O  O7  1  0.30493289  0.96901186  0.23552305  1
  O  O8  1  0.09410333  0.12253833  0.50474677  1
  O  O9  1  0.90589667  0.87746167  0.00474677  1
  O  O10  1  0.90589667  0.62253833  0.50474677  1
  O  O11  1  0.09410333  0.37746167  0.00474677  1
  O  O12  1  0.20321669  0.21999070  0.88934329  1
  O  O13  1  0.79678331  0.78000930  0.38934329  1
  O  O14  1  0.79678331  0.71999070  0.88934329  1
  O  O15  1  0.20321669  0.28000930  0.38934329  1
  O  O16  1  0.31226645  0.52895055  0.50368386  1
  O  O17  1  0.68773355  0.47104945  0.00368386  1
  O  O18  1  0.68773355  0.02895055  0.50368386  1
  O  O19  1  0.31226645  0.97104945  0.00368386  1
  O  O20  1  0.09748548  0.55217882  0.97148108  1
  O  O21  1  0.90251452  0.44782118  0.47148108  1
  O  O22  1  0.90251452  0.05217882  0.97148108  1
  O  O23  1  0.09748548  0.94782118  0.47148108  1
  O  O24  1  0.22845126  0.01126339  0.73838971  1
  O  O25  1  0.77154874  0.98873661  0.23838971  1
  O  O26  1  0.77154874  0.51126339  0.73838971  1
  O  O27  1  0.22845126  0.48873661  0.23838971  1
  O  O28  1  0.41269131  0.37170471  0.61579267  1
  O  O29  1  0.58730869  0.62829529  0.11579267  1
  O  O30  1  0.58730869  0.87170471  0.61579267  1
  O  O31  1  0.41269131  0.12829529  0.11579267  1
  O  O32  1  0.48781144  0.37261292  0.77380517  1
  O  O33  1  0.51218856  0.62738708  0.27380517  1
  O  O34  1  0.51218856  0.87261292  0.77380517  1
  O  O35  1  0.48781144  0.12738708  0.27380517  1
  O  O36  1  0.02033825  0.37695638  0.84780718  1
  O  O37  1  0.97966175  0.62304362  0.34780718  1
  O  O38  1  0.97966175  0.87695638  0.84780718  1
  O  O39  1  0.02033825  0.12304362  0.34780718  1
  O  O40  1  0.18298642  0.77638380  0.62384694  1
  O  O41  1  0.81701358  0.22361620  0.12384694  1
  O  O42  1  0.81701358  0.27638380  0.62384694  1
  O  O43  1  0.18298642  0.72361620  0.12384694  1
  O  O44  1  0.00803105  0.73123222  0.77007896  1
  O  O45  1  0.99196895  0.26876778  0.27007896  1
  O  O46  1  0.99196895  0.23123222  0.77007896  1
  O  O47  1  0.00803105  0.76876778  0.27007896  1
  O  O48  1  0.47184100  0.01673857  0.85302206  1
  O  O49  1  0.52815900  0.98326143  0.35302206  1
  O  O50  1  0.52815900  0.51673857  0.85302206  1
  O  O51  1  0.47184100  0.48326143  0.35302206  1
  O  O52  1  0.01411513  -0.00017514  0.59883574  1
  O  O53  1  0.98588487  0.00017514  0.09883574  1
  O  O54  1  0.98588487  0.49982486  0.59883574  1
  O  O55  1  0.01411513  0.50017514  0.09883574  1
  O  O56  1  0.73663844  0.23727967  0.88236664  1
  O  O57  1  0.26336156  0.76272033  0.38236664  1
  O  O58  1  0.26336156  0.73727967  0.88236664  1
  O  O59  1  0.73663844  0.26272033  0.38236664  1
  O  O60  1  0.52217215  0.25009582  0.52299282  1
  O  O61  1  0.47782785  0.74990418  0.02299282  1
  O  O62  1  0.47782785  0.75009582  0.52299282  1
  O  O63  1  0.52217215  0.24990418  0.02299282  1
loop_
_geom_bond_atom_site_label_1
_geom_bond_atom_site_label_2
_geom_bond_distance
_geom_bond_site_symmetry_2
Na0 O10 2.325228 1_455
Na0 O40 2.362189 1_555
Na0 O23 2.408011 1_555
Na0 O13 2.500294 1_455
Na0 O62 2.524233 1_555
Na0 O57 2.704581 1_555
Na0 O62 2.918821 1_455
Na1 O11 2.325228 1_655
Na1 O41 2.362189 1_555
Na1 O22 2.408011 1_554
Na1 O12 2.500294 1_654
Na1 O63 2.524233 1_555
Na1 O56 2.704581 1_554
Na1 O63 2.918821 1_655
Na2 O8 2.325228 1_655
Na2 O42 2.362189 1_555
Na2 O21 2.408011 1_555
Na2 O15 2.500294 1_655
Na2 O60 2.524233 1_555
Na2 O59 2.704581 1_555
Na2 O60 2.918821 1_655
Na3 O9 2.325228 1_455
Na3 O43 2.362189 1_555
Na3 O20 2.408011 1_554
Na3 O14 2.500294 1_454
Na3 O61 2.524233 1_555
Na3 O58 2.704581 1_554
Na3 O61 2.918821 1_455
Na4 O22 2.349175 1_455
Na4 O38 2.398501 1_445
Na4 O24 2.458743 1_555
Na4 O48 2.530539 1_555
Na4 O12 2.703393 1_555
Na4 O6 2.711180 1_455
Na4 O48 2.873131 1_455
Na4 O46 2.936567 1_455
Na5 O23 2.349175 1_655
Na5 O39 2.398501 1_665
Na5 O25 2.458743 1_555
Na5 O49 2.530539 1_555
Na5 O13 2.703393 1_555
Na5 O7 2.711180 1_655
Na5 O49 2.873131 1_655
Na5 O47 2.936567 1_655
Na6 O20 2.349175 1_655
Na6 O36 2.398501 1_655
Na6 O26 2.458743 1_555
Na6 O50 2.530539 1_555
Na6 O14 2.703393 1_555
Na6 O4 2.711180 1_655
Na6 O50 2.873131 1_655
Na6 O44 2.936567 1_655
Na7 O21 2.349175 1_455
Na7 O37 2.398501 1_455
Na7 O27 2.458743 1_555
Na7 O51 2.530539 1_555
Na7 O15 2.703393 1_555
Na7 O5 2.711180 1_455
Na7 O51 2.873131 1_455
Na7 O45 2.936567 1_455
Na8 O46 2.269521 1_455
Na8 O52 2.322631 1_555
Na8 O0 2.334518 1_555
Na8 O42 2.407735 1_455
Na8 O24 2.408926 1_555
Na8 O6 2.471469 1_455
Na9 O47 2.269521 1_655
Na9 O53 2.322631 1_565
Na9 O1 2.334518 1_555
Na9 O43 2.407735 1_655
Na9 O25 2.408926 1_555
Na9 O7 2.471469 1_655
Na10 O44 2.269521 1_655
Na10 O54 2.322631 1_555
Na10 O2 2.334518 1_555
Na10 O40 2.407735 1_655
Na10 O26 2.408926 1_555
Na10 O4 2.471469 1_655
Na11 O45 2.269521 1_455
Na11 O55 2.322631 1_555
Na11 O3 2.334518 1_555
Na11 O41 2.407735 1_455
Na11 O27 2.408926 1_555
Na11 O5 2.471469 1_455
Na12 O0 2.348587 1_555
Na12 O32 2.380300 1_555
Na12 O56 2.462976 1_555
Na12 O46 2.579738 1_555
Na12 O6 2.643543 1_555
Na12 O12 2.789036 1_555
Na12 O46 2.808939 1_455
Na13 O1 2.348587 1_555
Na13 O33 2.380300 1_555
Na13 O57 2.462976 1_555
Na13 O47 2.579738 1_555
Na13 O7 2.643543 1_555
Na13 O13 2.789036 1_555
Na13 O47 2.808939 1_655
Na14 O2 2.348587 1_555
Na14 O34 2.380300 1_555
Na14 O58 2.462976 1_555
Na14 O44 2.579738 1_555
Na14 O4 2.643543 1_555
Na14 O14 2.789036 1_555
Na14 O44 2.808939 1_655
Na15 O3 2.348587 1_555
Na15 O35 2.380300 1_555
Na15 O59 2.462976 1_555
Na15 O45 2.579738 1_555
Na15 O5 2.643543 1_555
Na15 O15 2.789036 1_555
Na15 O45 2.808939 1_455
Na16 O30 2.331340 1_545
Na16 O18 2.386713 1_555
Na16 O0 2.410466 1_555
Na16 O52 2.442121 1_555
Na16 O6 2.601538 1_555
Na16 O24 2.664847 1_555
Na17 O31 2.331340 1_565
Na17 O19 2.386713 1_555
Na17 O1 2.410466 1_555
Na17 O53 2.442121 1_565
Na17 O7 2.601538 1_555
Na17 O25 2.664847 1_555
Na18 O28 2.331340 1_555
Na18 O16 2.386713 1_555
Na18 O2 2.410466 1_555
Na18 O54 2.442121 1_555
Na18 O4 2.601538 1_555
Na18 O26 2.664847 1_555
Na19 O29 2.331340 1_555
Na19 O17 2.386713 1_555
Na19 O3 2.410466 1_555
Na19 O55 2.442121 1_555
Na19 O5 2.601538 1_555
Na19 O27 2.664847 1_555
Na20 O48 2.282675 1_555
Na20 O63 2.322180 1_556
Na20 O22 2.354255 1_555
Na20 O12 2.433134 1_555
Na20 O19 2.444686 1_546
Na20 O56 2.475840 1_555
Na21 O49 2.282675 1_555
Na21 O62 2.322180 1_555
Na21 O23 2.354255 1_555
Na21 O13 2.433134 1_555
Na21 O18 2.444686 1_565
Na21 O57 2.475840 1_555
Na22 O50 2.282675 1_555
Na22 O61 2.322180 1_556
Na22 O20 2.354255 1_555
Na22 O14 2.433134 1_555
Na22 O17 2.444686 1_556
Na22 O58 2.475840 1_555
Na23 O51 2.282675 1_555
Na23 O60 2.322180 1_555
Na23 O21 2.354255 1_555
Na23 O15 2.433134 1_555
Na23 O16 2.444686 1_555
Na23 O59 2.475840 1_555
La0 O42 2.406809 1_455
La0 O28 2.423083 1_555
La0 O26 2.485571 1_455
La0 O54 2.502501 1_455
La0 O46 2.528888 1_455
La0 O4 2.537587 1_555
La0 O32 2.682660 1_555
La0 O36 2.822942 1_555
La1 O43 2.406809 1_655
La1 O29 2.423083 1_555
La1 O27 2.485571 1_655
La1 O55 2.502501 1_655
La1 O47 2.528888 1_655
La1 O5 2.537587 1_555
La1 O33 2.682660 1_555
La1 O37 2.822942 1_555
La2 O40 2.406809 1_655
La2 O30 2.423083 1_555
La2 O24 2.485571 1_665
La2 O52 2.502501 1_665
La2 O44 2.528888 1_655
La2 O6 2.537587 1_565
La2 O34 2.682660 1_555
La2 O38 2.822942 1_555
La3 O41 2.406809 1_455
La3 O31 2.423083 1_555
La3 O25 2.485571 1_445
La3 O53 2.502501 1_455
La3 O45 2.528888 1_455
La3 O7 2.537587 1_545
La3 O35 2.682660 1_555
La3 O39 2.822942 1_555
La4 O17 2.423020 1_556
La4 O11 2.424664 1_556
La4 O63 2.477197 1_556
La4 O56 2.483554 1_555
La4 O12 2.517662 1_555
La4 O50 2.520662 1_555
La4 O36 2.718414 1_555
La4 O32 2.842771 1_555
La5 O16 2.423020 1_555
La5 O10 2.424664 1_555
La5 O62 2.477197 1_555
La5 O57 2.483554 1_555
La5 O13 2.517662 1_555
La5 O51 2.520662 1_555
La5 O37 2.718414 1_555
La5 O33 2.842771 1_555
La6 O19 2.423020 1_556
La6 O9 2.424664 1_556
La6 O61 2.477197 1_556
La6 O58 2.483554 1_555
La6 O14 2.517662 1_555
La6 O48 2.520662 1_565
La6 O38 2.718414 1_555
La6 O34 2.842771 1_555
La7 O18 2.423020 1_555
La7 O8 2.424664 1_555
La7 O60 2.477197 1_555
La7 O59 2.483554 1_555
La7 O15 2.517662 1_555
La7 O49 2.520662 1_545
La7 O39 2.718414 1_555
La7 O35 2.842771 1_555
O0 P12 1.528767 1_555
O1 P13 1.528767 1_555
O2 P14 1.528767 1_555
O3 P15 1.528767 1_555
O4 P8 1.540630 1_555
O5 P9 1.540630 1_555
O6 P10 1.540630 1_545
O7 P11 1.540630 1_565
O8 P2 1.542806 1_455
O9 P3 1.542806 1_655
O10 P0 1.542806 1_655
O11 P1 1.542806 1_455
O12 P6 1.540315 1_455
O13 P7 1.540315 1_655
O14 P4 1.540315 1_655
O15 P5 1.540315 1_455
O16 P0 1.550313 1_555
O17 P1 1.550313 1_555
O18 P2 1.550313 1_555
O19 P3 1.550313 1_555
O20 P1 1.532789 1_456
O21 P0 1.532789 1_655
O22 P3 1.532789 1_646
O23 P2 1.532789 1_465
O24 P10 1.532285 1_545
O25 P11 1.532285 1_565
O26 P8 1.532285 1_555
O27 P9 1.532285 1_555
O28 P12 1.542157 1_555
O29 P13 1.542157 1_555
O30 P14 1.542157 1_555
O31 P15 1.542157 1_555
O32 P8 1.542505 1_555
O33 P9 1.542505 1_555
O34 P10 1.542505 1_555
O35 P11 1.542505 1_555
O36 P6 1.541545 1_455
O37 P7 1.541545 1_655
O38 P4 1.541545 1_655
O39 P5 1.541545 1_455
O40 P14 1.552273 1_555
O41 P15 1.552273 1_555
O42 P12 1.552273 1_555
O43 P13 1.552273 1_555
O44 P4 1.538152 1_555
O45 P5 1.538152 1_555
O46 P6 1.538152 1_555
O47 P7 1.538152 1_555
O48 P10 1.538812 1_545
O49 P11 1.538812 1_565
O50 P8 1.538812 1_555
O51 P9 1.538812 1_555
O52 P2 1.542748 1_455
O53 P3 1.542748 1_645
O54 P0 1.542748 1_655
O55 P1 1.542748 1_455
O56 P6 1.533210 1_555
O57 P7 1.533210 1_555
O58 P4 1.533210 1_555
O59 P5 1.533210 1_555
O60 P12 1.540313 1_555
O61 P13 1.540313 1_555
O62 P14 1.540313 1_555
O63 P15 1.540313 1_555
