# generated using pymatgen
data_Zr2(TiSn)3
_symmetry_space_group_name_H-M   'P 1'
_cell_length_a   5.70633500
_cell_length_b   8.33836528
_cell_length_c   8.33836558
_cell_angle_alpha   59.97055376
_cell_angle_beta   90.00000000
_cell_angle_gamma   90.00000000
_symmetry_Int_Tables_number   1
_chemical_formula_structural   Zr2(TiSn)3
_chemical_formula_sum   'Zr4 Ti6 Sn6'
_cell_volume   343.49530386
_cell_formula_units_Z   2
loop_
 _symmetry_equiv_pos_site_id
 _symmetry_equiv_pos_as_xyz
  1  'x, y, z'
loop_
 _atom_site_type_symbol
 _atom_site_label
 _atom_site_symmetry_multiplicity
 _atom_site_fract_x
 _atom_site_fract_y
 _atom_site_fract_z
 _atom_site_occupancy
  Zr  Zr0  1  0.49999900  0.33332000  0.33332600  1
  Zr  Zr1  1  0.49999900  0.66667400  0.66668000  1
  Zr  Zr2  1  0.99999900  0.66668000  0.66667400  1
  Zr  Zr3  1  0.99999900  0.33332600  0.33332000  1
  Ti  Ti0  1  0.74999400  0.25960700  0.74039300  1
  Ti  Ti1  1  0.75000400  0.74049700  0.99988800  1
  Ti  Ti2  1  0.75000400  0.00011200  0.25950300  1
  Ti  Ti3  1  0.24999400  0.74039300  0.25960700  1
  Ti  Ti4  1  0.25000400  0.25950300  0.00011200  1
  Ti  Ti5  1  0.25000400  0.99988800  0.74049700  1
  Sn  Sn0  1  0.74999700  0.62366000  0.37634000  1
  Sn  Sn1  1  0.75000200  0.37646600  0.99997100  1
  Sn  Sn2  1  0.75000200  0.00002900  0.62353400  1
  Sn  Sn3  1  0.24999700  0.37634000  0.62366000  1
  Sn  Sn4  1  0.25000200  0.62353400  0.00002900  1
  Sn  Sn5  1  0.25000200  0.99997100  0.37646600  1
loop_
_geom_bond_atom_site_label_1
_geom_bond_atom_site_label_2
_geom_bond_distance
_geom_bond_site_symmetry_2
Sn0 Ti2 2.782370 1_565
Sn0 Ti1 2.782371 1_554
Sn0 Zr3 2.982257 1_555
Sn0 Zr2 2.982257 1_555
Sn0 Zr0 2.982263 1_555
Sn0 Zr1 2.982263 1_555
Sn0 Ti3 3.014475 1_655
Sn0 Ti3 3.014507 1_555
Sn0 Ti0 3.034256 1_555
Sn1 Ti2 2.781021 1_556
Sn1 Ti0 2.783038 1_555
Sn1 Zr1 2.980486 1_555
Sn1 Zr2 2.980513 1_555
Sn1 Zr3 2.981582 1_556
Sn1 Zr0 2.981625 1_556
Sn1 Ti4 3.015050 1_556
Sn1 Ti4 3.015071 1_656
Sn1 Ti1 3.035077 1_555
Sn2 Ti1 2.781021 1_545
Sn2 Ti0 2.783038 1_555
Sn2 Zr0 2.980486 1_555
Sn2 Zr3 2.980513 1_555
Sn2 Zr2 2.981582 1_545
Sn2 Zr1 2.981625 1_545
Sn2 Ti5 3.015050 1_545
Sn2 Ti5 3.015071 1_645
Sn2 Ti2 3.035077 1_555
Sn3 Ti5 2.782370 1_545
Sn3 Ti4 2.782371 1_556
Sn3 Zr1 2.982257 1_555
Sn3 Zr0 2.982257 1_555
Sn3 Zr2 2.982263 1_455
Sn3 Zr3 2.982263 1_455
Sn3 Ti0 3.014475 1_555
Sn3 Ti0 3.014507 1_455
Sn3 Ti3 3.034256 1_555
Sn4 Ti5 2.781021 1_554
Sn4 Ti3 2.783038 1_555
Sn4 Zr3 2.980486 1_455
Sn4 Zr0 2.980513 1_555
Sn4 Zr1 2.981582 1_554
Sn4 Zr2 2.981625 1_454
Sn4 Ti1 3.015050 1_454
Sn4 Ti1 3.015071 1_554
Sn4 Ti4 3.035077 1_555
Sn5 Ti4 2.781021 1_565
Sn5 Ti3 2.783038 1_555
Sn5 Zr2 2.980486 1_455
Sn5 Zr1 2.980513 1_555
Sn5 Zr0 2.981582 1_565
Sn5 Zr3 2.981625 1_465
Sn5 Ti2 3.015050 1_465
Sn5 Ti2 3.015071 1_565
Sn5 Ti5 3.035077 1_555
