# generated using pymatgen
data_Zn3Au
_symmetry_space_group_name_H-M   'P 1'
_cell_length_a   5.46429413
_cell_length_b   5.46429413
_cell_length_c   4.60341119
_cell_angle_alpha   90.00000000
_cell_angle_beta   90.00000000
_cell_angle_gamma   120.00000667
_symmetry_Int_Tables_number   1
_chemical_formula_structural   Zn3Au
_chemical_formula_sum   'Zn6 Au2'
_cell_volume   119.03605034
_cell_formula_units_Z   2
loop_
 _symmetry_equiv_pos_site_id
 _symmetry_equiv_pos_as_xyz
  1  'x, y, z'
loop_
 _atom_site_type_symbol
 _atom_site_label
 _atom_site_symmetry_multiplicity
 _atom_site_fract_x
 _atom_site_fract_y
 _atom_site_fract_z
 _atom_site_occupancy
  Zn  Zn0  1  0.16507695  0.33015389  0.25000000  1
  Zn  Zn1  1  0.66984611  0.83492305  0.25000000  1
  Zn  Zn2  1  0.16507695  0.83492305  0.25000000  1
  Zn  Zn3  1  0.83492305  0.66984611  0.75000000  1
  Zn  Zn4  1  0.33015389  0.16507695  0.75000000  1
  Zn  Zn5  1  0.83492305  0.16507695  0.75000000  1
  Au  Au0  1  0.33333300  0.66666700  0.75000000  1
  Au  Au1  1  0.66666700  0.33333300  0.25000000  1
loop_
_geom_bond_atom_site_label_1
_geom_bond_atom_site_label_2
_geom_bond_distance
_geom_bond_site_symmetry_2
Zn0 Zn1 2.706087 1_445
Zn0 Zn2 2.706087 1_545
Zn0 Zn1 2.758207 1_555
Zn0 Zn2 2.758207 1_555
Zn0 Zn5 2.781873 1_454
Zn0 Zn5 2.781873 1_455
Zn0 Zn4 2.781873 1_554
Zn0 Zn4 2.781873 1_555
Zn1 Zn2 2.706087 1_655
Zn1 Zn2 2.758207 1_555
Zn1 Zn5 2.781873 1_565
Zn1 Zn5 2.781873 1_564
Zn1 Zn3 2.781873 1_554
Zn1 Zn3 2.781873 1_555
Zn2 Zn4 2.781873 1_565
Zn2 Zn4 2.781873 1_564
Zn2 Zn3 2.781873 1_455
Zn2 Zn3 2.781873 1_454
Zn3 Zn4 2.706087 1_665
Zn3 Zn5 2.706087 1_565
Zn3 Zn4 2.758207 1_555
Zn3 Zn5 2.758207 1_555
Zn4 Zn5 2.706087 1_455
Zn4 Zn5 2.758207 1_555
Au0 Zn4 2.732186 1_565
Au0 Zn3 2.732186 1_455
Au0 Zn5 2.732188 1_455
Au0 Zn5 2.732188 1_565
Au0 Zn3 2.732191 1_555
Au0 Zn4 2.732191 1_555
Au0 Zn2 2.798882 1_555
Au0 Zn2 2.798882 1_556
Au0 Zn0 2.798885 1_556
Au0 Zn0 2.798885 1_555
Au0 Zn1 2.798885 1_555
Au0 Zn1 2.798885 1_556
Au1 Zn0 2.732186 1_655
Au1 Zn1 2.732186 1_545
Au1 Zn2 2.732188 1_545
Au1 Zn2 2.732188 1_655
Au1 Zn1 2.732191 1_555
Au1 Zn0 2.732191 1_555
Au1 Zn5 2.798882 1_554
Au1 Zn5 2.798882 1_555
Au1 Zn4 2.798885 1_555
Au1 Zn4 2.798885 1_554
Au1 Zn3 2.798885 1_554
Au1 Zn3 2.798885 1_555
