# generated using pymatgen
data_Mg3Ge3(BiO6)2
_symmetry_space_group_name_H-M   'P 1'
_cell_length_a   11.08122979
_cell_length_b   11.08122979
_cell_length_c   11.08122979
_cell_angle_alpha   109.47122063
_cell_angle_beta   109.47122063
_cell_angle_gamma   109.47122063
_symmetry_Int_Tables_number   1
_chemical_formula_structural   Mg3Ge3(BiO6)2
_chemical_formula_sum   'Mg12 Ge12 Bi8 O48'
_cell_volume   1047.47095993
_cell_formula_units_Z   4
loop_
 _symmetry_equiv_pos_site_id
 _symmetry_equiv_pos_as_xyz
  1  'x, y, z'
loop_
 _atom_site_type_symbol
 _atom_site_label
 _atom_site_symmetry_multiplicity
 _atom_site_fract_x
 _atom_site_fract_y
 _atom_site_fract_z
 _atom_site_occupancy
  Mg  Mg0  1  0.25000000  0.87500000  0.62500000  1
  Mg  Mg1  1  0.75000000  0.62500000  0.87500000  1
  Mg  Mg2  1  0.62500000  0.87500000  0.75000000  1
  Mg  Mg3  1  0.87500000  0.62500000  0.25000000  1
  Mg  Mg4  1  0.62500000  0.25000000  0.87500000  1
  Mg  Mg5  1  0.87500000  0.75000000  0.62500000  1
  Mg  Mg6  1  0.75000000  0.12500000  0.37500000  1
  Mg  Mg7  1  0.25000000  0.37500000  0.12500000  1
  Mg  Mg8  1  0.37500000  0.12500000  0.25000000  1
  Mg  Mg9  1  0.12500000  0.37500000  0.75000000  1
  Mg  Mg10  1  0.37500000  0.75000000  0.12500000  1
  Mg  Mg11  1  0.12500000  0.25000000  0.37500000  1
  Ge  Ge0  1  0.12500000  0.75000000  0.87500000  1
  Ge  Ge1  1  0.87500000  0.25000000  0.12500000  1
  Ge  Ge2  1  0.62500000  0.37500000  0.25000000  1
  Ge  Ge3  1  0.75000000  0.87500000  0.12500000  1
  Ge  Ge4  1  0.87500000  0.12500000  0.75000000  1
  Ge  Ge5  1  0.25000000  0.62500000  0.37500000  1
  Ge  Ge6  1  0.75000000  0.37500000  0.62500000  1
  Ge  Ge7  1  0.25000000  0.12500000  0.87500000  1
  Ge  Ge8  1  0.12500000  0.87500000  0.25000000  1
  Ge  Ge9  1  0.37500000  0.62500000  0.75000000  1
  Ge  Ge10  1  0.62500000  0.75000000  0.37500000  1
  Ge  Ge11  1  0.37500000  0.25000000  0.62500000  1
  Bi  Bi0  1  0.50000000  0.50000000  0.50000000  1
  Bi  Bi1  1  0.50000000  0.00000000  0.50000000  1
  Bi  Bi2  1  0.00000000  0.50000000  0.50000000  1
  Bi  Bi3  1  0.50000000  0.50000000  0.00000000  1
  Bi  Bi4  1  0.00000000  0.00000000  0.50000000  1
  Bi  Bi5  1  0.00000000  0.50000000  0.00000000  1
  Bi  Bi6  1  0.50000000  0.00000000  0.00000000  1
  Bi  Bi7  1  0.00000000  0.00000000  0.00000000  1
  O  O0  1  0.40485800  0.80130300  0.76934900  1
  O  O1  1  0.86449100  0.39644400  0.09514200  1
  O  O2  1  0.10355600  0.96804600  0.69869700  1
  O  O3  1  0.53195400  0.63550900  0.73065100  1
  O  O4  1  0.69869700  0.09514200  0.73065100  1
  O  O5  1  0.63550900  0.73065100  0.53195400  1
  O  O6  1  0.63550900  0.40485800  0.10355600  1
  O  O7  1  0.73065100  0.53195400  0.63550900  1
  O  O8  1  0.80130300  0.53195400  0.39644400  1
  O  O9  1  0.96804600  0.76934900  0.86449100  1
  O  O10  1  0.76934900  0.86449100  0.96804600  1
  O  O11  1  0.73065100  0.69869700  0.09514200  1
  O  O12  1  0.40485800  0.10355600  0.63550900  1
  O  O13  1  0.39644400  0.80130300  0.53195400  1
  O  O14  1  0.09514200  0.73065100  0.69869700  1
  O  O15  1  0.10355600  0.63550900  0.40485800  1
  O  O16  1  0.53195400  0.39644400  0.80130300  1
  O  O17  1  0.09514200  0.86449100  0.39644400  1
  O  O18  1  0.96804600  0.69869700  0.10355600  1
  O  O19  1  0.19869700  0.46804600  0.60355600  1
  O  O20  1  0.69869700  0.10355600  0.96804600  1
  O  O21  1  0.76934900  0.40485800  0.80130300  1
  O  O22  1  0.39644400  0.09514200  0.86449100  1
  O  O23  1  0.86449100  0.96804600  0.76934900  1
  O  O24  1  0.59514200  0.19869700  0.23065100  1
  O  O25  1  0.13550900  0.60355600  0.90485800  1
  O  O26  1  0.89644400  0.03195400  0.30130300  1
  O  O27  1  0.46804600  0.36449100  0.26934900  1
  O  O28  1  0.30130300  0.90485800  0.26934900  1
  O  O29  1  0.36449100  0.26934900  0.46804600  1
  O  O30  1  0.36449100  0.59514200  0.89644400  1
  O  O31  1  0.26934900  0.46804600  0.36449100  1
  O  O32  1  0.13550900  0.03195400  0.23065100  1
  O  O33  1  0.60355600  0.90485800  0.13550900  1
  O  O34  1  0.23065100  0.59514200  0.19869700  1
  O  O35  1  0.19869700  0.23065100  0.59514200  1
  O  O36  1  0.30130300  0.89644400  0.03195400  1
  O  O37  1  0.03195400  0.30130300  0.89644400  1
  O  O38  1  0.90485800  0.13550900  0.60355600  1
  O  O39  1  0.46804600  0.60355600  0.19869700  1
  O  O40  1  0.89644400  0.36449100  0.59514200  1
  O  O41  1  0.90485800  0.26934900  0.30130300  1
  O  O42  1  0.60355600  0.19869700  0.46804600  1
  O  O43  1  0.59514200  0.89644400  0.36449100  1
  O  O44  1  0.26934900  0.30130300  0.90485800  1
  O  O45  1  0.23065100  0.13550900  0.03195400  1
  O  O46  1  0.03195400  0.23065100  0.13550900  1
  O  O47  1  0.80130300  0.76934900  0.40485800  1
loop_
_geom_bond_atom_site_label_1
_geom_bond_atom_site_label_2
_geom_bond_distance
_geom_bond_site_symmetry_2
Mg0 O13 2.408535 1_555
Mg0 O2 2.408535 1_555
Mg0 O22 2.408546 1_565
Mg0 O15 2.408546 1_555
Mg0 O0 2.479001 1_555
Mg0 O14 2.479001 1_555
Mg0 O12 2.479009 1_565
Mg0 O17 2.479009 1_555
Mg1 O21 2.408545 1_555
Mg1 O7 2.408545 1_555
Mg1 O11 2.408545 1_556
Mg1 O10 2.408545 1_555
Mg1 O3 2.479001 1_555
Mg1 O9 2.479001 1_555
Mg1 O18 2.479007 1_556
Mg1 O16 2.479007 1_555
Mg2 O0 2.408545 1_555
Mg2 O23 2.408545 1_555
Mg2 O3 2.408545 1_555
Mg2 O4 2.408545 1_565
Mg2 O5 2.479001 1_555
Mg2 O10 2.479001 1_555
Mg2 O20 2.479007 1_565
Mg2 O13 2.479007 1_555
Mg3 O18 2.408535 1_555
Mg3 O8 2.408535 1_555
Mg3 O17 2.408546 1_655
Mg3 O6 2.408546 1_555
Mg3 O11 2.479001 1_555
Mg3 O47 2.479001 1_555
Mg3 O1 2.479009 1_555
Mg3 O15 2.479009 1_655
Mg4 O16 2.408535 1_555
Mg4 O20 2.408535 1_555
Mg4 O12 2.408546 1_555
Mg4 O1 2.408546 1_556
Mg4 O4 2.479001 1_555
Mg4 O21 2.479001 1_555
Mg4 O22 2.479009 1_555
Mg4 O6 2.479009 1_556
Mg5 O47 2.408545 1_555
Mg5 O14 2.408545 1_655
Mg5 O9 2.408545 1_555
Mg5 O5 2.408545 1_555
Mg5 O23 2.479001 1_555
Mg5 O7 2.479001 1_555
Mg5 O2 2.479007 1_655
Mg5 O8 2.479007 1_555
Mg6 O26 2.408535 1_555
Mg6 O42 2.408535 1_555
Mg6 O40 2.408546 1_555
Mg6 O33 2.408546 1_545
Mg6 O41 2.479001 1_555
Mg6 O24 2.479001 1_555
Mg6 O43 2.479009 1_545
Mg6 O38 2.479009 1_555
Mg7 O44 2.408545 1_554
Mg7 O34 2.408545 1_555
Mg7 O45 2.408545 1_555
Mg7 O31 2.408545 1_555
Mg7 O27 2.479001 1_555
Mg7 O46 2.479001 1_555
Mg7 O39 2.479007 1_555
Mg7 O37 2.479007 1_554
Mg8 O24 2.408545 1_555
Mg8 O28 2.408545 1_545
Mg8 O27 2.408545 1_555
Mg8 O32 2.408545 1_555
Mg8 O45 2.479001 1_555
Mg8 O29 2.479001 1_555
Mg8 O42 2.479007 1_555
Mg8 O36 2.479007 1_545
Mg9 O37 2.408535 1_555
Mg9 O19 2.408535 1_555
Mg9 O38 2.408546 1_455
Mg9 O30 2.408546 1_555
Mg9 O35 2.479001 1_555
Mg9 O44 2.479001 1_555
Mg9 O25 2.479009 1_555
Mg9 O40 2.479009 1_455
Mg10 O36 2.408535 1_555
Mg10 O39 2.408535 1_555
Mg10 O43 2.408546 1_555
Mg10 O25 2.408546 1_554
Mg10 O34 2.479001 1_555
Mg10 O28 2.479001 1_555
Mg10 O33 2.479009 1_555
Mg10 O30 2.479009 1_554
Mg11 O41 2.408545 1_455
Mg11 O35 2.408545 1_555
Mg11 O29 2.408545 1_555
Mg11 O46 2.408545 1_555
Mg11 O32 2.479001 1_555
Mg11 O31 2.479001 1_555
Mg11 O26 2.479007 1_455
Mg11 O19 2.479007 1_555
Ge0 O25 1.792955 1_555
Ge0 O36 1.792964 1_556
Ge0 O14 1.792966 1_555
Ge0 O9 1.792966 1_455
Ge1 O1 1.792955 1_555
Ge1 O20 1.792964 1_554
Ge1 O41 1.792966 1_555
Ge1 O46 1.792966 1_655
Ge2 O6 1.792955 1_555
Ge2 O8 1.792964 1_555
Ge2 O24 1.792966 1_555
Ge2 O27 1.792966 1_555
Ge3 O33 1.792955 1_555
Ge3 O26 1.792964 1_565
Ge3 O10 1.792966 1_554
Ge3 O11 1.792966 1_555
Ge4 O38 1.792955 1_555
Ge4 O37 1.792964 1_655
Ge4 O4 1.792966 1_555
Ge4 O23 1.792966 1_545
Ge5 O15 1.792955 1_555
Ge5 O13 1.792964 1_555
Ge5 O34 1.792966 1_555
Ge5 O31 1.792966 1_555
Ge6 O40 1.792955 1_555
Ge6 O42 1.792964 1_555
Ge6 O21 1.792966 1_555
Ge6 O7 1.792966 1_555
Ge7 O22 1.792955 1_555
Ge7 O2 1.792964 1_545
Ge7 O44 1.792966 1_555
Ge7 O45 1.792966 1_556
Ge8 O17 1.792955 1_555
Ge8 O18 1.792964 1_455
Ge8 O28 1.792966 1_555
Ge8 O32 1.792966 1_565
Ge9 O30 1.792955 1_555
Ge9 O19 1.792964 1_555
Ge9 O0 1.792966 1_555
Ge9 O3 1.792966 1_555
Ge10 O43 1.792955 1_555
Ge10 O39 1.792964 1_555
Ge10 O47 1.792966 1_555
Ge10 O5 1.792966 1_555
Ge11 O12 1.792955 1_555
Ge11 O16 1.792964 1_555
Ge11 O35 1.792966 1_555
Ge11 O29 1.792966 1_555
Bi0 O31 2.323007 1_555
Bi0 O27 2.323007 1_555
Bi0 O29 2.323007 1_555
Bi0 O3 2.323007 1_555
Bi0 O7 2.323007 1_555
Bi0 O5 2.323007 1_555
Bi1 O28 2.323007 1_545
Bi1 O4 2.323007 1_555
Bi1 O42 2.323010 1_555
Bi1 O13 2.323010 1_545
Bi1 O43 2.323012 1_545
Bi1 O12 2.323012 1_555
Bi2 O41 2.323007 1_455
Bi2 O14 2.323007 1_555
Bi2 O19 2.323010 1_555
Bi2 O8 2.323010 1_455
Bi2 O40 2.323012 1_455
Bi2 O15 2.323012 1_555
Bi3 O44 2.323007 1_554
Bi3 O11 2.323007 1_555
Bi3 O16 2.323010 1_554
Bi3 O39 2.323010 1_555
Bi3 O30 2.323012 1_554
Bi3 O6 2.323012 1_555
Bi4 O35 2.323007 1_555
Bi4 O47 2.323007 1_445
Bi4 O26 2.323010 1_455
Bi4 O2 2.323010 1_545
Bi4 O38 2.323012 1_455
Bi4 O17 2.323012 1_545
Bi5 O34 2.323007 1_555
Bi5 O21 2.323007 1_454
Bi5 O37 2.323010 1_554
Bi5 O18 2.323010 1_455
Bi5 O25 2.323012 1_554
Bi5 O1 2.323012 1_455
Bi6 O24 2.323007 1_555
Bi6 O0 2.323007 1_544
Bi6 O20 2.323010 1_554
Bi6 O36 2.323010 1_545
Bi6 O33 2.323012 1_545
Bi6 O22 2.323012 1_554
Bi7 O46 2.323007 1_555
Bi7 O45 2.323007 1_555
Bi7 O32 2.323007 1_555
Bi7 O10 2.323007 1_444
Bi7 O9 2.323007 1_444
Bi7 O23 2.323007 1_444
