# generated using pymatgen
data_BaNaMnBiO6
_symmetry_space_group_name_H-M   'P 1'
_cell_length_a   8.20295924
_cell_length_b   8.22846378
_cell_length_c   8.17386073
_cell_angle_alpha   90.00000000
_cell_angle_beta   90.00000000
_cell_angle_gamma   90.00000000
_symmetry_Int_Tables_number   1
_chemical_formula_structural   BaNaMnBiO6
_chemical_formula_sum   'Ba4 Na4 Mn4 Bi4 O24'
_cell_volume   551.71723257
_cell_formula_units_Z   4
loop_
 _symmetry_equiv_pos_site_id
 _symmetry_equiv_pos_as_xyz
  1  'x, y, z'
loop_
 _atom_site_type_symbol
 _atom_site_label
 _atom_site_symmetry_multiplicity
 _atom_site_fract_x
 _atom_site_fract_y
 _atom_site_fract_z
 _atom_site_occupancy
  Ba  Ba0  1  -0.00000000  0.00000000  -0.00000000  1
  Ba  Ba1  1  0.50000000  0.50000000  0.50000000  1
  Ba  Ba2  1  0.50000000  0.00000000  0.50000000  1
  Ba  Ba3  1  -0.00000000  0.50000000  -0.00000000  1
  Na  Na0  1  -0.00000000  0.50000000  0.50000000  1
  Na  Na1  1  0.50000000  0.50000000  0.00000000  1
  Na  Na2  1  0.50000000  0.00000000  0.00000000  1
  Na  Na3  1  -0.00000000  0.00000000  0.50000000  1
  Mn  Mn0  1  0.25000000  0.25000000  0.25000000  1
  Mn  Mn1  1  0.75000000  0.75000000  0.25000000  1
  Mn  Mn2  1  0.75000000  0.25000000  0.75000000  1
  Mn  Mn3  1  0.25000000  0.75000000  0.75000000  1
  Bi  Bi0  1  0.75000000  0.75000000  0.75000000  1
  Bi  Bi1  1  0.25000000  0.25000000  0.75000000  1
  Bi  Bi2  1  0.25000000  0.75000000  0.25000000  1
  Bi  Bi3  1  0.75000000  0.25000000  0.25000000  1
  O  O0  1  0.02005699  0.23205569  0.26340229  1
  O  O1  1  0.97994301  0.76794431  0.26340229  1
  O  O2  1  0.97994301  0.23205569  0.73659771  1
  O  O3  1  0.02005699  0.76794431  0.73659771  1
  O  O4  1  0.26694137  0.01997925  0.23167693  1
  O  O5  1  0.26694137  0.98002075  0.76832307  1
  O  O6  1  0.73305863  0.98002075  0.23167693  1
  O  O7  1  0.73305863  0.01997925  0.76832307  1
  O  O8  1  0.23132831  0.26445939  0.01876550  1
  O  O9  1  0.76867169  0.26445939  0.98123450  1
  O  O10  1  0.23132831  0.73554061  0.98123450  1
  O  O11  1  0.76867169  0.73554061  0.01876550  1
  O  O12  1  0.47994301  0.26794431  0.23659771  1
  O  O13  1  0.52005699  0.73205569  0.23659771  1
  O  O14  1  0.52005699  0.26794431  0.76340229  1
  O  O15  1  0.47994301  0.73205569  0.76340229  1
  O  O16  1  0.23305863  0.48002075  0.26832307  1
  O  O17  1  0.23305863  0.51997925  0.73167693  1
  O  O18  1  0.76694137  0.51997925  0.26832307  1
  O  O19  1  0.76694137  0.48002075  0.73167693  1
  O  O20  1  0.26867169  0.23554061  0.48123450  1
  O  O21  1  0.73132831  0.23554061  0.51876550  1
  O  O22  1  0.26867169  0.76445939  0.51876550  1
  O  O23  1  0.73132831  0.76445939  0.48123450  1
loop_
_geom_bond_atom_site_label_1
_geom_bond_atom_site_label_2
_geom_bond_distance
_geom_bond_site_symmetry_2
Ba0 O1 2.882461 1_445
Ba0 O0 2.882461 1_555
Ba0 O2 2.882461 1_454
Ba0 O3 2.882461 1_544
Ba0 O11 2.891317 1_445
Ba0 O8 2.891317 1_555
Ba0 O10 2.891317 1_544
Ba0 O9 2.891317 1_454
Ba0 O6 2.899644 1_445
Ba0 O7 2.899644 1_454
Ba0 O5 2.899644 1_544
Ba0 O4 2.899644 1_555
Ba1 O12 2.882461 1_555
Ba1 O14 2.882461 1_555
Ba1 O13 2.882461 1_555
Ba1 O15 2.882461 1_555
Ba1 O22 2.891317 1_555
Ba1 O20 2.891317 1_555
Ba1 O23 2.891317 1_555
Ba1 O21 2.891317 1_555
Ba1 O17 2.899644 1_555
Ba1 O16 2.899644 1_555
Ba1 O18 2.899644 1_555
Ba1 O19 2.899644 1_555
Ba2 O21 2.716745 1_555
Ba2 O20 2.716745 1_555
Ba2 O22 2.716745 1_545
Ba2 O23 2.716745 1_545
Ba2 O5 2.914134 1_545
Ba2 O4 2.914134 1_555
Ba2 O7 2.914134 1_555
Ba2 O6 2.914134 1_545
Ba2 O13 3.086025 1_545
Ba2 O12 3.086025 1_555
Ba2 O15 3.086025 1_545
Ba2 O14 3.086025 1_555
Ba3 O9 2.716745 1_454
Ba3 O8 2.716745 1_555
Ba3 O11 2.716745 1_455
Ba3 O10 2.716745 1_554
Ba3 O18 2.914134 1_455
Ba3 O19 2.914134 1_454
Ba3 O16 2.914134 1_555
Ba3 O17 2.914134 1_554
Ba3 O0 3.086025 1_555
Ba3 O2 3.086025 1_454
Ba3 O3 3.086025 1_554
Ba3 O1 3.086025 1_455
Na0 O18 2.695918 1_455
Na0 O19 2.695918 1_455
Na0 O16 2.695918 1_555
Na0 O17 2.695918 1_555
Na0 O3 2.937365 1_555
Na0 O2 2.937365 1_455
Na0 O0 2.937365 1_555
Na0 O1 2.937365 1_455
Na1 O14 2.722710 1_554
Na1 O15 2.722710 1_554
Na1 O12 2.722710 1_555
Na1 O13 2.722710 1_555
Na1 O8 2.938893 1_555
Na1 O11 2.938893 1_555
Na1 O9 2.938893 1_554
Na1 O10 2.938893 1_554
Na2 O7 2.695918 1_554
Na2 O5 2.695918 1_544
Na2 O4 2.695918 1_555
Na2 O6 2.695918 1_545
Na2 O15 2.937365 1_544
Na2 O13 2.937365 1_545
Na2 O12 2.937365 1_555
Na2 O14 2.937365 1_554
Na3 O2 2.722710 1_455
Na3 O3 2.722710 1_545
Na3 O1 2.722710 1_445
Na3 O0 2.722710 1_555
Na3 O20 2.938893 1_555
Na3 O22 2.938893 1_545
Na3 O21 2.938893 1_455
Na3 O23 2.938893 1_445
Mn0 O12 1.895152 1_555
Mn0 O0 1.895152 1_555
Mn0 O20 1.900003 1_555
Mn0 O8 1.900003 1_555
Mn0 O16 1.903713 1_555
Mn0 O4 1.903713 1_555
Mn1 O13 1.895152 1_555
Mn1 O1 1.895152 1_555
Mn1 O23 1.900003 1_555
Mn1 O11 1.900003 1_555
Mn1 O6 1.903713 1_555
Mn1 O18 1.903713 1_555
Mn2 O14 1.895152 1_555
Mn2 O2 1.895152 1_555
Mn2 O21 1.900003 1_555
Mn2 O9 1.900003 1_555
Mn2 O19 1.903713 1_555
Mn2 O7 1.903713 1_555
Mn3 O3 1.895152 1_555
Mn3 O15 1.895152 1_555
Mn3 O10 1.900003 1_555
Mn3 O22 1.900003 1_555
Mn3 O17 1.903713 1_555
Mn3 O5 1.903713 1_555
Bi0 O11 2.205396 1_556
Bi0 O23 2.205396 1_555
Bi0 O15 2.222883 1_555
Bi0 O3 2.222883 1_655
Bi0 O19 2.230890 1_555
Bi0 O7 2.230890 1_565
Bi1 O8 2.205396 1_556
Bi1 O20 2.205396 1_555
Bi1 O2 2.222883 1_455
Bi1 O14 2.222883 1_555
Bi1 O17 2.230890 1_555
Bi1 O5 2.230890 1_545
Bi2 O22 2.205396 1_555
Bi2 O10 2.205396 1_554
Bi2 O1 2.222883 1_455
Bi2 O13 2.222883 1_555
Bi2 O16 2.230890 1_555
Bi2 O4 2.230890 1_565
Bi3 O21 2.205396 1_555
Bi3 O9 2.205396 1_554
Bi3 O12 2.222883 1_555
Bi3 O0 2.222883 1_655
Bi3 O6 2.230890 1_545
Bi3 O18 2.230890 1_555
