# generated using pymatgen
data_BaCeEuHfO6
_symmetry_space_group_name_H-M   'P 1'
_cell_length_a   8.59772728
_cell_length_b   8.61307859
_cell_length_c   8.58413348
_cell_angle_alpha   90.00000000
_cell_angle_beta   90.00000000
_cell_angle_gamma   90.00000000
_symmetry_Int_Tables_number   1
_chemical_formula_structural   BaCeEuHfO6
_chemical_formula_sum   'Ba4 Ce4 Eu4 Hf4 O24'
_cell_volume   635.67998469
_cell_formula_units_Z   4
loop_
 _symmetry_equiv_pos_site_id
 _symmetry_equiv_pos_as_xyz
  1  'x, y, z'
loop_
 _atom_site_type_symbol
 _atom_site_label
 _atom_site_symmetry_multiplicity
 _atom_site_fract_x
 _atom_site_fract_y
 _atom_site_fract_z
 _atom_site_occupancy
  Ba  Ba0  1  0.00000000  -0.00000000  0.00000000  1
  Ba  Ba1  1  0.50000000  0.50000000  0.50000000  1
  Ba  Ba2  1  0.50000000  0.50000000  0.00000000  1
  Ba  Ba3  1  0.00000000  0.00000000  0.50000000  1
  Ce  Ce0  1  0.75000000  0.75000000  0.75000000  1
  Ce  Ce1  1  0.25000000  0.25000000  0.75000000  1
  Ce  Ce2  1  0.25000000  0.75000000  0.25000000  1
  Ce  Ce3  1  0.75000000  0.25000000  0.25000000  1
  Eu  Eu0  1  0.00000000  0.50000000  0.50000000  1
  Eu  Eu1  1  0.50000000  0.00000000  0.50000000  1
  Eu  Eu2  1  0.50000000  0.00000000  0.00000000  1
  Eu  Eu3  1  0.00000000  0.50000000  0.00000000  1
  Hf  Hf0  1  0.25000000  0.25000000  0.25000000  1
  Hf  Hf1  1  0.75000000  0.75000000  0.25000000  1
  Hf  Hf2  1  0.75000000  0.25000000  0.75000000  1
  Hf  Hf3  1  0.25000000  0.75000000  0.75000000  1
  O  O0  1  0.01273637  0.21336888  0.28013528  1
  O  O1  1  0.98726363  0.78663112  0.28013528  1
  O  O2  1  0.98726363  0.21336888  0.71986472  1
  O  O3  1  0.01273637  0.78663112  0.71986472  1
  O  O4  1  0.29000071  0.01353483  0.19968505  1
  O  O5  1  0.29000071  0.98646517  0.80031495  1
  O  O6  1  0.70999929  0.98646517  0.19968505  1
  O  O7  1  0.70999929  0.01353483  0.80031495  1
  O  O8  1  0.20199323  0.29324425  0.01326712  1
  O  O9  1  0.79800677  0.29324425  0.98673288  1
  O  O10  1  0.20199323  0.70675575  0.98673288  1
  O  O11  1  0.79800677  0.70675575  0.01326712  1
  O  O12  1  0.48726363  0.28663112  0.21986472  1
  O  O13  1  0.51273637  0.71336888  0.21986472  1
  O  O14  1  0.51273637  0.28663112  0.78013528  1
  O  O15  1  0.48726363  0.71336888  0.78013528  1
  O  O16  1  0.20999929  0.48646517  0.30031495  1
  O  O17  1  0.20999929  0.51353483  0.69968505  1
  O  O18  1  0.79000071  0.51353483  0.30031495  1
  O  O19  1  0.79000071  0.48646517  0.69968505  1
  O  O20  1  0.29800677  0.20675575  0.48673288  1
  O  O21  1  0.70199323  0.20675575  0.51326712  1
  O  O22  1  0.29800677  0.79324425  0.51326712  1
  O  O23  1  0.70199323  0.79324425  0.48673288  1
loop_
_geom_bond_atom_site_label_1
_geom_bond_atom_site_label_2
_geom_bond_distance
_geom_bond_site_symmetry_2
Ba0 O7 3.027968 1_454
Ba0 O6 3.027968 1_445
Ba0 O5 3.027968 1_544
Ba0 O4 3.027968 1_555
Ba0 O1 3.028537 1_445
Ba0 O0 3.028537 1_555
Ba0 O2 3.028537 1_454
Ba0 O3 3.028537 1_544
Ba0 O9 3.067308 1_454
Ba0 O8 3.067308 1_555
Ba0 O10 3.067308 1_544
Ba0 O11 3.067308 1_445
Ba1 O16 3.027968 1_555
Ba1 O18 3.027968 1_555
Ba1 O17 3.027968 1_555
Ba1 O19 3.027968 1_555
Ba1 O14 3.028537 1_555
Ba1 O15 3.028537 1_555
Ba1 O12 3.028537 1_555
Ba1 O13 3.028537 1_555
Ba1 O21 3.067308 1_555
Ba1 O22 3.067308 1_555
Ba1 O20 3.067308 1_555
Ba1 O23 3.067308 1_555
Ba2 O13 2.636560 1_555
Ba2 O14 2.636560 1_554
Ba2 O15 2.636560 1_554
Ba2 O12 2.636560 1_555
Ba2 O8 3.122339 1_555
Ba2 O9 3.122339 1_554
Ba2 O10 3.122339 1_554
Ba2 O11 3.122339 1_555
Ba3 O2 2.636560 1_455
Ba3 O3 2.636560 1_545
Ba3 O1 2.636560 1_445
Ba3 O0 2.636560 1_555
Ba3 O21 3.122339 1_455
Ba3 O23 3.122339 1_445
Ba3 O20 3.122339 1_555
Ba3 O22 3.122339 1_545
Ce0 O15 2.295485 1_555
Ce0 O3 2.295485 1_655
Ce0 O23 2.327301 1_555
Ce0 O11 2.327301 1_556
Ce0 O7 2.336028 1_565
Ce0 O19 2.336028 1_555
Ce1 O2 2.295485 1_455
Ce1 O14 2.295485 1_555
Ce1 O20 2.327301 1_555
Ce1 O8 2.327301 1_556
Ce1 O5 2.336028 1_545
Ce1 O17 2.336028 1_555
Ce2 O1 2.295485 1_455
Ce2 O13 2.295485 1_555
Ce2 O22 2.327301 1_555
Ce2 O10 2.327301 1_554
Ce2 O4 2.336028 1_565
Ce2 O16 2.336028 1_555
Ce3 O12 2.295485 1_555
Ce3 O0 2.295485 1_655
Ce3 O9 2.327301 1_554
Ce3 O21 2.327301 1_555
Ce3 O6 2.336028 1_545
Ce3 O18 2.336028 1_555
Eu0 O18 2.492328 1_455
Eu0 O17 2.492328 1_555
Eu0 O19 2.492328 1_455
Eu0 O16 2.492328 1_555
Eu0 O2 3.109490 1_455
Eu0 O1 3.109490 1_455
Eu0 O0 3.109490 1_555
Eu0 O3 3.109490 1_555
Eu1 O20 2.490040 1_555
Eu1 O22 2.490040 1_545
Eu1 O21 2.490040 1_555
Eu1 O23 2.490040 1_545
Eu2 O4 2.492328 1_555
Eu2 O5 2.492328 1_544
Eu2 O7 2.492328 1_554
Eu2 O6 2.492328 1_545
Eu2 O13 3.109490 1_545
Eu2 O12 3.109490 1_555
Eu2 O15 3.109490 1_544
Eu2 O14 3.109490 1_554
Eu3 O10 2.490040 1_554
Eu3 O8 2.490040 1_555
Eu3 O11 2.490040 1_455
Eu3 O9 2.490040 1_454
Hf0 O12 2.080329 1_555
Hf0 O0 2.080329 1_555
Hf0 O8 2.106825 1_555
Hf0 O20 2.106825 1_555
Hf0 O4 2.110200 1_555
Hf0 O16 2.110200 1_555
Hf1 O13 2.080329 1_555
Hf1 O1 2.080329 1_555
Hf1 O11 2.106825 1_555
Hf1 O23 2.106825 1_555
Hf1 O6 2.110200 1_555
Hf1 O18 2.110200 1_555
Hf2 O14 2.080329 1_555
Hf2 O2 2.080329 1_555
Hf2 O21 2.106825 1_555
Hf2 O9 2.106825 1_555
Hf2 O7 2.110200 1_555
Hf2 O19 2.110200 1_555
Hf3 O15 2.080329 1_555
Hf3 O3 2.080329 1_555
Hf3 O22 2.106825 1_555
Hf3 O10 2.106825 1_555
Hf3 O17 2.110200 1_555
Hf3 O5 2.110200 1_555
