# generated using pymatgen
data_Pm3Ho
_symmetry_space_group_name_H-M   'P 1'
_cell_length_a   7.38767152
_cell_length_b   7.38767152
_cell_length_c   5.77027459
_cell_angle_alpha   90.00000000
_cell_angle_beta   90.00000000
_cell_angle_gamma   119.99999124
_symmetry_Int_Tables_number   1
_chemical_formula_structural   Pm3Ho
_chemical_formula_sum   'Pm6 Ho2'
_cell_volume   272.73589824
_cell_formula_units_Z   2
loop_
 _symmetry_equiv_pos_site_id
 _symmetry_equiv_pos_as_xyz
  1  'x, y, z'
loop_
 _atom_site_type_symbol
 _atom_site_label
 _atom_site_symmetry_multiplicity
 _atom_site_fract_x
 _atom_site_fract_y
 _atom_site_fract_z
 _atom_site_occupancy
  Pm  Pm0  1  0.16770990  0.33541880  0.25000000  1
  Pm  Pm1  1  0.66458120  0.83229010  0.25000000  1
  Pm  Pm2  1  0.16770990  0.83229010  0.25000000  1
  Pm  Pm3  1  0.83229010  0.66458120  0.75000000  1
  Pm  Pm4  1  0.33541880  0.16770990  0.75000000  1
  Pm  Pm5  1  0.83229010  0.16770990  0.75000000  1
  Ho  Ho0  1  0.33333300  0.66666700  0.75000000  1
  Ho  Ho1  1  0.66666700  0.33333300  0.25000000  1
loop_
_geom_bond_atom_site_label_1
_geom_bond_atom_site_label_2
_geom_bond_distance
_geom_bond_site_symmetry_2
Pm0 Pm4 3.595722 1_554
Pm0 Pm4 3.595722 1_555
Pm0 Pm5 3.595730 1_454
Pm0 Pm5 3.595730 1_455
Pm0 Pm2 3.670722 1_555
Pm0 Pm1 3.670722 1_555
Pm0 Pm2 3.716950 1_545
Pm0 Pm1 3.716950 1_445
Pm1 Pm3 3.595722 1_555
Pm1 Pm3 3.595722 1_554
Pm1 Pm5 3.595730 1_565
Pm1 Pm5 3.595730 1_564
Pm1 Pm2 3.670722 1_555
Pm1 Pm2 3.716950 1_655
Pm2 Pm3 3.595730 1_455
Pm2 Pm4 3.595730 1_564
Pm2 Pm3 3.595730 1_454
Pm2 Pm4 3.595730 1_565
Pm3 Pm5 3.670722 1_555
Pm3 Pm4 3.670722 1_555
Pm3 Pm5 3.716950 1_565
Pm3 Pm4 3.716950 1_665
Pm4 Pm5 3.670722 1_555
Pm4 Pm5 3.716950 1_455
Ho0 Pm2 3.579858 1_555
Ho0 Pm2 3.579858 1_556
Ho0 Pm1 3.579865 1_556
Ho0 Pm1 3.579865 1_555
Ho0 Pm0 3.579865 1_555
Ho0 Pm0 3.579865 1_556
Ho0 Pm3 3.693860 1_555
Ho0 Pm4 3.693860 1_555
Ho0 Pm4 3.693860 1_565
Ho0 Pm3 3.693860 1_455
Ho0 Pm5 3.693860 1_565
Ho0 Pm5 3.693860 1_455
Ho1 Pm5 3.579858 1_554
Ho1 Pm5 3.579858 1_555
Ho1 Pm3 3.579865 1_555
Ho1 Pm3 3.579865 1_554
Ho1 Pm4 3.579865 1_555
Ho1 Pm4 3.579865 1_554
Ho1 Pm1 3.693860 1_555
Ho1 Pm0 3.693860 1_555
Ho1 Pm0 3.693860 1_655
Ho1 Pm1 3.693860 1_545
Ho1 Pm2 3.693860 1_655
Ho1 Pm2 3.693860 1_545
