# generated using pymatgen
data_PrAsSe
_symmetry_space_group_name_H-M   'P 1'
_cell_length_a   4.02933400
_cell_length_b   4.02933400
_cell_length_c   9.18223700
_cell_angle_alpha   90.00000000
_cell_angle_beta   90.00000000
_cell_angle_gamma   90.00000000
_symmetry_Int_Tables_number   1
_chemical_formula_structural   PrAsSe
_chemical_formula_sum   'Pr2 As2 Se2'
_cell_volume   149.07850709
_cell_formula_units_Z   2
loop_
 _symmetry_equiv_pos_site_id
 _symmetry_equiv_pos_as_xyz
  1  'x, y, z'
loop_
 _atom_site_type_symbol
 _atom_site_label
 _atom_site_symmetry_multiplicity
 _atom_site_fract_x
 _atom_site_fract_y
 _atom_site_fract_z
 _atom_site_occupancy
  Pr  Pr0  1  0.50000000  0.00000000  0.72309500  1
  Pr  Pr1  1  0.00000000  0.50000000  0.27690500  1
  As  As0  1  0.00000000  0.00000000  0.00000000  1
  As  As1  1  0.50000000  0.50000000  0.00000000  1
  Se  Se0  1  0.50000000  0.00000000  0.37535500  1
  Se  Se1  1  0.00000000  0.50000000  0.62464500  1
loop_
_geom_bond_atom_site_label_1
_geom_bond_atom_site_label_2
_geom_bond_distance
_geom_bond_site_symmetry_2
Pr0 Se1 2.989141 1_645
Pr0 Se1 2.989141 1_555
Pr0 Se1 2.989141 1_655
Pr0 Se1 2.989141 1_545
Pr0 Se0 3.193031 1_555
Pr1 Se0 2.989141 1_555
Pr1 Se0 2.989141 1_455
Pr1 Se0 2.989141 1_565
Pr1 Se0 2.989141 1_465
Pr1 Se1 3.193031 1_555
As0 As1 2.849169 1_445
As0 As1 2.849169 1_455
As0 As1 2.849169 1_555
As0 As1 2.849169 1_545
As0 Pr0 3.244031 1_554
As0 Pr0 3.244031 1_454
As0 Pr1 3.244031 1_545
As0 Pr1 3.244031 1_555
As1 Pr0 3.244031 1_554
As1 Pr0 3.244031 1_564
As1 Pr1 3.244031 1_655
As1 Pr1 3.244031 1_555
