# generated using pymatgen
data_Y4C7
_symmetry_space_group_name_H-M   'P 1'
_cell_length_a   3.70552300
_cell_length_b   12.60303057
_cell_length_c   13.70947855
_cell_angle_alpha   90.00000000
_cell_angle_beta   96.72964334
_cell_angle_gamma   90.00000000
_symmetry_Int_Tables_number   1
_chemical_formula_structural   Y4C7
_chemical_formula_sum   'Y16 C28'
_cell_volume   635.83270290
_cell_formula_units_Z   4
loop_
 _symmetry_equiv_pos_site_id
 _symmetry_equiv_pos_as_xyz
  1  'x, y, z'
loop_
 _atom_site_type_symbol
 _atom_site_label
 _atom_site_symmetry_multiplicity
 _atom_site_fract_x
 _atom_site_fract_y
 _atom_site_fract_z
 _atom_site_occupancy
  Y  Y0  1  0.30616256  0.51507482  0.60767002  1
  Y  Y1  1  0.80616256  0.98492518  0.10767002  1
  Y  Y2  1  0.69383744  0.48492518  0.39232998  1
  Y  Y3  1  0.19383744  0.01507482  0.89232998  1
  Y  Y4  1  0.75745728  0.53918045  0.88145212  1
  Y  Y5  1  0.25745728  0.96081955  0.38145212  1
  Y  Y6  1  0.24254272  0.46081955  0.11854788  1
  Y  Y7  1  0.74254272  0.03918045  0.61854788  1
  Y  Y8  1  0.84212770  0.30435567  0.71060442  1
  Y  Y9  1  0.34212770  0.19564433  0.21060442  1
  Y  Y10  1  0.15787230  0.69564433  0.28939558  1
  Y  Y11  1  0.65787230  0.80435567  0.78939558  1
  Y  Y12  1  0.22831321  0.26277757  0.49263838  1
  Y  Y13  1  0.72831321  0.23722243  0.99263838  1
  Y  Y14  1  0.77168679  0.73722243  0.50736162  1
  Y  Y15  1  0.27168679  0.76277757  0.00736162  1
  C  C0  1  0.65712207  0.14075985  0.82482584  1
  C  C1  1  0.15712207  0.35924015  0.32482584  1
  C  C2  1  0.34287793  0.85924015  0.17517416  1
  C  C3  1  0.84287793  0.64075985  0.67517416  1
  C  C4  1  0.19760756  0.38977407  0.95193939  1
  C  C5  1  0.69760756  0.11022593  0.45193939  1
  C  C6  1  0.80239244  0.61022593  0.04806061  1
  C  C7  1  0.30239244  0.88977407  0.54806061  1
  C  C8  1  0.36011346  0.41670824  0.77134404  1
  C  C9  1  0.86011346  0.08329276  0.27134404  1
  C  C10  1  0.63988654  0.58329276  0.22865596  1
  C  C11  1  0.13988654  0.91670724  0.72865596  1
  C  C12  1  0.27637764  0.17102911  0.65248649  1
  C  C13  1  0.77637764  0.32897089  0.15248649  1
  C  C14  1  0.72362236  0.82897089  0.34751351  1
  C  C15  1  0.22362236  0.67102911  0.84751351  1
  C  C16  1  0.27491823  0.39573376  0.86054507  1
  C  C17  1  0.77491923  0.10426624  0.36054507  1
  C  C18  1  0.72508077  0.60426624  0.13945493  1
  C  C19  1  0.22508077  0.89573376  0.63945493  1
  C  C20  1  0.43922843  0.15157887  0.74343234  1
  C  C21  1  0.93922843  0.34842113  0.24343234  1
  C  C22  1  0.56077157  0.84842113  0.25656766  1
  C  C23  1  0.06077157  0.65157887  0.75656766  1
  C  C24  1  0.24132177  0.61672427  0.44988316  1
  C  C25  1  0.74132177  0.88327573  0.94988316  1
  C  C26  1  0.75867823  0.38327573  0.55011684  1
  C  C27  1  0.25867823  0.11672427  0.05011684  1
loop_
_geom_bond_atom_site_label_1
_geom_bond_atom_site_label_2
_geom_bond_distance
_geom_bond_site_symmetry_2
C0 C20 1.305563 1_555
C0 Y3 2.585536 1_555
C0 Y13 2.588086 1_555
C0 Y3 2.624795 1_655
C0 Y8 2.724828 1_555
C1 C21 1.305563 1_455
C1 Y2 2.585536 1_455
C1 Y12 2.588086 1_555
C1 Y2 2.624795 1_555
C1 Y9 2.724828 1_555
C2 C22 1.305563 1_555
C2 Y1 2.585536 1_555
C2 Y15 2.588086 1_555
C2 Y1 2.624795 1_455
C2 Y10 2.724828 1_555
C3 Y0 2.585536 1_655
C3 Y14 2.588086 1_555
C3 Y0 2.624795 1_555
C3 Y11 2.724828 1_555
C4 Y6 2.440798 1_556
C4 Y4 2.601949 1_455
C4 Y13 2.694294 1_455
C4 Y13 2.760052 1_555
C5 Y7 2.440798 1_555
C5 Y5 2.601949 1_545
C5 Y12 2.694294 1_555
C5 Y12 2.760052 1_655
C6 Y4 2.440798 1_554
C6 Y6 2.601949 1_655
C6 Y15 2.694294 1_655
C6 Y15 2.760052 1_555
C7 Y5 2.440798 1_555
C7 Y7 2.601949 1_565
C7 Y14 2.694294 1_555
C7 Y14 2.760052 1_455
C8 Y8 2.451111 1_455
C8 Y8 2.497438 1_555
C8 Y4 2.511590 1_555
C8 Y0 2.550833 1_555
C9 Y9 2.451104 1_555
C9 Y9 2.497431 1_655
C9 Y5 2.511597 1_645
C9 Y1 2.550840 1_545
C10 C18 1.324950 1_555
C10 Y10 2.451104 1_655
C10 Y10 2.497431 1_555
C10 Y6 2.511597 1_555
C10 Y2 2.550840 1_555
C11 C19 1.324950 1_555
C11 Y11 2.451104 1_555
C11 Y11 2.497431 1_455
C11 Y7 2.511597 1_465
C11 Y3 2.550840 1_565
C12 C20 1.342558 1_555
C12 Y12 2.465701 1_555
C12 Y7 2.479906 1_555
C12 Y8 2.519537 1_455
C12 Y7 2.583607 1_455
C12 Y8 2.731616 1_555
C13 C21 1.342558 1_555
C13 Y13 2.465701 1_554
C13 Y6 2.479906 1_655
C13 Y9 2.519537 1_555
C13 Y6 2.583607 1_555
C13 Y9 2.731616 1_655
C14 C22 1.342558 1_555
C14 Y14 2.465701 1_555
C14 Y5 2.479906 1_555
C14 Y10 2.519537 1_655
C14 Y5 2.583607 1_655
C14 Y10 2.731616 1_555
C15 C23 1.342558 1_555
C15 Y15 2.465701 1_556
C15 Y4 2.479906 1_455
C15 Y11 2.519537 1_555
C15 Y4 2.583607 1_555
C15 Y11 2.731616 1_455
C16 C4 1.319760 1_555
C16 C8 1.324954 1_555
C16 Y4 2.535264 1_555
C16 Y4 2.675069 1_455
C16 Y8 2.711288 1_455
C16 Y13 3.062666 1_555
C17 C5 1.319761 1_555
C17 C9 1.324950 1_555
C17 Y5 2.535262 1_645
C17 Y5 2.675072 1_545
C17 Y9 2.711289 1_555
C17 Y12 3.062664 1_655
C18 C6 1.319761 1_555
C18 Y6 2.535262 1_555
C18 Y6 2.675072 1_655
C18 Y10 2.711289 1_655
C18 Y15 3.062664 1_555
C19 C7 1.319761 1_555
C19 Y7 2.535262 1_465
C19 Y7 2.675072 1_565
C19 Y11 2.711289 1_555
C19 Y14 3.062664 1_455
C20 Y8 2.509241 1_555
C20 Y7 2.579179 1_555
C20 Y8 2.927797 1_455
C21 Y9 2.509241 1_655
C21 Y6 2.579179 1_655
C21 Y9 2.927797 1_555
C22 Y10 2.509241 1_555
C22 Y5 2.579179 1_555
C22 Y10 2.927797 1_655
C23 C3 1.305563 1_455
C23 Y11 2.509241 1_455
C23 Y4 2.579179 1_455
C23 Y11 2.927797 1_555
C24 Y10 2.401321 1_555
C24 Y0 2.501288 1_555
C24 Y14 2.505405 1_455
C24 Y14 2.535072 1_555
C24 Y2 2.550190 1_555
C24 Y2 2.668752 1_455
C25 Y11 2.401321 1_555
C25 Y1 2.501288 1_556
C25 Y15 2.505405 1_556
C25 Y15 2.535072 1_656
C25 Y3 2.550190 1_665
C25 Y3 2.668752 1_565
C26 Y8 2.401321 1_555
C26 Y2 2.501288 1_555
C26 Y12 2.505405 1_655
C26 Y12 2.535072 1_555
C26 Y0 2.550190 1_555
C26 Y0 2.668752 1_655
C27 Y9 2.401321 1_555
C27 Y3 2.501288 1_554
C27 Y13 2.505405 1_554
C27 Y13 2.535072 1_454
C27 Y1 2.550190 1_445
C27 Y1 2.668752 1_545
