# generated using pymatgen
data_La(Al2Cr)4
_symmetry_space_group_name_H-M   'P 1'
_cell_length_a   5.05995200
_cell_length_b   6.89660006
_cell_length_c   6.89660006
_cell_angle_alpha   82.26598498
_cell_angle_beta   68.47889340
_cell_angle_gamma   68.47889340
_symmetry_Int_Tables_number   1
_chemical_formula_structural   La(Al2Cr)4
_chemical_formula_sum   'La1 Al8 Cr4'
_cell_volume   208.27933233
_cell_formula_units_Z   1
loop_
 _symmetry_equiv_pos_site_id
 _symmetry_equiv_pos_as_xyz
  1  'x, y, z'
loop_
 _atom_site_type_symbol
 _atom_site_label
 _atom_site_symmetry_multiplicity
 _atom_site_fract_x
 _atom_site_fract_y
 _atom_site_fract_z
 _atom_site_occupancy
  La  La0  1  0.00000000  0.00000000  0.00000000  1
  Al  Al0  1  0.00000000  0.34347200  0.65652800  1
  Al  Al1  1  0.00000000  0.65652800  0.34347200  1
  Al  Al2  1  0.65652800  0.34347200  0.34347200  1
  Al  Al3  1  0.34347200  0.65652800  0.65652800  1
  Al  Al4  1  0.50000000  0.77230400  0.22769600  1
  Al  Al5  1  0.50000000  0.22769600  0.77230400  1
  Al  Al6  1  0.72769600  0.77230400  0.77230400  1
  Al  Al7  1  0.27230400  0.22769600  0.22769600  1
  Cr  Cr0  1  0.00000000  0.00000000  0.50000000  1
  Cr  Cr1  1  0.50000000  0.00000000  0.50000000  1
  Cr  Cr2  1  0.50000000  0.50000000  0.00000000  1
  Cr  Cr3  1  0.00000000  0.50000000  0.00000000  1
loop_
_geom_bond_atom_site_label_1
_geom_bond_atom_site_label_2
_geom_bond_distance
_geom_bond_site_symmetry_2
Al0 Cr1 2.732170 1_555
Al0 Cr0 2.732170 1_555
Al0 Cr3 2.732170 1_556
Al0 Cr2 2.732170 1_456
Al0 Al5 2.739391 1_555
Al0 Al5 2.739391 1_455
Al0 Al1 2.840449 1_555
Al0 Al6 2.849801 1_455
Al0 Al7 2.849801 1_555
Al0 La0 3.116422 1_556
Al1 Cr1 2.732170 1_465
Al1 Cr2 2.732170 1_555
Al1 Cr3 2.732170 1_555
Al1 Cr0 2.732170 1_565
Al1 Al4 2.739391 1_555
Al1 Al4 2.739391 1_455
Al1 Al6 2.849801 1_455
Al1 Al7 2.849801 1_555
Al1 La0 3.116422 1_565
Al2 Cr2 2.732170 1_555
Al2 Cr1 2.732170 1_555
Al2 Cr3 2.732170 1_655
Al2 Cr0 2.732170 1_655
Al2 Al7 2.739391 1_655
Al2 Al7 2.739391 1_555
Al2 Al3 2.840449 1_555
Al2 Al4 2.849801 1_555
Al2 Al5 2.849801 1_555
Al2 La0 3.116422 1_655
Al3 Cr0 2.732170 1_565
Al3 Cr3 2.732170 1_556
Al3 Cr1 2.732170 1_565
Al3 Cr2 2.732170 1_556
Al3 Al6 2.739391 1_555
Al3 Al6 2.739391 1_455
Al3 Al4 2.849801 1_555
Al3 Al5 2.849801 1_555
Al3 La0 3.116422 1_566
Al4 Cr2 2.605079 1_555
Al4 Cr3 2.605079 1_655
Al4 Cr0 2.605079 1_565
Al4 Cr1 2.605079 1_565
Al4 Al7 2.921698 1_565
Al4 Al6 2.921698 1_554
Al4 La0 3.266334 1_565
Al4 La0 3.266334 1_665
Al5 Cr1 2.605079 1_555
Al5 Cr0 2.605079 1_655
Al5 Cr3 2.605079 1_556
Al5 Cr2 2.605079 1_556
Al5 Al7 2.921698 1_556
Al5 Al6 2.921698 1_545
Al5 La0 3.266334 1_556
Al5 La0 3.266334 1_656
Al6 Cr3 2.605079 1_656
Al6 Cr1 2.605079 1_565
Al6 Cr0 2.605079 1_665
Al6 Cr2 2.605079 1_556
Al6 La0 3.266334 1_666
Al6 La0 3.266334 1_566
Al7 Cr0 2.605079 1_555
Al7 Cr3 2.605079 1_555
Al7 Cr2 2.605079 1_555
Al7 Cr1 2.605079 1_555
Al7 La0 3.266334 1_555
Al7 La0 3.266334 1_655
Cr0 Cr1 2.529976 1_455
Cr0 Cr1 2.529976 1_555
Cr0 La0 3.448300 1_555
Cr0 La0 3.448300 1_556
Cr1 La0 3.448300 1_556
Cr1 La0 3.448300 1_655
Cr2 Cr3 2.529976 1_655
Cr2 Cr3 2.529976 1_555
Cr2 La0 3.448300 1_565
Cr2 La0 3.448300 1_655
Cr3 La0 3.448300 1_555
Cr3 La0 3.448300 1_565
