# generated using pymatgen
data_La2CoIrO6
_symmetry_space_group_name_H-M   'P 1'
_cell_length_a   5.66410300
_cell_length_b   5.51452100
_cell_length_c   9.60351992
_cell_angle_alpha   54.82511388
_cell_angle_beta   90.00000000
_cell_angle_gamma   90.00000000
_symmetry_Int_Tables_number   1
_chemical_formula_structural   La2CoIrO6
_chemical_formula_sum   'La4 Co2 Ir2 O12'
_cell_volume   245.18995515
_cell_formula_units_Z   2
loop_
 _symmetry_equiv_pos_site_id
 _symmetry_equiv_pos_as_xyz
  1  'x, y, z'
loop_
 _atom_site_type_symbol
 _atom_site_label
 _atom_site_symmetry_multiplicity
 _atom_site_fract_x
 _atom_site_fract_y
 _atom_site_fract_z
 _atom_site_occupancy
  La  La0  1  0.94322500  0.23809700  0.74936500  1
  La  La1  1  0.55677500  0.23809700  0.24936500  1
  La  La2  1  0.05677500  0.76190300  0.25063500  1
  La  La3  1  0.44322500  0.76190300  0.75063500  1
  Co  Co0  1  0.50000000  0.50000000  0.50000000  1
  Co  Co1  1  0.00000000  0.50000000  0.00000000  1
  Ir  Ir0  1  0.00000000  0.00000000  0.50000000  1
  Ir  Ir1  1  0.50000000  0.00000000  0.00000000  1
  O  O0  1  0.80252800  0.15928200  0.04648600  1
  O  O1  1  0.69747200  0.15928200  0.54648600  1
  O  O2  1  0.19747200  0.84071800  0.95351400  1
  O  O3  1  0.51883000  0.34702700  0.74279500  1
  O  O4  1  0.79074700  0.74081700  0.45294900  1
  O  O5  1  0.20925300  0.25918300  0.54705100  1
  O  O6  1  0.98117000  0.34702700  0.24279500  1
  O  O7  1  0.48117000  0.65297300  0.25720500  1
  O  O8  1  0.30252800  0.84071800  0.45351400  1
  O  O9  1  0.01883000  0.65297300  0.75720500  1
  O  O10  1  0.70925300  0.74081700  0.95294900  1
  O  O11  1  0.29074700  0.25918300  0.04705100  1
loop_
_geom_bond_atom_site_label_1
_geom_bond_atom_site_label_2
_geom_bond_distance
_geom_bond_site_symmetry_2
La0 O9 2.371021 1_655
La0 O2 2.402019 1_645
La0 O5 2.408042 1_655
La0 O3 2.469714 1_555
La0 O1 2.626444 1_555
La0 O10 2.630888 1_545
La0 O4 2.728067 1_555
La0 O0 2.745371 1_556
La1 O7 2.371021 1_555
La1 O8 2.402019 1_545
La1 O11 2.408042 1_555
La1 O6 2.469714 1_555
La1 O0 2.626444 1_555
La1 O4 2.630888 1_545
La1 O10 2.728067 1_554
La1 O1 2.745371 1_555
La2 O6 2.371021 1_455
La2 O0 2.402019 1_465
La2 O4 2.408042 1_455
La2 O7 2.469714 1_555
La2 O8 2.626444 1_555
La2 O11 2.630888 1_565
La2 O5 2.728067 1_555
La2 O2 2.745371 1_554
La3 O3 2.371021 1_555
La3 O1 2.402019 1_565
La3 O10 2.408042 1_555
La3 O9 2.469714 1_555
La3 O2 2.626444 1_555
La3 O5 2.630888 1_565
La3 O11 2.728067 1_556
La3 O8 2.745371 1_555
Co0 O3 1.973205 1_555
Co0 O7 1.973205 1_555
Co0 O4 1.997096 1_555
Co0 O5 1.997096 1_555
Co0 O1 2.003542 1_555
Co0 O8 2.003542 1_555
Co1 O9 1.973205 1_554
Co1 O6 1.973205 1_455
Co1 O10 1.997096 1_454
Co1 O11 1.997096 1_555
Co1 O2 2.003542 1_554
Co1 O0 2.003542 1_455
Ir0 O9 2.080551 1_545
Ir0 O6 2.080551 1_455
Ir0 O1 2.087789 1_455
Ir0 O8 2.087789 1_545
Ir0 O5 2.096626 1_555
Ir0 O4 2.096626 1_445
Ir1 O7 2.080551 1_545
Ir1 O3 2.080551 1_554
Ir1 O0 2.087789 1_555
Ir1 O2 2.087789 1_544
Ir1 O11 2.096626 1_555
Ir1 O10 2.096626 1_544
