# generated using pymatgen
data_Tb4Mg(PO4)4
_symmetry_space_group_name_H-M   'P 1'
_cell_length_a   6.59520604
_cell_length_b   7.76548398
_cell_length_c   6.65301664
_cell_angle_alpha   93.26777657
_cell_angle_beta   85.33537094
_cell_angle_gamma   98.29275163
_symmetry_Int_Tables_number   1
_chemical_formula_structural   Tb4Mg(PO4)4
_chemical_formula_sum   'Tb4 Mg1 P4 O16'
_cell_volume   335.70029710
_cell_formula_units_Z   1
loop_
 _symmetry_equiv_pos_site_id
 _symmetry_equiv_pos_as_xyz
  1  'x, y, z'
loop_
 _atom_site_type_symbol
 _atom_site_label
 _atom_site_symmetry_multiplicity
 _atom_site_fract_x
 _atom_site_fract_y
 _atom_site_fract_z
 _atom_site_occupancy
  Tb  Tb0  1  0.49531018  0.31987476  0.68920949  1
  Tb  Tb1  1  0.84553417  0.66672722  0.85871659  1
  Tb  Tb2  1  0.60863460  0.88845706  0.37282645  1
  Tb  Tb3  1  0.08949160  0.30798233  0.13060505  1
  Mg  Mg0  1  0.20341640  0.98709322  0.62605749  1
  P  P0  1  0.92769119  0.22386743  0.63408694  1
  P  P1  1  0.38124075  0.69918116  0.85200493  1
  P  P2  1  0.05541441  0.74461225  0.33467758  1
  P  P3  1  0.60678326  0.29713206  0.16892340  1
  O  O0  1  0.07313327  0.19607002  0.44380885  1
  O  O1  1  0.53873850  0.75160306  0.01626736  1
  O  O2  1  0.94240735  0.79046264  0.54583125  1
  O  O3  1  0.42492406  0.23906766  0.03294103  1
  O  O4  1  0.04868648  0.17339385  0.81110644  1
  O  O5  1  0.51869242  0.70854545  0.64831804  1
  O  O6  1  0.90784759  0.79423047  0.18205785  1
  O  O7  1  0.52354166  0.38595577  0.36287798  1
  O  O8  1  0.72301623  0.09847023  0.62677261  1
  O  O9  1  0.27068975  0.50803990  0.87490356  1
  O  O10  1  0.26303941  0.86695750  0.33655196  1
  O  O11  1  0.77867724  0.42341044  0.05358043  1
  O  O12  1  0.86391743  0.40815233  0.66036036  1
  O  O13  1  0.20643905  0.81280541  0.85082481  1
  O  O14  1  0.09411977  0.55656449  0.30359632  1
  O  O15  1  0.72319722  0.14134329  0.20346323  1
loop_
_geom_bond_atom_site_label_1
_geom_bond_atom_site_label_2
_geom_bond_distance
_geom_bond_site_symmetry_2
Mg0 O13 2.076463 1_555
Mg0 O10 2.124274 1_555
Mg0 O4 2.160675 1_565
Mg0 O2 2.208611 1_455
Mg0 O0 2.374440 1_565
O0 P0 1.549301 1_455
O0 Tb3 2.291669 1_555
O1 P1 1.565539 1_554
O1 Tb1 2.363930 1_554
O1 Tb2 2.591978 1_555
O2 P2 1.582710 1_655
O2 Tb1 2.345053 1_555
O2 Tb2 2.782944 1_555
O3 P3 1.560229 1_555
O3 Tb3 2.381321 1_555
O3 Tb0 2.397051 1_554
O4 P0 1.572618 1_455
O4 Tb3 2.332742 1_556
O5 P1 1.567121 1_555
O5 Tb2 2.353537 1_555
O5 Tb1 2.730554 1_555
O6 P2 1.562098 1_655
O6 Tb1 2.358065 1_554
O6 Tb2 2.437975 1_555
O7 P3 1.528003 1_555
O7 Tb0 2.246179 1_555
O8 P0 1.548826 1_555
O8 Tb2 2.370967 1_545
O8 Tb0 2.438406 1_555
O9 P1 1.566365 1_555
O9 Tb0 2.444771 1_555
O9 Tb3 2.484100 1_556
O10 P2 1.550484 1_555
O10 Tb2 2.292662 1_555
O11 P3 1.568217 1_555
O11 Tb1 2.321902 1_554
O11 Tb3 2.453839 1_655
O12 P0 1.545493 1_555
O12 Tb1 2.351644 1_555
O12 Tb0 2.423863 1_555
O13 P1 1.550277 1_555
O13 Tb1 2.482478 1_455
O14 P2 1.518178 1_555
O14 Tb3 2.187981 1_555
O15 P3 1.560180 1_555
O15 Tb2 2.320072 1_545
O15 Tb3 2.593221 1_655
