# generated using pymatgen
data_SrCuO3
_symmetry_space_group_name_H-M   'P 1'
_cell_length_a   3.83582173
_cell_length_b   8.52122023
_cell_length_c   10.81616800
_cell_angle_alpha   90.00000000
_cell_angle_beta   90.00000000
_cell_angle_gamma   90.05676492
_symmetry_Int_Tables_number   1
_chemical_formula_structural   SrCuO3
_chemical_formula_sum   'Sr6 Cu6 O18'
_cell_volume   353.53581399
_cell_formula_units_Z   6
loop_
 _symmetry_equiv_pos_site_id
 _symmetry_equiv_pos_as_xyz
  1  'x, y, z'
loop_
 _atom_site_type_symbol
 _atom_site_label
 _atom_site_symmetry_multiplicity
 _atom_site_fract_x
 _atom_site_fract_y
 _atom_site_fract_z
 _atom_site_occupancy
  Sr  Sr0  1  0.99997800  0.00465200  0.00000000  1
  Sr  Sr1  1  0.99979900  0.01590300  0.50000000  1
  Sr  Sr2  1  0.00141100  0.31322600  0.24808500  1
  Sr  Sr3  1  0.00141100  0.31322600  0.75191500  1
  Sr  Sr4  1  0.99859600  0.70584300  0.25275400  1
  Sr  Sr5  1  0.99859600  0.70584300  0.74724600  1
  Cu  Cu0  1  0.50114500  0.33926300  0.00000000  1
  Cu  Cu1  1  0.49959400  0.67113200  0.00000000  1
  Cu  Cu2  1  0.50039900  0.34930800  0.50000000  1
  Cu  Cu3  1  0.49919700  0.68114200  0.50000000  1
  Cu  Cu4  1  0.50000800  0.00988500  0.25013600  1
  Cu  Cu5  1  0.50000800  0.00988500  0.74986400  1
  O  O0  1  0.50090100  0.17424200  0.12549500  1
  O  O1  1  0.50090100  0.17424200  0.87450500  1
  O  O2  1  0.50056900  0.50445100  0.12331200  1
  O  O3  1  0.50056900  0.50445100  0.87668800  1
  O  O4  1  0.49920800  0.83363900  0.12597300  1
  O  O5  1  0.49920800  0.83363900  0.87402700  1
  O  O6  1  0.50074300  0.18528900  0.37449600  1
  O  O7  1  0.50074300  0.18528900  0.62550400  1
  O  O8  1  0.49945600  0.51603700  0.37657500  1
  O  O9  1  0.49945600  0.51603700  0.62342500  1
  O  O10  1  0.49911800  0.84561500  0.37413100  1
  O  O11  1  0.49911800  0.84561500  0.62586900  1
  O  O12  1  0.99959200  0.70109000  0.00000000  1
  O  O13  1  0.00091600  0.30988100  0.00000000  1
  O  O14  1  0.00036000  0.32170800  0.50000000  1
  O  O15  1  0.99907700  0.71028400  0.50000000  1
  O  O16  1  0.99996300  0.00959100  0.25012300  1
  O  O17  1  0.99996300  0.00959100  0.74987700  1
loop_
_geom_bond_atom_site_label_1
_geom_bond_atom_site_label_2
_geom_bond_distance
_geom_bond_site_symmetry_2
Cu0 O13 1.933559 1_655
Cu0 O13 1.934809 1_555
Cu0 O2 1.939145 1_555
Cu0 O3 1.939145 1_554
Cu0 O0 1.954433 1_555
Cu0 O1 1.954433 1_554
Cu1 O12 1.934567 1_555
Cu1 O12 1.935084 1_455
Cu1 O5 1.942702 1_554
Cu1 O4 1.942702 1_555
Cu1 O2 1.948403 1_555
Cu1 O3 1.948403 1_554
Cu2 O14 1.932194 1_555
Cu2 O14 1.932360 1_655
Cu2 O7 1.948368 1_555
Cu2 O6 1.948368 1_555
Cu2 O9 1.949537 1_555
Cu2 O8 1.949537 1_555
Cu3 O15 1.933220 1_555
Cu3 O15 1.934621 1_455
Cu3 O8 1.939471 1_555
Cu3 O9 1.939471 1_555
Cu3 O11 1.953893 1_555
Cu3 O10 1.953893 1_555
Cu4 O16 1.917742 1_555
Cu4 O16 1.918083 1_455
Cu4 O10 1.938575 1_545
Cu4 O0 1.943950 1_555
Cu4 O6 2.010793 1_555
Cu4 O4 2.014711 1_545
Cu5 O17 1.917742 1_555
Cu5 O17 1.918083 1_455
Cu5 O11 1.938575 1_545
Cu5 O1 1.943950 1_555
Cu5 O7 2.010793 1_555
Cu5 O5 2.014711 1_545
O0 Sr2 2.614599 1_555
O0 Sr2 2.615748 1_655
O0 Sr0 2.757012 1_555
O0 Sr0 2.759945 1_455
O1 Sr3 2.614599 1_555
O1 Sr3 2.615748 1_655
O1 Sr0 2.757012 1_556
O1 Sr0 2.759945 1_456
O2 Sr2 2.852424 1_555
O2 Sr2 2.858931 1_655
O2 Sr4 2.923716 1_555
O2 Sr4 2.935851 1_455
O3 Sr3 2.852424 1_555
O3 Sr3 2.858931 1_655
O3 Sr5 2.923716 1_555
O3 Sr5 2.935851 1_455
O4 Sr4 2.596114 1_555
O4 Sr4 2.597988 1_455
O4 Sr0 2.766345 1_465
O4 Sr0 2.768438 1_565
O5 Sr5 2.596114 1_555
O5 Sr5 2.597988 1_455
O5 Sr0 2.766345 1_466
O5 Sr0 2.768438 1_566
O6 Sr2 2.594350 1_555
O6 Sr2 2.596540 1_655
O6 Sr1 2.756092 1_555
O6 Sr1 2.759140 1_455
O7 Sr3 2.594350 1_555
O7 Sr3 2.596540 1_655
O7 Sr1 2.756092 1_555
O7 Sr1 2.759140 1_455
O8 Sr4 2.840626 1_555
O8 Sr4 2.847237 1_455
O8 Sr2 2.925962 1_555
O8 Sr2 2.938013 1_655
O9 Sr5 2.840626 1_555
O9 Sr5 2.847237 1_455
O9 Sr3 2.925962 1_555
O9 Sr3 2.938013 1_655
O10 Sr4 2.610998 1_555
O10 Sr4 2.612205 1_455
O10 Sr1 2.762774 1_465
O10 Sr1 2.764404 1_565
O11 Sr5 2.610998 1_555
O11 Sr5 2.612205 1_455
O11 Sr1 2.762774 1_465
O11 Sr1 2.764404 1_565
O12 Sr0 2.586718 1_565
O12 Sr4 2.734132 1_555
O12 Sr5 2.734132 1_554
O13 Sr0 2.600922 1_455
O13 Sr3 2.683481 1_554
O13 Sr2 2.683481 1_555
O14 Sr1 2.605831 1_455
O14 Sr2 2.725716 1_555
O14 Sr3 2.725716 1_555
O15 Sr1 2.604246 1_565
O15 Sr5 2.674523 1_555
O15 Sr4 2.674523 1_555
O16 Sr2 2.587435 1_655
O16 Sr4 2.588460 1_545
O16 Sr1 2.703247 1_555
O16 Sr0 2.705700 1_555
O17 Sr3 2.587435 1_655
O17 Sr5 2.588460 1_545
O17 Sr1 2.703247 1_555
O17 Sr0 2.705700 1_556
