# generated using pymatgen
data_KLiMg6
_symmetry_space_group_name_H-M   'P 1'
_cell_length_a   5.32785100
_cell_length_b   6.75898100
_cell_length_c   11.63350900
_cell_angle_alpha   90.00000000
_cell_angle_beta   90.00000000
_cell_angle_gamma   90.00000000
_symmetry_Int_Tables_number   1
_chemical_formula_structural   KLiMg6
_chemical_formula_sum   'K2 Li2 Mg12'
_cell_volume   418.93247405
_cell_formula_units_Z   2
loop_
 _symmetry_equiv_pos_site_id
 _symmetry_equiv_pos_as_xyz
  1  'x, y, z'
loop_
 _atom_site_type_symbol
 _atom_site_label
 _atom_site_symmetry_multiplicity
 _atom_site_fract_x
 _atom_site_fract_y
 _atom_site_fract_z
 _atom_site_occupancy
  K  K0  1  0.00000000  0.50000000  0.32793400  1
  K  K1  1  0.00000000  0.00000000  0.82793400  1
  Li  Li0  1  0.50000000  0.50000000  0.15644700  1
  Li  Li1  1  0.50000000  0.00000000  0.65644700  1
  Mg  Mg0  1  0.00000000  0.25141800  0.08047900  1
  Mg  Mg1  1  0.00000000  0.74858200  0.08047900  1
  Mg  Mg2  1  0.00000000  0.50000000  0.83565300  1
  Mg  Mg3  1  0.50000000  0.26788800  0.92552300  1
  Mg  Mg4  1  0.50000000  0.73211200  0.92552300  1
  Mg  Mg5  1  0.50000000  0.50000000  0.66796300  1
  Mg  Mg6  1  0.00000000  0.75141800  0.58047900  1
  Mg  Mg7  1  0.00000000  0.24858200  0.58047900  1
  Mg  Mg8  1  0.00000000  0.00000000  0.33565300  1
  Mg  Mg9  1  0.50000000  0.76788800  0.42552300  1
  Mg  Mg10  1  0.50000000  0.23211200  0.42552300  1
  Mg  Mg11  1  0.50000000  0.00000000  0.16796300  1
loop_
_geom_bond_atom_site_label_1
_geom_bond_atom_site_label_2
_geom_bond_distance
_geom_bond_site_symmetry_2
K0 Li0 3.328139 1_455
K0 Li0 3.328139 1_555
K0 Mg1 3.333205 1_555
K0 Mg0 3.333205 1_555
K0 Mg8 3.380683 1_565
K0 Mg8 3.380683 1_555
K0 Mg6 3.394035 1_555
K0 Mg7 3.394035 1_555
K0 Mg9 3.415240 1_555
K0 Mg9 3.415240 1_455
K0 Mg10 3.415240 1_455
K0 Mg10 3.415240 1_555
K1 Li1 3.328139 1_455
K1 Li1 3.328139 1_555
K1 Mg7 3.333205 1_555
K1 Mg6 3.333205 1_545
K1 Mg2 3.380683 1_555
K1 Mg2 3.380683 1_545
K1 Mg0 3.394035 1_556
K1 Mg1 3.394035 1_546
K1 Mg3 3.415240 1_455
K1 Mg3 3.415240 1_555
K1 Mg4 3.415240 1_445
K1 Mg4 3.415240 1_545
Li0 Mg4 3.110998 1_554
Li0 Mg3 3.110998 1_554
Li0 Mg1 3.271161 1_655
Li0 Mg0 3.271161 1_655
Li0 Mg1 3.271161 1_555
Li0 Mg0 3.271161 1_555
Li0 Mg11 3.382145 1_555
Li0 Mg11 3.382145 1_565
Li1 Mg10 3.110998 1_555
Li1 Mg9 3.110998 1_545
Li1 Mg7 3.271161 1_555
Li1 Mg7 3.271161 1_655
Li1 Mg6 3.271161 1_545
Li1 Mg6 3.271161 1_645
Li1 Mg5 3.382145 1_545
Li1 Mg5 3.382145 1_555
Mg0 Mg3 3.218471 1_454
Mg0 Mg3 3.218471 1_554
Mg0 Mg2 3.306827 1_554
Mg0 Mg11 3.319643 1_455
Mg0 Mg11 3.319643 1_555
Mg0 Mg1 3.360322 1_555
Mg0 Mg1 3.398659 1_545
Mg0 Mg8 3.420544 1_555
Mg1 Mg4 3.218471 1_554
Mg1 Mg4 3.218471 1_454
Mg1 Mg2 3.306827 1_554
Mg1 Mg11 3.319643 1_565
Mg1 Mg11 3.319643 1_465
Mg1 Mg8 3.420544 1_565
Mg2 Mg4 3.263562 1_455
Mg2 Mg4 3.263562 1_555
Mg2 Mg3 3.263562 1_455
Mg2 Mg3 3.263562 1_555
Mg2 Mg5 3.301849 1_455
Mg2 Mg5 3.301849 1_555
Mg2 Mg6 3.420544 1_555
Mg2 Mg7 3.420544 1_555
Mg3 Mg4 3.137681 1_555
Mg3 Mg5 3.382194 1_555
Mg4 Mg5 3.382194 1_555
Mg5 Mg6 3.319643 1_555
Mg5 Mg6 3.319643 1_655
Mg5 Mg7 3.319643 1_555
Mg5 Mg7 3.319643 1_655
Mg5 Mg9 3.351607 1_555
Mg6 Mg9 3.218471 1_555
Mg6 Mg9 3.218471 1_455
Mg6 Mg8 3.306827 1_565
Mg6 Mg7 3.360322 1_565
Mg6 Mg7 3.398659 1_555
Mg7 Mg8 3.306827 1_555
Mg8 Mg9 3.263562 1_545
Mg8 Mg9 3.263562 1_445
Mg10 Mg9 3.137681 1_545
Mg10 Mg7 3.218471 1_655
Mg10 Mg7 3.218471 1_555
Mg10 Mg8 3.263562 1_555
Mg10 Mg8 3.263562 1_655
Mg10 Mg5 3.351607 1_555
Mg10 Mg11 3.382194 1_555
Mg11 Mg8 3.301849 1_655
Mg11 Mg8 3.301849 1_555
Mg11 Mg4 3.351607 1_544
Mg11 Mg3 3.351607 1_554
Mg11 Mg9 3.382194 1_545
