# generated using pymatgen
data_Ti2FeO5
_symmetry_space_group_name_H-M   'P 1'
_cell_length_a   3.76673487
_cell_length_b   10.64412567
_cell_length_c   20.57093183
_cell_angle_alpha   91.18094624
_cell_angle_beta   89.98868537
_cell_angle_gamma   110.68995891
_symmetry_Int_Tables_number   1
_chemical_formula_structural   Ti2FeO5
_chemical_formula_sum   'Ti16 Fe8 O40'
_cell_volume   771.38440618
_cell_formula_units_Z   8
loop_
 _symmetry_equiv_pos_site_id
 _symmetry_equiv_pos_as_xyz
  1  'x, y, z'
loop_
 _atom_site_type_symbol
 _atom_site_label
 _atom_site_symmetry_multiplicity
 _atom_site_fract_x
 _atom_site_fract_y
 _atom_site_fract_z
 _atom_site_occupancy
  Ti  Ti0  1  0.13628600  0.63325900  0.22270600  1
  Ti  Ti1  1  0.12863000  0.63147900  0.71679100  1
  Ti  Ti2  1  0.13213200  0.63211600  0.53277900  1
  Ti  Ti3  1  0.13614400  0.64067700  0.03572000  1
  Ti  Ti4  1  0.13181700  0.13316700  0.71613900  1
  Ti  Ti5  1  0.13885700  0.13697400  0.03082500  1
  Ti  Ti6  1  0.12192400  0.12636700  0.53469700  1
  Ti  Ti7  1  0.18453300  0.18561200  0.37352500  1
  Ti  Ti8  1  0.86385600  0.85932300  0.46428000  1
  Ti  Ti9  1  0.86786800  0.86788400  0.96722100  1
  Ti  Ti10  1  0.86371400  0.86674100  0.27729400  1
  Ti  Ti11  1  0.87137100  0.86852100  0.78320900  1
  Ti  Ti12  1  0.81546700  0.31438800  0.12647500  1
  Ti  Ti13  1  0.87807600  0.37363300  0.96530300  1
  Ti  Ti14  1  0.86114300  0.36302600  0.46917500  1
  Ti  Ti15  1  0.86818300  0.36683300  0.78386100  1
  Fe  Fe0  1  0.18911100  0.68970300  0.37509300  1
  Fe  Fe1  1  0.19674600  0.69416100  0.87564400  1
  Fe  Fe2  1  0.13862200  0.13885100  0.21874500  1
  Fe  Fe3  1  0.19228100  0.19356300  0.87479600  1
  Fe  Fe4  1  0.81088900  0.81029700  0.12490700  1
  Fe  Fe5  1  0.80325400  0.80583900  0.62435600  1
  Fe  Fe6  1  0.80771900  0.30643700  0.62520400  1
  Fe  Fe7  1  0.86137800  0.36114900  0.28125500  1
  O  O0  1  0.03722900  0.53647100  0.44314800  1
  O  O1  1  0.06074800  0.55533100  0.30205400  1
  O  O2  1  0.06085400  0.54626200  0.94280300  1
  O  O3  1  0.05619600  0.54734200  0.80497300  1
  O  O4  1  0.21298700  0.71224200  0.12107300  1
  O  O5  1  0.20115000  0.70229500  0.62400000  1
  O  O6  1  0.31186100  0.81043600  0.47324700  1
  O  O7  1  0.31509600  0.81698100  0.28055600  1
  O  O8  1  0.31878500  0.81906100  0.97191700  1
  O  O9  1  0.31588800  0.81508600  0.78015500  1
  O  O10  1  0.03101500  0.03697500  0.31767700  1
  O  O11  1  0.05604400  0.04281200  0.44543600  1
  O  O12  1  0.05733000  0.04635600  0.80575500  1
  O  O13  1  0.05199000  0.04892100  0.94523600  1
  O  O14  1  0.26079300  0.26062000  0.11276300  1
  O  O15  1  0.20640600  0.20470700  0.62674200  1
  O  O16  1  0.29500600  0.29328700  0.29957500  1
  O  O17  1  0.31552800  0.31565100  0.77874400  1
  O  O18  1  0.30838900  0.30953900  0.46459200  1
  O  O19  1  0.31763700  0.31620000  0.96874300  1
  O  O20  1  0.68490400  0.68301900  0.21944400  1
  O  O21  1  0.68411200  0.68491400  0.71984500  1
  O  O22  1  0.68813900  0.68956400  0.02675300  1
  O  O23  1  0.68121500  0.68093900  0.52808300  1
  O  O24  1  0.78701300  0.78775800  0.37892700  1
  O  O25  1  0.79885000  0.79770500  0.87600000  1
  O  O26  1  0.96277100  0.96352900  0.05685200  1
  O  O27  1  0.93925200  0.94466900  0.19794600  1
  O  O28  1  0.93914600  0.95373800  0.55719700  1
  O  O29  1  0.94380400  0.95265800  0.69502700  1
  O  O30  1  0.70499400  0.20671300  0.20042500  1
  O  O31  1  0.68447200  0.18434900  0.72125600  1
  O  O32  1  0.69161100  0.19046100  0.03540800  1
  O  O33  1  0.68236300  0.18380000  0.53125700  1
  O  O34  1  0.73920700  0.23938000  0.38723700  1
  O  O35  1  0.79359400  0.29529300  0.87325800  1
  O  O36  1  0.94395600  0.45718800  0.05456400  1
  O  O37  1  0.96898500  0.46302500  0.18232300  1
  O  O38  1  0.94267000  0.45364400  0.69424500  1
  O  O39  1  0.94801000  0.45107900  0.55476400  1
loop_
_geom_bond_atom_site_label_1
_geom_bond_atom_site_label_2
_geom_bond_distance
_geom_bond_site_symmetry_2
Fe0 O1 1.989962 1_555
Fe0 O0 2.093287 1_555
Fe0 O24 2.122060 1_455
Fe0 O24 2.122118 1_555
Fe0 O6 2.327155 1_555
Fe0 O7 2.344449 1_555
Fe1 O3 2.039111 1_555
Fe1 O2 2.041779 1_555
Fe1 O25 2.142854 1_555
Fe1 O25 2.151269 1_455
Fe1 O8 2.315347 1_555
Fe1 O9 2.326434 1_555
Fe2 O27 1.971282 1_445
Fe2 O30 2.033977 1_555
Fe2 O30 2.043725 1_455
Fe2 O16 2.239957 1_555
Fe2 O10 2.293896 1_555
Fe2 O14 2.517810 1_555
Fe3 O12 2.018998 1_555
Fe3 O13 2.065427 1_555
Fe3 O35 2.138226 1_555
Fe3 O35 2.139919 1_455
Fe3 O19 2.263320 1_555
Fe3 O17 2.342552 1_555
Fe4 O27 1.989962 1_555
Fe4 O26 2.093287 1_555
Fe4 O4 2.122060 1_655
Fe4 O4 2.122118 1_555
Fe4 O22 2.327155 1_555
Fe4 O20 2.344449 1_555
Fe5 O29 2.039111 1_555
Fe5 O28 2.041779 1_555
Fe5 O5 2.142854 1_555
Fe5 O5 2.151269 1_655
Fe5 O23 2.315347 1_555
Fe5 O21 2.326434 1_555
Fe6 O38 2.018998 1_555
Fe6 O39 2.065427 1_555
Fe6 O15 2.138226 1_555
Fe6 O15 2.139919 1_655
Fe6 O33 2.263320 1_555
Fe6 O31 2.342552 1_555
Fe7 O1 1.971282 1_655
Fe7 O16 2.033977 1_555
Fe7 O16 2.043725 1_655
Fe7 O30 2.239957 1_555
Fe7 O37 2.293896 1_555
Fe7 O34 2.517810 1_555
O0 Ti14 1.819413 1_455
O0 Ti2 2.056582 1_555
O1 Ti0 1.822669 1_555
O2 Ti13 1.790415 1_455
O2 Ti3 2.112685 1_556
O3 Ti15 1.840110 1_455
O3 Ti1 2.015225 1_555
O4 Ti3 1.880455 1_555
O4 Ti0 2.249845 1_555
O5 Ti2 1.987971 1_555
O5 Ti1 2.049367 1_555
O6 Ti8 1.943472 1_455
O6 Ti8 1.966528 1_555
O6 Ti2 2.179028 1_555
O7 Ti10 1.945108 1_555
O7 Ti10 1.952865 1_455
O7 Ti0 2.160487 1_555
O8 Ti9 1.946816 1_455
O8 Ti9 1.949244 1_555
O8 Ti3 2.231696 1_556
O9 Ti11 1.949977 1_455
O9 Ti11 1.965466 1_555
O9 Ti1 2.221989 1_555
O10 Ti7 1.853693 1_555
O10 Ti10 1.871313 1_445
O11 Ti8 1.876398 1_445
O11 Ti6 2.000259 1_555
O11 Ti7 2.074950 1_555
O12 Ti11 1.820945 1_445
O12 Ti4 2.053728 1_555
O13 Ti9 1.868215 1_445
O13 Ti5 1.949583 1_556
O14 Ti12 1.972913 1_455
O14 Ti12 1.980142 1_555
O14 Ti5 2.065395 1_555
O15 Ti4 1.986700 1_555
O15 Ti6 2.032093 1_555
O16 Ti7 1.880277 1_555
O17 Ti15 1.947674 1_455
O17 Ti15 1.959010 1_555
O17 Ti4 2.204020 1_555
O18 Ti14 1.956609 1_555
O18 Ti14 1.961260 1_455
O18 Ti7 2.220511 1_555
O18 Ti6 2.349945 1_555
O19 Ti13 1.958865 1_455
O19 Ti13 1.981153 1_555
O19 Ti5 2.217222 1_556
O20 Ti0 1.945108 1_555
O20 Ti0 1.952865 1_655
O20 Ti10 2.160487 1_555
O21 Ti1 1.949981 1_655
O21 Ti1 1.965462 1_555
O21 Ti11 2.221989 1_555
O22 Ti3 1.943472 1_655
O22 Ti3 1.966528 1_555
O22 Ti9 2.179028 1_554
O23 Ti2 1.946816 1_655
O23 Ti2 1.949244 1_555
O23 Ti8 2.231696 1_555
O24 Ti8 1.880455 1_555
O24 Ti10 2.249845 1_555
O25 Ti9 1.987971 1_555
O25 Ti11 2.049367 1_555
O26 Ti5 1.819413 1_665
O26 Ti9 2.056582 1_554
O27 Ti10 1.822669 1_555
O28 Ti6 1.790415 1_665
O28 Ti8 2.112685 1_555
O29 Ti4 1.840110 1_665
O29 Ti11 2.015225 1_555
O30 Ti12 1.880277 1_555
O31 Ti4 1.947674 1_655
O31 Ti4 1.959010 1_555
O31 Ti15 2.204020 1_555
O32 Ti5 1.956609 1_555
O32 Ti5 1.961260 1_655
O32 Ti12 2.220511 1_555
O32 Ti13 2.349945 1_554
O33 Ti6 1.958865 1_655
O33 Ti6 1.981153 1_555
O33 Ti14 2.217222 1_555
O34 Ti7 1.972913 1_655
O34 Ti7 1.980142 1_555
O34 Ti14 2.065395 1_555
O35 Ti15 1.986700 1_555
O35 Ti13 2.032093 1_555
O36 Ti3 1.876398 1_655
O36 Ti13 2.000259 1_554
O36 Ti12 2.074950 1_555
O37 Ti12 1.853693 1_555
O37 Ti0 1.871313 1_655
O38 Ti1 1.820945 1_655
O38 Ti15 2.053728 1_555
O39 Ti2 1.868215 1_655
O39 Ti14 1.949583 1_555
