# generated using pymatgen
data_La2Ni2O5
_symmetry_space_group_name_H-M   'P 1'
_cell_length_a   5.46397700
_cell_length_b   5.69065501
_cell_length_c   8.85351066
_cell_angle_alpha   108.75255430
_cell_angle_beta   72.03036170
_cell_angle_gamma   89.99902376
_symmetry_Int_Tables_number   1
_chemical_formula_structural   La2Ni2O5
_chemical_formula_sum   'La4 Ni4 O10'
_cell_volume   246.45019039
_cell_formula_units_Z   2
loop_
 _symmetry_equiv_pos_site_id
 _symmetry_equiv_pos_as_xyz
  1  'x, y, z'
loop_
 _atom_site_type_symbol
 _atom_site_label
 _atom_site_symmetry_multiplicity
 _atom_site_fract_x
 _atom_site_fract_y
 _atom_site_fract_z
 _atom_site_occupancy
  La  La0  1  0.39732800  0.12485000  0.21752500  1
  La  La1  1  0.61485800  0.87506300  0.78243500  1
  La  La2  1  0.89732800  0.59267100  0.21752400  1
  La  La3  1  0.11485700  0.40738000  0.78244100  1
  Ni  Ni0  1  0.51118800  0.50000700  0.00008400  1
  Ni  Ni1  1  0.21761400  0.80858700  0.49994700  1
  Ni  Ni2  1  0.01117700  0.00008200  0.00009000  1
  Ni  Ni3  1  0.71760800  0.19135800  0.49995300  1
  O  O0  1  0.34835600  0.13996600  0.49997400  1
  O  O1  1  0.84832500  0.86004200  0.50001000  1
  O  O2  1  0.27049700  0.24087300  0.97171100  1
  O  O3  1  0.24217600  0.75917100  0.02834400  1
  O  O4  1  0.77049300  0.23084900  0.97171000  1
  O  O5  1  0.74216400  0.76917400  0.02834900  1
  O  O6  1  0.89359400  0.20625700  0.27481800  1
  O  O7  1  0.16841700  0.79356400  0.72513500  1
  O  O8  1  0.39359700  0.56852200  0.27481500  1
  O  O9  1  0.66842200  0.43158200  0.72513500  1
loop_
_geom_bond_atom_site_label_1
_geom_bond_atom_site_label_2
_geom_bond_distance
_geom_bond_site_symmetry_2
La0 O0 2.404402 1_555
La0 O8 2.408828 1_555
La0 O5 2.514967 1_545
La0 O3 2.547462 1_545
La0 O6 2.652354 1_455
La0 O4 2.713615 1_554
La0 O2 2.739888 1_554
La0 O6 2.919288 1_555
La1 O1 2.404434 1_555
La1 O9 2.407748 1_555
La1 O4 2.515632 1_565
La1 O2 2.548213 1_565
La1 O7 2.652391 1_555
La1 O5 2.713878 1_556
La1 O3 2.740309 1_556
La1 O7 2.919377 1_655
La2 O1 2.404537 1_555
La2 O6 2.409126 1_555
La2 O3 2.515265 1_655
La2 O5 2.547659 1_555
La2 O8 2.652385 1_555
La2 O2 2.713327 1_654
La2 O4 2.739646 1_554
La2 O8 2.919317 1_655
La3 O0 2.404571 1_555
La3 O7 2.407901 1_555
La3 O2 2.515781 1_555
La3 O4 2.548425 1_455
La3 O9 2.652389 1_455
La3 O3 2.713614 1_556
La3 O5 2.740059 1_456
La3 O9 2.919426 1_555
Ni0 O2 1.983172 1_554
Ni0 O3 1.983422 1_555
Ni0 O4 1.987337 1_554
Ni0 O5 1.987482 1_555
Ni0 O8 2.215182 1_555
Ni0 O9 2.217091 1_554
Ni1 O8 1.957136 1_555
Ni1 O7 1.957890 1_555
Ni1 O0 2.016505 1_565
Ni1 O1 2.038721 1_455
Ni2 O4 1.983208 1_454
Ni2 O5 1.983512 1_445
Ni2 O2 1.987500 1_554
Ni2 O3 1.987558 1_545
Ni2 O6 2.215028 1_455
Ni2 O7 2.217036 1_544
Ni3 O6 1.957255 1_555
Ni3 O9 1.957732 1_555
Ni3 O1 2.016351 1_545
Ni3 O0 2.038627 1_555
