# generated using pymatgen
data_Li9Co7O16
_symmetry_space_group_name_H-M   'P 1'
_cell_length_a   2.94685100
_cell_length_b   7.79850725
_cell_length_c   12.57485455
_cell_angle_alpha   90.89355959
_cell_angle_beta   90.03642824
_cell_angle_gamma   100.71044225
_symmetry_Int_Tables_number   1
_chemical_formula_structural   Li9Co7O16
_chemical_formula_sum   'Li9 Co7 O16'
_cell_volume   283.91246054
_cell_formula_units_Z   1
loop_
 _symmetry_equiv_pos_site_id
 _symmetry_equiv_pos_as_xyz
  1  'x, y, z'
loop_
 _atom_site_type_symbol
 _atom_site_label
 _atom_site_symmetry_multiplicity
 _atom_site_fract_x
 _atom_site_fract_y
 _atom_site_fract_z
 _atom_site_occupancy
  Li  Li0  1  0.43757400  0.37561600  0.82018200  1
  Li  Li1  1  0.68761700  0.87476500  0.56169300  1
  Li  Li2  1  0.93663500  0.37335800  0.31069100  1
  Li  Li3  1  0.81983800  0.13609800  0.94173500  1
  Li  Li4  1  0.06336500  0.62664200  0.68930900  1
  Li  Li5  1  0.31238300  0.12523500  0.43830700  1
  Li  Li6  1  0.18016200  0.86390200  0.05826500  1
  Li  Li7  1  0.56242600  0.62438400  0.17981800  1
  Li  Li8  1  0.00000000  0.50000000  0.00000000  1
  Co  Co0  1  0.62993100  0.74368600  0.87895200  1
  Co  Co1  1  0.37006900  0.25631400  0.12104800  1
  Co  Co2  1  0.87520200  0.24950900  0.62808200  1
  Co  Co3  1  0.12479800  0.75049100  0.37191800  1
  Co  Co4  1  0.24827300  0.99540400  0.74963600  1
  Co  Co5  1  0.50000000  0.50000000  0.50000000  1
  Co  Co6  1  0.75172700  0.00459600  0.25036400  1
  O  O0  1  0.03967500  0.58927800  0.84848700  1
  O  O1  1  0.28343200  0.06357500  0.60211700  1
  O  O2  1  0.53571100  0.56831400  0.34936100  1
  O  O3  1  0.40338100  0.30241800  0.98211900  1
  O  O4  1  0.66087800  0.81636400  0.72854600  1
  O  O5  1  0.90686700  0.31657900  0.47722900  1
  O  O6  1  0.78439000  0.08575900  0.10223600  1
  O  O7  1  0.15903900  0.81867700  0.22220400  1
  O  O8  1  0.84096100  0.18132300  0.77779600  1
  O  O9  1  0.09313300  0.68342100  0.52277100  1
  O  O10  1  0.33912200  0.18363600  0.27145400  1
  O  O11  1  0.21561000  0.91424100  0.89776400  1
  O  O12  1  0.46428900  0.43168600  0.65063900  1
  O  O13  1  0.71656800  0.93642500  0.39788300  1
  O  O14  1  0.59661900  0.69758200  0.01788100  1
  O  O15  1  0.96032500  0.41072200  0.15151300  1
loop_
_geom_bond_atom_site_label_1
_geom_bond_atom_site_label_2
_geom_bond_distance
_geom_bond_site_symmetry_2
Li0 O3 2.120802 1_555
Li0 O8 2.153613 1_555
Li0 O8 2.157404 1_455
Li0 O12 2.181564 1_555
Li0 O0 2.221042 1_655
Li0 O0 2.232970 1_555
Li1 O1 2.115280 1_565
Li1 O13 2.120732 1_555
Li1 O1 2.126927 1_665
Li1 O9 2.129547 1_655
Li1 O9 2.130655 1_555
Li1 O4 2.152337 1_555
Li2 O15 2.026610 1_555
Li2 O10 2.114120 1_655
Li2 O10 2.130885 1_555
Li2 O2 2.142230 1_555
Li2 O5 2.145720 1_555
Li2 O2 2.154711 1_655
Li3 O3 2.004552 1_555
Li3 O3 2.011618 1_655
Li3 O6 2.061117 1_556
Li3 O8 2.095892 1_555
Li3 O11 2.300749 1_545
Li3 O11 2.319563 1_645
Li4 O0 2.026610 1_555
Li4 O4 2.114120 1_455
Li4 O4 2.130885 1_555
Li4 O12 2.142230 1_555
Li4 O9 2.145720 1_555
Li4 O12 2.154711 1_455
Li5 O13 2.115280 1_545
Li5 O1 2.120732 1_555
Li5 O13 2.126927 1_445
Li5 O5 2.129547 1_455
Li5 O5 2.130655 1_555
Li5 O10 2.152337 1_555
Li6 O14 2.004552 1_555
Li6 O14 2.011618 1_455
Li6 O11 2.061117 1_554
Li6 O7 2.095892 1_555
Li6 O6 2.300749 1_565
Li6 O6 2.319563 1_465
Li7 O14 2.120802 1_555
Li7 O7 2.153613 1_555
Li7 O7 2.157404 1_655
Li7 O2 2.181564 1_555
Li7 O15 2.221042 1_455
Li7 O15 2.232970 1_555
Li8 O15 2.034651 1_455
Li8 O0 2.034651 1_554
Li8 O14 2.120757 1_555
Li8 O3 2.120757 1_454
Li8 O3 2.123229 1_554
Li8 O14 2.123229 1_455
Co0 O14 1.788197 1_556
Co0 O0 1.892436 1_655
Co0 O0 1.956655 1_555
Co0 O11 1.977351 1_555
Co0 O4 1.980187 1_555
Co0 O11 1.985003 1_655
Co1 O3 1.788197 1_554
Co1 O15 1.892436 1_455
Co1 O15 1.956655 1_555
Co1 O6 1.977351 1_555
Co1 O10 1.980187 1_555
Co1 O6 1.985003 1_455
Co2 O8 1.961826 1_555
Co2 O5 1.973259 1_555
Co2 O12 2.045118 1_655
Co2 O12 2.047547 1_555
Co2 O1 2.071331 1_655
Co2 O1 2.072394 1_555
Co3 O7 1.961826 1_555
Co3 O9 1.973259 1_555
Co3 O2 2.045118 1_455
Co3 O2 2.047547 1_555
Co3 O13 2.071331 1_455
Co3 O13 2.072394 1_555
Co4 O1 1.935209 1_565
Co4 O11 1.973285 1_555
Co4 O4 2.026233 1_455
Co4 O4 2.029306 1_555
Co4 O8 2.073558 1_465
Co4 O8 2.078465 1_565
Co5 O12 1.973327 1_555
Co5 O2 1.973327 1_555
Co5 O9 2.047128 1_555
Co5 O5 2.047128 1_555
Co5 O9 2.059229 1_655
Co5 O5 2.059229 1_455
Co6 O13 1.935209 1_545
Co6 O6 1.973285 1_555
Co6 O10 2.026233 1_655
Co6 O10 2.029306 1_555
Co6 O7 2.073558 1_645
Co6 O7 2.078465 1_545
