# generated using pymatgen
data_KP2(HO2)3
_symmetry_space_group_name_H-M   'P 1'
_cell_length_a   7.27359709
_cell_length_b   7.88911219
_cell_length_c   11.15386200
_cell_angle_alpha   90.00000000
_cell_angle_beta   90.00000000
_cell_angle_gamma   92.41048028
_symmetry_Int_Tables_number   1
_chemical_formula_structural   KP2(HO2)3
_chemical_formula_sum   'K4 P8 H12 O24'
_cell_volume   639.46707032
_cell_formula_units_Z   4
loop_
 _symmetry_equiv_pos_site_id
 _symmetry_equiv_pos_as_xyz
  1  'x, y, z'
loop_
 _atom_site_type_symbol
 _atom_site_label
 _atom_site_symmetry_multiplicity
 _atom_site_fract_x
 _atom_site_fract_y
 _atom_site_fract_z
 _atom_site_occupancy
  K  K0  1  0.57013400  0.00382900  0.74851700  1
  K  K1  1  0.07013400  0.50382900  0.75148300  1
  K  K2  1  0.42986600  0.99617100  0.25148300  1
  K  K3  1  0.92986600  0.49617100  0.24851700  1
  P  P0  1  0.06730200  0.04369400  0.58344500  1
  P  P1  1  0.56730200  0.54369400  0.91655500  1
  P  P2  1  0.93269800  0.95630600  0.41655500  1
  P  P3  1  0.43269800  0.45630600  0.08344500  1
  P  P4  1  0.12384700  0.93635000  0.96866800  1
  P  P5  1  0.62384700  0.43635000  0.53133200  1
  P  P6  1  0.87615300  0.06365000  0.03133200  1
  P  P7  1  0.37615300  0.56365000  0.46866800  1
  H  H0  1  0.00888400  0.90064200  0.76653600  1
  H  H1  1  0.50888400  0.40064200  0.73346400  1
  H  H2  1  0.99111600  0.09935800  0.23346400  1
  H  H3  1  0.49111600  0.59935800  0.26653600  1
  H  H4  1  0.27270100  0.83637300  0.57578600  1
  H  H5  1  0.77270100  0.33637300  0.92421400  1
  H  H6  1  0.72729900  0.16362700  0.42421400  1
  H  H7  1  0.22729900  0.66362700  0.07578600  1
  H  H8  1  0.32065700  0.15956300  0.98902900  1
  H  H9  1  0.82065700  0.65956300  0.51097100  1
  H  H10  1  0.67934300  0.84043700  0.01097100  1
  H  H11  1  0.17934300  0.34043700  0.48902900  1
  O  O0  1  0.08190400  0.23508100  0.58924800  1
  O  O1  1  0.58190400  0.73508100  0.91075200  1
  O  O2  1  0.91809600  0.76491900  0.41075200  1
  O  O3  1  0.41809600  0.26491900  0.08924800  1
  O  O4  1  0.94453400  0.95607400  0.68150100  1
  O  O5  1  0.44453400  0.45607400  0.81849900  1
  O  O6  1  0.05546600  0.04392600  0.31849900  1
  O  O7  1  0.55546600  0.54392600  0.18150100  1
  O  O8  1  0.26585400  0.97029000  0.58259100  1
  O  O9  1  0.76585400  0.47029000  0.91740900  1
  O  O10  1  0.73414600  0.02971000  0.41740900  1
  O  O11  1  0.23414600  0.52971000  0.08259100  1
  O  O12  1  0.20020900  0.84108600  0.07467600  1
  O  O13  1  0.70020900  0.34108600  0.42532400  1
  O  O14  1  0.79979100  0.15891400  0.92532400  1
  O  O15  1  0.29979100  0.65891400  0.57467600  1
  O  O16  1  0.07208100  0.82720600  0.85856800  1
  O  O17  1  0.57208100  0.32720600  0.64143200  1
  O  O18  1  0.92791900  0.17279400  0.14143200  1
  O  O19  1  0.42791900  0.67279400  0.35856800  1
  O  O20  1  0.26105000  0.08427700  0.92258000  1
  O  O21  1  0.76105000  0.58427700  0.57742000  1
  O  O22  1  0.73895000  0.91572300  0.07742000  1
  O  O23  1  0.23895000  0.41572300  0.42258000  1
loop_
_geom_bond_atom_site_label_1
_geom_bond_atom_site_label_2
_geom_bond_distance
_geom_bond_site_symmetry_2
K0 O1 2.791457 1_545
K0 O17 2.816413 1_555
K0 O14 2.829213 1_555
K0 O4 2.864085 1_545
K0 O8 2.888633 1_545
K0 O20 3.057177 1_555
K1 O0 2.791457 1_555
K1 O16 2.816413 1_555
K1 O15 2.829213 1_555
K1 O5 2.864085 1_555
K1 O9 2.888633 1_455
K1 O21 3.057177 1_455
K2 O3 2.791457 1_565
K2 O19 2.816413 1_555
K2 O12 2.829213 1_555
K2 O6 2.864085 1_565
K2 O10 2.888633 1_565
K2 O22 3.057177 1_555
K3 O2 2.791457 1_555
K3 O18 2.816413 1_555
K3 O13 2.829213 1_555
K3 O7 2.864085 1_555
K3 O11 2.888633 1_655
K3 O23 3.057177 1_655
H0 O4 1.152010 1_455
H0 O16 1.273996 1_555
H1 O5 1.152010 1_555
H1 O17 1.273996 1_555
H2 O6 1.152010 1_655
H2 O18 1.273996 1_555
H3 O7 1.152010 1_555
H3 O19 1.273996 1_555
H4 O8 1.062464 1_555
H4 O15 1.422029 1_555
H5 O9 1.062464 1_555
H5 O14 1.422029 1_555
H6 O10 1.062464 1_555
H6 O13 1.422029 1_555
H7 O11 1.062464 1_555
H7 O12 1.422029 1_555
H8 O20 1.033633 1_555
H8 O3 1.546974 1_556
H9 O21 1.033633 1_555
H9 O2 1.546974 1_555
H10 O22 1.033633 1_555
H10 O1 1.546974 1_554
H11 O23 1.033633 1_555
H11 O0 1.546974 1_555
O0 P0 1.510529 1_555
O1 P1 1.510529 1_555
O2 P2 1.510529 1_555
O3 P3 1.510529 1_555
O4 P0 1.555464 1_665
O5 P1 1.555464 1_555
O6 P2 1.555464 1_445
O7 P3 1.555464 1_555
O8 P0 1.578437 1_565
O9 P1 1.578437 1_555
O10 P2 1.578437 1_545
O11 P3 1.578437 1_555
O12 P4 1.518717 1_554
O13 P5 1.518717 1_555
O14 P6 1.518717 1_556
O15 P7 1.518717 1_555
O16 P4 1.537527 1_555
O17 P5 1.537527 1_555
O18 P6 1.537527 1_555
O19 P7 1.537527 1_555
O20 P4 1.588752 1_545
O21 P5 1.588752 1_555
O22 P6 1.588752 1_565
O23 P7 1.588752 1_555
