# generated using pymatgen
data_Ho6Al43Cr4
_symmetry_space_group_name_H-M   'P 1'
_cell_length_a   10.92044097
_cell_length_b   10.92044097
_cell_length_c   17.47125800
_cell_angle_alpha   90.00000000
_cell_angle_beta   90.00000000
_cell_angle_gamma   119.99999374
_symmetry_Int_Tables_number   1
_chemical_formula_structural   Ho6Al43Cr4
_chemical_formula_sum   'Ho12 Al86 Cr8'
_cell_volume   1804.40984164
_cell_formula_units_Z   2
loop_
 _symmetry_equiv_pos_site_id
 _symmetry_equiv_pos_as_xyz
  1  'x, y, z'
loop_
 _atom_site_type_symbol
 _atom_site_label
 _atom_site_symmetry_multiplicity
 _atom_site_fract_x
 _atom_site_fract_y
 _atom_site_fract_z
 _atom_site_occupancy
  Ho  Ho0  1  0.47007900  0.47007900  0.90466900  1
  Ho  Ho1  1  0.52992100  0.00000000  0.90466900  1
  Ho  Ho2  1  0.00000000  0.52992100  0.90466900  1
  Ho  Ho3  1  0.52992100  0.52992100  0.09533100  1
  Ho  Ho4  1  0.47007900  0.00000000  0.09533100  1
  Ho  Ho5  1  0.00000000  0.47007900  0.09533100  1
  Ho  Ho6  1  0.52992100  0.52992100  0.40466900  1
  Ho  Ho7  1  0.47007900  0.00000000  0.40466900  1
  Ho  Ho8  1  0.00000000  0.47007900  0.40466900  1
  Ho  Ho9  1  0.47007900  0.47007900  0.59533100  1
  Ho  Ho10  1  0.52992100  0.00000000  0.59533100  1
  Ho  Ho11  1  0.00000000  0.52992100  0.59533100  1
  Al  Al0  1  0.84127800  0.23179500  0.83448400  1
  Al  Al1  1  0.76820500  0.60948200  0.83448400  1
  Al  Al2  1  0.39051800  0.15872200  0.83448400  1
  Al  Al3  1  0.23179500  0.84127800  0.83448400  1
  Al  Al4  1  0.60948200  0.76820500  0.83448400  1
  Al  Al5  1  0.15872200  0.39051800  0.83448400  1
  Al  Al6  1  0.15872200  0.76820500  0.16551600  1
  Al  Al7  1  0.23179500  0.39051800  0.16551600  1
  Al  Al8  1  0.60948200  0.84127800  0.16551600  1
  Al  Al9  1  0.76820500  0.15872200  0.16551600  1
  Al  Al10  1  0.39051800  0.23179500  0.16551600  1
  Al  Al11  1  0.84127800  0.60948200  0.16551600  1
  Al  Al12  1  0.15872200  0.76820500  0.33448400  1
  Al  Al13  1  0.23179500  0.39051800  0.33448400  1
  Al  Al14  1  0.60948200  0.84127800  0.33448400  1
  Al  Al15  1  0.76820500  0.15872200  0.33448400  1
  Al  Al16  1  0.39051800  0.23179500  0.33448400  1
  Al  Al17  1  0.84127800  0.60948200  0.33448400  1
  Al  Al18  1  0.84127800  0.23179500  0.66551600  1
  Al  Al19  1  0.76820500  0.60948200  0.66551600  1
  Al  Al20  1  0.39051800  0.15872200  0.66551600  1
  Al  Al21  1  0.23179500  0.84127800  0.66551600  1
  Al  Al22  1  0.60948200  0.76820500  0.66551600  1
  Al  Al23  1  0.15872200  0.39051800  0.66551600  1
  Al  Al24  1  0.84502000  0.84502000  0.38391500  1
  Al  Al25  1  0.15498000  0.00000000  0.38391500  1
  Al  Al26  1  0.00000000  0.15498000  0.38391500  1
  Al  Al27  1  0.15498000  0.15498000  0.61608500  1
  Al  Al28  1  0.84502000  0.00000000  0.61608500  1
  Al  Al29  1  0.00000000  0.84502000  0.61608500  1
  Al  Al30  1  0.15498000  0.15498000  0.88391500  1
  Al  Al31  1  0.84502000  0.00000000  0.88391500  1
  Al  Al32  1  0.00000000  0.84502000  0.88391500  1
  Al  Al33  1  0.84502000  0.84502000  0.11608500  1
  Al  Al34  1  0.15498000  0.00000000  0.11608500  1
  Al  Al35  1  0.00000000  0.15498000  0.11608500  1
  Al  Al36  1  0.74859100  0.74859100  0.96934000  1
  Al  Al37  1  0.25140900  0.00000000  0.96934000  1
  Al  Al38  1  0.00000000  0.25140900  0.96934000  1
  Al  Al39  1  0.25140900  0.25140900  0.03066000  1
  Al  Al40  1  0.74859100  0.00000000  0.03066000  1
  Al  Al41  1  0.00000000  0.74859100  0.03066000  1
  Al  Al42  1  0.25140900  0.25140900  0.46934000  1
  Al  Al43  1  0.74859100  0.00000000  0.46934000  1
  Al  Al44  1  0.00000000  0.74859100  0.46934000  1
  Al  Al45  1  0.74859100  0.74859100  0.53066000  1
  Al  Al46  1  0.25140900  0.00000000  0.53066000  1
  Al  Al47  1  0.00000000  0.25140900  0.53066000  1
  Al  Al48  1  0.85535900  0.45175500  0.75000000  1
  Al  Al49  1  0.54824500  0.40360400  0.75000000  1
  Al  Al50  1  0.59639600  0.14464100  0.75000000  1
  Al  Al51  1  0.45175500  0.85535900  0.75000000  1
  Al  Al52  1  0.40360400  0.54824500  0.75000000  1
  Al  Al53  1  0.14464100  0.59639600  0.75000000  1
  Al  Al54  1  0.14464100  0.54824500  0.25000000  1
  Al  Al55  1  0.45175500  0.59639600  0.25000000  1
  Al  Al56  1  0.40360400  0.85535900  0.25000000  1
  Al  Al57  1  0.54824500  0.14464100  0.25000000  1
  Al  Al58  1  0.59639600  0.45175500  0.25000000  1
  Al  Al59  1  0.85535900  0.40360400  0.25000000  1
  Al  Al60  1  0.75327900  0.24672100  0.00000000  1
  Al  Al61  1  0.75327900  0.50655900  0.00000000  1
  Al  Al62  1  0.49344100  0.24672100  0.00000000  1
  Al  Al63  1  0.24672100  0.75327900  0.00000000  1
  Al  Al64  1  0.50655900  0.75327900  0.00000000  1
  Al  Al65  1  0.24672100  0.49344100  0.00000000  1
  Al  Al66  1  0.24672100  0.75327900  0.50000000  1
  Al  Al67  1  0.24672100  0.49344100  0.50000000  1
  Al  Al68  1  0.50655900  0.75327900  0.50000000  1
  Al  Al69  1  0.75327900  0.24672100  0.50000000  1
  Al  Al70  1  0.49344100  0.24672100  0.50000000  1
  Al  Al71  1  0.75327900  0.50655900  0.50000000  1
  Al  Al72  1  0.66666700  0.33333300  0.87245300  1
  Al  Al73  1  0.33333300  0.66666700  0.87245300  1
  Al  Al74  1  0.33333300  0.66666700  0.12754700  1
  Al  Al75  1  0.66666700  0.33333300  0.12754700  1
  Al  Al76  1  0.33333300  0.66666700  0.37245300  1
  Al  Al77  1  0.66666700  0.33333300  0.37245300  1
  Al  Al78  1  0.66666700  0.33333300  0.62754700  1
  Al  Al79  1  0.33333300  0.66666700  0.62754700  1
  Al  Al80  1  0.85518200  0.85518200  0.75000000  1
  Al  Al81  1  0.14481800  0.00000000  0.75000000  1
  Al  Al82  1  0.00000000  0.14481800  0.75000000  1
  Al  Al83  1  0.14481800  0.14481800  0.25000000  1
  Al  Al84  1  0.85518200  0.00000000  0.25000000  1
  Al  Al85  1  0.00000000  0.85518200  0.25000000  1
  Cr  Cr0  1  0.26999300  0.26999300  0.75000000  1
  Cr  Cr1  1  0.73000700  0.00000000  0.75000000  1
  Cr  Cr2  1  0.00000000  0.73000700  0.75000000  1
  Cr  Cr3  1  0.73000700  0.73000700  0.25000000  1
  Cr  Cr4  1  0.26999300  0.00000000  0.25000000  1
  Cr  Cr5  1  0.00000000  0.26999300  0.25000000  1
  Cr  Cr6  1  0.00000000  0.00000000  0.00000000  1
  Cr  Cr7  1  0.00000000  0.00000000  0.50000000  1
loop_
_geom_bond_atom_site_label_1
_geom_bond_atom_site_label_2
_geom_bond_distance
_geom_bond_site_symmetry_2
Ho0 Ho3 3.394602 1_556
Ho1 Ho4 3.394602 1_556
Ho2 Ho5 3.394602 1_556
Ho6 Ho9 3.394602 1_555
Ho10 Ho7 3.394602 1_555
Ho11 Ho8 3.394602 1_555
Al0 Cr1 2.643270 1_555
Al0 Al31 2.694151 1_555
Al0 Al72 2.723958 1_555
Al0 Al48 2.757330 1_555
Al0 Al50 2.773226 1_555
Al0 Al82 2.780575 1_655
Al0 Al38 2.868836 1_655
Al0 Al18 2.952084 1_555
Al0 Al5 3.002189 1_655
Al0 Ho2 3.076406 1_655
Al0 Al60 3.077183 1_556
Al0 Ho1 3.296263 1_555
Al1 Cr2 2.643270 1_655
Al1 Al32 2.694157 1_655
Al1 Al72 2.723958 1_555
Al1 Al49 2.757327 1_555
Al1 Al48 2.773217 1_555
Al1 Al80 2.780584 1_555
Al1 Al36 2.868842 1_555
Al1 Al19 2.952084 1_555
Al1 Al4 3.002207 1_555
Al1 Ho0 3.076406 1_555
Al1 Al61 3.077176 1_556
Al1 Ho2 3.296255 1_655
Al2 Cr0 2.643278 1_555
Al2 Al30 2.694161 1_555
Al2 Al72 2.723958 1_555
Al2 Al50 2.757321 1_555
Al2 Al49 2.773224 1_555
Al2 Al81 2.780582 1_555
Al2 Al37 2.868838 1_555
Al2 Al20 2.952084 1_555
Al2 Al3 3.002189 1_545
Al2 Ho1 3.076397 1_555
Al2 Al62 3.077178 1_556
Al2 Ho0 3.296265 1_555
Al3 Cr2 2.643270 1_555
Al3 Al32 2.694151 1_555
Al3 Al73 2.723958 1_555
Al3 Al51 2.757330 1_555
Al3 Al53 2.773226 1_555
Al3 Al81 2.780575 1_565
Al3 Al37 2.868836 1_565
Al3 Ho1 3.076406 1_565
Al3 Al63 3.077183 1_556
Al3 Ho2 3.296263 1_555
Al4 Cr1 2.643270 1_565
Al4 Al73 2.723958 1_555
Al4 Al52 2.757327 1_555
Al4 Al51 2.773217 1_555
Al4 Al80 2.780584 1_555
Al4 Ho0 3.076406 1_555
Al4 Al64 3.077176 1_556
Al4 Ho1 3.296255 1_565
Al5 Cr0 2.643278 1_555
Al5 Al73 2.723958 1_555
Al5 Al53 2.757321 1_555
Al5 Al52 2.773224 1_555
Al5 Al82 2.780582 1_555
Al5 Ho2 3.076397 1_555
Al5 Al65 3.077178 1_556
Al5 Ho0 3.296265 1_555
Al6 Cr4 2.643270 1_565
Al6 Al74 2.723958 1_555
Al6 Al85 2.780575 1_555
Al6 Ho5 3.076406 1_555
Al6 Al63 3.077183 1_555
Al6 Ho4 3.296263 1_565
Al7 Cr5 2.643270 1_555
Al7 Al74 2.723958 1_555
Al7 Al83 2.780584 1_555
Al7 Ho3 3.076406 1_555
Al7 Ho5 3.296255 1_555
Al8 Cr3 2.643278 1_555
Al8 Al84 2.780582 1_565
Al8 Al9 3.002189 1_565
Al8 Ho4 3.076397 1_565
Al8 Ho3 3.296265 1_555
Al9 Cr5 2.643270 1_655
Al9 Ho4 3.076406 1_555
Al9 Ho5 3.296263 1_655
Al10 Cr4 2.643270 1_555
Al10 Al34 2.694157 1_555
Al10 Al75 2.723958 1_555
Al10 Al58 2.757327 1_555
Al10 Al57 2.773217 1_555
Al10 Al83 2.780584 1_555
Al10 Al39 2.868842 1_555
Al10 Al16 2.952084 1_555
Al10 Al7 3.002207 1_555
Al10 Ho3 3.076406 1_555
Al10 Al62 3.077176 1_555
Al10 Ho4 3.296255 1_555
Al11 Cr3 2.643278 1_555
Al11 Al33 2.694161 1_555
Al11 Al75 2.723958 1_555
Al11 Al59 2.757321 1_555
Al11 Al58 2.773224 1_555
Al11 Al85 2.780582 1_655
Al11 Al41 2.868838 1_655
Al11 Al17 2.952084 1_555
Al11 Al6 3.002189 1_655
Al11 Ho5 3.076397 1_655
Al11 Al61 3.077178 1_555
Al11 Ho3 3.296265 1_555
Al12 Cr4 2.643270 1_565
Al12 Al25 2.694151 1_565
Al12 Al76 2.723958 1_555
Al12 Al54 2.757330 1_555
Al12 Al56 2.773226 1_555
Al12 Al85 2.780575 1_555
Al12 Al44 2.868836 1_555
Al12 Al6 2.952084 1_555
Al12 Al17 3.002189 1_455
Al12 Ho8 3.076406 1_555
Al12 Al66 3.077183 1_555
Al12 Ho7 3.296263 1_565
Al13 Cr5 2.643270 1_555
Al13 Al26 2.694157 1_555
Al13 Al76 2.723958 1_555
Al13 Al55 2.757327 1_555
Al13 Al54 2.773217 1_555
Al13 Al83 2.780584 1_555
Al13 Al42 2.868842 1_555
Al13 Al7 2.952084 1_555
Al13 Al16 3.002207 1_555
Al13 Ho6 3.076406 1_555
Al13 Al67 3.077176 1_555
Al13 Ho8 3.296255 1_555
Al14 Cr3 2.643278 1_555
Al14 Al24 2.694161 1_555
Al14 Al76 2.723958 1_555
Al14 Al56 2.757321 1_555
Al14 Al55 2.773224 1_555
Al14 Al84 2.780582 1_565
Al14 Al43 2.868838 1_565
Al14 Al8 2.952084 1_555
Al14 Al15 3.002189 1_565
Al14 Ho7 3.076397 1_565
Al14 Al68 3.077178 1_555
Al14 Ho6 3.296265 1_555
Al15 Cr5 2.643270 1_655
Al15 Al26 2.694151 1_655
Al15 Al77 2.723958 1_555
Al15 Al57 2.757330 1_555
Al15 Al59 2.773226 1_555
Al15 Al84 2.780575 1_555
Al15 Al43 2.868836 1_555
Al15 Al9 2.952084 1_555
Al15 Ho7 3.076406 1_555
Al15 Al69 3.077183 1_555
Al15 Ho8 3.296263 1_655
Al16 Cr4 2.643270 1_555
Al16 Al25 2.694157 1_555
Al16 Al77 2.723958 1_555
Al16 Al58 2.757327 1_555
Al16 Al57 2.773217 1_555
Al16 Al83 2.780584 1_555
Al16 Al42 2.868842 1_555
Al16 Ho6 3.076406 1_555
Al16 Al70 3.077176 1_555
Al16 Ho7 3.296255 1_555
Al17 Cr3 2.643278 1_555
Al17 Al24 2.694161 1_555
Al17 Al77 2.723958 1_555
Al17 Al59 2.757321 1_555
Al17 Al58 2.773224 1_555
Al17 Al85 2.780582 1_655
Al17 Al44 2.868838 1_655
Al17 Ho8 3.076397 1_655
Al17 Al71 3.077178 1_555
Al17 Ho6 3.296265 1_555
Al18 Cr1 2.643270 1_555
Al18 Al28 2.694151 1_555
Al18 Al78 2.723958 1_555
Al18 Al48 2.757330 1_555
Al18 Al50 2.773226 1_555
Al18 Al82 2.780575 1_655
Al18 Al47 2.868836 1_655
Al18 Al23 3.002189 1_655
Al18 Ho11 3.076406 1_655
Al18 Al69 3.077183 1_555
Al18 Ho10 3.296263 1_555
Al19 Cr2 2.643270 1_655
Al19 Al29 2.694157 1_655
Al19 Al78 2.723958 1_555
Al19 Al49 2.757327 1_555
Al19 Al48 2.773217 1_555
Al19 Al80 2.780584 1_555
Al19 Al45 2.868842 1_555
Al19 Al22 3.002207 1_555
Al19 Ho9 3.076406 1_555
Al19 Al71 3.077176 1_555
Al19 Ho11 3.296255 1_655
Al20 Cr0 2.643278 1_555
Al20 Al27 2.694161 1_555
Al20 Al78 2.723958 1_555
Al20 Al50 2.757321 1_555
Al20 Al49 2.773224 1_555
Al20 Al81 2.780582 1_555
Al20 Al46 2.868838 1_555
Al20 Al21 3.002189 1_545
Al20 Ho10 3.076397 1_555
Al20 Al70 3.077178 1_555
Al20 Ho9 3.296265 1_555
Al21 Cr2 2.643270 1_555
Al21 Al29 2.694151 1_555
Al21 Al79 2.723958 1_555
Al21 Al51 2.757330 1_555
Al21 Al53 2.773226 1_555
Al21 Al81 2.780575 1_565
Al21 Al46 2.868836 1_565
Al21 Al3 2.952084 1_555
Al21 Ho10 3.076406 1_565
Al21 Al66 3.077183 1_555
Al21 Ho11 3.296263 1_555
Al22 Cr1 2.643270 1_565
Al22 Al28 2.694157 1_565
Al22 Al79 2.723958 1_555
Al22 Al52 2.757327 1_555
Al22 Al51 2.773217 1_555
Al22 Al80 2.780584 1_555
Al22 Al45 2.868842 1_555
Al22 Al4 2.952084 1_555
Al22 Ho9 3.076406 1_555
Al22 Al68 3.077176 1_555
Al22 Ho10 3.296255 1_565
Al23 Cr0 2.643278 1_555
Al23 Al27 2.694161 1_555
Al23 Al79 2.723958 1_555
Al23 Al53 2.757321 1_555
Al23 Al52 2.773224 1_555
Al23 Al82 2.780582 1_555
Al23 Al47 2.868838 1_555
Al23 Al5 2.952084 1_555
Al23 Ho11 3.076397 1_555
Al23 Al67 3.077178 1_555
Al23 Ho9 3.296265 1_555
Al24 Cr7 2.641550 1_665
Al24 Cr3 2.655474 1_555
Al24 Al45 2.771657 1_555
Al24 Al43 2.825425 1_565
Al24 Al44 2.825425 1_655
Al24 Al85 2.857081 1_655
Al24 Al84 2.857081 1_565
Al24 Al26 2.931409 1_665
Al24 Al25 2.931409 1_665
Al24 Ho6 3.460072 1_555
Al25 Cr7 2.641549 1_555
Al25 Cr4 2.655474 1_555
Al25 Al46 2.771657 1_555
Al25 Al42 2.825425 1_555
Al25 Al44 2.825425 1_545
Al25 Al83 2.857081 1_555
Al25 Al85 2.857081 1_545
Al25 Al26 2.931409 1_555
Al25 Ho7 3.460072 1_555
Al26 Cr7 2.641549 1_555
Al26 Cr5 2.655474 1_555
Al26 Al47 2.771657 1_555
Al26 Al42 2.825425 1_555
Al26 Al43 2.825425 1_455
Al26 Al83 2.857081 1_555
Al26 Al84 2.857081 1_455
Al26 Ho8 3.460072 1_555
Al27 Cr7 2.641550 1_555
Al27 Cr0 2.655474 1_555
Al27 Al42 2.771657 1_555
Al27 Al47 2.825425 1_555
Al27 Al46 2.825425 1_555
Al27 Al82 2.857081 1_555
Al27 Al81 2.857081 1_555
Al27 Al29 2.931409 1_545
Al27 Al28 2.931409 1_455
Al27 Ho9 3.460072 1_555
Al28 Cr7 2.641549 1_655
Al28 Cr1 2.655474 1_555
Al28 Al43 2.771657 1_555
Al28 Al45 2.825425 1_545
Al28 Al47 2.825425 1_655
Al28 Al80 2.857081 1_545
Al28 Al82 2.857081 1_655
Al28 Al29 2.931409 1_645
Al28 Ho10 3.460072 1_555
Al29 Cr7 2.641549 1_565
Al29 Cr2 2.655474 1_555
Al29 Al44 2.771657 1_555
Al29 Al45 2.825425 1_455
Al29 Al46 2.825425 1_565
Al29 Al80 2.857081 1_455
Al29 Al81 2.857081 1_565
Al29 Ho11 3.460072 1_555
Al30 Cr6 2.641550 1_556
Al30 Cr0 2.655474 1_555
Al30 Al5 2.694161 1_555
Al30 Al39 2.771657 1_556
Al30 Al37 2.825425 1_555
Al30 Al38 2.825425 1_555
Al30 Al82 2.857081 1_555
Al30 Al81 2.857081 1_555
Al30 Al32 2.931409 1_545
Al30 Al31 2.931409 1_455
Al30 Ho0 3.460072 1_555
Al31 Cr6 2.641549 1_656
Al31 Cr1 2.655474 1_555
Al31 Al4 2.694157 1_545
Al31 Al40 2.771657 1_556
Al31 Al36 2.825425 1_545
Al31 Al38 2.825425 1_655
Al31 Al80 2.857081 1_545
Al31 Al82 2.857081 1_655
Al31 Al32 2.931409 1_645
Al31 Ho1 3.460072 1_555
Al32 Cr6 2.641549 1_566
Al32 Cr2 2.655474 1_555
Al32 Al41 2.771657 1_556
Al32 Al36 2.825425 1_455
Al32 Al37 2.825425 1_565
Al32 Al80 2.857081 1_455
Al32 Al81 2.857081 1_565
Al32 Ho2 3.460072 1_555
Al33 Cr6 2.641550 1_665
Al33 Cr3 2.655474 1_555
Al33 Al8 2.694161 1_555
Al33 Al36 2.771657 1_554
Al33 Al40 2.825425 1_565
Al33 Al41 2.825425 1_655
Al33 Al85 2.857081 1_655
Al33 Al84 2.857081 1_565
Al33 Al34 2.931409 1_665
Al33 Al35 2.931409 1_665
Al33 Ho3 3.460072 1_555
Al34 Cr6 2.641549 1_555
Al34 Cr4 2.655474 1_555
Al34 Al6 2.694151 1_545
Al34 Al37 2.771657 1_554
Al34 Al39 2.825425 1_555
Al34 Al41 2.825425 1_545
Al34 Al83 2.857081 1_555
Al34 Al85 2.857081 1_545
Al34 Al35 2.931409 1_555
Al34 Ho4 3.460072 1_555
Al35 Cr6 2.641549 1_555
Al35 Cr5 2.655474 1_555
Al35 Al9 2.694151 1_455
Al35 Al7 2.694157 1_555
Al35 Al38 2.771657 1_554
Al35 Al39 2.825425 1_555
Al35 Al40 2.825425 1_455
Al35 Al83 2.857081 1_555
Al35 Al84 2.857081 1_455
Al35 Ho5 3.460072 1_555
Al36 Al64 2.722284 1_556
Al36 Al61 2.722284 1_556
Al36 Cr6 2.797266 1_666
Al36 Al4 2.868842 1_555
Al36 Al41 2.947120 1_656
Al36 Al40 2.947120 1_566
Al36 Ho0 3.244565 1_555
Al36 Ho3 3.247736 1_556
Al37 Al62 2.722290 1_556
Al37 Al63 2.722295 1_546
Al37 Cr6 2.797266 1_556
Al37 Al39 2.947120 1_556
Al37 Al41 2.947121 1_546
Al37 Ho1 3.244565 1_555
Al37 Ho4 3.247736 1_556
Al38 Al65 2.722290 1_556
Al38 Al60 2.722295 1_456
Al38 Cr6 2.797266 1_556
Al38 Al5 2.868838 1_555
Al38 Al39 2.947120 1_556
Al38 Al40 2.947121 1_456
Al38 Ho2 3.244565 1_555
Al38 Ho5 3.247736 1_556
Al39 Al62 2.722284 1_555
Al39 Al65 2.722284 1_555
Al39 Cr6 2.797266 1_555
Al39 Al7 2.868842 1_555
Al39 Ho3 3.244565 1_555
Al39 Ho0 3.247736 1_554
Al40 Al64 2.722290 1_545
Al40 Al60 2.722295 1_555
Al40 Cr6 2.797266 1_655
Al40 Al9 2.868836 1_555
Al40 Al8 2.868838 1_545
Al40 Ho4 3.244565 1_555
Al40 Ho1 3.247736 1_554
Al41 Al61 2.722290 1_455
Al41 Al63 2.722295 1_555
Al41 Cr6 2.797266 1_565
Al41 Al6 2.868836 1_555
Al41 Ho5 3.244565 1_555
Al41 Ho2 3.247736 1_554
Al42 Al67 2.722284 1_555
Al42 Al70 2.722284 1_555
Al42 Cr7 2.797266 1_555
Al42 Al46 2.947120 1_555
Al42 Al47 2.947120 1_555
Al42 Ho6 3.244565 1_555
Al42 Ho9 3.247736 1_555
Al43 Al68 2.722290 1_545
Al43 Al69 2.722295 1_555
Al43 Cr7 2.797266 1_655
Al43 Al45 2.947120 1_545
Al43 Al47 2.947121 1_655
Al43 Ho7 3.244565 1_555
Al43 Ho10 3.247736 1_555
Al44 Al71 2.722290 1_455
Al44 Al66 2.722295 1_555
Al44 Cr7 2.797266 1_565
Al44 Al45 2.947120 1_455
Al44 Al46 2.947121 1_565
Al44 Ho8 3.244565 1_555
Al44 Ho11 3.247736 1_555
Al45 Al68 2.722284 1_555
Al45 Al71 2.722284 1_555
Al45 Cr7 2.797266 1_665
Al45 Ho9 3.244565 1_555
Al45 Ho6 3.247736 1_555
Al46 Al70 2.722290 1_555
Al46 Al66 2.722295 1_545
Al46 Cr7 2.797266 1_555
Al46 Ho10 3.244565 1_555
Al46 Ho7 3.247736 1_555
Al47 Al67 2.722290 1_555
Al47 Al69 2.722295 1_455
Al47 Cr7 2.797266 1_555
Al47 Ho11 3.244565 1_555
Al47 Ho8 3.247736 1_555
Al48 Cr2 2.632224 1_655
Al48 Al53 2.735850 1_655
Al48 Al72 2.798347 1_555
Al48 Al78 2.798347 1_555
Al48 Ho2 3.029441 1_655
Al48 Ho11 3.029441 1_655
Al49 Cr0 2.632224 1_555
Al49 Al52 2.735850 1_555
Al49 Al72 2.798353 1_555
Al49 Al78 2.798353 1_555
Al49 Ho0 3.029441 1_555
Al49 Ho9 3.029441 1_555
Al50 Cr1 2.632224 1_555
Al50 Al51 2.735850 1_545
Al50 Al72 2.798346 1_555
Al50 Al78 2.798346 1_555
Al50 Ho1 3.029441 1_555
Al50 Ho10 3.029441 1_555
Al51 Cr1 2.632224 1_565
Al51 Al73 2.798347 1_555
Al51 Al79 2.798347 1_555
Al51 Ho1 3.029441 1_565
Al51 Ho10 3.029441 1_565
Al52 Cr0 2.632224 1_555
Al52 Al73 2.798353 1_555
Al52 Al79 2.798353 1_555
Al52 Ho0 3.029441 1_555
Al52 Ho9 3.029441 1_555
Al53 Cr2 2.632224 1_555
Al53 Al73 2.798346 1_555
Al53 Al79 2.798346 1_555
Al53 Ho2 3.029441 1_555
Al53 Ho11 3.029441 1_555
Al54 Cr5 2.632224 1_555
Al54 Al59 2.735850 1_455
Al54 Al6 2.757330 1_555
Al54 Al7 2.773217 1_555
Al54 Al76 2.798347 1_555
Al54 Al74 2.798347 1_555
Al54 Ho8 3.029441 1_555
Al54 Ho5 3.029441 1_555
Al55 Cr3 2.632224 1_555
Al55 Al58 2.735850 1_555
Al55 Al7 2.757327 1_555
Al55 Al8 2.773224 1_555
Al55 Al76 2.798353 1_555
Al55 Al74 2.798353 1_555
Al55 Ho6 3.029441 1_555
Al55 Ho3 3.029441 1_555
Al56 Cr4 2.632224 1_565
Al56 Al57 2.735850 1_565
Al56 Al8 2.757321 1_555
Al56 Al6 2.773226 1_555
Al56 Al76 2.798346 1_555
Al56 Al74 2.798346 1_555
Al56 Ho7 3.029441 1_565
Al56 Ho4 3.029441 1_565
Al57 Cr4 2.632224 1_555
Al57 Al9 2.757330 1_555
Al57 Al77 2.798347 1_555
Al57 Al75 2.798347 1_555
Al57 Ho7 3.029441 1_555
Al57 Ho4 3.029441 1_555
Al58 Cr3 2.632224 1_555
Al58 Al77 2.798353 1_555
Al58 Al75 2.798353 1_555
Al58 Ho6 3.029441 1_555
Al58 Ho3 3.029441 1_555
Al59 Cr5 2.632224 1_655
Al59 Al9 2.773226 1_555
Al59 Al77 2.798346 1_555
Al59 Al75 2.798346 1_555
Al59 Ho8 3.029441 1_655
Al59 Ho5 3.029441 1_655
Al60 Al75 2.765799 1_555
Al60 Al72 2.765799 1_554
Al60 Al62 2.837546 1_555
Al60 Al61 2.837546 1_555
Al60 Ho1 3.067738 1_554
Al60 Ho5 3.067738 1_655
Al60 Al9 3.077183 1_555
Al60 Ho4 3.356389 1_555
Al60 Ho2 3.356389 1_654
Al61 Al75 2.765810 1_555
Al61 Al72 2.765810 1_554
Al61 Al62 2.837546 1_555
Al61 Ho3 3.067732 1_555
Al61 Ho2 3.067741 1_654
Al61 Ho0 3.356385 1_554
Al61 Ho5 3.356394 1_655
Al62 Al75 2.765810 1_555
Al62 Al72 2.765810 1_554
Al62 Ho0 3.067732 1_554
Al62 Ho4 3.067741 1_555
Al62 Ho3 3.356385 1_555
Al62 Ho1 3.356394 1_554
Al63 Al74 2.765799 1_555
Al63 Al73 2.765799 1_554
Al63 Al65 2.837546 1_555
Al63 Al64 2.837546 1_555
Al63 Ho2 3.067738 1_554
Al63 Ho4 3.067738 1_565
Al63 Ho5 3.356389 1_555
Al63 Ho1 3.356389 1_564
Al64 Al74 2.765810 1_555
Al64 Al73 2.765810 1_554
Al64 Al65 2.837546 1_555
Al64 Ho3 3.067732 1_555
Al64 Ho1 3.067741 1_564
Al64 Al8 3.077178 1_555
Al64 Ho0 3.356385 1_554
Al64 Ho4 3.356394 1_565
Al65 Al74 2.765810 1_555
Al65 Al73 2.765810 1_554
Al65 Ho0 3.067732 1_554
Al65 Ho5 3.067741 1_555
Al65 Al7 3.077176 1_555
Al65 Ho3 3.356385 1_555
Al65 Ho2 3.356394 1_554
Al66 Al79 2.765799 1_555
Al66 Al76 2.765799 1_555
Al66 Al68 2.837546 1_555
Al66 Al67 2.837546 1_555
Al66 Ho11 3.067738 1_555
Al66 Ho7 3.067738 1_565
Al66 Ho10 3.356389 1_565
Al66 Ho8 3.356389 1_555
Al67 Al79 2.765810 1_555
Al67 Al76 2.765810 1_555
Al67 Al68 2.837546 1_555
Al67 Ho9 3.067732 1_555
Al67 Ho8 3.067741 1_555
Al67 Ho6 3.356385 1_555
Al67 Ho11 3.356394 1_555
Al68 Al79 2.765810 1_555
Al68 Al76 2.765810 1_555
Al68 Ho6 3.067732 1_555
Al68 Ho10 3.067741 1_565
Al68 Ho9 3.356385 1_555
Al68 Ho7 3.356394 1_565
Al69 Al78 2.765799 1_555
Al69 Al77 2.765799 1_555
Al69 Al71 2.837546 1_555
Al69 Al70 2.837546 1_555
Al69 Ho10 3.067738 1_555
Al69 Ho8 3.067738 1_655
Al69 Ho11 3.356389 1_655
Al69 Ho7 3.356389 1_555
Al70 Al78 2.765810 1_555
Al70 Al77 2.765810 1_555
Al70 Al71 2.837546 1_555
Al70 Ho9 3.067732 1_555
Al70 Ho7 3.067741 1_555
Al70 Ho6 3.356385 1_555
Al70 Ho10 3.356394 1_555
Al71 Al78 2.765810 1_555
Al71 Al77 2.765810 1_555
Al71 Ho6 3.067732 1_555
Al71 Ho11 3.067741 1_655
Al71 Ho9 3.356385 1_555
Al71 Ho8 3.356394 1_655
Al72 Ho1 3.218936 1_555
Al72 Ho2 3.218937 1_655
Al72 Ho0 3.218946 1_555
Al73 Ho2 3.218936 1_555
Al73 Ho1 3.218937 1_565
Al73 Ho0 3.218946 1_555
Al74 Al8 2.723958 1_555
Al74 Ho4 3.218936 1_565
Al74 Ho5 3.218937 1_555
Al74 Ho3 3.218946 1_555
Al75 Al9 2.723958 1_555
Al75 Ho5 3.218936 1_655
Al75 Ho4 3.218937 1_555
Al75 Ho3 3.218946 1_555
Al76 Ho7 3.218936 1_565
Al76 Ho8 3.218937 1_555
Al76 Ho6 3.218946 1_555
Al77 Ho8 3.218936 1_655
Al77 Ho7 3.218937 1_555
Al77 Ho6 3.218946 1_555
Al78 Ho10 3.218936 1_555
Al78 Ho11 3.218937 1_655
Al78 Ho9 3.218946 1_555
Al79 Ho11 3.218936 1_555
Al79 Ho10 3.218937 1_565
Al79 Ho9 3.218946 1_555
Al80 Cr2 2.555678 1_655
Al80 Cr1 2.555678 1_565
Al80 Al81 2.739198 1_665
Al80 Al82 2.739198 1_665
Al81 Cr0 2.555678 1_555
Al81 Cr2 2.555678 1_545
Al81 Al82 2.739197 1_555
Al82 Cr0 2.555678 1_555
Al82 Cr1 2.555678 1_455
Al83 Cr4 2.555678 1_555
Al83 Cr5 2.555678 1_555
Al83 Al84 2.739198 1_455
Al83 Al85 2.739198 1_545
Al84 Cr3 2.555678 1_545
Al84 Cr5 2.555678 1_655
Al84 Al85 2.739197 1_645
Al84 Al9 2.780575 1_555
Al85 Cr3 2.555678 1_455
Al85 Cr4 2.555678 1_565
Cr0 Ho0 3.475135 1_555
Cr0 Ho9 3.475135 1_555
Cr1 Ho1 3.475135 1_555
Cr1 Ho10 3.475135 1_555
Cr2 Ho2 3.475135 1_555
Cr2 Ho11 3.475135 1_555
Cr3 Ho3 3.475135 1_555
Cr3 Ho6 3.475135 1_555
Cr4 Ho4 3.475135 1_555
Cr4 Ho7 3.475135 1_555
Cr5 Ho8 3.475135 1_555
Cr5 Ho5 3.475135 1_555
