# generated using pymatgen
data_SrLa3Mn4O10
_symmetry_space_group_name_H-M   'P 1'
_cell_length_a   9.09883940
_cell_length_b   9.09883940
_cell_length_c   11.57965860
_cell_angle_alpha   71.54723456
_cell_angle_beta   71.54723456
_cell_angle_gamma   35.71055114
_symmetry_Int_Tables_number   1
_chemical_formula_structural   SrLa3Mn4O10
_chemical_formula_sum   'Sr2 La6 Mn8 O20'
_cell_volume   527.71973633
_cell_formula_units_Z   2
loop_
 _symmetry_equiv_pos_site_id
 _symmetry_equiv_pos_as_xyz
  1  'x, y, z'
loop_
 _atom_site_type_symbol
 _atom_site_label
 _atom_site_symmetry_multiplicity
 _atom_site_fract_x
 _atom_site_fract_y
 _atom_site_fract_z
 _atom_site_occupancy
  Sr  Sr0  1  0.60675300  0.62024700  0.18736900  1
  Sr  Sr1  1  0.62024700  0.60675300  0.68736900  1
  La  La0  1  0.87657300  0.90269400  0.04368900  1
  La  La1  1  0.09201700  0.13324900  0.45672700  1
  La  La2  1  0.13324900  0.09201700  0.95672700  1
  La  La3  1  0.90269400  0.87657300  0.54368900  1
  La  La4  1  0.37920900  0.40184100  0.31527500  1
  La  La5  1  0.40184100  0.37920900  0.81527500  1
  Mn  Mn0  1  0.50292500  0.50011000  0.00104200  1
  Mn  Mn1  1  0.50011000  0.50292500  0.50104200  1
  Mn  Mn2  1  0.71153300  0.78926100  0.34672400  1
  Mn  Mn3  1  0.20577100  0.29279600  0.15264000  1
  Mn  Mn4  1  0.29279600  0.20577100  0.65264000  1
  Mn  Mn5  1  0.78926100  0.71153300  0.84672400  1
  Mn  Mn6  1  0.00097300  0.00271100  0.24960500  1
  Mn  Mn7  1  0.00271100  0.00097300  0.74960500  1
  O  O0  1  0.83697800  0.67735800  0.17081700  1
  O  O1  1  0.32479500  0.17637200  0.32795000  1
  O  O2  1  0.17637200  0.32479500  0.82795000  1
  O  O3  1  0.67735800  0.83697800  0.67081700  1
  O  O4  1  0.14240700  0.12577800  0.14592600  1
  O  O5  1  0.88669000  0.84492800  0.35163000  1
  O  O6  1  0.84492800  0.88669000  0.85163000  1
  O  O7  1  0.12577800  0.14240700  0.64592600  1
  O  O8  1  0.24315300  0.73002600  0.62853900  1
  O  O9  1  0.26103500  0.74797700  0.87811900  1
  O  O10  1  0.74797700  0.26103500  0.37811900  1
  O  O11  1  0.73002600  0.24315300  0.12853900  1
  O  O12  1  0.23265800  0.72602400  0.12969300  1
  O  O13  1  0.26353200  0.76772300  0.37630100  1
  O  O14  1  0.76772300  0.26353200  0.87630100  1
  O  O15  1  0.72602400  0.23265800  0.62969300  1
  O  O16  1  0.40078100  0.31880600  0.02757900  1
  O  O17  1  0.68702000  0.58729400  0.46037700  1
  O  O18  1  0.58729400  0.68702000  0.96037700  1
  O  O19  1  0.31880600  0.40078100  0.52757900  1
loop_
_geom_bond_atom_site_label_1
_geom_bond_atom_site_label_2
_geom_bond_distance
_geom_bond_site_symmetry_2
La0 O0 2.335317 1_555
La0 O6 2.393462 1_554
La0 O16 2.560764 1_565
La0 O12 2.577690 1_655
La0 O11 2.594054 1_565
La0 O9 2.712999 1_654
La0 O14 2.724589 1_564
La0 O16 3.150051 1_655
La1 O7 2.341869 1_555
La1 O1 2.417306 1_555
La1 O17 2.436753 1_455
La1 O13 2.641223 1_545
La1 O10 2.683799 1_455
La1 O15 2.819990 1_455
La1 O8 2.868398 1_545
La1 O17 3.213433 1_545
La2 O4 2.341869 1_556
La2 O2 2.417306 1_555
La2 O18 2.436753 1_545
La2 O14 2.641223 1_455
La2 O9 2.683799 1_545
La2 O12 2.819990 1_546
La2 O11 2.868398 1_456
La2 O18 3.213433 1_455
La3 O3 2.335317 1_555
La3 O5 2.393462 1_555
La3 O19 2.560764 1_655
La3 O15 2.577690 1_565
La3 O8 2.594054 1_655
La3 O10 2.712999 1_565
La3 O13 2.724589 1_655
La3 O19 3.150051 1_565
La4 O19 2.341834 1_555
La4 O1 2.426561 1_555
La4 O12 2.551607 1_555
La4 O5 2.655877 1_455
La4 O11 2.659311 1_555
La4 O10 2.721012 1_555
La4 O13 2.831650 1_555
La4 O5 3.009723 1_545
La5 O16 2.341834 1_556
La5 O2 2.426561 1_555
La5 O15 2.551607 1_555
La5 O6 2.655877 1_545
La5 O8 2.659311 1_555
La5 O9 2.721012 1_555
La5 O14 2.831650 1_555
La5 O6 3.009723 1_455
Mn0 O11 1.953542 1_555
Mn0 O9 1.961286 1_554
Mn0 O14 1.966700 1_554
Mn0 O12 1.975462 1_555
Mn0 O18 2.255577 1_554
Mn0 O16 2.380687 1_555
Mn1 O8 1.953542 1_555
Mn1 O10 1.961286 1_555
Mn1 O13 1.966700 1_555
Mn1 O15 1.975462 1_555
Mn1 O17 2.255577 1_555
Mn1 O19 2.380687 1_555
Mn2 O17 2.026713 1_555
Mn2 O5 2.046013 1_555
Mn2 O0 2.107715 1_555
Mn2 O1 2.169719 1_565
Mn3 O16 2.034668 1_555
Mn3 O4 2.042995 1_555
Mn3 O0 2.121167 1_455
Mn3 O1 2.140886 1_555
Mn4 O19 2.034668 1_555
Mn4 O7 2.042995 1_555
Mn4 O3 2.121167 1_545
Mn4 O2 2.140886 1_555
Mn5 O18 2.026713 1_555
Mn5 O6 2.046013 1_555
Mn5 O3 2.107715 1_555
Mn5 O2 2.169719 1_655
Mn6 O10 2.072987 1_455
Mn6 O11 2.077713 1_455
Mn6 O13 2.090243 1_545
Mn6 O12 2.109825 1_545
Mn6 O4 2.205076 1_555
Mn6 O5 2.260751 1_445
Mn7 O9 2.072987 1_545
Mn7 O8 2.077713 1_545
Mn7 O14 2.090243 1_455
Mn7 O15 2.109825 1_455
Mn7 O7 2.205076 1_555
Mn7 O6 2.260751 1_445
O0 Sr0 2.478989 1_555
O3 Sr1 2.478989 1_555
O4 Sr0 2.750452 1_545
O4 Sr0 2.915955 1_455
O7 Sr1 2.750452 1_455
O7 Sr1 2.915955 1_545
O8 Sr1 2.870703 1_555
O9 Sr1 2.760224 1_555
O10 Sr0 2.760224 1_555
O11 Sr0 2.870703 1_555
O12 Sr0 2.944576 1_555
O13 Sr0 2.658501 1_555
O14 Sr1 2.658501 1_555
O15 Sr1 2.944576 1_555
O17 Sr1 2.533457 1_555
O18 Sr0 2.533457 1_556
