# generated using pymatgen
data_Rb4Al2S5
_symmetry_space_group_name_H-M   'P 1'
_cell_length_a   9.71998000
_cell_length_b   11.64918000
_cell_length_c   11.68829500
_cell_angle_alpha   90.00000000
_cell_angle_beta   90.00000000
_cell_angle_gamma   90.00000000
_symmetry_Int_Tables_number   1
_chemical_formula_structural   Rb4Al2S5
_chemical_formula_sum   'Rb16 Al8 S20'
_cell_volume   1323.46326564
_cell_formula_units_Z   4
loop_
 _symmetry_equiv_pos_site_id
 _symmetry_equiv_pos_as_xyz
  1  'x, y, z'
loop_
 _atom_site_type_symbol
 _atom_site_label
 _atom_site_symmetry_multiplicity
 _atom_site_fract_x
 _atom_site_fract_y
 _atom_site_fract_z
 _atom_site_occupancy
  Rb  Rb0  1  0.23531500  0.51899000  0.89110700  1
  Rb  Rb1  1  0.73531500  0.48101000  0.10889300  1
  Rb  Rb2  1  0.73531500  0.98101000  0.39110700  1
  Rb  Rb3  1  0.23531500  0.01899000  0.60889300  1
  Rb  Rb4  1  0.71389000  0.55315100  0.42331500  1
  Rb  Rb5  1  0.21389000  0.44684900  0.57668500  1
  Rb  Rb6  1  0.21389000  0.94684900  0.92331500  1
  Rb  Rb7  1  0.71389000  0.05315100  0.07668500  1
  Rb  Rb8  1  0.36619600  0.75404400  0.42609200  1
  Rb  Rb9  1  0.86619600  0.24595600  0.57390800  1
  Rb  Rb10  1  0.86619600  0.74595600  0.92609200  1
  Rb  Rb11  1  0.36619600  0.25404400  0.07390800  1
  Rb  Rb12  1  0.47468500  0.75620500  0.11116400  1
  Rb  Rb13  1  0.97468500  0.24379500  0.88883600  1
  Rb  Rb14  1  0.97468500  0.74379500  0.61116400  1
  Rb  Rb15  1  0.47468500  0.25620500  0.38883600  1
  Al  Al0  1  0.18077800  0.54041300  0.21996400  1
  Al  Al1  1  0.68077800  0.45958700  0.78003600  1
  Al  Al2  1  0.68077800  0.95958700  0.71996400  1
  Al  Al3  1  0.18077800  0.04041300  0.28003600  1
  Al  Al4  1  0.00078000  0.74976400  0.26313200  1
  Al  Al5  1  0.50078000  0.25023600  0.73686800  1
  Al  Al6  1  0.50078000  0.75023600  0.76313200  1
  Al  Al7  1  0.00078000  0.24976400  0.23686800  1
  S  S0  1  0.40325700  0.50840800  0.25439800  1
  S  S1  1  0.90325700  0.49159200  0.74560200  1
  S  S2  1  0.90325700  0.99159200  0.75439800  1
  S  S3  1  0.40325700  0.00840800  0.24560200  1
  S  S4  1  0.04976500  0.59038200  0.37472300  1
  S  S5  1  0.54976500  0.40961800  0.62527700  1
  S  S6  1  0.54976500  0.90961800  0.87472300  1
  S  S7  1  0.04976500  0.09038200  0.12527700  1
  S  S8  1  0.14249900  0.70681900  0.11241200  1
  S  S9  1  0.64249900  0.29318100  0.88758800  1
  S  S10  1  0.64249900  0.79318100  0.61241200  1
  S  S11  1  0.14249900  0.20681900  0.38758800  1
  S  S12  1  0.28012700  0.73723100  0.71407500  1
  S  S13  1  0.78012700  0.26276900  0.28592500  1
  S  S14  1  0.78012700  0.76276900  0.21407500  1
  S  S15  1  0.28012700  0.23723100  0.78592500  1
  S  S16  1  0.07229000  0.89768000  0.37979700  1
  S  S17  1  0.57229000  0.10232000  0.62020300  1
  S  S18  1  0.57229000  0.60232000  0.87979700  1
  S  S19  1  0.07229000  0.39768000  0.12020300  1
loop_
_geom_bond_atom_site_label_1
_geom_bond_atom_site_label_2
_geom_bond_distance
_geom_bond_site_symmetry_2
Rb0 S12 3.306774 1_555
Rb0 S19 3.417350 1_556
Rb0 S18 3.418767 1_555
Rb0 S8 3.506051 1_556
Rb0 S15 3.531909 1_555
Rb0 S1 3.662192 1_455
Rb1 S13 3.306774 1_555
Rb1 S18 3.417350 1_554
Rb1 S19 3.418767 1_655
Rb1 S9 3.506051 1_554
Rb1 S14 3.531909 1_555
Rb1 S0 3.662192 1_555
Rb2 S14 3.306774 1_555
Rb2 S17 3.417350 1_565
Rb2 S16 3.418767 1_655
Rb2 S10 3.506051 1_555
Rb2 S13 3.531909 1_565
Rb2 S3 3.662192 1_565
Rb3 S15 3.306774 1_555
Rb3 S16 3.417350 1_545
Rb3 S17 3.418767 1_555
Rb3 S11 3.506051 1_555
Rb3 S12 3.531909 1_545
Rb3 S2 3.662192 1_445
Rb4 S5 3.303494 1_555
Rb4 S4 3.341996 1_655
Rb4 S14 3.515469 1_555
Rb4 S10 3.631126 1_555
Rb4 S0 3.645022 1_555
Rb4 S13 3.799476 1_555
Rb5 S4 3.303494 1_555
Rb5 S5 3.341996 1_555
Rb5 S15 3.515469 1_555
Rb5 S11 3.631126 1_555
Rb5 S1 3.645022 1_455
Rb5 S12 3.799476 1_555
Rb6 S7 3.303494 1_566
Rb6 S6 3.341996 1_555
Rb6 S12 3.515469 1_555
Rb6 S8 3.631126 1_556
Rb6 S2 3.645022 1_455
Rb6 S15 3.799476 1_565
Rb7 S6 3.303494 1_544
Rb7 S7 3.341996 1_655
Rb7 S13 3.515469 1_555
Rb7 S9 3.631126 1_554
Rb7 S3 3.645022 1_555
Rb7 S14 3.799476 1_545
Rb8 S16 3.354641 1_555
Rb8 S12 3.473960 1_555
Rb8 S10 3.487589 1_555
Rb8 S0 3.513545 1_555
Rb8 S3 3.655190 1_565
Rb8 S4 3.668146 1_555
Rb9 S17 3.354641 1_555
Rb9 S13 3.473960 1_555
Rb9 S11 3.487589 1_655
Rb9 S1 3.513545 1_555
Rb9 S2 3.655190 1_545
Rb9 S5 3.668146 1_555
Rb10 S18 3.354641 1_555
Rb10 S14 3.473960 1_556
Rb10 S8 3.487589 1_656
Rb10 S2 3.513545 1_555
Rb10 S1 3.655190 1_555
Rb10 S6 3.668146 1_555
Rb11 S19 3.354641 1_555
Rb11 S15 3.473960 1_554
Rb11 S9 3.487589 1_554
Rb11 S3 3.513545 1_555
Rb11 S0 3.655190 1_555
Rb11 S7 3.668146 1_555
Rb12 S14 3.204218 1_555
Rb12 S8 3.279727 1_555
Rb12 S6 3.371034 1_554
Rb12 S18 3.380350 1_554
Rb12 S3 3.403346 1_565
Rb12 S0 3.408443 1_555
Rb13 S15 3.204218 1_655
Rb13 S9 3.279727 1_555
Rb13 S7 3.371034 1_656
Rb13 S19 3.380350 1_656
Rb13 S2 3.403346 1_545
Rb13 S1 3.408443 1_555
Rb14 S12 3.204218 1_655
Rb14 S10 3.279727 1_555
Rb14 S4 3.371034 1_655
Rb14 S16 3.380350 1_655
Rb14 S1 3.403346 1_555
Rb14 S2 3.408443 1_555
Rb15 S13 3.204218 1_555
Rb15 S11 3.279727 1_555
Rb15 S5 3.371034 1_555
Rb15 S17 3.380350 1_555
Rb15 S0 3.403346 1_555
Rb15 S3 3.408443 1_555
Al0 S0 2.231000 1_555
Al0 S4 2.287467 1_555
Al0 S19 2.288287 1_555
Al0 S8 2.340191 1_555
Al1 S1 2.231000 1_555
Al1 S5 2.287467 1_555
Al1 S18 2.288287 1_555
Al1 S9 2.340191 1_555
Al2 S2 2.231000 1_555
Al2 S6 2.287467 1_555
Al2 S17 2.288287 1_565
Al2 S10 2.340191 1_555
Al3 S3 2.231000 1_555
Al3 S7 2.287467 1_555
Al3 S16 2.288287 1_545
Al3 S11 2.340191 1_555
Al4 S14 2.225231 1_455
Al4 S8 2.291559 1_555
Al4 S16 2.304702 1_555
Al4 S4 2.318436 1_555
Al5 S15 2.225231 1_555
Al5 S9 2.291559 1_555
Al5 S17 2.304702 1_555
Al5 S5 2.318436 1_555
Al6 S12 2.225231 1_555
Al6 S10 2.291559 1_555
Al6 S18 2.304702 1_555
Al6 S6 2.318436 1_555
Al7 S13 2.225231 1_455
Al7 S11 2.291559 1_555
Al7 S19 2.304702 1_555
Al7 S7 2.318436 1_555
