# generated using pymatgen
data_EuMg3SiN4
_symmetry_space_group_name_H-M   'P 1'
_cell_length_a   10.65987704
_cell_length_b   10.65987704
_cell_length_c   10.65987704
_cell_angle_alpha   113.97490305
_cell_angle_beta   113.97490305
_cell_angle_gamma   100.79683787
_symmetry_Int_Tables_number   1
_chemical_formula_structural   EuMg3SiN4
_chemical_formula_sum   'Eu8 Mg24 Si8 N32'
_cell_volume   916.78997745
_cell_formula_units_Z   8
loop_
 _symmetry_equiv_pos_site_id
 _symmetry_equiv_pos_as_xyz
  1  'x, y, z'
loop_
 _atom_site_type_symbol
 _atom_site_label
 _atom_site_symmetry_multiplicity
 _atom_site_fract_x
 _atom_site_fract_y
 _atom_site_fract_z
 _atom_site_occupancy
  Eu  Eu0  1  0.23098200  0.20064700  0.50773100  1
  Eu  Eu1  1  0.69291600  0.72325100  0.49226900  1
  Eu  Eu2  1  0.95064700  0.94291600  0.46966500  1
  Eu  Eu3  1  0.47325100  0.48098200  0.53033500  1
  Eu  Eu4  1  0.51901800  0.04935300  0.99226900  1
  Eu  Eu5  1  0.05708400  0.52674900  0.00773100  1
  Eu  Eu6  1  0.79935300  0.30708400  0.03033500  1
  Eu  Eu7  1  0.27674900  0.76901800  0.96966500  1
  Mg  Mg0  1  0.94249600  0.80482800  0.13849700  1
  Mg  Mg1  1  0.66633100  0.80399900  0.86150300  1
  Mg  Mg2  1  0.55482800  0.91633100  0.36233200  1
  Mg  Mg3  1  0.55399900  0.19249600  0.63766800  1
  Mg  Mg4  1  0.80750400  0.44517200  0.36150300  1
  Mg  Mg5  1  0.08366900  0.44600100  0.63849700  1
  Mg  Mg6  1  0.19517200  0.33366900  0.13766800  1
  Mg  Mg7  1  0.19600100  0.05750400  0.86233200  1
  Mg  Mg8  1  0.91508200  0.09519600  0.14047000  1
  Mg  Mg9  1  0.95472500  0.77461200  0.85953000  1
  Mg  Mg10  1  0.84519600  0.20472500  0.68011400  1
  Mg  Mg11  1  0.52461200  0.16508200  0.31988600  1
  Mg  Mg12  1  0.83491800  0.15480400  0.35953000  1
  Mg  Mg13  1  0.79527500  0.47538800  0.64047000  1
  Mg  Mg14  1  0.90480400  0.04527500  0.81988600  1
  Mg  Mg15  1  0.22538800  0.08491800  0.18011400  1
  Mg  Mg16  1  0.46398200  0.28187600  0.87301500  1
  Mg  Mg17  1  0.40886100  0.59096700  0.12698500  1
  Mg  Mg18  1  0.03187600  0.65886100  0.31789300  1
  Mg  Mg19  1  0.34096700  0.71398200  0.68210700  1
  Mg  Mg20  1  0.28601800  0.96812400  0.62698500  1
  Mg  Mg21  1  0.34113900  0.65903300  0.37301500  1
  Mg  Mg22  1  0.71812400  0.59113900  0.18210700  1
  Mg  Mg23  1  0.40903300  0.53601800  0.81789300  1
  Si  Si0  1  0.14143500  0.28296700  0.78475500  1
  Si  Si1  1  0.49821200  0.35668000  0.21524500  1
  Si  Si2  1  0.03296700  0.74821200  0.64153200  1
  Si  Si3  1  0.10668000  0.39143500  0.35846800  1
  Si  Si4  1  0.60856500  0.96703300  0.71524500  1
  Si  Si5  1  0.25178800  0.89332000  0.28475500  1
  Si  Si6  1  0.71703300  0.50178800  0.85846800  1
  Si  Si7  1  0.64332000  0.85856500  0.14153200  1
  N  N0  1  0.23024000  0.16061000  0.74011300  1
  N  N1  1  0.42049700  0.49012700  0.25988700  1
  N  N2  1  0.91061000  0.67049700  0.43037000  1
  N  N3  1  0.24012700  0.48024000  0.56963000  1
  N  N4  1  0.51976000  0.08939000  0.75988700  1
  N  N5  1  0.32950300  0.75987300  0.24011300  1
  N  N6  1  0.83939000  0.57950300  0.06963000  1
  N  N7  1  0.50987300  0.76976000  0.93037000  1
  N  N8  1  0.38746300  0.08353100  0.39058800  1
  N  N9  1  0.69294300  0.99687500  0.60941200  1
  N  N10  1  0.83353100  0.94294300  0.19606800  1
  N  N11  1  0.74687500  0.63746300  0.80393200  1
  N  N12  1  0.36253700  0.16646900  0.10941200  1
  N  N13  1  0.05705700  0.25312500  0.89058800  1
  N  N14  1  0.91646900  0.30705700  0.30393200  1
  N  N15  1  0.00312500  0.61253700  0.69606800  1
  N  N16  1  0.98522700  0.22767200  0.59247800  1
  N  N17  1  0.63519400  0.39274900  0.40752200  1
  N  N18  1  0.97767200  0.88519400  0.74244500  1
  N  N19  1  0.14274900  0.23522700  0.25755500  1
  N  N20  1  0.76477300  0.02232800  0.90752200  1
  N  N21  1  0.11480600  0.85725100  0.09247800  1
  N  N22  1  0.77232800  0.36480600  0.75755500  1
  N  N23  1  0.60725100  0.01477300  0.24244500  1
  N  N24  1  0.14880100  0.87863800  0.37855200  1
  N  N25  1  0.50008600  0.77024900  0.62144800  1
  N  N26  1  0.62863800  0.75008600  0.22983700  1
  N  N27  1  0.52024900  0.39880100  0.77016300  1
  N  N28  1  0.60119900  0.37136200  0.12144800  1
  N  N29  1  0.24991400  0.47975100  0.87855200  1
  N  N30  1  0.12136200  0.49991400  0.27016300  1
  N  N31  1  0.22975100  0.85119900  0.72983700  1
loop_
_geom_bond_atom_site_label_1
_geom_bond_atom_site_label_2
_geom_bond_distance
_geom_bond_site_symmetry_2
Eu0 N19 2.650083 1_555
Eu0 N8 2.665790 1_555
Eu0 N0 2.681863 1_555
Eu0 N27 2.746508 1_555
Eu0 N3 2.751092 1_555
Eu0 N24 2.915126 1_545
Eu0 N16 3.123553 1_455
Eu1 N18 2.650083 1_555
Eu1 N9 2.665790 1_555
Eu1 N1 2.681863 1_555
Eu1 N26 2.746508 1_555
Eu1 N2 2.751092 1_555
Eu1 N25 2.915126 1_555
Eu1 N17 3.123553 1_555
Eu2 N16 2.650083 1_565
Eu2 N10 2.665790 1_555
Eu2 N2 2.681863 1_555
Eu2 N24 2.746508 1_655
Eu2 N0 2.751092 1_665
Eu2 N26 2.915126 1_555
Eu2 N18 3.123553 1_555
Eu3 N17 2.650083 1_555
Eu3 N11 2.665790 1_555
Eu3 N3 2.681863 1_555
Eu3 N25 2.746508 1_555
Eu3 N1 2.751092 1_555
Eu3 N27 2.915126 1_555
Eu3 N19 3.123553 1_555
Eu4 N23 2.650083 1_556
Eu4 N12 2.665790 1_556
Eu4 N4 2.681863 1_555
Eu4 N31 2.746508 1_545
Eu4 N7 2.751092 1_545
Eu4 N28 2.915126 1_556
Eu4 N20 3.123553 1_555
Eu5 N22 2.650083 1_454
Eu5 N13 2.665790 1_554
Eu5 N5 2.681863 1_555
Eu5 N30 2.746508 1_555
Eu5 N6 2.751092 1_455
Eu5 N29 2.915126 1_554
Eu5 N21 3.123553 1_555
Eu6 N20 2.650083 1_554
Eu6 N14 2.665790 1_555
Eu6 N6 2.681863 1_555
Eu6 N28 2.746508 1_555
Eu6 N4 2.751092 1_554
Eu6 N30 2.915126 1_655
Eu6 N22 3.123553 1_554
Eu7 N21 2.650083 1_556
Eu7 N15 2.665790 1_555
Eu7 N7 2.681863 1_555
Eu7 N29 2.746508 1_555
Eu7 N5 2.751092 1_556
Eu7 N31 2.915126 1_555
Eu7 N23 3.123553 1_566
Mg0 N10 2.092655 1_555
Mg0 N6 2.106767 1_555
Mg0 N21 2.120674 1_655
Mg0 N24 2.268438 1_655
Mg0 N11 2.764449 1_554
Mg1 N11 2.092655 1_555
Mg1 N7 2.106767 1_555
Mg1 N20 2.120674 1_565
Mg1 N25 2.268438 1_555
Mg1 N10 2.764449 1_556
Mg2 N9 2.092655 1_555
Mg2 N5 2.106767 1_555
Mg2 N23 2.120674 1_565
Mg2 N26 2.268438 1_555
Mg2 N8 2.764449 1_565
Mg3 N8 2.092655 1_555
Mg3 N4 2.106767 1_555
Mg3 N22 2.120674 1_555
Mg3 N27 2.268438 1_555
Mg3 N9 2.764449 1_545
Mg4 N14 2.092655 1_555
Mg4 N2 2.106767 1_555
Mg4 N17 2.120674 1_555
Mg4 N28 2.268438 1_555
Mg4 N15 2.764449 1_655
Mg5 N15 2.092655 1_555
Mg5 N3 2.106767 1_555
Mg5 N16 2.120674 1_455
Mg5 N29 2.268438 1_555
Mg5 N14 2.764449 1_455
Mg6 N13 2.092655 1_554
Mg6 N1 2.106767 1_555
Mg6 N19 2.120674 1_555
Mg6 N30 2.268438 1_555
Mg6 N12 2.764449 1_555
Mg7 N12 2.092655 1_556
Mg7 N0 2.106767 1_555
Mg7 N18 2.120674 1_445
Mg7 N31 2.268438 1_545
Mg7 N13 2.764449 1_555
Mg8 N20 2.017340 1_554
Mg8 N19 2.083960 1_655
Mg8 N10 2.100693 1_545
Mg8 N14 2.214809 1_555
Mg9 N21 2.017343 1_656
Mg9 N18 2.083963 1_555
Mg9 N11 2.100685 1_555
Mg9 N15 2.214817 1_655
Mg10 N22 2.017348 1_555
Mg10 N16 2.083962 1_555
Mg10 N9 2.100685 1_545
Mg10 N13 2.214805 1_655
Mg11 N23 2.017340 1_555
Mg11 N17 2.083960 1_555
Mg11 N8 2.100693 1_555
Mg11 N12 2.214809 1_555
Mg12 N16 2.017340 1_555
Mg12 N23 2.083960 1_555
Mg12 N14 2.100693 1_555
Mg12 N10 2.214809 1_545
Mg13 N17 2.017343 1_555
Mg13 N22 2.083963 1_555
Mg13 N15 2.100685 1_655
Mg13 N11 2.214817 1_555
Mg14 N18 2.017348 1_545
Mg14 N20 2.083962 1_555
Mg14 N13 2.100685 1_655
Mg14 N9 2.214805 1_545
Mg15 N19 2.017340 1_555
Mg15 N21 2.083960 1_545
Mg15 N12 2.100693 1_555
Mg15 N8 2.214809 1_555
Mg16 N0 2.079119 1_555
Mg16 N28 2.083036 1_556
Mg16 N27 2.116660 1_555
Mg16 N4 2.246531 1_555
Mg17 N1 2.079119 1_555
Mg17 N29 2.083036 1_554
Mg17 N26 2.116660 1_555
Mg17 N5 2.246531 1_555
Mg18 N2 2.079128 1_455
Mg18 N30 2.083035 1_555
Mg18 N24 2.116656 1_555
Mg18 N6 2.246524 1_455
Mg19 N3 2.079118 1_555
Mg19 N31 2.083034 1_555
Mg19 N25 2.116668 1_555
Mg19 N7 2.246523 1_555
Mg20 N4 2.079119 1_565
Mg20 N24 2.083036 1_555
Mg20 N31 2.116660 1_555
Mg20 N0 2.246531 1_565
Mg21 N5 2.079119 1_555
Mg21 N25 2.083036 1_555
Mg21 N30 2.116660 1_555
Mg21 N1 2.246531 1_555
Mg22 N6 2.079128 1_555
Mg22 N26 2.083035 1_555
Mg22 N28 2.116656 1_555
Mg22 N2 2.246524 1_555
Mg23 N7 2.079118 1_555
Mg23 N27 2.083034 1_555
Mg23 N29 2.116668 1_555
Mg23 N3 2.246523 1_555
N0 Si0 1.774291 1_555
N1 Si1 1.774291 1_555
N2 Si2 1.774291 1_655
N3 Si3 1.774291 1_555
N4 Si4 1.774291 1_545
N5 Si5 1.774291 1_555
N6 Si6 1.774291 1_554
N7 Si7 1.774291 1_556
N8 Si5 1.786642 1_545
N9 Si4 1.786642 1_555
N10 Si7 1.786642 1_555
N11 Si6 1.786642 1_555
N12 Si1 1.786642 1_555
N13 Si0 1.786642 1_555
N14 Si3 1.786642 1_655
N15 Si2 1.786642 1_555
N16 Si0 1.788311 1_655
N17 Si1 1.788311 1_555
N18 Si2 1.788311 1_655
N19 Si3 1.788311 1_555
N20 Si4 1.788311 1_545
N21 Si5 1.788311 1_555
N22 Si6 1.788311 1_555
N23 Si7 1.788311 1_545
N24 Si5 1.784463 1_555
N25 Si4 1.784463 1_555
N26 Si7 1.784463 1_555
N27 Si6 1.784463 1_555
N28 Si1 1.784463 1_555
N29 Si0 1.784463 1_555
N30 Si3 1.784463 1_555
N31 Si2 1.784463 1_555
