# generated using pymatgen
data_K2LuSbO7
_symmetry_space_group_name_H-M   'P 1'
_cell_length_a   8.06665692
_cell_length_b   8.06665692
_cell_length_c   8.06665692
_cell_angle_alpha   121.04517174
_cell_angle_beta   118.31193280
_cell_angle_gamma   90.57381110
_symmetry_Int_Tables_number   1
_chemical_formula_structural   K2LuSbO7
_chemical_formula_sum   'K4 Lu2 Sb2 O14'
_cell_volume   372.68502744
_cell_formula_units_Z   2
loop_
 _symmetry_equiv_pos_site_id
 _symmetry_equiv_pos_as_xyz
  1  'x, y, z'
loop_
 _atom_site_type_symbol
 _atom_site_label
 _atom_site_symmetry_multiplicity
 _atom_site_fract_x
 _atom_site_fract_y
 _atom_site_fract_z
 _atom_site_occupancy
  K  K0  1  0.50000000  0.50000000  0.00000000  1
  K  K1  1  0.00000000  0.00000000  0.00000000  1
  K  K2  1  0.00000000  0.50000000  0.00000000  1
  K  K3  1  0.00000000  0.00000000  0.50000000  1
  Lu  Lu0  1  0.50000000  0.50000000  0.50000000  1
  Lu  Lu1  1  0.50000000  0.00000000  0.00000000  1
  Sb  Sb0  1  0.00000000  0.50000000  0.50000000  1
  Sb  Sb1  1  0.50000000  0.00000000  0.50000000  1
  O  O0  1  0.87954400  0.58615200  0.29339200  1
  O  O1  1  0.20724100  0.91384800  0.29339200  1
  O  O2  1  0.18567800  0.79152800  0.75109100  1
  O  O3  1  0.45956400  0.70847200  0.39415100  1
  O  O4  1  0.45956400  0.06541300  0.75109100  1
  O  O5  1  0.18567800  0.43458700  0.39415100  1
  O  O6  1  0.81432200  0.56541300  0.60584900  1
  O  O7  1  0.54043600  0.93458700  0.24890900  1
  O  O8  1  0.54043600  0.29152800  0.60584900  1
  O  O9  1  0.81432200  0.20847200  0.24890900  1
  O  O10  1  0.39158300  0.25000000  0.14158300  1
  O  O11  1  0.12045600  0.41384800  0.70660800  1
  O  O12  1  0.79275900  0.08615200  0.70660800  1
  O  O13  1  0.60841700  0.75000000  0.85841700  1
loop_
_geom_bond_atom_site_label_1
_geom_bond_atom_site_label_2
_geom_bond_distance
_geom_bond_site_symmetry_2
K0 O11 2.616432 1_554
K0 O0 2.616432 1_555
K0 O3 2.919477 1_555
K0 O8 2.919477 1_554
K0 O7 2.919478 1_555
K0 O4 2.919478 1_554
K0 O10 3.069841 1_555
K0 O13 3.069841 1_554
K1 O12 2.616434 1_454
K1 O1 2.616434 1_545
K1 O9 2.919476 1_455
K1 O2 2.919476 1_544
K1 O5 2.919478 1_555
K1 O6 2.919478 1_444
K1 O13 3.069841 1_444
K1 O10 3.069841 1_555
K2 O0 2.743496 1_455
K2 O11 2.743496 1_554
K2 O1 2.743497 1_555
K2 O12 2.743497 1_454
K2 O8 3.140065 1_454
K2 O3 3.140065 1_555
K2 O5 3.140065 1_555
K2 O6 3.140065 1_454
K3 O11 2.743496 1_555
K3 O0 2.743496 1_445
K3 O1 2.743503 1_545
K3 O12 2.743503 1_455
K3 O2 3.140058 1_545
K3 O9 3.140058 1_455
K3 O4 3.140065 1_555
K3 O7 3.140065 1_445
Lu0 O13 2.177921 1_555
Lu0 O10 2.177921 1_555
Lu0 O8 2.211628 1_555
Lu0 O3 2.211628 1_555
Lu0 O5 2.211636 1_555
Lu0 O6 2.211636 1_555
Lu1 O10 2.177921 1_555
Lu1 O13 2.177921 1_544
Lu1 O9 2.211633 1_555
Lu1 O2 2.211633 1_544
Lu1 O4 2.211636 1_554
Lu1 O7 2.211636 1_545
O0 Sb0 1.968976 1_655
O1 Sb1 1.968970 1_565
O2 Sb0 2.003778 1_555
O3 Sb1 2.003780 1_565
O4 Sb1 2.003772 1_555
O5 Sb0 2.003772 1_555
O6 Sb0 2.003772 1_655
O7 Sb1 2.003772 1_565
O8 Sb1 2.003780 1_555
O9 Sb0 2.003778 1_655
O11 Sb0 1.968976 1_555
O12 Sb1 1.968970 1_555
