# generated using pymatgen
data_SrCa7Ti3Mn5O21
_symmetry_space_group_name_H-M   'P 1'
_cell_length_a   7.93039267
_cell_length_b   7.81873203
_cell_length_c   7.79689243
_cell_angle_alpha   90.58043998
_cell_angle_beta   89.22374201
_cell_angle_gamma   90.50060704
_symmetry_Int_Tables_number   1
_chemical_formula_structural   SrCa7Ti3Mn5O21
_chemical_formula_sum   'Sr1 Ca7 Ti3 Mn5 O21'
_cell_volume   483.36405645
_cell_formula_units_Z   1
loop_
 _symmetry_equiv_pos_site_id
 _symmetry_equiv_pos_as_xyz
  1  'x, y, z'
loop_
 _atom_site_type_symbol
 _atom_site_label
 _atom_site_symmetry_multiplicity
 _atom_site_fract_x
 _atom_site_fract_y
 _atom_site_fract_z
 _atom_site_occupancy
  Sr  Sr0  1  0.24486100  0.26713500  0.25094400  1
  Ca  Ca0  1  0.26643300  0.29920300  0.72467500  1
  Ca  Ca1  1  0.22001300  0.72653900  0.27800500  1
  Ca  Ca2  1  0.24297700  0.70477300  0.74148300  1
  Ca  Ca3  1  0.77301600  0.26496400  0.28023000  1
  Ca  Ca4  1  0.70726600  0.27950900  0.74451700  1
  Ca  Ca5  1  0.73058100  0.74206200  0.25932600  1
  Ca  Ca6  1  0.73919600  0.73187200  0.73232500  1
  Ti  Ti0  1  0.02805100  0.98347800  0.98560600  1
  Ti  Ti1  1  0.00163600  0.99796100  0.52176300  1
  Ti  Ti2  1  0.49515100  0.99049500  0.98533100  1
  Mn  Mn0  1  0.98604300  0.50393500  0.02171700  1
  Mn  Mn1  1  0.99462300  0.49948100  0.51492300  1
  Mn  Mn2  1  0.50980300  0.00218800  0.46713900  1
  Mn  Mn3  1  0.49308300  0.50350300  0.99489200  1
  Mn  Mn4  1  0.49970100  0.50815200  0.49347900  1
  O  O0  1  0.96722600  0.97505100  0.76257100  1
  O  O1  1  0.00616100  0.48594800  0.26718800  1
  O  O2  1  0.99303400  0.51646800  0.77002000  1
  O  O3  1  0.58127000  0.05000200  0.18991900  1
  O  O4  1  0.59258500  0.99184000  0.76678200  1
  O  O5  1  0.49668500  0.54124200  0.74497500  1
  O  O6  1  0.25750300  0.95471000  0.97760100  1
  O  O7  1  0.22148700  0.00381300  0.41978400  1
  O  O8  1  0.24456400  0.53475200  0.01511100  1
  O  O9  1  0.25783600  0.49391900  0.49938000  1
  O  O10  1  0.79437000  0.98567900  0.42955700  1
  O  O11  1  0.73217400  0.45968600  0.03565200  1
  O  O12  1  0.73930200  0.51656600  0.48988500  1
  O  O13  1  0.98420400  0.18891100  0.07968400  1
  O  O14  1  0.99427500  0.24745800  0.53567900  1
  O  O15  1  0.95570300  0.79041900  0.08555400  1
  O  O16  1  0.02295600  0.74657700  0.51529800  1
  O  O17  1  0.45053700  0.25818500  0.95187200  1
  O  O18  1  0.50664300  0.25980100  0.50833600  1
  O  O19  1  0.53510100  0.74908200  0.02552300  1
  O  O20  1  0.48395300  0.74464200  0.43327400  1
loop_
_geom_bond_atom_site_label_1
_geom_bond_atom_site_label_2
_geom_bond_distance
_geom_bond_site_symmetry_2
Ca0 O17 2.337144 1_555
Ca0 O9 2.338234 1_555
Ca0 O18 2.545907 1_555
Ca0 O5 2.623354 1_555
Ca0 O14 2.655619 1_455
Ca0 O2 2.782634 1_455
Ca0 O8 2.908661 1_556
Ca1 O16 2.410355 1_555
Ca1 O7 2.423510 1_565
Ca1 O20 2.434523 1_555
Ca1 O1 2.523253 1_555
Ca1 O8 2.533775 1_555
Ca1 O9 2.542509 1_555
Ca1 O15 2.648260 1_455
Ca1 O6 2.968768 1_554
Ca2 O5 2.393925 1_555
Ca2 O2 2.467749 1_455
Ca2 O9 2.495866 1_555
Ca2 O16 2.523181 1_555
Ca2 O8 2.525353 1_556
Ca2 O6 2.674001 1_555
Ca3 O13 2.351834 1_555
Ca3 O3 2.365024 1_555
Ca3 O11 2.478604 1_555
Ca3 O10 2.493171 1_545
Ca3 O1 2.521284 1_655
Ca3 O12 2.558456 1_555
Ca3 O14 2.677484 1_555
Ca3 O18 2.743234 1_555
Ca4 O4 2.425713 1_545
Ca4 O18 2.452647 1_555
Ca4 O17 2.587871 1_555
Ca4 O5 2.652569 1_555
Ca4 O11 2.668103 1_556
Ca4 O12 2.737550 1_555
Ca4 O14 2.792132 1_555
Ca4 O2 2.922222 1_555
Ca5 O15 2.258100 1_555
Ca5 O20 2.365051 1_555
Ca5 O10 2.365558 1_555
Ca5 O19 2.410274 1_555
Ca5 O12 2.532690 1_555
Ca5 O11 2.799629 1_555
Ca6 O4 2.361635 1_555
Ca6 O5 2.424407 1_555
Ca6 O12 2.518445 1_555
Ca6 O0 2.623610 1_555
Ca6 O2 2.657156 1_555
Ca6 O19 2.785873 1_556
Ca6 O16 2.799422 1_655
Mn0 O1 1.929354 1_655
Mn0 O2 1.965898 1_554
Mn0 O11 2.041437 1_555
Mn0 O8 2.062202 1_655
Mn0 O15 2.303595 1_555
Mn0 O13 2.508592 1_555
Mn1 O1 1.934359 1_655
Mn1 O16 1.943026 1_655
Mn1 O14 1.978743 1_555
Mn1 O2 1.991927 1_555
Mn1 O12 2.042478 1_555
Mn1 O9 2.090064 1_655
Mn2 O18 2.036759 1_555
Mn2 O20 2.037190 1_545
Mn2 O3 2.261049 1_555
Mn2 O10 2.276346 1_545
Mn2 O7 2.321176 1_555
Mn2 O4 2.437636 1_545
Mn3 O19 1.958725 1_556
Mn3 O11 1.960457 1_556
Mn3 O17 1.970809 1_555
Mn3 O5 1.973531 1_555
Mn3 O8 1.991990 1_556
Mn4 O12 1.900531 1_555
Mn4 O20 1.917850 1_555
Mn4 O9 1.920295 1_555
Mn4 O18 1.947715 1_555
Mn4 O5 1.975132 1_555
O0 Ti0 1.811331 1_655
O0 Ti1 1.903638 1_655
O1 Sr0 2.563613 1_555
O3 Ti2 1.798983 1_544
O3 Sr0 3.202254 1_555
O4 Ti2 1.861540 1_555
O6 Ti0 1.835588 1_555
O6 Ti2 1.904551 1_555
O6 Sr0 3.226809 1_566
O7 Ti1 1.906803 1_545
O7 Sr0 2.459230 1_555
O8 Sr0 2.799547 1_555
O9 Sr0 2.615225 1_555
O10 Ti1 1.804351 1_655
O13 Ti0 1.793849 1_644
O13 Sr0 2.542870 1_655
O14 Ti1 1.954005 1_645
O14 Sr0 2.963691 1_655
O15 Ti0 1.792087 1_654
O16 Ti1 1.974311 1_555
O17 Ti2 2.144848 1_545
O17 Sr0 2.828149 1_556
O18 Sr0 2.908261 1_555
O19 Ti2 1.945899 1_554
