# generated using pymatgen
data_HoMg149
_symmetry_space_group_name_H-M   'P 1'
_cell_length_a   16.02507875
_cell_length_b   16.02506376
_cell_length_c   15.65613283
_cell_angle_alpha   89.99990133
_cell_angle_beta   90.00005005
_cell_angle_gamma   120.00105496
_symmetry_Int_Tables_number   1
_chemical_formula_structural   HoMg149
_chemical_formula_sum   'Ho1 Mg149'
_cell_volume   3481.85315131
_cell_formula_units_Z   1
loop_
 _symmetry_equiv_pos_site_id
 _symmetry_equiv_pos_as_xyz
  1  'x, y, z'
loop_
 _atom_site_type_symbol
 _atom_site_label
 _atom_site_symmetry_multiplicity
 _atom_site_fract_x
 _atom_site_fract_y
 _atom_site_fract_z
 _atom_site_occupancy
  Ho  Ho0  1  0.99999245  0.99997084  0.00002357  1
  Mg  Mg0  1  0.60003884  0.20007728  0.99999884  1
  Mg  Mg1  1  0.79937065  0.20063139  0.99999897  1
  Mg  Mg2  1  0.40126131  0.20062979  0.99999962  1
  Mg  Mg3  1  0.00268996  0.20461559  0.99999888  1
  Mg  Mg4  1  0.20192633  0.20461101  0.99999807  1
  Mg  Mg5  1  0.00015665  0.40022447  0.99999677  1
  Mg  Mg6  1  0.40006885  0.40022155  0.99999945  1
  Mg  Mg7  1  0.60003929  0.39995838  0.00000188  1
  Mg  Mg8  1  0.79992539  0.39996363  0.00000174  1
  Mg  Mg9  1  0.20148677  0.40297183  0.99999866  1
  Mg  Mg10  1  0.79936835  0.59873528  0.99999961  1
  Mg  Mg11  1  0.20045953  0.60023177  0.00000123  1
  Mg  Mg12  1  0.39977428  0.60023183  0.00000058  1
  Mg  Mg13  1  0.59977410  0.59993083  0.99999534  1
  Mg  Mg14  1  0.00015896  0.59993047  0.99999823  1
  Mg  Mg15  1  0.59703240  0.79852107  0.99999930  1
  Mg  Mg16  1  0.20148519  0.79851774  0.00000187  1
  Mg  Mg17  1  0.00268094  0.79806799  0.99999607  1
  Mg  Mg18  1  0.79536677  0.79805396  0.00000035  1
  Mg  Mg19  1  0.39977117  0.79954505  0.99999713  1
  Mg  Mg20  1  0.79536845  0.99731658  0.99999834  1
  Mg  Mg21  1  0.20193161  0.99731560  0.99999886  1
  Mg  Mg22  1  0.40007451  0.99984580  0.00000027  1
  Mg  Mg23  1  0.59977450  0.99984855  0.00000047  1
  Mg  Mg24  1  0.86790500  0.13209302  0.16474625  1
  Mg  Mg25  1  0.26417731  0.13208830  0.16474738  1
  Mg  Mg26  1  0.86791373  0.73582123  0.16474905  1
  Mg  Mg27  1  0.66666408  0.33333159  0.16606800  1
  Mg  Mg28  1  0.66731680  0.13302085  0.16651044  1
  Mg  Mg29  1  0.46570785  0.13302027  0.16651115  1
  Mg  Mg30  1  0.86698199  0.33268294  0.16650630  1
  Mg  Mg31  1  0.46570311  0.33268616  0.16650976  1
  Mg  Mg32  1  0.86697906  0.53429758  0.16650958  1
  Mg  Mg33  1  0.66731233  0.53429324  0.16650784  1
  Mg  Mg34  1  0.46663582  0.53336235  0.16718152  1
  Mg  Mg35  1  0.06672721  0.53336497  0.16718079  1
  Mg  Mg36  1  0.46663690  0.93327262  0.16717881  1
  Mg  Mg37  1  0.26710704  0.53421810  0.16726697  1
  Mg  Mg38  1  0.26710907  0.73289240  0.16726804  1
  Mg  Mg39  1  0.46577952  0.73289183  0.16726351  1
  Mg  Mg40  1  0.06797180  0.33543324  0.16759204  1
  Mg  Mg41  1  0.26746266  0.33543451  0.16758834  1
  Mg  Mg42  1  0.06796936  0.73253696  0.16758886  1
  Mg  Mg43  1  0.66456646  0.73253890  0.16759185  1
  Mg  Mg44  1  0.66456877  0.93203098  0.16759175  1
  Mg  Mg45  1  0.26746118  0.93202829  0.16759005  1
  Mg  Mg46  1  0.06787186  0.13575223  0.16945955  1
  Mg  Mg47  1  0.06788131  0.93212297  0.16946186  1
  Mg  Mg48  1  0.86424751  0.93212804  0.16946076  1
  Mg  Mg49  1  0.39963192  0.19981752  0.33283327  1
  Mg  Mg50  1  0.80018539  0.19981402  0.33282977  1
  Mg  Mg51  1  0.80018410  0.60037239  0.33283368  1
  Mg  Mg52  1  0.59994899  0.19989222  0.33270270  1
  Mg  Mg53  1  0.59994584  0.40005437  0.33270478  1
  Mg  Mg54  1  0.80010598  0.40005130  0.33270455  1
  Mg  Mg55  1  0.20055876  0.00002778  0.33345636  1
  Mg  Mg56  1  0.79947135  0.00003080  0.33345656  1
  Mg  Mg57  1  0.20055921  0.20053083  0.33345767  1
  Mg  Mg58  1  0.99996726  0.20052505  0.33345409  1
  Mg  Mg59  1  0.99996982  0.79944202  0.33345326  1
  Mg  Mg60  1  0.79947414  0.79944640  0.33345615  1
  Mg  Mg61  1  0.59975349  0.00015913  0.33369914  1
  Mg  Mg62  1  0.40040427  0.00015758  0.33370466  1
  Mg  Mg63  1  0.99983790  0.40024454  0.33370120  1
  Mg  Mg64  1  0.40040904  0.40024554  0.33370174  1
  Mg  Mg65  1  0.99984324  0.59959344  0.33369927  1
  Mg  Mg66  1  0.59975649  0.59959469  0.33370142  1
  Mg  Mg67  1  0.40011434  0.59988425  0.33358560  1
  Mg  Mg68  1  0.19976588  0.59988235  0.33358453  1
  Mg  Mg69  1  0.40011561  0.80022902  0.33358480  1
  Mg  Mg70  1  0.20016817  0.40033555  0.33409019  1
  Mg  Mg71  1  0.59967205  0.79983505  0.33409092  1
  Mg  Mg72  1  0.20016403  0.79983487  0.33409195  1
  Mg  Mg73  1  0.00000163  -0.00000006  0.33476163  1
  Mg  Mg74  1  0.26706587  0.13353231  0.49999977  1
  Mg  Mg75  1  0.86646829  0.13353414  0.49999783  1
  Mg  Mg76  1  0.06678284  0.13356578  0.49999830  1
  Mg  Mg77  1  0.66711093  0.13407223  0.50000148  1
  Mg  Mg78  1  0.46695862  0.13407261  0.50000120  1
  Mg  Mg79  1  0.46696533  0.33289420  0.49999905  1
  Mg  Mg80  1  0.86593155  0.33289197  0.49999973  1
  Mg  Mg81  1  0.66666918  0.33333082  0.50000182  1
  Mg  Mg82  1  0.26668863  0.33347972  0.50000235  1
  Mg  Mg83  1  0.06679303  0.33348437  0.49999566  1
  Mg  Mg84  1  0.86592991  0.53304301  0.49999875  1
  Mg  Mg85  1  0.66711182  0.53304480  0.49999900  1
  Mg  Mg86  1  0.46701991  0.53297971  0.49999961  1
  Mg  Mg87  1  0.06596443  0.53297863  0.50000068  1
  Mg  Mg88  1  0.26674926  0.53349388  0.50000017  1
  Mg  Mg89  1  0.86646648  0.73293514  0.49999816  1
  Mg  Mg90  1  0.66651817  0.73330797  0.50000348  1
  Mg  Mg91  1  0.06679018  0.73331164  0.49999730  1
  Mg  Mg92  1  0.26674452  0.73325261  0.49999938  1
  Mg  Mg93  1  0.46650811  0.73325536  0.49999935  1
  Mg  Mg94  1  0.06678669  0.93321884  0.49999978  1
  Mg  Mg95  1  0.86642821  0.93321389  0.50000133  1
  Mg  Mg96  1  0.26668798  0.93321115  0.50000512  1
  Mg  Mg97  1  0.66651892  0.93321031  0.49999962  1
  Mg  Mg98  1  0.46701743  0.93403423  0.49999926  1
  Mg  Mg99  1  0.99999919  0.99999871  0.66523797  1
  Mg  Mg100  1  0.20016427  0.40032974  0.66590950  1
  Mg  Mg101  1  0.59966912  0.79983774  0.66590681  1
  Mg  Mg102  1  0.20016710  0.79983517  0.66590615  1
  Mg  Mg103  1  0.40011460  0.59988358  0.66641301  1
  Mg  Mg104  1  0.19976892  0.59988466  0.66641035  1
  Mg  Mg105  1  0.40012010  0.80023443  0.66641587  1
  Mg  Mg106  1  0.59975590  0.00016245  0.66629988  1
  Mg  Mg107  1  0.40040553  0.00016095  0.66629665  1
  Mg  Mg108  1  0.99984033  0.40024506  0.66629944  1
  Mg  Mg109  1  0.40040324  0.40024702  0.66629609  1
  Mg  Mg110  1  0.99984426  0.59959174  0.66629719  1
  Mg  Mg111  1  0.59974919  0.59959204  0.66629960  1
  Mg  Mg112  1  0.20055537  0.00002550  0.66654543  1
  Mg  Mg113  1  0.79946866  0.00002952  0.66654415  1
  Mg  Mg114  1  0.20055743  0.20053111  0.66654522  1
  Mg  Mg115  1  0.99997433  0.20053332  0.66654321  1
  Mg  Mg116  1  0.99997261  0.79944147  0.66654139  1
  Mg  Mg117  1  0.79946796  0.79943870  0.66654220  1
  Mg  Mg118  1  0.59994739  0.19989189  0.66729473  1
  Mg  Mg119  1  0.59994754  0.40005504  0.66730075  1
  Mg  Mg120  1  0.80010979  0.40005789  0.66729591  1
  Mg  Mg121  1  0.39962799  0.19981621  0.66716870  1
  Mg  Mg122  1  0.80018458  0.19981255  0.66716061  1
  Mg  Mg123  1  0.80018723  0.60037680  0.66716703  1
  Mg  Mg124  1  0.06786480  0.13574693  0.83053898  1
  Mg  Mg125  1  0.06787821  0.93211833  0.83053203  1
  Mg  Mg126  1  0.86425494  0.93213321  0.83054103  1
  Mg  Mg127  1  0.06797149  0.33543314  0.83240788  1
  Mg  Mg128  1  0.26746382  0.33543460  0.83241120  1
  Mg  Mg129  1  0.06797325  0.73253568  0.83240824  1
  Mg  Mg130  1  0.66456557  0.73254152  0.83241183  1
  Mg  Mg131  1  0.66456882  0.93203035  0.83240908  1
  Mg  Mg132  1  0.26746384  0.93202851  0.83240829  1
  Mg  Mg133  1  0.26711128  0.53422181  0.83273600  1
  Mg  Mg134  1  0.26710599  0.73288837  0.83273053  1
  Mg  Mg135  1  0.46578003  0.73288976  0.83273166  1
  Mg  Mg136  1  0.46663274  0.53336073  0.83281899  1
  Mg  Mg137  1  0.06673132  0.53336127  0.83282194  1
  Mg  Mg138  1  0.46663828  0.93327177  0.83282087  1
  Mg  Mg139  1  0.66731893  0.13301906  0.83348997  1
  Mg  Mg140  1  0.46570245  0.13301729  0.83348867  1
  Mg  Mg141  1  0.86698082  0.33267973  0.83349043  1
  Mg  Mg142  1  0.46570264  0.33268434  0.83349046  1
  Mg  Mg143  1  0.86698265  0.53429628  0.83349134  1
  Mg  Mg144  1  0.66731696  0.53429445  0.83349401  1
  Mg  Mg145  1  0.66666598  0.33332926  0.83394271  1
  Mg  Mg146  1  0.86790596  0.13208816  0.83525411  1
  Mg  Mg147  1  0.26418519  0.13209240  0.83525355  1
  Mg  Mg148  1  0.86791127  0.73581991  0.83525366  1
loop_
_geom_bond_atom_site_label_1
_geom_bond_atom_site_label_2
_geom_bond_distance
_geom_bond_site_symmetry_2
Ho0 Mg47 3.253565 1_655
Ho0 Mg48 3.253603 1_555
Ho0 Mg46 3.253881 1_665
Ho0 Mg126 3.254122 1_554
Ho0 Mg125 3.254262 1_654
Ho0 Mg124 3.254455 1_664
Ho0 Mg17 3.257262 1_654
Ho0 Mg21 3.257575 1_654
Ho0 Mg18 3.257602 1_555
Ho0 Mg4 3.257854 1_664
Ho0 Mg3 3.258046 1_664
Ho0 Mg20 3.258056 1_554
Mg0 Mg2 3.189862 1_555
Mg0 Mg1 3.189877 1_555
Mg0 Mg145 3.190410 1_555
Mg0 Mg27 3.190599 1_556
Mg0 Mg7 3.203104 1_556
Mg0 Mg8 3.203144 1_556
Mg0 Mg29 3.204923 1_556
Mg0 Mg140 3.204940 1_555
Mg0 Mg28 3.204956 1_556
Mg0 Mg139 3.204958 1_555
Mg0 Mg22 3.206534 1_546
Mg0 Mg23 3.206562 1_546
Mg1 Mg141 3.186650 1_555
Mg1 Mg30 3.186664 1_556
Mg1 Mg139 3.186686 1_555
Mg1 Mg28 3.186734 1_556
Mg1 Mg8 3.189876 1_556
Mg1 Mg24 3.204938 1_556
Mg1 Mg146 3.204960 1_555
Mg1 Mg23 3.208042 1_546
Mg1 Mg5 3.208043 1_655
Mg1 Mg20 3.226542 1_545
Mg1 Mg3 3.226757 1_655
Mg2 Mg31 3.186739 1_556
Mg2 Mg29 3.186767 1_556
Mg2 Mg7 3.189801 1_556
Mg2 Mg25 3.205022 1_556
Mg2 Mg6 3.208068 1_555
Mg2 Mg22 3.208109 1_546
Mg2 Mg21 3.226621 1_545
Mg2 Mg4 3.226732 1_555
Mg3 Mg5 3.155140 1_555
Mg3 Mg9 3.182158 1_555
Mg3 Mg40 3.190712 1_556
Mg3 Mg4 3.192815 1_555
Mg3 Mg46 3.240452 1_556
Mg4 Mg6 3.155106 1_555
Mg4 Mg9 3.182273 1_555
Mg4 Mg41 3.190721 1_556
Mg4 Mg46 3.240519 1_556
Mg5 Mg9 3.204544 1_555
Mg5 Mg8 3.206634 1_456
Mg6 Mg9 3.204558 1_555
Mg6 Mg7 3.206653 1_556
Mg7 Mg8 3.203148 1_555
Mg10 Mg144 3.186640 1_555
Mg10 Mg32 3.186686 1_556
Mg10 Mg143 3.186708 1_555
Mg10 Mg33 3.186711 1_556
Mg10 Mg7 3.189797 1_556
Mg10 Mg8 3.189801 1_556
Mg10 Mg148 3.205001 1_555
Mg10 Mg26 3.205060 1_556
Mg10 Mg13 3.208136 1_555
Mg10 Mg14 3.208151 1_655
Mg10 Mg17 3.226631 1_655
Mg10 Mg18 3.226636 1_556
Mg11 Mg16 3.169359 1_555
Mg11 Mg9 3.169366 1_554
Mg11 Mg19 3.193945 1_554
Mg11 Mg12 3.194034 1_555
Mg11 Mg38 3.201156 1_555
Mg11 Mg37 3.201160 1_555
Mg11 Mg133 3.201162 1_554
Mg11 Mg134 3.201169 1_554
Mg11 Mg14 3.207421 1_554
Mg11 Mg5 3.207451 1_554
Mg11 Mg137 3.208577 1_554
Mg11 Mg35 3.208613 1_555
Mg12 Mg15 3.169319 1_554
Mg12 Mg9 3.169320 1_554
Mg12 Mg19 3.194032 1_554
Mg12 Mg39 3.201101 1_555
Mg12 Mg133 3.201145 1_554
Mg12 Mg135 3.201157 1_554
Mg12 Mg37 3.201202 1_555
Mg12 Mg13 3.207427 1_554
Mg12 Mg6 3.207540 1_554
Mg12 Mg34 3.208635 1_555
Mg12 Mg136 3.208636 1_554
Mg13 Mg18 3.154807 1_556
Mg13 Mg144 3.195567 1_555
Mg13 Mg33 3.195677 1_556
Mg13 Mg6 3.200272 1_555
Mg13 Mg136 3.203835 1_555
Mg13 Mg34 3.203936 1_556
Mg13 Mg15 3.204616 1_555
Mg13 Mg130 3.204899 1_555
Mg13 Mg43 3.205049 1_556
Mg13 Mg7 3.206698 1_556
Mg14 Mg17 3.155152 1_555
Mg14 Mg143 3.195596 1_455
Mg14 Mg32 3.195682 1_456
Mg14 Mg5 3.200283 1_555
Mg14 Mg35 3.203868 1_556
Mg14 Mg16 3.204496 1_556
Mg14 Mg42 3.204960 1_556
Mg14 Mg8 3.206571 1_456
Mg15 Mg19 3.169364 1_555
Mg15 Mg20 3.181986 1_555
Mg15 Mg18 3.182073 1_556
Mg15 Mg39 3.189921 1_556
Mg15 Mg23 3.204540 1_556
Mg15 Mg44 3.212132 1_556
Mg15 Mg43 3.212197 1_556
Mg16 Mg19 3.169349 1_554
Mg16 Mg21 3.182177 1_554
Mg16 Mg17 3.182256 1_554
Mg16 Mg38 3.189931 1_555
Mg16 Mg22 3.204527 1_555
Mg16 Mg45 3.212083 1_555
Mg16 Mg42 3.212109 1_555
Mg17 Mg26 3.187172 1_456
Mg17 Mg42 3.190734 1_556
Mg17 Mg21 3.192931 1_555
Mg17 Mg47 3.240580 1_556
Mg17 Mg18 3.322113 1_456
Mg18 Mg26 3.187242 1_555
Mg18 Mg43 3.190552 1_555
Mg18 Mg20 3.193183 1_554
Mg18 Mg48 3.240665 1_555
Mg19 Mg39 3.201171 1_556
Mg19 Mg38 3.201219 1_556
Mg19 Mg22 3.207404 1_556
Mg19 Mg23 3.207424 1_556
Mg19 Mg36 3.208603 1_556
Mg20 Mg23 3.154892 1_556
Mg20 Mg24 3.187187 1_566
Mg20 Mg44 3.190572 1_556
Mg20 Mg48 3.240653 1_556
Mg20 Mg3 3.322109 1_665
Mg21 Mg22 3.155177 1_556
Mg21 Mg25 3.187163 1_566
Mg21 Mg45 3.190693 1_556
Mg21 Mg47 3.240507 1_556
Mg21 Mg4 3.321964 1_565
Mg22 Mg29 3.195633 1_565
Mg22 Mg23 3.200186 1_555
Mg22 Mg36 3.203831 1_555
Mg22 Mg45 3.205003 1_555
Mg23 Mg28 3.195604 1_565
Mg23 Mg36 3.203831 1_555
Mg23 Mg44 3.205024 1_555
Mg24 Mg48 3.176408 1_545
Mg24 Mg46 3.176427 1_655
Mg24 Mg3 3.187241 1_654
Mg24 Mg58 3.215122 1_555
Mg24 Mg56 3.215150 1_555
Mg24 Mg30 3.222005 1_555
Mg24 Mg28 3.222020 1_555
Mg24 Mg44 3.232818 1_545
Mg24 Mg40 3.232888 1_655
Mg24 Mg50 3.233909 1_555
Mg25 Mg47 3.176273 1_545
Mg25 Mg46 3.176433 1_555
Mg25 Mg4 3.187192 1_554
Mg25 Mg55 3.215122 1_555
Mg25 Mg57 3.215161 1_555
Mg25 Mg31 3.222123 1_555
Mg25 Mg29 3.222219 1_555
Mg25 Mg45 3.232915 1_545
Mg25 Mg41 3.232939 1_555
Mg25 Mg49 3.234033 1_555
Mg26 Mg47 3.176336 1_655
Mg26 Mg48 3.176470 1_555
Mg26 Mg59 3.215028 1_555
Mg26 Mg60 3.215152 1_555
Mg26 Mg32 3.222084 1_555
Mg26 Mg33 3.222168 1_555
Mg26 Mg42 3.232850 1_655
Mg26 Mg43 3.232983 1_555
Mg26 Mg51 3.233967 1_555
Mg27 Mg7 3.190552 1_555
Mg27 Mg8 3.190617 1_555
Mg27 Mg52 3.199300 1_555
Mg27 Mg54 3.199347 1_555
Mg27 Mg53 3.199362 1_555
Mg27 Mg29 3.215139 1_555
Mg27 Mg28 3.215243 1_555
Mg27 Mg32 3.215247 1_555
Mg27 Mg33 3.215249 1_555
Mg27 Mg31 3.215264 1_555
Mg27 Mg30 3.215328 1_555
Mg28 Mg50 3.190699 1_555
Mg28 Mg44 3.199128 1_545
Mg28 Mg30 3.199573 1_555
Mg28 Mg52 3.200128 1_555
Mg28 Mg61 3.201805 1_555
Mg28 Mg36 3.208437 1_545
Mg28 Mg29 3.230795 1_555
Mg29 Mg49 3.190790 1_555
Mg29 Mg45 3.199134 1_545
Mg29 Mg31 3.199697 1_555
Mg29 Mg52 3.200116 1_555
Mg29 Mg62 3.201874 1_555
Mg29 Mg36 3.208456 1_545
Mg30 Mg50 3.190752 1_555
Mg30 Mg5 3.195616 1_654
Mg30 Mg40 3.199113 1_655
Mg30 Mg54 3.200246 1_555
Mg30 Mg63 3.201841 1_555
Mg30 Mg8 3.204890 1_555
Mg30 Mg35 3.208430 1_655
Mg30 Mg32 3.230911 1_555
Mg31 Mg49 3.190750 1_555
Mg31 Mg6 3.195600 1_554
Mg31 Mg41 3.199113 1_555
Mg31 Mg53 3.200173 1_555
Mg31 Mg64 3.201803 1_555
Mg31 Mg7 3.204909 1_555
Mg31 Mg34 3.208418 1_555
Mg31 Mg33 3.230733 1_555
Mg32 Mg51 3.190788 1_555
Mg32 Mg42 3.199064 1_655
Mg32 Mg33 3.199640 1_555
Mg32 Mg54 3.200198 1_555
Mg32 Mg65 3.201841 1_555
Mg32 Mg8 3.204892 1_555
Mg32 Mg35 3.208496 1_655
Mg33 Mg51 3.190808 1_555
Mg33 Mg43 3.199173 1_555
Mg33 Mg53 3.200163 1_555
Mg33 Mg66 3.201853 1_555
Mg33 Mg7 3.204875 1_555
Mg33 Mg34 3.208441 1_555
Mg34 Mg41 3.181789 1_555
Mg34 Mg43 3.181838 1_555
Mg34 Mg67 3.193198 1_555
Mg34 Mg64 3.195253 1_555
Mg34 Mg66 3.195283 1_555
Mg34 Mg6 3.203905 1_554
Mg34 Mg37 3.204344 1_555
Mg34 Mg39 3.204356 1_555
Mg35 Mg42 3.181844 1_555
Mg35 Mg40 3.181895 1_555
Mg35 Mg68 3.193137 1_555
Mg35 Mg65 3.195218 1_455
Mg35 Mg63 3.195284 1_455
Mg35 Mg5 3.203928 1_554
Mg35 Mg38 3.204259 1_555
Mg35 Mg37 3.204289 1_555
Mg36 Mg44 3.181876 1_555
Mg36 Mg45 3.181889 1_555
Mg36 Mg69 3.193202 1_555
Mg36 Mg61 3.195256 1_565
Mg36 Mg62 3.195353 1_565
Mg36 Mg38 3.204249 1_555
Mg36 Mg39 3.204267 1_555
Mg37 Mg39 3.183700 1_555
Mg37 Mg38 3.183752 1_555
Mg37 Mg40 3.188306 1_555
Mg37 Mg41 3.188377 1_555
Mg37 Mg9 3.189923 1_554
Mg37 Mg68 3.191816 1_555
Mg37 Mg67 3.191826 1_555
Mg37 Mg70 3.205269 1_555
Mg38 Mg39 3.183714 1_555
Mg38 Mg45 3.188352 1_555
Mg38 Mg42 3.188389 1_555
Mg38 Mg69 3.191796 1_555
Mg38 Mg68 3.191818 1_555
Mg38 Mg72 3.205340 1_555
Mg39 Mg44 3.188372 1_555
Mg39 Mg43 3.188412 1_555
Mg39 Mg69 3.191829 1_555
Mg39 Mg67 3.191870 1_555
Mg39 Mg71 3.205406 1_555
Mg40 Mg70 3.187659 1_555
Mg40 Mg63 3.188754 1_455
Mg40 Mg41 3.196847 1_555
Mg40 Mg46 3.199234 1_555
Mg40 Mg58 3.201334 1_455
Mg40 Mg5 3.205032 1_554
Mg40 Mg9 3.212184 1_554
Mg41 Mg70 3.187718 1_555
Mg41 Mg64 3.188799 1_555
Mg41 Mg46 3.199273 1_555
Mg41 Mg57 3.201390 1_555
Mg41 Mg6 3.204936 1_554
Mg41 Mg9 3.212137 1_554
Mg42 Mg72 3.187708 1_555
Mg42 Mg65 3.188734 1_455
Mg42 Mg45 3.196816 1_555
Mg42 Mg47 3.199219 1_555
Mg42 Mg59 3.201357 1_455
Mg43 Mg71 3.187643 1_555
Mg43 Mg66 3.188730 1_555
Mg43 Mg44 3.196855 1_555
Mg43 Mg48 3.199250 1_555
Mg43 Mg60 3.201362 1_555
Mg44 Mg71 3.187665 1_555
Mg44 Mg61 3.188717 1_565
Mg44 Mg48 3.199224 1_555
Mg44 Mg56 3.201327 1_565
Mg45 Mg72 3.187680 1_555
Mg45 Mg62 3.188787 1_565
Mg45 Mg47 3.199176 1_555
Mg45 Mg55 3.201360 1_565
Mg46 Mg58 3.159632 1_455
Mg46 Mg57 3.159739 1_555
Mg46 Mg73 3.201095 1_555
Mg46 Mg48 3.263041 1_445
Mg46 Mg47 3.263248 1_545
Mg47 Mg59 3.159599 1_455
Mg47 Mg55 3.159613 1_565
Mg47 Mg73 3.201124 1_565
Mg47 Mg48 3.263288 1_455
Mg48 Mg60 3.159655 1_555
Mg48 Mg56 3.159660 1_565
Mg48 Mg73 3.201098 1_665
Mg49 Mg55 3.195883 1_555
Mg49 Mg57 3.195902 1_555
Mg49 Mg74 3.199111 1_555
Mg49 Mg78 3.203209 1_555
Mg49 Mg79 3.203209 1_555
Mg49 Mg64 3.205692 1_555
Mg49 Mg62 3.205799 1_555
Mg49 Mg53 3.209377 1_555
Mg49 Mg52 3.209499 1_555
Mg50 Mg56 3.195848 1_555
Mg50 Mg58 3.195853 1_555
Mg50 Mg75 3.199119 1_555
Mg50 Mg77 3.203266 1_555
Mg50 Mg80 3.203273 1_555
Mg50 Mg63 3.205676 1_555
Mg50 Mg61 3.205706 1_555
Mg50 Mg52 3.209431 1_555
Mg50 Mg54 3.209452 1_555
Mg51 Mg59 3.195822 1_555
Mg51 Mg60 3.195893 1_555
Mg51 Mg89 3.199060 1_555
Mg51 Mg85 3.203166 1_555
Mg51 Mg84 3.203201 1_555
Mg51 Mg66 3.205684 1_555
Mg51 Mg65 3.205842 1_555
Mg51 Mg53 3.209421 1_555
Mg51 Mg54 3.209533 1_555
Mg52 Mg61 3.199208 1_555
Mg52 Mg62 3.199229 1_555
Mg52 Mg77 3.204159 1_555
Mg52 Mg78 3.204209 1_555
Mg52 Mg54 3.207496 1_555
Mg52 Mg53 3.207636 1_555
Mg52 Mg81 3.207787 1_555
Mg53 Mg64 3.199164 1_555
Mg53 Mg66 3.199203 1_555
Mg53 Mg79 3.204075 1_555
Mg53 Mg85 3.204155 1_555
Mg53 Mg54 3.207607 1_555
Mg53 Mg81 3.207839 1_555
Mg54 Mg63 3.199211 1_555
Mg54 Mg65 3.199228 1_555
Mg54 Mg80 3.204136 1_555
Mg54 Mg84 3.204165 1_555
Mg54 Mg81 3.207747 1_555
Mg55 Mg96 3.194264 1_545
Mg55 Mg74 3.198665 1_555
Mg55 Mg94 3.200814 1_545
Mg55 Mg62 3.201503 1_555
Mg55 Mg72 3.204961 1_545
Mg55 Mg57 3.213071 1_555
Mg55 Mg73 3.213786 1_555
Mg55 Mg59 3.214375 1_445
Mg56 Mg97 3.194230 1_545
Mg56 Mg75 3.198628 1_555
Mg56 Mg95 3.200859 1_545
Mg56 Mg61 3.201525 1_555
Mg56 Mg71 3.204944 1_545
Mg56 Mg58 3.212897 1_555
Mg56 Mg73 3.213826 1_655
Mg56 Mg60 3.214400 1_545
Mg57 Mg82 3.194224 1_555
Mg57 Mg74 3.198667 1_555
Mg57 Mg76 3.200813 1_555
Mg57 Mg64 3.201477 1_555
Mg57 Mg70 3.205037 1_555
Mg57 Mg73 3.213749 1_555
Mg57 Mg58 3.214455 1_455
Mg58 Mg83 3.194267 1_655
Mg58 Mg75 3.198623 1_555
Mg58 Mg76 3.200861 1_655
Mg58 Mg63 3.201557 1_555
Mg58 Mg70 3.205075 1_655
Mg58 Mg73 3.213768 1_655
Mg59 Mg91 3.194243 1_655
Mg59 Mg89 3.198674 1_555
Mg59 Mg94 3.200893 1_655
Mg59 Mg65 3.201575 1_555
Mg59 Mg72 3.205000 1_655
Mg59 Mg60 3.212994 1_555
Mg59 Mg73 3.213764 1_665
Mg60 Mg90 3.194313 1_555
Mg60 Mg89 3.198653 1_555
Mg60 Mg95 3.200801 1_555
Mg60 Mg66 3.201516 1_555
Mg60 Mg71 3.204978 1_555
Mg60 Mg73 3.213690 1_665
Mg61 Mg98 3.189388 1_545
Mg61 Mg62 3.194575 1_555
Mg61 Mg97 3.197265 1_545
Mg61 Mg77 3.198884 1_555
Mg61 Mg69 3.201505 1_545
Mg61 Mg71 3.209560 1_545
Mg62 Mg98 3.189336 1_545
Mg62 Mg96 3.197267 1_545
Mg62 Mg78 3.198826 1_555
Mg62 Mg69 3.201558 1_545
Mg62 Mg72 3.209480 1_545
Mg63 Mg87 3.189366 1_655
Mg63 Mg65 3.194536 1_555
Mg63 Mg83 3.197197 1_655
Mg63 Mg80 3.198780 1_555
Mg63 Mg68 3.201487 1_655
Mg63 Mg70 3.209585 1_655
Mg64 Mg86 3.189346 1_555
Mg64 Mg66 3.194520 1_555
Mg64 Mg82 3.197302 1_555
Mg64 Mg79 3.198789 1_555
Mg64 Mg67 3.201588 1_555
Mg64 Mg70 3.209603 1_555
Mg65 Mg87 3.189419 1_655
Mg65 Mg91 3.197253 1_655
Mg65 Mg84 3.198849 1_555
Mg65 Mg68 3.201464 1_655
Mg65 Mg72 3.209474 1_655
Mg66 Mg86 3.189368 1_555
Mg66 Mg90 3.197264 1_555
Mg66 Mg85 3.198773 1_555
Mg66 Mg67 3.201604 1_555
Mg66 Mg71 3.209547 1_555
Mg67 Mg88 3.195900 1_555
Mg67 Mg93 3.195939 1_555
Mg67 Mg86 3.199484 1_555
Mg67 Mg70 3.200930 1_555
Mg67 Mg71 3.201040 1_555
Mg67 Mg69 3.210528 1_555
Mg67 Mg68 3.210585 1_555
Mg68 Mg92 3.195946 1_555
Mg68 Mg88 3.195982 1_555
Mg68 Mg87 3.199428 1_555
Mg68 Mg70 3.200988 1_555
Mg68 Mg72 3.201076 1_555
Mg68 Mg69 3.210543 1_555
Mg69 Mg93 3.195923 1_555
Mg69 Mg92 3.195948 1_555
Mg69 Mg98 3.199438 1_555
Mg69 Mg71 3.201079 1_555
Mg69 Mg72 3.201096 1_555
Mg70 Mg88 3.187796 1_555
Mg70 Mg83 3.189484 1_555
Mg70 Mg82 3.189593 1_555
Mg71 Mg93 3.187821 1_555
Mg71 Mg97 3.189527 1_555
Mg71 Mg90 3.189573 1_555
Mg72 Mg92 3.187813 1_555
Mg72 Mg91 3.189472 1_555
Mg72 Mg96 3.189593 1_555
Mg73 Mg76 3.182503 1_555
Mg73 Mg94 3.182538 1_545
Mg73 Mg95 3.182602 1_445
Mg74 Mg78 3.198977 1_555
Mg74 Mg79 3.199053 1_555
Mg74 Mg96 3.207136 1_545
Mg74 Mg82 3.207197 1_555
Mg74 Mg94 3.209712 1_545
Mg74 Mg76 3.209820 1_555
Mg75 Mg80 3.199031 1_555
Mg75 Mg77 3.199038 1_555
Mg75 Mg97 3.207156 1_545
Mg75 Mg83 3.207171 1_655
Mg75 Mg76 3.209803 1_655
Mg75 Mg95 3.209824 1_545
Mg76 Mg99 3.182547 1_445
Mg76 Mg82 3.203519 1_555
Mg76 Mg83 3.203627 1_555
Mg76 Mg94 3.210603 1_545
Mg76 Mg95 3.210624 1_445
Mg77 Mg80 3.186057 1_555
Mg77 Mg81 3.196677 1_555
Mg77 Mg98 3.206017 1_545
Mg77 Mg78 3.207460 1_555
Mg77 Mg97 3.214092 1_545
Mg78 Mg79 3.186075 1_555
Mg78 Mg81 3.196707 1_555
Mg78 Mg98 3.206099 1_545
Mg78 Mg96 3.214044 1_545
Mg79 Mg81 3.196777 1_555
Mg79 Mg86 3.205946 1_555
Mg79 Mg85 3.207344 1_555
Mg79 Mg82 3.214152 1_555
Mg80 Mg81 3.196717 1_555
Mg80 Mg87 3.205921 1_655
Mg80 Mg84 3.207446 1_555
Mg80 Mg83 3.214085 1_655
Mg81 Mg84 3.196740 1_555
Mg81 Mg85 3.196888 1_555
Mg82 Mg83 3.203380 1_555
Mg82 Mg86 3.203632 1_555
Mg82 Mg88 3.204754 1_555
Mg83 Mg87 3.203568 1_555
Mg83 Mg88 3.204689 1_555
Mg84 Mg85 3.186090 1_555
Mg84 Mg89 3.198993 1_555
Mg84 Mg87 3.206085 1_655
Mg84 Mg91 3.214019 1_655
Mg85 Mg89 3.198922 1_555
Mg85 Mg86 3.205967 1_555
Mg85 Mg90 3.213997 1_555
Mg86 Mg90 3.203594 1_555
Mg86 Mg88 3.213481 1_555
Mg86 Mg93 3.213539 1_555
Mg87 Mg91 3.203753 1_555
Mg87 Mg92 3.213416 1_555
Mg87 Mg88 3.213472 1_555
Mg88 Mg93 3.201120 1_555
Mg88 Mg92 3.201184 1_555
Mg89 Mg90 3.207179 1_555
Mg89 Mg91 3.207191 1_655
Mg89 Mg95 3.209786 1_555
Mg89 Mg94 3.209802 1_655
Mg90 Mg97 3.203442 1_555
Mg90 Mg95 3.203489 1_555
Mg90 Mg93 3.204755 1_555
Mg91 Mg96 3.203339 1_555
Mg91 Mg94 3.203554 1_555
Mg91 Mg92 3.204757 1_555
Mg92 Mg93 3.201205 1_555
Mg92 Mg96 3.204801 1_555
Mg92 Mg98 3.213420 1_555
Mg93 Mg97 3.204689 1_555
Mg93 Mg98 3.213421 1_555
Mg94 Mg99 3.182553 1_455
Mg94 Mg96 3.203496 1_555
Mg94 Mg95 3.210721 1_455
Mg95 Mg99 3.182543 1_555
Mg95 Mg97 3.203533 1_555
Mg96 Mg98 3.203720 1_555
Mg97 Mg98 3.203649 1_555
Mg100 Mg127 3.187633 1_555
Mg100 Mg128 3.187705 1_555
Mg100 Mg88 3.187830 1_555
Mg100 Mg82 3.189518 1_555
Mg100 Mg83 3.189559 1_555
Mg100 Mg103 3.201005 1_555
Mg100 Mg104 3.201062 1_555
Mg100 Mg115 3.204874 1_455
Mg100 Mg114 3.204956 1_555
Mg100 Mg133 3.205392 1_555
Mg100 Mg109 3.209514 1_555
Mg100 Mg108 3.209534 1_455
Mg101 Mg131 3.187683 1_555
Mg101 Mg130 3.187731 1_555
Mg101 Mg93 3.187785 1_555
Mg101 Mg97 3.189482 1_555
Mg101 Mg90 3.189505 1_555
Mg101 Mg105 3.200982 1_555
Mg101 Mg103 3.201041 1_555
Mg101 Mg113 3.204914 1_565
Mg101 Mg117 3.205010 1_555
Mg101 Mg135 3.205345 1_555
Mg101 Mg106 3.209527 1_565
Mg101 Mg111 3.209598 1_555
Mg102 Mg132 3.187687 1_555
Mg102 Mg129 3.187689 1_555
Mg102 Mg92 3.187786 1_555
Mg102 Mg96 3.189431 1_555
Mg102 Mg91 3.189541 1_555
Mg102 Mg104 3.201044 1_555
Mg102 Mg105 3.201078 1_555
Mg102 Mg112 3.204972 1_565
Mg102 Mg116 3.204998 1_455
Mg102 Mg134 3.205326 1_555
Mg102 Mg107 3.209490 1_565
Mg102 Mg110 3.209506 1_455
Mg103 Mg135 3.191819 1_555
Mg103 Mg133 3.191850 1_555
Mg103 Mg136 3.193198 1_555
Mg103 Mg88 3.195880 1_555
Mg103 Mg93 3.195939 1_555
Mg103 Mg86 3.199474 1_555
Mg103 Mg111 3.201499 1_555
Mg103 Mg109 3.201504 1_555
Mg103 Mg104 3.210564 1_555
Mg103 Mg105 3.210591 1_555
Mg104 Mg134 3.191818 1_555
Mg104 Mg133 3.191913 1_555
Mg104 Mg137 3.193229 1_555
Mg104 Mg92 3.195874 1_555
Mg104 Mg88 3.195911 1_555
Mg104 Mg87 3.199369 1_555
Mg104 Mg110 3.201464 1_455
Mg104 Mg108 3.201506 1_455
Mg104 Mg105 3.210579 1_555
Mg105 Mg135 3.191783 1_555
Mg105 Mg134 3.191830 1_555
Mg105 Mg138 3.193143 1_555
Mg105 Mg93 3.195960 1_555
Mg105 Mg92 3.196009 1_555
Mg105 Mg98 3.199417 1_555
Mg105 Mg106 3.201471 1_565
Mg105 Mg107 3.201551 1_565
Mg106 Mg131 3.188749 1_545
Mg106 Mg98 3.189414 1_545
Mg106 Mg107 3.194593 1_555
Mg106 Mg138 3.195272 1_545
Mg106 Mg97 3.197274 1_545
Mg106 Mg77 3.198803 1_555
Mg106 Mg118 3.199182 1_555
Mg106 Mg113 3.201481 1_555
Mg106 Mg139 3.201786 1_555
Mg106 Mg122 3.205641 1_555
Mg107 Mg132 3.188739 1_545
Mg107 Mg98 3.189393 1_545
Mg107 Mg138 3.195362 1_545
Mg107 Mg96 3.197163 1_545
Mg107 Mg78 3.198781 1_555
Mg107 Mg118 3.199176 1_555
Mg107 Mg112 3.201532 1_555
Mg107 Mg140 3.201809 1_555
Mg107 Mg121 3.205766 1_555
Mg108 Mg127 3.188723 1_655
Mg108 Mg87 3.189348 1_655
Mg108 Mg110 3.194512 1_555
Mg108 Mg137 3.195282 1_655
Mg108 Mg83 3.197305 1_655
Mg108 Mg80 3.198815 1_555
Mg108 Mg120 3.199237 1_555
Mg108 Mg115 3.201470 1_555
Mg108 Mg141 3.201820 1_555
Mg108 Mg122 3.205717 1_555
Mg109 Mg128 3.188765 1_555
Mg109 Mg86 3.189312 1_555
Mg109 Mg111 3.194475 1_555
Mg109 Mg136 3.195267 1_555
Mg109 Mg82 3.197168 1_555
Mg109 Mg79 3.198849 1_555
Mg109 Mg119 3.199291 1_555
Mg109 Mg114 3.201454 1_555
Mg109 Mg142 3.201898 1_555
Mg109 Mg121 3.205752 1_555
Mg110 Mg129 3.188750 1_655
Mg110 Mg87 3.189339 1_655
Mg110 Mg137 3.195334 1_655
Mg110 Mg91 3.197285 1_655
Mg110 Mg84 3.198844 1_555
Mg110 Mg120 3.199140 1_555
Mg110 Mg116 3.201579 1_555
Mg110 Mg143 3.201877 1_555
Mg110 Mg123 3.205858 1_555
Mg111 Mg130 3.188810 1_555
Mg111 Mg86 3.189332 1_555
Mg111 Mg136 3.195243 1_555
Mg111 Mg90 3.197205 1_555
Mg111 Mg85 3.198854 1_555
Mg111 Mg119 3.199222 1_555
Mg111 Mg117 3.201484 1_555
Mg111 Mg144 3.201925 1_555
Mg111 Mg123 3.205795 1_555
Mg112 Mg125 3.159510 1_545
Mg112 Mg96 3.194170 1_545
Mg112 Mg121 3.195886 1_555
Mg112 Mg74 3.198708 1_555
Mg112 Mg94 3.200815 1_545
Mg112 Mg132 3.201340 1_545
Mg112 Mg114 3.213099 1_555
Mg112 Mg99 3.213779 1_445
Mg112 Mg116 3.214312 1_445
Mg112 Mg147 3.215165 1_555
Mg113 Mg126 3.159698 1_545
Mg113 Mg97 3.194227 1_545
Mg113 Mg122 3.195829 1_555
Mg113 Mg75 3.198699 1_555
Mg113 Mg95 3.200850 1_545
Mg113 Mg131 3.201306 1_545
Mg113 Mg115 3.213051 1_555
Mg113 Mg99 3.213830 1_545
Mg113 Mg117 3.214475 1_545
Mg113 Mg146 3.215123 1_555
Mg114 Mg124 3.159726 1_555
Mg114 Mg82 3.194194 1_555
Mg114 Mg121 3.195880 1_555
Mg114 Mg74 3.198731 1_555
Mg114 Mg76 3.200879 1_555
Mg114 Mg128 3.201350 1_555
Mg114 Mg99 3.213767 1_445
Mg114 Mg115 3.214378 1_455
Mg114 Mg147 3.215176 1_555
Mg115 Mg124 3.159637 1_655
Mg115 Mg83 3.194273 1_655
Mg115 Mg122 3.195901 1_555
Mg115 Mg75 3.198701 1_555
Mg115 Mg76 3.200884 1_655
Mg115 Mg127 3.201304 1_655
Mg115 Mg99 3.213844 1_545
Mg115 Mg146 3.215211 1_555
Mg116 Mg125 3.159560 1_655
Mg116 Mg91 3.194222 1_655
Mg116 Mg123 3.195780 1_555
Mg116 Mg89 3.198675 1_555
Mg116 Mg94 3.200830 1_655
Mg116 Mg129 3.201399 1_655
Mg116 Mg117 3.213081 1_555
Mg116 Mg99 3.213794 1_555
Mg116 Mg148 3.215174 1_555
Mg117 Mg126 3.159807 1_555
Mg117 Mg90 3.194153 1_555
Mg117 Mg123 3.195774 1_555
Mg117 Mg89 3.198671 1_555
Mg117 Mg95 3.200803 1_555
Mg117 Mg130 3.201387 1_555
Mg117 Mg99 3.213771 1_555
Mg117 Mg148 3.215183 1_555
Mg118 Mg145 3.199458 1_555
Mg118 Mg140 3.200177 1_555
Mg118 Mg139 3.200203 1_555
Mg118 Mg77 3.204103 1_555
Mg118 Mg78 3.204132 1_555
Mg118 Mg120 3.207594 1_555
Mg118 Mg119 3.207626 1_555
Mg118 Mg81 3.207705 1_555
Mg118 Mg122 3.209453 1_555
Mg118 Mg121 3.209529 1_555
Mg119 Mg145 3.199449 1_555
Mg119 Mg142 3.200123 1_555
Mg119 Mg144 3.200125 1_555
Mg119 Mg79 3.204184 1_555
Mg119 Mg85 3.204242 1_555
Mg119 Mg120 3.207593 1_555
Mg119 Mg81 3.207860 1_555
Mg119 Mg121 3.209438 1_555
Mg119 Mg123 3.209463 1_555
Mg120 Mg145 3.199493 1_555
Mg120 Mg143 3.200144 1_555
Mg120 Mg141 3.200233 1_555
Mg120 Mg84 3.204146 1_555
Mg120 Mg80 3.204176 1_555
Mg120 Mg81 3.207737 1_555
Mg120 Mg123 3.209504 1_555
Mg120 Mg122 3.209544 1_555
Mg121 Mg142 3.190728 1_555
Mg121 Mg140 3.190760 1_555
Mg121 Mg74 3.199111 1_555
Mg121 Mg78 3.203229 1_555
Mg121 Mg79 3.203265 1_555
Mg121 Mg147 3.233925 1_555
Mg122 Mg139 3.190804 1_555
Mg122 Mg141 3.190823 1_555
Mg122 Mg75 3.199051 1_555
Mg122 Mg77 3.203099 1_555
Mg122 Mg80 3.203164 1_555
Mg122 Mg146 3.234073 1_555
Mg123 Mg144 3.190810 1_555
Mg123 Mg143 3.190836 1_555
Mg123 Mg89 3.199077 1_555
Mg123 Mg85 3.203226 1_555
Mg123 Mg84 3.203257 1_555
Mg123 Mg148 3.233951 1_555
Mg124 Mg146 3.176303 1_455
Mg124 Mg147 3.176595 1_555
Mg124 Mg127 3.199264 1_555
Mg124 Mg128 3.199382 1_555
Mg124 Mg99 3.201053 1_445
Mg124 Mg3 3.240433 1_555
Mg124 Mg4 3.240545 1_555
Mg124 Mg126 3.262841 1_445
Mg124 Mg125 3.263269 1_545
Mg125 Mg148 3.176308 1_455
Mg125 Mg147 3.176433 1_565
Mg125 Mg129 3.199221 1_555
Mg125 Mg132 3.199230 1_555
Mg125 Mg99 3.201070 1_455
Mg125 Mg17 3.240516 1_555
Mg125 Mg21 3.240580 1_555
Mg125 Mg126 3.263198 1_455
Mg126 Mg146 3.176298 1_565
Mg126 Mg148 3.176493 1_555
Mg126 Mg131 3.199296 1_555
Mg126 Mg130 3.199337 1_555
Mg126 Mg99 3.201045 1_555
Mg126 Mg20 3.240611 1_555
Mg126 Mg18 3.240688 1_556
Mg127 Mg137 3.181801 1_555
Mg127 Mg133 3.188373 1_555
Mg127 Mg3 3.190679 1_555
Mg127 Mg128 3.196869 1_555
Mg127 Mg141 3.199102 1_455
Mg127 Mg5 3.204953 1_555
Mg127 Mg9 3.212153 1_555
Mg127 Mg146 3.232917 1_455
Mg128 Mg136 3.181741 1_555
Mg128 Mg133 3.188410 1_555
Mg128 Mg4 3.190673 1_555
Mg128 Mg142 3.199102 1_555
Mg128 Mg6 3.204918 1_555
Mg128 Mg9 3.212121 1_555
Mg128 Mg147 3.232927 1_555
Mg129 Mg137 3.181885 1_555
Mg129 Mg134 3.188300 1_555
Mg129 Mg17 3.190715 1_555
Mg129 Mg132 3.196818 1_555
Mg129 Mg143 3.199066 1_455
Mg129 Mg14 3.204938 1_555
Mg129 Mg16 3.212162 1_556
Mg129 Mg148 3.232953 1_455
Mg130 Mg136 3.181890 1_555
Mg130 Mg135 3.188352 1_555
Mg130 Mg18 3.190521 1_556
Mg130 Mg131 3.196795 1_555
Mg130 Mg144 3.199241 1_555
Mg130 Mg15 3.212109 1_555
Mg130 Mg148 3.232988 1_555
Mg131 Mg138 3.181853 1_555
Mg131 Mg135 3.188380 1_555
Mg131 Mg20 3.190518 1_555
Mg131 Mg139 3.199093 1_565
Mg131 Mg23 3.205036 1_556
Mg131 Mg15 3.212094 1_555
Mg131 Mg146 3.232792 1_565
Mg132 Mg138 3.181877 1_555
Mg132 Mg134 3.188374 1_555
Mg132 Mg21 3.190708 1_555
Mg132 Mg140 3.199045 1_565
Mg132 Mg22 3.205010 1_556
Mg132 Mg16 3.212149 1_556
Mg132 Mg147 3.232935 1_565
Mg133 Mg135 3.183624 1_555
Mg133 Mg134 3.183687 1_555
Mg133 Mg9 3.189875 1_555
Mg133 Mg137 3.204232 1_555
Mg133 Mg136 3.204269 1_555
Mg134 Mg135 3.183756 1_555
Mg134 Mg16 3.190010 1_556
Mg134 Mg19 3.201188 1_555
Mg134 Mg137 3.204198 1_555
Mg134 Mg138 3.204310 1_555
Mg135 Mg15 3.189961 1_555
Mg135 Mg19 3.201184 1_555
Mg135 Mg138 3.204280 1_555
Mg135 Mg136 3.204320 1_555
Mg136 Mg6 3.203867 1_555
Mg136 Mg142 3.208442 1_555
Mg136 Mg144 3.208542 1_555
Mg137 Mg5 3.203776 1_555
Mg137 Mg14 3.203855 1_555
Mg137 Mg141 3.208468 1_455
Mg137 Mg143 3.208524 1_455
Mg138 Mg23 3.203836 1_556
Mg138 Mg22 3.203864 1_556
Mg138 Mg139 3.208435 1_565
Mg138 Mg140 3.208477 1_565
Mg138 Mg19 3.208523 1_555
Mg139 Mg23 3.195592 1_546
Mg139 Mg141 3.199535 1_555
Mg139 Mg145 3.215236 1_555
Mg139 Mg146 3.222026 1_555
Mg139 Mg140 3.230906 1_555
Mg140 Mg2 3.186745 1_555
Mg140 Mg22 3.195614 1_546
Mg140 Mg142 3.199676 1_555
Mg140 Mg145 3.215204 1_555
Mg140 Mg147 3.222063 1_555
Mg141 Mg5 3.195585 1_655
Mg141 Mg8 3.204997 1_556
Mg141 Mg145 3.215286 1_555
Mg141 Mg146 3.222050 1_555
Mg141 Mg143 3.230903 1_555
Mg142 Mg2 3.186708 1_555
Mg142 Mg6 3.195598 1_555
Mg142 Mg7 3.204958 1_556
Mg142 Mg145 3.215306 1_555
Mg142 Mg147 3.222008 1_555
Mg142 Mg144 3.230799 1_555
Mg143 Mg144 3.199644 1_555
Mg143 Mg8 3.204909 1_556
Mg143 Mg145 3.215269 1_555
Mg143 Mg148 3.222132 1_555
Mg144 Mg7 3.204904 1_556
Mg144 Mg145 3.215284 1_555
Mg144 Mg148 3.222091 1_555
Mg145 Mg7 3.190502 1_556
Mg145 Mg8 3.190510 1_556
Mg146 Mg20 3.187098 1_545
Mg146 Mg3 3.187203 1_655
Mg147 Mg21 3.187149 1_545
Mg147 Mg4 3.187164 1_555
Mg147 Mg2 3.204936 1_555
Mg148 Mg17 3.187058 1_655
Mg148 Mg18 3.187211 1_556
