# generated using pymatgen
data_Ce2Fe(SeO)2
_symmetry_space_group_name_H-M   'P 1'
_cell_length_a   8.44256441
_cell_length_b   8.44256441
_cell_length_c   17.29013500
_cell_angle_alpha   90.00000000
_cell_angle_beta   90.00000000
_cell_angle_gamma   152.81620476
_symmetry_Int_Tables_number   1
_chemical_formula_structural   Ce2Fe(SeO)2
_chemical_formula_sum   'Ce8 Fe4 Se8 O8'
_cell_volume   563.01156575
_cell_formula_units_Z   4
loop_
 _symmetry_equiv_pos_site_id
 _symmetry_equiv_pos_as_xyz
  1  'x, y, z'
loop_
 _atom_site_type_symbol
 _atom_site_label
 _atom_site_symmetry_multiplicity
 _atom_site_fract_x
 _atom_site_fract_y
 _atom_site_fract_z
 _atom_site_occupancy
  Ce  Ce0  1  0.76828200  0.23171800  0.58958700  1
  Ce  Ce1  1  0.22884100  0.77115900  0.40846400  1
  Ce  Ce2  1  0.77115900  0.22884100  0.90846400  1
  Ce  Ce3  1  0.23171800  0.76828200  0.08958700  1
  Ce  Ce4  1  0.07450000  0.92550000  0.58127900  1
  Ce  Ce5  1  0.92608600  0.07391400  0.41678400  1
  Ce  Ce6  1  0.07391400  0.92608600  0.91678400  1
  Ce  Ce7  1  0.92550000  0.07450000  0.08127900  1
  Fe  Fe0  1  0.63294900  0.36705100  0.75017100  1
  Fe  Fe1  1  0.36705100  0.63294900  0.25017100  1
  Fe  Fe2  1  0.41176800  0.58823200  0.72308000  1
  Fe  Fe3  1  0.58823200  0.41176800  0.22308000  1
  Se  Se0  1  0.42036200  0.57963800  0.57130700  1
  Se  Se1  1  0.57915200  0.42084800  0.43274200  1
  Se  Se2  1  0.42084800  0.57915200  0.93274200  1
  Se  Se3  1  0.57963800  0.42036200  0.07130700  1
  Se  Se4  1  0.00563600  0.99436400  0.75131700  1
  Se  Se5  1  0.99436400  0.00563600  0.25131700  1
  Se  Se6  1  0.25914300  0.74085700  0.75088800  1
  Se  Se7  1  0.74085700  0.25914300  0.25088800  1
  O  O0  1  0.21120900  0.78879100  0.54520500  1
  O  O1  1  0.78964300  0.21035700  0.45524000  1
  O  O2  1  0.21035700  0.78964300  0.95524000  1
  O  O3  1  0.78879100  0.21120900  0.04520500  1
  O  O4  1  0.62958100  0.37041900  0.63498500  1
  O  O5  1  0.37062100  0.62937900  0.36502100  1
  O  O6  1  0.62937900  0.37062100  0.86502100  1
  O  O7  1  0.37041900  0.62958100  0.13498500  1
loop_
_geom_bond_atom_site_label_1
_geom_bond_atom_site_label_2
_geom_bond_distance
_geom_bond_site_symmetry_2
Ce0 O0 2.324367 1_545
Ce0 O0 2.324367 1_655
Ce0 O1 2.349185 1_555
Ce0 O4 2.407925 1_555
Ce0 Se0 3.204092 1_655
Ce0 Se0 3.204092 1_545
Ce0 Se6 3.425927 1_655
Ce0 Se6 3.425927 1_545
Ce1 O1 2.363540 1_565
Ce1 O1 2.363540 1_455
Ce1 O0 2.381914 1_555
Ce1 O5 2.445159 1_555
Ce1 Se1 3.185619 1_565
Ce1 Se1 3.185619 1_455
Ce1 Se7 3.376133 1_455
Ce1 Se7 3.376133 1_565
Ce2 O2 2.363540 1_545
Ce2 O2 2.363540 1_655
Ce2 O3 2.381914 1_556
Ce2 O6 2.445159 1_555
Ce2 Se2 3.185619 1_655
Ce2 Se2 3.185619 1_545
Ce2 Se6 3.376133 1_545
Ce2 Se6 3.376133 1_655
Ce3 O3 2.324367 1_565
Ce3 O3 2.324367 1_455
Ce3 O2 2.349185 1_554
Ce3 O7 2.407925 1_555
Ce3 Se3 3.204092 1_565
Ce3 Se3 3.204092 1_455
Ce3 Se7 3.425927 1_455
Ce3 Se7 3.425927 1_565
Ce4 O0 2.328783 1_555
Ce4 O4 2.369792 1_455
Ce4 O4 2.369792 1_565
Ce4 Se4 3.149740 1_555
Ce4 Se0 3.219595 1_455
Ce4 Se0 3.219595 1_565
Ce4 Se1 3.246233 1_455
Ce4 Se1 3.246233 1_565
Ce5 O1 2.335965 1_555
Ce5 O5 2.359255 1_545
Ce5 O5 2.359255 1_655
Ce5 Se5 3.072580 1_555
Ce5 Se1 3.213018 1_545
Ce5 Se1 3.213018 1_655
Ce5 Se0 3.329167 1_545
Ce5 Se0 3.329167 1_655
Ce6 O2 2.335965 1_555
Ce6 O6 2.359255 1_455
Ce6 O6 2.359255 1_565
Ce6 Se4 3.072580 1_555
Ce6 Se2 3.213018 1_455
Ce6 Se2 3.213018 1_565
Ce6 Se3 3.329167 1_566
Ce6 Se3 3.329167 1_456
Ce7 O3 2.328783 1_555
Ce7 O7 2.369792 1_655
Ce7 O7 2.369792 1_545
Ce7 Se5 3.149740 1_555
Ce7 Se3 3.219595 1_545
Ce7 Se3 3.219595 1_655
Ce7 Se2 3.246233 1_654
Ce7 Se2 3.246233 1_544
Fe0 O6 1.986636 1_555
Fe0 O4 1.992348 1_555
Fe0 Se6 2.868126 1_655
Fe0 Se6 2.868126 1_545
Fe0 Se4 2.881457 1_545
Fe0 Se4 2.881457 1_655
Fe1 O5 1.986636 1_555
Fe1 O7 1.992348 1_555
Fe1 Se7 2.868126 1_565
Fe1 Se7 2.868126 1_455
Fe1 Se5 2.881457 1_455
Fe1 Se5 2.881457 1_565
Fe2 Se6 2.550646 1_555
Fe2 Se4 2.558942 1_655
Fe2 Se4 2.558942 1_545
Fe2 Se0 2.627963 1_555
Fe3 Se7 2.550646 1_555
Fe3 Se5 2.558942 1_565
Fe3 Se5 2.558942 1_455
Fe3 Se3 2.627963 1_555
