# generated using pymatgen
data_Ce4CdPt
_symmetry_space_group_name_H-M   'P 1'
_cell_length_a   9.85671780
_cell_length_b   9.85671780
_cell_length_c   9.85671780
_cell_angle_alpha   60.00000000
_cell_angle_beta   60.00000000
_cell_angle_gamma   60.00000000
_symmetry_Int_Tables_number   1
_chemical_formula_structural   Ce4CdPt
_chemical_formula_sum   'Ce16 Cd4 Pt4'
_cell_volume   677.14546019
_cell_formula_units_Z   4
loop_
 _symmetry_equiv_pos_site_id
 _symmetry_equiv_pos_as_xyz
  1  'x, y, z'
loop_
 _atom_site_type_symbol
 _atom_site_label
 _atom_site_symmetry_multiplicity
 _atom_site_fract_x
 _atom_site_fract_y
 _atom_site_fract_z
 _atom_site_occupancy
  Ce  Ce0  1  0.35297100  0.35297100  0.35297100  1
  Ce  Ce1  1  0.35297100  0.35297100  0.94108800  1
  Ce  Ce2  1  0.35297100  0.94108800  0.35297100  1
  Ce  Ce3  1  0.94108800  0.35297100  0.35297100  1
  Ce  Ce4  1  0.80448300  0.19551700  0.19551700  1
  Ce  Ce5  1  0.19551700  0.80448300  0.80448300  1
  Ce  Ce6  1  0.19551700  0.80448300  0.19551700  1
  Ce  Ce7  1  0.80448300  0.19551700  0.80448300  1
  Ce  Ce8  1  0.19551700  0.19551700  0.80448300  1
  Ce  Ce9  1  0.80448300  0.80448300  0.19551700  1
  Ce  Ce10  1  0.93515700  0.56484300  0.56484300  1
  Ce  Ce11  1  0.56484300  0.93515700  0.93515700  1
  Ce  Ce12  1  0.56484300  0.93515700  0.56484300  1
  Ce  Ce13  1  0.93515700  0.56484300  0.93515700  1
  Ce  Ce14  1  0.56484300  0.56484300  0.93515700  1
  Ce  Ce15  1  0.93515700  0.93515700  0.56484300  1
  Cd  Cd0  1  0.57966700  0.57966700  0.57966700  1
  Cd  Cd1  1  0.57966700  0.57966700  0.26099800  1
  Cd  Cd2  1  0.57966700  0.26099800  0.57966700  1
  Cd  Cd3  1  0.26099800  0.57966700  0.57966700  1
  Pt  Pt0  1  0.14254300  0.14254300  0.14254300  1
  Pt  Pt1  1  0.14254300  0.14254300  0.57237100  1
  Pt  Pt2  1  0.14254300  0.57237100  0.14254300  1
  Pt  Pt3  1  0.57237100  0.14254300  0.14254300  1
loop_
_geom_bond_atom_site_label_1
_geom_bond_atom_site_label_2
_geom_bond_distance
_geom_bond_site_symmetry_2
Ce0 Pt1 2.934595 1_555
Ce0 Pt2 2.934595 1_555
Ce0 Pt3 2.934595 1_555
Ce1 Pt2 2.934588 1_556
Ce1 Pt3 2.934588 1_556
Ce1 Pt0 2.934595 1_556
Ce2 Pt3 2.934588 1_565
Ce2 Pt1 2.934588 1_565
Ce2 Pt0 2.934595 1_565
Ce3 Pt1 2.934588 1_655
Ce3 Pt2 2.934588 1_655
Ce3 Pt0 2.934595 1_655
Ce4 Pt3 2.905417 1_555
Ce4 Pt0 2.905417 1_655
Ce5 Pt1 2.905417 1_565
Ce5 Pt2 2.905417 1_556
Ce6 Pt2 2.905417 1_555
Ce6 Pt0 2.905417 1_565
Ce7 Pt1 2.905417 1_655
Ce7 Pt3 2.905417 1_556
Ce8 Pt1 2.905417 1_555
Ce8 Pt0 2.905417 1_556
Ce9 Pt2 2.905417 1_655
Ce9 Pt3 2.905417 1_565
Ce10 Pt1 3.583916 1_655
Ce10 Pt2 3.583916 1_655
Ce11 Pt0 3.583916 1_566
Ce11 Pt3 3.583916 1_566
Ce12 Pt3 3.583916 1_565
Ce12 Pt1 3.583916 1_565
Ce13 Pt0 3.583916 1_656
Ce13 Pt2 3.583916 1_656
Ce14 Pt3 3.583916 1_556
Ce14 Pt2 3.583916 1_556
Ce15 Pt0 3.583916 1_665
Ce15 Pt1 3.583916 1_665
Cd0 Cd1 3.141030 1_555
Cd0 Cd2 3.141030 1_555
Cd0 Cd3 3.141030 1_555
Cd0 Ce12 3.364201 1_555
Cd0 Ce14 3.364201 1_555
Cd0 Ce10 3.364201 1_555
Cd0 Ce2 3.427715 1_555
Cd0 Ce3 3.427715 1_555
Cd0 Ce1 3.427715 1_555
Cd0 Ce7 3.505332 1_555
Cd0 Ce5 3.505332 1_555
Cd0 Ce9 3.505332 1_555
Cd1 Cd2 3.141030 1_555
Cd1 Cd3 3.141030 1_555
Cd1 Ce14 3.364191 1_554
Cd1 Ce11 3.364196 1_554
Cd1 Ce13 3.364196 1_554
Cd1 Ce0 3.427707 1_555
Cd1 Ce2 3.427724 1_555
Cd1 Ce3 3.427724 1_555
Cd1 Ce4 3.505328 1_555
Cd1 Ce6 3.505328 1_555
Cd1 Ce9 3.505336 1_555
Cd2 Cd3 3.141030 1_555
Cd2 Ce12 3.364191 1_545
Cd2 Ce11 3.364196 1_545
Cd2 Ce15 3.364196 1_545
Cd2 Ce0 3.427707 1_555
Cd2 Ce3 3.427724 1_555
Cd2 Ce1 3.427724 1_555
Cd2 Ce4 3.505328 1_555
Cd2 Ce8 3.505328 1_555
Cd2 Ce7 3.505336 1_555
Cd3 Ce10 3.364191 1_455
Cd3 Ce15 3.364196 1_455
Cd3 Ce13 3.364196 1_455
Cd3 Ce0 3.427707 1_555
Cd3 Ce2 3.427724 1_555
Cd3 Ce1 3.427724 1_555
Cd3 Ce8 3.505328 1_555
Cd3 Ce6 3.505328 1_555
Cd3 Ce5 3.505336 1_555
