# generated using pymatgen
data_YbPrSe3
_symmetry_space_group_name_H-M   'P 1'
_cell_length_a   4.14541800
_cell_length_b   7.55711038
_cell_length_c   9.30085500
_cell_angle_alpha   90.00000000
_cell_angle_beta   90.00000000
_cell_angle_gamma   105.91867600
_symmetry_Int_Tables_number   1
_chemical_formula_structural   YbPrSe3
_chemical_formula_sum   'Yb2 Pr2 Se6'
_cell_volume   280.19790824
_cell_formula_units_Z   2
loop_
 _symmetry_equiv_pos_site_id
 _symmetry_equiv_pos_as_xyz
  1  'x, y, z'
loop_
 _atom_site_type_symbol
 _atom_site_label
 _atom_site_symmetry_multiplicity
 _atom_site_fract_x
 _atom_site_fract_y
 _atom_site_fract_z
 _atom_site_occupancy
  Yb  Yb0  1  0.00000000  0.00000000  0.00000000  1
  Yb  Yb1  1  0.00000000  0.00000000  0.50000000  1
  Pr  Pr0  1  0.75106800  0.50213600  0.75000000  1
  Pr  Pr1  1  0.24893200  0.49786400  0.25000000  1
  Se  Se0  1  0.89113900  0.78227800  0.25000000  1
  Se  Se1  1  0.10886100  0.21772200  0.75000000  1
  Se  Se2  1  0.35935800  0.71871600  0.57497100  1
  Se  Se3  1  0.64064200  0.28128400  0.42502900  1
  Se  Se4  1  0.35935800  0.71871600  0.92502900  1
  Se  Se5  1  0.64064200  0.28128400  0.07497100  1
loop_
_geom_bond_atom_site_label_1
_geom_bond_atom_site_label_2
_geom_bond_distance
_geom_bond_site_symmetry_2
Pr0 Se1 2.927166 1_555
Pr0 Se1 2.927166 1_655
Pr0 Se2 3.069784 1_555
Pr0 Se4 3.069784 1_555
Pr0 Se4 3.069784 1_655
Pr0 Se2 3.069784 1_655
Pr0 Se5 3.422219 1_556
Pr0 Se3 3.422219 1_555
Pr1 Se0 2.927166 1_555
Pr1 Se0 2.927166 1_455
Pr1 Se3 3.069784 1_455
Pr1 Se3 3.069784 1_555
Pr1 Se5 3.069784 1_455
Pr1 Se5 3.069784 1_555
Pr1 Se2 3.422219 1_555
Pr1 Se4 3.422219 1_554
Se0 Yb1 2.812498 1_665
Se0 Yb0 2.812498 1_665
Se1 Yb1 2.812498 1_555
Se1 Yb0 2.812498 1_556
Se2 Yb1 2.993494 1_665
Se2 Yb1 2.993494 1_565
Se3 Yb1 2.993494 1_655
Se3 Yb1 2.993494 1_555
Se4 Yb0 2.993494 1_666
Se4 Yb0 2.993494 1_566
Se5 Yb0 2.993494 1_655
Se5 Yb0 2.993494 1_555
