# generated using pymatgen
data_Eu2As3
_symmetry_space_group_name_H-M   'P 1'
_cell_length_a   5.99743500
_cell_length_b   12.36771500
_cell_length_c   18.72595561
_cell_angle_alpha   49.32777590
_cell_angle_beta   90.00000000
_cell_angle_gamma   90.00000000
_symmetry_Int_Tables_number   1
_chemical_formula_structural   Eu2As3
_chemical_formula_sum   'Eu16 As24'
_cell_volume   1053.47971344
_cell_formula_units_Z   8
loop_
 _symmetry_equiv_pos_site_id
 _symmetry_equiv_pos_as_xyz
  1  'x, y, z'
loop_
 _atom_site_type_symbol
 _atom_site_label
 _atom_site_symmetry_multiplicity
 _atom_site_fract_x
 _atom_site_fract_y
 _atom_site_fract_z
 _atom_site_occupancy
  Eu  Eu0  1  0.96581500  0.00000000  0.25000000  1
  Eu  Eu1  1  0.03418500  0.00000000  0.75000000  1
  Eu  Eu2  1  0.75369600  0.62487100  0.00012800  1
  Eu  Eu3  1  0.24630400  0.37512900  0.99987200  1
  Eu  Eu4  1  0.75369600  0.37512900  0.49987200  1
  Eu  Eu5  1  0.24630400  0.62487100  0.50012800  1
  Eu  Eu6  1  0.54459400  0.76050400  0.24929100  1
  Eu  Eu7  1  0.45540600  0.23949600  0.75070900  1
  Eu  Eu8  1  0.54459400  0.23949600  0.25070900  1
  Eu  Eu9  1  0.45540600  0.76050400  0.74929100  1
  Eu  Eu10  1  0.91563900  0.50000000  0.25000000  1
  Eu  Eu11  1  0.08436100  0.50000000  0.75000000  1
  Eu  Eu12  1  0.73993600  0.86605700  0.50851200  1
  Eu  Eu13  1  0.26006400  0.13394300  0.49148800  1
  Eu  Eu14  1  0.73993600  0.13394300  0.99148800  1
  Eu  Eu15  1  0.26006400  0.86605700  0.00851200  1
  As  As0  1  0.95550100  0.84002200  0.67126400  1
  As  As1  1  0.04449900  0.15997800  0.32873600  1
  As  As2  1  0.95550100  0.15997800  0.82873600  1
  As  As3  1  0.04449900  0.84002200  0.17126400  1
  As  As4  1  0.73510900  0.71393900  0.42140800  1
  As  As5  1  0.26489100  0.28606100  0.57859200  1
  As  As6  1  0.73510900  0.28606100  0.07859200  1
  As  As7  1  0.26489100  0.71393900  0.92140800  1
  As  As8  1  0.77276100  0.81123900  0.07797500  1
  As  As9  1  0.22723900  0.18876100  0.92202500  1
  As  As10  1  0.77276100  0.18876100  0.42202500  1
  As  As11  1  0.22723900  0.81123900  0.57797500  1
  As  As12  1  0.45880000  0.92322000  0.34107700  1
  As  As13  1  0.54120000  0.07678000  0.65892300  1
  As  As14  1  0.45880000  0.07678000  0.15892300  1
  As  As15  1  0.54120000  0.92322000  0.84107700  1
  As  As16  1  0.39578600  0.54542400  0.16679900  1
  As  As17  1  0.60421400  0.45457600  0.83320100  1
  As  As18  1  0.39578600  0.45457600  0.33320100  1
  As  As19  1  0.60421400  0.54542400  0.66679900  1
  As  As20  1  0.90422300  0.39165200  0.65646000  1
  As  As21  1  0.09577700  0.60834800  0.34354000  1
  As  As22  1  0.90422300  0.60834800  0.84354000  1
  As  As23  1  0.09577700  0.39165200  0.15646000  1
loop_
_geom_bond_atom_site_label_1
_geom_bond_atom_site_label_2
_geom_bond_distance
_geom_bond_site_symmetry_2
As0 As11 2.577805 1_655
As0 As22 2.581310 1_555
As0 Eu12 3.127998 1_555
As0 Eu1 3.180211 1_665
As0 Eu9 3.196554 1_655
As0 Eu9 3.197623 1_555
As0 Eu13 3.454357 1_665
As0 Eu11 3.517638 1_655
As1 As10 2.577805 1_455
As1 As23 2.581310 1_555
As1 Eu13 3.127998 1_555
As1 Eu0 3.180211 1_455
As1 Eu8 3.196554 1_455
As1 Eu8 3.197623 1_555
As1 Eu12 3.454357 1_445
As1 Eu10 3.517638 1_455
As2 As9 2.577805 1_655
As2 As20 2.581310 1_555
As2 Eu14 3.127998 1_555
As2 Eu1 3.180211 1_655
As2 Eu7 3.196554 1_655
As2 Eu7 3.197623 1_555
As2 Eu15 3.454357 1_646
As2 Eu11 3.517638 1_655
As3 As8 2.577805 1_455
As3 Eu15 3.127998 1_555
As3 Eu0 3.180211 1_465
As3 Eu6 3.196554 1_455
As3 Eu6 3.197623 1_555
As3 Eu14 3.454357 1_464
As3 Eu10 3.517638 1_455
As4 Eu6 3.099330 1_555
As4 Eu5 3.140698 1_555
As4 Eu0 3.151507 1_565
As4 Eu12 3.193860 1_555
As4 Eu5 3.266395 1_655
As4 Eu4 3.421217 1_555
As5 Eu7 3.099330 1_555
As5 Eu4 3.140698 1_555
As5 Eu1 3.151507 1_555
As5 Eu13 3.193860 1_555
As5 Eu4 3.266395 1_455
As5 Eu5 3.421217 1_555
As6 Eu8 3.099330 1_555
As6 Eu3 3.140698 1_554
As6 Eu0 3.151507 1_555
As6 Eu14 3.193860 1_554
As6 Eu3 3.266395 1_654
As6 Eu2 3.421217 1_555
As7 Eu9 3.099330 1_555
As7 Eu2 3.140698 1_556
As7 Eu1 3.151507 1_565
As7 Eu15 3.193860 1_556
As7 Eu2 3.266395 1_456
As7 Eu3 3.421217 1_555
As8 Eu15 3.089261 1_655
As8 Eu10 3.125007 1_555
As8 Eu6 3.151836 1_555
As8 Eu14 3.188313 1_564
As8 Eu15 3.233719 1_555
As8 Eu2 3.439567 1_555
As9 Eu14 3.089261 1_455
As9 Eu11 3.125007 1_555
As9 Eu7 3.151836 1_555
As9 Eu15 3.188313 1_546
As9 Eu14 3.233719 1_555
As9 Eu3 3.439567 1_555
As10 Eu13 3.089261 1_655
As10 Eu10 3.125007 1_555
As10 Eu8 3.151836 1_555
As10 Eu12 3.188313 1_545
As10 Eu13 3.233719 1_555
As10 Eu4 3.439567 1_555
As11 Eu12 3.089261 1_455
As11 Eu11 3.125007 1_555
As11 Eu9 3.151836 1_555
As11 Eu13 3.188313 1_565
As11 Eu12 3.233719 1_555
As11 Eu5 3.439567 1_555
As12 As4 2.575522 1_555
As12 As14 2.607274 1_565
As12 Eu5 3.128150 1_555
As12 Eu8 3.130662 1_565
As12 Eu12 3.206874 1_555
As12 Eu0 3.231288 1_465
As12 Eu0 3.308454 1_565
As12 Eu6 3.431819 1_555
As13 As5 2.575522 1_555
As13 As15 2.607274 1_545
As13 Eu4 3.128150 1_555
As13 Eu9 3.130662 1_545
As13 Eu13 3.206874 1_555
As13 Eu1 3.231288 1_655
As13 Eu1 3.308454 1_555
As13 Eu7 3.431819 1_555
As14 As6 2.575522 1_555
As14 Eu3 3.128150 1_554
As14 Eu6 3.130662 1_545
As14 Eu14 3.206874 1_554
As14 Eu0 3.231288 1_455
As14 Eu0 3.308454 1_555
As14 Eu8 3.431819 1_555
As15 As7 2.575522 1_555
As15 Eu2 3.128150 1_556
As15 Eu7 3.130662 1_565
As15 Eu15 3.206874 1_556
As15 Eu1 3.231288 1_665
As15 Eu1 3.308454 1_565
As15 Eu9 3.431819 1_555
As16 As18 2.531510 1_555
As16 As23 2.715092 1_555
As16 Eu8 3.135599 1_555
As16 Eu15 3.138878 1_555
As16 Eu10 3.145556 1_455
As16 Eu2 3.364057 1_555
As16 Eu10 3.364924 1_555
As17 As19 2.531510 1_555
As17 As22 2.715092 1_555
As17 Eu9 3.135599 1_555
As17 Eu14 3.138878 1_555
As17 Eu11 3.145556 1_655
As17 Eu3 3.364057 1_555
As17 Eu11 3.364924 1_555
As18 As21 2.715092 1_555
As18 Eu6 3.135599 1_555
As18 Eu13 3.138878 1_555
As18 Eu10 3.145556 1_455
As18 Eu4 3.364057 1_555
As18 Eu10 3.364924 1_555
As19 As20 2.715092 1_555
As19 Eu7 3.135599 1_555
As19 Eu12 3.138878 1_555
As19 Eu11 3.145556 1_655
As19 Eu5 3.364057 1_555
As19 Eu11 3.364924 1_555
As20 Eu11 3.015050 1_655
As20 Eu7 3.093955 1_555
As20 Eu5 3.176867 1_655
As20 Eu4 3.199369 1_555
As20 Eu7 3.640685 1_655
As21 As3 2.581310 1_555
As21 Eu10 3.015050 1_455
As21 Eu6 3.093955 1_555
As21 Eu4 3.176867 1_455
As21 Eu5 3.199369 1_555
As21 Eu6 3.640685 1_455
As22 Eu11 3.015050 1_655
As22 Eu9 3.093955 1_555
As22 Eu3 3.176867 1_655
As22 Eu2 3.199369 1_556
As22 Eu9 3.640685 1_655
As23 Eu10 3.015050 1_455
As23 Eu8 3.093955 1_555
As23 Eu2 3.176867 1_455
As23 Eu3 3.199369 1_554
As23 Eu8 3.640685 1_455
