# generated using pymatgen
data_Dy2MgCd
_symmetry_space_group_name_H-M   'P 1'
_cell_length_a   5.30085291
_cell_length_b   5.30085291
_cell_length_c   5.30085291
_cell_angle_alpha   60.00000000
_cell_angle_beta   60.00000000
_cell_angle_gamma   60.00000000
_symmetry_Int_Tables_number   1
_chemical_formula_structural   Dy2MgCd
_chemical_formula_sum   'Dy2 Mg1 Cd1'
_cell_volume   105.32276765
_cell_formula_units_Z   1
loop_
 _symmetry_equiv_pos_site_id
 _symmetry_equiv_pos_as_xyz
  1  'x, y, z'
loop_
 _atom_site_type_symbol
 _atom_site_label
 _atom_site_symmetry_multiplicity
 _atom_site_fract_x
 _atom_site_fract_y
 _atom_site_fract_z
 _atom_site_occupancy
  Dy  Dy0  1  0.75000000  0.75000000  0.75000000  1
  Dy  Dy1  1  0.25000000  0.25000000  0.25000000  1
  Mg  Mg0  1  -0.00000000  0.00000000  0.00000000  1
  Cd  Cd0  1  0.50000000  0.50000000  0.50000000  1
loop_
_geom_bond_atom_site_label_1
_geom_bond_atom_site_label_2
_geom_bond_distance
_geom_bond_site_symmetry_2
Dy0 Mg0 3.246096 1_665
Dy0 Mg0 3.246096 1_666
Dy0 Mg0 3.246096 1_656
Dy0 Mg0 3.246096 1_566
Dy1 Mg0 3.246096 1_655
Dy1 Mg0 3.246096 1_556
Dy1 Mg0 3.246096 1_565
Dy1 Mg0 3.246096 1_555
Cd0 Dy1 3.246096 1_565
Cd0 Dy0 3.246096 1_554
Cd0 Dy0 3.246096 1_455
Cd0 Dy1 3.246096 1_655
Cd0 Dy1 3.246096 1_556
Cd0 Dy0 3.246096 1_555
Cd0 Dy0 3.246096 1_545
Cd0 Dy1 3.246096 1_555
