# generated using pymatgen
data_K2ZnSe2
_symmetry_space_group_name_H-M   'P 1'
_cell_length_a   8.11360043
_cell_length_b   8.11360043
_cell_length_c   8.11360043
_cell_angle_alpha   133.13966974
_cell_angle_beta   129.36069822
_cell_angle_gamma   71.45922480
_symmetry_Int_Tables_number   1
_chemical_formula_structural   K2ZnSe2
_chemical_formula_sum   'K4 Zn2 Se4'
_cell_volume   294.93552338
_cell_formula_units_Z   2
loop_
 _symmetry_equiv_pos_site_id
 _symmetry_equiv_pos_as_xyz
  1  'x, y, z'
loop_
 _atom_site_type_symbol
 _atom_site_label
 _atom_site_symmetry_multiplicity
 _atom_site_fract_x
 _atom_site_fract_y
 _atom_site_fract_z
 _atom_site_occupancy
  K  K0  1  0.81529688  0.64303151  0.17226637  1
  K  K1  1  0.18470312  0.35696849  0.82773363  1
  K  K2  1  0.47076515  0.14303151  0.32773363  1
  K  K3  1  0.52923485  0.85696849  0.67226637  1
  Zn  Zn0  1  -0.00000000  0.75000000  0.75000000  1
  Zn  Zn1  1  -0.00000000  0.25000000  0.25000000  1
  Se  Se0  1  0.70562101  0.39550284  0.31011817  1
  Se  Se1  1  0.29437899  0.60449716  0.68988183  1
  Se  Se2  1  0.08538367  0.89550284  0.18988183  1
  Se  Se3  1  0.91461633  0.10449716  0.81011817  1
loop_
_geom_bond_atom_site_label_1
_geom_bond_atom_site_label_2
_geom_bond_distance
_geom_bond_site_symmetry_2
K0 Se2 3.328037 1_655
K0 Zn0 3.365280 1_655
K0 Zn1 3.365283 1_655
K0 Se1 3.385939 1_554
K0 Se0 3.398122 1_555
K0 Se3 3.403136 1_565
K0 Se3 3.403149 1_554
K0 Se1 3.627866 1_655
K1 Se3 3.328037 1_455
K1 Zn1 3.365280 1_555
K1 Zn0 3.365283 1_555
K1 Se0 3.385939 1_556
K1 Se1 3.398122 1_555
K1 Se2 3.403136 1_545
K1 Se2 3.403149 1_556
K1 Se0 3.627866 1_455
K2 Se0 3.328037 1_555
K2 Zn0 3.365283 1_544
K2 Zn1 3.365283 1_555
K2 Se3 3.385946 1_555
K2 Se2 3.398134 1_545
K2 Se1 3.403142 1_544
K2 Se1 3.403143 1_555
K2 Se3 3.627859 1_454
K3 Se1 3.328037 1_555
K3 Zn1 3.365283 1_666
K3 Zn0 3.365283 1_655
K3 Se2 3.385946 1_555
K3 Se3 3.398134 1_565
K3 Se0 3.403142 1_566
K3 Se0 3.403143 1_555
K3 Se2 3.627859 1_656
Se0 Zn0 2.496686 1_655
Se0 Zn1 2.496686 1_655
Se1 Zn0 2.496686 1_555
Se1 Zn1 2.496686 1_555
Se2 Zn1 2.496686 1_565
Se2 Zn0 2.496690 1_554
Se3 Zn0 2.496686 1_645
Se3 Zn1 2.496690 1_656
