# generated using pymatgen
data_UAlFe
_symmetry_space_group_name_H-M   'P 1'
_cell_length_a   5.07001866
_cell_length_b   5.22798630
_cell_length_c   8.52864100
_cell_angle_alpha   90.00000000
_cell_angle_beta   90.00000000
_cell_angle_gamma   121.01954876
_symmetry_Int_Tables_number   1
_chemical_formula_structural   UAlFe
_chemical_formula_sum   'U4 Al4 Fe4'
_cell_volume   193.73155251
_cell_formula_units_Z   4
loop_
 _symmetry_equiv_pos_site_id
 _symmetry_equiv_pos_as_xyz
  1  'x, y, z'
loop_
 _atom_site_type_symbol
 _atom_site_label
 _atom_site_symmetry_multiplicity
 _atom_site_fract_x
 _atom_site_fract_y
 _atom_site_fract_z
 _atom_site_occupancy
  U  U0  1  0.68368000  0.34190800  0.57213600  1
  U  U1  1  0.29837100  0.64911900  0.47334300  1
  U  U2  1  0.29837100  0.64911900  0.02665700  1
  U  U3  1  0.68368000  0.34190800  0.92786400  1
  Al  Al0  1  0.70809600  0.85410900  0.75000000  1
  Al  Al1  1  0.81699400  0.66202700  0.25000000  1
  Al  Al2  1  0.81700800  0.15499200  0.25000000  1
  Al  Al3  1  0.31674200  0.15838300  0.25000000  1
  Fe  Fe0  1  0.99090200  0.99542200  0.49673300  1
  Fe  Fe1  1  0.99090200  0.99542200  0.00326700  1
  Fe  Fe2  1  0.19761300  0.34604300  0.75000000  1
  Fe  Fe3  1  0.19764000  0.85154600  0.75000000  1
loop_
_geom_bond_atom_site_label_1
_geom_bond_atom_site_label_2
_geom_bond_distance
_geom_bond_site_symmetry_2
U0 U1 2.800562 1_655
U0 U3 3.033876 1_555
U0 U1 3.215504 1_555
U0 U1 3.217435 1_545
U2 U3 2.800562 1_454
U2 U3 3.215504 1_554
U2 U3 3.217435 1_564
Al0 Fe1 2.485076 1_556
Al0 Fe0 2.485076 1_555
Al0 Fe3 2.488929 1_655
Al0 Fe2 2.489035 1_665
Al0 Fe3 2.581142 1_555
Al0 Fe2 2.582327 1_555
Al0 U2 2.955763 1_556
Al0 U1 2.955763 1_555
Al0 U3 3.024117 1_555
Al0 U0 3.024117 1_555
Al0 U3 3.024127 1_565
Al0 U0 3.024127 1_565
Al1 Al3 2.525281 1_665
Al1 Al3 2.546126 1_555
Al1 Al2 2.577178 1_565
Al1 Fe0 2.580610 1_555
Al1 Fe1 2.580610 1_555
Al1 Al2 2.650809 1_555
Al1 U0 3.104828 1_555
Al1 U3 3.104828 1_554
Al1 U2 3.123955 1_655
Al1 U1 3.123955 1_655
Al1 U2 3.219297 1_555
Al1 U1 3.219297 1_555
Al2 Al3 2.524571 1_655
Al2 Al3 2.545539 1_555
Al2 Fe1 2.580572 1_545
Al2 Fe0 2.580572 1_545
Al2 U0 3.104960 1_555
Al2 U3 3.104960 1_554
Al2 U1 3.124093 1_655
Al2 U2 3.124093 1_655
Al2 U2 3.220178 1_545
Al2 U1 3.220178 1_545
Al3 Fe0 2.536228 1_445
Al3 Fe1 2.536228 1_445
Al3 U0 3.176477 1_555
Al3 U3 3.176477 1_554
Al3 U1 3.235023 1_555
Al3 U2 3.235023 1_555
Al3 U1 3.235724 1_545
Al3 U2 3.235724 1_545
Fe0 Fe3 2.672586 1_655
Fe0 Fe2 2.672849 1_665
Fe0 U1 2.942193 1_655
Fe0 U1 2.942531 1_665
Fe0 U0 3.004623 1_555
Fe0 U0 3.004833 1_565
Fe0 U1 3.015627 1_555
Fe0 U0 3.078024 1_665
Fe1 Fe3 2.672586 1_654
Fe1 Fe2 2.672849 1_664
Fe1 U2 2.942193 1_655
Fe1 U2 2.942531 1_665
Fe1 U3 3.004623 1_554
Fe1 U3 3.004833 1_564
Fe1 U2 3.015627 1_555
Fe1 U3 3.078024 1_664
Fe2 Fe3 2.585294 1_545
Fe2 Fe3 2.642692 1_555
Fe2 U2 2.739447 1_556
Fe2 U1 2.739447 1_555
Fe2 U0 2.903376 1_555
Fe2 U3 2.903376 1_555
Fe2 U0 3.005482 1_455
Fe2 U3 3.005482 1_455
Fe3 U2 2.739547 1_556
Fe3 U1 2.739547 1_555
Fe3 U3 2.904238 1_565
Fe3 U0 2.904238 1_565
Fe3 U0 3.005739 1_455
Fe3 U3 3.005739 1_455
