# generated using pymatgen
data_Sr8Pr4Cu9(HgO8)3
_symmetry_space_group_name_H-M   'P 1'
_cell_length_a   8.65595726
_cell_length_b   8.65595726
_cell_length_c   12.74214789
_cell_angle_alpha   74.22173282
_cell_angle_beta   74.22173282
_cell_angle_gamma   53.17769775
_symmetry_Int_Tables_number   1
_chemical_formula_structural   Sr8Pr4Cu9(HgO8)3
_chemical_formula_sum   'Sr8 Pr4 Cu9 Hg3 O24'
_cell_volume   728.05782485
_cell_formula_units_Z   1
loop_
 _symmetry_equiv_pos_site_id
 _symmetry_equiv_pos_as_xyz
  1  'x, y, z'
loop_
 _atom_site_type_symbol
 _atom_site_label
 _atom_site_symmetry_multiplicity
 _atom_site_fract_x
 _atom_site_fract_y
 _atom_site_fract_z
 _atom_site_occupancy
  Sr  Sr0  1  0.57859564  0.06769092  0.21752669  1
  Sr  Sr1  1  0.06769092  0.57859564  0.21752669  1
  Sr  Sr2  1  0.82369120  0.31247749  0.21759862  1
  Sr  Sr3  1  0.31247749  0.82369120  0.21759862  1
  Sr  Sr4  1  0.42140436  0.93230908  0.78247331  1
  Sr  Sr5  1  0.93230908  0.42140436  0.78247331  1
  Sr  Sr6  1  0.68752251  0.17630880  0.78240138  1
  Sr  Sr7  1  0.17630880  0.68752251  0.78240138  1
  Pr  Pr0  1  0.50000000  -0.00000000  0.50000000  1
  Pr  Pr1  1  0.00000000  0.50000000  0.50000000  1
  Pr  Pr2  1  0.74904653  0.25095347  0.50000000  1
  Pr  Pr3  1  0.25095347  0.74904653  0.50000000  1
  Cu  Cu0  1  0.40955067  0.40955067  0.36139794  1
  Cu  Cu1  1  0.90880151  0.90880151  0.36468765  1
  Cu  Cu2  1  0.65935853  0.65935853  0.36095702  1
  Cu  Cu3  1  0.16019317  0.16019317  0.36121504  1
  Cu  Cu4  1  0.34064147  0.34064147  0.63904298  1
  Cu  Cu5  1  0.83980683  0.83980683  0.63878496  1
  Cu  Cu6  1  0.59044933  0.59044933  0.63860206  1
  Cu  Cu7  1  0.09119849  0.09119849  0.63531235  1
  Cu  Cu8  1  0.00000000  -0.00000000  -0.00000000  1
  Hg  Hg0  1  0.24947689  0.24947689  0.99999840  1
  Hg  Hg1  1  0.50000000  0.50000000  -0.00000000  1
  Hg  Hg2  1  0.75052311  0.75052311  0.00000160  1
  O  O0  1  0.28309301  0.28309301  0.36906840  1
  O  O1  1  0.78305039  0.78305039  0.36819854  1
  O  O2  1  0.53233092  0.53233092  0.36905190  1
  O  O3  1  0.03281379  0.03281379  0.36836203  1
  O  O4  1  0.65868355  0.15701392  0.36826304  1
  O  O5  1  0.15701392  0.65868355  0.36826304  1
  O  O6  1  0.90788646  0.40795717  0.36874552  1
  O  O7  1  0.40795717  0.90788646  0.36874552  1
  O  O8  1  0.21694961  0.21694961  0.63180146  1
  O  O9  1  0.71690699  0.71690699  0.63093160  1
  O  O10  1  0.46766908  0.46766908  0.63094810  1
  O  O11  1  0.96718621  0.96718621  0.63163797  1
  O  O12  1  0.59204283  0.09211354  0.63125448  1
  O  O13  1  0.09211354  0.59204283  0.63125448  1
  O  O14  1  0.84298608  0.34131645  0.63173696  1
  O  O15  1  0.34131645  0.84298608  0.63173696  1
  O  O16  1  0.45818495  0.45818495  0.16698476  1
  O  O17  1  0.96259682  0.96259682  0.14989476  1
  O  O18  1  0.70857692  0.70857692  0.16700187  1
  O  O19  1  0.20796298  0.20796298  0.16698394  1
  O  O20  1  0.29142308  0.29142308  0.83299813  1
  O  O21  1  0.79203702  0.79203702  0.83301606  1
  O  O22  1  0.54181505  0.54181505  0.83301524  1
  O  O23  1  0.03740318  0.03740318  0.85010524  1
loop_
_geom_bond_atom_site_label_1
_geom_bond_atom_site_label_2
_geom_bond_distance
_geom_bond_site_symmetry_2
Cu0 O0 1.930222 1_555
Cu0 O2 1.932655 1_555
Cu0 O4 1.945393 1_555
Cu0 O5 1.945393 1_555
Cu0 O16 2.359940 1_555
Cu1 O4 1.931158 1_565
Cu1 O5 1.931158 1_655
Cu1 O1 1.933623 1_555
Cu1 O3 1.934589 1_665
Cu1 O17 2.607325 1_555
Cu2 O2 1.937647 1_555
Cu2 O7 1.939187 1_555
Cu2 O6 1.939187 1_555
Cu2 O1 1.944923 1_555
Cu2 O18 2.354404 1_555
Cu3 O0 1.935394 1_555
Cu3 O6 1.939577 1_455
Cu3 O7 1.939577 1_545
Cu3 O3 1.946207 1_555
Cu3 O19 2.357766 1_555
Cu4 O10 1.937647 1_555
Cu4 O12 1.939187 1_555
Cu4 O13 1.939187 1_555
Cu4 O8 1.944923 1_555
Cu4 O20 2.354404 1_555
Cu5 O9 1.935394 1_555
Cu5 O13 1.939577 1_655
Cu5 O12 1.939577 1_565
Cu5 O11 1.946207 1_555
Cu5 O21 2.357766 1_555
Cu6 O9 1.930222 1_555
Cu6 O10 1.932655 1_555
Cu6 O14 1.945393 1_555
Cu6 O15 1.945393 1_555
Cu6 O22 2.359940 1_555
Cu7 O14 1.931158 1_455
Cu7 O15 1.931158 1_545
Cu7 O8 1.933623 1_555
Cu7 O11 1.934589 1_445
Cu7 O23 2.607325 1_555
Cu8 O23 1.819542 1_554
Cu8 O17 1.819542 1_445
Hg0 O19 2.027007 1_556
Hg0 O20 2.027182 1_555
Hg1 O22 2.026993 1_554
Hg1 O16 2.026993 1_555
Hg2 O21 2.027007 1_554
Hg2 O18 2.027182 1_555
O0 Pr0 2.505707 1_555
O0 Pr1 2.505707 1_555
O0 Sr0 2.702394 1_555
O0 Sr1 2.702394 1_555
O1 Pr0 2.512413 1_565
O1 Pr1 2.512413 1_655
O1 Sr0 2.633841 1_565
O1 Sr1 2.633841 1_655
O2 Pr2 2.500131 1_555
O2 Pr3 2.500131 1_555
O2 Sr2 2.702546 1_555
O2 Sr3 2.702546 1_555
O3 Pr2 2.516854 1_455
O3 Pr3 2.516854 1_545
O3 Sr2 2.633769 1_455
O3 Sr3 2.633769 1_545
O4 Pr0 2.508917 1_555
O4 Pr2 2.511860 1_555
O4 Sr0 2.634709 1_555
O4 Sr2 2.635193 1_555
O5 Pr1 2.508917 1_555
O5 Pr3 2.511860 1_555
O5 Sr1 2.634709 1_555
O5 Sr3 2.635193 1_555
O6 Pr1 2.505780 1_655
O6 Pr2 2.507506 1_555
O6 Sr1 2.694365 1_655
O6 Sr2 2.697101 1_555
O7 Pr0 2.505780 1_565
O7 Pr3 2.507506 1_555
O7 Sr0 2.694365 1_565
O7 Sr3 2.697101 1_555
O8 Pr0 2.512413 1_555
O8 Pr1 2.512413 1_555
O8 Sr4 2.633841 1_545
O8 Sr5 2.633841 1_455
O9 Pr1 2.505707 1_655
O9 Pr0 2.505707 1_565
O9 Sr5 2.702394 1_555
O9 Sr4 2.702394 1_555
O10 Pr2 2.500131 1_555
O10 Pr3 2.500131 1_555
O10 Sr6 2.702546 1_555
O10 Sr7 2.702546 1_555
O11 Pr3 2.516854 1_655
O11 Pr2 2.516854 1_565
O11 Sr7 2.633769 1_655
O11 Sr6 2.633769 1_565
O12 Pr0 2.505780 1_555
O12 Pr2 2.507506 1_555
O12 Sr4 2.694365 1_545
O12 Sr6 2.697101 1_555
O13 Pr1 2.505780 1_555
O13 Pr3 2.507506 1_555
O13 Sr5 2.694365 1_455
O13 Sr7 2.697101 1_555
O14 Pr1 2.508917 1_655
O14 Pr2 2.511860 1_555
O14 Sr5 2.634709 1_555
O14 Sr6 2.635193 1_555
O15 Pr0 2.508917 1_565
O15 Pr3 2.511860 1_555
O15 Sr4 2.634709 1_555
O15 Sr7 2.635193 1_555
O16 Sr0 2.807931 1_555
O16 Sr1 2.807931 1_555
O16 Sr3 2.810792 1_555
O16 Sr2 2.810792 1_555
O17 Sr2 2.802491 1_565
O17 Sr3 2.802491 1_655
O17 Sr0 2.804034 1_565
O17 Sr1 2.804034 1_655
O18 Sr0 2.800922 1_565
O18 Sr1 2.800922 1_655
O18 Sr2 2.866373 1_555
O18 Sr3 2.866373 1_555
O19 Sr2 2.800344 1_455
O19 Sr3 2.800344 1_545
O19 Sr0 2.865413 1_555
O19 Sr1 2.865413 1_555
O20 Sr5 2.800922 1_455
O20 Sr4 2.800922 1_545
O20 Sr6 2.866373 1_555
O20 Sr7 2.866373 1_555
O21 Sr6 2.800344 1_565
O21 Sr7 2.800344 1_655
O21 Sr4 2.865413 1_555
O21 Sr5 2.865413 1_555
O22 Sr4 2.807931 1_555
O22 Sr5 2.807931 1_555
O22 Sr6 2.810792 1_555
O22 Sr7 2.810792 1_555
O23 Sr7 2.802491 1_545
O23 Sr6 2.802491 1_455
O23 Sr4 2.804034 1_545
O23 Sr5 2.804034 1_455
