# generated using pymatgen
data_Sr2Mn2GaO7
_symmetry_space_group_name_H-M   'P 1'
_cell_length_a   13.02902823
_cell_length_b   13.02902823
_cell_length_c   13.02902823
_cell_angle_alpha   156.50846336
_cell_angle_beta   155.87340419
_cell_angle_gamma   33.92554827
_symmetry_Int_Tables_number   1
_chemical_formula_structural   Sr2Mn2GaO7
_chemical_formula_sum   'Sr4 Mn4 Ga2 O14'
_cell_volume   360.01547443
_cell_formula_units_Z   2
loop_
 _symmetry_equiv_pos_site_id
 _symmetry_equiv_pos_as_xyz
  1  'x, y, z'
loop_
 _atom_site_type_symbol
 _atom_site_label
 _atom_site_symmetry_multiplicity
 _atom_site_fract_x
 _atom_site_fract_y
 _atom_site_fract_z
 _atom_site_occupancy
  Sr  Sr0  1  0.33051900  0.84041100  0.48526900  1
  Sr  Sr1  1  0.66948100  0.15475100  0.50989300  1
  Sr  Sr2  1  0.85514200  0.34041100  0.50989300  1
  Sr  Sr3  1  0.14485800  0.65475100  0.48526900  1
  Mn  Mn0  1  0.56801300  0.57012300  0.98691100  1
  Mn  Mn1  1  0.91678800  0.91889800  0.98691100  1
  Mn  Mn2  1  0.08321200  0.07012300  0.00211000  1
  Mn  Mn3  1  0.43198700  0.41889800  0.00211000  1
  Ga  Ga0  1  0.68086300  0.79154900  0.97241200  1
  Ga  Ga1  1  0.31913700  0.29154900  0.11068600  1
  O  O0  1  0.17250300  0.17049100  0.49712200  1
  O  O1  1  0.64161700  0.15140000  0.29301700  1
  O  O2  1  0.17336900  0.67049100  0.99798800  1
  O  O3  1  0.14102000  0.15953000  0.94119200  1
  O  O4  1  0.33411400  0.33113600  0.49312700  1
  O  O5  1  0.33800900  0.83113600  0.99702200  1
  O  O6  1  0.35838300  0.65140000  0.50978300  1
  O  O7  1  0.82663100  0.82461900  0.49712200  1
  O  O8  1  0.82749700  0.32461900  0.99798800  1
  O  O9  1  0.71833900  0.65953000  0.01851100  1
  O  O10  1  0.85898000  0.80017200  0.01851100  1
  O  O11  1  0.28166100  0.30017200  0.94119200  1
  O  O12  1  0.66588600  0.15901300  0.99702200  1
  O  O13  1  0.66199100  0.65901300  0.49312700  1
loop_
_geom_bond_atom_site_label_1
_geom_bond_atom_site_label_2
_geom_bond_distance
_geom_bond_site_symmetry_2
Mn0 O5 1.883939 1_555
Mn0 O4 1.894560 1_555
Mn0 O8 1.921481 1_555
Mn0 O7 1.940238 1_556
Mn0 O9 2.607159 1_556
Mn1 O12 1.883939 1_565
Mn1 O13 1.894560 1_555
Mn1 O2 1.921481 1_655
Mn1 O0 1.940238 1_666
Mn1 O10 2.607171 1_556
Mn2 O4 1.883939 1_555
Mn2 O5 1.894560 1_544
Mn2 O7 1.921481 1_444
Mn2 O8 1.940238 1_454
Mn2 O3 2.607159 1_554
Mn3 O13 1.883939 1_555
Mn3 O12 1.894560 1_554
Mn3 O0 1.921481 1_554
Mn3 O2 1.940238 1_554
Mn3 O11 2.607171 1_554
Ga0 O10 1.877148 1_556
Ga0 O9 1.877161 1_556
Ga0 O6 1.907079 1_555
Ga0 O1 1.920802 1_566
Ga1 O11 1.877148 1_554
Ga1 O3 1.877159 1_554
Ga1 O1 1.907079 1_555
Ga1 O6 1.920802 1_555
O0 Sr2 2.723030 1_455
O0 Sr0 2.725131 1_545
O1 Sr2 2.458800 1_555
O1 Sr1 2.458812 1_555
O2 Sr0 2.723021 1_556
O2 Sr2 2.725137 1_455
O3 Sr1 2.510678 1_455
O3 Sr3 2.622982 1_545
O3 Sr3 2.806750 1_556
O3 Sr1 3.053995 1_556
O4 Sr1 2.633598 1_555
O4 Sr3 2.635493 1_555
O5 Sr3 2.633609 1_555
O5 Sr1 2.635484 1_566
O6 Sr3 2.458800 1_555
O6 Sr0 2.458811 1_555
O7 Sr1 2.723024 1_565
O7 Sr3 2.725137 1_655
O8 Sr3 2.723030 1_656
O8 Sr1 2.725128 1_555
O9 Sr3 2.510668 1_655
O9 Sr1 2.622982 1_554
O9 Sr1 2.806755 1_565
O9 Sr3 3.054001 1_554
O10 Sr0 2.510678 1_655
O10 Sr2 2.622987 1_554
O10 Sr2 2.806750 1_565
O10 Sr0 3.054000 1_554
O11 Sr2 2.510673 1_455
O11 Sr0 2.622993 1_545
O11 Sr0 2.806750 1_556
O11 Sr2 3.054001 1_556
O12 Sr0 2.633600 1_545
O12 Sr2 2.635493 1_556
O13 Sr2 2.633609 1_555
O13 Sr0 2.635482 1_555
