# generated using pymatgen
data_NdTi12(Bi5O16)3
_symmetry_space_group_name_H-M   'P 1'
_cell_length_a   5.49102700
_cell_length_b   10.90017311
_cell_length_c   16.92155652
_cell_angle_alpha   89.99279811
_cell_angle_beta   99.27141289
_cell_angle_gamma   90.08179502
_symmetry_Int_Tables_number   1
_chemical_formula_structural   NdTi12(Bi5O16)3
_chemical_formula_sum   'Nd1 Ti12 Bi15 O48'
_cell_volume   999.57624722
_cell_formula_units_Z   1
loop_
 _symmetry_equiv_pos_site_id
 _symmetry_equiv_pos_as_xyz
  1  'x, y, z'
loop_
 _atom_site_type_symbol
 _atom_site_label
 _atom_site_symmetry_multiplicity
 _atom_site_fract_x
 _atom_site_fract_y
 _atom_site_fract_z
 _atom_site_occupancy
  Nd  Nd0  1  0.48301700  0.25121400  0.87289800  1
  Ti  Ti0  1  0.93359500  0.75093500  0.74426700  1
  Ti  Ti1  1  0.94329100  0.25016000  0.74509900  1
  Ti  Ti2  1  0.43237500  0.00162800  0.74421100  1
  Ti  Ti3  1  0.43269700  0.49821900  0.74457800  1
  Ti  Ti4  1  0.05516000  0.75159900  0.00292900  1
  Ti  Ti5  1  0.05731300  0.25064100  0.00119500  1
  Ti  Ti6  1  0.55535200  0.49950700  0.00325400  1
  Ti  Ti7  1  0.55586500  0.99784300  0.00251100  1
  Ti  Ti8  1  0.19252300  0.75123800  0.25798700  1
  Ti  Ti9  1  0.19250900  0.25137600  0.25783800  1
  Ti  Ti10  1  0.69251200  0.99881700  0.25801000  1
  Ti  Ti11  1  0.69258600  0.49867800  0.25811800  1
  Bi  Bi0  1  0.23091700  0.51169200  0.42304100  1
  Bi  Bi1  1  0.23062800  0.01175500  0.42295100  1
  Bi  Bi2  1  0.73120400  0.73830000  0.42305300  1
  Bi  Bi3  1  0.73088100  0.23833300  0.42290000  1
  Bi  Bi4  1  0.80314700  0.98904400  0.57673600  1
  Bi  Bi5  1  0.80363900  0.48886500  0.57676800  1
  Bi  Bi6  1  0.30374200  0.76133900  0.57676100  1
  Bi  Bi7  1  0.30388900  0.26095900  0.57661600  1
  Bi  Bi8  1  0.08330600  0.50018800  0.13408100  1
  Bi  Bi9  1  0.08153600  0.00058400  0.13370600  1
  Bi  Bi10  1  0.58227000  0.74955400  0.13367700  1
  Bi  Bi11  1  0.58166200  0.24897200  0.13346200  1
  Bi  Bi12  1  0.95073600  0.50298600  0.86706100  1
  Bi  Bi13  1  0.94950900  0.00279200  0.86769200  1
  Bi  Bi14  1  0.44801400  0.74781100  0.86707900  1
  O  O0  1  0.50819800  0.84854300  0.25070900  1
  O  O1  1  0.50825800  0.34875500  0.25094200  1
  O  O2  1  0.00828600  0.90143700  0.25051600  1
  O  O3  1  0.00795700  0.40147500  0.25075400  1
  O  O4  1  0.32035700  0.61062600  0.02278800  1
  O  O5  1  0.32148600  0.11193000  0.02076100  1
  O  O6  1  0.82100900  0.63811700  0.02224700  1
  O  O7  1  0.81678700  0.14076500  0.02165600  1
  O  O8  1  0.04576100  0.71664000  0.88749200  1
  O  O9  1  0.02791700  0.21603400  0.88737600  1
  O  O10  1  0.54413200  0.53138900  0.88699700  1
  O  O11  1  0.54818400  0.03545800  0.88774000  1
  O  O12  1  0.23978900  0.64222400  0.75629600  1
  O  O13  1  0.23297100  0.14056200  0.75600300  1
  O  O14  1  0.74011700  0.60688500  0.75617700  1
  O  O15  1  0.73301500  0.10996900  0.75785700  1
  O  O16  1  0.20011600  0.88360600  0.78055000  1
  O  O17  1  0.19682800  0.38446900  0.77974800  1
  O  O18  1  0.69882200  0.86537000  0.78000100  1
  O  O19  1  0.69604700  0.36432000  0.78286700  1
  O  O20  1  0.89326000  0.77703600  0.63959500  1
  O  O21  1  0.89348100  0.27739500  0.64025400  1
  O  O22  1  0.39486100  0.97339700  0.63955500  1
  O  O23  1  0.39473000  0.47248300  0.63977600  1
  O  O24  1  0.24833800  0.72061200  0.36265800  1
  O  O25  1  0.24856500  0.22055600  0.36257000  1
  O  O26  1  0.74838900  0.52946100  0.36277100  1
  O  O27  1  0.74853100  0.02938500  0.36271300  1
  O  O28  1  0.53231700  0.87221100  0.49862200  1
  O  O29  1  0.53228600  0.37213900  0.49862200  1
  O  O30  1  0.03229800  0.87780700  0.49873900  1
  O  O31  1  0.03230100  0.37772400  0.49870100  1
  O  O32  1  0.41494700  0.60902800  0.22243500  1
  O  O33  1  0.41526700  0.10901600  0.22254000  1
  O  O34  1  0.91496600  0.64082900  0.22251100  1
  O  O35  1  0.91547500  0.14064800  0.22259200  1
  O  O36  1  0.16524700  0.78852100  0.11967600  1
  O  O37  1  0.16594100  0.28879700  0.11951400  1
  O  O38  1  0.66506200  0.96192000  0.11959200  1
  O  O39  1  0.66469400  0.46112400  0.11929400  1
  O  O40  1  0.03414700  0.62752800  0.50204300  1
  O  O41  1  0.03388000  0.12752700  0.50197100  1
  O  O42  1  0.53409000  0.62248800  0.50209800  1
  O  O43  1  0.53408100  0.12250500  0.50203700  1
  O  O44  1  0.36456000  0.85654500  0.98612900  1
  O  O45  1  0.36541600  0.35602900  0.98452500  1
  O  O46  1  0.86509000  0.89344400  0.98651800  1
  O  O47  1  0.85746800  0.39024600  0.98319300  1
loop_
_geom_bond_atom_site_label_1
_geom_bond_atom_site_label_2
_geom_bond_distance
_geom_bond_site_symmetry_2
Nd0 O45 2.384521 1_555
Nd0 O11 2.386478 1_555
Nd0 O19 2.403931 1_555
Nd0 O17 2.504320 1_555
Nd0 O13 2.524542 1_555
Nd0 O9 2.578064 1_555
Bi0 O40 2.240207 1_555
Bi0 O42 2.301423 1_555
Bi0 O31 2.325048 1_555
Bi0 O29 2.452100 1_555
Bi0 O24 2.503876 1_555
Bi0 O26 2.688602 1_455
Bi1 O41 2.239949 1_555
Bi1 O43 2.302356 1_555
Bi1 O30 2.325395 1_545
Bi1 O28 2.453707 1_545
Bi1 O25 2.502975 1_555
Bi1 O27 2.686184 1_455
Bi2 O42 2.239715 1_555
Bi2 O40 2.302281 1_655
Bi2 O28 2.326683 1_555
Bi2 O30 2.448899 1_655
Bi2 O26 2.502711 1_555
Bi2 O24 2.690196 1_555
Bi3 O43 2.239867 1_555
Bi3 O41 2.303305 1_655
Bi3 O29 2.326689 1_555
Bi3 O31 2.449979 1_655
Bi3 O27 2.503396 1_555
Bi3 O25 2.687230 1_555
Bi4 O28 2.223100 1_555
Bi4 O43 2.302350 1_565
Bi4 O30 2.309815 1_655
Bi4 O41 2.448443 1_665
Bi4 O20 2.559231 1_555
Bi4 O22 2.636659 1_555
Bi5 O29 2.224342 1_555
Bi5 O42 2.304719 1_555
Bi5 O31 2.308335 1_655
Bi5 O40 2.448505 1_655
Bi5 O21 2.557852 1_555
Bi5 O23 2.642037 1_555
Bi6 O30 2.224244 1_555
Bi6 O40 2.304045 1_555
Bi6 O28 2.305244 1_555
Bi6 O42 2.451041 1_555
Bi6 O22 2.558963 1_555
Bi6 O20 2.648303 1_455
Bi7 O31 2.225673 1_555
Bi7 O41 2.302145 1_555
Bi7 O29 2.304761 1_555
Bi7 O43 2.447002 1_555
Bi7 O23 2.555903 1_555
Bi7 O21 2.655825 1_455
Bi8 O39 2.310721 1_455
Bi8 O3 2.342681 1_555
Bi8 O37 2.369631 1_555
Bi8 O34 2.427759 1_455
Bi8 O32 2.464950 1_555
Bi8 O6 2.653900 1_455
Bi8 O4 2.734024 1_555
Bi9 O38 2.299068 1_445
Bi9 O2 2.343311 1_545
Bi9 O36 2.376789 1_545
Bi9 O35 2.423037 1_455
Bi9 O33 2.474144 1_555
Bi9 O7 2.675936 1_455
Bi9 O5 2.769116 1_555
Bi9 O46 2.832436 1_444
Bi10 O36 2.303921 1_555
Bi10 O0 2.347943 1_555
Bi10 O38 2.377745 1_555
Bi10 O32 2.426160 1_555
Bi10 O34 2.474343 1_555
Bi10 O4 2.647156 1_555
Bi10 O6 2.747898 1_555
Bi10 O44 2.839788 1_554
Bi11 O37 2.298745 1_555
Bi11 O1 2.357404 1_555
Bi11 O39 2.375931 1_555
Bi11 O33 2.423506 1_555
Bi11 O35 2.478635 1_555
Bi11 O5 2.650668 1_555
Bi11 O7 2.725698 1_555
Bi12 O10 2.332205 1_555
Bi12 O14 2.333391 1_555
Bi12 O19 2.371212 1_555
Bi12 O8 2.398751 1_655
Bi12 O47 2.440509 1_555
Bi12 O17 2.515274 1_655
Bi13 O11 2.311117 1_555
Bi13 O15 2.350275 1_555
Bi13 O9 2.377006 1_655
Bi13 O18 2.382640 1_545
Bi13 O46 2.444725 1_545
Bi13 O16 2.532827 1_645
Bi14 O8 2.314551 1_555
Bi14 O12 2.335004 1_555
Bi14 O16 2.356003 1_555
Bi14 O10 2.429660 1_555
Bi14 O44 2.443891 1_555
Bi14 O18 2.521555 1_555
O0 Ti10 1.917725 1_555
O0 Ti8 2.051399 1_555
O1 Ti11 1.914545 1_555
O1 Ti9 2.050904 1_555
O2 Ti8 1.919191 1_555
O2 Ti10 2.055579 1_455
O3 Ti9 1.919294 1_555
O3 Ti11 2.052256 1_455
O4 Ti6 1.839387 1_555
O4 Ti4 2.107906 1_555
O5 Ti7 1.852264 1_545
O5 Ti5 2.085965 1_555
O6 Ti4 1.849553 1_655
O6 Ti6 2.087268 1_555
O7 Ti5 1.855088 1_655
O7 Ti7 2.104479 1_545
O8 Ti4 1.982722 1_556
O8 Ti0 2.431526 1_455
O9 Ti5 1.943616 1_556
O9 Ti1 2.406319 1_455
O10 Ti6 1.988837 1_556
O10 Ti3 2.416077 1_555
O11 Ti7 1.978664 1_546
O11 Ti2 2.437418 1_555
O12 Ti3 1.922954 1_555
O12 Ti0 2.041512 1_455
O13 Ti2 1.899296 1_555
O13 Ti1 1.975384 1_455
O14 Ti0 1.923247 1_555
O14 Ti3 2.044167 1_555
O15 Ti1 1.946815 1_555
O15 Ti2 2.011173 1_555
O16 Ti2 1.976715 1_565
O16 Ti0 2.077180 1_455
O17 Ti3 1.952579 1_555
O17 Ti1 2.038769 1_455
O18 Ti0 1.959437 1_555
O18 Ti2 2.105644 1_565
O19 Ti1 2.021045 1_555
O19 Ti3 2.084461 1_555
O20 Ti0 1.772242 1_555
O21 Ti1 1.776022 1_555
O22 Ti2 1.776449 1_565
O23 Ti3 1.774254 1_555
O24 Ti8 1.779814 1_555
O25 Ti9 1.781227 1_555
O26 Ti11 1.779759 1_555
O27 Ti10 1.780152 1_545
O32 Ti11 1.960614 1_555
O32 Ti8 2.121043 1_555
O33 Ti10 1.957370 1_545
O33 Ti9 2.121768 1_555
O34 Ti8 1.957464 1_655
O34 Ti11 2.118113 1_555
O35 Ti9 1.956809 1_655
O35 Ti10 2.116353 1_545
O36 Ti4 2.011181 1_555
O36 Ti8 2.356314 1_555
O37 Ti5 2.037653 1_555
O37 Ti9 2.357168 1_555
O38 Ti7 2.013870 1_555
O38 Ti10 2.357308 1_555
O39 Ti6 2.002946 1_555
O39 Ti11 2.365060 1_555
O44 Ti7 1.858522 1_556
O44 Ti4 2.103741 1_556
O45 Ti6 1.876973 1_556
O45 Ti5 2.099888 1_556
O46 Ti4 1.862264 1_656
O46 Ti7 2.098796 1_556
O47 Ti5 1.873379 1_656
O47 Ti6 2.114916 1_556
