# generated using pymatgen
data_NaV2Bi3O10
_symmetry_space_group_name_H-M   'P 1'
_cell_length_a   5.64395800
_cell_length_b   7.22026426
_cell_length_c   7.24272701
_cell_angle_alpha   107.07594495
_cell_angle_beta   112.69542000
_cell_angle_gamma   96.33186583
_symmetry_Int_Tables_number   1
_chemical_formula_structural   NaV2Bi3O10
_chemical_formula_sum   'Na1 V2 Bi3 O10'
_cell_volume   251.78622235
_cell_formula_units_Z   1
loop_
 _symmetry_equiv_pos_site_id
 _symmetry_equiv_pos_as_xyz
  1  'x, y, z'
loop_
 _atom_site_type_symbol
 _atom_site_label
 _atom_site_symmetry_multiplicity
 _atom_site_fract_x
 _atom_site_fract_y
 _atom_site_fract_z
 _atom_site_occupancy
  Na  Na0  1  0.69682100  0.62383300  0.80882100  1
  V  V0  1  0.65095800  0.15685500  0.85383700  1
  V  V1  1  0.34536600  0.84288800  0.13990000  1
  Bi  Bi0  1  0.91342500  0.24681800  0.47976700  1
  Bi  Bi1  1  0.09073900  0.75618000  0.53378300  1
  Bi  Bi2  1  0.30662700  0.38412700  0.21251800  1
  O  O0  1  0.74246200  0.49811500  0.45634100  1
  O  O1  1  0.24918200  0.49025200  0.51888800  1
  O  O2  1  0.84200900  0.30741200  0.78338200  1
  O  O3  1  0.16597600  0.68749700  0.21875200  1
  O  O4  1  0.43417000  0.10475600  0.29856700  1
  O  O5  1  0.55068700  0.90278000  0.69296200  1
  O  O6  1  0.86998300  0.19597700  0.12443600  1
  O  O7  1  0.14435000  0.79942500  0.87272800  1
  O  O8  1  0.62829500  0.76990200  0.16891800  1
  O  O9  1  0.36894900  0.23318200  0.83640100  1
loop_
_geom_bond_atom_site_label_1
_geom_bond_atom_site_label_2
_geom_bond_distance
_geom_bond_site_symmetry_2
Na0 O1 2.429399 1_555
Na0 O2 2.491436 1_555
Na0 O7 2.499663 1_655
Na0 O5 2.503152 1_555
Na0 O0 2.570177 1_555
Na0 O8 2.704986 1_556
Bi0 O0 2.166247 1_555
Bi0 O1 2.306334 1_655
Bi0 O2 2.312431 1_555
Bi0 O6 2.399275 1_555
Bi0 O4 2.439073 1_555
Bi1 O1 2.197614 1_555
Bi1 O7 2.274055 1_555
Bi1 O0 2.319025 1_455
Bi1 O5 2.357157 1_555
Bi1 O3 2.400398 1_555
Bi2 O0 2.279154 1_555
Bi2 O1 2.286358 1_555
Bi2 O4 2.384910 1_555
Bi2 O3 2.404832 1_555
Bi2 O6 2.421806 1_455
Bi2 O9 2.795120 1_554
O2 V0 1.759718 1_555
O3 V1 1.783814 1_555
O4 V1 1.793668 1_545
O5 V0 1.746457 1_565
O6 V0 1.782506 1_554
O7 V1 1.732287 1_556
O8 V1 1.692174 1_555
O9 V0 1.712380 1_555
