# generated using pymatgen
data_NaNbN2
_symmetry_space_group_name_H-M   'P 1'
_cell_length_a   5.65186500
_cell_length_b   11.33701300
_cell_length_c   15.95974900
_cell_angle_alpha   90.00000000
_cell_angle_beta   90.00000000
_cell_angle_gamma   90.00000000
_symmetry_Int_Tables_number   1
_chemical_formula_structural   NaNbN2
_chemical_formula_sum   'Na16 Nb16 N32'
_cell_volume   1022.62517810
_cell_formula_units_Z   16
loop_
 _symmetry_equiv_pos_site_id
 _symmetry_equiv_pos_as_xyz
  1  'x, y, z'
loop_
 _atom_site_type_symbol
 _atom_site_label
 _atom_site_symmetry_multiplicity
 _atom_site_fract_x
 _atom_site_fract_y
 _atom_site_fract_z
 _atom_site_occupancy
  Na  Na0  1  0.28559000  0.99747900  0.44108600  1
  Na  Na1  1  0.78559000  0.50252100  0.55891400  1
  Na  Na2  1  0.71441000  0.49747900  0.05891400  1
  Na  Na3  1  0.21441000  0.00252100  0.94108600  1
  Na  Na4  1  0.71441000  0.00252100  0.55891400  1
  Na  Na5  1  0.21441000  0.49747900  0.44108600  1
  Na  Na6  1  0.28559000  0.50252100  0.94108600  1
  Na  Na7  1  0.78559000  0.99747900  0.05891400  1
  Na  Na8  1  0.25039200  0.28014900  0.31060200  1
  Na  Na9  1  0.75039200  0.21985100  0.68939800  1
  Na  Na10  1  0.74960800  0.78014900  0.18939800  1
  Na  Na11  1  0.24960800  0.71985100  0.81060200  1
  Na  Na12  1  0.74960800  0.71985100  0.68939800  1
  Na  Na13  1  0.24960800  0.78014900  0.31060200  1
  Na  Na14  1  0.25039200  0.21985100  0.81060200  1
  Na  Na15  1  0.75039200  0.28014900  0.18939800  1
  Nb  Nb0  1  0.79182000  0.02011700  0.30997000  1
  Nb  Nb1  1  0.29182000  0.47988300  0.69003000  1
  Nb  Nb2  1  0.20818000  0.52011700  0.19003000  1
  Nb  Nb3  1  0.70818000  0.97988300  0.80997000  1
  Nb  Nb4  1  0.20818000  0.97988300  0.69003000  1
  Nb  Nb5  1  0.70818000  0.52011700  0.30997000  1
  Nb  Nb6  1  0.79182000  0.47988300  0.80997000  1
  Nb  Nb7  1  0.29182000  0.02011700  0.19003000  1
  Nb  Nb8  1  0.74200800  0.27235500  0.43410300  1
  Nb  Nb9  1  0.24200800  0.22764500  0.56589700  1
  Nb  Nb10  1  0.25799200  0.77235500  0.06589700  1
  Nb  Nb11  1  0.75799200  0.72764500  0.93410300  1
  Nb  Nb12  1  0.25799200  0.72764500  0.56589700  1
  Nb  Nb13  1  0.75799200  0.77235500  0.43410300  1
  Nb  Nb14  1  0.74200800  0.22764500  0.93410300  1
  Nb  Nb15  1  0.24200800  0.27235500  0.06589700  1
  N  N0  1  0.00818800  0.32291100  0.50601300  1
  N  N1  1  0.50818800  0.17708900  0.49398700  1
  N  N2  1  0.99181200  0.82291100  0.99398700  1
  N  N3  1  0.49181200  0.67708900  0.00601300  1
  N  N4  1  0.99181200  0.67708900  0.49398700  1
  N  N5  1  0.49181200  0.82291100  0.50601300  1
  N  N6  1  0.00818800  0.17708900  0.00601300  1
  N  N7  1  0.50818800  0.32291100  0.99398700  1
  N  N8  1  0.58379200  0.41596000  0.39796800  1
  N  N9  1  0.08379200  0.08404000  0.60203200  1
  N  N10  1  0.41620800  0.91596000  0.10203200  1
  N  N11  1  0.91620800  0.58404000  0.89796800  1
  N  N12  1  0.41620800  0.58404000  0.60203200  1
  N  N13  1  0.91620800  0.91596000  0.39796800  1
  N  N14  1  0.58379200  0.08404000  0.89796800  1
  N  N15  1  0.08379200  0.41596000  0.10203200  1
  N  N16  1  0.85391700  0.18672900  0.33478500  1
  N  N17  1  0.35391700  0.31327100  0.66521500  1
  N  N18  1  0.14608300  0.68672900  0.16521500  1
  N  N19  1  0.64608300  0.81327100  0.83478500  1
  N  N20  1  0.14608300  0.81327100  0.66521500  1
  N  N21  1  0.64608300  0.68672900  0.33478500  1
  N  N22  1  0.85391700  0.31327100  0.83478500  1
  N  N23  1  0.35391700  0.18672900  0.16521500  1
  N  N24  1  0.54526900  0.48334800  0.20548300  1
  N  N25  1  0.04526900  0.01665200  0.79451700  1
  N  N26  1  0.45473100  0.98334800  0.29451700  1
  N  N27  1  0.95473100  0.51665200  0.70548300  1
  N  N28  1  0.45473100  0.51665200  0.79451700  1
  N  N29  1  0.95473100  0.98334800  0.20548300  1
  N  N30  1  0.54526900  0.01665200  0.70548300  1
  N  N31  1  0.04526900  0.48334800  0.29451700  1
loop_
_geom_bond_atom_site_label_1
_geom_bond_atom_site_label_2
_geom_bond_distance
_geom_bond_site_symmetry_2
N0 Nb9 1.956095 1_555
N0 Nb8 1.977094 1_455
N0 Na5 2.519720 1_555
N0 Na1 2.538089 1_455
N1 Nb8 1.956095 1_555
N1 Nb9 1.977094 1_555
N1 Na4 2.519720 1_555
N1 Na0 2.538089 1_545
N2 Nb11 1.956095 1_555
N2 Nb10 1.977094 1_656
N2 Na7 2.519720 1_556
N2 Na3 2.538089 1_665
N3 Nb10 1.956095 1_555
N3 Nb11 1.977094 1_554
N3 Na6 2.519720 1_554
N3 Na2 2.538089 1_555
N4 Nb13 1.956095 1_555
N4 Nb12 1.977094 1_655
N4 Na1 2.519720 1_555
N4 Na5 2.538089 1_655
N5 Nb12 1.956095 1_555
N5 Nb13 1.977094 1_555
N5 Na0 2.519720 1_555
N5 Na4 2.538089 1_565
N6 Nb15 1.956095 1_555
N6 Nb14 1.977094 1_454
N6 Na3 2.519720 1_554
N6 Na7 2.538089 1_445
N7 Nb14 1.956095 1_555
N7 Nb15 1.977094 1_556
N7 Na2 2.519720 1_556
N7 Na6 2.538089 1_555
N8 Nb8 1.944933 1_555
N8 Nb5 1.964946 1_555
N8 Na5 2.384564 1_555
N8 Na8 2.804557 1_555
N8 Na1 2.976887 1_555
N9 Nb9 1.944933 1_555
N9 Nb4 1.964946 1_545
N9 Na4 2.384564 1_455
N9 Na9 2.804557 1_455
N9 Na0 2.976887 1_545
N10 Nb10 1.944933 1_555
N10 Nb7 1.964946 1_565
N10 Na7 2.384564 1_555
N10 Na10 2.804557 1_555
N10 Na3 2.976887 1_564
N11 Nb11 1.944933 1_555
N11 Nb6 1.964946 1_555
N11 Na6 2.384564 1_655
N11 Na11 2.804557 1_655
N11 Na2 2.976887 1_556
N12 Nb12 1.944933 1_555
N12 Nb1 1.964946 1_555
N12 Na1 2.384564 1_555
N12 Na12 2.804557 1_555
N12 Na5 2.976887 1_555
N13 Nb13 1.944933 1_555
N13 Nb0 1.964946 1_565
N13 Na0 2.384564 1_655
N13 Na13 2.804557 1_655
N13 Na4 2.976887 1_565
N14 Nb14 1.944933 1_555
N14 Nb3 1.964946 1_545
N14 Na3 2.384564 1_555
N14 Na14 2.804557 1_555
N14 Na7 2.976887 1_546
N15 Nb15 1.944933 1_555
N15 Nb2 1.964946 1_555
N15 Na2 2.384564 1_455
N15 Na15 2.804557 1_455
N15 Na6 2.976887 1_554
N16 Nb0 1.961607 1_555
N16 Nb8 1.963391 1_555
N16 Na8 2.508376 1_655
N16 Na15 2.616874 1_555
N17 Nb1 1.961607 1_555
N17 Nb9 1.963391 1_555
N17 Na9 2.508376 1_555
N17 Na14 2.616874 1_555
N18 Nb2 1.961607 1_555
N18 Nb10 1.963391 1_555
N18 Na10 2.508376 1_455
N18 Na13 2.616874 1_555
N19 Nb3 1.961607 1_555
N19 Nb11 1.963391 1_555
N19 Na11 2.508376 1_555
N19 Na12 2.616874 1_555
N20 Nb4 1.961607 1_555
N20 Nb12 1.963391 1_555
N20 Na12 2.508376 1_455
N20 Na11 2.616874 1_555
N21 Nb5 1.961607 1_555
N21 Nb13 1.963391 1_555
N21 Na13 2.508376 1_555
N21 Na10 2.616874 1_555
N22 Nb6 1.961607 1_555
N22 Nb14 1.963391 1_555
N22 Na14 2.508376 1_655
N22 Na9 2.616874 1_555
N23 Nb7 1.961607 1_555
N23 Nb15 1.963391 1_555
N23 Na15 2.508376 1_555
N23 Na8 2.616874 1_555
N24 Nb5 1.949972 1_555
N24 Nb2 1.965784 1_555
N24 Na2 2.532075 1_555
N24 Na15 2.591686 1_555
N25 Nb4 1.949972 1_545
N25 Nb3 1.965784 1_445
N25 Na3 2.532075 1_555
N25 Na14 2.591686 1_555
N26 Nb7 1.949972 1_565
N26 Nb0 1.965784 1_565
N26 Na0 2.532075 1_555
N26 Na13 2.591686 1_555
N27 Nb6 1.949972 1_555
N27 Nb1 1.965784 1_655
N27 Na1 2.532075 1_555
N27 Na12 2.591686 1_555
N28 Nb1 1.949972 1_555
N28 Nb6 1.965784 1_555
N28 Na6 2.532075 1_555
N28 Na11 2.591686 1_555
N29 Nb0 1.949972 1_565
N29 Nb7 1.965784 1_665
N29 Na7 2.532075 1_555
N29 Na10 2.591686 1_555
N30 Nb3 1.949972 1_545
N30 Nb4 1.965784 1_545
N30 Na4 2.532075 1_555
N30 Na9 2.591686 1_555
N31 Nb2 1.949972 1_555
N31 Nb5 1.965784 1_455
N31 Na5 2.532075 1_555
N31 Na8 2.591686 1_555
