# generated using pymatgen
data_Cd4Mo3WO16
_symmetry_space_group_name_H-M   'P 1'
_cell_length_a   5.24011500
_cell_length_b   5.24011500
_cell_length_c   11.50623800
_cell_angle_alpha   90.00000000
_cell_angle_beta   90.00000000
_cell_angle_gamma   90.00000000
_symmetry_Int_Tables_number   1
_chemical_formula_structural   Cd4Mo3WO16
_chemical_formula_sum   'Cd4 Mo3 W1 O16'
_cell_volume   315.94754798
_cell_formula_units_Z   1
loop_
 _symmetry_equiv_pos_site_id
 _symmetry_equiv_pos_as_xyz
  1  'x, y, z'
loop_
 _atom_site_type_symbol
 _atom_site_label
 _atom_site_symmetry_multiplicity
 _atom_site_fract_x
 _atom_site_fract_y
 _atom_site_fract_z
 _atom_site_occupancy
  Cd  Cd0  1  0.00000000  0.50000000  0.74985600  1
  Cd  Cd1  1  0.50000000  0.00000000  0.25014400  1
  Cd  Cd2  1  0.50000000  0.50000000  0.00000000  1
  Cd  Cd3  1  0.00000000  0.00000000  0.50000000  1
  Mo  Mo0  1  0.50000000  0.00000000  0.75005300  1
  Mo  Mo1  1  0.00000000  0.50000000  0.24994700  1
  Mo  Mo2  1  0.00000000  0.00000000  0.00000000  1
  W  W0  1  0.50000000  0.50000000  0.50000000  1
  O  O0  1  0.34158600  0.24467500  0.83489800  1
  O  O1  1  0.84017900  0.74388200  0.33495900  1
  O  O2  1  0.65841400  0.75532500  0.83489800  1
  O  O3  1  0.15982100  0.25611800  0.33495900  1
  O  O4  1  0.24501100  0.15849100  0.08476400  1
  O  O5  1  0.74761100  0.66016900  0.58566200  1
  O  O6  1  0.75498900  0.84150900  0.08476400  1
  O  O7  1  0.25238900  0.33983100  0.58566200  1
  O  O8  1  0.15849100  0.75498900  0.91523600  1
  O  O9  1  0.66016900  0.25238900  0.41433800  1
  O  O10  1  0.84150900  0.24501100  0.91523600  1
  O  O11  1  0.33983100  0.74761100  0.41433800  1
  O  O12  1  0.25611800  0.84017900  0.66504100  1
  O  O13  1  0.75532500  0.34158600  0.16510200  1
  O  O14  1  0.74388200  0.15982100  0.66504100  1
  O  O15  1  0.24467500  0.65841400  0.16510200  1
loop_
_geom_bond_atom_site_label_1
_geom_bond_atom_site_label_2
_geom_bond_distance
_geom_bond_site_symmetry_2
Cd0 O14 2.435398 1_455
Cd0 O12 2.435398 1_555
Cd0 O2 2.439564 1_455
Cd0 O0 2.439564 1_555
Cd0 O5 2.454149 1_455
Cd0 O7 2.454149 1_555
Cd0 O8 2.469036 1_555
Cd0 O10 2.469036 1_455
Cd1 O1 2.435398 1_545
Cd1 O3 2.435398 1_555
Cd1 O15 2.439564 1_545
Cd1 O13 2.439564 1_555
Cd1 O9 2.454149 1_555
Cd1 O11 2.454149 1_545
Cd1 O4 2.469036 1_555
Cd1 O6 2.469036 1_545
Cd2 O10 2.437021 1_554
Cd2 O6 2.437021 1_555
Cd2 O4 2.437021 1_555
Cd2 O8 2.437021 1_554
Cd2 O0 2.467390 1_554
Cd2 O13 2.467390 1_555
Cd2 O15 2.467390 1_555
Cd2 O2 2.467390 1_554
Cd3 O7 2.427286 1_555
Cd3 O9 2.427286 1_455
Cd3 O5 2.427286 1_445
Cd3 O11 2.427286 1_545
Cd3 O1 2.471594 1_445
Cd3 O3 2.471594 1_555
Cd3 O14 2.471594 1_455
Cd3 O12 2.471594 1_545
Mo0 O0 1.812728 1_555
Mo0 O2 1.812728 1_545
Mo0 O12 1.814220 1_545
Mo0 O14 1.814220 1_555
Mo1 O13 1.812728 1_455
Mo1 O15 1.812728 1_555
Mo1 O3 1.814220 1_555
Mo1 O1 1.814220 1_455
Mo2 O8 1.813657 1_544
Mo2 O4 1.813657 1_555
Mo2 O6 1.813657 1_445
Mo2 O10 1.813657 1_454
O5 W0 1.832884 1_555
O7 W0 1.832884 1_555
O9 W0 1.832884 1_555
O11 W0 1.832884 1_555
