# generated using pymatgen
data_NaLa(SeO5)2
_symmetry_space_group_name_H-M   'P 1'
_cell_length_a   7.27851200
_cell_length_b   11.35931600
_cell_length_c   11.48078667
_cell_angle_alpha   68.93894024
_cell_angle_beta   90.00000000
_cell_angle_gamma   90.00000000
_symmetry_Int_Tables_number   1
_chemical_formula_structural   NaLa(SeO5)2
_chemical_formula_sum   'Na4 La4 Se8 O40'
_cell_volume   885.80927563
_cell_formula_units_Z   4
loop_
 _symmetry_equiv_pos_site_id
 _symmetry_equiv_pos_as_xyz
  1  'x, y, z'
loop_
 _atom_site_type_symbol
 _atom_site_label
 _atom_site_symmetry_multiplicity
 _atom_site_fract_x
 _atom_site_fract_y
 _atom_site_fract_z
 _atom_site_occupancy
  Na  Na0  1  0.85623700  0.45972700  0.87442200  1
  Na  Na1  1  0.35623700  0.04027300  0.12557800  1
  Na  Na2  1  0.14376300  0.54027300  0.12557800  1
  Na  Na3  1  0.64376300  0.95972700  0.87442200  1
  La  La0  1  0.61624200  0.33240800  0.25263400  1
  La  La1  1  0.11624200  0.16759200  0.74736600  1
  La  La2  1  0.38375800  0.66759200  0.74736600  1
  La  La3  1  0.88375800  0.83240800  0.25263400  1
  Se  Se0  1  0.84875900  0.13775700  0.05427500  1
  Se  Se1  1  0.34875900  0.36224300  0.94572500  1
  Se  Se2  1  0.15124100  0.86224300  0.94572500  1
  Se  Se3  1  0.65124100  0.63775700  0.05427500  1
  Se  Se4  1  0.62635000  0.22073600  0.60707800  1
  Se  Se5  1  0.12635000  0.27926400  0.39292200  1
  Se  Se6  1  0.37365000  0.77926400  0.39292200  1
  Se  Se7  1  0.87365000  0.72073600  0.60707800  1
  O  O0  1  0.02797800  0.04958500  0.12825600  1
  O  O1  1  0.52797800  0.45041500  0.87174400  1
  O  O2  1  0.97202200  0.95041500  0.87174400  1
  O  O3  1  0.47202200  0.54958500  0.12825600  1
  O  O4  1  0.89368800  0.21281400  0.90198200  1
  O  O5  1  0.39368800  0.28718600  0.09801800  1
  O  O6  1  0.10631200  0.78718600  0.09801800  1
  O  O7  1  0.60631200  0.71281400  0.90198200  1
  O  O8  1  0.79780000  0.24764500  0.11295500  1
  O  O9  1  0.29780000  0.25235500  0.88704500  1
  O  O10  1  0.20220000  0.75235500  0.88704500  1
  O  O11  1  0.70220000  0.74764500  0.11295500  1
  O  O12  1  0.68187600  0.03006000  0.07343700  1
  O  O13  1  0.18187600  0.46994000  0.92656300  1
  O  O14  1  0.31812400  0.96994000  0.92656300  1
  O  O15  1  0.81812400  0.53006000  0.07343700  1
  O  O16  1  0.61033400  0.20427600  0.46953900  1
  O  O17  1  0.11033400  0.29572400  0.53046100  1
  O  O18  1  0.38966600  0.79572400  0.53046100  1
  O  O19  1  0.88966600  0.70427600  0.46953900  1
  O  O20  1  0.79661400  0.13204400  0.69123000  1
  O  O21  1  0.29661400  0.36795600  0.30877000  1
  O  O22  1  0.20338600  0.86795600  0.30877000  1
  O  O23  1  0.70338600  0.63204400  0.69123000  1
  O  O24  1  0.43683200  0.15979600  0.68975300  1
  O  O25  1  0.93683200  0.34020400  0.31024700  1
  O  O26  1  0.56316800  0.84020400  0.31024700  1
  O  O27  1  0.06316800  0.65979600  0.68975300  1
  O  O28  1  0.65832700  0.37495800  0.58857000  1
  O  O29  1  0.15832700  0.12504200  0.41143000  1
  O  O30  1  0.34167300  0.62504200  0.41143000  1
  O  O31  1  0.84167300  0.87495800  0.58857000  1
  O  O32  1  0.46329600  0.11685800  0.29078900  1
  O  O33  1  0.96329600  0.38314200  0.70921100  1
  O  O34  1  0.53670400  0.88314200  0.70921100  1
  O  O35  1  0.03670400  0.61685800  0.29078900  1
  O  O36  1  0.68303100  0.48590200  0.37941300  1
  O  O37  1  0.18303100  0.01409800  0.62058700  1
  O  O38  1  0.31696900  0.51409800  0.62058700  1
  O  O39  1  0.81696900  0.98590200  0.37941300  1
loop_
_geom_bond_atom_site_label_1
_geom_bond_atom_site_label_2
_geom_bond_distance
_geom_bond_site_symmetry_2
Na0 O1 2.392264 1_555
Na0 O13 2.457521 1_655
Na0 O33 2.479445 1_555
Na0 O23 2.556112 1_555
Na0 O15 2.692170 1_556
Na0 O4 2.720896 1_555
Na0 O27 2.909530 1_655
Na0 O8 2.956786 1_556
Na1 O0 2.392264 1_555
Na1 O12 2.457521 1_555
Na1 O32 2.479445 1_555
Na1 O22 2.556112 1_545
Na1 O14 2.692170 1_544
Na1 O5 2.720896 1_555
Na1 O26 2.909530 1_545
Na1 O9 2.956786 1_554
Na2 O3 2.392264 1_555
Na2 O15 2.457521 1_455
Na2 O35 2.479445 1_555
Na2 O21 2.556112 1_555
Na2 O13 2.692170 1_554
Na2 O6 2.720896 1_555
Na2 O25 2.909530 1_455
Na2 O10 2.956786 1_554
Na3 O2 2.392264 1_555
Na3 O14 2.457521 1_555
Na3 O34 2.479445 1_555
Na3 O20 2.556112 1_565
Na3 O12 2.692170 1_566
Na3 O7 2.720896 1_555
Na3 O24 2.909530 1_565
Na3 O11 2.956786 1_556
La0 O16 2.390934 1_555
La0 O25 2.435629 1_555
La0 O21 2.485493 1_555
La0 O8 2.520859 1_555
La0 O32 2.579810 1_555
La0 O5 2.587322 1_555
La0 O3 2.587482 1_555
La0 O36 2.686812 1_555
La0 O15 2.848288 1_555
La1 O17 2.390934 1_555
La1 O24 2.435629 1_555
La1 O20 2.485493 1_455
La1 O9 2.520859 1_555
La1 O33 2.579810 1_455
La1 O4 2.587322 1_455
La1 O2 2.587482 1_445
La1 O37 2.686812 1_555
La1 O14 2.848288 1_545
La2 O18 2.390934 1_555
La2 O27 2.435629 1_555
La2 O23 2.485493 1_555
La2 O10 2.520859 1_555
La2 O34 2.579810 1_555
La2 O7 2.587322 1_555
La2 O1 2.587482 1_555
La2 O38 2.686812 1_555
La2 O13 2.848288 1_555
La3 O19 2.390934 1_555
La3 O26 2.435629 1_555
La3 O22 2.485493 1_655
La3 O11 2.520859 1_555
La3 O35 2.579810 1_655
La3 O6 2.587322 1_655
La3 O0 2.587482 1_665
La3 O39 2.686812 1_555
La3 O12 2.848288 1_565
O0 Se0 1.677715 1_455
O1 Se1 1.677715 1_555
O2 Se2 1.677715 1_655
O3 Se3 1.677715 1_555
O4 Se0 1.679136 1_556
O5 Se1 1.679136 1_554
O6 Se2 1.679136 1_554
O7 Se3 1.679136 1_556
O8 Se0 1.659509 1_555
O9 Se1 1.659509 1_555
O10 Se2 1.659509 1_555
O11 Se3 1.659509 1_555
O12 Se0 1.681364 1_555
O13 Se1 1.681364 1_555
O14 Se2 1.681364 1_555
O15 Se3 1.681364 1_555
O16 Se4 1.659568 1_555
O17 Se5 1.659568 1_555
O18 Se6 1.659568 1_555
O19 Se7 1.659568 1_555
O20 Se4 1.668723 1_555
O21 Se5 1.668723 1_555
O22 Se6 1.668723 1_555
O23 Se7 1.668723 1_555
O24 Se4 1.676500 1_555
O25 Se5 1.676500 1_655
O26 Se6 1.676500 1_555
O27 Se7 1.676500 1_455
O28 Se4 1.703167 1_555
O29 Se5 1.703167 1_555
O30 Se6 1.703167 1_555
O31 Se7 1.703167 1_555
