# generated using pymatgen
data_CaGd2(GeO3)4
_symmetry_space_group_name_H-M   'P 1'
_cell_length_a   10.18000806
_cell_length_b   10.18000806
_cell_length_c   5.14118700
_cell_angle_alpha   90.00000000
_cell_angle_beta   90.00000000
_cell_angle_gamma   90.24708111
_symmetry_Int_Tables_number   1
_chemical_formula_structural   CaGd2(GeO3)4
_chemical_formula_sum   'Ca2 Gd4 Ge8 O24'
_cell_volume   532.78943746
_cell_formula_units_Z   2
loop_
 _symmetry_equiv_pos_site_id
 _symmetry_equiv_pos_as_xyz
  1  'x, y, z'
loop_
 _atom_site_type_symbol
 _atom_site_label
 _atom_site_symmetry_multiplicity
 _atom_site_fract_x
 _atom_site_fract_y
 _atom_site_fract_z
 _atom_site_occupancy
  Ca  Ca0  1  0.50000000  0.50000000  0.50000000  1
  Ca  Ca1  1  0.00000000  0.00000000  0.50000000  1
  Gd  Gd0  1  0.00000000  0.50000000  0.50000000  1
  Gd  Gd1  1  0.50000000  0.00000000  0.50000000  1
  Gd  Gd2  1  0.75000000  0.75000000  0.50000000  1
  Gd  Gd3  1  0.25000000  0.25000000  0.50000000  1
  Ge  Ge0  1  0.75144500  0.02296800  0.99852300  1
  Ge  Ge1  1  0.24855500  0.97703200  0.00147700  1
  Ge  Ge2  1  0.25144500  0.52296800  0.00147700  1
  Ge  Ge3  1  0.74855500  0.47703200  0.99852300  1
  Ge  Ge4  1  0.02296800  0.75144500  0.00147700  1
  Ge  Ge5  1  0.97703200  0.24855500  0.99852300  1
  Ge  Ge6  1  0.52296800  0.25144500  0.99852300  1
  Ge  Ge7  1  0.47703200  0.74855500  0.00147700  1
  O  O0  1  0.87071200  0.12928800  0.15672300  1
  O  O1  1  0.37375200  0.87375200  0.15898100  1
  O  O2  1  0.12624800  0.62624800  0.15898100  1
  O  O3  1  0.62928800  0.37071200  0.15672300  1
  O  O4  1  0.12928800  0.87071200  0.84327700  1
  O  O5  1  0.62624800  0.12624800  0.84101900  1
  O  O6  1  0.87375200  0.37375200  0.84101900  1
  O  O7  1  0.37071200  0.62928800  0.84327700  1
  O  O8  1  0.56371500  0.67709400  0.25520600  1
  O  O9  1  0.05867600  0.32618600  0.25519000  1
  O  O10  1  0.44132400  0.17381400  0.25519000  1
  O  O11  1  0.93628400  0.82290600  0.25520600  1
  O  O12  1  0.43628400  0.32290600  0.74479400  1
  O  O13  1  0.94132400  0.67381400  0.74481000  1
  O  O14  1  0.55867600  0.82618600  0.74481000  1
  O  O15  1  0.06371600  0.17709400  0.74479400  1
  O  O16  1  0.67709400  0.56371500  0.74479400  1
  O  O17  1  0.32618600  0.05867600  0.74481000  1
  O  O18  1  0.17381400  0.44132400  0.74481000  1
  O  O19  1  0.82290600  0.93628400  0.74479400  1
  O  O20  1  0.32290600  0.43628400  0.25520600  1
  O  O21  1  0.67381400  0.94132400  0.25519000  1
  O  O22  1  0.82618600  0.55867600  0.25519000  1
  O  O23  1  0.17709400  0.06371600  0.25520600  1
loop_
_geom_bond_atom_site_label_1
_geom_bond_atom_site_label_2
_geom_bond_distance
_geom_bond_site_symmetry_2
Ca0 O16 2.290126 1_555
Ca0 O8 2.290126 1_555
Ca0 O12 2.290129 1_555
Ca0 O20 2.290129 1_555
Ca0 O7 2.567909 1_555
Ca0 O3 2.567909 1_555
Ca1 O23 2.290129 1_555
Ca1 O15 2.290129 1_555
Ca1 O19 2.290129 1_445
Ca1 O11 2.290129 1_445
Ca1 O4 2.567909 1_545
Ca1 O0 2.567909 1_455
Gd0 O22 2.254084 1_455
Gd0 O9 2.254084 1_555
Gd0 O18 2.254084 1_555
Gd0 O13 2.254084 1_455
Gd0 O6 2.522523 1_455
Gd0 O2 2.522523 1_555
Gd1 O10 2.254084 1_555
Gd1 O14 2.254084 1_545
Gd1 O17 2.254084 1_555
Gd1 O21 2.254084 1_545
Gd1 O5 2.522523 1_555
Gd1 O1 2.522523 1_545
Gd2 O11 2.391407 1_555
Gd2 O19 2.391407 1_555
Gd2 O16 2.391415 1_555
Gd2 O8 2.391415 1_555
Gd2 O21 2.447879 1_555
Gd2 O13 2.447879 1_555
Gd2 O22 2.447879 1_555
Gd2 O14 2.447879 1_555
Gd3 O12 2.391407 1_555
Gd3 O20 2.391407 1_555
Gd3 O23 2.391407 1_555
Gd3 O15 2.391407 1_555
Gd3 O10 2.447879 1_555
Gd3 O9 2.447879 1_555
Gd3 O17 2.447879 1_555
Gd3 O18 2.447879 1_555
Ge0 O19 1.736404 1_545
Ge0 O21 1.746695 1_546
Ge0 O0 1.815426 1_556
Ge0 O5 1.843110 1_555
Ge1 O23 1.736404 1_565
Ge1 O17 1.746695 1_564
Ge1 O4 1.815426 1_554
Ge1 O1 1.843110 1_555
Ge2 O20 1.736404 1_555
Ge2 O18 1.746695 1_554
Ge2 O7 1.815426 1_554
Ge2 O2 1.843110 1_555
Ge3 O16 1.736399 1_555
Ge3 O22 1.746695 1_556
Ge3 O3 1.815426 1_556
Ge3 O6 1.843110 1_555
Ge4 O11 1.736404 1_455
Ge4 O13 1.746695 1_454
Ge4 O4 1.815426 1_554
Ge4 O2 1.843110 1_555
Ge5 O15 1.736404 1_655
Ge5 O9 1.746695 1_656
Ge5 O0 1.815426 1_556
Ge5 O6 1.843110 1_555
Ge6 O12 1.736404 1_555
Ge6 O10 1.746695 1_556
Ge6 O3 1.815426 1_556
Ge6 O5 1.843110 1_555
Ge7 O8 1.736399 1_555
Ge7 O14 1.746695 1_554
Ge7 O7 1.815426 1_554
Ge7 O1 1.843110 1_555
