# generated using pymatgen
data_MgMn8O13F3
_symmetry_space_group_name_H-M   'P 1'
_cell_length_a   6.87103527
_cell_length_b   5.68545700
_cell_length_c   6.90213420
_cell_angle_alpha   88.22772323
_cell_angle_beta   95.10657340
_cell_angle_gamma   87.50532380
_symmetry_Int_Tables_number   1
_chemical_formula_structural   MgMn8O13F3
_chemical_formula_sum   'Mg1 Mn8 O13 F3'
_cell_volume   268.14283791
_cell_formula_units_Z   1
loop_
 _symmetry_equiv_pos_site_id
 _symmetry_equiv_pos_as_xyz
  1  'x, y, z'
loop_
 _atom_site_type_symbol
 _atom_site_label
 _atom_site_symmetry_multiplicity
 _atom_site_fract_x
 _atom_site_fract_y
 _atom_site_fract_z
 _atom_site_occupancy
  Mg  Mg0  1  0.87541700  0.59687400  0.12577000  1
  Mn  Mn0  1  0.36535400  0.34951400  0.12265900  1
  Mn  Mn1  1  0.15146000  0.70836500  0.40805700  1
  Mn  Mn2  1  0.85760700  0.12474400  0.11435900  1
  Mn  Mn3  1  0.39276200  0.14547100  0.63542400  1
  Mn  Mn4  1  0.14088600  0.86644300  0.87615200  1
  Mn  Mn5  1  0.62600400  0.87176100  0.38605900  1
  Mn  Mn6  1  0.58973300  0.61822900  0.84299500  1
  Mn  Mn7  1  0.89151400  0.36186200  0.63877100  1
  O  O0  1  0.13719300  0.10886200  0.07203600  1
  O  O1  1  0.16804200  0.62500000  0.11209800  1
  O  O2  1  0.57371600  0.60117000  0.13191000  1
  O  O3  1  0.08245500  0.64378900  0.66250100  1
  O  O4  1  0.36366100  0.91853100  0.43492200  1
  O  O5  1  0.10737200  0.12318600  0.67429600  1
  O  O6  1  0.58746400  0.10908300  0.17515300  1
  O  O7  1  0.42013400  0.88927200  0.82131400  1
  O  O8  1  0.66184400  0.11168000  0.57683000  1
  O  O9  1  0.89147400  0.86040300  0.30971400  1
  O  O10  1  0.41446400  0.38108100  0.82966000  1
  O  O11  1  0.67158000  0.60599300  0.58548400  1
  O  O12  1  0.81240600  0.37653400  0.91024800  1
  F  F0  1  0.33062900  0.39322200  0.42691600  1
  F  F1  1  0.93269100  0.37370500  0.34553600  1
  F  F2  1  0.82414000  0.84236700  0.91113300  1
loop_
_geom_bond_atom_site_label_1
_geom_bond_atom_site_label_2
_geom_bond_distance
_geom_bond_site_symmetry_2
Mg0 O9 1.994001 1_555
Mg0 O12 2.004360 1_554
Mg0 O1 2.034200 1_655
Mg0 O2 2.076297 1_555
Mn0 O6 2.004555 1_555
Mn0 O1 2.021636 1_555
Mn0 O2 2.066050 1_555
Mn0 O10 2.083302 1_554
Mn0 O0 2.137891 1_555
Mn1 O3 1.888747 1_555
Mn1 O4 1.924907 1_555
Mn1 O9 2.003121 1_455
Mn1 O1 2.122986 1_555
Mn2 O6 1.944239 1_555
Mn2 O0 1.967316 1_655
Mn2 O12 1.972093 1_554
Mn2 O9 1.979723 1_545
Mn3 O7 1.902856 1_545
Mn3 O4 1.924460 1_545
Mn3 O10 1.925315 1_555
Mn3 O8 1.930230 1_555
Mn3 O5 2.011578 1_555
Mn4 O0 1.961257 1_566
Mn4 O5 1.978054 1_565
Mn4 O7 1.997380 1_555
Mn4 O3 1.998141 1_555
Mn4 O1 2.087248 1_556
Mn5 O4 1.872364 1_555
Mn5 O8 1.933302 1_565
Mn5 O9 1.942155 1_555
Mn5 O6 1.946417 1_565
Mn5 O11 2.007309 1_555
Mn5 O2 2.382398 1_555
Mn6 O10 1.845523 1_555
Mn6 O7 1.885053 1_555
Mn6 O11 1.913726 1_555
Mn6 O2 2.006516 1_556
Mn6 O12 2.023790 1_555
Mn7 O5 1.959792 1_655
Mn7 O12 2.000114 1_555
Mn7 O11 2.008069 1_555
Mn7 O3 2.116214 1_655
Mn7 O8 2.192993 1_555
F0 Mn3 1.987559 1_555
F0 Mn1 2.123164 1_555
F0 Mn0 2.155247 1_555
F1 Mg0 1.948547 1_555
F1 Mn7 2.067876 1_555
F1 Mn2 2.207349 1_555
F1 Mn1 2.500055 1_655
F2 Mg0 2.000826 1_556
F2 Mn6 2.126048 1_555
F2 Mn2 2.170687 1_566
F2 Mn4 2.220600 1_655
