# generated using pymatgen
data_Eu(BRu)4
_symmetry_space_group_name_H-M   'P 1'
_cell_length_a   9.24982286
_cell_length_b   9.24982286
_cell_length_c   9.24982286
_cell_angle_alpha   131.98563724
_cell_angle_beta   131.98563724
_cell_angle_gamma   70.25171224
_symmetry_Int_Tables_number   1
_chemical_formula_structural   Eu(BRu)4
_chemical_formula_sum   'Eu4 B16 Ru16'
_cell_volume   428.57446971
_cell_formula_units_Z   4
loop_
 _symmetry_equiv_pos_site_id
 _symmetry_equiv_pos_as_xyz
  1  'x, y, z'
loop_
 _atom_site_type_symbol
 _atom_site_label
 _atom_site_symmetry_multiplicity
 _atom_site_fract_x
 _atom_site_fract_y
 _atom_site_fract_z
 _atom_site_occupancy
  Eu  Eu0  1  0.75000000  0.75000000  0.00000000  1
  Eu  Eu1  1  0.25000000  0.25000000  0.00000000  1
  Eu  Eu2  1  0.00000000  0.50000000  0.50000000  1
  Eu  Eu3  1  0.50000000  0.00000000  0.50000000  1
  B  B0  1  0.71973900  0.41187700  0.96915300  1
  B  B1  1  0.21973900  0.25058600  0.30786200  1
  B  B2  1  0.66187700  0.46973900  0.46915300  1
  B  B3  1  0.16187700  0.69272400  0.19213800  1
  B  B4  1  0.03026100  0.83812300  0.53084700  1
  B  B5  1  0.53026100  0.99941400  0.19213800  1
  B  B6  1  0.08812300  0.78026100  0.03084700  1
  B  B7  1  0.58812300  0.55727600  0.30786200  1
  B  B8  1  0.94272400  0.91187700  0.69213800  1
  B  B9  1  0.44272400  0.75058600  0.03084700  1
  B  B10  1  0.50058600  0.96973900  0.80786200  1
  B  B11  1  0.00058600  0.19272400  0.53084700  1
  B  B12  1  0.80727600  0.33812300  0.80786200  1
  B  B13  1  0.30727600  0.49941400  0.46915300  1
  B  B14  1  0.24941400  0.28026100  0.69213800  1
  B  B15  1  0.74941400  0.05727600  0.96915300  1
  Ru  Ru0  1  0.03947000  0.57403500  0.23737400  1
  Ru  Ru1  1  0.53947000  0.30209600  0.46543500  1
  Ru  Ru2  1  0.82403500  0.78947000  0.73737400  1
  Ru  Ru3  1  0.32403500  0.58666100  0.03456500  1
  Ru  Ru4  1  0.71053000  0.67596500  0.26262600  1
  Ru  Ru5  1  0.21053000  0.94790400  0.03456500  1
  Ru  Ru6  1  0.92596500  0.46053000  0.76262600  1
  Ru  Ru7  1  0.42596500  0.66333900  0.46543500  1
  Ru  Ru8  1  0.83666100  0.07403500  0.53456500  1
  Ru  Ru9  1  0.33666100  0.80209600  0.76262600  1
  Ru  Ru10  1  0.55209600  0.28947000  0.96543500  1
  Ru  Ru11  1  0.05209600  0.08666100  0.26262600  1
  Ru  Ru12  1  0.91333900  0.17596500  0.96543500  1
  Ru  Ru13  1  0.41333900  0.44790400  0.73737400  1
  Ru  Ru14  1  0.19790400  0.96053000  0.53456500  1
  Ru  Ru15  1  0.69790400  0.16333900  0.23737400  1
loop_
_geom_bond_atom_site_label_1
_geom_bond_atom_site_label_2
_geom_bond_distance
_geom_bond_site_symmetry_2
Eu0 Ru15 2.934313 1_565
Eu0 Ru6 2.934313 1_554
Eu0 Ru9 2.934313 1_554
Eu0 Ru0 2.934313 1_655
Eu0 Ru4 3.175638 1_555
Eu0 Ru11 3.175638 1_665
Eu0 Ru2 3.175638 1_554
Eu0 Ru13 3.175638 1_554
Eu0 Ru8 3.250890 1_565
Eu0 Ru1 3.250890 1_554
Eu0 Ru14 3.250890 1_655
Eu0 Ru7 3.250890 1_554
Eu1 Ru14 2.934313 1_544
Eu1 Ru7 2.934313 1_555
Eu1 Ru8 2.934313 1_454
Eu1 Ru1 2.934313 1_555
Eu1 Ru3 3.175638 1_555
Eu1 Ru12 3.175638 1_454
Eu1 Ru10 3.175638 1_554
Eu1 Ru5 3.175638 1_545
Eu1 Ru0 3.250890 1_555
Eu1 Ru15 3.250890 1_555
Eu1 Ru9 3.250890 1_544
Eu1 Ru6 3.250890 1_454
Eu2 Ru13 2.934313 1_555
Eu2 Ru4 2.934313 1_455
Eu2 Ru11 2.934313 1_555
Eu2 Ru2 2.934313 1_455
Eu2 Ru9 3.175638 1_555
Eu2 Ru6 3.175638 1_455
Eu2 Ru0 3.175638 1_555
Eu2 Ru15 3.175638 1_455
Eu2 Ru5 3.250890 1_556
Eu2 Ru3 3.250890 1_556
Eu2 Ru12 3.250890 1_454
Eu2 Ru10 3.250890 1_454
Eu3 Ru10 2.934313 1_555
Eu3 Ru12 2.934313 1_555
Eu3 Ru5 2.934313 1_545
Eu3 Ru3 2.934313 1_545
Eu3 Ru7 3.175638 1_545
Eu3 Ru8 3.175638 1_555
Eu3 Ru14 3.175638 1_545
Eu3 Ru1 3.175638 1_555
Eu3 Ru13 3.250890 1_555
Eu3 Ru2 3.250890 1_545
Eu3 Ru11 3.250890 1_555
Eu3 Ru4 3.250890 1_545
B0 B12 1.796668 1_555
B0 Ru4 2.154156 1_556
B0 Ru10 2.179626 1_555
B0 Ru13 2.219949 1_555
B0 Ru12 2.304567 1_555
B0 Ru0 2.313877 1_656
B0 Eu3 2.964921 1_555
B0 Eu0 3.038476 1_556
B0 Eu2 3.246264 1_656
B1 B13 1.796668 1_555
B1 Ru5 2.154156 1_545
B1 Ru11 2.179626 1_555
B1 Ru12 2.219949 1_454
B1 Ru13 2.304567 1_555
B1 Ru1 2.313877 1_555
B1 Eu2 2.964921 1_555
B1 Eu1 3.038476 1_555
B1 Eu3 3.246264 1_555
B2 B7 1.796668 1_555
B2 Ru6 2.154156 1_555
B2 Ru1 2.179626 1_555
B2 Ru15 2.219949 1_555
B2 Ru7 2.304567 1_555
B2 Ru2 2.313877 1_555
B2 Eu1 2.964921 1_555
B2 Eu2 3.038476 1_655
B2 Eu0 3.246264 1_556
B3 B6 1.796668 1_555
B3 Ru7 2.154156 1_555
B3 Ru0 2.179626 1_555
B3 Ru14 2.219949 1_555
B3 Ru6 2.304567 1_454
B3 Ru3 2.313877 1_555
B3 Eu0 2.964921 1_455
B3 Eu3 3.038476 1_565
B3 Eu1 3.246264 1_555
B4 B8 1.796668 1_455
B4 Ru0 2.154156 1_555
B4 Ru14 2.179626 1_555
B4 Ru9 2.219949 1_555
B4 Ru8 2.304567 1_465
B4 Ru4 2.313877 1_455
B4 Eu1 2.964921 1_566
B4 Eu2 3.038476 1_555
B4 Eu0 3.246264 1_455
B5 B9 1.796668 1_555
B5 Ru1 2.154156 1_565
B5 Ru15 2.179626 1_565
B5 Ru8 2.219949 1_565
B5 Ru9 2.304567 1_554
B5 Ru5 2.313877 1_555
B5 Eu0 2.964921 1_555
B5 Eu3 3.038476 1_565
B5 Eu1 3.246264 1_565
B6 Ru2 2.154156 1_454
B6 Ru5 2.179626 1_555
B6 Ru11 2.219949 1_565
B6 Ru3 2.304567 1_555
B6 Ru6 2.313877 1_454
B6 Eu3 2.964921 1_565
B6 Eu0 3.038476 1_455
B6 Eu2 3.246264 1_554
B7 Ru3 2.154156 1_555
B7 Ru4 2.179626 1_555
B7 Ru10 2.219949 1_554
B7 Ru2 2.304567 1_555
B7 Ru7 2.313877 1_555
B7 Eu2 2.964921 1_655
B7 Eu1 3.038476 1_555
B7 Eu3 3.246264 1_565
B8 Ru12 2.154156 1_565
B8 Ru2 2.179626 1_555
B8 Ru5 2.219949 1_656
B8 Ru4 2.304567 1_555
B8 Ru8 2.313877 1_565
B8 Eu2 2.964921 1_655
B8 Eu1 3.038476 1_666
B8 Eu3 3.246264 1_565
B9 Ru13 2.154156 1_554
B9 Ru3 2.179626 1_555
B9 Ru4 2.219949 1_555
B9 Ru5 2.304567 1_555
B9 Ru9 2.313877 1_554
B9 Eu3 2.964921 1_565
B9 Eu0 3.038476 1_555
B9 Eu2 3.246264 1_554
B10 B15 1.796668 1_565
B10 Ru14 2.154156 1_555
B10 Ru9 2.179626 1_555
B10 Ru7 2.219949 1_555
B10 Ru15 2.304567 1_566
B10 Ru10 2.313877 1_565
B10 Eu0 2.964921 1_556
B10 Eu3 3.038476 1_565
B10 Eu1 3.246264 1_566
B11 B14 1.796668 1_555
B11 Ru15 2.154156 1_455
B11 Ru8 2.179626 1_455
B11 Ru6 2.219949 1_455
B11 Ru14 2.304567 1_545
B11 Ru11 2.313877 1_555
B11 Eu1 2.964921 1_556
B11 Eu2 3.038476 1_555
B11 Eu0 3.246264 1_445
B12 Ru8 2.154156 1_555
B12 Ru6 2.179626 1_555
B12 Ru1 2.219949 1_555
B12 Ru0 2.304567 1_656
B12 Ru12 2.313877 1_555
B12 Eu0 2.964921 1_556
B12 Eu3 3.038476 1_555
B12 Eu1 3.246264 1_656
B13 Ru9 2.154156 1_555
B13 Ru7 2.179626 1_555
B13 Ru0 2.219949 1_555
B13 Ru1 2.304567 1_555
B13 Ru13 2.313877 1_555
B13 Eu1 2.964921 1_555
B13 Eu2 3.038476 1_555
B13 Eu0 3.246264 1_556
B14 Ru10 2.154156 1_555
B14 Ru13 2.179626 1_555
B14 Ru3 2.219949 1_556
B14 Ru11 2.304567 1_555
B14 Ru14 2.313877 1_545
B14 Eu2 2.964921 1_555
B14 Eu1 3.038476 1_556
B14 Eu3 3.246264 1_555
B15 Ru11 2.154156 1_656
B15 Ru12 2.179626 1_555
B15 Ru2 2.219949 1_545
B15 Ru10 2.304567 1_555
B15 Ru15 2.313877 1_556
B15 Eu3 2.964921 1_555
B15 Eu0 3.038476 1_546
B15 Eu2 3.246264 1_656
