# generated using pymatgen
data_H12PbC2(I3N)2
_symmetry_space_group_name_H-M   'P 1'
_cell_length_a   8.69829000
_cell_length_b   8.72118913
_cell_length_c   13.05541898
_cell_angle_alpha   88.84323764
_cell_angle_beta   89.97402353
_cell_angle_gamma   89.99008629
_symmetry_Int_Tables_number   1
_chemical_formula_structural   H12PbC2(I3N)2
_chemical_formula_sum   'H24 Pb2 C4 I12 N4'
_cell_volume   990.17471987
_cell_formula_units_Z   2
loop_
 _symmetry_equiv_pos_site_id
 _symmetry_equiv_pos_as_xyz
  1  'x, y, z'
loop_
 _atom_site_type_symbol
 _atom_site_label
 _atom_site_symmetry_multiplicity
 _atom_site_fract_x
 _atom_site_fract_y
 _atom_site_fract_z
 _atom_site_occupancy
  H  H0  1  0.65101500  0.97979700  0.77121900  1
  H  H1  1  0.51676000  0.96643900  0.66734900  1
  H  H2  1  0.50112300  0.83869700  0.77646500  1
  H  H3  1  0.45326300  0.17940900  0.77951000  1
  H  H4  1  0.43879300  0.05891400  0.88030900  1
  H  H5  1  0.31320100  0.04637200  0.78467700  1
  H  H6  1  0.93526200  0.40294400  0.88326000  1
  H  H7  1  0.95177500  0.27918700  0.78825000  1
  H  H8  1  0.81076600  0.41155700  0.78553000  1
  H  H9  1  0.14837300  0.47916000  0.77271200  1
  H  H10  1  0.99784700  0.61965800  0.77007100  1
  H  H11  1  0.01611900  0.48742900  0.66707700  1
  H  H12  1  0.95443600  0.68729300  0.28114200  1
  H  H13  1  0.94429500  0.56453300  0.38095500  1
  H  H14  1  0.82135400  0.54716200  0.28425100  1
  H  H15  1  0.16256300  0.49922700  0.27299200  1
  H  H16  1  0.03118100  0.47993400  0.16796400  1
  H  H17  1  0.02099900  0.34979200  0.27606000  1
  H  H18  1  0.72121800  0.04721900  0.28767100  1
  H  H19  1  0.59263600  0.06590500  0.38249600  1
  H  H20  1  0.58910200  0.18855000  0.28351500  1
  H  H21  1  0.52049400  0.85170300  0.27481600  1
  H  H22  1  0.51611200  0.98317900  0.16732800  1
  H  H23  1  0.38023400  0.00243900  0.26976200  1
  Pb  Pb0  1  0.51997900  0.48334900  0.50821200  1
  Pb  Pb1  1  0.01463600  0.97171500  0.00700100  1
  C  C0  1  0.02954700  0.50269000  0.74954100  1
  C  C1  1  0.53184500  0.95483200  0.75030600  1
  C  C2  1  0.04541900  0.46787800  0.25096700  1
  C  C3  1  0.49815300  0.97031600  0.24997700  1
  I  I0  1  0.72364400  0.16239000  0.00654600  1
  I  I1  1  0.30493200  0.79143100  0.00580400  1
  I  I2  1  0.20171600  0.26283500  0.00599600  1
  I  I3  1  0.83099200  0.68173000  0.01011700  1
  I  I4  1  0.34283000  0.18843200  0.51004200  1
  I  I5  1  0.71319800  0.76947000  0.50494600  1
  I  I6  1  0.81544500  0.29956100  0.50856000  1
  I  I7  1  0.23498400  0.67098000  0.50525500  1
  I  I8  1  0.52345200  0.47207900  0.74437600  1
  I  I9  1  0.53068400  0.47869800  0.27096800  1
  I  I10  1  0.00721500  0.97495700  0.24337800  1
  I  I11  1  0.01885000  0.99058200  0.77025200  1
  N  N0  1  0.92563800  0.39273700  0.80480900  1
  N  N1  1  0.42846700  0.06665800  0.80154000  1
  N  N2  1  0.93514800  0.57287100  0.30219800  1
  N  N3  1  0.60706200  0.07368300  0.30396900  1
loop_
_geom_bond_atom_site_label_1
_geom_bond_atom_site_label_2
_geom_bond_distance
_geom_bond_site_symmetry_2
H3 N1 1.041519 1_555
H4 N1 1.033167 1_555
H5 N1 1.042518 1_555
H6 N0 1.033296 1_555
H7 N0 1.042890 1_555
H8 N0 1.042676 1_555
H12 N2 1.043289 1_555
H13 N2 1.032414 1_555
H14 N2 1.042741 1_555
H18 N3 1.042222 1_555
H19 N3 1.033666 1_555
H20 N3 1.043289 1_555
C0 H11 1.093770 1_555
C0 H10 1.095148 1_455
C0 H9 1.095271 1_555
C0 N0 1.492930 1_455
C1 H1 1.093679 1_555
C1 H0 1.095067 1_555
C1 H2 1.095411 1_555
C1 N1 1.494188 1_565
C2 H16 1.093702 1_555
C2 H15 1.095094 1_555
C2 H17 1.095182 1_555
C2 N2 1.493197 1_455
C3 H22 1.093724 1_555
C3 H21 1.095192 1_555
C3 H23 1.095369 1_565
C3 N3 1.494495 1_565
I0 Pb1 3.028218 1_645
I1 Pb1 2.974550 1_555
I2 Pb1 3.015683 1_545
I3 Pb1 2.991054 1_655
I4 Pb0 2.998183 1_555
I5 Pb0 3.008351 1_555
I6 Pb0 3.028629 1_555
I7 Pb0 2.969950 1_555
I8 Pb0 3.082964 1_555
I9 Pb0 3.099761 1_555
I10 Pb1 3.087347 1_555
I11 Pb1 3.092116 1_556
