# generated using pymatgen
data_Na2Ca2(SiO3)3
_symmetry_space_group_name_H-M   'P 1'
_cell_length_a   7.59475172
_cell_length_b   7.59475172
_cell_length_c   7.59475105
_cell_angle_alpha   88.78987393
_cell_angle_beta   88.78987393
_cell_angle_gamma   88.78987726
_symmetry_Int_Tables_number   1
_chemical_formula_structural   Na2Ca2(SiO3)3
_chemical_formula_sum   'Na4 Ca4 Si6 O18'
_cell_volume   437.77812143
_cell_formula_units_Z   2
loop_
 _symmetry_equiv_pos_site_id
 _symmetry_equiv_pos_as_xyz
  1  'x, y, z'
loop_
 _atom_site_type_symbol
 _atom_site_label
 _atom_site_symmetry_multiplicity
 _atom_site_fract_x
 _atom_site_fract_y
 _atom_site_fract_z
 _atom_site_occupancy
  Na  Na0  1  0.48543200  0.48543200  0.01858600  1
  Na  Na1  1  0.01858600  0.48543200  0.48543200  1
  Na  Na2  1  0.48543200  0.01858600  0.48543200  1
  Na  Na3  1  0.75458500  0.75458500  0.75458500  1
  Ca  Ca0  1  0.01169300  0.01169300  0.46657100  1
  Ca  Ca1  1  0.46657100  0.01169300  0.01169300  1
  Ca  Ca2  1  0.01169300  0.46657100  0.01169300  1
  Ca  Ca3  1  0.99776200  0.99776200  0.99776200  1
  Si  Si0  1  0.71940300  0.71940300  0.25938600  1
  Si  Si1  1  0.25938600  0.71940300  0.71940300  1
  Si  Si2  1  0.71940300  0.25938600  0.71940300  1
  Si  Si3  1  0.28406300  0.28406300  0.73834200  1
  Si  Si4  1  0.73834200  0.28406300  0.28406300  1
  Si  Si5  1  0.28406300  0.73834200  0.28406300  1
  O  O0  1  0.79663300  0.79663300  0.43699300  1
  O  O1  1  0.43699300  0.79663300  0.79663300  1
  O  O2  1  0.79663300  0.43699300  0.79663300  1
  O  O3  1  0.20663700  0.20663700  0.56261200  1
  O  O4  1  0.56261200  0.20663700  0.20663700  1
  O  O5  1  0.20663700  0.56261200  0.20663700  1
  O  O6  1  0.79185900  0.79185900  0.07242800  1
  O  O7  1  0.07242800  0.79185900  0.79185900  1
  O  O8  1  0.79185900  0.07242800  0.79185900  1
  O  O9  1  0.20953800  0.20953800  0.92609600  1
  O  O10  1  0.92609600  0.20953800  0.20953800  1
  O  O11  1  0.20953800  0.92609600  0.20953800  1
  O  O12  1  0.25010400  0.75189800  0.50086000  1
  O  O13  1  0.50086000  0.25010400  0.75189800  1
  O  O14  1  0.75189800  0.50086000  0.25010400  1
  O  O15  1  0.50086000  0.75189800  0.25010400  1
  O  O16  1  0.25010400  0.50086000  0.75189800  1
  O  O17  1  0.75189800  0.25010400  0.50086000  1
loop_
_geom_bond_atom_site_label_1
_geom_bond_atom_site_label_2
_geom_bond_distance
_geom_bond_site_symmetry_2
Na0 O5 2.592652 1_555
Na0 O4 2.592652 1_555
Na0 O15 2.714770 1_555
Na0 O14 2.714770 1_555
Na0 O16 2.728445 1_554
Na0 O13 2.728445 1_554
Na0 O2 2.895538 1_554
Na0 O1 2.895538 1_554
Na1 O5 2.592652 1_555
Na1 O3 2.592652 1_555
Na1 O16 2.714770 1_555
Na1 O12 2.714770 1_555
Na1 O14 2.728445 1_455
Na1 O17 2.728445 1_455
Na1 O2 2.895538 1_455
Na1 O0 2.895538 1_455
Na2 O4 2.592652 1_555
Na2 O3 2.592652 1_555
Na2 O13 2.714770 1_555
Na2 O17 2.714770 1_555
Na2 O15 2.728445 1_545
Na2 O12 2.728445 1_545
Na2 O1 2.895538 1_545
Na2 O0 2.895538 1_545
Na3 O0 2.441536 1_555
Na3 O1 2.441536 1_555
Na3 O2 2.441536 1_555
Na3 O6 2.459367 1_556
Na3 O7 2.459367 1_655
Na3 O8 2.459367 1_565
Ca0 O3 2.258299 1_555
Ca0 O0 2.351522 1_445
Ca0 O11 2.525772 1_545
Ca0 O10 2.525772 1_455
Ca0 O17 2.662086 1_455
Ca0 O12 2.662086 1_545
Ca0 O7 2.990810 1_545
Ca0 O8 2.990810 1_455
Ca1 O4 2.258299 1_555
Ca1 O1 2.351522 1_544
Ca1 O11 2.525772 1_545
Ca1 O9 2.525772 1_554
Ca1 O13 2.662086 1_554
Ca1 O15 2.662086 1_545
Ca1 O8 2.990810 1_554
Ca1 O6 2.990810 1_545
Ca2 O5 2.258299 1_555
Ca2 O2 2.351522 1_454
Ca2 O10 2.525772 1_455
Ca2 O9 2.525772 1_554
Ca2 O16 2.662086 1_554
Ca2 O14 2.662086 1_455
Ca2 O7 2.990810 1_554
Ca2 O6 2.990810 1_455
Ca3 O7 2.289274 1_655
Ca3 O8 2.289274 1_565
Ca3 O6 2.289274 1_556
Ca3 O10 2.346353 1_566
Ca3 O11 2.346353 1_656
Ca3 O9 2.346353 1_665
O0 Si0 1.609009 1_555
O1 Si1 1.609010 1_555
O2 Si2 1.609010 1_555
O3 Si3 1.598027 1_555
O4 Si4 1.598027 1_555
O5 Si5 1.598027 1_555
O6 Si0 1.602662 1_555
O7 Si1 1.602663 1_555
O8 Si2 1.602663 1_555
O9 Si3 1.618450 1_555
O10 Si4 1.618450 1_555
O11 Si5 1.618450 1_555
O12 Si5 1.666207 1_555
O12 Si1 1.675604 1_555
O13 Si3 1.666207 1_555
O13 Si2 1.675604 1_555
O14 Si4 1.666207 1_555
O14 Si0 1.675604 1_555
O15 Si5 1.666207 1_555
O15 Si0 1.675604 1_555
O16 Si3 1.666207 1_555
O16 Si1 1.675604 1_555
O17 Si4 1.666207 1_555
O17 Si2 1.675604 1_555
