# generated using pymatgen
data_LiVFeP2(HO5)2
_symmetry_space_group_name_H-M   'P 1'
_cell_length_a   5.21653500
_cell_length_b   5.30089286
_cell_length_c   7.42110422
_cell_angle_alpha   110.15066821
_cell_angle_beta   105.19918219
_cell_angle_gamma   97.90829545
_symmetry_Int_Tables_number   1
_chemical_formula_structural   LiVFeP2(HO5)2
_chemical_formula_sum   'Li1 V1 Fe1 P2 H2 O10'
_cell_volume   179.93200123
_cell_formula_units_Z   1
loop_
 _symmetry_equiv_pos_site_id
 _symmetry_equiv_pos_as_xyz
  1  'x, y, z'
loop_
 _atom_site_type_symbol
 _atom_site_label
 _atom_site_symmetry_multiplicity
 _atom_site_fract_x
 _atom_site_fract_y
 _atom_site_fract_z
 _atom_site_occupancy
  Li  Li0  1  0.77418300  0.40936300  0.15485900  1
  V  V0  1  0.99873700  0.99725900  0.50424300  1
  Fe  Fe0  1  0.00434400  0.00565700  0.99576600  1
  P  P0  1  0.31769500  0.64392300  0.22943400  1
  P  P1  1  0.67649900  0.35567600  0.77409900  1
  H  H0  1  0.64573900  0.93958400  0.34863100  1
  H  H1  1  0.35165700  0.03555000  0.65719700  1
  O  O0  1  0.14361500  0.97162100  0.71458900  1
  O  O1  1  0.27202500  0.80828300  0.37856000  1
  O  O2  1  0.72109200  0.65823900  0.65024300  1
  O  O3  1  0.62771700  0.74959200  0.07474800  1
  O  O4  1  0.10285200  0.66450000  0.13020800  1
  O  O5  1  0.87035800  0.33114200  0.89136900  1
  O  O6  1  0.36908000  0.23999700  0.92622000  1
  O  O7  1  0.29197600  0.34135100  0.34342500  1
  O  O8  1  0.73583600  0.19785200  0.61992700  1
  O  O9  1  0.84482400  0.04854300  0.28394300  1
loop_
_geom_bond_atom_site_label_1
_geom_bond_atom_site_label_2
_geom_bond_distance
_geom_bond_site_symmetry_2
Li0 O5 2.064024 1_554
Li0 O4 2.121085 1_655
Li0 O6 2.167720 1_554
Li0 O3 2.251583 1_555
Li0 O9 2.446012 1_555
Fe0 O5 2.243766 1_455
Fe0 O0 2.342230 1_545
Fe0 O6 2.394953 1_555
Fe0 O4 2.399987 1_546
Fe0 O9 2.442938 1_456
Fe0 O7 2.479236 1_556
Fe0 O2 2.482100 1_445
Fe0 O3 2.542469 1_446
Fe0 Li0 2.669200 1_456
H0 O9 1.389243 1_565
H0 V0 1.817887 1_555
H1 O0 1.309441 1_545
H1 V0 1.833484 1_445
O0 V0 1.606921 1_455
O0 O6 1.704523 1_565
O1 P0 1.253648 1_555
O1 V0 2.086210 1_455
O2 P1 2.120477 1_555
O3 O9 1.758766 1_565
O3 P0 2.326841 1_555
O4 P0 1.210962 1_555
O5 P1 1.204017 1_555
O6 P1 2.319008 1_555
O7 P0 2.059423 1_555
O8 P1 1.304693 1_555
O8 V0 2.034257 1_545
O9 V0 1.751951 1_545
