# generated using pymatgen
data_La3Mg2NbO9
_symmetry_space_group_name_H-M   'P 1'
_cell_length_a   9.84688149
_cell_length_b   9.84688149
_cell_length_c   9.84688149
_cell_angle_alpha   146.63616804
_cell_angle_beta   131.97906345
_cell_angle_gamma   59.73141207
_symmetry_Int_Tables_number   1
_chemical_formula_structural   La3Mg2NbO9
_chemical_formula_sum   'La6 Mg4 Nb2 O18'
_cell_volume   386.84259721
_cell_formula_units_Z   2
loop_
 _symmetry_equiv_pos_site_id
 _symmetry_equiv_pos_as_xyz
  1  'x, y, z'
loop_
 _atom_site_type_symbol
 _atom_site_label
 _atom_site_symmetry_multiplicity
 _atom_site_fract_x
 _atom_site_fract_y
 _atom_site_fract_z
 _atom_site_occupancy
  La  La0  1  0.72108700  0.50000000  0.22108700  1
  La  La1  1  0.41363700  0.14752800  0.26610900  1
  La  La2  1  0.11858100  0.85247200  0.26610900  1
  La  La3  1  0.27891300  0.50000000  0.77891300  1
  La  La4  1  0.88141900  0.14752800  0.73389100  1
  La  La5  1  0.58636300  0.85247200  0.73389100  1
  Mg  Mg0  1  0.00000000  0.00000000  0.00000000  1
  Mg  Mg1  1  0.66765200  0.66765200  0.00000000  1
  Mg  Mg2  1  0.33234800  0.33234800  0.00000000  1
  Mg  Mg3  1  0.50000000  0.00000000  0.50000000  1
  Nb  Nb0  1  0.16891300  0.66891300  0.50000000  1
  Nb  Nb1  1  0.83108700  0.33108700  0.50000000  1
  O  O0  1  0.75055800  0.00000000  0.75055800  1
  O  O1  1  0.40304900  0.65554800  0.74750100  1
  O  O2  1  0.09195300  0.34445200  0.74750100  1
  O  O3  1  0.58237200  0.83228800  0.24991600  1
  O  O4  1  0.25418100  0.51702200  0.26284200  1
  O  O5  1  0.91142200  0.15043000  0.23900700  1
  O  O6  1  0.41762800  0.66754400  0.24991600  1
  O  O7  1  0.08857800  0.32758500  0.23900700  1
  O  O8  1  0.74581900  0.00866100  0.26284200  1
  O  O9  1  0.24944200  0.00000000  0.24944200  1
  O  O10  1  0.90804700  0.65554800  0.25249900  1
  O  O11  1  0.59695100  0.34445200  0.25249900  1
  O  O12  1  0.41762800  0.16771200  0.75008400  1
  O  O13  1  0.08857800  0.84957000  0.76099300  1
  O  O14  1  0.74581900  0.48297800  0.73715800  1
  O  O15  1  0.58237200  0.33245600  0.75008400  1
  O  O16  1  0.25418100  0.99133900  0.73715800  1
  O  O17  1  0.91142200  0.67241500  0.76099300  1
loop_
_geom_bond_atom_site_label_1
_geom_bond_atom_site_label_2
_geom_bond_distance
_geom_bond_site_symmetry_2
La0 O3 2.667200 1_555
La0 O12 2.667200 1_554
La0 O15 2.667200 1_554
La0 O6 2.667200 1_555
La0 O10 2.668400 1_555
La0 O11 2.668400 1_555
La0 O0 2.836477 1_554
La0 O0 2.836477 1_565
La0 O5 3.075854 1_555
La0 O13 3.075859 1_655
La0 O7 3.075862 1_655
La0 O17 3.075862 1_555
La1 O9 2.523070 1_555
La1 O15 2.598064 1_555
La1 O3 2.598064 1_545
La1 O7 2.717829 1_555
La1 O13 2.717831 1_544
La1 O1 2.833870 1_555
La1 O1 2.833870 1_544
La1 O8 2.851014 1_555
La1 O14 2.851018 1_555
La1 O4 3.173790 1_555
La1 O16 3.173799 1_544
La1 O11 3.364901 1_555
La2 O9 2.523070 1_565
La2 O12 2.598064 1_565
La2 O6 2.598064 1_555
La2 O17 2.717829 1_454
La2 O5 2.717837 1_465
La2 O2 2.833870 1_565
La2 O2 2.833870 1_554
La2 O16 2.851014 1_555
La2 O4 2.851023 1_555
La2 O14 3.173795 1_454
La2 O8 3.173799 1_465
La2 O10 3.364901 1_455
La3 O12 2.667200 1_555
La3 O3 2.667200 1_556
La3 O6 2.667200 1_556
La3 O15 2.667200 1_555
La3 O2 2.668400 1_555
La3 O1 2.668400 1_555
La3 O9 2.836477 1_566
La3 O9 2.836477 1_555
La3 O13 3.075854 1_555
La3 O5 3.075859 1_455
La3 O17 3.075862 1_455
La3 O7 3.075862 1_555
La4 O0 2.523070 1_555
La4 O15 2.598064 1_555
La4 O3 2.598064 1_545
La4 O7 2.717829 1_656
La4 O13 2.717837 1_645
La4 O10 2.833870 1_545
La4 O10 2.833870 1_556
La4 O8 2.851014 1_555
La4 O14 2.851023 1_555
La4 O4 3.173795 1_656
La4 O16 3.173799 1_645
La4 O2 3.364901 1_655
La5 O0 2.523070 1_565
La5 O6 2.598064 1_555
La5 O12 2.598064 1_565
La5 O17 2.717829 1_555
La5 O5 2.717831 1_566
La5 O11 2.833870 1_566
La5 O11 2.833870 1_555
La5 O16 2.851014 1_555
La5 O4 2.851018 1_555
La5 O14 3.173790 1_555
La5 O8 3.173799 1_566
La5 O1 3.364901 1_555
Mg0 O9 1.998894 1_555
Mg0 O0 1.998894 1_454
Mg0 O13 2.028323 1_544
Mg0 O5 2.028323 1_455
Mg0 O7 2.028327 1_555
Mg0 O17 2.028327 1_444
Mg1 O8 1.997514 1_565
Mg1 O14 1.997517 1_554
Mg1 O15 2.029121 1_554
Mg1 O3 2.029121 1_555
Mg1 O10 2.033923 1_555
Mg1 O1 2.033923 1_554
Mg2 O16 1.997514 1_544
Mg2 O4 1.997517 1_555
Mg2 O6 2.029121 1_555
Mg2 O12 2.029121 1_554
Mg2 O2 2.033923 1_554
Mg2 O11 2.033923 1_555
Mg3 O3 1.994447 1_545
Mg3 O12 1.994447 1_555
Mg3 O15 1.994447 1_555
Mg3 O6 1.994447 1_545
Mg3 O0 2.007837 1_555
Mg3 O9 2.007837 1_555
Nb0 O4 1.979424 1_555
Nb0 O16 1.979429 1_555
Nb0 O10 1.996431 1_455
Nb0 O1 1.996431 1_555
Nb0 O7 2.014779 1_555
Nb0 O13 2.014783 1_555
Nb1 O14 1.979424 1_555
Nb1 O8 1.979429 1_555
Nb1 O2 1.996431 1_655
Nb1 O11 1.996431 1_555
Nb1 O17 2.014779 1_555
Nb1 O5 2.014783 1_555
