# generated using pymatgen
data_InRh3
_symmetry_space_group_name_H-M   'P 1'
_cell_length_a   5.57795154
_cell_length_b   5.57795154
_cell_length_c   4.50704552
_cell_angle_alpha   90.00000000
_cell_angle_beta   90.00000000
_cell_angle_gamma   119.99999977
_symmetry_Int_Tables_number   1
_chemical_formula_structural   InRh3
_chemical_formula_sum   'In2 Rh6'
_cell_volume   121.44287806
_cell_formula_units_Z   2
loop_
 _symmetry_equiv_pos_site_id
 _symmetry_equiv_pos_as_xyz
  1  'x, y, z'
loop_
 _atom_site_type_symbol
 _atom_site_label
 _atom_site_symmetry_multiplicity
 _atom_site_fract_x
 _atom_site_fract_y
 _atom_site_fract_z
 _atom_site_occupancy
  In  In0  1  0.66666700  0.33333300  0.25000000  1
  In  In1  1  0.33333300  0.66666700  0.75000000  1
  Rh  Rh0  1  0.83720849  0.16279151  0.75000000  1
  Rh  Rh1  1  0.32558302  0.16279151  0.75000000  1
  Rh  Rh2  1  0.83720849  0.67441698  0.75000000  1
  Rh  Rh3  1  0.16279151  0.83720849  0.25000000  1
  Rh  Rh4  1  0.67441698  0.83720849  0.25000000  1
  Rh  Rh5  1  0.16279151  0.32558302  0.25000000  1
loop_
_geom_bond_atom_site_label_1
_geom_bond_atom_site_label_2
_geom_bond_distance
_geom_bond_site_symmetry_2
In0 Rh5 2.789224 1_655
In0 Rh4 2.789224 1_545
In0 Rh3 2.789227 1_655
In0 Rh3 2.789227 1_545
In0 Rh4 2.789230 1_555
In0 Rh5 2.789230 1_555
In0 Rh0 2.791616 1_554
In0 Rh0 2.791616 1_555
In0 Rh1 2.791619 1_555
In0 Rh2 2.791619 1_554
In0 Rh2 2.791619 1_555
In0 Rh1 2.791619 1_554
In1 Rh1 2.789224 1_565
In1 Rh2 2.789224 1_455
In1 Rh0 2.789227 1_565
In1 Rh0 2.789227 1_455
In1 Rh2 2.789230 1_555
In1 Rh1 2.789230 1_555
In1 Rh3 2.791616 1_556
In1 Rh3 2.791616 1_555
In1 Rh4 2.791619 1_555
In1 Rh5 2.791619 1_555
In1 Rh5 2.791619 1_556
In1 Rh4 2.791619 1_556
Rh0 Rh2 2.724129 1_545
Rh0 Rh1 2.724129 1_655
Rh0 Rh5 2.748089 1_656
Rh0 Rh5 2.748089 1_655
Rh0 Rh4 2.748089 1_545
Rh0 Rh4 2.748089 1_546
Rh0 Rh1 2.853822 1_555
Rh0 Rh2 2.853822 1_555
Rh1 Rh2 2.724129 1_445
Rh1 Rh5 2.748089 1_555
Rh1 Rh5 2.748089 1_556
Rh1 Rh3 2.748089 1_545
Rh1 Rh3 2.748089 1_546
Rh1 Rh2 2.853822 1_555
Rh2 Rh4 2.748089 1_556
Rh2 Rh4 2.748089 1_555
Rh2 Rh3 2.748089 1_656
Rh2 Rh3 2.748089 1_655
Rh3 Rh4 2.724129 1_455
Rh3 Rh5 2.724129 1_565
Rh3 Rh4 2.853822 1_555
Rh3 Rh5 2.853822 1_555
Rh4 Rh5 2.724129 1_665
Rh4 Rh5 2.853822 1_555
