# generated using pymatgen
data_Nb3FeSe10
_symmetry_space_group_name_H-M   'P 1'
_cell_length_a   3.53167700
_cell_length_b   9.40664700
_cell_length_c   10.21165136
_cell_angle_alpha   66.83553811
_cell_angle_beta   90.00000000
_cell_angle_gamma   90.00000000
_symmetry_Int_Tables_number   1
_chemical_formula_structural   Nb3FeSe10
_chemical_formula_sum   'Nb3 Fe1 Se10'
_cell_volume   311.89371412
_cell_formula_units_Z   1
loop_
 _symmetry_equiv_pos_site_id
 _symmetry_equiv_pos_as_xyz
  1  'x, y, z'
loop_
 _atom_site_type_symbol
 _atom_site_label
 _atom_site_symmetry_multiplicity
 _atom_site_fract_x
 _atom_site_fract_y
 _atom_site_fract_z
 _atom_site_occupancy
  Nb  Nb0  1  0.00000000  0.27693400  0.63183300  1
  Nb  Nb1  1  0.50000000  0.72160400  0.35993100  1
  Nb  Nb2  1  0.50000000  0.45528400  0.91678300  1
  Fe  Fe0  1  0.00000000  0.54690200  0.09972900  1
  Se  Se0  1  0.50000000  0.04602200  0.75505100  1
  Se  Se1  1  0.00000000  0.95395900  0.23942200  1
  Se  Se2  1  0.50000000  0.48866000  0.63007500  1
  Se  Se3  1  0.00000000  0.51477100  0.35269900  1
  Se  Se4  1  0.50000000  0.16131200  0.50297000  1
  Se  Se5  1  0.00000000  0.83464200  0.49084800  1
  Se  Se6  1  0.00000000  0.24282200  0.91250700  1
  Se  Se7  1  0.50000000  0.73339000  0.08872300  1
  Se  Se8  1  0.00000000  0.66942600  0.84382300  1
  Se  Se9  1  0.50000000  0.35427200  0.17560700  1
loop_
_geom_bond_atom_site_label_1
_geom_bond_atom_site_label_2
_geom_bond_distance
_geom_bond_site_symmetry_2
Nb0 Se2 2.656497 1_455
Nb0 Se2 2.656497 1_555
Nb0 Se4 2.675571 1_555
Nb0 Se4 2.675571 1_455
Nb0 Se0 2.696150 1_555
Nb0 Se0 2.696150 1_455
Nb0 Se6 2.755756 1_555
Nb0 Se3 2.848338 1_555
Nb1 Se3 2.649917 1_555
Nb1 Se3 2.649917 1_655
Nb1 Se5 2.674775 1_555
Nb1 Se5 2.674775 1_655
Nb1 Se1 2.700677 1_555
Nb1 Se1 2.700677 1_655
Nb1 Se7 2.727775 1_555
Nb1 Se2 2.766904 1_555
Nb2 Se9 2.431587 1_556
Nb2 Se8 2.559332 1_555
Nb2 Se8 2.559332 1_655
Nb2 Se6 2.680107 1_555
Nb2 Se6 2.680107 1_655
Nb2 Se2 2.819077 1_555
Fe0 Se8 2.405771 1_554
Fe0 Se9 2.428439 1_555
Fe0 Se9 2.428439 1_455
Fe0 Se7 2.460288 1_555
Fe0 Se7 2.460288 1_455
Fe0 Se3 2.479964 1_555
Se0 Se4 2.367725 1_555
Se1 Se5 2.363158 1_555
