# generated using pymatgen
data_BaSrLiNdTlCu2O7
_symmetry_space_group_name_H-M   'P 1'
_cell_length_a   3.78587800
_cell_length_b   3.93637354
_cell_length_c   14.58181507
_cell_angle_alpha   91.76790920
_cell_angle_beta   90.00000000
_cell_angle_gamma   90.00000000
_symmetry_Int_Tables_number   1
_chemical_formula_structural   BaSrLiNdTlCu2O7
_chemical_formula_sum   'Ba1 Sr1 Li1 Nd1 Tl1 Cu2 O7'
_cell_volume   217.20395529
_cell_formula_units_Z   1
loop_
 _symmetry_equiv_pos_site_id
 _symmetry_equiv_pos_as_xyz
  1  'x, y, z'
loop_
 _atom_site_type_symbol
 _atom_site_label
 _atom_site_symmetry_multiplicity
 _atom_site_fract_x
 _atom_site_fract_y
 _atom_site_fract_z
 _atom_site_occupancy
  Ba  Ba0  1  0.50000000  0.50994300  0.87006800  1
  Sr  Sr0  1  0.50000000  0.49628400  0.22980600  1
  Li  Li0  1  0.50000000  0.99456800  0.71743700  1
  Nd  Nd0  1  0.50000000  0.52194700  0.48241900  1
  Tl  Tl0  1  0.00000000  0.00851900  0.05249900  1
  Cu  Cu0  1  0.00000000  0.03937200  0.59805000  1
  Cu  Cu1  1  0.00000000  0.00774800  0.35446700  1
  O  O0  1  0.50000000  0.03445700  0.58884000  1
  O  O1  1  0.00000000  0.53622300  0.58093300  1
  O  O2  1  0.50000000  0.00982200  0.37894200  1
  O  O3  1  0.00000000  0.50855600  0.36546200  1
  O  O4  1  0.00000000  0.02875600  0.80485200  1
  O  O5  1  0.00000000  0.98727100  0.20486200  1
  O  O6  1  0.50000000  0.41420300  0.04219700  1
loop_
_geom_bond_atom_site_label_1
_geom_bond_atom_site_label_2
_geom_bond_distance
_geom_bond_site_symmetry_2
Ba0 O6 2.549561 1_556
Ba0 O4 2.822083 1_555
Ba0 O4 2.822083 1_655
Ba0 O4 2.962793 1_565
Ba0 O4 2.962793 1_665
Li0 O0 1.886561 1_565
Li0 O4 2.283753 1_665
Li0 O4 2.283753 1_565
Nd0 O1 2.375913 1_655
Nd0 O1 2.375913 1_555
Nd0 O2 2.478645 1_565
Nd0 O2 2.480516 1_555
Nd0 O0 2.504835 1_555
Nd0 O0 2.506986 1_565
Nd0 O3 2.547350 1_555
Nd0 O3 2.547350 1_655
Cu0 O0 1.897753 1_555
Cu0 O0 1.897753 1_455
Cu0 O1 1.979277 1_555
Cu0 O1 1.988593 1_545
Cu1 O2 1.926259 1_455
Cu1 O2 1.926259 1_555
Cu1 O3 1.972940 1_555
Cu1 O3 1.976460 1_545
Cu1 O5 2.180515 1_545
O2 Sr0 2.923069 1_545
O2 Sr0 2.941594 1_555
O3 Sr0 2.737257 1_455
O3 Sr0 2.737257 1_555
O5 Tl0 2.225880 1_565
O5 Sr0 2.737563 1_455
O5 Sr0 2.737563 1_555
O5 Sr0 2.772224 1_565
O5 Sr0 2.772224 1_465
O6 Tl0 2.484100 1_555
O6 Tl0 2.484100 1_655
O6 Sr0 2.744777 1_555
