# generated using pymatgen
data_Sr2Mg
_symmetry_space_group_name_H-M   'P 1'
_cell_length_a   7.50519191
_cell_length_b   7.50519191
_cell_length_c   7.50519220
_cell_angle_alpha   54.54004518
_cell_angle_beta   54.54004518
_cell_angle_gamma   54.54004382
_symmetry_Int_Tables_number   1
_chemical_formula_structural   Sr2Mg
_chemical_formula_sum   'Sr4 Mg2'
_cell_volume   260.88559371
_cell_formula_units_Z   2
loop_
 _symmetry_equiv_pos_site_id
 _symmetry_equiv_pos_as_xyz
  1  'x, y, z'
loop_
 _atom_site_type_symbol
 _atom_site_label
 _atom_site_symmetry_multiplicity
 _atom_site_fract_x
 _atom_site_fract_y
 _atom_site_fract_z
 _atom_site_occupancy
  Sr  Sr0  1  0.00000000  0.67248400  0.32751600  1
  Sr  Sr1  1  0.32751600  0.00000000  0.67248400  1
  Sr  Sr2  1  0.50000000  0.50000000  0.50000000  1
  Sr  Sr3  1  0.67248400  0.32751600  0.00000000  1
  Mg  Mg0  1  0.16636300  0.16636300  0.16636300  1
  Mg  Mg1  1  0.83363700  0.83363700  0.83363700  1
loop_
_geom_bond_atom_site_label_1
_geom_bond_atom_site_label_2
_geom_bond_distance
_geom_bond_site_symmetry_2
Sr0 Sr3 3.901444 1_465
Sr0 Sr1 3.901444 1_564
Sr0 Sr2 3.935632 1_455
Sr0 Sr2 3.935632 1_555
Sr0 Sr3 4.005840 1_555
Sr0 Sr1 4.005840 1_555
Sr0 Sr1 4.005840 1_465
Sr0 Sr3 4.005840 1_456
Sr1 Sr3 3.901444 1_456
Sr1 Sr2 3.935632 1_555
Sr1 Sr2 3.935632 1_545
Sr1 Sr3 4.005840 1_546
Sr1 Sr3 4.005840 1_555
Sr2 Sr3 3.935632 1_556
Sr2 Sr3 3.935632 1_555
Mg0 Sr0 3.895782 1_545
Mg0 Sr3 3.895782 1_455
Mg0 Sr1 3.895782 1_554
Mg0 Sr3 3.940328 1_555
Mg0 Sr0 3.940328 1_555
Mg0 Sr1 3.940328 1_555
Mg0 Sr2 3.970746 1_455
Mg0 Sr2 3.970746 1_545
Mg0 Sr2 3.970746 1_554
Mg1 Sr1 3.895782 1_665
Mg1 Sr3 3.895782 1_566
Mg1 Sr0 3.895782 1_656
Mg1 Sr3 3.940328 1_556
Mg1 Sr1 3.940328 1_565
Mg1 Sr0 3.940328 1_655
Mg1 Sr2 3.970746 1_655
Mg1 Sr2 3.970746 1_565
Mg1 Sr2 3.970746 1_556
