# generated using pymatgen
data_Y3Bi(Ru2O7)2
_symmetry_space_group_name_H-M   'P 1'
_cell_length_a   7.28878882
_cell_length_b   7.28878882
_cell_length_c   7.26999336
_cell_angle_alpha   90.00000000
_cell_angle_beta   59.91444046
_cell_angle_gamma   120.00000000
_symmetry_Int_Tables_number   1
_chemical_formula_structural   Y3Bi(Ru2O7)2
_chemical_formula_sum   'Y3 Bi1 Ru4 O14'
_cell_volume   272.75134141
_cell_formula_units_Z   1
loop_
 _symmetry_equiv_pos_site_id
 _symmetry_equiv_pos_as_xyz
  1  'x, y, z'
loop_
 _atom_site_type_symbol
 _atom_site_label
 _atom_site_symmetry_multiplicity
 _atom_site_fract_x
 _atom_site_fract_y
 _atom_site_fract_z
 _atom_site_occupancy
  Y  Y0  1  0.25000000  0.37500000  0.37500000  1
  Y  Y1  1  0.25000000  0.87500000  0.37500000  1
  Y  Y2  1  0.75000000  0.37500000  0.37500000  1
  Bi  Bi0  1  0.75000000  0.37500000  0.87500000  1
  Ru  Ru0  1  0.75000000  0.87500000  0.37500000  1
  Ru  Ru1  1  0.25000000  0.87500000  0.87500000  1
  Ru  Ru2  1  0.25000000  0.37500000  0.87500000  1
  Ru  Ru3  1  0.75000000  0.87500000  0.87500000  1
  O  O0  1  0.91896300  0.95948200  0.54068000  1
  O  O1  1  0.49983800  0.54035600  0.54068000  1
  O  O2  1  0.49983800  0.95948200  0.54068000  1
  O  O3  1  0.08466000  0.54233000  0.95862000  1
  O  O4  1  0.49905000  0.95672000  0.95862000  1
  O  O5  1  0.49905000  0.54233000  0.95862000  1
  O  O6  1  0.58103700  0.79051800  0.20932000  1
  O  O7  1  0.00016200  0.20964400  0.20932000  1
  O  O8  1  0.00016200  0.79051800  0.20932000  1
  O  O9  1  0.41534000  0.20767000  0.79138000  1
  O  O10  1  0.00095000  0.79328000  0.79138000  1
  O  O11  1  0.00095000  0.20767000  0.79138000  1
  O  O12  1  0.49172800  0.24586400  0.26240800  1
  O  O13  1  0.00827200  0.50413600  0.48759200  1
loop_
_geom_bond_atom_site_label_1
_geom_bond_atom_site_label_2
_geom_bond_distance
_geom_bond_site_symmetry_2
Bi0 O12 2.296646 1_556
Bi0 O13 2.296646 1_655
Bi0 O4 2.513719 1_545
Bi0 O5 2.513719 1_555
Bi0 O10 2.513719 1_655
Bi0 O9 2.513719 1_555
Bi0 O3 2.513719 1_655
Bi0 O11 2.513719 1_655
O0 Ru3 2.010937 1_555
O0 Ru0 2.018792 1_555
O0 Y0 2.494759 1_665
O0 Y1 2.494764 1_655
O1 Ru2 2.010936 1_555
O1 Ru0 2.018798 1_555
O1 Y2 2.494758 1_555
O1 Y0 2.494758 1_555
O2 Ru1 2.010936 1_555
O2 Ru0 2.018798 1_555
O2 Y1 2.494758 1_555
O2 Y2 2.494758 1_565
O3 Ru1 2.011145 1_555
O3 Ru2 2.011145 1_555
O3 Y2 2.494551 1_456
O4 Ru3 2.011145 1_555
O4 Ru1 2.011145 1_555
O4 Y1 2.494551 1_556
O5 Ru3 2.011145 1_555
O5 Ru2 2.011145 1_555
O5 Y0 2.494551 1_556
O6 Ru3 2.010937 1_554
O6 Ru0 2.018792 1_555
O6 Y0 2.494759 1_555
O6 Y1 2.494764 1_555
O7 Ru2 2.010936 1_554
O7 Ru0 2.018798 1_445
O7 Y0 2.494758 1_555
O7 Y2 2.494758 1_455
O8 Ru1 2.010936 1_554
O8 Ru0 2.018798 1_455
O8 Y1 2.494758 1_555
O8 Y2 2.494758 1_455
O9 Ru1 2.011145 1_545
O9 Ru2 2.011145 1_555
O9 Y2 2.494551 1_555
O10 Ru3 2.011145 1_455
O10 Ru1 2.011145 1_555
O10 Y1 2.494551 1_555
O11 Ru3 2.011145 1_445
O11 Ru2 2.011145 1_555
O11 Y0 2.494551 1_555
O12 Y0 2.207424 1_555
O12 Y1 2.207424 1_545
O12 Y2 2.207424 1_555
O13 Y1 2.207424 1_555
O13 Y0 2.207424 1_555
O13 Y2 2.207424 1_455
