# generated using pymatgen
data_Ac3Br
_symmetry_space_group_name_H-M   'P 1'
_cell_length_a   7.94174618
_cell_length_b   7.94174618
_cell_length_c   5.85729200
_cell_angle_alpha   90.00000000
_cell_angle_beta   90.00000000
_cell_angle_gamma   120.00000154
_symmetry_Int_Tables_number   1
_chemical_formula_structural   Ac3Br
_chemical_formula_sum   'Ac6 Br2'
_cell_volume   319.93334468
_cell_formula_units_Z   2
loop_
 _symmetry_equiv_pos_site_id
 _symmetry_equiv_pos_as_xyz
  1  'x, y, z'
loop_
 _atom_site_type_symbol
 _atom_site_label
 _atom_site_symmetry_multiplicity
 _atom_site_fract_x
 _atom_site_fract_y
 _atom_site_fract_z
 _atom_site_occupancy
  Ac  Ac0  1  0.17087400  0.34174700  0.25000000  1
  Ac  Ac1  1  0.65825300  0.82912600  0.25000000  1
  Ac  Ac2  1  0.17087400  0.82912600  0.25000000  1
  Ac  Ac3  1  0.82912600  0.65825300  0.75000000  1
  Ac  Ac4  1  0.34174700  0.17087400  0.75000000  1
  Ac  Ac5  1  0.82912600  0.17087400  0.75000000  1
  Br  Br0  1  0.33333300  0.66666700  0.75000000  1
  Br  Br1  1  0.66666700  0.33333300  0.25000000  1
loop_
_geom_bond_atom_site_label_1
_geom_bond_atom_site_label_2
_geom_bond_distance
_geom_bond_site_symmetry_2
Ac0 Br0 3.683876 1_554
Ac0 Br0 3.683876 1_555
Ac0 Br1 3.971295 1_455
Ac0 Br1 3.971295 1_555
Ac1 Br0 3.683876 1_554
Ac1 Br0 3.683876 1_555
Ac1 Br1 3.971295 1_565
Ac1 Br1 3.971295 1_555
Ac2 Br0 3.683867 1_555
Ac2 Br0 3.683867 1_554
Ac2 Br1 3.971295 1_455
Ac2 Br1 3.971295 1_565
Ac3 Br1 3.683876 1_556
Ac3 Br1 3.683876 1_555
Ac3 Br0 3.971295 1_655
Ac3 Br0 3.971295 1_555
Ac4 Br1 3.683876 1_556
Ac4 Br1 3.683876 1_555
Ac4 Br0 3.971295 1_545
Ac4 Br0 3.971295 1_555
Ac5 Br1 3.683867 1_556
Ac5 Br1 3.683867 1_555
Ac5 Br0 3.971295 1_545
Ac5 Br0 3.971295 1_655
