# generated using pymatgen
data_KMg14SiO16
_symmetry_space_group_name_H-M   'P 1'
_cell_length_a   8.67582010
_cell_length_b   8.48858832
_cell_length_c   4.42349536
_cell_angle_alpha   90.00000000
_cell_angle_beta   90.00000000
_cell_angle_gamma   90.00000000
_symmetry_Int_Tables_number   1
_chemical_formula_structural   KMg14SiO16
_chemical_formula_sum   'K1 Mg14 Si1 O16'
_cell_volume   325.77037345
_cell_formula_units_Z   1
loop_
 _symmetry_equiv_pos_site_id
 _symmetry_equiv_pos_as_xyz
  1  'x, y, z'
loop_
 _atom_site_type_symbol
 _atom_site_label
 _atom_site_symmetry_multiplicity
 _atom_site_fract_x
 _atom_site_fract_y
 _atom_site_fract_z
 _atom_site_occupancy
  K  K0  1  0.00000000  -0.00000000  -0.00000000  1
  Mg  Mg0  1  0.50000000  -0.00000000  -0.00000000  1
  Mg  Mg1  1  0.50000000  0.50000000  -0.00000000  1
  Mg  Mg2  1  0.00000000  0.24805024  0.50000000  1
  Mg  Mg3  1  0.00000000  0.75194976  0.50000000  1
  Mg  Mg4  1  0.50000000  0.24826086  0.50000000  1
  Mg  Mg5  1  0.50000000  0.75173914  0.50000000  1
  Mg  Mg6  1  0.25223251  -0.00000000  0.50000000  1
  Mg  Mg7  1  0.25120461  0.50000000  0.50000000  1
  Mg  Mg8  1  0.74776749  -0.00000000  0.50000000  1
  Mg  Mg9  1  0.74879539  0.50000000  0.50000000  1
  Mg  Mg10  1  0.25630543  0.24779669  0.00000000  1
  Mg  Mg11  1  0.25630543  0.75220331  0.00000000  1
  Mg  Mg12  1  0.74369457  0.24779669  -0.00000000  1
  Mg  Mg13  1  0.74369457  0.75220331  -0.00000000  1
  Si  Si0  1  0.00000000  0.50000000  -0.00000000  1
  O  O0  1  0.27430367  -0.00000000  -0.00000000  1
  O  O1  1  0.24387188  0.50000000  -0.00000000  1
  O  O2  1  0.72569633  -0.00000000  -0.00000000  1
  O  O3  1  0.75612812  0.50000000  -0.00000000  1
  O  O4  1  0.24832244  0.25088717  0.50000000  1
  O  O5  1  0.24832244  0.74911283  0.50000000  1
  O  O6  1  0.75167756  0.25088717  0.50000000  1
  O  O7  1  0.75167756  0.74911283  0.50000000  1
  O  O8  1  0.00000000  -0.00000000  0.50000000  1
  O  O9  1  0.00000000  0.50000000  0.50000000  1
  O  O10  1  0.50000000  -0.00000000  0.50000000  1
  O  O11  1  0.50000000  0.50000000  0.50000000  1
  O  O12  1  0.00000000  0.29015895  -0.00000000  1
  O  O13  1  0.00000000  0.70984105  -0.00000000  1
  O  O14  1  0.50000000  0.25698208  -0.00000000  1
  O  O15  1  0.50000000  0.74301792  -0.00000000  1
loop_
_geom_bond_atom_site_label_1
_geom_bond_atom_site_label_2
_geom_bond_distance
_geom_bond_site_symmetry_2
K0 O8 2.211748 1_555
K0 O8 2.211748 1_554
K0 O0 2.379809 1_555
K0 O2 2.379809 1_455
K0 O13 2.463040 1_545
K0 O12 2.463040 1_555
Mg0 O0 1.958101 1_555
Mg0 O2 1.958101 1_555
Mg0 O15 2.181415 1_545
Mg0 O14 2.181415 1_555
Mg0 O10 2.211748 1_555
Mg0 O10 2.211748 1_554
Mg1 O15 2.062879 1_555
Mg1 O14 2.062879 1_555
Mg1 O11 2.211748 1_554
Mg1 O11 2.211748 1_555
Mg1 O1 2.222121 1_555
Mg1 O3 2.222121 1_555
Mg2 O8 2.105596 1_555
Mg2 O9 2.138698 1_555
Mg2 O4 2.154535 1_555
Mg2 O6 2.154535 1_455
Mg2 O12 2.240445 1_555
Mg2 O12 2.240445 1_556
Mg3 O8 2.105596 1_565
Mg3 O9 2.138698 1_555
Mg3 O5 2.154535 1_555
Mg3 O7 2.154535 1_455
Mg3 O13 2.240445 1_555
Mg3 O13 2.240445 1_556
Mg4 O10 2.107384 1_555
Mg4 O11 2.136910 1_555
Mg4 O6 2.183623 1_555
Mg4 O4 2.183623 1_555
Mg4 O14 2.212986 1_555
Mg4 O14 2.212986 1_556
Mg5 O10 2.107384 1_565
Mg5 O11 2.136910 1_555
Mg5 O7 2.183623 1_555
Mg5 O5 2.183623 1_555
Mg5 O15 2.212986 1_556
Mg5 O15 2.212986 1_555
Mg6 O5 2.129948 1_545
Mg6 O4 2.129948 1_555
Mg6 O10 2.149586 1_555
Mg6 O8 2.188324 1_555
Mg6 O0 2.220021 1_555
Mg6 O0 2.220021 1_556
Mg7 O4 2.114764 1_555
Mg7 O5 2.114764 1_555
Mg7 O11 2.158504 1_555
Mg7 O9 2.179406 1_555
Mg7 O1 2.212662 1_555
Mg7 O1 2.212662 1_556
Mg8 O6 2.129948 1_555
Mg8 O7 2.129948 1_545
Mg8 O10 2.149586 1_555
Mg8 O8 2.188324 1_655
Mg8 O2 2.220021 1_555
Mg8 O2 2.220021 1_556
Mg9 O6 2.114764 1_555
Mg9 O7 2.114764 1_555
Mg9 O11 2.158504 1_555
Mg9 O9 2.179406 1_655
Mg9 O3 2.212662 1_556
Mg9 O3 2.212662 1_555
Mg10 O0 2.109232 1_555
Mg10 O14 2.115687 1_555
Mg10 O1 2.143566 1_555
Mg10 O4 2.212987 1_554
Mg10 O4 2.212987 1_555
Mg10 O12 2.252548 1_555
Mg11 O0 2.109232 1_565
Mg11 O15 2.115687 1_555
Mg11 O1 2.143566 1_555
Mg11 O5 2.212987 1_555
Mg11 O5 2.212987 1_554
Mg11 O13 2.252548 1_555
Mg12 O2 2.109232 1_555
Mg12 O14 2.115687 1_555
Mg12 O3 2.143566 1_555
Mg12 O6 2.212987 1_555
Mg12 O6 2.212987 1_554
Mg12 O12 2.252548 1_655
Mg13 O2 2.109232 1_565
Mg13 O15 2.115687 1_555
Mg13 O3 2.143566 1_555
Mg13 O7 2.212987 1_555
Mg13 O7 2.212987 1_554
Mg13 O13 2.252548 1_655
O1 Si0 2.115789 1_555
O3 Si0 2.115789 1_655
O9 Si0 2.211748 1_555
O9 Si0 2.211748 1_556
O12 Si0 1.781254 1_555
O13 Si0 1.781254 1_555
