# generated using pymatgen
data_Ba2Ti2TlO7
_symmetry_space_group_name_H-M   'P 1'
_cell_length_a   3.80601900
_cell_length_b   3.80601900
_cell_length_c   13.35816900
_cell_angle_alpha   90.00000000
_cell_angle_beta   90.00000000
_cell_angle_gamma   90.00000000
_symmetry_Int_Tables_number   1
_chemical_formula_structural   Ba2Ti2TlO7
_chemical_formula_sum   'Ba2 Ti2 Tl1 O7'
_cell_volume   193.50350573
_cell_formula_units_Z   1
loop_
 _symmetry_equiv_pos_site_id
 _symmetry_equiv_pos_as_xyz
  1  'x, y, z'
loop_
 _atom_site_type_symbol
 _atom_site_label
 _atom_site_symmetry_multiplicity
 _atom_site_fract_x
 _atom_site_fract_y
 _atom_site_fract_z
 _atom_site_occupancy
  Ba  Ba0  1  0.50000000  0.50000000  0.70138900  1
  Ba  Ba1  1  0.50000000  0.50000000  0.29861100  1
  Ti  Ti0  1  0.00000000  0.00000000  0.87891200  1
  Ti  Ti1  1  0.00000000  0.00000000  0.12108800  1
  Tl  Tl0  1  0.00000000  0.00000000  0.50000000  1
  O  O0  1  0.50000000  0.50000000  0.50000000  1
  O  O1  1  0.00000000  0.50000000  0.85995900  1
  O  O2  1  0.50000000  0.00000000  0.85995900  1
  O  O3  1  0.00000000  0.50000000  0.14004100  1
  O  O4  1  0.50000000  0.00000000  0.14004100  1
  O  O5  1  0.00000000  0.00000000  0.66012900  1
  O  O6  1  0.00000000  0.00000000  0.33987100  1
loop_
_geom_bond_atom_site_label_1
_geom_bond_atom_site_label_2
_geom_bond_distance
_geom_bond_site_symmetry_2
Ba0 O0 2.690188 1_555
Ba0 O5 2.747119 1_555
Ba0 O5 2.747119 1_655
Ba0 O5 2.747119 1_565
Ba0 O5 2.747119 1_665
Ba0 O1 2.847497 1_555
Ba0 O2 2.847497 1_565
Ba0 O2 2.847497 1_555
Ba0 O1 2.847497 1_655
Ba1 O0 2.690188 1_555
Ba1 O6 2.747119 1_555
Ba1 O6 2.747119 1_655
Ba1 O6 2.747119 1_565
Ba1 O6 2.747119 1_665
Ba1 O4 2.847497 1_555
Ba1 O4 2.847497 1_565
Ba1 O3 2.847497 1_555
Ba1 O3 2.847497 1_655
O0 Tl0 2.691262 1_555
O0 Tl0 2.691262 1_565
O0 Tl0 2.691262 1_665
O0 Tl0 2.691262 1_655
O1 Ti0 1.919777 1_565
O1 Ti0 1.919777 1_555
O2 Ti0 1.919777 1_655
O2 Ti0 1.919777 1_555
O3 Ti1 1.919777 1_565
O3 Ti1 1.919777 1_555
O4 Ti1 1.919777 1_655
O4 Ti1 1.919777 1_555
O5 Tl0 2.139030 1_555
O6 Tl0 2.139030 1_555
