# generated using pymatgen
data_Ge5Te4Se
_symmetry_space_group_name_H-M   'P 1'
_cell_length_a   15.39442332
_cell_length_b   15.39442332
_cell_length_c   15.39442332
_cell_angle_alpha   164.30776994
_cell_angle_beta   164.30776994
_cell_angle_gamma   22.26265210
_symmetry_Int_Tables_number   1
_chemical_formula_structural   Ge5Te4Se
_chemical_formula_sum   'Ge5 Te4 Se1'
_cell_volume   266.83931077
_cell_formula_units_Z   1
loop_
 _symmetry_equiv_pos_site_id
 _symmetry_equiv_pos_as_xyz
  1  'x, y, z'
loop_
 _atom_site_type_symbol
 _atom_site_label
 _atom_site_symmetry_multiplicity
 _atom_site_fract_x
 _atom_site_fract_y
 _atom_site_fract_z
 _atom_site_occupancy
  Ge  Ge0  1  0.80000400  0.80000400  0.00000000  1
  Ge  Ge1  1  0.19999600  0.19999600  0.00000000  1
  Ge  Ge2  1  0.59884500  0.59884500  0.00000000  1
  Ge  Ge3  1  0.00000000  0.00000000  0.00000000  1
  Ge  Ge4  1  0.40115500  0.40115500  0.00000000  1
  Te  Te0  1  0.90016100  0.90016100  0.00000000  1
  Te  Te1  1  0.30014600  0.30014600  0.00000000  1
  Te  Te2  1  0.69985400  0.69985400  0.00000000  1
  Te  Te3  1  0.09983900  0.09983900  0.00000000  1
  Se  Se0  1  0.50000000  0.50000000  0.00000000  1
loop_
_geom_bond_atom_site_label_1
_geom_bond_atom_site_label_2
_geom_bond_distance
_geom_bond_site_symmetry_2
Ge0 Te1 2.972027 1_655
Ge0 Te1 2.972027 1_554
Ge0 Te1 2.972027 1_565
Ge0 Te1 2.972027 1_666
Ge0 Te2 3.025494 1_555
Ge0 Te0 3.025705 1_555
Ge1 Te2 2.972027 1_444
Ge1 Te2 2.972027 1_455
Ge1 Te2 2.972027 1_545
Ge1 Te2 2.972027 1_556
Ge1 Te1 3.025494 1_555
Ge1 Te3 3.025705 1_555
Ge2 Te3 2.972175 1_655
Ge2 Te3 2.972175 1_554
Ge2 Te3 2.972175 1_666
Ge2 Te3 2.972175 1_565
Ge2 Se0 2.986070 1_555
Ge2 Te2 3.051444 1_555
Ge3 Se0 2.972024 1_444
Ge3 Se0 2.972024 1_455
Ge3 Se0 2.972024 1_556
Ge3 Se0 2.972024 1_545
Ge3 Te3 3.016099 1_555
Ge3 Te0 3.016099 1_445
Ge4 Te0 2.972175 1_455
Ge4 Te0 2.972175 1_556
Ge4 Te0 2.972175 1_444
Ge4 Te0 2.972175 1_545
Ge4 Se0 2.986070 1_555
Ge4 Te1 3.051444 1_555
