# generated using pymatgen
data_K3LiP2O7
_symmetry_space_group_name_H-M   'P 1'
_cell_length_a   5.65419732
_cell_length_b   5.65419732
_cell_length_c   13.53049400
_cell_angle_alpha   90.00000000
_cell_angle_beta   90.00000000
_cell_angle_gamma   114.27494479
_symmetry_Int_Tables_number   1
_chemical_formula_structural   K3LiP2O7
_chemical_formula_sum   'K6 Li2 P4 O14'
_cell_volume   394.32277342
_cell_formula_units_Z   2
loop_
 _symmetry_equiv_pos_site_id
 _symmetry_equiv_pos_as_xyz
  1  'x, y, z'
loop_
 _atom_site_type_symbol
 _atom_site_label
 _atom_site_symmetry_multiplicity
 _atom_site_fract_x
 _atom_site_fract_y
 _atom_site_fract_z
 _atom_site_occupancy
  K  K0  1  0.13415200  0.13415200  0.00000000  1
  K  K1  1  0.86584800  0.86584800  0.50000000  1
  K  K2  1  0.77641700  0.46230200  0.12267200  1
  K  K3  1  0.46230200  0.77641700  0.87732800  1
  K  K4  1  0.22358300  0.53769800  0.62267200  1
  K  K5  1  0.53769800  0.22358300  0.37732800  1
  Li  Li0  1  0.01209200  0.98790800  0.25000000  1
  Li  Li1  1  0.98790800  0.01209200  0.75000000  1
  P  P0  1  0.44193400  0.82414300  0.15546300  1
  P  P1  1  0.82414300  0.44193400  0.84453700  1
  P  P2  1  0.55806600  0.17585700  0.65546300  1
  P  P3  1  0.17585700  0.55806600  0.34453700  1
  O  O0  1  0.34072900  0.03140600  0.18050600  1
  O  O1  1  0.03140600  0.34072900  0.81949400  1
  O  O2  1  0.65927100  0.96859400  0.68050600  1
  O  O3  1  0.96859400  0.65927100  0.31949400  1
  O  O4  1  0.74031800  0.93904200  0.14804500  1
  O  O5  1  0.93904200  0.74031800  0.85195500  1
  O  O6  1  0.25968200  0.06095800  0.64804500  1
  O  O7  1  0.06095800  0.25968200  0.35195500  1
  O  O8  1  0.30490800  0.65507800  0.06683200  1
  O  O9  1  0.65507800  0.30490800  0.93316800  1
  O  O10  1  0.69509200  0.34492200  0.56683200  1
  O  O11  1  0.34492200  0.69509200  0.43316800  1
  O  O12  1  0.37721100  0.62278900  0.25000000  1
  O  O13  1  0.62278900  0.37721100  0.75000000  1
loop_
_geom_bond_atom_site_label_1
_geom_bond_atom_site_label_2
_geom_bond_distance
_geom_bond_site_symmetry_2
K0 O9 2.843787 1_554
K0 O8 2.843787 1_555
K0 O4 2.858030 1_445
K0 O5 2.858030 1_444
K0 O0 2.867878 1_555
K0 O1 2.867878 1_554
K1 O10 2.843787 1_555
K1 O11 2.843787 1_555
K1 O6 2.858030 1_665
K1 O7 2.858030 1_665
K1 O2 2.867878 1_555
K1 O3 2.867878 1_555
K2 O9 2.708354 1_554
K2 O0 2.771632 1_555
K2 O4 2.806791 1_555
K2 O8 2.830217 1_655
K2 O4 2.901102 1_545
K2 O3 2.918581 1_555
K3 O8 2.708354 1_556
K3 O1 2.771632 1_555
K3 O5 2.806791 1_555
K3 O9 2.830217 1_565
K3 O5 2.901102 1_455
K3 O2 2.918581 1_555
K4 O11 2.708354 1_555
K4 O2 2.771632 1_555
K4 O6 2.806791 1_555
K4 O10 2.830217 1_455
K4 O6 2.901102 1_565
K4 O1 2.918581 1_555
K5 O10 2.708354 1_555
K5 O3 2.771632 1_555
K5 O7 2.806791 1_555
K5 O11 2.830217 1_545
K5 O7 2.901102 1_655
K5 O0 2.918581 1_555
Li0 O7 1.997899 1_565
Li0 O4 1.997899 1_455
Li0 O0 2.005415 1_565
Li0 O3 2.005415 1_455
Li1 O5 1.997899 1_545
Li1 O6 1.997899 1_655
Li1 O1 2.005415 1_655
Li1 O2 2.005415 1_545
O0 P0 1.538512 1_545
O1 P1 1.538512 1_455
O2 P2 1.538512 1_565
O3 P3 1.538512 1_655
O4 P0 1.541850 1_555
O5 P1 1.541850 1_555
O6 P2 1.541850 1_555
O7 P3 1.541850 1_555
O8 P0 1.530763 1_555
O9 P1 1.530763 1_555
O10 P2 1.530763 1_555
O11 P3 1.530763 1_555
O12 P3 1.650364 1_555
O12 P0 1.650364 1_555
O13 P2 1.650364 1_555
O13 P1 1.650364 1_555
