# generated using pymatgen
data_Np2Te3
_symmetry_space_group_name_H-M   'P 1'
_cell_length_a   15.46436922
_cell_length_b   15.46436922
_cell_length_c   15.46436922
_cell_angle_alpha   145.15380258
_cell_angle_beta   145.15380258
_cell_angle_gamma   50.10538282
_symmetry_Int_Tables_number   1
_chemical_formula_structural   Np2Te3
_chemical_formula_sum   'Np16 Te24'
_cell_volume   1201.49880982
_cell_formula_units_Z   8
loop_
 _symmetry_equiv_pos_site_id
 _symmetry_equiv_pos_as_xyz
  1  'x, y, z'
loop_
 _atom_site_type_symbol
 _atom_site_label
 _atom_site_symmetry_multiplicity
 _atom_site_fract_x
 _atom_site_fract_y
 _atom_site_fract_z
 _atom_site_occupancy
  Np  Np0  1  0.66934400  0.79410000  0.38038400  1
  Np  Np1  1  0.08229000  0.58229000  0.50000000  1
  Np  Np2  1  0.37500000  0.00505900  0.13005900  1
  Np  Np3  1  0.08065600  0.96104000  0.62475500  1
  Np  Np4  1  0.66771000  0.66771000  0.00000000  1
  Np  Np5  1  0.33628400  0.45590000  0.37524500  1
  Np  Np6  1  0.87500000  0.24494100  0.86994100  1
  Np  Np7  1  0.03896000  0.66371600  0.11961600  1
  Np  Np8  1  0.33229000  0.33229000  0.00000000  1
  Np  Np9  1  0.75505900  0.62500000  0.63005900  1
  Np  Np10  1  0.99494100  0.12500000  0.36994100  1
  Np  Np11  1  0.54410000  0.91934400  0.88038400  1
  Np  Np12  1  0.41771000  0.91771000  0.50000000  1
  Np  Np13  1  0.71104000  0.33065600  0.12475500  1
  Np  Np14  1  0.41371600  0.28896000  0.61961600  1
  Np  Np15  1  0.20590000  0.58628400  0.87524500  1
  Te  Te0  1  0.74064600  0.49011900  0.09688500  1
  Te  Te1  1  0.17648600  0.27677300  0.25128800  1
  Te  Te2  1  0.39323400  0.64376100  0.90311500  1
  Te  Te3  1  0.35676600  0.75988100  0.75052700  1
  Te  Te4  1  0.00935400  0.60623900  0.24947300  1
  Te  Te5  1  0.02548500  0.92519800  0.74871200  1
  Te  Te6  1  0.40872300  0.15623500  0.09688400  1
  Te  Te7  1  0.72451500  0.97322700  0.39971300  1
  Te  Te8  1  0.84376500  0.94064900  0.25248800  1
  Te  Te9  1  0.05935100  0.31183900  0.90311600  1
  Te  Te10  1  0.57351400  0.32480200  0.60028700  1
  Te  Te11  1  0.02677300  0.42648600  0.75128800  1
  Te  Te12  1  0.67519800  0.27548500  0.24871200  1
  Te  Te13  1  0.68816100  0.59127700  0.74751200  1
  Te  Te14  1  0.07480200  0.82351400  0.10028700  1
  Te  Te15  1  0.39376100  0.64323400  0.40311500  1
  Te  Te16  1  0.50988100  0.60676600  0.25052700  1
  Te  Te17  1  0.72322700  0.97451500  0.89971300  1
  Te  Te18  1  0.24011900  0.99064600  0.59688500  1
  Te  Te19  1  0.69064900  0.09376500  0.75248800  1
  Te  Te20  1  0.34127700  0.93816100  0.24751200  1
  Te  Te21  1  0.35623900  0.25935400  0.74947300  1
  Te  Te22  1  0.06183900  0.30935100  0.40311600  1
  Te  Te23  1  0.90623500  0.65872300  0.59688400  1
loop_
_geom_bond_atom_site_label_1
_geom_bond_atom_site_label_2
_geom_bond_distance
_geom_bond_site_symmetry_2
Np0 Te7 3.121640 1_555
Np0 Te19 3.126226 1_565
Np0 Te0 3.161124 1_555
Np0 Te16 3.161207 1_555
Np0 Te23 3.247711 1_555
Np0 Te5 3.280920 1_655
Np0 Te20 3.290712 1_555
Np0 Te2 3.309538 1_554
Np1 Te1 3.127009 1_555
Np1 Te5 3.127009 1_555
Np1 Te0 3.134030 1_455
Np1 Te2 3.134030 1_555
Np1 Te23 3.273366 1_455
Np1 Te22 3.273366 1_555
Np1 Te3 3.326545 1_555
Np1 Te4 3.326545 1_555
Np2 Te7 3.131597 1_545
Np2 Te5 3.131597 1_544
Np2 Te6 3.157909 1_555
Np2 Te20 3.157909 1_545
Np2 Te10 3.250340 1_555
Np2 Te1 3.250340 1_555
Np2 Te3 3.321422 1_544
Np2 Te2 3.321422 1_544
Np3 Te5 3.121655 1_555
Np3 Te9 3.126226 1_565
Np3 Te4 3.161122 1_555
Np3 Te18 3.161193 1_555
Np3 Te8 3.247699 1_455
Np3 Te7 3.280924 1_455
Np3 Te6 3.290715 1_566
Np3 Te3 3.309543 1_555
Np4 Te7 3.127009 1_555
Np4 Te10 3.127009 1_554
Np4 Te4 3.134030 1_655
Np4 Te3 3.134030 1_554
Np4 Te13 3.273366 1_554
Np4 Te8 3.273366 1_555
Np4 Te2 3.326545 1_554
Np4 Te0 3.326545 1_555
Np5 Te1 3.121628 1_555
Np5 Te6 3.126233 1_555
Np5 Te3 3.161116 1_555
Np5 Te15 3.161220 1_555
Np5 Te13 3.247713 1_555
Np5 Te10 3.280910 1_555
Np5 Te9 3.290721 1_554
Np5 Te4 3.309537 1_555
Np6 Te10 3.131597 1_555
Np6 Te1 3.131597 1_656
Np6 Te19 3.157909 1_555
Np6 Te9 3.157909 1_655
Np6 Te5 3.250340 1_645
Np6 Te7 3.250340 1_545
Np6 Te4 3.321422 1_656
Np6 Te0 3.321422 1_556
Np7 Te14 3.121640 1_555
Np7 Te13 3.126226 1_454
Np7 Te15 3.161124 1_555
Np7 Te4 3.161207 1_555
Np7 Te9 3.247711 1_554
Np7 Te11 3.280920 1_554
Np7 Te8 3.290712 1_455
Np7 Te18 3.309538 1_555
Np8 Te12 3.127009 1_555
Np8 Te11 3.127009 1_554
Np8 Te18 3.134030 1_544
Np8 Te15 3.134030 1_555
Np8 Te9 3.273366 1_554
Np8 Te6 3.273366 1_555
Np8 Te21 3.326545 1_554
Np8 Te16 3.326545 1_555
Np9 Te17 3.131597 1_555
Np9 Te12 3.131597 1_555
Np9 Te23 3.157909 1_555
Np9 Te13 3.157909 1_555
Np9 Te11 3.250340 1_655
Np9 Te14 3.250340 1_656
Np9 Te16 3.321422 1_555
Np9 Te15 3.321422 1_555
Np10 Te14 3.131597 1_645
Np10 Te11 3.131597 1_655
Np10 Te22 3.157909 1_655
Np10 Te8 3.157909 1_545
Np10 Te17 3.250340 1_544
Np10 Te12 3.250340 1_555
Np10 Te21 3.321422 1_655
Np10 Te18 3.321422 1_645
Np11 Te17 3.121640 1_555
Np11 Te8 3.126226 1_556
Np11 Te18 3.161124 1_555
Np11 Te3 3.161207 1_555
Np11 Te6 3.247711 1_566
Np11 Te12 3.280920 1_566
Np11 Te13 3.290712 1_555
Np11 Te15 3.309538 1_555
Np12 Te14 3.127009 1_555
Np12 Te17 3.127009 1_555
Np12 Te16 3.134030 1_555
Np12 Te21 3.134030 1_565
Np12 Te20 3.273366 1_555
Np12 Te19 3.273366 1_565
Np12 Te18 3.326545 1_555
Np12 Te15 3.326545 1_555
Np13 Te12 3.121655 1_555
Np13 Te22 3.126226 1_655
Np13 Te21 3.161122 1_554
Np13 Te0 3.161193 1_555
Np13 Te19 3.247699 1_554
Np13 Te17 3.280924 1_544
Np13 Te23 3.290715 1_555
Np13 Te16 3.309543 1_555
Np14 Te10 3.121640 1_555
Np14 Te20 3.126226 1_545
Np14 Te2 3.161124 1_555
Np14 Te21 3.161207 1_555
Np14 Te22 3.247711 1_555
Np14 Te1 3.280920 1_555
Np14 Te19 3.290712 1_555
Np14 Te0 3.309538 1_556
Np15 Te11 3.121628 1_555
Np15 Te23 3.126233 1_455
Np15 Te16 3.161116 1_556
Np15 Te2 3.161220 1_555
Np15 Te20 3.247713 1_556
Np15 Te14 3.280910 1_556
Np15 Te22 3.290721 1_555
Np15 Te21 3.309537 1_555
