# generated using pymatgen
data_Na3La
_symmetry_space_group_name_H-M   'P 1'
_cell_length_a   7.53837453
_cell_length_b   7.53837453
_cell_length_c   5.89731800
_cell_angle_alpha   90.00000000
_cell_angle_beta   90.00000000
_cell_angle_gamma   120.00000466
_symmetry_Int_Tables_number   1
_chemical_formula_structural   Na3La
_chemical_formula_sum   'Na6 La2'
_cell_volume   290.22884913
_cell_formula_units_Z   2
loop_
 _symmetry_equiv_pos_site_id
 _symmetry_equiv_pos_as_xyz
  1  'x, y, z'
loop_
 _atom_site_type_symbol
 _atom_site_label
 _atom_site_symmetry_multiplicity
 _atom_site_fract_x
 _atom_site_fract_y
 _atom_site_fract_z
 _atom_site_occupancy
  Na  Na0  1  0.83981300  0.16018700  0.75000000  1
  Na  Na1  1  0.32037300  0.16018700  0.75000000  1
  Na  Na2  1  0.83981300  0.67962700  0.75000000  1
  Na  Na3  1  0.16018700  0.83981300  0.25000000  1
  Na  Na4  1  0.67962700  0.83981300  0.25000000  1
  Na  Na5  1  0.16018700  0.32037300  0.25000000  1
  La  La0  1  0.66666700  0.33333300  0.25000000  1
  La  La1  1  0.33333300  0.66666700  0.75000000  1
loop_
_geom_bond_atom_site_label_1
_geom_bond_atom_site_label_2
_geom_bond_distance
_geom_bond_site_symmetry_2
Na0 Na4 3.615123 1_546
Na0 Na4 3.615123 1_545
Na0 Na5 3.615123 1_656
Na0 Na5 3.615123 1_655
Na0 Na2 3.622641 1_545
Na0 Na1 3.622641 1_655
Na0 Na1 3.915733 1_555
Na0 Na2 3.915733 1_555
Na1 Na5 3.615116 1_556
Na1 Na5 3.615116 1_555
Na1 Na3 3.615123 1_545
Na1 Na3 3.615123 1_546
Na1 Na2 3.622641 1_445
Na1 Na2 3.915733 1_555
Na2 Na4 3.615116 1_555
Na2 Na4 3.615116 1_556
Na2 Na3 3.615123 1_655
Na2 Na3 3.615123 1_656
Na3 Na4 3.622641 1_455
Na3 Na5 3.622641 1_565
Na3 Na4 3.915733 1_555
Na3 Na5 3.915733 1_555
Na4 Na5 3.622641 1_665
Na4 Na5 3.915733 1_555
La0 Na0 3.715581 1_555
La0 Na0 3.715581 1_554
La0 Na2 3.715589 1_555
La0 Na2 3.715589 1_554
La0 Na1 3.715589 1_555
La0 Na1 3.715589 1_554
La0 Na3 3.770136 1_655
La0 Na3 3.770136 1_545
La0 Na4 3.770137 1_555
La0 Na5 3.770137 1_555
La0 Na5 3.770137 1_655
La0 Na4 3.770137 1_545
La1 Na3 3.715581 1_556
La1 Na3 3.715581 1_555
La1 Na4 3.715589 1_555
La1 Na4 3.715589 1_556
La1 Na5 3.715589 1_556
La1 Na5 3.715589 1_555
La1 Na0 3.770136 1_565
La1 Na0 3.770136 1_455
La1 Na2 3.770137 1_555
La1 Na1 3.770137 1_555
La1 Na1 3.770137 1_565
La1 Na2 3.770137 1_455
