# generated using pymatgen
data_Cr8Cd3CuS16
_symmetry_space_group_name_H-M   'P 1'
_cell_length_a   12.41154315
_cell_length_b   12.41154315
_cell_length_c   12.41154416
_cell_angle_alpha   33.89914245
_cell_angle_beta   33.89914245
_cell_angle_gamma   33.89914289
_symmetry_Int_Tables_number   1
_chemical_formula_structural   Cr8Cd3CuS16
_chemical_formula_sum   'Cr8 Cd3 Cu1 S16'
_cell_volume   530.05114676
_cell_formula_units_Z   1
loop_
 _symmetry_equiv_pos_site_id
 _symmetry_equiv_pos_as_xyz
  1  'x, y, z'
loop_
 _atom_site_type_symbol
 _atom_site_label
 _atom_site_symmetry_multiplicity
 _atom_site_fract_x
 _atom_site_fract_y
 _atom_site_fract_z
 _atom_site_occupancy
  Cr  Cr0  1  0.56617300  0.06299300  0.56617300  1
  Cr  Cr1  1  0.06186200  0.55810600  0.06186200  1
  Cr  Cr2  1  0.06299300  0.56617300  0.56617300  1
  Cr  Cr3  1  0.55810600  0.06186200  0.06186200  1
  Cr  Cr4  1  0.80937500  0.80937500  0.80937500  1
  Cr  Cr5  1  0.31270000  0.31270000  0.31270000  1
  Cr  Cr6  1  0.56617300  0.56617300  0.06299300  1
  Cr  Cr7  1  0.06186200  0.06186200  0.55810600  1
  Cd  Cd0  1  0.62527800  0.62527800  0.62527800  1
  Cd  Cd1  1  0.00054900  0.00054900  0.00054900  1
  Cd  Cd2  1  0.50101100  0.50101100  0.50101100  1
  Cu  Cu0  1  0.12477800  0.12477800  0.12477800  1
  S  S0  1  0.21267500  0.64800000  0.21267500  1
  S  S1  1  0.71079700  0.14543800  0.71079700  1
  S  S2  1  0.64800000  0.21267500  0.21267500  1
  S  S3  1  0.14543800  0.71079700  0.71079700  1
  S  S4  1  0.43051300  0.43051300  0.43051300  1
  S  S5  1  0.92868900  0.92868900  0.92868900  1
  S  S6  1  0.21267500  0.21267500  0.64800000  1
  S  S7  1  0.71079700  0.71079700  0.14543800  1
  S  S8  1  0.92616000  0.45654000  0.92616000  1
  S  S9  1  0.41287200  0.97646700  0.41287200  1
  S  S10  1  0.45654000  0.92616000  0.92616000  1
  S  S11  1  0.97646700  0.41287200  0.41287200  1
  S  S12  1  0.69731300  0.69731300  0.69731300  1
  S  S13  1  0.19117100  0.19117100  0.19117100  1
  S  S14  1  0.92616000  0.92616000  0.45654000  1
  S  S15  1  0.41287200  0.41287200  0.97646700  1
loop_
_geom_bond_atom_site_label_1
_geom_bond_atom_site_label_2
_geom_bond_distance
_geom_bond_site_symmetry_2
Cr0 S4 2.384087 1_555
Cr0 S12 2.401904 1_545
Cr0 S14 2.417858 1_545
Cr0 S10 2.417858 1_545
Cr0 S6 2.436555 1_555
Cr0 S2 2.436555 1_555
Cr1 S7 2.388639 1_455
Cr1 S3 2.388639 1_554
Cr1 S15 2.412953 1_554
Cr1 S11 2.412954 1_455
Cr1 S13 2.429269 1_555
Cr1 S5 2.431878 1_454
Cr2 S4 2.384087 1_555
Cr2 S12 2.401904 1_455
Cr2 S14 2.417858 1_455
Cr2 S8 2.417858 1_455
Cr2 S6 2.436555 1_555
Cr2 S0 2.436555 1_555
Cr3 S7 2.388639 1_545
Cr3 S1 2.388639 1_554
Cr3 S15 2.412953 1_554
Cr3 S9 2.412954 1_545
Cr3 S13 2.429269 1_555
Cr3 S5 2.431878 1_544
Cr4 S10 2.406819 1_555
Cr4 S8 2.406819 1_555
Cr4 S14 2.406819 1_555
Cr4 S3 2.435831 1_655
Cr4 S1 2.435831 1_565
Cr4 S7 2.435832 1_556
Cr5 S2 2.409713 1_555
Cr5 S0 2.409713 1_555
Cr5 S6 2.409714 1_555
Cr5 S11 2.418020 1_455
Cr5 S9 2.418020 1_545
Cr5 S15 2.418020 1_554
Cr6 S4 2.384087 1_555
Cr6 S12 2.401904 1_554
Cr6 S8 2.417858 1_554
Cr6 S10 2.417858 1_554
Cr6 S2 2.436554 1_555
Cr6 S0 2.436554 1_555
Cr7 S1 2.388639 1_455
Cr7 S3 2.388639 1_545
Cr7 S9 2.412953 1_545
Cr7 S11 2.412953 1_455
Cr7 S13 2.429270 1_555
Cr7 S5 2.431878 1_445
Cd0 S15 2.507036 1_555
Cd0 S9 2.507036 1_555
Cd0 S11 2.507036 1_555
Cd0 S12 2.525656 1_555
Cd1 S6 2.503675 1_554
Cd1 S0 2.503675 1_545
Cd1 S2 2.503675 1_455
Cd1 S5 2.519520 1_444
Cd2 S4 2.471766 1_555
Cd2 S7 2.477717 1_555
Cd2 S3 2.477717 1_555
Cd2 S1 2.477717 1_555
Cu0 S13 2.327839 1_555
Cu0 S14 2.344376 1_445
Cu0 S8 2.344376 1_454
Cu0 S10 2.344376 1_544
