# generated using pymatgen
data_YMg14Zr
_symmetry_space_group_name_H-M   'P 1'
_cell_length_a   6.52881922
_cell_length_b   6.44022122
_cell_length_c   10.35672201
_cell_angle_alpha   90.00000000
_cell_angle_beta   90.00000000
_cell_angle_gamma   119.55211001
_symmetry_Int_Tables_number   1
_chemical_formula_structural   YMg14Zr
_chemical_formula_sum   'Y1 Mg14 Zr1'
_cell_volume   378.81818072
_cell_formula_units_Z   1
loop_
 _symmetry_equiv_pos_site_id
 _symmetry_equiv_pos_as_xyz
  1  'x, y, z'
loop_
 _atom_site_type_symbol
 _atom_site_label
 _atom_site_symmetry_multiplicity
 _atom_site_fract_x
 _atom_site_fract_y
 _atom_site_fract_z
 _atom_site_occupancy
  Y  Y0  1  0.16754068  0.33376984  0.12500000  1
  Mg  Mg0  1  0.16620735  0.33310317  0.62500000  1
  Mg  Mg1  1  0.16578376  0.83289138  0.62500000  1
  Mg  Mg2  1  0.66449956  0.33187141  0.12500000  1
  Mg  Mg3  1  0.66669135  0.33374483  0.62500000  1
  Mg  Mg4  1  0.66449956  0.83262714  0.12500000  1
  Mg  Mg5  1  0.66669135  0.83294552  0.62500000  1
  Mg  Mg6  1  0.33376329  0.16315006  0.37811450  1
  Mg  Mg7  1  0.33376329  0.16315006  0.87188550  1
  Mg  Mg8  1  0.33376329  0.67061423  0.37811450  1
  Mg  Mg9  1  0.33376329  0.67061423  0.87188550  1
  Mg  Mg10  1  0.83005557  0.16502829  0.37814140  1
  Mg  Mg11  1  0.83005557  0.16502829  0.87185860  1
  Mg  Mg12  1  0.83525056  0.66762578  0.37318642  1
  Mg  Mg13  1  0.83525056  0.66762578  0.87681358  1
  Zr  Zr0  1  0.17242099  0.83620999  0.12500000  1
loop_
_geom_bond_atom_site_label_1
_geom_bond_atom_site_label_2
_geom_bond_distance
_geom_bond_site_symmetry_2
Y0 Zr0 3.220230 1_555
Y0 Zr0 3.220230 1_545
Mg0 Mg7 3.180203 1_555
Mg0 Mg6 3.180203 1_555
Mg0 Mg9 3.180210 1_555
Mg0 Mg8 3.180210 1_555
Mg0 Mg11 3.190822 1_455
Mg0 Mg10 3.190822 1_455
Mg0 Mg1 3.220111 1_545
Mg0 Mg1 3.220112 1_555
Mg0 Mg5 3.263290 1_445
Mg0 Mg3 3.263290 1_455
Mg0 Mg5 3.265533 1_555
Mg0 Mg3 3.265533 1_555
Mg1 Mg9 3.156499 1_555
Mg1 Mg8 3.156499 1_555
Mg1 Mg7 3.156505 1_565
Mg1 Mg6 3.156505 1_565
Mg1 Mg12 3.213340 1_455
Mg1 Mg13 3.213340 1_455
Mg1 Mg3 3.258656 1_455
Mg1 Mg5 3.258656 1_455
Mg1 Mg3 3.270163 1_565
Mg1 Mg5 3.270163 1_555
Mg2 Mg4 3.215244 1_545
Mg2 Zr0 3.224135 1_545
Mg2 Mg4 3.224978 1_555
Mg2 Mg6 3.225028 1_555
Mg2 Mg7 3.225028 1_554
Mg2 Y0 3.250602 1_555
Mg2 Y0 3.278252 1_655
Mg2 Zr0 3.304807 1_655
Mg3 Mg7 3.180236 1_555
Mg3 Mg6 3.180236 1_555
Mg3 Mg5 3.214963 1_555
Mg3 Mg5 3.225258 1_545
Mg4 Zr0 3.224135 1_555
Mg4 Mg8 3.225028 1_555
Mg4 Mg9 3.225028 1_554
Mg4 Y0 3.250602 1_555
Mg4 Y0 3.278251 1_665
Mg4 Zr0 3.304808 1_655
Mg5 Mg9 3.180236 1_555
Mg5 Mg8 3.180236 1_555
Mg6 Mg8 3.172040 1_545
Mg6 Zr0 3.197981 1_545
Mg6 Y0 3.230078 1_555
Mg6 Mg8 3.268182 1_555
Mg7 Mg9 3.172040 1_545
Mg7 Zr0 3.197981 1_546
Mg7 Y0 3.230078 1_556
Mg7 Mg9 3.268182 1_555
Mg8 Zr0 3.197975 1_555
Mg8 Y0 3.230084 1_555
Mg9 Zr0 3.197975 1_556
Mg9 Y0 3.230084 1_556
Mg10 Mg3 3.161937 1_555
Mg10 Mg5 3.161943 1_545
Mg10 Mg2 3.215886 1_555
Mg10 Mg4 3.215893 1_545
Mg10 Mg12 3.220655 1_555
Mg10 Mg12 3.220655 1_545
Mg10 Mg8 3.234253 1_545
Mg10 Mg6 3.234254 1_555
Mg10 Y0 3.247656 1_655
Mg10 Mg8 3.294599 1_655
Mg10 Mg6 3.294599 1_655
Mg11 Mg3 3.161937 1_555
Mg11 Mg5 3.161943 1_545
Mg11 Mg2 3.215886 1_556
Mg11 Mg4 3.215893 1_546
Mg11 Mg13 3.220655 1_555
Mg11 Mg13 3.220655 1_545
Mg11 Mg9 3.234253 1_545
Mg11 Mg7 3.234254 1_555
Mg11 Y0 3.247656 1_656
Mg11 Mg9 3.294599 1_655
Mg11 Mg7 3.294599 1_655
Mg12 Mg4 3.185515 1_555
Mg12 Mg2 3.185522 1_555
Mg12 Zr0 3.205304 1_655
Mg12 Mg5 3.209661 1_555
Mg12 Mg3 3.209667 1_555
Mg12 Mg6 3.245651 1_665
Mg12 Mg8 3.245651 1_655
Mg12 Mg6 3.284051 1_555
Mg12 Mg8 3.284052 1_555
Mg13 Mg4 3.185515 1_556
Mg13 Mg2 3.185522 1_556
Mg13 Zr0 3.205304 1_656
Mg13 Mg5 3.209661 1_555
Mg13 Mg3 3.209667 1_555
Mg13 Mg7 3.245651 1_665
Mg13 Mg9 3.245651 1_655
Mg13 Mg7 3.284051 1_555
Mg13 Mg9 3.284052 1_555
