# generated using pymatgen
data_Yb36Sn23
_symmetry_space_group_name_H-M   'P 1'
_cell_length_a   12.38098200
_cell_length_b   12.38098200
_cell_length_c   23.31099000
_cell_angle_alpha   90.00000000
_cell_angle_beta   90.00000000
_cell_angle_gamma   90.00000000
_symmetry_Int_Tables_number   1
_chemical_formula_structural   Yb36Sn23
_chemical_formula_sum   'Yb72 Sn46'
_cell_volume   3573.31170911
_cell_formula_units_Z   2
loop_
 _symmetry_equiv_pos_site_id
 _symmetry_equiv_pos_as_xyz
  1  'x, y, z'
loop_
 _atom_site_type_symbol
 _atom_site_label
 _atom_site_symmetry_multiplicity
 _atom_site_fract_x
 _atom_site_fract_y
 _atom_site_fract_z
 _atom_site_occupancy
  Yb  Yb0  1  0.00000000  0.50000000  0.87253900  1
  Yb  Yb1  1  0.50000000  0.00000000  0.87253900  1
  Yb  Yb2  1  0.00000000  0.50000000  0.12746100  1
  Yb  Yb3  1  0.50000000  0.00000000  0.12746100  1
  Yb  Yb4  1  0.00000000  0.50000000  0.72126200  1
  Yb  Yb5  1  0.50000000  0.00000000  0.72126200  1
  Yb  Yb6  1  0.00000000  0.50000000  0.27873800  1
  Yb  Yb7  1  0.50000000  0.00000000  0.27873800  1
  Yb  Yb8  1  0.00000000  0.50000000  0.57174800  1
  Yb  Yb9  1  0.50000000  0.00000000  0.57174800  1
  Yb  Yb10  1  0.00000000  0.50000000  0.42825200  1
  Yb  Yb11  1  0.50000000  0.00000000  0.42825200  1
  Yb  Yb12  1  0.33329500  0.83329500  0.00000000  1
  Yb  Yb13  1  0.66670500  0.16670500  0.00000000  1
  Yb  Yb14  1  0.16670500  0.33329500  0.00000000  1
  Yb  Yb15  1  0.83329500  0.66670500  0.00000000  1
  Yb  Yb16  1  0.71520300  0.58138200  0.50000000  1
  Yb  Yb17  1  0.28479700  0.41861800  0.50000000  1
  Yb  Yb18  1  0.78479700  0.08138200  0.50000000  1
  Yb  Yb19  1  0.21520300  0.91861800  0.50000000  1
  Yb  Yb20  1  0.58138200  0.28479700  0.50000000  1
  Yb  Yb21  1  0.41861800  0.71520300  0.50000000  1
  Yb  Yb22  1  0.08138200  0.21520300  0.50000000  1
  Yb  Yb23  1  0.91861800  0.78479700  0.50000000  1
  Yb  Yb24  1  0.78745700  0.91335900  0.63111200  1
  Yb  Yb25  1  0.21254300  0.08664100  0.63111200  1
  Yb  Yb26  1  0.71254300  0.41335900  0.63111200  1
  Yb  Yb27  1  0.28745700  0.58664100  0.63111200  1
  Yb  Yb28  1  0.91335900  0.21254300  0.63111200  1
  Yb  Yb29  1  0.08664100  0.78745700  0.63111200  1
  Yb  Yb30  1  0.41335900  0.28745700  0.63111200  1
  Yb  Yb31  1  0.58664100  0.71254300  0.63111200  1
  Yb  Yb32  1  0.21254300  0.08664100  0.36888800  1
  Yb  Yb33  1  0.78745700  0.91335900  0.36888800  1
  Yb  Yb34  1  0.28745700  0.58664100  0.36888800  1
  Yb  Yb35  1  0.71254300  0.41335900  0.36888800  1
  Yb  Yb36  1  0.08664100  0.78745700  0.36888800  1
  Yb  Yb37  1  0.91335900  0.21254300  0.36888800  1
  Yb  Yb38  1  0.58664100  0.71254300  0.36888800  1
  Yb  Yb39  1  0.41335900  0.28745700  0.36888800  1
  Yb  Yb40  1  0.71261500  0.57586000  0.76097200  1
  Yb  Yb41  1  0.28738500  0.42414000  0.76097200  1
  Yb  Yb42  1  0.78738500  0.07586000  0.76097200  1
  Yb  Yb43  1  0.21261500  0.92414000  0.76097200  1
  Yb  Yb44  1  0.57586000  0.28738500  0.76097200  1
  Yb  Yb45  1  0.42414000  0.71261500  0.76097200  1
  Yb  Yb46  1  0.07586000  0.21261500  0.76097200  1
  Yb  Yb47  1  0.92414000  0.78738500  0.76097200  1
  Yb  Yb48  1  0.28738500  0.42414000  0.23902800  1
  Yb  Yb49  1  0.71261500  0.57586000  0.23902800  1
  Yb  Yb50  1  0.21261500  0.92414000  0.23902800  1
  Yb  Yb51  1  0.78738500  0.07586000  0.23902800  1
  Yb  Yb52  1  0.42414000  0.71261500  0.23902800  1
  Yb  Yb53  1  0.57586000  0.28738500  0.23902800  1
  Yb  Yb54  1  0.92414000  0.78738500  0.23902800  1
  Yb  Yb55  1  0.07586000  0.21261500  0.23902800  1
  Yb  Yb56  1  0.29122000  0.55557000  0.90870400  1
  Yb  Yb57  1  0.70878000  0.44443000  0.90870400  1
  Yb  Yb58  1  0.20878000  0.05557000  0.90870400  1
  Yb  Yb59  1  0.79122000  0.94443000  0.90870400  1
  Yb  Yb60  1  0.55557000  0.70878000  0.90870400  1
  Yb  Yb61  1  0.44443000  0.29122000  0.90870400  1
  Yb  Yb62  1  0.05557000  0.79122000  0.90870400  1
  Yb  Yb63  1  0.94443000  0.20878000  0.90870400  1
  Yb  Yb64  1  0.70878000  0.44443000  0.09129600  1
  Yb  Yb65  1  0.29122000  0.55557000  0.09129600  1
  Yb  Yb66  1  0.79122000  0.94443000  0.09129600  1
  Yb  Yb67  1  0.20878000  0.05557000  0.09129600  1
  Yb  Yb68  1  0.44443000  0.29122000  0.09129600  1
  Yb  Yb69  1  0.55557000  0.70878000  0.09129600  1
  Yb  Yb70  1  0.94443000  0.20878000  0.09129600  1
  Yb  Yb71  1  0.05557000  0.79122000  0.09129600  1
  Sn  Sn0  1  0.50000000  0.50000000  0.83318500  1
  Sn  Sn1  1  0.00000000  0.00000000  0.83318500  1
  Sn  Sn2  1  0.50000000  0.50000000  0.16681500  1
  Sn  Sn3  1  0.00000000  0.00000000  0.16681500  1
  Sn  Sn4  1  0.50000000  0.50000000  0.69812800  1
  Sn  Sn5  1  0.00000000  0.00000000  0.69812800  1
  Sn  Sn6  1  0.50000000  0.50000000  0.30187200  1
  Sn  Sn7  1  0.00000000  0.00000000  0.30187200  1
  Sn  Sn8  1  0.50000000  0.50000000  0.56646800  1
  Sn  Sn9  1  0.00000000  0.00000000  0.56646800  1
  Sn  Sn10  1  0.50000000  0.50000000  0.43353200  1
  Sn  Sn11  1  0.00000000  0.00000000  0.43353200  1
  Sn  Sn12  1  0.08846600  0.58846600  0.00000000  1
  Sn  Sn13  1  0.91153400  0.41153400  0.00000000  1
  Sn  Sn14  1  0.41153400  0.08846600  0.00000000  1
  Sn  Sn15  1  0.58846600  0.91153400  0.00000000  1
  Sn  Sn16  1  0.16310800  0.66310800  0.78558300  1
  Sn  Sn17  1  0.83689200  0.33689200  0.78558300  1
  Sn  Sn18  1  0.33689200  0.16310800  0.78558300  1
  Sn  Sn19  1  0.66310800  0.83689200  0.78558300  1
  Sn  Sn20  1  0.83689200  0.33689200  0.21441700  1
  Sn  Sn21  1  0.16310800  0.66310800  0.21441700  1
  Sn  Sn22  1  0.66310800  0.83689200  0.21441700  1
  Sn  Sn23  1  0.33689200  0.16310800  0.21441700  1
  Sn  Sn24  1  0.30478500  0.80478500  0.86909400  1
  Sn  Sn25  1  0.69521500  0.19521500  0.86909400  1
  Sn  Sn26  1  0.19521500  0.30478500  0.86909400  1
  Sn  Sn27  1  0.80478500  0.69521500  0.86909400  1
  Sn  Sn28  1  0.69521500  0.19521500  0.13090600  1
  Sn  Sn29  1  0.30478500  0.80478500  0.13090600  1
  Sn  Sn30  1  0.80478500  0.69521500  0.13090600  1
  Sn  Sn31  1  0.19521500  0.30478500  0.13090600  1
  Sn  Sn32  1  0.50000000  0.50000000  0.00000000  1
  Sn  Sn33  1  0.00000000  0.00000000  0.00000000  1
  Sn  Sn34  1  0.15715500  0.65715500  0.50000000  1
  Sn  Sn35  1  0.84284500  0.34284500  0.50000000  1
  Sn  Sn36  1  0.34284500  0.15715500  0.50000000  1
  Sn  Sn37  1  0.65715500  0.84284500  0.50000000  1
  Sn  Sn38  1  0.34777400  0.84777400  0.64080500  1
  Sn  Sn39  1  0.65222600  0.15222600  0.64080500  1
  Sn  Sn40  1  0.15222600  0.34777400  0.64080500  1
  Sn  Sn41  1  0.84777400  0.65222600  0.64080500  1
  Sn  Sn42  1  0.65222600  0.15222600  0.35919500  1
  Sn  Sn43  1  0.34777400  0.84777400  0.35919500  1
  Sn  Sn44  1  0.84777400  0.65222600  0.35919500  1
  Sn  Sn45  1  0.15222600  0.34777400  0.35919500  1
loop_
_geom_bond_atom_site_label_1
_geom_bond_atom_site_label_2
_geom_bond_distance
_geom_bond_site_symmetry_2
Sn0 Yb60 3.202212 1_555
Sn0 Yb57 3.202212 1_555
Sn0 Yb56 3.202212 1_555
Sn0 Yb61 3.202212 1_555
Sn0 Yb41 3.262708 1_555
Sn0 Yb45 3.262708 1_555
Sn0 Yb40 3.262708 1_555
Sn0 Yb44 3.262708 1_555
Sn1 Yb62 3.202212 1_545
Sn1 Yb59 3.202212 1_445
Sn1 Yb58 3.202212 1_555
Sn1 Yb63 3.202212 1_455
Sn1 Yb42 3.262708 1_455
Sn1 Yb46 3.262708 1_555
Sn1 Yb43 3.262708 1_545
Sn1 Yb47 3.262708 1_445
Sn2 Yb64 3.202212 1_555
Sn2 Yb69 3.202212 1_555
Sn2 Yb65 3.202212 1_555
Sn2 Yb68 3.202212 1_555
Sn2 Yb52 3.262708 1_555
Sn2 Yb49 3.262708 1_555
Sn2 Yb53 3.262708 1_555
Sn2 Yb48 3.262708 1_555
Sn3 Yb71 3.202212 1_545
Sn3 Yb66 3.202212 1_445
Sn3 Yb70 3.202212 1_455
Sn3 Yb67 3.202212 1_555
Sn3 Yb54 3.262708 1_445
Sn3 Yb55 3.262708 1_555
Sn3 Yb51 3.262708 1_455
Sn3 Yb50 3.262708 1_545
Sn4 Sn8 3.069125 1_555
Sn4 Yb41 3.155578 1_555
Sn4 Yb45 3.155578 1_555
Sn4 Yb40 3.155578 1_555
Sn4 Yb44 3.155578 1_555
Sn4 Yb27 3.242827 1_555
Sn4 Yb30 3.242827 1_555
Sn4 Yb31 3.242827 1_555
Sn4 Yb26 3.242827 1_555
Sn5 Sn9 3.069125 1_555
Sn5 Yb46 3.155578 1_555
Sn5 Yb43 3.155578 1_545
Sn5 Yb47 3.155578 1_445
Sn5 Yb42 3.155578 1_455
Sn5 Yb28 3.242827 1_455
Sn5 Yb25 3.242827 1_555
Sn5 Yb24 3.242827 1_445
Sn5 Yb29 3.242827 1_545
Sn6 Yb48 3.155578 1_555
Sn6 Yb52 3.155578 1_555
Sn6 Yb49 3.155578 1_555
Sn6 Yb53 3.155578 1_555
Sn6 Yb34 3.242827 1_555
Sn6 Yb39 3.242827 1_555
Sn6 Yb38 3.242827 1_555
Sn6 Yb35 3.242827 1_555
Sn7 Yb50 3.155578 1_545
Sn7 Yb54 3.155578 1_445
Sn7 Yb55 3.155578 1_555
Sn7 Yb51 3.155578 1_455
Sn7 Yb32 3.242827 1_555
Sn7 Yb37 3.242827 1_455
Sn7 Yb36 3.242827 1_545
Sn7 Yb33 3.242827 1_445
Sn8 Yb27 3.216555 1_555
Sn8 Yb30 3.216555 1_555
Sn8 Yb31 3.216555 1_555
Sn8 Yb26 3.216555 1_555
Sn8 Yb20 3.242706 1_555
Sn8 Yb21 3.242706 1_555
Sn8 Yb16 3.242706 1_555
Sn8 Yb17 3.242706 1_555
Sn9 Yb28 3.216555 1_455
Sn9 Yb25 3.216555 1_555
Sn9 Yb24 3.216555 1_445
Sn9 Yb29 3.216555 1_545
Sn9 Yb19 3.242706 1_545
Sn9 Yb22 3.242706 1_555
Sn9 Yb18 3.242706 1_455
Sn9 Yb23 3.242706 1_445
Sn10 Sn6 3.069125 1_555
Sn10 Sn8 3.098870 1_555
Sn10 Yb34 3.216555 1_555
Sn10 Yb39 3.216555 1_555
Sn10 Yb38 3.216555 1_555
Sn10 Yb35 3.216555 1_555
Sn10 Yb17 3.242706 1_555
Sn10 Yb20 3.242706 1_555
Sn10 Yb16 3.242706 1_555
Sn10 Yb21 3.242706 1_555
Sn11 Sn7 3.069125 1_555
Sn11 Sn9 3.098870 1_555
Sn11 Yb32 3.216555 1_555
Sn11 Yb37 3.216555 1_455
Sn11 Yb36 3.216555 1_545
Sn11 Yb33 3.216555 1_445
Sn11 Yb22 3.242706 1_555
Sn11 Yb19 3.242706 1_545
Sn11 Yb18 3.242706 1_455
Sn11 Yb23 3.242706 1_445
Sn12 Sn13 3.097965 1_455
Sn12 Yb15 3.304437 1_455
Sn12 Yb14 3.304437 1_555
Sn12 Yb71 3.316126 1_555
Sn12 Yb65 3.316126 1_555
Sn12 Yb62 3.316126 1_554
Sn12 Yb56 3.316126 1_554
Sn12 Yb2 3.350765 1_555
Sn12 Yb0 3.350765 1_554
Sn13 Yb14 3.304437 1_655
Sn13 Yb15 3.304437 1_555
Sn13 Yb64 3.316126 1_555
Sn13 Yb70 3.316126 1_555
Sn13 Yb57 3.316126 1_554
Sn13 Yb63 3.316126 1_554
Sn13 Yb2 3.350765 1_655
Sn13 Yb0 3.350765 1_654
Sn14 Sn15 3.097965 1_545
Sn14 Yb13 3.304437 1_555
Sn14 Yb12 3.304437 1_545
Sn14 Yb68 3.316126 1_555
Sn14 Yb67 3.316126 1_555
Sn14 Yb61 3.316126 1_554
Sn14 Yb58 3.316126 1_554
Sn14 Yb3 3.350765 1_555
Sn14 Yb1 3.350765 1_554
Sn15 Yb13 3.304437 1_565
Sn15 Yb12 3.304437 1_555
Sn15 Yb66 3.316126 1_555
Sn15 Yb69 3.316126 1_555
Sn15 Yb60 3.316126 1_554
Sn15 Yb59 3.316126 1_554
Sn15 Yb3 3.350765 1_565
Sn15 Yb1 3.350765 1_564
Sn16 Sn24 3.153327 1_555
Sn16 Yb4 3.225587 1_555
Sn16 Yb43 3.339099 1_555
Sn16 Yb45 3.339099 1_555
Sn16 Yb41 3.383831 1_555
Sn16 Yb47 3.383831 1_455
Sn16 Yb0 3.502157 1_555
Sn16 Yb56 3.539193 1_555
Sn16 Yb62 3.539193 1_555
Sn17 Sn25 3.153327 1_555
Sn17 Yb4 3.225587 1_655
Sn17 Yb44 3.339099 1_555
Sn17 Yb42 3.339099 1_555
Sn17 Yb40 3.383831 1_555
Sn17 Yb46 3.383831 1_655
Sn17 Yb0 3.502157 1_655
Sn17 Yb57 3.539193 1_555
Sn17 Yb63 3.539193 1_555
Sn18 Sn26 3.153327 1_555
Sn18 Yb5 3.225587 1_555
Sn18 Yb46 3.339099 1_555
Sn18 Yb41 3.339099 1_555
Sn18 Yb44 3.383831 1_555
Sn18 Yb43 3.383831 1_545
Sn18 Yb1 3.502157 1_555
Sn18 Yb61 3.539193 1_555
Sn18 Yb58 3.539193 1_555
Sn19 Sn27 3.153327 1_555
Sn19 Yb5 3.225587 1_565
Sn19 Yb47 3.339099 1_555
Sn19 Yb40 3.339099 1_555
Sn19 Yb45 3.383831 1_555
Sn19 Yb42 3.383831 1_565
Sn19 Yb1 3.502157 1_565
Sn19 Yb60 3.539193 1_555
Sn19 Yb59 3.539193 1_555
Sn20 Sn28 3.153327 1_555
Sn20 Yb6 3.225587 1_655
Sn20 Yb53 3.339099 1_555
Sn20 Yb51 3.339099 1_555
Sn20 Yb49 3.383831 1_555
Sn20 Yb55 3.383831 1_655
Sn20 Yb2 3.502157 1_655
Sn20 Yb70 3.539193 1_555
Sn20 Yb64 3.539193 1_555
Sn21 Sn29 3.153327 1_555
Sn21 Yb6 3.225587 1_555
Sn21 Yb50 3.339099 1_555
Sn21 Yb52 3.339099 1_555
Sn21 Yb48 3.383831 1_555
Sn21 Yb54 3.383831 1_455
Sn21 Yb2 3.502157 1_555
Sn21 Yb71 3.539193 1_555
Sn21 Yb65 3.539193 1_555
Sn22 Sn30 3.153327 1_555
Sn22 Yb7 3.225587 1_565
Sn22 Yb54 3.339099 1_555
Sn22 Yb49 3.339099 1_555
Sn22 Yb52 3.383831 1_555
Sn22 Yb51 3.383831 1_565
Sn22 Yb3 3.502157 1_565
Sn22 Yb66 3.539193 1_555
Sn22 Yb69 3.539193 1_555
Sn23 Sn31 3.153327 1_555
Sn23 Yb7 3.225587 1_555
Sn23 Yb55 3.339099 1_555
Sn23 Yb48 3.339099 1_555
Sn23 Yb53 3.383831 1_555
Sn23 Yb50 3.383831 1_545
Sn23 Yb3 3.502157 1_555
Sn23 Yb68 3.539193 1_555
Sn23 Yb67 3.539193 1_555
Sn24 Yb12 3.092109 1_556
Sn24 Yb43 3.136638 1_555
Sn24 Yb45 3.136638 1_555
Sn24 Yb62 3.225097 1_555
Sn24 Yb56 3.225097 1_555
Sn24 Yb1 3.419032 1_565
Sn24 Yb58 3.450541 1_565
Sn24 Yb60 3.450541 1_555
Sn25 Yb13 3.092109 1_556
Sn25 Yb42 3.136638 1_555
Sn25 Yb44 3.136638 1_555
Sn25 Yb63 3.225097 1_555
Sn25 Yb57 3.225097 1_555
Sn25 Yb1 3.419032 1_555
Sn25 Yb59 3.450541 1_545
Sn25 Yb61 3.450541 1_555
Sn26 Yb14 3.092109 1_556
Sn26 Yb46 3.136638 1_555
Sn26 Yb41 3.136638 1_555
Sn26 Yb58 3.225097 1_555
Sn26 Yb61 3.225097 1_555
Sn26 Yb0 3.419032 1_555
Sn26 Yb56 3.450541 1_555
Sn26 Yb63 3.450541 1_455
Sn27 Yb15 3.092109 1_556
Sn27 Yb47 3.136638 1_555
Sn27 Yb40 3.136638 1_555
Sn27 Yb60 3.225097 1_555
Sn27 Yb59 3.225097 1_555
Sn27 Yb0 3.419032 1_655
Sn27 Yb62 3.450541 1_655
Sn27 Yb57 3.450541 1_555
Sn28 Yb13 3.092109 1_555
Sn28 Yb53 3.136638 1_555
Sn28 Yb51 3.136638 1_555
Sn28 Yb70 3.225097 1_555
Sn28 Yb64 3.225097 1_555
Sn28 Yb3 3.419032 1_555
Sn28 Yb66 3.450541 1_545
Sn28 Yb68 3.450541 1_555
Sn29 Yb12 3.092109 1_555
Sn29 Yb50 3.136638 1_555
Sn29 Yb52 3.136638 1_555
Sn29 Yb71 3.225097 1_555
Sn29 Yb65 3.225097 1_555
Sn29 Yb3 3.419032 1_565
Sn29 Yb67 3.450541 1_565
Sn29 Yb69 3.450541 1_555
Sn30 Yb15 3.092109 1_555
Sn30 Yb49 3.136638 1_555
Sn30 Yb54 3.136638 1_555
Sn30 Yb69 3.225097 1_555
Sn30 Yb66 3.225097 1_555
Sn30 Yb2 3.419032 1_655
Sn30 Yb71 3.450541 1_655
Sn30 Yb64 3.450541 1_555
Sn31 Yb14 3.092109 1_555
Sn31 Yb55 3.136638 1_555
Sn31 Yb48 3.136638 1_555
Sn31 Yb68 3.225097 1_555
Sn31 Yb67 3.225097 1_555
Sn31 Yb2 3.419032 1_555
Sn31 Yb70 3.450541 1_455
Sn31 Yb65 3.450541 1_555
Sn32 Yb69 3.418232 1_555
Sn32 Yb64 3.418232 1_555
Sn32 Yb65 3.418232 1_555
Sn32 Yb68 3.418232 1_555
Sn32 Yb57 3.418232 1_554
Sn32 Yb60 3.418232 1_554
Sn32 Yb61 3.418232 1_554
Sn32 Yb56 3.418232 1_554
Sn33 Yb71 3.418232 1_545
Sn33 Yb66 3.418232 1_445
Sn33 Yb70 3.418232 1_455
Sn33 Yb67 3.418232 1_555
Sn33 Yb59 3.418232 1_444
Sn33 Yb62 3.418232 1_544
Sn33 Yb58 3.418232 1_554
Sn33 Yb63 3.418232 1_454
Sn34 Yb10 3.220104 1_555
Sn34 Yb8 3.220104 1_555
Sn34 Yb21 3.315988 1_555
Sn34 Yb19 3.315988 1_555
Sn34 Yb23 3.349562 1_455
Sn34 Yb17 3.349562 1_555
Sn34 Yb29 3.564561 1_555
Sn34 Yb36 3.564561 1_555
Sn34 Yb34 3.564561 1_555
Sn34 Yb27 3.564561 1_555
Sn35 Yb10 3.220104 1_655
Sn35 Yb8 3.220104 1_655
Sn35 Yb18 3.315988 1_555
Sn35 Yb20 3.315988 1_555
Sn35 Yb16 3.349562 1_555
Sn35 Yb22 3.349562 1_655
Sn35 Yb26 3.564561 1_555
Sn35 Yb35 3.564561 1_555
Sn35 Yb28 3.564561 1_555
Sn35 Yb37 3.564561 1_555
Sn36 Yb11 3.220104 1_555
Sn36 Yb9 3.220104 1_555
Sn36 Yb22 3.315988 1_555
Sn36 Yb17 3.315988 1_555
Sn36 Yb19 3.349562 1_545
Sn36 Yb20 3.349562 1_555
Sn36 Yb30 3.564561 1_555
Sn36 Yb32 3.564561 1_555
Sn36 Yb39 3.564561 1_555
Sn36 Yb25 3.564561 1_555
Sn37 Yb11 3.220104 1_565
Sn37 Yb9 3.220104 1_565
Sn37 Yb16 3.315988 1_555
Sn37 Yb23 3.315988 1_555
Sn37 Yb21 3.349562 1_555
Sn37 Yb18 3.349562 1_565
Sn37 Yb24 3.564561 1_555
Sn37 Yb33 3.564561 1_555
Sn37 Yb31 3.564561 1_555
Sn37 Yb38 3.564561 1_555
Sn38 Yb9 3.113785 1_565
Sn38 Yb5 3.259120 1_565
Sn38 Yb27 3.325893 1_555
Sn38 Yb29 3.325893 1_555
Sn38 Yb43 3.397205 1_555
Sn38 Yb45 3.397205 1_555
Sn38 Yb31 3.405961 1_555
Sn38 Yb25 3.405961 1_565
Sn38 Yb21 3.773184 1_555
Sn38 Yb19 3.773184 1_555
Sn39 Yb9 3.113785 1_555
Sn39 Yb5 3.259120 1_555
Sn39 Yb26 3.325893 1_555
Sn39 Yb28 3.325893 1_555
Sn39 Yb44 3.397205 1_555
Sn39 Yb42 3.397205 1_555
Sn39 Yb24 3.405961 1_545
Sn39 Yb30 3.405961 1_555
Sn39 Yb18 3.773184 1_555
Sn39 Yb20 3.773184 1_555
Sn40 Yb8 3.113785 1_555
Sn40 Yb4 3.259120 1_555
Sn40 Yb30 3.325893 1_555
Sn40 Yb25 3.325893 1_555
Sn40 Yb41 3.397205 1_555
Sn40 Yb46 3.397205 1_555
Sn40 Yb27 3.405961 1_555
Sn40 Yb28 3.405961 1_455
Sn40 Yb22 3.773184 1_555
Sn40 Yb17 3.773184 1_555
Sn41 Yb8 3.113785 1_655
Sn41 Yb4 3.259120 1_655
Sn41 Yb24 3.325893 1_555
Sn41 Yb31 3.325893 1_555
Sn41 Yb47 3.397205 1_555
Sn41 Yb40 3.397205 1_555
Sn41 Yb29 3.405961 1_655
Sn41 Yb26 3.405961 1_555
Sn41 Yb23 3.773184 1_555
Sn41 Yb16 3.773184 1_555
Sn42 Yb11 3.113785 1_555
Sn42 Yb7 3.259120 1_555
Sn42 Yb35 3.325893 1_555
Sn42 Yb37 3.325893 1_555
Sn42 Yb53 3.397205 1_555
Sn42 Yb51 3.397205 1_555
Sn42 Yb33 3.405961 1_545
Sn42 Yb39 3.405961 1_555
Sn42 Yb20 3.773184 1_555
Sn42 Yb18 3.773184 1_555
Sn43 Yb11 3.113785 1_565
Sn43 Yb7 3.259120 1_565
Sn43 Yb34 3.325893 1_555
Sn43 Yb36 3.325893 1_555
Sn43 Yb50 3.397205 1_555
Sn43 Yb52 3.397205 1_555
Sn43 Yb38 3.405961 1_555
Sn43 Yb32 3.405961 1_565
Sn43 Yb21 3.773184 1_555
Sn43 Yb19 3.773184 1_555
Sn44 Yb10 3.113785 1_655
Sn44 Yb6 3.259120 1_655
Sn44 Yb33 3.325893 1_555
Sn44 Yb38 3.325893 1_555
Sn44 Yb54 3.397205 1_555
Sn44 Yb49 3.397205 1_555
Sn44 Yb36 3.405961 1_655
Sn44 Yb35 3.405961 1_555
Sn44 Yb16 3.773184 1_555
Sn44 Yb23 3.773184 1_555
Sn45 Yb10 3.113785 1_555
Sn45 Yb6 3.259120 1_555
Sn45 Yb39 3.325893 1_555
Sn45 Yb32 3.325893 1_555
Sn45 Yb48 3.397205 1_555
Sn45 Yb55 3.397205 1_555
Sn45 Yb34 3.405961 1_555
Sn45 Yb37 3.405961 1_455
Sn45 Yb17 3.773184 1_555
Sn45 Yb22 3.773184 1_555
