# generated using pymatgen
data_LaMg14Ga
_symmetry_space_group_name_H-M   'P 1'
_cell_length_a   6.58315040
_cell_length_b   6.36670600
_cell_length_c   10.35347162
_cell_angle_alpha   90.00000000
_cell_angle_beta   90.00000000
_cell_angle_gamma   118.91822375
_symmetry_Int_Tables_number   1
_chemical_formula_structural   LaMg14Ga
_chemical_formula_sum   'La1 Mg14 Ga1'
_cell_volume   379.83662716
_cell_formula_units_Z   1
loop_
 _symmetry_equiv_pos_site_id
 _symmetry_equiv_pos_as_xyz
  1  'x, y, z'
loop_
 _atom_site_type_symbol
 _atom_site_label
 _atom_site_symmetry_multiplicity
 _atom_site_fract_x
 _atom_site_fract_y
 _atom_site_fract_z
 _atom_site_occupancy
  La  La0  1  0.14424724  0.32212312  0.12500000  1
  Mg  Mg0  1  0.16623923  0.33311912  0.62500000  1
  Mg  Mg1  1  0.15953589  0.82976744  0.62500000  1
  Mg  Mg2  1  0.64030152  0.31268547  0.12500000  1
  Mg  Mg3  1  0.66665767  0.33915825  0.62500000  1
  Mg  Mg4  1  0.64030152  0.82761505  0.12500000  1
  Mg  Mg5  1  0.66665767  0.82749842  0.62500000  1
  Mg  Mg6  1  0.33929672  0.16613270  0.38285022  1
  Mg  Mg7  1  0.33929672  0.16613270  0.86714978  1
  Mg  Mg8  1  0.33929672  0.67316501  0.38285022  1
  Mg  Mg9  1  0.33929672  0.67316501  0.86714978  1
  Mg  Mg10  1  0.82810310  0.16405205  0.38798103  1
  Mg  Mg11  1  0.82810310  0.16405205  0.86201897  1
  Mg  Mg12  1  0.84915905  0.67458002  0.35611181  1
  Mg  Mg13  1  0.84915905  0.67458002  0.89388819  1
  Ga  Ga0  1  0.20434810  0.85217355  0.12500000  1
loop_
_geom_bond_atom_site_label_1
_geom_bond_atom_site_label_2
_geom_bond_distance
_geom_bond_site_symmetry_2
La0 Mg11 3.275991 1_454
La0 Mg10 3.275991 1_455
La0 Mg4 3.288915 1_445
La0 Mg2 3.288915 1_455
La0 Mg4 3.295075 1_555
La0 Mg2 3.295075 1_555
La0 Mg6 3.315933 1_555
La0 Mg7 3.315933 1_554
La0 Mg9 3.315939 1_554
La0 Mg8 3.315939 1_555
Mg0 Mg10 3.133432 1_455
Mg0 Mg11 3.133432 1_455
Mg0 Mg6 3.144060 1_555
Mg0 Mg7 3.144060 1_555
Mg0 Mg8 3.144066 1_555
Mg0 Mg9 3.144066 1_555
Mg0 Mg1 3.183587 1_555
Mg0 Mg1 3.183587 1_545
Mg0 Mg5 3.275910 1_555
Mg0 Mg3 3.275910 1_555
Mg0 Mg5 3.307584 1_445
Mg0 Mg3 3.307584 1_455
Mg1 Mg8 3.133866 1_555
Mg1 Mg9 3.133866 1_555
Mg1 Mg7 3.133872 1_565
Mg1 Mg6 3.133872 1_565
Mg1 Mg3 3.237730 1_455
Mg1 Mg5 3.237731 1_455
Mg1 Mg13 3.308916 1_455
Mg1 Mg12 3.308916 1_455
Mg1 Mg3 3.345468 1_565
Mg1 Mg5 3.345468 1_555
Mg2 Mg4 3.088301 1_545
Mg2 Mg7 3.183718 1_554
Mg2 Mg6 3.183718 1_555
Mg2 Mg4 3.278405 1_555
Mg3 Mg5 3.109118 1_555
Mg3 Mg6 3.138052 1_555
Mg3 Mg7 3.138052 1_555
Mg3 Mg5 3.257588 1_545
Mg4 Mg9 3.183718 1_554
Mg4 Mg8 3.183718 1_555
Mg5 Mg9 3.138052 1_555
Mg5 Mg8 3.138052 1_555
Mg6 Mg8 3.138580 1_545
Mg6 Mg8 3.228126 1_555
Mg7 Mg9 3.138580 1_545
Mg7 Mg9 3.228126 1_555
Mg10 Mg3 3.088748 1_555
Mg10 Mg5 3.088755 1_545
Mg10 Mg12 3.202706 1_555
Mg10 Mg12 3.202707 1_545
Mg10 Mg8 3.224750 1_545
Mg10 Mg6 3.224750 1_555
Mg10 Mg2 3.311937 1_555
Mg10 Mg4 3.311943 1_545
Mg10 Mg8 3.359299 1_655
Mg10 Mg6 3.359299 1_655
Mg11 Mg3 3.088748 1_555
Mg11 Mg5 3.088755 1_545
Mg11 Mg13 3.202706 1_555
Mg11 Mg13 3.202707 1_545
Mg11 Mg9 3.224750 1_545
Mg11 Mg7 3.224750 1_555
Mg11 Mg2 3.311937 1_556
Mg11 Mg4 3.311943 1_546
Mg11 Mg9 3.359299 1_655
Mg11 Mg7 3.359299 1_655
Mg12 Mg4 3.140209 1_555
Mg12 Mg2 3.140216 1_555
Mg12 Mg6 3.242854 1_665
Mg12 Mg8 3.242854 1_655
Mg12 Mg5 3.357499 1_555
Mg12 Mg3 3.357505 1_555
Mg12 Mg6 3.363565 1_555
Mg12 Mg8 3.363565 1_555
Mg13 Mg4 3.140209 1_556
Mg13 Mg2 3.140216 1_556
Mg13 Mg7 3.242854 1_665
Mg13 Mg9 3.242854 1_655
Mg13 Mg5 3.357499 1_555
Mg13 Mg3 3.357505 1_555
Mg13 Mg7 3.363565 1_555
Mg13 Mg9 3.363565 1_555
Ga0 Mg2 2.948732 1_565
Ga0 Mg4 2.948733 1_555
Ga0 Mg12 3.148737 1_455
Ga0 Mg13 3.148737 1_454
Ga0 Mg8 3.192858 1_555
Ga0 Mg9 3.192858 1_554
Ga0 Mg7 3.192864 1_564
Ga0 Mg6 3.192864 1_565
Ga0 La0 3.202136 1_555
Ga0 La0 3.202136 1_565
