# generated using pymatgen
data_Sr2Cu2SnO7
_symmetry_space_group_name_H-M   'P 1'
_cell_length_a   13.61171026
_cell_length_b   13.61171026
_cell_length_c   13.61171026
_cell_angle_alpha   158.08908046
_cell_angle_beta   157.97838559
_cell_angle_gamma   31.26151166
_symmetry_Int_Tables_number   1
_chemical_formula_structural   Sr2Cu2SnO7
_chemical_formula_sum   'Sr4 Cu4 Sn2 O14'
_cell_volume   352.62326355
_cell_formula_units_Z   2
loop_
 _symmetry_equiv_pos_site_id
 _symmetry_equiv_pos_as_xyz
  1  'x, y, z'
loop_
 _atom_site_type_symbol
 _atom_site_label
 _atom_site_symmetry_multiplicity
 _atom_site_fract_x
 _atom_site_fract_y
 _atom_site_fract_z
 _atom_site_occupancy
  Sr  Sr0  1  0.63679000  0.61923100  0.97373100  1
  Sr  Sr1  1  0.36321000  0.33694000  0.98244100  1
  Sr  Sr2  1  0.14550000  0.11923100  0.98244100  1
  Sr  Sr3  1  0.85450000  0.83694000  0.97373100  1
  Cu  Cu0  1  0.56152100  0.03829000  0.47978300  1
  Cu  Cu1  1  0.43847900  0.91826300  0.47676900  1
  Cu  Cu2  1  0.05850700  0.53829000  0.47676900  1
  Cu  Cu3  1  0.94149300  0.41826300  0.47978300  1
  Sn  Sn0  1  0.20540300  0.77692600  0.48232800  1
  Sn  Sn1  1  0.79459700  0.27692600  0.57152300  1
  O  O0  1  0.81998200  0.67425800  0.99424000  1
  O  O1  1  0.18001800  0.17425800  0.85427500  1
  O  O2  1  0.32587000  0.30372500  0.47951300  1
  O  O3  1  0.67413000  0.15364300  0.97785500  1
  O  O4  1  0.32421300  0.80372500  0.97785500  1
  O  O5  1  0.67578700  0.65364300  0.47951300  1
  O  O6  1  0.82582800  0.80382100  0.47751400  1
  O  O7  1  0.17417200  0.65168600  0.97799300  1
  O  O8  1  0.82630700  0.30382100  0.97799300  1
  O  O9  1  0.17369300  0.15168600  0.47751400  1
  O  O10  1  0.20418900  0.63922800  0.48708700  1
  O  O11  1  0.79581100  0.28289700  0.43503800  1
  O  O12  1  0.65214100  0.13922800  0.43503800  1
  O  O13  1  0.34785900  0.78289700  0.48708700  1
loop_
_geom_bond_atom_site_label_1
_geom_bond_atom_site_label_2
_geom_bond_distance
_geom_bond_site_symmetry_2
Cu0 O8 1.875016 1_555
Cu0 O6 1.877029 1_545
Cu0 O2 1.879488 1_555
Cu0 O4 1.882581 1_544
Cu1 O9 1.875016 1_565
Cu1 O7 1.877031 1_554
Cu1 O3 1.879491 1_565
Cu1 O5 1.882584 1_555
Cu2 O6 1.875016 1_455
Cu2 O8 1.877029 1_454
Cu2 O4 1.879491 1_555
Cu2 O2 1.882579 1_555
Cu3 O7 1.875019 1_655
Cu3 O9 1.877035 1_655
Cu3 O5 1.879494 1_555
Cu3 O3 1.882581 1_554
O0 Sn1 2.059909 1_555
O0 Sn0 2.073199 1_656
O0 Sr3 2.893289 1_555
O0 Sr0 2.893303 1_555
O1 Sn0 2.059909 1_545
O1 Sn1 2.073201 1_455
O1 Sr1 2.893277 1_555
O1 Sr2 2.893316 1_555
O2 Sr0 2.507721 1_555
O2 Sr2 2.515292 1_554
O3 Sr1 2.507728 1_555
O3 Sr3 2.515304 1_545
O4 Sr2 2.507715 1_565
O4 Sr0 2.515280 1_555
O5 Sr3 2.507721 1_555
O5 Sr1 2.515292 1_554
O6 Sr0 2.514975 1_554
O6 Sr2 2.518052 1_665
O7 Sr1 2.514986 1_555
O7 Sr3 2.518058 1_455
O8 Sr2 2.514975 1_655
O8 Sr0 2.518052 1_555
O9 Sr3 2.514983 1_444
O9 Sr1 2.518061 1_555
O10 Sn0 1.948772 1_555
O10 Sr0 2.629087 1_555
O10 Sr2 2.683008 1_554
O10 Sr2 2.847779 1_565
O10 Sr0 2.924840 1_454
O11 Sn1 1.948760 1_555
O11 Sr1 2.629080 1_554
O11 Sr3 2.683001 1_544
O11 Sr3 2.847777 1_555
O11 Sr1 2.924838 1_655
O12 Sn1 1.948748 1_555
O12 Sr2 2.629089 1_554
O12 Sr0 2.683010 1_544
O12 Sr0 2.847786 1_555
O12 Sr2 2.924846 1_655
O13 Sn0 1.948735 1_555
O13 Sr3 2.629087 1_555
O13 Sr1 2.683008 1_554
O13 Sr1 2.847779 1_565
O13 Sr3 2.924840 1_454
