# generated using pymatgen
data_LaEr4Ge3
_symmetry_space_group_name_H-M   'P 1'
_cell_length_a   8.52677322
_cell_length_b   8.52677322
_cell_length_c   6.49688300
_cell_angle_alpha   90.00000000
_cell_angle_beta   90.00000000
_cell_angle_gamma   119.99999398
_symmetry_Int_Tables_number   1
_chemical_formula_structural   LaEr4Ge3
_chemical_formula_sum   'La2 Er8 Ge6'
_cell_volume   409.07706306
_cell_formula_units_Z   2
loop_
 _symmetry_equiv_pos_site_id
 _symmetry_equiv_pos_as_xyz
  1  'x, y, z'
loop_
 _atom_site_type_symbol
 _atom_site_label
 _atom_site_symmetry_multiplicity
 _atom_site_fract_x
 _atom_site_fract_y
 _atom_site_fract_z
 _atom_site_occupancy
  La  La0  1  0.33333300  0.66666700  0.50000000  1
  La  La1  1  0.66666700  0.33333300  0.50000000  1
  Er  Er0  1  0.66666700  0.33333300  0.00000000  1
  Er  Er1  1  0.33333300  0.66666700  0.00000000  1
  Er  Er2  1  0.00000000  0.75861800  0.24323700  1
  Er  Er3  1  0.24138200  0.24138200  0.24323700  1
  Er  Er4  1  0.75861800  0.00000000  0.24323700  1
  Er  Er5  1  0.00000000  0.24138200  0.75676300  1
  Er  Er6  1  0.75861800  0.75861800  0.75676300  1
  Er  Er7  1  0.24138200  0.00000000  0.75676300  1
  Ge  Ge0  1  0.00000000  0.38929200  0.23271100  1
  Ge  Ge1  1  0.61070800  0.61070800  0.23271100  1
  Ge  Ge2  1  0.38929200  0.00000000  0.23271100  1
  Ge  Ge3  1  0.00000000  0.61070800  0.76728900  1
  Ge  Ge4  1  0.38929200  0.38929200  0.76728900  1
  Ge  Ge5  1  0.61070800  0.00000000  0.76728900  1
loop_
_geom_bond_atom_site_label_1
_geom_bond_atom_site_label_2
_geom_bond_distance
_geom_bond_site_symmetry_2
Er0 Ge5 3.039035 1_554
Er0 Ge0 3.039035 1_655
Er0 Ge3 3.039038 1_654
Er0 Ge2 3.039038 1_555
Er0 Ge1 3.039042 1_555
Er0 Ge4 3.039042 1_554
Er1 Ge3 3.039035 1_554
Er1 Ge2 3.039035 1_565
Er1 Ge5 3.039038 1_564
Er1 Ge0 3.039038 1_555
Er1 Ge1 3.039042 1_555
Er1 Ge4 3.039042 1_554
Er2 Ge1 2.902985 1_455
Er2 Ge2 2.902985 1_565
Er2 Ge0 3.149901 1_555
Er2 Ge3 3.339488 1_554
Er2 Ge3 3.630789 1_555
Er3 Ge2 2.902985 1_555
Er3 Ge0 2.902985 1_555
Er3 Ge1 3.149902 1_555
Er3 Ge4 3.339488 1_554
Er3 Ge4 3.630789 1_555
Er4 Ge1 2.902985 1_545
Er4 Ge0 2.902985 1_655
Er4 Ge2 3.149901 1_555
Er4 Ge5 3.339488 1_554
Er4 Ge5 3.630789 1_555
Er5 Ge4 2.902985 1_555
Er5 Ge5 2.902985 1_455
Er5 Ge3 3.149901 1_555
Er5 Ge0 3.339488 1_556
Er5 Ge0 3.630789 1_555
Er6 Ge3 2.902985 1_655
Er6 Ge5 2.902985 1_565
Er6 Ge4 3.149902 1_555
Er6 Ge1 3.339488 1_556
Er6 Ge1 3.630789 1_555
Er7 Ge4 2.902985 1_555
Er7 Ge3 2.902985 1_545
Er7 Ge5 3.149901 1_555
Er7 Ge2 3.339488 1_556
Er7 Ge2 3.630789 1_555
Ge0 La1 3.156817 1_455
Ge0 La0 3.156820 1_555
Ge1 La0 3.156824 1_555
Ge1 La1 3.156824 1_555
Ge2 La0 3.156817 1_545
Ge2 La1 3.156820 1_555
Ge3 La0 3.156817 1_555
Ge3 La1 3.156820 1_455
Ge4 La1 3.156824 1_555
Ge4 La0 3.156824 1_555
Ge5 La1 3.156817 1_555
Ge5 La0 3.156820 1_545
