# generated using pymatgen
data_CrN3O4
_symmetry_space_group_name_H-M   'P 1'
_cell_length_a   7.93610000
_cell_length_b   9.76319200
_cell_length_c   24.37750100
_cell_angle_alpha   90.00000000
_cell_angle_beta   90.00000000
_cell_angle_gamma   90.00000000
_symmetry_Int_Tables_number   1
_chemical_formula_structural   CrN3O4
_chemical_formula_sum   'Cr12 N36 O48'
_cell_volume   1888.80943991
_cell_formula_units_Z   12
loop_
 _symmetry_equiv_pos_site_id
 _symmetry_equiv_pos_as_xyz
  1  'x, y, z'
loop_
 _atom_site_type_symbol
 _atom_site_label
 _atom_site_symmetry_multiplicity
 _atom_site_fract_x
 _atom_site_fract_y
 _atom_site_fract_z
 _atom_site_occupancy
  Cr  Cr0  1  0.37205200  0.69026800  0.08493400  1
  Cr  Cr1  1  0.12794800  0.19026800  0.41506600  1
  Cr  Cr2  1  0.62794800  0.30973200  0.58493400  1
  Cr  Cr3  1  0.87205200  0.80973200  0.91506600  1
  Cr  Cr4  1  0.62794800  0.30973200  0.91506600  1
  Cr  Cr5  1  0.87205200  0.80973200  0.58493400  1
  Cr  Cr6  1  0.37205200  0.69026800  0.41506600  1
  Cr  Cr7  1  0.12794800  0.19026800  0.08493400  1
  Cr  Cr8  1  0.81852700  0.63693000  0.25000000  1
  Cr  Cr9  1  0.68147300  0.13693000  0.25000000  1
  Cr  Cr10  1  0.18147300  0.36307000  0.75000000  1
  Cr  Cr11  1  0.31852700  0.86307000  0.75000000  1
  N  N0  1  0.46862500  0.52588000  0.08533500  1
  N  N1  1  0.03137500  0.02588000  0.41466500  1
  N  N2  1  0.53137500  0.47412000  0.58533500  1
  N  N3  1  0.96862500  0.97412000  0.91466500  1
  N  N4  1  0.53137500  0.47412000  0.91466500  1
  N  N5  1  0.96862500  0.97412000  0.58533500  1
  N  N6  1  0.46862500  0.52588000  0.41466500  1
  N  N7  1  0.03137500  0.02588000  0.08533500  1
  N  N8  1  0.15162500  0.62853000  0.07618500  1
  N  N9  1  0.34837500  0.12853000  0.42381500  1
  N  N10  1  0.84837500  0.37147000  0.57618500  1
  N  N11  1  0.65162500  0.87147000  0.92381500  1
  N  N12  1  0.84837500  0.37147000  0.92381500  1
  N  N13  1  0.65162500  0.87147000  0.57618500  1
  N  N14  1  0.15162500  0.62853000  0.42381500  1
  N  N15  1  0.34837500  0.12853000  0.07618500  1
  N  N16  1  0.57064800  0.79210600  0.09304600  1
  N  N17  1  0.92935200  0.29210600  0.40695400  1
  N  N18  1  0.42935200  0.20789400  0.59304600  1
  N  N19  1  0.07064800  0.70789400  0.90695400  1
  N  N20  1  0.42935200  0.20789400  0.90695400  1
  N  N21  1  0.07064800  0.70789400  0.59304600  1
  N  N22  1  0.57064800  0.79210600  0.40695400  1
  N  N23  1  0.92935200  0.29210600  0.09304600  1
  N  N24  1  0.97260300  0.77905900  0.25000000  1
  N  N25  1  0.52739700  0.27905900  0.25000000  1
  N  N26  1  0.02739700  0.22094100  0.75000000  1
  N  N27  1  0.47260300  0.72094100  0.75000000  1
  N  N28  1  0.65304500  0.72333500  0.25000000  1
  N  N29  1  0.84695500  0.22333500  0.25000000  1
  N  N30  1  0.34695500  0.27666500  0.75000000  1
  N  N31  1  0.15304500  0.77666500  0.75000000  1
  N  N32  1  0.11031600  0.47865000  0.25000000  1
  N  N33  1  0.38968400  0.97865000  0.25000000  1
  N  N34  1  0.88968400  0.52135000  0.75000000  1
  N  N35  1  0.61031600  0.02135000  0.75000000  1
  O  O0  1  0.39584800  0.70230800  0.00102200  1
  O  O1  1  0.10415200  0.20230800  0.49897800  1
  O  O2  1  0.60415200  0.29769200  0.50102200  1
  O  O3  1  0.89584800  0.79769200  0.99897800  1
  O  O4  1  0.60415200  0.29769200  0.99897800  1
  O  O5  1  0.89584800  0.79769200  0.50102200  1
  O  O6  1  0.39584800  0.70230800  0.49897800  1
  O  O7  1  0.10415200  0.20230800  0.00102200  1
  O  O8  1  0.34473000  0.68201900  0.16870200  1
  O  O9  1  0.15527000  0.18201900  0.33129800  1
  O  O10  1  0.65527000  0.31798100  0.66870200  1
  O  O11  1  0.84473000  0.81798100  0.83129800  1
  O  O12  1  0.65527000  0.31798100  0.83129800  1
  O  O13  1  0.84473000  0.81798100  0.66870200  1
  O  O14  1  0.34473000  0.68201900  0.33129800  1
  O  O15  1  0.15527000  0.18201900  0.16870200  1
  O  O16  1  0.32452300  0.81666700  0.01600600  1
  O  O17  1  0.17547700  0.31666700  0.48399400  1
  O  O18  1  0.67547700  0.18333300  0.51600600  1
  O  O19  1  0.82452300  0.68333300  0.98399400  1
  O  O20  1  0.67547700  0.18333300  0.98399400  1
  O  O21  1  0.82452300  0.68333300  0.51600600  1
  O  O22  1  0.32452300  0.81666700  0.48399400  1
  O  O23  1  0.17547700  0.31666700  0.01600600  1
  O  O24  1  0.28223600  0.79970000  0.15357000  1
  O  O25  1  0.21776400  0.29970000  0.34643000  1
  O  O26  1  0.71776400  0.20030000  0.65357000  1
  O  O27  1  0.78223600  0.70030000  0.84643000  1
  O  O28  1  0.71776400  0.20030000  0.84643000  1
  O  O29  1  0.78223600  0.70030000  0.65357000  1
  O  O30  1  0.28223600  0.79970000  0.34643000  1
  O  O31  1  0.21776400  0.29970000  0.15357000  1
  O  O32  1  0.87208700  0.61255900  0.17061100  1
  O  O33  1  0.62791300  0.11255900  0.32938900  1
  O  O34  1  0.12791300  0.38744100  0.67061100  1
  O  O35  1  0.37208700  0.88744100  0.82938900  1
  O  O36  1  0.12791300  0.38744100  0.82938900  1
  O  O37  1  0.37208700  0.88744100  0.67061100  1
  O  O38  1  0.87208700  0.61255900  0.32938900  1
  O  O39  1  0.62791300  0.11255900  0.17061100  1
  O  O40  1  0.78986000  0.50400000  0.18844100  1
  O  O41  1  0.71014000  0.00400000  0.31155900  1
  O  O42  1  0.21014000  0.49600000  0.68844100  1
  O  O43  1  0.28986000  0.99600000  0.81155900  1
  O  O44  1  0.21014000  0.49600000  0.81155900  1
  O  O45  1  0.28986000  0.99600000  0.68844100  1
  O  O46  1  0.78986000  0.50400000  0.31155900  1
  O  O47  1  0.71014000  0.00400000  0.18844100  1
loop_
_geom_bond_atom_site_label_1
_geom_bond_atom_site_label_2
_geom_bond_distance
_geom_bond_site_symmetry_2
Cr0 N0 1.778582 1_555
Cr0 N8 1.862516 1_555
Cr0 N16 1.873950 1_555
Cr0 O8 2.055113 1_555
Cr0 O0 2.057624 1_555
Cr0 O24 2.109282 1_555
Cr0 O16 2.118621 1_555
Cr1 N1 1.778582 1_555
Cr1 N9 1.862516 1_555
Cr1 N17 1.873950 1_455
Cr1 O9 2.055113 1_555
Cr1 O1 2.057624 1_555
Cr1 O25 2.109282 1_555
Cr1 O17 2.118621 1_555
Cr2 N2 1.778582 1_555
Cr2 N10 1.862516 1_555
Cr2 N18 1.873950 1_555
Cr2 O10 2.055113 1_555
Cr2 O2 2.057624 1_555
Cr2 O26 2.109282 1_555
Cr2 O18 2.118621 1_555
Cr3 N3 1.778582 1_555
Cr3 N11 1.862516 1_555
Cr3 N19 1.873950 1_655
Cr3 O11 2.055113 1_555
Cr3 O3 2.057624 1_555
Cr3 O27 2.109282 1_555
Cr3 O19 2.118621 1_555
Cr4 N4 1.778582 1_555
Cr4 N12 1.862516 1_555
Cr4 N20 1.873950 1_555
Cr4 O12 2.055113 1_555
Cr4 O4 2.057624 1_555
Cr4 O28 2.109282 1_555
Cr4 O20 2.118621 1_555
Cr5 N5 1.778582 1_555
Cr5 N13 1.862516 1_555
Cr5 N21 1.873950 1_655
Cr5 O13 2.055113 1_555
Cr5 O5 2.057624 1_555
Cr5 O29 2.109282 1_555
Cr5 O21 2.118621 1_555
Cr6 N6 1.778582 1_555
Cr6 N14 1.862516 1_555
Cr6 N22 1.873950 1_555
Cr6 O14 2.055113 1_555
Cr6 O6 2.057624 1_555
Cr6 O30 2.109282 1_555
Cr6 O22 2.118621 1_555
Cr7 N7 1.778582 1_555
Cr7 N15 1.862516 1_555
Cr7 N23 1.873950 1_455
Cr7 O15 2.055113 1_555
Cr7 O7 2.057624 1_555
Cr7 O31 2.109282 1_555
Cr7 O23 2.118621 1_555
Cr8 N28 1.560881 1_555
Cr8 N24 1.849506 1_555
Cr8 O38 1.995669 1_555
Cr8 O32 1.995669 1_555
Cr8 O46 1.997013 1_555
Cr8 O40 1.997013 1_555
Cr8 N32 2.783940 1_655
Cr9 N29 1.560881 1_555
Cr9 N25 1.849506 1_555
Cr9 O39 1.995669 1_555
Cr9 O33 1.995669 1_555
Cr9 O41 1.997013 1_555
Cr9 O47 1.997013 1_555
Cr9 N33 2.783940 1_545
Cr10 N30 1.560881 1_555
Cr10 N26 1.849506 1_555
Cr10 O36 1.995669 1_555
Cr10 O34 1.995669 1_555
Cr10 O44 1.997013 1_555
Cr10 O42 1.997013 1_555
Cr10 N34 2.783940 1_455
Cr11 N31 1.560881 1_555
Cr11 N27 1.849506 1_555
Cr11 O35 1.995669 1_555
Cr11 O37 1.995669 1_555
Cr11 O43 1.997013 1_555
Cr11 O45 1.997013 1_555
Cr11 N35 2.783940 1_565
O0 O16 1.304002 1_555
O1 O17 1.304002 1_555
O10 O26 1.304652 1_555
O11 O27 1.304652 1_555
O12 O28 1.304652 1_555
O13 O29 1.304652 1_555
O14 O30 1.304652 1_555
O15 O31 1.304652 1_555
O18 O2 1.304002 1_555
O19 O3 1.304002 1_555
O20 O4 1.304002 1_555
O21 O5 1.304002 1_555
O22 O6 1.304002 1_555
O23 O7 1.304002 1_555
O24 O8 1.304652 1_555
O25 O9 1.304652 1_555
O32 O40 1.318374 1_555
O33 O41 1.318374 1_555
O34 O42 1.318374 1_555
O35 O43 1.318374 1_555
O36 O44 1.318374 1_555
O37 O45 1.318374 1_555
O38 O46 1.318374 1_555
O39 O47 1.318374 1_555
