# generated using pymatgen
data_TbPtF7
_symmetry_space_group_name_H-M   'P 1'
_cell_length_a   5.44710132
_cell_length_b   8.82234043
_cell_length_c   11.89371470
_cell_angle_alpha   62.11817928
_cell_angle_beta   90.00000000
_cell_angle_gamma   90.00000000
_symmetry_Int_Tables_number   1
_chemical_formula_structural   TbPtF7
_chemical_formula_sum   'Tb4 Pt4 F28'
_cell_volume   505.21568089
_cell_formula_units_Z   4
loop_
 _symmetry_equiv_pos_site_id
 _symmetry_equiv_pos_as_xyz
  1  'x, y, z'
loop_
 _atom_site_type_symbol
 _atom_site_label
 _atom_site_symmetry_multiplicity
 _atom_site_fract_x
 _atom_site_fract_y
 _atom_site_fract_z
 _atom_site_occupancy
  Tb  Tb0  1  0.26076517  0.81329791  0.26454496  1
  Tb  Tb1  1  0.73923483  0.18670209  0.73545504  1
  Tb  Tb2  1  0.76076517  0.18670209  0.23545504  1
  Tb  Tb3  1  0.23923483  0.81329791  0.76454496  1
  Pt  Pt0  1  0.75727587  0.72776411  0.04292806  1
  Pt  Pt1  1  0.24272413  0.27223589  0.95707194  1
  Pt  Pt2  1  0.25727587  0.27223589  0.45707194  1
  Pt  Pt3  1  0.74272413  0.72776411  0.54292806  1
  F  F0  1  0.93472199  0.70562010  0.41345027  1
  F  F1  1  0.06527801  0.29437990  0.58654973  1
  F  F2  1  0.43472199  0.29437990  0.08654973  1
  F  F3  1  0.56527801  0.70562010  0.91345027  1
  F  F4  1  0.45946202  0.72527751  0.13366756  1
  F  F5  1  0.54053798  0.27472249  0.86633244  1
  F  F6  1  0.95946202  0.27472249  0.36633244  1
  F  F7  1  0.04053798  0.72527751  0.63366756  1
  F  F8  1  0.94248417  0.74377601  0.17672030  1
  F  F9  1  0.05751583  0.25622399  0.82327970  1
  F  F10  1  0.44248417  0.25622399  0.32327970  1
  F  F11  1  0.55751583  0.74377601  0.67672030  1
  F  F12  1  0.77102212  0.47935580  0.14123990  1
  F  F13  1  0.22897788  0.52064420  0.85876010  1
  F  F14  1  0.27102212  0.52064420  0.35876010  1
  F  F15  1  0.72897788  0.47935580  0.64123990  1
  F  F16  1  0.93739978  0.27835136  0.04050494  1
  F  F17  1  0.06260022  0.72164864  0.95949506  1
  F  F18  1  0.43739978  0.72164864  0.45949506  1
  F  F19  1  0.56260022  0.27835136  0.54050494  1
  F  F20  1  0.74350967  0.97660991  0.44923351  1
  F  F21  1  0.25649033  0.02339009  0.55076649  1
  F  F22  1  0.24350967  0.02339009  0.05076649  1
  F  F23  1  0.75649033  0.97660991  0.94923351  1
  F  F24  1  0.59718778  0.96480973  0.23115145  1
  F  F25  1  0.40281222  0.03519027  0.76884855  1
  F  F26  1  0.09718778  0.03519027  0.26884855  1
  F  F27  1  0.90281222  0.96480973  0.73115145  1
loop_
_geom_bond_atom_site_label_1
_geom_bond_atom_site_label_2
_geom_bond_distance
_geom_bond_site_symmetry_2
F0 Pt3 1.945464 1_555
F0 Tb0 2.370565 1_655
F1 Pt2 1.945464 1_555
F1 Tb1 2.370565 1_455
F2 Pt1 1.945464 1_554
F2 Tb2 2.370565 1_555
F3 Pt0 1.945464 1_556
F3 Tb3 2.370565 1_555
F4 Pt0 1.942853 1_555
F4 Tb0 2.308264 1_555
F5 Pt1 1.942853 1_555
F5 Tb1 2.308264 1_555
F6 Pt2 1.942853 1_655
F6 Tb2 2.308264 1_555
F7 Pt3 1.942853 1_455
F7 Tb3 2.308264 1_555
F8 Pt0 1.944266 1_555
F8 Tb0 2.252171 1_655
F9 Pt1 1.944266 1_555
F9 Tb1 2.252171 1_455
F10 Pt2 1.944266 1_555
F10 Tb2 2.252171 1_555
F11 Pt3 1.944266 1_555
F11 Tb3 2.252171 1_555
F12 Pt0 1.943954 1_555
F12 Tb2 2.284505 1_555
F13 Pt1 1.943954 1_555
F13 Tb3 2.284505 1_555
F14 Pt2 1.943954 1_555
F14 Tb0 2.284505 1_555
F15 Pt3 1.943954 1_555
F15 Tb1 2.284505 1_555
F16 Pt1 1.950311 1_654
F16 Tb2 2.280852 1_555
F17 Pt0 1.950311 1_456
F17 Tb3 2.280852 1_555
F18 Pt3 1.950311 1_555
F18 Tb0 2.280852 1_555
F19 Pt2 1.950311 1_555
F19 Tb1 2.280852 1_555
F20 Pt3 1.942532 1_555
F20 Tb2 2.345505 1_565
F21 Pt2 1.942532 1_555
F21 Tb3 2.345505 1_545
F22 Pt1 1.942532 1_554
F22 Tb0 2.345505 1_545
F23 Pt0 1.942532 1_556
F23 Tb1 2.345505 1_565
F24 Tb2 2.173131 1_565
F24 Tb0 2.192281 1_555
F25 Tb3 2.173131 1_545
F25 Tb1 2.192281 1_555
F26 Tb0 2.173131 1_545
F26 Tb2 2.192281 1_455
F27 Tb1 2.173131 1_565
F27 Tb3 2.192281 1_655
