# generated using pymatgen
data_K2LiSe2
_symmetry_space_group_name_H-M   'P 1'
_cell_length_a   3.42747800
_cell_length_b   3.42747800
_cell_length_c   16.15424100
_cell_angle_alpha   90.00000000
_cell_angle_beta   90.00000000
_cell_angle_gamma   90.00000000
_symmetry_Int_Tables_number   1
_chemical_formula_structural   K2LiSe2
_chemical_formula_sum   'K2 Li1 Se2'
_cell_volume   189.77364946
_cell_formula_units_Z   1
loop_
 _symmetry_equiv_pos_site_id
 _symmetry_equiv_pos_as_xyz
  1  'x, y, z'
loop_
 _atom_site_type_symbol
 _atom_site_label
 _atom_site_symmetry_multiplicity
 _atom_site_fract_x
 _atom_site_fract_y
 _atom_site_fract_z
 _atom_site_occupancy
  K  K0  1  0.50000000  0.50000000  0.67039800  1
  K  K1  1  0.50000000  0.50000000  0.32960200  1
  Li  Li0  1  0.50000000  0.50000000  0.00000000  1
  Se  Se0  1  0.50000000  0.50000000  0.14680300  1
  Se  Se1  1  0.50000000  0.50000000  0.85319700  1
loop_
_geom_bond_atom_site_label_1
_geom_bond_atom_site_label_2
_geom_bond_distance
_geom_bond_site_symmetry_2
K0 Se1 2.952979 1_555
K1 Se0 2.952979 1_555
Li0 Se0 2.371491 1_555
Li0 Se1 2.371491 1_554
