# generated using pymatgen
data_BaLa3
_symmetry_space_group_name_H-M   'P 1'
_cell_length_a   7.94373671
_cell_length_b   7.94373671
_cell_length_c   6.18155300
_cell_angle_alpha   90.00000000
_cell_angle_beta   90.00000000
_cell_angle_gamma   120.00000594
_symmetry_Int_Tables_number   1
_chemical_formula_structural   BaLa3
_chemical_formula_sum   'Ba2 La6'
_cell_volume   337.81418809
_cell_formula_units_Z   2
loop_
 _symmetry_equiv_pos_site_id
 _symmetry_equiv_pos_as_xyz
  1  'x, y, z'
loop_
 _atom_site_type_symbol
 _atom_site_label
 _atom_site_symmetry_multiplicity
 _atom_site_fract_x
 _atom_site_fract_y
 _atom_site_fract_z
 _atom_site_occupancy
  Ba  Ba0  1  0.33333300  0.66666700  0.75000000  1
  Ba  Ba1  1  0.66666700  0.33333300  0.25000000  1
  La  La0  1  0.15612100  0.31224300  0.25000000  1
  La  La1  1  0.68775700  0.84387900  0.25000000  1
  La  La2  1  0.15612100  0.84387900  0.25000000  1
  La  La3  1  0.84387900  0.68775700  0.75000000  1
  La  La4  1  0.31224300  0.15612100  0.75000000  1
  La  La5  1  0.84387900  0.15612100  0.75000000  1
loop_
_geom_bond_atom_site_label_1
_geom_bond_atom_site_label_2
_geom_bond_distance
_geom_bond_site_symmetry_2
Ba0 La1 3.936746 1_556
Ba0 La1 3.936746 1_555
Ba0 La0 3.936746 1_556
Ba0 La0 3.936746 1_555
Ba0 La2 3.936746 1_555
Ba0 La2 3.936746 1_556
Ba0 La3 3.974510 1_455
Ba0 La4 3.974510 1_565
Ba0 La5 3.974518 1_455
Ba0 La5 3.974518 1_565
Ba0 La4 3.974525 1_555
Ba0 La3 3.974525 1_555
Ba1 La4 3.936746 1_555
Ba1 La4 3.936746 1_554
Ba1 La3 3.936746 1_554
Ba1 La3 3.936746 1_555
Ba1 La5 3.936746 1_555
Ba1 La5 3.936746 1_554
Ba1 La1 3.974510 1_545
Ba1 La0 3.974510 1_655
Ba1 La2 3.974518 1_545
Ba1 La2 3.974518 1_655
Ba1 La0 3.974525 1_555
Ba1 La1 3.974525 1_555
La0 La1 3.720560 1_445
La0 La2 3.720560 1_545
La0 La5 3.763917 1_455
La0 La5 3.763917 1_454
La0 La4 3.763925 1_555
La0 La4 3.763925 1_554
La0 La1 4.223176 1_555
La0 La2 4.223176 1_555
La1 La2 3.720560 1_655
La1 La5 3.763917 1_565
La1 La5 3.763917 1_564
La1 La3 3.763925 1_555
La1 La3 3.763925 1_554
La1 La2 4.223176 1_555
La2 La4 3.763917 1_565
La2 La4 3.763917 1_564
La2 La3 3.763917 1_455
La2 La3 3.763917 1_454
La3 La4 3.720560 1_665
La3 La5 3.720560 1_565
La3 La4 4.223176 1_555
La3 La5 4.223176 1_555
La4 La5 3.720560 1_455
La4 La5 4.223176 1_555
