# generated using pymatgen
data_Rb2MgO2
_symmetry_space_group_name_H-M   'P 1'
_cell_length_a   10.94802137
_cell_length_b   6.32481516
_cell_length_c   5.48372496
_cell_angle_alpha   90.00000000
_cell_angle_beta   90.00000000
_cell_angle_gamma   90.00000000
_symmetry_Int_Tables_number   1
_chemical_formula_structural   Rb2MgO2
_chemical_formula_sum   'Rb8 Mg4 O8'
_cell_volume   379.71621112
_cell_formula_units_Z   4
loop_
 _symmetry_equiv_pos_site_id
 _symmetry_equiv_pos_as_xyz
  1  'x, y, z'
loop_
 _atom_site_type_symbol
 _atom_site_label
 _atom_site_symmetry_multiplicity
 _atom_site_fract_x
 _atom_site_fract_y
 _atom_site_fract_z
 _atom_site_occupancy
  Rb  Rb0  1  0.15444758  0.36002080  0.50171253  1
  Rb  Rb1  1  0.15444758  0.63997920  0.00171253  1
  Rb  Rb2  1  0.34555242  0.13997920  0.00171253  1
  Rb  Rb3  1  0.34555242  0.86002080  0.50171253  1
  Rb  Rb4  1  0.65444758  0.13997920  0.49828747  1
  Rb  Rb5  1  0.65444758  0.86002080  0.99828747  1
  Rb  Rb6  1  0.84555242  0.36002080  0.99828747  1
  Rb  Rb7  1  0.84555242  0.63997920  0.49828747  1
  Mg  Mg0  1  -0.00000000  0.00039336  0.25000000  1
  Mg  Mg1  1  -0.00000000  0.99960664  0.75000000  1
  Mg  Mg2  1  0.50000000  0.49960664  0.75000000  1
  Mg  Mg3  1  0.50000000  0.50039336  0.25000000  1
  O  O0  1  0.09093448  0.16905355  0.99981736  1
  O  O1  1  0.09093448  0.83094645  0.49981736  1
  O  O2  1  0.40906552  0.33094645  0.49981736  1
  O  O3  1  0.40906552  0.66905355  0.99981736  1
  O  O4  1  0.59093448  0.33094645  0.00018264  1
  O  O5  1  0.59093448  0.66905355  0.50018264  1
  O  O6  1  0.90906552  0.16905355  0.50018264  1
  O  O7  1  0.90906552  0.83094645  0.00018264  1
loop_
_geom_bond_atom_site_label_1
_geom_bond_atom_site_label_2
_geom_bond_distance
_geom_bond_site_symmetry_2
Mg0 O0 2.002815 1_554
Mg0 O6 2.002815 1_455
Mg0 O1 2.004100 1_545
Mg0 O7 2.004100 1_445
Mg1 O1 2.002815 1_555
Mg1 O7 2.002815 1_456
Mg1 O6 2.004100 1_465
Mg1 O0 2.004100 1_565
Mg2 O2 2.002815 1_555
Mg2 O4 2.002815 1_556
Mg2 O3 2.004100 1_555
Mg2 O5 2.004100 1_555
Mg3 O3 2.002815 1_554
Mg3 O5 2.002815 1_555
Mg3 O2 2.004100 1_555
Mg3 O4 2.004100 1_555
O0 Rb2 2.793641 1_556
O0 Rb6 2.945494 1_455
O0 Rb1 3.058623 1_556
O0 Rb0 3.066478 1_555
O0 Rb0 3.085007 1_556
O1 Rb3 2.793641 1_555
O1 Rb7 2.945494 1_455
O1 Rb0 3.058623 1_555
O1 Rb1 3.066478 1_555
O1 Rb1 3.085007 1_556
O2 Rb0 2.793641 1_555
O2 Rb4 2.945494 1_555
O2 Rb3 3.058623 1_545
O2 Rb2 3.066478 1_555
O2 Rb2 3.085007 1_556
O3 Rb1 2.793641 1_556
O3 Rb5 2.945494 1_555
O3 Rb2 3.058623 1_566
O3 Rb3 3.066478 1_555
O3 Rb3 3.085007 1_556
O4 Rb6 2.793641 1_554
O4 Rb2 2.945494 1_555
O4 Rb5 3.058623 1_544
O4 Rb4 3.066478 1_555
O4 Rb4 3.085007 1_554
O5 Rb7 2.793641 1_555
O5 Rb3 2.945494 1_555
O5 Rb4 3.058623 1_565
O5 Rb5 3.066478 1_555
O5 Rb5 3.085007 1_554
O6 Rb4 2.793641 1_555
O6 Rb0 2.945494 1_655
O6 Rb7 3.058623 1_555
O6 Rb6 3.066478 1_555
O6 Rb6 3.085007 1_554
O7 Rb5 2.793641 1_554
O7 Rb1 2.945494 1_655
O7 Rb6 3.058623 1_554
O7 Rb7 3.066478 1_555
O7 Rb7 3.085007 1_554
