# generated using pymatgen
data_Pr(ClO2)3
_symmetry_space_group_name_H-M   'P 1'
_cell_length_a   5.54836400
_cell_length_b   6.96244700
_cell_length_c   12.04944736
_cell_angle_alpha   56.56015333
_cell_angle_beta   90.00000000
_cell_angle_gamma   90.00000000
_symmetry_Int_Tables_number   1
_chemical_formula_structural   Pr(ClO2)3
_chemical_formula_sum   'Pr2 Cl6 O12'
_cell_volume   388.42038250
_cell_formula_units_Z   2
loop_
 _symmetry_equiv_pos_site_id
 _symmetry_equiv_pos_as_xyz
  1  'x, y, z'
loop_
 _atom_site_type_symbol
 _atom_site_label
 _atom_site_symmetry_multiplicity
 _atom_site_fract_x
 _atom_site_fract_y
 _atom_site_fract_z
 _atom_site_occupancy
  Pr  Pr0  1  0.12327800  0.50000000  0.25000000  1
  Pr  Pr1  1  0.87672200  0.50000000  0.75000000  1
  Cl  Cl0  1  0.64304700  0.32655500  0.42552300  1
  Cl  Cl1  1  0.35695300  0.67344500  0.57447700  1
  Cl  Cl2  1  0.64304700  0.67344500  0.07447700  1
  Cl  Cl3  1  0.35695300  0.32655500  0.92552300  1
  Cl  Cl4  1  0.16113900  0.00000000  0.75000000  1
  Cl  Cl5  1  0.83886100  0.00000000  0.25000000  1
  O  O0  1  0.99605900  0.87236300  0.20576700  1
  O  O1  1  0.00394100  0.12763700  0.79423300  1
  O  O2  1  0.99605900  0.12763700  0.29423300  1
  O  O3  1  0.00394100  0.87236300  0.70576700  1
  O  O4  1  0.43775100  0.75384300  0.13967000  1
  O  O5  1  0.56224900  0.24615700  0.86033000  1
  O  O6  1  0.43775100  0.24615700  0.36033000  1
  O  O7  1  0.56224900  0.75384300  0.63967000  1
  O  O8  1  0.08772700  0.53504800  0.02018200  1
  O  O9  1  0.91227300  0.46495200  0.97981800  1
  O  O10  1  0.08772700  0.46495200  0.47981800  1
  O  O11  1  0.91227300  0.53504800  0.52018200  1
loop_
_geom_bond_atom_site_label_1
_geom_bond_atom_site_label_2
_geom_bond_distance
_geom_bond_site_symmetry_2
Cl0 O6 1.646963 1_555
Cl1 O7 1.646963 1_555
Cl2 O4 1.646963 1_555
Cl3 O5 1.646963 1_555
Cl4 O1 1.535099 1_555
Cl4 O3 1.535099 1_545
Cl5 O2 1.535099 1_555
Cl5 O0 1.535099 1_545
O0 Pr0 2.445559 1_655
O1 Pr1 2.445559 1_455
O2 Pr0 2.445559 1_655
O3 Pr1 2.445559 1_455
O4 Pr0 2.312097 1_555
O5 Pr1 2.312097 1_555
O6 Pr0 2.312097 1_555
O7 Pr1 2.312097 1_555
O8 O9 1.297693 1_454
O8 Pr0 2.649918 1_555
O9 Pr1 2.649918 1_555
O10 O11 1.297693 1_455
O10 Pr0 2.649918 1_555
O11 Pr1 2.649918 1_555
