# generated using pymatgen
data_PmMg3
_symmetry_space_group_name_H-M   'P 1'
_cell_length_a   5.20486278
_cell_length_b   5.20486278
_cell_length_c   5.20486278
_cell_angle_alpha   119.86301693
_cell_angle_beta   119.86301693
_cell_angle_gamma   90.23742585
_symmetry_Int_Tables_number   1
_chemical_formula_structural   PmMg3
_chemical_formula_sum   'Pm1 Mg3'
_cell_volume   99.90957079
_cell_formula_units_Z   1
loop_
 _symmetry_equiv_pos_site_id
 _symmetry_equiv_pos_as_xyz
  1  'x, y, z'
loop_
 _atom_site_type_symbol
 _atom_site_label
 _atom_site_symmetry_multiplicity
 _atom_site_fract_x
 _atom_site_fract_y
 _atom_site_fract_z
 _atom_site_occupancy
  Pm  Pm0  1  -0.00000000  -0.00000000  -0.00000000  1
  Mg  Mg0  1  0.50000000  0.50000000  -0.00000000  1
  Mg  Mg1  1  0.75000000  0.25000000  0.50000000  1
  Mg  Mg2  1  0.25000000  0.75000000  0.50000000  1
loop_
_geom_bond_atom_site_label_1
_geom_bond_atom_site_label_2
_geom_bond_distance
_geom_bond_site_symmetry_2
Mg0 Mg1 3.189515 1_555
Mg0 Mg2 3.189515 1_655
Mg0 Mg1 3.189515 1_554
Mg0 Mg2 3.189515 1_544
Mg0 Mg2 3.189515 1_555
Mg0 Mg1 3.189515 1_454
Mg0 Mg2 3.189515 1_554
Mg0 Mg1 3.189515 1_565
Mg0 Pm0 3.672760 1_555
Mg0 Pm0 3.672760 1_665
Mg0 Pm0 3.688011 1_554
Mg0 Pm0 3.688011 1_666
Mg0 Pm0 3.688011 1_655
Mg0 Pm0 3.688011 1_565
Mg1 Pm0 3.189515 1_655
Mg1 Pm0 3.189515 1_666
Mg1 Pm0 3.189515 1_555
Mg1 Pm0 3.189515 1_656
Mg2 Pm0 3.189515 1_566
Mg2 Pm0 3.189515 1_555
Mg2 Pm0 3.189515 1_666
Mg2 Pm0 3.189515 1_565
