# generated using pymatgen
data_Na3CaMgCr3(SiO3)8
_symmetry_space_group_name_H-M   'P 1'
_cell_length_a   8.88072000
_cell_length_b   5.33028000
_cell_length_c   9.63825095
_cell_angle_alpha   75.26814252
_cell_angle_beta   90.00000000
_cell_angle_gamma   90.00000000
_symmetry_Int_Tables_number   1
_chemical_formula_structural   Na3CaMgCr3(SiO3)8
_chemical_formula_sum   'Na3 Ca1 Mg1 Cr3 Si8 O24'
_cell_volume   441.24491967
_cell_formula_units_Z   1
loop_
 _symmetry_equiv_pos_site_id
 _symmetry_equiv_pos_as_xyz
  1  'x, y, z'
loop_
 _atom_site_type_symbol
 _atom_site_label
 _atom_site_symmetry_multiplicity
 _atom_site_fract_x
 _atom_site_fract_y
 _atom_site_fract_z
 _atom_site_occupancy
  Na  Na0  1  0.79776100  0.50000000  0.50000000  1
  Na  Na1  1  0.30320700  0.00000000  0.00000000  1
  Na  Na2  1  0.69683100  0.50000000  0.00000000  1
  Ca  Ca0  1  0.20226600  0.00000000  0.50000000  1
  Mg  Mg0  1  0.41177900  0.50000000  0.50000000  1
  Cr  Cr0  1  0.90334900  0.00000000  0.00000000  1
  Cr  Cr1  1  0.59325400  0.00000000  0.50000000  1
  Cr  Cr2  1  0.09547100  0.50000000  0.00000000  1
  Si  Si0  1  0.09045100  0.69056400  0.28871900  1
  Si  Si1  1  0.59198800  0.18932300  0.79044900  1
  Si  Si2  1  0.09045100  0.30943600  0.71128100  1
  Si  Si3  1  0.59198800  0.81067700  0.20955100  1
  Si  Si4  1  0.90597700  0.80832800  0.71034200  1
  Si  Si5  1  0.41052500  0.30840200  0.20762600  1
  Si  Si6  1  0.90597700  0.19167200  0.28965800  1
  Si  Si7  1  0.41052500  0.69159800  0.79237400  1
  O  O0  1  0.25153200  0.70189600  0.36075000  1
  O  O1  1  0.75654900  0.19500300  0.86092400  1
  O  O2  1  0.25153200  0.29810400  0.63925000  1
  O  O3  1  0.75654900  0.80499700  0.13907600  1
  O  O4  1  0.74345200  0.80261400  0.63948900  1
  O  O5  1  0.24382700  0.30538400  0.14063800  1
  O  O6  1  0.74345200  0.19738600  0.36051100  1
  O  O7  1  0.24382700  0.69461600  0.85936200  1
  O  O8  1  0.07774300  0.77347500  0.11258800  1
  O  O9  1  0.58442000  0.26653000  0.61533800  1
  O  O10  1  0.07774300  0.22652500  0.88741200  1
  O  O11  1  0.58442000  0.73347000  0.38466200  1
  O  O12  1  0.92049800  0.72598800  0.88632300  1
  O  O13  1  0.41718500  0.21693100  0.38406900  1
  O  O14  1  0.92049800  0.27401200  0.11367700  1
  O  O15  1  0.41718500  0.78306900  0.61593100  1
  O  O16  1  0.01331400  0.39888600  0.35127000  1
  O  O17  1  0.51191300  0.90209000  0.85394300  1
  O  O18  1  0.01331400  0.60111400  0.64873000  1
  O  O19  1  0.51191300  0.09791000  0.14605700  1
  O  O20  1  0.98944000  0.09451900  0.64857700  1
  O  O21  1  0.48922700  0.59678800  0.14974700  1
  O  O22  1  0.98944000  0.90548100  0.35142300  1
  O  O23  1  0.48922700  0.40321200  0.85025300  1
loop_
_geom_bond_atom_site_label_1
_geom_bond_atom_site_label_2
_geom_bond_distance
_geom_bond_site_symmetry_2
Na0 O11 2.381273 1_555
Na0 O9 2.381273 1_555
Na0 O4 2.396844 1_555
Na0 O6 2.396844 1_555
Na0 O16 2.530366 1_655
Na0 O18 2.530366 1_655
Na0 O20 2.836467 1_555
Na0 O22 2.836467 1_555
Na1 O5 2.426384 1_555
Na1 O7 2.426384 1_544
Na1 O10 2.445040 1_554
Na1 O8 2.445040 1_545
Na1 O19 2.462325 1_555
Na1 O17 2.462325 1_544
Na1 O21 2.802454 1_545
Na1 O23 2.802454 1_554
Na2 O1 2.414404 1_554
Na2 O3 2.414404 1_555
Na2 O12 2.434276 1_554
Na2 O14 2.434276 1_555
Na2 O23 2.475299 1_554
Na2 O21 2.475299 1_555
Na2 O19 2.781654 1_555
Na2 O17 2.781654 1_554
Ca0 O13 2.360368 1_555
Ca0 O15 2.360368 1_545
Ca0 O2 2.366897 1_555
Ca0 O0 2.366897 1_545
Ca0 O20 2.498746 1_455
Ca0 O22 2.498746 1_445
Ca0 O16 2.800214 1_555
Ca0 O18 2.800214 1_545
Mg0 O2 2.061573 1_555
Mg0 O0 2.061573 1_555
Mg0 O15 2.094007 1_555
Mg0 O13 2.094007 1_555
Mg0 O9 2.105113 1_555
Mg0 O11 2.105113 1_555
Cr0 O1 1.966772 1_554
Cr0 O3 1.966772 1_545
Cr0 O14 2.042242 1_555
Cr0 O12 2.042242 1_544
Cr0 O8 2.089902 1_645
Cr0 O10 2.089902 1_654
Cr1 O4 1.993552 1_545
Cr1 O6 1.993552 1_555
Cr1 O11 2.015809 1_545
Cr1 O9 2.015809 1_555
Cr1 O15 2.091256 1_545
Cr1 O13 2.091256 1_555
Cr2 O5 1.983476 1_555
Cr2 O7 1.983476 1_554
Cr2 O8 2.032665 1_555
Cr2 O10 2.032665 1_554
Cr2 O12 2.096373 1_454
Cr2 O14 2.096373 1_455
O0 Si0 1.597916 1_555
O1 Si1 1.615089 1_555
O2 Si2 1.597916 1_555
O3 Si3 1.615089 1_555
O4 Si4 1.600339 1_555
O5 Si5 1.616781 1_555
O6 Si6 1.600339 1_555
O7 Si7 1.616781 1_555
O8 Si0 1.645695 1_555
O9 Si1 1.633760 1_555
O10 Si2 1.645695 1_555
O11 Si3 1.633760 1_555
O12 Si4 1.645469 1_555
O13 Si5 1.646683 1_555
O14 Si6 1.645469 1_555
O15 Si7 1.646683 1_555
O16 Si0 1.665292 1_555
O16 Si6 1.677738 1_455
O17 Si1 1.657631 1_565
O17 Si7 1.661423 1_555
O18 Si2 1.665292 1_555
O18 Si4 1.677738 1_455
O19 Si3 1.657631 1_545
O19 Si5 1.661423 1_555
O20 Si4 1.664032 1_545
O20 Si2 1.683564 1_655
O21 Si5 1.651210 1_555
O21 Si3 1.673049 1_555
O22 Si6 1.664032 1_565
O22 Si0 1.683564 1_655
O23 Si7 1.651210 1_555
O23 Si1 1.673049 1_555
