# generated using pymatgen
data_TiSi3H30C10(N2Cl)2
_symmetry_space_group_name_H-M   'P 1'
_cell_length_a   9.90931600
_cell_length_b   10.41884647
_cell_length_c   12.88444107
_cell_angle_alpha   90.11868805
_cell_angle_beta   94.71217714
_cell_angle_gamma   108.37431114
_symmetry_Int_Tables_number   1
_chemical_formula_structural   TiSi3H30C10(N2Cl)2
_chemical_formula_sum   'Ti2 Si6 H60 C20 N8 Cl4'
_cell_volume   1257.60055819
_cell_formula_units_Z   2
loop_
 _symmetry_equiv_pos_site_id
 _symmetry_equiv_pos_as_xyz
  1  'x, y, z'
loop_
 _atom_site_type_symbol
 _atom_site_label
 _atom_site_symmetry_multiplicity
 _atom_site_fract_x
 _atom_site_fract_y
 _atom_site_fract_z
 _atom_site_occupancy
  Ti  Ti0  1  0.01166900  0.59136800  0.85200200  1
  Ti  Ti1  1  0.98833100  0.40863200  0.14799800  1
  Si  Si0  1  0.17908500  0.90385700  0.77820100  1
  Si  Si1  1  0.82091500  0.09614300  0.22179900  1
  Si  Si2  1  0.67696000  0.38967000  0.76150700  1
  Si  Si3  1  0.32304000  0.61033000  0.23849300  1
  Si  Si4  1  0.85655300  0.70048000  0.72919500  1
  Si  Si5  1  0.14344700  0.29952000  0.27080500  1
  H  H0  1  0.16896200  0.88798300  0.58385700  1
  H  H1  1  0.83103800  0.11201700  0.41614300  1
  H  H2  1  0.34280900  0.98142400  0.63920700  1
  H  H3  1  0.65719100  0.01857600  0.36079300  1
  H  H4  1  0.28354400  0.80146900  0.64241600  1
  H  H5  1  0.71645600  0.19853100  0.35758400  1
  H  H6  1  0.03915700  0.05765100  0.72173200  1
  H  H7  1  0.96084300  0.94234900  0.27826800  1
  H  H8  1  0.07997000  0.06999000  0.85911300  1
  H  H9  1  0.92003000  0.93001000  0.14088700  1
  H  H10  1  0.21394300  0.14965100  0.77600700  1
  H  H11  1  0.78605700  0.85034900  0.22399300  1
  H  H12  1  0.29018700  0.92728700  0.96209400  1
  H  H13  1  0.70981300  0.07271300  0.03790600  1
  H  H14  1  0.36089900  0.82595300  0.88459900  1
  H  H15  1  0.63910100  0.17404700  0.11540100  1
  H  H16  1  0.41596800  0.00418400  0.87216300  1
  H  H17  1  0.58403200  0.99581600  0.12783700  1
  H  H18  1  0.77548700  0.24565500  0.65254700  1
  H  H19  1  0.22451300  0.75434500  0.34745300  1
  H  H20  1  0.79473400  0.20806000  0.78678800  1
  H  H21  1  0.20526600  0.79194000  0.21321200  1
  H  H22  1  0.62481000  0.14904800  0.71482500  1
  H  H23  1  0.37519000  0.85095200  0.28517500  1
  H  H24  1  0.55300300  0.45139900  0.90516600  1
  H  H25  1  0.44699700  0.54860100  0.09483400  1
  H  H26  1  0.48675400  0.27567600  0.87262300  1
  H  H27  1  0.51324600  0.72432400  0.12737700  1
  H  H28  1  0.65131200  0.34274600  0.95100400  1
  H  H29  1  0.34868800  0.65725400  0.04899600  1
  H  H30  1  0.59197900  0.42514400  0.57792100  1
  H  H31  1  0.40802100  0.57485600  0.42207900  1
  H  H32  1  0.45233300  0.32255900  0.64855400  1
  H  H33  1  0.54766700  0.67744100  0.35144600  1
  H  H34  1  0.51187500  0.50050200  0.66961700  1
  H  H35  1  0.48812500  0.49949800  0.33038300  1
  H  H36  1  0.87699100  0.84806200  0.91820400  1
  H  H37  1  0.12300900  0.15193800  0.08179600  1
  H  H38  1  0.76390000  0.94696800  0.88072400  1
  H  H39  1  0.23610000  0.05303200  0.11927600  1
  H  H40  1  0.68941700  0.78131800  0.92816100  1
  H  H41  1  0.31058300  0.21868200  0.07183900  1
  H  H42  1  0.59973000  0.74525800  0.64392300  1
  H  H43  1  0.40027000  0.25474200  0.35607700  1
  H  H44  1  0.52684600  0.72114700  0.76729100  1
  H  H45  1  0.47315400  0.27885300  0.23270900  1
  H  H46  1  0.60425900  0.88785800  0.72292800  1
  H  H47  1  0.39574100  0.11214200  0.27707200  1
  H  H48  1  0.81314600  0.89699500  0.58762800  1
  H  H49  1  0.18685400  0.10300500  0.41237200  1
  H  H50  1  0.94037200  0.87346900  0.50525300  1
  H  H51  1  0.05962800  0.12653100  0.49474700  1
  H  H52  1  0.75499000  0.79306900  0.47171400  1
  H  H53  1  0.24501000  0.20693100  0.52828600  1
  H  H54  1  0.88153300  0.51916600  0.57246500  1
  H  H55  1  0.11846700  0.48083400  0.42753500  1
  H  H56  1  0.79491100  0.57513500  0.46246700  1
  H  H57  1  0.20508900  0.42486500  0.53753300  1
  H  H58  1  0.98069500  0.65319900  0.49654700  1
  H  H59  1  0.01930500  0.34680100  0.50345300  1
  C  C0  1  0.24974000  0.89185200  0.64863400  1
  C  C1  1  0.75026000  0.10814800  0.35136600  1
  C  C2  1  0.12187300  0.05888600  0.78438800  1
  C  C3  1  0.87812700  0.94111400  0.21561200  1
  C  C4  1  0.32390300  0.91492600  0.88456200  1
  C  C5  1  0.67609700  0.08507400  0.11543800  1
  C  C6  1  0.72454100  0.23478600  0.72614700  1
  C  C7  1  0.27545900  0.76521400  0.27385300  1
  C  C8  1  0.58464800  0.36304200  0.88476900  1
  C  C9  1  0.41535200  0.63695800  0.11523100  1
  C  C10  1  0.54747200  0.41320100  0.65394800  1
  C  C11  1  0.45252800  0.58679900  0.34605200  1
  C  C12  1  0.77248500  0.84382400  0.88058700  1
  C  C13  1  0.22751500  0.15617600  0.11941300  1
  C  C14  1  0.61440900  0.78525400  0.72413200  1
  C  C15  1  0.38559100  0.21474600  0.27586800  1
  C  C16  1  0.83759000  0.82327800  0.53815500  1
  C  C17  1  0.16241000  0.17672200  0.46184500  1
  C  C18  1  0.87671300  0.60787100  0.52915100  1
  C  C19  1  0.12328700  0.39212900  0.47084900  1
  N  N0  1  0.03085200  0.75859800  0.79220800  1
  N  N1  1  0.96914800  0.24140200  0.20779200  1
  N  N2  1  0.82991300  0.53529500  0.77574400  1
  N  N3  1  0.17008700  0.46470500  0.22425600  1
  N  N4  1  0.75363900  0.79052900  0.77377200  1
  N  N5  1  0.24636100  0.20947100  0.22622800  1
  N  N6  1  0.84264500  0.70450400  0.59552200  1
  N  N7  1  0.15735500  0.29549600  0.40447800  1
  Cl  Cl0  1  0.18391200  0.52511500  0.78526800  1
  Cl  Cl1  1  0.81608800  0.47488500  0.21473200  1
  Cl  Cl2  1  0.03563600  0.65787000  0.02870100  1
  Cl  Cl3  1  0.96436400  0.34213000  0.97129900  1
loop_
_geom_bond_atom_site_label_1
_geom_bond_atom_site_label_2
_geom_bond_distance
_geom_bond_site_symmetry_2
C0 H4 1.099257 1_555
C0 H0 1.099404 1_555
C0 H2 1.101132 1_555
C0 Si0 1.881254 1_555
C1 H5 1.099257 1_555
C1 H1 1.099404 1_555
C1 H3 1.101132 1_555
C1 Si1 1.881254 1_555
C2 H8 1.099215 1_555
C2 H6 1.099231 1_555
C2 H10 1.100456 1_555
C2 Si0 1.876411 1_545
C3 H9 1.099215 1_555
C3 H7 1.099231 1_555
C3 H11 1.100456 1_555
C3 Si1 1.876411 1_565
C4 H12 1.098888 1_555
C4 H14 1.099066 1_555
C4 H16 1.101061 1_565
C4 Si0 1.876848 1_555
C5 H13 1.098888 1_555
C5 H15 1.099066 1_555
C5 H17 1.101061 1_545
C5 Si1 1.876848 1_555
C6 H20 1.097968 1_555
C6 H18 1.100005 1_555
C6 H22 1.102328 1_555
C6 Si2 1.883048 1_555
C7 H21 1.097968 1_555
C7 H19 1.100005 1_555
C7 H23 1.102328 1_555
C7 Si3 1.883048 1_555
C8 H28 1.097991 1_555
C8 H24 1.099725 1_555
C8 H26 1.100842 1_555
C8 Si2 1.875237 1_555
C9 H29 1.097991 1_555
C9 H25 1.099725 1_555
C9 H27 1.100842 1_555
C9 Si3 1.875237 1_555
C10 H34 1.098057 1_555
C10 H30 1.098376 1_555
C10 H32 1.101431 1_555
C10 Si2 1.880071 1_555
C11 H35 1.098057 1_555
C11 H31 1.098376 1_555
C11 H33 1.101431 1_555
C11 Si3 1.880071 1_555
C12 H36 1.094490 1_555
C12 H38 1.104422 1_555
C12 H40 1.106346 1_555
C12 N4 1.458253 1_555
C13 H37 1.094490 1_555
C13 H39 1.104422 1_555
C13 H41 1.106346 1_555
C13 N5 1.458253 1_555
C14 H42 1.094589 1_555
C14 H46 1.104875 1_555
C14 H44 1.106195 1_555
C14 N4 1.456934 1_555
C15 H43 1.094589 1_555
C15 H47 1.104875 1_555
C15 H45 1.106195 1_555
C15 N5 1.456934 1_555
C16 H48 1.093396 1_555
C16 H52 1.105982 1_555
C16 H50 1.107514 1_555
C16 N6 1.454992 1_555
C17 H49 1.093396 1_555
C17 H53 1.105982 1_555
C17 H51 1.107514 1_555
C17 N7 1.454992 1_555
C18 H54 1.092461 1_555
C18 H56 1.105288 1_555
C18 H58 1.107413 1_555
C18 N6 1.455011 1_555
C19 H55 1.092461 1_555
C19 H57 1.105288 1_555
C19 H59 1.107413 1_555
C19 N7 1.455011 1_555
N0 Si4 1.765559 1_455
N0 Si0 1.767439 1_555
N0 Ti0 1.867150 1_555
N1 Si5 1.765559 1_655
N1 Si1 1.767439 1_555
N1 Ti1 1.867150 1_555
N2 Si4 1.770657 1_555
N2 Si2 1.770954 1_555
N2 Ti0 1.895806 1_655
N3 Si5 1.770657 1_555
N3 Si3 1.770954 1_555
N3 Ti1 1.895806 1_455
N4 Si4 1.716777 1_555
N5 Si5 1.716777 1_555
N6 Si4 1.718144 1_555
N7 Si5 1.718144 1_555
Cl0 Ti0 2.260628 1_555
Cl1 Ti1 2.260628 1_555
Cl2 Ti0 2.349591 1_554
Cl2 Ti1 2.948400 1_455
Cl3 Ti1 2.349591 1_556
Cl3 Ti0 2.948400 1_655
