# generated using pymatgen
data_Rb3Nd(Cl3O)2
_symmetry_space_group_name_H-M   'P 1'
_cell_length_a   12.28251970
_cell_length_b   12.28251970
_cell_length_c   16.82337300
_cell_angle_alpha   90.00000000
_cell_angle_beta   90.00000000
_cell_angle_gamma   119.99999840
_symmetry_Int_Tables_number   1
_chemical_formula_structural   Rb3Nd(Cl3O)2
_chemical_formula_sum   'Rb18 Nd6 Cl36 O12'
_cell_volume   2197.95426650
_cell_formula_units_Z   6
loop_
 _symmetry_equiv_pos_site_id
 _symmetry_equiv_pos_as_xyz
  1  'x, y, z'
loop_
 _atom_site_type_symbol
 _atom_site_label
 _atom_site_symmetry_multiplicity
 _atom_site_fract_x
 _atom_site_fract_y
 _atom_site_fract_z
 _atom_site_occupancy
  Rb  Rb0  1  0.66666700  0.33333300  0.89271500  1
  Rb  Rb1  1  0.33333300  0.66666700  0.10728500  1
  Rb  Rb2  1  0.33333300  0.66666700  0.39271500  1
  Rb  Rb3  1  0.66666700  0.33333300  0.60728500  1
  Rb  Rb4  1  0.55461500  0.93428800  0.88422600  1
  Rb  Rb5  1  0.44538500  0.06571200  0.11577400  1
  Rb  Rb6  1  0.37967200  0.44538500  0.88422600  1
  Rb  Rb7  1  0.44538500  0.06571200  0.38422600  1
  Rb  Rb8  1  0.62032800  0.55461500  0.11577400  1
  Rb  Rb9  1  0.55461500  0.93428800  0.61577400  1
  Rb  Rb10  1  0.06571200  0.62032800  0.88422600  1
  Rb  Rb11  1  0.62032800  0.55461500  0.38422600  1
  Rb  Rb12  1  0.93428800  0.37967200  0.11577400  1
  Rb  Rb13  1  0.37967200  0.44538500  0.61577400  1
  Rb  Rb14  1  0.93428800  0.37967200  0.38422600  1
  Rb  Rb15  1  0.06571200  0.62032800  0.61577400  1
  Rb  Rb16  1  0.00000000  0.00000000  0.00000000  1
  Rb  Rb17  1  0.00000000  0.00000000  0.50000000  1
  Nd  Nd0  1  0.96536700  0.19438000  0.75000000  1
  Nd  Nd1  1  0.03463300  0.80562000  0.25000000  1
  Nd  Nd2  1  0.22901200  0.03463300  0.75000000  1
  Nd  Nd3  1  0.77098800  0.96536700  0.25000000  1
  Nd  Nd4  1  0.80562000  0.77098800  0.75000000  1
  Nd  Nd5  1  0.19438000  0.22901200  0.25000000  1
  Cl  Cl0  1  0.82402600  0.97201200  0.84790900  1
  Cl  Cl1  1  0.17597400  0.02798800  0.15209100  1
  Cl  Cl2  1  0.14798600  0.17597400  0.84790900  1
  Cl  Cl3  1  0.17597400  0.02798800  0.34790900  1
  Cl  Cl4  1  0.85201400  0.82402600  0.15209100  1
  Cl  Cl5  1  0.82402600  0.97201200  0.65209100  1
  Cl  Cl6  1  0.02798800  0.85201400  0.84790900  1
  Cl  Cl7  1  0.85201400  0.82402600  0.34790900  1
  Cl  Cl8  1  0.97201200  0.14798600  0.15209100  1
  Cl  Cl9  1  0.14798600  0.17597400  0.65209100  1
  Cl  Cl10  1  0.97201200  0.14798600  0.34790900  1
  Cl  Cl11  1  0.02798800  0.85201400  0.65209100  1
  Cl  Cl12  1  0.57673000  0.70444800  0.96946600  1
  Cl  Cl13  1  0.42327000  0.29555200  0.03053400  1
  Cl  Cl14  1  0.12771800  0.42327000  0.96946600  1
  Cl  Cl15  1  0.42327000  0.29555200  0.46946600  1
  Cl  Cl16  1  0.87228200  0.57673000  0.03053400  1
  Cl  Cl17  1  0.57673000  0.70444800  0.53053400  1
  Cl  Cl18  1  0.29555200  0.87228200  0.96946600  1
  Cl  Cl19  1  0.87228200  0.57673000  0.46946600  1
  Cl  Cl20  1  0.70444800  0.12771800  0.03053400  1
  Cl  Cl21  1  0.12771800  0.42327000  0.53053400  1
  Cl  Cl22  1  0.70444800  0.12771800  0.46946600  1
  Cl  Cl23  1  0.29555200  0.87228200  0.53053400  1
  Cl  Cl24  1  0.72754100  0.17871800  0.75000000  1
  Cl  Cl25  1  0.27245900  0.82128200  0.25000000  1
  Cl  Cl26  1  0.45117700  0.27245900  0.75000000  1
  Cl  Cl27  1  0.54882300  0.72754100  0.25000000  1
  Cl  Cl28  1  0.82128200  0.54882300  0.75000000  1
  Cl  Cl29  1  0.17871800  0.45117700  0.25000000  1
  Cl  Cl30  1  0.53891500  0.67350400  0.75000000  1
  Cl  Cl31  1  0.46108500  0.32649600  0.25000000  1
  Cl  Cl32  1  0.13458900  0.46108500  0.75000000  1
  Cl  Cl33  1  0.86541100  0.53891500  0.25000000  1
  Cl  Cl34  1  0.32649600  0.86541100  0.75000000  1
  Cl  Cl35  1  0.67350400  0.13458900  0.25000000  1
  O  O0  1  0.97324500  0.33588800  0.85696900  1
  O  O1  1  0.02675500  0.66411200  0.14303100  1
  O  O2  1  0.36264300  0.02675500  0.85696900  1
  O  O3  1  0.02675500  0.66411200  0.35696900  1
  O  O4  1  0.63735700  0.97324500  0.14303100  1
  O  O5  1  0.97324500  0.33588800  0.64303100  1
  O  O6  1  0.66411200  0.63735700  0.85696900  1
  O  O7  1  0.63735700  0.97324500  0.35696900  1
  O  O8  1  0.33588800  0.36264300  0.14303100  1
  O  O9  1  0.36264300  0.02675500  0.64303100  1
  O  O10  1  0.33588800  0.36264300  0.35696900  1
  O  O11  1  0.66411200  0.63735700  0.64303100  1
loop_
_geom_bond_atom_site_label_1
_geom_bond_atom_site_label_2
_geom_bond_distance
_geom_bond_site_symmetry_2
Nd0 O5 2.469934 1_555
Nd0 O0 2.469934 1_555
Nd1 O3 2.469934 1_555
Nd1 O1 2.469934 1_555
Nd2 O9 2.469942 1_555
Nd2 O2 2.469942 1_555
Nd3 O7 2.469942 1_555
Nd3 O4 2.469942 1_555
Nd4 O6 2.469938 1_555
Nd4 O11 2.469938 1_555
Nd5 O10 2.469938 1_555
Nd5 O8 2.469938 1_555
Cl0 Nd4 2.881391 1_555
Cl0 Nd0 2.906043 1_565
Cl0 Rb4 3.162994 1_555
Cl0 Rb16 3.254795 1_666
Cl1 Nd5 2.881391 1_555
Cl1 Nd1 2.906043 1_545
Cl1 Rb5 3.162994 1_555
Cl1 Rb16 3.254795 1_555
Cl2 Nd0 2.881401 1_455
Cl2 Nd2 2.906035 1_555
Cl2 Rb6 3.162990 1_555
Cl2 Rb16 3.254795 1_556
Cl3 Nd5 2.881391 1_555
Cl3 Nd1 2.906043 1_545
Cl3 Rb7 3.162994 1_555
Cl3 Rb17 3.254795 1_555
Cl4 Nd1 2.881401 1_655
Cl4 Nd3 2.906035 1_555
Cl4 Rb8 3.162990 1_555
Cl4 Rb16 3.254795 1_665
Cl5 Nd4 2.881391 1_555
Cl5 Nd0 2.906043 1_565
Cl5 Rb9 3.162994 1_555
Cl5 Rb17 3.254795 1_665
Cl6 Nd2 2.881396 1_565
Cl6 Nd4 2.906044 1_455
Cl6 Rb10 3.162982 1_555
Cl6 Rb16 3.254795 1_566
Cl7 Nd1 2.881401 1_655
Cl7 Nd3 2.906035 1_555
Cl7 Rb11 3.162990 1_555
Cl7 Rb17 3.254795 1_665
Cl8 Nd3 2.881396 1_545
Cl8 Nd5 2.906044 1_655
Cl8 Rb12 3.162982 1_555
Cl8 Rb16 3.254795 1_655
Cl9 Nd0 2.881401 1_455
Cl9 Nd2 2.906035 1_555
Cl9 Rb13 3.162990 1_555
Cl9 Rb17 3.254795 1_555
Cl10 Nd3 2.881396 1_545
Cl10 Nd5 2.906044 1_655
Cl10 Rb14 3.162982 1_555
Cl10 Rb17 3.254795 1_655
Cl11 Nd2 2.881396 1_565
Cl11 Nd4 2.906044 1_455
Cl11 Rb15 3.162982 1_555
Cl11 Rb17 3.254795 1_565
Cl12 Rb6 3.215262 1_555
Cl12 Rb8 3.273759 1_556
Cl12 Rb4 3.296426 1_555
Cl12 Rb1 3.625073 1_556
Cl13 Rb8 3.215262 1_555
Cl13 Rb6 3.273759 1_554
Cl13 Rb5 3.296426 1_555
Cl13 Rb0 3.625073 1_554
Cl14 Rb10 3.215270 1_555
Cl14 Rb12 3.273751 1_456
Cl14 Rb6 3.296415 1_555
Cl14 Rb1 3.625070 1_556
Cl15 Rb11 3.215262 1_555
Cl15 Rb13 3.273759 1_555
Cl15 Rb7 3.296426 1_555
Cl15 Rb3 3.625073 1_555
Cl16 Rb12 3.215270 1_555
Cl16 Rb10 3.273751 1_654
Cl16 Rb8 3.296415 1_555
Cl16 Rb0 3.625070 1_554
Cl17 Rb13 3.215262 1_555
Cl17 Rb11 3.273759 1_555
Cl17 Rb9 3.296426 1_555
Cl17 Rb2 3.625073 1_555
Cl18 Rb4 3.215259 1_555
Cl18 Rb5 3.273754 1_566
Cl18 Rb10 3.296420 1_555
Cl18 Rb1 3.625064 1_556
Cl19 Rb14 3.215270 1_555
Cl19 Rb15 3.273751 1_655
Cl19 Rb11 3.296415 1_555
Cl19 Rb3 3.625070 1_555
Cl20 Rb5 3.215259 1_555
Cl20 Rb4 3.273754 1_544
Cl20 Rb12 3.296420 1_555
Cl20 Rb0 3.625064 1_554
Cl21 Rb15 3.215270 1_555
Cl21 Rb14 3.273751 1_455
Cl21 Rb13 3.296415 1_555
Cl21 Rb2 3.625070 1_555
Cl22 Rb7 3.215259 1_555
Cl22 Rb9 3.273754 1_545
Cl22 Rb14 3.296420 1_555
Cl22 Rb3 3.625064 1_555
Cl23 Rb9 3.215259 1_555
Cl23 Rb7 3.273754 1_565
Cl23 Rb15 3.296420 1_555
Cl23 Rb2 3.625064 1_555
Cl24 Nd0 2.829826 1_555
Cl24 Rb0 3.368965 1_555
Cl24 Rb3 3.368965 1_555
Cl24 Rb9 3.499586 1_545
Cl24 Rb4 3.499586 1_545
Cl25 Nd1 2.829826 1_555
Cl25 Rb2 3.368965 1_555
Cl25 Rb1 3.368965 1_555
Cl25 Rb5 3.499586 1_565
Cl25 Rb7 3.499586 1_565
Cl26 Nd2 2.829832 1_555
Cl26 Rb3 3.368973 1_555
Cl26 Rb0 3.368973 1_555
Cl26 Rb13 3.499592 1_555
Cl26 Rb6 3.499592 1_555
Cl27 Nd3 2.829832 1_555
Cl27 Rb1 3.368973 1_555
Cl27 Rb2 3.368973 1_555
Cl27 Rb8 3.499592 1_555
Cl27 Rb11 3.499592 1_555
Cl28 Nd4 2.829839 1_555
Cl28 Rb0 3.368971 1_555
Cl28 Rb3 3.368971 1_555
Cl28 Rb15 3.499583 1_655
Cl28 Rb10 3.499583 1_655
Cl29 Nd5 2.829839 1_555
Cl29 Rb1 3.368971 1_555
Cl29 Rb2 3.368971 1_555
Cl29 Rb12 3.499583 1_455
Cl29 Rb14 3.499583 1_455
Cl30 Nd4 2.870938 1_555
Cl30 Rb13 3.360810 1_555
Cl30 Rb6 3.360810 1_555
Cl30 Rb9 3.844273 1_555
Cl30 Rb4 3.844273 1_555
Cl31 Nd5 2.870938 1_555
Cl31 Rb11 3.360810 1_555
Cl31 Rb8 3.360810 1_555
Cl31 Rb7 3.844273 1_555
Cl31 Rb5 3.844273 1_555
Cl32 Nd0 2.870940 1_455
Cl32 Rb15 3.360816 1_555
Cl32 Rb10 3.360816 1_555
Cl32 Rb13 3.844263 1_555
Cl32 Rb6 3.844263 1_555
Cl33 Nd1 2.870940 1_655
Cl33 Rb14 3.360816 1_555
Cl33 Rb12 3.360816 1_555
Cl33 Rb8 3.844263 1_555
Cl33 Rb11 3.844263 1_555
Cl34 Nd2 2.870949 1_565
Cl34 Rb9 3.360807 1_555
Cl34 Rb4 3.360807 1_555
Cl34 Rb15 3.844269 1_555
Cl34 Rb10 3.844269 1_555
Cl35 Nd3 2.870949 1_545
Cl35 Rb7 3.360807 1_555
Cl35 Rb5 3.360807 1_555
Cl35 Rb14 3.844269 1_555
Cl35 Rb12 3.844269 1_555
O0 Rb10 3.120552 1_655
O1 Rb12 3.120552 1_455
O2 Rb4 3.120541 1_545
O3 Rb14 3.120552 1_455
O4 Rb5 3.120541 1_565
O5 Rb15 3.120552 1_655
O6 Rb6 3.120550 1_555
O7 Rb7 3.120541 1_565
O8 Rb8 3.120550 1_555
O9 Rb9 3.120541 1_545
O10 Rb11 3.120550 1_555
O11 Rb13 3.120550 1_555
