# generated using pymatgen
data_TbHfF7
_symmetry_space_group_name_H-M   'P 1'
_cell_length_a   5.67451628
_cell_length_b   6.01731032
_cell_length_c   8.17681711
_cell_angle_alpha   102.41803597
_cell_angle_beta   90.00000000
_cell_angle_gamma   90.00000000
_symmetry_Int_Tables_number   1
_chemical_formula_structural   TbHfF7
_chemical_formula_sum   'Tb2 Hf2 F14'
_cell_volume   272.66809286
_cell_formula_units_Z   2
loop_
 _symmetry_equiv_pos_site_id
 _symmetry_equiv_pos_as_xyz
  1  'x, y, z'
loop_
 _atom_site_type_symbol
 _atom_site_label
 _atom_site_symmetry_multiplicity
 _atom_site_fract_x
 _atom_site_fract_y
 _atom_site_fract_z
 _atom_site_occupancy
  Tb  Tb0  1  0.69892507  0.65635479  0.68700824  1
  Tb  Tb1  1  0.19892507  0.34364521  0.31299176  1
  Hf  Hf0  1  0.70853802  0.81144858  0.22498018  1
  Hf  Hf1  1  0.20853802  0.18855142  0.77501982  1
  F  F0  1  0.88969450  0.45349152  0.47559356  1
  F  F1  1  0.38969450  0.54650848  0.52440644  1
  F  F2  1  0.42953099  0.93097447  0.77078888  1
  F  F3  1  0.92953099  0.06902553  0.22921112  1
  F  F4  1  0.95133491  0.95805165  0.76007742  1
  F  F5  1  0.45133491  0.04194835  0.23992258  1
  F  F6  1  0.99397786  0.45332855  0.78851567  1
  F  F7  1  0.49397786  0.54667145  0.21148433  1
  F  F8  1  0.69954916  0.75647683  0.97730126  1
  F  F9  1  0.19954916  0.24352317  0.02269874  1
  F  F10  1  0.70725288  0.86488445  0.47377179  1
  F  F11  1  0.20725288  0.13511555  0.52622821  1
  F  F12  1  0.49755560  0.38100027  0.78471995  1
  F  F13  1  0.99755560  0.61899973  0.21528005  1
loop_
_geom_bond_atom_site_label_1
_geom_bond_atom_site_label_2
_geom_bond_distance
_geom_bond_site_symmetry_2
F0 Tb0 2.177792 1_555
F0 Tb1 2.214896 1_655
F1 Tb1 2.177792 1_555
F1 Tb0 2.214896 1_555
F2 Hf1 1.988209 1_565
F2 Tb0 2.247212 1_555
F3 Hf0 1.988209 1_545
F3 Tb1 2.247212 1_655
F4 Hf1 1.998983 1_665
F4 Tb0 2.288594 1_555
F5 Hf0 1.998983 1_545
F5 Tb1 2.288594 1_555
F6 Hf1 1.989312 1_655
F6 Tb0 2.328244 1_555
F7 Hf0 1.989312 1_555
F7 Tb1 2.328244 1_555
F8 Hf0 1.981272 1_556
F8 Tb0 2.319969 1_555
F9 Hf1 1.981272 1_554
F9 Tb1 2.319969 1_555
F10 Hf0 1.990122 1_555
F10 Tb0 2.357501 1_555
F11 Hf1 1.990122 1_555
F11 Tb1 2.357501 1_555
F12 Hf1 1.999381 1_555
F12 Tb0 2.293187 1_555
F13 Hf0 1.999381 1_555
F13 Tb1 2.293187 1_655
