# generated using pymatgen
data_MnPCO4
_symmetry_space_group_name_H-M   'P 1'
_cell_length_a   5.38592600
_cell_length_b   8.83909300
_cell_length_c   9.76455700
_cell_angle_alpha   90.00000000
_cell_angle_beta   90.00000000
_cell_angle_gamma   90.00000000
_symmetry_Int_Tables_number   1
_chemical_formula_structural   MnPCO4
_chemical_formula_sum   'Mn4 P4 C4 O16'
_cell_volume   464.85834359
_cell_formula_units_Z   4
loop_
 _symmetry_equiv_pos_site_id
 _symmetry_equiv_pos_as_xyz
  1  'x, y, z'
loop_
 _atom_site_type_symbol
 _atom_site_label
 _atom_site_symmetry_multiplicity
 _atom_site_fract_x
 _atom_site_fract_y
 _atom_site_fract_z
 _atom_site_occupancy
  Mn  Mn0  1  0.60407600  0.19627400  0.72891900  1
  Mn  Mn1  1  0.39592400  0.69627400  0.27108100  1
  Mn  Mn2  1  0.10407600  0.69627400  0.77108100  1
  Mn  Mn3  1  0.89592400  0.19627400  0.22891900  1
  P  P0  1  0.46269900  0.90572600  0.54207600  1
  P  P1  1  0.53730100  0.40572600  0.45792400  1
  P  P2  1  0.96269900  0.40572600  0.95792400  1
  P  P3  1  0.03730100  0.90572600  0.04207600  1
  C  C0  1  0.79106300  0.54486800  0.50648800  1
  C  C1  1  0.20893700  0.04486800  0.49351200  1
  C  C2  1  0.29106300  0.04486800  0.99351200  1
  C  C3  1  0.70893700  0.54486800  0.00648800  1
  O  O0  1  0.32689100  0.79134200  0.63158400  1
  O  O1  1  0.67310900  0.29134200  0.36841600  1
  O  O2  1  0.82689100  0.29134200  0.86841600  1
  O  O3  1  0.17310900  0.79134200  0.13158400  1
  O  O4  1  0.43681900  0.33830700  0.59116400  1
  O  O5  1  0.56318100  0.83830700  0.40883600  1
  O  O6  1  0.93681900  0.83830700  0.90883600  1
  O  O7  1  0.06318100  0.33830700  0.09116400  1
  O  O8  1  0.85887800  0.57390000  0.62086200  1
  O  O9  1  0.14112200  0.07390000  0.37913800  1
  O  O10  1  0.35887800  0.07390000  0.87913800  1
  O  O11  1  0.64112200  0.57390000  0.12086200  1
  O  O12  1  0.65253600  0.00288300  0.61735900  1
  O  O13  1  0.34746400  0.50288300  0.38264100  1
  O  O14  1  0.15253600  0.50288300  0.88264100  1
  O  O15  1  0.84746400  0.00288300  0.11735900  1
loop_
_geom_bond_atom_site_label_1
_geom_bond_atom_site_label_2
_geom_bond_distance
_geom_bond_site_symmetry_2
Mn0 O2 2.000418 1_555
Mn0 O12 2.043728 1_555
Mn0 O4 2.048652 1_555
Mn0 O10 2.250693 1_555
Mn1 O3 2.000418 1_555
Mn1 O13 2.043728 1_555
Mn1 O5 2.048652 1_555
Mn1 O11 2.250693 1_555
Mn2 O0 2.000418 1_555
Mn2 O14 2.043728 1_555
Mn2 O6 2.048652 1_455
Mn2 O8 2.250693 1_455
Mn3 O1 2.000418 1_555
Mn3 O15 2.043728 1_555
Mn3 O7 2.048652 1_655
Mn3 O9 2.250693 1_655
C0 O8 1.202716 1_555
C0 P1 1.898812 1_555
C1 O9 1.202716 1_555
C1 P0 1.898812 1_545
C2 O10 1.202716 1_555
C2 P3 1.898812 1_546
C3 O11 1.202716 1_555
C3 P2 1.898812 1_554
O0 P0 1.523526 1_555
O1 P1 1.523526 1_555
O2 P2 1.523526 1_555
O3 P3 1.523526 1_555
O4 P1 1.529930 1_555
O5 P0 1.529930 1_555
O6 P3 1.529930 1_656
O7 P2 1.529930 1_454
O12 P0 1.524232 1_545
O13 P1 1.524232 1_555
O14 P2 1.524232 1_455
O15 P3 1.524232 1_645
