# generated using pymatgen
data_Li3Fe(MoO4)3
_symmetry_space_group_name_H-M   'P 1'
_cell_length_a   5.19890200
_cell_length_b   10.62310700
_cell_length_c   20.60664682
_cell_angle_alpha   59.80970994
_cell_angle_beta   90.00000000
_cell_angle_gamma   90.00000000
_symmetry_Int_Tables_number   1
_chemical_formula_structural   Li3Fe(MoO4)3
_chemical_formula_sum   'Li12 Fe4 Mo12 O48'
_cell_volume   983.70571349
_cell_formula_units_Z   4
loop_
 _symmetry_equiv_pos_site_id
 _symmetry_equiv_pos_as_xyz
  1  'x, y, z'
loop_
 _atom_site_type_symbol
 _atom_site_label
 _atom_site_symmetry_multiplicity
 _atom_site_fract_x
 _atom_site_fract_y
 _atom_site_fract_z
 _atom_site_occupancy
  Li  Li0  1  0.50205200  0.44853800  0.80262900  1
  Li  Li1  1  0.00559500  0.54296200  0.70018000  1
  Li  Li2  1  0.99440500  0.54296200  0.20018000  1
  Li  Li3  1  0.49794800  0.44853800  0.30262900  1
  Li  Li4  1  0.49847300  0.11043600  0.97111200  1
  Li  Li5  1  0.50644000  0.45289400  0.47217000  1
  Li  Li6  1  0.00416100  0.53968000  0.02904300  1
  Li  Li7  1  0.50152700  0.11043600  0.47111200  1
  Li  Li8  1  0.99583900  0.53968000  0.52904300  1
  Li  Li9  1  0.49356000  0.45289400  0.97217000  1
  Li  Li10  1  0.14363100  0.00352800  0.74804400  1
  Li  Li11  1  0.85636900  0.00352800  0.24804400  1
  Fe  Fe0  1  0.99870900  0.90343000  0.52546600  1
  Fe  Fe1  1  0.00129100  0.90343000  0.02546600  1
  Fe  Fe2  1  0.64742100  0.00154700  0.74979900  1
  Fe  Fe3  1  0.35257900  0.00154700  0.24979900  1
  Mo  Mo0  1  0.46776300  0.81649500  0.65514600  1
  Mo  Mo1  1  0.96789400  0.18276000  0.84370500  1
  Mo  Mo2  1  0.02812400  0.63330600  0.34282600  1
  Mo  Mo3  1  0.52532500  0.37011300  0.15645600  1
  Mo  Mo4  1  0.03210600  0.18276000  0.34370500  1
  Mo  Mo5  1  0.53223700  0.81649500  0.15514600  1
  Mo  Mo6  1  0.47467500  0.37011300  0.65645600  1
  Mo  Mo7  1  0.97187600  0.63330600  0.84282600  1
  Mo  Mo8  1  0.96642000  0.19096400  0.55828900  1
  Mo  Mo9  1  0.46828400  0.80720500  0.94319300  1
  Mo  Mo10  1  0.53171600  0.80720500  0.44319300  1
  Mo  Mo11  1  0.03358000  0.19096400  0.05828900  1
  O  O0  1  0.16741400  0.33968600  0.53871200  1
  O  O1  1  0.65823400  0.65578200  0.96369500  1
  O  O2  1  0.32040600  0.91654800  0.46539800  1
  O  O3  1  0.84184200  0.06737200  0.03849600  1
  O  O4  1  0.34176600  0.65578200  0.46369500  1
  O  O5  1  0.83258600  0.33968600  0.03871200  1
  O  O6  1  0.15815800  0.06737200  0.53849600  1
  O  O7  1  0.67959400  0.91654800  0.96539800  1
  O  O8  1  0.87598700  0.09190700  0.65775200  1
  O  O9  1  0.40889500  0.90891500  0.84275400  1
  O  O10  1  0.59110500  0.90891500  0.34275400  1
  O  O11  1  0.12401300  0.09190700  0.15775200  1
  O  O12  1  0.66065200  0.66527800  0.71078600  1
  O  O13  1  0.17011500  0.33266200  0.78886800  1
  O  O14  1  0.83136000  0.59521800  0.28348500  1
  O  O15  1  0.32899700  0.41297100  0.21353200  1
  O  O16  1  0.82988500  0.33266200  0.28886800  1
  O  O17  1  0.33934800  0.66527800  0.21078600  1
  O  O18  1  0.67100300  0.41297100  0.71353200  1
  O  O19  1  0.16864000  0.59521800  0.78348500  1
  O  O20  1  0.40592000  0.91353500  0.70515700  1
  O  O21  1  0.88493800  0.08633900  0.79398200  1
  O  O22  1  0.11838700  0.82886000  0.29298800  1
  O  O23  1  0.59169000  0.17007600  0.20747800  1
  O  O24  1  0.11506200  0.08633900  0.29398200  1
  O  O25  1  0.59408000  0.91353500  0.20515700  1
  O  O26  1  0.40831000  0.17007600  0.70747800  1
  O  O27  1  0.88161300  0.82886000  0.79298800  1
  O  O28  1  0.70036700  0.25340700  0.49563100  1
  O  O29  1  0.18685300  0.75653400  0.00661100  1
  O  O30  1  0.81314700  0.75653400  0.50661100  1
  O  O31  1  0.29963300  0.25340700  0.99563100  1
  O  O32  1  0.17824000  0.76597100  0.62191000  1
  O  O33  1  0.69192700  0.23951900  0.87257500  1
  O  O34  1  0.30118100  0.51583000  0.37200000  1
  O  O35  1  0.80433700  0.48405900  0.12809600  1
  O  O36  1  0.30807300  0.23951900  0.37257500  1
  O  O37  1  0.82176000  0.76597100  0.12191000  1
  O  O38  1  0.19566300  0.48405900  0.62809600  1
  O  O39  1  0.69881900  0.51583000  0.87200000  1
  O  O40  1  0.67554500  0.92808900  0.57551600  1
  O  O41  1  0.15929800  0.05897300  0.92757600  1
  O  O42  1  0.83705400  0.59363500  0.42322700  1
  O  O43  1  0.33543400  0.41497600  0.07571700  1
  O  O44  1  0.84070200  0.05897300  0.42757600  1
  O  O45  1  0.32445500  0.92808900  0.07551600  1
  O  O46  1  0.66456600  0.41497600  0.57571700  1
  O  O47  1  0.16294600  0.59363500  0.92322700  1
loop_
_geom_bond_atom_site_label_1
_geom_bond_atom_site_label_2
_geom_bond_distance
_geom_bond_site_symmetry_2
Li0 O39 2.151445 1_555
Li0 O33 2.182531 1_555
Li0 O13 2.219193 1_555
Li0 O19 2.229342 1_555
Li0 O18 2.232222 1_555
Li0 O12 2.276049 1_555
Li1 O38 2.123493 1_555
Li1 O18 2.150903 1_455
Li1 O19 2.220797 1_555
Li1 O13 2.226249 1_555
Li1 O32 2.275181 1_555
Li1 O12 2.288618 1_455
Li2 O35 2.123493 1_555
Li2 O15 2.150903 1_655
Li2 O14 2.220797 1_555
Li2 O16 2.226249 1_555
Li2 O37 2.275181 1_555
Li2 O17 2.288618 1_655
Li3 O34 2.151445 1_555
Li3 O36 2.182531 1_555
Li3 O16 2.219193 1_555
Li3 O14 2.229342 1_555
Li3 O15 2.232222 1_555
Li3 O17 2.276049 1_555
Li4 O33 2.052929 1_555
Li4 O31 2.098202 1_555
Li4 O3 2.164539 1_556
Li4 O41 2.169414 1_555
Li4 O45 2.237848 1_546
Li4 O7 2.320944 1_545
Li5 O34 2.111527 1_555
Li5 O46 2.127571 1_555
Li5 O42 2.165719 1_555
Li5 O28 2.170413 1_555
Li5 O0 2.185089 1_555
Li5 O4 2.242811 1_555
Li6 O43 2.089188 1_555
Li6 O35 2.093246 1_455
Li6 O47 2.123120 1_554
Li6 O1 2.213260 1_454
Li6 O5 2.218867 1_455
Li6 O29 2.313368 1_555
Li7 O36 2.052929 1_555
Li7 O28 2.098202 1_555
Li7 O6 2.164539 1_555
Li7 O44 2.169414 1_555
Li7 O40 2.237848 1_545
Li7 O2 2.320944 1_545
Li8 O46 2.089188 1_555
Li8 O38 2.093246 1_655
Li8 O42 2.123120 1_555
Li8 O4 2.213260 1_655
Li8 O0 2.218867 1_655
Li8 O30 2.313368 1_555
Li9 O39 2.111527 1_555
Li9 O43 2.127571 1_556
Li9 O47 2.165719 1_555
Li9 O31 2.170413 1_555
Li9 O5 2.185089 1_556
Li9 O1 2.242811 1_555
Li10 O26 2.057927 1_555
Li10 O21 2.077582 1_455
Li10 O20 2.098607 1_545
Li10 O27 2.104267 1_445
Li10 O8 2.126640 1_455
Li10 O9 2.179029 1_545
Li11 O23 2.057927 1_555
Li11 O24 2.077582 1_655
Li11 O25 2.098607 1_545
Li11 O22 2.104267 1_645
Li11 O11 2.126640 1_655
Li11 O10 2.179029 1_545
Fe0 O32 2.008591 1_655
Fe0 O44 2.030233 1_565
Fe0 O30 2.031397 1_555
Fe0 O2 2.043342 1_655
Fe0 O40 2.055914 1_555
Fe0 O6 2.064620 1_665
Fe1 O37 2.008591 1_455
Fe1 O41 2.030233 1_564
Fe1 O29 2.031397 1_555
Fe1 O7 2.043342 1_454
Fe1 O45 2.055914 1_555
Fe1 O3 2.064620 1_465
Fe2 O26 1.985139 1_555
Fe2 O21 1.997478 1_555
Fe2 O27 1.999433 1_545
Fe2 O8 2.024855 1_555
Fe2 O20 2.040055 1_545
Fe2 O9 2.068688 1_545
Fe3 O23 1.985139 1_555
Fe3 O24 1.997478 1_555
Fe3 O22 1.999433 1_545
Fe3 O11 2.024855 1_555
Fe3 O25 2.040055 1_545
Fe3 O10 2.068688 1_545
Mo0 O12 1.745943 1_555
Mo0 O20 1.815650 1_555
Mo0 O40 1.818903 1_555
Mo0 O32 1.841866 1_555
Mo1 O13 1.763017 1_655
Mo1 O33 1.771069 1_555
Mo1 O21 1.827724 1_555
Mo1 O41 1.849508 1_655
Mo2 O34 1.783120 1_555
Mo2 O14 1.789707 1_455
Mo2 O42 1.790835 1_455
Mo2 O22 1.856005 1_555
Mo3 O15 1.780721 1_555
Mo3 O43 1.781113 1_555
Mo3 O35 1.788684 1_555
Mo3 O23 1.868981 1_555
Mo4 O16 1.763017 1_455
Mo4 O36 1.771069 1_555
Mo4 O24 1.827724 1_555
Mo4 O44 1.849508 1_455
Mo5 O17 1.745943 1_555
Mo5 O25 1.815650 1_555
Mo5 O45 1.818903 1_555
Mo5 O37 1.841866 1_555
Mo6 O18 1.780721 1_555
Mo6 O46 1.781113 1_555
Mo6 O38 1.788684 1_555
Mo6 O26 1.868981 1_555
Mo7 O39 1.783120 1_555
Mo7 O19 1.789707 1_655
Mo7 O47 1.790835 1_655
Mo7 O27 1.856005 1_555
Mo8 O0 1.763433 1_655
Mo8 O28 1.777338 1_555
Mo8 O8 1.833043 1_555
Mo8 O6 1.849969 1_655
Mo9 O1 1.748642 1_555
Mo9 O9 1.815858 1_555
Mo9 O7 1.816598 1_555
Mo9 O29 1.852249 1_556
Mo10 O4 1.748642 1_555
Mo10 O10 1.815858 1_555
Mo10 O2 1.816598 1_555
Mo10 O30 1.852249 1_555
Mo11 O5 1.763433 1_455
Mo11 O31 1.777338 1_554
Mo11 O11 1.833043 1_555
Mo11 O3 1.849969 1_455
