# generated using pymatgen
data_KFe5N4
_symmetry_space_group_name_H-M   'P 1'
_cell_length_a   10.39773900
_cell_length_b   5.06186900
_cell_length_c   16.75356200
_cell_angle_alpha   90.00000000
_cell_angle_beta   90.00000000
_cell_angle_gamma   90.00000000
_symmetry_Int_Tables_number   1
_chemical_formula_structural   KFe5N4
_chemical_formula_sum   'K8 Fe40 N32'
_cell_volume   881.77335312
_cell_formula_units_Z   8
loop_
 _symmetry_equiv_pos_site_id
 _symmetry_equiv_pos_as_xyz
  1  'x, y, z'
loop_
 _atom_site_type_symbol
 _atom_site_label
 _atom_site_symmetry_multiplicity
 _atom_site_fract_x
 _atom_site_fract_y
 _atom_site_fract_z
 _atom_site_occupancy
  K  K0  1  0.82465000  0.11078400  0.49976700  1
  K  K1  1  0.32465000  0.38921600  0.50023300  1
  K  K2  1  0.17535000  0.61078400  0.00023300  1
  K  K3  1  0.67535000  0.88921600  0.99976700  1
  K  K4  1  0.17535000  0.88921600  0.50023300  1
  K  K5  1  0.67535000  0.61078400  0.49976700  1
  K  K6  1  0.82465000  0.38921600  0.99976700  1
  K  K7  1  0.32465000  0.11078400  0.00023300  1
  Fe  Fe0  1  0.84758000  0.22195900  0.18440200  1
  Fe  Fe1  1  0.34758100  0.27804100  0.81559800  1
  Fe  Fe2  1  0.15242000  0.72195900  0.31559800  1
  Fe  Fe3  1  0.65242000  0.77804100  0.68440200  1
  Fe  Fe4  1  0.15242000  0.77804100  0.81559800  1
  Fe  Fe5  1  0.65242000  0.72195900  0.18440200  1
  Fe  Fe6  1  0.84758000  0.27804100  0.68440200  1
  Fe  Fe7  1  0.34758100  0.22195900  0.31559800  1
  Fe  Fe8  1  0.66065900  0.62664200  0.32167500  1
  Fe  Fe9  1  0.16065900  0.87335800  0.67832500  1
  Fe  Fe10  1  0.33934100  0.12664200  0.17832500  1
  Fe  Fe11  1  0.83934100  0.37335800  0.82167500  1
  Fe  Fe12  1  0.33934100  0.37335800  0.67832500  1
  Fe  Fe13  1  0.83934100  0.12664200  0.32167500  1
  Fe  Fe14  1  0.66065900  0.87335800  0.82167500  1
  Fe  Fe15  1  0.16065900  0.62664200  0.17832500  1
  Fe  Fe16  1  0.90523200  0.65829400  0.29326600  1
  Fe  Fe17  1  0.40523200  0.84170600  0.70673400  1
  Fe  Fe18  1  0.09476800  0.15829400  0.20673400  1
  Fe  Fe19  1  0.59476800  0.34170600  0.79326600  1
  Fe  Fe20  1  0.09476800  0.34170600  0.70673400  1
  Fe  Fe21  1  0.59476800  0.15829400  0.29326600  1
  Fe  Fe22  1  0.90523200  0.84170600  0.79326600  1
  Fe  Fe23  1  0.40523200  0.65829400  0.20673400  1
  Fe  Fe24  1  0.53959500  0.08491700  0.43242200  1
  Fe  Fe25  1  0.03959500  0.41508300  0.56757800  1
  Fe  Fe26  1  0.46040500  0.58491700  0.06757800  1
  Fe  Fe27  1  0.96040500  0.91508300  0.93242200  1
  Fe  Fe28  1  0.46040500  0.91508300  0.56757800  1
  Fe  Fe29  1  0.96040500  0.58491700  0.43242200  1
  Fe  Fe30  1  0.53959500  0.41508300  0.93242200  1
  Fe  Fe31  1  0.03959500  0.08491700  0.06757800  1
  Fe  Fe32  1  0.57330200  0.21004000  0.14002300  1
  Fe  Fe33  1  0.07330200  0.28996000  0.85997700  1
  Fe  Fe34  1  0.42669800  0.71004000  0.35997700  1
  Fe  Fe35  1  0.92669800  0.78996000  0.64002300  1
  Fe  Fe36  1  0.42669800  0.78996000  0.85997700  1
  Fe  Fe37  1  0.92669800  0.71004000  0.14002300  1
  Fe  Fe38  1  0.57330200  0.28996000  0.64002300  1
  Fe  Fe39  1  0.07330200  0.21004000  0.35997700  1
  N  N0  1  0.00057800  0.37469200  0.13792700  1
  N  N1  1  0.50057800  0.12530800  0.86207300  1
  N  N2  1  0.99942200  0.87469200  0.36207300  1
  N  N3  1  0.49942200  0.62530800  0.63792700  1
  N  N4  1  0.99942200  0.62530800  0.86207300  1
  N  N5  1  0.49942200  0.87469200  0.13792700  1
  N  N6  1  0.00057800  0.12530800  0.63792700  1
  N  N7  1  0.50057800  0.37469200  0.36207300  1
  N  N8  1  0.57422100  0.33039900  0.03857400  1
  N  N9  1  0.07422100  0.16960100  0.96142600  1
  N  N10  1  0.42577900  0.83039900  0.46142600  1
  N  N11  1  0.92577900  0.66960100  0.53857400  1
  N  N12  1  0.42577900  0.66960100  0.96142600  1
  N  N13  1  0.92577900  0.83039900  0.03857400  1
  N  N14  1  0.57422100  0.16960100  0.53857400  1
  N  N15  1  0.07422100  0.33039900  0.46142600  1
  N  N16  1  0.68110700  0.35308000  0.21397500  1
  N  N17  1  0.18110700  0.14692000  0.78602500  1
  N  N18  1  0.31889300  0.85308000  0.28602500  1
  N  N19  1  0.81889300  0.64692000  0.71397500  1
  N  N20  1  0.31889300  0.64692000  0.78602500  1
  N  N21  1  0.81889300  0.85308000  0.21397500  1
  N  N22  1  0.68110700  0.14692000  0.71397500  1
  N  N23  1  0.18110700  0.35308000  0.28602500  1
  N  N24  1  0.82006700  0.46365400  0.36794500  1
  N  N25  1  0.32006700  0.03634600  0.63205500  1
  N  N26  1  0.17993300  0.96365400  0.13205500  1
  N  N27  1  0.67993300  0.53634600  0.86794500  1
  N  N28  1  0.17993300  0.53634600  0.63205500  1
  N  N29  1  0.67993300  0.96365400  0.36794500  1
  N  N30  1  0.82006700  0.03634600  0.86794500  1
  N  N31  1  0.32006700  0.46365400  0.13205500  1
loop_
_geom_bond_atom_site_label_1
_geom_bond_atom_site_label_2
_geom_bond_distance
_geom_bond_site_symmetry_2
K0 N11 2.552569 1_545
K0 N14 2.700299 1_555
K0 N29 2.774218 1_545
K1 N10 2.552569 1_555
K1 N15 2.700299 1_555
K1 N28 2.774218 1_555
K2 N9 2.552569 1_554
K2 N12 2.700299 1_554
K2 N31 2.774218 1_555
K3 N8 2.552569 1_566
K3 N13 2.700299 1_556
K3 N30 2.774218 1_565
K4 N15 2.552569 1_565
K4 N10 2.700299 1_555
K4 N25 2.774218 1_565
K5 N14 2.552569 1_555
K5 N11 2.700299 1_555
K5 N24 2.774218 1_555
K6 N13 2.552569 1_556
K6 N8 2.700299 1_556
K6 N27 2.774218 1_555
K7 N12 2.552569 1_544
K7 N9 2.700299 1_554
K7 N26 2.774218 1_545
Fe0 N16 1.918895 1_555
Fe0 N0 1.932539 1_655
Fe0 N21 1.954724 1_545
Fe1 N17 1.918904 1_555
Fe1 N1 1.932531 1_555
Fe1 N20 1.954725 1_555
Fe2 N18 1.918895 1_555
Fe2 N2 1.932539 1_455
Fe2 N23 1.954724 1_555
Fe3 N19 1.918895 1_555
Fe3 N3 1.932539 1_555
Fe3 N22 1.954724 1_565
Fe4 N20 1.918895 1_555
Fe4 N4 1.932539 1_455
Fe4 N17 1.954724 1_565
Fe5 N21 1.918895 1_555
Fe5 N5 1.932539 1_555
Fe5 N16 1.954724 1_555
Fe6 N22 1.918895 1_555
Fe6 N6 1.932539 1_655
Fe6 N19 1.954724 1_555
Fe7 N23 1.918904 1_555
Fe7 N7 1.932531 1_555
Fe7 N18 1.954725 1_545
Fe8 N29 1.884465 1_555
Fe8 N24 2.007194 1_555
Fe8 N7 2.203419 1_555
Fe8 N16 2.284383 1_555
Fe9 N28 1.884465 1_555
Fe9 N25 2.007194 1_565
Fe9 N6 2.203419 1_565
Fe9 N17 2.284383 1_565
Fe10 N31 1.884465 1_555
Fe10 N26 2.007194 1_545
Fe10 N5 2.203419 1_545
Fe10 N18 2.284383 1_545
Fe11 N30 1.884465 1_555
Fe11 N27 2.007194 1_555
Fe11 N4 2.203419 1_555
Fe11 N19 2.284383 1_555
Fe12 N25 1.884465 1_555
Fe12 N28 2.007194 1_555
Fe12 N3 2.203419 1_555
Fe12 N20 2.284383 1_555
Fe13 N24 1.884465 1_555
Fe13 N29 2.007194 1_545
Fe13 N2 2.203419 1_545
Fe13 N21 2.284383 1_545
Fe14 N27 1.884465 1_555
Fe14 N30 2.007194 1_565
Fe14 N1 2.203419 1_565
Fe14 N22 2.284383 1_565
Fe15 N26 1.884465 1_555
Fe15 N31 2.007194 1_555
Fe15 N0 2.203419 1_555
Fe15 N23 2.284383 1_555
Fe16 N24 1.822143 1_555
Fe16 N2 1.867583 1_555
Fe16 N21 1.882218 1_555
Fe17 N25 1.822143 1_565
Fe17 N3 1.867583 1_555
Fe17 N20 1.882218 1_555
Fe18 N26 1.822143 1_545
Fe18 N0 1.867583 1_555
Fe18 N23 1.882218 1_555
Fe19 N27 1.822143 1_555
Fe19 N1 1.867583 1_555
Fe19 N22 1.882218 1_555
Fe20 N28 1.822143 1_555
Fe20 N6 1.867583 1_555
Fe20 N17 1.882218 1_555
Fe21 N29 1.822143 1_545
Fe21 N7 1.867583 1_555
Fe21 N16 1.882218 1_555
Fe22 N30 1.822143 1_565
Fe22 N4 1.867583 1_555
Fe22 N19 1.882218 1_555
Fe23 N31 1.822143 1_555
Fe23 N5 1.867583 1_555
Fe23 N18 1.882218 1_555
Fe24 N10 1.815609 1_545
Fe24 N14 1.864447 1_555
Fe24 N29 1.916482 1_545
Fe24 N7 1.924885 1_555
Fe25 N11 1.815609 1_455
Fe25 N15 1.864447 1_555
Fe25 N28 1.916482 1_555
Fe25 N6 1.924885 1_555
Fe26 N8 1.815609 1_555
Fe26 N12 1.864447 1_554
Fe26 N31 1.916482 1_555
Fe26 N5 1.924885 1_555
Fe27 N9 1.815609 1_665
Fe27 N13 1.864447 1_556
Fe27 N30 1.916482 1_565
Fe27 N4 1.924885 1_555
Fe28 N14 1.815609 1_565
Fe28 N10 1.864447 1_555
Fe28 N25 1.916482 1_565
Fe28 N3 1.924885 1_555
Fe29 N15 1.815609 1_655
Fe29 N11 1.864447 1_555
Fe29 N24 1.916482 1_555
Fe29 N2 1.924885 1_555
Fe30 N12 1.815609 1_555
Fe30 N8 1.864447 1_556
Fe30 N27 1.916482 1_555
Fe30 N1 1.924885 1_555
Fe31 N13 1.815609 1_445
Fe31 N9 1.864447 1_554
Fe31 N26 1.916482 1_545
Fe31 N0 1.924885 1_555
Fe32 N8 1.805551 1_555
Fe32 N16 1.820920 1_555
Fe32 N5 1.863546 1_545
Fe33 N9 1.805551 1_555
Fe33 N17 1.820920 1_555
Fe33 N4 1.863546 1_455
Fe34 N10 1.805551 1_555
Fe34 N18 1.820920 1_555
Fe34 N7 1.863546 1_555
Fe35 N11 1.805551 1_555
Fe35 N19 1.820920 1_555
Fe35 N6 1.863546 1_665
Fe36 N12 1.805551 1_555
Fe36 N20 1.820920 1_555
Fe36 N1 1.863546 1_565
Fe37 N13 1.805551 1_555
Fe37 N21 1.820920 1_555
Fe37 N0 1.863546 1_655
Fe38 N14 1.805551 1_555
Fe38 N22 1.820920 1_555
Fe38 N3 1.863546 1_555
Fe39 N15 1.805551 1_555
Fe39 N23 1.820920 1_555
Fe39 N2 1.863546 1_445
