# generated using pymatgen
data_SrLiTi4CrO11
_symmetry_space_group_name_H-M   'P 1'
_cell_length_a   5.83419759
_cell_length_b   9.99170099
_cell_length_c   13.96127969
_cell_angle_alpha   90.00000000
_cell_angle_beta   90.00000000
_cell_angle_gamma   90.00000000
_symmetry_Int_Tables_number   1
_chemical_formula_structural   SrLiTi4CrO11
_chemical_formula_sum   'Sr4 Li4 Ti16 Cr4 O44'
_cell_volume   813.85266507
_cell_formula_units_Z   4
loop_
 _symmetry_equiv_pos_site_id
 _symmetry_equiv_pos_as_xyz
  1  'x, y, z'
loop_
 _atom_site_type_symbol
 _atom_site_label
 _atom_site_symmetry_multiplicity
 _atom_site_fract_x
 _atom_site_fract_y
 _atom_site_fract_z
 _atom_site_occupancy
  Sr  Sr0  1  0.24872990  0.39618137  0.59533176  1
  Sr  Sr1  1  0.24872990  0.10381863  0.09533176  1
  Sr  Sr2  1  0.74872990  0.60381863  0.40466824  1
  Sr  Sr3  1  0.74872990  0.89618137  0.90466824  1
  Li  Li0  1  0.25028655  0.07887992  0.54012669  1
  Li  Li1  1  0.25028655  0.42112008  0.04012669  1
  Li  Li2  1  0.75028655  0.92112008  0.45987331  1
  Li  Li3  1  0.75028655  0.57887992  0.95987331  1
  Ti  Ti0  1  0.24514972  0.72600668  0.50274796  1
  Ti  Ti1  1  0.24514972  0.77399332  0.00274796  1
  Ti  Ti2  1  0.74514972  0.27399332  0.49725204  1
  Ti  Ti3  1  0.74514972  0.22600668  0.99725204  1
  Ti  Ti4  1  0.24228895  0.06929659  0.83192845  1
  Ti  Ti5  1  0.24228895  0.43070341  0.33192845  1
  Ti  Ti6  1  0.74228895  0.93070341  0.16807155  1
  Ti  Ti7  1  0.74228895  0.56929659  0.66807155  1
  Ti  Ti8  1  0.25542852  0.61185969  0.83408872  1
  Ti  Ti9  1  0.25542852  0.88814031  0.33408872  1
  Ti  Ti10  1  0.75542852  0.38814031  0.16591128  1
  Ti  Ti11  1  0.75542852  0.11185969  0.66591128  1
  Ti  Ti12  1  0.49858583  0.65980476  0.17210382  1
  Ti  Ti13  1  0.99858583  0.34019524  0.82789618  1
  Ti  Ti14  1  0.99858583  0.15980476  0.32789618  1
  Ti  Ti15  1  0.49858583  0.84019524  0.67210382  1
  Cr  Cr0  1  0.00112312  0.83509512  0.67114616  1
  Cr  Cr1  1  0.50112312  0.16490488  0.32885384  1
  Cr  Cr2  1  0.50112312  0.33509512  0.82885384  1
  Cr  Cr3  1  0.00112312  0.66490488  0.17114616  1
  O  O0  1  0.24405577  0.24443997  0.76116745  1
  O  O1  1  0.24405577  0.25556003  0.26116745  1
  O  O2  1  0.74405577  0.75556003  0.23883255  1
  O  O3  1  0.74405577  0.74443997  0.73883255  1
  O  O4  1  0.25025151  0.94015895  0.93456570  1
  O  O5  1  0.25025151  0.55984105  0.43456570  1
  O  O6  1  0.75025151  0.05984105  0.06543430  1
  O  O7  1  0.75025151  0.44015895  0.56543430  1
  O  O8  1  0.24636044  0.43065185  0.89705129  1
  O  O9  1  0.24636044  0.06934815  0.39705129  1
  O  O10  1  0.74636044  0.56934815  0.10294871  1
  O  O11  1  0.74636044  0.93065185  0.60294871  1
  O  O12  1  0.02981981  0.68442684  0.91387060  1
  O  O13  1  0.47381086  0.81597209  0.41425928  1
  O  O14  1  0.52981981  0.31557316  0.08612940  1
  O  O15  1  0.97381086  0.18402791  0.58574072  1
  O  O16  1  0.97381086  0.31597209  0.08574072  1
  O  O17  1  0.52981981  0.18442684  0.58612940  1
  O  O18  1  0.47381086  0.68402791  0.91425928  1
  O  O19  1  0.02981981  0.81557316  0.41387060  1
  O  O20  1  0.25518277  0.75380225  0.74490151  1
  O  O21  1  0.25518277  0.74619775  0.24490151  1
  O  O22  1  0.75518277  0.24619775  0.25509849  1
  O  O23  1  0.75518277  0.25380225  0.75509849  1
  O  O24  1  0.00748165  0.17415096  0.91467049  1
  O  O25  1  0.49790003  0.32780729  0.41537366  1
  O  O26  1  0.50748165  0.82584904  0.08532951  1
  O  O27  1  0.99790003  0.67219271  0.58462634  1
  O  O28  1  0.99790003  0.82780729  0.08462634  1
  O  O29  1  0.50748165  0.67415096  0.58532951  1
  O  O30  1  0.49790003  0.17219271  0.91537366  1
  O  O31  1  0.00748165  0.32584904  0.41467049  1
  O  O32  1  0.25642163  0.89515702  0.58649743  1
  O  O33  1  0.25642163  0.60484298  0.08649743  1
  O  O34  1  0.75642163  0.10484298  0.41350257  1
  O  O35  1  0.75642163  0.39515702  0.91350257  1
  O  O36  1  0.99793154  0.49742827  0.74316582  1
  O  O37  1  0.49919141  0.00028844  0.24238134  1
  O  O38  1  0.49793154  0.50257173  0.25683418  1
  O  O39  1  0.99919141  -0.00028844  0.75761866  1
  O  O40  1  0.99919141  0.50028844  0.25761866  1
  O  O41  1  0.49793154  0.99742827  0.75683418  1
  O  O42  1  0.49919141  0.49971156  0.74238134  1
  O  O43  1  0.99793154  0.00257173  0.24316582  1
loop_
_geom_bond_atom_site_label_1
_geom_bond_atom_site_label_2
_geom_bond_distance
_geom_bond_site_symmetry_2
Li0 O32 1.946847 1_545
Li0 O9 1.999916 1_555
Li0 O15 2.027595 1_455
Li0 O17 2.045566 1_555
Li1 O33 1.946847 1_555
Li1 O8 1.999916 1_554
Li1 O16 2.027595 1_455
Li1 O14 2.045566 1_555
Li2 O34 1.946847 1_565
Li2 O11 1.999916 1_555
Li2 O13 2.027595 1_555
Li2 O19 2.045566 1_655
Li3 O35 1.946847 1_555
Li3 O10 1.999916 1_556
Li3 O18 2.027595 1_555
Li3 O12 2.045566 1_655
Cr0 O20 1.979166 1_555
Cr0 O3 1.990683 1_455
Cr0 O32 1.993816 1_555
Cr0 O11 2.006820 1_455
Cr0 O27 2.027007 1_455
Cr0 O39 2.040339 1_465
Cr1 O22 1.979166 1_555
Cr1 O1 1.990683 1_555
Cr1 O34 1.993816 1_555
Cr1 O9 2.006820 1_555
Cr1 O25 2.027007 1_555
Cr1 O37 2.040339 1_555
Cr2 O23 1.979166 1_555
Cr2 O0 1.990683 1_555
Cr2 O35 1.993816 1_555
Cr2 O8 2.006820 1_555
Cr2 O30 2.027007 1_555
Cr2 O42 2.040339 1_555
Cr3 O21 1.979166 1_555
Cr3 O2 1.990683 1_455
Cr3 O33 1.993816 1_555
Cr3 O10 2.006820 1_455
Cr3 O28 2.027007 1_455
Cr3 O40 2.040339 1_455
O0 Ti13 1.958128 1_455
O0 Ti4 2.009605 1_555
O0 Sr0 2.767667 1_555
O1 Ti14 1.958128 1_455
O1 Ti5 2.009605 1_555
O1 Sr1 2.767667 1_555
O2 Ti12 1.958128 1_555
O2 Ti6 2.009605 1_555
O2 Sr2 2.767667 1_555
O3 Ti15 1.958128 1_555
O3 Ti7 2.009605 1_555
O3 Sr3 2.767667 1_555
O4 Ti1 1.914038 1_556
O4 Ti4 1.928829 1_565
O4 Sr1 2.777024 1_566
O4 Sr3 2.970701 1_555
O4 Sr3 2.988084 1_455
O5 Ti0 1.914038 1_555
O5 Ti5 1.928829 1_555
O5 Sr0 2.777024 1_555
O5 Sr2 2.970701 1_555
O5 Sr2 2.988084 1_455
O6 Ti3 1.914038 1_554
O6 Ti6 1.928829 1_545
O6 Sr3 2.777024 1_544
O6 Sr1 2.970701 1_655
O6 Sr1 2.988084 1_555
O7 Ti2 1.914038 1_555
O7 Ti7 1.928829 1_555
O7 Sr2 2.777024 1_555
O7 Sr0 2.970701 1_655
O7 Sr0 2.988084 1_555
O8 Ti13 1.959266 1_455
O8 Ti8 2.013377 1_555
O9 Ti14 1.959266 1_455
O9 Ti9 2.013377 1_545
O10 Ti12 1.959266 1_555
O10 Ti10 2.013377 1_555
O11 Ti15 1.959266 1_555
O11 Ti11 2.013377 1_565
O12 Ti8 1.870536 1_555
O12 Ti1 1.979597 1_556
O12 Sr3 2.680009 1_455
O13 Ti9 1.842838 1_555
O13 Ti0 2.028296 1_555
O13 Sr2 2.661573 1_555
O14 Ti10 1.870536 1_555
O14 Ti3 1.979597 1_554
O14 Sr1 2.680009 1_555
O15 Ti11 1.842838 1_555
O15 Ti2 2.028296 1_555
O15 Sr0 2.661573 1_655
O16 Ti10 1.842838 1_555
O16 Ti3 2.028296 1_554
O16 Sr1 2.661573 1_655
O17 Ti11 1.870536 1_555
O17 Ti2 1.979597 1_555
O17 Sr0 2.680009 1_555
O18 Ti8 1.842838 1_555
O18 Ti1 2.028296 1_556
O18 Sr3 2.661573 1_555
O19 Ti9 1.870536 1_555
O19 Ti0 1.979597 1_555
O19 Sr2 2.680009 1_455
O20 Ti8 1.887292 1_555
O20 Ti15 1.947993 1_555
O21 Ti9 1.887292 1_555
O21 Ti12 1.947993 1_555
O22 Ti10 1.887292 1_555
O22 Ti14 1.947993 1_555
O23 Ti11 1.887292 1_555
O23 Ti13 1.947993 1_555
O24 Ti3 1.984982 1_455
O24 Ti13 2.054963 1_455
O24 Ti4 2.075748 1_555
O24 Sr1 2.972655 1_556
O24 Sr3 3.164223 1_445
O25 Ti2 1.917464 1_555
O25 Ti5 2.153640 1_555
O25 Sr0 2.982008 1_555
O25 Sr2 3.125610 1_555
O26 Ti1 1.984982 1_555
O26 Ti12 2.054963 1_555
O26 Ti6 2.075748 1_555
O26 Sr3 2.972655 1_554
O26 Sr1 3.164223 1_565
O27 Ti0 1.917464 1_655
O27 Ti7 2.153640 1_555
O27 Sr2 2.982008 1_555
O27 Sr0 3.125610 1_655
O28 Ti1 1.917464 1_655
O28 Ti6 2.153640 1_555
O28 Sr3 2.982008 1_554
O28 Sr1 3.125610 1_665
O29 Ti0 1.984982 1_555
O29 Ti15 2.054963 1_555
O29 Ti7 2.075748 1_555
O29 Sr2 2.972655 1_555
O29 Sr0 3.164223 1_555
O30 Ti3 1.917464 1_555
O30 Ti4 2.153640 1_555
O30 Sr1 2.982008 1_556
O30 Sr3 3.125610 1_545
O31 Ti2 1.984982 1_455
O31 Ti14 2.054963 1_455
O31 Ti5 2.075748 1_555
O31 Sr0 2.972655 1_555
O31 Sr2 3.164223 1_455
O32 Ti15 1.930316 1_555
O32 Ti0 2.056187 1_555
O33 Ti12 1.930316 1_555
O33 Ti1 2.056187 1_555
O34 Ti14 1.930316 1_555
O34 Ti2 2.056187 1_555
O35 Ti13 1.930316 1_555
O35 Ti3 2.056187 1_555
O36 Ti7 1.959413 1_555
O36 Ti13 1.966594 1_555
O36 Ti8 2.274979 1_655
O36 Sr0 2.724751 1_655
O37 Ti6 1.889773 1_545
O37 Ti9 2.217539 1_545
O37 Sr1 2.723988 1_555
O38 Ti5 1.959413 1_555
O38 Ti12 1.966594 1_555
O38 Ti10 2.274979 1_555
O38 Sr2 2.724751 1_555
O39 Ti4 1.889773 1_655
O39 Ti11 2.217539 1_555
O39 Sr3 2.723988 1_545
O40 Ti5 1.889773 1_655
O40 Ti10 2.217539 1_555
O40 Sr2 2.723988 1_555
O41 Ti4 1.959413 1_565
O41 Ti15 1.966594 1_555
O41 Ti11 2.274979 1_565
O41 Sr3 2.724751 1_555
O42 Ti7 1.889773 1_555
O42 Ti8 2.217539 1_555
O42 Sr0 2.723988 1_555
O43 Ti6 1.959413 1_545
O43 Ti14 1.966594 1_555
O43 Ti9 2.274979 1_645
O43 Sr1 2.724751 1_655
