# generated using pymatgen
data_SrCaEuSbO6
_symmetry_space_group_name_H-M   'P 1'
_cell_length_a   8.38461392
_cell_length_b   8.39570521
_cell_length_c   8.42673213
_cell_angle_alpha   90.00000000
_cell_angle_beta   90.00000000
_cell_angle_gamma   90.00000000
_symmetry_Int_Tables_number   1
_chemical_formula_structural   SrCaEuSbO6
_chemical_formula_sum   'Sr4 Ca4 Eu4 Sb4 O24'
_cell_volume   593.19767441
_cell_formula_units_Z   4
loop_
 _symmetry_equiv_pos_site_id
 _symmetry_equiv_pos_as_xyz
  1  'x, y, z'
loop_
 _atom_site_type_symbol
 _atom_site_label
 _atom_site_symmetry_multiplicity
 _atom_site_fract_x
 _atom_site_fract_y
 _atom_site_fract_z
 _atom_site_occupancy
  Sr  Sr0  1  0.00000000  0.50000000  0.50000000  1
  Sr  Sr1  1  0.50000000  0.50000000  0.00000000  1
  Sr  Sr2  1  0.50000000  0.00000000  0.00000000  1
  Sr  Sr3  1  0.00000000  0.00000000  0.50000000  1
  Ca  Ca0  1  0.50000000  0.00000000  0.50000000  1
  Ca  Ca1  1  0.00000000  0.50000000  0.00000000  1
  Ca  Ca2  1  0.00000000  0.00000000  0.00000000  1
  Ca  Ca3  1  0.50000000  0.50000000  0.50000000  1
  Eu  Eu0  1  0.75000000  0.75000000  0.75000000  1
  Eu  Eu1  1  0.25000000  0.25000000  0.75000000  1
  Eu  Eu2  1  0.25000000  0.75000000  0.25000000  1
  Eu  Eu3  1  0.75000000  0.25000000  0.25000000  1
  Sb  Sb0  1  0.25000000  0.25000000  0.25000000  1
  Sb  Sb1  1  0.75000000  0.75000000  0.25000000  1
  Sb  Sb2  1  0.75000000  0.25000000  0.75000000  1
  Sb  Sb3  1  0.25000000  0.75000000  0.75000000  1
  O  O0  1  0.01671085  0.20819836  0.28634781  1
  O  O1  1  0.98328915  0.79180164  0.28634781  1
  O  O2  1  0.98328915  0.20819836  0.71365219  1
  O  O3  1  0.01671085  0.79180164  0.71365219  1
  O  O4  1  0.28018155  0.01706299  0.20227026  1
  O  O5  1  0.28018155  0.98293701  0.79772974  1
  O  O6  1  0.71981845  0.98293701  0.20227026  1
  O  O7  1  0.71981845  0.01706299  0.79772974  1
  O  O8  1  0.19939183  0.29189055  0.01798410  1
  O  O9  1  0.80060817  0.29189055  0.98201590  1
  O  O10  1  0.19939183  0.70810945  0.98201590  1
  O  O11  1  0.80060817  0.70810945  0.01798410  1
  O  O12  1  0.48328915  0.29180164  0.21365219  1
  O  O13  1  0.51671085  0.70819836  0.21365219  1
  O  O14  1  0.51671085  0.29180164  0.78634781  1
  O  O15  1  0.48328915  0.70819836  0.78634781  1
  O  O16  1  0.21981845  0.48293701  0.29772974  1
  O  O17  1  0.21981845  0.51706299  0.70227026  1
  O  O18  1  0.78018155  0.51706299  0.29772974  1
  O  O19  1  0.78018155  0.48293701  0.70227026  1
  O  O20  1  0.30060817  0.20810945  0.48201590  1
  O  O21  1  0.69939183  0.20810945  0.51798410  1
  O  O22  1  0.30060817  0.79189055  0.51798410  1
  O  O23  1  0.69939183  0.79189055  0.48201590  1
loop_
_geom_bond_atom_site_label_1
_geom_bond_atom_site_label_2
_geom_bond_distance
_geom_bond_site_symmetry_2
Ca0 O22 2.422965 1_545
Ca0 O20 2.422965 1_555
Ca0 O23 2.422965 1_545
Ca0 O21 2.422965 1_555
Ca1 O9 2.422965 1_454
Ca1 O8 2.422965 1_555
Ca1 O10 2.422965 1_554
Ca1 O11 2.422965 1_455
Ca2 O6 2.905955 1_445
Ca2 O4 2.905955 1_555
Ca2 O5 2.905955 1_544
Ca2 O7 2.905955 1_454
Ca2 O10 2.970443 1_544
Ca2 O11 2.970443 1_445
Ca2 O8 2.970443 1_555
Ca2 O9 2.970443 1_454
Ca2 O3 2.982867 1_544
Ca2 O1 2.982867 1_445
Ca2 O0 2.982867 1_555
Ca2 O2 2.982867 1_454
Ca3 O18 2.905955 1_555
Ca3 O16 2.905955 1_555
Ca3 O19 2.905955 1_555
Ca3 O17 2.905955 1_555
Ca3 O20 2.970443 1_555
Ca3 O22 2.970443 1_555
Ca3 O23 2.970443 1_555
Ca3 O21 2.970443 1_555
Ca3 O13 2.982867 1_555
Ca3 O14 2.982867 1_555
Ca3 O15 2.982867 1_555
Ca3 O12 2.982867 1_555
Eu0 O3 2.284267 1_655
Eu0 O15 2.284267 1_555
Eu0 O7 2.291984 1_565
Eu0 O19 2.291984 1_555
Eu0 O11 2.324511 1_556
Eu0 O23 2.324511 1_555
Eu1 O2 2.284267 1_455
Eu1 O14 2.284267 1_555
Eu1 O17 2.291984 1_555
Eu1 O5 2.291984 1_545
Eu1 O20 2.324511 1_555
Eu1 O8 2.324511 1_556
Eu2 O1 2.284267 1_455
Eu2 O13 2.284267 1_555
Eu2 O4 2.291984 1_565
Eu2 O16 2.291984 1_555
Eu2 O10 2.324511 1_554
Eu2 O22 2.324511 1_555
Eu3 O0 2.284267 1_655
Eu3 O12 2.284267 1_555
Eu3 O6 2.291984 1_545
Eu3 O18 2.291984 1_555
Eu3 O21 2.324511 1_555
Eu3 O9 2.324511 1_554
O0 Sb0 2.010740 1_555
O0 Sr3 2.513253 1_555
O0 Sr0 3.043509 1_555
O1 Sb1 2.010740 1_555
O1 Sr3 2.513253 1_665
O1 Sr0 3.043509 1_655
O2 Sb2 2.010740 1_555
O2 Sr3 2.513253 1_655
O2 Sr0 3.043509 1_655
O3 Sb3 2.010740 1_555
O3 Sr3 2.513253 1_565
O3 Sr0 3.043509 1_555
O4 Sb0 2.012575 1_555
O4 Sr2 2.514509 1_555
O5 Sb3 2.012575 1_555
O5 Sr2 2.514509 1_566
O6 Sb1 2.012575 1_555
O6 Sr2 2.514509 1_565
O7 Sb2 2.012575 1_555
O7 Sr2 2.514509 1_556
O8 Sb0 2.031331 1_555
O8 Sr1 3.070603 1_555
O9 Sb2 2.031331 1_555
O9 Sr1 3.070603 1_556
O10 Sb3 2.031331 1_555
O10 Sr1 3.070603 1_556
O11 Sb1 2.031331 1_555
O11 Sr1 3.070603 1_555
O12 Sb0 2.010740 1_555
O12 Sr1 2.513253 1_555
O12 Sr2 3.043509 1_555
O13 Sb1 2.010740 1_555
O13 Sr1 2.513253 1_555
O13 Sr2 3.043509 1_565
O14 Sb2 2.010740 1_555
O14 Sr1 2.513253 1_556
O14 Sr2 3.043509 1_556
O15 Sb3 2.010740 1_555
O15 Sr1 2.513253 1_556
O15 Sr2 3.043509 1_566
O16 Sb0 2.012575 1_555
O16 Sr0 2.514509 1_555
O17 Sb3 2.012575 1_555
O17 Sr0 2.514509 1_555
O18 Sb1 2.012575 1_555
O18 Sr0 2.514509 1_655
O19 Sb2 2.012575 1_555
O19 Sr0 2.514509 1_655
O20 Sb0 2.031331 1_555
O20 Sr3 3.070603 1_555
O21 Sb2 2.031331 1_555
O21 Sr3 3.070603 1_655
O22 Sb3 2.031331 1_555
O22 Sr3 3.070603 1_565
O23 Sb1 2.031331 1_555
O23 Sr3 3.070603 1_665
