# generated using pymatgen
data_MgZn2
_symmetry_space_group_name_H-M   'P 1'
_cell_length_a   14.94415260
_cell_length_b   14.94415260
_cell_length_c   9.33949600
_cell_angle_alpha   90.00000000
_cell_angle_beta   90.00000000
_cell_angle_gamma   156.99083548
_symmetry_Int_Tables_number   1
_chemical_formula_structural   MgZn2
_chemical_formula_sum   'Mg16 Zn32'
_cell_volume   815.28162558
_cell_formula_units_Z   16
loop_
 _symmetry_equiv_pos_site_id
 _symmetry_equiv_pos_as_xyz
  1  'x, y, z'
loop_
 _atom_site_type_symbol
 _atom_site_label
 _atom_site_symmetry_multiplicity
 _atom_site_fract_x
 _atom_site_fract_y
 _atom_site_fract_z
 _atom_site_occupancy
  Mg  Mg0_0  1  0.05510150  0.44489850  0.12500000  1
  Mg  Mg0_1  1  0.05510150  0.44489850  0.62500000  1
  Mg  Mg0_2  1  0.05510150  0.94489850  0.12500000  1
  Mg  Mg0_3  1  0.05510150  0.94489850  0.62500000  1
  Mg  Mg0_4  1  0.55510150  0.44489850  0.12500000  1
  Mg  Mg0_5  1  0.55510150  0.44489850  0.62500000  1
  Mg  Mg0_6  1  0.55510150  0.94489850  0.12500000  1
  Mg  Mg0_7  1  0.55510150  0.94489850  0.62500000  1
  Mg  Mg1_0  1  0.44489850  0.05510150  0.37500000  1
  Mg  Mg1_1  1  0.44489850  0.05510150  0.87500000  1
  Mg  Mg1_2  1  0.44489850  0.55510150  0.37500000  1
  Mg  Mg1_3  1  0.44489850  0.55510150  0.87500000  1
  Mg  Mg1_4  1  0.94489850  0.05510150  0.37500000  1
  Mg  Mg1_5  1  0.94489850  0.05510150  0.87500000  1
  Mg  Mg1_6  1  0.94489850  0.55510150  0.37500000  1
  Mg  Mg1_7  1  0.94489850  0.55510150  0.87500000  1
  Zn  Zn0_0  1  0.22166700  0.27833300  0.12500000  1
  Zn  Zn0_1  1  0.22166700  0.27833300  0.62500000  1
  Zn  Zn0_2  1  0.22166700  0.77833300  0.12500000  1
  Zn  Zn0_3  1  0.22166700  0.77833300  0.62500000  1
  Zn  Zn0_4  1  0.72166700  0.27833300  0.12500000  1
  Zn  Zn0_5  1  0.72166700  0.27833300  0.62500000  1
  Zn  Zn0_6  1  0.72166700  0.77833300  0.12500000  1
  Zn  Zn0_7  1  0.72166700  0.77833300  0.62500000  1
  Zn  Zn1_0  1  0.38966950  0.11033050  0.12500000  1
  Zn  Zn1_1  1  0.38966950  0.11033050  0.62500000  1
  Zn  Zn1_2  1  0.38966950  0.61033050  0.12500000  1
  Zn  Zn1_3  1  0.38966950  0.61033050  0.62500000  1
  Zn  Zn1_4  1  0.88966950  0.11033050  0.12500000  1
  Zn  Zn1_5  1  0.88966950  0.11033050  0.62500000  1
  Zn  Zn1_6  1  0.88966950  0.61033050  0.12500000  1
  Zn  Zn1_7  1  0.88966950  0.61033050  0.62500000  1
  Zn  Zn2_0  1  0.11033050  0.38966950  0.37500000  1
  Zn  Zn2_1  1  0.11033050  0.38966950  0.87500000  1
  Zn  Zn2_2  1  0.11033050  0.88966950  0.37500000  1
  Zn  Zn2_3  1  0.11033050  0.88966950  0.87500000  1
  Zn  Zn2_4  1  0.61033050  0.38966950  0.37500000  1
  Zn  Zn2_5  1  0.61033050  0.38966950  0.87500000  1
  Zn  Zn2_6  1  0.61033050  0.88966950  0.37500000  1
  Zn  Zn2_7  1  0.61033050  0.88966950  0.87500000  1
  Zn  Zn3_0  1  0.27833300  0.22166700  0.37500000  1
  Zn  Zn3_1  1  0.27833300  0.22166700  0.87500000  1
  Zn  Zn3_2  1  0.27833300  0.72166700  0.37500000  1
  Zn  Zn3_3  1  0.27833300  0.72166700  0.87500000  1
  Zn  Zn3_4  1  0.77833300  0.22166700  0.37500000  1
  Zn  Zn3_5  1  0.77833300  0.22166700  0.87500000  1
  Zn  Zn3_6  1  0.77833300  0.72166700  0.37500000  1
  Zn  Zn3_7  1  0.77833300  0.72166700  0.87500000  1
loop_
_geom_bond_atom_site_label_1
_geom_bond_atom_site_label_2
_geom_bond_distance
_geom_bond_site_symmetry_2
Mg0_0 Zn2_1 2.840433 1_554
Mg0_0 Zn2_0 2.840433 1_555
Mg0_0 Zn0_2 2.862198 1_555
Mg0_0 Zn0_4 2.862198 1_455
Mg0_0 Zn3_3 2.878751 1_554
Mg0_0 Zn3_2 2.878751 1_555
Mg0_0 Zn3_5 2.878751 1_454
Mg0_0 Zn3_4 2.878751 1_455
Mg0_0 Zn1_4 2.890592 1_455
Mg0_0 Zn1_2 2.890592 1_555
Mg0_0 Mg0_6 2.980556 1_445
Mg0_0 Mg0_6 2.980556 1_555
Mg0_1 Zn2_0 2.840433 1_555
Mg0_1 Zn2_1 2.840433 1_555
Mg0_1 Zn0_3 2.862198 1_555
Mg0_1 Zn0_5 2.862198 1_455
Mg0_1 Zn3_2 2.878751 1_555
Mg0_1 Zn3_4 2.878751 1_455
Mg0_1 Zn3_3 2.878751 1_555
Mg0_1 Zn3_5 2.878751 1_455
Mg0_1 Zn1_5 2.890592 1_455
Mg0_1 Zn1_3 2.890592 1_555
Mg0_1 Mg0_7 2.980556 1_445
Mg0_1 Mg0_7 2.980556 1_555
Mg0_2 Zn2_2 2.840433 1_555
Mg0_2 Zn2_3 2.840433 1_554
Mg0_2 Zn0_6 2.862198 1_455
Mg0_2 Zn0_0 2.862198 1_565
Mg0_2 Zn3_7 2.878751 1_454
Mg0_2 Zn3_6 2.878751 1_455
Mg0_2 Zn3_0 2.878751 1_565
Mg0_2 Zn3_1 2.878751 1_564
Mg0_2 Zn1_0 2.890592 1_565
Mg0_2 Zn1_6 2.890592 1_455
Mg0_2 Mg0_4 2.980556 1_565
Mg0_2 Mg0_4 2.980556 1_455
Mg0_3 Zn2_2 2.840433 1_555
Mg0_3 Zn2_3 2.840433 1_555
Mg0_3 Zn0_7 2.862198 1_455
Mg0_3 Zn0_1 2.862198 1_565
Mg0_3 Zn3_6 2.878751 1_455
Mg0_3 Zn3_0 2.878751 1_565
Mg0_3 Zn3_7 2.878751 1_455
Mg0_3 Zn3_1 2.878751 1_565
Mg0_3 Zn1_1 2.890592 1_565
Mg0_3 Zn1_7 2.890592 1_455
Mg0_3 Mg0_5 2.980556 1_565
Mg0_3 Mg0_5 2.980556 1_455
Mg0_4 Zn2_4 2.840433 1_555
Mg0_4 Zn2_5 2.840433 1_554
Mg0_4 Zn0_6 2.862198 1_555
Mg0_4 Zn0_0 2.862198 1_555
Mg0_4 Zn3_6 2.878751 1_555
Mg0_4 Zn3_7 2.878751 1_554
Mg0_4 Zn3_1 2.878751 1_554
Mg0_4 Zn3_0 2.878751 1_555
Mg0_4 Zn1_0 2.890592 1_555
Mg0_4 Zn1_6 2.890592 1_555
Mg0_5 Zn2_4 2.840433 1_555
Mg0_5 Zn2_5 2.840433 1_555
Mg0_5 Zn0_7 2.862198 1_555
Mg0_5 Zn0_1 2.862198 1_555
Mg0_5 Zn3_6 2.878751 1_555
Mg0_5 Zn3_0 2.878751 1_555
Mg0_5 Zn3_7 2.878751 1_555
Mg0_5 Zn3_1 2.878751 1_555
Mg0_5 Zn1_1 2.890592 1_555
Mg0_5 Zn1_7 2.890592 1_555
Mg0_6 Zn2_6 2.840433 1_555
Mg0_6 Zn2_7 2.840433 1_554
Mg0_6 Zn0_2 2.862198 1_555
Mg0_6 Zn0_4 2.862198 1_565
Mg0_6 Zn3_5 2.878751 1_564
Mg0_6 Zn3_4 2.878751 1_565
Mg0_6 Zn3_3 2.878751 1_554
Mg0_6 Zn3_2 2.878751 1_555
Mg0_6 Zn1_2 2.890592 1_555
Mg0_6 Zn1_4 2.890592 1_565
Mg0_7 Zn2_6 2.840433 1_555
Mg0_7 Zn2_7 2.840433 1_555
Mg0_7 Zn0_3 2.862198 1_555
Mg0_7 Zn0_5 2.862198 1_565
Mg0_7 Zn3_4 2.878751 1_565
Mg0_7 Zn3_2 2.878751 1_555
Mg0_7 Zn3_5 2.878751 1_565
Mg0_7 Zn3_3 2.878751 1_555
Mg0_7 Zn1_3 2.890592 1_555
Mg0_7 Zn1_5 2.890592 1_565
Mg1_0 Zn1_1 2.840433 1_555
Mg1_0 Zn1_0 2.840433 1_555
Mg1_0 Zn3_4 2.862198 1_555
Mg1_0 Zn3_2 2.862198 1_545
Mg1_0 Zn0_3 2.878751 1_545
Mg1_0 Zn0_5 2.878751 1_555
Mg1_0 Zn0_4 2.878751 1_555
Mg1_0 Zn0_2 2.878751 1_545
Mg1_0 Zn2_2 2.890592 1_545
Mg1_0 Zn2_4 2.890592 1_555
Mg1_0 Mg1_6 2.980556 1_445
Mg1_0 Mg1_6 2.980556 1_555
Mg1_1 Zn1_0 2.840433 1_556
Mg1_1 Zn1_1 2.840433 1_555
Mg1_1 Zn3_5 2.862198 1_555
Mg1_1 Zn3_3 2.862198 1_545
Mg1_1 Zn0_2 2.878751 1_546
Mg1_1 Zn0_4 2.878751 1_556
Mg1_1 Zn0_3 2.878751 1_545
Mg1_1 Zn0_5 2.878751 1_555
Mg1_1 Zn2_3 2.890592 1_545
Mg1_1 Zn2_5 2.890592 1_555
Mg1_1 Mg1_7 2.980556 1_445
Mg1_1 Mg1_7 2.980556 1_555
Mg1_2 Zn1_3 2.840433 1_555
Mg1_2 Zn1_2 2.840433 1_555
Mg1_2 Zn3_0 2.862198 1_555
Mg1_2 Zn3_6 2.862198 1_555
Mg1_2 Zn0_1 2.878751 1_555
Mg1_2 Zn0_0 2.878751 1_555
Mg1_2 Zn0_7 2.878751 1_555
Mg1_2 Zn0_6 2.878751 1_555
Mg1_2 Zn2_6 2.890592 1_555
Mg1_2 Zn2_0 2.890592 1_555
Mg1_2 Mg1_4 2.980556 1_455
Mg1_2 Mg1_4 2.980556 1_565
Mg1_3 Zn1_2 2.840433 1_556
Mg1_3 Zn1_3 2.840433 1_555
Mg1_3 Zn3_1 2.862198 1_555
Mg1_3 Zn3_7 2.862198 1_555
Mg1_3 Zn0_0 2.878751 1_556
Mg1_3 Zn0_1 2.878751 1_555
Mg1_3 Zn0_6 2.878751 1_556
Mg1_3 Zn0_7 2.878751 1_555
Mg1_3 Zn2_7 2.890592 1_555
Mg1_3 Zn2_1 2.890592 1_555
Mg1_3 Mg1_5 2.980556 1_565
Mg1_3 Mg1_5 2.980556 1_455
Mg1_4 Zn1_5 2.840433 1_555
Mg1_4 Zn1_4 2.840433 1_555
Mg1_4 Zn3_0 2.862198 1_655
Mg1_4 Zn3_6 2.862198 1_545
Mg1_4 Zn0_1 2.878751 1_655
Mg1_4 Zn0_7 2.878751 1_545
Mg1_4 Zn0_0 2.878751 1_655
Mg1_4 Zn0_6 2.878751 1_545
Mg1_4 Zn2_6 2.890592 1_545
Mg1_4 Zn2_0 2.890592 1_655
Mg1_5 Zn1_4 2.840433 1_556
Mg1_5 Zn1_5 2.840433 1_555
Mg1_5 Zn3_1 2.862198 1_655
Mg1_5 Zn3_7 2.862198 1_545
Mg1_5 Zn0_6 2.878751 1_546
Mg1_5 Zn0_0 2.878751 1_656
Mg1_5 Zn0_7 2.878751 1_545
Mg1_5 Zn0_1 2.878751 1_655
Mg1_5 Zn2_7 2.890592 1_545
Mg1_5 Zn2_1 2.890592 1_655
Mg1_6 Zn1_7 2.840433 1_555
Mg1_6 Zn1_6 2.840433 1_555
Mg1_6 Zn3_2 2.862198 1_655
Mg1_6 Zn3_4 2.862198 1_555
Mg1_6 Zn0_3 2.878751 1_655
Mg1_6 Zn0_5 2.878751 1_555
Mg1_6 Zn0_4 2.878751 1_555
Mg1_6 Zn0_2 2.878751 1_655
Mg1_6 Zn2_2 2.890592 1_655
Mg1_6 Zn2_4 2.890592 1_555
Mg1_7 Zn1_6 2.840433 1_556
Mg1_7 Zn1_7 2.840433 1_555
Mg1_7 Zn3_3 2.862198 1_655
Mg1_7 Zn3_5 2.862198 1_555
Mg1_7 Zn0_4 2.878751 1_556
Mg1_7 Zn0_2 2.878751 1_656
Mg1_7 Zn0_3 2.878751 1_655
Mg1_7 Zn0_5 2.878751 1_555
Mg1_7 Zn2_3 2.890592 1_655
Mg1_7 Zn2_5 2.890592 1_555
Zn0_0 Zn1_2 2.826351 1_555
Zn0_0 Zn1_4 2.826351 1_455
Zn0_0 Zn3_1 2.864609 1_554
Zn0_0 Zn3_0 2.864609 1_555
Zn0_0 Zn0_6 2.980556 1_445
Zn0_0 Zn0_6 2.980556 1_555
Zn0_1 Zn1_3 2.826351 1_555
Zn0_1 Zn1_5 2.826351 1_455
Zn0_1 Zn3_0 2.864609 1_555
Zn0_1 Zn3_1 2.864609 1_555
Zn0_1 Zn0_7 2.980556 1_445
Zn0_1 Zn0_7 2.980556 1_555
Zn0_2 Zn1_6 2.826351 1_455
Zn0_2 Zn1_0 2.826351 1_565
Zn0_2 Zn3_2 2.864609 1_555
Zn0_2 Zn3_3 2.864609 1_554
Zn0_2 Zn0_4 2.980556 1_565
Zn0_2 Zn0_4 2.980556 1_455
Zn0_3 Zn1_7 2.826351 1_455
Zn0_3 Zn1_1 2.826351 1_565
Zn0_3 Zn3_2 2.864609 1_555
Zn0_3 Zn3_3 2.864609 1_555
Zn0_3 Zn0_5 2.980556 1_455
Zn0_3 Zn0_5 2.980556 1_565
Zn0_4 Zn1_6 2.826351 1_555
Zn0_4 Zn1_0 2.826351 1_555
Zn0_4 Zn3_5 2.864609 1_554
Zn0_4 Zn3_4 2.864609 1_555
Zn0_5 Zn1_7 2.826351 1_555
Zn0_5 Zn1_1 2.826351 1_555
Zn0_5 Zn3_4 2.864609 1_555
Zn0_5 Zn3_5 2.864609 1_555
Zn0_6 Zn1_4 2.826351 1_565
Zn0_6 Zn1_2 2.826351 1_555
Zn0_6 Zn3_6 2.864609 1_555
Zn0_6 Zn3_7 2.864609 1_554
Zn0_7 Zn1_5 2.826351 1_565
Zn0_7 Zn1_3 2.826351 1_555
Zn0_7 Zn3_6 2.864609 1_555
Zn0_7 Zn3_7 2.864609 1_555
Zn1_0 Zn2_4 2.900158 1_555
Zn1_0 Zn2_5 2.900158 1_554
Zn1_0 Zn2_2 2.900158 1_545
Zn1_0 Zn2_3 2.900158 1_544
Zn1_0 Zn1_6 2.980556 1_445
Zn1_0 Zn1_6 2.980556 1_555
Zn1_1 Zn2_4 2.900158 1_555
Zn1_1 Zn2_2 2.900158 1_545
Zn1_1 Zn2_5 2.900158 1_555
Zn1_1 Zn2_3 2.900158 1_545
Zn1_1 Zn1_7 2.980556 1_445
Zn1_1 Zn1_7 2.980556 1_555
Zn1_2 Zn2_7 2.900158 1_554
Zn1_2 Zn2_6 2.900158 1_555
Zn1_2 Zn2_1 2.900158 1_554
Zn1_2 Zn2_0 2.900158 1_555
Zn1_2 Zn1_4 2.980556 1_565
Zn1_2 Zn1_4 2.980556 1_455
Zn1_3 Zn2_6 2.900158 1_555
Zn1_3 Zn2_0 2.900158 1_555
Zn1_3 Zn2_7 2.900158 1_555
Zn1_3 Zn2_1 2.900158 1_555
Zn1_3 Zn1_5 2.980556 1_455
Zn1_3 Zn1_5 2.980556 1_565
Zn1_4 Zn2_6 2.900158 1_545
Zn1_4 Zn2_7 2.900158 1_544
Zn1_4 Zn2_0 2.900158 1_655
Zn1_4 Zn2_1 2.900158 1_654
Zn1_5 Zn2_6 2.900158 1_545
Zn1_5 Zn2_7 2.900158 1_545
Zn1_5 Zn2_0 2.900158 1_655
Zn1_5 Zn2_1 2.900158 1_655
Zn1_6 Zn2_2 2.900158 1_655
Zn1_6 Zn2_5 2.900158 1_554
Zn1_6 Zn2_3 2.900158 1_654
Zn1_6 Zn2_4 2.900158 1_555
Zn1_7 Zn2_2 2.900158 1_655
Zn1_7 Zn2_4 2.900158 1_555
Zn1_7 Zn2_3 2.900158 1_655
Zn1_7 Zn2_5 2.900158 1_555
Zn2_0 Zn3_2 2.826351 1_555
Zn2_0 Zn3_4 2.826351 1_455
Zn2_0 Zn2_6 2.980556 1_445
Zn2_0 Zn2_6 2.980556 1_555
Zn2_1 Zn3_3 2.826351 1_555
Zn2_1 Zn3_5 2.826351 1_455
Zn2_1 Zn2_7 2.980556 1_445
Zn2_1 Zn2_7 2.980556 1_555
Zn2_2 Zn3_6 2.826351 1_455
Zn2_2 Zn3_0 2.826351 1_565
Zn2_2 Zn2_4 2.980556 1_565
Zn2_2 Zn2_4 2.980556 1_455
Zn2_3 Zn3_7 2.826351 1_455
Zn2_3 Zn3_1 2.826351 1_565
Zn2_3 Zn2_5 2.980556 1_565
Zn2_3 Zn2_5 2.980556 1_455
Zn2_4 Zn3_6 2.826351 1_555
Zn2_4 Zn3_0 2.826351 1_555
Zn2_5 Zn3_7 2.826351 1_555
Zn2_5 Zn3_1 2.826351 1_555
Zn2_6 Zn3_4 2.826351 1_565
Zn2_6 Zn3_2 2.826351 1_555
Zn2_7 Zn3_5 2.826351 1_565
Zn2_7 Zn3_3 2.826351 1_555
Zn3_0 Zn3_6 2.980556 1_555
Zn3_0 Zn3_6 2.980556 1_445
Zn3_1 Zn3_7 2.980556 1_555
Zn3_1 Zn3_7 2.980556 1_445
Zn3_2 Zn3_4 2.980556 1_565
Zn3_2 Zn3_4 2.980556 1_455
Zn3_3 Zn3_5 2.980556 1_565
Zn3_3 Zn3_5 2.980556 1_455
