# generated using pymatgen
data_Ca2SnWO6
_symmetry_space_group_name_H-M   'P 1'
_cell_length_a   5.96321100
_cell_length_b   5.66101500
_cell_length_c   10.04079069
_cell_angle_alpha   55.67602817
_cell_angle_beta   90.00000000
_cell_angle_gamma   90.00000000
_symmetry_Int_Tables_number   1
_chemical_formula_structural   Ca2SnWO6
_chemical_formula_sum   'Ca4 Sn2 W2 O12'
_cell_volume   279.93043326
_cell_formula_units_Z   2
loop_
 _symmetry_equiv_pos_site_id
 _symmetry_equiv_pos_as_xyz
  1  'x, y, z'
loop_
 _atom_site_type_symbol
 _atom_site_label
 _atom_site_symmetry_multiplicity
 _atom_site_fract_x
 _atom_site_fract_y
 _atom_site_fract_z
 _atom_site_occupancy
  Ca  Ca0  1  0.05928600  0.27023300  0.74603100  1
  Ca  Ca1  1  0.55928600  0.72976700  0.75396900  1
  Ca  Ca2  1  0.94071400  0.72976700  0.25396900  1
  Ca  Ca3  1  0.44071400  0.27023300  0.24603100  1
  Sn  Sn0  1  0.00000000  0.50000000  0.00000000  1
  Sn  Sn1  1  0.50000000  0.50000000  0.50000000  1
  W  W0  1  0.00000000  0.00000000  0.50000000  1
  W  W1  1  0.50000000  0.00000000  0.00000000  1
  O  O0  1  0.27618700  0.77076000  0.57904600  1
  O  O1  1  0.77618700  0.22924000  0.92095400  1
  O  O2  1  0.72381300  0.22924000  0.42095400  1
  O  O3  1  0.22381300  0.77076000  0.07904600  1
  O  O4  1  0.16554100  0.34290500  0.44132900  1
  O  O5  1  0.66554100  0.65709500  0.05867100  1
  O  O6  1  0.83445900  0.65709500  0.55867100  1
  O  O7  1  0.33445900  0.34290500  0.94132900  1
  O  O8  1  0.43464800  0.08713300  0.78397600  1
  O  O9  1  0.93464800  0.91286700  0.71602400  1
  O  O10  1  0.06535200  0.08713300  0.28397600  1
  O  O11  1  0.56535200  0.91286700  0.21602400  1
loop_
_geom_bond_atom_site_label_1
_geom_bond_atom_site_label_2
_geom_bond_distance
_geom_bond_site_symmetry_2
Ca0 O9 2.328805 1_445
Ca0 O6 2.342324 1_455
Ca0 O1 2.351376 1_455
Ca0 O8 2.405091 1_555
Ca0 O0 2.674907 1_555
Ca0 O7 2.759881 1_555
Ca0 O4 2.917451 1_555
Ca0 O3 3.078277 1_546
Ca1 O8 2.328805 1_565
Ca1 O7 2.342324 1_555
Ca1 O0 2.351376 1_555
Ca1 O9 2.405091 1_555
Ca1 O1 2.674907 1_555
Ca1 O6 2.759881 1_555
Ca1 O5 2.917451 1_556
Ca1 O2 3.078277 1_565
Ca2 O10 2.328805 1_665
Ca2 O4 2.342324 1_655
Ca2 O3 2.351376 1_655
Ca2 O11 2.405091 1_555
Ca2 O2 2.674907 1_555
Ca2 O5 2.759881 1_555
Ca2 O6 2.917451 1_555
Ca2 O1 3.078277 1_564
Ca3 O11 2.328805 1_545
Ca3 O5 2.342324 1_555
Ca3 O2 2.351376 1_555
Ca3 O10 2.405091 1_555
Ca3 O3 2.674907 1_555
Ca3 O4 2.759881 1_555
Ca3 O7 2.917451 1_554
Ca3 O0 3.078277 1_545
O0 W0 1.965950 1_565
O0 Sn1 2.476400 1_555
O1 W1 1.965950 1_556
O1 Sn0 2.476400 1_656
O2 W0 1.965950 1_655
O2 Sn1 2.476400 1_555
O3 W1 1.965950 1_565
O3 Sn0 2.476400 1_555
O4 W0 1.949383 1_555
O4 Sn1 2.388845 1_555
O5 W1 1.949383 1_565
O5 Sn0 2.388845 1_655
O6 W0 1.949383 1_665
O6 Sn1 2.388845 1_555
O7 W1 1.949383 1_556
O7 Sn0 2.388845 1_556
O8 W1 1.973165 1_556
O8 Sn1 2.495825 1_555
O9 W0 1.973165 1_665
O9 Sn0 2.495825 1_656
O10 W0 1.973165 1_555
O10 Sn0 2.495825 1_555
O11 W1 1.973165 1_565
O11 Sn1 2.495825 1_555
