# generated using pymatgen
data_SrLa3Mn2Cr2O12
_symmetry_space_group_name_H-M   'P 1'
_cell_length_a   5.46406393
_cell_length_b   7.99640652
_cell_length_c   5.54193397
_cell_angle_alpha   90.25552317
_cell_angle_beta   90.00953032
_cell_angle_gamma   91.06819281
_symmetry_Int_Tables_number   1
_chemical_formula_structural   SrLa3Mn2Cr2O12
_chemical_formula_sum   'Sr1 La3 Mn2 Cr2 O12'
_cell_volume   242.09854012
_cell_formula_units_Z   1
loop_
 _symmetry_equiv_pos_site_id
 _symmetry_equiv_pos_as_xyz
  1  'x, y, z'
loop_
 _atom_site_type_symbol
 _atom_site_label
 _atom_site_symmetry_multiplicity
 _atom_site_fract_x
 _atom_site_fract_y
 _atom_site_fract_z
 _atom_site_occupancy
  Sr  Sr0  1  0.99984900  0.74919300  0.49448900  1
  La  La0  1  0.49821700  0.25109100  0.00384800  1
  La  La1  1  0.50148300  0.74967600  0.99859400  1
  La  La2  1  0.00044100  0.25060400  0.50204000  1
  Mn  Mn0  1  0.99970200  0.99964400  0.00136100  1
  Mn  Mn1  1  0.00000300  0.50183200  0.99905900  1
  Cr  Cr0  1  0.49965100  0.50069800  0.49950600  1
  Cr  Cr1  1  0.50014600  0.99882100  0.50058500  1
  O  O0  1  0.99634500  0.76756100  0.94330500  1
  O  O1  1  0.50054700  0.24875600  0.44286900  1
  O  O2  1  0.00444900  0.23393500  0.06822000  1
  O  O3  1  0.49931000  0.75062300  0.56315900  1
  O  O4  1  0.27917700  0.46725000  0.78471900  1
  O  O5  1  0.72337100  0.03509200  0.78672100  1
  O  O6  1  0.78046400  0.97280200  0.27085200  1
  O  O7  1  0.21851700  0.52100100  0.27314500  1
  O  O8  1  0.78204300  0.46316100  0.72439300  1
  O  O9  1  0.21831000  0.04052500  0.72818600  1
  O  O10  1  0.28373600  0.97279300  0.20716700  1
  O  O11  1  0.71423800  0.52494300  0.20778000  1
loop_
_geom_bond_atom_site_label_1
_geom_bond_atom_site_label_2
_geom_bond_distance
_geom_bond_site_symmetry_2
La0 O1 2.433213 1_555
La0 O4 2.447504 1_554
La0 O5 2.450699 1_554
La0 O11 2.710536 1_555
La0 O9 2.718156 1_554
La0 O2 2.722524 1_555
La0 O10 2.742439 1_545
La0 O8 2.757816 1_554
La0 O2 2.794918 1_655
La1 O3 2.413226 1_555
La1 O10 2.448679 1_556
La1 O11 2.453737 1_556
La1 O0 2.722494 1_555
La1 O6 2.767218 1_556
La1 O0 2.783407 1_455
La1 O4 2.802512 1_555
La1 O7 2.823038 1_556
La1 O5 2.824670 1_565
La2 O2 2.407426 1_555
La2 O8 2.426711 1_455
La2 O9 2.429553 1_555
La2 O1 2.750771 1_455
La2 O1 2.752576 1_555
La2 O7 2.762796 1_555
La2 O4 2.766156 1_555
La2 O5 2.771041 1_455
La2 O6 2.809897 1_445
Mn0 O0 1.881851 1_554
Mn0 O2 1.907854 1_665
Mn0 O6 1.924973 1_555
Mn0 O10 1.941558 1_655
Mn0 O5 1.947676 1_564
Mn0 O9 1.953476 1_664
Mn1 O7 1.935672 1_556
Mn1 O8 1.952557 1_455
Mn1 O11 1.954403 1_456
Mn1 O4 1.956476 1_555
Mn1 O0 2.149049 1_455
Mn1 O2 2.178494 1_556
Cr0 O7 1.992550 1_555
Cr0 O4 2.003394 1_555
Cr0 O11 2.005277 1_555
Cr0 O8 2.011025 1_555
Cr0 O3 2.027882 1_555
Cr0 O1 2.037648 1_555
Cr1 O6 2.005102 1_555
Cr1 O3 2.016205 1_555
Cr1 O5 2.017049 1_565
Cr1 O10 2.018155 1_555
Cr1 O9 2.022316 1_565
Cr1 O1 2.025385 1_565
O0 Sr0 2.491085 1_555
O0 Sr0 3.058883 1_556
O3 Sr0 2.755236 1_455
O3 Sr0 2.761618 1_555
O4 Sr0 3.187364 1_455
O5 Sr0 3.198153 1_545
O6 Sr0 2.503878 1_555
O7 Sr0 2.514699 1_455
O8 Sr0 2.862889 1_555
O9 Sr0 2.897969 1_445
O10 Sr0 2.839255 1_455
O11 Sr0 2.836389 1_555
