# generated using pymatgen
data_Mn23(BC)3
_symmetry_space_group_name_H-M   'P 1'
_cell_length_a   7.38797545
_cell_length_b   7.38797545
_cell_length_c   7.38797558
_cell_angle_alpha   60.17994095
_cell_angle_beta   60.17994095
_cell_angle_gamma   60.17993914
_symmetry_Int_Tables_number   1
_chemical_formula_structural   Mn23(BC)3
_chemical_formula_sum   'Mn23 B3 C3'
_cell_volume   286.30406527
_cell_formula_units_Z   1
loop_
 _symmetry_equiv_pos_site_id
 _symmetry_equiv_pos_as_xyz
  1  'x, y, z'
loop_
 _atom_site_type_symbol
 _atom_site_label
 _atom_site_symmetry_multiplicity
 _atom_site_fract_x
 _atom_site_fract_y
 _atom_site_fract_z
 _atom_site_occupancy
  Mn  Mn0  1  0.37893800  0.37893800  0.37893800  1
  Mn  Mn1  1  0.38299500  0.38299500  0.85471600  1
  Mn  Mn2  1  0.85471600  0.38299500  0.38299500  1
  Mn  Mn3  1  0.38299500  0.85471600  0.38299500  1
  Mn  Mn4  1  0.61718900  0.61718900  0.61718900  1
  Mn  Mn5  1  0.62009300  0.62009300  0.14225900  1
  Mn  Mn6  1  0.14225900  0.62009300  0.62009300  1
  Mn  Mn7  1  0.62009300  0.14225900  0.62009300  1
  Mn  Mn8  1  0.00129300  0.34609500  0.00129300  1
  Mn  Mn9  1  0.34609500  0.00129300  0.00129300  1
  Mn  Mn10  1  0.00129300  0.00129300  0.34609500  1
  Mn  Mn11  1  0.34246400  0.99360600  0.66023500  1
  Mn  Mn12  1  0.99360600  0.34246400  0.66023500  1
  Mn  Mn13  1  0.00114400  0.00114400  0.66407400  1
  Mn  Mn14  1  0.66023500  0.99360600  0.34246400  1
  Mn  Mn15  1  0.66407400  0.00114400  0.00114400  1
  Mn  Mn16  1  0.66023500  0.34246400  0.99360600  1
  Mn  Mn17  1  0.00114400  0.66407400  0.00114400  1
  Mn  Mn18  1  0.99360600  0.66023500  0.34246400  1
  Mn  Mn19  1  0.34246400  0.66023500  0.99360600  1
  Mn  Mn20  1  0.00699000  0.00699000  0.00699000  1
  Mn  Mn21  1  0.24833500  0.24833500  0.24833500  1
  Mn  Mn22  1  0.74840900  0.74840900  0.74840900  1
  B  B0  1  0.27185900  0.72550800  0.27185900  1
  B  B1  1  0.72550800  0.27185900  0.27185900  1
  B  B2  1  0.27185900  0.27185900  0.72550800  1
  C  C0  1  0.72225900  0.27559100  0.72225900  1
  C  C1  1  0.27559100  0.72225900  0.72225900  1
  C  C2  1  0.72225900  0.72225900  0.27559100  1
loop_
_geom_bond_atom_site_label_1
_geom_bond_atom_site_label_2
_geom_bond_distance
_geom_bond_site_symmetry_2
Mn0 Mn21 2.360273 1_555
Mn1 Mn21 2.380314 1_556
Mn2 Mn21 2.380314 1_655
Mn10 Mn20 2.464160 1_555
Mn11 Mn20 2.531578 1_566
Mn12 Mn20 2.531578 1_656
Mn13 Mn20 2.577136 1_556
Mn14 Mn20 2.531578 1_665
Mn15 Mn20 2.577136 1_655
Mn16 Mn20 2.531578 1_656
Mn17 Mn20 2.577136 1_565
Mn18 Mn20 2.531578 1_665
Mn19 Mn20 2.531578 1_566
Mn20 Mn8 2.464160 1_555
Mn20 Mn9 2.464160 1_555
Mn21 Mn3 2.380314 1_545
Mn22 Mn4 2.371424 1_555
Mn22 Mn6 2.381393 1_655
Mn22 Mn7 2.381393 1_565
Mn22 Mn5 2.381393 1_556
B0 Mn18 2.097603 1_455
B0 Mn19 2.097603 1_554
B0 Mn0 2.097839 1_555
B0 Mn10 2.101978 1_565
B0 Mn9 2.101978 1_565
B0 Mn5 2.107428 1_555
B0 Mn6 2.107428 1_555
B0 Mn3 2.118740 1_555
B0 Mn20 2.774350 1_565
B1 Mn14 2.097603 1_545
B1 Mn16 2.097603 1_554
B1 Mn0 2.097839 1_555
B1 Mn10 2.101978 1_655
B1 Mn8 2.101978 1_655
B1 Mn5 2.107428 1_555
B1 Mn7 2.107428 1_555
B1 Mn2 2.118740 1_555
B1 Mn20 2.774350 1_655
B2 Mn12 2.097603 1_455
B2 Mn11 2.097603 1_545
B2 Mn0 2.097840 1_555
B2 Mn9 2.101978 1_556
B2 Mn8 2.101978 1_556
B2 Mn7 2.107428 1_555
B2 Mn6 2.107428 1_555
B2 Mn1 2.118740 1_555
B2 Mn20 2.774350 1_556
C0 Mn7 2.038465 1_555
C0 Mn1 2.055349 1_555
C0 Mn2 2.055350 1_555
C0 Mn4 2.068048 1_555
C0 Mn12 2.078263 1_555
C0 Mn16 2.078263 1_555
C0 Mn13 2.090996 1_655
C0 Mn15 2.090996 1_556
C1 Mn6 2.038465 1_555
C1 Mn1 2.055349 1_555
C1 Mn3 2.055350 1_555
C1 Mn4 2.068048 1_555
C1 Mn11 2.078263 1_555
C1 Mn19 2.078263 1_555
C1 Mn13 2.090996 1_565
C1 Mn17 2.090996 1_556
C2 Mn5 2.038465 1_555
C2 Mn2 2.055349 1_555
C2 Mn3 2.055349 1_555
C2 Mn4 2.068048 1_555
C2 Mn18 2.078263 1_555
C2 Mn14 2.078263 1_555
C2 Mn15 2.090996 1_565
C2 Mn17 2.090996 1_655
