# generated using pymatgen
data_Mg2BiWO6
_symmetry_space_group_name_H-M   'P 1'
_cell_length_a   5.35508400
_cell_length_b   5.70620905
_cell_length_c   5.75101818
_cell_angle_alpha   70.70399716
_cell_angle_beta   65.84844147
_cell_angle_gamma   64.34637367
_symmetry_Int_Tables_number   1
_chemical_formula_structural   Mg2BiWO6
_chemical_formula_sum   'Mg2 Bi1 W1 O6'
_cell_volume   142.01292722
_cell_formula_units_Z   1
loop_
 _symmetry_equiv_pos_site_id
 _symmetry_equiv_pos_as_xyz
  1  'x, y, z'
loop_
 _atom_site_type_symbol
 _atom_site_label
 _atom_site_symmetry_multiplicity
 _atom_site_fract_x
 _atom_site_fract_y
 _atom_site_fract_z
 _atom_site_occupancy
  Mg  Mg0  1  0.74853100  0.93384800  0.65283100  1
  Mg  Mg1  1  0.26005300  0.33040700  0.06440000  1
  Bi  Bi0  1  0.48976900  0.53903300  0.47429000  1
  W  W0  1  0.99720800  0.95987100  0.04916500  1
  O  O0  1  0.94868300  0.16140900  0.30670300  1
  O  O1  1  0.07343400  0.69415600  0.81520600  1
  O  O2  1  0.32342100  0.08664200  0.83034300  1
  O  O3  1  0.71061800  0.19882000  0.89272300  1
  O  O4  1  0.27590800  0.61641000  0.19462700  1
  O  O5  1  0.68067800  0.83436900  0.37156800  1
loop_
_geom_bond_atom_site_label_1
_geom_bond_atom_site_label_2
_geom_bond_distance
_geom_bond_site_symmetry_2
Mg0 O2 1.988144 1_565
Mg0 O1 2.048133 1_655
Mg0 O5 2.082571 1_555
Mg0 O0 2.132671 1_565
Mg0 O3 2.261479 1_565
Mg1 O4 2.052150 1_555
Mg1 O0 2.062723 1_455
Mg1 O2 2.077692 1_554
Mg1 O3 2.081386 1_554
Mg1 O1 2.184213 1_554
Bi0 O5 2.138648 1_555
Bi0 O4 2.166433 1_555
Bi0 O1 2.336550 1_555
Bi0 O0 2.541792 1_555
O0 W0 2.033654 1_545
O1 W0 2.153809 1_456
O2 W0 1.962704 1_446
O3 W0 1.879149 1_546
O4 W0 2.042983 1_455
O5 W0 2.103705 1_555
