# generated using pymatgen
data_K2Mn3(AsO4)3
_symmetry_space_group_name_H-M   'P 1'
_cell_length_a   8.98048224
_cell_length_b   8.98048224
_cell_length_c   6.99739580
_cell_angle_alpha   74.05094913
_cell_angle_beta   74.05094913
_cell_angle_gamma   93.05908543
_symmetry_Int_Tables_number   1
_chemical_formula_structural   K2Mn3(AsO4)3
_chemical_formula_sum   'K4 Mn6 As6 O24'
_cell_volume   516.62942584
_cell_formula_units_Z   2
loop_
 _symmetry_equiv_pos_site_id
 _symmetry_equiv_pos_as_xyz
  1  'x, y, z'
loop_
 _atom_site_type_symbol
 _atom_site_label
 _atom_site_symmetry_multiplicity
 _atom_site_fract_x
 _atom_site_fract_y
 _atom_site_fract_z
 _atom_site_occupancy
  K  K0  1  0.01083521  0.98916479  0.25000000  1
  K  K1  1  0.98916479  0.01083521  0.75000000  1
  K  K2  1  0.50000000  0.50000000  0.50000000  1
  K  K3  1  0.50000000  0.50000000  -0.00000000  1
  Mn  Mn0  1  0.93843352  0.61885047  0.63103910  1
  Mn  Mn1  1  0.38114953  0.06156648  0.86896090  1
  Mn  Mn2  1  0.06156648  0.38114953  0.36896090  1
  Mn  Mn3  1  0.61885047  0.93843352  0.13103910  1
  Mn  Mn4  1  0.74032799  0.25967201  0.25000000  1
  Mn  Mn5  1  0.25967201  0.74032799  0.75000000  1
  As  As0  1  0.12272017  0.35337203  0.87890912  1
  As  As1  1  0.64662797  0.87727983  0.62109088  1
  As  As2  1  0.87727983  0.64662797  0.12109088  1
  As  As3  1  0.35337203  0.12272017  0.37890912  1
  As  As4  1  0.72128131  0.27871869  0.75000000  1
  As  As5  1  0.27871869  0.72128131  0.25000000  1
  O  O0  1  0.99025909  0.31948003  0.12057746  1
  O  O1  1  0.68051997  0.00974091  0.37942254  1
  O  O2  1  0.00974091  0.68051997  0.87942254  1
  O  O3  1  0.31948003  0.99025909  0.62057746  1
  O  O4  1  0.19064215  0.18074393  0.87293332  1
  O  O5  1  0.81925607  0.80935785  0.62706668  1
  O  O6  1  0.80935785  0.81925607  0.12706668  1
  O  O7  1  0.18074393  0.19064215  0.37293332  1
  O  O8  1  0.83570624  0.24611578  0.52792737  1
  O  O9  1  0.75388422  0.16429376  0.97207263  1
  O  O10  1  0.16429376  0.75388422  0.47207263  1
  O  O11  1  0.24611578  0.83570624  0.02792737  1
  O  O12  1  0.26563944  0.49849894  0.83496974  1
  O  O13  1  0.50150106  0.73436056  0.66503026  1
  O  O14  1  0.73436056  0.50150106  0.16503026  1
  O  O15  1  0.49849894  0.26563944  0.33496974  1
  O  O16  1  0.03318175  0.40654026  0.68741015  1
  O  O17  1  0.59345974  0.96681825  0.81258985  1
  O  O18  1  0.96681825  0.59345974  0.31258985  1
  O  O19  1  0.40654026  0.03318175  0.18741015  1
  O  O20  1  0.52661684  0.25566268  0.77639761  1
  O  O21  1  0.74433732  0.47338316  0.72360239  1
  O  O22  1  0.47338316  0.74433732  0.22360239  1
  O  O23  1  0.25566268  0.52661684  0.27639761  1
loop_
_geom_bond_atom_site_label_1
_geom_bond_atom_site_label_2
_geom_bond_distance
_geom_bond_site_symmetry_2
K0 O5 2.719633 1_455
K0 O4 2.719633 1_564
K0 O7 2.761169 1_565
K0 O6 2.761169 1_455
K0 O0 2.885805 1_465
K0 O1 2.885805 1_465
K0 O11 2.908902 1_555
K0 O10 2.908902 1_555
K1 O6 2.719633 1_546
K1 O7 2.719633 1_655
K1 O4 2.761169 1_655
K1 O5 2.761169 1_545
K1 O2 2.885805 1_645
K1 O3 2.885805 1_645
K1 O8 2.908902 1_555
K1 O9 2.908902 1_555
K2 O22 2.567162 1_555
K2 O20 2.567162 1_555
K2 O15 2.665437 1_555
K2 O13 2.665437 1_555
K2 O14 2.681841 1_555
K2 O12 2.681841 1_555
K2 O21 3.009526 1_555
K2 O23 3.009526 1_555
K3 O21 2.567162 1_554
K3 O23 2.567162 1_555
K3 O12 2.665437 1_554
K3 O14 2.665437 1_555
K3 O15 2.681841 1_555
K3 O13 2.681841 1_554
K3 O22 3.009526 1_555
K3 O20 3.009526 1_554
Mn0 O21 1.958553 1_555
Mn0 O5 2.063711 1_555
Mn0 O16 2.111680 1_655
Mn0 O10 2.139684 1_655
Mn0 O2 2.200085 1_655
Mn0 O18 2.248475 1_555
Mn1 O20 1.958553 1_555
Mn1 O4 2.063711 1_555
Mn1 O17 2.111680 1_545
Mn1 O11 2.139684 1_546
Mn1 O3 2.200085 1_545
Mn1 O19 2.248475 1_556
Mn2 O23 1.958553 1_555
Mn2 O7 2.063711 1_555
Mn2 O18 2.111680 1_455
Mn2 O8 2.139684 1_455
Mn2 O0 2.200085 1_455
Mn2 O16 2.248475 1_555
Mn3 O22 1.958553 1_555
Mn3 O6 2.063711 1_555
Mn3 O19 2.111680 1_565
Mn3 O9 2.139684 1_564
Mn3 O1 2.200085 1_565
Mn3 O17 2.248475 1_554
Mn4 O15 2.095985 1_555
Mn4 O14 2.095985 1_555
Mn4 O0 2.152522 1_555
Mn4 O1 2.152522 1_555
Mn4 O8 2.308046 1_555
Mn4 O9 2.308046 1_554
Mn5 O12 2.095985 1_555
Mn5 O13 2.095985 1_555
Mn5 O3 2.152522 1_555
Mn5 O2 2.152522 1_555
Mn5 O11 2.308046 1_556
Mn5 O10 2.308046 1_555
As0 O12 1.680729 1_555
As0 O4 1.702860 1_555
As0 O0 1.714740 1_456
As0 O16 1.718036 1_555
As1 O13 1.680729 1_555
As1 O5 1.702860 1_555
As1 O1 1.714740 1_565
As1 O17 1.718036 1_555
As2 O14 1.680729 1_555
As2 O6 1.702860 1_555
As2 O2 1.714740 1_654
As2 O18 1.718036 1_555
As3 O15 1.680729 1_555
As3 O7 1.702860 1_555
As3 O3 1.714740 1_545
As3 O19 1.718036 1_555
As4 O20 1.701767 1_555
As4 O21 1.701767 1_555
As4 O8 1.720747 1_555
As4 O9 1.720747 1_555
As5 O23 1.701767 1_555
As5 O22 1.701767 1_555
As5 O10 1.720747 1_555
As5 O11 1.720747 1_555
