# generated using pymatgen
data_K7RbTi8(PO5)8
_symmetry_space_group_name_H-M   'P 1'
_cell_length_a   6.48080500
_cell_length_b   10.70379381
_cell_length_c   13.00580661
_cell_angle_alpha   89.99248187
_cell_angle_beta   89.91446032
_cell_angle_gamma   89.97765721
_symmetry_Int_Tables_number   1
_chemical_formula_structural   K7RbTi8(PO5)8
_chemical_formula_sum   'K7 Rb1 Ti8 P8 O40'
_cell_volume   902.20132389
_cell_formula_units_Z   1
loop_
 _symmetry_equiv_pos_site_id
 _symmetry_equiv_pos_as_xyz
  1  'x, y, z'
loop_
 _atom_site_type_symbol
 _atom_site_label
 _atom_site_symmetry_multiplicity
 _atom_site_fract_x
 _atom_site_fract_y
 _atom_site_fract_z
 _atom_site_occupancy
  K  K0  1  0.19323200  0.56925500  0.39564900  1
  K  K1  1  0.30673500  0.56922100  0.89567100  1
  K  K2  1  0.69325000  0.06923500  0.10436100  1
  K  K3  1  0.72191100  0.31161300  0.87719800  1
  K  K4  1  0.27812000  0.81154400  0.12288500  1
  K  K5  1  0.22189300  0.81144100  0.62293900  1
  K  K6  1  0.77804200  0.31165900  0.37695000  1
  Rb  Rb0  1  0.81169200  0.06983100  0.60439600  1
  Ti  Ti0  1  0.23734600  0.25495300  0.74733200  1
  Ti  Ti1  1  0.76328500  0.75454000  0.25291900  1
  Ti  Ti2  1  0.73656800  0.75443300  0.75309700  1
  Ti  Ti3  1  0.26334200  0.25463300  0.24693900  1
  Ti  Ti4  1  0.00420400  0.00228500  0.87178700  1
  Ti  Ti5  1  0.99611500  0.50239400  0.12859800  1
  Ti  Ti6  1  0.50399600  0.50253000  0.62856200  1
  Ti  Ti7  1  0.49575900  0.00238000  0.37110100  1
  P  P0  1  0.16322500  0.26042600  0.99913400  1
  P  P1  1  0.83677500  0.76039000  0.00094300  1
  P  P2  1  0.66301900  0.76015600  0.50086600  1
  P  P3  1  0.33596300  0.26096300  0.49881500  1
  P  P4  1  0.00024100  0.51283600  0.68129100  1
  P  P5  1  0.99976300  0.01273900  0.31818300  1
  P  P6  1  0.49997700  0.01274600  0.81900300  1
  P  P7  1  0.49967600  0.51289400  0.18130900  1
  O  O0  1  0.30384100  0.24024700  0.09514700  1
  O  O1  1  0.69619800  0.74022500  0.90491900  1
  O  O2  1  0.80397900  0.74020400  0.40476500  1
  O  O3  1  0.19686100  0.24078600  0.59546600  1
  O  O4  1  0.01476200  0.14950400  0.98668700  1
  O  O5  1  0.98531700  0.64943500  0.01349400  1
  O  O6  1  0.51460100  0.64927800  0.51354300  1
  O  O7  1  0.48286800  0.14941400  0.48522000  1
  O  O8  1  0.96185000  0.62850900  0.75180500  1
  O  O9  1  0.03846600  0.12855000  0.24801600  1
  O  O10  1  0.46100700  0.12843500  0.74869300  1
  O  O11  1  0.53797000  0.62850000  0.25180900  1
  O  O12  1  0.04062600  0.40017200  0.75345600  1
  O  O13  1  0.95959600  0.89989600  0.24630500  1
  O  O14  1  0.54036400  0.89989600  0.74690700  1
  O  O15  1  0.45909900  0.40014400  0.25342200  1
  O  O16  1  0.19042600  0.54162200  0.61320100  1
  O  O17  1  0.80846900  0.04157700  0.38539500  1
  O  O18  1  0.69020800  0.04167000  0.88668700  1
  O  O19  1  0.30975600  0.54164200  0.11325100  1
  O  O20  1  0.03990600  0.14271900  0.77946300  1
  O  O21  1  0.96184900  0.64220200  0.22210300  1
  O  O22  1  0.53806700  0.64219300  0.72219400  1
  O  O23  1  0.46169000  0.14225000  0.27768400  1
  O  O24  1  0.03275500  0.38248800  0.01171200  1
  O  O25  1  0.96710300  0.88241800  0.98845800  1
  O  O26  1  0.53229700  0.88211100  0.48807900  1
  O  O27  1  0.46734000  0.38244500  0.51154600  1
  O  O28  1  0.30154600  0.28165200  0.90271500  1
  O  O29  1  0.69866800  0.78142600  0.09746400  1
  O  O30  1  0.80087000  0.78074800  0.59734800  1
  O  O31  1  0.19786000  0.28200000  0.40256700  1
  O  O32  1  0.81045100  0.48583400  0.61275600  1
  O  O33  1  0.18900300  0.98580900  0.38717700  1
  O  O34  1  0.31017000  0.98560900  0.88765200  1
  O  O35  1  0.68979300  0.48584900  0.11269500  1
  O  O36  1  0.95817600  0.88851700  0.77580000  1
  O  O37  1  0.04196800  0.38881100  0.22459800  1
  O  O38  1  0.45821400  0.38887100  0.72467900  1
  O  O39  1  0.54188300  0.88864300  0.27519900  1
loop_
_geom_bond_atom_site_label_1
_geom_bond_atom_site_label_2
_geom_bond_distance
_geom_bond_site_symmetry_2
K0 O6 2.726489 1_555
K0 O21 2.821625 1_455
K0 O16 2.844850 1_555
K0 O11 2.980225 1_555
K0 O27 3.070917 1_555
K0 O31 3.076158 1_555
K0 O37 3.106391 1_555
K0 O15 3.107412 1_555
K0 O2 3.117960 1_455
K1 O5 2.722846 1_456
K1 O22 2.817545 1_555
K1 O19 2.845216 1_556
K1 O8 2.985063 1_455
K1 O24 3.069117 1_556
K1 O28 3.079626 1_555
K1 O38 3.103082 1_555
K1 O12 3.111647 1_555
K1 O1 3.120916 1_555
K2 O4 2.722795 1_654
K2 O23 2.816696 1_555
K2 O18 2.846496 1_554
K2 O9 2.985487 1_655
K2 O25 3.067703 1_544
K2 O29 3.082150 1_545
K2 O39 3.103145 1_545
K2 O13 3.111145 1_545
K2 O0 3.119492 1_555
K3 O38 2.747329 1_555
K3 O28 2.762746 1_555
K3 O24 2.776057 1_656
K3 O12 2.783202 1_655
K3 O18 2.899388 1_555
K3 O4 2.940327 1_655
K3 O20 3.020091 1_655
K3 O10 3.083592 1_555
K4 O39 2.745714 1_555
K4 O29 2.763726 1_555
K4 O25 2.775600 1_454
K4 O13 2.778710 1_455
K4 O19 2.898874 1_555
K4 O5 2.940602 1_455
K4 O21 3.024285 1_455
K4 O11 3.080783 1_555
K5 O36 2.746507 1_455
K5 O30 2.768977 1_455
K5 O26 2.772308 1_555
K5 O14 2.787060 1_555
K5 O16 2.898156 1_555
K5 O6 2.936961 1_555
K5 O22 3.025116 1_555
K5 O8 3.078392 1_455
K6 O37 2.743058 1_655
K6 O31 2.759768 1_655
K6 O27 2.771578 1_555
K6 O15 2.785437 1_555
K6 O17 2.899621 1_555
K6 O7 2.941446 1_555
K6 O23 3.028151 1_555
K6 O9 3.080871 1_655
O0 P0 1.561928 1_554
O0 Ti3 1.997117 1_555
O1 P1 1.562018 1_556
O1 Ti2 1.997224 1_555
O2 P2 1.561679 1_555
O2 Ti1 1.998673 1_555
O3 P3 1.560814 1_555
O3 Ti0 1.998667 1_555
O3 Rb0 3.097674 1_455
O4 P0 1.537209 1_555
O4 Ti4 2.173010 1_555
O5 P1 1.537334 1_555
O5 Ti5 2.173183 1_555
O6 P2 1.536642 1_555
O6 Ti6 2.170008 1_555
O7 P3 1.536874 1_555
O7 Ti7 2.164928 1_555
O7 Rb0 2.770834 1_555
O8 P4 1.560554 1_655
O8 Ti2 1.986717 1_555
O9 P5 1.559367 1_455
O9 Ti3 1.986691 1_555
O10 P6 1.559983 1_555
O10 Ti0 1.983389 1_555
O10 Rb0 3.011181 1_555
O11 P7 1.560367 1_555
O11 Ti1 1.988505 1_555
O12 P4 1.550441 1_555
O12 Ti0 2.011479 1_555
O13 P5 1.549787 1_565
O13 Ti1 2.011942 1_555
O14 P6 1.551168 1_565
O14 Ti2 2.011552 1_555
O14 Rb0 3.134942 1_565
O15 P7 1.550643 1_555
O15 Ti3 2.011064 1_555
O16 P4 1.547680 1_555
O16 Ti6 2.084540 1_555
O17 P5 1.546901 1_555
O17 Ti7 2.078354 1_555
O17 Rb0 2.864443 1_555
O18 P6 1.547346 1_555
O18 Ti4 2.086734 1_655
O19 P7 1.547907 1_555
O19 Ti5 2.085044 1_455
O20 Ti0 1.804050 1_555
O20 Ti4 1.937483 1_555
O20 Rb0 2.826975 1_455
O21 Ti1 1.805512 1_555
O21 Ti5 1.940898 1_555
O22 Ti2 1.806296 1_555
O22 Ti6 1.941141 1_555
O23 Ti3 1.805413 1_555
O23 Ti7 1.940716 1_555
O24 P0 1.564452 1_554
O24 Ti5 2.003452 1_455
O25 P1 1.564041 1_556
O25 Ti4 2.001282 1_665
O26 P2 1.564896 1_555
O26 Ti7 2.007054 1_565
O26 Rb0 3.101027 1_565
O27 P3 1.563495 1_555
O27 Ti6 2.006632 1_555
O28 P0 1.557071 1_555
O28 Ti0 2.083626 1_555
O29 P1 1.556993 1_555
O29 Ti1 2.085237 1_555
O30 P2 1.557203 1_555
O30 Ti2 2.086539 1_555
O30 Rb0 3.096479 1_565
O31 P3 1.556225 1_555
O31 Ti3 2.088121 1_555
O32 P4 1.547431 1_655
O32 Ti6 2.004296 1_555
O33 P5 1.547690 1_465
O33 Ti7 2.006601 1_565
O34 P6 1.546483 1_565
O34 Ti4 2.001821 1_565
O35 P7 1.547497 1_555
O35 Ti5 2.004176 1_555
O36 Ti4 1.769792 1_665
O36 Ti2 2.052476 1_555
O36 Rb0 3.105000 1_565
O37 Ti5 1.767972 1_455
O37 Ti3 2.050604 1_555
O38 Ti6 1.769062 1_555
O38 Ti0 2.047112 1_555
O39 Ti7 1.768099 1_565
O39 Ti1 2.049503 1_555
