# generated using pymatgen
data_CsVCoF6
_symmetry_space_group_name_H-M   'P 1'
_cell_length_a   7.54585880
_cell_length_b   7.54585880
_cell_length_c   7.54585880
_cell_angle_alpha   120.61299189
_cell_angle_beta   120.39132563
_cell_angle_gamma   89.13252286
_symmetry_Int_Tables_number   1
_chemical_formula_structural   CsVCoF6
_chemical_formula_sum   'Cs2 V2 Co2 F12'
_cell_volume   301.47136165
_cell_formula_units_Z   2
loop_
 _symmetry_equiv_pos_site_id
 _symmetry_equiv_pos_as_xyz
  1  'x, y, z'
loop_
 _atom_site_type_symbol
 _atom_site_label
 _atom_site_symmetry_multiplicity
 _atom_site_fract_x
 _atom_site_fract_y
 _atom_site_fract_z
 _atom_site_occupancy
  Cs  Cs0  1  0.37059600  0.12059600  0.25000000  1
  Cs  Cs1  1  0.62940400  0.87940400  0.75000000  1
  V  V0  1  0.00000000  0.50000000  0.50000000  1
  V  V1  1  0.50000000  0.50000000  0.00000000  1
  Co  Co0  1  0.00000000  0.50000000  0.00000000  1
  Co  Co1  1  0.00000000  0.00000000  0.50000000  1
  F  F0  1  0.31406200  0.56406200  0.75000000  1
  F  F1  1  0.92839200  0.17839200  0.75000000  1
  F  F2  1  0.32685600  0.18798200  0.75886600  1
  F  F3  1  0.92911600  0.56799000  0.74113400  1
  F  F4  1  0.32685600  0.56799000  0.13887300  1
  F  F5  1  0.92911600  0.18798200  0.36112700  1
  F  F6  1  0.68593800  0.43593800  0.25000000  1
  F  F7  1  0.07160800  0.82160800  0.25000000  1
  F  F8  1  0.67314400  0.81201800  0.24113400  1
  F  F9  1  0.07088400  0.43201000  0.25886600  1
  F  F10  1  0.67314400  0.43201000  0.86112700  1
  F  F11  1  0.07088400  0.81201800  0.63887300  1
loop_
_geom_bond_atom_site_label_1
_geom_bond_atom_site_label_2
_geom_bond_distance
_geom_bond_site_symmetry_2
Cs0 F7 3.214699 1_545
Cs0 F8 3.236242 1_545
Cs0 F9 3.236242 1_555
Cs0 F10 3.236247 1_555
Cs0 F11 3.236247 1_544
Cs0 F6 3.390536 1_555
Cs1 F1 3.214699 1_565
Cs1 F2 3.236242 1_565
Cs1 F3 3.236242 1_555
Cs1 F4 3.236247 1_555
Cs1 F5 3.236247 1_566
Cs1 F0 3.390536 1_555
Co0 F1 2.021334 1_454
Co0 F7 2.021334 1_555
Co0 F3 2.078500 1_454
Co0 F9 2.078500 1_555
Co0 F4 2.078502 1_555
Co0 F10 2.078502 1_454
Co1 F7 2.021334 1_545
Co1 F1 2.021334 1_455
Co1 F5 2.078494 1_455
Co1 F11 2.078494 1_545
Co1 F2 2.078500 1_555
Co1 F8 2.078500 1_445
F0 V1 1.997790 1_556
F0 V0 1.997790 1_555
F2 V1 1.971241 1_556
F3 V0 1.971241 1_655
F4 V1 1.971236 1_555
F5 V0 1.971243 1_655
F6 V1 1.997790 1_555
F6 V0 1.997790 1_655
F8 V1 1.971241 1_555
F9 V0 1.971241 1_555
F10 V1 1.971236 1_556
F11 V0 1.971243 1_555
