# generated using pymatgen
data_CsMg6Zn
_symmetry_space_group_name_H-M   'P 1'
_cell_length_a   15.97571066
_cell_length_b   15.97571066
_cell_length_c   8.45299600
_cell_angle_alpha   90.00000000
_cell_angle_beta   90.00000000
_cell_angle_gamma   115.20261521
_symmetry_Int_Tables_number   1
_chemical_formula_structural   CsMg6Zn
_chemical_formula_sum   'Cs8 Mg48 Zn8'
_cell_volume   1952.03357999
_cell_formula_units_Z   8
loop_
 _symmetry_equiv_pos_site_id
 _symmetry_equiv_pos_as_xyz
  1  'x, y, z'
loop_
 _atom_site_type_symbol
 _atom_site_label
 _atom_site_symmetry_multiplicity
 _atom_site_fract_x
 _atom_site_fract_y
 _atom_site_fract_z
 _atom_site_occupancy
  Cs  Cs0_0  1  0.07544550  0.42455450  0.00000000  1
  Cs  Cs0_1  1  0.07544550  0.42455450  0.50000000  1
  Cs  Cs0_2  1  0.07544550  0.92455450  0.00000000  1
  Cs  Cs0_3  1  0.07544550  0.92455450  0.50000000  1
  Cs  Cs0_4  1  0.57544550  0.42455450  0.00000000  1
  Cs  Cs0_5  1  0.57544550  0.42455450  0.50000000  1
  Cs  Cs0_6  1  0.57544550  0.92455450  0.00000000  1
  Cs  Cs0_7  1  0.57544550  0.92455450  0.50000000  1
  Mg  Mg0_0  1  0.36389600  0.30977900  0.25000000  1
  Mg  Mg0_1  1  0.36389600  0.30977900  0.75000000  1
  Mg  Mg0_2  1  0.36389600  0.80977900  0.25000000  1
  Mg  Mg0_3  1  0.36389600  0.80977900  0.75000000  1
  Mg  Mg0_4  1  0.86389600  0.30977900  0.25000000  1
  Mg  Mg0_5  1  0.86389600  0.30977900  0.75000000  1
  Mg  Mg0_6  1  0.86389600  0.80977900  0.25000000  1
  Mg  Mg0_7  1  0.86389600  0.80977900  0.75000000  1
  Mg  Mg1_0  1  0.19022100  0.13610400  0.25000000  1
  Mg  Mg1_1  1  0.19022100  0.13610400  0.75000000  1
  Mg  Mg1_2  1  0.19022100  0.63610400  0.25000000  1
  Mg  Mg1_3  1  0.19022100  0.63610400  0.75000000  1
  Mg  Mg1_4  1  0.69022100  0.13610400  0.25000000  1
  Mg  Mg1_5  1  0.69022100  0.13610400  0.75000000  1
  Mg  Mg1_6  1  0.69022100  0.63610400  0.25000000  1
  Mg  Mg1_7  1  0.69022100  0.63610400  0.75000000  1
  Mg  Mg2_0  1  0.44150450  0.05849550  0.25000000  1
  Mg  Mg2_1  1  0.44150450  0.05849550  0.75000000  1
  Mg  Mg2_2  1  0.44150450  0.55849550  0.25000000  1
  Mg  Mg2_3  1  0.44150450  0.55849550  0.75000000  1
  Mg  Mg2_4  1  0.94150450  0.05849550  0.25000000  1
  Mg  Mg2_5  1  0.94150450  0.05849550  0.75000000  1
  Mg  Mg2_6  1  0.94150450  0.55849550  0.25000000  1
  Mg  Mg2_7  1  0.94150450  0.55849550  0.75000000  1
  Mg  Mg3_0  1  0.30401900  0.41310200  0.00000000  1
  Mg  Mg3_1  1  0.30401900  0.41310200  0.50000000  1
  Mg  Mg3_2  1  0.30401900  0.91310200  0.00000000  1
  Mg  Mg3_3  1  0.30401900  0.91310200  0.50000000  1
  Mg  Mg3_4  1  0.80401900  0.41310200  0.00000000  1
  Mg  Mg3_5  1  0.80401900  0.41310200  0.50000000  1
  Mg  Mg3_6  1  0.80401900  0.91310200  0.00000000  1
  Mg  Mg3_7  1  0.80401900  0.91310200  0.50000000  1
  Mg  Mg4_0  1  0.08689800  0.19598100  0.00000000  1
  Mg  Mg4_1  1  0.08689800  0.19598100  0.50000000  1
  Mg  Mg4_2  1  0.08689800  0.69598100  0.00000000  1
  Mg  Mg4_3  1  0.08689800  0.69598100  0.50000000  1
  Mg  Mg4_4  1  0.58689800  0.19598100  0.00000000  1
  Mg  Mg4_5  1  0.58689800  0.19598100  0.50000000  1
  Mg  Mg4_6  1  0.58689800  0.69598100  0.00000000  1
  Mg  Mg4_7  1  0.58689800  0.69598100  0.50000000  1
  Mg  Mg5_0  1  0.34862650  0.15137350  0.00000000  1
  Mg  Mg5_1  1  0.34862650  0.15137350  0.50000000  1
  Mg  Mg5_2  1  0.34862650  0.65137350  0.00000000  1
  Mg  Mg5_3  1  0.34862650  0.65137350  0.50000000  1
  Mg  Mg5_4  1  0.84862650  0.15137350  0.00000000  1
  Mg  Mg5_5  1  0.84862650  0.15137350  0.50000000  1
  Mg  Mg5_6  1  0.84862650  0.65137350  0.00000000  1
  Mg  Mg5_7  1  0.84862650  0.65137350  0.50000000  1
  Zn  Zn0_0  1  0.18919550  0.31080450  0.25000000  1
  Zn  Zn0_1  1  0.18919550  0.31080450  0.75000000  1
  Zn  Zn0_2  1  0.18919550  0.81080450  0.25000000  1
  Zn  Zn0_3  1  0.18919550  0.81080450  0.75000000  1
  Zn  Zn0_4  1  0.68919550  0.31080450  0.25000000  1
  Zn  Zn0_5  1  0.68919550  0.31080450  0.75000000  1
  Zn  Zn0_6  1  0.68919550  0.81080450  0.25000000  1
  Zn  Zn0_7  1  0.68919550  0.81080450  0.75000000  1
loop_
_geom_bond_atom_site_label_1
_geom_bond_atom_site_label_2
_geom_bond_distance
_geom_bond_site_symmetry_2
Cs0_0 Zn0_1 3.725982 1_554
Cs0_0 Zn0_0 3.725982 1_555
Cs0_0 Mg4_0 3.733205 1_555
Cs0_0 Mg3_0 3.733205 1_555
Cs0_0 Mg1_3 3.737970 1_554
Cs0_0 Mg1_2 3.737970 1_555
Cs0_0 Mg0_4 3.737970 1_455
Cs0_0 Mg0_5 3.737970 1_454
Cs0_0 Mg2_6 4.186023 1_455
Cs0_0 Mg2_7 4.186023 1_454
Cs0_0 Cs0_1 4.226498 1_555
Cs0_0 Cs0_1 4.226498 1_554
Cs0_0 Mg3_4 4.261539 1_455
Cs0_0 Mg4_2 4.261539 1_555
Cs0_0 Mg5_4 4.325401 1_455
Cs0_0 Mg5_2 4.325401 1_555
Cs0_1 Zn0_0 3.725982 1_555
Cs0_1 Zn0_1 3.725982 1_555
Cs0_1 Mg4_1 3.733205 1_555
Cs0_1 Mg3_1 3.733205 1_555
Cs0_1 Mg1_2 3.737970 1_555
Cs0_1 Mg1_3 3.737970 1_555
Cs0_1 Mg0_4 3.737970 1_455
Cs0_1 Mg0_5 3.737970 1_455
Cs0_1 Mg2_7 4.186023 1_455
Cs0_1 Mg2_6 4.186023 1_455
Cs0_1 Mg3_5 4.261539 1_455
Cs0_1 Mg4_3 4.261539 1_555
Cs0_1 Mg5_5 4.325401 1_455
Cs0_1 Mg5_3 4.325401 1_555
Cs0_2 Zn0_2 3.725982 1_555
Cs0_2 Zn0_3 3.725982 1_554
Cs0_2 Mg4_2 3.733205 1_555
Cs0_2 Mg3_2 3.733205 1_555
Cs0_2 Mg1_1 3.737970 1_564
Cs0_2 Mg1_0 3.737970 1_565
Cs0_2 Mg0_6 3.737970 1_455
Cs0_2 Mg0_7 3.737970 1_454
Cs0_2 Mg2_4 4.186023 1_465
Cs0_2 Mg2_5 4.186023 1_464
Cs0_2 Cs0_3 4.226498 1_555
Cs0_2 Cs0_3 4.226498 1_554
Cs0_2 Mg3_6 4.261539 1_455
Cs0_2 Mg4_0 4.261539 1_565
Cs0_2 Mg5_6 4.325401 1_455
Cs0_2 Mg5_0 4.325401 1_565
Cs0_3 Zn0_2 3.725982 1_555
Cs0_3 Zn0_3 3.725982 1_555
Cs0_3 Mg4_3 3.733205 1_555
Cs0_3 Mg3_3 3.733205 1_555
Cs0_3 Mg1_0 3.737970 1_565
Cs0_3 Mg1_1 3.737970 1_565
Cs0_3 Mg0_6 3.737970 1_455
Cs0_3 Mg0_7 3.737970 1_455
Cs0_3 Mg2_4 4.186023 1_465
Cs0_3 Mg2_5 4.186023 1_465
Cs0_3 Mg3_7 4.261539 1_455
Cs0_3 Mg4_1 4.261539 1_565
Cs0_3 Mg5_7 4.325401 1_455
Cs0_3 Mg5_1 4.325401 1_565
Cs0_4 Zn0_5 3.725982 1_554
Cs0_4 Zn0_4 3.725982 1_555
Cs0_4 Mg4_4 3.733205 1_555
Cs0_4 Mg3_4 3.733205 1_555
Cs0_4 Mg0_0 3.737970 1_555
Cs0_4 Mg0_1 3.737970 1_554
Cs0_4 Mg1_6 3.737970 1_555
Cs0_4 Mg1_7 3.737970 1_554
Cs0_4 Mg2_3 4.186023 1_554
Cs0_4 Mg2_2 4.186023 1_555
Cs0_4 Cs0_5 4.226498 1_555
Cs0_4 Cs0_5 4.226498 1_554
Cs0_4 Mg3_0 4.261539 1_555
Cs0_4 Mg4_6 4.261539 1_555
Cs0_4 Mg5_0 4.325401 1_555
Cs0_4 Mg5_6 4.325401 1_555
Cs0_5 Zn0_4 3.725982 1_555
Cs0_5 Zn0_5 3.725982 1_555
Cs0_5 Mg4_5 3.733205 1_555
Cs0_5 Mg3_5 3.733205 1_555
Cs0_5 Mg0_0 3.737970 1_555
Cs0_5 Mg0_1 3.737970 1_555
Cs0_5 Mg1_6 3.737970 1_555
Cs0_5 Mg1_7 3.737970 1_555
Cs0_5 Mg2_2 4.186023 1_555
Cs0_5 Mg2_3 4.186023 1_555
Cs0_5 Mg3_1 4.261539 1_555
Cs0_5 Mg4_7 4.261539 1_555
Cs0_5 Mg5_1 4.325401 1_555
Cs0_5 Mg5_7 4.325401 1_555
Cs0_6 Zn0_6 3.725982 1_555
Cs0_6 Zn0_7 3.725982 1_554
Cs0_6 Mg4_6 3.733205 1_555
Cs0_6 Mg3_6 3.733205 1_555
Cs0_6 Mg1_4 3.737970 1_565
Cs0_6 Mg1_5 3.737970 1_564
Cs0_6 Mg0_2 3.737970 1_555
Cs0_6 Mg0_3 3.737970 1_554
Cs0_6 Mg2_1 4.186023 1_564
Cs0_6 Mg2_0 4.186023 1_565
Cs0_6 Cs0_7 4.226498 1_555
Cs0_6 Cs0_7 4.226498 1_554
Cs0_6 Mg3_2 4.261539 1_555
Cs0_6 Mg4_4 4.261539 1_565
Cs0_6 Mg5_4 4.325401 1_565
Cs0_6 Mg5_2 4.325401 1_555
Cs0_7 Zn0_6 3.725982 1_555
Cs0_7 Zn0_7 3.725982 1_555
Cs0_7 Mg4_7 3.733205 1_555
Cs0_7 Mg3_7 3.733205 1_555
Cs0_7 Mg1_4 3.737970 1_565
Cs0_7 Mg1_5 3.737970 1_565
Cs0_7 Mg0_2 3.737970 1_555
Cs0_7 Mg0_3 3.737970 1_555
Cs0_7 Mg2_0 4.186023 1_565
Cs0_7 Mg2_1 4.186023 1_565
Cs0_7 Mg3_3 4.261539 1_555
Cs0_7 Mg4_5 4.261539 1_565
Cs0_7 Mg5_5 4.325401 1_565
Cs0_7 Mg5_3 4.325401 1_555
Mg0_0 Zn0_0 2.797980 1_555
Mg0_0 Mg1_0 2.973283 1_555
Mg0_0 Mg3_0 3.074128 1_555
Mg0_0 Mg3_1 3.074128 1_555
Mg0_0 Mg5_0 3.225481 1_555
Mg0_0 Mg5_1 3.225481 1_555
Mg0_1 Zn0_1 2.797980 1_555
Mg0_1 Mg1_1 2.973283 1_555
Mg0_1 Mg3_1 3.074128 1_555
Mg0_1 Mg3_0 3.074128 1_556
Mg0_1 Mg5_0 3.225481 1_556
Mg0_1 Mg5_1 3.225481 1_555
Mg0_2 Zn0_2 2.797980 1_555
Mg0_2 Mg1_2 2.973283 1_555
Mg0_2 Mg3_2 3.074128 1_555
Mg0_2 Mg3_3 3.074128 1_555
Mg0_2 Mg5_3 3.225481 1_555
Mg0_2 Mg5_2 3.225481 1_555
Mg0_3 Zn0_3 2.797980 1_555
Mg0_3 Mg1_3 2.973283 1_555
Mg0_3 Mg3_2 3.074128 1_556
Mg0_3 Mg3_3 3.074128 1_555
Mg0_3 Mg5_2 3.225481 1_556
Mg0_3 Mg5_3 3.225481 1_555
Mg0_4 Zn0_4 2.797980 1_555
Mg0_4 Mg1_4 2.973283 1_555
Mg0_4 Mg3_4 3.074128 1_555
Mg0_4 Mg3_5 3.074128 1_555
Mg0_4 Mg5_5 3.225481 1_555
Mg0_4 Mg5_4 3.225481 1_555
Mg0_5 Zn0_5 2.797980 1_555
Mg0_5 Mg1_5 2.973283 1_555
Mg0_5 Mg3_4 3.074128 1_556
Mg0_5 Mg3_5 3.074128 1_555
Mg0_5 Mg5_4 3.225481 1_556
Mg0_5 Mg5_5 3.225481 1_555
Mg0_6 Zn0_6 2.797980 1_555
Mg0_6 Mg1_6 2.973283 1_555
Mg0_6 Mg3_7 3.074128 1_555
Mg0_6 Mg3_6 3.074128 1_555
Mg0_6 Mg5_6 3.225481 1_555
Mg0_6 Mg5_7 3.225481 1_555
Mg0_7 Zn0_7 2.797980 1_555
Mg0_7 Mg1_7 2.973283 1_555
Mg0_7 Mg3_6 3.074128 1_556
Mg0_7 Mg3_7 3.074128 1_555
Mg0_7 Mg5_6 3.225481 1_556
Mg0_7 Mg5_7 3.225481 1_555
Mg1_0 Zn0_0 2.797980 1_555
Mg1_0 Mg4_0 3.074128 1_555
Mg1_0 Mg4_1 3.074128 1_555
Mg1_0 Mg5_0 3.225481 1_555
Mg1_0 Mg5_1 3.225481 1_555
Mg1_1 Zn0_1 2.797980 1_555
Mg1_1 Mg4_0 3.074128 1_556
Mg1_1 Mg4_1 3.074128 1_555
Mg1_1 Mg5_1 3.225481 1_555
Mg1_1 Mg5_0 3.225481 1_556
Mg1_2 Zn0_2 2.797980 1_555
Mg1_2 Mg4_3 3.074128 1_555
Mg1_2 Mg4_2 3.074128 1_555
Mg1_2 Mg5_2 3.225481 1_555
Mg1_2 Mg5_3 3.225481 1_555
Mg1_3 Zn0_3 2.797980 1_555
Mg1_3 Mg4_2 3.074128 1_556
Mg1_3 Mg4_3 3.074128 1_555
Mg1_3 Mg5_2 3.225481 1_556
Mg1_3 Mg5_3 3.225481 1_555
Mg1_4 Zn0_4 2.797980 1_555
Mg1_4 Mg4_5 3.074128 1_555
Mg1_4 Mg4_4 3.074128 1_555
Mg1_4 Mg5_4 3.225481 1_555
Mg1_4 Mg5_5 3.225481 1_555
Mg1_5 Zn0_5 2.797980 1_555
Mg1_5 Mg4_5 3.074128 1_555
Mg1_5 Mg4_4 3.074128 1_556
Mg1_5 Mg5_4 3.225481 1_556
Mg1_5 Mg5_5 3.225481 1_555
Mg1_6 Zn0_6 2.797980 1_555
Mg1_6 Mg4_7 3.074128 1_555
Mg1_6 Mg4_6 3.074128 1_555
Mg1_6 Mg5_7 3.225481 1_555
Mg1_6 Mg5_6 3.225481 1_555
Mg1_7 Zn0_7 2.797980 1_555
Mg1_7 Mg4_6 3.074128 1_556
Mg1_7 Mg4_7 3.074128 1_555
Mg1_7 Mg5_6 3.225481 1_556
Mg1_7 Mg5_7 3.225481 1_555
Mg2_0 Mg4_4 3.215659 1_555
Mg2_0 Mg4_5 3.215659 1_555
Mg2_0 Mg3_2 3.215659 1_545
Mg2_0 Mg3_3 3.215659 1_545
Mg2_0 Mg5_1 3.277820 1_555
Mg2_0 Mg5_0 3.277820 1_555
Mg2_1 Mg4_5 3.215659 1_555
Mg2_1 Mg4_4 3.215659 1_556
Mg2_1 Mg3_2 3.215659 1_546
Mg2_1 Mg3_3 3.215659 1_545
Mg2_1 Mg5_1 3.277820 1_555
Mg2_1 Mg5_0 3.277820 1_556
Mg2_2 Mg3_1 3.215659 1_555
Mg2_2 Mg3_0 3.215659 1_555
Mg2_2 Mg4_6 3.215659 1_555
Mg2_2 Mg4_7 3.215659 1_555
Mg2_2 Mg5_3 3.277820 1_555
Mg2_2 Mg5_2 3.277820 1_555
Mg2_3 Mg3_0 3.215659 1_556
Mg2_3 Mg3_1 3.215659 1_555
Mg2_3 Mg4_6 3.215659 1_556
Mg2_3 Mg4_7 3.215659 1_555
Mg2_3 Mg5_2 3.277820 1_556
Mg2_3 Mg5_3 3.277820 1_555
Mg2_4 Mg3_6 3.215659 1_545
Mg2_4 Mg3_7 3.215659 1_545
Mg2_4 Mg4_0 3.215659 1_655
Mg2_4 Mg4_1 3.215659 1_655
Mg2_4 Mg5_4 3.277820 1_555
Mg2_4 Mg5_5 3.277820 1_555
Mg2_5 Mg3_7 3.215659 1_545
Mg2_5 Mg3_6 3.215659 1_546
Mg2_5 Mg4_0 3.215659 1_656
Mg2_5 Mg4_1 3.215659 1_655
Mg2_5 Mg5_4 3.277820 1_556
Mg2_5 Mg5_5 3.277820 1_555
Mg2_6 Mg4_3 3.215659 1_655
Mg2_6 Mg4_2 3.215659 1_655
Mg2_6 Mg3_4 3.215659 1_555
Mg2_6 Mg3_5 3.215659 1_555
Mg2_6 Mg5_6 3.277820 1_555
Mg2_6 Mg5_7 3.277820 1_555
Mg2_7 Mg4_3 3.215659 1_655
Mg2_7 Mg4_2 3.215659 1_656
Mg2_7 Mg3_4 3.215659 1_556
Mg2_7 Mg3_5 3.215659 1_555
Mg2_7 Mg5_6 3.277820 1_556
Mg2_7 Mg5_7 3.277820 1_555
Mg3_0 Zn0_0 2.819313 1_555
Mg3_0 Zn0_1 2.819313 1_554
Mg3_1 Zn0_0 2.819313 1_555
Mg3_1 Zn0_1 2.819313 1_555
Mg3_2 Zn0_2 2.819313 1_555
Mg3_2 Zn0_3 2.819313 1_554
Mg3_3 Zn0_2 2.819313 1_555
Mg3_3 Zn0_3 2.819313 1_555
Mg3_4 Zn0_4 2.819313 1_555
Mg3_4 Zn0_5 2.819313 1_554
Mg3_5 Zn0_4 2.819313 1_555
Mg3_5 Zn0_5 2.819313 1_555
Mg3_6 Zn0_6 2.819313 1_555
Mg3_6 Zn0_7 2.819313 1_554
Mg3_7 Zn0_6 2.819313 1_555
Mg3_7 Zn0_7 2.819313 1_555
Mg4_0 Zn0_0 2.819313 1_555
Mg4_0 Zn0_1 2.819313 1_554
Mg4_1 Zn0_0 2.819313 1_555
Mg4_1 Zn0_1 2.819313 1_555
Mg4_2 Zn0_2 2.819313 1_555
Mg4_2 Zn0_3 2.819313 1_554
Mg4_3 Zn0_2 2.819313 1_555
Mg4_3 Zn0_3 2.819313 1_555
Mg4_4 Zn0_5 2.819313 1_554
Mg4_4 Zn0_4 2.819313 1_555
Mg4_5 Zn0_4 2.819313 1_555
Mg4_5 Zn0_5 2.819313 1_555
Mg4_6 Zn0_6 2.819313 1_555
Mg4_6 Zn0_7 2.819313 1_554
Mg4_7 Zn0_6 2.819313 1_555
Mg4_7 Zn0_7 2.819313 1_555
