# generated using pymatgen
data_Ge(SbTe2)2
_symmetry_space_group_name_H-M   'P 1'
_cell_length_a   14.11805083
_cell_length_b   14.11805083
_cell_length_c   14.11805028
_cell_angle_alpha   17.55785347
_cell_angle_beta   17.55785347
_cell_angle_gamma   17.55785180
_symmetry_Int_Tables_number   1
_chemical_formula_structural   Ge(SbTe2)2
_chemical_formula_sum   'Ge1 Sb2 Te4'
_cell_volume   223.51155733
_cell_formula_units_Z   1
loop_
 _symmetry_equiv_pos_site_id
 _symmetry_equiv_pos_as_xyz
  1  'x, y, z'
loop_
 _atom_site_type_symbol
 _atom_site_label
 _atom_site_symmetry_multiplicity
 _atom_site_fract_x
 _atom_site_fract_y
 _atom_site_fract_z
 _atom_site_occupancy
  Ge  Ge0  1  0.42954300  0.42954300  0.42954300  1
  Sb  Sb0  1  0.57347200  0.57347200  0.57347200  1
  Sb  Sb1  1  0.00201200  0.00201200  0.00201200  1
  Te  Te0  1  0.13023000  0.13023000  0.13023000  1
  Te  Te1  1  0.86583500  0.86583500  0.86583500  1
  Te  Te2  1  0.28863000  0.28863000  0.28863000  1
  Te  Te3  1  0.71027900  0.71027900  0.71027900  1
loop_
_geom_bond_atom_site_label_1
_geom_bond_atom_site_label_2
_geom_bond_distance
_geom_bond_site_symmetry_2
Ge0 Te0 2.863948 1_556
Ge0 Te0 2.863948 1_565
Ge0 Te0 2.863948 1_655
Ge0 Te3 3.316484 1_554
Ge0 Te3 3.316484 1_545
Ge0 Te3 3.316484 1_455
Sb0 Te1 3.017963 1_554
Sb0 Te1 3.017963 1_455
Sb0 Te1 3.017963 1_545
Sb0 Te2 3.205871 1_556
Sb0 Te2 3.205871 1_565
Sb0 Te2 3.205871 1_655
Sb1 Te3 3.032906 1_445
Sb1 Te3 3.032906 1_544
Sb1 Te3 3.032906 1_454
Sb1 Te2 3.159700 1_554
Sb1 Te2 3.159701 1_455
Sb1 Te2 3.159701 1_545
