# generated using pymatgen
data_Ta2OsRu
_symmetry_space_group_name_H-M   'P 1'
_cell_length_a   4.50601534
_cell_length_b   4.50601534
_cell_length_c   4.50601534
_cell_angle_alpha   60.00000000
_cell_angle_beta   60.00000000
_cell_angle_gamma   60.00000000
_symmetry_Int_Tables_number   1
_chemical_formula_structural   Ta2OsRu
_chemical_formula_sum   'Ta2 Os1 Ru1'
_cell_volume   64.69385020
_cell_formula_units_Z   1
loop_
 _symmetry_equiv_pos_site_id
 _symmetry_equiv_pos_as_xyz
  1  'x, y, z'
loop_
 _atom_site_type_symbol
 _atom_site_label
 _atom_site_symmetry_multiplicity
 _atom_site_fract_x
 _atom_site_fract_y
 _atom_site_fract_z
 _atom_site_occupancy
  Ta  Ta0  1  0.25000000  0.25000000  0.25000000  1
  Ta  Ta1  1  0.75000000  0.75000000  0.75000000  1
  Os  Os0  1  0.50000000  0.50000000  0.50000000  1
  Ru  Ru0  1  0.00000000  0.00000000  0.00000000  1
loop_
_geom_bond_atom_site_label_1
_geom_bond_atom_site_label_2
_geom_bond_distance
_geom_bond_site_symmetry_2
Os0 Ta0 2.759360 1_655
Os0 Ta1 2.759360 1_555
Os0 Ta1 2.759360 1_545
Os0 Ta0 2.759360 1_565
Os0 Ta0 2.759360 1_556
Os0 Ta0 2.759360 1_555
Os0 Ta1 2.759360 1_554
Os0 Ta1 2.759360 1_455
Ru0 Ta1 2.759360 1_544
Ru0 Ta1 2.759360 1_444
Ru0 Ta0 2.759360 1_455
Ru0 Ta0 2.759360 1_545
Ru0 Ta0 2.759360 1_555
Ru0 Ta0 2.759360 1_554
Ru0 Ta1 2.759360 1_445
Ru0 Ta1 2.759360 1_454
