# generated using pymatgen
data_Li5Fe3(SbO5)2
_symmetry_space_group_name_H-M   'P 1'
_cell_length_a   6.93898967
_cell_length_b   8.17818436
_cell_length_c   8.22762262
_cell_angle_alpha   114.96180873
_cell_angle_beta   89.48882727
_cell_angle_gamma   91.24735071
_symmetry_Int_Tables_number   1
_chemical_formula_structural   Li5Fe3(SbO5)2
_chemical_formula_sum   'Li10 Fe6 Sb4 O20'
_cell_volume   423.18975008
_cell_formula_units_Z   2
loop_
 _symmetry_equiv_pos_site_id
 _symmetry_equiv_pos_as_xyz
  1  'x, y, z'
loop_
 _atom_site_type_symbol
 _atom_site_label
 _atom_site_symmetry_multiplicity
 _atom_site_fract_x
 _atom_site_fract_y
 _atom_site_fract_z
 _atom_site_occupancy
  Li  Li0  1  0.24839700  0.75418700  0.49990200  1
  Li  Li1  1  0.75823900  0.25485300  0.50559800  1
  Li  Li2  1  0.12868200  0.37512000  0.40939400  1
  Li  Li3  1  0.64326000  0.87297900  0.39298500  1
  Li  Li4  1  0.36959700  0.11941300  0.59214600  1
  Li  Li5  1  0.85574900  0.64881600  0.59352700  1
  Li  Li6  1  0.55611800  0.94682800  0.79701300  1
  Li  Li7  1  0.04938100  0.44957900  0.79991300  1
  Li  Li8  1  0.94566100  0.54794900  0.19311100  1
  Li  Li9  1  0.45964100  0.04008900  0.19514900  1
  Fe  Fe0  1  0.25338000  0.24762400  0.99866100  1
  Fe  Fe1  1  0.65238400  0.34642700  0.89652800  1
  Fe  Fe2  1  0.84582700  0.14817800  0.10761200  1
  Fe  Fe3  1  0.75162800  0.75372800  0.99935700  1
  Fe  Fe4  1  0.14841600  0.84682200  0.88811800  1
  Fe  Fe5  1  0.35246200  0.65412100  0.11068900  1
  Sb  Sb0  1  0.44299300  0.54796000  0.70260600  1
  Sb  Sb1  1  0.94488600  0.05088800  0.69935300  1
  Sb  Sb2  1  0.06660900  0.95132400  0.29365200  1
  Sb  Sb3  1  0.55629700  0.45068200  0.30397800  1
  O  O0  1  0.85599200  0.90500400  0.83526100  1
  O  O1  1  0.35991700  0.41362100  0.85211200  1
  O  O2  1  0.64768200  0.58378800  0.15740000  1
  O  O3  1  0.15969700  0.08950000  0.12199400  1
  O  O4  1  0.44936100  0.78373200  0.92086400  1
  O  O5  1  0.94765800  0.27775000  0.94148900  1
  O  O6  1  0.04856700  0.69725600  0.05585700  1
  O  O7  1  0.54856600  0.22051100  0.07736000  1
  O  O8  1  0.54208100  0.67360200  0.54461800  1
  O  O9  1  0.02661400  0.21190800  0.58390000  1
  O  O10  1  0.94546900  0.81772500  0.47376700  1
  O  O11  1  0.45761900  0.32309400  0.46435300  1
  O  O12  1  0.28044000  0.48903400  0.25293300  1
  O  O13  1  0.73586000  0.98736700  0.22236200  1
  O  O14  1  0.22507400  0.01045700  0.74290300  1
  O  O15  1  0.71964300  0.51617800  0.75972600  1
  O  O16  1  0.17127400  0.59535800  0.65883100  1
  O  O17  1  0.66338600  0.10046800  0.66850000  1
  O  O18  1  0.35570500  0.89075700  0.33851700  1
  O  O19  1  0.82978600  0.40532100  0.34796200  1
loop_
_geom_bond_atom_site_label_1
_geom_bond_atom_site_label_2
_geom_bond_distance
_geom_bond_site_symmetry_2
Li0 O18 2.182397 1_555
Li0 O10 2.210122 1_455
Li0 O14 2.210945 1_565
Li0 O8 2.235867 1_555
Li0 O16 2.252617 1_555
Li0 O12 2.274756 1_555
Li1 O9 2.060881 1_655
Li1 O19 2.179873 1_555
Li1 O11 2.236330 1_555
Li1 O17 2.280375 1_555
Li1 O15 2.292224 1_555
Li1 O13 2.434967 1_545
Li2 O16 2.100249 1_555
Li2 O12 2.139922 1_555
Li2 O19 2.182767 1_455
Li2 O11 2.412125 1_555
Li2 O9 2.429589 1_555
Li2 O3 2.538670 1_555
Li3 O18 2.070492 1_555
Li3 O13 2.079635 1_555
Li3 O17 2.248132 1_565
Li3 O10 2.315832 1_555
Li3 O2 2.341872 1_555
Li3 O8 2.521808 1_555
Li4 O14 2.051821 1_555
Li4 O18 2.136092 1_545
Li4 O17 2.166401 1_555
Li4 O11 2.382383 1_555
Li4 O1 2.455494 1_555
Li4 O9 2.523008 1_555
Li5 O10 2.089760 1_555
Li5 O19 2.162188 1_555
Li5 O0 2.197312 1_555
Li5 O8 2.245890 1_555
Li5 O15 2.263352 1_555
Li5 O16 2.352515 1_655
Li6 O17 2.077835 1_565
Li6 O4 2.111141 1_555
Li6 O0 2.163185 1_555
Li6 O8 2.322166 1_555
Li6 O7 2.445052 1_566
Li6 O14 2.451841 1_565
Li7 O9 2.009385 1_555
Li7 O16 2.142605 1_555
Li7 O6 2.222041 1_556
Li7 O1 2.250514 1_555
Li7 O5 2.270135 1_455
Li7 O15 2.420929 1_455
Li8 O6 2.094666 1_655
Li8 O2 2.134811 1_555
Li8 O19 2.196703 1_555
Li8 O5 2.304063 1_554
Li8 O10 2.428961 1_555
Li8 O12 2.477933 1_655
Li9 O13 2.008687 1_545
Li9 O18 2.136679 1_545
Li9 O7 2.157254 1_555
Li9 O3 2.263109 1_555
Li9 O4 2.344426 1_544
Li9 O11 2.436568 1_555
Fe0 O3 2.045420 1_556
Fe0 O14 2.185070 1_555
Fe0 O12 2.194207 1_556
Fe0 O7 2.197397 1_556
Fe0 O5 2.218263 1_455
Fe0 O1 2.272720 1_555
Fe1 O17 2.095405 1_555
Fe1 O15 2.166381 1_555
Fe1 O1 2.187549 1_555
Fe1 O2 2.204765 1_556
Fe1 O5 2.211174 1_555
Fe1 O7 2.243813 1_556
Fe2 O13 2.048088 1_545
Fe2 O5 2.159381 1_554
Fe2 O19 2.200375 1_555
Fe2 O7 2.202984 1_555
Fe2 O3 2.255159 1_655
Fe2 O0 2.285432 1_544
Fe3 O13 2.018886 1_556
Fe3 O15 2.113483 1_555
Fe3 O6 2.216889 1_656
Fe3 O4 2.248736 1_555
Fe3 O0 2.287177 1_555
Fe3 O2 2.368027 1_556
Fe4 O3 2.102459 1_566
Fe4 O16 2.132518 1_555
Fe4 O0 2.182963 1_455
Fe4 O14 2.192827 1_565
Fe4 O4 2.207688 1_555
Fe4 O6 2.291661 1_556
Fe5 O18 2.048526 1_555
Fe5 O12 2.176247 1_555
Fe5 O1 2.206360 1_554
Fe5 O2 2.219674 1_555
Fe5 O6 2.226740 1_555
Fe5 O4 2.315690 1_554
O0 Sb1 2.033697 1_565
O1 Sb0 2.037854 1_555
O2 Sb3 2.026285 1_555
O3 Sb2 2.233359 1_545
O4 Sb0 2.004941 1_555
O5 Sb1 2.071451 1_555
O6 Sb2 2.173181 1_555
O7 Sb3 2.014388 1_555
O8 Sb3 2.052110 1_555
O8 Sb0 2.073360 1_555
O9 Sb1 1.992908 1_455
O9 Sb2 2.457625 1_545
O10 Sb1 2.023363 1_565
O10 Sb2 2.323968 1_655
O11 Sb0 2.048596 1_555
O11 Sb3 2.100846 1_555
O12 Sb3 2.022490 1_555
O13 Sb2 2.428506 1_655
O14 Sb1 2.039150 1_455
O15 Sb0 2.028418 1_555
O16 Sb0 1.999172 1_555
O17 Sb1 2.043167 1_555
O18 Sb2 2.148622 1_555
O19 Sb3 2.006539 1_555
