# generated using pymatgen
data_SmGaPt
_symmetry_space_group_name_H-M   'P 1'
_cell_length_a   4.46307606
_cell_length_b   7.08664864
_cell_length_c   7.66744282
_cell_angle_alpha   90.00000000
_cell_angle_beta   90.00000000
_cell_angle_gamma   90.00000000
_symmetry_Int_Tables_number   1
_chemical_formula_structural   SmGaPt
_chemical_formula_sum   'Sm4 Ga4 Pt4'
_cell_volume   242.50781287
_cell_formula_units_Z   4
loop_
 _symmetry_equiv_pos_site_id
 _symmetry_equiv_pos_as_xyz
  1  'x, y, z'
loop_
 _atom_site_type_symbol
 _atom_site_label
 _atom_site_symmetry_multiplicity
 _atom_site_fract_x
 _atom_site_fract_y
 _atom_site_fract_z
 _atom_site_occupancy
  Sm  Sm0  1  0.25000000  0.98334077  0.30180780  1
  Sm  Sm1  1  0.25000000  0.48334077  0.19819220  1
  Sm  Sm2  1  0.75000000  0.01665923  0.69819220  1
  Sm  Sm3  1  0.75000000  0.51665923  0.80180780  1
  Ga  Ga0  1  0.25000000  0.32931005  0.57680949  1
  Ga  Ga1  1  0.25000000  0.82931005  0.92319051  1
  Ga  Ga2  1  0.75000000  0.67068995  0.42319051  1
  Ga  Ga3  1  0.75000000  0.17068995  0.07680949  1
  Pt  Pt0  1  0.25000000  0.21733196  0.90400935  1
  Pt  Pt1  1  0.25000000  0.71733196  0.59599065  1
  Pt  Pt2  1  0.75000000  0.78266804  0.09599065  1
  Pt  Pt3  1  0.75000000  0.28266804  0.40400935  1
loop_
_geom_bond_atom_site_label_1
_geom_bond_atom_site_label_2
_geom_bond_distance
_geom_bond_site_symmetry_2
Ga0 Pt3 2.616194 1_455
Ga0 Pt3 2.616194 1_555
Ga0 Pt0 2.631298 1_555
Ga0 Pt1 2.753705 1_555
Ga0 Sm1 3.101462 1_555
Ga0 Sm3 3.117479 1_455
Ga0 Sm3 3.117479 1_555
Ga0 Sm0 3.233754 1_545
Ga0 Sm2 3.279488 1_455
Ga0 Sm2 3.279488 1_555
Ga1 Pt2 2.616194 1_556
Ga1 Pt2 2.616194 1_456
Ga1 Pt1 2.631298 1_555
Ga1 Pt0 2.753705 1_565
Ga1 Sm0 3.101462 1_556
Ga1 Sm2 3.117479 1_565
Ga1 Sm2 3.117479 1_465
Ga1 Sm1 3.233754 1_556
Ga1 Sm3 3.279488 1_555
Ga1 Sm3 3.279488 1_455
Ga2 Pt1 2.616194 1_655
Ga2 Pt1 2.616194 1_555
Ga2 Pt2 2.631298 1_555
Ga2 Pt3 2.753705 1_555
Ga2 Sm3 3.101462 1_555
Ga2 Sm1 3.117479 1_655
Ga2 Sm1 3.117479 1_555
Ga2 Sm2 3.233754 1_565
Ga2 Sm0 3.279488 1_555
Ga2 Sm0 3.279488 1_655
Ga3 Pt0 2.616194 1_654
Ga3 Pt0 2.616194 1_554
Ga3 Pt3 2.631298 1_555
Ga3 Pt2 2.753705 1_545
Ga3 Sm2 3.101462 1_554
Ga3 Sm0 3.117479 1_545
Ga3 Sm0 3.117479 1_645
Ga3 Sm3 3.233754 1_554
Ga3 Sm1 3.279488 1_655
Ga3 Sm1 3.279488 1_555
Pt0 Sm1 2.939645 1_556
Pt0 Sm2 3.080989 1_455
Pt0 Sm2 3.080989 1_555
Pt0 Sm3 3.177017 1_555
Pt0 Sm3 3.177017 1_455
Pt0 Sm0 3.471709 1_546
Pt1 Sm0 2.939645 1_555
Pt1 Sm3 3.080989 1_455
Pt1 Sm3 3.080989 1_555
Pt1 Sm2 3.177017 1_465
Pt1 Sm2 3.177017 1_565
Pt1 Sm1 3.471709 1_555
Pt2 Sm3 2.939645 1_554
Pt2 Sm0 3.080989 1_555
Pt2 Sm0 3.080989 1_655
Pt2 Sm1 3.177017 1_655
Pt2 Sm1 3.177017 1_555
Pt2 Sm2 3.471709 1_564
Pt3 Sm2 2.939645 1_555
Pt3 Sm1 3.080989 1_555
Pt3 Sm1 3.080989 1_655
Pt3 Sm0 3.177017 1_545
Pt3 Sm0 3.177017 1_645
Pt3 Sm3 3.471709 1_555
