# generated using pymatgen
data_Sr2SmTaO6
_symmetry_space_group_name_H-M   'P 1'
_cell_length_a   6.02444400
_cell_length_b   5.88419600
_cell_length_c   10.24063193
_cell_angle_alpha   55.15742872
_cell_angle_beta   90.00000000
_cell_angle_gamma   90.00000000
_symmetry_Int_Tables_number   1
_chemical_formula_structural   Sr2SmTaO6
_chemical_formula_sum   'Sr4 Sm2 Ta2 O12'
_cell_volume   297.93977721
_cell_formula_units_Z   2
loop_
 _symmetry_equiv_pos_site_id
 _symmetry_equiv_pos_as_xyz
  1  'x, y, z'
loop_
 _atom_site_type_symbol
 _atom_site_label
 _atom_site_symmetry_multiplicity
 _atom_site_fract_x
 _atom_site_fract_y
 _atom_site_fract_z
 _atom_site_occupancy
  Sr  Sr0  1  0.45739200  0.24200800  0.74737600  1
  Sr  Sr1  1  0.54260800  0.75799200  0.25262400  1
  Sr  Sr2  1  0.95739200  0.75799200  0.75262400  1
  Sr  Sr3  1  0.04260800  0.24200800  0.24737600  1
  Sm  Sm0  1  0.00000000  0.50000000  0.50000000  1
  Sm  Sm1  1  0.50000000  0.50000000  0.00000000  1
  Ta  Ta0  1  0.00000000  0.00000000  0.00000000  1
  Ta  Ta1  1  0.50000000  0.00000000  0.50000000  1
  O  O0  1  0.03247700  0.31948600  0.76928100  1
  O  O1  1  0.96752300  0.68051400  0.23071900  1
  O  O2  1  0.53247700  0.68051400  0.73071900  1
  O  O3  1  0.46752300  0.31948600  0.26928100  1
  O  O4  1  0.72669300  0.86481900  0.94761500  1
  O  O5  1  0.27330700  0.13518100  0.05238500  1
  O  O6  1  0.22669300  0.13518100  0.55238500  1
  O  O7  1  0.77330700  0.86481900  0.44761500  1
  O  O8  1  0.18962700  0.76785700  0.95691100  1
  O  O9  1  0.81037300  0.23214300  0.04308900  1
  O  O10  1  0.68962700  0.23214300  0.54308900  1
  O  O11  1  0.31037300  0.76785700  0.45691100  1
loop_
_geom_bond_atom_site_label_1
_geom_bond_atom_site_label_2
_geom_bond_distance
_geom_bond_site_symmetry_2
O0 Ta0 2.019770 1_556
O0 Sm0 2.328950 1_555
O0 Sr2 2.527550 1_455
O0 Sr0 2.632106 1_555
O1 Ta0 2.019770 1_665
O1 Sm0 2.328950 1_655
O1 Sr3 2.527550 1_655
O1 Sr1 2.632106 1_555
O2 Ta1 2.019770 1_565
O2 Sm1 2.328950 1_556
O2 Sr0 2.527550 1_555
O2 Sr2 2.632106 1_555
O3 Ta1 2.019770 1_555
O3 Sm1 2.328950 1_555
O3 Sr1 2.527550 1_555
O3 Sr3 2.632106 1_555
O4 Ta0 2.029561 1_666
O4 Sm1 2.333503 1_556
O4 Sr0 2.561759 1_565
O4 Sr2 2.783583 1_555
O4 Sr1 3.022866 1_556
O5 Ta0 2.029561 1_555
O5 Sm1 2.333503 1_555
O5 Sr1 2.561759 1_545
O5 Sr3 2.783583 1_555
O5 Sr0 3.022866 1_554
O6 Ta1 2.029561 1_555
O6 Sm0 2.333503 1_555
O6 Sr2 2.561759 1_445
O6 Sr0 2.783583 1_555
O6 Sr3 3.022866 1_555
O7 Ta1 2.029561 1_565
O7 Sm0 2.333503 1_655
O7 Sr3 2.561759 1_665
O7 Sr1 2.783583 1_555
O7 Sr2 3.022866 1_555
O8 Ta0 2.013553 1_566
O8 Sm1 2.319576 1_556
O8 Sr2 2.544829 1_455
O8 Sr0 2.854811 1_565
O8 Sr3 2.947835 1_556
O9 Ta0 2.013553 1_655
O9 Sm1 2.319576 1_555
O9 Sr3 2.544829 1_655
O9 Sr1 2.854811 1_545
O9 Sr2 2.947835 1_554
O10 Ta1 2.013553 1_555
O10 Sm0 2.319576 1_655
O10 Sr0 2.544829 1_555
O10 Sr2 2.854811 1_545
O10 Sr1 2.947835 1_555
O11 Ta1 2.013553 1_565
O11 Sm0 2.319576 1_555
O11 Sr1 2.544829 1_555
O11 Sr3 2.854811 1_565
O11 Sr0 2.947835 1_555
