# generated using pymatgen
data_LiZr2(PO4)3
_symmetry_space_group_name_H-M   'P 1'
_cell_length_a   8.03043852
_cell_length_b   8.81158826
_cell_length_c   15.34900627
_cell_angle_alpha   52.26805845
_cell_angle_beta   36.86867867
_cell_angle_gamma   53.36193525
_symmetry_Int_Tables_number   1
_chemical_formula_structural   LiZr2(PO4)3
_chemical_formula_sum   'Li2 Zr4 P6 O24'
_cell_volume   502.05863594
_cell_formula_units_Z   2
loop_
 _symmetry_equiv_pos_site_id
 _symmetry_equiv_pos_as_xyz
  1  'x, y, z'
loop_
 _atom_site_type_symbol
 _atom_site_label
 _atom_site_symmetry_multiplicity
 _atom_site_fract_x
 _atom_site_fract_y
 _atom_site_fract_z
 _atom_site_occupancy
  Li  Li0  1  0.00335200  0.07066000  0.36943200  1
  Li  Li1  1  0.99664800  0.92934000  0.63056800  1
  Zr  Zr0  1  0.58470500  0.14056000  0.06727000  1
  Zr  Zr1  1  0.42346900  0.35241600  0.44435300  1
  Zr  Zr2  1  0.57653100  0.64758400  0.55564700  1
  Zr  Zr3  1  0.41529500  0.85944000  0.93273000  1
  P  P0  1  0.97080900  0.50881000  0.24474000  1
  P  P1  1  0.17176400  0.92105100  0.80403500  1
  P  P2  1  0.23968000  0.78921800  0.23322700  1
  P  P3  1  0.76032000  0.21078200  0.76677300  1
  P  P4  1  0.82823700  0.07894900  0.19596500  1
  P  P5  1  0.02919100  0.49119000  0.75526000  1
  O  O0  1  0.14898500  0.66509200  0.09548300  1
  O  O1  1  0.71874100  0.52958900  0.27894100  1
  O  O2  1  0.17995800  0.30197600  0.21700400  1
  O  O3  1  0.63065200  0.13611300  0.49284300  1
  O  O4  1  0.34253800  0.96381000  0.79773400  1
  O  O5  1  0.30491500  0.94736400  0.21286800  1
  O  O6  1  0.13872800  0.48214300  0.61877600  1
  O  O7  1  0.33593900  0.75368300  0.73950900  1
  O  O8  1  0.91859500  0.88472100  0.29223600  1
  O  O9  1  0.45310400  0.74312000  0.08539200  1
  O  O10  1  0.12255900  0.09449800  0.03273500  1
  O  O11  1  0.18101100  0.61456700  0.36737100  1
  O  O12  1  0.81898900  0.38543300  0.63262900  1
  O  O13  1  0.87744100  0.90550200  0.96726500  1
  O  O14  1  0.54689600  0.25688000  0.91460800  1
  O  O15  1  0.08140500  0.11527900  0.70776400  1
  O  O16  1  0.66406100  0.24631700  0.26049100  1
  O  O17  1  0.86127200  0.51785700  0.38122400  1
  O  O18  1  0.69508600  0.05263700  0.78713100  1
  O  O19  1  0.65746200  0.03619000  0.20226600  1
  O  O20  1  0.36934800  0.86388700  0.50715700  1
  O  O21  1  0.82004200  0.69802400  0.78299600  1
  O  O22  1  0.28125900  0.47041100  0.72105900  1
  O  O23  1  0.85101500  0.33490800  0.90451700  1
loop_
_geom_bond_atom_site_label_1
_geom_bond_atom_site_label_2
_geom_bond_distance
_geom_bond_site_symmetry_2
Li0 O3 1.756223 1_455
Li0 O5 1.887772 1_545
Li0 O2 1.985974 1_555
Li1 O20 1.756223 1_655
Li1 O18 1.887768 1_565
Li1 O21 1.985974 1_555
O0 P0 1.561295 1_455
O0 Zr3 2.081785 1_554
O1 P0 1.543254 1_555
O1 Zr1 2.107175 1_555
O2 P0 1.573518 1_455
O2 Zr0 2.097740 1_555
O3 Zr1 1.848006 1_555
O4 P1 1.546578 1_555
O4 Zr3 2.108074 1_555
O5 P2 1.546078 1_555
O5 Zr0 2.194378 1_565
O6 P5 1.530024 1_555
O6 Zr1 2.129278 1_555
O7 P1 1.507293 1_555
O7 Zr2 2.218206 1_555
O8 P4 1.666494 1_565
O8 P2 1.668354 1_655
O9 P2 1.525124 1_555
O9 Zr3 2.112049 1_554
O10 P4 1.540703 1_455
O10 Zr3 2.116321 1_544
O11 P2 1.504902 1_555
O11 Zr1 2.344251 1_555
O12 P3 1.504902 1_555
O12 Zr2 2.344251 1_555
O13 P1 1.540705 1_655
O13 Zr0 2.116321 1_566
O14 P3 1.525124 1_555
O14 Zr0 2.112049 1_556
O15 P1 1.666498 1_545
O15 P3 1.668354 1_455
O16 P4 1.507291 1_555
O16 Zr1 2.218206 1_555
O17 P0 1.530024 1_555
O17 Zr2 2.129278 1_555
O18 P3 1.546073 1_555
O18 Zr3 2.194386 1_545
O19 P4 1.546586 1_555
O19 Zr0 2.108074 1_555
O20 Zr2 1.848006 1_555
O21 P5 1.573518 1_655
O21 Zr3 2.097740 1_555
O22 P5 1.543254 1_555
O22 Zr2 2.107175 1_555
O23 P5 1.561295 1_655
O23 Zr0 2.081785 1_556
