# generated using pymatgen
data_Dy2VO5
_symmetry_space_group_name_H-M   'P 1'
_cell_length_a   7.06046800
_cell_length_b   6.79965100
_cell_length_c   9.38804447
_cell_angle_alpha   79.19419139
_cell_angle_beta   90.00000000
_cell_angle_gamma   90.00000000
_symmetry_Int_Tables_number   1
_chemical_formula_structural   Dy2VO5
_chemical_formula_sum   'Dy8 V4 O20'
_cell_volume   442.71614045
_cell_formula_units_Z   4
loop_
 _symmetry_equiv_pos_site_id
 _symmetry_equiv_pos_as_xyz
  1  'x, y, z'
loop_
 _atom_site_type_symbol
 _atom_site_label
 _atom_site_symmetry_multiplicity
 _atom_site_fract_x
 _atom_site_fract_y
 _atom_site_fract_z
 _atom_site_occupancy
  Dy  Dy0  1  0.64263500  0.98869900  0.84985500  1
  Dy  Dy1  1  0.14263500  0.51130100  0.15014500  1
  Dy  Dy2  1  0.35736500  0.01130100  0.15014500  1
  Dy  Dy3  1  0.85736500  0.48869900  0.84985500  1
  Dy  Dy4  1  0.62051600  0.76466800  0.52948200  1
  Dy  Dy5  1  0.12051600  0.73533200  0.47051800  1
  Dy  Dy6  1  0.37948400  0.23533200  0.47051800  1
  Dy  Dy7  1  0.87948400  0.26466800  0.52948200  1
  V  V0  1  0.09880700  0.98862400  0.80383300  1
  V  V1  1  0.59880700  0.51137600  0.19616700  1
  V  V2  1  0.90119300  0.01137600  0.19616700  1
  V  V3  1  0.40119300  0.48862400  0.80383300  1
  O  O0  1  0.38388800  0.92443800  0.39251800  1
  O  O1  1  0.88388800  0.57556200  0.60748200  1
  O  O2  1  0.61611200  0.07556200  0.60748200  1
  O  O3  1  0.11611200  0.42443800  0.39251800  1
  O  O4  1  0.91928100  0.19367200  0.77872000  1
  O  O5  1  0.41928100  0.30632800  0.22128000  1
  O  O6  1  0.08071900  0.80632800  0.22128000  1
  O  O7  1  0.58071900  0.69367200  0.77872000  1
  O  O8  1  0.14160900  0.02664600  0.60395500  1
  O  O9  1  0.64160900  0.47335400  0.39604500  1
  O  O10  1  0.85839100  0.97335400  0.39604500  1
  O  O11  1  0.35839100  0.52664600  0.60395500  1
  O  O12  1  0.92450900  0.80853600  0.87506600  1
  O  O13  1  0.42450900  0.69146400  0.12493400  1
  O  O14  1  0.07549100  0.19146400  0.12493400  1
  O  O15  1  0.57549100  0.30853600  0.87506600  1
  O  O16  1  0.31619100  0.00503500  0.89886300  1
  O  O17  1  0.81619100  0.49496500  0.10113700  1
  O  O18  1  0.68380900  0.99496500  0.10113700  1
  O  O19  1  0.18380900  0.50503500  0.89886300  1
loop_
_geom_bond_atom_site_label_1
_geom_bond_atom_site_label_2
_geom_bond_distance
_geom_bond_site_symmetry_2
Dy0 O2 2.248884 1_565
Dy0 O7 2.272396 1_555
Dy0 O15 2.281103 1_565
Dy0 O12 2.325679 1_555
Dy0 O16 2.357012 1_565
Dy0 O18 2.385187 1_556
Dy0 O4 2.419647 1_565
Dy1 O3 2.248884 1_555
Dy1 O6 2.272396 1_555
Dy1 O14 2.281103 1_555
Dy1 O13 2.325679 1_555
Dy1 O17 2.357012 1_455
Dy1 O19 2.385187 1_554
Dy1 O5 2.419647 1_555
Dy2 O0 2.248884 1_545
Dy2 O5 2.272396 1_555
Dy2 O13 2.281103 1_545
Dy2 O14 2.325679 1_555
Dy2 O18 2.357012 1_545
Dy2 O16 2.385187 1_554
Dy2 O6 2.419647 1_545
Dy3 O1 2.248884 1_555
Dy3 O4 2.272396 1_555
Dy3 O12 2.281103 1_555
Dy3 O15 2.325679 1_555
Dy3 O19 2.357012 1_655
Dy3 O17 2.385187 1_556
Dy3 O7 2.419647 1_555
Dy4 O0 2.258548 1_555
Dy4 O1 2.300962 1_555
Dy4 O7 2.315899 1_555
Dy4 O2 2.363576 1_565
Dy4 O10 2.395214 1_555
Dy4 O11 2.471668 1_555
Dy4 O9 2.538820 1_555
Dy5 O1 2.258548 1_455
Dy5 O0 2.300962 1_555
Dy5 O6 2.315899 1_555
Dy5 O3 2.363576 1_555
Dy5 O11 2.395214 1_555
Dy5 O10 2.471668 1_455
Dy5 O8 2.538820 1_565
Dy6 O2 2.258548 1_555
Dy6 O3 2.300962 1_555
Dy6 O5 2.315899 1_555
Dy6 O0 2.363576 1_545
Dy6 O8 2.395214 1_555
Dy6 O9 2.471668 1_555
Dy6 O11 2.538820 1_555
Dy7 O3 2.258548 1_655
Dy7 O2 2.300962 1_555
Dy7 O4 2.315899 1_555
Dy7 O1 2.363576 1_555
Dy7 O9 2.395214 1_555
Dy7 O8 2.471668 1_655
Dy7 O10 2.538820 1_545
O4 V0 1.866260 1_645
O5 V1 1.866260 1_555
O6 V2 1.866260 1_465
O7 V3 1.866260 1_555
O8 V0 1.870127 1_545
O9 V1 1.870127 1_555
O10 V2 1.870127 1_565
O11 V3 1.870127 1_555
O12 V0 1.775974 1_655
O13 V1 1.775974 1_555
O14 V2 1.775974 1_455
O15 V3 1.775974 1_555
O16 V0 1.789250 1_545
O17 V1 1.789250 1_555
O18 V2 1.789250 1_565
O19 V3 1.789250 1_555
