# generated using pymatgen
data_Mg3In
_symmetry_space_group_name_H-M   'P 1'
_cell_length_a   20.27850298
_cell_length_b   20.27850298
_cell_length_c   20.27850185
_cell_angle_alpha   18.81931009
_cell_angle_beta   18.81931009
_cell_angle_gamma   18.81931434
_symmetry_Int_Tables_number   1
_chemical_formula_structural   Mg3In
_chemical_formula_sum   'Mg24 In8'
_cell_volume   758.24952158
_cell_formula_units_Z   8
loop_
 _symmetry_equiv_pos_site_id
 _symmetry_equiv_pos_as_xyz
  1  'x, y, z'
loop_
 _atom_site_type_symbol
 _atom_site_label
 _atom_site_symmetry_multiplicity
 _atom_site_fract_x
 _atom_site_fract_y
 _atom_site_fract_z
 _atom_site_occupancy
  Mg  Mg0_0  1  0.12489050  0.12489050  0.12489050  1
  Mg  Mg0_1  1  0.12489050  0.12489050  0.62489050  1
  Mg  Mg0_2  1  0.12489050  0.62489050  0.12489050  1
  Mg  Mg0_3  1  0.12489050  0.62489050  0.62489050  1
  Mg  Mg0_4  1  0.62489050  0.12489050  0.12489050  1
  Mg  Mg0_5  1  0.62489050  0.12489050  0.62489050  1
  Mg  Mg0_6  1  0.62489050  0.62489050  0.12489050  1
  Mg  Mg0_7  1  0.62489050  0.62489050  0.62489050  1
  Mg  Mg1_0  1  0.25000000  0.25000000  0.25000000  1
  Mg  Mg1_1  1  0.25000000  0.25000000  0.75000000  1
  Mg  Mg1_2  1  0.25000000  0.75000000  0.25000000  1
  Mg  Mg1_3  1  0.25000000  0.75000000  0.75000000  1
  Mg  Mg1_4  1  0.75000000  0.25000000  0.25000000  1
  Mg  Mg1_5  1  0.75000000  0.25000000  0.75000000  1
  Mg  Mg1_6  1  0.75000000  0.75000000  0.25000000  1
  Mg  Mg1_7  1  0.75000000  0.75000000  0.75000000  1
  Mg  Mg2_0  1  0.37510950  0.37510950  0.37510950  1
  Mg  Mg2_1  1  0.37510950  0.37510950  0.87510950  1
  Mg  Mg2_2  1  0.37510950  0.87510950  0.37510950  1
  Mg  Mg2_3  1  0.37510950  0.87510950  0.87510950  1
  Mg  Mg2_4  1  0.87510950  0.37510950  0.37510950  1
  Mg  Mg2_5  1  0.87510950  0.37510950  0.87510950  1
  Mg  Mg2_6  1  0.87510950  0.87510950  0.37510950  1
  Mg  Mg2_7  1  0.87510950  0.87510950  0.87510950  1
  In  In0_0  1  0.00000000  0.00000000  0.00000000  1
  In  In0_1  1  0.00000000  0.00000000  0.50000000  1
  In  In0_2  1  0.00000000  0.50000000  0.00000000  1
  In  In0_3  1  0.00000000  0.50000000  0.50000000  1
  In  In0_4  1  0.50000000  0.00000000  0.00000000  1
  In  In0_5  1  0.50000000  0.00000000  0.50000000  1
  In  In0_6  1  0.50000000  0.50000000  0.00000000  1
  In  In0_7  1  0.50000000  0.50000000  0.50000000  1
loop_
_geom_bond_atom_site_label_1
_geom_bond_atom_site_label_2
_geom_bond_distance
_geom_bond_site_symmetry_2
Mg0_0 Mg1_1 3.134910 1_554
Mg0_0 Mg1_4 3.134911 1_455
Mg0_0 Mg1_2 3.134911 1_545
Mg0_0 Mg0_5 3.315377 1_455
Mg0_0 Mg0_3 3.315377 1_545
Mg0_0 Mg0_3 3.315377 1_554
Mg0_0 Mg0_5 3.315377 1_554
Mg0_0 Mg0_6 3.315378 1_545
Mg0_0 Mg0_6 3.315378 1_455
Mg0_1 Mg1_0 3.134910 1_555
Mg0_1 Mg1_3 3.134911 1_545
Mg0_1 Mg1_5 3.134911 1_455
Mg0_1 Mg0_2 3.315377 1_555
Mg0_1 Mg0_4 3.315377 1_555
Mg0_1 Mg0_4 3.315377 1_456
Mg0_1 Mg0_2 3.315377 1_546
Mg0_1 Mg0_7 3.315378 1_455
Mg0_1 Mg0_7 3.315378 1_545
Mg0_2 Mg1_3 3.134910 1_554
Mg0_2 Mg1_6 3.134911 1_455
Mg0_2 Mg1_0 3.134911 1_555
Mg0_2 Mg0_7 3.315377 1_455
Mg0_2 Mg0_7 3.315377 1_554
Mg0_2 Mg0_4 3.315378 1_555
Mg0_2 Mg0_4 3.315378 1_465
Mg0_3 Mg1_2 3.134910 1_555
Mg0_3 Mg1_7 3.134911 1_455
Mg0_3 Mg1_1 3.134911 1_555
Mg0_3 Mg0_6 3.315377 1_555
Mg0_3 Mg0_6 3.315377 1_456
Mg0_3 Mg0_5 3.315378 1_465
Mg0_3 Mg0_5 3.315378 1_555
Mg0_4 Mg1_5 3.134910 1_554
Mg0_4 Mg1_6 3.134911 1_545
Mg0_4 Mg1_0 3.134911 1_555
Mg0_4 Mg0_7 3.315377 1_545
Mg0_4 Mg0_7 3.315377 1_554
Mg0_5 Mg1_4 3.134910 1_555
Mg0_5 Mg1_7 3.134911 1_545
Mg0_5 Mg1_1 3.134911 1_555
Mg0_5 Mg0_6 3.315377 1_555
Mg0_5 Mg0_6 3.315377 1_546
Mg0_6 Mg1_7 3.134910 1_554
Mg0_6 Mg1_4 3.134911 1_555
Mg0_6 Mg1_2 3.134911 1_555
Mg0_7 Mg1_6 3.134910 1_555
Mg0_7 Mg1_5 3.134911 1_555
Mg0_7 Mg1_3 3.134911 1_555
Mg1_0 Mg2_1 3.134910 1_554
Mg1_0 Mg2_2 3.134911 1_545
Mg1_0 Mg2_4 3.134911 1_455
Mg1_0 Mg1_5 3.315377 1_455
Mg1_0 Mg1_3 3.315377 1_545
Mg1_0 Mg1_5 3.315377 1_554
Mg1_0 Mg1_3 3.315377 1_554
Mg1_0 Mg1_6 3.315378 1_455
Mg1_0 Mg1_6 3.315378 1_545
Mg1_1 Mg2_0 3.134910 1_555
Mg1_1 Mg2_3 3.134911 1_545
Mg1_1 Mg2_5 3.134911 1_455
Mg1_1 Mg1_4 3.315377 1_555
Mg1_1 Mg1_4 3.315377 1_456
Mg1_1 Mg1_2 3.315377 1_555
Mg1_1 Mg1_2 3.315377 1_546
Mg1_1 Mg1_7 3.315378 1_545
Mg1_1 Mg1_7 3.315378 1_455
Mg1_2 Mg2_3 3.134910 1_554
Mg1_2 Mg2_6 3.134911 1_455
Mg1_2 Mg2_0 3.134911 1_555
Mg1_2 Mg1_7 3.315377 1_455
Mg1_2 Mg1_7 3.315377 1_554
Mg1_2 Mg1_4 3.315378 1_555
Mg1_2 Mg1_4 3.315378 1_465
Mg1_3 Mg2_2 3.134910 1_555
Mg1_3 Mg2_1 3.134911 1_555
Mg1_3 Mg2_7 3.134911 1_455
Mg1_3 Mg1_6 3.315377 1_555
Mg1_3 Mg1_6 3.315377 1_456
Mg1_3 Mg1_5 3.315378 1_465
Mg1_3 Mg1_5 3.315378 1_555
Mg1_4 Mg2_5 3.134910 1_554
Mg1_4 Mg2_6 3.134911 1_545
Mg1_4 Mg2_0 3.134911 1_555
Mg1_4 Mg1_7 3.315377 1_545
Mg1_4 Mg1_7 3.315377 1_554
Mg1_5 Mg2_4 3.134910 1_555
Mg1_5 Mg2_1 3.134911 1_555
Mg1_5 Mg2_7 3.134911 1_545
Mg1_5 Mg1_6 3.315377 1_555
Mg1_5 Mg1_6 3.315377 1_546
Mg1_6 Mg2_7 3.134910 1_554
Mg1_6 Mg2_4 3.134911 1_555
Mg1_6 Mg2_2 3.134911 1_555
Mg1_7 Mg2_6 3.134910 1_555
Mg1_7 Mg2_5 3.134911 1_555
Mg1_7 Mg2_3 3.134911 1_555
Mg2_0 Mg2_3 3.315377 1_545
Mg2_0 Mg2_5 3.315377 1_455
Mg2_0 Mg2_3 3.315377 1_554
Mg2_0 Mg2_5 3.315377 1_554
Mg2_0 Mg2_6 3.315378 1_455
Mg2_0 Mg2_6 3.315378 1_545
Mg2_1 Mg2_2 3.315377 1_546
Mg2_1 Mg2_4 3.315377 1_456
Mg2_1 Mg2_2 3.315377 1_555
Mg2_1 Mg2_4 3.315377 1_555
Mg2_1 Mg2_7 3.315378 1_455
Mg2_1 Mg2_7 3.315378 1_545
Mg2_2 Mg2_7 3.315377 1_554
Mg2_2 Mg2_7 3.315377 1_455
Mg2_2 Mg2_4 3.315378 1_465
Mg2_2 Mg2_4 3.315378 1_555
Mg2_3 Mg2_6 3.315377 1_456
Mg2_3 Mg2_6 3.315377 1_555
Mg2_3 Mg2_5 3.315378 1_465
Mg2_3 Mg2_5 3.315378 1_555
Mg2_4 Mg2_7 3.315377 1_554
Mg2_4 Mg2_7 3.315377 1_545
Mg2_5 Mg2_6 3.315377 1_546
Mg2_5 Mg2_6 3.315377 1_555
In0_0 Mg0_1 3.145282 1_554
In0_0 Mg2_6 3.145282 1_445
In0_0 Mg0_2 3.145283 1_545
In0_0 Mg0_4 3.145283 1_455
In0_0 Mg2_3 3.145283 1_544
In0_0 Mg2_5 3.145283 1_454
In0_1 Mg2_7 3.145282 1_445
In0_1 Mg0_0 3.145282 1_555
In0_1 Mg0_5 3.145283 1_455
In0_1 Mg0_3 3.145283 1_545
In0_1 Mg2_4 3.145283 1_455
In0_1 Mg2_2 3.145283 1_545
In0_2 Mg0_3 3.145282 1_554
In0_2 Mg2_4 3.145282 1_455
In0_2 Mg2_7 3.145283 1_454
In0_2 Mg0_6 3.145283 1_455
In0_2 Mg0_0 3.145283 1_555
In0_2 Mg2_1 3.145283 1_554
In0_3 Mg0_2 3.145282 1_555
In0_3 Mg2_5 3.145282 1_455
In0_3 Mg0_7 3.145283 1_455
In0_3 Mg0_1 3.145283 1_555
In0_3 Mg2_0 3.145283 1_555
In0_3 Mg2_6 3.145283 1_455
In0_4 Mg0_5 3.145282 1_554
In0_4 Mg2_2 3.145282 1_545
In0_4 Mg2_7 3.145283 1_544
In0_4 Mg0_6 3.145283 1_545
In0_4 Mg0_0 3.145283 1_555
In0_4 Mg2_1 3.145283 1_554
In0_5 Mg0_4 3.145282 1_555
In0_5 Mg2_3 3.145282 1_545
In0_5 Mg0_7 3.145283 1_545
In0_5 Mg0_1 3.145283 1_555
In0_5 Mg2_0 3.145283 1_555
In0_5 Mg2_6 3.145283 1_545
In0_6 Mg0_7 3.145282 1_554
In0_6 Mg2_0 3.145282 1_555
In0_6 Mg0_2 3.145283 1_555
In0_6 Mg0_4 3.145283 1_555
In0_6 Mg2_5 3.145283 1_554
In0_6 Mg2_3 3.145283 1_554
In0_7 Mg0_6 3.145282 1_555
In0_7 Mg2_1 3.145282 1_555
In0_7 Mg0_3 3.145283 1_555
In0_7 Mg0_5 3.145283 1_555
In0_7 Mg2_2 3.145283 1_555
In0_7 Mg2_4 3.145283 1_555
