# generated using pymatgen
data_Lu2Al3Fe
_symmetry_space_group_name_H-M   'P 1'
_cell_length_a   5.32123967
_cell_length_b   5.32122868
_cell_length_c   5.32119625
_cell_angle_alpha   61.42603659
_cell_angle_beta   61.42608071
_cell_angle_gamma   61.42615478
_symmetry_Int_Tables_number   1
_chemical_formula_structural   Lu2Al3Fe
_chemical_formula_sum   'Lu2 Al3 Fe1'
_cell_volume   109.95393168
_cell_formula_units_Z   1
loop_
 _symmetry_equiv_pos_site_id
 _symmetry_equiv_pos_as_xyz
  1  'x, y, z'
loop_
 _atom_site_type_symbol
 _atom_site_label
 _atom_site_symmetry_multiplicity
 _atom_site_fract_x
 _atom_site_fract_y
 _atom_site_fract_z
 _atom_site_occupancy
  Lu  Lu0  1  0.62629855  0.62629365  0.62628495  1
  Lu  Lu1  1  0.37370145  0.37370635  0.37371505  1
  Al  Al0  1  -0.00000000  0.50000000  -0.00000000  1
  Al  Al1  1  0.50000000  0.00000000  -0.00000000  1
  Al  Al2  1  -0.00000000  0.00000000  0.50000000  1
  Fe  Fe0  1  -0.00000000  0.00000000  -0.00000000  1
loop_
_geom_bond_atom_site_label_1
_geom_bond_atom_site_label_2
_geom_bond_distance
_geom_bond_site_symmetry_2
Lu0 Lu1 3.256330 1_555
Lu0 Lu1 3.306308 1_655
Lu0 Lu1 3.306344 1_565
Lu0 Lu1 3.306400 1_556
Al0 Fe0 2.660614 1_555
Al0 Fe0 2.660614 1_565
Al0 Al2 2.717747 1_555
Al0 Al2 2.717747 1_564
Al0 Al1 2.717763 1_555
Al0 Al1 2.717763 1_465
Al0 Lu1 3.096219 1_555
Al0 Lu0 3.096219 1_454
Al0 Lu0 3.168095 1_455
Al0 Lu1 3.168095 1_554
Al0 Lu1 3.168179 1_455
Al0 Lu0 3.168179 1_554
Al1 Fe0 2.660620 1_555
Al1 Fe0 2.660620 1_655
Al1 Al2 2.717751 1_555
Al1 Al2 2.717751 1_654
Al1 Lu1 3.096228 1_555
Al1 Lu0 3.096228 1_544
Al1 Lu1 3.168105 1_554
Al1 Lu0 3.168105 1_545
Al1 Lu0 3.168162 1_554
Al1 Lu1 3.168162 1_545
Al2 Fe0 2.660598 1_555
Al2 Fe0 2.660598 1_556
Al2 Lu0 3.096209 1_445
Al2 Lu1 3.096209 1_555
Al2 Lu0 3.168133 1_455
Al2 Lu1 3.168133 1_545
Al2 Lu0 3.168161 1_545
Al2 Lu1 3.168161 1_455
Fe0 Lu0 3.181024 1_445
Fe0 Lu1 3.181024 1_554
Fe0 Lu0 3.181072 1_454
Fe0 Lu1 3.181072 1_545
Fe0 Lu1 3.181098 1_455
Fe0 Lu0 3.181098 1_544
