# generated using pymatgen
data_Rb(CrS2)2
_symmetry_space_group_name_H-M   'P 1'
_cell_length_a   5.95796691
_cell_length_b   6.87662561
_cell_length_c   15.97377431
_cell_angle_alpha   90.00000000
_cell_angle_beta   90.00000000
_cell_angle_gamma   90.00000000
_symmetry_Int_Tables_number   1
_chemical_formula_structural   Rb(CrS2)2
_chemical_formula_sum   'Rb4 Cr8 S16'
_cell_volume   654.45684031
_cell_formula_units_Z   4
loop_
 _symmetry_equiv_pos_site_id
 _symmetry_equiv_pos_as_xyz
  1  'x, y, z'
loop_
 _atom_site_type_symbol
 _atom_site_label
 _atom_site_symmetry_multiplicity
 _atom_site_fract_x
 _atom_site_fract_y
 _atom_site_fract_z
 _atom_site_occupancy
  Rb  Rb0  1  0.35971773  -0.00000000  0.00000000  1
  Rb  Rb1  1  0.64028227  0.50000000  0.50000000  1
  Rb  Rb2  1  0.02800823  -0.00000000  0.50000000  1
  Rb  Rb3  1  0.97199177  0.50000000  0.00000000  1
  Cr  Cr0  1  0.00307163  -0.00000000  0.25030806  1
  Cr  Cr1  1  0.00307163  -0.00000000  0.74969194  1
  Cr  Cr2  1  -0.00307163  0.50000000  0.24969194  1
  Cr  Cr3  1  -0.00307163  0.50000000  0.75030806  1
  Cr  Cr4  1  0.50000000  0.25000000  0.25000000  1
  Cr  Cr5  1  0.50000000  0.75000000  0.75000000  1
  Cr  Cr6  1  0.50000000  0.75000000  0.25000000  1
  Cr  Cr7  1  0.50000000  0.25000000  0.75000000  1
  S  S0  1  0.83393519  0.24991421  0.33374412  1
  S  S1  1  0.83393519  0.75008579  0.66625588  1
  S  S2  1  0.16606481  0.74991421  0.16625588  1
  S  S3  1  0.16606481  0.25008579  0.83374412  1
  S  S4  1  0.16606481  0.25008579  0.16625588  1
  S  S5  1  0.16606481  0.74991421  0.83374412  1
  S  S6  1  0.83393519  0.75008579  0.33374412  1
  S  S7  1  0.83393519  0.24991421  0.66625588  1
  S  S8  1  0.67202350  -0.00000000  0.16692875  1
  S  S9  1  0.67202350  -0.00000000  0.83307125  1
  S  S10  1  0.32797650  0.50000000  0.33307125  1
  S  S11  1  0.32797650  0.50000000  0.66692875  1
  S  S12  1  0.33841392  -0.00000000  0.33347654  1
  S  S13  1  0.33841392  -0.00000000  0.66652346  1
  S  S14  1  0.66158608  0.50000000  0.16652346  1
  S  S15  1  0.66158608  0.50000000  0.83347654  1
loop_
_geom_bond_atom_site_label_1
_geom_bond_atom_site_label_2
_geom_bond_distance
_geom_bond_site_symmetry_2
Rb0 S9 3.251516 1_554
Rb0 S8 3.251516 1_555
Rb0 S2 3.367737 1_545
Rb0 S4 3.367737 1_555
Rb0 S3 3.367737 1_554
Rb0 S5 3.367737 1_544
Rb1 S11 3.251516 1_555
Rb1 S10 3.251516 1_555
Rb1 S7 3.367737 1_555
Rb1 S6 3.367737 1_555
Rb1 S0 3.367737 1_555
Rb1 S1 3.367737 1_555
Rb2 S13 3.239734 1_555
Rb2 S12 3.239734 1_555
Rb2 S1 3.367993 1_445
Rb2 S0 3.367993 1_455
Rb2 S7 3.367993 1_455
Rb2 S6 3.367993 1_445
Rb3 S15 3.239734 1_554
Rb3 S14 3.239734 1_555
Rb3 S2 3.367993 1_655
Rb3 S4 3.367993 1_655
Rb3 S3 3.367993 1_654
Rb3 S5 3.367993 1_654
Cr0 S8 2.379951 1_455
Cr0 S2 2.388145 1_545
Cr0 S4 2.388145 1_555
Cr0 S0 2.396930 1_455
Cr0 S6 2.396930 1_445
Cr0 S12 2.399331 1_555
Cr1 S9 2.379951 1_455
Cr1 S3 2.388145 1_555
Cr1 S5 2.388145 1_545
Cr1 S1 2.396930 1_445
Cr1 S7 2.396930 1_455
Cr1 S13 2.399331 1_555
Cr2 S10 2.379951 1_555
Cr2 S6 2.388145 1_455
Cr2 S0 2.388145 1_455
Cr2 S4 2.396930 1_555
Cr2 S2 2.396930 1_555
Cr2 S14 2.399331 1_455
Cr3 S11 2.379951 1_555
Cr3 S7 2.388145 1_455
Cr3 S1 2.388145 1_455
Cr3 S5 2.396930 1_555
Cr3 S3 2.396930 1_555
Cr3 S15 2.399331 1_455
Cr4 S12 2.379157 1_555
Cr4 S14 2.379157 1_555
Cr4 S4 2.397473 1_555
Cr4 S0 2.397473 1_555
Cr4 S10 2.401409 1_555
Cr4 S8 2.401409 1_555
Cr5 S15 2.379157 1_555
Cr5 S13 2.379157 1_565
Cr5 S5 2.397473 1_555
Cr5 S1 2.397473 1_555
Cr5 S11 2.401409 1_555
Cr5 S9 2.401409 1_565
Cr6 S12 2.379157 1_565
Cr6 S14 2.379157 1_555
Cr6 S2 2.397473 1_555
Cr6 S6 2.397473 1_555
Cr6 S10 2.401409 1_555
Cr6 S8 2.401409 1_565
Cr7 S15 2.379157 1_555
Cr7 S13 2.379157 1_555
Cr7 S3 2.397473 1_555
Cr7 S7 2.397473 1_555
Cr7 S11 2.401409 1_555
Cr7 S9 2.401409 1_555
