# generated using pymatgen
data_LiErGe
_symmetry_space_group_name_H-M   'P 1'
_cell_length_a   6.97215353
_cell_length_b   6.97215303
_cell_length_c   4.19521924
_cell_angle_alpha   90.00000000
_cell_angle_beta   90.00000000
_cell_angle_gamma   120.00000735
_symmetry_Int_Tables_number   1
_chemical_formula_structural   LiErGe
_chemical_formula_sum   'Li3 Er3 Ge3'
_cell_volume   176.61155482
_cell_formula_units_Z   3
loop_
 _symmetry_equiv_pos_site_id
 _symmetry_equiv_pos_as_xyz
  1  'x, y, z'
loop_
 _atom_site_type_symbol
 _atom_site_label
 _atom_site_symmetry_multiplicity
 _atom_site_fract_x
 _atom_site_fract_y
 _atom_site_fract_z
 _atom_site_occupancy
  Li  Li0  1  0.23306100  -0.00000000  0.50000000  1
  Li  Li1  1  0.76693900  0.76693900  0.50000000  1
  Li  Li2  1  -0.00000000  0.23306100  0.50000000  1
  Er  Er0  1  0.00000000  0.57557819  -0.00000000  1
  Er  Er1  1  0.57557819  0.00000000  0.00000000  1
  Er  Er2  1  0.42442181  0.42442181  -0.00000000  1
  Ge  Ge0  1  0.33333300  0.66666700  0.50000000  1
  Ge  Ge1  1  0.66666700  0.33333300  0.50000000  1
  Ge  Ge2  1  -0.00000000  -0.00000000  -0.00000000  1
loop_
_geom_bond_atom_site_label_1
_geom_bond_atom_site_label_2
_geom_bond_distance
_geom_bond_site_symmetry_2
Er0 Ge0 2.954409 1_555
Er0 Ge0 2.954409 1_554
Er0 Ge1 2.954410 1_455
Er0 Ge1 2.954410 1_454
Er0 Ge2 2.959134 1_565
Er1 Ge1 2.954409 1_555
Er1 Ge1 2.954409 1_554
Er1 Ge0 2.954410 1_545
Er1 Ge0 2.954410 1_544
Er1 Ge2 2.959134 1_655
Er2 Ge0 2.954414 1_555
Er2 Ge0 2.954414 1_554
Er2 Ge1 2.954414 1_555
Er2 Ge1 2.954414 1_554
Er2 Ge2 2.959134 1_555
Ge0 Li0 2.741301 1_565
Ge0 Li2 2.741305 1_555
Ge0 Li1 2.741308 1_555
Ge1 Li2 2.741301 1_655
Ge1 Li0 2.741305 1_555
Ge1 Li1 2.741307 1_555
Ge2 Li1 2.653373 1_445
Ge2 Li1 2.653373 1_444
Ge2 Li2 2.653373 1_555
Ge2 Li2 2.653373 1_554
Ge2 Li0 2.653373 1_555
Ge2 Li0 2.653373 1_554
