# generated using pymatgen
data_RbEuCl3
_symmetry_space_group_name_H-M   'P 1'
_cell_length_a   5.65582500
_cell_length_b   5.65582500
_cell_length_c   5.65582500
_cell_angle_alpha   90.00000000
_cell_angle_beta   90.00000000
_cell_angle_gamma   90.00000000
_symmetry_Int_Tables_number   1
_chemical_formula_structural   RbEuCl3
_chemical_formula_sum   'Rb1 Eu1 Cl3'
_cell_volume   180.92054601
_cell_formula_units_Z   1
loop_
 _symmetry_equiv_pos_site_id
 _symmetry_equiv_pos_as_xyz
  1  'x, y, z'
loop_
 _atom_site_type_symbol
 _atom_site_label
 _atom_site_symmetry_multiplicity
 _atom_site_fract_x
 _atom_site_fract_y
 _atom_site_fract_z
 _atom_site_occupancy
  Rb  Rb0  1  0.50000000  0.50000000  0.50000000  1
  Eu  Eu0  1  0.00000000  0.00000000  0.00000000  1
  Cl  Cl0  1  0.50000000  0.00000000  0.00000000  1
  Cl  Cl1  1  0.00000000  0.50000000  0.00000000  1
  Cl  Cl2  1  0.00000000  0.00000000  0.50000000  1
loop_
_geom_bond_atom_site_label_1
_geom_bond_atom_site_label_2
_geom_bond_distance
_geom_bond_site_symmetry_2
Cl0 Eu0 2.827913 1_655
Cl0 Eu0 2.827913 1_555
Cl0 Rb0 3.999272 1_554
Cl0 Rb0 3.999272 1_555
Cl0 Rb0 3.999272 1_545
Cl0 Rb0 3.999272 1_544
Cl1 Eu0 2.827913 1_565
Cl1 Eu0 2.827913 1_555
Cl1 Rb0 3.999272 1_554
Cl1 Rb0 3.999272 1_455
Cl1 Rb0 3.999272 1_555
Cl1 Rb0 3.999272 1_454
Cl2 Eu0 2.827913 1_556
Cl2 Eu0 2.827913 1_555
Cl2 Rb0 3.999272 1_445
Cl2 Rb0 3.999272 1_455
Cl2 Rb0 3.999272 1_555
Cl2 Rb0 3.999272 1_545
