# generated using pymatgen
data_Na4AsHO5
_symmetry_space_group_name_H-M   'P 1'
_cell_length_a   7.52767800
_cell_length_b   8.39151800
_cell_length_c   9.11272600
_cell_angle_alpha   90.00000000
_cell_angle_beta   90.00000000
_cell_angle_gamma   90.00000000
_symmetry_Int_Tables_number   1
_chemical_formula_structural   Na4AsHO5
_chemical_formula_sum   'Na16 As4 H4 O20'
_cell_volume   575.63855764
_cell_formula_units_Z   4
loop_
 _symmetry_equiv_pos_site_id
 _symmetry_equiv_pos_as_xyz
  1  'x, y, z'
loop_
 _atom_site_type_symbol
 _atom_site_label
 _atom_site_symmetry_multiplicity
 _atom_site_fract_x
 _atom_site_fract_y
 _atom_site_fract_z
 _atom_site_occupancy
  Na  Na0  1  0.01348500  0.15241800  0.62934200  1
  Na  Na1  1  0.48651500  0.34758200  0.12934200  1
  Na  Na2  1  0.51348500  0.84758200  0.37065800  1
  Na  Na3  1  0.98651500  0.65241800  0.87065800  1
  Na  Na4  1  0.98651500  0.84758200  0.37065800  1
  Na  Na5  1  0.51348500  0.65241800  0.87065800  1
  Na  Na6  1  0.48651500  0.15241800  0.62934200  1
  Na  Na7  1  0.01348500  0.34758200  0.12934200  1
  Na  Na8  1  0.25000000  0.26553800  0.87011000  1
  Na  Na9  1  0.25000000  0.23446200  0.37011000  1
  Na  Na10  1  0.75000000  0.73446200  0.12989000  1
  Na  Na11  1  0.75000000  0.76553800  0.62989000  1
  Na  Na12  1  0.00000000  0.50000000  0.50000000  1
  Na  Na13  1  0.50000000  0.00000000  0.00000000  1
  Na  Na14  1  0.50000000  0.50000000  0.50000000  1
  Na  Na15  1  0.00000000  0.00000000  0.00000000  1
  As  As0  1  0.25000000  0.84990300  0.63751400  1
  As  As1  1  0.25000000  0.65009700  0.13751400  1
  As  As2  1  0.75000000  0.15009700  0.36248600  1
  As  As3  1  0.75000000  0.34990300  0.86248600  1
  H  H0  1  0.25000000  0.44905700  0.65754200  1
  H  H1  1  0.25000000  0.05094300  0.15754200  1
  H  H2  1  0.75000000  0.55094300  0.34245800  1
  H  H3  1  0.75000000  0.94905700  0.84245800  1
  O  O0  1  0.06236400  0.73263800  0.63047900  1
  O  O1  1  0.43763600  0.76736200  0.13047900  1
  O  O2  1  0.56236400  0.26736200  0.36952100  1
  O  O3  1  0.93763600  0.23263800  0.86952100  1
  O  O4  1  0.93763600  0.26736200  0.36952100  1
  O  O5  1  0.56236400  0.23263800  0.86952100  1
  O  O6  1  0.43763600  0.73263800  0.63047900  1
  O  O7  1  0.06236400  0.76736200  0.13047900  1
  O  O8  1  0.25000000  0.97159000  0.78988700  1
  O  O9  1  0.25000000  0.52841000  0.28988700  1
  O  O10  1  0.75000000  0.02841000  0.21011300  1
  O  O11  1  0.75000000  0.47159000  0.71011300  1
  O  O12  1  0.25000000  0.97227100  0.48293400  1
  O  O13  1  0.25000000  0.52772900  0.98293400  1
  O  O14  1  0.75000000  0.02772900  0.51706600  1
  O  O15  1  0.75000000  0.47227100  0.01706600  1
  O  O16  1  0.25000000  0.34355900  0.61313100  1
  O  O17  1  0.25000000  0.15644100  0.11313100  1
  O  O18  1  0.75000000  0.65644100  0.38686900  1
  O  O19  1  0.75000000  0.84355900  0.88686900  1
loop_
_geom_bond_atom_site_label_1
_geom_bond_atom_site_label_2
_geom_bond_distance
_geom_bond_site_symmetry_2
Na0 O3 2.359979 1_455
Na0 O16 2.400912 1_555
Na0 O14 2.464877 1_455
Na0 O4 2.619593 1_455
Na0 O12 2.689821 1_545
Na0 O8 2.759130 1_545
Na1 O2 2.359979 1_555
Na1 O17 2.400912 1_555
Na1 O15 2.464877 1_555
Na1 O5 2.619593 1_554
Na1 O13 2.689821 1_554
Na1 O9 2.759130 1_555
Na2 O1 2.359979 1_555
Na2 O18 2.400912 1_555
Na2 O12 2.464877 1_555
Na2 O6 2.619593 1_555
Na2 O14 2.689821 1_565
Na2 O10 2.759130 1_565
Na3 O0 2.359979 1_655
Na3 O19 2.400912 1_555
Na3 O13 2.464877 1_655
Na3 O7 2.619593 1_656
Na3 O15 2.689821 1_556
Na3 O11 2.759130 1_555
Na4 O7 2.359979 1_655
Na4 O18 2.400912 1_555
Na4 O12 2.464877 1_655
Na4 O0 2.619593 1_655
Na4 O14 2.689821 1_565
Na4 O10 2.759130 1_565
Na5 O6 2.359979 1_555
Na5 O19 2.400912 1_555
Na5 O13 2.464877 1_555
Na5 O1 2.619593 1_556
Na5 O15 2.689821 1_556
Na5 O11 2.759130 1_555
Na6 O5 2.359979 1_555
Na6 O16 2.400912 1_555
Na6 O14 2.464877 1_555
Na6 O2 2.619593 1_555
Na6 O12 2.689821 1_545
Na6 O8 2.759130 1_545
Na7 O4 2.359979 1_455
Na7 O17 2.400912 1_555
Na7 O15 2.464877 1_455
Na7 O3 2.619593 1_454
Na7 O13 2.689821 1_554
Na7 O9 2.759130 1_555
Na8 O5 2.367534 1_555
Na8 O3 2.367534 1_455
Na8 O17 2.396352 1_556
Na8 O13 2.428550 1_555
Na8 O16 2.431580 1_555
Na8 O8 2.572721 1_545
Na9 O2 2.367534 1_555
Na9 O4 2.367534 1_455
Na9 O16 2.396352 1_555
Na9 O12 2.428550 1_545
Na9 O17 2.431580 1_555
Na9 O9 2.572721 1_555
Na10 O1 2.367534 1_555
Na10 O7 2.367534 1_655
Na10 O19 2.396352 1_554
Na10 O15 2.428550 1_555
Na10 O18 2.431580 1_555
Na10 O10 2.572721 1_565
Na11 O6 2.367534 1_555
Na11 O0 2.367534 1_655
Na11 O18 2.396352 1_555
Na11 O14 2.428550 1_565
Na11 O19 2.431580 1_555
Na11 O11 2.572721 1_555
Na12 O4 2.333492 1_455
Na12 O0 2.333492 1_555
Na12 O16 2.515517 1_555
Na12 O18 2.515517 1_455
Na12 O9 2.695281 1_555
Na12 O11 2.695281 1_455
Na13 O5 2.333492 1_554
Na13 O1 2.333492 1_545
Na13 O17 2.515517 1_555
Na13 O19 2.515517 1_544
Na13 O8 2.695281 1_544
Na13 O10 2.695281 1_555
Na14 O6 2.333492 1_555
Na14 O2 2.333492 1_555
Na14 O16 2.515517 1_555
Na14 O18 2.515517 1_555
Na14 O9 2.695281 1_555
Na14 O11 2.695281 1_555
Na15 O7 2.333492 1_545
Na15 O3 2.333492 1_454
Na15 O17 2.515517 1_555
Na15 O19 2.515517 1_444
Na15 O8 2.695281 1_544
Na15 O10 2.695281 1_455
As0 O0 1.722638 1_555
As0 O6 1.722638 1_555
As0 O8 1.723586 1_555
As0 O12 1.743189 1_555
As1 O7 1.722638 1_555
As1 O1 1.722638 1_555
As1 O9 1.723586 1_555
As1 O13 1.743189 1_554
As2 O2 1.722638 1_555
As2 O4 1.722638 1_555
As2 O10 1.723586 1_555
As2 O14 1.743189 1_555
As3 O3 1.722638 1_555
As3 O5 1.722638 1_555
As3 O11 1.723586 1_555
As3 O15 1.743189 1_556
H0 O16 0.973407 1_555
H0 Na12 2.405290 1_555
H0 Na14 2.405290 1_555
H0 Na8 2.474644 1_555
H1 O17 0.973407 1_555
H1 Na13 2.405290 1_555
H1 Na15 2.405290 1_555
H1 Na9 2.474644 1_555
H2 O18 0.973407 1_555
H2 Na12 2.405290 1_655
H2 Na14 2.405290 1_555
H2 Na10 2.474644 1_555
H3 O19 0.973407 1_555
H3 Na15 2.405290 1_666
H3 Na13 2.405290 1_566
H3 Na11 2.474644 1_555
