# generated using pymatgen
data_BaTaCuO5
_symmetry_space_group_name_H-M   'P 1'
_cell_length_a   3.80533500
_cell_length_b   3.80533500
_cell_length_c   9.17285400
_cell_angle_alpha   90.00000000
_cell_angle_beta   90.00000000
_cell_angle_gamma   90.00000000
_symmetry_Int_Tables_number   1
_chemical_formula_structural   BaTaCuO5
_chemical_formula_sum   'Ba1 Ta1 Cu1 O5'
_cell_volume   132.82819538
_cell_formula_units_Z   1
loop_
 _symmetry_equiv_pos_site_id
 _symmetry_equiv_pos_as_xyz
  1  'x, y, z'
loop_
 _atom_site_type_symbol
 _atom_site_label
 _atom_site_symmetry_multiplicity
 _atom_site_fract_x
 _atom_site_fract_y
 _atom_site_fract_z
 _atom_site_occupancy
  Ba  Ba0  1  0.50000000  0.50000000  0.02930300  1
  Ta  Ta0  1  0.00000000  0.00000000  0.70839500  1
  Cu  Cu0  1  0.00000000  0.00000000  0.27530600  1
  O  O0  1  0.50000000  0.00000000  0.66361000  1
  O  O1  1  0.00000000  0.50000000  0.66361000  1
  O  O2  1  0.50000000  0.00000000  0.23567500  1
  O  O3  1  0.00000000  0.50000000  0.23567500  1
  O  O4  1  0.00000000  0.00000000  0.91229700  1
loop_
_geom_bond_atom_site_label_1
_geom_bond_atom_site_label_2
_geom_bond_distance
_geom_bond_site_symmetry_2
Ba0 O2 2.683965 1_555
Ba0 O3 2.683965 1_655
Ba0 O2 2.683965 1_565
Ba0 O3 2.683965 1_555
Ba0 O4 2.896932 1_564
Ba0 O4 2.896932 1_654
Ba0 O4 2.896932 1_554
Ba0 O4 2.896932 1_664
Cu0 O3 1.937085 1_545
Cu0 O3 1.937085 1_555
Cu0 O2 1.937085 1_555
Cu0 O2 1.937085 1_455
O0 Ta0 1.946511 1_655
O0 Ta0 1.946511 1_555
O1 Ta0 1.946511 1_565
O1 Ta0 1.946511 1_555
O4 Ta0 1.870363 1_555
