# generated using pymatgen
data_Si3Os2
_symmetry_space_group_name_H-M   'P 1'
_cell_length_a   5.59784075
_cell_length_b   8.96562575
_cell_length_c   11.19513560
_cell_angle_alpha   90.00000000
_cell_angle_beta   90.00000000
_cell_angle_gamma   90.00000000
_symmetry_Int_Tables_number   1
_chemical_formula_structural   Si3Os2
_chemical_formula_sum   'Si24 Os16'
_cell_volume   561.86309072
_cell_formula_units_Z   8
loop_
 _symmetry_equiv_pos_site_id
 _symmetry_equiv_pos_as_xyz
  1  'x, y, z'
loop_
 _atom_site_type_symbol
 _atom_site_label
 _atom_site_symmetry_multiplicity
 _atom_site_fract_x
 _atom_site_fract_y
 _atom_site_fract_z
 _atom_site_occupancy
  Si  Si0  1  0.60304926  0.10491919  0.63122991  1
  Si  Si1  1  0.10304926  0.39508081  0.86877009  1
  Si  Si2  1  0.89695074  0.10491919  0.36877009  1
  Si  Si3  1  0.39695074  0.39508081  0.13122991  1
  Si  Si4  1  0.39695074  0.89508081  0.36877009  1
  Si  Si5  1  0.89695074  0.60491919  0.13122991  1
  Si  Si6  1  0.10304926  0.89508081  0.63122991  1
  Si  Si7  1  0.60304926  0.60491919  0.86877009  1
  Si  Si8  1  0.91064973  0.06325765  0.81905027  1
  Si  Si9  1  0.41064973  0.43674235  0.68094973  1
  Si  Si10  1  0.58935027  0.06325765  0.18094973  1
  Si  Si11  1  0.08935027  0.43674235  0.31905027  1
  Si  Si12  1  0.08935027  0.93674235  0.18094973  1
  Si  Si13  1  0.58935027  0.56325765  0.31905027  1
  Si  Si14  1  0.41064973  0.93674235  0.81905027  1
  Si  Si15  1  0.91064973  0.56325765  0.68094973  1
  Si  Si16  1  0.55815835  0.70431836  0.57451279  1
  Si  Si17  1  0.05815835  0.79568164  0.92548721  1
  Si  Si18  1  0.94184165  0.70431836  0.42548721  1
  Si  Si19  1  0.44184165  0.79568164  0.07451279  1
  Si  Si20  1  0.44184165  0.29568164  0.42548721  1
  Si  Si21  1  0.94184165  0.20431836  0.07451279  1
  Si  Si22  1  0.05815835  0.29568164  0.57451279  1
  Si  Si23  1  0.55815835  0.20431836  0.92548721  1
  Os  Os0  1  0.75000000  0.92299654  0.50000000  1
  Os  Os1  1  0.25000000  0.57700346  -0.00000000  1
  Os  Os2  1  0.25000000  0.07700346  0.50000000  1
  Os  Os3  1  0.75000000  0.42299654  -0.00000000  1
  Os  Os4  1  0.75000000  0.46291332  0.50000000  1
  Os  Os5  1  0.25000000  0.03708668  -0.00000000  1
  Os  Os6  1  0.25000000  0.53708668  0.50000000  1
  Os  Os7  1  0.75000000  0.96291332  -0.00000000  1
  Os  Os8  1  0.76257629  0.31277051  0.74475926  1
  Os  Os9  1  0.26257629  0.18722949  0.75524074  1
  Os  Os10  1  0.73742371  0.31277051  0.25524074  1
  Os  Os11  1  0.23742371  0.18722949  0.24475926  1
  Os  Os12  1  0.23742371  0.68722949  0.25524074  1
  Os  Os13  1  0.73742371  0.81277051  0.24475926  1
  Os  Os14  1  0.26257629  0.68722949  0.74475926  1
  Os  Os15  1  0.76257629  0.81277051  0.75524074  1
loop_
_geom_bond_atom_site_label_1
_geom_bond_atom_site_label_2
_geom_bond_distance
_geom_bond_site_symmetry_2
Os0 Si0 2.344221 1_565
Os0 Si2 2.344221 1_565
Os0 Si18 2.386004 1_555
Os0 Si16 2.386004 1_555
Os0 Si6 2.475241 1_655
Os0 Si4 2.475241 1_555
Os1 Si1 2.344221 1_554
Os1 Si3 2.344221 1_555
Os1 Si19 2.386004 1_555
Os1 Si17 2.386004 1_554
Os1 Si7 2.475241 1_554
Os1 Si5 2.475241 1_455
Os2 Si6 2.344221 1_545
Os2 Si4 2.344221 1_545
Os2 Si22 2.386004 1_555
Os2 Si20 2.386004 1_555
Os2 Si0 2.475241 1_555
Os2 Si2 2.475241 1_455
Os3 Si7 2.344221 1_554
Os3 Si5 2.344221 1_555
Os3 Si23 2.386004 1_554
Os3 Si21 2.386004 1_555
Os3 Si1 2.475241 1_654
Os3 Si3 2.475241 1_555
Os4 Si13 2.392025 1_555
Os4 Si15 2.392025 1_555
Os4 Si20 2.433016 1_555
Os4 Si22 2.433016 1_655
Os4 Si16 2.556074 1_555
Os4 Si18 2.556074 1_555
Os4 Si11 2.786994 1_655
Os4 Si9 2.786994 1_555
Os5 Si12 2.392025 1_545
Os5 Si14 2.392025 1_544
Os5 Si21 2.433016 1_455
Os5 Si23 2.433016 1_554
Os5 Si19 2.556074 1_545
Os5 Si17 2.556074 1_544
Os5 Si10 2.786994 1_555
Os5 Si8 2.786994 1_454
Os6 Si11 2.392025 1_555
Os6 Si9 2.392025 1_555
Os6 Si18 2.433016 1_455
Os6 Si16 2.433016 1_555
Os6 Si20 2.556074 1_555
Os6 Si22 2.556074 1_555
Os6 Si13 2.786994 1_555
Os6 Si15 2.786994 1_455
Os7 Si10 2.392025 1_565
Os7 Si8 2.392025 1_564
Os7 Si19 2.433016 1_555
Os7 Si17 2.433016 1_654
Os7 Si21 2.556074 1_565
Os7 Si23 2.556074 1_564
Os7 Si12 2.786994 1_655
Os7 Si14 2.786994 1_554
Os8 Si9 2.372070 1_555
Os8 Si0 2.426013 1_555
Os8 Si1 2.470733 1_655
Os8 Si15 2.498173 1_555
Os8 Si23 2.519624 1_555
Os8 Si8 2.526485 1_555
Os8 Si22 2.528601 1_655
Os9 Si8 2.372070 1_455
Os9 Si1 2.426013 1_555
Os9 Si0 2.470733 1_555
Os9 Si14 2.498173 1_545
Os9 Si22 2.519624 1_555
Os9 Si9 2.526485 1_555
Os9 Si23 2.528601 1_555
Os10 Si11 2.372070 1_655
Os10 Si2 2.426013 1_555
Os10 Si3 2.470733 1_555
Os10 Si13 2.498173 1_555
Os10 Si21 2.519624 1_555
Os10 Si10 2.526485 1_555
Os10 Si20 2.528601 1_555
Os11 Si10 2.372070 1_555
Os11 Si3 2.426013 1_555
Os11 Si2 2.470733 1_455
Os11 Si12 2.498173 1_545
Os11 Si20 2.519624 1_555
Os11 Si11 2.526485 1_555
Os11 Si21 2.528601 1_455
Os12 Si13 2.372070 1_555
Os12 Si4 2.426013 1_555
Os12 Si5 2.470733 1_455
Os12 Si11 2.498173 1_555
Os12 Si19 2.519624 1_555
Os12 Si12 2.526485 1_555
Os12 Si18 2.528601 1_455
Os13 Si12 2.372070 1_655
Os13 Si5 2.426013 1_555
Os13 Si4 2.470733 1_555
Os13 Si10 2.498173 1_565
Os13 Si18 2.519624 1_555
Os13 Si13 2.526485 1_555
Os13 Si19 2.528601 1_555
Os14 Si15 2.372070 1_455
Os14 Si6 2.426013 1_555
Os14 Si7 2.470733 1_555
Os14 Si9 2.498173 1_555
Os14 Si17 2.519624 1_555
Os14 Si14 2.526485 1_555
Os14 Si16 2.528601 1_555
Os15 Si14 2.372070 1_555
Os15 Si7 2.426013 1_555
Os15 Si6 2.470733 1_655
Os15 Si8 2.498173 1_565
Os15 Si16 2.519624 1_555
Os15 Si15 2.526485 1_555
Os15 Si17 2.528601 1_655
