# generated using pymatgen
data_Mg7Ni
_symmetry_space_group_name_H-M   'P 1'
_cell_length_a   6.11314640
_cell_length_b   6.11314640
_cell_length_c   4.87738131
_cell_angle_alpha   90.00000000
_cell_angle_beta   90.00000000
_cell_angle_gamma   120.00000479
_symmetry_Int_Tables_number   1
_chemical_formula_structural   Mg7Ni
_chemical_formula_sum   'Mg7 Ni1'
_cell_volume   157.85084607
_cell_formula_units_Z   1
loop_
 _symmetry_equiv_pos_site_id
 _symmetry_equiv_pos_as_xyz
  1  'x, y, z'
loop_
 _atom_site_type_symbol
 _atom_site_label
 _atom_site_symmetry_multiplicity
 _atom_site_fract_x
 _atom_site_fract_y
 _atom_site_fract_z
 _atom_site_occupancy
  Mg  Mg0  1  0.16690935  0.33381869  -0.00000000  1
  Mg  Mg1  1  0.66618131  0.83309065  0.00000000  1
  Mg  Mg2  1  0.16690935  0.83309065  0.00000000  1
  Mg  Mg3  1  0.82536370  0.17463630  0.50000000  1
  Mg  Mg4  1  0.34927161  0.17463630  0.50000000  1
  Mg  Mg5  1  0.82536370  0.65072839  0.50000000  1
  Mg  Mg6  1  0.33333300  0.66666700  0.50000000  1
  Ni  Ni0  1  0.66666700  0.33333300  -0.00000000  1
loop_
_geom_bond_atom_site_label_1
_geom_bond_atom_site_label_2
_geom_bond_distance
_geom_bond_site_symmetry_2
Mg0 Mg6 3.008715 1_555
Mg0 Mg6 3.008715 1_554
Mg0 Mg4 3.036736 1_555
Mg0 Mg4 3.036736 1_554
Mg0 Mg3 3.036739 1_455
Mg0 Mg3 3.036739 1_454
Mg0 Mg1 3.052122 1_555
Mg0 Mg2 3.052123 1_555
Mg0 Ni0 3.056571 1_455
Mg0 Ni0 3.056577 1_555
Mg0 Mg1 3.061024 1_445
Mg0 Mg2 3.061024 1_545
Mg1 Mg6 3.008715 1_554
Mg1 Mg6 3.008715 1_555
Mg1 Mg5 3.036736 1_555
Mg1 Mg5 3.036736 1_554
Mg1 Mg3 3.036739 1_564
Mg1 Mg3 3.036739 1_565
Mg1 Mg2 3.052123 1_555
Mg1 Ni0 3.056571 1_565
Mg1 Ni0 3.056577 1_555
Mg1 Mg2 3.061024 1_655
Mg2 Mg6 3.008712 1_554
Mg2 Mg6 3.008712 1_555
Mg2 Mg4 3.036739 1_565
Mg2 Mg4 3.036739 1_564
Mg2 Mg5 3.036739 1_454
Mg2 Mg5 3.036739 1_455
Mg2 Ni0 3.056574 1_455
Mg2 Ni0 3.056574 1_565
Mg3 Mg4 2.910421 1_555
Mg3 Mg5 2.910421 1_555
Mg3 Ni0 2.961538 1_555
Mg3 Ni0 2.961538 1_556
Mg3 Mg6 3.057737 1_545
Mg3 Mg6 3.057737 1_655
Mg3 Mg5 3.202726 1_545
Mg3 Mg4 3.202726 1_655
Mg4 Mg5 2.910420 1_555
Mg4 Ni0 2.961543 1_555
Mg4 Ni0 2.961543 1_556
Mg4 Mg6 3.057738 1_545
Mg4 Mg6 3.057738 1_555
Mg4 Mg5 3.202726 1_445
Mg5 Ni0 2.961543 1_556
Mg5 Ni0 2.961543 1_555
Mg5 Mg6 3.057738 1_655
Mg5 Mg6 3.057738 1_555
