# generated using pymatgen
data_Sc5IrCl9
_symmetry_space_group_name_H-M   'P 1'
_cell_length_a   11.76551708
_cell_length_b   11.76551708
_cell_length_c   22.57313764
_cell_angle_alpha   105.10618878
_cell_angle_beta   105.10618878
_cell_angle_gamma   90.00000000
_symmetry_Int_Tables_number   1
_chemical_formula_structural   Sc5IrCl9
_chemical_formula_sum   'Sc40 Ir8 Cl72'
_cell_volume   2904.77557011
_cell_formula_units_Z   8
loop_
 _symmetry_equiv_pos_site_id
 _symmetry_equiv_pos_as_xyz
  1  'x, y, z'
loop_
 _atom_site_type_symbol
 _atom_site_label
 _atom_site_symmetry_multiplicity
 _atom_site_fract_x
 _atom_site_fract_y
 _atom_site_fract_z
 _atom_site_occupancy
  Sc  Sc0  1  0.48020541  0.35920737  0.31118902  1
  Sc  Sc1  1  0.83098362  0.45198165  0.31118902  1
  Sc  Sc2  1  0.85920737  0.33098362  0.81118902  1
  Sc  Sc3  1  0.95198165  0.98020541  0.81118902  1
  Sc  Sc4  1  0.51979459  0.64079263  0.68881098  1
  Sc  Sc5  1  0.16901638  0.54801835  0.68881098  1
  Sc  Sc6  1  0.14079263  0.66901638  0.18881098  1
  Sc  Sc7  1  0.04801835  0.01979459  0.18881098  1
  Sc  Sc8  1  0.10491318  0.58954290  0.32359215  1
  Sc  Sc9  1  0.21867897  0.23404926  0.32359215  1
  Sc  Sc10  1  0.08954290  0.71867897  0.82359215  1
  Sc  Sc11  1  0.73404926  0.60491318  0.82359215  1
  Sc  Sc12  1  0.89508682  0.41045710  0.67640785  1
  Sc  Sc13  1  0.78132103  0.76595074  0.67640785  1
  Sc  Sc14  1  0.91045710  0.28132103  0.17640785  1
  Sc  Sc15  1  0.26595074  0.39508682  0.17640785  1
  Sc  Sc16  1  0.39316480  0.63324092  0.30866602  1
  Sc  Sc17  1  0.91550122  0.17542509  0.30866602  1
  Sc  Sc18  1  0.13324092  0.41550122  0.80866602  1
  Sc  Sc19  1  0.67542509  0.89316480  0.80866602  1
  Sc  Sc20  1  0.60683520  0.36675908  0.69133398  1
  Sc  Sc21  1  0.08449878  0.82457491  0.69133398  1
  Sc  Sc22  1  0.86675908  0.58449878  0.19133398  1
  Sc  Sc23  1  0.32457491  0.10683520  0.19133398  1
  Sc  Sc24  1  0.35420382  0.50798741  0.42370625  1
  Sc  Sc25  1  0.06950242  0.41571883  0.42370625  1
  Sc  Sc26  1  0.00798741  0.56950242  0.92370625  1
  Sc  Sc27  1  0.91571883  0.85420382  0.92370625  1
  Sc  Sc28  1  0.64579618  0.49201259  0.57629375  1
  Sc  Sc29  1  0.93049758  0.58428117  0.57629375  1
  Sc  Sc30  1  0.99201259  0.43049758  0.07629375  1
  Sc  Sc31  1  0.08428117  0.14579618  0.07629375  1
  Sc  Sc32  1  0.56706468  0.91752677  0.43472692  1
  Sc  Sc33  1  0.86766224  0.01720015  0.43472692  1
  Sc  Sc34  1  0.41752677  0.36766224  0.93472692  1
  Sc  Sc35  1  0.51720015  0.06706468  0.93472692  1
  Sc  Sc36  1  0.43293532  0.08247323  0.56527308  1
  Sc  Sc37  1  0.13233776  0.98279985  0.56527308  1
  Sc  Sc38  1  0.58247323  0.63233776  0.06527308  1
  Sc  Sc39  1  0.48279985  0.93293532  0.06527308  1
  Ir  Ir0  1  0.27335090  0.43982728  0.30117008  1
  Ir  Ir1  1  0.02781918  0.36134280  0.30117008  1
  Ir  Ir2  1  0.93982728  0.52781918  0.80117008  1
  Ir  Ir3  1  0.86134280  0.77335090  0.80117008  1
  Ir  Ir4  1  0.72664910  0.56017272  0.69882992  1
  Ir  Ir5  1  0.97218082  0.63865720  0.69882992  1
  Ir  Ir6  1  0.06017272  0.47218082  0.19882992  1
  Ir  Ir7  1  0.13865720  0.22664910  0.19882992  1
  Cl  Cl0  1  0.46070863  0.28093983  0.18917281  1
  Cl  Cl1  1  0.72846418  0.40823298  0.18917281  1
  Cl  Cl2  1  0.78093983  0.22846418  0.68917281  1
  Cl  Cl3  1  0.90823298  0.96070863  0.68917281  1
  Cl  Cl4  1  0.53929137  0.71906017  0.81082719  1
  Cl  Cl5  1  0.27153582  0.59176702  0.81082719  1
  Cl  Cl6  1  0.21906017  0.77153582  0.31082719  1
  Cl  Cl7  1  0.09176702  0.03929137  0.31082719  1
  Cl  Cl8  1  0.17991676  0.62296629  0.45126817  1
  Cl  Cl9  1  0.27135141  0.32830187  0.45126817  1
  Cl  Cl10  1  0.12296629  0.77135141  0.95126817  1
  Cl  Cl11  1  0.82830187  0.67991676  0.95126817  1
  Cl  Cl12  1  0.82008324  0.37703371  0.54873183  1
  Cl  Cl13  1  0.72864859  0.67169813  0.54873183  1
  Cl  Cl14  1  0.87703371  0.22864859  0.04873183  1
  Cl  Cl15  1  0.17169813  0.32008324  0.04873183  1
  Cl  Cl16  1  0.55169973  0.41624350  0.43699552  1
  Cl  Cl17  1  0.88529579  0.52075202  0.43699552  1
  Cl  Cl18  1  0.91624350  0.38529579  0.93699552  1
  Cl  Cl19  1  0.02075202  0.05169973  0.93699552  1
  Cl  Cl20  1  0.44830027  0.58375650  0.56300448  1
  Cl  Cl21  1  0.11470421  0.47924798  0.56300448  1
  Cl  Cl22  1  0.08375650  0.61470421  0.06300448  1
  Cl  Cl23  1  0.97924798  0.94830027  0.06300448  1
  Cl  Cl24  1  0.42612432  0.14564378  0.31243847  1
  Cl  Cl25  1  0.88631415  0.66679469  0.31243847  1
  Cl  Cl26  1  0.64564378  0.38631415  0.81243847  1
  Cl  Cl27  1  0.16679469  0.92612432  0.81243847  1
  Cl  Cl28  1  0.57387568  0.85435622  0.68756153  1
  Cl  Cl29  1  0.11368585  0.33320531  0.68756153  1
  Cl  Cl30  1  0.35435622  0.61368585  0.18756153  1
  Cl  Cl31  1  0.83320531  0.07387568  0.18756153  1
  Cl  Cl32  1  0.50798381  0.84023714  0.32029846  1
  Cl  Cl33  1  0.81231465  0.98006132  0.32029846  1
  Cl  Cl34  1  0.34023714  0.31231465  0.82029846  1
  Cl  Cl35  1  0.48006132  0.00798381  0.82029846  1
  Cl  Cl36  1  0.49201619  0.15976286  0.67970154  1
  Cl  Cl37  1  0.18768535  0.01993868  0.67970154  1
  Cl  Cl38  1  0.65976286  0.68768535  0.17970154  1
  Cl  Cl39  1  0.51993868  0.99201619  0.17970154  1
  Cl  Cl40  1  0.46363194  0.71612543  0.43254446  1
  Cl  Cl41  1  0.96891251  0.21641902  0.43254446  1
  Cl  Cl42  1  0.21612543  0.46891251  0.93254446  1
  Cl  Cl43  1  0.71641902  0.96363194  0.93254446  1
  Cl  Cl44  1  0.53636806  0.28387457  0.56745554  1
  Cl  Cl45  1  0.03108749  0.78358098  0.56745554  1
  Cl  Cl46  1  0.78387457  0.53108749  0.06745554  1
  Cl  Cl47  1  0.28358098  0.03636806  0.06745554  1
  Cl  Cl48  1  0.59907712  0.54322674  0.31532094  1
  Cl  Cl49  1  0.71624382  0.27209420  0.31532094  1
  Cl  Cl50  1  0.04322674  0.21624382  0.81532094  1
  Cl  Cl51  1  0.77209420  0.09907712  0.81532094  1
  Cl  Cl52  1  0.40092288  0.45677326  0.68467906  1
  Cl  Cl53  1  0.28375618  0.72790580  0.68467906  1
  Cl  Cl54  1  0.95677326  0.78375618  0.18467906  1
  Cl  Cl55  1  0.22790580  0.90092288  0.18467906  1
  Cl  Cl56  1  0.38783683  0.02660662  0.44399119  1
  Cl  Cl57  1  0.05615436  0.91738457  0.44399119  1
  Cl  Cl58  1  0.52660662  0.55615436  0.94399119  1
  Cl  Cl59  1  0.41738457  0.88783683  0.94399119  1
  Cl  Cl60  1  0.61216317  0.97339338  0.55600881  1
  Cl  Cl61  1  0.94384564  0.08261543  0.55600881  1
  Cl  Cl62  1  0.47339338  0.44384564  0.05600881  1
  Cl  Cl63  1  0.58261543  0.11216317  0.05600881  1
  Cl  Cl64  1  0.76521794  0.83653942  0.44063036  1
  Cl  Cl65  1  0.67541242  0.10409093  0.44063036  1
  Cl  Cl66  1  0.33653942  0.17541242  0.94063036  1
  Cl  Cl67  1  0.60409093  0.26521794  0.94063036  1
  Cl  Cl68  1  0.23478206  0.16346058  0.55936964  1
  Cl  Cl69  1  0.32458758  0.89590907  0.55936964  1
  Cl  Cl70  1  0.66346058  0.82458758  0.05936964  1
  Cl  Cl71  1  0.39590907  0.73478206  0.05936964  1
loop_
_geom_bond_atom_site_label_1
_geom_bond_atom_site_label_2
_geom_bond_distance
_geom_bond_site_symmetry_2
Ir0 Sc24 2.582890 1_555
Ir0 Sc0 2.588230 1_555
Ir0 Sc16 2.620915 1_555
Ir0 Sc15 2.704733 1_555
Ir0 Sc9 2.709240 1_555
Ir0 Sc8 2.710067 1_555
Ir1 Sc25 2.582890 1_555
Ir1 Sc1 2.588230 1_455
Ir1 Sc17 2.620915 1_455
Ir1 Sc14 2.704733 1_455
Ir1 Sc8 2.709240 1_555
Ir1 Sc9 2.710067 1_555
Ir2 Sc26 2.582890 1_655
Ir2 Sc2 2.588229 1_555
Ir2 Sc18 2.620915 1_655
Ir2 Sc12 2.704733 1_555
Ir2 Sc11 2.709240 1_555
Ir2 Sc10 2.710067 1_655
Ir3 Sc27 2.582890 1_555
Ir3 Sc3 2.588230 1_555
Ir3 Sc19 2.620915 1_555
Ir3 Sc13 2.704733 1_555
Ir3 Sc10 2.709240 1_655
Ir3 Sc11 2.710067 1_555
Ir4 Sc28 2.582890 1_555
Ir4 Sc4 2.588230 1_555
Ir4 Sc20 2.620915 1_555
Ir4 Sc11 2.704733 1_555
Ir4 Sc13 2.709240 1_555
Ir4 Sc12 2.710067 1_555
Ir5 Sc29 2.582890 1_555
Ir5 Sc5 2.588230 1_655
Ir5 Sc21 2.620915 1_655
Ir5 Sc10 2.704733 1_655
Ir5 Sc12 2.709240 1_555
Ir5 Sc13 2.710067 1_555
Ir6 Sc30 2.582890 1_455
Ir6 Sc6 2.588229 1_555
Ir6 Sc22 2.620915 1_455
Ir6 Sc8 2.704733 1_555
Ir6 Sc15 2.709240 1_555
Ir6 Sc14 2.710067 1_455
Ir7 Sc31 2.582890 1_555
Ir7 Sc7 2.588230 1_555
Ir7 Sc23 2.620915 1_555
Ir7 Sc9 2.704733 1_555
Ir7 Sc14 2.709240 1_455
Ir7 Sc15 2.710067 1_555
Cl0 Sc0 2.614465 1_555
Cl0 Sc23 2.618521 1_555
Cl0 Sc15 2.644782 1_555
Cl1 Sc1 2.614465 1_555
Cl1 Sc22 2.618521 1_555
Cl1 Sc14 2.644782 1_555
Cl2 Sc2 2.614465 1_555
Cl2 Sc20 2.618521 1_555
Cl2 Sc12 2.644782 1_555
Cl3 Sc3 2.614465 1_555
Cl3 Sc21 2.618521 1_655
Cl3 Sc13 2.644782 1_555
Cl4 Sc4 2.614465 1_555
Cl4 Sc19 2.618521 1_555
Cl4 Sc11 2.644782 1_555
Cl5 Sc5 2.614465 1_555
Cl5 Sc18 2.618521 1_555
Cl5 Sc10 2.644782 1_555
Cl6 Sc6 2.614465 1_555
Cl6 Sc16 2.618521 1_555
Cl6 Sc8 2.644782 1_555
Cl7 Sc7 2.614465 1_555
Cl7 Sc17 2.618521 1_455
Cl7 Sc9 2.644782 1_555
Cl8 Sc24 2.578422 1_555
Cl8 Sc25 2.609287 1_555
Cl8 Sc8 2.706150 1_555
Cl9 Sc25 2.578422 1_555
Cl9 Sc24 2.609287 1_555
Cl9 Sc9 2.706150 1_555
Cl10 Sc26 2.578422 1_555
Cl10 Sc27 2.609287 1_455
Cl10 Sc10 2.706150 1_555
Cl11 Sc27 2.578422 1_555
Cl11 Sc26 2.609287 1_655
Cl11 Sc11 2.706150 1_555
Cl12 Sc28 2.578422 1_555
Cl12 Sc29 2.609287 1_555
Cl12 Sc12 2.706150 1_555
Cl13 Sc29 2.578422 1_555
Cl13 Sc28 2.609287 1_555
Cl13 Sc13 2.706150 1_555
Cl14 Sc30 2.578422 1_555
Cl14 Sc31 2.609287 1_655
Cl14 Sc14 2.706150 1_555
Cl15 Sc31 2.578422 1_555
Cl15 Sc30 2.609287 1_455
Cl15 Sc15 2.706150 1_555
Cl16 Sc24 2.541632 1_555
Cl16 Sc0 2.642773 1_555
Cl16 Sc28 2.938050 1_555
Cl17 Sc25 2.541632 1_655
Cl17 Sc1 2.642773 1_555
Cl17 Sc29 2.938050 1_555
Cl18 Sc26 2.541632 1_655
Cl18 Sc2 2.642773 1_555
Cl18 Sc30 2.938050 1_556
Cl19 Sc27 2.541632 1_445
Cl19 Sc3 2.642773 1_445
Cl19 Sc31 2.938050 1_556
Cl20 Sc28 2.541632 1_555
Cl20 Sc4 2.642773 1_555
Cl20 Sc24 2.938050 1_555
Cl21 Sc29 2.541632 1_455
Cl21 Sc5 2.642773 1_555
Cl21 Sc25 2.938050 1_555
Cl22 Sc30 2.541632 1_455
Cl22 Sc6 2.642773 1_555
Cl22 Sc26 2.938050 1_554
Cl23 Sc31 2.541632 1_665
Cl23 Sc7 2.642773 1_665
Cl23 Sc27 2.938050 1_554
Cl24 Sc23 2.599262 1_555
Cl24 Sc0 2.601066 1_555
Cl24 Sc9 2.699276 1_555
Cl25 Sc22 2.599262 1_555
Cl25 Sc1 2.601066 1_555
Cl25 Sc8 2.699276 1_655
Cl26 Sc20 2.599262 1_555
Cl26 Sc2 2.601066 1_555
Cl26 Sc11 2.699276 1_555
Cl27 Sc21 2.599262 1_555
Cl27 Sc3 2.601066 1_455
Cl27 Sc10 2.699276 1_555
Cl28 Sc19 2.599262 1_555
Cl28 Sc4 2.601066 1_555
Cl28 Sc13 2.699276 1_555
Cl29 Sc18 2.599262 1_555
Cl29 Sc5 2.601066 1_555
Cl29 Sc12 2.699276 1_455
Cl30 Sc16 2.599262 1_555
Cl30 Sc6 2.601066 1_555
Cl30 Sc15 2.699276 1_555
Cl31 Sc17 2.599262 1_555
Cl31 Sc7 2.601066 1_655
Cl31 Sc14 2.699276 1_555
Cl32 Sc32 2.412868 1_555
Cl32 Sc16 2.703137 1_555
Cl33 Sc33 2.412868 1_565
Cl33 Sc17 2.703137 1_565
Cl34 Sc34 2.412868 1_555
Cl34 Sc18 2.703137 1_555
Cl35 Sc35 2.412868 1_555
Cl35 Sc19 2.703137 1_545
Cl36 Sc36 2.412868 1_555
Cl36 Sc20 2.703137 1_555
Cl37 Sc37 2.412868 1_545
Cl37 Sc21 2.703137 1_545
Cl38 Sc38 2.412868 1_555
Cl38 Sc22 2.703137 1_555
Cl39 Sc39 2.412868 1_555
Cl39 Sc23 2.703137 1_565
Cl40 Sc16 2.613061 1_555
Cl40 Sc32 2.646930 1_555
Cl40 Sc24 2.702915 1_555
Cl41 Sc17 2.613061 1_555
Cl41 Sc33 2.646929 1_555
Cl41 Sc25 2.702915 1_655
Cl42 Sc18 2.613061 1_555
Cl42 Sc34 2.646930 1_555
Cl42 Sc26 2.702915 1_555
Cl43 Sc19 2.613061 1_555
Cl43 Sc35 2.646929 1_565
Cl43 Sc27 2.702915 1_555
Cl44 Sc20 2.613061 1_555
Cl44 Sc36 2.646930 1_555
Cl44 Sc28 2.702915 1_555
Cl45 Sc21 2.613061 1_555
Cl45 Sc37 2.646929 1_555
Cl45 Sc29 2.702915 1_455
Cl46 Sc22 2.613061 1_555
Cl46 Sc38 2.646930 1_555
Cl46 Sc30 2.702915 1_555
Cl47 Sc23 2.613061 1_555
Cl47 Sc39 2.646929 1_545
Cl47 Sc31 2.702915 1_555
Cl48 Sc0 2.545405 1_555
Cl48 Sc16 2.628064 1_555
Cl48 Sc1 2.947264 1_555
Cl49 Sc1 2.545405 1_555
Cl49 Sc17 2.628064 1_555
Cl49 Sc0 2.947264 1_555
Cl50 Sc2 2.545405 1_455
Cl50 Sc18 2.628064 1_555
Cl50 Sc3 2.947264 1_445
Cl51 Sc3 2.545405 1_545
Cl51 Sc19 2.628064 1_545
Cl51 Sc2 2.947264 1_555
Cl52 Sc4 2.545405 1_555
Cl52 Sc20 2.628064 1_555
Cl52 Sc5 2.947264 1_555
Cl53 Sc5 2.545405 1_555
Cl53 Sc21 2.628064 1_555
Cl53 Sc4 2.947264 1_555
Cl54 Sc6 2.545405 1_655
Cl54 Sc22 2.628064 1_555
Cl54 Sc7 2.947264 1_665
Cl55 Sc7 2.545405 1_565
Cl55 Sc23 2.628064 1_565
Cl55 Sc6 2.947264 1_555
Cl56 Sc32 2.495478 1_545
Cl56 Sc36 2.552172 1_555
Cl57 Sc33 2.495478 1_465
Cl57 Sc37 2.552172 1_555
Cl58 Sc34 2.495478 1_555
Cl58 Sc38 2.552172 1_556
Cl59 Sc35 2.495478 1_565
Cl59 Sc39 2.552172 1_556
Cl60 Sc36 2.495478 1_565
Cl60 Sc32 2.552172 1_555
Cl61 Sc37 2.495478 1_645
Cl61 Sc33 2.552172 1_555
Cl62 Sc38 2.495478 1_555
Cl62 Sc34 2.552172 1_554
Cl63 Sc39 2.495478 1_545
Cl63 Sc35 2.552172 1_554
Cl64 Sc33 2.493976 1_565
Cl64 Sc32 2.503050 1_555
Cl65 Sc32 2.493976 1_545
Cl65 Sc33 2.503050 1_555
Cl66 Sc35 2.493976 1_555
Cl66 Sc34 2.503050 1_555
Cl67 Sc34 2.493976 1_555
Cl67 Sc35 2.503050 1_555
Cl68 Sc37 2.493976 1_545
Cl68 Sc36 2.503050 1_555
Cl69 Sc36 2.493976 1_565
Cl69 Sc37 2.503050 1_555
Cl70 Sc39 2.493976 1_555
Cl70 Sc38 2.503050 1_555
Cl71 Sc38 2.493976 1_555
Cl71 Sc39 2.503050 1_555
