# generated using pymatgen
data_Ca(BO5)2
_symmetry_space_group_name_H-M   'P 1'
_cell_length_a   5.72579200
_cell_length_b   8.97340182
_cell_length_c   6.10578126
_cell_angle_alpha   98.14421672
_cell_angle_beta   90.00000000
_cell_angle_gamma   90.00000000
_symmetry_Int_Tables_number   1
_chemical_formula_structural   Ca(BO5)2
_chemical_formula_sum   'Ca2 B4 O20'
_cell_volume   310.55009403
_cell_formula_units_Z   2
loop_
 _symmetry_equiv_pos_site_id
 _symmetry_equiv_pos_as_xyz
  1  'x, y, z'
loop_
 _atom_site_type_symbol
 _atom_site_label
 _atom_site_symmetry_multiplicity
 _atom_site_fract_x
 _atom_site_fract_y
 _atom_site_fract_z
 _atom_site_occupancy
  Ca  Ca0  1  0.13553800  0.75000000  0.00000000  1
  Ca  Ca1  1  0.86446200  0.25000000  0.00000000  1
  B  B0  1  0.65899700  0.56467100  0.26308000  1
  B  B1  1  0.65899700  0.93532900  0.73692000  1
  B  B2  1  0.34100300  0.43532900  0.73692000  1
  B  B3  1  0.34100300  0.06467100  0.26308000  1
  O  O0  1  0.74564400  0.54797300  0.03431700  1
  O  O1  1  0.74564400  0.95202700  0.96568300  1
  O  O2  1  0.25435600  0.45202700  0.96568300  1
  O  O3  1  0.25435600  0.04797300  0.03431700  1
  O  O4  1  0.83458800  0.67442600  0.21697900  1
  O  O5  1  0.83458800  0.82557400  0.78302100  1
  O  O6  1  0.16541200  0.32557400  0.78302100  1
  O  O7  1  0.16541200  0.17442600  0.21697900  1
  O  O8  1  0.72978600  0.43354800  0.35557700  1
  O  O9  1  0.72978600  0.06645200  0.64442300  1
  O  O10  1  0.27021400  0.56645200  0.64442300  1
  O  O11  1  0.27021400  0.93354800  0.35557700  1
  O  O12  1  0.43030500  0.63079300  0.31138600  1
  O  O13  1  0.43030500  0.86920700  0.68861400  1
  O  O14  1  0.56969500  0.36920700  0.68861400  1
  O  O15  1  0.56969500  0.13079300  0.31138600  1
  O  O16  1  0.72762900  0.03006600  0.39985800  1
  O  O17  1  0.72762900  0.46993400  0.60014200  1
  O  O18  1  0.27237100  0.96993400  0.60014200  1
  O  O19  1  0.27237100  0.53006600  0.39985800  1
loop_
_geom_bond_atom_site_label_1
_geom_bond_atom_site_label_2
_geom_bond_distance
_geom_bond_site_symmetry_2
Ca0 O5 2.332157 1_454
Ca0 O4 2.332157 1_455
Ca0 O11 2.647230 1_555
Ca0 O10 2.647230 1_554
Ca0 O2 2.738136 1_554
Ca0 O3 2.738136 1_565
Ca0 O12 2.860738 1_555
Ca0 O13 2.860738 1_554
Ca1 O6 2.332157 1_654
Ca1 O7 2.332157 1_655
Ca1 O8 2.647230 1_555
Ca1 O9 2.647230 1_554
Ca1 O0 2.738136 1_555
Ca1 O1 2.738136 1_544
Ca1 O15 2.860738 1_555
Ca1 O14 2.860738 1_554
B0 O8 1.433861 1_555
B0 O12 1.450552 1_555
B0 O4 1.462390 1_555
B0 O0 1.469788 1_555
B1 O9 1.433861 1_565
B1 O13 1.450552 1_555
B1 O5 1.462390 1_555
B1 O1 1.469788 1_555
B2 O10 1.433861 1_555
B2 O14 1.450552 1_555
B2 O6 1.462390 1_555
B2 O2 1.469788 1_555
B3 O11 1.433861 1_545
B3 O15 1.450552 1_555
B3 O7 1.462390 1_555
B3 O3 1.469788 1_555
O10 O19 1.482715 1_555
O11 O18 1.482715 1_555
O12 O19 1.436965 1_555
O13 O18 1.436965 1_555
O14 O17 1.436965 1_555
O15 O16 1.436965 1_555
O16 O9 1.482715 1_555
O17 O8 1.482715 1_555
