# generated using pymatgen
data_BaCaNdBiO6
_symmetry_space_group_name_H-M   'P 1'
_cell_length_a   6.06518678
_cell_length_b   6.16914734
_cell_length_c   8.69028754
_cell_angle_alpha   90.09246873
_cell_angle_beta   89.57974797
_cell_angle_gamma   90.18524976
_symmetry_Int_Tables_number   1
_chemical_formula_structural   BaCaNdBiO6
_chemical_formula_sum   'Ba2 Ca2 Nd2 Bi2 O12'
_cell_volume   325.15389979
_cell_formula_units_Z   2
loop_
 _symmetry_equiv_pos_site_id
 _symmetry_equiv_pos_as_xyz
  1  'x, y, z'
loop_
 _atom_site_type_symbol
 _atom_site_label
 _atom_site_symmetry_multiplicity
 _atom_site_fract_x
 _atom_site_fract_y
 _atom_site_fract_z
 _atom_site_occupancy
  Ba  Ba0  1  0.99334540  0.03952951  0.25059822  1
  Ba  Ba1  1  0.00665460  0.96047049  0.74940178  1
  Ca  Ca0  1  0.51076650  0.53988343  0.25347429  1
  Ca  Ca1  1  0.48923350  0.46011657  0.74652571  1
  Nd  Nd0  1  0.50000000  -0.00000000  0.00000000  1
  Nd  Nd1  1  -0.00000000  0.50000000  0.50000000  1
  Bi  Bi0  1  -0.00000000  0.50000000  0.00000000  1
  Bi  Bi1  1  0.50000000  -0.00000000  0.50000000  1
  O  O0  1  0.19386650  0.21819072  0.95666157  1
  O  O1  1  0.31893867  0.70737557  0.56340965  1
  O  O2  1  0.80613350  0.78180928  0.04333843  1
  O  O3  1  0.68106133  0.29262443  0.43659035  1
  O  O4  1  0.28652126  0.68845601  0.93161338  1
  O  O5  1  0.21466494  0.19583849  0.53355572  1
  O  O6  1  0.71347874  0.31154399  0.06838662  1
  O  O7  1  0.78533506  0.80416151  0.46644428  1
  O  O8  1  0.42659154  0.92933158  0.26256884  1
  O  O9  1  0.12104538  0.48942056  0.23642583  1
  O  O10  1  0.57340846  0.07066842  0.73743116  1
  O  O11  1  0.87895462  0.51057944  0.76357417  1
loop_
_geom_bond_atom_site_label_1
_geom_bond_atom_site_label_2
_geom_bond_distance
_geom_bond_site_symmetry_2
Ba0 O2 2.659012 1_545
Ba0 O7 2.679696 1_545
Ba0 O8 2.719133 1_645
Ba0 O6 2.875958 1_555
Ba0 O9 2.881658 1_655
Ba0 O3 2.933249 1_555
Ba0 O5 2.968289 1_655
Ba0 O0 3.028817 1_654
Ba1 O0 2.659012 1_565
Ba1 O5 2.679696 1_565
Ba1 O10 2.719133 1_465
Ba1 O4 2.875958 1_555
Ba1 O11 2.881658 1_455
Ba1 O1 2.933249 1_555
Ba1 O7 2.968289 1_455
Ba1 O2 3.028817 1_456
Ca0 O9 2.388791 1_555
Ca0 O3 2.442962 1_555
Ca0 O8 2.458847 1_555
Ca0 O6 2.461300 1_555
Ca0 O2 2.952136 1_555
Ca0 O7 2.979032 1_555
Ca1 O11 2.388791 1_555
Ca1 O1 2.442962 1_555
Ca1 O10 2.458847 1_555
Ca1 O4 2.461300 1_555
Ca1 O0 2.952136 1_555
Ca1 O5 2.979032 1_555
Nd0 O2 2.330086 1_545
Nd0 O0 2.330086 1_554
Nd0 O8 2.362617 1_545
Nd0 O10 2.362617 1_554
Nd0 O6 2.390630 1_555
Nd0 O4 2.390630 1_544
Nd1 O5 2.307438 1_555
Nd1 O7 2.307438 1_455
Nd1 O1 2.383210 1_555
Nd1 O3 2.383210 1_455
Nd1 O11 2.401034 1_455
Nd1 O9 2.401034 1_555
Bi0 O0 2.133426 1_554
Bi0 O2 2.133426 1_455
Bi0 O4 2.167681 1_554
Bi0 O6 2.167681 1_455
Bi0 O11 2.188045 1_454
Bi0 O9 2.188045 1_555
Bi1 O5 2.131823 1_555
Bi1 O7 2.131823 1_545
Bi1 O8 2.157547 1_545
Bi1 O10 2.157547 1_555
Bi1 O3 2.179461 1_555
Bi1 O1 2.179461 1_545
