# generated using pymatgen
data_H14C5BrN3
_symmetry_space_group_name_H-M   'P 1'
_cell_length_a   7.59352300
_cell_length_b   14.16842300
_cell_length_c   10.91194561
_cell_angle_alpha   90.00000000
_cell_angle_beta   119.04113661
_cell_angle_gamma   90.00000000
_symmetry_Int_Tables_number   1
_chemical_formula_structural   H14C5BrN3
_chemical_formula_sum   'H56 C20 Br4 N12'
_cell_volume   1026.39208129
_cell_formula_units_Z   4
loop_
 _symmetry_equiv_pos_site_id
 _symmetry_equiv_pos_as_xyz
  1  'x, y, z'
loop_
 _atom_site_type_symbol
 _atom_site_label
 _atom_site_symmetry_multiplicity
 _atom_site_fract_x
 _atom_site_fract_y
 _atom_site_fract_z
 _atom_site_occupancy
  H  H0  1  0.22612800  0.55602600  0.33051500  1
  H  H1  1  0.22612800  0.94397400  0.83051500  1
  H  H2  1  0.77387200  0.44397400  0.66948500  1
  H  H3  1  0.77387200  0.05602600  0.16948500  1
  H  H4  1  0.29804900  0.59761300  0.49714900  1
  H  H5  1  0.29804900  0.90238700  0.99714900  1
  H  H6  1  0.70195100  0.40238700  0.50285100  1
  H  H7  1  0.70195100  0.09761300  0.00285100  1
  H  H8  1  0.00570200  0.45545800  0.24463600  1
  H  H9  1  0.00570200  0.04454200  0.74463600  1
  H  H10  1  0.99429800  0.54454200  0.75536400  1
  H  H11  1  0.99429800  0.95545800  0.25536400  1
  H  H12  1  0.85298200  0.50495800  0.07417800  1
  H  H13  1  0.85298200  0.99504200  0.57417800  1
  H  H14  1  0.14701800  0.49504200  0.92582200  1
  H  H15  1  0.14701800  0.00495800  0.42582200  1
  H  H16  1  0.73742400  0.44331500  0.15958200  1
  H  H17  1  0.73742400  0.05668500  0.65958200  1
  H  H18  1  0.26257600  0.55668500  0.84041800  1
  H  H19  1  0.26257600  0.94331500  0.34041800  1
  H  H20  1  0.52859100  0.59083100  0.15860400  1
  H  H21  1  0.52859100  0.90916900  0.65860400  1
  H  H22  1  0.47140900  0.40916900  0.84139600  1
  H  H23  1  0.47140900  0.09083100  0.34139600  1
  H  H24  1  0.62372400  0.62824400  0.04459600  1
  H  H25  1  0.62372400  0.87175600  0.54459600  1
  H  H26  1  0.37627600  0.37175600  0.95540400  1
  H  H27  1  0.37627600  0.12824400  0.45540400  1
  H  H28  1  0.66181100  0.70089300  0.18942500  1
  H  H29  1  0.66181100  0.79910700  0.68942500  1
  H  H30  1  0.33818900  0.29910700  0.81057500  1
  H  H31  1  0.33818900  0.20089300  0.31057500  1
  H  H32  1  0.18164800  0.72028900  0.63246200  1
  H  H33  1  0.18164800  0.77971100  0.13246200  1
  H  H34  1  0.81835200  0.27971100  0.36753800  1
  H  H35  1  0.81835200  0.22028900  0.86753800  1
  H  H36  1  0.02561400  0.81256000  0.51977700  1
  H  H37  1  0.02561400  0.68744000  0.01977700  1
  H  H38  1  0.97438600  0.18744000  0.48022300  1
  H  H39  1  0.97438600  0.31256000  0.98022300  1
  H  H40  1  0.21372800  0.75939500  0.48858600  1
  H  H41  1  0.21372800  0.74060500  0.98858600  1
  H  H42  1  0.78627200  0.24060500  0.51141400  1
  H  H43  1  0.78627200  0.25939500  0.01141400  1
  H  H44  1  0.69662400  0.60321800  0.40133000  1
  H  H45  1  0.69662400  0.89678200  0.90133000  1
  H  H46  1  0.30337600  0.39678200  0.59867000  1
  H  H47  1  0.30337600  0.10321800  0.09867000  1
  H  H48  1  0.67408300  0.72967600  0.39955200  1
  H  H49  1  0.67408300  0.77032400  0.89955200  1
  H  H50  1  0.32591700  0.27032400  0.60044800  1
  H  H51  1  0.32591700  0.22967600  0.10044800  1
  H  H52  1  0.82360800  0.66792600  0.56050300  1
  H  H53  1  0.82360800  0.83207400  0.06050300  1
  H  H54  1  0.17639200  0.33207400  0.43949700  1
  H  H55  1  0.17639200  0.16792600  0.93949700  1
  C  C0  1  0.99607000  0.61654900  0.35409100  1
  C  C1  1  0.99607000  0.88345100  0.85409100  1
  C  C2  1  0.00393000  0.38345100  0.64590900  1
  C  C3  1  0.00393000  0.11654900  0.14590900  1
  C  C4  1  0.86240300  0.49039600  0.17622700  1
  C  C5  1  0.86240300  0.00960400  0.67622700  1
  C  C6  1  0.13759700  0.50960400  0.82377300  1
  C  C7  1  0.13759700  0.99039600  0.32377300  1
  C  C8  1  0.65232100  0.62784600  0.15362300  1
  C  C9  1  0.65232100  0.87215400  0.65362300  1
  C  C10  1  0.34767900  0.37215400  0.84637700  1
  C  C11  1  0.34767900  0.12784600  0.34637700  1
  C  C12  1  0.10327900  0.74622500  0.52375900  1
  C  C13  1  0.10327900  0.75377500  0.02375900  1
  C  C14  1  0.89672100  0.25377500  0.47624100  1
  C  C15  1  0.89672100  0.24622500  0.97624100  1
  C  C16  1  0.77582200  0.66936100  0.44787800  1
  C  C17  1  0.77582200  0.83063900  0.94787800  1
  C  C18  1  0.22417800  0.33063900  0.55212200  1
  C  C19  1  0.22417800  0.16936100  0.05212200  1
  Br  Br0  1  0.40898300  0.07974500  0.76984600  1
  Br  Br1  1  0.40898300  0.42025500  0.26984600  1
  Br  Br2  1  0.59101700  0.92025500  0.23015400  1
  Br  Br3  1  0.59101700  0.57974500  0.73015400  1
  N  N0  1  0.18941700  0.59625300  0.39272000  1
  N  N1  1  0.18941700  0.90374700  0.89272000  1
  N  N2  1  0.81058300  0.40374700  0.60728000  1
  N  N3  1  0.81058300  0.09625300  0.10728000  1
  N  N4  1  0.84298300  0.57821200  0.23822100  1
  N  N5  1  0.84298300  0.92178800  0.73822100  1
  N  N6  1  0.15701700  0.42178800  0.76177900  1
  N  N7  1  0.15701700  0.07821200  0.26177900  1
  N  N8  1  0.95463800  0.67823000  0.43093100  1
  N  N9  1  0.95463800  0.82177000  0.93093100  1
  N  N10  1  0.04536200  0.32177000  0.56906900  1
  N  N11  1  0.04536200  0.17823000  0.06906900  1
loop_
_geom_bond_atom_site_label_1
_geom_bond_atom_site_label_2
_geom_bond_distance
_geom_bond_site_symmetry_2
H0 N0 1.023233 1_555
H1 N1 1.023233 1_555
H2 N2 1.023233 1_555
H3 N3 1.023233 1_555
H4 N0 1.032826 1_555
H5 N1 1.032826 1_555
H6 N2 1.032826 1_555
H7 N3 1.032826 1_555
C0 N0 1.347255 1_655
C0 N4 1.348339 1_555
C0 N8 1.349768 1_555
C1 N1 1.347255 1_655
C1 N5 1.348339 1_555
C1 N9 1.349768 1_555
C2 N2 1.347255 1_455
C2 N6 1.348339 1_555
C2 N10 1.349768 1_555
C3 N3 1.347255 1_455
C3 N7 1.348339 1_555
C3 N11 1.349768 1_555
C4 H8 1.094399 1_655
C4 H12 1.100157 1_555
C4 H16 1.100578 1_555
C4 N4 1.457493 1_555
C5 H9 1.094399 1_655
C5 H13 1.100157 1_545
C5 H17 1.100578 1_555
C5 N5 1.457493 1_545
C6 H10 1.094399 1_455
C6 H14 1.100157 1_555
C6 H18 1.100578 1_555
C6 N6 1.457493 1_555
C7 H11 1.094399 1_455
C7 H15 1.100157 1_565
C7 H19 1.100578 1_555
C7 N7 1.457493 1_565
C8 H28 1.096187 1_555
C8 H20 1.100147 1_555
C8 H24 1.100793 1_555
C8 N4 1.464665 1_555
C9 H29 1.096187 1_555
C9 H21 1.100147 1_555
C9 H25 1.100793 1_555
C9 N5 1.464665 1_555
C10 H30 1.096187 1_555
C10 H22 1.100147 1_555
C10 H26 1.100793 1_555
C10 N6 1.464665 1_555
C11 H31 1.096187 1_555
C11 H23 1.100147 1_555
C11 H27 1.100793 1_555
C11 N7 1.464665 1_555
C12 H40 1.094559 1_555
C12 H36 1.099162 1_555
C12 H32 1.100378 1_555
C12 N8 1.455375 1_455
C13 H41 1.094559 1_554
C13 H37 1.099162 1_555
C13 H33 1.100378 1_555
C13 N9 1.455375 1_454
C14 H42 1.094559 1_555
C14 H38 1.099162 1_555
C14 H34 1.100378 1_555
C14 N10 1.455375 1_655
C15 H43 1.094559 1_556
C15 H39 1.099162 1_555
C15 H35 1.100378 1_555
C15 N11 1.455375 1_656
C16 H44 1.096053 1_555
C16 H52 1.099757 1_555
C16 H48 1.099855 1_555
C16 N8 1.462023 1_555
C17 H45 1.096053 1_555
C17 H53 1.099757 1_556
C17 H49 1.099855 1_555
C17 N9 1.462023 1_555
C18 H46 1.096053 1_555
C18 H54 1.099757 1_555
C18 H50 1.099855 1_555
C18 N10 1.462023 1_555
C19 H47 1.096053 1_555
C19 H55 1.099757 1_554
C19 H51 1.099855 1_555
C19 N11 1.462023 1_555
