# generated using pymatgen
data_Sm(NiSn)2
_symmetry_space_group_name_H-M   'P 1'
_cell_length_a   4.36585963
_cell_length_b   4.36585963
_cell_length_c   10.19374147
_cell_angle_alpha   90.00000000
_cell_angle_beta   90.00000000
_cell_angle_gamma   90.00000000
_symmetry_Int_Tables_number   1
_chemical_formula_structural   Sm(NiSn)2
_chemical_formula_sum   'Sm2 Ni4 Sn4'
_cell_volume   194.30015700
_cell_formula_units_Z   2
loop_
 _symmetry_equiv_pos_site_id
 _symmetry_equiv_pos_as_xyz
  1  'x, y, z'
loop_
 _atom_site_type_symbol
 _atom_site_label
 _atom_site_symmetry_multiplicity
 _atom_site_fract_x
 _atom_site_fract_y
 _atom_site_fract_z
 _atom_site_occupancy
  Sm  Sm0  1  0.00000000  0.50000000  0.23933012  1
  Sm  Sm1  1  0.50000000  0.00000000  0.76066988  1
  Ni  Ni0  1  0.00000000  -0.00000000  -0.00000000  1
  Ni  Ni1  1  0.50000000  0.50000000  -0.00000000  1
  Ni  Ni2  1  -0.00000000  0.50000000  0.62994189  1
  Ni  Ni3  1  0.50000000  0.00000000  0.37005811  1
  Sn  Sn0  1  0.00000000  -0.00000000  0.50000000  1
  Sn  Sn1  1  0.50000000  0.50000000  0.50000000  1
  Sn  Sn2  1  0.00000000  0.50000000  0.87375208  1
  Sn  Sn3  1  0.50000000  -0.00000000  0.12624792  1
loop_
_geom_bond_atom_site_label_1
_geom_bond_atom_site_label_2
_geom_bond_distance
_geom_bond_site_symmetry_2
Sm0 Sn3 3.295323 1_565
Sm0 Sn3 3.295323 1_465
Sm0 Sn3 3.295323 1_555
Sm0 Sn3 3.295323 1_455
Sm0 Sn0 3.438881 1_565
Sm0 Sn0 3.438881 1_555
Sm0 Sn1 3.438881 1_555
Sm0 Sn1 3.438881 1_455
Sm1 Sn2 3.295323 1_645
Sm1 Sn2 3.295323 1_545
Sm1 Sn2 3.295323 1_655
Sm1 Sn2 3.295323 1_555
Sm1 Sn0 3.438881 1_555
Sm1 Sn0 3.438881 1_655
Sm1 Sn1 3.438881 1_545
Sm1 Sn1 3.438881 1_555
Ni0 Sn3 2.534047 1_455
Ni0 Sn3 2.534047 1_555
Ni0 Sn2 2.534047 1_554
Ni0 Sn2 2.534047 1_544
Ni0 Sm1 3.273709 1_554
Ni0 Sm0 3.273709 1_545
Ni0 Sm1 3.273709 1_454
Ni0 Sm0 3.273709 1_555
Ni1 Sn3 2.534047 1_565
Ni1 Sn2 2.534047 1_654
Ni1 Sn3 2.534047 1_555
Ni1 Sn2 2.534047 1_554
Ni1 Sm1 3.273709 1_554
Ni1 Sm0 3.273709 1_655
Ni1 Sm1 3.273709 1_564
Ni1 Sm0 3.273709 1_555
Ni2 Sn2 2.485338 1_555
Ni2 Sn1 2.553377 1_555
Ni2 Sn1 2.553377 1_455
Ni2 Sn0 2.553377 1_565
Ni2 Sn0 2.553377 1_555
Ni2 Sm1 3.362470 1_565
Ni2 Sm1 3.362470 1_465
Ni2 Sm1 3.362470 1_555
Ni2 Sm1 3.362470 1_455
Ni3 Sn3 2.485338 1_555
Ni3 Sn0 2.553377 1_655
Ni3 Sn1 2.553377 1_545
Ni3 Sn1 2.553377 1_555
Ni3 Sn0 2.553377 1_555
Ni3 Sm0 3.362470 1_545
Ni3 Sm0 3.362470 1_655
Ni3 Sm0 3.362470 1_645
Ni3 Sm0 3.362470 1_555
