# generated using pymatgen
data_SnPb3
_symmetry_space_group_name_H-M   'P 1'
_cell_length_a   6.87170158
_cell_length_b   6.87170158
_cell_length_c   5.96095958
_cell_angle_alpha   90.00000000
_cell_angle_beta   90.00000000
_cell_angle_gamma   120.00000422
_symmetry_Int_Tables_number   1
_chemical_formula_structural   SnPb3
_chemical_formula_sum   'Sn2 Pb6'
_cell_volume   243.76725781
_cell_formula_units_Z   2
loop_
 _symmetry_equiv_pos_site_id
 _symmetry_equiv_pos_as_xyz
  1  'x, y, z'
loop_
 _atom_site_type_symbol
 _atom_site_label
 _atom_site_symmetry_multiplicity
 _atom_site_fract_x
 _atom_site_fract_y
 _atom_site_fract_z
 _atom_site_occupancy
  Sn  Sn0  1  0.33333300  0.66666700  0.75000000  1
  Sn  Sn1  1  0.66666700  0.33333300  0.25000000  1
  Pb  Pb0  1  0.16860673  0.33721345  0.25000000  1
  Pb  Pb1  1  0.66278655  0.83139327  0.25000000  1
  Pb  Pb2  1  0.16860673  0.83139327  0.25000000  1
  Pb  Pb3  1  0.83139327  0.66278655  0.75000000  1
  Pb  Pb4  1  0.33721345  0.16860673  0.75000000  1
  Pb  Pb5  1  0.83139327  0.16860673  0.75000000  1
loop_
_geom_bond_atom_site_label_1
_geom_bond_atom_site_label_2
_geom_bond_distance
_geom_bond_site_symmetry_2
Pb0 Pb1 3.395856 1_555
Pb0 Pb2 3.395856 1_555
Pb0 Sn1 3.435925 1_455
Pb0 Sn1 3.435932 1_555
Pb0 Pb1 3.475845 1_445
Pb0 Pb2 3.475845 1_545
Pb0 Sn0 3.567522 1_554
Pb0 Sn0 3.567522 1_555
Pb0 Pb5 3.593108 1_455
Pb0 Pb5 3.593108 1_454
Pb0 Pb4 3.593108 1_555
Pb0 Pb4 3.593108 1_554
Pb1 Pb2 3.395856 1_555
Pb1 Sn1 3.435925 1_565
Pb1 Sn1 3.435932 1_555
Pb1 Pb2 3.475845 1_655
Pb1 Sn0 3.567522 1_554
Pb1 Sn0 3.567522 1_555
Pb1 Pb5 3.593108 1_564
Pb1 Pb5 3.593108 1_565
Pb1 Pb3 3.593108 1_555
Pb1 Pb3 3.593108 1_554
Pb2 Sn1 3.435928 1_455
Pb2 Sn1 3.435928 1_565
Pb2 Sn0 3.567519 1_554
Pb2 Sn0 3.567519 1_555
Pb2 Pb3 3.593108 1_455
Pb2 Pb3 3.593108 1_454
Pb2 Pb4 3.593108 1_564
Pb2 Pb4 3.593108 1_565
Pb3 Pb4 3.395856 1_555
Pb3 Pb5 3.395856 1_555
Pb3 Sn0 3.435925 1_655
Pb3 Sn0 3.435932 1_555
Pb3 Pb4 3.475845 1_665
Pb3 Pb5 3.475845 1_565
Pb3 Sn1 3.567522 1_555
Pb3 Sn1 3.567522 1_556
Pb4 Pb5 3.395856 1_555
Pb4 Sn0 3.435925 1_545
Pb4 Sn0 3.435932 1_555
Pb4 Pb5 3.475845 1_455
Pb4 Sn1 3.567522 1_555
Pb4 Sn1 3.567522 1_556
Pb5 Sn0 3.435928 1_545
Pb5 Sn0 3.435928 1_655
Pb5 Sn1 3.567519 1_556
Pb5 Sn1 3.567519 1_555
