# generated using pymatgen
data_CaMn3O7
_symmetry_space_group_name_H-M   'P 1'
_cell_length_a   5.43735000
_cell_length_b   10.43496700
_cell_length_c   10.58881600
_cell_angle_alpha   90.00000000
_cell_angle_beta   90.00000000
_cell_angle_gamma   90.00000000
_symmetry_Int_Tables_number   1
_chemical_formula_structural   CaMn3O7
_chemical_formula_sum   'Ca4 Mn12 O28'
_cell_volume   600.79425472
_cell_formula_units_Z   4
loop_
 _symmetry_equiv_pos_site_id
 _symmetry_equiv_pos_as_xyz
  1  'x, y, z'
loop_
 _atom_site_type_symbol
 _atom_site_label
 _atom_site_symmetry_multiplicity
 _atom_site_fract_x
 _atom_site_fract_y
 _atom_site_fract_z
 _atom_site_occupancy
  Ca  Ca0  1  0.31864500  0.05618500  0.25000000  1
  Ca  Ca1  1  0.81864500  0.44381500  0.75000000  1
  Ca  Ca2  1  0.68135500  0.94381500  0.75000000  1
  Ca  Ca3  1  0.18135500  0.55618500  0.25000000  1
  Mn  Mn0  1  0.69763600  0.70565700  0.97532200  1
  Mn  Mn1  1  0.19763600  0.79434300  0.02467800  1
  Mn  Mn2  1  0.30236400  0.29434300  0.47532200  1
  Mn  Mn3  1  0.80236400  0.20565600  0.52467800  1
  Mn  Mn4  1  0.69357700  0.77180500  0.25000000  1
  Mn  Mn5  1  0.19357700  0.72819500  0.75000000  1
  Mn  Mn6  1  0.30642300  0.22819500  0.75000000  1
  Mn  Mn7  1  0.80642300  0.27180500  0.25000000  1
  Mn  Mn8  1  0.19763600  0.79434300  0.47532200  1
  Mn  Mn9  1  0.69763600  0.70565700  0.52467800  1
  Mn  Mn10  1  0.80236400  0.20565600  0.97532200  1
  Mn  Mn11  1  0.30236400  0.29434300  0.02467800  1
  O  O0  1  0.06199500  0.27848300  0.88022300  1
  O  O1  1  0.56199500  0.22151700  0.11977700  1
  O  O2  1  0.93800500  0.72151700  0.38022300  1
  O  O3  1  0.43800500  0.77848300  0.61977700  1
  O  O4  1  0.93800500  0.72151700  0.11977700  1
  O  O5  1  0.43800500  0.77848300  0.88022300  1
  O  O6  1  0.06199500  0.27848300  0.61977700  1
  O  O7  1  0.56199500  0.22151700  0.38022300  1
  O  O8  1  0.53895200  0.28129900  0.88106800  1
  O  O9  1  0.03895200  0.21870100  0.11893200  1
  O  O10  1  0.46104800  0.71870100  0.38106800  1
  O  O11  1  0.96104800  0.78129900  0.61893200  1
  O  O12  1  0.46104800  0.71870100  0.11893200  1
  O  O13  1  0.96104800  0.78129900  0.88106800  1
  O  O14  1  0.53895200  0.28129900  0.61893200  1
  O  O15  1  0.03895200  0.21870100  0.38106800  1
  O  O16  1  0.82290900  0.43557800  0.25000000  1
  O  O17  1  0.32290900  0.06442200  0.75000000  1
  O  O18  1  0.17709100  0.56442200  0.75000000  1
  O  O19  1  0.67709100  0.93557800  0.25000000  1
  O  O20  1  0.78409100  0.05077900  0.57237700  1
  O  O21  1  0.28409100  0.44922100  0.42762300  1
  O  O22  1  0.21590900  0.94922100  0.07237700  1
  O  O23  1  0.71590900  0.55077900  0.92762300  1
  O  O24  1  0.21590900  0.94922100  0.42762300  1
  O  O25  1  0.71590900  0.55077900  0.57237700  1
  O  O26  1  0.78409100  0.05077900  0.92762300  1
  O  O27  1  0.28409100  0.44922100  0.07237700  1
loop_
_geom_bond_atom_site_label_1
_geom_bond_atom_site_label_2
_geom_bond_distance
_geom_bond_site_symmetry_2
Ca0 O22 2.257287 1_545
Ca0 O24 2.257287 1_545
Ca0 O19 2.320018 1_545
Ca0 O1 2.574611 1_555
Ca0 O7 2.574611 1_555
Ca0 O15 2.667366 1_555
Ca0 O9 2.667366 1_555
Ca1 O23 2.257287 1_555
Ca1 O25 2.257287 1_555
Ca1 O18 2.320018 1_655
Ca1 O6 2.574611 1_655
Ca1 O0 2.574611 1_655
Ca1 O14 2.667366 1_555
Ca1 O8 2.667366 1_555
Ca2 O26 2.257287 1_565
Ca2 O20 2.257287 1_565
Ca2 O17 2.320018 1_565
Ca2 O5 2.574611 1_555
Ca2 O3 2.574611 1_555
Ca2 O11 2.667366 1_555
Ca2 O13 2.667366 1_555
Ca3 O21 2.257287 1_555
Ca3 O27 2.257287 1_555
Ca3 O16 2.320018 1_455
Ca3 O4 2.574611 1_455
Ca3 O2 2.574611 1_455
Ca3 O12 2.667366 1_555
Ca3 O10 2.667366 1_555
Mn0 O23 1.696144 1_555
Mn0 O5 1.893260 1_555
Mn0 O13 1.915852 1_555
Mn0 O12 1.996444 1_556
Mn0 O4 2.018727 1_556
Mn1 O22 1.696144 1_555
Mn1 O4 1.893260 1_455
Mn1 O12 1.915852 1_555
Mn1 O13 1.996444 1_454
Mn1 O5 2.018727 1_554
Mn2 O21 1.696144 1_555
Mn2 O7 1.893260 1_555
Mn2 O15 1.915852 1_555
Mn2 O14 1.996444 1_555
Mn2 O6 2.018727 1_555
Mn3 O20 1.696134 1_555
Mn3 O6 1.893264 1_655
Mn3 O14 1.915856 1_555
Mn3 O15 1.996445 1_655
Mn3 O7 2.018728 1_555
Mn4 O19 1.711315 1_555
Mn4 O12 1.957491 1_555
Mn4 O10 1.957491 1_555
Mn4 O2 1.985724 1_555
Mn4 O4 1.985724 1_555
Mn5 O18 1.711315 1_555
Mn5 O13 1.957491 1_455
Mn5 O11 1.957491 1_455
Mn5 O5 1.985724 1_555
Mn5 O3 1.985724 1_555
Mn6 O17 1.711315 1_555
Mn6 O14 1.957491 1_555
Mn6 O8 1.957491 1_555
Mn6 O6 1.985724 1_555
Mn6 O0 1.985724 1_555
Mn7 O16 1.711315 1_555
Mn7 O9 1.957491 1_655
Mn7 O15 1.957491 1_655
Mn7 O7 1.985724 1_555
Mn7 O1 1.985724 1_555
Mn8 O24 1.696144 1_555
Mn8 O2 1.893260 1_455
Mn8 O10 1.915852 1_555
Mn8 O11 1.996444 1_455
Mn8 O3 2.018727 1_555
Mn9 O25 1.696144 1_555
Mn9 O3 1.893260 1_555
Mn9 O11 1.915852 1_555
Mn9 O10 1.996444 1_555
Mn9 O2 2.018727 1_555
Mn10 O26 1.696134 1_555
Mn10 O0 1.893264 1_655
Mn10 O8 1.915856 1_555
Mn10 O9 1.996445 1_656
Mn10 O1 2.018728 1_556
Mn11 O27 1.696144 1_555
Mn11 O1 1.893260 1_555
Mn11 O9 1.915852 1_555
Mn11 O8 1.996444 1_554
Mn11 O0 2.018727 1_554
