# generated using pymatgen
data_AlCrFe2
_symmetry_space_group_name_H-M   'P 1'
_cell_length_a   3.97714801
_cell_length_b   3.97714808
_cell_length_c   3.97714752
_cell_angle_alpha   60.00000464
_cell_angle_beta   60.00000406
_cell_angle_gamma   59.99999844
_symmetry_Int_Tables_number   1
_chemical_formula_structural   AlCrFe2
_chemical_formula_sum   'Al1 Cr1 Fe2'
_cell_volume   44.48363208
_cell_formula_units_Z   1
loop_
 _symmetry_equiv_pos_site_id
 _symmetry_equiv_pos_as_xyz
  1  'x, y, z'
loop_
 _atom_site_type_symbol
 _atom_site_label
 _atom_site_symmetry_multiplicity
 _atom_site_fract_x
 _atom_site_fract_y
 _atom_site_fract_z
 _atom_site_occupancy
  Al  Al0  1  0.00000000  0.00000000  -0.00000000  1
  Cr  Cr0  1  0.50000000  0.50000000  0.50000000  1
  Fe  Fe0  1  0.25000000  0.25000000  0.25000000  1
  Fe  Fe1  1  0.75000000  0.75000000  0.75000000  1
loop_
_geom_bond_atom_site_label_1
_geom_bond_atom_site_label_2
_geom_bond_distance
_geom_bond_site_symmetry_2
Al0 Fe0 2.435496 1_555
Al0 Fe0 2.435496 1_554
Al0 Fe1 2.435496 1_444
Al0 Fe1 2.435496 1_445
Al0 Fe1 2.435496 1_544
Al0 Fe0 2.435496 1_455
Al0 Fe1 2.435496 1_454
Al0 Fe0 2.435496 1_545
Cr0 Fe0 2.435496 1_555
Cr0 Fe0 2.435496 1_556
Cr0 Fe1 2.435496 1_554
Cr0 Fe1 2.435496 1_555
Cr0 Fe1 2.435496 1_455
Cr0 Fe0 2.435496 1_655
Cr0 Fe0 2.435496 1_565
Cr0 Fe1 2.435496 1_545
