# generated using pymatgen
data_BaLa4TiCr4O15
_symmetry_space_group_name_H-M   'P 1'
_cell_length_a   3.95451271
_cell_length_b   5.60063968
_cell_length_c   14.16342727
_cell_angle_alpha   78.59164244
_cell_angle_beta   89.99966151
_cell_angle_gamma   90.00065514
_symmetry_Int_Tables_number   1
_chemical_formula_structural   BaLa4TiCr4O15
_chemical_formula_sum   'Ba1 La4 Ti1 Cr4 O15'
_cell_volume   307.49100760
_cell_formula_units_Z   1
loop_
 _symmetry_equiv_pos_site_id
 _symmetry_equiv_pos_as_xyz
  1  'x, y, z'
loop_
 _atom_site_type_symbol
 _atom_site_label
 _atom_site_symmetry_multiplicity
 _atom_site_fract_x
 _atom_site_fract_y
 _atom_site_fract_z
 _atom_site_occupancy
  Ba  Ba0  1  0.49999900  0.50000500  0.00000100  1
  La  La0  1  0.50001600  0.89688800  0.20640300  1
  La  La1  1  0.49994900  0.10312200  0.79359000  1
  La  La2  1  0.50000900  0.30096200  0.39809000  1
  La  La3  1  0.50002000  0.69901400  0.60191100  1
  Ti  Ti0  1  0.99999700  0.00000200  0.99999800  1
  Cr  Cr0  1  0.99999900  0.60047600  0.79903000  1
  Cr  Cr1  1  0.99999900  0.79947300  0.40111600  1
  Cr  Cr2  1  0.99999900  0.39953500  0.20097100  1
  Cr  Cr3  1  0.99999900  0.20052500  0.59888700  1
  O  O0  1  0.50000200  0.99999600  0.00000300  1
  O  O1  1  0.00001600  0.49999300  0.50000100  1
  O  O2  1  0.00000400  0.99998700  0.50000600  1
  O  O3  1  0.49999600  0.60536400  0.78934700  1
  O  O4  1  0.50000200  0.39464800  0.21065400  1
  O  O5  1  0.49999900  0.80115400  0.39762400  1
  O  O6  1  0.50000200  0.19883600  0.60238300  1
  O  O7  1  0.00004800  0.28823900  0.89612000  1
  O  O8  1  0.99996200  0.71175900  0.10387400  1
  O  O9  1  0.99996100  0.81565800  0.89611300  1
  O  O10  1  0.00005100  0.18433300  0.10388700  1
  O  O11  1  0.00001000  0.90100100  0.69923700  1
  O  O12  1  0.99998300  0.09900600  0.30076300  1
  O  O13  1  0.99998000  0.39976900  0.69922900  1
  O  O14  1  0.00000000  0.60025500  0.30076500  1
loop_
_geom_bond_atom_site_label_1
_geom_bond_atom_site_label_2
_geom_bond_distance
_geom_bond_site_symmetry_2
Ba0 O0 2.800275 1_555
Ba0 O0 2.800365 1_545
Ba0 O8 2.858339 1_555
Ba0 O9 2.858348 1_554
Ba0 O10 2.858353 1_555
Ba0 O7 2.858408 1_554
Ba0 O8 2.858548 1_455
Ba0 O9 2.858596 1_454
Ba0 O10 2.858678 1_655
Ba0 O7 2.858683 1_654
Ba0 O4 2.924620 1_555
Ba0 O3 2.924634 1_554
La0 O5 2.654834 1_555
La0 O12 2.752276 1_565
La0 O12 2.752471 1_465
La0 O14 2.752682 1_655
La0 O14 2.752735 1_555
La0 O10 2.772061 1_565
La0 O10 2.772220 1_665
La0 O8 2.772754 1_555
La0 O8 2.773054 1_455
La0 O4 2.800306 1_565
La0 O4 2.801578 1_555
La0 O0 2.865573 1_555
La1 O6 2.654640 1_555
La1 O11 2.752149 1_545
La1 O11 2.752503 1_645
La1 O13 2.752674 1_455
La1 O13 2.752812 1_555
La1 O9 2.772179 1_445
La1 O9 2.772285 1_545
La1 O7 2.772604 1_555
La1 O7 2.773157 1_655
La1 O3 2.800270 1_545
La1 O3 2.801609 1_555
La1 O0 2.865754 1_546
La2 O4 2.602285 1_555
La2 O14 2.775808 1_655
La2 O12 2.775884 1_555
La2 O14 2.775897 1_555
La2 O12 2.776024 1_455
La2 O5 2.800097 1_555
La2 O5 2.800558 1_545
La2 O1 2.805699 1_555
La2 O2 2.805707 1_545
La2 O2 2.805718 1_645
La2 O1 2.805732 1_655
La2 O6 2.836320 1_555
La3 O3 2.602285 1_555
La3 O13 2.775586 1_555
La3 O13 2.775772 1_455
La3 O11 2.776002 1_655
La3 O11 2.776065 1_555
La3 O6 2.800002 1_555
La3 O6 2.800653 1_565
La3 O2 2.805581 1_655
La3 O1 2.805671 1_655
La3 O1 2.805687 1_555
La3 O2 2.805710 1_555
La3 O5 2.836237 1_555
Cr0 O11 1.972194 1_655
Cr0 O13 1.972360 1_555
Cr0 O3 1.981808 1_655
Cr0 O3 1.981834 1_555
Cr0 O7 1.999428 1_655
Cr0 O9 1.999666 1_555
Cr1 O2 1.960900 1_655
Cr1 O1 1.960994 1_655
Cr1 O12 1.972613 1_565
Cr1 O14 1.972912 1_655
Cr1 O5 1.977850 1_655
Cr1 O5 1.977851 1_555
Cr2 O12 1.972202 1_555
Cr2 O14 1.972329 1_655
Cr2 O4 1.981808 1_555
Cr2 O4 1.981834 1_655
Cr2 O8 1.999425 1_555
Cr2 O10 1.999760 1_655
Cr3 O2 1.960890 1_645
Cr3 O1 1.960954 1_655
Cr3 O11 1.972554 1_645
Cr3 O13 1.972909 1_555
Cr3 O6 1.977840 1_555
Cr3 O6 1.977864 1_655
O0 Ti0 1.977237 1_564
O0 Ti0 1.977276 1_464
O7 Ti0 1.957306 1_455
O8 Ti0 1.957312 1_564
O9 Ti0 1.957504 1_565
O10 Ti0 1.957504 1_454
