# generated using pymatgen
data_Sr5ZnCd4
_symmetry_space_group_name_H-M   'P 1'
_cell_length_a   3.97320081
_cell_length_b   3.97320081
_cell_length_c   20.37149768
_cell_angle_alpha   90.00000000
_cell_angle_beta   90.00000000
_cell_angle_gamma   90.00000000
_symmetry_Int_Tables_number   1
_chemical_formula_structural   Sr5ZnCd4
_chemical_formula_sum   'Sr5 Zn1 Cd4'
_cell_volume   321.59107652
_cell_formula_units_Z   1
loop_
 _symmetry_equiv_pos_site_id
 _symmetry_equiv_pos_as_xyz
  1  'x, y, z'
loop_
 _atom_site_type_symbol
 _atom_site_label
 _atom_site_symmetry_multiplicity
 _atom_site_fract_x
 _atom_site_fract_y
 _atom_site_fract_z
 _atom_site_occupancy
  Sr  Sr0  1  0.50000000  0.50000000  0.09473904  1
  Sr  Sr1  1  0.50000000  0.50000000  0.29809396  1
  Sr  Sr2  1  0.50000000  0.50000000  0.50000000  1
  Sr  Sr3  1  0.50000000  0.50000000  0.70190604  1
  Sr  Sr4  1  0.50000000  0.50000000  0.90526096  1
  Zn  Zn0  1  -0.00000000  -0.00000000  0.00000000  1
  Cd  Cd0  1  -0.00000000  -0.00000000  0.19710841  1
  Cd  Cd1  1  -0.00000000  -0.00000000  0.39905692  1
  Cd  Cd2  1  -0.00000000  -0.00000000  0.60094308  1
  Cd  Cd3  1  -0.00000000  -0.00000000  0.80289159  1
loop_
_geom_bond_atom_site_label_1
_geom_bond_atom_site_label_2
_geom_bond_distance
_geom_bond_site_symmetry_2
Sr0 Zn0 3.408514 1_565
Sr0 Zn0 3.408514 1_555
Sr0 Zn0 3.408514 1_655
Sr0 Zn0 3.408514 1_665
Sr4 Zn0 3.408514 1_666
Sr4 Zn0 3.408514 1_656
Sr4 Zn0 3.408514 1_566
Sr4 Zn0 3.408514 1_556
Cd0 Sr1 3.482147 1_545
Cd0 Sr1 3.482147 1_555
Cd0 Sr1 3.482147 1_455
Cd0 Sr1 3.482147 1_445
Cd0 Sr0 3.498875 1_445
Cd0 Sr0 3.498875 1_455
Cd0 Sr0 3.498875 1_545
Cd0 Sr0 3.498875 1_555
Cd1 Sr2 3.481636 1_455
Cd1 Sr2 3.481636 1_445
Cd1 Sr2 3.481636 1_545
Cd1 Sr2 3.481636 1_555
Cd1 Sr1 3.481875 1_455
Cd1 Sr1 3.481875 1_555
Cd1 Sr1 3.481875 1_445
Cd1 Sr1 3.481875 1_545
Cd2 Sr2 3.481636 1_455
Cd2 Sr2 3.481636 1_555
Cd2 Sr2 3.481636 1_445
Cd2 Sr2 3.481636 1_545
Cd2 Sr3 3.481875 1_555
Cd2 Sr3 3.481875 1_455
Cd2 Sr3 3.481875 1_445
Cd2 Sr3 3.481875 1_545
Cd3 Sr3 3.482147 1_455
Cd3 Sr3 3.482147 1_555
Cd3 Sr3 3.482147 1_545
Cd3 Sr3 3.482147 1_445
Cd3 Sr4 3.498875 1_545
Cd3 Sr4 3.498875 1_555
Cd3 Sr4 3.498875 1_445
Cd3 Sr4 3.498875 1_455
