# generated using pymatgen
data_NdMoO4F
_symmetry_space_group_name_H-M   'P 1'
_cell_length_a   6.61203000
_cell_length_b   7.02773500
_cell_length_c   10.13012838
_cell_angle_alpha   64.16676826
_cell_angle_beta   90.00000000
_cell_angle_gamma   90.00000000
_symmetry_Int_Tables_number   1
_chemical_formula_structural   NdMoO4F
_chemical_formula_sum   'Nd4 Mo4 O16 F4'
_cell_volume   423.68158397
_cell_formula_units_Z   4
loop_
 _symmetry_equiv_pos_site_id
 _symmetry_equiv_pos_as_xyz
  1  'x, y, z'
loop_
 _atom_site_type_symbol
 _atom_site_label
 _atom_site_symmetry_multiplicity
 _atom_site_fract_x
 _atom_site_fract_y
 _atom_site_fract_z
 _atom_site_occupancy
  Nd  Nd0  1  0.62815000  0.80379500  0.42206200  1
  Nd  Nd1  1  0.87185000  0.80379500  0.92206200  1
  Nd  Nd2  1  0.37185000  0.19620500  0.57793800  1
  Nd  Nd3  1  0.12815000  0.19620500  0.07793800  1
  Mo  Mo0  1  0.63569800  0.33358100  0.83498600  1
  Mo  Mo1  1  0.86430200  0.33358100  0.33498600  1
  Mo  Mo2  1  0.36430200  0.66641900  0.16501400  1
  Mo  Mo3  1  0.13569800  0.66641900  0.66501400  1
  O  O0  1  0.66022600  0.55430400  0.87303700  1
  O  O1  1  0.83977400  0.55430400  0.37303700  1
  O  O2  1  0.33977400  0.44569600  0.12696300  1
  O  O3  1  0.16022600  0.44569600  0.62696300  1
  O  O4  1  0.90092000  0.78601300  0.58767700  1
  O  O5  1  0.59908000  0.78601300  0.08767700  1
  O  O6  1  0.09908000  0.21398700  0.41232300  1
  O  O7  1  0.40092000  0.21398700  0.91232300  1
  O  O8  1  0.60578600  0.43957100  0.63614800  1
  O  O9  1  0.89421400  0.43957100  0.13614800  1
  O  O10  1  0.39421400  0.56042900  0.36385200  1
  O  O11  1  0.10578600  0.56042900  0.86385200  1
  O  O12  1  0.85783600  0.16484600  0.91945400  1
  O  O13  1  0.64216400  0.16484600  0.41945400  1
  O  O14  1  0.14216400  0.83515400  0.08054600  1
  O  O15  1  0.35783600  0.83515400  0.58054600  1
  F  F0  1  0.88261800  0.01370400  0.26122300  1
  F  F1  1  0.61738200  0.01370400  0.76122300  1
  F  F2  1  0.11738200  0.98629600  0.73877700  1
  F  F3  1  0.38261800  0.98629600  0.23877700  1
loop_
_geom_bond_atom_site_label_1
_geom_bond_atom_site_label_2
_geom_bond_distance
_geom_bond_site_symmetry_2
Nd0 O4 2.429078 1_555
Nd0 O1 2.457178 1_555
Nd0 O15 2.475674 1_555
Nd0 O13 2.527669 1_565
Nd0 O8 2.537559 1_555
Nd0 O10 2.558200 1_555
Nd1 O5 2.429078 1_556
Nd1 O0 2.457178 1_555
Nd1 O14 2.475674 1_656
Nd1 O12 2.527669 1_565
Nd1 O9 2.537559 1_556
Nd1 O11 2.558200 1_655
Nd2 O6 2.429078 1_555
Nd2 O3 2.457178 1_555
Nd2 O13 2.475674 1_555
Nd2 O15 2.527669 1_545
Nd2 O10 2.537559 1_555
Nd2 O8 2.558200 1_555
Nd3 O7 2.429078 1_554
Nd3 O2 2.457178 1_555
Nd3 O12 2.475674 1_454
Nd3 O14 2.527669 1_545
Nd3 O11 2.537559 1_554
Nd3 O9 2.558200 1_455
Mo0 O0 1.761290 1_555
Mo0 O7 1.776552 1_555
Mo0 O8 1.828551 1_555
Mo0 O12 1.846992 1_555
Mo1 O1 1.761290 1_555
Mo1 O6 1.776552 1_655
Mo1 O9 1.828551 1_555
Mo1 O13 1.846992 1_555
Mo2 O2 1.761290 1_555
Mo2 O5 1.776552 1_555
Mo2 O10 1.828551 1_555
Mo2 O14 1.846992 1_555
Mo3 O3 1.761290 1_555
Mo3 O4 1.776552 1_455
Mo3 O11 1.828551 1_555
Mo3 O15 1.846992 1_555
F0 Nd0 2.359475 1_545
F0 Nd3 2.377520 1_655
F1 Nd1 2.359475 1_545
F1 Nd2 2.377520 1_555
F2 Nd2 2.359475 1_565
F2 Nd1 2.377520 1_455
F3 Nd3 2.359475 1_565
F3 Nd0 2.377520 1_555
