# generated using pymatgen
data_Mg(SbO2)2
_symmetry_space_group_name_H-M   'P 1'
_cell_length_a   3.39316100
_cell_length_b   10.71924700
_cell_length_c   10.96904700
_cell_angle_alpha   90.00000000
_cell_angle_beta   90.00000000
_cell_angle_gamma   90.00000000
_symmetry_Int_Tables_number   1
_chemical_formula_structural   Mg(SbO2)2
_chemical_formula_sum   'Mg4 Sb8 O16'
_cell_volume   398.96761300
_cell_formula_units_Z   4
loop_
 _symmetry_equiv_pos_site_id
 _symmetry_equiv_pos_as_xyz
  1  'x, y, z'
loop_
 _atom_site_type_symbol
 _atom_site_label
 _atom_site_symmetry_multiplicity
 _atom_site_fract_x
 _atom_site_fract_y
 _atom_site_fract_z
 _atom_site_occupancy
  Mg  Mg0  1  0.83401600  0.75000000  0.38335200  1
  Mg  Mg1  1  0.83401600  0.25000000  0.11664800  1
  Mg  Mg2  1  0.16598400  0.75000000  0.88335200  1
  Mg  Mg3  1  0.16598400  0.25000000  0.61664800  1
  Sb  Sb0  1  0.39157600  0.58844500  0.12395400  1
  Sb  Sb1  1  0.39157600  0.08844500  0.37604600  1
  Sb  Sb2  1  0.60842400  0.08844500  0.87604600  1
  Sb  Sb3  1  0.39157600  0.41155500  0.37604600  1
  Sb  Sb4  1  0.60842400  0.41155500  0.87604600  1
  Sb  Sb5  1  0.39157600  0.91155500  0.12395400  1
  Sb  Sb6  1  0.60842400  0.91155500  0.62395400  1
  Sb  Sb7  1  0.60842400  0.58844500  0.62395400  1
  O  O0  1  0.63161600  0.87741600  0.95204600  1
  O  O1  1  0.36838400  0.12258400  0.04795400  1
  O  O2  1  0.74451900  0.00000000  0.25000000  1
  O  O3  1  0.36838400  0.87741600  0.45204600  1
  O  O4  1  0.36838400  0.62258400  0.45204600  1
  O  O5  1  0.65020300  0.25000000  0.29516300  1
  O  O6  1  0.63161600  0.12258400  0.54795400  1
  O  O7  1  0.34979700  0.25000000  0.79516300  1
  O  O8  1  0.74451900  0.50000000  0.25000000  1
  O  O9  1  0.25548100  0.00000000  0.75000000  1
  O  O10  1  0.63161600  0.62258400  0.95204600  1
  O  O11  1  0.34979700  0.75000000  0.70483700  1
  O  O12  1  0.65020300  0.75000000  0.20483700  1
  O  O13  1  0.25548100  0.50000000  0.75000000  1
  O  O14  1  0.63161600  0.37741600  0.54795400  1
  O  O15  1  0.36838400  0.37741600  0.04795400  1
loop_
_geom_bond_atom_site_label_1
_geom_bond_atom_site_label_2
_geom_bond_distance
_geom_bond_site_symmetry_2
Mg0 O12 2.055072 1_555
Mg0 O3 2.220243 1_555
Mg0 O4 2.220243 1_555
Mg0 O4 2.391835 1_655
Mg0 O3 2.391835 1_655
Mg1 O5 2.055072 1_555
Mg1 O1 2.220243 1_555
Mg1 O15 2.220243 1_555
Mg1 O15 2.391835 1_655
Mg1 O1 2.391835 1_655
Mg2 O11 2.055072 1_555
Mg2 O10 2.220243 1_555
Mg2 O0 2.220243 1_555
Mg2 O0 2.391835 1_455
Mg2 O10 2.391835 1_455
Mg3 O7 2.055072 1_555
Mg3 O6 2.220243 1_555
Mg3 O14 2.220243 1_555
Mg3 O14 2.391835 1_455
Mg3 O6 2.391835 1_455
O0 Sb5 2.086398 1_556
O0 Sb2 2.412080 1_565
O1 Sb2 2.086398 1_554
O1 Sb5 2.412080 1_545
O2 Sb1 2.060254 1_555
O2 Sb5 2.060254 1_545
O3 Sb6 2.086398 1_555
O3 Sb1 2.412080 1_565
O4 Sb7 2.086398 1_555
O4 Sb3 2.412080 1_555
O5 Sb1 2.134528 1_555
O5 Sb3 2.134528 1_555
O6 Sb1 2.086398 1_555
O6 Sb6 2.412080 1_545
O7 Sb4 2.134528 1_555
O7 Sb2 2.134528 1_555
O8 Sb0 2.060254 1_555
O8 Sb3 2.060254 1_555
O9 Sb2 2.060254 1_555
O9 Sb6 2.060254 1_545
O10 Sb0 2.086398 1_556
O10 Sb4 2.412080 1_555
O11 Sb6 2.134528 1_555
O11 Sb7 2.134528 1_555
O12 Sb5 2.134528 1_555
O12 Sb0 2.134528 1_555
O13 Sb4 2.060254 1_555
O13 Sb7 2.060254 1_555
O14 Sb3 2.086398 1_555
O14 Sb7 2.412080 1_555
O15 Sb4 2.086398 1_554
O15 Sb0 2.412080 1_555
