# generated using pymatgen
data_AlCu2AsO12
_symmetry_space_group_name_H-M   'P 1'
_cell_length_a   8.51719458
_cell_length_b   8.51719458
_cell_length_c   9.91842120
_cell_angle_alpha   59.27086945
_cell_angle_beta   59.27086945
_cell_angle_gamma   53.07684097
_symmetry_Int_Tables_number   1
_chemical_formula_structural   AlCu2AsO12
_chemical_formula_sum   'Al2 Cu4 As2 O24'
_cell_volume   472.15034612
_cell_formula_units_Z   2
loop_
 _symmetry_equiv_pos_site_id
 _symmetry_equiv_pos_as_xyz
  1  'x, y, z'
loop_
 _atom_site_type_symbol
 _atom_site_label
 _atom_site_symmetry_multiplicity
 _atom_site_fract_x
 _atom_site_fract_y
 _atom_site_fract_z
 _atom_site_occupancy
  Al  Al0  1  0.50000000  0.00000000  0.50000000  1
  Al  Al1  1  0.00000000  0.50000000  0.00000000  1
  Cu  Cu0  1  0.59540000  0.63870700  0.92641300  1
  Cu  Cu1  1  0.36129300  0.40460000  0.57358700  1
  Cu  Cu2  1  0.40460000  0.36129300  0.07358700  1
  Cu  Cu3  1  0.63870700  0.59540000  0.42641300  1
  As  As0  1  0.28928800  0.71071200  0.75000000  1
  As  As1  1  0.71071200  0.28928800  0.25000000  1
  O  O0  1  0.27305000  0.94881100  0.64095500  1
  O  O1  1  0.05118900  0.72695000  0.85904500  1
  O  O2  1  0.72695000  0.05118900  0.35904500  1
  O  O3  1  0.94881100  0.27305000  0.14095500  1
  O  O4  1  0.44181500  0.58178900  0.88023600  1
  O  O5  1  0.41821100  0.55818500  0.61976400  1
  O  O6  1  0.55818500  0.41821100  0.11976400  1
  O  O7  1  0.58178900  0.44181500  0.38023600  1
  O  O8  1  0.57835000  0.88867400  0.73756100  1
  O  O9  1  0.11132600  0.42165000  0.76243900  1
  O  O10  1  0.42165000  0.11132600  0.26243900  1
  O  O11  1  0.88867400  0.57835000  0.23756100  1
  O  O12  1  0.73977900  0.66892400  0.98731900  1
  O  O13  1  0.33107600  0.26022100  0.51268100  1
  O  O14  1  0.26022100  0.33107600  0.01268100  1
  O  O15  1  0.66892400  0.73977900  0.48731900  1
  O  O16  1  0.06706100  0.94097200  0.03505200  1
  O  O17  1  0.05902800  0.93293900  0.46494800  1
  O  O18  1  0.93293900  0.05902800  0.96494800  1
  O  O19  1  0.94097200  0.06706100  0.53505200  1
  O  O20  1  0.97153800  0.43004700  0.73964500  1
  O  O21  1  0.56995300  0.02846200  0.76035500  1
  O  O22  1  0.02846200  0.56995300  0.26035500  1
  O  O23  1  0.43004700  0.97153800  0.23964500  1
loop_
_geom_bond_atom_site_label_1
_geom_bond_atom_site_label_2
_geom_bond_distance
_geom_bond_site_symmetry_2
Al0 O13 1.807407 1_555
Al0 O15 1.807407 1_545
Al0 O0 1.873213 1_545
Al0 O2 1.873213 1_555
Al0 O8 2.336589 1_545
Al0 O10 2.336589 1_555
Al1 O14 1.807407 1_555
Al1 O12 1.807407 1_454
Al1 O3 1.873213 1_455
Al1 O1 1.873213 1_554
Al1 O11 2.336589 1_455
Al1 O9 2.336589 1_554
Cu0 O12 1.800454 1_555
Cu0 O6 1.928335 1_556
Cu0 O4 1.938310 1_555
Cu0 O8 1.973173 1_555
Cu0 O20 2.704106 1_555
Cu1 O13 1.800454 1_555
Cu1 O7 1.928335 1_555
Cu1 O5 1.938310 1_555
Cu1 O9 1.973173 1_555
Cu1 O21 2.704106 1_555
Cu2 O14 1.800454 1_555
Cu2 O4 1.928335 1_554
Cu2 O6 1.938310 1_555
Cu2 O10 1.973173 1_555
Cu2 O22 2.704106 1_555
Cu3 O15 1.800454 1_555
Cu3 O5 1.928335 1_555
Cu3 O7 1.938310 1_555
Cu3 O11 1.973173 1_555
Cu3 O23 2.704106 1_555
As0 O1 1.695821 1_555
As0 O0 1.695821 1_555
As0 O4 1.764502 1_555
As0 O5 1.764502 1_555
As1 O3 1.695821 1_555
As1 O2 1.695821 1_555
As1 O7 1.764502 1_555
As1 O6 1.764502 1_555
O10 O23 1.276719 1_545
O11 O22 1.276719 1_655
O16 O18 1.231515 1_464
O17 O19 1.231515 1_465
O20 O9 1.276719 1_655
O21 O8 1.276719 1_545
