# generated using pymatgen
data_KMg3(SiO3)4
_symmetry_space_group_name_H-M   'P 1'
_cell_length_a   5.30771390
_cell_length_b   5.30771390
_cell_length_c   32.06602281
_cell_angle_alpha   90.00000000
_cell_angle_beta   90.00000000
_cell_angle_gamma   120.00000674
_symmetry_Int_Tables_number   1
_chemical_formula_structural   KMg3(SiO3)4
_chemical_formula_sum   'K3 Mg9 Si12 O36'
_cell_volume   782.33130671
_cell_formula_units_Z   3
loop_
 _symmetry_equiv_pos_site_id
 _symmetry_equiv_pos_as_xyz
  1  'x, y, z'
loop_
 _atom_site_type_symbol
 _atom_site_label
 _atom_site_symmetry_multiplicity
 _atom_site_fract_x
 _atom_site_fract_y
 _atom_site_fract_z
 _atom_site_occupancy
  K  K0  1  0.72041225  0.44082449  0.16666700  1
  K  K1  1  0.72041225  0.27958775  0.83333300  1
  K  K2  1  0.55917551  0.27958775  0.50000000  1
  Mg  Mg0  1  0.88639115  0.77278229  0.66666700  1
  Mg  Mg1  1  0.88639115  0.11360885  0.33333300  1
  Mg  Mg2  1  0.22721771  0.11360885  0.00000000  1
  Mg  Mg3  1  0.55743264  0.11486527  0.66666700  1
  Mg  Mg4  1  0.55743264  0.44256736  0.33333300  1
  Mg  Mg5  1  0.88513473  0.44256736  0.00000000  1
  Mg  Mg6  1  0.22199781  0.44399561  0.66666700  1
  Mg  Mg7  1  0.22199781  0.77800219  0.33333300  1
  Mg  Mg8  1  0.55600439  0.77800219  0.00000000  1
  Si  Si0  1  0.89709360  0.10275402  0.58030246  1
  Si  Si1  1  0.20566042  0.10290640  0.24696946  1
  Si  Si2  1  0.20566042  0.10275402  0.75303054  1
  Si  Si3  1  0.89724598  0.79433958  0.91363546  1
  Si  Si4  1  0.89724598  0.10290640  0.08636454  1
  Si  Si5  1  0.89709360  0.79433958  0.41969754  1
  Si  Si6  1  0.54166569  0.77152114  0.75302644  1
  Si  Si7  1  0.22985545  0.45833431  0.41969344  1
  Si  Si8  1  0.22985545  0.77152114  0.58030656  1
  Si  Si9  1  0.22847886  0.77014455  0.08635944  1
  Si  Si10  1  0.22847886  0.45833431  0.91364056  1
  Si  Si11  1  0.54166569  0.77014455  0.24697356  1
  O  O0  1  0.56272434  0.61638580  0.89388487  1
  O  O1  1  0.05366146  0.43727566  0.56055187  1
  O  O2  1  0.05366146  0.61638580  0.43944813  1
  O  O3  1  0.38361420  0.94633854  0.22721787  1
  O  O4  1  0.38361420  0.43727566  0.77278213  1
  O  O5  1  0.56272434  0.94633854  0.10611513  1
  O  O6  1  0.88051476  0.44368999  0.69685247  1
  O  O7  1  0.56317523  0.11948524  0.36351947  1
  O  O8  1  0.56317523  0.44368999  0.63648053  1
  O  O9  1  0.55631001  0.43682477  0.03018547  1
  O  O10  1  0.55631001  0.11948524  0.96981453  1
  O  O11  1  0.88051476  0.43682477  0.30314753  1
  O  O12  1  0.89596520  0.10244215  0.63036118  1
  O  O13  1  0.20647696  0.10403480  0.29702818  1
  O  O14  1  0.20647696  0.10244215  0.70297182  1
  O  O15  1  0.89755785  0.79352304  0.96369418  1
  O  O16  1  0.89755785  0.10403480  0.03630582  1
  O  O17  1  0.89596520  0.79352304  0.36963882  1
  O  O18  1  0.87377502  0.94770186  0.77362857  1
  O  O19  1  0.07392684  0.12622498  0.44029557  1
  O  O20  1  0.07392684  0.94770186  0.55970443  1
  O  O21  1  0.05229814  0.92607316  0.10696157  1
  O  O22  1  0.05229814  0.12622498  0.89303843  1
  O  O23  1  0.87377502  0.92607316  0.22637143  1
  O  O24  1  0.54581482  0.78194670  0.70306074  1
  O  O25  1  0.23613187  0.45418518  0.36972774  1
  O  O26  1  0.23613187  0.78194670  0.63027226  1
  O  O27  1  0.21805330  0.76386813  0.03639374  1
  O  O28  1  0.21805330  0.45418518  0.96360626  1
  O  O29  1  0.54581482  0.76386813  0.29693926  1
  O  O30  1  0.56378446  0.63389968  0.44001976  1
  O  O31  1  0.07011522  0.43621554  0.10668676  1
  O  O32  1  0.07011522  0.63389968  0.89331324  1
  O  O33  1  0.36610032  0.92988478  0.77335276  1
  O  O34  1  0.36610032  0.43621554  0.22664724  1
  O  O35  1  0.56378446  0.92988478  0.55998024  1
loop_
_geom_bond_atom_site_label_1
_geom_bond_atom_site_label_2
_geom_bond_distance
_geom_bond_site_symmetry_2
K0 O31 2.681490 1_655
K0 O34 2.681490 1_555
K0 O23 2.977389 1_555
K0 O21 2.977410 1_655
K0 O3 3.026913 1_545
K0 O5 3.026934 1_545
K1 O33 2.681490 1_545
K1 O32 2.681490 1_655
K1 O18 2.977389 1_545
K1 O22 2.977410 1_655
K1 O4 3.026914 1_555
K1 O0 3.026934 1_555
K2 O35 2.681490 1_545
K2 O30 2.681490 1_555
K2 O20 2.977389 1_545
K2 O19 2.977389 1_555
K2 O2 3.026934 1_655
K2 O1 3.026934 1_655
Mg0 O6 1.983541 1_555
Mg0 O8 1.983556 1_555
Mg0 O14 2.080987 1_665
Mg0 O12 2.081005 1_565
Mg0 O24 2.172534 1_555
Mg0 O26 2.172551 1_655
Mg1 O11 1.983541 1_555
Mg1 O7 1.983557 1_555
Mg1 O13 2.080987 1_655
Mg1 O17 2.081005 1_545
Mg1 O29 2.172534 1_545
Mg1 O25 2.172551 1_655
Mg2 O9 1.983541 1_555
Mg2 O10 1.983541 1_554
Mg2 O15 2.081005 1_444
Mg2 O16 2.081005 1_455
Mg2 O27 2.172534 1_545
Mg2 O28 2.172534 1_554
Mg3 O6 1.982603 1_555
Mg3 O8 1.982619 1_555
Mg3 O24 2.092643 1_545
Mg3 O26 2.092660 1_545
Mg3 O14 2.169490 1_555
Mg3 O12 2.169508 1_555
Mg4 O11 1.982603 1_555
Mg4 O7 1.982619 1_555
Mg4 O29 2.092643 1_555
Mg4 O25 2.092660 1_555
Mg4 O13 2.169490 1_555
Mg4 O17 2.169507 1_555
Mg5 O10 1.982603 1_554
Mg5 O9 1.982603 1_555
Mg5 O27 2.092642 1_655
Mg5 O28 2.092643 1_654
Mg5 O15 2.169508 1_554
Mg5 O16 2.169508 1_555
Mg6 O6 2.054041 1_455
Mg6 O8 2.054056 1_555
Mg6 O24 2.109618 1_555
Mg6 O26 2.109636 1_555
Mg6 O14 2.121127 1_555
Mg6 O12 2.121145 1_455
Mg7 O11 2.054040 1_455
Mg7 O7 2.054056 1_565
Mg7 O29 2.109618 1_555
Mg7 O25 2.109635 1_555
Mg7 O13 2.121127 1_565
Mg7 O17 2.121145 1_455
Mg8 O9 2.054041 1_555
Mg8 O10 2.054041 1_564
Mg8 O28 2.109618 1_554
Mg8 O27 2.109618 1_555
Mg8 O16 2.121145 1_565
Mg8 O15 2.121145 1_554
O0 Si10 1.662571 1_555
O0 Si3 1.663953 1_555
O1 Si8 1.662558 1_555
O1 Si0 1.663953 1_455
O2 Si7 1.662559 1_555
O2 Si5 1.663953 1_455
O3 Si11 1.662571 1_555
O3 Si1 1.663965 1_565
O4 Si6 1.662571 1_555
O4 Si2 1.663965 1_555
O5 Si9 1.662571 1_555
O5 Si4 1.663953 1_565
O12 Si0 1.605193 1_555
O13 Si1 1.605193 1_555
O14 Si2 1.605193 1_555
O15 Si3 1.605193 1_555
O16 Si4 1.605193 1_555
O17 Si5 1.605193 1_555
O18 Si2 1.663400 1_665
O18 Si6 1.664260 1_555
O19 Si5 1.663400 1_445
O19 Si7 1.664260 1_555
O20 Si0 1.663400 1_465
O20 Si8 1.664260 1_555
O21 Si4 1.663387 1_465
O21 Si9 1.664260 1_555
O22 Si3 1.663387 1_445
O22 Si10 1.664260 1_555
O23 Si1 1.663400 1_665
O23 Si11 1.664260 1_555
O24 Si6 1.602928 1_555
O25 Si7 1.602928 1_555
O26 Si8 1.602928 1_555
O27 Si9 1.602928 1_555
O28 Si10 1.602928 1_555
O29 Si11 1.602928 1_555
O30 Si5 1.665248 1_555
O30 Si7 1.668220 1_555
O31 Si4 1.665248 1_455
O31 Si9 1.668232 1_555
O32 Si3 1.665248 1_455
O32 Si10 1.668232 1_555
O33 Si2 1.665248 1_565
O33 Si6 1.668220 1_555
O34 Si1 1.665248 1_555
O34 Si11 1.668220 1_555
O35 Si0 1.665248 1_565
O35 Si8 1.668220 1_555
