# generated using pymatgen
data_Li7Mn5O12
_symmetry_space_group_name_H-M   'P 1'
_cell_length_a   3.00941300
_cell_length_b   5.10000065
_cell_length_c   14.60238710
_cell_angle_alpha   87.58722586
_cell_angle_beta   86.90286365
_cell_angle_gamma   86.42478338
_symmetry_Int_Tables_number   1
_chemical_formula_structural   Li7Mn5O12
_chemical_formula_sum   'Li7 Mn5 O12'
_cell_volume   223.18594285
_cell_formula_units_Z   1
loop_
 _symmetry_equiv_pos_site_id
 _symmetry_equiv_pos_as_xyz
  1  'x, y, z'
loop_
 _atom_site_type_symbol
 _atom_site_label
 _atom_site_symmetry_multiplicity
 _atom_site_fract_x
 _atom_site_fract_y
 _atom_site_fract_z
 _atom_site_occupancy
  Li  Li0  1  0.00884100  0.34526000  0.65625700  1
  Li  Li1  1  0.50261800  0.17055200  0.34146600  1
  Li  Li2  1  0.00000000  0.00000000  0.00000000  1
  Li  Li3  1  0.49738200  0.82944800  0.65853400  1
  Li  Li4  1  0.99115900  0.65474000  0.34374300  1
  Li  Li5  1  0.50000000  0.50000000  0.00000000  1
  Li  Li6  1  0.50000000  0.50000000  0.50000000  1
  Mn  Mn0  1  0.99664500  0.66578600  0.83241900  1
  Mn  Mn1  1  0.00000000  0.00000000  0.50000000  1
  Mn  Mn2  1  0.00335500  0.33421400  0.16758100  1
  Mn  Mn3  1  0.49592900  0.16564600  0.83272300  1
  Mn  Mn4  1  0.50407100  0.83435400  0.16727700  1
  O  O0  1  0.47145400  0.49004200  0.75649400  1
  O  O1  1  0.99293700  0.30851900  0.42106300  1
  O  O2  1  0.47063000  0.15820500  0.08885800  1
  O  O3  1  0.97530600  0.99436300  0.75853900  1
  O  O4  1  0.53081300  0.85611000  0.42783400  1
  O  O5  1  0.97454900  0.65818600  0.08930200  1
  O  O6  1  0.46918700  0.14389000  0.57216600  1
  O  O7  1  0.02469400  0.00563700  0.24146100  1
  O  O8  1  0.52937000  0.84179500  0.91114200  1
  O  O9  1  0.00706300  0.69148100  0.57893700  1
  O  O10  1  0.52854600  0.50995800  0.24350600  1
  O  O11  1  0.02545100  0.34181400  0.91069800  1
loop_
_geom_bond_atom_site_label_1
_geom_bond_atom_site_label_2
_geom_bond_distance
_geom_bond_site_symmetry_2
Li0 O9 2.055288 1_555
Li0 O6 2.055889 1_555
Li0 O0 2.233677 1_455
Li0 O0 2.250608 1_555
Li0 O3 2.285756 1_445
Li0 O6 2.393680 1_455
Li1 O1 1.985027 1_455
Li1 O4 1.998446 1_545
Li1 O1 2.099296 1_555
Li1 O10 2.201100 1_555
Li1 O7 2.235861 1_655
Li1 O7 2.321586 1_555
Li2 O5 2.135352 1_445
Li2 O11 2.135352 1_554
Li2 O2 2.139398 1_455
Li2 O8 2.139398 1_544
Li2 O2 2.183991 1_555
Li2 O8 2.183991 1_444
Li3 O9 1.985027 1_655
Li3 O6 1.998446 1_565
Li3 O9 2.099296 1_555
Li3 O0 2.201100 1_555
Li3 O3 2.235861 1_455
Li3 O3 2.321586 1_555
Li4 O1 2.055288 1_555
Li4 O4 2.055889 1_555
Li4 O10 2.233677 1_655
Li4 O10 2.250608 1_555
Li4 O7 2.285756 1_665
Li4 O4 2.393680 1_655
Li5 O2 2.132227 1_555
Li5 O8 2.132227 1_554
Li5 O5 2.135059 1_455
Li5 O11 2.135059 1_654
Li5 O5 2.196436 1_555
Li5 O11 2.196436 1_554
Li6 O9 2.052379 1_555
Li6 O1 2.052379 1_555
Li6 O4 2.065631 1_555
Li6 O6 2.065631 1_555
Li6 O9 2.254230 1_655
Li6 O1 2.254230 1_455
Mn0 O3 1.953958 1_555
Mn0 O0 1.956279 1_655
Mn0 O8 1.964550 1_555
Mn0 O11 1.969234 1_655
Mn0 O0 2.231648 1_555
Mn0 O8 2.272211 1_655
Mn1 O9 1.910655 1_545
Mn1 O1 1.910655 1_455
Mn1 O4 1.984393 1_545
Mn1 O6 1.984393 1_455
Mn1 O6 1.999452 1_555
Mn1 O4 1.999452 1_445
Mn2 O7 1.953958 1_555
Mn2 O10 1.956279 1_455
Mn2 O2 1.964550 1_555
Mn2 O5 1.969234 1_455
Mn2 O10 2.231648 1_555
Mn2 O2 2.272211 1_455
Mn3 O3 1.942007 1_545
Mn3 O0 1.954529 1_555
Mn3 O11 1.965102 1_555
Mn3 O8 1.970226 1_545
Mn3 O3 2.196604 1_445
Mn3 O11 2.259170 1_655
Mn4 O7 1.942007 1_565
Mn4 O10 1.954529 1_555
Mn4 O5 1.965102 1_555
Mn4 O2 1.970226 1_565
Mn4 O7 2.196604 1_665
Mn4 O5 2.259170 1_455
