# generated using pymatgen
data_SrH3Pd
_symmetry_space_group_name_H-M   'P 1'
_cell_length_a   3.82819304
_cell_length_b   3.82819304
_cell_length_c   3.82819304
_cell_angle_alpha   90.00000000
_cell_angle_beta   90.00000000
_cell_angle_gamma   90.00000000
_symmetry_Int_Tables_number   1
_chemical_formula_structural   SrH3Pd
_chemical_formula_sum   'Sr1 H3 Pd1'
_cell_volume   56.10240616
_cell_formula_units_Z   1
loop_
 _symmetry_equiv_pos_site_id
 _symmetry_equiv_pos_as_xyz
  1  'x, y, z'
loop_
 _atom_site_type_symbol
 _atom_site_label
 _atom_site_symmetry_multiplicity
 _atom_site_fract_x
 _atom_site_fract_y
 _atom_site_fract_z
 _atom_site_occupancy
  Sr  Sr0  1  0.50000000  0.50000000  0.50000000  1
  H  H0  1  0.50000000  0.00000000  -0.00000000  1
  H  H1  1  -0.00000000  0.50000000  -0.00000000  1
  H  H2  1  -0.00000000  0.00000000  0.50000000  1
  Pd  Pd0  1  -0.00000000  0.00000000  -0.00000000  1
loop_
_geom_bond_atom_site_label_1
_geom_bond_atom_site_label_2
_geom_bond_distance
_geom_bond_site_symmetry_2
H0 Pd0 1.914097 1_655
H0 Pd0 1.914097 1_555
H0 Sr0 2.706941 1_554
H0 Sr0 2.706941 1_544
H0 Sr0 2.706941 1_545
H0 Sr0 2.706941 1_555
H1 Pd0 1.914097 1_565
H1 Pd0 1.914097 1_555
H1 Sr0 2.706941 1_454
H1 Sr0 2.706941 1_554
H1 Sr0 2.706941 1_455
H1 Sr0 2.706941 1_555
H2 Pd0 1.914097 1_555
H2 Pd0 1.914097 1_556
H2 Sr0 2.706941 1_445
H2 Sr0 2.706941 1_555
H2 Sr0 2.706941 1_545
H2 Sr0 2.706941 1_455
