# generated using pymatgen
data_La2Si2O5
_symmetry_space_group_name_H-M   'P 1'
_cell_length_a   3.94760700
_cell_length_b   3.94760700
_cell_length_c   7.34060100
_cell_angle_alpha   90.00000000
_cell_angle_beta   90.00000000
_cell_angle_gamma   90.00000000
_symmetry_Int_Tables_number   1
_chemical_formula_structural   La2Si2O5
_chemical_formula_sum   'La2 Si2 O5'
_cell_volume   114.39299728
_cell_formula_units_Z   1
loop_
 _symmetry_equiv_pos_site_id
 _symmetry_equiv_pos_as_xyz
  1  'x, y, z'
loop_
 _atom_site_type_symbol
 _atom_site_label
 _atom_site_symmetry_multiplicity
 _atom_site_fract_x
 _atom_site_fract_y
 _atom_site_fract_z
 _atom_site_occupancy
  La  La0  1  0.00000000  0.00000000  0.00000000  1
  La  La1  1  0.00000000  0.00000000  0.50000000  1
  Si  Si0  1  0.50000000  0.50000000  0.25015000  1
  Si  Si1  1  0.50000000  0.50000000  0.74985000  1
  O  O0  1  0.50000000  0.00000000  0.25887800  1
  O  O1  1  0.50000000  0.00000000  0.74112200  1
  O  O2  1  0.00000000  0.50000000  0.25887800  1
  O  O3  1  0.00000000  0.50000000  0.74112200  1
  O  O4  1  0.50000000  0.50000000  0.50000000  1
loop_
_geom_bond_atom_site_label_1
_geom_bond_atom_site_label_2
_geom_bond_distance
_geom_bond_site_symmetry_2
La0 O0 2.739912 1_555
La0 O0 2.739912 1_455
La0 O2 2.739912 1_555
La0 O2 2.739912 1_545
La0 O3 2.739912 1_554
La0 O3 2.739912 1_544
La0 O1 2.739912 1_554
La0 O1 2.739912 1_454
La1 O3 2.651175 1_545
La1 O3 2.651175 1_555
La1 O1 2.651175 1_555
La1 O1 2.651175 1_455
La1 O0 2.651175 1_555
La1 O2 2.651175 1_545
La1 O2 2.651175 1_555
La1 O0 2.651175 1_455
La1 O4 2.791380 1_455
La1 O4 2.791380 1_555
La1 O4 2.791380 1_445
La1 O4 2.791380 1_545
O0 Si0 1.974843 1_555
O0 Si0 1.974843 1_545
O1 Si1 1.974843 1_555
O1 Si1 1.974843 1_545
O2 Si0 1.974843 1_455
O2 Si0 1.974843 1_555
O3 Si1 1.974843 1_555
O3 Si1 1.974843 1_455
O4 Si0 1.834049 1_555
O4 Si1 1.834049 1_555
