# generated using pymatgen
data_NaHSeO3
_symmetry_space_group_name_H-M   'P 1'
_cell_length_a   11.59820752
_cell_length_b   11.59820752
_cell_length_c   10.51021728
_cell_angle_alpha   74.98081626
_cell_angle_beta   74.98081626
_cell_angle_gamma   29.60163597
_symmetry_Int_Tables_number   1
_chemical_formula_structural   NaHSeO3
_chemical_formula_sum   'Na8 H8 Se8 O24'
_cell_volume   672.82445916
_cell_formula_units_Z   8
loop_
 _symmetry_equiv_pos_site_id
 _symmetry_equiv_pos_as_xyz
  1  'x, y, z'
loop_
 _atom_site_type_symbol
 _atom_site_label
 _atom_site_symmetry_multiplicity
 _atom_site_fract_x
 _atom_site_fract_y
 _atom_site_fract_z
 _atom_site_occupancy
  Na  Na0  1  0.86970300  0.37960500  0.66951300  1
  Na  Na1  1  0.62039500  0.13029700  0.83048700  1
  Na  Na2  1  0.13029700  0.62039500  0.33048700  1
  Na  Na3  1  0.37960500  0.86970300  0.16951300  1
  Na  Na4  1  0.08767900  0.51946700  0.71904800  1
  Na  Na5  1  0.48053300  0.91232100  0.78095200  1
  Na  Na6  1  0.91232100  0.48053300  0.28095200  1
  Na  Na7  1  0.51946700  0.08767900  0.21904800  1
  H  H0  1  0.22801000  0.25590800  0.98005200  1
  H  H1  1  0.74409200  0.77199000  0.51994800  1
  H  H2  1  0.77199000  0.74409200  0.01994800  1
  H  H3  1  0.25590800  0.22801000  0.48005200  1
  H  H4  1  0.68459800  0.33003600  0.59821000  1
  H  H5  1  0.66996400  0.31540200  0.90179000  1
  H  H6  1  0.31540200  0.66996400  0.40179000  1
  H  H7  1  0.33003600  0.68459800  0.09821000  1
  Se  Se0  1  0.20321300  0.72042300  0.62568200  1
  Se  Se1  1  0.27957700  0.79678700  0.87431800  1
  Se  Se2  1  0.79678700  0.27957700  0.37431800  1
  Se  Se3  1  0.72042300  0.20321300  0.12568200  1
  Se  Se4  1  0.91925600  0.39528700  0.96682700  1
  Se  Se5  1  0.60471300  0.08074400  0.53317300  1
  Se  Se6  1  0.08074400  0.60471300  0.03317300  1
  Se  Se7  1  0.39528700  0.91925600  0.46682700  1
  O  O0  1  0.76163800  0.60982400  0.06032800  1
  O  O1  1  0.39017600  0.23836200  0.43967200  1
  O  O2  1  0.23836200  0.39017600  0.93967200  1
  O  O3  1  0.60982400  0.76163800  0.56032800  1
  O  O4  1  0.18976800  0.72019400  0.45364500  1
  O  O5  1  0.27980600  0.81023200  0.04635500  1
  O  O6  1  0.81023200  0.27980600  0.54635500  1
  O  O7  1  0.72019400  0.18976800  0.95364500  1
  O  O8  1  0.89134100  0.50338500  0.81032700  1
  O  O9  1  0.49661500  0.10865900  0.68967300  1
  O  O10  1  0.10865900  0.49661500  0.18967300  1
  O  O11  1  0.50338500  0.89134100  0.31032700  1
  O  O12  1  0.22201600  0.17018200  0.99222000  1
  O  O13  1  0.82981800  0.77798400  0.50778000  1
  O  O14  1  0.77798400  0.82981800  0.00778000  1
  O  O15  1  0.17018200  0.22201600  0.49222000  1
  O  O16  1  0.98952800  0.80569700  0.69719400  1
  O  O17  1  0.19430300  0.01047200  0.80280600  1
  O  O18  1  0.01047200  0.19430300  0.30280600  1
  O  O19  1  0.80569700  0.98952800  0.19719400  1
  O  O20  1  0.45931000  0.42822700  0.66509400  1
  O  O21  1  0.57177300  0.54069000  0.83490600  1
  O  O22  1  0.54069000  0.57177300  0.33490600  1
  O  O23  1  0.42822700  0.45931000  0.16509400  1
loop_
_geom_bond_atom_site_label_1
_geom_bond_atom_site_label_2
_geom_bond_distance
_geom_bond_site_symmetry_2
Na0 O21 2.407507 1_555
Na0 O3 2.442893 1_555
Na0 O17 2.462075 1_655
Na0 O6 2.473601 1_555
Na0 O8 2.496917 1_555
Na0 O15 2.506185 1_655
Na1 O20 2.407507 1_555
Na1 O2 2.442893 1_555
Na1 O16 2.462075 1_545
Na1 O7 2.473601 1_555
Na1 O9 2.496917 1_555
Na1 O14 2.506185 1_546
Na2 O23 2.407507 1_555
Na2 O1 2.442893 1_555
Na2 O19 2.462075 1_455
Na2 O4 2.473601 1_555
Na2 O10 2.496917 1_555
Na2 O13 2.506185 1_455
Na3 O22 2.407507 1_555
Na3 O0 2.442893 1_555
Na3 O18 2.462075 1_565
Na3 O5 2.473601 1_555
Na3 O11 2.496917 1_555
Na3 O12 2.506185 1_564
Na4 O16 2.353293 1_455
Na4 O8 2.377871 1_455
Na4 O9 2.449141 1_555
Na4 O2 2.533909 1_555
Na4 O13 2.694918 1_455
Na5 O17 2.353293 1_565
Na5 O9 2.377871 1_565
Na5 O8 2.449141 1_555
Na5 O3 2.533909 1_555
Na5 O12 2.694918 1_565
Na6 O18 2.353293 1_655
Na6 O10 2.377871 1_655
Na6 O11 2.449141 1_555
Na6 O0 2.533909 1_555
Na6 O15 2.694918 1_655
Na7 O19 2.353293 1_545
Na7 O11 2.377871 1_545
Na7 O10 2.449141 1_555
Na7 O1 2.533909 1_555
Na7 O14 2.694918 1_545
H0 O12 1.029294 1_555
H0 O2 1.604932 1_555
H1 O13 1.029294 1_555
H1 O3 1.604932 1_555
H2 O14 1.029294 1_555
H2 O0 1.604932 1_555
H3 O15 1.029294 1_555
H3 O1 1.604932 1_555
H4 O6 1.018053 1_555
H4 O20 1.704943 1_555
H5 O7 1.018053 1_555
H5 O21 1.704943 1_555
H6 O4 1.018053 1_555
H6 O22 1.704943 1_555
H7 O5 1.018053 1_555
H7 O23 1.704943 1_555
O0 Se4 1.710312 1_554
O1 Se5 1.710312 1_555
O2 Se6 1.710312 1_556
O3 Se7 1.710312 1_555
O4 Se0 1.855549 1_555
O5 Se1 1.855549 1_554
O6 Se2 1.855549 1_555
O7 Se3 1.855549 1_556
O8 Se4 1.698099 1_555
O9 Se5 1.698099 1_555
O10 Se6 1.698099 1_555
O11 Se7 1.698099 1_555
O12 Se4 1.843948 1_455
O13 Se5 1.843948 1_565
O14 Se6 1.843948 1_655
O15 Se7 1.843948 1_545
O16 Se0 1.686037 1_655
O17 Se1 1.686037 1_545
O18 Se2 1.686037 1_455
O19 Se3 1.686037 1_565
O20 Se0 1.698419 1_555
O21 Se1 1.698419 1_555
O22 Se2 1.698419 1_555
O23 Se3 1.698419 1_555
