# generated using pymatgen
data_Li9Co7O16
_symmetry_space_group_name_H-M   'P 1'
_cell_length_a   4.85598167
_cell_length_b   5.65477427
_cell_length_c   9.73929776
_cell_angle_alpha   89.33676523
_cell_angle_beta   99.52640282
_cell_angle_gamma   106.64988519
_symmetry_Int_Tables_number   1
_chemical_formula_structural   Li9Co7O16
_chemical_formula_sum   'Li9 Co7 O16'
_cell_volume   252.50802659
_cell_formula_units_Z   1
loop_
 _symmetry_equiv_pos_site_id
 _symmetry_equiv_pos_as_xyz
  1  'x, y, z'
loop_
 _atom_site_type_symbol
 _atom_site_label
 _atom_site_symmetry_multiplicity
 _atom_site_fract_x
 _atom_site_fract_y
 _atom_site_fract_z
 _atom_site_occupancy
  Li  Li0  1  0.00081058  0.62601605  0.37397544  1
  Li  Li1  1  0.50120149  0.25482987  0.75672232  1
  Li  Li2  1  0.99918942  0.37398395  0.62602456  1
  Li  Li3  1  0.50000000  0.00000000  0.00000000  1
  Li  Li4  1  0.01108560  0.13179759  0.87827295  1
  Li  Li5  1  0.49879851  0.74517013  0.24327768  1
  Li  Li6  1  0.98891440  0.86820241  0.12172705  1
  Li  Li7  1  0.50000000  0.50000000  0.50000000  1
  Li  Li8  1  0.50000000  0.50000000  0.00000000  1
  Co  Co0  1  0.00047371  0.37714101  0.12243480  1
  Co  Co1  1  0.99952629  0.62285899  0.87756520  1
  Co  Co2  1  0.50000000  0.00000000  0.50000000  1
  Co  Co3  1  0.49915367  0.25290320  0.24637010  1
  Co  Co4  1  0.00010404  0.87464985  0.62576213  1
  Co  Co5  1  0.99989596  0.12535015  0.37423787  1
  Co  Co6  1  0.50084633  0.74709680  0.75362990  1
  O  O0  1  0.75360611  0.53555176  0.19008639  1
  O  O1  1  0.23889730  0.16432122  0.55442242  1
  O  O2  1  0.73873221  0.28883161  0.42900665  1
  O  O3  1  0.24246280  0.91507674  0.80607605  1
  O  O4  1  0.73783273  0.03666640  0.67910843  1
  O  O5  1  0.22018905  0.66991989  0.05685725  1
  O  O6  1  0.75397650  0.80246406  0.92147965  1
  O  O7  1  0.24170291  0.41645304  0.30436108  1
  O  O8  1  0.26126779  0.71116839  0.57099335  1
  O  O9  1  0.77981095  0.33008011  0.94314275  1
  O  O10  1  0.24639389  0.46444824  0.80991361  1
  O  O11  1  0.75753720  0.08492326  0.19392395  1
  O  O12  1  0.24602350  0.19753594  0.07852035  1
  O  O13  1  0.76110270  0.83567878  0.44557758  1
  O  O14  1  0.26216727  0.96333360  0.32089157  1
  O  O15  1  0.75829709  0.58354696  0.69563892  1
loop_
_geom_bond_atom_site_label_1
_geom_bond_atom_site_label_2
_geom_bond_distance
_geom_bond_site_symmetry_2
Li0 O0 1.966695 1_455
Li0 O7 2.075528 1_555
Li0 O14 2.079304 1_555
Li0 O13 2.079792 1_455
Li0 O2 2.086622 1_455
Li0 O8 2.093434 1_555
Li1 O9 2.045190 1_555
Li1 O15 2.063533 1_555
Li1 O10 2.066709 1_555
Li1 O3 2.072687 1_545
Li1 O4 2.129585 1_555
Li1 O1 2.141348 1_555
Li2 O10 1.966695 1_655
Li2 O15 2.075528 1_555
Li2 O4 2.079304 1_555
Li2 O1 2.079792 1_655
Li2 O8 2.086622 1_655
Li2 O2 2.093434 1_555
Li3 O11 2.063189 1_555
Li3 O3 2.063189 1_544
Li3 O9 2.099661 1_554
Li3 O5 2.099661 1_545
Li3 O6 2.115420 1_544
Li3 O12 2.115420 1_555
Li4 O9 1.972428 1_455
Li4 O6 2.006843 1_445
Li4 O10 2.068435 1_555
Li4 O12 2.068953 1_556
Li4 O3 2.080668 1_545
Li4 O4 2.139104 1_455
Li5 O5 2.045190 1_555
Li5 O7 2.063533 1_555
Li5 O0 2.066709 1_555
Li5 O11 2.072687 1_565
Li5 O14 2.129585 1_555
Li5 O13 2.141348 1_555
Li6 O5 1.972428 1_655
Li6 O12 2.006843 1_665
Li6 O0 2.068435 1_555
Li6 O6 2.068953 1_554
Li6 O11 2.080668 1_565
Li6 O14 2.139104 1_655
Li7 O13 2.076449 1_555
Li7 O1 2.076449 1_555
Li7 O7 2.077770 1_555
Li7 O15 2.077770 1_555
Li7 O2 2.079807 1_555
Li7 O8 2.079807 1_555
Li8 O9 2.021294 1_554
Li8 O5 2.021294 1_555
Li8 O10 2.023969 1_554
Li8 O0 2.023969 1_555
Li8 O6 2.025915 1_554
Li8 O12 2.025915 1_555
Co0 O5 1.864432 1_555
Co0 O9 1.869801 1_454
Co0 O12 1.873241 1_555
Co0 O0 1.887880 1_455
Co0 O7 1.932327 1_555
Co0 O11 1.932649 1_455
Co1 O9 1.864432 1_555
Co1 O5 1.869801 1_656
Co1 O6 1.873241 1_555
Co1 O10 1.887880 1_655
Co1 O15 1.932327 1_555
Co1 O3 1.932649 1_655
Co2 O14 1.903684 1_545
Co2 O4 1.903684 1_555
Co2 O2 1.908861 1_555
Co2 O8 1.908861 1_545
Co2 O13 1.913354 1_545
Co2 O1 1.913354 1_555
Co3 O12 1.845943 1_555
Co3 O0 1.858505 1_555
Co3 O11 1.908880 1_555
Co3 O7 1.909352 1_555
Co3 O14 1.923921 1_545
Co3 O2 1.935628 1_555
Co4 O4 1.905256 1_465
Co4 O8 1.911714 1_555
Co4 O1 1.913733 1_565
Co4 O13 1.913985 1_455
Co4 O15 1.919003 1_455
Co4 O3 1.921545 1_555
Co5 O14 1.905256 1_645
Co5 O2 1.911714 1_555
Co5 O13 1.913733 1_545
Co5 O1 1.913985 1_655
Co5 O7 1.919003 1_655
Co5 O11 1.921545 1_555
Co6 O6 1.845943 1_555
Co6 O10 1.858505 1_555
Co6 O3 1.908880 1_555
Co6 O15 1.909352 1_555
Co6 O4 1.923921 1_565
Co6 O8 1.935628 1_555
