# generated using pymatgen
data_NbFeB
_symmetry_space_group_name_H-M   'P 1'
_cell_length_a   2.84204600
_cell_length_b   6.78917970
_cell_length_c   6.81876575
_cell_angle_alpha   119.85656732
_cell_angle_beta   90.00000000
_cell_angle_gamma   90.00000000
_symmetry_Int_Tables_number   1
_chemical_formula_structural   NbFeB
_chemical_formula_sum   'Nb3 Fe3 B3'
_cell_volume   114.10658092
_cell_formula_units_Z   3
loop_
 _symmetry_equiv_pos_site_id
 _symmetry_equiv_pos_as_xyz
  1  'x, y, z'
loop_
 _atom_site_type_symbol
 _atom_site_label
 _atom_site_symmetry_multiplicity
 _atom_site_fract_x
 _atom_site_fract_y
 _atom_site_fract_z
 _atom_site_occupancy
  Nb  Nb0  1  0.00000000  0.56316000  0.00000000  1
  Nb  Nb1  1  0.00000000  0.43661000  0.43484700  1
  Nb  Nb2  1  0.00000000  0.00176300  0.56515300  1
  Fe  Fe0  1  0.00000000  0.20825600  0.00000000  1
  Fe  Fe1  1  0.00000000  0.78935000  0.79123100  1
  Fe  Fe2  1  0.00000000  0.99811800  0.20876900  1
  B  B0  1  0.50000000  0.33484700  0.66663100  1
  B  B1  1  0.50000000  0.66821600  0.33336900  1
  B  B2  1  0.50000000  0.99958100  0.00000000  1
loop_
_geom_bond_atom_site_label_1
_geom_bond_atom_site_label_2
_geom_bond_distance
_geom_bond_site_symmetry_2
Fe0 Nb0 2.409507 1_555
Fe0 Nb2 2.572643 1_554
Fe0 Nb1 2.572643 1_555
Fe1 Nb1 2.417878 1_555
Fe1 Nb0 2.561497 1_556
Fe1 Nb2 2.582557 1_565
Fe2 Nb2 2.417875 1_565
Fe2 Nb0 2.561491 1_555
Fe2 Nb1 2.582563 1_565
B0 Nb2 2.460470 1_555
B0 Nb2 2.460470 1_655
B0 Nb0 2.465972 1_556
B0 Nb0 2.465972 1_656
B0 Nb1 2.466120 1_555
B0 Nb1 2.466120 1_655
B1 Nb1 2.460470 1_555
B1 Nb1 2.460470 1_655
B1 Nb0 2.465972 1_555
B1 Nb0 2.465972 1_655
B1 Nb2 2.466120 1_665
B1 Nb2 2.466120 1_565
B2 Fe0 2.006598 1_665
B2 Fe0 2.006598 1_565
B2 Fe1 2.014934 1_654
B2 Fe1 2.014934 1_554
B2 Fe2 2.014936 1_555
B2 Fe2 2.014936 1_655
