# generated using pymatgen
data_Er2VFeO6
_symmetry_space_group_name_H-M   'P 1'
_cell_length_a   5.61371400
_cell_length_b   5.23141400
_cell_length_c   9.13638642
_cell_angle_alpha   55.61403562
_cell_angle_beta   90.00000000
_cell_angle_gamma   90.00000000
_symmetry_Int_Tables_number   1
_chemical_formula_structural   Er2VFeO6
_chemical_formula_sum   'Er4 V2 Fe2 O12'
_cell_volume   221.42688539
_cell_formula_units_Z   2
loop_
 _symmetry_equiv_pos_site_id
 _symmetry_equiv_pos_as_xyz
  1  'x, y, z'
loop_
 _atom_site_type_symbol
 _atom_site_label
 _atom_site_symmetry_multiplicity
 _atom_site_fract_x
 _atom_site_fract_y
 _atom_site_fract_z
 _atom_site_occupancy
  Er  Er0  1  0.92677900  0.22640100  0.75197800  1
  Er  Er1  1  0.42677900  0.77359900  0.74802200  1
  Er  Er2  1  0.07322100  0.77359900  0.24802200  1
  Er  Er3  1  0.57322100  0.22640100  0.25197800  1
  V  V0  1  0.50000000  0.00000000  0.00000000  1
  V  V1  1  0.00000000  0.00000000  0.50000000  1
  Fe  Fe0  1  0.50000000  0.50000000  0.50000000  1
  Fe  Fe1  1  0.00000000  0.50000000  0.00000000  1
  O  O0  1  0.54157500  0.36805400  0.74657300  1
  O  O1  1  0.04157500  0.63194600  0.75342700  1
  O  O2  1  0.45842500  0.63194600  0.25342700  1
  O  O3  1  0.95842500  0.36805400  0.24657300  1
  O  O4  1  0.68923500  0.13493900  0.55724800  1
  O  O5  1  0.18923500  0.86506100  0.94275200  1
  O  O6  1  0.30632000  0.25766100  0.05646100  1
  O  O7  1  0.80632000  0.74233900  0.44353900  1
  O  O8  1  0.31076500  0.86506100  0.44275200  1
  O  O9  1  0.81076500  0.13493900  0.05724800  1
  O  O10  1  0.69368000  0.74233900  0.94353900  1
  O  O11  1  0.19368000  0.25766100  0.55646100  1
loop_
_geom_bond_atom_site_label_1
_geom_bond_atom_site_label_2
_geom_bond_distance
_geom_bond_site_symmetry_2
Er0 O1 2.224470 1_655
Er0 O5 2.249555 1_645
Er0 O11 2.265532 1_655
Er0 O0 2.277353 1_555
Er0 O4 2.476692 1_555
Er0 O10 2.486365 1_545
Er0 O9 2.631466 1_556
Er0 O7 2.663134 1_555
Er1 O0 2.224470 1_555
Er1 O4 2.249555 1_565
Er1 O10 2.265532 1_555
Er1 O1 2.277353 1_555
Er1 O5 2.476692 1_555
Er1 O11 2.486365 1_565
Er1 O8 2.631466 1_555
Er1 O6 2.663134 1_556
Er2 O3 2.224470 1_455
Er2 O9 2.249555 1_465
Er2 O7 2.265532 1_455
Er2 O2 2.277353 1_555
Er2 O8 2.476692 1_555
Er2 O6 2.486365 1_565
Er2 O5 2.631466 1_554
Er2 O11 2.663134 1_555
Er3 O2 2.224470 1_555
Er3 O8 2.249555 1_545
Er3 O6 2.265532 1_555
Er3 O3 2.277353 1_555
Er3 O9 2.476692 1_555
Er3 O7 2.486365 1_545
Er3 O4 2.631466 1_555
Er3 O10 2.663134 1_554
Fe0 O2 1.962025 1_555
Fe0 O0 1.962025 1_555
Fe0 O8 1.980170 1_555
Fe0 O4 1.980170 1_555
Fe0 O7 2.022786 1_555
Fe0 O11 2.022786 1_555
Fe1 O3 1.962025 1_455
Fe1 O1 1.962025 1_554
Fe1 O5 1.980170 1_554
Fe1 O9 1.980170 1_455
Fe1 O10 2.022786 1_454
Fe1 O6 2.022786 1_555
O0 V0 2.021697 1_556
O1 V1 2.021697 1_565
O2 V0 2.021697 1_565
O3 V1 2.021697 1_655
O4 V1 2.057277 1_655
O5 V0 2.057277 1_566
O6 V0 2.012600 1_555
O7 V1 2.012600 1_665
O8 V1 2.057277 1_565
O9 V0 2.057277 1_555
O10 V0 2.012600 1_566
O11 V1 2.012600 1_555
