# generated using pymatgen
data_Ca2Mg
_symmetry_space_group_name_H-M   'P 1'
_cell_length_a   7.47271783
_cell_length_b   7.47271783
_cell_length_c   35.98370000
_cell_angle_alpha   90.00000000
_cell_angle_beta   90.00000000
_cell_angle_gamma   120.00001617
_symmetry_Int_Tables_number   1
_chemical_formula_structural   Ca2Mg
_chemical_formula_sum   'Ca32 Mg16'
_cell_volume   1740.17748392
_cell_formula_units_Z   16
loop_
 _symmetry_equiv_pos_site_id
 _symmetry_equiv_pos_as_xyz
  1  'x, y, z'
loop_
 _atom_site_type_symbol
 _atom_site_label
 _atom_site_symmetry_multiplicity
 _atom_site_fract_x
 _atom_site_fract_y
 _atom_site_fract_z
 _atom_site_occupancy
  Ca  Ca0_0  1  0.16666650  0.33333350  0.45412600  1
  Ca  Ca0_1  1  0.16666650  0.33333350  0.95412600  1
  Ca  Ca0_2  1  0.16666650  0.83333350  0.45412600  1
  Ca  Ca0_3  1  0.16666650  0.83333350  0.95412600  1
  Ca  Ca0_4  1  0.66666650  0.33333350  0.45412600  1
  Ca  Ca0_5  1  0.66666650  0.33333350  0.95412600  1
  Ca  Ca0_6  1  0.66666650  0.83333350  0.45412600  1
  Ca  Ca0_7  1  0.66666650  0.83333350  0.95412600  1
  Ca  Ca1_0  1  0.33333350  0.16666650  0.36259350  1
  Ca  Ca1_1  1  0.33333350  0.16666650  0.86259350  1
  Ca  Ca1_2  1  0.33333350  0.66666650  0.36259350  1
  Ca  Ca1_3  1  0.33333350  0.66666650  0.86259350  1
  Ca  Ca1_4  1  0.83333350  0.16666650  0.36259350  1
  Ca  Ca1_5  1  0.83333350  0.16666650  0.86259350  1
  Ca  Ca1_6  1  0.83333350  0.66666650  0.36259350  1
  Ca  Ca1_7  1  0.83333350  0.66666650  0.86259350  1
  Ca  Ca2_0  1  0.16666650  0.33333350  0.13740650  1
  Ca  Ca2_1  1  0.16666650  0.33333350  0.63740650  1
  Ca  Ca2_2  1  0.16666650  0.83333350  0.13740650  1
  Ca  Ca2_3  1  0.16666650  0.83333350  0.63740650  1
  Ca  Ca2_4  1  0.66666650  0.33333350  0.13740650  1
  Ca  Ca2_5  1  0.66666650  0.33333350  0.63740650  1
  Ca  Ca2_6  1  0.66666650  0.83333350  0.13740650  1
  Ca  Ca2_7  1  0.66666650  0.83333350  0.63740650  1
  Ca  Ca3_0  1  0.33333350  0.16666650  0.04587400  1
  Ca  Ca3_1  1  0.33333350  0.16666650  0.54587400  1
  Ca  Ca3_2  1  0.33333350  0.66666650  0.04587400  1
  Ca  Ca3_3  1  0.33333350  0.66666650  0.54587400  1
  Ca  Ca3_4  1  0.83333350  0.16666650  0.04587400  1
  Ca  Ca3_5  1  0.83333350  0.16666650  0.54587400  1
  Ca  Ca3_6  1  0.83333350  0.66666650  0.04587400  1
  Ca  Ca3_7  1  0.83333350  0.66666650  0.54587400  1
  Mg  Mg0_0  1  0.16666650  0.33333350  0.28514900  1
  Mg  Mg0_1  1  0.16666650  0.33333350  0.78514900  1
  Mg  Mg0_2  1  0.16666650  0.83333350  0.28514900  1
  Mg  Mg0_3  1  0.16666650  0.83333350  0.78514900  1
  Mg  Mg0_4  1  0.66666650  0.33333350  0.28514900  1
  Mg  Mg0_5  1  0.66666650  0.33333350  0.78514900  1
  Mg  Mg0_6  1  0.66666650  0.83333350  0.28514900  1
  Mg  Mg0_7  1  0.66666650  0.83333350  0.78514900  1
  Mg  Mg1_0  1  0.33333350  0.16666650  0.21485100  1
  Mg  Mg1_1  1  0.33333350  0.16666650  0.71485100  1
  Mg  Mg1_2  1  0.33333350  0.66666650  0.21485100  1
  Mg  Mg1_3  1  0.33333350  0.66666650  0.71485100  1
  Mg  Mg1_4  1  0.83333350  0.16666650  0.21485100  1
  Mg  Mg1_5  1  0.83333350  0.16666650  0.71485100  1
  Mg  Mg1_6  1  0.83333350  0.66666650  0.21485100  1
  Mg  Mg1_7  1  0.83333350  0.66666650  0.71485100  1
loop_
_geom_bond_atom_site_label_1
_geom_bond_atom_site_label_2
_geom_bond_distance
_geom_bond_site_symmetry_2
Ca0_0 Ca0_6 3.736358 1_555
Ca0_0 Ca0_6 3.736358 1_445
Ca0_0 Ca0_2 3.736359 1_555
Ca0_0 Ca0_4 3.736359 1_455
Ca0_0 Ca0_2 3.736359 1_545
Ca0_0 Ca0_4 3.736359 1_555
Ca0_0 Ca1_2 3.937228 1_555
Ca0_0 Ca1_4 3.937228 1_455
Ca0_0 Ca1_0 3.937232 1_555
Ca0_0 Ca3_3 3.943717 1_555
Ca0_0 Ca3_5 3.943717 1_455
Ca0_0 Ca3_1 3.943721 1_555
Ca0_1 Ca0_7 3.736358 1_555
Ca0_1 Ca0_7 3.736358 1_445
Ca0_1 Ca0_3 3.736359 1_555
Ca0_1 Ca0_5 3.736359 1_455
Ca0_1 Ca0_5 3.736359 1_555
Ca0_1 Ca0_3 3.736359 1_545
Ca0_1 Ca1_5 3.937228 1_455
Ca0_1 Ca1_3 3.937228 1_555
Ca0_1 Ca1_1 3.937232 1_555
Ca0_1 Ca3_4 3.943717 1_456
Ca0_1 Ca3_2 3.943717 1_556
Ca0_1 Ca3_0 3.943721 1_556
Ca0_2 Ca0_4 3.736358 1_565
Ca0_2 Ca0_4 3.736358 1_455
Ca0_2 Ca0_6 3.736359 1_455
Ca0_2 Ca0_6 3.736359 1_555
Ca0_2 Ca1_0 3.937228 1_565
Ca0_2 Ca1_6 3.937228 1_455
Ca0_2 Ca1_2 3.937232 1_555
Ca0_2 Ca3_1 3.943717 1_565
Ca0_2 Ca3_7 3.943717 1_455
Ca0_2 Ca3_3 3.943721 1_555
Ca0_3 Ca0_5 3.736358 1_565
Ca0_3 Ca0_5 3.736358 1_455
Ca0_3 Ca0_7 3.736359 1_455
Ca0_3 Ca0_7 3.736359 1_555
Ca0_3 Ca1_1 3.937228 1_565
Ca0_3 Ca1_7 3.937228 1_455
Ca0_3 Ca1_3 3.937232 1_555
Ca0_3 Ca3_0 3.943717 1_566
Ca0_3 Ca3_6 3.943717 1_456
Ca0_3 Ca3_2 3.943721 1_556
Ca0_4 Ca0_6 3.736359 1_555
Ca0_4 Ca0_6 3.736359 1_545
Ca0_4 Ca1_0 3.937228 1_555
Ca0_4 Ca1_6 3.937228 1_555
Ca0_4 Ca1_4 3.937232 1_555
Ca0_4 Ca3_7 3.943717 1_555
Ca0_4 Ca3_1 3.943717 1_555
Ca0_4 Ca3_5 3.943721 1_555
Ca0_5 Ca0_7 3.736359 1_555
Ca0_5 Ca0_7 3.736359 1_545
Ca0_5 Ca1_7 3.937228 1_555
Ca0_5 Ca1_1 3.937228 1_555
Ca0_5 Ca1_5 3.937232 1_555
Ca0_5 Ca3_0 3.943717 1_556
Ca0_5 Ca3_6 3.943717 1_556
Ca0_5 Ca3_4 3.943721 1_556
Ca0_6 Ca1_2 3.937228 1_555
Ca0_6 Ca1_4 3.937228 1_565
Ca0_6 Ca1_6 3.937232 1_555
Ca0_6 Ca3_3 3.943717 1_555
Ca0_6 Ca3_5 3.943717 1_565
Ca0_6 Ca3_7 3.943721 1_555
Ca0_7 Ca1_3 3.937228 1_555
Ca0_7 Ca1_5 3.937228 1_565
Ca0_7 Ca1_7 3.937232 1_555
Ca0_7 Ca3_2 3.943717 1_556
Ca0_7 Ca3_4 3.943717 1_566
Ca0_7 Ca3_6 3.943721 1_556
Ca1_0 Mg0_4 3.524112 1_555
Ca1_0 Mg0_2 3.524112 1_545
Ca1_0 Mg0_0 3.524116 1_555
Ca1_0 Ca1_6 3.736358 1_555
Ca1_0 Ca1_6 3.736358 1_445
Ca1_0 Ca1_2 3.736359 1_555
Ca1_0 Ca1_4 3.736359 1_455
Ca1_0 Ca1_4 3.736359 1_555
Ca1_0 Ca1_2 3.736359 1_545
Ca1_1 Mg0_5 3.524112 1_555
Ca1_1 Mg0_3 3.524112 1_545
Ca1_1 Mg0_1 3.524116 1_555
Ca1_1 Ca1_7 3.736358 1_555
Ca1_1 Ca1_7 3.736358 1_445
Ca1_1 Ca1_3 3.736359 1_555
Ca1_1 Ca1_5 3.736359 1_455
Ca1_1 Ca1_5 3.736359 1_555
Ca1_1 Ca1_3 3.736359 1_545
Ca1_2 Mg0_6 3.524112 1_555
Ca1_2 Mg0_0 3.524112 1_555
Ca1_2 Mg0_2 3.524116 1_555
Ca1_2 Ca1_4 3.736358 1_565
Ca1_2 Ca1_4 3.736358 1_455
Ca1_2 Ca1_6 3.736359 1_555
Ca1_2 Ca1_6 3.736359 1_455
Ca1_3 Mg0_7 3.524112 1_555
Ca1_3 Mg0_1 3.524112 1_555
Ca1_3 Mg0_3 3.524116 1_555
Ca1_3 Ca1_5 3.736358 1_565
Ca1_3 Ca1_5 3.736358 1_455
Ca1_3 Ca1_7 3.736359 1_555
Ca1_3 Ca1_7 3.736359 1_455
Ca1_4 Mg0_0 3.524112 1_655
Ca1_4 Mg0_6 3.524112 1_545
Ca1_4 Mg0_4 3.524116 1_555
Ca1_4 Ca1_6 3.736359 1_545
Ca1_4 Ca1_6 3.736359 1_555
Ca1_5 Mg0_1 3.524112 1_655
Ca1_5 Mg0_7 3.524112 1_545
Ca1_5 Mg0_5 3.524116 1_555
Ca1_5 Ca1_7 3.736359 1_555
Ca1_5 Ca1_7 3.736359 1_545
Ca1_6 Mg0_4 3.524112 1_555
Ca1_6 Mg0_2 3.524112 1_655
Ca1_6 Mg0_6 3.524116 1_555
Ca1_7 Mg0_5 3.524112 1_555
Ca1_7 Mg0_3 3.524112 1_655
Ca1_7 Mg0_7 3.524116 1_555
Ca2_0 Mg1_4 3.524112 1_455
Ca2_0 Mg1_2 3.524112 1_555
Ca2_0 Mg1_0 3.524116 1_555
Ca2_0 Ca2_6 3.736358 1_555
Ca2_0 Ca2_6 3.736358 1_445
Ca2_0 Ca2_2 3.736359 1_555
Ca2_0 Ca2_4 3.736359 1_455
Ca2_0 Ca2_2 3.736359 1_545
Ca2_0 Ca2_4 3.736359 1_555
Ca2_0 Ca3_4 3.937228 1_455
Ca2_0 Ca3_2 3.937228 1_555
Ca2_0 Ca3_0 3.937232 1_555
Ca2_1 Mg1_5 3.524112 1_455
Ca2_1 Mg1_3 3.524112 1_555
Ca2_1 Mg1_1 3.524116 1_555
Ca2_1 Ca2_7 3.736358 1_555
Ca2_1 Ca2_7 3.736358 1_445
Ca2_1 Ca2_3 3.736359 1_555
Ca2_1 Ca2_5 3.736359 1_455
Ca2_1 Ca2_5 3.736359 1_555
Ca2_1 Ca2_3 3.736359 1_545
Ca2_1 Ca3_5 3.937228 1_455
Ca2_1 Ca3_3 3.937228 1_555
Ca2_1 Ca3_1 3.937232 1_555
Ca2_2 Mg1_0 3.524112 1_565
Ca2_2 Mg1_6 3.524112 1_455
Ca2_2 Mg1_2 3.524116 1_555
Ca2_2 Ca2_4 3.736358 1_565
Ca2_2 Ca2_4 3.736358 1_455
Ca2_2 Ca2_6 3.736359 1_455
Ca2_2 Ca2_6 3.736359 1_555
Ca2_2 Ca3_0 3.937228 1_565
Ca2_2 Ca3_6 3.937228 1_455
Ca2_2 Ca3_2 3.937232 1_555
Ca2_3 Mg1_1 3.524112 1_565
Ca2_3 Mg1_7 3.524112 1_455
Ca2_3 Mg1_3 3.524116 1_555
Ca2_3 Ca2_5 3.736358 1_565
Ca2_3 Ca2_5 3.736358 1_455
Ca2_3 Ca2_7 3.736359 1_455
Ca2_3 Ca2_7 3.736359 1_555
Ca2_3 Ca3_1 3.937228 1_565
Ca2_3 Ca3_7 3.937228 1_455
Ca2_3 Ca3_3 3.937232 1_555
Ca2_4 Mg1_6 3.524112 1_555
Ca2_4 Mg1_0 3.524112 1_555
Ca2_4 Mg1_4 3.524116 1_555
Ca2_4 Ca2_6 3.736359 1_555
Ca2_4 Ca2_6 3.736359 1_545
Ca2_4 Ca3_6 3.937228 1_555
Ca2_4 Ca3_0 3.937228 1_555
Ca2_4 Ca3_4 3.937232 1_555
Ca2_5 Mg1_7 3.524112 1_555
Ca2_5 Mg1_1 3.524112 1_555
Ca2_5 Mg1_5 3.524116 1_555
Ca2_5 Ca2_7 3.736359 1_555
Ca2_5 Ca2_7 3.736359 1_545
Ca2_5 Ca3_1 3.937228 1_555
Ca2_5 Ca3_7 3.937228 1_555
Ca2_5 Ca3_5 3.937232 1_555
Ca2_6 Mg1_2 3.524112 1_555
Ca2_6 Mg1_4 3.524112 1_565
Ca2_6 Mg1_6 3.524116 1_555
Ca2_6 Ca3_2 3.937228 1_555
Ca2_6 Ca3_4 3.937228 1_565
Ca2_6 Ca3_6 3.937232 1_555
Ca2_7 Mg1_3 3.524112 1_555
Ca2_7 Mg1_5 3.524112 1_565
Ca2_7 Mg1_7 3.524116 1_555
Ca2_7 Ca3_3 3.937228 1_555
Ca2_7 Ca3_5 3.937228 1_565
Ca2_7 Ca3_7 3.937232 1_555
Ca3_0 Ca3_6 3.736358 1_555
Ca3_0 Ca3_6 3.736358 1_445
Ca3_0 Ca3_2 3.736359 1_555
Ca3_0 Ca3_4 3.736359 1_455
Ca3_0 Ca3_4 3.736359 1_555
Ca3_0 Ca3_2 3.736359 1_545
Ca3_1 Ca3_7 3.736358 1_555
Ca3_1 Ca3_7 3.736358 1_445
Ca3_1 Ca3_3 3.736359 1_555
Ca3_1 Ca3_5 3.736359 1_455
Ca3_1 Ca3_5 3.736359 1_555
Ca3_1 Ca3_3 3.736359 1_545
Ca3_2 Ca3_4 3.736358 1_565
Ca3_2 Ca3_4 3.736358 1_455
Ca3_2 Ca3_6 3.736359 1_555
Ca3_2 Ca3_6 3.736359 1_455
Ca3_3 Ca3_5 3.736358 1_565
Ca3_3 Ca3_5 3.736358 1_455
Ca3_3 Ca3_7 3.736359 1_555
Ca3_3 Ca3_7 3.736359 1_455
Ca3_4 Ca3_6 3.736359 1_555
Ca3_4 Ca3_6 3.736359 1_545
Ca3_5 Ca3_7 3.736359 1_545
Ca3_5 Ca3_7 3.736359 1_555
Mg0_0 Mg1_4 3.324490 1_455
Mg0_0 Mg1_2 3.324490 1_555
Mg0_0 Mg1_0 3.324495 1_555
Mg0_1 Mg1_3 3.324490 1_555
Mg0_1 Mg1_5 3.324490 1_455
Mg0_1 Mg1_1 3.324495 1_555
Mg0_2 Mg1_0 3.324490 1_565
Mg0_2 Mg1_6 3.324490 1_455
Mg0_2 Mg1_2 3.324495 1_555
Mg0_3 Mg1_1 3.324490 1_565
Mg0_3 Mg1_7 3.324490 1_455
Mg0_3 Mg1_3 3.324495 1_555
Mg0_4 Mg1_6 3.324490 1_555
Mg0_4 Mg1_0 3.324490 1_555
Mg0_4 Mg1_4 3.324495 1_555
Mg0_5 Mg1_7 3.324490 1_555
Mg0_5 Mg1_1 3.324490 1_555
Mg0_5 Mg1_5 3.324495 1_555
Mg0_6 Mg1_2 3.324490 1_555
Mg0_6 Mg1_4 3.324490 1_565
Mg0_6 Mg1_6 3.324495 1_555
Mg0_7 Mg1_3 3.324490 1_555
Mg0_7 Mg1_5 3.324490 1_565
Mg0_7 Mg1_7 3.324495 1_555
