# generated using pymatgen
data_FeP2NO7
_symmetry_space_group_name_H-M   'P 1'
_cell_length_a   7.78122190
_cell_length_b   8.42127095
_cell_length_c   10.02546200
_cell_angle_alpha   90.00000000
_cell_angle_beta   90.00000000
_cell_angle_gamma   104.52157001
_symmetry_Int_Tables_number   1
_chemical_formula_structural   FeP2NO7
_chemical_formula_sum   'Fe4 P8 N4 O28'
_cell_volume   635.95899053
_cell_formula_units_Z   4
loop_
 _symmetry_equiv_pos_site_id
 _symmetry_equiv_pos_as_xyz
  1  'x, y, z'
loop_
 _atom_site_type_symbol
 _atom_site_label
 _atom_site_symmetry_multiplicity
 _atom_site_fract_x
 _atom_site_fract_y
 _atom_site_fract_z
 _atom_site_occupancy
  Fe  Fe0  1  0.76124900  0.73962100  0.08481900  1
  Fe  Fe1  1  0.23875100  0.76037900  0.58481900  1
  Fe  Fe2  1  0.23875100  0.26037900  0.91518100  1
  Fe  Fe3  1  0.76124900  0.23962100  0.41518100  1
  P  P0  1  0.57405300  0.32014400  0.13454900  1
  P  P1  1  0.42594700  0.17985600  0.63454900  1
  P  P2  1  0.42594700  0.67985600  0.86545100  1
  P  P3  1  0.57405300  0.82014400  0.36545100  1
  P  P4  1  0.86902900  0.16467700  0.10574500  1
  P  P5  1  0.13097100  0.33532300  0.60574500  1
  P  P6  1  0.13097100  0.83532300  0.89425500  1
  P  P7  1  0.86902900  0.66467700  0.39425500  1
  N  N0  1  0.79907500  0.97922300  0.69531300  1
  N  N1  1  0.20092500  0.52077700  0.19531300  1
  N  N2  1  0.20092500  0.02077700  0.30468700  1
  N  N3  1  0.79907500  0.47922300  0.80468700  1
  O  O0  1  0.68985900  0.21248900  0.05859300  1
  O  O1  1  0.31014100  0.28751100  0.55859300  1
  O  O2  1  0.31014100  0.78751100  0.94140700  1
  O  O3  1  0.68985900  0.71248900  0.44140700  1
  O  O4  1  0.61318900  0.73666100  0.92046100  1
  O  O5  1  0.38681100  0.76333900  0.42046100  1
  O  O6  1  0.38681100  0.26333900  0.07953900  1
  O  O7  1  0.61318900  0.23666100  0.57953900  1
  O  O8  1  0.90231600  0.70969100  0.24697000  1
  O  O9  1  0.09768400  0.79030900  0.74697000  1
  O  O10  1  0.09768400  0.29030900  0.75303000  1
  O  O11  1  0.90231600  0.20969100  0.25303000  1
  O  O12  1  0.83808500  0.98287100  0.07803100  1
  O  O13  1  0.16191500  0.51712900  0.57803100  1
  O  O14  1  0.16191500  0.01712900  0.92196900  1
  O  O15  1  0.83808500  0.48287100  0.42196900  1
  O  O16  1  0.97842900  0.73351700  0.97722500  1
  O  O17  1  0.02157100  0.76648300  0.47722500  1
  O  O18  1  0.02157100  0.26648300  0.02277500  1
  O  O19  1  0.97842900  0.23351700  0.52277500  1
  O  O20  1  0.57611600  0.78428400  0.21535000  1
  O  O21  1  0.42388400  0.71571600  0.71535000  1
  O  O22  1  0.42388400  0.21571600  0.78465000  1
  O  O23  1  0.57611600  0.28428400  0.28465000  1
  O  O24  1  0.66028200  0.49875800  0.10173500  1
  O  O25  1  0.33971800  0.00124200  0.60173500  1
  O  O26  1  0.33971800  0.50124200  0.89826500  1
  O  O27  1  0.66028200  0.99875800  0.39826500  1
loop_
_geom_bond_atom_site_label_1
_geom_bond_atom_site_label_2
_geom_bond_distance
_geom_bond_site_symmetry_2
Fe0 O12 1.985987 1_555
Fe0 O24 1.990259 1_555
Fe0 O4 2.007151 1_554
Fe0 O8 2.012427 1_555
Fe0 O16 2.016334 1_554
Fe0 O20 2.049615 1_555
Fe1 O13 1.985987 1_555
Fe1 O25 1.990259 1_565
Fe1 O5 2.007151 1_555
Fe1 O9 2.012427 1_555
Fe1 O17 2.016334 1_555
Fe1 O21 2.049615 1_555
Fe2 O14 1.985987 1_555
Fe2 O26 1.990259 1_555
Fe2 O6 2.007151 1_556
Fe2 O10 2.012427 1_555
Fe2 O18 2.016334 1_556
Fe2 O22 2.049615 1_555
Fe3 O15 1.985987 1_555
Fe3 O27 1.990259 1_545
Fe3 O7 2.007151 1_555
Fe3 O11 2.012427 1_555
Fe3 O19 2.016334 1_555
Fe3 O23 2.049615 1_555
O0 P4 1.615789 1_555
O0 P0 1.619714 1_555
O1 P5 1.615789 1_555
O1 P1 1.619714 1_555
O2 P6 1.615789 1_555
O2 P2 1.619714 1_555
O3 P7 1.615789 1_555
O3 P3 1.619714 1_555
O4 P2 1.518629 1_555
O5 P3 1.518629 1_555
O6 P0 1.518629 1_555
O7 P1 1.518629 1_555
O8 P7 1.530325 1_555
O9 P6 1.530325 1_555
O10 P5 1.530325 1_555
O11 P4 1.530325 1_555
O12 P4 1.514721 1_565
O13 P5 1.514721 1_555
O14 P6 1.514721 1_545
O15 P7 1.514721 1_555
O16 P6 1.524956 1_655
O17 P7 1.524956 1_455
O18 P4 1.524956 1_455
O19 P5 1.524956 1_655
O20 P3 1.535710 1_555
O21 P2 1.535710 1_555
O22 P1 1.535710 1_555
O23 P0 1.535710 1_555
O24 P0 1.521442 1_555
O25 P1 1.521442 1_555
O26 P2 1.521442 1_555
O27 P3 1.521442 1_555
