# generated using pymatgen
data_Te2Mo3WSe6
_symmetry_space_group_name_H-M   'P 1'
_cell_length_a   3.38018245
_cell_length_b   3.38018245
_cell_length_c   38.42492700
_cell_angle_alpha   90.00000000
_cell_angle_beta   90.00000000
_cell_angle_gamma   120.00000879
_symmetry_Int_Tables_number   1
_chemical_formula_structural   Te2Mo3WSe6
_chemical_formula_sum   'Te2 Mo3 W1 Se6'
_cell_volume   380.21034496
_cell_formula_units_Z   1
loop_
 _symmetry_equiv_pos_site_id
 _symmetry_equiv_pos_as_xyz
  1  'x, y, z'
loop_
 _atom_site_type_symbol
 _atom_site_label
 _atom_site_symmetry_multiplicity
 _atom_site_fract_x
 _atom_site_fract_y
 _atom_site_fract_z
 _atom_site_occupancy
  Te  Te0  1  0.66666700  0.33333300  0.04502400  1
  Te  Te1  1  0.66666700  0.33333300  0.14280500  1
  Mo  Mo0  1  0.33333300  0.66666700  0.09389900  1
  Mo  Mo1  1  0.33333300  0.66666700  0.46966200  1
  Mo  Mo2  1  0.66666700  0.33333300  0.28181500  1
  W  W0  1  0.66666700  0.33333300  0.65753400  1
  Se  Se0  1  0.33333300  0.66666700  0.32483800  1
  Se  Se1  1  0.33333300  0.66666700  0.70073100  1
  Se  Se2  1  0.66666700  0.33333300  0.42663300  1
  Se  Se3  1  0.66666700  0.33333300  0.51269300  1
  Se  Se4  1  0.33333300  0.66666700  0.23878100  1
  Se  Se5  1  0.33333300  0.66666700  0.61433400  1
loop_
_geom_bond_atom_site_label_1
_geom_bond_atom_site_label_2
_geom_bond_distance
_geom_bond_site_symmetry_2
Mo0 Te0 2.708411 1_455
Mo0 Te0 2.708411 1_565
Mo0 Te0 2.708415 1_555
Mo0 Te1 2.709237 1_455
Mo0 Te1 2.709237 1_565
Mo0 Te1 2.709241 1_555
Mo1 Se2 2.557777 1_455
Mo1 Se2 2.557777 1_565
Mo1 Se2 2.557781 1_555
Mo1 Se3 2.557826 1_565
Mo1 Se3 2.557826 1_455
Mo1 Se3 2.557831 1_555
Mo2 Se0 2.557628 1_545
Mo2 Se0 2.557628 1_655
Mo2 Se0 2.557632 1_555
Mo2 Se4 2.557901 1_545
Mo2 Se4 2.557901 1_655
Mo2 Se4 2.557906 1_555
Se1 W0 2.561954 1_455
Se1 W0 2.561954 1_565
Se1 W0 2.561959 1_555
Se5 W0 2.562029 1_455
Se5 W0 2.562029 1_565
Se5 W0 2.562034 1_555
