# generated using pymatgen
data_Ca3V2(SiO4)3
_symmetry_space_group_name_H-M   'P 1'
_cell_length_a   10.59066623
_cell_length_b   10.59066623
_cell_length_c   10.59066623
_cell_angle_alpha   109.47122063
_cell_angle_beta   109.47122063
_cell_angle_gamma   109.47122063
_symmetry_Int_Tables_number   1
_chemical_formula_structural   Ca3V2(SiO4)3
_chemical_formula_sum   'Ca12 V8 Si12 O48'
_cell_volume   914.42471002
_cell_formula_units_Z   4
loop_
 _symmetry_equiv_pos_site_id
 _symmetry_equiv_pos_as_xyz
  1  'x, y, z'
loop_
 _atom_site_type_symbol
 _atom_site_label
 _atom_site_symmetry_multiplicity
 _atom_site_fract_x
 _atom_site_fract_y
 _atom_site_fract_z
 _atom_site_occupancy
  Ca  Ca0  1  0.25000000  0.37500000  0.12500000  1
  Ca  Ca1  1  0.75000000  0.12500000  0.37500000  1
  Ca  Ca2  1  0.37500000  0.12500000  0.25000000  1
  Ca  Ca3  1  0.12500000  0.37500000  0.75000000  1
  Ca  Ca4  1  0.25000000  0.87500000  0.62500000  1
  Ca  Ca5  1  0.12500000  0.25000000  0.37500000  1
  Ca  Ca6  1  0.62500000  0.25000000  0.87500000  1
  Ca  Ca7  1  0.75000000  0.62500000  0.87500000  1
  Ca  Ca8  1  0.87500000  0.75000000  0.62500000  1
  Ca  Ca9  1  0.87500000  0.62500000  0.25000000  1
  Ca  Ca10  1  0.62500000  0.87500000  0.75000000  1
  Ca  Ca11  1  0.37500000  0.75000000  0.12500000  1
  V  V0  1  0.50000000  0.00000000  0.00000000  1
  V  V1  1  0.50000000  0.50000000  0.00000000  1
  V  V2  1  0.00000000  0.50000000  0.50000000  1
  V  V3  1  0.00000000  0.00000000  0.50000000  1
  V  V4  1  0.50000000  0.50000000  0.50000000  1
  V  V5  1  0.00000000  0.50000000  0.00000000  1
  V  V6  1  0.50000000  0.00000000  0.50000000  1
  V  V7  1  0.00000000  0.00000000  0.00000000  1
  Si  Si0  1  0.12500000  0.75000000  0.87500000  1
  Si  Si1  1  0.87500000  0.25000000  0.12500000  1
  Si  Si2  1  0.75000000  0.37500000  0.62500000  1
  Si  Si3  1  0.12500000  0.87500000  0.25000000  1
  Si  Si4  1  0.25000000  0.12500000  0.87500000  1
  Si  Si5  1  0.37500000  0.62500000  0.75000000  1
  Si  Si6  1  0.37500000  0.25000000  0.62500000  1
  Si  Si7  1  0.87500000  0.12500000  0.75000000  1
  Si  Si8  1  0.62500000  0.37500000  0.25000000  1
  Si  Si9  1  0.75000000  0.87500000  0.12500000  1
  Si  Si10  1  0.25000000  0.62500000  0.37500000  1
  Si  Si11  1  0.62500000  0.75000000  0.37500000  1
  O  O0  1  0.58781800  0.89210800  0.38357300  1
  O  O1  1  0.38357300  0.58781800  0.89210800  1
  O  O2  1  0.29575500  0.30429100  0.91218200  1
  O  O3  1  0.49146400  0.60789200  0.19570900  1
  O  O4  1  0.30429100  0.89210800  0.00853600  1
  O  O5  1  0.11642700  0.00853600  0.20424500  1
  O  O6  1  0.38357300  0.29575500  0.49146400  1
  O  O7  1  0.89210800  0.38357300  0.58781800  1
  O  O8  1  0.19570900  0.20424500  0.58781800  1
  O  O9  1  0.49146400  0.38357300  0.29575500  1
  O  O10  1  0.89210800  0.00853600  0.30429100  1
  O  O11  1  0.60789200  0.91218200  0.11642700  1
  O  O12  1  0.91218200  0.11642700  0.60789200  1
  O  O13  1  0.29575500  0.49146400  0.38357300  1
  O  O14  1  0.58781800  0.19570900  0.20424500  1
  O  O15  1  0.20424500  0.58781800  0.19570900  1
  O  O16  1  0.00853600  0.30429100  0.89210800  1
  O  O17  1  0.91218200  0.29575500  0.30429100  1
  O  O18  1  0.00853600  0.20424500  0.11642700  1
  O  O19  1  0.80429100  0.79575500  0.41218200  1
  O  O20  1  0.19570900  0.49146400  0.60789200  1
  O  O21  1  0.60789200  0.19570900  0.49146400  1
  O  O22  1  0.20424500  0.11642700  0.00853600  1
  O  O23  1  0.11642700  0.60789200  0.91218200  1
  O  O24  1  0.41218200  0.10789200  0.61642700  1
  O  O25  1  0.61642700  0.41218200  0.10789200  1
  O  O26  1  0.70424500  0.69570900  0.08781800  1
  O  O27  1  0.50853600  0.39210800  0.80429100  1
  O  O28  1  0.69570900  0.10789200  0.99146400  1
  O  O29  1  0.88357300  0.99146400  0.79575500  1
  O  O30  1  0.61642700  0.70424500  0.50853600  1
  O  O31  1  0.10789200  0.61642700  0.41218200  1
  O  O32  1  0.88357300  0.39210800  0.08781800  1
  O  O33  1  0.79575500  0.88357300  0.99146400  1
  O  O34  1  0.39210800  0.80429100  0.50853600  1
  O  O35  1  0.69570900  0.08781800  0.70424500  1
  O  O36  1  0.80429100  0.50853600  0.39210800  1
  O  O37  1  0.99146400  0.79575500  0.88357300  1
  O  O38  1  0.08781800  0.70424500  0.69570900  1
  O  O39  1  0.99146400  0.69570900  0.10789200  1
  O  O40  1  0.79575500  0.41218200  0.80429100  1
  O  O41  1  0.41218200  0.80429100  0.79575500  1
  O  O42  1  0.70424500  0.50853600  0.61642700  1
  O  O43  1  0.08781800  0.88357300  0.39210800  1
  O  O44  1  0.39210800  0.08781800  0.88357300  1
  O  O45  1  0.10789200  0.99146400  0.69570900  1
  O  O46  1  0.50853600  0.61642700  0.70424500  1
  O  O47  1  0.30429100  0.91218200  0.29575500  1
loop_
_geom_bond_atom_site_label_1
_geom_bond_atom_site_label_2
_geom_bond_distance
_geom_bond_site_symmetry_2
Ca0 O13 2.391737 1_555
Ca0 O22 2.391737 1_555
Ca0 O15 2.391737 1_555
Ca0 O2 2.391737 1_554
Ca0 O9 2.543793 1_555
Ca0 O18 2.543793 1_555
Ca0 O3 2.543799 1_555
Ca0 O16 2.543799 1_554
Ca1 O21 2.391728 1_555
Ca1 O10 2.391728 1_555
Ca1 O7 2.391738 1_555
Ca1 O11 2.391738 1_545
Ca1 O17 2.543793 1_555
Ca1 O14 2.543793 1_555
Ca1 O0 2.543801 1_545
Ca1 O12 2.543801 1_555
Ca2 O9 2.391737 1_555
Ca2 O5 2.391737 1_555
Ca2 O14 2.391737 1_555
Ca2 O47 2.391737 1_545
Ca2 O6 2.543793 1_555
Ca2 O22 2.543793 1_555
Ca2 O21 2.543799 1_555
Ca2 O4 2.543799 1_545
Ca3 O20 2.391728 1_555
Ca3 O16 2.391728 1_555
Ca3 O1 2.391738 1_555
Ca3 O12 2.391738 1_455
Ca3 O2 2.543793 1_555
Ca3 O8 2.543793 1_555
Ca3 O7 2.543801 1_455
Ca3 O23 2.543801 1_555
Ca4 O34 2.391728 1_555
Ca4 O45 2.391728 1_555
Ca4 O44 2.391738 1_565
Ca4 O31 2.391738 1_555
Ca4 O38 2.543793 1_555
Ca4 O41 2.543793 1_555
Ca4 O24 2.543801 1_565
Ca4 O43 2.543801 1_555
Ca5 O6 2.391737 1_555
Ca5 O8 2.391737 1_555
Ca5 O18 2.391737 1_555
Ca5 O17 2.391737 1_455
Ca5 O13 2.543793 1_555
Ca5 O5 2.543793 1_555
Ca5 O20 2.543799 1_555
Ca5 O10 2.543799 1_455
Ca6 O27 2.391728 1_555
Ca6 O28 2.391728 1_555
Ca6 O32 2.391738 1_556
Ca6 O24 2.391738 1_555
Ca6 O40 2.543793 1_555
Ca6 O35 2.543793 1_555
Ca6 O25 2.543801 1_556
Ca6 O44 2.543801 1_555
Ca7 O33 2.391737 1_555
Ca7 O26 2.391737 1_556
Ca7 O42 2.391737 1_555
Ca7 O40 2.391737 1_555
Ca7 O37 2.543793 1_555
Ca7 O46 2.543793 1_555
Ca7 O39 2.543799 1_556
Ca7 O27 2.543799 1_555
Ca8 O37 2.391737 1_555
Ca8 O38 2.391737 1_655
Ca8 O19 2.391737 1_555
Ca8 O30 2.391737 1_555
Ca8 O29 2.543793 1_555
Ca8 O42 2.543793 1_555
Ca8 O45 2.543799 1_655
Ca8 O36 2.543799 1_555
Ca9 O36 2.391728 1_555
Ca9 O39 2.391728 1_555
Ca9 O43 2.391738 1_655
Ca9 O25 2.391738 1_555
Ca9 O19 2.543793 1_555
Ca9 O26 2.543793 1_555
Ca9 O31 2.543801 1_655
Ca9 O32 2.543801 1_555
Ca10 O29 2.391737 1_555
Ca10 O35 2.391737 1_565
Ca10 O41 2.391737 1_555
Ca10 O46 2.391737 1_555
Ca10 O33 2.543793 1_555
Ca10 O30 2.543793 1_555
Ca10 O28 2.543799 1_565
Ca10 O34 2.543799 1_555
Ca11 O3 2.391728 1_555
Ca11 O4 2.391728 1_555
Ca11 O0 2.391738 1_555
Ca11 O23 2.391738 1_554
Ca11 O47 2.543793 1_555
Ca11 O15 2.543793 1_555
Ca11 O1 2.543801 1_554
Ca11 O11 2.543801 1_555
O0 Si11 1.660188 1_555
O0 V6 2.055419 1_565
O1 Si5 1.660188 1_555
O1 V1 2.055419 1_556
O2 Si4 1.660199 1_555
O2 V1 2.055414 1_556
O3 Si11 1.660196 1_555
O3 V1 2.055416 1_555
O4 Si0 1.660196 1_554
O4 V0 2.055416 1_565
O5 Si3 1.660199 1_545
O5 V7 2.055414 1_555
O6 Si6 1.660199 1_555
O6 V4 2.055414 1_555
O7 Si2 1.660188 1_555
O7 V2 2.055419 1_655
O8 Si6 1.660199 1_555
O8 V3 2.055414 1_555
O9 Si8 1.660199 1_555
O9 V4 2.055414 1_555
O10 Si9 1.660196 1_545
O10 V3 2.055416 1_655
O11 Si9 1.660188 1_555
O11 V0 2.055419 1_565
O12 Si7 1.660188 1_555
O12 V3 2.055419 1_655
O13 Si10 1.660199 1_555
O13 V4 2.055414 1_555
O14 Si8 1.660199 1_555
O14 V0 2.055414 1_555
O15 Si10 1.660199 1_555
O15 V5 2.055414 1_555
O16 Si7 1.660196 1_455
O16 V5 2.055416 1_556
O17 Si1 1.660199 1_555
O17 V2 2.055414 1_655
O18 Si1 1.660199 1_455
O18 V7 2.055414 1_555
O19 Si11 1.660199 1_555
O19 V3 2.055414 1_665
O20 Si5 1.660196 1_555
O20 V2 2.055416 1_555
O21 Si2 1.660196 1_555
O21 V6 2.055416 1_555
O22 Si4 1.660199 1_554
O22 V7 2.055414 1_555
O23 Si0 1.660188 1_555
O23 V5 2.055419 1_556
O24 Si6 1.660188 1_555
O24 V6 2.055419 1_555
O25 Si8 1.660188 1_555
O25 V1 2.055419 1_555
O26 Si9 1.660199 1_555
O26 V1 2.055414 1_555
O27 Si6 1.660196 1_555
O27 V1 2.055416 1_556
O28 Si1 1.660196 1_556
O28 V0 2.055416 1_556
O29 Si7 1.660199 1_565
O29 V7 2.055414 1_666
O30 Si11 1.660199 1_555
O30 V4 2.055414 1_555
O31 Si10 1.660188 1_555
O31 V2 2.055419 1_555
O32 Si1 1.660188 1_555
O32 V5 2.055419 1_655
O33 Si9 1.660199 1_556
O33 V7 2.055414 1_666
O34 Si10 1.660196 1_555
O34 V6 2.055416 1_565
O35 Si7 1.660199 1_555
O35 V6 2.055414 1_555
O36 Si8 1.660196 1_555
O36 V2 2.055416 1_655
O37 Si0 1.660199 1_655
O37 V7 2.055414 1_666
O38 Si0 1.660199 1_555
O38 V2 2.055414 1_555
O39 Si3 1.660196 1_655
O39 V5 2.055416 1_655
O40 Si2 1.660199 1_555
O40 V5 2.055414 1_656
O41 Si5 1.660199 1_555
O41 V0 2.055414 1_566
O42 Si2 1.660199 1_555
O42 V4 2.055414 1_555
O43 Si3 1.660188 1_555
O43 V3 2.055419 1_565
O44 Si4 1.660188 1_555
O44 V0 2.055419 1_556
O45 Si4 1.660196 1_565
O45 V3 2.055416 1_565
O46 Si5 1.660199 1_555
O46 V4 2.055414 1_555
O47 Si3 1.660199 1_555
O47 V6 2.055414 1_565
