# generated using pymatgen
data_Li9Mn2Co5O16
_symmetry_space_group_name_H-M   'P 1'
_cell_length_a   6.80196237
_cell_length_b   6.80196237
_cell_length_c   15.27897702
_cell_angle_alpha   86.37769714
_cell_angle_beta   86.37769714
_cell_angle_gamma   24.51136875
_symmetry_Int_Tables_number   1
_chemical_formula_structural   Li9Mn2Co5O16
_chemical_formula_sum   'Li9 Mn2 Co5 O16'
_cell_volume   292.66390547
_cell_formula_units_Z   1
loop_
 _symmetry_equiv_pos_site_id
 _symmetry_equiv_pos_as_xyz
  1  'x, y, z'
loop_
 _atom_site_type_symbol
 _atom_site_label
 _atom_site_symmetry_multiplicity
 _atom_site_fract_x
 _atom_site_fract_y
 _atom_site_fract_z
 _atom_site_occupancy
  Li  Li0  1  0.68703700  0.68703700  0.93967900  1
  Li  Li1  1  0.06302700  0.06302700  0.81076300  1
  Li  Li2  1  0.44316300  0.44316300  0.68551000  1
  Li  Li3  1  0.31021000  0.31021000  0.06541000  1
  Li  Li4  1  0.93728900  0.93728900  0.19051400  1
  Li  Li5  1  0.56477500  0.56477500  0.31469900  1
  Li  Li6  1  0.80939300  0.80939300  0.55864200  1
  Li  Li7  1  0.18499200  0.18499200  0.43497100  1
  Li  Li8  1  0.50369500  0.50369500  0.50064500  1
  Mn  Mn0  1  0.00326400  0.00326400  0.00164200  1
  Mn  Mn1  1  0.37093800  0.37093800  0.87220600  1
  Co  Co0  1  0.74503100  0.74503100  0.74488200  1
  Co  Co1  1  0.11240200  0.11240200  0.61906200  1
  Co  Co2  1  0.89107800  0.89107800  0.38239900  1
  Co  Co3  1  0.24974100  0.24974100  0.25643400  1
  Co  Co4  1  0.63192400  0.63192400  0.12787000  1
  O  O0  1  0.52960600  0.52960600  0.91510400  1
  O  O1  1  0.90138200  0.90138200  0.78789500  1
  O  O2  1  0.27040200  0.27040200  0.66299800  1
  O  O3  1  0.15783600  0.15783600  0.03808800  1
  O  O4  1  0.77745900  0.77745900  0.16290200  1
  O  O5  1  0.39720700  0.39720700  0.29192700  1
  O  O6  1  0.65763100  0.65763100  0.54062800  1
  O  O7  1  0.02211500  0.02211500  0.40403400  1
  O  O8  1  0.84349700  0.84349700  0.95726000  1
  O  O9  1  0.21955900  0.21955900  0.82899200  1
  O  O10  1  0.59892500  0.59892500  0.70996400  1
  O  O11  1  0.47349400  0.47349400  0.08700300  1
  O  O12  1  0.09838000  0.09838000  0.21282900  1
  O  O13  1  0.71755500  0.71755500  0.33805200  1
  O  O14  1  0.98186000  0.98186000  0.59743200  1
  O  O15  1  0.34513500  0.34513500  0.45956500  1
loop_
_geom_bond_atom_site_label_1
_geom_bond_atom_site_label_2
_geom_bond_distance
_geom_bond_site_symmetry_2
Li0 O3 2.102570 1_656
Li0 O3 2.102570 1_566
Li0 O8 2.114390 1_555
Li0 O0 2.150048 1_555
Li0 O9 2.244389 1_565
Li0 O9 2.244389 1_655
Li1 O9 2.117249 1_555
Li1 O10 2.142296 1_455
Li1 O10 2.142296 1_545
Li1 O0 2.175353 1_545
Li1 O0 2.175353 1_455
Li1 O1 2.199295 1_445
Li2 O14 2.017659 1_545
Li2 O14 2.017659 1_455
Li2 O10 2.127762 1_555
Li2 O1 2.174421 1_545
Li2 O1 2.174421 1_455
Li2 O2 2.344169 1_555
Li3 O3 2.094478 1_555
Li3 O4 2.099844 1_545
Li3 O4 2.099844 1_455
Li3 O11 2.216596 1_555
Li3 O8 2.217333 1_544
Li3 O8 2.217333 1_454
Li4 O5 2.159369 1_565
Li4 O5 2.159369 1_655
Li4 O11 2.172396 1_655
Li4 O11 2.172396 1_565
Li4 O12 2.190159 1_665
Li4 O4 2.192832 1_555
Li5 O7 2.041914 1_655
Li5 O7 2.041914 1_565
Li5 O13 2.084741 1_555
Li5 O12 2.148736 1_655
Li5 O12 2.148736 1_565
Li5 O5 2.276756 1_555
Li6 O6 2.053751 1_555
Li6 O15 2.123473 1_565
Li6 O15 2.123473 1_655
Li6 O2 2.188354 1_565
Li6 O2 2.188354 1_655
Li6 O14 2.404933 1_555
Li7 O13 2.093357 1_455
Li7 O13 2.093357 1_545
Li7 O6 2.178817 1_545
Li7 O6 2.178817 1_455
Li7 O15 2.185626 1_555
Li7 O7 2.245922 1_555
Li8 O7 2.068078 1_655
Li8 O7 2.068078 1_565
Li8 O14 2.073746 1_545
Li8 O14 2.073746 1_455
Li8 O6 2.173163 1_555
Li8 O15 2.237898 1_555
Mn0 O11 1.968679 1_455
Mn0 O11 1.968679 1_545
Mn0 O0 1.973780 1_544
Mn0 O0 1.973780 1_454
Mn0 O3 2.163449 1_555
Mn0 O8 2.270931 1_444
Mn1 O1 1.959747 1_545
Mn1 O1 1.959747 1_455
Mn1 O8 1.960964 1_545
Mn1 O8 1.960964 1_455
Mn1 O9 2.158143 1_555
Mn1 O0 2.248906 1_555
Co0 O2 1.925943 1_655
Co0 O2 1.925943 1_565
Co0 O9 1.948003 1_565
Co0 O9 1.948003 1_655
Co0 O10 2.047248 1_555
Co0 O1 2.220079 1_555
Co1 O14 1.787465 1_445
Co1 O6 1.946611 1_545
Co1 O6 1.946611 1_455
Co1 O10 2.003432 1_455
Co1 O10 2.003432 1_545
Co1 O2 2.246061 1_555
Co2 O7 1.793952 1_665
Co2 O15 1.937731 1_565
Co2 O15 1.937731 1_655
Co2 O5 1.996919 1_565
Co2 O5 1.996919 1_655
Co2 O13 2.445920 1_555
Co3 O13 1.937522 1_455
Co3 O13 1.937522 1_545
Co3 O4 2.048106 1_455
Co3 O4 2.048106 1_545
Co3 O5 2.067537 1_555
Co3 O12 2.160110 1_555
Co4 O12 1.973280 1_655
Co4 O12 1.973280 1_565
Co4 O3 2.006024 1_655
Co4 O3 2.006024 1_565
Co4 O4 2.040482 1_555
Co4 O11 2.235130 1_555
