# generated using pymatgen
data_Cu13Si2(SbO14)2
_symmetry_space_group_name_H-M   'P 1'
_cell_length_a   5.40330701
_cell_length_b   7.98045405
_cell_length_c   12.04336419
_cell_angle_alpha   88.04270774
_cell_angle_beta   81.27847994
_cell_angle_gamma   82.90612546
_symmetry_Int_Tables_number   1
_chemical_formula_structural   Cu13Si2(SbO14)2
_chemical_formula_sum   'Cu13 Si2 Sb2 O28'
_cell_volume   509.32275304
_cell_formula_units_Z   1
loop_
 _symmetry_equiv_pos_site_id
 _symmetry_equiv_pos_as_xyz
  1  'x, y, z'
loop_
 _atom_site_type_symbol
 _atom_site_label
 _atom_site_symmetry_multiplicity
 _atom_site_fract_x
 _atom_site_fract_y
 _atom_site_fract_z
 _atom_site_occupancy
  Cu  Cu0  1  0.97289800  0.61070900  0.67106700  1
  Cu  Cu1  1  0.66717300  0.37001500  0.14250700  1
  Cu  Cu2  1  0.38495000  0.36737100  0.68222300  1
  Cu  Cu3  1  0.02791300  0.38773300  0.32929800  1
  Cu  Cu4  1  0.33432100  0.62834800  0.85784000  1
  Cu  Cu5  1  0.27112600  0.00403300  0.43910800  1
  Cu  Cu6  1  0.12349100  0.64804700  0.15309700  1
  Cu  Cu7  1  0.00050700  0.99918800  0.00016100  1
  Cu  Cu8  1  0.39160600  0.99642000  0.16910200  1
  Cu  Cu9  1  0.87732100  0.35028400  0.84724300  1
  Cu  Cu10  1  0.61581900  0.63105400  0.31816700  1
  Cu  Cu11  1  0.60941300  0.00191700  0.83119200  1
  Cu  Cu12  1  0.72967200  0.99446900  0.56118900  1
  Si  Si0  1  0.20505000  0.31594500  0.01520500  1
  Si  Si1  1  0.79609800  0.68238200  0.98511000  1
  Sb  Sb0  1  0.82317400  0.01204500  0.30580300  1
  Sb  Sb1  1  0.17776700  0.98631400  0.69450300  1
  O  O0  1  0.69562800  0.40226800  0.29498900  1
  O  O1  1  0.27046400  0.42849100  0.42077500  1
  O  O2  1  0.89616300  0.31892700  0.00278000  1
  O  O3  1  0.28204300  0.10961200  0.03197700  1
  O  O4  1  0.73030600  0.56999200  0.57961300  1
  O  O5  1  0.30512400  0.59617300  0.70538900  1
  O  O6  1  0.03286500  0.11854200  0.56811800  1
  O  O7  1  0.96794800  0.87989700  0.43222000  1
  O  O8  1  0.71899300  0.88873700  0.96835200  1
  O  O9  1  0.07649700  0.88581200  0.17650400  1
  O  O10  1  0.23621300  0.41126200  0.13074800  1
  O  O11  1  0.97729200  0.61751500  0.30010600  1
  O  O12  1  0.42011500  0.87685300  0.56441000  1
  O  O13  1  0.66978000  0.12905700  0.17622100  1
  O  O14  1  0.64309700  0.61423400  0.10195600  1
  O  O15  1  0.10494800  0.67942200  0.99753500  1
  O  O16  1  0.33129400  0.86935500  0.82406900  1
  O  O17  1  0.92441800  0.11251300  0.82381300  1
  O  O18  1  0.58071700  0.12161000  0.43585400  1
  O  O19  1  0.10455200  0.15164100  0.31954600  1
  O  O20  1  0.89628100  0.84679100  0.68077400  1
  O  O21  1  0.35816300  0.38404700  0.89838600  1
  O  O22  1  0.47367900  0.12769400  0.69772100  1
  O  O23  1  0.67775500  0.41372800  0.58387400  1
  O  O24  1  0.76470200  0.58711600  0.86960000  1
  O  O25  1  0.52715900  0.87074900  0.30258500  1
  O  O26  1  0.02352600  0.38089600  0.70024600  1
  O  O27  1  0.32300600  0.58471400  0.41652600  1
loop_
_geom_bond_atom_site_label_1
_geom_bond_atom_site_label_2
_geom_bond_distance
_geom_bond_site_symmetry_2
Cu0 O26 1.850172 1_655
Cu0 O20 1.882123 1_555
Cu0 O5 1.891319 1_655
Cu0 O4 1.898519 1_555
Cu0 O24 2.494738 1_555
Cu1 O0 1.894711 1_555
Cu1 O13 1.950518 1_555
Cu1 O2 1.954416 1_555
Cu1 O14 1.986347 1_555
Cu1 O10 2.336308 1_555
Cu2 O5 1.844378 1_555
Cu2 O23 1.894522 1_555
Cu2 O26 1.921851 1_555
Cu2 O22 1.923405 1_555
Cu3 O11 1.849959 1_455
Cu3 O19 1.882245 1_555
Cu3 O0 1.891574 1_455
Cu3 O1 1.898623 1_555
Cu3 O10 2.495047 1_555
Cu4 O5 1.895218 1_555
Cu4 O16 1.950834 1_555
Cu4 O15 1.955088 1_555
Cu4 O21 1.986988 1_555
Cu4 O24 2.333216 1_555
Cu5 O12 2.004358 1_545
Cu5 O18 2.011362 1_555
Cu5 O6 2.026406 1_555
Cu5 O7 2.029663 1_445
Cu5 O19 2.070366 1_555
Cu5 O25 2.194274 1_545
Cu6 O11 1.847143 1_455
Cu6 O15 1.897731 1_554
Cu6 O9 1.907924 1_555
Cu6 O10 1.927422 1_555
Cu7 O8 1.941241 1_454
Cu7 O3 1.941252 1_565
Cu7 O9 2.353516 1_555
Cu7 O17 2.353578 1_464
Cu7 O2 2.544528 1_465
Cu7 O15 2.544790 1_554
Cu7 O13 2.703157 1_465
Cu7 O16 2.703492 1_554
Cu8 O13 1.955814 1_565
Cu8 O3 1.989030 1_565
Cu8 O9 2.001465 1_555
Cu8 O25 2.047470 1_555
Cu8 O19 2.459575 1_565
Cu9 O26 1.847122 1_655
Cu9 O2 1.897721 1_556
Cu9 O17 1.908009 1_555
Cu9 O24 1.927692 1_555
Cu10 O0 1.844269 1_555
Cu10 O27 1.894577 1_555
Cu10 O11 1.922088 1_555
Cu10 O25 1.923593 1_555
Cu11 O16 1.955191 1_545
Cu11 O8 1.989389 1_545
Cu11 O17 2.000936 1_555
Cu11 O22 2.048113 1_555
Cu11 O20 2.458568 1_545
Cu12 O18 2.004457 1_565
Cu12 O12 2.011425 1_555
Cu12 O7 2.026305 1_555
Cu12 O6 2.029526 1_665
Cu12 O20 2.070935 1_555
Cu12 O22 2.194044 1_565
O1 O27 1.310043 1_555
O2 Si0 1.695359 1_655
O3 Si0 1.660973 1_555
O6 Sb1 2.022612 1_545
O7 Sb0 2.022330 1_565
O8 Si1 1.661209 1_555
O9 Sb0 2.105577 1_465
O10 Si0 1.648733 1_555
O12 Sb1 2.030105 1_555
O13 Sb0 2.023859 1_555
O14 Si1 1.632622 1_554
O15 Si1 1.695180 1_455
O16 Sb1 2.023876 1_555
O17 Sb1 2.105616 1_645
O18 Sb0 2.030349 1_555
O19 Sb0 2.021697 1_455
O20 Sb1 2.021770 1_655
O21 Si0 1.632489 1_556
O22 Sb1 2.073247 1_545
O23 O4 1.310375 1_555
O24 Si1 1.648542 1_555
O25 Sb0 2.073286 1_565
