# generated using pymatgen
data_Tm3Ga2Ge3
_symmetry_space_group_name_H-M   'P 1'
_cell_length_a   7.68494694
_cell_length_b   7.68494694
_cell_length_c   7.68494694
_cell_angle_alpha   119.68085319
_cell_angle_beta   119.68085319
_cell_angle_gamma   90.55367310
_symmetry_Int_Tables_number   1
_chemical_formula_structural   Tm3Ga2Ge3
_chemical_formula_sum   'Tm6 Ga4 Ge6'
_cell_volume   322.45983128
_cell_formula_units_Z   2
loop_
 _symmetry_equiv_pos_site_id
 _symmetry_equiv_pos_as_xyz
  1  'x, y, z'
loop_
 _atom_site_type_symbol
 _atom_site_label
 _atom_site_symmetry_multiplicity
 _atom_site_fract_x
 _atom_site_fract_y
 _atom_site_fract_z
 _atom_site_occupancy
  Tm  Tm0  1  0.66548629  0.16548629  0.82636704  1
  Tm  Tm1  1  0.33911926  0.83911926  0.17363296  1
  Tm  Tm2  1  0.83911926  0.66548629  0.50000000  1
  Tm  Tm3  1  0.16548629  0.33911926  0.50000000  1
  Tm  Tm4  1  0.74158496  0.74158496  -0.00000000  1
  Tm  Tm5  1  0.24158496  0.24158496  -0.00000000  1
  Ga  Ga0  1  0.95340153  0.45340153  0.77654010  1
  Ga  Ga1  1  0.67686043  0.17686043  0.22345990  1
  Ga  Ga2  1  0.17686043  0.95340153  0.50000000  1
  Ga  Ga3  1  0.45340153  0.67686043  0.50000000  1
  Ge  Ge0  1  0.49013533  0.49013533  -0.00000000  1
  Ge  Ge1  1  0.99013533  0.99013533  -0.00000000  1
  Ge  Ge2  1  0.04254905  0.54254905  0.20168689  1
  Ge  Ge3  1  0.34086315  0.84086315  0.79831311  1
  Ge  Ge4  1  0.84086315  0.04254905  0.50000000  1
  Ge  Ge5  1  0.54254905  0.34086315  0.50000000  1
loop_
_geom_bond_atom_site_label_1
_geom_bond_atom_site_label_2
_geom_bond_distance
_geom_bond_site_symmetry_2
Ga0 Ge4 2.591384 1_555
Ga0 Ge5 2.591384 1_555
Ga0 Ge2 2.677867 1_656
Ga0 Tm1 2.966353 1_656
Ga0 Tm3 3.090918 1_655
Ga0 Tm2 3.090918 1_555
Ga0 Tm5 3.094372 1_656
Ga0 Tm4 3.094372 1_556
Ga1 Ge4 2.591378 1_555
Ga1 Ge5 2.591378 1_555
Ga1 Ge3 2.677856 1_544
Ga1 Tm0 2.966361 1_554
Ga1 Tm2 3.090925 1_555
Ga1 Tm3 3.090925 1_655
Ga1 Tm4 3.094369 1_545
Ga1 Tm5 3.094369 1_555
Ga2 Ge3 2.591378 1_555
Ga2 Ge2 2.591384 1_555
Ga2 Ge4 2.677852 1_465
Ga2 Tm3 2.966353 1_565
Ga2 Tm0 3.090924 1_565
Ga2 Tm1 3.090924 1_555
Ga2 Tm4 3.094369 1_455
Ga2 Tm5 3.094369 1_566
Ga3 Ge3 2.591378 1_555
Ga3 Ge2 2.591384 1_555
Ga3 Ge5 2.677852 1_555
Ga3 Tm2 2.966353 1_555
Ga3 Tm0 3.090924 1_565
Ga3 Tm1 3.090924 1_555
Ga3 Tm4 3.094369 1_556
Ga3 Tm5 3.094369 1_555
Ge0 Tm5 2.688201 1_555
Ge0 Tm4 2.719558 1_555
Ge0 Tm0 2.893064 1_554
Ge0 Tm1 2.893064 1_555
Ge0 Tm2 2.893064 1_555
Ge0 Tm3 2.893064 1_554
Ge1 Tm4 2.688201 1_555
Ge1 Tm5 2.719558 1_665
Ge1 Tm0 2.893064 1_564
Ge1 Tm1 2.893064 1_655
Ge1 Tm2 2.893064 1_554
Ge1 Tm3 2.893064 1_665
Ge2 Tm0 2.897609 1_454
Ge2 Tm5 2.992900 1_555
Ge2 Tm4 2.992900 1_455
Ge2 Tm3 3.166266 1_555
Ge2 Tm2 3.166266 1_455
Ge3 Tm1 2.897616 1_556
Ge3 Tm4 2.992898 1_556
Ge3 Tm5 2.992898 1_566
Ge3 Tm2 3.166273 1_455
Ge3 Tm3 3.166273 1_555
Ge4 Tm2 2.897609 1_545
Ge4 Tm5 2.992897 1_656
Ge4 Tm4 2.992897 1_545
Ge4 Tm1 3.166272 1_545
Ge4 Tm0 3.166272 1_555
Ge5 Tm3 2.897609 1_555
Ge5 Tm4 2.992897 1_556
Ge5 Tm5 2.992897 1_555
Ge5 Tm1 3.166272 1_545
Ge5 Tm0 3.166272 1_555
