# generated using pymatgen
data_Li12Mn3CoP4(CO7)4
_symmetry_space_group_name_H-M   'P 1'
_cell_length_a   6.58780000
_cell_length_b   8.53246600
_cell_length_c   10.00481210
_cell_angle_alpha   85.49412051
_cell_angle_beta   90.00000000
_cell_angle_gamma   90.00000000
_symmetry_Int_Tables_number   1
_chemical_formula_structural   Li12Mn3CoP4(CO7)4
_chemical_formula_sum   'Li12 Mn3 Co1 P4 C4 O28'
_cell_volume   560.63414736
_cell_formula_units_Z   1
loop_
 _symmetry_equiv_pos_site_id
 _symmetry_equiv_pos_as_xyz
  1  'x, y, z'
loop_
 _atom_site_type_symbol
 _atom_site_label
 _atom_site_symmetry_multiplicity
 _atom_site_fract_x
 _atom_site_fract_y
 _atom_site_fract_z
 _atom_site_occupancy
  Li  Li0  1  0.00000000  0.90806700  0.61947900  1
  Li  Li1  1  0.00000000  0.90509500  0.11930900  1
  Li  Li2  1  0.22339400  0.72684900  0.87701000  1
  Li  Li3  1  0.77660600  0.72684900  0.87701000  1
  Li  Li4  1  0.22330900  0.72586100  0.37633700  1
  Li  Li5  1  0.77669100  0.72586100  0.37633700  1
  Li  Li6  1  0.72462900  0.27295000  0.62229600  1
  Li  Li7  1  0.27537100  0.27295000  0.62229600  1
  Li  Li8  1  0.72515400  0.27375800  0.12440900  1
  Li  Li9  1  0.27484600  0.27375800  0.12440900  1
  Li  Li10  1  0.50000000  0.09326300  0.88026000  1
  Li  Li11  1  0.50000000  0.09225100  0.37977000  1
  Mn  Mn0  1  0.50000000  0.65936200  0.61125500  1
  Mn  Mn1  1  0.50000000  0.65950200  0.11113800  1
  Mn  Mn2  1  0.00000000  0.34002700  0.88878300  1
  Co  Co0  1  0.00000000  0.33475600  0.39707100  1
  P  P0  1  0.00000000  0.59027700  0.63723200  1
  P  P1  1  0.00000000  0.58699900  0.14114800  1
  P  P2  1  0.50000000  0.40946500  0.86056500  1
  P  P3  1  0.50000000  0.41001500  0.35971700  1
  C  C0  1  0.50000000  0.96708600  0.64856500  1
  C  C1  1  0.50000000  0.96702900  0.14863500  1
  C  C2  1  0.00000000  0.03279700  0.85155700  1
  C  C3  1  0.00000000  0.03773500  0.35114200  1
  O  O0  1  0.50000000  0.93007500  0.52578900  1
  O  O1  1  0.00000000  0.88669400  0.82184300  1
  O  O2  1  0.50000000  0.92990500  0.02584100  1
  O  O3  1  0.50000000  0.85562200  0.74574700  1
  O  O4  1  0.00000000  0.89170500  0.32178100  1
  O  O5  1  0.50000000  0.85565600  0.24592300  1
  O  O6  1  0.18408900  0.69052000  0.58412800  1
  O  O7  1  0.81591100  0.69052000  0.58412800  1
  O  O8  1  0.18342600  0.68897700  0.08812100  1
  O  O9  1  0.81657400  0.68897700  0.08812100  1
  O  O10  1  0.50000000  0.57957700  0.90533700  1
  O  O11  1  0.00000000  0.57552500  0.79403400  1
  O  O12  1  0.50000000  0.57977900  0.40524900  1
  O  O13  1  0.00000000  0.56867200  0.29835200  1
  O  O14  1  0.50000000  0.42290400  0.70356200  1
  O  O15  1  0.00000000  0.42075700  0.59063900  1
  O  O16  1  0.50000000  0.42282800  0.20296400  1
  O  O17  1  0.00000000  0.42021100  0.09092800  1
  O  O18  1  0.31607600  0.30992700  0.91464800  1
  O  O19  1  0.68392400  0.30992700  0.91464800  1
  O  O20  1  0.68610300  0.31156100  0.41398000  1
  O  O21  1  0.31389700  0.31156100  0.41398000  1
  O  O22  1  0.00000000  0.14413800  0.75423300  1
  O  O23  1  0.50000000  0.11306400  0.67797800  1
  O  O24  1  0.00000000  0.15085000  0.25555000  1
  O  O25  1  0.00000000  0.06947900  0.97430000  1
  O  O26  1  0.50000000  0.11293800  0.17812300  1
  O  O27  1  0.00000000  0.07508700  0.47434200  1
loop_
_geom_bond_atom_site_label_1
_geom_bond_atom_site_label_2
_geom_bond_distance
_geom_bond_site_symmetry_2
Li0 O27 1.953011 1_565
Li0 O1 2.018491 1_555
Li0 O6 2.268151 1_555
Li0 O7 2.268151 1_455
Li0 O22 2.510293 1_565
Li1 O25 1.937098 1_564
Li1 O4 2.019932 1_555
Li1 O8 2.246852 1_555
Li1 O9 2.246852 1_455
Li2 O1 2.052396 1_555
Li2 O8 2.127812 1_556
Li2 O11 2.165761 1_555
Li2 O10 2.218985 1_555
Li2 O3 2.454729 1_555
Li3 O1 2.052396 1_655
Li3 O9 2.127812 1_556
Li3 O11 2.165761 1_655
Li3 O10 2.218985 1_555
Li3 O3 2.454729 1_555
Li4 O4 2.084019 1_555
Li4 O6 2.093097 1_555
Li4 O13 2.176280 1_555
Li4 O12 2.214312 1_555
Li4 O5 2.454468 1_555
Li5 O4 2.084019 1_655
Li5 O7 2.093097 1_555
Li5 O13 2.176280 1_655
Li5 O12 2.214312 1_555
Li5 O5 2.454468 1_555
Li6 O23 2.059582 1_555
Li6 O20 2.099714 1_555
Li6 O14 2.156712 1_555
Li6 O15 2.217880 1_655
Li6 O22 2.452216 1_655
Li7 O23 2.059582 1_555
Li7 O21 2.099714 1_555
Li7 O14 2.156712 1_555
Li7 O15 2.217880 1_555
Li7 O22 2.452216 1_555
Li8 O26 2.062990 1_555
Li8 O19 2.114582 1_554
Li8 O16 2.143049 1_555
Li8 O17 2.210505 1_655
Li8 O24 2.425578 1_655
Li9 O26 2.062990 1_555
Li9 O18 2.114582 1_554
Li9 O16 2.143049 1_555
Li9 O17 2.210505 1_555
Li9 O24 2.425578 1_555
Li10 O2 1.935264 1_546
Li10 O23 2.017563 1_555
Li10 O19 2.259208 1_555
Li10 O18 2.259208 1_555
Li10 O3 2.520177 1_545
Li11 O0 1.931677 1_545
Li11 O26 2.011286 1_555
Li11 O20 2.285273 1_555
Li11 O21 2.285273 1_555
Li11 O5 2.508642 1_545
Mn0 O7 2.112870 1_555
Mn0 O6 2.112870 1_555
Mn0 O14 2.151908 1_555
Mn0 O12 2.220118 1_555
Mn0 O3 2.229084 1_555
Mn0 O0 2.399212 1_555
Mn1 O9 2.111066 1_555
Mn1 O8 2.111066 1_555
Mn1 O16 2.151869 1_555
Mn1 O10 2.219273 1_554
Mn1 O5 2.230306 1_555
Mn1 O2 2.396265 1_555
Mn2 O18 2.111452 1_555
Mn2 O19 2.111452 1_455
Mn2 O11 2.153351 1_555
Mn2 O17 2.185334 1_556
Mn2 O22 2.226941 1_555
Mn2 O25 2.398040 1_555
Co0 O21 2.082954 1_555
Co0 O20 2.082954 1_455
Co0 O15 2.124197 1_555
Co0 O13 2.156221 1_555
Co0 O24 2.194570 1_555
Co0 O27 2.288555 1_555
C0 O0 1.292100 1_555
C0 O23 1.302147 1_565
C0 O3 1.305592 1_555
C1 O2 1.292582 1_555
C1 O26 1.301800 1_565
C1 O5 1.305802 1_555
C2 O25 1.290886 1_555
C2 O1 1.304096 1_545
C2 O22 1.305867 1_555
C3 O27 1.297143 1_555
C3 O4 1.302423 1_545
C3 O24 1.304279 1_555
O6 P0 1.553444 1_555
O7 P0 1.553444 1_655
O8 P1 1.557629 1_555
O9 P1 1.557629 1_655
O10 P2 1.552283 1_555
O11 P0 1.563928 1_555
O12 P3 1.552212 1_555
O13 P1 1.568279 1_555
O14 P2 1.565955 1_555
O15 P0 1.554150 1_555
O16 P3 1.563499 1_555
O17 P1 1.545977 1_555
O18 P2 1.552417 1_555
O19 P2 1.552417 1_555
O20 P3 1.559444 1_555
O21 P3 1.559444 1_555
