# generated using pymatgen
data_Li4MnCo2O7
_symmetry_space_group_name_H-M   'P 1'
_cell_length_a   4.98741100
_cell_length_b   5.96916127
_cell_length_c   8.70501983
_cell_angle_alpha   88.99660718
_cell_angle_beta   86.48694168
_cell_angle_gamma   77.55629953
_symmetry_Int_Tables_number   1
_chemical_formula_structural   Li4MnCo2O7
_chemical_formula_sum   'Li8 Mn2 Co4 O14'
_cell_volume   252.58818108
_cell_formula_units_Z   2
loop_
 _symmetry_equiv_pos_site_id
 _symmetry_equiv_pos_as_xyz
  1  'x, y, z'
loop_
 _atom_site_type_symbol
 _atom_site_label
 _atom_site_symmetry_multiplicity
 _atom_site_fract_x
 _atom_site_fract_y
 _atom_site_fract_z
 _atom_site_occupancy
  Li  Li0  1  0.56904800  0.36165000  0.84770300  1
  Li  Li1  1  0.14627700  0.20586300  0.70512600  1
  Li  Li2  1  0.99623900  0.50861700  0.00316100  1
  Li  Li3  1  0.43074500  0.64019100  0.14480800  1
  Li  Li4  1  0.71104600  0.07240800  0.57136300  1
  Li  Li5  1  0.29002500  0.92574900  0.43064700  1
  Li  Li6  1  0.85485000  0.78098800  0.29524000  1
  Li  Li7  1  0.70849700  0.57365900  0.57085100  1
  Mn  Mn0  1  0.00064500  0.00023700  0.00097200  1
  Mn  Mn1  1  0.57793500  0.85008100  0.85297700  1
  Co  Co0  1  0.14208600  0.70870600  0.70871100  1
  Co  Co1  1  0.28345100  0.44117300  0.43373900  1
  Co  Co2  1  0.85575500  0.29002800  0.28912900  1
  Co  Co3  1  0.43361500  0.14151500  0.14525500  1
  O  O0  1  0.84115900  0.03986900  0.79936500  1
  O  O1  1  0.42160400  0.88567400  0.65856100  1
  O  O2  1  0.31004800  0.14345700  0.93485200  1
  O  O3  1  0.70523900  0.31366200  0.08785700  1
  O  O4  1  0.01482000  0.74378300  0.51386100  1
  O  O5  1  0.53710500  0.59396500  0.36336800  1
  O  O6  1  0.12661400  0.45615500  0.22642200  1
  O  O7  1  0.30067800  0.67792900  0.91047900  1
  O  O8  1  0.84381400  0.57686600  0.79067000  1
  O  O9  1  0.72446100  0.82293900  0.05872600  1
  O  O10  1  0.16144600  0.97323500  0.20068600  1
  O  O11  1  0.41046500  0.39286700  0.62877200  1
  O  O12  1  0.01916300  0.26220300  0.48158300  1
  O  O13  1  0.58316800  0.11653100  0.34511400  1
loop_
_geom_bond_atom_site_label_1
_geom_bond_atom_site_label_2
_geom_bond_distance
_geom_bond_site_symmetry_2
Li0 O11 2.097884 1_555
Li0 O8 2.104216 1_555
Li0 O2 2.123861 1_555
Li0 O7 2.124115 1_555
Li0 O0 2.131459 1_555
Li0 O3 2.232263 1_556
Li1 O11 1.981024 1_555
Li1 O12 2.082813 1_555
Li1 O0 2.106851 1_455
Li1 O1 2.128541 1_545
Li1 O2 2.201807 1_555
Li1 O8 2.492959 1_455
Li2 O8 2.043987 1_554
Li2 O6 2.084186 1_655
Li2 O9 2.108780 1_555
Li2 O7 2.111966 1_654
Li2 O3 2.137962 1_555
Li2 O2 2.452619 1_654
Li3 O5 2.004873 1_555
Li3 O9 2.103061 1_555
Li3 O6 2.137990 1_555
Li3 O7 2.171541 1_554
Li3 O3 2.172487 1_555
Li3 O10 2.189921 1_555
Li4 O13 2.102011 1_555
Li4 O1 2.105235 1_545
Li4 O0 2.118522 1_555
Li4 O12 2.197238 1_655
Li4 O11 2.204999 1_555
Li4 O4 2.248226 1_645
Li5 O4 2.020282 1_555
Li5 O1 2.121178 1_555
Li5 O13 2.131481 1_565
Li5 O10 2.134937 1_555
Li5 O5 2.164306 1_555
Li5 O12 2.200806 1_565
Li6 O4 2.098230 1_655
Li6 O5 2.175641 1_555
Li6 O6 2.182704 1_655
Li6 O9 2.190970 1_555
Li6 O13 2.196567 1_565
Li6 O10 2.213927 1_655
Li7 O5 2.035785 1_555
Li7 O4 2.041929 1_655
Li7 O11 2.051500 1_555
Li7 O8 2.069430 1_555
Li7 O1 2.206021 1_555
Li7 O12 2.263305 1_655
Mn0 O9 1.948048 1_445
Mn0 O10 1.948572 1_545
Mn0 O0 1.960639 1_454
Mn0 O2 1.971247 1_554
Mn0 O3 2.228900 1_455
Mn0 O7 2.286714 1_544
Mn1 O1 1.896044 1_555
Mn1 O8 1.929545 1_555
Mn1 O7 1.930850 1_555
Mn1 O0 1.942167 1_565
Mn1 O9 1.966563 1_556
Mn1 O2 2.068443 1_565
Co0 O4 1.840095 1_555
Co0 O8 1.922527 1_455
Co0 O1 1.947768 1_555
Co0 O7 1.959751 1_555
Co0 O11 2.162051 1_555
Co0 O0 2.326756 1_465
Co1 O5 1.786111 1_555
Co1 O11 1.844662 1_555
Co1 O12 1.891068 1_555
Co1 O6 2.003494 1_555
Co1 O4 2.104975 1_555
Co1 O13 2.290750 1_555
Co2 O6 1.890553 1_655
Co2 O12 1.896764 1_655
Co2 O13 1.914729 1_555
Co2 O3 1.939096 1_555
Co2 O5 2.215274 1_555
Co2 O10 2.271053 1_645
Co3 O10 1.890713 1_545
Co3 O3 1.907815 1_555
Co3 O13 1.925464 1_555
Co3 O2 1.966994 1_554
Co3 O9 2.239464 1_545
Co3 O6 2.246242 1_555
