# generated using pymatgen
data_VFeSb
_symmetry_space_group_name_H-M   'P 1'
_cell_length_a   4.38507135
_cell_length_b   4.38507135
_cell_length_c   5.30200300
_cell_angle_alpha   90.00000000
_cell_angle_beta   90.00000000
_cell_angle_gamma   119.99999021
_symmetry_Int_Tables_number   1
_chemical_formula_structural   VFeSb
_chemical_formula_sum   'V2 Fe2 Sb2'
_cell_volume   88.29253218
_cell_formula_units_Z   2
loop_
 _symmetry_equiv_pos_site_id
 _symmetry_equiv_pos_as_xyz
  1  'x, y, z'
loop_
 _atom_site_type_symbol
 _atom_site_label
 _atom_site_symmetry_multiplicity
 _atom_site_fract_x
 _atom_site_fract_y
 _atom_site_fract_z
 _atom_site_occupancy
  V  V0  1  0.00000000  0.00000000  0.50000000  1
  V  V1  1  0.00000000  0.00000000  0.00000000  1
  Fe  Fe0  1  0.33333300  0.66666700  0.75000000  1
  Fe  Fe1  1  0.66666700  0.33333300  0.25000000  1
  Sb  Sb0  1  0.33333300  0.66666700  0.25000000  1
  Sb  Sb1  1  0.66666700  0.33333300  0.75000000  1
loop_
_geom_bond_atom_site_label_1
_geom_bond_atom_site_label_2
_geom_bond_distance
_geom_bond_site_symmetry_2
V0 V1 2.651002 1_555
V0 V1 2.651002 1_556
Fe0 Sb1 2.531720 1_455
Fe0 Sb1 2.531720 1_565
Fe0 Sb1 2.531727 1_555
Fe0 Sb0 2.651002 1_556
Fe0 Sb0 2.651002 1_555
Fe0 V0 2.857719 1_565
Fe0 V1 2.857719 1_566
Fe0 V0 2.857722 1_665
Fe0 V1 2.857722 1_666
Fe0 V1 2.857722 1_556
Fe0 V0 2.857722 1_555
Fe1 Sb0 2.531720 1_545
Fe1 Sb0 2.531720 1_655
Fe1 Sb0 2.531727 1_555
Fe1 Sb1 2.651002 1_555
Fe1 Sb1 2.651002 1_554
Fe1 V0 2.857719 1_655
Fe1 V1 2.857719 1_655
Fe1 V0 2.857722 1_555
Fe1 V1 2.857722 1_555
Fe1 V0 2.857722 1_665
Fe1 V1 2.857722 1_665
Sb0 V0 2.857719 1_565
Sb0 V1 2.857719 1_565
Sb0 V0 2.857722 1_665
Sb0 V1 2.857722 1_665
Sb0 V0 2.857722 1_555
Sb0 V1 2.857722 1_555
Sb1 V0 2.857719 1_655
Sb1 V1 2.857719 1_656
Sb1 V0 2.857722 1_555
Sb1 V1 2.857722 1_556
Sb1 V1 2.857722 1_666
Sb1 V0 2.857722 1_665
