# generated using pymatgen
data_AlCr3SiMo3
_symmetry_space_group_name_H-M   'P 1'
_cell_length_a   4.77425120
_cell_length_b   4.77425120
_cell_length_c   4.77425120
_cell_angle_alpha   89.97654765
_cell_angle_beta   90.02345235
_cell_angle_gamma   90.02345235
_symmetry_Int_Tables_number   1
_chemical_formula_structural   AlCr3SiMo3
_chemical_formula_sum   'Al1 Cr3 Si1 Mo3'
_cell_volume   108.82174574
_cell_formula_units_Z   1
loop_
 _symmetry_equiv_pos_site_id
 _symmetry_equiv_pos_as_xyz
  1  'x, y, z'
loop_
 _atom_site_type_symbol
 _atom_site_label
 _atom_site_symmetry_multiplicity
 _atom_site_fract_x
 _atom_site_fract_y
 _atom_site_fract_z
 _atom_site_occupancy
  Al  Al0  1  0.49237000  0.50763000  0.50763000  1
  Cr  Cr0  1  0.50084100  0.75167300  0.00185100  1
  Cr  Cr1  1  0.24832700  0.00185100  0.49915900  1
  Cr  Cr2  1  0.99814900  0.49915900  0.75167300  1
  Si  Si0  1  0.00749400  0.99250600  0.99250600  1
  Mo  Mo0  1  0.49974600  0.24622300  0.00070500  1
  Mo  Mo1  1  0.75377700  0.00070500  0.50025400  1
  Mo  Mo2  1  0.99929400  0.50025400  0.24622300  1
loop_
_geom_bond_atom_site_label_1
_geom_bond_atom_site_label_2
_geom_bond_distance
_geom_bond_site_symmetry_2
Al0 Cr2 2.632240 1_455
Al0 Cr1 2.632240 1_565
Al0 Cr0 2.632240 1_556
Al0 Mo0 2.664204 1_556
Al0 Mo1 2.664204 1_565
Al0 Mo2 2.664208 1_455
Al0 Cr1 2.680996 1_555
Al0 Cr0 2.680996 1_555
Al0 Cr2 2.680996 1_555
Al0 Mo2 2.723722 1_555
Al0 Mo0 2.723726 1_555
Al0 Mo1 2.723726 1_555
Cr0 Mo0 2.361118 1_565
Cr0 Mo0 2.413157 1_555
Cr0 Si0 2.621802 1_554
Cr0 Si0 2.678211 1_654
Cr1 Mo1 2.361118 1_455
Cr1 Mo1 2.413157 1_555
Cr1 Si0 2.621802 1_545
Cr1 Si0 2.678211 1_544
Cr2 Mo2 2.361118 1_556
Cr2 Mo2 2.413157 1_555
Cr2 Si0 2.621802 1_655
Cr2 Si0 2.678211 1_645
Mo0 Si0 2.643779 1_544
Mo0 Si0 2.710657 1_644
Mo1 Si0 2.643779 1_645
Mo1 Si0 2.710657 1_644
Mo2 Si0 2.643779 1_654
Mo2 Si0 2.710657 1_644
