# generated using pymatgen
data_BaAg2
_symmetry_space_group_name_H-M   'P 1'
_cell_length_a   4.98716217
_cell_length_b   6.36898650
_cell_length_c   6.36898650
_cell_angle_alpha   79.09181251
_cell_angle_beta   66.95093784
_cell_angle_gamma   66.95093784
_symmetry_Int_Tables_number   1
_chemical_formula_structural   BaAg2
_chemical_formula_sum   'Ba2 Ag4'
_cell_volume   171.13484725
_cell_formula_units_Z   2
loop_
 _symmetry_equiv_pos_site_id
 _symmetry_equiv_pos_as_xyz
  1  'x, y, z'
loop_
 _atom_site_type_symbol
 _atom_site_label
 _atom_site_symmetry_multiplicity
 _atom_site_fract_x
 _atom_site_fract_y
 _atom_site_fract_z
 _atom_site_occupancy
  Ba  Ba0  1  0.03969114  0.21030886  0.71030886  1
  Ba  Ba1  1  0.96030886  0.78969114  0.28969114  1
  Ag  Ag0  1  0.33586213  0.61100053  0.71727422  1
  Ag  Ag1  1  0.66413787  0.38899947  0.28272578  1
  Ag  Ag2  1  0.66413787  0.78272578  0.88899947  1
  Ag  Ag3  1  0.33586213  0.21727422  0.11100053  1
loop_
_geom_bond_atom_site_label_1
_geom_bond_atom_site_label_2
_geom_bond_distance
_geom_bond_site_symmetry_2
Ag0 Ag2 2.886109 1_455
Ag0 Ag2 2.886117 1_555
Ag0 Ag1 2.908560 1_555
Ag0 Ag3 3.193207 1_556
Ag0 Ba0 3.426679 1_555
Ag0 Ba0 3.426683 1_655
Ag0 Ba0 3.510780 1_565
Ag0 Ba1 3.556523 1_456
Ag0 Ba1 3.656662 1_455
Ag0 Ba1 3.656666 1_555
Ag1 Ag3 2.886109 1_655
Ag1 Ag3 2.886117 1_555
Ag1 Ag2 3.193207 1_554
Ag1 Ba1 3.426679 1_555
Ag1 Ba1 3.426683 1_455
Ag1 Ba1 3.510780 1_545
Ag1 Ba0 3.556523 1_654
Ag1 Ba0 3.656662 1_655
Ag1 Ba0 3.656666 1_555
Ag2 Ag3 2.908560 1_566
Ag2 Ba1 3.426679 1_556
Ag2 Ba1 3.426683 1_456
Ag2 Ba1 3.510780 1_555
Ag2 Ba0 3.556523 1_655
Ag2 Ba0 3.656662 1_665
Ag2 Ba0 3.656666 1_565
Ag3 Ba0 3.426679 1_554
Ag3 Ba0 3.426683 1_654
Ag3 Ba0 3.510780 1_555
Ag3 Ba1 3.556523 1_455
Ag3 Ba1 3.656662 1_445
Ag3 Ba1 3.656666 1_545
