# generated using pymatgen
data_CaLaFeSnO6
_symmetry_space_group_name_H-M   'P 1'
_cell_length_a   5.59256246
_cell_length_b   7.97820607
_cell_length_c   5.72476301
_cell_angle_alpha   90.00272695
_cell_angle_beta   90.00427560
_cell_angle_gamma   89.77784021
_symmetry_Int_Tables_number   1
_chemical_formula_structural   CaLaFeSnO6
_chemical_formula_sum   'Ca2 La2 Fe2 Sn2 O12'
_cell_volume   255.42907987
_cell_formula_units_Z   2
loop_
 _symmetry_equiv_pos_site_id
 _symmetry_equiv_pos_as_xyz
  1  'x, y, z'
loop_
 _atom_site_type_symbol
 _atom_site_label
 _atom_site_symmetry_multiplicity
 _atom_site_fract_x
 _atom_site_fract_y
 _atom_site_fract_z
 _atom_site_occupancy
  Ca  Ca0  1  0.51360200  0.25043500  0.54998800  1
  Ca  Ca1  1  0.01351700  0.75050400  0.95008200  1
  La  La0  1  0.98861800  0.24969600  0.04380900  1
  La  La1  1  0.48874200  0.74964100  0.45624900  1
  Fe  Fe0  1  0.49930500  0.50113700  0.99917800  1
  Fe  Fe1  1  0.99932800  0.00103000  0.50051400  1
  Sn  Sn0  1  0.99970300  0.49907000  0.50107600  1
  Sn  Sn1  1  0.49990400  0.99916200  0.99897400  1
  O  O0  1  0.59831300  0.74675500  0.02997600  1
  O  O1  1  0.09828600  0.24679600  0.47001400  1
  O  O2  1  0.20023500  0.94899900  0.20658900  1
  O  O3  1  0.69999200  0.44908700  0.29342300  1
  O  O4  1  0.20446500  0.55052900  0.20238600  1
  O  O5  1  0.70469200  0.05042900  0.29763300  1
  O  O6  1  0.90923800  0.75303000  0.53193200  1
  O  O7  1  0.40922600  0.25309000  0.96813200  1
  O  O8  1  0.29600900  0.54993500  0.71128500  1
  O  O9  1  0.79610800  0.04985300  0.78872400  1
  O  O10  1  0.29037900  0.95037300  0.70566600  1
  O  O11  1  0.79033600  0.45044600  0.79437100  1
loop_
_geom_bond_atom_site_label_1
_geom_bond_atom_site_label_2
_geom_bond_distance
_geom_bond_site_symmetry_2
Ca0 O1 2.367628 1_555
Ca0 O5 2.400452 1_555
Ca0 O3 2.401878 1_555
Ca0 O7 2.464033 1_555
Ca0 O9 2.627787 1_555
Ca0 O11 2.630113 1_555
Ca0 O8 2.832046 1_555
Ca0 O10 2.847335 1_545
Ca1 O0 2.367007 1_456
Ca1 O4 2.399757 1_556
Ca1 O2 2.401460 1_556
Ca1 O6 2.463847 1_455
Ca1 O8 2.627902 1_555
Ca1 O10 2.630150 1_555
Ca1 O9 2.830722 1_465
Ca1 O11 2.847134 1_455
La0 O7 2.392128 1_654
La0 O11 2.412507 1_554
La0 O9 2.417960 1_554
La0 O1 2.515869 1_655
La0 O3 2.675500 1_555
La0 O5 2.679622 1_555
La0 O2 2.828845 1_645
La0 O4 2.839705 1_655
La1 O6 2.391454 1_555
La1 O10 2.412555 1_555
La1 O8 2.417816 1_555
La1 O0 2.516200 1_555
La1 O2 2.675037 1_555
La1 O4 2.679965 1_555
La1 O3 2.827097 1_555
La1 O5 2.839850 1_565
Fe0 O8 2.038838 1_555
Fe0 O11 2.045115 1_555
Fe0 O0 2.045982 1_556
Fe0 O7 2.051678 1_555
Fe0 O4 2.054922 1_556
Fe0 O3 2.065376 1_556
Fe1 O9 2.040214 1_555
Fe1 O10 2.046166 1_645
Fe1 O1 2.046914 1_655
Fe1 O6 2.051540 1_545
Fe1 O5 2.052840 1_555
Fe1 O2 2.064625 1_645
O0 Sn1 2.093090 1_554
O1 Sn0 2.092343 1_455
O2 Sn1 2.094530 1_554
O3 Sn0 2.094400 1_555
O4 Sn0 2.099469 1_455
O5 Sn1 2.098931 1_544
O6 Sn0 2.093911 1_555
O7 Sn1 2.093951 1_545
O8 Sn0 2.088954 1_455
O9 Sn1 2.088528 1_545
O10 Sn1 2.084996 1_555
O11 Sn0 2.084361 1_555
