# generated using pymatgen
data_BaYCo4O7
_symmetry_space_group_name_H-M   'P 1'
_cell_length_a   6.40020824
_cell_length_b   6.40020824
_cell_length_c   10.42089600
_cell_angle_alpha   90.00000000
_cell_angle_beta   90.00000000
_cell_angle_gamma   120.00000253
_symmetry_Int_Tables_number   1
_chemical_formula_structural   BaYCo4O7
_chemical_formula_sum   'Ba2 Y2 Co8 O14'
_cell_volume   369.67824364
_cell_formula_units_Z   2
loop_
 _symmetry_equiv_pos_site_id
 _symmetry_equiv_pos_as_xyz
  1  'x, y, z'
loop_
 _atom_site_type_symbol
 _atom_site_label
 _atom_site_symmetry_multiplicity
 _atom_site_fract_x
 _atom_site_fract_y
 _atom_site_fract_z
 _atom_site_occupancy
  Ba  Ba0  1  0.66666700  0.33333300  0.48350200  1
  Ba  Ba1  1  0.33333300  0.66666700  0.98350200  1
  Y  Y0  1  0.66666700  0.33333300  0.87976100  1
  Y  Y1  1  0.33333300  0.66666700  0.37976100  1
  Co  Co0  1  0.00000000  0.00000000  0.94644200  1
  Co  Co1  1  0.33828400  0.16914200  0.19048500  1
  Co  Co2  1  0.66171600  0.83085800  0.69048500  1
  Co  Co3  1  0.83085800  0.66171600  0.19048500  1
  Co  Co4  1  0.16914200  0.33828400  0.69048500  1
  Co  Co5  1  0.00000000  0.00000000  0.44644200  1
  Co  Co6  1  0.83085800  0.16914200  0.19048500  1
  Co  Co7  1  0.16914200  0.83085800  0.69048500  1
  O  O0  1  0.50851300  0.49148700  0.26200500  1
  O  O1  1  0.50851300  0.01702700  0.26200500  1
  O  O2  1  0.83283700  0.66567500  0.00629200  1
  O  O3  1  0.16716300  0.83283700  0.50629200  1
  O  O4  1  0.00000000  0.00000000  0.74795000  1
  O  O5  1  0.98297300  0.49148700  0.26200500  1
  O  O6  1  0.00000000  0.00000000  0.24795000  1
  O  O7  1  0.49148700  0.50851300  0.76200500  1
  O  O8  1  0.83283700  0.16716300  0.00629200  1
  O  O9  1  0.33432500  0.16716300  0.00629200  1
  O  O10  1  0.49148700  0.98297300  0.76200500  1
  O  O11  1  0.16716300  0.33432500  0.50629200  1
  O  O12  1  0.66567500  0.83283700  0.50629200  1
  O  O13  1  0.01702700  0.50851300  0.76200500  1
loop_
_geom_bond_atom_site_label_1
_geom_bond_atom_site_label_2
_geom_bond_distance
_geom_bond_site_symmetry_2
Ba0 O1 2.898533 1_555
Ba0 O5 2.898533 1_555
Ba0 O0 2.898540 1_555
Ba0 O3 3.208909 1_655
Ba0 O3 3.208909 1_545
Ba0 O11 3.208909 1_655
Ba0 O12 3.208909 1_545
Ba0 O12 3.208909 1_555
Ba0 O11 3.208909 1_555
Ba0 O13 3.492027 1_655
Ba0 O10 3.492027 1_545
Ba0 O7 3.492027 1_555
Ba1 O10 2.898533 1_555
Ba1 O13 2.898533 1_555
Ba1 O7 2.898540 1_555
Ba1 O8 3.208909 1_566
Ba1 O8 3.208909 1_456
Ba1 O9 3.208909 1_566
Ba1 O2 3.208909 1_456
Ba1 O2 3.208909 1_556
Ba1 O9 3.208909 1_556
Ba1 O1 3.492027 1_566
Ba1 O5 3.492027 1_456
Ba1 O0 3.492027 1_556
Co0 O2 1.955220 1_446
Co0 O9 1.955220 1_556
Co0 O8 1.955226 1_456
Co0 O4 2.068464 1_555
Co1 O9 1.919582 1_555
Co1 O1 1.936756 1_555
Co1 O0 1.936761 1_555
Co1 O6 1.968327 1_555
Co2 O12 1.919582 1_555
Co2 O10 1.936756 1_555
Co2 O7 1.936761 1_555
Co2 O4 1.968327 1_665
Co3 O2 1.919582 1_555
Co3 O5 1.936756 1_555
Co3 O0 1.936761 1_555
Co3 O6 1.968327 1_665
Co4 O11 1.919582 1_555
Co4 O13 1.936756 1_555
Co4 O7 1.936761 1_555
Co4 O4 1.968327 1_555
Co5 O12 1.955220 1_445
Co5 O11 1.955220 1_555
Co5 O3 1.955226 1_545
Co5 O6 2.068464 1_555
Co6 O8 1.919581 1_555
Co6 O5 1.936762 1_555
Co6 O1 1.936762 1_555
Co6 O6 1.968327 1_655
Co7 O3 1.919581 1_555
Co7 O10 1.936762 1_555
Co7 O13 1.936762 1_555
Co7 O4 1.968327 1_565
O0 Y1 2.297177 1_555
O1 Y1 2.297177 1_545
O2 Y0 2.265370 1_554
O3 Y1 2.265361 1_555
O5 Y1 2.297177 1_655
O7 Y0 2.297177 1_555
O8 Y0 2.265361 1_554
O9 Y0 2.265370 1_554
O10 Y0 2.297177 1_565
O11 Y1 2.265370 1_555
O12 Y1 2.265370 1_555
O13 Y0 2.297177 1_455
