# generated using pymatgen
data_NdRu3
_symmetry_space_group_name_H-M   'P 1'
_cell_length_a   6.32251800
_cell_length_b   10.44341192
_cell_length_c   10.44341192
_cell_angle_alpha   119.99999948
_cell_angle_beta   90.00000000
_cell_angle_gamma   90.00000000
_symmetry_Int_Tables_number   1
_chemical_formula_structural   NdRu3
_chemical_formula_sum   'Nd8 Ru24'
_cell_volume   597.18037167
_cell_formula_units_Z   8
loop_
 _symmetry_equiv_pos_site_id
 _symmetry_equiv_pos_as_xyz
  1  'x, y, z'
loop_
 _atom_site_type_symbol
 _atom_site_label
 _atom_site_symmetry_multiplicity
 _atom_site_fract_x
 _atom_site_fract_y
 _atom_site_fract_z
 _atom_site_occupancy
  Nd  Nd0_0  1  0.00000000  0.00000000  0.00000000  1
  Nd  Nd0_1  1  0.00000000  0.00000000  0.50000000  1
  Nd  Nd0_2  1  0.00000000  0.50000000  0.00000000  1
  Nd  Nd0_3  1  0.00000000  0.50000000  0.50000000  1
  Nd  Nd0_4  1  0.50000000  0.00000000  0.00000000  1
  Nd  Nd0_5  1  0.50000000  0.00000000  0.50000000  1
  Nd  Nd0_6  1  0.50000000  0.50000000  0.00000000  1
  Nd  Nd0_7  1  0.50000000  0.50000000  0.50000000  1
  Ru  Ru0_0  1  0.25000000  0.25000000  0.25000000  1
  Ru  Ru0_1  1  0.25000000  0.25000000  0.75000000  1
  Ru  Ru0_2  1  0.25000000  0.75000000  0.25000000  1
  Ru  Ru0_3  1  0.25000000  0.75000000  0.75000000  1
  Ru  Ru0_4  1  0.75000000  0.25000000  0.25000000  1
  Ru  Ru0_5  1  0.75000000  0.25000000  0.75000000  1
  Ru  Ru0_6  1  0.75000000  0.75000000  0.25000000  1
  Ru  Ru0_7  1  0.75000000  0.75000000  0.75000000  1
  Ru  Ru1_0  1  0.25000000  0.00000000  0.25000000  1
  Ru  Ru1_1  1  0.25000000  0.00000000  0.75000000  1
  Ru  Ru1_2  1  0.25000000  0.50000000  0.25000000  1
  Ru  Ru1_3  1  0.25000000  0.50000000  0.75000000  1
  Ru  Ru1_4  1  0.75000000  0.00000000  0.25000000  1
  Ru  Ru1_5  1  0.75000000  0.00000000  0.75000000  1
  Ru  Ru1_6  1  0.75000000  0.50000000  0.25000000  1
  Ru  Ru1_7  1  0.75000000  0.50000000  0.75000000  1
  Ru  Ru2_0  1  0.25000000  0.25000000  0.00000000  1
  Ru  Ru2_1  1  0.25000000  0.25000000  0.50000000  1
  Ru  Ru2_2  1  0.25000000  0.75000000  0.00000000  1
  Ru  Ru2_3  1  0.25000000  0.75000000  0.50000000  1
  Ru  Ru2_4  1  0.75000000  0.25000000  0.00000000  1
  Ru  Ru2_5  1  0.75000000  0.25000000  0.50000000  1
  Ru  Ru2_6  1  0.75000000  0.75000000  0.00000000  1
  Ru  Ru2_7  1  0.75000000  0.75000000  0.50000000  1
loop_
_geom_bond_atom_site_label_1
_geom_bond_atom_site_label_2
_geom_bond_distance
_geom_bond_site_symmetry_2
Nd0_0 Ru1_0 3.052039 1_555
Nd0_0 Ru2_4 3.052039 1_455
Nd0_0 Ru1_4 3.052039 1_455
Nd0_0 Ru2_0 3.052039 1_555
Nd0_0 Ru2_6 3.052039 1_445
Nd0_0 Ru1_5 3.052039 1_454
Nd0_0 Ru1_1 3.052039 1_554
Nd0_0 Ru2_2 3.052039 1_545
Nd0_0 Ru0_4 3.052039 1_455
Nd0_0 Ru0_0 3.052039 1_555
Nd0_0 Ru0_3 3.052039 1_544
Nd0_0 Ru0_7 3.052039 1_444
Nd0_1 Ru1_5 3.052039 1_455
Nd0_1 Ru1_1 3.052039 1_555
Nd0_1 Ru2_5 3.052039 1_455
Nd0_1 Ru1_0 3.052039 1_555
Nd0_1 Ru2_1 3.052039 1_555
Nd0_1 Ru1_4 3.052039 1_455
Nd0_1 Ru2_3 3.052039 1_545
Nd0_1 Ru2_7 3.052039 1_445
Nd0_1 Ru0_6 3.052039 1_445
Nd0_1 Ru0_5 3.052039 1_455
Nd0_1 Ru0_2 3.052039 1_545
Nd0_1 Ru0_1 3.052039 1_555
Nd0_2 Ru2_6 3.052039 1_455
Nd0_2 Ru2_2 3.052039 1_555
Nd0_2 Ru1_6 3.052039 1_455
Nd0_2 Ru2_4 3.052039 1_455
Nd0_2 Ru1_3 3.052039 1_554
Nd0_2 Ru2_0 3.052039 1_555
Nd0_2 Ru1_2 3.052039 1_555
Nd0_2 Ru1_7 3.052039 1_454
Nd0_2 Ru0_6 3.052039 1_455
Nd0_2 Ru0_5 3.052039 1_454
Nd0_2 Ru0_2 3.052039 1_555
Nd0_2 Ru0_1 3.052039 1_554
Nd0_3 Ru1_6 3.052039 1_455
Nd0_3 Ru1_7 3.052039 1_455
Nd0_3 Ru2_7 3.052039 1_455
Nd0_3 Ru2_5 3.052039 1_455
Nd0_3 Ru2_3 3.052039 1_555
Nd0_3 Ru1_3 3.052039 1_555
Nd0_3 Ru1_2 3.052039 1_555
Nd0_3 Ru2_1 3.052039 1_555
Nd0_3 Ru0_7 3.052039 1_455
Nd0_3 Ru0_3 3.052039 1_555
Nd0_3 Ru0_4 3.052039 1_455
Nd0_3 Ru0_0 3.052039 1_555
Nd0_4 Ru1_0 3.052039 1_555
Nd0_4 Ru2_0 3.052039 1_555
Nd0_4 Ru2_4 3.052039 1_555
Nd0_4 Ru1_4 3.052039 1_555
Nd0_4 Ru1_1 3.052039 1_554
Nd0_4 Ru2_2 3.052039 1_545
Nd0_4 Ru2_6 3.052039 1_545
Nd0_4 Ru1_5 3.052039 1_554
Nd0_4 Ru0_0 3.052039 1_555
Nd0_4 Ru0_4 3.052039 1_555
Nd0_4 Ru0_3 3.052039 1_544
Nd0_4 Ru0_7 3.052039 1_544
Nd0_5 Ru1_1 3.052039 1_555
Nd0_5 Ru1_5 3.052039 1_555
Nd0_5 Ru1_0 3.052039 1_555
Nd0_5 Ru2_1 3.052039 1_555
Nd0_5 Ru2_3 3.052039 1_545
Nd0_5 Ru2_7 3.052039 1_545
Nd0_5 Ru1_4 3.052039 1_555
Nd0_5 Ru2_5 3.052039 1_555
Nd0_5 Ru0_2 3.052039 1_545
Nd0_5 Ru0_5 3.052039 1_555
Nd0_5 Ru0_6 3.052039 1_545
Nd0_5 Ru0_1 3.052039 1_555
Nd0_6 Ru2_2 3.052039 1_555
Nd0_6 Ru2_6 3.052039 1_555
Nd0_6 Ru1_6 3.052039 1_555
Nd0_6 Ru1_3 3.052039 1_554
Nd0_6 Ru2_0 3.052039 1_555
Nd0_6 Ru1_2 3.052039 1_555
Nd0_6 Ru2_4 3.052039 1_555
Nd0_6 Ru1_7 3.052039 1_554
Nd0_6 Ru0_2 3.052039 1_555
Nd0_6 Ru0_1 3.052039 1_554
Nd0_6 Ru0_6 3.052039 1_555
Nd0_6 Ru0_5 3.052039 1_554
Nd0_7 Ru2_3 3.052039 1_555
Nd0_7 Ru1_3 3.052039 1_555
Nd0_7 Ru1_7 3.052039 1_555
Nd0_7 Ru1_2 3.052039 1_555
Nd0_7 Ru2_1 3.052039 1_555
Nd0_7 Ru2_7 3.052039 1_555
Nd0_7 Ru1_6 3.052039 1_555
Nd0_7 Ru2_5 3.052039 1_555
Nd0_7 Ru0_3 3.052039 1_555
Nd0_7 Ru0_7 3.052039 1_555
Nd0_7 Ru0_0 3.052039 1_555
Nd0_7 Ru0_4 3.052039 1_555
Ru0_0 Ru1_2 2.610853 1_555
Ru0_0 Ru2_1 2.610853 1_555
Ru0_0 Ru2_0 2.610853 1_555
Ru0_0 Ru1_0 2.610853 1_555
Ru0_0 Ru0_4 3.161259 1_455
Ru0_0 Ru0_4 3.161259 1_555
Ru0_1 Ru1_1 2.610853 1_555
Ru0_1 Ru2_0 2.610853 1_556
Ru0_1 Ru1_3 2.610853 1_555
Ru0_1 Ru2_1 2.610853 1_555
Ru0_1 Ru0_5 3.161259 1_455
Ru0_1 Ru0_5 3.161259 1_555
Ru0_2 Ru2_2 2.610853 1_555
Ru0_2 Ru1_0 2.610853 1_565
Ru0_2 Ru1_2 2.610853 1_555
Ru0_2 Ru2_3 2.610853 1_555
Ru0_2 Ru0_6 3.161259 1_455
Ru0_2 Ru0_6 3.161259 1_555
Ru0_3 Ru2_3 2.610853 1_555
Ru0_3 Ru1_3 2.610853 1_555
Ru0_3 Ru2_2 2.610853 1_556
Ru0_3 Ru1_1 2.610853 1_565
Ru0_3 Ru0_7 3.161259 1_455
Ru0_3 Ru0_7 3.161259 1_555
Ru0_4 Ru1_6 2.610853 1_555
Ru0_4 Ru2_5 2.610853 1_555
Ru0_4 Ru2_4 2.610853 1_555
Ru0_4 Ru1_4 2.610853 1_555
Ru0_5 Ru1_5 2.610853 1_555
Ru0_5 Ru1_7 2.610853 1_555
Ru0_5 Ru2_5 2.610853 1_555
Ru0_5 Ru2_4 2.610853 1_556
Ru0_6 Ru2_6 2.610853 1_555
Ru0_6 Ru2_7 2.610853 1_555
Ru0_6 Ru1_4 2.610853 1_565
Ru0_6 Ru1_6 2.610853 1_555
Ru0_7 Ru1_7 2.610853 1_555
Ru0_7 Ru2_7 2.610853 1_555
Ru0_7 Ru2_6 2.610853 1_556
Ru0_7 Ru1_5 2.610853 1_565
Ru1_0 Ru2_1 2.610853 1_555
Ru1_0 Ru2_2 2.610853 1_545
Ru1_0 Ru1_4 3.161259 1_455
Ru1_0 Ru1_4 3.161259 1_555
Ru1_1 Ru2_3 2.610853 1_545
Ru1_1 Ru2_0 2.610853 1_556
Ru1_1 Ru1_5 3.161259 1_455
Ru1_1 Ru1_5 3.161259 1_555
Ru1_2 Ru2_0 2.610853 1_555
Ru1_2 Ru2_3 2.610853 1_555
Ru1_2 Ru1_6 3.161259 1_455
Ru1_2 Ru1_6 3.161259 1_555
Ru1_3 Ru2_2 2.610853 1_556
Ru1_3 Ru2_1 2.610853 1_555
Ru1_3 Ru1_7 3.161259 1_455
Ru1_3 Ru1_7 3.161259 1_555
Ru1_4 Ru2_5 2.610853 1_555
Ru1_4 Ru2_6 2.610853 1_545
Ru1_5 Ru2_7 2.610853 1_545
Ru1_5 Ru2_4 2.610853 1_556
Ru1_6 Ru2_4 2.610853 1_555
Ru1_6 Ru2_7 2.610853 1_555
Ru1_7 Ru2_6 2.610853 1_556
Ru1_7 Ru2_5 2.610853 1_555
Ru2_0 Ru2_4 3.161259 1_455
Ru2_0 Ru2_4 3.161259 1_555
Ru2_1 Ru2_5 3.161259 1_455
Ru2_1 Ru2_5 3.161259 1_555
Ru2_2 Ru2_6 3.161259 1_455
Ru2_2 Ru2_6 3.161259 1_555
Ru2_3 Ru2_7 3.161259 1_455
Ru2_3 Ru2_7 3.161259 1_555
