# generated using pymatgen
data_Na2CrO4
_symmetry_space_group_name_H-M   'P 1'
_cell_length_a   5.41142714
_cell_length_b   5.41142678
_cell_length_c   7.07400946
_cell_angle_alpha   90.00000000
_cell_angle_beta   90.00000000
_cell_angle_gamma   114.90938358
_symmetry_Int_Tables_number   1
_chemical_formula_structural   Na2CrO4
_chemical_formula_sum   'Na4 Cr2 O8'
_cell_volume   187.88174169
_cell_formula_units_Z   2
loop_
 _symmetry_equiv_pos_site_id
 _symmetry_equiv_pos_as_xyz
  1  'x, y, z'
loop_
 _atom_site_type_symbol
 _atom_site_label
 _atom_site_symmetry_multiplicity
 _atom_site_fract_x
 _atom_site_fract_y
 _atom_site_fract_z
 _atom_site_occupancy
  Na  Na0  1  0.18605633  0.81394367  0.75000000  1
  Na  Na1  1  0.81394367  0.18605633  0.25000000  1
  Na  Na2  1  0.50000000  0.50000000  0.50000000  1
  Na  Na3  1  0.50000000  0.50000000  -0.00000000  1
  Cr  Cr0  1  0.85419536  0.14580464  0.75000000  1
  Cr  Cr1  1  0.14580464  0.85419536  0.25000000  1
  O  O0  1  0.25023883  0.74976117  0.06180222  1
  O  O1  1  0.74976117  0.25023883  0.56180222  1
  O  O2  1  0.74976117  0.25023883  0.93819778  1
  O  O3  1  0.25023883  0.74976117  0.43819778  1
  O  O4  1  0.19140066  0.27081862  0.75000000  1
  O  O5  1  0.80859934  0.72918138  0.25000000  1
  O  O6  1  0.72918138  0.80859934  0.75000000  1
  O  O7  1  0.27081862  0.19140066  0.25000000  1
loop_
_geom_bond_atom_site_label_1
_geom_bond_atom_site_label_2
_geom_bond_distance
_geom_bond_site_symmetry_2
Na0 O0 2.282094 1_556
Na0 O3 2.282094 1_555
Na0 O4 2.460304 1_565
Na0 O6 2.460304 1_455
Na1 O2 2.282094 1_554
Na1 O1 2.282094 1_555
Na1 O5 2.460304 1_545
Na1 O7 2.460304 1_655
Na2 O3 2.320208 1_555
Na2 O1 2.320208 1_555
Na2 O7 2.389529 1_555
Na2 O6 2.389529 1_555
Na2 O5 2.389529 1_555
Na2 O4 2.389529 1_555
Na3 O0 2.320208 1_555
Na3 O2 2.320208 1_554
Na3 O7 2.389529 1_555
Na3 O6 2.389529 1_554
Na3 O5 2.389529 1_555
Na3 O4 2.389529 1_554
Cr0 O1 1.637129 1_555
Cr0 O2 1.637129 1_555
Cr0 O6 1.657572 1_545
Cr0 O4 1.657572 1_655
Cr1 O3 1.637129 1_555
Cr1 O0 1.637129 1_555
Cr1 O7 1.657572 1_565
Cr1 O5 1.657572 1_455
