# generated using pymatgen
data_BaNb4O14
_symmetry_space_group_name_H-M   'P 1'
_cell_length_a   7.60218948
_cell_length_b   7.60218948
_cell_length_c   7.60218933
_cell_angle_alpha   60.10452817
_cell_angle_beta   60.10452817
_cell_angle_gamma   60.10453392
_symmetry_Int_Tables_number   1
_chemical_formula_structural   BaNb4O14
_chemical_formula_sum   'Ba1 Nb4 O14'
_cell_volume   311.40704013
_cell_formula_units_Z   1
loop_
 _symmetry_equiv_pos_site_id
 _symmetry_equiv_pos_as_xyz
  1  'x, y, z'
loop_
 _atom_site_type_symbol
 _atom_site_label
 _atom_site_symmetry_multiplicity
 _atom_site_fract_x
 _atom_site_fract_y
 _atom_site_fract_z
 _atom_site_occupancy
  Ba  Ba0  1  0.50000000  0.50000000  0.50000000  1
  Nb  Nb0  1  0.00000000  0.00000000  0.00000000  1
  Nb  Nb1  1  0.50000000  0.00000000  0.00000000  1
  Nb  Nb2  1  0.00000000  0.00000000  0.50000000  1
  Nb  Nb3  1  0.00000000  0.50000000  0.00000000  1
  O  O0  1  0.34184800  0.34184800  0.34184800  1
  O  O1  1  0.65815200  0.65815200  0.65815200  1
  O  O2  1  0.93241200  0.30954500  0.30954500  1
  O  O3  1  0.30941400  0.94068300  0.94068300  1
  O  O4  1  0.30954500  0.30954500  0.93241200  1
  O  O5  1  0.94068300  0.94068300  0.30941400  1
  O  O6  1  0.94068300  0.30941400  0.94068300  1
  O  O7  1  0.30954500  0.93241200  0.30954500  1
  O  O8  1  0.06758800  0.69045500  0.69045500  1
  O  O9  1  0.69058600  0.05931700  0.05931700  1
  O  O10  1  0.69045500  0.69045500  0.06758800  1
  O  O11  1  0.05931700  0.05931700  0.69058600  1
  O  O12  1  0.05931700  0.69058600  0.05931700  1
  O  O13  1  0.69045500  0.06758800  0.69045500  1
loop_
_geom_bond_atom_site_label_1
_geom_bond_atom_site_label_2
_geom_bond_distance
_geom_bond_site_symmetry_2
Ba0 O4 2.756729 1_555
Ba0 O10 2.756729 1_555
Ba0 O2 2.756729 1_555
Ba0 O7 2.756729 1_555
Ba0 O8 2.756729 1_555
Ba0 O13 2.756729 1_555
Ba0 O1 2.942696 1_555
Ba0 O0 2.942696 1_555
Nb0 O11 2.006898 1_554
Nb0 O5 2.006898 1_445
Nb0 O12 2.006898 1_545
Nb0 O9 2.006898 1_455
Nb0 O6 2.006898 1_454
Nb0 O3 2.006898 1_544
Nb1 O3 2.002797 1_544
Nb1 O9 2.002797 1_555
Nb1 O13 2.009449 1_554
Nb1 O7 2.009449 1_545
Nb1 O10 2.009449 1_545
Nb1 O4 2.009449 1_554
Nb2 O5 2.002797 1_445
Nb2 O11 2.002797 1_555
Nb2 O2 2.009449 1_455
Nb2 O13 2.009449 1_455
Nb2 O7 2.009449 1_545
Nb2 O8 2.009449 1_545
Nb3 O6 2.002797 1_454
Nb3 O12 2.002797 1_555
Nb3 O2 2.009449 1_455
Nb3 O8 2.009449 1_554
Nb3 O10 2.009449 1_455
Nb3 O4 2.009449 1_554
