# generated using pymatgen
data_CsNa3P4(H2O5)3
_symmetry_space_group_name_H-M   'P 1'
_cell_length_a   11.01715005
_cell_length_b   11.68810588
_cell_length_c   11.88152409
_cell_angle_alpha   95.39771839
_cell_angle_beta   90.00000000
_cell_angle_gamma   90.00000000
_symmetry_Int_Tables_number   1
_chemical_formula_structural   CsNa3P4(H2O5)3
_chemical_formula_sum   'Cs4 Na12 P16 H24 O60'
_cell_volume   1523.19492785
_cell_formula_units_Z   4
loop_
 _symmetry_equiv_pos_site_id
 _symmetry_equiv_pos_as_xyz
  1  'x, y, z'
loop_
 _atom_site_type_symbol
 _atom_site_label
 _atom_site_symmetry_multiplicity
 _atom_site_fract_x
 _atom_site_fract_y
 _atom_site_fract_z
 _atom_site_occupancy
  Cs  Cs0  1  0.72585305  0.75094664  0.72758917  1
  Cs  Cs1  1  0.22585305  0.24905336  0.77241083  1
  Cs  Cs2  1  0.27414695  0.24905336  0.27241083  1
  Cs  Cs3  1  0.77414695  0.75094664  0.22758917  1
  Na  Na0  1  0.50000000  0.50000000  0.50000000  1
  Na  Na1  1  0.00000000  0.50000000  -0.00000000  1
  Na  Na2  1  0.00000000  0.00000000  0.50000000  1
  Na  Na3  1  0.50000000  -0.00000000  0.00000000  1
  Na  Na4  1  0.87579989  0.11496577  0.28812241  1
  Na  Na5  1  0.37579989  0.88503423  0.21187759  1
  Na  Na6  1  0.12420011  0.88503423  0.71187759  1
  Na  Na7  1  0.62420011  0.11496577  0.78812241  1
  Na  Na8  1  0.15808049  0.60920227  0.78709469  1
  Na  Na9  1  0.65808049  0.39079773  0.71290531  1
  Na  Na10  1  0.84191951  0.39079773  0.21290531  1
  Na  Na11  1  0.34191951  0.60920227  0.28709469  1
  P  P0  1  0.48777087  0.81100064  0.46849187  1
  P  P1  1  0.98777087  0.18899936  0.03150813  1
  P  P2  1  0.51222913  0.18899936  0.53150813  1
  P  P3  1  0.01222913  0.81100064  0.96849187  1
  P  P4  1  0.68760973  0.98837173  0.50221366  1
  P  P5  1  0.18760973  0.01162827  0.99778634  1
  P  P6  1  0.31239027  0.01162827  0.49778634  1
  P  P7  1  0.81239027  0.98837173  0.00221366  1
  P  P8  1  0.00889807  0.67733475  0.49689967  1
  P  P9  1  0.50889807  0.32266525  0.00310033  1
  P  P10  1  0.99110193  0.32266525  0.50310033  1
  P  P11  1  0.49110193  0.67733475  0.99689967  1
  P  P12  1  0.69789597  0.50582218  0.96920367  1
  P  P13  1  0.19789597  0.49417782  0.53079633  1
  P  P14  1  0.30210403  0.49417782  0.03079633  1
  P  P15  1  0.80210403  0.50582218  0.46920367  1
  H  H0  1  0.88789787  0.52552280  0.81474436  1
  H  H1  1  0.38789787  0.47447720  0.68525564  1
  H  H2  1  0.11210213  0.47447720  0.18525564  1
  H  H3  1  0.61210213  0.52552280  0.31474436  1
  H  H4  1  0.02530939  0.55208667  0.26474941  1
  H  H5  1  0.52530939  0.44791333  0.23525059  1
  H  H6  1  0.97469061  0.44791333  0.73525059  1
  H  H7  1  0.47469061  0.55208667  0.76474941  1
  H  H8  1  0.05735890  0.93011736  0.23454957  1
  H  H9  1  0.55735890  0.06988264  0.26545043  1
  H  H10  1  0.94264110  0.06988264  0.76545043  1
  H  H11  1  0.44264110  0.93011736  0.73454957  1
  H  H12  1  0.14174815  0.99478800  0.32307588  1
  H  H13  1  0.64174815  0.00521200  0.17692412  1
  H  H14  1  0.85825185  0.00521200  0.67692412  1
  H  H15  1  0.35825185  0.99478800  0.82307588  1
  H  H16  1  0.13781399  0.74257922  0.28330797  1
  H  H17  1  0.63781399  0.25742078  0.21669203  1
  H  H18  1  0.86218601  0.25742078  0.71669203  1
  H  H19  1  0.36218601  0.74257922  0.78330797  1
  H  H20  1  0.14386046  0.73467841  0.15355966  1
  H  H21  1  0.64386046  0.26532159  0.34644034  1
  H  H22  1  0.85613954  0.26532159  0.84644034  1
  H  H23  1  0.35613954  0.73467841  0.65355966  1
  O  O0  1  0.50008770  0.72324122  0.55234542  1
  O  O1  1  0.00008770  0.27675878  0.94765458  1
  O  O2  1  0.49991230  0.27675878  0.44765458  1
  O  O3  1  0.99991230  0.72324122  0.05234542  1
  O  O4  1  0.06029251  0.77733930  0.85289048  1
  O  O5  1  0.56029251  0.22266070  0.64710952  1
  O  O6  1  0.93970749  0.22266070  0.14710952  1
  O  O7  1  0.43970749  0.77733930  0.35289048  1
  O  O8  1  0.20118474  0.00162727  0.56885398  1
  O  O9  1  0.70118474  0.99837273  0.93114602  1
  O  O10  1  0.79881526  0.99837273  0.43114602  1
  O  O11  1  0.29881526  0.00162727  0.06885398  1
  O  O12  1  0.70011199  0.98989066  0.62838670  1
  O  O13  1  0.20011199  0.01010934  0.87161330  1
  O  O14  1  0.29988801  0.01010934  0.37161330  1
  O  O15  1  0.79988801  0.98989066  0.12838670  1
  O  O16  1  0.09059806  0.91604223  0.03297781  1
  O  O17  1  0.59059806  0.08395777  0.46702219  1
  O  O18  1  0.90940194  0.08395777  0.96702219  1
  O  O19  1  0.40940194  0.91604223  0.53297781  1
  O  O20  1  0.12001853  0.12897239  0.04875442  1
  O  O21  1  0.62001853  0.87102761  0.45124558  1
  O  O22  1  0.87998147  0.87102761  0.95124558  1
  O  O23  1  0.37998147  0.12897239  0.54875442  1
  O  O24  1  0.49926724  0.79261131  0.06240222  1
  O  O25  1  0.99926724  0.20738869  0.43759778  1
  O  O26  1  0.50073276  0.20738869  0.93759778  1
  O  O27  1  0.00073276  0.79261131  0.56240222  1
  O  O28  1  0.97225569  0.33283561  0.62872652  1
  O  O29  1  0.47225569  0.66716439  0.87127348  1
  O  O30  1  0.02774431  0.66716439  0.37127348  1
  O  O31  1  0.52774431  0.33283561  0.12872652  1
  O  O32  1  0.23679631  0.46262689  0.64524926  1
  O  O33  1  0.73679631  0.53737311  0.85475074  1
  O  O34  1  0.76320369  0.53737311  0.35475074  1
  O  O35  1  0.26320369  0.46262689  0.14524926  1
  O  O36  1  0.79138517  0.48321774  0.05552054  1
  O  O37  1  0.29138517  0.51678226  0.44447946  1
  O  O38  1  0.20861483  0.51678226  0.94447946  1
  O  O39  1  0.70861483  0.48321774  0.55552054  1
  O  O40  1  0.88884506  0.39472150  0.44049951  1
  O  O41  1  0.38884506  0.60527850  0.05950049  1
  O  O42  1  0.11115494  0.60527850  0.55950049  1
  O  O43  1  0.61115494  0.39472150  0.94049951  1
  O  O44  1  0.88860087  0.60556013  0.52993007  1
  O  O45  1  0.38860087  0.39443987  0.97006993  1
  O  O46  1  0.11139913  0.39443987  0.47006993  1
  O  O47  1  0.61139913  0.60556013  0.02993007  1
  O  O48  1  0.52516272  0.50940295  0.29857047  1
  O  O49  1  0.02516272  0.49059705  0.20142953  1
  O  O50  1  0.47483728  0.49059705  0.70142953  1
  O  O51  1  0.97483728  0.50940295  0.79857047  1
  O  O52  1  0.55497174  0.01610383  0.19778206  1
  O  O53  1  0.05497174  0.98389617  0.30221794  1
  O  O54  1  0.44502826  0.98389617  0.80221794  1
  O  O55  1  0.94502826  0.01610383  0.69778206  1
  O  O56  1  0.19517817  0.75210307  0.22090531  1
  O  O57  1  0.69517817  0.24789693  0.27909469  1
  O  O58  1  0.80482183  0.24789693  0.77909469  1
  O  O59  1  0.30482183  0.75210307  0.72090531  1
loop_
_geom_bond_atom_site_label_1
_geom_bond_atom_site_label_2
_geom_bond_distance
_geom_bond_site_symmetry_2
Cs0 O33 3.039442 1_555
Cs0 O12 3.144641 1_555
Cs0 O0 3.240374 1_555
Cs0 O44 3.296529 1_555
Cs0 O22 3.348616 1_555
Cs0 H14 3.414486 1_565
Cs0 H0 3.422704 1_555
Cs0 O29 3.463228 1_555
Cs0 O39 3.578316 1_555
Cs0 O9 3.601493 1_555
Cs0 O27 3.666089 1_655
Cs1 O32 3.039442 1_555
Cs1 O13 3.144641 1_555
Cs1 O1 3.240374 1_555
Cs1 O45 3.296529 1_555
Cs1 O23 3.348616 1_555
Cs1 H15 3.414486 1_545
Cs1 H1 3.422704 1_555
Cs1 O28 3.463228 1_455
Cs1 O38 3.578316 1_555
Cs1 O8 3.601493 1_555
Cs1 O26 3.666089 1_555
Cs2 O35 3.039442 1_555
Cs2 O14 3.144641 1_555
Cs2 O2 3.240374 1_555
Cs2 O46 3.296529 1_555
Cs2 O20 3.348616 1_555
Cs2 H12 3.414486 1_545
Cs2 H2 3.422704 1_555
Cs2 O31 3.463228 1_555
Cs2 O37 3.578316 1_555
Cs2 O11 3.601493 1_555
Cs2 O25 3.666089 1_455
Cs3 O34 3.039442 1_555
Cs3 O15 3.144641 1_555
Cs3 O3 3.240374 1_555
Cs3 O47 3.296529 1_555
Cs3 O21 3.348616 1_555
Cs3 H13 3.414486 1_565
Cs3 H3 3.422704 1_555
Cs3 O30 3.463228 1_655
Cs3 O36 3.578316 1_555
Cs3 O10 3.601493 1_555
Cs3 O24 3.666089 1_555
Na0 O37 2.404237 1_555
Na0 O39 2.404237 1_555
Na0 O50 2.422035 1_555
Na0 O48 2.422035 1_555
Na0 O0 2.624838 1_555
Na0 O2 2.624838 1_555
Na1 O38 2.404237 1_554
Na1 O36 2.404237 1_455
Na1 O51 2.422035 1_454
Na1 O49 2.422035 1_555
Na1 O3 2.624838 1_455
Na1 O1 2.624838 1_554
Na2 O10 2.362097 1_445
Na2 O8 2.362097 1_555
Na2 O55 2.416874 1_455
Na2 O53 2.416874 1_545
Na2 O27 2.600692 1_545
Na2 O25 2.600692 1_455
Na3 O11 2.362097 1_555
Na3 O9 2.362097 1_544
Na3 O54 2.416874 1_544
Na3 O52 2.416874 1_555
Na3 O26 2.600692 1_554
Na3 O24 2.600692 1_545
Na4 O6 2.298713 1_555
Na4 O25 2.410488 1_555
Na4 O10 2.428969 1_545
Na4 O15 2.432411 1_545
Na4 O53 2.513908 1_645
Na4 O57 2.533127 1_555
Na5 O7 2.298713 1_555
Na5 O24 2.410488 1_555
Na5 O11 2.428969 1_565
Na5 O14 2.432411 1_565
Na5 O52 2.513908 1_565
Na5 O56 2.533127 1_555
Na6 O4 2.298713 1_555
Na6 O27 2.410488 1_555
Na6 O8 2.428969 1_565
Na6 O13 2.432411 1_565
Na6 O55 2.513908 1_465
Na6 O59 2.533127 1_555
Na7 O5 2.298713 1_555
Na7 O26 2.410488 1_555
Na7 O9 2.428969 1_545
Na7 O12 2.432411 1_545
Na7 O54 2.513908 1_545
Na7 O58 2.533127 1_555
Na8 O4 2.311882 1_555
Na8 O38 2.313796 1_555
Na8 O51 2.341961 1_455
Na8 O32 2.446273 1_555
Na8 O59 2.503782 1_555
Na8 O42 2.749283 1_555
Na9 O5 2.311882 1_555
Na9 O39 2.313796 1_555
Na9 O50 2.341961 1_555
Na9 O33 2.446273 1_555
Na9 O58 2.503782 1_555
Na9 O43 2.749283 1_555
Na10 O6 2.311882 1_555
Na10 O36 2.313796 1_555
Na10 O49 2.341961 1_655
Na10 O34 2.446273 1_555
Na10 O57 2.503782 1_555
Na10 O40 2.749283 1_555
Na11 O7 2.311882 1_555
Na11 O37 2.313796 1_555
Na11 O48 2.341961 1_555
Na11 O35 2.446273 1_555
Na11 O56 2.503782 1_555
Na11 O41 2.749283 1_555
H0 O51 0.991486 1_555
H0 O33 1.733204 1_555
H1 O50 0.991486 1_555
H1 O32 1.733204 1_555
H2 O49 0.991486 1_555
H2 O35 1.733204 1_555
H3 O48 0.991486 1_555
H3 O34 1.733204 1_555
H4 O49 0.990360 1_555
H5 O48 0.990360 1_555
H6 O51 0.990360 1_555
H7 O50 0.990360 1_555
H8 O53 0.973209 1_555
H9 O52 0.973209 1_555
H10 O55 0.973209 1_555
H11 O54 0.973209 1_555
H12 O53 0.992814 1_555
H13 O52 0.992814 1_555
H14 O55 0.992814 1_555
H15 O54 0.992814 1_555
H16 O56 0.988464 1_555
H17 O57 0.988464 1_555
H18 O58 0.988464 1_555
H19 O59 0.988464 1_555
H20 O56 0.985260 1_555
H21 O57 0.985260 1_555
H22 O58 0.985260 1_555
H23 O59 0.985260 1_555
O0 P0 1.501818 1_555
O1 P1 1.501818 1_456
O2 P2 1.501818 1_555
O3 P3 1.501818 1_654
O4 P3 1.489992 1_555
O5 P2 1.489992 1_555
O6 P1 1.489992 1_555
O7 P0 1.489992 1_555
O8 P6 1.498755 1_555
O9 P7 1.498755 1_556
O10 P4 1.498755 1_555
O11 P5 1.498755 1_554
O12 P4 1.503883 1_555
O13 P5 1.503883 1_555
O14 P6 1.503883 1_555
O15 P7 1.503883 1_555
O16 P5 1.628869 1_564
O16 P3 1.631831 1_554
O17 P4 1.628869 1_545
O17 P2 1.631831 1_555
O18 P7 1.628869 1_546
O18 P1 1.631831 1_556
O19 P6 1.628869 1_565
O19 P0 1.631831 1_555
O20 P5 1.626678 1_554
O20 P1 1.638325 1_455
O21 P4 1.626678 1_555
O21 P0 1.638325 1_555
O22 P7 1.626678 1_556
O22 P3 1.638325 1_655
O23 P6 1.626678 1_555
O23 P2 1.638325 1_555
O24 P11 1.493956 1_554
O25 P10 1.493956 1_555
O26 P9 1.493956 1_556
O27 P8 1.493956 1_555
O28 P10 1.500602 1_555
O29 P11 1.500602 1_555
O30 P8 1.500602 1_555
O31 P9 1.500602 1_555
O32 P13 1.504418 1_555
O33 P12 1.504418 1_555
O34 P15 1.504418 1_555
O35 P14 1.504418 1_555
O36 P12 1.494475 1_554
O37 P13 1.494475 1_555
O38 P14 1.494475 1_556
O39 P15 1.494475 1_555
O40 P15 1.622495 1_555
O40 P10 1.627749 1_555
O41 P14 1.622495 1_555
O41 P11 1.627749 1_554
O42 P13 1.622495 1_555
O42 P8 1.627749 1_555
O43 P12 1.622495 1_555
O43 P9 1.627749 1_556
O44 P15 1.621551 1_555
O44 P8 1.635920 1_655
O45 P14 1.621551 1_556
O45 P9 1.635920 1_556
O46 P13 1.621551 1_555
O46 P10 1.635920 1_455
O47 P12 1.621551 1_554
O47 P11 1.635920 1_554
