# generated using pymatgen
data_Ba7CN6
_symmetry_space_group_name_H-M   'P 1'
_cell_length_a   12.31430100
_cell_length_b   7.12068900
_cell_length_c   13.92225200
_cell_angle_alpha   90.00000000
_cell_angle_beta   90.00000000
_cell_angle_gamma   90.00000000
_symmetry_Int_Tables_number   1
_chemical_formula_structural   Ba7CN6
_chemical_formula_sum   'Ba28 C4 N24'
_cell_volume   1220.79087238
_cell_formula_units_Z   4
loop_
 _symmetry_equiv_pos_site_id
 _symmetry_equiv_pos_as_xyz
  1  'x, y, z'
loop_
 _atom_site_type_symbol
 _atom_site_label
 _atom_site_symmetry_multiplicity
 _atom_site_fract_x
 _atom_site_fract_y
 _atom_site_fract_z
 _atom_site_occupancy
  Ba  Ba0  1  0.04996600  0.74489100  0.99204100  1
  Ba  Ba1  1  0.45003400  0.75510900  0.49204100  1
  Ba  Ba2  1  0.54996600  0.75510900  0.00795900  1
  Ba  Ba3  1  0.95003400  0.74489100  0.50795900  1
  Ba  Ba4  1  0.95003400  0.25510900  0.00795900  1
  Ba  Ba5  1  0.54996600  0.24489100  0.50795900  1
  Ba  Ba6  1  0.45003400  0.24489100  0.99204100  1
  Ba  Ba7  1  0.04996600  0.25510900  0.49204100  1
  Ba  Ba8  1  0.20654300  0.86740400  0.62143800  1
  Ba  Ba9  1  0.29345700  0.63259600  0.12143800  1
  Ba  Ba10  1  0.70654300  0.63259600  0.37856200  1
  Ba  Ba11  1  0.79345700  0.86740400  0.87856200  1
  Ba  Ba12  1  0.79345700  0.13259600  0.37856200  1
  Ba  Ba13  1  0.70654300  0.36740400  0.87856200  1
  Ba  Ba14  1  0.29345700  0.36740400  0.62143800  1
  Ba  Ba15  1  0.20654300  0.13259600  0.12143800  1
  Ba  Ba16  1  0.30332900  0.63258800  0.85230600  1
  Ba  Ba17  1  0.19667100  0.86741200  0.35230600  1
  Ba  Ba18  1  0.80332900  0.86741200  0.14769400  1
  Ba  Ba19  1  0.69667100  0.63258800  0.64769400  1
  Ba  Ba20  1  0.69667100  0.36741200  0.14769400  1
  Ba  Ba21  1  0.80332900  0.13258800  0.64769400  1
  Ba  Ba22  1  0.19667100  0.13258800  0.85230600  1
  Ba  Ba23  1  0.30332900  0.36741200  0.35230600  1
  Ba  Ba24  1  0.00000000  0.48586400  0.75000000  1
  Ba  Ba25  1  0.50000000  0.01413600  0.25000000  1
  Ba  Ba26  1  0.00000000  0.51413600  0.25000000  1
  Ba  Ba27  1  0.50000000  0.98586400  0.75000000  1
  C  C0  1  0.00000000  0.92984800  0.75000000  1
  C  C1  1  0.50000000  0.57015200  0.25000000  1
  C  C2  1  0.00000000  0.07015200  0.25000000  1
  C  C3  1  0.50000000  0.42984800  0.75000000  1
  N  N0  1  0.09736300  0.80258700  0.78695700  1
  N  N1  1  0.40263700  0.69741300  0.28695700  1
  N  N2  1  0.59736300  0.69741300  0.21304300  1
  N  N3  1  0.90263700  0.80258700  0.71304300  1
  N  N4  1  0.90263700  0.19741300  0.21304300  1
  N  N5  1  0.59736300  0.30258700  0.71304300  1
  N  N6  1  0.40263700  0.30258700  0.78695700  1
  N  N7  1  0.09736300  0.19741300  0.28695700  1
  N  N8  1  0.15315500  0.60924000  0.49327600  1
  N  N9  1  0.34684500  0.89076000  0.99327600  1
  N  N10  1  0.65315500  0.89076000  0.50672400  1
  N  N11  1  0.84684500  0.60924000  0.00672400  1
  N  N12  1  0.84684500  0.39076000  0.50672400  1
  N  N13  1  0.65315500  0.10924000  0.00672400  1
  N  N14  1  0.34684500  0.10924000  0.49327600  1
  N  N15  1  0.15315500  0.39076000  0.99327600  1
  N  N16  1  0.46989200  0.55379200  0.66424000  1
  N  N17  1  0.03010800  0.94620800  0.16424000  1
  N  N18  1  0.96989200  0.94620800  0.33576000  1
  N  N19  1  0.53010800  0.55379200  0.83576000  1
  N  N20  1  0.53010800  0.44620800  0.33576000  1
  N  N21  1  0.96989200  0.05379200  0.83576000  1
  N  N22  1  0.03010800  0.05379200  0.66424000  1
  N  N23  1  0.46989200  0.44620800  0.16424000  1
loop_
_geom_bond_atom_site_label_1
_geom_bond_atom_site_label_2
_geom_bond_distance
_geom_bond_site_symmetry_2
Ba0 N11 2.689103 1_456
Ba0 N17 2.803976 1_556
Ba0 N15 2.823779 1_555
Ba0 N0 2.943092 1_555
Ba0 N21 3.247234 1_465
Ba1 N10 2.689103 1_555
Ba1 N16 2.803976 1_555
Ba1 N14 2.823779 1_565
Ba1 N1 2.943092 1_555
Ba1 N20 3.247234 1_555
Ba2 N9 2.689103 1_554
Ba2 N19 2.803976 1_554
Ba2 N13 2.823779 1_565
Ba2 N2 2.943092 1_555
Ba2 N23 3.247234 1_555
Ba3 N8 2.689103 1_655
Ba3 N18 2.803976 1_555
Ba3 N12 2.823779 1_555
Ba3 N3 2.943092 1_555
Ba3 N22 3.247234 1_665
Ba4 N15 2.689103 1_654
Ba4 N21 2.803976 1_554
Ba4 N11 2.823779 1_555
Ba4 N4 2.943092 1_555
Ba4 N17 3.247234 1_645
Ba5 N14 2.689103 1_555
Ba5 N20 2.803976 1_555
Ba5 N10 2.823779 1_545
Ba5 N5 2.943092 1_555
Ba5 N16 3.247234 1_555
Ba6 N13 2.689103 1_556
Ba6 N23 2.803976 1_556
Ba6 N9 2.823779 1_545
Ba6 N6 2.943092 1_555
Ba6 N19 3.247234 1_555
Ba7 N12 2.689103 1_455
Ba7 N22 2.803976 1_555
Ba7 N8 2.823779 1_555
Ba7 N7 2.943092 1_555
Ba7 N18 3.247234 1_445
Ba8 N22 2.614784 1_565
Ba8 N8 2.644868 1_555
Ba8 N0 2.707560 1_555
Ba8 N14 3.022280 1_565
Ba9 N23 2.614784 1_555
Ba9 N9 2.644868 1_554
Ba9 N1 2.707560 1_555
Ba9 N15 3.022280 1_554
Ba10 N20 2.614784 1_555
Ba10 N10 2.644868 1_555
Ba10 N2 2.707560 1_555
Ba10 N12 3.022280 1_555
Ba11 N21 2.614784 1_565
Ba11 N11 2.644868 1_556
Ba11 N3 2.707560 1_555
Ba11 N13 3.022280 1_566
Ba12 N18 2.614784 1_545
Ba12 N12 2.644868 1_555
Ba12 N4 2.707560 1_555
Ba12 N10 3.022280 1_545
Ba13 N19 2.614784 1_555
Ba13 N13 2.644868 1_556
Ba13 N5 2.707560 1_555
Ba13 N11 3.022280 1_556
Ba14 N16 2.614784 1_555
Ba14 N14 2.644868 1_555
Ba14 N6 2.707560 1_555
Ba14 N8 3.022280 1_555
Ba15 N17 2.614784 1_545
Ba15 N15 2.644868 1_554
Ba15 N7 2.707560 1_555
Ba15 N9 3.022280 1_544
Ba16 N9 2.742008 1_555
Ba16 N6 2.800888 1_555
Ba16 N19 2.857732 1_555
Ba16 N0 2.953987 1_555
Ba16 N15 3.199526 1_555
Ba17 N8 2.742008 1_555
Ba17 N7 2.800888 1_565
Ba17 N18 2.857732 1_455
Ba17 N1 2.953987 1_555
Ba17 N14 3.199526 1_565
Ba18 N11 2.742008 1_555
Ba18 N4 2.800888 1_565
Ba18 N17 2.857732 1_655
Ba18 N2 2.953987 1_555
Ba18 N13 3.199526 1_565
Ba19 N10 2.742008 1_555
Ba19 N5 2.800888 1_555
Ba19 N16 2.857732 1_555
Ba19 N3 2.953987 1_555
Ba19 N12 3.199526 1_555
Ba20 N13 2.742008 1_555
Ba20 N2 2.800888 1_555
Ba20 N23 2.857732 1_555
Ba20 N4 2.953987 1_555
Ba20 N11 3.199526 1_555
Ba21 N12 2.742008 1_555
Ba21 N3 2.800888 1_545
Ba21 N22 2.857732 1_655
Ba21 N5 2.953987 1_555
Ba21 N10 3.199526 1_545
Ba22 N15 2.742008 1_555
Ba22 N0 2.800888 1_545
Ba22 N21 2.857732 1_455
Ba22 N6 2.953987 1_555
Ba22 N9 3.199526 1_545
Ba23 N14 2.742008 1_555
Ba23 N1 2.800888 1_555
Ba23 N20 2.857732 1_555
Ba23 N7 2.953987 1_555
Ba23 N8 3.199526 1_555
Ba24 N0 2.605484 1_555
Ba24 N3 2.605484 1_455
Ba24 N22 3.320965 1_555
Ba24 N21 3.320965 1_455
Ba25 N2 2.605484 1_545
Ba25 N1 2.605484 1_545
Ba25 N20 3.320965 1_555
Ba25 N23 3.320965 1_555
Ba26 N7 2.605484 1_555
Ba26 N4 2.605484 1_455
Ba26 N17 3.320965 1_555
Ba26 N18 3.320965 1_455
Ba27 N5 2.605484 1_565
Ba27 N6 2.605484 1_565
Ba27 N16 3.320965 1_555
Ba27 N19 3.320965 1_555
C0 N22 1.530345 1_565
C0 N21 1.530345 1_465
C0 N0 1.588524 1_555
C0 N3 1.588524 1_455
C1 N23 1.530345 1_555
C1 N20 1.530345 1_555
C1 N2 1.588524 1_555
C1 N1 1.588524 1_555
C2 N17 1.530345 1_545
C2 N18 1.530345 1_445
C2 N7 1.588524 1_555
C2 N4 1.588524 1_455
C3 N16 1.530345 1_555
C3 N19 1.530345 1_555
C3 N5 1.588524 1_555
C3 N6 1.588524 1_555
