# generated using pymatgen
data_Ta6V3Co3C2
_symmetry_space_group_name_H-M   'P 1'
_cell_length_a   8.14975266
_cell_length_b   8.14975266
_cell_length_c   8.14975266
_cell_angle_alpha   120.15022843
_cell_angle_beta   119.94089769
_cell_angle_gamma   89.92119630
_symmetry_Int_Tables_number   1
_chemical_formula_structural   Ta6V3Co3C2
_chemical_formula_sum   'Ta12 V6 Co6 C4'
_cell_volume   382.48713465
_cell_formula_units_Z   2
loop_
 _symmetry_equiv_pos_site_id
 _symmetry_equiv_pos_as_xyz
  1  'x, y, z'
loop_
 _atom_site_type_symbol
 _atom_site_label
 _atom_site_symmetry_multiplicity
 _atom_site_fract_x
 _atom_site_fract_y
 _atom_site_fract_z
 _atom_site_occupancy
  Ta  Ta0  1  0.06847800  0.56847800  0.50000000  1
  Ta  Ta1  1  0.68334600  0.18334600  0.50000000  1
  Ta  Ta2  1  0.06578100  0.18175800  0.49898700  1
  Ta  Ta3  1  0.68277100  0.56679400  0.50101300  1
  Ta  Ta4  1  0.68277100  0.18175800  0.11597700  1
  Ta  Ta5  1  0.06578100  0.56679400  0.88402300  1
  Ta  Ta6  1  0.43368500  0.43368500  0.00000000  1
  Ta  Ta7  1  0.81764600  0.81764600  0.00000000  1
  Ta  Ta8  1  0.43374900  0.81544500  0.99855000  1
  Ta  Ta9  1  0.81689500  0.43519900  0.00145000  1
  Ta  Ta10  1  0.81689500  0.81544500  0.38169500  1
  Ta  Ta11  1  0.43374900  0.43519900  0.61830500  1
  V  V0  1  0.75486200  0.00430500  0.75055800  1
  V  V1  1  0.25374700  0.00430500  0.24944200  1
  V  V2  1  0.24792900  0.48978300  0.24185400  1
  V  V3  1  0.24792900  0.00607500  0.75814600  1
  V  V4  1  0.13474300  0.79559300  0.33915000  1
  V  V5  1  0.45644300  0.79559300  0.66085000  1
  Co  Co0  1  0.45574600  0.11466200  0.65891600  1
  Co  Co1  1  0.45574600  0.79682900  0.34108400  1
  Co  Co2  1  0.35887400  0.20223600  0.15663800  1
  Co  Co3  1  0.04559800  0.20223600  0.84336200  1
  Co  Co4  1  0.04501500  0.88707100  0.84205600  1
  Co  Co5  1  0.04501500  0.20296000  0.15794400  1
  C  C0  1  0.25150800  0.49949000  0.75201800  1
  C  C1  1  0.74747300  0.49949000  0.24798200  1
  C  C2  1  0.74891300  0.99960400  0.25069100  1
  C  C3  1  0.74891300  0.49822200  0.74930900  1
loop_
_geom_bond_atom_site_label_1
_geom_bond_atom_site_label_2
_geom_bond_distance
_geom_bond_site_symmetry_2
Ta0 V5 2.929644 1_555
Ta0 V4 2.929644 1_555
Ta0 V2 2.947810 1_555
Ta0 V3 2.947810 1_565
Ta1 V1 2.905373 1_555
Ta1 V0 2.905374 1_555
Ta2 V4 2.919764 1_545
Ta2 V3 2.935419 1_555
Ta2 V1 2.953545 1_555
Ta3 V5 2.919764 1_555
Ta3 V2 2.935419 1_555
Ta3 V0 2.953546 1_565
Ta4 V5 2.919764 1_544
Ta4 V3 2.935419 1_554
Ta4 V0 2.953540 1_554
Ta5 V4 2.919764 1_556
Ta5 V2 2.935419 1_556
Ta5 V1 2.953545 1_566
Ta6 V2 2.908142 1_555
Ta6 V3 2.908142 1_554
Ta7 V5 2.778125 1_554
Ta7 V4 2.778125 1_655
Ta7 V0 2.962201 1_564
Ta7 V1 2.962203 1_665
Ta8 V5 2.774088 1_555
Ta8 V1 2.920342 1_566
Ta8 V3 2.938544 1_565
Ta9 V4 2.774088 1_655
Ta9 V0 2.920340 1_554
Ta9 V2 2.938544 1_655
Ta10 V4 2.774083 1_655
Ta10 V0 2.920354 1_565
Ta10 V3 2.938546 1_665
Ta11 V5 2.774091 1_555
Ta11 V1 2.920343 1_555
Ta11 V2 2.938551 1_555
V0 V5 2.515920 1_545
V1 V4 2.515927 1_545
V2 V4 2.535685 1_555
V2 V5 2.535685 1_555
V3 V4 2.535685 1_545
V3 V5 2.535685 1_545
V4 V5 2.624117 1_555
Co0 V0 2.482040 1_555
Co0 V1 2.482046 1_555
Co0 V3 2.529005 1_555
Co0 Co1 2.584372 1_545
Co0 V5 2.608267 1_545
Co0 V4 2.608267 1_545
Co0 Ta6 2.785083 1_556
Co0 Ta11 2.788149 1_555
Co0 Ta9 2.788154 1_556
Co0 Ta1 2.925815 1_555
Co0 Ta4 2.945253 1_556
Co0 Ta2 2.945253 1_555
Co1 V0 2.482044 1_565
Co1 V1 2.482053 1_565
Co1 V2 2.528998 1_555
Co1 V5 2.608263 1_555
Co1 V4 2.608267 1_555
Co1 Ta6 2.785078 1_555
Co1 Ta10 2.788157 1_555
Co1 Ta8 2.788158 1_554
Co1 Ta1 2.925822 1_565
Co1 Ta3 2.945246 1_555
Co1 Ta5 2.945253 1_554
Co2 V2 2.403675 1_555
Co2 V3 2.403675 1_554
Co2 V1 2.405062 1_555
Co2 Co3 2.555402 1_554
Co2 Co5 2.563188 1_555
Co2 Co4 2.563188 1_544
Co2 Ta1 2.809276 1_555
Co2 Ta3 2.814600 1_555
Co2 Ta4 2.814600 1_555
Co2 Ta8 2.944271 1_544
Co2 Ta11 2.944278 1_555
Co2 Ta6 2.959426 1_555
Co3 V3 2.403675 1_555
Co3 V2 2.403675 1_556
Co3 V0 2.405069 1_455
Co3 Co5 2.563184 1_556
Co3 Co4 2.563188 1_545
Co3 Ta1 2.809276 1_455
Co3 Ta5 2.814600 1_555
Co3 Ta2 2.814600 1_555
Co3 Ta9 2.944271 1_456
Co3 Ta10 2.944274 1_445
Co3 Ta6 2.959426 1_556
Co4 V3 2.437721 1_565
Co4 V1 2.451502 1_566
Co4 V0 2.451508 1_465
Co4 Co5 2.568565 1_566
Co4 Ta3 2.792211 1_455
Co4 Ta5 2.792211 1_555
Co4 Ta0 2.794473 1_555
Co4 Ta7 2.919940 1_456
Co4 Ta8 2.951879 1_555
Co4 Ta10 2.951886 1_455
Co5 V2 2.437715 1_555
Co5 V0 2.451504 1_454
Co5 V1 2.451508 1_555
Co5 Ta4 2.792211 1_455
Co5 Ta2 2.792216 1_555
Co5 Ta0 2.794468 1_555
Co5 Ta7 2.919947 1_445
Co5 Ta9 2.951872 1_455
Co5 Ta11 2.951882 1_555
C0 Ta6 2.160491 1_556
C0 Ta11 2.169747 1_555
C0 Ta8 2.169753 1_555
C0 Ta2 2.186255 1_555
C0 Ta5 2.186255 1_555
C0 Ta0 2.204329 1_555
C1 Ta6 2.160497 1_555
C1 Ta9 2.169747 1_555
C1 Ta10 2.169755 1_555
C1 Ta4 2.186255 1_555
C1 Ta3 2.186261 1_555
C1 Ta0 2.204323 1_655
C2 Ta1 2.163645 1_565
C2 Ta10 2.171703 1_555
C2 Ta8 2.171708 1_554
C2 Ta2 2.178063 1_665
C2 Ta4 2.178063 1_565
C2 Ta7 2.187146 1_555
C3 Ta1 2.163645 1_555
C3 Ta9 2.171708 1_556
C3 Ta11 2.171710 1_555
C3 Ta5 2.178063 1_655
C3 Ta3 2.178063 1_555
C3 Ta7 2.187146 1_556
