# generated using pymatgen
data_Al2(Ni7B2)3
_symmetry_space_group_name_H-M   'P 1'
_cell_length_a   7.32143576
_cell_length_b   7.32145488
_cell_length_c   7.32144923
_cell_angle_alpha   60.00140656
_cell_angle_beta   60.00155107
_cell_angle_gamma   60.00147950
_symmetry_Int_Tables_number   1
_chemical_formula_structural   Al2(Ni7B2)3
_chemical_formula_sum   'Al2 Ni21 B6'
_cell_volume   277.51743091
_cell_formula_units_Z   1
loop_
 _symmetry_equiv_pos_site_id
 _symmetry_equiv_pos_as_xyz
  1  'x, y, z'
loop_
 _atom_site_type_symbol
 _atom_site_label
 _atom_site_symmetry_multiplicity
 _atom_site_fract_x
 _atom_site_fract_y
 _atom_site_fract_z
 _atom_site_occupancy
  Al  Al0  1  0.25000005  0.25000017  0.25000015  1
  Al  Al1  1  0.74999994  0.74999985  0.74999984  1
  Ni  Ni0  1  0.38252073  0.38253241  0.38251780  1
  Ni  Ni1  1  0.61747931  0.61746756  0.61748216  1
  Ni  Ni2  1  0.38253279  0.38251914  0.85242823  1
  Ni  Ni3  1  0.38251840  0.85242861  0.38251948  1
  Ni  Ni4  1  0.61746730  0.61748068  0.14757176  1
  Ni  Ni5  1  0.61748156  0.14757132  0.61748052  1
  Ni  Ni6  1  0.85242754  0.38251763  0.38253305  1
  Ni  Ni7  1  0.14757248  0.61748256  0.61746686  1
  Ni  Ni8  1  0.33816503  0.99999201  0.00000521  1
  Ni  Ni9  1  0.66183483  0.00000798  0.99999480  1
  Ni  Ni10  1  0.99999367  0.33816238  0.66183707  1
  Ni  Ni11  1  0.00000652  0.66183755  0.33816276  1
  Ni  Ni12  1  -0.00000161  0.33815592  -0.00000023  1
  Ni  Ni13  1  0.66184354  0.00000107  0.33815591  1
  Ni  Ni14  1  0.00000165  0.66184410  0.00000017  1
  Ni  Ni15  1  0.33815647  0.99999897  0.66184420  1
  Ni  Ni16  1  0.00000471  0.99999308  0.33816398  1
  Ni  Ni17  1  0.99999528  0.00000685  0.66183604  1
  Ni  Ni18  1  0.66183572  0.33816321  0.99999474  1
  Ni  Ni19  1  0.33816429  0.66183686  0.00000546  1
  Ni  Ni20  1  -0.00000017  0.00000001  0.00000013  1
  B  B0  1  0.72695349  0.27304527  0.27304524  1
  B  B1  1  0.27304650  0.72695474  0.72695472  1
  B  B2  1  0.27304412  0.72695550  0.27304408  1
  B  B3  1  0.72695586  0.27304454  0.72695591  1
  B  B4  1  0.27304434  0.27304444  0.72695434  1
  B  B5  1  0.72695564  0.72695559  0.27304565  1
loop_
_geom_bond_atom_site_label_1
_geom_bond_atom_site_label_2
_geom_bond_distance
_geom_bond_site_symmetry_2
Al0 Ni0 2.376625 1_555
Al0 Ni3 2.376703 1_545
Al0 Ni2 2.376705 1_554
Al0 Ni6 2.376706 1_455
Al1 Ni1 2.376625 1_555
Al1 Ni5 2.376702 1_565
Al1 Ni4 2.376705 1_556
Al1 Ni7 2.376706 1_655
Ni10 Ni20 2.475895 1_656
Ni11 Ni20 2.475893 1_565
Ni12 Ni20 2.475787 1_555
Ni13 Ni20 2.475848 1_655
Ni14 Ni20 2.475786 1_565
Ni15 Ni20 2.475850 1_566
Ni16 Ni20 2.475842 1_565
Ni17 Ni20 2.475843 1_656
Ni18 Ni20 2.475902 1_656
Ni19 Ni20 2.475903 1_565
Ni20 Ni9 2.475844 1_454
Ni20 Ni8 2.475844 1_545
B0 Ni13 2.055131 1_555
B0 Ni12 2.055181 1_655
B0 Ni18 2.055189 1_554
B0 Ni16 2.055239 1_645
B0 Ni6 2.060092 1_555
B0 Ni0 2.060142 1_555
B0 Ni5 2.060161 1_555
B0 Ni4 2.060162 1_555
B1 Ni15 2.055132 1_555
B1 Ni14 2.055181 1_556
B1 Ni19 2.055191 1_556
B1 Ni17 2.055238 1_465
B1 Ni7 2.060091 1_555
B1 Ni1 2.060142 1_555
B1 Ni3 2.060161 1_555
B1 Ni2 2.060163 1_555
B2 Ni11 2.055094 1_555
B2 Ni19 2.055105 1_555
B2 Ni8 2.055143 1_555
B2 Ni16 2.055149 1_555
B2 Ni3 2.060025 1_555
B2 Ni7 2.060087 1_555
B2 Ni0 2.060087 1_555
B2 Ni4 2.060088 1_555
B3 Ni10 2.055095 1_555
B3 Ni18 2.055107 1_555
B3 Ni9 2.055143 1_555
B3 Ni17 2.055149 1_555
B3 Ni5 2.060026 1_555
B3 Ni1 2.060087 1_555
B3 Ni2 2.060087 1_555
B3 Ni6 2.060088 1_555
B4 Ni15 2.055139 1_545
B4 Ni10 2.055185 1_455
B4 Ni12 2.055188 1_556
B4 Ni8 2.055241 1_546
B4 Ni2 2.060109 1_555
B4 Ni0 2.060166 1_555
B4 Ni5 2.060170 1_555
B4 Ni7 2.060178 1_555
B5 Ni13 2.055140 1_565
B5 Ni11 2.055186 1_655
B5 Ni14 2.055188 1_655
B5 Ni9 2.055241 1_564
B5 Ni4 2.060110 1_555
B5 Ni1 2.060166 1_555
B5 Ni3 2.060171 1_555
B5 Ni6 2.060177 1_555
