# generated using pymatgen
data_CaHo(FeO3)2
_symmetry_space_group_name_H-M   'P 1'
_cell_length_a   5.33584000
_cell_length_b   5.56066500
_cell_length_c   7.63754600
_cell_angle_alpha   90.00000000
_cell_angle_beta   90.00000000
_cell_angle_gamma   90.00000000
_symmetry_Int_Tables_number   1
_chemical_formula_structural   CaHo(FeO3)2
_chemical_formula_sum   'Ca2 Ho2 Fe4 O12'
_cell_volume   226.61224294
_cell_formula_units_Z   2
loop_
 _symmetry_equiv_pos_site_id
 _symmetry_equiv_pos_as_xyz
  1  'x, y, z'
loop_
 _atom_site_type_symbol
 _atom_site_label
 _atom_site_symmetry_multiplicity
 _atom_site_fract_x
 _atom_site_fract_y
 _atom_site_fract_z
 _atom_site_occupancy
  Ca  Ca0  1  0.48922700  0.19794000  0.00000000  1
  Ca  Ca1  1  0.98922700  0.80206000  0.50000000  1
  Ho  Ho0  1  0.01794100  0.68235000  0.00000000  1
  Ho  Ho1  1  0.51794100  0.31765000  0.50000000  1
  Fe  Fe0  1  0.00099700  0.24432300  0.74965400  1
  Fe  Fe1  1  0.00099700  0.24432300  0.25034600  1
  Fe  Fe2  1  0.50099700  0.75567700  0.24965400  1
  Fe  Fe3  1  0.50099700  0.75567700  0.75034600  1
  O  O0  1  0.10794100  0.22376100  0.50000000  1
  O  O1  1  0.19388600  0.94250100  0.80299100  1
  O  O2  1  0.19388600  0.94250100  0.19700900  1
  O  O3  1  0.28951700  0.45865800  0.79770500  1
  O  O4  1  0.28951700  0.45865800  0.20229500  1
  O  O5  1  0.41590700  0.71761000  0.50000000  1
  O  O6  1  0.60794100  0.77623900  0.00000000  1
  O  O7  1  0.69388600  0.05749900  0.30299100  1
  O  O8  1  0.69388600  0.05749900  0.69700900  1
  O  O9  1  0.78951700  0.54134200  0.70229500  1
  O  O10  1  0.78951700  0.54134200  0.29770500  1
  O  O11  1  0.91590700  0.28239000  0.00000000  1
loop_
_geom_bond_atom_site_label_1
_geom_bond_atom_site_label_2
_geom_bond_distance
_geom_bond_site_symmetry_2
Ca0 O11 2.324622 1_555
Ca0 O3 2.371604 1_554
Ca0 O4 2.371604 1_555
Ca0 O6 2.428987 1_545
Ca0 O1 2.600965 1_544
Ca0 O2 2.600965 1_545
Ca0 O7 2.675349 1_555
Ca0 O8 2.675349 1_554
Ca1 O5 2.324622 1_655
Ca1 O9 2.371604 1_555
Ca1 O10 2.371604 1_555
Ca1 O0 2.428987 1_665
Ca1 O7 2.600965 1_565
Ca1 O8 2.600965 1_565
Ca1 O2 2.675349 1_655
Ca1 O1 2.675349 1_655
Ho0 O6 2.249129 1_455
Ho0 O2 2.288685 1_555
Ho0 O1 2.288685 1_554
Ho0 O11 2.289712 1_455
Ho0 O3 2.456465 1_554
Ho0 O4 2.456465 1_555
Ho0 O10 2.696338 1_455
Ho0 O9 2.696338 1_454
Ho1 O0 2.249129 1_555
Ho1 O8 2.288685 1_555
Ho1 O7 2.288685 1_555
Ho1 O5 2.289712 1_555
Ho1 O10 2.456465 1_555
Ho1 O9 2.456465 1_555
Ho1 O3 2.696338 1_555
Ho1 O4 2.696338 1_555
Fe0 O11 1.976563 1_456
Fe0 O3 1.981219 1_555
Fe0 O8 1.981472 1_455
Fe0 O0 1.993582 1_555
Fe0 O1 2.010484 1_545
Fe0 O9 2.032740 1_455
Fe1 O11 1.976563 1_455
Fe1 O4 1.981219 1_555
Fe1 O7 1.981472 1_455
Fe1 O0 1.993582 1_555
Fe1 O2 2.010484 1_545
Fe1 O10 2.032740 1_455
Fe2 O5 1.976563 1_555
Fe2 O10 1.981219 1_555
Fe2 O2 1.981472 1_555
Fe2 O6 1.993582 1_555
Fe2 O7 2.010484 1_565
Fe2 O4 2.032740 1_555
Fe3 O5 1.976563 1_555
Fe3 O9 1.981219 1_555
Fe3 O1 1.981472 1_555
Fe3 O6 1.993582 1_556
Fe3 O8 2.010484 1_565
Fe3 O3 2.032740 1_555
