# generated using pymatgen
data_CaTaNO2
_symmetry_space_group_name_H-M   'P 1'
_cell_length_a   5.68551900
_cell_length_b   5.56571600
_cell_length_c   9.64199589
_cell_angle_alpha   55.06868788
_cell_angle_beta   90.00000000
_cell_angle_gamma   90.00000000
_symmetry_Int_Tables_number   1
_chemical_formula_structural   CaTaNO2
_chemical_formula_sum   'Ca4 Ta4 N4 O8'
_cell_volume   250.14205499
_cell_formula_units_Z   4
loop_
 _symmetry_equiv_pos_site_id
 _symmetry_equiv_pos_as_xyz
  1  'x, y, z'
loop_
 _atom_site_type_symbol
 _atom_site_label
 _atom_site_symmetry_multiplicity
 _atom_site_fract_x
 _atom_site_fract_y
 _atom_site_fract_z
 _atom_site_occupancy
  Ca  Ca0  1  0.45867600  0.76735000  0.74559100  1
  Ca  Ca1  1  0.95867600  0.23265000  0.75440900  1
  Ca  Ca2  1  0.54132400  0.23265000  0.25440900  1
  Ca  Ca3  1  0.04132400  0.76735000  0.24559100  1
  Ta  Ta0  1  0.00000000  0.50000000  0.00000000  1
  Ta  Ta1  1  0.50000000  0.50000000  0.50000000  1
  Ta  Ta2  1  0.00000000  0.00000000  0.50000000  1
  Ta  Ta3  1  0.50000000  0.00000000  0.00000000  1
  N  N0  1  0.21131600  0.83274600  0.95713400  1
  N  N1  1  0.71131600  0.16725400  0.54286600  1
  N  N2  1  0.78868400  0.16725400  0.04286600  1
  N  N3  1  0.28868400  0.83274600  0.45713400  1
  O  O0  1  0.02242000  0.66180400  0.75026900  1
  O  O1  1  0.52242000  0.33819600  0.74973100  1
  O  O2  1  0.97758000  0.33819600  0.24973100  1
  O  O3  1  0.47758000  0.66180400  0.25026900  1
  O  O4  1  0.79039500  0.75749100  0.45121900  1
  O  O5  1  0.29039500  0.24250900  0.04878100  1
  O  O6  1  0.20960500  0.24250900  0.54878100  1
  O  O7  1  0.70960500  0.75749100  0.95121900  1
loop_
_geom_bond_atom_site_label_1
_geom_bond_atom_site_label_2
_geom_bond_distance
_geom_bond_site_symmetry_2
Ca0 O1 2.393516 1_555
Ca0 O7 2.417590 1_555
Ca0 N1 2.419847 1_565
Ca0 O0 2.543398 1_555
Ca0 O6 2.617853 1_565
Ca0 N0 2.668502 1_555
Ca0 N3 2.764583 1_555
Ca0 O5 2.866189 1_556
Ca1 O0 2.393516 1_655
Ca1 O6 2.417590 1_655
Ca1 N0 2.419847 1_645
Ca1 O1 2.543398 1_555
Ca1 O7 2.617853 1_545
Ca1 N1 2.668502 1_555
Ca1 N2 2.764583 1_556
Ca1 O4 2.866189 1_555
Ca2 O3 2.393516 1_555
Ca2 O5 2.417590 1_555
Ca2 N3 2.419847 1_545
Ca2 O2 2.543398 1_555
Ca2 O4 2.617853 1_545
Ca2 N2 2.668502 1_555
Ca2 N1 2.764583 1_555
Ca2 O7 2.866189 1_554
Ca3 O2 2.393516 1_455
Ca3 O4 2.417590 1_455
Ca3 N2 2.419847 1_465
Ca3 O3 2.543398 1_555
Ca3 O5 2.617853 1_565
Ca3 N3 2.668502 1_555
Ca3 N0 2.764583 1_554
Ca3 O6 2.866189 1_555
N0 Ta0 2.041446 1_556
N0 Ta3 2.042527 1_566
N1 Ta1 2.041446 1_555
N1 Ta2 2.042527 1_655
N2 Ta0 2.041446 1_655
N2 Ta3 2.042527 1_555
N3 Ta1 2.041446 1_555
N3 Ta2 2.042527 1_565
O0 Ta0 2.035183 1_556
O0 Ta2 2.044673 1_565
O1 Ta1 2.035183 1_555
O1 Ta3 2.044673 1_556
O2 Ta0 2.035183 1_655
O2 Ta2 2.044673 1_655
O3 Ta1 2.035183 1_555
O3 Ta3 2.044673 1_565
O4 Ta2 2.047000 1_665
O4 Ta1 2.056475 1_555
O5 Ta3 2.047000 1_555
O5 Ta0 2.056475 1_555
O6 Ta2 2.047000 1_555
O6 Ta1 2.056475 1_555
O7 Ta3 2.047000 1_566
O7 Ta0 2.056475 1_656
