# generated using pymatgen
data_La4H9
_symmetry_space_group_name_H-M   'P 1'
_cell_length_a   5.61690525
_cell_length_b   5.61690525
_cell_length_c   6.92651743
_cell_angle_alpha   113.92020881
_cell_angle_beta   113.92020881
_cell_angle_gamma   90.00000000
_symmetry_Int_Tables_number   1
_chemical_formula_structural   La4H9
_chemical_formula_sum   'La4 H9'
_cell_volume   179.03354189
_cell_formula_units_Z   1
loop_
 _symmetry_equiv_pos_site_id
 _symmetry_equiv_pos_as_xyz
  1  'x, y, z'
loop_
 _atom_site_type_symbol
 _atom_site_label
 _atom_site_symmetry_multiplicity
 _atom_site_fract_x
 _atom_site_fract_y
 _atom_site_fract_z
 _atom_site_occupancy
  La  La0  1  0.75412383  0.75412383  0.50824867  1
  La  La1  1  0.24587617  0.24587617  0.49175133  1
  La  La2  1  -0.00000000  0.50000000  -0.00000000  1
  La  La3  1  0.50000000  -0.00000000  -0.00000000  1
  H  H0  1  0.13188348  0.13188348  0.74639889  1
  H  H1  1  0.61451642  0.61451642  0.74639889  1
  H  H2  1  0.61451642  0.13188348  0.74639889  1
  H  H3  1  0.13188348  0.61451642  0.74639889  1
  H  H4  1  0.86811652  0.86811652  0.25360111  1
  H  H5  1  0.38548358  0.38548358  0.25360111  1
  H  H6  1  0.38548358  0.86811652  0.25360111  1
  H  H7  1  0.86811652  0.38548358  0.25360111  1
  H  H8  1  -0.00000000  -0.00000000  -0.00000000  1
loop_
_geom_bond_atom_site_label_1
_geom_bond_atom_site_label_2
_geom_bond_distance
_geom_bond_site_symmetry_2
H0 La1 2.400550 1_555
H0 La3 2.453462 1_556
H0 La2 2.453462 1_556
H0 La0 2.459430 1_445
H1 La1 2.400549 1_555
H1 La3 2.453461 1_566
H1 La2 2.453461 1_656
H1 La0 2.459418 1_555
H2 La1 2.400550 1_555
H2 La2 2.453458 1_656
H2 La3 2.453465 1_556
H2 La0 2.459424 1_545
H3 La1 2.400550 1_555
H3 La3 2.453458 1_566
H3 La2 2.453465 1_556
H3 La0 2.459424 1_455
H4 La0 2.400550 1_555
H4 La3 2.453462 1_565
H4 La2 2.453462 1_655
H4 La1 2.459430 1_665
H5 La0 2.400549 1_555
H5 La2 2.453461 1_555
H5 La3 2.453461 1_555
H5 La1 2.459418 1_555
H6 La0 2.400550 1_555
H6 La2 2.453458 1_555
H6 La3 2.453465 1_565
H6 La1 2.459424 1_565
H7 La0 2.400550 1_555
H7 La3 2.453458 1_555
H7 La2 2.453465 1_655
H7 La1 2.459424 1_655
H8 La0 2.790524 1_444
H8 La1 2.790524 1_555
H8 La2 2.808453 1_555
H8 La2 2.808453 1_545
H8 La3 2.808453 1_455
H8 La3 2.808453 1_555
