# generated using pymatgen
data_US2
_symmetry_space_group_name_H-M   'P 1'
_cell_length_a   8.02732623
_cell_length_b   8.02732623
_cell_length_c   5.27025985
_cell_angle_alpha   70.85811247
_cell_angle_beta   70.85811247
_cell_angle_gamma   83.89163008
_symmetry_Int_Tables_number   1
_chemical_formula_structural   US2
_chemical_formula_sum   'U5 S10'
_cell_volume   303.08889519
_cell_formula_units_Z   5
loop_
 _symmetry_equiv_pos_site_id
 _symmetry_equiv_pos_as_xyz
  1  'x, y, z'
loop_
 _atom_site_type_symbol
 _atom_site_label
 _atom_site_symmetry_multiplicity
 _atom_site_fract_x
 _atom_site_fract_y
 _atom_site_fract_z
 _atom_site_occupancy
  U  U0  1  0.50168168  0.82609352  0.58498064  1
  U  U1  1  0.00006484  0.99993516  0.00000000  1
  U  U2  1  0.17390648  0.49831832  0.41501936  1
  U  U3  1  0.82598487  0.50170717  0.08672139  1
  U  U4  1  0.49829283  0.17401513  0.91327861  1
  S  S0  1  0.86320419  0.30004131  0.67306681  1
  S  S1  1  0.86368006  0.69959288  0.46358110  1
  S  S2  1  0.50005753  0.49994247  0.50000000  1
  S  S3  1  0.30040712  0.13631994  0.53641890  1
  S  S4  1  0.69995869  0.13679581  0.32693319  1
  S  S5  1  0.30012697  0.86323350  0.16431386  1
  S  S6  1  0.69986111  0.86378053  0.97162819  1
  S  S7  1  0.49978866  0.50021134  0.00000000  1
  S  S8  1  0.13621947  0.30013889  0.02837181  1
  S  S9  1  0.13676650  0.69987303  0.83568614  1
loop_
_geom_bond_atom_site_label_1
_geom_bond_atom_site_label_2
_geom_bond_distance
_geom_bond_site_symmetry_2
S0 U2 2.793597 1_655
S0 U1 2.816964 1_646
S0 U4 2.926678 1_555
S0 U3 3.040887 1_556
S0 U3 3.079125 1_555
S1 U2 2.806142 1_655
S1 U1 2.815131 1_655
S1 U0 2.909201 1_555
S1 U3 3.020792 1_555
S1 U3 3.070762 1_556
S2 S7 2.635132 1_555
S2 S7 2.635132 1_556
S2 U2 2.799179 1_555
S2 U0 2.799179 1_555
S2 U4 2.799971 1_555
S2 U3 2.799971 1_555
S3 U0 2.806142 1_545
S3 U1 2.815131 1_546
S3 U2 2.909201 1_555
S3 U4 3.020792 1_555
S3 U4 3.070762 1_554
S4 U0 2.793597 1_545
S4 U1 2.816964 1_645
S4 U3 2.926678 1_555
S4 U4 3.040887 1_554
S4 U4 3.079125 1_555
S5 U4 2.793628 1_564
S5 U1 2.817470 1_555
S5 U2 2.927206 1_555
S5 U0 3.046881 1_554
S5 U0 3.072153 1_555
S6 U4 2.807321 1_565
S6 U1 2.815712 1_656
S6 U3 2.908761 1_556
S6 U0 3.026570 1_556
S6 U0 3.067145 1_555
S7 U4 2.803683 1_554
S7 U3 2.803683 1_555
S7 U0 2.803892 1_554
S7 U2 2.803892 1_555
S8 U3 2.807321 1_455
S8 U1 2.815712 1_545
S8 U4 2.908761 1_554
S8 U2 3.026570 1_554
S8 U2 3.067145 1_555
S9 U3 2.793628 1_456
S9 U1 2.817470 1_556
S9 U0 2.927206 1_555
S9 U2 3.046881 1_556
S9 U2 3.072153 1_555
