# generated using pymatgen
data_K3Au3Br8
_symmetry_space_group_name_H-M   'P 1'
_cell_length_a   7.27883945
_cell_length_b   7.27883945
_cell_length_c   18.79477660
_cell_angle_alpha   82.46266817
_cell_angle_beta   82.46266817
_cell_angle_gamma   64.95730982
_symmetry_Int_Tables_number   1
_chemical_formula_structural   K3Au3Br8
_chemical_formula_sum   'K6 Au6 Br16'
_cell_volume   891.19233676
_cell_formula_units_Z   2
loop_
 _symmetry_equiv_pos_site_id
 _symmetry_equiv_pos_as_xyz
  1  'x, y, z'
loop_
 _atom_site_type_symbol
 _atom_site_label
 _atom_site_symmetry_multiplicity
 _atom_site_fract_x
 _atom_site_fract_y
 _atom_site_fract_z
 _atom_site_occupancy
  K  K0  1  0.69121465  0.67879843  0.41792464  1
  K  K1  1  0.30878535  0.32120157  0.58207536  1
  K  K2  1  0.32120157  0.30878535  0.08207536  1
  K  K3  1  0.67879843  0.69121465  0.91792464  1
  K  K4  1  0.97624751  0.02375249  0.25000000  1
  K  K5  1  0.02375249  0.97624751  0.75000000  1
  Au  Au0  1  0.00000000  -0.00000000  0.00000000  1
  Au  Au1  1  0.00000000  -0.00000000  0.50000000  1
  Au  Au2  1  0.60469391  0.60394715  0.19621066  1
  Au  Au3  1  0.39530609  0.39605285  0.80378934  1
  Au  Au4  1  0.39605285  0.39530609  0.30378934  1
  Au  Au5  1  0.60394715  0.60469391  0.69621066  1
  Br  Br0  1  0.30662430  0.74200797  0.12793464  1
  Br  Br1  1  0.69337570  0.25799203  0.87206536  1
  Br  Br2  1  0.25799203  0.69337570  0.37206536  1
  Br  Br3  1  0.74200797  0.30662430  0.62793464  1
  Br  Br4  1  0.50207053  0.08506523  0.24428223  1
  Br  Br5  1  0.49792947  0.91493477  0.75571777  1
  Br  Br6  1  0.91493477  0.49792947  0.25571777  1
  Br  Br7  1  0.08506523  0.50207053  0.74428223  1
  Br  Br8  1  0.77350913  0.84591895  0.06540402  1
  Br  Br9  1  0.22649087  0.15408105  0.93459598  1
  Br  Br10  1  0.15408105  0.22649087  0.43459598  1
  Br  Br11  1  0.84591895  0.77350913  0.56540402  1
  Br  Br12  1  0.70719333  0.16191286  0.42371575  1
  Br  Br13  1  0.29280667  0.83808714  0.57628425  1
  Br  Br14  1  0.83808714  0.29280667  0.07628425  1
  Br  Br15  1  0.16191286  0.70719333  0.92371575  1
loop_
_geom_bond_atom_site_label_1
_geom_bond_atom_site_label_2
_geom_bond_distance
_geom_bond_site_symmetry_2
Au0 Br9 2.481675 1_554
Au0 Br8 2.481675 1_445
Au0 Br14 2.493769 1_455
Au0 Br15 2.493769 1_544
Au1 Br10 2.481675 1_555
Au1 Br11 2.481675 1_445
Au1 Br12 2.493769 1_455
Au1 Br13 2.493769 1_545
Au2 Br6 2.430368 1_555
Au2 Br0 2.431052 1_555
Au2 Br14 3.189517 1_555
Au2 Br8 3.249588 1_555
Au3 Br7 2.430368 1_555
Au3 Br1 2.431052 1_555
Au3 Br15 3.189517 1_555
Au3 Br9 3.249588 1_555
Au4 Br4 2.430368 1_555
Au4 Br2 2.431052 1_555
Au4 Br12 3.189517 1_555
Au4 Br10 3.249588 1_555
Au5 Br5 2.430368 1_555
Au5 Br3 2.431052 1_555
Au5 Br13 3.189517 1_555
Au5 Br11 3.249588 1_555
Br0 K4 3.296021 1_465
Br0 K2 3.332207 1_555
Br1 K5 3.296021 1_645
Br1 K3 3.332207 1_555
Br2 K4 3.296021 1_465
Br2 K0 3.332207 1_555
Br3 K5 3.296021 1_645
Br3 K1 3.332207 1_555
Br4 K4 3.302117 1_555
Br4 K2 3.408047 1_555
Br5 K5 3.302117 1_555
Br5 K3 3.408047 1_555
Br6 K4 3.302117 1_555
Br6 K0 3.408047 1_555
Br7 K5 3.302117 1_555
Br7 K1 3.408047 1_555
Br8 K3 3.376943 1_554
Br8 K2 3.592238 1_565
Br9 K2 3.376943 1_556
Br9 K3 3.592238 1_545
Br10 K1 3.376943 1_555
Br10 K0 3.592238 1_455
Br11 K0 3.376943 1_555
Br11 K1 3.592238 1_655
Br12 K0 3.583464 1_545
Br12 K4 3.608762 1_555
Br12 K0 3.702150 1_555
Br12 K1 3.795660 1_555
Br13 K1 3.583464 1_565
Br13 K5 3.608762 1_555
Br13 K1 3.702150 1_555
Br13 K0 3.795660 1_555
Br14 K2 3.583464 1_655
Br14 K4 3.608762 1_555
Br14 K2 3.702150 1_555
Br14 K3 3.795660 1_554
Br15 K3 3.583464 1_455
Br15 K5 3.608762 1_555
Br15 K3 3.702150 1_555
Br15 K2 3.795660 1_556
