# generated using pymatgen
data_LaMg6Co
_symmetry_space_group_name_H-M   'P 1'
_cell_length_a   4.96218100
_cell_length_b   5.77921400
_cell_length_c   12.88270400
_cell_angle_alpha   90.00000000
_cell_angle_beta   90.00000000
_cell_angle_gamma   90.00000000
_symmetry_Int_Tables_number   1
_chemical_formula_structural   LaMg6Co
_chemical_formula_sum   'La2 Mg12 Co2'
_cell_volume   369.44382004
_cell_formula_units_Z   2
loop_
 _symmetry_equiv_pos_site_id
 _symmetry_equiv_pos_as_xyz
  1  'x, y, z'
loop_
 _atom_site_type_symbol
 _atom_site_label
 _atom_site_symmetry_multiplicity
 _atom_site_fract_x
 _atom_site_fract_y
 _atom_site_fract_z
 _atom_site_occupancy
  La  La0  1  0.50000000  0.50000000  0.19252700  1
  La  La1  1  0.50000000  0.00000000  0.69252700  1
  Mg  Mg0  1  0.50000000  0.25221800  0.44215800  1
  Mg  Mg1  1  0.50000000  0.74778200  0.44215800  1
  Mg  Mg2  1  0.00000000  0.75828700  0.07651500  1
  Mg  Mg3  1  0.00000000  0.24171300  0.07651500  1
  Mg  Mg4  1  0.00000000  0.00000000  0.28542400  1
  Mg  Mg5  1  0.00000000  0.50000000  0.35692800  1
  Mg  Mg6  1  0.50000000  0.75221800  0.94215800  1
  Mg  Mg7  1  0.50000000  0.24778200  0.94215800  1
  Mg  Mg8  1  0.00000000  0.25828700  0.57651500  1
  Mg  Mg9  1  0.00000000  0.74171300  0.57651500  1
  Mg  Mg10  1  0.00000000  0.50000000  0.78542400  1
  Mg  Mg11  1  0.00000000  0.00000000  0.85692800  1
  Co  Co0  1  0.50000000  0.00000000  0.12777200  1
  Co  Co1  1  0.50000000  0.50000000  0.62777200  1
loop_
_geom_bond_atom_site_label_1
_geom_bond_atom_site_label_2
_geom_bond_distance
_geom_bond_site_symmetry_2
La0 Mg2 3.258470 1_655
La0 Mg2 3.258470 1_555
La0 Mg3 3.258470 1_655
La0 Mg3 3.258470 1_555
La0 Mg5 3.262121 1_555
La0 Mg5 3.262121 1_655
La0 Mg0 3.520332 1_555
La0 Mg1 3.520332 1_555
La0 Mg6 3.539500 1_554
La0 Mg7 3.539500 1_554
La1 Mg8 3.258470 1_555
La1 Mg8 3.258470 1_655
La1 Mg9 3.258470 1_645
La1 Mg9 3.258470 1_545
La1 Mg11 3.262121 1_555
La1 Mg11 3.262121 1_655
La1 Mg7 3.520332 1_555
La1 Mg6 3.520332 1_545
La1 Mg0 3.539500 1_555
La1 Mg1 3.539500 1_545
Mg0 Mg1 2.863970 1_555
Mg0 Mg1 2.915244 1_545
Mg0 Mg8 3.025391 1_555
Mg0 Mg8 3.025391 1_655
Mg0 Mg5 3.067895 1_555
Mg0 Mg5 3.067895 1_655
Mg0 Mg4 3.515319 1_655
Mg0 Mg4 3.515319 1_555
Mg1 Mg9 3.025391 1_555
Mg1 Mg9 3.025391 1_655
Mg1 Mg5 3.067895 1_555
Mg1 Mg5 3.067895 1_655
Mg1 Mg4 3.515319 1_665
Mg1 Mg4 3.515319 1_565
Mg2 Mg3 2.793822 1_565
Mg2 Mg3 2.985392 1_555
Mg2 Mg6 3.025391 1_554
Mg2 Mg6 3.025391 1_454
Mg2 Mg4 3.032248 1_565
Mg3 Mg7 3.025391 1_454
Mg3 Mg7 3.025391 1_554
Mg3 Mg4 3.032248 1_555
Mg4 Mg5 3.032882 1_555
Mg4 Mg5 3.032882 1_545
Mg5 Mg9 3.154979 1_555
Mg5 Mg8 3.154979 1_555
Mg6 Mg7 2.863970 1_565
Mg6 Mg7 2.915244 1_555
Mg8 Mg9 2.793822 1_555
Mg8 Mg9 2.985392 1_545
Mg10 Mg9 3.032248 1_555
Mg10 Mg8 3.032248 1_555
Mg10 Mg11 3.032882 1_565
Mg10 Mg11 3.032882 1_555
Mg10 Mg6 3.515319 1_455
Mg10 Mg6 3.515319 1_555
Mg10 Mg7 3.515319 1_455
Mg10 Mg7 3.515319 1_555
Mg11 Mg7 3.067895 1_455
Mg11 Mg7 3.067895 1_555
Mg11 Mg6 3.067895 1_445
Mg11 Mg6 3.067895 1_545
Mg11 Mg3 3.154979 1_556
Mg11 Mg2 3.154979 1_546
Co0 Mg7 2.787197 1_554
Co0 Mg6 2.787197 1_544
Co0 Mg3 2.922876 1_655
Co0 Mg3 2.922876 1_555
Co0 Mg2 2.922876 1_545
Co0 Mg2 2.922876 1_645
Co0 La0 3.007615 1_555
Co0 La0 3.007615 1_545
Co0 Mg4 3.206354 1_655
Co0 Mg4 3.206354 1_555
Co1 Mg1 2.787197 1_555
Co1 Mg0 2.787197 1_555
Co1 Mg9 2.922876 1_655
Co1 Mg8 2.922876 1_555
Co1 Mg8 2.922876 1_655
Co1 Mg9 2.922876 1_555
Co1 La1 3.007615 1_555
Co1 La1 3.007615 1_565
Co1 Mg10 3.206354 1_655
Co1 Mg10 3.206354 1_555
