# generated using pymatgen
data_LiReN2
_symmetry_space_group_name_H-M   'P 1'
_cell_length_a   5.62408600
_cell_length_b   6.54524300
_cell_length_c   5.55158700
_cell_angle_alpha   90.00000000
_cell_angle_beta   90.00000000
_cell_angle_gamma   90.00000000
_symmetry_Int_Tables_number   1
_chemical_formula_structural   LiReN2
_chemical_formula_sum   'Li4 Re4 N8'
_cell_volume   204.35952192
_cell_formula_units_Z   4
loop_
 _symmetry_equiv_pos_site_id
 _symmetry_equiv_pos_as_xyz
  1  'x, y, z'
loop_
 _atom_site_type_symbol
 _atom_site_label
 _atom_site_symmetry_multiplicity
 _atom_site_fract_x
 _atom_site_fract_y
 _atom_site_fract_z
 _atom_site_occupancy
  Li  Li0  1  0.58749300  0.37691600  0.00447200  1
  Li  Li1  1  0.41250700  0.62308400  0.50447200  1
  Li  Li2  1  0.91250700  0.87691600  0.50447200  1
  Li  Li3  1  0.08749300  0.12308400  0.00447200  1
  Re  Re0  1  0.56892500  0.86938200  0.01259500  1
  Re  Re1  1  0.43107500  0.13061800  0.51259500  1
  Re  Re2  1  0.93107500  0.36938200  0.51259500  1
  Re  Re3  1  0.06892500  0.63061800  0.01259500  1
  N  N0  1  0.60530900  0.35961600  0.40083000  1
  N  N1  1  0.39469100  0.64038400  0.90083000  1
  N  N2  1  0.89469100  0.85961600  0.90083000  1
  N  N3  1  0.10530900  0.14038400  0.40083000  1
  N  N4  1  0.55466400  0.89844700  0.35210200  1
  N  N5  1  0.44533600  0.10155300  0.85210200  1
  N  N6  1  0.94533600  0.39844700  0.85210200  1
  N  N7  1  0.05466400  0.60155300  0.35210200  1
loop_
_geom_bond_atom_site_label_1
_geom_bond_atom_site_label_2
_geom_bond_distance
_geom_bond_site_symmetry_2
Li0 N1 2.116745 1_554
Li0 N5 2.145482 1_554
Li0 N6 2.187628 1_554
Li0 N0 2.205605 1_555
Li1 N0 2.116745 1_555
Li1 N4 2.145482 1_555
Li1 N7 2.187628 1_555
Li1 N1 2.205605 1_555
Li2 N3 2.116745 1_665
Li2 N7 2.145482 1_655
Li2 N4 2.187628 1_555
Li2 N2 2.205605 1_555
Li3 N2 2.116745 1_444
Li3 N6 2.145482 1_454
Li3 N5 2.187628 1_554
Li3 N3 2.205605 1_555
N0 Re1 1.895191 1_555
N0 Re2 1.935406 1_555
N1 Re0 1.895191 1_556
N1 Re3 1.935406 1_556
N2 Re3 1.895191 1_656
N2 Re0 1.935406 1_556
N3 Re2 1.895191 1_455
N3 Re1 1.935406 1_555
N4 Re1 1.893733 1_565
N4 Re0 1.896076 1_555
N5 Re0 1.893733 1_546
N5 Re1 1.896076 1_555
N6 Re3 1.893733 1_656
N6 Re2 1.896076 1_555
N7 Re2 1.893733 1_455
N7 Re3 1.896076 1_555
