# generated using pymatgen
data_PrScS3
_symmetry_space_group_name_H-M   'P 1'
_cell_length_a   6.52742262
_cell_length_b   7.18798791
_cell_length_c   9.61925523
_cell_angle_alpha   90.00000000
_cell_angle_beta   90.00000000
_cell_angle_gamma   90.00000000
_symmetry_Int_Tables_number   1
_chemical_formula_structural   PrScS3
_chemical_formula_sum   'Pr4 Sc4 S12'
_cell_volume   451.32617162
_cell_formula_units_Z   4
loop_
 _symmetry_equiv_pos_site_id
 _symmetry_equiv_pos_as_xyz
  1  'x, y, z'
loop_
 _atom_site_type_symbol
 _atom_site_label
 _atom_site_symmetry_multiplicity
 _atom_site_fract_x
 _atom_site_fract_y
 _atom_site_fract_z
 _atom_site_occupancy
  Pr  Pr0  1  0.53628223  0.40359330  0.75000000  1
  Pr  Pr1  1  0.46371777  0.59640670  0.25000000  1
  Pr  Pr2  1  0.03628223  0.09640670  0.25000000  1
  Pr  Pr3  1  0.96371777  0.90359330  0.75000000  1
  Sc  Sc0  1  0.00000000  0.50000000  0.00000000  1
  Sc  Sc1  1  0.00000000  0.50000000  0.50000000  1
  Sc  Sc2  1  0.50000000  0.00000000  0.50000000  1
  Sc  Sc3  1  0.50000000  0.00000000  0.00000000  1
  S  S0  1  0.82068338  0.18784988  0.56100426  1
  S  S1  1  0.17931662  0.81215012  0.06100426  1
  S  S2  1  0.32068338  0.31215012  0.06100426  1
  S  S3  1  0.67931662  0.68784988  0.56100426  1
  S  S4  1  0.82068338  0.18784988  0.93899574  1
  S  S5  1  0.17931662  0.81215012  0.43899574  1
  S  S6  1  0.32068338  0.31215012  0.43899574  1
  S  S7  1  0.67931662  0.68784988  0.93899574  1
  S  S8  1  0.87490828  0.46413575  0.25000000  1
  S  S9  1  0.12509172  0.53586425  0.75000000  1
  S  S10  1  0.37490828  0.03586425  0.75000000  1
  S  S11  1  0.62509172  0.96413575  0.25000000  1
loop_
_geom_bond_atom_site_label_1
_geom_bond_atom_site_label_2
_geom_bond_distance
_geom_bond_site_symmetry_2
Pr0 S10 2.845388 1_555
Pr0 S9 2.847434 1_555
Pr0 S3 2.889916 1_555
Pr0 S7 2.889916 1_555
Pr0 S0 3.025925 1_555
Pr0 S4 3.025925 1_555
Pr0 S6 3.370814 1_555
Pr0 S2 3.370814 1_556
Pr1 S11 2.845388 1_555
Pr1 S8 2.847434 1_555
Pr1 S2 2.889916 1_555
Pr1 S6 2.889916 1_555
Pr1 S1 3.025925 1_555
Pr1 S5 3.025925 1_555
Pr1 S3 3.370814 1_555
Pr1 S7 3.370814 1_554
Pr2 S8 2.845388 1_455
Pr2 S11 2.847434 1_445
Pr2 S1 2.889916 1_545
Pr2 S5 2.889916 1_545
Pr2 S6 3.025925 1_555
Pr2 S2 3.025925 1_555
Pr2 S4 3.370814 1_454
Pr2 S0 3.370814 1_455
Pr3 S9 2.845388 1_655
Pr3 S10 2.847434 1_665
Pr3 S4 2.889916 1_565
Pr3 S0 2.889916 1_565
Pr3 S3 3.025925 1_555
Pr3 S7 3.025925 1_555
Pr3 S5 3.370814 1_655
Pr3 S1 3.370814 1_656
S0 Sc2 2.559140 1_555
S0 Sc1 2.597825 1_655
S1 Sc3 2.559140 1_565
S1 Sc0 2.597825 1_555
S2 Sc0 2.559140 1_555
S2 Sc3 2.597825 1_555
S3 Sc1 2.559140 1_655
S3 Sc2 2.597825 1_565
S4 Sc3 2.559140 1_556
S4 Sc0 2.597825 1_656
S5 Sc2 2.559140 1_565
S5 Sc1 2.597825 1_555
S6 Sc1 2.559140 1_555
S6 Sc2 2.597825 1_555
S7 Sc0 2.559140 1_656
S7 Sc3 2.597825 1_566
S8 Sc0 2.552705 1_655
S8 Sc1 2.552705 1_655
S9 Sc0 2.552705 1_556
S9 Sc1 2.552705 1_555
S10 Sc2 2.552705 1_555
S10 Sc3 2.552705 1_556
S11 Sc3 2.552705 1_565
S11 Sc2 2.552705 1_565
