# generated using pymatgen
data_Sm5Bi3
_symmetry_space_group_name_H-M   'P 1'
_cell_length_a   8.43561300
_cell_length_b   9.74933200
_cell_length_c   12.38302500
_cell_angle_alpha   90.00000000
_cell_angle_beta   90.00000000
_cell_angle_gamma   90.00000000
_symmetry_Int_Tables_number   1
_chemical_formula_structural   Sm5Bi3
_chemical_formula_sum   'Sm20 Bi12'
_cell_volume   1018.39968681
_cell_formula_units_Z   4
loop_
 _symmetry_equiv_pos_site_id
 _symmetry_equiv_pos_as_xyz
  1  'x, y, z'
loop_
 _atom_site_type_symbol
 _atom_site_label
 _atom_site_symmetry_multiplicity
 _atom_site_fract_x
 _atom_site_fract_y
 _atom_site_fract_z
 _atom_site_occupancy
  Sm  Sm0  1  0.69288300  0.94200800  0.43504800  1
  Sm  Sm1  1  0.80711700  0.55799200  0.93504800  1
  Sm  Sm2  1  0.30711700  0.44200800  0.56495200  1
  Sm  Sm3  1  0.19288300  0.05799200  0.06495200  1
  Sm  Sm4  1  0.30711700  0.05799200  0.56495200  1
  Sm  Sm5  1  0.19288300  0.44200800  0.06495200  1
  Sm  Sm6  1  0.69288300  0.55799200  0.43504800  1
  Sm  Sm7  1  0.80711700  0.94200800  0.93504800  1
  Sm  Sm8  1  0.02269300  0.75000000  0.49548000  1
  Sm  Sm9  1  0.47730700  0.75000000  0.99548000  1
  Sm  Sm10  1  0.97730700  0.25000000  0.50452000  1
  Sm  Sm11  1  0.52269300  0.25000000  0.00452000  1
  Sm  Sm12  1  0.33634200  0.75000000  0.27106000  1
  Sm  Sm13  1  0.16365800  0.75000000  0.77106000  1
  Sm  Sm14  1  0.66365800  0.25000000  0.72894000  1
  Sm  Sm15  1  0.83634200  0.25000000  0.22894000  1
  Sm  Sm16  1  0.84287100  0.75000000  0.21008300  1
  Sm  Sm17  1  0.65712900  0.75000000  0.71008300  1
  Sm  Sm18  1  0.15712900  0.25000000  0.78991700  1
  Sm  Sm19  1  0.34287100  0.25000000  0.28991700  1
  Bi  Bi0  1  0.56714700  0.99376500  0.17478900  1
  Bi  Bi1  1  0.93285300  0.50623500  0.67478900  1
  Bi  Bi2  1  0.43285300  0.49376500  0.82521100  1
  Bi  Bi3  1  0.06714700  0.00623500  0.32521100  1
  Bi  Bi4  1  0.43285300  0.00623500  0.82521100  1
  Bi  Bi5  1  0.06714700  0.49376500  0.32521100  1
  Bi  Bi6  1  0.56714700  0.50623500  0.17478900  1
  Bi  Bi7  1  0.93285300  0.99376500  0.67478900  1
  Bi  Bi8  1  0.09449100  0.75000000  0.02445500  1
  Bi  Bi9  1  0.40550900  0.75000000  0.52445500  1
  Bi  Bi10  1  0.90550900  0.25000000  0.97554500  1
  Bi  Bi11  1  0.59449100  0.25000000  0.47554500  1
loop_
_geom_bond_atom_site_label_1
_geom_bond_atom_site_label_2
_geom_bond_distance
_geom_bond_site_symmetry_2
Bi0 Sm11 3.290405 1_565
Bi0 Sm12 3.295432 1_555
Bi0 Sm9 3.339527 1_554
Bi0 Sm16 3.353922 1_555
Bi0 Sm0 3.430163 1_555
Bi0 Sm15 3.441931 1_565
Bi0 Sm19 3.442723 1_565
Bi0 Sm3 3.494220 1_565
Bi0 Sm7 3.628454 1_554
Bi1 Sm10 3.290405 1_555
Bi1 Sm13 3.295432 1_655
Bi1 Sm8 3.339527 1_655
Bi1 Sm17 3.353922 1_555
Bi1 Sm1 3.430163 1_555
Bi1 Sm14 3.441931 1_555
Bi1 Sm18 3.442723 1_655
Bi1 Sm2 3.494220 1_655
Bi1 Sm6 3.628454 1_555
Bi2 Sm9 3.290405 1_555
Bi2 Sm14 3.295432 1_555
Bi2 Sm11 3.339527 1_556
Bi2 Sm18 3.353922 1_555
Bi2 Sm2 3.430163 1_555
Bi2 Sm13 3.441931 1_555
Bi2 Sm17 3.442723 1_555
Bi2 Sm1 3.494220 1_555
Bi2 Sm5 3.628454 1_556
Bi3 Sm8 3.290405 1_545
Bi3 Sm15 3.295432 1_455
Bi3 Sm10 3.339527 1_455
Bi3 Sm19 3.353922 1_555
Bi3 Sm3 3.430163 1_555
Bi3 Sm12 3.441931 1_545
Bi3 Sm16 3.442723 1_445
Bi3 Sm0 3.494220 1_445
Bi3 Sm4 3.628454 1_555
Bi4 Sm9 3.290405 1_545
Bi4 Sm14 3.295432 1_555
Bi4 Sm11 3.339527 1_556
Bi4 Sm18 3.353922 1_555
Bi4 Sm4 3.430163 1_555
Bi4 Sm13 3.441931 1_545
Bi4 Sm17 3.442723 1_545
Bi4 Sm7 3.494220 1_545
Bi4 Sm3 3.628454 1_556
Bi5 Sm8 3.290405 1_555
Bi5 Sm15 3.295432 1_455
Bi5 Sm10 3.339527 1_455
Bi5 Sm19 3.353922 1_555
Bi5 Sm5 3.430163 1_555
Bi5 Sm12 3.441931 1_555
Bi5 Sm16 3.442723 1_455
Bi5 Sm6 3.494220 1_455
Bi5 Sm2 3.628454 1_555
Bi6 Sm11 3.290405 1_555
Bi6 Sm12 3.295432 1_555
Bi6 Sm9 3.339527 1_554
Bi6 Sm16 3.353922 1_555
Bi6 Sm6 3.430163 1_555
Bi6 Sm15 3.441931 1_555
Bi6 Sm19 3.442723 1_555
Bi6 Sm5 3.494220 1_555
Bi6 Sm1 3.628454 1_554
Bi7 Sm10 3.290405 1_565
Bi7 Sm13 3.295432 1_655
Bi7 Sm8 3.339527 1_655
Bi7 Sm17 3.353922 1_555
Bi7 Sm7 3.430163 1_555
Bi7 Sm14 3.441931 1_565
Bi7 Sm18 3.442723 1_665
Bi7 Sm4 3.494220 1_665
Bi7 Sm0 3.628454 1_555
Bi8 Sm16 3.128742 1_455
Bi8 Sm3 3.155420 1_565
Bi8 Sm5 3.155420 1_555
Bi8 Sm13 3.191583 1_554
Bi8 Sm9 3.249159 1_554
Bi8 Sm7 3.256771 1_454
Bi8 Sm1 3.256771 1_454
Bi8 Sm12 3.672525 1_555
Bi9 Sm17 3.128742 1_555
Bi9 Sm4 3.155420 1_565
Bi9 Sm2 3.155420 1_555
Bi9 Sm12 3.191583 1_555
Bi9 Sm8 3.249159 1_555
Bi9 Sm0 3.256771 1_555
Bi9 Sm6 3.256771 1_555
Bi9 Sm13 3.672525 1_555
Bi10 Sm18 3.128742 1_655
Bi10 Sm1 3.155420 1_555
Bi10 Sm7 3.155420 1_545
Bi10 Sm15 3.191583 1_556
Bi10 Sm11 3.249159 1_556
Bi10 Sm5 3.256771 1_656
Bi10 Sm3 3.256771 1_656
Bi10 Sm14 3.672525 1_555
Bi11 Sm19 3.128742 1_555
Bi11 Sm6 3.155420 1_555
Bi11 Sm0 3.155420 1_545
Bi11 Sm14 3.191583 1_555
Bi11 Sm10 3.249159 1_555
Bi11 Sm2 3.256771 1_555
Bi11 Sm4 3.256771 1_555
Bi11 Sm15 3.672525 1_555
