# generated using pymatgen
data_Rb(IO3)3
_symmetry_space_group_name_H-M   'P 1'
_cell_length_a   7.11441000
_cell_length_b   7.49047733
_cell_length_c   18.37850725
_cell_angle_alpha   79.48474351
_cell_angle_beta   85.09256407
_cell_angle_gamma   71.51473860
_symmetry_Int_Tables_number   1
_chemical_formula_structural   Rb(IO3)3
_chemical_formula_sum   'Rb4 I12 O36'
_cell_volume   912.86333710
_cell_formula_units_Z   4
loop_
 _symmetry_equiv_pos_site_id
 _symmetry_equiv_pos_as_xyz
  1  'x, y, z'
loop_
 _atom_site_type_symbol
 _atom_site_label
 _atom_site_symmetry_multiplicity
 _atom_site_fract_x
 _atom_site_fract_y
 _atom_site_fract_z
 _atom_site_occupancy
  Rb  Rb0  1  0.54204300  0.09135500  0.17205200  1
  Rb  Rb1  1  0.45795700  0.90864500  0.82794800  1
  Rb  Rb2  1  0.30526400  0.82742500  0.49531000  1
  Rb  Rb3  1  0.69473600  0.17257500  0.50469000  1
  I  I0  1  0.97817300  0.49239100  0.60518100  1
  I  I1  1  0.02182700  0.50760900  0.39481900  1
  I  I2  1  0.10711000  0.13790300  0.03132900  1
  I  I3  1  0.89289000  0.86209700  0.96867100  1
  I  I4  1  0.52008000  0.63884500  0.07530100  1
  I  I5  1  0.47992000  0.36115500  0.92469800  1
  I  I6  1  0.06019400  0.56586000  0.16562900  1
  I  I7  1  0.93980600  0.43414000  0.83437100  1
  I  I8  1  0.51672100  0.59713800  0.30460400  1
  I  I9  1  0.48327900  0.40286200  0.69539600  1
  I  I10  1  0.02076800  0.94875900  0.69906100  1
  I  I11  1  0.97923200  0.05124100  0.30093900  1
  O  O0  1  0.77544300  0.61232300  0.29842400  1
  O  O1  1  0.22455700  0.38767700  0.70157600  1
  O  O2  1  0.80752400  0.48836800  0.68578500  1
  O  O3  1  0.19247600  0.51163200  0.31421500  1
  O  O4  1  0.98117100  0.73915500  0.59440100  1
  O  O5  1  0.01882900  0.26084500  0.40559900  1
  O  O6  1  0.80213900  0.51831300  0.53085900  1
  O  O7  1  0.19786100  0.48168700  0.46914100  1
  O  O8  1  0.15290900  0.99744200  0.95414600  1
  O  O9  1  0.84709100  0.00255800  0.04585400  1
  O  O10  1  0.34397400  0.21873800  0.00862700  1
  O  O11  1  0.65602600  0.78126200  0.99137300  1
  O  O12  1  0.05159400  0.59527600  0.06438100  1
  O  O13  1  0.94840600  0.40472400  0.93561900  1
  O  O14  1  0.24250100  0.94716700  0.10247100  1
  O  O15  1  0.75749900  0.05283300  0.89752900  1
  O  O16  1  0.65499900  0.39708600  0.06279900  1
  O  O17  1  0.34500100  0.60291400  0.93720100  1
  O  O18  1  0.33776800  0.52805800  0.16600400  1
  O  O19  1  0.66223200  0.47194200  0.83399600  1
  O  O20  1  0.65207600  0.67173500  0.15034000  1
  O  O21  1  0.34792400  0.32826500  0.84966000  1
  O  O22  1  0.07517800  0.31609800  0.18623900  1
  O  O23  1  0.92482200  0.68390200  0.81376100  1
  O  O24  1  0.52052400  0.53101800  0.40632800  1
  O  O25  1  0.47947600  0.46898200  0.59367300  1
  O  O26  1  0.38272200  0.85309100  0.29623300  1
  O  O27  1  0.61727800  0.14690900  0.70376700  1
  O  O28  1  0.04854500  0.06656400  0.77328800  1
  O  O29  1  0.95145500  0.93343600  0.22671200  1
  O  O30  1  0.02141600  0.12334900  0.61441300  1
  O  O31  1  0.97858400  0.87665100  0.38558700  1
  O  O32  1  0.29035900  0.79433000  0.69355600  1
  O  O33  1  0.70964100  0.20567000  0.30644400  1
  O  O34  1  0.51263900  0.08224100  0.36702100  1
  O  O35  1  0.48736100  0.91775900  0.63297900  1
loop_
_geom_bond_atom_site_label_1
_geom_bond_atom_site_label_2
_geom_bond_distance
_geom_bond_site_symmetry_2
I0 O4 1.829435 1_555
I0 O2 1.835362 1_555
I0 O6 1.874456 1_555
I0 O1 2.445124 1_655
I1 O5 1.829435 1_555
I1 O3 1.835362 1_555
I1 O7 1.874456 1_555
I1 O0 2.445124 1_455
I2 O14 1.827435 1_545
I2 O8 1.863748 1_544
I2 O10 1.953188 1_555
I2 O9 2.350974 1_455
I2 O13 2.447259 1_454
I3 O15 1.827435 1_565
I3 O9 1.863748 1_566
I3 O11 1.953188 1_555
I3 O8 2.350974 1_655
I3 O12 2.447259 1_656
I4 O16 1.807031 1_555
I4 O20 1.826685 1_555
I4 O11 2.061814 1_554
I4 O18 2.226545 1_555
I4 O14 2.615918 1_555
I5 O17 1.807035 1_555
I5 O21 1.826670 1_555
I5 O10 2.061825 1_556
I5 O19 2.226533 1_555
I5 O15 2.615913 1_555
I6 O22 1.810155 1_555
I6 O12 1.837417 1_555
I6 O18 1.904468 1_555
I7 O23 1.810155 1_555
I7 O13 1.837417 1_555
I7 O19 1.904468 1_555
I8 O26 1.834837 1_555
I8 O24 1.844827 1_555
I8 O0 1.872464 1_555
I8 O3 2.566843 1_555
I9 O27 1.834837 1_555
I9 O25 1.844809 1_555
I9 O1 1.872464 1_555
I9 O2 2.566843 1_555
I10 O28 1.809634 1_565
I10 O30 1.841330 1_565
I10 O32 1.905149 1_555
I11 O29 1.809634 1_545
I11 O31 1.841330 1_545
I11 O33 1.905149 1_555
O4 Rb2 2.979753 1_655
O4 Rb3 3.440479 1_565
O5 Rb3 2.979753 1_455
O5 Rb2 3.440479 1_545
O6 Rb3 3.048648 1_555
O7 Rb2 3.048648 1_555
O8 Rb1 3.052563 1_555
O9 Rb0 3.052563 1_555
O10 Rb0 3.277602 1_555
O11 Rb1 3.277602 1_555
O14 Rb0 3.126198 1_565
O15 Rb1 3.126198 1_545
O16 Rb0 3.022334 1_555
O17 Rb1 3.022334 1_555
O18 Rb0 3.115283 1_555
O19 Rb1 3.115283 1_555
O20 Rb0 3.081481 1_565
O21 Rb1 3.081481 1_545
O22 Rb0 3.224973 1_555
O23 Rb1 3.224973 1_555
O24 Rb3 2.917953 1_555
O24 Rb2 2.947843 1_555
O25 Rb2 2.917962 1_555
O25 Rb3 2.947855 1_555
O26 Rb0 3.005357 1_565
O27 Rb1 3.005357 1_545
O28 Rb1 2.962167 1_545
O29 Rb0 2.962167 1_565
O30 Rb3 3.096945 1_455
O30 Rb2 3.458181 1_545
O31 Rb2 3.096945 1_655
O31 Rb3 3.458181 1_565
O32 Rb1 3.190407 1_555
O33 Rb0 3.190407 1_555
O34 Rb3 3.206154 1_555
O34 Rb2 3.305567 1_545
O35 Rb2 3.206154 1_555
O35 Rb3 3.305567 1_565
