# generated using pymatgen
data_La3InPb4
_symmetry_space_group_name_H-M   'P 1'
_cell_length_a   8.91134511
_cell_length_b   8.91135799
_cell_length_c   8.86871644
_cell_angle_alpha   60.22750086
_cell_angle_beta   60.22845182
_cell_angle_gamma   90.68253666
_symmetry_Int_Tables_number   1
_chemical_formula_structural   La3InPb4
_chemical_formula_sum   'La6 In2 Pb8'
_cell_volume   498.43206243
_cell_formula_units_Z   2
loop_
 _symmetry_equiv_pos_site_id
 _symmetry_equiv_pos_as_xyz
  1  'x, y, z'
loop_
 _atom_site_type_symbol
 _atom_site_label
 _atom_site_symmetry_multiplicity
 _atom_site_fract_x
 _atom_site_fract_y
 _atom_site_fract_z
 _atom_site_occupancy
  La  La0  1  0.66591496  0.16591981  0.17295364  1
  La  La1  1  0.33926672  0.83927807  0.82704508  1
  La  La2  1  0.15627721  0.34015168  0.49999912  1
  La  La3  1  0.84015957  0.65626943  0.49996772  1
  La  La4  1  0.75437465  0.75438549  0.00002963  1
  La  La5  1  0.25442507  0.25441144  0.00000105  1
  In  In0  1  0.31799937  0.81800062  0.22178247  1
  In  In1  1  0.03939664  0.53941132  0.77816466  1
  Pb  Pb0  1  0.50520329  0.50500761  -0.00018954  1
  Pb  Pb1  1  0.00499281  0.00518994  -0.00017169  1
  Pb  Pb2  1  0.81936334  0.03356118  0.49977284  1
  Pb  Pb3  1  0.53357435  0.31936636  0.49974313  1
  Pb  Pb4  1  0.66603868  0.16603724  0.79975933  1
  Pb  Pb5  1  0.96600054  0.46600004  0.20050943  1
  Pb  Pb6  1  0.17639649  0.96061626  0.50032033  1
  Pb  Pb7  1  0.46061429  0.67639152  0.50031279  1
loop_
_geom_bond_atom_site_label_1
_geom_bond_atom_site_label_2
_geom_bond_distance
_geom_bond_site_symmetry_2
La0 Pb4 3.308688 1_554
La0 Pb0 3.349454 1_555
La0 Pb1 3.349494 1_655
La0 Pb3 3.498587 1_555
La0 Pb2 3.498782 1_555
La0 Pb6 3.572542 1_545
La0 Pb7 3.572589 1_545
La1 Pb5 3.309575 1_456
La1 Pb1 3.351025 1_566
La1 Pb0 3.351089 1_556
La1 Pb3 3.496627 1_565
La1 Pb2 3.496703 1_565
La1 Pb6 3.574114 1_555
La1 Pb7 3.574313 1_555
La2 Pb1 3.347560 1_556
La2 Pb0 3.350530 1_555
La2 Pb3 3.368463 1_555
La2 Pb6 3.387721 1_545
La2 Pb5 3.570337 1_455
La2 Pb4 3.573322 1_455
La3 Pb0 3.347714 1_556
La3 Pb1 3.350252 1_665
La3 Pb2 3.368680 1_565
La3 Pb7 3.387706 1_555
La3 Pb5 3.570088 1_555
La3 Pb4 3.573230 1_555
La4 Pb0 3.124103 1_555
La4 Pb1 3.139467 1_665
La4 Pb4 3.495416 1_564
La4 Pb5 3.497104 1_555
La4 Pb6 3.515200 1_654
La4 Pb7 3.518713 1_555
La4 Pb3 3.554847 1_555
La4 Pb2 3.558210 1_564
La5 Pb1 3.124467 1_555
La5 Pb0 3.139232 1_555
La5 Pb4 3.495315 1_554
La5 Pb5 3.497146 1_455
La5 Pb7 3.514961 1_554
La5 Pb6 3.518834 1_545
La5 Pb2 3.555242 1_455
La5 Pb3 3.558373 1_554
In0 Pb7 3.060989 1_555
In0 Pb6 3.061078 1_555
In0 Pb4 3.156189 1_564
In0 La1 3.317921 1_554
In0 La3 3.490813 1_455
In0 La2 3.490827 1_555
In0 In1 3.492393 1_555
In0 La4 3.588304 1_555
In0 La5 3.588392 1_565
In1 Pb6 3.060895 1_555
In1 Pb7 3.061015 1_555
In1 Pb5 3.163709 1_456
In1 La0 3.317259 1_456
In1 La2 3.488053 1_555
In1 La3 3.488084 1_455
In1 La4 3.590146 1_456
In1 La5 3.590300 1_556
Pb2 Pb5 3.143327 1_555
Pb2 Pb4 3.144268 1_555
Pb2 Pb6 3.256827 1_645
Pb3 Pb5 3.143256 1_555
Pb3 Pb4 3.144367 1_555
Pb3 Pb7 3.256866 1_555
