# generated using pymatgen
data_BiC2O5
_symmetry_space_group_name_H-M   'P 1'
_cell_length_a   5.90164100
_cell_length_b   6.08981500
_cell_length_c   11.51186400
_cell_angle_alpha   90.00000000
_cell_angle_beta   90.00000000
_cell_angle_gamma   90.00000000
_symmetry_Int_Tables_number   1
_chemical_formula_structural   BiC2O5
_chemical_formula_sum   'Bi4 C8 O20'
_cell_volume   413.73526269
_cell_formula_units_Z   4
loop_
 _symmetry_equiv_pos_site_id
 _symmetry_equiv_pos_as_xyz
  1  'x, y, z'
loop_
 _atom_site_type_symbol
 _atom_site_label
 _atom_site_symmetry_multiplicity
 _atom_site_fract_x
 _atom_site_fract_y
 _atom_site_fract_z
 _atom_site_occupancy
  Bi  Bi0  1  0.95945100  0.70639600  0.25000000  1
  Bi  Bi1  1  0.54054900  0.20639600  0.25000000  1
  Bi  Bi2  1  0.04054900  0.29360400  0.75000000  1
  Bi  Bi3  1  0.45945100  0.79360400  0.75000000  1
  C  C0  1  0.57394900  0.10057700  0.52409700  1
  C  C1  1  0.92605100  0.60057700  0.97590300  1
  C  C2  1  0.42605100  0.89942300  0.02409700  1
  C  C3  1  0.07394900  0.39942300  0.47590300  1
  C  C4  1  0.42605100  0.89942300  0.47590300  1
  C  C5  1  0.07394900  0.39942300  0.02409700  1
  C  C6  1  0.57394900  0.10057700  0.97590300  1
  C  C7  1  0.92605100  0.60057700  0.52409700  1
  O  O0  1  0.65263200  0.53785500  0.25000000  1
  O  O1  1  0.84736800  0.03785500  0.25000000  1
  O  O2  1  0.34736800  0.46214500  0.75000000  1
  O  O3  1  0.15263200  0.96214500  0.75000000  1
  O  O4  1  0.61461100  0.25426100  0.45424400  1
  O  O5  1  0.88538900  0.75426100  0.04575600  1
  O  O6  1  0.38538900  0.74573900  0.95424400  1
  O  O7  1  0.11461100  0.24573900  0.54575600  1
  O  O8  1  0.38538900  0.74573900  0.54575600  1
  O  O9  1  0.11461100  0.24573900  0.95424400  1
  O  O10  1  0.61461100  0.25426100  0.04575600  1
  O  O11  1  0.88538900  0.75426100  0.45424400  1
  O  O12  1  0.63795700  0.08971100  0.62853400  1
  O  O13  1  0.86204300  0.58971100  0.87146600  1
  O  O14  1  0.36204300  0.91028900  0.12853400  1
  O  O15  1  0.13795700  0.41028900  0.37146600  1
  O  O16  1  0.36204300  0.91028900  0.37146600  1
  O  O17  1  0.13795700  0.41028900  0.12853400  1
  O  O18  1  0.63795700  0.08971100  0.87146600  1
  O  O19  1  0.86204300  0.58971100  0.62853400  1
loop_
_geom_bond_atom_site_label_1
_geom_bond_atom_site_label_2
_geom_bond_distance
_geom_bond_site_symmetry_2
Bi0 O0 2.081400 1_555
Bi0 O1 2.124144 1_565
Bi0 O11 2.409209 1_555
Bi0 O5 2.409209 1_555
Bi0 O15 2.513309 1_655
Bi0 O17 2.513309 1_655
Bi1 O1 2.081400 1_555
Bi1 O0 2.124144 1_555
Bi1 O4 2.409209 1_555
Bi1 O10 2.409209 1_555
Bi1 O16 2.513309 1_545
Bi1 O14 2.513309 1_545
Bi2 O2 2.081400 1_555
Bi2 O3 2.124144 1_545
Bi2 O7 2.409209 1_555
Bi2 O9 2.409209 1_555
Bi2 O13 2.513309 1_455
Bi2 O19 2.513309 1_455
Bi3 O3 2.081400 1_555
Bi3 O2 2.124144 1_555
Bi3 O6 2.409209 1_555
Bi3 O8 2.409209 1_555
Bi3 O18 2.513309 1_565
Bi3 O12 2.513309 1_565
C0 O4 1.257039 1_555
C0 O12 1.261949 1_555
C1 O5 1.257039 1_556
C1 O13 1.261949 1_555
C2 O6 1.257039 1_554
C2 O14 1.261949 1_555
C3 O7 1.257039 1_555
C3 O15 1.261949 1_555
C4 O8 1.257039 1_555
C4 O16 1.261949 1_555
C5 O9 1.257039 1_554
C5 O17 1.261949 1_555
C6 O10 1.257039 1_556
C6 O18 1.261949 1_555
C7 O11 1.257039 1_555
C7 O19 1.261949 1_555
