# generated using pymatgen
data_Nd2Ge3Pd
_symmetry_space_group_name_H-M   'P 1'
_cell_length_a   4.16900535
_cell_length_b   4.37953535
_cell_length_c   7.27384446
_cell_angle_alpha   90.00000000
_cell_angle_beta   90.00000000
_cell_angle_gamma   90.00000000
_symmetry_Int_Tables_number   1
_chemical_formula_structural   Nd2Ge3Pd
_chemical_formula_sum   'Nd2 Ge3 Pd1'
_cell_volume   132.80808016
_cell_formula_units_Z   1
loop_
 _symmetry_equiv_pos_site_id
 _symmetry_equiv_pos_as_xyz
  1  'x, y, z'
loop_
 _atom_site_type_symbol
 _atom_site_label
 _atom_site_symmetry_multiplicity
 _atom_site_fract_x
 _atom_site_fract_y
 _atom_site_fract_z
 _atom_site_occupancy
  Nd  Nd0  1  -0.00000000  0.50000000  0.99677141  1
  Nd  Nd1  1  -0.00000000  0.00000000  0.50310692  1
  Ge  Ge0  1  0.50000000  -0.00000000  0.83402016  1
  Ge  Ge1  1  0.50000000  -0.00000000  0.17481094  1
  Ge  Ge2  1  0.50000000  0.50000000  0.66314492  1
  Pd  Pd0  1  0.50000000  0.50000000  0.32814566  1
loop_
_geom_bond_atom_site_label_1
_geom_bond_atom_site_label_2
_geom_bond_distance
_geom_bond_site_symmetry_2
Nd0 Pd0 3.186693 1_556
Nd0 Pd0 3.186693 1_456
Nd1 Pd0 3.280221 1_455
Nd1 Pd0 3.280221 1_545
Nd1 Pd0 3.280221 1_445
Nd1 Pd0 3.280221 1_555
Ge0 Ge1 2.478859 1_556
Ge0 Ge2 2.517922 1_545
Ge0 Ge2 2.517922 1_555
Ge0 Nd1 3.184157 1_555
Ge0 Nd1 3.184157 1_655
Ge0 Nd0 3.246795 1_555
Ge0 Nd0 3.246795 1_545
Ge0 Nd0 3.246795 1_645
Ge0 Nd0 3.246795 1_655
Ge1 Pd0 2.457448 1_555
Ge1 Pd0 2.457448 1_545
Ge1 Nd1 3.169790 1_655
Ge1 Nd1 3.169790 1_555
Ge1 Nd0 3.288973 1_554
Ge1 Nd0 3.288973 1_654
Ge1 Nd0 3.288973 1_644
Ge1 Nd0 3.288973 1_544
Ge2 Pd0 2.436733 1_555
Ge2 Nd0 3.199102 1_555
Ge2 Nd0 3.199102 1_655
Ge2 Nd1 3.239652 1_555
Ge2 Nd1 3.239652 1_665
Ge2 Nd1 3.239652 1_565
Ge2 Nd1 3.239652 1_655
