# generated using pymatgen
data_CsMn2N3
_symmetry_space_group_name_H-M   'P 1'
_cell_length_a   8.06914269
_cell_length_b   8.06914269
_cell_length_c   9.66984141
_cell_angle_alpha   75.64915228
_cell_angle_beta   75.64915228
_cell_angle_gamma   112.64543109
_symmetry_Int_Tables_number   1
_chemical_formula_structural   CsMn2N3
_chemical_formula_sum   'Cs4 Mn8 N12'
_cell_volume   519.79495870
_cell_formula_units_Z   4
loop_
 _symmetry_equiv_pos_site_id
 _symmetry_equiv_pos_as_xyz
  1  'x, y, z'
loop_
 _atom_site_type_symbol
 _atom_site_label
 _atom_site_symmetry_multiplicity
 _atom_site_fract_x
 _atom_site_fract_y
 _atom_site_fract_z
 _atom_site_occupancy
  Cs  Cs0  1  0.71292700  0.28707300  0.75000000  1
  Cs  Cs1  1  0.28707300  0.71292700  0.25000000  1
  Cs  Cs2  1  0.36543000  0.63457000  0.75000000  1
  Cs  Cs3  1  0.63457000  0.36543000  0.25000000  1
  Mn  Mn0  1  0.86526900  0.86333900  0.84822700  1
  Mn  Mn1  1  0.13666100  0.13473100  0.65177300  1
  Mn  Mn2  1  0.13473100  0.13666100  0.15177300  1
  Mn  Mn3  1  0.86333900  0.86526900  0.34822700  1
  Mn  Mn4  1  0.92136500  0.82961700  0.57954900  1
  Mn  Mn5  1  0.17038300  0.07863500  0.92045100  1
  Mn  Mn6  1  0.07863500  0.17038300  0.42045100  1
  Mn  Mn7  1  0.82961700  0.92136500  0.07954900  1
  N  N0  1  0.70204900  0.92141500  0.95315000  1
  N  N1  1  0.07858500  0.29795100  0.54685000  1
  N  N2  1  0.29795100  0.07858500  0.04685000  1
  N  N3  1  0.92141500  0.70204900  0.45315000  1
  N  N4  1  0.76937700  0.68825300  0.77434800  1
  N  N5  1  0.31174700  0.23062300  0.72565200  1
  N  N6  1  0.23062300  0.31174700  0.22565200  1
  N  N7  1  0.68825300  0.76937700  0.27434800  1
  N  N8  1  0.17254900  0.01587700  0.52100400  1
  N  N9  1  0.98412300  0.82745100  0.97899600  1
  N  N10  1  0.82745100  0.98412300  0.47899600  1
  N  N11  1  0.01587700  0.17254900  0.02100400  1
loop_
_geom_bond_atom_site_label_1
_geom_bond_atom_site_label_2
_geom_bond_distance
_geom_bond_site_symmetry_2
Cs0 N1 3.068265 1_655
Cs0 N0 3.068265 1_545
Cs0 N5 3.168240 1_555
Cs0 N4 3.168240 1_555
Cs0 N3 3.284182 1_555
Cs0 N2 3.284182 1_556
Cs1 N2 3.068265 1_565
Cs1 N3 3.068265 1_455
Cs1 N7 3.168240 1_555
Cs1 N6 3.168240 1_555
Cs1 N1 3.284182 1_555
Cs1 N0 3.284182 1_554
Cs2 N5 3.195491 1_555
Cs2 N4 3.195491 1_555
Cs2 N11 3.480987 1_556
Cs2 N10 3.480987 1_555
Cs3 N6 3.195491 1_555
Cs3 N7 3.195491 1_555
Cs3 N8 3.480987 1_555
Cs3 N9 3.480987 1_554
Mn0 N0 1.741313 1_555
Mn0 N4 1.742875 1_555
Mn0 N9 1.798930 1_555
Mn1 N1 1.741313 1_555
Mn1 N5 1.742875 1_555
Mn1 N8 1.798930 1_555
Mn2 N2 1.741313 1_555
Mn2 N6 1.742875 1_555
Mn2 N11 1.798930 1_555
Mn3 N3 1.741313 1_555
Mn3 N7 1.742875 1_555
Mn3 N10 1.798930 1_555
Mn4 N4 1.750968 1_555
Mn4 N3 1.782489 1_555
Mn4 N8 1.830597 1_665
Mn4 N10 1.888360 1_555
Mn5 N5 1.750968 1_555
Mn5 N2 1.782489 1_556
Mn5 N9 1.830597 1_445
Mn5 N11 1.888360 1_556
Mn6 N6 1.750968 1_555
Mn6 N1 1.782489 1_555
Mn6 N10 1.830597 1_445
Mn6 N8 1.888360 1_555
Mn7 N7 1.750968 1_555
Mn7 N0 1.782489 1_554
Mn7 N11 1.830597 1_665
Mn7 N9 1.888360 1_554
