# generated using pymatgen
data_RbAl(MoO4)2
_symmetry_space_group_name_H-M   'P 1'
_cell_length_a   5.65367373
_cell_length_b   5.65367373
_cell_length_c   7.47599700
_cell_angle_alpha   90.00000000
_cell_angle_beta   90.00000000
_cell_angle_gamma   119.99999687
_symmetry_Int_Tables_number   1
_chemical_formula_structural   RbAl(MoO4)2
_chemical_formula_sum   'Rb1 Al1 Mo2 O8'
_cell_volume   206.94800697
_cell_formula_units_Z   1
loop_
 _symmetry_equiv_pos_site_id
 _symmetry_equiv_pos_as_xyz
  1  'x, y, z'
loop_
 _atom_site_type_symbol
 _atom_site_label
 _atom_site_symmetry_multiplicity
 _atom_site_fract_x
 _atom_site_fract_y
 _atom_site_fract_z
 _atom_site_occupancy
  Rb  Rb0  1  0.00000000  0.00000000  0.00000000  1
  Al  Al0  1  0.00000000  0.00000000  0.50000000  1
  Mo  Mo0  1  0.33333300  0.66666700  0.27500500  1
  Mo  Mo1  1  0.66666700  0.33333300  0.72499500  1
  O  O0  1  0.15768600  0.84231400  0.34946800  1
  O  O1  1  0.84231400  0.15768600  0.65053200  1
  O  O2  1  0.15768600  0.31537200  0.34946800  1
  O  O3  1  0.84231400  0.68462800  0.65053200  1
  O  O4  1  0.68462800  0.84231400  0.34946800  1
  O  O5  1  0.31537200  0.15768600  0.65053200  1
  O  O6  1  0.33333300  0.66666700  0.04089700  1
  O  O7  1  0.66666700  0.33333300  0.95910300  1
loop_
_geom_bond_atom_site_label_1
_geom_bond_atom_site_label_2
_geom_bond_distance
_geom_bond_site_symmetry_2
Al0 O0 1.910711 1_545
Al0 O1 1.910711 1_455
Al0 O3 1.910711 1_445
Al0 O4 1.910711 1_445
Al0 O5 1.910711 1_555
Al0 O2 1.910711 1_555
Mo0 O6 1.750191 1_555
Mo0 O0 1.807857 1_555
Mo0 O4 1.807862 1_555
Mo0 O2 1.807862 1_555
Mo1 O7 1.750191 1_555
Mo1 O1 1.807857 1_555
Mo1 O3 1.807862 1_555
Mo1 O5 1.807862 1_555
O0 Rb0 3.034821 1_565
O1 Rb0 3.034821 1_656
O2 Rb0 3.034821 1_555
O3 Rb0 3.034821 1_666
O4 Rb0 3.034821 1_665
O5 Rb0 3.034821 1_556
O6 Rb0 3.278435 1_565
O6 Rb0 3.278440 1_555
O6 Rb0 3.278440 1_665
O7 Rb0 3.278435 1_656
O7 Rb0 3.278440 1_666
O7 Rb0 3.278440 1_556
