# generated using pymatgen
data_UMnFe
_symmetry_space_group_name_H-M   'P 1'
_cell_length_a   5.11971980
_cell_length_b   5.11971980
_cell_length_c   5.11971980
_cell_angle_alpha   90.86563093
_cell_angle_beta   58.56897293
_cell_angle_gamma   119.57983104
_symmetry_Int_Tables_number   1
_chemical_formula_structural   UMnFe
_chemical_formula_sum   'U2 Mn2 Fe2'
_cell_volume   94.12281229
_cell_formula_units_Z   2
loop_
 _symmetry_equiv_pos_site_id
 _symmetry_equiv_pos_as_xyz
  1  'x, y, z'
loop_
 _atom_site_type_symbol
 _atom_site_label
 _atom_site_symmetry_multiplicity
 _atom_site_fract_x
 _atom_site_fract_y
 _atom_site_fract_z
 _atom_site_occupancy
  U  U0  1  0.50000000  0.75216338  0.74783662  1
  U  U1  1  0.00000000  -0.00216338  0.00216338  1
  Mn  Mn0  1  0.25000000  0.87500000  0.37500000  1
  Mn  Mn1  1  0.75000000  0.37500000  0.37500000  1
  Fe  Fe0  1  0.75000000  0.37500000  0.87500000  1
  Fe  Fe1  1  0.25000000  0.37500000  0.37500000  1
loop_
_geom_bond_atom_site_label_1
_geom_bond_atom_site_label_2
_geom_bond_distance
_geom_bond_site_symmetry_2
U0 U1 3.079495 1_566
U0 U1 3.079495 1_665
U0 U1 3.174642 1_666
U0 U1 3.174642 1_556
Mn0 Mn1 2.576100 1_565
Mn0 Mn1 2.576100 1_455
Mn0 U1 2.964973 1_566
Mn0 U0 2.964973 1_554
Mn0 U0 2.964973 1_455
Mn0 U1 2.964973 1_665
Mn0 U0 3.009376 1_555
Mn0 U1 3.009376 1_565
Mn1 U1 2.964973 1_655
Mn1 U0 2.964973 1_555
Mn1 U1 2.964973 1_556
Mn1 U0 2.964973 1_654
Mn1 U1 3.009376 1_665
Mn1 U0 3.009376 1_545
Fe0 Fe1 2.504292 1_556
Fe0 Fe1 2.504292 1_655
Fe0 Mn1 2.559860 1_556
Fe0 Mn1 2.559860 1_555
Fe0 Mn0 2.559860 1_655
Fe0 Mn0 2.559860 1_546
Fe0 U1 3.001185 1_556
Fe0 U0 3.001185 1_655
Fe0 U1 3.001185 1_666
Fe0 U0 3.001185 1_545
Fe0 U1 3.022884 1_656
Fe0 U0 3.022884 1_555
Fe1 Mn0 2.559860 1_545
Fe1 Mn0 2.559860 1_555
Fe1 Mn1 2.559860 1_455
Fe1 Mn1 2.559860 1_555
Fe1 U0 3.001185 1_445
Fe1 U1 3.001185 1_665
Fe1 U0 3.001185 1_555
Fe1 U1 3.001185 1_555
Fe1 U1 3.022884 1_556
Fe1 U0 3.022884 1_554
