# generated using pymatgen
data_SrTa2O6
_symmetry_space_group_name_H-M   'P 1'
_cell_length_a   5.63450966
_cell_length_b   7.64221050
_cell_length_c   11.06642043
_cell_angle_alpha   90.00000000
_cell_angle_beta   90.00000000
_cell_angle_gamma   90.00000000
_symmetry_Int_Tables_number   1
_chemical_formula_structural   SrTa2O6
_chemical_formula_sum   'Sr4 Ta8 O24'
_cell_volume   476.52126869
_cell_formula_units_Z   4
loop_
 _symmetry_equiv_pos_site_id
 _symmetry_equiv_pos_as_xyz
  1  'x, y, z'
loop_
 _atom_site_type_symbol
 _atom_site_label
 _atom_site_symmetry_multiplicity
 _atom_site_fract_x
 _atom_site_fract_y
 _atom_site_fract_z
 _atom_site_occupancy
  Sr  Sr0  1  0.96244855  0.75000000  0.46000307  1
  Sr  Sr1  1  0.46244855  0.25000000  0.03999693  1
  Sr  Sr2  1  0.03755145  0.25000000  0.53999693  1
  Sr  Sr3  1  0.53755145  0.75000000  0.96000307  1
  Ta  Ta0  1  0.46504330  0.49545633  0.35746906  1
  Ta  Ta1  1  0.96504330  0.50454367  0.14253094  1
  Ta  Ta2  1  0.53495670  0.99545633  0.64253094  1
  Ta  Ta3  1  0.03495670  0.00454367  0.85746906  1
  Ta  Ta4  1  0.53495670  0.50454367  0.64253094  1
  Ta  Ta5  1  0.03495670  0.49545633  0.85746906  1
  Ta  Ta6  1  0.46504330  0.00454367  0.35746906  1
  Ta  Ta7  1  0.96504330  0.99545633  0.14253094  1
  O  O0  1  0.13996120  0.25000000  0.87072666  1
  O  O1  1  0.63996120  0.75000000  0.62927334  1
  O  O2  1  0.86003880  0.75000000  0.12927334  1
  O  O3  1  0.36003880  0.25000000  0.37072666  1
  O  O4  1  0.96951287  0.75000000  0.85434085  1
  O  O5  1  0.46951287  0.25000000  0.64565915  1
  O  O6  1  0.03048713  0.25000000  0.14565915  1
  O  O7  1  0.53048713  0.75000000  0.35434085  1
  O  O8  1  0.28171236  0.96583899  0.52412943  1
  O  O9  1  0.78171236  0.03416101  0.97587057  1
  O  O10  1  0.71828764  0.46583899  0.47587057  1
  O  O11  1  0.21828764  0.53416101  0.02412943  1
  O  O12  1  0.64188265  0.45068145  0.21379583  1
  O  O13  1  0.14188265  0.54931855  0.28620417  1
  O  O14  1  0.35811735  0.95068145  0.78620417  1
  O  O15  1  0.85811735  0.04931855  0.71379583  1
  O  O16  1  0.35811735  0.54931855  0.78620417  1
  O  O17  1  0.85811735  0.45068145  0.71379583  1
  O  O18  1  0.64188265  0.04931855  0.21379583  1
  O  O19  1  0.14188265  0.95068145  0.28620417  1
  O  O20  1  0.78171236  0.46583899  0.97587057  1
  O  O21  1  0.28171236  0.53416101  0.52412943  1
  O  O22  1  0.21828764  0.96583899  0.02412943  1
  O  O23  1  0.71828764  0.03416101  0.47587057  1
loop_
_geom_bond_atom_site_label_1
_geom_bond_atom_site_label_2
_geom_bond_distance
_geom_bond_site_symmetry_2
O0 Ta5 1.972386 1_555
O0 Ta3 1.972386 1_555
O0 Sr1 2.609720 1_556
O1 Ta2 1.972386 1_555
O1 Ta4 1.972386 1_555
O1 Sr0 2.609720 1_555
O2 Ta7 1.972386 1_555
O2 Ta1 1.972386 1_555
O2 Sr3 2.609720 1_554
O3 Ta0 1.972386 1_555
O3 Ta6 1.972386 1_555
O3 Sr2 2.609720 1_555
O4 Ta5 1.980220 1_655
O4 Ta3 1.980220 1_665
O4 Sr3 2.700202 1_555
O5 Ta2 1.980220 1_545
O5 Ta4 1.980220 1_555
O5 Sr2 2.700202 1_555
O6 Ta7 1.980220 1_445
O6 Ta1 1.980220 1_455
O6 Sr1 2.700202 1_555
O7 Ta0 1.980220 1_555
O7 Ta6 1.980220 1_565
O7 Sr0 2.700202 1_555
O8 Ta2 1.950418 1_555
O8 Ta6 2.134504 1_565
O8 Sr0 2.541738 1_455
O8 Sr2 2.576700 1_565
O9 Ta3 1.950418 1_655
O9 Ta7 2.134504 1_546
O9 Sr1 2.541738 1_556
O9 Sr3 2.576700 1_545
O10 Ta0 1.950418 1_555
O10 Ta4 2.134504 1_555
O10 Sr2 2.541738 1_655
O10 Sr0 2.576700 1_555
O11 Ta1 1.950418 1_455
O11 Ta5 2.134504 1_554
O11 Sr3 2.541738 1_554
O11 Sr1 2.576700 1_555
O12 Ta0 1.907313 1_555
O12 Ta1 2.026549 1_555
O12 Sr1 2.659597 1_555
O13 Ta1 1.907313 1_455
O13 Ta0 2.026549 1_555
O13 Sr0 2.659597 1_455
O14 Ta2 1.907313 1_555
O14 Ta3 2.026549 1_565
O14 Sr3 2.659597 1_555
O15 Ta3 1.907313 1_655
O15 Ta2 2.026549 1_545
O15 Sr2 2.659597 1_655
O16 Ta4 1.907313 1_555
O16 Ta5 2.026549 1_555
O16 Sr3 2.659597 1_555
O17 Ta5 1.907313 1_655
O17 Ta4 2.026549 1_555
O17 Sr2 2.659597 1_655
O18 Ta6 1.907313 1_555
O18 Ta7 2.026549 1_545
O18 Sr1 2.659597 1_555
O19 Ta7 1.907313 1_455
O19 Ta6 2.026549 1_565
O19 Sr0 2.659597 1_455
O20 Ta5 1.950418 1_655
O20 Ta1 2.134504 1_556
O20 Sr1 2.541738 1_556
O20 Sr3 2.576700 1_555
O21 Ta4 1.950418 1_555
O21 Ta0 2.134504 1_555
O21 Sr0 2.541738 1_455
O21 Sr2 2.576700 1_555
O22 Ta7 1.950418 1_455
O22 Ta3 2.134504 1_564
O22 Sr3 2.541738 1_554
O22 Sr1 2.576700 1_565
O23 Ta6 1.950418 1_555
O23 Ta2 2.134504 1_545
O23 Sr2 2.541738 1_655
O23 Sr0 2.576700 1_545
