# generated using pymatgen
data_Mn2PO4
_symmetry_space_group_name_H-M   'P 1'
_cell_length_a   4.92335500
_cell_length_b   6.59807500
_cell_length_c   10.93968500
_cell_angle_alpha   90.00000000
_cell_angle_beta   90.00000000
_cell_angle_gamma   90.00000000
_symmetry_Int_Tables_number   1
_chemical_formula_structural   Mn2PO4
_chemical_formula_sum   'Mn8 P4 O16'
_cell_volume   355.37200836
_cell_formula_units_Z   4
loop_
 _symmetry_equiv_pos_site_id
 _symmetry_equiv_pos_as_xyz
  1  'x, y, z'
loop_
 _atom_site_type_symbol
 _atom_site_label
 _atom_site_symmetry_multiplicity
 _atom_site_fract_x
 _atom_site_fract_y
 _atom_site_fract_z
 _atom_site_occupancy
  Mn  Mn0  1  0.06602300  0.75000000  0.69603300  1
  Mn  Mn1  1  0.93397700  0.25000000  0.30396700  1
  Mn  Mn2  1  0.56602300  0.25000000  0.80396700  1
  Mn  Mn3  1  0.43397700  0.75000000  0.19603300  1
  Mn  Mn4  1  0.50000000  0.50000000  0.50000000  1
  Mn  Mn5  1  0.00000000  0.50000000  0.00000000  1
  Mn  Mn6  1  0.50000000  0.00000000  0.50000000  1
  Mn  Mn7  1  0.00000000  0.00000000  0.00000000  1
  P  P0  1  0.56525900  0.75000000  0.88804100  1
  P  P1  1  0.43474100  0.25000000  0.11195900  1
  P  P2  1  0.06525900  0.25000000  0.61195900  1
  P  P3  1  0.93474100  0.75000000  0.38804100  1
  O  O0  1  0.69629500  0.56056500  0.82833100  1
  O  O1  1  0.30370500  0.43943500  0.17166900  1
  O  O2  1  0.19629500  0.43943500  0.67166900  1
  O  O3  1  0.30370500  0.06056500  0.17166900  1
  O  O4  1  0.80370500  0.56056500  0.32833100  1
  O  O5  1  0.69629500  0.93943500  0.82833100  1
  O  O6  1  0.80370500  0.93943500  0.32833100  1
  O  O7  1  0.19629500  0.06056500  0.67166900  1
  O  O8  1  0.83380000  0.75000000  0.52591600  1
  O  O9  1  0.16620000  0.25000000  0.47408400  1
  O  O10  1  0.33380000  0.25000000  0.97408400  1
  O  O11  1  0.66620000  0.75000000  0.02591600  1
  O  O12  1  0.24759900  0.75000000  0.88242700  1
  O  O13  1  0.75240100  0.25000000  0.11757300  1
  O  O14  1  0.74759900  0.25000000  0.61757300  1
  O  O15  1  0.25240100  0.75000000  0.38242700  1
loop_
_geom_bond_atom_site_label_1
_geom_bond_atom_site_label_2
_geom_bond_distance
_geom_bond_site_symmetry_2
Mn0 O2 2.163641 1_555
Mn0 O7 2.163641 1_565
Mn0 O8 2.184168 1_455
Mn0 O12 2.226447 1_555
Mn0 O0 2.640159 1_455
Mn0 O5 2.640159 1_455
Mn1 O4 2.163641 1_555
Mn1 O6 2.163641 1_545
Mn1 O9 2.184168 1_655
Mn1 O13 2.226447 1_555
Mn1 O3 2.640159 1_655
Mn1 O1 2.640159 1_655
Mn2 O0 2.163641 1_555
Mn2 O5 2.163641 1_545
Mn2 O10 2.184168 1_555
Mn2 O14 2.226447 1_555
Mn2 O7 2.640159 1_555
Mn2 O2 2.640159 1_555
Mn3 O3 2.163641 1_565
Mn3 O1 2.163641 1_555
Mn3 O11 2.184168 1_555
Mn3 O15 2.226447 1_555
Mn3 O6 2.640159 1_555
Mn3 O4 2.640159 1_555
Mn4 O8 2.345657 1_555
Mn4 O9 2.345657 1_555
Mn4 O15 2.421003 1_555
Mn4 O14 2.421003 1_555
Mn4 O2 2.433589 1_555
Mn4 O4 2.433589 1_555
Mn5 O11 2.345657 1_455
Mn5 O10 2.345657 1_554
Mn5 O13 2.421003 1_455
Mn5 O12 2.421003 1_554
Mn5 O0 2.433589 1_454
Mn5 O1 2.433589 1_555
Mn6 O9 2.345657 1_555
Mn6 O8 2.345657 1_545
Mn6 O15 2.421003 1_545
Mn6 O14 2.421003 1_555
Mn6 O7 2.433589 1_555
Mn6 O6 2.433589 1_545
Mn7 O11 2.345657 1_445
Mn7 O10 2.345657 1_554
Mn7 O13 2.421003 1_455
Mn7 O12 2.421003 1_544
Mn7 O5 2.433589 1_444
Mn7 O3 2.433589 1_555
O0 P0 1.550854 1_555
O1 P1 1.550854 1_555
O2 P2 1.550854 1_555
O3 P1 1.550854 1_555
O4 P3 1.550854 1_555
O5 P0 1.550854 1_555
O6 P3 1.550854 1_555
O7 P2 1.550854 1_555
O8 P3 1.588072 1_555
O9 P2 1.588072 1_555
O10 P1 1.588072 1_556
O11 P0 1.588072 1_554
O12 P0 1.565158 1_555
O13 P1 1.565158 1_555
O14 P2 1.565158 1_655
O15 P3 1.565158 1_455
