# generated using pymatgen
data_LiMnF3
_symmetry_space_group_name_H-M   'P 1'
_cell_length_a   6.41096812
_cell_length_b   6.41096812
_cell_length_c   6.47982600
_cell_angle_alpha   90.00000000
_cell_angle_beta   90.00000000
_cell_angle_gamma   107.65237871
_symmetry_Int_Tables_number   1
_chemical_formula_structural   LiMnF3
_chemical_formula_sum   'Li4 Mn4 F12'
_cell_volume   253.78398764
_cell_formula_units_Z   4
loop_
 _symmetry_equiv_pos_site_id
 _symmetry_equiv_pos_as_xyz
  1  'x, y, z'
loop_
 _atom_site_type_symbol
 _atom_site_label
 _atom_site_symmetry_multiplicity
 _atom_site_fract_x
 _atom_site_fract_y
 _atom_site_fract_z
 _atom_site_occupancy
  Li  Li0  1  0.50010400  0.49989600  0.75000000  1
  Li  Li1  1  0.00785700  0.99214300  0.25000000  1
  Li  Li2  1  0.49989600  0.50010400  0.25000000  1
  Li  Li3  1  0.99214300  0.00785700  0.75000000  1
  Mn  Mn0  1  0.50000000  0.00000000  0.00000000  1
  Mn  Mn1  1  0.50000000  0.00000000  0.50000000  1
  Mn  Mn2  1  0.00000000  0.50000000  0.50000000  1
  Mn  Mn3  1  0.00000000  0.50000000  0.00000000  1
  F  F0  1  0.44788200  0.19376700  0.75000000  1
  F  F1  1  0.19376700  0.44788200  0.25000000  1
  F  F2  1  0.45182500  0.19441000  0.25000000  1
  F  F3  1  0.19441000  0.45182500  0.75000000  1
  F  F4  1  0.13753000  0.86247000  0.49558300  1
  F  F5  1  0.86247000  0.13753000  0.99558300  1
  F  F6  1  0.86247000  0.13753000  0.50441700  1
  F  F7  1  0.13753000  0.86247000  0.00441700  1
  F  F8  1  0.54817500  0.80559000  0.75000000  1
  F  F9  1  0.80559000  0.54817500  0.25000000  1
  F  F10  1  0.55211800  0.80623300  0.25000000  1
  F  F11  1  0.80623300  0.55211800  0.75000000  1
loop_
_geom_bond_atom_site_label_1
_geom_bond_atom_site_label_2
_geom_bond_distance
_geom_bond_site_symmetry_2
F0 Li0 1.888207 1_555
F0 Mn1 2.128562 1_555
F0 Mn0 2.128562 1_556
F1 Li2 1.888207 1_555
F1 Mn3 2.128562 1_555
F1 Mn2 2.128562 1_555
F2 Li2 1.889305 1_555
F2 Mn0 2.122853 1_555
F2 Mn1 2.122853 1_555
F3 Li0 1.889305 1_555
F3 Mn2 2.122853 1_555
F3 Mn3 2.122853 1_556
F4 Li1 2.081756 1_555
F4 Mn2 2.221615 1_555
F4 Mn1 2.221615 1_565
F4 Li3 2.232086 1_465
F5 Li3 2.081756 1_555
F5 Mn0 2.221615 1_556
F5 Mn3 2.221615 1_656
F5 Li1 2.232086 1_646
F6 Li3 2.081756 1_555
F6 Mn1 2.221615 1_555
F6 Mn2 2.221615 1_655
F6 Li1 2.232086 1_645
F7 Li1 2.081756 1_555
F7 Mn3 2.221615 1_555
F7 Mn0 2.221615 1_565
F7 Li3 2.232086 1_464
F8 Li0 1.889305 1_555
F8 Mn1 2.122853 1_565
F8 Mn0 2.122853 1_566
F9 Li2 1.889305 1_555
F9 Mn2 2.122853 1_655
F9 Mn3 2.122853 1_655
F10 Li2 1.888207 1_555
F10 Mn1 2.128562 1_565
F10 Mn0 2.128562 1_565
F11 Li0 1.888207 1_555
F11 Mn3 2.128562 1_656
F11 Mn2 2.128562 1_655
