# generated using pymatgen
data_GdUAl4
_symmetry_space_group_name_H-M   'P 1'
_cell_length_a   5.54047154
_cell_length_b   5.54047154
_cell_length_c   5.54047154
_cell_angle_alpha   90.00000000
_cell_angle_beta   60.00000000
_cell_angle_gamma   120.00000000
_symmetry_Int_Tables_number   1
_chemical_formula_structural   GdUAl4
_chemical_formula_sum   'Gd1 U1 Al4'
_cell_volume   120.26110453
_cell_formula_units_Z   1
loop_
 _symmetry_equiv_pos_site_id
 _symmetry_equiv_pos_as_xyz
  1  'x, y, z'
loop_
 _atom_site_type_symbol
 _atom_site_label
 _atom_site_symmetry_multiplicity
 _atom_site_fract_x
 _atom_site_fract_y
 _atom_site_fract_z
 _atom_site_occupancy
  Gd  Gd0  1  0.50000000  0.75000000  0.75000000  1
  U  U0  1  0.00000000  0.00000000  0.00000000  1
  Al  Al0  1  0.74899800  0.37449900  0.87650300  1
  Al  Al1  1  0.25100200  0.37449900  0.37449900  1
  Al  Al2  1  0.25100200  0.87650300  0.37449900  1
  Al  Al3  1  0.74899800  0.37449900  0.37449900  1
loop_
_geom_bond_atom_site_label_1
_geom_bond_atom_site_label_2
_geom_bond_distance
_geom_bond_site_symmetry_2
Gd0 U0 3.392832 1_666
Gd0 U0 3.392832 1_566
Gd0 U0 3.392832 1_665
Gd0 U0 3.392832 1_556
Al0 Al2 2.759133 1_546
Al0 Al1 2.759133 1_556
Al0 Al3 2.759133 1_556
Al0 Al1 2.781339 1_655
Al0 Al2 2.781339 1_655
Al0 Al3 2.781339 1_555
Al0 U0 3.247213 1_666
Al0 U0 3.247213 1_656
Al0 U0 3.247213 1_556
Al0 Gd0 3.249580 1_655
Al0 Gd0 3.249580 1_545
Al0 Gd0 3.249580 1_555
Al1 Al2 2.759133 1_545
Al1 Al3 2.759133 1_555
Al1 Al3 2.781339 1_455
Al1 Al2 2.781339 1_555
Al1 U0 3.247213 1_556
Al1 U0 3.247213 1_665
Al1 U0 3.247213 1_555
Al1 Gd0 3.249580 1_445
Al1 Gd0 3.249580 1_554
Al1 Gd0 3.249580 1_555
Al2 Al3 2.759133 1_565
Al2 Al3 2.781339 1_455
Al2 U0 3.247213 1_566
Al2 U0 3.247213 1_665
Al2 U0 3.247213 1_565
Al2 Gd0 3.249580 1_455
Al2 Gd0 3.249580 1_554
Al2 Gd0 3.249580 1_555
Al3 U0 3.247213 1_556
Al3 U0 3.247213 1_655
Al3 U0 3.247213 1_665
Al3 Gd0 3.249580 1_545
Al3 Gd0 3.249580 1_555
Al3 Gd0 3.249580 1_654
