# generated using pymatgen
data_Mg5Si9
_symmetry_space_group_name_H-M   'P 1'
_cell_length_a   7.25641000
_cell_length_b   7.54350689
_cell_length_c   10.51400315
_cell_angle_alpha   95.65288735
_cell_angle_beta   104.28753594
_cell_angle_gamma   112.20259578
_symmetry_Int_Tables_number   1
_chemical_formula_structural   Mg5Si9
_chemical_formula_sum   'Mg10 Si18'
_cell_volume   504.43782060
_cell_formula_units_Z   2
loop_
 _symmetry_equiv_pos_site_id
 _symmetry_equiv_pos_as_xyz
  1  'x, y, z'
loop_
 _atom_site_type_symbol
 _atom_site_label
 _atom_site_symmetry_multiplicity
 _atom_site_fract_x
 _atom_site_fract_y
 _atom_site_fract_z
 _atom_site_occupancy
  Mg  Mg0  1  0.55669700  0.96453200  0.58877900  1
  Mg  Mg1  1  0.87939600  0.09515500  0.43143200  1
  Mg  Mg2  1  0.16075100  0.57755900  0.54524500  1
  Mg  Mg3  1  0.69413400  0.39793000  0.33490900  1
  Mg  Mg4  1  0.78575800  0.67859300  0.57835000  1
  Mg  Mg5  1  0.38581300  0.29458100  0.49481400  1
  Mg  Mg6  1  0.69499300  0.08782900  0.13566900  1
  Mg  Mg7  1  0.58110000  0.27387100  0.81464500  1
  Mg  Mg8  1  0.88612300  0.54212300  0.11811600  1
  Mg  Mg9  1  0.01261200  0.28900500  0.95001100  1
  Si  Si0  1  0.18003600  0.13468500  0.17505900  1
  Si  Si1  1  0.41814400  0.52911000  0.95776700  1
  Si  Si2  1  0.03245300  0.80194100  0.38074800  1
  Si  Si3  1  0.16058700  0.31204900  0.72728400  1
  Si  Si4  1  0.10849800  0.38080900  0.28991300  1
  Si  Si5  1  0.01230100  0.96453700  0.78912000  1
  Si  Si6  1  0.27097600  0.72133000  0.07334300  1
  Si  Si7  1  0.91731000  0.63705200  0.86956300  1
  Si  Si8  1  0.69915700  0.76170400  0.21835000  1
  Si  Si9  1  0.19041300  0.00773200  0.61414500  1
  Si  Si10  1  0.60713600  0.93212100  0.85529100  1
  Si  Si11  1  0.86231300  0.87244600  0.02343300  1
  Si  Si12  1  0.33426600  0.93406000  0.29548000  1
  Si  Si13  1  0.50437800  0.59204700  0.74650400  1
  Si  Si14  1  0.31924900  0.94630900  0.92687000  1
  Si  Si15  1  0.44471100  0.27171200  0.06724900  1
  Si  Si16  1  0.83482700  0.34477100  0.62930000  1
  Si  Si17  1  0.46543400  0.65431100  0.36835000  1
loop_
_geom_bond_atom_site_label_1
_geom_bond_atom_site_label_2
_geom_bond_distance
_geom_bond_site_symmetry_2
Mg0 Si16 2.727978 1_565
Mg0 Si10 2.782433 1_555
Mg0 Si9 2.868651 1_565
Mg0 Si17 2.879041 1_555
Mg0 Si12 3.048074 1_555
Mg1 Si16 2.828218 1_555
Mg1 Si8 2.830924 1_545
Mg1 Si2 2.885544 1_645
Mg1 Si9 2.907451 1_655
Mg1 Si4 2.960773 1_655
Mg1 Si3 3.139697 1_655
Mg2 Si16 2.767073 1_455
Mg2 Si2 2.774145 1_555
Mg2 Si4 2.800140 1_555
Mg2 Si13 2.802017 1_555
Mg2 Si3 2.903321 1_555
Mg2 Si17 3.155431 1_555
Mg2 Si9 3.167536 1_565
Mg3 Si15 2.785264 1_555
Mg3 Si2 3.003246 1_655
Mg3 Si17 3.032791 1_555
Mg3 Si8 3.105222 1_555
Mg3 Si16 3.126941 1_555
Mg3 Si4 3.203883 1_655
Mg4 Si5 2.616547 1_655
Mg4 Si17 2.716034 1_555
Mg4 Si16 2.757584 1_555
Mg4 Si9 2.947692 1_665
Mg4 Si13 2.953408 1_555
Mg4 Si2 3.056853 1_655
Mg4 Si7 3.058861 1_555
Mg5 Si9 2.713103 1_555
Mg5 Si4 2.870400 1_555
Mg5 Si13 3.004260 1_555
Mg5 Si17 3.061144 1_555
Mg5 Si16 3.073603 1_555
Mg5 Si12 3.106424 1_545
Mg6 Si15 2.682474 1_555
Mg6 Si8 2.696916 1_545
Mg6 Si11 2.706804 1_545
Mg6 Si14 2.788773 1_544
Mg6 Si10 2.881058 1_544
Mg6 Si4 2.897952 1_655
Mg6 Si6 3.123918 1_545
Mg7 Si10 2.722070 1_545
Mg7 Si7 2.780786 1_555
Mg7 Si13 2.781326 1_555
Mg7 Si9 2.902856 1_555
Mg7 Si16 2.950488 1_555
Mg7 Si14 3.039882 1_545
Mg7 Si15 3.054041 1_556
Mg7 Mg9 3.056377 1_655
Mg7 Si1 3.065605 1_555
Mg7 Si3 3.093645 1_555
Mg8 Si8 2.784810 1_555
Mg8 Si6 2.787298 1_655
Mg8 Si4 2.797440 1_655
Mg8 Si7 2.816269 1_554
Mg8 Si11 2.821181 1_555
Mg8 Si2 2.916760 1_655
Mg8 Si15 2.950967 1_555
Mg8 Mg9 3.012068 1_654
Mg9 Si1 2.787655 1_555
Mg9 Si3 2.801289 1_555
Mg9 Si5 2.833846 1_545
Mg9 Si0 2.936406 1_556
Mg9 Si10 2.989256 1_445
Mg9 Si6 3.029546 1_556
Mg9 Si7 3.099660 1_455
Mg9 Si15 3.130634 1_556
Mg9 Si11 3.156404 1_446
Si0 Si4 2.402278 1_555
Si0 Si15 2.418047 1_555
Si0 Si11 2.426502 1_445
Si0 Si12 2.470657 1_545
Si1 Si15 2.397082 1_556
Si1 Si6 2.486621 1_556
Si1 Si13 2.494001 1_555
Si1 Si3 2.591621 1_555
Si2 Si8 2.482274 1_455
Si2 Si9 2.502390 1_565
Si3 Si9 2.587725 1_555
Si3 Si5 2.646088 1_545
Si5 Si9 2.476783 1_565
Si5 Si7 2.589537 1_455
Si6 Si7 2.713936 1_454
Si10 Si14 2.423005 1_555
Si10 Si11 2.434674 1_556
Si10 Si13 2.449610 1_555
Si11 Si7 2.493574 1_554
Si11 Si8 2.662098 1_555
Si12 Si2 2.467582 1_555
Si12 Si6 2.533003 1_555
Si12 Si17 2.724492 1_555
Si13 Si3 2.531870 1_555
Si13 Si7 2.828222 1_555
Si14 Si6 2.388821 1_556
Si14 Si5 2.399171 1_555
Si14 Si15 2.442703 1_566
Si14 Si7 2.832928 1_455
Si16 Si3 2.449311 1_655
Si16 Si7 2.959720 1_555
Si17 Si4 2.493420 1_555
Si17 Si8 2.559966 1_555
