# generated using pymatgen
data_Al4(BiSe4)3
_symmetry_space_group_name_H-M   'P 1'
_cell_length_a   7.73923209
_cell_length_b   7.73923209
_cell_length_c   38.72399400
_cell_angle_alpha   90.00000000
_cell_angle_beta   90.00000000
_cell_angle_gamma   90.55847358
_symmetry_Int_Tables_number   1
_chemical_formula_structural   Al4(BiSe4)3
_chemical_formula_sum   'Al16 Bi12 Se48'
_cell_volume   2319.29106318
_cell_formula_units_Z   4
loop_
 _symmetry_equiv_pos_site_id
 _symmetry_equiv_pos_as_xyz
  1  'x, y, z'
loop_
 _atom_site_type_symbol
 _atom_site_label
 _atom_site_symmetry_multiplicity
 _atom_site_fract_x
 _atom_site_fract_y
 _atom_site_fract_z
 _atom_site_occupancy
  Al  Al0  1  0.00000000  0.50000000  0.24329200  1
  Al  Al1  1  0.00000000  0.50000000  0.91459800  1
  Al  Al2  1  0.00000000  0.50000000  0.66348900  1
  Al  Al3  1  0.00000000  0.50000000  0.99458200  1
  Al  Al4  1  0.00000000  0.50000000  0.41459800  1
  Al  Al5  1  0.00000000  0.50000000  0.74329200  1
  Al  Al6  1  0.50000000  0.00000000  0.50541800  1
  Al  Al7  1  0.50000000  0.00000000  0.83651100  1
  Al  Al8  1  0.50000000  0.00000000  0.75670800  1
  Al  Al9  1  0.50000000  0.00000000  0.08540200  1
  Al  Al10  1  0.50000000  0.00000000  0.25670800  1
  Al  Al11  1  0.50000000  0.00000000  0.58540200  1
  Al  Al12  1  0.00000000  0.50000000  0.49458200  1
  Al  Al13  1  0.00000000  0.50000000  0.16348900  1
  Al  Al14  1  0.50000000  0.00000000  0.33651100  1
  Al  Al15  1  0.50000000  0.00000000  0.00541800  1
  Bi  Bi0  1  0.00000000  0.00000000  0.29249700  1
  Bi  Bi1  1  0.00000000  0.00000000  0.62613300  1
  Bi  Bi2  1  0.00000000  0.00000000  0.95867900  1
  Bi  Bi3  1  0.50000000  0.50000000  0.54132100  1
  Bi  Bi4  1  0.50000000  0.50000000  0.87386700  1
  Bi  Bi5  1  0.50000000  0.50000000  0.20750300  1
  Bi  Bi6  1  0.50000000  0.50000000  0.45867900  1
  Bi  Bi7  1  0.50000000  0.50000000  0.79249700  1
  Bi  Bi8  1  0.50000000  0.50000000  0.12613300  1
  Bi  Bi9  1  0.00000000  0.00000000  0.37386700  1
  Bi  Bi10  1  0.00000000  0.00000000  0.70750300  1
  Bi  Bi11  1  0.00000000  0.00000000  0.04132100  1
  Se  Se0  1  0.33978100  0.17949900  0.29497100  1
  Se  Se1  1  0.34650600  0.16978400  0.62534200  1
  Se  Se2  1  0.32220500  0.20893900  0.97290200  1
  Se  Se3  1  0.29106100  0.17779500  0.47290200  1
  Se  Se4  1  0.32050100  0.16021900  0.79497100  1
  Se  Se5  1  0.33021600  0.15349400  0.12534200  1
  Se  Se6  1  0.83559300  0.32050700  0.45636200  1
  Se  Se7  1  0.81944800  0.29411600  0.77693500  1
  Se  Se8  1  0.83968500  0.32929600  0.12429300  1
  Se  Se9  1  0.66021900  0.82050100  0.29497100  1
  Se  Se10  1  0.65349400  0.83021600  0.62534200  1
  Se  Se11  1  0.67779500  0.79106100  0.97290200  1
  Se  Se12  1  0.32050700  0.83559300  0.54363800  1
  Se  Se13  1  0.32929600  0.83968500  0.87570700  1
  Se  Se14  1  0.29411600  0.81944800  0.22306500  1
  Se  Se15  1  0.16978400  0.34650600  0.37465800  1
  Se  Se16  1  0.17949900  0.33978100  0.70502900  1
  Se  Se17  1  0.20893900  0.32220500  0.02709800  1
  Se  Se18  1  0.33968500  0.82929600  0.37570700  1
  Se  Se19  1  0.31944800  0.79411600  0.72306500  1
  Se  Se20  1  0.33559300  0.82050700  0.04363800  1
  Se  Se21  1  0.79411600  0.31944800  0.27693500  1
  Se  Se22  1  0.82929600  0.33968500  0.62429300  1
  Se  Se23  1  0.82050700  0.33559300  0.95636200  1
  Se  Se24  1  0.83021600  0.65349400  0.37465800  1
  Se  Se25  1  0.82050100  0.66021900  0.70502900  1
  Se  Se26  1  0.79106100  0.67779500  0.02709800  1
  Se  Se27  1  0.67949300  0.16440700  0.54363800  1
  Se  Se28  1  0.67070400  0.16031500  0.87570700  1
  Se  Se29  1  0.70588400  0.18055200  0.22306500  1
  Se  Se30  1  0.20588400  0.68055200  0.27693500  1
  Se  Se31  1  0.17070400  0.66031500  0.62429300  1
  Se  Se32  1  0.17949300  0.66440700  0.95636200  1
  Se  Se33  1  0.70893900  0.82220500  0.47290200  1
  Se  Se34  1  0.67949900  0.83978100  0.79497100  1
  Se  Se35  1  0.66978400  0.84650600  0.12534200  1
  Se  Se36  1  0.16440700  0.67949300  0.45636200  1
  Se  Se37  1  0.18055200  0.70588400  0.77693500  1
  Se  Se38  1  0.16031500  0.67070400  0.12429300  1
  Se  Se39  1  0.82220500  0.70893900  0.52709800  1
  Se  Se40  1  0.84650600  0.66978400  0.87465800  1
  Se  Se41  1  0.83978100  0.67949900  0.20502900  1
  Se  Se42  1  0.17779500  0.29106100  0.52709800  1
  Se  Se43  1  0.15349400  0.33021600  0.87465800  1
  Se  Se44  1  0.16021900  0.32050100  0.20502900  1
  Se  Se45  1  0.66031500  0.17070400  0.37570700  1
  Se  Se46  1  0.68055200  0.20588400  0.72306500  1
  Se  Se47  1  0.66440700  0.17949300  0.04363800  1
loop_
_geom_bond_atom_site_label_1
_geom_bond_atom_site_label_2
_geom_bond_distance
_geom_bond_site_symmetry_2
Al0 Se41 2.386706 1_455
Al0 Se44 2.386706 1_555
Al0 Se21 2.478967 1_455
Al0 Se30 2.478967 1_555
Al1 Se43 2.358023 1_555
Al1 Se40 2.358023 1_455
Al1 Se32 2.475837 1_555
Al1 Se23 2.475837 1_455
Al2 Se22 2.357237 1_455
Al2 Se31 2.357237 1_555
Al2 Se16 2.467493 1_555
Al2 Se25 2.467493 1_455
Al3 Se23 2.388452 1_455
Al3 Se32 2.388452 1_555
Al3 Se26 2.477292 1_456
Al3 Se17 2.477292 1_556
Al4 Se24 2.358023 1_455
Al4 Se15 2.358023 1_555
Al4 Se36 2.475837 1_555
Al4 Se6 2.475837 1_455
Al5 Se25 2.386706 1_455
Al5 Se16 2.386706 1_555
Al5 Se37 2.478967 1_555
Al5 Se7 2.478967 1_455
Al6 Se27 2.388452 1_555
Al6 Se12 2.388452 1_545
Al6 Se33 2.477292 1_545
Al6 Se3 2.477292 1_555
Al7 Se28 2.357237 1_555
Al7 Se13 2.357237 1_545
Al7 Se34 2.467493 1_545
Al7 Se4 2.467493 1_555
Al8 Se34 2.386706 1_545
Al8 Se4 2.386706 1_555
Al8 Se19 2.478967 1_545
Al8 Se46 2.478967 1_555
Al9 Se5 2.358023 1_555
Al9 Se35 2.358023 1_545
Al9 Se47 2.475837 1_555
Al9 Se20 2.475837 1_545
Al10 Se0 2.386706 1_555
Al10 Se9 2.386706 1_545
Al10 Se29 2.478967 1_555
Al10 Se14 2.478967 1_545
Al11 Se1 2.358023 1_555
Al11 Se10 2.358023 1_545
Al11 Se12 2.475837 1_545
Al11 Se27 2.475837 1_555
Al12 Se36 2.388452 1_555
Al12 Se6 2.388452 1_455
Al12 Se42 2.477292 1_555
Al12 Se39 2.477292 1_455
Al13 Se38 2.357237 1_555
Al13 Se8 2.357237 1_455
Al13 Se41 2.467493 1_455
Al13 Se44 2.467493 1_555
Al14 Se45 2.357237 1_555
Al14 Se18 2.357237 1_545
Al14 Se0 2.467493 1_555
Al14 Se9 2.467493 1_545
Al15 Se47 2.388452 1_555
Al15 Se20 2.388452 1_545
Al15 Se11 2.477292 1_544
Al15 Se2 2.477292 1_554
Bi0 Se9 2.963583 1_445
Bi0 Se0 2.963583 1_555
Bi0 Se21 3.015128 1_455
Bi0 Se30 3.015128 1_545
Bi1 Se31 2.954531 1_545
Bi1 Se22 2.954531 1_455
Bi1 Se10 2.974945 1_445
Bi1 Se1 2.974945 1_555
Bi2 Se23 2.958666 1_455
Bi2 Se32 2.958666 1_545
Bi2 Se11 3.009594 1_445
Bi2 Se2 3.009594 1_555
Bi3 Se27 2.958666 1_555
Bi3 Se12 2.958666 1_555
Bi3 Se39 3.009594 1_555
Bi3 Se42 3.009594 1_555
Bi4 Se28 2.954531 1_555
Bi4 Se13 2.954531 1_555
Bi4 Se40 2.974945 1_555
Bi4 Se43 2.974945 1_555
Bi5 Se41 2.963583 1_555
Bi5 Se44 2.963583 1_555
Bi5 Se14 3.015128 1_555
Bi5 Se29 3.015128 1_555
Bi6 Se6 2.958666 1_555
Bi6 Se36 2.958666 1_555
Bi6 Se33 3.009594 1_555
Bi6 Se3 3.009594 1_555
Bi7 Se34 2.963583 1_555
Bi7 Se4 2.963583 1_555
Bi7 Se7 3.015128 1_555
Bi7 Se37 3.015128 1_555
Bi8 Se38 2.954531 1_555
Bi8 Se8 2.954531 1_555
Bi8 Se35 2.974945 1_555
Bi8 Se5 2.974945 1_555
Bi9 Se18 2.954531 1_545
Bi9 Se45 2.954531 1_455
Bi9 Se24 2.974945 1_445
Bi9 Se15 2.974945 1_555
Bi10 Se25 2.963583 1_445
Bi10 Se16 2.963583 1_555
Bi10 Se46 3.015128 1_455
Bi10 Se19 3.015128 1_545
Bi11 Se20 2.958666 1_545
Bi11 Se47 2.958666 1_455
Bi11 Se26 3.009594 1_445
Bi11 Se17 3.009594 1_555
Se3 Se42 2.440551 1_555
Se11 Se26 2.440551 1_556
Se14 Se30 2.441135 1_555
Se17 Se2 2.440551 1_554
Se19 Se37 2.441135 1_555
Se21 Se29 2.441135 1_555
Se33 Se39 2.440551 1_555
Se46 Se7 2.441135 1_555
