# generated using pymatgen
data_MgFe2BO5
_symmetry_space_group_name_H-M   'P 1'
_cell_length_a   3.08410800
_cell_length_b   9.45551500
_cell_length_c   12.47856700
_cell_angle_alpha   90.00000000
_cell_angle_beta   90.00000000
_cell_angle_gamma   90.00000000
_symmetry_Int_Tables_number   1
_chemical_formula_structural   MgFe2BO5
_chemical_formula_sum   'Mg4 Fe8 B4 O20'
_cell_volume   363.89784270
_cell_formula_units_Z   4
loop_
 _symmetry_equiv_pos_site_id
 _symmetry_equiv_pos_as_xyz
  1  'x, y, z'
loop_
 _atom_site_type_symbol
 _atom_site_label
 _atom_site_symmetry_multiplicity
 _atom_site_fract_x
 _atom_site_fract_y
 _atom_site_fract_z
 _atom_site_occupancy
  Mg  Mg0  1  0.00000000  0.49978500  0.22258600  1
  Mg  Mg1  1  0.00000000  0.00021500  0.72258600  1
  Mg  Mg2  1  0.00000000  0.50021500  0.77741400  1
  Mg  Mg3  1  0.00000000  0.99978500  0.27741400  1
  Fe  Fe0  1  0.50000000  0.75671400  0.88693800  1
  Fe  Fe1  1  0.50000000  0.74328600  0.38693800  1
  Fe  Fe2  1  0.50000000  0.24328600  0.11306200  1
  Fe  Fe3  1  0.50000000  0.25671400  0.61306200  1
  Fe  Fe4  1  0.00000000  0.00000000  0.00000000  1
  Fe  Fe5  1  0.00000000  0.50000000  0.50000000  1
  Fe  Fe6  1  0.50000000  0.50000000  0.00000000  1
  Fe  Fe7  1  0.50000000  0.00000000  0.50000000  1
  B  B0  1  0.50000000  0.76840700  0.14118300  1
  B  B1  1  0.50000000  0.73159300  0.64118300  1
  B  B2  1  0.50000000  0.23159300  0.85881700  1
  B  B3  1  0.50000000  0.26840700  0.35881700  1
  O  O0  1  0.50000000  0.83939600  0.04339500  1
  O  O1  1  0.50000000  0.66060400  0.54339500  1
  O  O2  1  0.50000000  0.16060400  0.95660500  1
  O  O3  1  0.50000000  0.33939600  0.45660500  1
  O  O4  1  0.00000000  0.38399700  0.08242800  1
  O  O5  1  0.00000000  0.11600300  0.58242800  1
  O  O6  1  0.00000000  0.61600300  0.91757200  1
  O  O7  1  0.00000000  0.88399700  0.41757200  1
  O  O8  1  0.50000000  0.62190400  0.14626700  1
  O  O9  1  0.50000000  0.87809600  0.64626700  1
  O  O10  1  0.50000000  0.37809600  0.85373300  1
  O  O11  1  0.50000000  0.12190400  0.35373300  1
  O  O12  1  0.00000000  0.88917500  0.85788500  1
  O  O13  1  0.00000000  0.61082500  0.35788500  1
  O  O14  1  0.00000000  0.11082500  0.14211500  1
  O  O15  1  0.00000000  0.38917500  0.64211500  1
  O  O16  1  0.50000000  0.34829500  0.26447900  1
  O  O17  1  0.50000000  0.15170500  0.76447900  1
  O  O18  1  0.50000000  0.65170500  0.73552100  1
  O  O19  1  0.50000000  0.84829500  0.23552100  1
loop_
_geom_bond_atom_site_label_1
_geom_bond_atom_site_label_2
_geom_bond_distance
_geom_bond_site_symmetry_2
Mg0 O13 1.988180 1_555
Mg0 O4 2.063386 1_555
Mg0 O8 2.149007 1_455
Mg0 O8 2.149007 1_555
Mg0 O16 2.168647 1_455
Mg0 O16 2.168647 1_555
Mg1 O12 1.988180 1_545
Mg1 O5 2.063386 1_555
Mg1 O9 2.149007 1_545
Mg1 O9 2.149007 1_445
Mg1 O17 2.168647 1_455
Mg1 O17 2.168647 1_555
Mg2 O15 1.988180 1_555
Mg2 O6 2.063386 1_555
Mg2 O10 2.149007 1_555
Mg2 O10 2.149007 1_455
Mg2 O18 2.168647 1_455
Mg2 O18 2.168647 1_555
Mg3 O14 1.988180 1_565
Mg3 O7 2.063386 1_555
Mg3 O11 2.149007 1_465
Mg3 O11 2.149007 1_565
Mg3 O19 2.168647 1_555
Mg3 O19 2.168647 1_455
Fe0 O12 2.019428 1_655
Fe0 O12 2.019428 1_555
Fe0 O6 2.072264 1_555
Fe0 O6 2.072264 1_655
Fe0 O0 2.103074 1_556
Fe0 O18 2.134471 1_555
Fe1 O13 2.019428 1_655
Fe1 O13 2.019428 1_555
Fe1 O7 2.072264 1_655
Fe1 O7 2.072264 1_555
Fe1 O1 2.103074 1_555
Fe1 O19 2.134471 1_555
Fe2 O14 2.019428 1_555
Fe2 O14 2.019428 1_655
Fe2 O4 2.072264 1_555
Fe2 O4 2.072264 1_655
Fe2 O2 2.103074 1_554
Fe2 O16 2.134471 1_555
Fe3 O15 2.019428 1_655
Fe3 O15 2.019428 1_555
Fe3 O5 2.072264 1_555
Fe3 O5 2.072264 1_655
Fe3 O3 2.103074 1_555
Fe3 O17 2.134471 1_555
Fe4 O14 2.059861 1_555
Fe4 O12 2.059861 1_544
Fe4 O2 2.230983 1_454
Fe4 O2 2.230983 1_554
Fe4 O0 2.230983 1_545
Fe4 O0 2.230983 1_445
Fe5 O15 2.059861 1_555
Fe5 O13 2.059861 1_555
Fe5 O1 2.230983 1_555
Fe5 O1 2.230983 1_455
Fe5 O3 2.230983 1_455
Fe5 O3 2.230983 1_555
Fe6 O4 2.153842 1_555
Fe6 O4 2.153842 1_655
Fe6 O6 2.153842 1_554
Fe6 O6 2.153842 1_654
Fe6 O8 2.158704 1_555
Fe6 O10 2.158704 1_554
Fe7 O5 2.153842 1_555
Fe7 O5 2.153842 1_655
Fe7 O7 2.153842 1_645
Fe7 O7 2.153842 1_545
Fe7 O9 2.158704 1_545
Fe7 O11 2.158704 1_555
B0 O8 1.386713 1_555
B0 O0 1.392688 1_555
B0 O19 1.398717 1_555
B1 O9 1.386713 1_555
B1 O1 1.392688 1_555
B1 O18 1.398717 1_555
B2 O10 1.386713 1_555
B2 O2 1.392688 1_555
B2 O17 1.398717 1_555
B3 O11 1.386713 1_555
B3 O3 1.392688 1_555
B3 O16 1.398717 1_555
