# generated using pymatgen
data_CsMnO4
_symmetry_space_group_name_H-M   'P 1'
_cell_length_a   5.78906139
_cell_length_b   7.95344873
_cell_length_c   9.95472390
_cell_angle_alpha   90.00000000
_cell_angle_beta   90.00000000
_cell_angle_gamma   90.00000000
_symmetry_Int_Tables_number   1
_chemical_formula_structural   CsMnO4
_chemical_formula_sum   'Cs4 Mn4 O16'
_cell_volume   458.34538200
_cell_formula_units_Z   4
loop_
 _symmetry_equiv_pos_site_id
 _symmetry_equiv_pos_as_xyz
  1  'x, y, z'
loop_
 _atom_site_type_symbol
 _atom_site_label
 _atom_site_symmetry_multiplicity
 _atom_site_fract_x
 _atom_site_fract_y
 _atom_site_fract_z
 _atom_site_occupancy
  Cs  Cs0  1  0.25000000  0.84670392  0.81090204  1
  Cs  Cs1  1  0.75000000  0.15329608  0.18909796  1
  Cs  Cs2  1  0.75000000  0.34670392  0.68909796  1
  Cs  Cs3  1  0.25000000  0.65329608  0.31090204  1
  Mn  Mn0  1  0.25000000  0.29440612  0.94926733  1
  Mn  Mn1  1  0.75000000  0.70559388  0.05073267  1
  Mn  Mn2  1  0.75000000  0.79440612  0.55073267  1
  Mn  Mn3  1  0.25000000  0.20559388  0.44926733  1
  O  O0  1  0.52433133  0.81761301  0.07931189  1
  O  O1  1  0.02433133  0.18238699  0.92068811  1
  O  O2  1  0.47566867  0.31761301  0.42068811  1
  O  O3  1  0.97566867  0.68238699  0.57931189  1
  O  O4  1  0.47566867  0.18238699  0.92068811  1
  O  O5  1  0.97566867  0.81761301  0.07931189  1
  O  O6  1  0.52433133  0.68238699  0.57931189  1
  O  O7  1  0.02433133  0.31761301  0.42068811  1
  O  O8  1  0.25000000  0.04614576  0.35095206  1
  O  O9  1  0.75000000  0.95385424  0.64904794  1
  O  O10  1  0.75000000  0.54614576  0.14904794  1
  O  O11  1  0.25000000  0.45385424  0.85095206  1
  O  O12  1  0.25000000  0.14752623  0.60341049  1
  O  O13  1  0.75000000  0.85247377  0.39658951  1
  O  O14  1  0.75000000  0.64752623  0.89658951  1
  O  O15  1  0.25000000  0.35247377  0.10341049  1
loop_
_geom_bond_atom_site_label_1
_geom_bond_atom_site_label_2
_geom_bond_distance
_geom_bond_site_symmetry_2
Cs0 O3 3.089502 1_455
Cs0 O6 3.089502 1_555
Cs0 O5 3.116883 1_456
Cs0 O0 3.116883 1_556
Cs0 O11 3.149843 1_555
Cs0 O12 3.160821 1_565
Cs0 O1 3.166883 1_565
Cs0 O4 3.166883 1_565
Cs0 O14 3.408143 1_455
Cs0 O14 3.408143 1_555
Cs0 O9 3.420612 1_555
Cs0 O9 3.420612 1_455
Cs1 O2 3.089502 1_555
Cs1 O7 3.089502 1_655
Cs1 O1 3.116883 1_654
Cs1 O4 3.116883 1_554
Cs1 O10 3.149843 1_555
Cs1 O13 3.160821 1_545
Cs1 O5 3.166883 1_545
Cs1 O0 3.166883 1_545
Cs1 O15 3.408143 1_655
Cs1 O15 3.408143 1_555
Cs1 O8 3.420612 1_555
Cs1 O8 3.420612 1_655
Cs2 O4 3.089502 1_555
Cs2 O1 3.089502 1_655
Cs2 O2 3.116883 1_555
Cs2 O7 3.116883 1_655
Cs2 O9 3.149843 1_545
Cs2 O14 3.160821 1_555
Cs2 O6 3.166883 1_555
Cs2 O3 3.166883 1_555
Cs2 O12 3.408143 1_555
Cs2 O12 3.408143 1_655
Cs2 O11 3.420612 1_655
Cs2 O11 3.420612 1_555
Cs3 O0 3.089502 1_555
Cs3 O5 3.089502 1_455
Cs3 O3 3.116883 1_455
Cs3 O6 3.116883 1_555
Cs3 O8 3.149843 1_565
Cs3 O15 3.160821 1_555
Cs3 O2 3.166883 1_555
Cs3 O7 3.166883 1_555
Cs3 O13 3.408143 1_555
Cs3 O13 3.408143 1_455
Cs3 O10 3.420612 1_555
Cs3 O10 3.420612 1_455
Mn0 O11 1.601903 1_555
Mn0 O15 1.602448 1_556
Mn0 O1 1.606679 1_555
Mn0 O4 1.606679 1_555
Mn1 O10 1.601903 1_555
Mn1 O14 1.602448 1_554
Mn1 O0 1.606679 1_555
Mn1 O5 1.606679 1_555
Mn2 O9 1.601903 1_555
Mn2 O13 1.602448 1_555
Mn2 O3 1.606679 1_555
Mn2 O6 1.606679 1_555
Mn3 O8 1.601903 1_555
Mn3 O12 1.602448 1_555
Mn3 O7 1.606679 1_555
Mn3 O2 1.606679 1_555
