# generated using pymatgen
data_CeAgGe
_symmetry_space_group_name_H-M   'P 1'
_cell_length_a   4.57487751
_cell_length_b   4.57487751
_cell_length_c   7.55918400
_cell_angle_alpha   90.00000000
_cell_angle_beta   90.00000000
_cell_angle_gamma   119.99999290
_symmetry_Int_Tables_number   1
_chemical_formula_structural   CeAgGe
_chemical_formula_sum   'Ce2 Ag2 Ge2'
_cell_volume   137.01386593
_cell_formula_units_Z   2
loop_
 _symmetry_equiv_pos_site_id
 _symmetry_equiv_pos_as_xyz
  1  'x, y, z'
loop_
 _atom_site_type_symbol
 _atom_site_label
 _atom_site_symmetry_multiplicity
 _atom_site_fract_x
 _atom_site_fract_y
 _atom_site_fract_z
 _atom_site_occupancy
  Ce  Ce0  1  0.00000000  0.00000000  0.76082300  1
  Ce  Ce1  1  0.00000000  0.00000000  0.26082300  1
  Ag  Ag0  1  0.66666700  0.33333300  0.49165200  1
  Ag  Ag1  1  0.33333300  0.66666700  0.99165200  1
  Ge  Ge0  1  0.66666700  0.33333300  0.03762500  1
  Ge  Ge1  1  0.33333300  0.66666700  0.53762500  1
loop_
_geom_bond_atom_site_label_1
_geom_bond_atom_site_label_2
_geom_bond_distance
_geom_bond_site_symmetry_2
Ce0 Ge1 3.134185 1_545
Ce0 Ge1 3.134188 1_445
Ce0 Ge1 3.134188 1_555
Ce0 Ge0 3.369661 1_456
Ce0 Ge0 3.369664 1_446
Ce0 Ge0 3.369664 1_556
Ce1 Ge0 3.134185 1_455
Ce1 Ge0 3.134188 1_445
Ce1 Ge0 3.134188 1_555
Ce1 Ge1 3.369661 1_545
Ce1 Ge1 3.369664 1_555
Ce1 Ge1 3.369664 1_445
Ag0 Ge1 2.664068 1_545
Ag0 Ge1 2.664068 1_655
Ag0 Ge1 2.664075 1_555
Ag0 Ce1 3.165610 1_655
Ag0 Ce1 3.165614 1_555
Ag0 Ce1 3.165614 1_665
Ag0 Ce0 3.334148 1_655
Ag0 Ce0 3.334152 1_665
Ag0 Ce0 3.334152 1_555
Ag1 Ge0 2.664068 1_456
Ag1 Ge0 2.664068 1_566
Ag1 Ge0 2.664075 1_556
Ag1 Ce0 3.165610 1_565
Ag1 Ce0 3.165614 1_555
Ag1 Ce0 3.165614 1_665
Ag1 Ce1 3.334148 1_566
Ag1 Ce1 3.334152 1_666
Ag1 Ce1 3.334152 1_556
