# generated using pymatgen
data_Sc2CdSe4
_symmetry_space_group_name_H-M   'P 1'
_cell_length_a   7.98383889
_cell_length_b   7.98383889
_cell_length_c   7.98383889
_cell_angle_alpha   60.00000000
_cell_angle_beta   60.00000000
_cell_angle_gamma   60.00000000
_symmetry_Int_Tables_number   1
_chemical_formula_structural   Sc2CdSe4
_chemical_formula_sum   'Sc4 Cd2 Se8'
_cell_volume   359.84899652
_cell_formula_units_Z   2
loop_
 _symmetry_equiv_pos_site_id
 _symmetry_equiv_pos_as_xyz
  1  'x, y, z'
loop_
 _atom_site_type_symbol
 _atom_site_label
 _atom_site_symmetry_multiplicity
 _atom_site_fract_x
 _atom_site_fract_y
 _atom_site_fract_z
 _atom_site_occupancy
  Sc  Sc0  1  0.00000000  0.00000000  0.50000000  1
  Sc  Sc1  1  0.00000000  0.50000000  -0.00000000  1
  Sc  Sc2  1  0.50000000  0.00000000  -0.00000000  1
  Sc  Sc3  1  0.00000000  0.00000000  -0.00000000  1
  Cd  Cd0  1  0.37500000  0.37500000  0.37500000  1
  Cd  Cd1  1  0.62500000  0.62500000  0.62500000  1
  Se  Se0  1  0.24020772  0.24020772  0.77937485  1
  Se  Se1  1  0.24020772  0.77937485  0.24020772  1
  Se  Se2  1  0.77937485  0.24020772  0.24020772  1
  Se  Se3  1  0.24020772  0.24020772  0.24020772  1
  Se  Se4  1  0.75979228  0.75979228  0.22062515  1
  Se  Se5  1  0.75979228  0.22062515  0.75979228  1
  Se  Se6  1  0.22062515  0.75979228  0.75979228  1
  Se  Se7  1  0.75979228  0.75979228  0.75979228  1
loop_
_geom_bond_atom_site_label_1
_geom_bond_atom_site_label_2
_geom_bond_distance
_geom_bond_site_symmetry_2
Sc0 Se3 2.716654 1_555
Sc0 Se7 2.716654 1_445
Sc0 Se2 2.716664 1_455
Sc0 Se1 2.716664 1_545
Sc0 Se6 2.716664 1_545
Sc0 Se5 2.716664 1_455
Sc1 Se3 2.716654 1_555
Sc1 Se7 2.716654 1_454
Sc1 Se0 2.716664 1_554
Sc1 Se2 2.716664 1_455
Sc1 Se4 2.716664 1_455
Sc1 Se6 2.716664 1_554
Sc2 Se3 2.716654 1_555
Sc2 Se7 2.716654 1_544
Sc2 Se0 2.716664 1_554
Sc2 Se1 2.716664 1_545
Sc2 Se4 2.716664 1_545
Sc2 Se5 2.716664 1_554
Sc3 Se6 2.716653 1_544
Sc3 Se4 2.716653 1_445
Sc3 Se0 2.716653 1_554
Sc3 Se5 2.716653 1_454
Sc3 Se1 2.716653 1_545
Sc3 Se2 2.716653 1_455
Cd0 Se0 2.636030 1_555
Cd0 Se2 2.636030 1_555
Cd0 Se1 2.636030 1_555
Cd0 Se3 2.636043 1_555
Cd1 Se5 2.636030 1_555
Cd1 Se4 2.636030 1_555
Cd1 Se6 2.636030 1_555
Cd1 Se7 2.636043 1_555
