# generated using pymatgen
data_Mg3Ga
_symmetry_space_group_name_H-M   'P 1'
_cell_length_a   6.44050470
_cell_length_b   19.49223310
_cell_length_c   10.43641252
_cell_angle_alpha   90.00000000
_cell_angle_beta   90.00000000
_cell_angle_gamma   90.00000000
_symmetry_Int_Tables_number   1
_chemical_formula_structural   Mg3Ga
_chemical_formula_sum   'Mg48 Ga16'
_cell_volume   1310.18533766
_cell_formula_units_Z   16
loop_
 _symmetry_equiv_pos_site_id
 _symmetry_equiv_pos_as_xyz
  1  'x, y, z'
loop_
 _atom_site_type_symbol
 _atom_site_label
 _atom_site_symmetry_multiplicity
 _atom_site_fract_x
 _atom_site_fract_y
 _atom_site_fract_z
 _atom_site_occupancy
  Mg  Mg0_0  1  0.25000000  0.00000000  0.43004251  1
  Mg  Mg0_1  1  0.25000000  0.00000000  0.93004251  1
  Mg  Mg0_2  1  0.25000000  0.50000000  0.43004251  1
  Mg  Mg0_3  1  0.25000000  0.50000000  0.93004251  1
  Mg  Mg0_4  1  0.75000000  0.00000000  0.43004251  1
  Mg  Mg0_5  1  0.75000000  0.00000000  0.93004251  1
  Mg  Mg0_6  1  0.75000000  0.50000000  0.43004251  1
  Mg  Mg0_7  1  0.75000000  0.50000000  0.93004251  1
  Mg  Mg1_0  1  0.00000000  0.13183670  0.49260047  1
  Mg  Mg1_1  1  0.00000000  0.13183670  0.99260047  1
  Mg  Mg1_2  1  0.00000000  0.63183670  0.49260047  1
  Mg  Mg1_3  1  0.00000000  0.63183670  0.99260047  1
  Mg  Mg1_4  1  0.50000000  0.13183670  0.49260047  1
  Mg  Mg1_5  1  0.50000000  0.13183670  0.99260047  1
  Mg  Mg1_6  1  0.50000000  0.63183670  0.49260047  1
  Mg  Mg1_7  1  0.50000000  0.63183670  0.99260047  1
  Mg  Mg2_0  1  0.25000000  0.11816280  0.24260047  1
  Mg  Mg2_1  1  0.25000000  0.11816280  0.74260047  1
  Mg  Mg2_2  1  0.25000000  0.61816280  0.24260047  1
  Mg  Mg2_3  1  0.25000000  0.61816280  0.74260047  1
  Mg  Mg2_4  1  0.75000000  0.11816280  0.24260047  1
  Mg  Mg2_5  1  0.75000000  0.11816280  0.74260047  1
  Mg  Mg2_6  1  0.75000000  0.61816280  0.24260047  1
  Mg  Mg2_7  1  0.75000000  0.61816280  0.74260047  1
  Mg  Mg3_0  1  0.00000000  0.25000000  0.18004251  1
  Mg  Mg3_1  1  0.00000000  0.25000000  0.68004251  1
  Mg  Mg3_2  1  0.00000000  0.75000000  0.18004251  1
  Mg  Mg3_3  1  0.00000000  0.75000000  0.68004251  1
  Mg  Mg3_4  1  0.50000000  0.25000000  0.18004251  1
  Mg  Mg3_5  1  0.50000000  0.25000000  0.68004251  1
  Mg  Mg3_6  1  0.50000000  0.75000000  0.18004251  1
  Mg  Mg3_7  1  0.50000000  0.75000000  0.68004251  1
  Mg  Mg4_0  1  0.25000000  0.38183670  0.24260047  1
  Mg  Mg4_1  1  0.25000000  0.38183670  0.74260047  1
  Mg  Mg4_2  1  0.25000000  0.88183671  0.24260047  1
  Mg  Mg4_3  1  0.25000000  0.88183671  0.74260047  1
  Mg  Mg4_4  1  0.75000000  0.38183670  0.24260047  1
  Mg  Mg4_5  1  0.75000000  0.38183670  0.74260047  1
  Mg  Mg4_6  1  0.75000000  0.88183671  0.24260047  1
  Mg  Mg4_7  1  0.75000000  0.88183671  0.74260047  1
  Mg  Mg5_0  1  0.00000000  0.36816330  0.49260047  1
  Mg  Mg5_1  1  0.00000000  0.36816330  0.99260047  1
  Mg  Mg5_2  1  0.00000000  0.86816330  0.49260047  1
  Mg  Mg5_3  1  0.00000000  0.86816330  0.99260047  1
  Mg  Mg5_4  1  0.50000000  0.36816330  0.49260047  1
  Mg  Mg5_5  1  0.50000000  0.36816330  0.99260047  1
  Mg  Mg5_6  1  0.50000000  0.86816330  0.49260047  1
  Mg  Mg5_7  1  0.50000000  0.86816330  0.99260047  1
  Ga  Ga0_0  1  0.00000000  0.00000000  0.16808905  1
  Ga  Ga0_1  1  0.00000000  0.00000000  0.66808905  1
  Ga  Ga0_2  1  0.00000000  0.50000000  0.16808905  1
  Ga  Ga0_3  1  0.00000000  0.50000000  0.66808905  1
  Ga  Ga0_4  1  0.50000000  0.00000000  0.16808905  1
  Ga  Ga0_5  1  0.50000000  0.00000000  0.66808905  1
  Ga  Ga0_6  1  0.50000000  0.50000000  0.16808905  1
  Ga  Ga0_7  1  0.50000000  0.50000000  0.66808905  1
  Ga  Ga1_0  1  0.25000000  0.25000000  0.41808905  1
  Ga  Ga1_1  1  0.25000000  0.25000000  0.91808905  1
  Ga  Ga1_2  1  0.25000000  0.75000000  0.41808905  1
  Ga  Ga1_3  1  0.25000000  0.75000000  0.91808905  1
  Ga  Ga1_4  1  0.75000000  0.25000000  0.41808905  1
  Ga  Ga1_5  1  0.75000000  0.25000000  0.91808905  1
  Ga  Ga1_6  1  0.75000000  0.75000000  0.41808905  1
  Ga  Ga1_7  1  0.75000000  0.75000000  0.91808905  1
loop_
_geom_bond_atom_site_label_1
_geom_bond_atom_site_label_2
_geom_bond_distance
_geom_bond_site_symmetry_2
Mg0_0 Mg2_0 3.021886 1_555
Mg0_0 Mg4_2 3.021894 1_545
Mg0_0 Mg1_4 3.102030 1_555
Mg0_0 Mg5_2 3.102030 1_545
Mg0_0 Mg1_0 3.102030 1_555
Mg0_0 Mg5_6 3.102030 1_545
Mg0_0 Mg0_4 3.220252 1_455
Mg0_0 Mg0_4 3.220252 1_555
Mg0_1 Mg2_1 3.021886 1_555
Mg0_1 Mg4_3 3.021894 1_545
Mg0_1 Mg5_3 3.102030 1_545
Mg0_1 Mg1_1 3.102030 1_555
Mg0_1 Mg5_7 3.102030 1_545
Mg0_1 Mg1_5 3.102030 1_555
Mg0_1 Mg0_5 3.220252 1_455
Mg0_1 Mg0_5 3.220252 1_555
Mg0_2 Mg2_2 3.021886 1_555
Mg0_2 Mg4_0 3.021894 1_555
Mg0_2 Mg5_4 3.102030 1_555
Mg0_2 Mg1_2 3.102030 1_555
Mg0_2 Mg1_6 3.102030 1_555
Mg0_2 Mg5_0 3.102030 1_555
Mg0_2 Mg0_6 3.220252 1_455
Mg0_2 Mg0_6 3.220252 1_555
Mg0_3 Mg2_3 3.021886 1_555
Mg0_3 Mg4_1 3.021894 1_555
Mg0_3 Mg1_7 3.102030 1_555
Mg0_3 Mg5_5 3.102030 1_555
Mg0_3 Mg1_3 3.102030 1_555
Mg0_3 Mg5_1 3.102030 1_555
Mg0_3 Mg0_7 3.220252 1_455
Mg0_3 Mg0_7 3.220252 1_555
Mg0_4 Mg2_4 3.021886 1_555
Mg0_4 Mg4_6 3.021894 1_545
Mg0_4 Mg5_2 3.102030 1_645
Mg0_4 Mg1_0 3.102030 1_655
Mg0_4 Mg1_4 3.102030 1_555
Mg0_4 Mg5_6 3.102030 1_545
Mg0_5 Mg2_5 3.021886 1_555
Mg0_5 Mg4_7 3.021894 1_545
Mg0_5 Mg5_3 3.102030 1_645
Mg0_5 Mg1_1 3.102030 1_655
Mg0_5 Mg5_7 3.102030 1_545
Mg0_5 Mg1_5 3.102030 1_555
Mg0_6 Mg2_6 3.021886 1_555
Mg0_6 Mg4_4 3.021894 1_555
Mg0_6 Mg1_2 3.102030 1_655
Mg0_6 Mg5_0 3.102030 1_655
Mg0_6 Mg1_6 3.102030 1_555
Mg0_6 Mg5_4 3.102030 1_555
Mg0_7 Mg2_7 3.021886 1_555
Mg0_7 Mg4_5 3.021894 1_555
Mg0_7 Mg5_1 3.102030 1_655
Mg0_7 Mg1_3 3.102030 1_655
Mg0_7 Mg1_7 3.102030 1_555
Mg0_7 Mg5_5 3.102030 1_555
Mg1_0 Mg3_1 3.021894 1_555
Mg1_0 Mg2_5 3.077494 1_455
Mg1_0 Mg2_1 3.077494 1_555
Mg1_0 Mg2_4 3.077494 1_455
Mg1_0 Mg2_0 3.077494 1_555
Mg1_0 Mg1_4 3.220252 1_555
Mg1_0 Mg1_4 3.220252 1_455
Mg1_1 Mg3_0 3.021894 1_556
Mg1_1 Mg2_4 3.077494 1_456
Mg1_1 Mg2_0 3.077494 1_556
Mg1_1 Mg2_5 3.077494 1_455
Mg1_1 Mg2_1 3.077494 1_555
Mg1_1 Mg1_5 3.220252 1_455
Mg1_1 Mg1_5 3.220252 1_555
Mg1_2 Mg3_3 3.021894 1_555
Mg1_2 Mg2_7 3.077494 1_455
Mg1_2 Mg2_3 3.077494 1_555
Mg1_2 Mg2_6 3.077494 1_455
Mg1_2 Mg2_2 3.077494 1_555
Mg1_2 Mg1_6 3.220252 1_555
Mg1_2 Mg1_6 3.220252 1_455
Mg1_3 Mg3_2 3.021894 1_556
Mg1_3 Mg2_6 3.077494 1_456
Mg1_3 Mg2_2 3.077494 1_556
Mg1_3 Mg2_7 3.077494 1_455
Mg1_3 Mg2_3 3.077494 1_555
Mg1_3 Mg1_7 3.220252 1_455
Mg1_3 Mg1_7 3.220252 1_555
Mg1_4 Mg3_5 3.021894 1_555
Mg1_4 Mg2_1 3.077494 1_555
Mg1_4 Mg2_5 3.077494 1_555
Mg1_4 Mg2_0 3.077494 1_555
Mg1_4 Mg2_4 3.077494 1_555
Mg1_5 Mg3_4 3.021894 1_556
Mg1_5 Mg2_0 3.077494 1_556
Mg1_5 Mg2_4 3.077494 1_556
Mg1_5 Mg2_1 3.077494 1_555
Mg1_5 Mg2_5 3.077494 1_555
Mg1_6 Mg3_7 3.021894 1_555
Mg1_6 Mg2_7 3.077494 1_555
Mg1_6 Mg2_3 3.077494 1_555
Mg1_6 Mg2_2 3.077494 1_555
Mg1_6 Mg2_6 3.077494 1_555
Mg1_7 Mg3_6 3.021894 1_556
Mg1_7 Mg2_6 3.077494 1_556
Mg1_7 Mg2_2 3.077494 1_556
Mg1_7 Mg2_3 3.077494 1_555
Mg1_7 Mg2_7 3.077494 1_555
Mg2_0 Mg3_0 3.102038 1_555
Mg2_0 Mg3_4 3.102038 1_555
Mg2_0 Mg2_4 3.220252 1_455
Mg2_0 Mg2_4 3.220252 1_555
Mg2_1 Mg3_5 3.102038 1_555
Mg2_1 Mg3_1 3.102038 1_555
Mg2_1 Mg2_5 3.220252 1_455
Mg2_1 Mg2_5 3.220252 1_555
Mg2_2 Mg3_2 3.102038 1_555
Mg2_2 Mg3_6 3.102038 1_555
Mg2_2 Mg2_6 3.220252 1_455
Mg2_2 Mg2_6 3.220252 1_555
Mg2_3 Mg3_7 3.102038 1_555
Mg2_3 Mg3_3 3.102038 1_555
Mg2_3 Mg2_7 3.220252 1_455
Mg2_3 Mg2_7 3.220252 1_555
Mg2_4 Mg3_0 3.102038 1_655
Mg2_4 Mg3_4 3.102038 1_555
Mg2_5 Mg3_1 3.102038 1_655
Mg2_5 Mg3_5 3.102038 1_555
Mg2_6 Mg3_2 3.102038 1_655
Mg2_6 Mg3_6 3.102038 1_555
Mg2_7 Mg3_3 3.102038 1_655
Mg2_7 Mg3_7 3.102038 1_555
Mg3_0 Mg5_1 3.021894 1_554
Mg3_0 Mg4_4 3.102030 1_455
Mg3_0 Mg4_0 3.102030 1_555
Mg3_0 Mg3_4 3.220252 1_555
Mg3_0 Mg3_4 3.220252 1_455
Mg3_1 Mg5_0 3.021894 1_555
Mg3_1 Mg4_5 3.102030 1_455
Mg3_1 Mg4_1 3.102030 1_555
Mg3_1 Mg3_5 3.220252 1_455
Mg3_1 Mg3_5 3.220252 1_555
Mg3_2 Mg5_3 3.021894 1_554
Mg3_2 Mg4_2 3.102030 1_555
Mg3_2 Mg4_6 3.102030 1_455
Mg3_2 Mg3_6 3.220252 1_555
Mg3_2 Mg3_6 3.220252 1_455
Mg3_3 Mg5_2 3.021894 1_555
Mg3_3 Mg4_3 3.102030 1_555
Mg3_3 Mg4_7 3.102030 1_455
Mg3_3 Mg3_7 3.220252 1_555
Mg3_3 Mg3_7 3.220252 1_455
Mg3_4 Mg5_5 3.021894 1_554
Mg3_4 Mg4_0 3.102030 1_555
Mg3_4 Mg4_4 3.102030 1_555
Mg3_5 Mg5_4 3.021894 1_555
Mg3_5 Mg4_1 3.102030 1_555
Mg3_5 Mg4_5 3.102030 1_555
Mg3_6 Mg5_7 3.021894 1_554
Mg3_6 Mg4_2 3.102030 1_555
Mg3_6 Mg4_6 3.102030 1_555
Mg3_7 Mg5_6 3.021894 1_555
Mg3_7 Mg4_3 3.102030 1_555
Mg3_7 Mg4_7 3.102030 1_555
Mg4_0 Mg5_1 3.077493 1_554
Mg4_0 Mg5_5 3.077493 1_554
Mg4_0 Mg5_0 3.077493 1_555
Mg4_0 Mg5_4 3.077493 1_555
Mg4_0 Mg4_4 3.220252 1_455
Mg4_0 Mg4_4 3.220252 1_555
Mg4_1 Mg5_0 3.077493 1_555
Mg4_1 Mg5_4 3.077493 1_555
Mg4_1 Mg5_1 3.077493 1_555
Mg4_1 Mg5_5 3.077493 1_555
Mg4_1 Mg4_5 3.220252 1_455
Mg4_1 Mg4_5 3.220252 1_555
Mg4_2 Mg5_3 3.077493 1_554
Mg4_2 Mg5_7 3.077493 1_554
Mg4_2 Mg5_6 3.077493 1_555
Mg4_2 Mg5_2 3.077493 1_555
Mg4_2 Mg4_6 3.220252 1_455
Mg4_2 Mg4_6 3.220252 1_555
Mg4_3 Mg5_6 3.077493 1_555
Mg4_3 Mg5_2 3.077493 1_555
Mg4_3 Mg5_3 3.077493 1_555
Mg4_3 Mg5_7 3.077493 1_555
Mg4_3 Mg4_7 3.220252 1_455
Mg4_3 Mg4_7 3.220252 1_555
Mg4_4 Mg5_1 3.077493 1_654
Mg4_4 Mg5_5 3.077493 1_554
Mg4_4 Mg5_0 3.077493 1_655
Mg4_4 Mg5_4 3.077493 1_555
Mg4_5 Mg5_0 3.077493 1_655
Mg4_5 Mg5_4 3.077493 1_555
Mg4_5 Mg5_1 3.077493 1_655
Mg4_5 Mg5_5 3.077493 1_555
Mg4_6 Mg5_3 3.077493 1_654
Mg4_6 Mg5_7 3.077493 1_554
Mg4_6 Mg5_2 3.077493 1_655
Mg4_6 Mg5_6 3.077493 1_555
Mg4_7 Mg5_2 3.077493 1_655
Mg4_7 Mg5_6 3.077493 1_555
Mg4_7 Mg5_3 3.077493 1_655
Mg4_7 Mg5_7 3.077493 1_555
Mg5_0 Mg5_4 3.220252 1_555
Mg5_0 Mg5_4 3.220252 1_455
Mg5_1 Mg5_5 3.220252 1_455
Mg5_1 Mg5_5 3.220252 1_555
Mg5_2 Mg5_6 3.220252 1_555
Mg5_2 Mg5_6 3.220252 1_455
Mg5_3 Mg5_7 3.220252 1_455
Mg5_3 Mg5_7 3.220252 1_555
Ga0_0 Mg2_4 2.915855 1_455
Ga0_0 Mg2_0 2.915855 1_555
Ga0_0 Mg4_6 2.915863 1_445
Ga0_0 Mg4_2 2.915863 1_545
Ga0_0 Mg0_5 2.960492 1_454
Ga0_0 Mg0_1 2.960492 1_554
Ga0_0 Mg5_3 3.155648 1_544
Ga0_0 Mg1_1 3.155648 1_554
Ga0_0 Mg0_4 3.172769 1_455
Ga0_0 Mg0_0 3.172769 1_555
Ga0_1 Mg2_5 2.915855 1_455
Ga0_1 Mg2_1 2.915855 1_555
Ga0_1 Mg4_3 2.915863 1_545
Ga0_1 Mg4_7 2.915863 1_445
Ga0_1 Mg0_4 2.960492 1_455
Ga0_1 Mg0_0 2.960492 1_555
Ga0_1 Mg5_2 3.155648 1_545
Ga0_1 Mg1_0 3.155648 1_555
Ga0_1 Mg0_5 3.172769 1_455
Ga0_1 Mg0_1 3.172769 1_555
Ga0_2 Mg2_6 2.915855 1_455
Ga0_2 Mg2_2 2.915855 1_555
Ga0_2 Mg4_4 2.915863 1_455
Ga0_2 Mg4_0 2.915863 1_555
Ga0_2 Mg0_7 2.960492 1_454
Ga0_2 Mg0_3 2.960492 1_554
Ga0_2 Mg1_3 3.155648 1_554
Ga0_2 Mg5_1 3.155648 1_554
Ga0_2 Mg0_6 3.172769 1_455
Ga0_2 Mg0_2 3.172769 1_555
Ga0_3 Mg2_7 2.915855 1_455
Ga0_3 Mg2_3 2.915855 1_555
Ga0_3 Mg4_5 2.915863 1_455
Ga0_3 Mg4_1 2.915863 1_555
Ga0_3 Mg0_6 2.960492 1_455
Ga0_3 Mg0_2 2.960492 1_555
Ga0_3 Mg5_0 3.155648 1_555
Ga0_3 Mg1_2 3.155648 1_555
Ga0_3 Mg0_7 3.172769 1_455
Ga0_3 Mg0_3 3.172769 1_555
Ga0_4 Mg2_0 2.915855 1_555
Ga0_4 Mg2_4 2.915855 1_555
Ga0_4 Mg4_2 2.915863 1_545
Ga0_4 Mg4_6 2.915863 1_545
Ga0_4 Mg0_1 2.960492 1_554
Ga0_4 Mg0_5 2.960492 1_554
Ga0_4 Mg5_7 3.155648 1_544
Ga0_4 Mg1_5 3.155648 1_554
Ga0_4 Mg0_0 3.172769 1_555
Ga0_4 Mg0_4 3.172769 1_555
Ga0_5 Mg2_1 2.915855 1_555
Ga0_5 Mg2_5 2.915855 1_555
Ga0_5 Mg4_3 2.915863 1_545
Ga0_5 Mg4_7 2.915863 1_545
Ga0_5 Mg0_0 2.960492 1_555
Ga0_5 Mg0_4 2.960492 1_555
Ga0_5 Mg1_4 3.155648 1_555
Ga0_5 Mg5_6 3.155648 1_545
Ga0_5 Mg0_1 3.172769 1_555
Ga0_5 Mg0_5 3.172769 1_555
Ga0_6 Mg2_2 2.915855 1_555
Ga0_6 Mg2_6 2.915855 1_555
Ga0_6 Mg4_0 2.915863 1_555
Ga0_6 Mg4_4 2.915863 1_555
Ga0_6 Mg0_3 2.960492 1_554
Ga0_6 Mg0_7 2.960492 1_554
Ga0_6 Mg5_5 3.155648 1_554
Ga0_6 Mg1_7 3.155648 1_554
Ga0_6 Mg0_2 3.172769 1_555
Ga0_6 Mg0_6 3.172769 1_555
Ga0_7 Mg2_3 2.915855 1_555
Ga0_7 Mg2_7 2.915855 1_555
Ga0_7 Mg4_1 2.915863 1_555
Ga0_7 Mg4_5 2.915863 1_555
Ga0_7 Mg0_2 2.960492 1_555
Ga0_7 Mg0_6 2.960492 1_555
Ga0_7 Mg1_6 3.155648 1_555
Ga0_7 Mg5_4 3.155648 1_555
Ga0_7 Mg0_3 3.172769 1_555
Ga0_7 Mg0_7 3.172769 1_555
Ga1_0 Mg1_4 2.915863 1_555
Ga1_0 Mg5_4 2.915863 1_555
Ga1_0 Mg1_0 2.915863 1_555
Ga1_0 Mg5_0 2.915863 1_555
Ga1_0 Mg3_0 2.960492 1_555
Ga1_0 Mg3_4 2.960492 1_555
Ga1_0 Mg4_0 3.155648 1_555
Ga1_0 Mg2_0 3.155656 1_555
Ga1_0 Mg3_1 3.172769 1_555
Ga1_0 Mg3_5 3.172769 1_555
Ga1_1 Mg5_5 2.915863 1_555
Ga1_1 Mg1_1 2.915863 1_555
Ga1_1 Mg5_1 2.915863 1_555
Ga1_1 Mg1_5 2.915863 1_555
Ga1_1 Mg3_5 2.960492 1_555
Ga1_1 Mg3_1 2.960492 1_555
Ga1_1 Mg4_1 3.155648 1_555
Ga1_1 Mg2_1 3.155656 1_555
Ga1_1 Mg3_0 3.172769 1_556
Ga1_1 Mg3_4 3.172769 1_556
Ga1_2 Mg1_2 2.915863 1_555
Ga1_2 Mg5_2 2.915863 1_555
Ga1_2 Mg5_6 2.915863 1_555
Ga1_2 Mg1_6 2.915863 1_555
Ga1_2 Mg3_2 2.960492 1_555
Ga1_2 Mg3_6 2.960492 1_555
Ga1_2 Mg4_2 3.155648 1_555
Ga1_2 Mg2_2 3.155656 1_555
Ga1_2 Mg3_3 3.172769 1_555
Ga1_2 Mg3_7 3.172769 1_555
Ga1_3 Mg1_3 2.915863 1_555
Ga1_3 Mg5_3 2.915863 1_555
Ga1_3 Mg1_7 2.915863 1_555
Ga1_3 Mg5_7 2.915863 1_555
Ga1_3 Mg3_7 2.960492 1_555
Ga1_3 Mg3_3 2.960492 1_555
Ga1_3 Mg4_3 3.155648 1_555
Ga1_3 Mg2_3 3.155656 1_555
Ga1_3 Mg3_6 3.172769 1_556
Ga1_3 Mg3_2 3.172769 1_556
Ga1_4 Mg5_0 2.915863 1_655
Ga1_4 Mg1_0 2.915863 1_655
Ga1_4 Mg1_4 2.915863 1_555
Ga1_4 Mg5_4 2.915863 1_555
Ga1_4 Mg3_0 2.960492 1_655
Ga1_4 Mg3_4 2.960492 1_555
Ga1_4 Mg4_4 3.155648 1_555
Ga1_4 Mg2_4 3.155656 1_555
Ga1_4 Mg3_1 3.172769 1_655
Ga1_4 Mg3_5 3.172769 1_555
Ga1_5 Mg1_1 2.915863 1_655
Ga1_5 Mg5_1 2.915863 1_655
Ga1_5 Mg1_5 2.915863 1_555
Ga1_5 Mg5_5 2.915863 1_555
Ga1_5 Mg3_1 2.960492 1_655
Ga1_5 Mg3_5 2.960492 1_555
Ga1_5 Mg4_5 3.155648 1_555
Ga1_5 Mg2_5 3.155656 1_555
Ga1_5 Mg3_0 3.172769 1_656
Ga1_5 Mg3_4 3.172769 1_556
Ga1_6 Mg1_2 2.915863 1_655
Ga1_6 Mg5_2 2.915863 1_655
Ga1_6 Mg1_6 2.915863 1_555
Ga1_6 Mg5_6 2.915863 1_555
Ga1_6 Mg3_2 2.960492 1_655
Ga1_6 Mg3_6 2.960492 1_555
Ga1_6 Mg4_6 3.155648 1_555
Ga1_6 Mg2_6 3.155656 1_555
Ga1_6 Mg3_3 3.172769 1_655
Ga1_6 Mg3_7 3.172769 1_555
Ga1_7 Mg1_3 2.915863 1_655
Ga1_7 Mg5_3 2.915863 1_655
Ga1_7 Mg5_7 2.915863 1_555
Ga1_7 Mg1_7 2.915863 1_555
Ga1_7 Mg3_3 2.960492 1_655
Ga1_7 Mg3_7 2.960492 1_555
Ga1_7 Mg4_7 3.155648 1_555
Ga1_7 Mg2_7 3.155656 1_555
Ga1_7 Mg3_2 3.172769 1_656
Ga1_7 Mg3_6 3.172769 1_556
