# generated using pymatgen
data_Li3Cr(PO4)2
_symmetry_space_group_name_H-M   'P 1'
_cell_length_a   9.90399700
_cell_length_b   8.74098300
_cell_length_c   16.46825371
_cell_angle_alpha   62.68424086
_cell_angle_beta   90.00000000
_cell_angle_gamma   90.00000000
_symmetry_Int_Tables_number   1
_chemical_formula_structural   Li3Cr(PO4)2
_chemical_formula_sum   'Li24 Cr8 P16 O64'
_cell_volume   1266.69303144
_cell_formula_units_Z   8
loop_
 _symmetry_equiv_pos_site_id
 _symmetry_equiv_pos_as_xyz
  1  'x, y, z'
loop_
 _atom_site_type_symbol
 _atom_site_label
 _atom_site_symmetry_multiplicity
 _atom_site_fract_x
 _atom_site_fract_y
 _atom_site_fract_z
 _atom_site_occupancy
  Li  Li0  1  0.39874000  0.98842700  0.44393800  1
  Li  Li1  1  0.88669200  0.62299000  0.79254600  1
  Li  Li2  1  0.62202900  0.58563300  0.72947300  1
  Li  Li3  1  0.08694800  0.27327100  0.01753200  1
  Li  Li4  1  0.11206200  0.02383700  0.24791700  1
  Li  Li5  1  0.58451900  0.25532300  0.00331200  1
  Li  Li6  1  0.08451900  0.74467700  0.49668800  1
  Li  Li7  1  0.61206200  0.97616300  0.25208300  1
  Li  Li8  1  0.58694800  0.72672900  0.48246800  1
  Li  Li9  1  0.12202900  0.41436700  0.77052700  1
  Li  Li10  1  0.38669200  0.37701000  0.70745400  1
  Li  Li11  1  0.89874000  0.01157300  0.05606200  1
  Li  Li12  1  0.10126000  0.98842700  0.94393800  1
  Li  Li13  1  0.61330800  0.62299000  0.29254600  1
  Li  Li14  1  0.87797100  0.58563300  0.22947300  1
  Li  Li15  1  0.41305200  0.27327100  0.51753200  1
  Li  Li16  1  0.38793800  0.02383700  0.74791700  1
  Li  Li17  1  0.91548100  0.25532300  0.50331200  1
  Li  Li18  1  0.41548100  0.74467700  0.99668800  1
  Li  Li19  1  0.88793800  0.97616300  0.75208300  1
  Li  Li20  1  0.91305200  0.72672900  0.98246800  1
  Li  Li21  1  0.37797100  0.41436700  0.27052700  1
  Li  Li22  1  0.11330800  0.37701000  0.20745400  1
  Li  Li23  1  0.60126000  0.01157300  0.55606200  1
  Cr  Cr0  1  0.85392400  0.03147500  0.38614500  1
  Cr  Cr1  1  0.37772900  0.55894100  0.85986100  1
  Cr  Cr2  1  0.87772900  0.44105900  0.64013900  1
  Cr  Cr3  1  0.35392400  0.96852500  0.11385500  1
  Cr  Cr4  1  0.64607600  0.03147500  0.88614500  1
  Cr  Cr5  1  0.12227100  0.55894100  0.35986100  1
  Cr  Cr6  1  0.62227100  0.44105900  0.14013900  1
  Cr  Cr7  1  0.14607600  0.96852500  0.61385500  1
  P  P0  1  0.84921300  0.25896700  0.16109400  1
  P  P1  1  0.36378600  0.77586000  0.63646700  1
  P  P2  1  0.85015100  0.82990600  0.59751000  1
  P  P3  1  0.33971700  0.35813800  0.08855700  1
  P  P4  1  0.83971700  0.64186200  0.41144300  1
  P  P5  1  0.35015100  0.17009400  0.90249000  1
  P  P6  1  0.86378600  0.22414000  0.86353300  1
  P  P7  1  0.34921300  0.74103300  0.33890600  1
  P  P8  1  0.65078700  0.25896700  0.66109400  1
  P  P9  1  0.13621400  0.77586000  0.13646700  1
  P  P10  1  0.64984900  0.82990600  0.09751000  1
  P  P11  1  0.16028300  0.35813800  0.58855700  1
  P  P12  1  0.66028300  0.64186200  0.91144300  1
  P  P13  1  0.14984900  0.17009400  0.40249000  1
  P  P14  1  0.63621400  0.22414000  0.36353300  1
  P  P15  1  0.15078700  0.74103300  0.83890600  1
  O  O0  1  0.05262000  0.02032400  0.41759300  1
  O  O1  1  0.58004700  0.59541800  0.84438800  1
  O  O2  1  0.76600600  0.77148100  0.68518600  1
  O  O3  1  0.19063300  0.32028600  0.11602300  1
  O  O4  1  0.35611300  0.51390500  0.99112900  1
  O  O5  1  0.92906600  0.15378700  0.25303600  1
  O  O6  1  0.75477400  0.90015800  0.51240300  1
  O  O7  1  0.65440300  0.06423800  0.34477400  1
  O  O8  1  0.16623100  0.54898900  0.85254000  1
  O  O9  1  0.40299700  0.60461900  0.72366400  1
  O  O10  1  0.92002200  0.23744100  0.08525500  1
  O  O11  1  0.69707400  0.20394300  0.16766600  1
  O  O12  1  0.47575500  0.81570100  0.56530100  1
  O  O13  1  0.21809200  0.75532900  0.60613400  1
  O  O14  1  0.93731600  0.67964000  0.60163700  1
  O  O15  1  0.41222100  0.19759700  0.09400700  1
  O  O16  1  0.91222100  0.80240300  0.40599300  1
  O  O17  1  0.43731600  0.32036000  0.89836300  1
  O  O18  1  0.71809200  0.24467100  0.89386600  1
  O  O19  1  0.19707400  0.79605700  0.33233400  1
  O  O20  1  0.97575500  0.18429900  0.93469900  1
  O  O21  1  0.42002200  0.76255900  0.41474500  1
  O  O22  1  0.90299700  0.39538100  0.77633600  1
  O  O23  1  0.66623100  0.45101100  0.64746000  1
  O  O24  1  0.15440300  0.93576200  0.15522600  1
  O  O25  1  0.25477400  0.09984200  0.98759700  1
  O  O26  1  0.42906600  0.84621300  0.24696400  1
  O  O27  1  0.69063300  0.67971400  0.38397700  1
  O  O28  1  0.85611300  0.48609500  0.50887100  1
  O  O29  1  0.26600600  0.22851900  0.81481400  1
  O  O30  1  0.55262000  0.97967600  0.08240700  1
  O  O31  1  0.08004700  0.40458200  0.65561200  1
  O  O32  1  0.91995300  0.59541800  0.34438800  1
  O  O33  1  0.44738000  0.02032400  0.91759300  1
  O  O34  1  0.73399400  0.77148100  0.18518600  1
  O  O35  1  0.14388700  0.51390500  0.49112900  1
  O  O36  1  0.30936700  0.32028600  0.61602300  1
  O  O37  1  0.57093400  0.15378700  0.75303600  1
  O  O38  1  0.74522600  0.90015800  0.01240300  1
  O  O39  1  0.84559700  0.06423800  0.84477400  1
  O  O40  1  0.33376900  0.54898900  0.35254000  1
  O  O41  1  0.09700300  0.60461900  0.22366400  1
  O  O42  1  0.57997800  0.23744100  0.58525500  1
  O  O43  1  0.02424500  0.81570100  0.06530100  1
  O  O44  1  0.80292600  0.20394300  0.66766600  1
  O  O45  1  0.28190800  0.75532900  0.10613400  1
  O  O46  1  0.56268400  0.67964000  0.10163700  1
  O  O47  1  0.08777900  0.19759700  0.59400700  1
  O  O48  1  0.58777900  0.80240300  0.90599300  1
  O  O49  1  0.06268400  0.32036000  0.39836300  1
  O  O50  1  0.78190800  0.24467100  0.39386600  1
  O  O51  1  0.52424500  0.18429900  0.43469900  1
  O  O52  1  0.30292600  0.79605700  0.83233400  1
  O  O53  1  0.07997800  0.76255900  0.91474500  1
  O  O54  1  0.59700300  0.39538100  0.27633600  1
  O  O55  1  0.83376900  0.45101100  0.14746000  1
  O  O56  1  0.34559700  0.93576200  0.65522600  1
  O  O57  1  0.24522600  0.09984200  0.48759700  1
  O  O58  1  0.07093400  0.84621300  0.74696400  1
  O  O59  1  0.64388700  0.48609500  0.00887100  1
  O  O60  1  0.80936700  0.67971400  0.88397700  1
  O  O61  1  0.23399400  0.22851900  0.31481400  1
  O  O62  1  0.41995300  0.40458200  0.15561200  1
  O  O63  1  0.94738000  0.97967600  0.58240700  1
loop_
_geom_bond_atom_site_label_1
_geom_bond_atom_site_label_2
_geom_bond_distance
_geom_bond_site_symmetry_2
Li0 O12 2.021478 1_555
Li0 O51 2.064086 1_565
Li0 O57 2.102294 1_565
Li0 O21 2.246014 1_555
Li1 O60 1.945425 1_555
Li1 O2 2.033013 1_555
Li1 O22 2.131431 1_555
Li1 O58 2.521113 1_655
Li2 O1 1.977401 1_555
Li2 O2 2.029000 1_555
Li2 O9 2.174385 1_555
Li2 O23 2.204344 1_555
Li3 O10 1.937664 1_455
Li3 O3 2.113283 1_555
Li3 O20 2.156862 1_454
Li3 O25 2.447391 1_554
Li4 O19 2.016272 1_545
Li4 O24 2.043811 1_545
Li4 O5 2.161019 1_455
Li5 O17 2.129320 1_554
Li5 O59 2.143030 1_555
Li5 O15 2.169254 1_555
Li5 O30 2.172878 1_545
Li5 O18 2.271863 1_554
Li6 O14 2.129320 1_455
Li6 O35 2.143030 1_555
Li6 O16 2.169254 1_455
Li6 O0 2.172878 1_565
Li6 O13 2.271863 1_555
Li7 O11 2.016272 1_565
Li7 O7 2.043811 1_565
Li7 O26 2.161019 1_555
Li8 O21 1.937664 1_555
Li8 O27 2.113283 1_555
Li8 O12 2.156862 1_555
Li8 O6 2.447391 1_555
Li9 O31 1.977401 1_555
Li9 O29 2.029000 1_555
Li9 O22 2.174385 1_455
Li9 O8 2.204344 1_555
Li10 O36 1.945425 1_555
Li10 O29 2.033013 1_555
Li10 O9 2.131431 1_555
Li10 O37 2.521113 1_555
Li11 O20 2.021478 1_554
Li11 O43 2.064086 1_645
Li11 O38 2.102294 1_545
Li11 O10 2.246014 1_555
Li12 O43 2.021478 1_556
Li12 O20 2.064086 1_465
Li12 O25 2.102294 1_565
Li12 O53 2.246014 1_555
Li13 O27 1.945425 1_555
Li13 O34 2.033013 1_555
Li13 O54 2.131431 1_555
Li13 O26 2.521113 1_555
Li14 O32 1.977401 1_555
Li14 O34 2.029000 1_555
Li14 O41 2.174385 1_655
Li14 O55 2.204344 1_555
Li15 O42 1.937664 1_555
Li15 O36 2.113283 1_555
Li15 O51 2.156862 1_555
Li15 O57 2.447391 1_555
Li16 O52 2.016272 1_545
Li16 O56 2.043811 1_545
Li16 O37 2.161019 1_555
Li17 O49 2.129320 1_655
Li17 O28 2.143030 1_555
Li17 O47 2.169254 1_655
Li17 O63 2.172878 1_545
Li17 O50 2.271863 1_555
Li18 O46 2.129320 1_556
Li18 O4 2.143030 1_555
Li18 O48 2.169254 1_555
Li18 O33 2.172878 1_565
Li18 O45 2.271863 1_556
Li19 O44 2.016272 1_565
Li19 O39 2.043811 1_565
Li19 O58 2.161019 1_655
Li20 O53 1.937664 1_655
Li20 O60 2.113283 1_555
Li20 O43 2.156862 1_656
Li20 O38 2.447391 1_556
Li21 O62 1.977401 1_555
Li21 O61 2.029000 1_555
Li21 O54 2.174385 1_555
Li21 O40 2.204344 1_555
Li22 O3 1.945425 1_555
Li22 O61 2.033013 1_555
Li22 O41 2.131431 1_555
Li22 O5 2.521113 1_455
Li23 O51 2.021478 1_555
Li23 O12 2.064086 1_545
Li23 O6 2.102294 1_545
Li23 O42 2.246014 1_555
Cr0 O16 1.961833 1_545
Cr0 O0 2.025822 1_655
Cr0 O50 2.053083 1_555
Cr0 O7 2.066862 1_555
Cr0 O5 2.085935 1_555
Cr0 O6 2.101111 1_545
Cr1 O17 1.971232 1_555
Cr1 O4 2.023104 1_555
Cr1 O1 2.026590 1_555
Cr1 O52 2.046416 1_555
Cr1 O8 2.102236 1_555
Cr1 O9 2.104959 1_555
Cr2 O14 1.971232 1_555
Cr2 O28 2.023104 1_555
Cr2 O31 2.026590 1_655
Cr2 O44 2.046416 1_555
Cr2 O23 2.102236 1_555
Cr2 O22 2.104959 1_555
Cr3 O15 1.961833 1_565
Cr3 O30 2.025822 1_555
Cr3 O45 2.053083 1_555
Cr3 O24 2.066862 1_555
Cr3 O26 2.085935 1_555
Cr3 O25 2.101111 1_564
Cr4 O48 1.961833 1_545
Cr4 O33 2.025822 1_555
Cr4 O18 2.053083 1_555
Cr4 O39 2.066862 1_555
Cr4 O37 2.085935 1_555
Cr4 O38 2.101111 1_546
Cr5 O49 1.971232 1_555
Cr5 O35 2.023104 1_555
Cr5 O32 2.026590 1_455
Cr5 O19 2.046416 1_555
Cr5 O40 2.102236 1_555
Cr5 O41 2.104959 1_555
Cr6 O46 1.971232 1_555
Cr6 O59 2.023104 1_555
Cr6 O62 2.026590 1_555
Cr6 O11 2.046416 1_555
Cr6 O55 2.102236 1_555
Cr6 O54 2.104959 1_555
Cr7 O47 1.961833 1_565
Cr7 O63 2.025822 1_455
Cr7 O13 2.053083 1_555
Cr7 O56 2.066862 1_555
Cr7 O58 2.085935 1_555
Cr7 O57 2.101111 1_565
O0 P13 1.550531 1_555
O1 P12 1.557936 1_555
O2 P2 1.537311 1_555
O3 P3 1.535201 1_555
O4 P3 1.565104 1_556
O5 P0 1.576605 1_555
O6 P2 1.563284 1_555
O7 P14 1.574086 1_555
O8 P15 1.595546 1_555
O9 P1 1.574998 1_555
O10 P0 1.517476 1_555
O11 P0 1.570243 1_555
O12 P1 1.532963 1_555
O13 P1 1.564010 1_555
O14 P2 1.546982 1_555
O15 P3 1.541853 1_555
O16 P4 1.541853 1_555
O17 P5 1.546982 1_555
O18 P6 1.564010 1_555
O19 P7 1.570243 1_555
O20 P6 1.532963 1_555
O21 P7 1.517476 1_555
O22 P6 1.574998 1_555
O23 P8 1.595546 1_555
O24 P9 1.574086 1_555
O25 P5 1.563284 1_555
O26 P7 1.576605 1_555
O27 P4 1.535201 1_555
O28 P4 1.565104 1_555
O29 P5 1.537311 1_555
O30 P10 1.550531 1_555
O31 P11 1.557936 1_555
O32 P4 1.557936 1_555
O33 P5 1.550531 1_555
O34 P10 1.537311 1_555
O35 P11 1.565104 1_555
O36 P11 1.535201 1_555
O37 P8 1.576605 1_555
O38 P10 1.563284 1_555
O39 P6 1.574086 1_555
O40 P7 1.595546 1_555
O41 P9 1.574998 1_555
O42 P8 1.517476 1_555
O43 P9 1.532963 1_555
O44 P8 1.570243 1_555
O45 P9 1.564010 1_555
O46 P10 1.546982 1_555
O47 P11 1.541853 1_555
O48 P12 1.541853 1_555
O49 P13 1.546982 1_555
O50 P14 1.564010 1_555
O51 P14 1.532963 1_555
O52 P15 1.570243 1_555
O53 P15 1.517476 1_555
O54 P14 1.574998 1_555
O55 P0 1.595546 1_555
O56 P1 1.574086 1_555
O57 P13 1.563284 1_555
O58 P15 1.576605 1_555
O59 P12 1.565104 1_554
O60 P12 1.535201 1_555
O61 P13 1.537311 1_555
O62 P3 1.557936 1_555
O63 P2 1.550531 1_555
