# generated using pymatgen
data_Tl2V(SO5)2
_symmetry_space_group_name_H-M   'P 1'
_cell_length_a   11.81258500
_cell_length_b   4.75569100
_cell_length_c   9.34045644
_cell_angle_alpha   79.55292384
_cell_angle_beta   90.00000000
_cell_angle_gamma   90.00000000
_symmetry_Int_Tables_number   1
_chemical_formula_structural   Tl2V(SO5)2
_chemical_formula_sum   'Tl4 V2 S4 O20'
_cell_volume   516.02050070
_cell_formula_units_Z   2
loop_
 _symmetry_equiv_pos_site_id
 _symmetry_equiv_pos_as_xyz
  1  'x, y, z'
loop_
 _atom_site_type_symbol
 _atom_site_label
 _atom_site_symmetry_multiplicity
 _atom_site_fract_x
 _atom_site_fract_y
 _atom_site_fract_z
 _atom_site_occupancy
  Tl  Tl0  1  0.58705900  0.08795900  0.39483200  1
  Tl  Tl1  1  0.08705900  0.91204100  0.60516800  1
  Tl  Tl2  1  0.44072300  0.25735400  0.83416600  1
  Tl  Tl3  1  0.94072300  0.74264600  0.16583400  1
  V  V0  1  0.75121900  0.88222700  0.80285000  1
  V  V1  1  0.25121900  0.11777300  0.19715000  1
  S  S0  1  0.82135400  0.48114700  0.57067000  1
  S  S1  1  0.32135400  0.51885300  0.42933000  1
  S  S2  1  0.19480400  0.67233500  0.95386400  1
  S  S3  1  0.69480400  0.32766500  0.04613600  1
  O  O0  1  0.93446200  0.39395800  0.53570600  1
  O  O1  1  0.43446200  0.60604200  0.46429400  1
  O  O2  1  0.87756700  0.05348500  0.87893500  1
  O  O3  1  0.37756700  0.94651500  0.12106500  1
  O  O4  1  0.61856000  0.80936100  0.76054700  1
  O  O5  1  0.11856000  0.19063900  0.23945300  1
  O  O6  1  0.76121800  0.65407600  0.44957700  1
  O  O7  1  0.26121800  0.34592400  0.55042300  1
  O  O8  1  0.83872300  0.66424000  0.69266500  1
  O  O9  1  0.33872300  0.33576000  0.30733500  1
  O  O10  1  0.17591400  0.83863600  0.07571200  1
  O  O11  1  0.67591400  0.16136400  0.92428800  1
  O  O12  1  0.26288500  0.83007400  0.83525000  1
  O  O13  1  0.76288500  0.16992600  0.16475000  1
  O  O14  1  0.08403700  0.58511500  0.90894200  1
  O  O15  1  0.58403700  0.41488500  0.09105800  1
  O  O16  1  0.26504800  0.40699700  0.01953900  1
  O  O17  1  0.76504800  0.59300300  0.98046100  1
  O  O18  1  0.74704600  0.23021600  0.63301600  1
  O  O19  1  0.24704600  0.76978400  0.36698400  1
loop_
_geom_bond_atom_site_label_1
_geom_bond_atom_site_label_2
_geom_bond_distance
_geom_bond_site_symmetry_2
O0 S0 1.453565 1_555
O1 S1 1.453565 1_555
O2 V0 1.898902 1_545
O3 V1 1.898902 1_565
O4 V0 1.667782 1_555
O5 V1 1.667782 1_555
O6 S0 1.457025 1_555
O7 S1 1.457025 1_555
O8 S0 1.567970 1_555
O8 V0 1.894536 1_555
O9 S1 1.567970 1_555
O9 V1 1.894536 1_555
O10 S2 1.515590 1_554
O10 V1 2.094324 1_565
O11 S3 1.515590 1_556
O11 V0 2.094324 1_545
O12 S2 1.461353 1_555
O13 S3 1.461353 1_555
O14 S2 1.457139 1_555
O15 S3 1.457139 1_555
O16 S2 1.541555 1_554
O16 V1 1.960415 1_555
O17 S3 1.541555 1_556
O17 V0 1.960415 1_555
O18 S0 1.510517 1_555
O18 V0 2.074991 1_545
O19 S1 1.510517 1_555
O19 V1 2.074991 1_565
