# generated using pymatgen
data_NaSmF4
_symmetry_space_group_name_H-M   'P 1'
_cell_length_a   6.02022035
_cell_length_b   7.00916435
_cell_length_c   7.01684117
_cell_angle_alpha   62.41170721
_cell_angle_beta   64.68143956
_cell_angle_gamma   64.67385901
_symmetry_Int_Tables_number   1
_chemical_formula_structural   NaSmF4
_chemical_formula_sum   'Na3 Sm3 F12'
_cell_volume   227.25435711
_cell_formula_units_Z   3
loop_
 _symmetry_equiv_pos_site_id
 _symmetry_equiv_pos_as_xyz
  1  'x, y, z'
loop_
 _atom_site_type_symbol
 _atom_site_label
 _atom_site_symmetry_multiplicity
 _atom_site_fract_x
 _atom_site_fract_y
 _atom_site_fract_z
 _atom_site_occupancy
  Na  Na0  1  0.66612187  0.48561796  0.16492458  1
  Na  Na1  1  0.66337242  0.00637906  0.67846914  1
  Na  Na2  1  0.33045706  0.42694381  0.90905604  1
  Sm  Sm0  1  0.00274808  -0.00024716  0.99771940  1
  Sm  Sm1  1  0.99758632  0.49903667  0.50356239  1
  Sm  Sm2  1  0.33567841  0.92096187  0.40922226  1
  F  F0  1  0.36827740  0.00694487  0.03143783  1
  F  F1  1  0.36588297  0.54169401  0.50070531  1
  F  F2  1  0.59499219  0.16634154  0.19812113  1
  F  F3  1  0.59156790  0.70865575  0.65948500  1
  F  F4  1  0.03745818  0.27896843  0.31516225  1
  F  F5  1  0.04593382  0.81942901  0.77054215  1
  F  F6  1  0.25667604  0.62531225  0.12916901  1
  F  F7  1  0.27609382  0.12977307  0.62439750  1
  F  F8  1  0.98264848  0.38121010  0.88257371  1
  F  F9  1  0.97669019  0.88664749  0.38375840  1
  F  F10  1  0.75458233  0.73514104  0.23264703  1
  F  F11  1  0.75323452  0.24418924  0.74604687  1
loop_
_geom_bond_atom_site_label_1
_geom_bond_atom_site_label_2
_geom_bond_distance
_geom_bond_site_symmetry_2
F0 Sm0 2.335011 1_554
F0 Na1 2.351599 1_554
F0 Sm2 2.367540 1_545
F0 Na2 2.589935 1_554
F1 Sm1 2.351487 1_455
F1 Na0 2.362273 1_555
F1 Sm2 2.370162 1_555
F1 Na2 2.528244 1_555
F2 Sm0 2.341552 1_654
F2 Na0 2.344647 1_555
F2 Sm2 2.355616 1_545
F2 Na2 2.613287 1_554
F3 Sm1 2.336553 1_555
F3 Sm2 2.367159 1_555
F3 Na1 2.374404 1_565
F3 Na2 2.556345 1_555
F4 Sm1 2.342020 1_455
F4 Sm2 2.362369 1_545
F4 Na0 2.457233 1_455
F4 Na2 2.614550 1_554
F5 Na1 2.311994 1_465
F5 Sm0 2.331668 1_565
F5 Sm2 2.363333 1_555
F5 Na2 2.522411 1_555
F6 Na0 2.309588 1_555
F6 Na2 2.321613 1_554
F6 Sm0 2.367924 1_564
F6 Sm1 2.374969 1_455
F7 Na1 2.248413 1_555
F7 Sm2 2.384285 1_545
F7 Sm1 2.387393 1_455
F7 Sm0 2.405295 1_555
F8 Na0 2.238912 1_556
F8 Na2 2.341760 1_655
F8 Sm1 2.363796 1_555
F8 Sm0 2.371085 1_655
F9 Na1 2.335697 1_565
F9 Sm2 2.361207 1_655
F9 Sm0 2.396765 1_664
F9 Sm1 2.405474 1_555
F10 Na0 2.313295 1_555
F10 Sm2 2.367170 1_555
F10 Sm0 2.412836 1_664
F10 Sm1 2.426117 1_555
F11 Na1 2.240287 1_555
F11 Na2 2.346281 1_555
F11 Sm1 2.354144 1_555
F11 Sm0 2.361137 1_655
