# generated using pymatgen
data_Co3Cl
_symmetry_space_group_name_H-M   'P 1'
_cell_length_a   4.14391020
_cell_length_b   4.14391020
_cell_length_c   4.14391020
_cell_angle_alpha   60.00000000
_cell_angle_beta   60.00000000
_cell_angle_gamma   60.00000000
_symmetry_Int_Tables_number   1
_chemical_formula_structural   Co3Cl
_chemical_formula_sum   'Co3 Cl1'
_cell_volume   50.31714687
_cell_formula_units_Z   1
loop_
 _symmetry_equiv_pos_site_id
 _symmetry_equiv_pos_as_xyz
  1  'x, y, z'
loop_
 _atom_site_type_symbol
 _atom_site_label
 _atom_site_symmetry_multiplicity
 _atom_site_fract_x
 _atom_site_fract_y
 _atom_site_fract_z
 _atom_site_occupancy
  Co  Co0  1  0.25000000  0.25000000  0.25000000  1
  Co  Co1  1  0.75000000  0.75000000  0.75000000  1
  Co  Co2  1  0.50000000  0.50000000  0.50000000  1
  Cl  Cl0  1  0.00000000  0.00000000  0.00000000  1
loop_
_geom_bond_atom_site_label_1
_geom_bond_atom_site_label_2
_geom_bond_distance
_geom_bond_site_symmetry_2
Co0 Co2 2.537616 1_555
Co0 Co2 2.537616 1_545
Co0 Co2 2.537616 1_554
Co0 Co2 2.537616 1_455
Co1 Co2 2.537616 1_565
Co1 Co2 2.537616 1_555
Co1 Co2 2.537616 1_655
Co1 Co2 2.537616 1_556
Cl0 Co0 2.537616 1_555
Cl0 Co1 2.537616 1_454
Cl0 Co1 2.537616 1_444
Cl0 Co0 2.537616 1_545
Cl0 Co0 2.537616 1_455
Cl0 Co1 2.537616 1_445
Cl0 Co0 2.537616 1_554
Cl0 Co1 2.537616 1_544
Cl0 Co2 2.930187 1_445
Cl0 Co2 2.930187 1_545
Cl0 Co2 2.930187 1_544
Cl0 Co2 2.930187 1_554
Cl0 Co2 2.930187 1_455
Cl0 Co2 2.930187 1_454
