# generated using pymatgen
data_MgAu2
_symmetry_space_group_name_H-M   'P 1'
_cell_length_a   10.70961290
_cell_length_b   10.70961290
_cell_length_c   14.79600582
_cell_angle_alpha   69.66548026
_cell_angle_beta   69.66548026
_cell_angle_gamma   33.41608741
_symmetry_Int_Tables_number   1
_chemical_formula_structural   MgAu2
_chemical_formula_sum   'Mg16 Au32'
_cell_volume   870.90285866
_cell_formula_units_Z   16
loop_
 _symmetry_equiv_pos_site_id
 _symmetry_equiv_pos_as_xyz
  1  'x, y, z'
loop_
 _atom_site_type_symbol
 _atom_site_label
 _atom_site_symmetry_multiplicity
 _atom_site_fract_x
 _atom_site_fract_y
 _atom_site_fract_z
 _atom_site_occupancy
  Mg  Mg0_0  1  0.00924600  0.00924600  0.36589550  1
  Mg  Mg0_1  1  0.00924600  0.00924600  0.86589550  1
  Mg  Mg0_2  1  0.00924600  0.50924600  0.36589550  1
  Mg  Mg0_3  1  0.00924600  0.50924600  0.86589550  1
  Mg  Mg0_4  1  0.50924600  0.00924600  0.36589550  1
  Mg  Mg0_5  1  0.50924600  0.00924600  0.86589550  1
  Mg  Mg0_6  1  0.50924600  0.50924600  0.36589550  1
  Mg  Mg0_7  1  0.50924600  0.50924600  0.86589550  1
  Mg  Mg1_0  1  0.49075400  0.49075400  0.13410450  1
  Mg  Mg1_1  1  0.49075400  0.49075400  0.63410450  1
  Mg  Mg1_2  1  0.49075400  0.99075400  0.13410450  1
  Mg  Mg1_3  1  0.49075400  0.99075400  0.63410450  1
  Mg  Mg1_4  1  0.99075400  0.49075400  0.13410450  1
  Mg  Mg1_5  1  0.99075400  0.49075400  0.63410450  1
  Mg  Mg1_6  1  0.99075400  0.99075400  0.13410450  1
  Mg  Mg1_7  1  0.99075400  0.99075400  0.63410450  1
  Au  Au0_0  1  0.32501750  0.32501750  0.47211500  1
  Au  Au0_1  1  0.32501750  0.32501750  0.97211500  1
  Au  Au0_2  1  0.32501750  0.82501750  0.47211500  1
  Au  Au0_3  1  0.32501750  0.82501750  0.97211500  1
  Au  Au0_4  1  0.82501750  0.32501750  0.47211500  1
  Au  Au0_5  1  0.82501750  0.32501750  0.97211500  1
  Au  Au0_6  1  0.82501750  0.82501750  0.47211500  1
  Au  Au0_7  1  0.82501750  0.82501750  0.97211500  1
  Au  Au1_0  1  0.17498250  0.17498250  0.02788500  1
  Au  Au1_1  1  0.17498250  0.17498250  0.52788500  1
  Au  Au1_2  1  0.17498250  0.67498250  0.02788500  1
  Au  Au1_3  1  0.17498250  0.67498250  0.52788500  1
  Au  Au1_4  1  0.67498250  0.17498250  0.02788500  1
  Au  Au1_5  1  0.67498250  0.17498250  0.52788500  1
  Au  Au1_6  1  0.67498250  0.67498250  0.02788500  1
  Au  Au1_7  1  0.67498250  0.67498250  0.52788500  1
  Au  Au2_0  1  0.33239200  0.33239200  0.19998200  1
  Au  Au2_1  1  0.33239200  0.33239200  0.69998200  1
  Au  Au2_2  1  0.33239200  0.83239200  0.19998200  1
  Au  Au2_3  1  0.33239200  0.83239200  0.69998200  1
  Au  Au2_4  1  0.83239200  0.33239200  0.19998200  1
  Au  Au2_5  1  0.83239200  0.33239200  0.69998200  1
  Au  Au2_6  1  0.83239200  0.83239200  0.19998200  1
  Au  Au2_7  1  0.83239200  0.83239200  0.69998200  1
  Au  Au3_0  1  0.16760800  0.16760800  0.30001800  1
  Au  Au3_1  1  0.16760800  0.16760800  0.80001800  1
  Au  Au3_2  1  0.16760800  0.66760800  0.30001800  1
  Au  Au3_3  1  0.16760800  0.66760800  0.80001800  1
  Au  Au3_4  1  0.66760800  0.16760800  0.30001800  1
  Au  Au3_5  1  0.66760800  0.16760800  0.80001800  1
  Au  Au3_6  1  0.66760800  0.66760800  0.30001800  1
  Au  Au3_7  1  0.66760800  0.66760800  0.80001800  1
loop_
_geom_bond_atom_site_label_1
_geom_bond_atom_site_label_2
_geom_bond_distance
_geom_bond_site_symmetry_2
Mg0_0 Mg0_6 3.078960 1_455
Mg0_0 Mg0_6 3.078960 1_545
Mg0_1 Mg0_7 3.078960 1_455
Mg0_1 Mg0_7 3.078960 1_545
Mg0_2 Mg0_4 3.078960 1_465
Mg0_2 Mg0_4 3.078960 1_555
Mg0_3 Mg0_5 3.078960 1_465
Mg0_3 Mg0_5 3.078960 1_555
Mg1_0 Mg1_6 3.078960 1_545
Mg1_0 Mg1_6 3.078960 1_455
Mg1_1 Mg1_7 3.078960 1_545
Mg1_1 Mg1_7 3.078960 1_455
Mg1_2 Mg1_4 3.078960 1_555
Mg1_2 Mg1_4 3.078960 1_465
Mg1_3 Mg1_5 3.078960 1_555
Mg1_3 Mg1_5 3.078960 1_465
Au0_0 Mg1_5 2.845420 1_455
Au0_0 Mg1_3 2.845420 1_545
Au0_0 Mg0_4 2.863457 1_555
Au0_0 Mg0_2 2.863457 1_555
Au0_0 Au1_1 2.883010 1_555
Au0_0 Au1_3 2.912825 1_555
Au0_0 Au1_5 2.912825 1_555
Au0_0 Au3_2 2.992026 1_555
Au0_0 Au3_4 2.992026 1_555
Au0_0 Au0_6 3.078960 1_455
Au0_0 Au0_6 3.078960 1_545
Au0_1 Mg1_4 2.845420 1_456
Au0_1 Mg1_2 2.845420 1_546
Au0_1 Mg0_3 2.863457 1_555
Au0_1 Mg0_5 2.863457 1_555
Au0_1 Au1_0 2.883010 1_556
Au0_1 Au1_2 2.912825 1_556
Au0_1 Au1_4 2.912825 1_556
Au0_1 Au3_3 2.992026 1_555
Au0_1 Au3_5 2.992026 1_555
Au0_1 Au0_7 3.078960 1_455
Au0_1 Au0_7 3.078960 1_545
Au0_2 Mg1_7 2.845420 1_455
Au0_2 Mg1_1 2.845420 1_555
Au0_2 Mg0_6 2.863457 1_555
Au0_2 Mg0_0 2.863457 1_565
Au0_2 Au1_3 2.883010 1_555
Au0_2 Au1_1 2.912825 1_565
Au0_2 Au1_7 2.912825 1_555
Au0_2 Au3_6 2.992026 1_555
Au0_2 Au3_0 2.992026 1_565
Au0_2 Au0_4 3.078960 1_465
Au0_2 Au0_4 3.078960 1_555
Au0_3 Mg1_0 2.845420 1_556
Au0_3 Mg1_6 2.845420 1_456
Au0_3 Mg0_7 2.863457 1_555
Au0_3 Mg0_1 2.863457 1_565
Au0_3 Au1_2 2.883010 1_556
Au0_3 Au1_6 2.912825 1_556
Au0_3 Au1_0 2.912825 1_566
Au0_3 Au3_7 2.992026 1_555
Au0_3 Au3_1 2.992026 1_565
Au0_3 Au0_5 3.078960 1_465
Au0_3 Au0_5 3.078960 1_555
Au0_4 Mg1_7 2.845420 1_545
Au0_4 Mg1_1 2.845420 1_555
Au0_4 Mg0_6 2.863457 1_555
Au0_4 Mg0_0 2.863457 1_655
Au0_4 Au1_5 2.883010 1_555
Au0_4 Au1_1 2.912825 1_655
Au0_4 Au1_7 2.912825 1_555
Au0_4 Au3_0 2.992026 1_655
Au0_4 Au3_6 2.992026 1_555
Au0_5 Mg1_0 2.845420 1_556
Au0_5 Mg1_6 2.845420 1_546
Au0_5 Mg0_7 2.863457 1_555
Au0_5 Mg0_1 2.863457 1_655
Au0_5 Au1_4 2.883010 1_556
Au0_5 Au1_6 2.912825 1_556
Au0_5 Au1_0 2.912825 1_656
Au0_5 Au3_7 2.992026 1_555
Au0_5 Au3_1 2.992026 1_655
Au0_6 Mg1_3 2.845420 1_555
Au0_6 Mg1_5 2.845420 1_555
Au0_6 Mg0_2 2.863457 1_655
Au0_6 Mg0_4 2.863457 1_565
Au0_6 Au1_7 2.883010 1_555
Au0_6 Au1_5 2.912825 1_565
Au0_6 Au1_3 2.912825 1_655
Au0_6 Au3_4 2.992026 1_565
Au0_6 Au3_2 2.992026 1_655
Au0_7 Mg1_2 2.845420 1_556
Au0_7 Mg1_4 2.845420 1_556
Au0_7 Mg0_5 2.863457 1_565
Au0_7 Mg0_3 2.863457 1_655
Au0_7 Au1_6 2.883010 1_556
Au0_7 Au1_4 2.912825 1_566
Au0_7 Au1_2 2.912825 1_656
Au0_7 Au3_3 2.992026 1_655
Au0_7 Au3_5 2.992026 1_565
Au1_0 Mg0_5 2.845420 1_554
Au1_0 Mg0_3 2.845420 1_554
Au1_0 Mg1_4 2.863457 1_455
Au1_0 Mg1_2 2.863457 1_545
Au1_0 Au2_2 2.992026 1_545
Au1_0 Au2_4 2.992026 1_455
Au1_0 Au1_6 3.078960 1_545
Au1_0 Au1_6 3.078960 1_455
Au1_1 Mg0_4 2.845420 1_555
Au1_1 Mg0_2 2.845420 1_555
Au1_1 Mg1_5 2.863457 1_455
Au1_1 Mg1_3 2.863457 1_545
Au1_1 Au2_5 2.992026 1_455
Au1_1 Au2_3 2.992026 1_545
Au1_1 Au1_7 3.078960 1_545
Au1_1 Au1_7 3.078960 1_455
Au1_2 Mg0_1 2.845420 1_564
Au1_2 Mg0_7 2.845420 1_554
Au1_2 Mg1_6 2.863457 1_455
Au1_2 Mg1_0 2.863457 1_555
Au1_2 Au2_6 2.992026 1_455
Au1_2 Au2_0 2.992026 1_555
Au1_2 Au1_4 3.078960 1_555
Au1_2 Au1_4 3.078960 1_465
Au1_3 Mg0_0 2.845420 1_565
Au1_3 Mg0_6 2.845420 1_555
Au1_3 Mg1_1 2.863457 1_555
Au1_3 Mg1_7 2.863457 1_455
Au1_3 Au2_7 2.992026 1_455
Au1_3 Au2_1 2.992026 1_555
Au1_3 Au1_5 3.078960 1_555
Au1_3 Au1_5 3.078960 1_465
Au1_4 Mg0_1 2.845420 1_654
Au1_4 Mg0_7 2.845420 1_554
Au1_4 Mg1_0 2.863457 1_555
Au1_4 Mg1_6 2.863457 1_545
Au1_4 Au2_6 2.992026 1_545
Au1_4 Au2_0 2.992026 1_555
Au1_5 Mg0_0 2.845420 1_655
Au1_5 Mg0_6 2.845420 1_555
Au1_5 Mg1_1 2.863457 1_555
Au1_5 Mg1_7 2.863457 1_545
Au1_5 Au2_7 2.992026 1_545
Au1_5 Au2_1 2.992026 1_555
Au1_6 Mg0_3 2.845420 1_654
Au1_6 Mg0_5 2.845420 1_564
Au1_6 Mg1_2 2.863457 1_555
Au1_6 Mg1_4 2.863457 1_555
Au1_6 Au2_4 2.992026 1_555
Au1_6 Au2_2 2.992026 1_555
Au1_7 Mg0_2 2.845420 1_655
Au1_7 Mg0_4 2.845420 1_565
Au1_7 Mg1_5 2.863457 1_555
Au1_7 Mg1_3 2.863457 1_555
Au1_7 Au2_5 2.992026 1_555
Au1_7 Au2_3 2.992026 1_555
Au2_0 Mg0_4 2.824011 1_555
Au2_0 Mg0_2 2.824011 1_555
Au2_0 Mg1_2 2.860764 1_545
Au2_0 Mg1_4 2.860764 1_455
Au2_0 Mg1_0 3.034281 1_555
Au2_0 Au2_6 3.078960 1_455
Au2_0 Au2_6 3.078960 1_545
Au2_0 Au3_2 3.081337 1_555
Au2_0 Au3_4 3.081337 1_555
Au2_0 Au3_0 3.160379 1_555
Au2_1 Mg0_5 2.824011 1_555
Au2_1 Mg0_3 2.824011 1_555
Au2_1 Mg1_5 2.860764 1_455
Au2_1 Mg1_3 2.860764 1_545
Au2_1 Mg1_1 3.034281 1_555
Au2_1 Au2_7 3.078960 1_545
Au2_1 Au2_7 3.078960 1_455
Au2_1 Au3_5 3.081337 1_555
Au2_1 Au3_3 3.081337 1_555
Au2_1 Au3_1 3.160379 1_555
Au2_2 Mg0_6 2.824011 1_555
Au2_2 Mg0_0 2.824011 1_565
Au2_2 Mg1_0 2.860764 1_555
Au2_2 Mg1_6 2.860764 1_455
Au2_2 Mg1_2 3.034281 1_555
Au2_2 Au2_4 3.078960 1_555
Au2_2 Au2_4 3.078960 1_465
Au2_2 Au3_6 3.081337 1_555
Au2_2 Au3_0 3.081337 1_565
Au2_2 Au3_2 3.160379 1_555
Au2_3 Mg0_7 2.824011 1_555
Au2_3 Mg0_1 2.824011 1_565
Au2_3 Mg1_7 2.860764 1_455
Au2_3 Mg1_1 2.860764 1_555
Au2_3 Mg1_3 3.034281 1_555
Au2_3 Au2_5 3.078960 1_555
Au2_3 Au2_5 3.078960 1_465
Au2_3 Au3_7 3.081337 1_555
Au2_3 Au3_1 3.081337 1_565
Au2_3 Au3_3 3.160379 1_555
Au2_4 Mg0_6 2.824011 1_555
Au2_4 Mg0_0 2.824011 1_655
Au2_4 Mg1_0 2.860764 1_555
Au2_4 Mg1_6 2.860764 1_545
Au2_4 Mg1_4 3.034281 1_555
Au2_4 Au3_0 3.081337 1_655
Au2_4 Au3_6 3.081337 1_555
Au2_4 Au3_4 3.160379 1_555
Au2_5 Mg0_7 2.824011 1_555
Au2_5 Mg0_1 2.824011 1_655
Au2_5 Mg1_7 2.860764 1_545
Au2_5 Mg1_1 2.860764 1_555
Au2_5 Mg1_5 3.034281 1_555
Au2_5 Au3_7 3.081337 1_555
Au2_5 Au3_1 3.081337 1_655
Au2_5 Au3_5 3.160379 1_555
Au2_6 Mg0_2 2.824011 1_655
Au2_6 Mg0_4 2.824011 1_565
Au2_6 Mg1_2 2.860764 1_555
Au2_6 Mg1_4 2.860764 1_555
Au2_6 Mg1_6 3.034281 1_555
Au2_6 Au3_2 3.081337 1_655
Au2_6 Au3_4 3.081337 1_565
Au2_6 Au3_6 3.160379 1_555
Au2_7 Mg0_5 2.824011 1_565
Au2_7 Mg0_3 2.824011 1_655
Au2_7 Mg1_5 2.860764 1_555
Au2_7 Mg1_3 2.860764 1_555
Au2_7 Mg1_7 3.034281 1_555
Au2_7 Au3_3 3.081337 1_655
Au2_7 Au3_5 3.081337 1_565
Au2_7 Au3_7 3.160379 1_555
Au3_0 Mg1_2 2.824011 1_545
Au3_0 Mg1_4 2.824011 1_455
Au3_0 Mg0_4 2.860764 1_555
Au3_0 Mg0_2 2.860764 1_555
Au3_0 Mg0_0 3.034281 1_555
Au3_0 Au3_6 3.078960 1_545
Au3_0 Au3_6 3.078960 1_455
Au3_1 Mg1_3 2.824011 1_545
Au3_1 Mg1_5 2.824011 1_455
Au3_1 Mg0_5 2.860764 1_555
Au3_1 Mg0_3 2.860764 1_555
Au3_1 Mg0_1 3.034281 1_555
Au3_1 Au3_7 3.078960 1_545
Au3_1 Au3_7 3.078960 1_455
Au3_2 Mg1_6 2.824011 1_455
Au3_2 Mg1_0 2.824011 1_555
Au3_2 Mg0_0 2.860764 1_565
Au3_2 Mg0_6 2.860764 1_555
Au3_2 Mg0_2 3.034281 1_555
Au3_2 Au3_4 3.078960 1_555
Au3_2 Au3_4 3.078960 1_465
Au3_3 Mg1_1 2.824011 1_555
Au3_3 Mg1_7 2.824011 1_455
Au3_3 Mg0_1 2.860764 1_565
Au3_3 Mg0_7 2.860764 1_555
Au3_3 Mg0_3 3.034281 1_555
Au3_3 Au3_5 3.078960 1_465
Au3_3 Au3_5 3.078960 1_555
Au3_4 Mg1_6 2.824011 1_545
Au3_4 Mg1_0 2.824011 1_555
Au3_4 Mg0_0 2.860764 1_655
Au3_4 Mg0_6 2.860764 1_555
Au3_4 Mg0_4 3.034281 1_555
Au3_5 Mg1_1 2.824011 1_555
Au3_5 Mg1_7 2.824011 1_545
Au3_5 Mg0_1 2.860764 1_655
Au3_5 Mg0_7 2.860764 1_555
Au3_5 Mg0_5 3.034281 1_555
Au3_6 Mg1_4 2.824011 1_555
Au3_6 Mg1_2 2.824011 1_555
Au3_6 Mg0_2 2.860764 1_655
Au3_6 Mg0_4 2.860764 1_565
Au3_6 Mg0_6 3.034281 1_555
Au3_7 Mg1_5 2.824011 1_555
Au3_7 Mg1_3 2.824011 1_555
Au3_7 Mg0_5 2.860764 1_565
Au3_7 Mg0_3 2.860764 1_655
Au3_7 Mg0_7 3.034281 1_555
