# generated using pymatgen
data_Ba20Cd4Hg99
_symmetry_space_group_name_H-M   'P 1'
_cell_length_a   17.19436629
_cell_length_b   17.19436629
_cell_length_c   17.19436629
_cell_angle_alpha   60.00000000
_cell_angle_beta   60.00000000
_cell_angle_gamma   60.00000000
_symmetry_Int_Tables_number   1
_chemical_formula_structural   Ba20Cd4Hg99
_chemical_formula_sum   'Ba20 Cd4 Hg99'
_cell_volume   3594.54168744
_cell_formula_units_Z   1
loop_
 _symmetry_equiv_pos_site_id
 _symmetry_equiv_pos_as_xyz
  1  'x, y, z'
loop_
 _atom_site_type_symbol
 _atom_site_label
 _atom_site_symmetry_multiplicity
 _atom_site_fract_x
 _atom_site_fract_y
 _atom_site_fract_z
 _atom_site_occupancy
  Ba  Ba0  1  0.59575100  0.59575100  0.21274600  1
  Ba  Ba1  1  0.59575100  0.21274600  0.59575100  1
  Ba  Ba2  1  0.21274600  0.59575100  0.59575100  1
  Ba  Ba3  1  0.59575100  0.59575100  0.59575100  1
  Ba  Ba4  1  0.84236400  0.84236400  0.47290900  1
  Ba  Ba5  1  0.84236400  0.47290900  0.84236400  1
  Ba  Ba6  1  0.47290900  0.84236400  0.84236400  1
  Ba  Ba7  1  0.84236400  0.84236400  0.84236400  1
  Ba  Ba8  1  0.18404600  0.18404600  0.81595400  1
  Ba  Ba9  1  0.81595400  0.18404600  0.81595400  1
  Ba  Ba10  1  0.18404600  0.81595400  0.81595400  1
  Ba  Ba11  1  0.81595400  0.81595400  0.18404600  1
  Ba  Ba12  1  0.18404600  0.81595400  0.18404600  1
  Ba  Ba13  1  0.81595400  0.18404600  0.18404600  1
  Ba  Ba14  1  0.05335300  0.05335300  0.44664700  1
  Ba  Ba15  1  0.44664700  0.05335300  0.44664700  1
  Ba  Ba16  1  0.05335300  0.44664700  0.44664700  1
  Ba  Ba17  1  0.44664700  0.44664700  0.05335300  1
  Ba  Ba18  1  0.05335300  0.44664700  0.05335300  1
  Ba  Ba19  1  0.44664700  0.05335300  0.05335300  1
  Cd  Cd0  1  0.12391400  0.12391400  0.62825800  1
  Cd  Cd1  1  0.12391400  0.62825800  0.12391400  1
  Cd  Cd2  1  0.62825800  0.12391400  0.12391400  1
  Cd  Cd3  1  0.12391400  0.12391400  0.12391400  1
  Hg  Hg0  1  0.41884200  0.82589900  0.10796300  1
  Hg  Hg1  1  0.64729600  0.41884200  0.10796300  1
  Hg  Hg2  1  0.82589900  0.64729600  0.10796300  1
  Hg  Hg3  1  0.64729600  0.82589900  0.10796300  1
  Hg  Hg4  1  0.82589900  0.41884200  0.10796300  1
  Hg  Hg5  1  0.41884200  0.64729600  0.10796300  1
  Hg  Hg6  1  0.64729600  0.10796300  0.82589900  1
  Hg  Hg7  1  0.82589900  0.10796300  0.41884200  1
  Hg  Hg8  1  0.41884200  0.10796300  0.64729600  1
  Hg  Hg9  1  0.41884200  0.10796300  0.82589900  1
  Hg  Hg10  1  0.64729600  0.10796300  0.41884200  1
  Hg  Hg11  1  0.82589900  0.10796300  0.64729600  1
  Hg  Hg12  1  0.10796300  0.64729600  0.41884200  1
  Hg  Hg13  1  0.10796300  0.82589900  0.64729600  1
  Hg  Hg14  1  0.10796300  0.41884200  0.82589900  1
  Hg  Hg15  1  0.10796300  0.41884200  0.64729600  1
  Hg  Hg16  1  0.10796300  0.64729600  0.82589900  1
  Hg  Hg17  1  0.10796300  0.82589900  0.41884200  1
  Hg  Hg18  1  0.82589900  0.41884200  0.64729600  1
  Hg  Hg19  1  0.41884200  0.64729600  0.82589900  1
  Hg  Hg20  1  0.64729600  0.82589900  0.41884200  1
  Hg  Hg21  1  0.82589900  0.64729600  0.41884200  1
  Hg  Hg22  1  0.41884200  0.82589900  0.64729600  1
  Hg  Hg23  1  0.64729600  0.41884200  0.82589900  1
  Hg  Hg24  1  0.61811100  0.79518100  0.96859800  1
  Hg  Hg25  1  0.61811100  0.61811100  0.96859800  1
  Hg  Hg26  1  0.79518100  0.61811100  0.96859800  1
  Hg  Hg27  1  0.61811100  0.96859800  0.79518100  1
  Hg  Hg28  1  0.79518100  0.96859800  0.61811100  1
  Hg  Hg29  1  0.61811100  0.96859800  0.61811100  1
  Hg  Hg30  1  0.96859800  0.61811100  0.61811100  1
  Hg  Hg31  1  0.96859800  0.79518100  0.61811100  1
  Hg  Hg32  1  0.96859800  0.61811100  0.79518100  1
  Hg  Hg33  1  0.79518100  0.61811100  0.61811100  1
  Hg  Hg34  1  0.61811100  0.61811100  0.79518100  1
  Hg  Hg35  1  0.61811100  0.79518100  0.61811100  1
  Hg  Hg36  1  0.99496400  0.29885600  0.71121500  1
  Hg  Hg37  1  0.99496400  0.99496400  0.71121500  1
  Hg  Hg38  1  0.29885600  0.99496400  0.71121500  1
  Hg  Hg39  1  0.99496400  0.71121500  0.29885600  1
  Hg  Hg40  1  0.29885600  0.71121500  0.99496400  1
  Hg  Hg41  1  0.99496400  0.71121500  0.99496400  1
  Hg  Hg42  1  0.71121500  0.99496400  0.99496400  1
  Hg  Hg43  1  0.71121500  0.29885600  0.99496400  1
  Hg  Hg44  1  0.71121500  0.99496400  0.29885600  1
  Hg  Hg45  1  0.29885600  0.99496400  0.99496400  1
  Hg  Hg46  1  0.99496400  0.99496400  0.29885600  1
  Hg  Hg47  1  0.99496400  0.29885600  0.99496400  1
  Hg  Hg48  1  0.45371500  0.82380300  0.26876700  1
  Hg  Hg49  1  0.45371500  0.45371500  0.26876700  1
  Hg  Hg50  1  0.82380300  0.45371500  0.26876700  1
  Hg  Hg51  1  0.45371500  0.26876700  0.82380300  1
  Hg  Hg52  1  0.82380300  0.26876700  0.45371500  1
  Hg  Hg53  1  0.45371500  0.26876700  0.45371500  1
  Hg  Hg54  1  0.26876700  0.45371500  0.45371500  1
  Hg  Hg55  1  0.26876700  0.82380300  0.45371500  1
  Hg  Hg56  1  0.26876700  0.45371500  0.82380300  1
  Hg  Hg57  1  0.82380300  0.45371500  0.45371500  1
  Hg  Hg58  1  0.45371500  0.45371500  0.82380300  1
  Hg  Hg59  1  0.45371500  0.82380300  0.45371500  1
  Hg  Hg60  1  0.20116700  0.20116700  0.39649900  1
  Hg  Hg61  1  0.20116700  0.39649900  0.20116700  1
  Hg  Hg62  1  0.39649900  0.20116700  0.20116700  1
  Hg  Hg63  1  0.20116700  0.20116700  0.20116700  1
  Hg  Hg64  1  0.32618500  0.32618500  0.02144600  1
  Hg  Hg65  1  0.32618500  0.02144600  0.32618500  1
  Hg  Hg66  1  0.02144600  0.32618500  0.32618500  1
  Hg  Hg67  1  0.32618500  0.32618500  0.32618500  1
  Hg  Hg68  1  0.45418700  0.45418700  0.63743900  1
  Hg  Hg69  1  0.45418700  0.63743900  0.45418700  1
  Hg  Hg70  1  0.63743900  0.45418700  0.45418700  1
  Hg  Hg71  1  0.45418700  0.45418700  0.45418700  1
  Hg  Hg72  1  0.04936800  0.04936800  0.85189700  1
  Hg  Hg73  1  0.04936800  0.85189700  0.04936800  1
  Hg  Hg74  1  0.85189700  0.04936800  0.04936800  1
  Hg  Hg75  1  0.04936800  0.04936800  0.04936800  1
  Hg  Hg76  1  0.92638100  0.92638100  0.22085800  1
  Hg  Hg77  1  0.92638100  0.22085800  0.92638100  1
  Hg  Hg78  1  0.22085800  0.92638100  0.92638100  1
  Hg  Hg79  1  0.92638100  0.92638100  0.92638100  1
  Hg  Hg80  1  0.23979300  0.96058200  0.55983200  1
  Hg  Hg81  1  0.23979300  0.23979300  0.55983200  1
  Hg  Hg82  1  0.96058200  0.23979300  0.55983200  1
  Hg  Hg83  1  0.23979300  0.55983200  0.96058200  1
  Hg  Hg84  1  0.96058200  0.55983200  0.23979300  1
  Hg  Hg85  1  0.23979300  0.55983200  0.23979300  1
  Hg  Hg86  1  0.55983200  0.23979300  0.23979300  1
  Hg  Hg87  1  0.55983200  0.96058200  0.23979300  1
  Hg  Hg88  1  0.55983200  0.23979300  0.96058200  1
  Hg  Hg89  1  0.96058200  0.23979300  0.23979300  1
  Hg  Hg90  1  0.23979300  0.23979300  0.96058200  1
  Hg  Hg91  1  0.23979300  0.96058200  0.23979300  1
  Hg  Hg92  1  0.32527700  0.32527700  0.67472300  1
  Hg  Hg93  1  0.67472300  0.32527700  0.67472300  1
  Hg  Hg94  1  0.32527700  0.67472300  0.67472300  1
  Hg  Hg95  1  0.67472300  0.67472300  0.32527700  1
  Hg  Hg96  1  0.32527700  0.67472300  0.32527700  1
  Hg  Hg97  1  0.67472300  0.32527700  0.32527700  1
  Hg  Hg98  1  0.75000000  0.75000000  0.75000000  1
loop_
_geom_bond_atom_site_label_1
_geom_bond_atom_site_label_2
_geom_bond_distance
_geom_bond_site_symmetry_2
Ba0 Hg49 3.757157 1_555
Ba0 Hg50 3.757172 1_555
Ba0 Hg48 3.757172 1_555
Ba0 Hg5 3.804208 1_555
Ba0 Hg1 3.804208 1_555
Ba0 Hg0 3.804215 1_555
Ba0 Hg4 3.804215 1_555
Ba0 Hg3 3.804224 1_555
Ba0 Hg2 3.804224 1_555
Ba0 Hg96 3.811809 1_555
Ba0 Hg97 3.811809 1_555
Ba0 Hg95 3.811823 1_555
Ba0 Hg71 3.846935 1_555
Ba0 Hg70 3.846942 1_555
Ba0 Hg69 3.846942 1_555
Ba0 Hg25 3.852070 1_554
Ba0 Hg24 3.852083 1_554
Ba0 Hg26 3.852083 1_554
Ba1 Hg53 3.757157 1_555
Ba1 Hg51 3.757172 1_555
Ba1 Hg52 3.757172 1_555
Ba1 Hg8 3.804208 1_555
Ba1 Hg10 3.804208 1_555
Ba1 Hg9 3.804215 1_555
Ba1 Hg7 3.804215 1_555
Ba1 Hg6 3.804224 1_555
Ba1 Hg11 3.804224 1_555
Ba1 Hg97 3.811809 1_555
Ba1 Hg92 3.811809 1_555
Ba1 Hg93 3.811823 1_555
Ba1 Hg71 3.846935 1_555
Ba1 Hg70 3.846942 1_555
Ba1 Hg68 3.846942 1_555
Ba1 Hg29 3.852070 1_545
Ba1 Hg27 3.852083 1_545
Ba1 Hg28 3.852083 1_545
Ba2 Hg54 3.757157 1_555
Ba2 Hg56 3.757172 1_555
Ba2 Hg55 3.757172 1_555
Ba2 Hg15 3.804208 1_555
Ba2 Hg12 3.804208 1_555
Ba2 Hg17 3.804215 1_555
Ba2 Hg14 3.804215 1_555
Ba2 Hg13 3.804224 1_555
Ba2 Hg16 3.804224 1_555
Ba2 Hg96 3.811809 1_555
Ba2 Hg92 3.811809 1_555
Ba2 Hg94 3.811823 1_555
Ba2 Hg71 3.846935 1_555
Ba2 Hg69 3.846942 1_555
Ba2 Hg68 3.846942 1_555
Ba2 Hg30 3.852070 1_455
Ba2 Hg32 3.852083 1_455
Ba2 Hg31 3.852083 1_455
Ba3 Hg59 3.757164 1_555
Ba3 Hg57 3.757164 1_555
Ba3 Hg58 3.757164 1_555
Ba3 Hg18 3.804221 1_555
Ba3 Hg21 3.804221 1_555
Ba3 Hg20 3.804221 1_555
Ba3 Hg22 3.804221 1_555
Ba3 Hg19 3.804221 1_555
Ba3 Hg23 3.804221 1_555
Ba3 Hg95 3.811808 1_555
Ba3 Hg94 3.811808 1_555
Ba3 Hg93 3.811808 1_555
Ba3 Hg69 3.846928 1_555
Ba3 Hg70 3.846928 1_555
Ba3 Hg68 3.846928 1_555
Ba3 Hg35 3.852104 1_555
Ba3 Hg34 3.852104 1_555
Ba3 Hg33 3.852104 1_555
Ba4 Hg76 3.538580 1_555
Ba4 Hg31 3.638027 1_555
Ba4 Hg28 3.638027 1_555
Ba4 Hg29 3.638027 1_555
Ba4 Hg30 3.638027 1_555
Ba4 Hg33 3.638027 1_555
Ba4 Hg35 3.638027 1_555
Ba4 Hg46 3.728988 1_555
Ba4 Hg44 3.729010 1_555
Ba4 Hg39 3.729010 1_555
Ba4 Hg98 3.890120 1_555
Ba4 Hg17 4.065082 1_655
Ba4 Hg7 4.065082 1_565
Ba4 Hg12 4.065089 1_655
Ba4 Hg10 4.065089 1_565
Ba4 Hg20 4.065099 1_555
Ba4 Hg21 4.065099 1_555
Ba5 Hg77 3.538580 1_555
Ba5 Hg26 3.638027 1_555
Ba5 Hg32 3.638027 1_555
Ba5 Hg25 3.638027 1_555
Ba5 Hg30 3.638027 1_555
Ba5 Hg33 3.638027 1_555
Ba5 Hg34 3.638027 1_555
Ba5 Hg47 3.728988 1_555
Ba5 Hg36 3.729010 1_555
Ba5 Hg43 3.729010 1_555
Ba5 Hg98 3.890120 1_555
Ba5 Hg14 4.065082 1_655
Ba5 Hg4 4.065082 1_556
Ba5 Hg1 4.065089 1_556
Ba5 Hg15 4.065089 1_655
Ba5 Hg18 4.065099 1_555
Ba5 Hg23 4.065099 1_555
Ba6 Hg78 3.538580 1_555
Ba6 Hg27 3.638027 1_555
Ba6 Hg24 3.638027 1_555
Ba6 Hg25 3.638027 1_555
Ba6 Hg29 3.638027 1_555
Ba6 Hg34 3.638027 1_555
Ba6 Hg35 3.638027 1_555
Ba6 Hg45 3.728988 1_555
Ba6 Hg38 3.729010 1_555
Ba6 Hg40 3.729010 1_555
Ba6 Hg98 3.890120 1_555
Ba6 Hg0 4.065082 1_556
Ba6 Hg9 4.065082 1_565
Ba6 Hg8 4.065089 1_565
Ba6 Hg5 4.065089 1_556
Ba6 Hg22 4.065099 1_555
Ba6 Hg19 4.065099 1_555
Ba7 Hg79 3.538580 1_555
Ba7 Hg28 3.638027 1_555
Ba7 Hg32 3.638027 1_555
Ba7 Hg26 3.638027 1_555
Ba7 Hg27 3.638027 1_555
Ba7 Hg31 3.638027 1_555
Ba7 Hg24 3.638027 1_555
Ba7 Hg42 3.728985 1_555
Ba7 Hg37 3.728985 1_555
Ba7 Hg41 3.728985 1_555
Ba7 Hg98 3.890134 1_555
Ba7 Hg3 4.065088 1_556
Ba7 Hg6 4.065088 1_565
Ba7 Hg13 4.065088 1_655
Ba7 Hg16 4.065088 1_655
Ba7 Hg11 4.065088 1_565
Ba7 Hg2 4.065088 1_556
Ba8 Hg92 3.434244 1_555
Ba8 Hg14 3.636562 1_555
Ba8 Hg9 3.636562 1_555
Ba8 Hg8 3.636562 1_555
Ba8 Hg15 3.636562 1_555
Ba8 Hg47 3.686738 1_455
Ba8 Hg45 3.686738 1_545
Ba8 Hg38 3.686749 1_545
Ba8 Hg36 3.686749 1_455
Ba8 Hg72 3.688780 1_555
Ba8 Hg75 3.688788 1_556
Ba8 Hg77 3.690473 1_455
Ba8 Hg78 3.690473 1_545
Ba8 Hg90 3.702407 1_555
Ba8 Hg81 3.702407 1_555
Ba9 Hg93 3.434244 1_555
Ba9 Hg23 3.636562 1_555
Ba9 Hg18 3.636562 1_555
Ba9 Hg6 3.636562 1_555
Ba9 Hg11 3.636562 1_555
Ba9 Hg43 3.686734 1_555
Ba9 Hg36 3.686734 1_555
Ba9 Hg37 3.686747 1_545
Ba9 Hg42 3.686747 1_545
Ba9 Hg72 3.688795 1_655
Ba9 Hg74 3.688795 1_556
Ba9 Hg79 3.690476 1_545
Ba9 Hg77 3.690488 1_555
Ba9 Hg88 3.702407 1_555
Ba9 Hg82 3.702407 1_555
Ba10 Hg94 3.434244 1_555
Ba10 Hg22 3.636562 1_555
Ba10 Hg19 3.636562 1_555
Ba10 Hg13 3.636562 1_555
Ba10 Hg16 3.636562 1_555
Ba10 Hg40 3.686734 1_555
Ba10 Hg38 3.686734 1_555
Ba10 Hg37 3.686747 1_455
Ba10 Hg41 3.686747 1_455
Ba10 Hg72 3.688795 1_565
Ba10 Hg73 3.688795 1_556
Ba10 Hg79 3.690476 1_455
Ba10 Hg78 3.690488 1_555
Ba10 Hg83 3.702407 1_555
Ba10 Hg80 3.702407 1_555
Ba11 Hg95 3.434244 1_555
Ba11 Hg21 3.636562 1_555
Ba11 Hg20 3.636562 1_555
Ba11 Hg2 3.636562 1_555
Ba11 Hg3 3.636562 1_555
Ba11 Hg44 3.686734 1_555
Ba11 Hg39 3.686734 1_555
Ba11 Hg42 3.686747 1_554
Ba11 Hg41 3.686747 1_554
Ba11 Hg74 3.688795 1_565
Ba11 Hg73 3.688795 1_655
Ba11 Hg79 3.690476 1_554
Ba11 Hg76 3.690488 1_555
Ba11 Hg84 3.702407 1_555
Ba11 Hg87 3.702407 1_555
Ba12 Hg96 3.434244 1_555
Ba12 Hg17 3.636562 1_555
Ba12 Hg0 3.636562 1_555
Ba12 Hg5 3.636562 1_555
Ba12 Hg12 3.636562 1_555
Ba12 Hg46 3.686738 1_455
Ba12 Hg45 3.686738 1_554
Ba12 Hg39 3.686749 1_455
Ba12 Hg40 3.686749 1_554
Ba12 Hg73 3.688780 1_555
Ba12 Hg75 3.688788 1_565
Ba12 Hg76 3.690473 1_455
Ba12 Hg78 3.690473 1_554
Ba12 Hg91 3.702407 1_555
Ba12 Hg85 3.702407 1_555
Ba13 Hg97 3.434244 1_555
Ba13 Hg4 3.636562 1_555
Ba13 Hg7 3.636562 1_555
Ba13 Hg10 3.636562 1_555
Ba13 Hg1 3.636562 1_555
Ba13 Hg47 3.686738 1_554
Ba13 Hg46 3.686738 1_545
Ba13 Hg43 3.686749 1_554
Ba13 Hg44 3.686749 1_545
Ba13 Hg74 3.688780 1_555
Ba13 Hg75 3.688788 1_655
Ba13 Hg76 3.690473 1_545
Ba13 Hg77 3.690473 1_554
Ba13 Hg89 3.702407 1_555
Ba13 Hg86 3.702407 1_555
Ba14 Hg7 3.762203 1_455
Ba14 Hg13 3.762203 1_545
Ba14 Hg11 3.762203 1_455
Ba14 Hg17 3.762203 1_545
Ba14 Hg37 3.818866 1_445
Ba14 Hg46 3.818882 1_445
Ba14 Hg82 3.824843 1_455
Ba14 Hg80 3.824843 1_545
Ba14 Hg89 3.824843 1_455
Ba14 Hg91 3.824843 1_545
Ba14 Hg52 3.829296 1_455
Ba14 Hg55 3.829296 1_545
Ba14 Hg65 3.929915 1_555
Ba14 Hg66 3.929915 1_555
Ba14 Hg60 3.967266 1_555
Ba14 Hg63 3.967266 1_555
Ba15 Hg22 3.762203 1_545
Ba15 Hg20 3.762203 1_545
Ba15 Hg8 3.762203 1_555
Ba15 Hg10 3.762203 1_555
Ba15 Hg38 3.818869 1_545
Ba15 Hg44 3.818869 1_545
Ba15 Hg81 3.824843 1_555
Ba15 Hg86 3.824843 1_555
Ba15 Hg80 3.824843 1_545
Ba15 Hg87 3.824843 1_545
Ba15 Hg59 3.829296 1_545
Ba15 Hg53 3.829296 1_555
Ba15 Hg65 3.929900 1_555
Ba15 Hg67 3.929912 1_555
Ba15 Hg60 3.967266 1_555
Ba15 Hg62 3.967266 1_555
Ba16 Hg15 3.762203 1_555
Ba16 Hg18 3.762203 1_455
Ba16 Hg21 3.762203 1_455
Ba16 Hg12 3.762203 1_555
Ba16 Hg36 3.818869 1_455
Ba16 Hg39 3.818869 1_455
Ba16 Hg81 3.824843 1_555
Ba16 Hg85 3.824843 1_555
Ba16 Hg82 3.824843 1_455
Ba16 Hg84 3.824843 1_455
Ba16 Hg57 3.829296 1_455
Ba16 Hg54 3.829296 1_555
Ba16 Hg66 3.929900 1_555
Ba16 Hg67 3.929912 1_555
Ba16 Hg61 3.967266 1_555
Ba16 Hg60 3.967266 1_555
Ba17 Hg19 3.762203 1_554
Ba17 Hg23 3.762203 1_554
Ba17 Hg5 3.762203 1_555
Ba17 Hg1 3.762203 1_555
Ba17 Hg40 3.818869 1_554
Ba17 Hg43 3.818869 1_554
Ba17 Hg85 3.824843 1_555
Ba17 Hg86 3.824843 1_555
Ba17 Hg83 3.824843 1_554
Ba17 Hg88 3.824843 1_554
Ba17 Hg58 3.829296 1_554
Ba17 Hg49 3.829296 1_555
Ba17 Hg64 3.929900 1_555
Ba17 Hg67 3.929912 1_555
Ba17 Hg61 3.967266 1_555
Ba17 Hg62 3.967266 1_555
Ba18 Hg2 3.762203 1_455
Ba18 Hg14 3.762203 1_554
Ba18 Hg16 3.762203 1_554
Ba18 Hg4 3.762203 1_455
Ba18 Hg41 3.818866 1_454
Ba18 Hg47 3.818882 1_454
Ba18 Hg83 3.824843 1_554
Ba18 Hg84 3.824843 1_455
Ba18 Hg90 3.824843 1_554
Ba18 Hg89 3.824843 1_455
Ba18 Hg56 3.829296 1_554
Ba18 Hg50 3.829296 1_455
Ba18 Hg66 3.929915 1_555
Ba18 Hg64 3.929915 1_555
Ba18 Hg61 3.967266 1_555
Ba18 Hg63 3.967266 1_555
Ba19 Hg0 3.762203 1_545
Ba19 Hg6 3.762203 1_554
Ba19 Hg9 3.762203 1_554
Ba19 Hg3 3.762203 1_545
Ba19 Hg42 3.818866 1_544
Ba19 Hg45 3.818882 1_544
Ba19 Hg88 3.824843 1_554
Ba19 Hg87 3.824843 1_545
Ba19 Hg91 3.824843 1_545
Ba19 Hg90 3.824843 1_554
Ba19 Hg51 3.829296 1_554
Ba19 Hg48 3.829296 1_545
Ba19 Hg65 3.929915 1_555
Ba19 Hg64 3.929915 1_555
Ba19 Hg62 3.967266 1_555
Ba19 Hg63 3.967266 1_555
Cd0 Hg81 2.933526 1_555
Cd0 Hg80 2.933526 1_545
Cd0 Hg82 2.933526 1_455
Cd0 Hg72 3.139700 1_555
Cd0 Hg38 3.233787 1_545
Cd0 Hg36 3.233787 1_455
Cd0 Hg37 3.233801 1_445
Cd0 Hg60 3.253697 1_555
Cd1 Hg85 2.933526 1_555
Cd1 Hg83 2.933526 1_554
Cd1 Hg84 2.933526 1_455
Cd1 Hg73 3.139700 1_555
Cd1 Hg40 3.233787 1_554
Cd1 Hg39 3.233787 1_455
Cd1 Hg41 3.233801 1_454
Cd1 Hg61 3.253697 1_555
Cd2 Hg86 2.933526 1_555
Cd2 Hg88 2.933526 1_554
Cd2 Hg87 2.933526 1_545
Cd2 Hg74 3.139700 1_555
Cd2 Hg43 3.233787 1_554
Cd2 Hg44 3.233787 1_545
Cd2 Hg42 3.233801 1_544
Cd2 Hg62 3.253697 1_555
Cd3 Hg89 2.933526 1_455
Cd3 Hg91 2.933526 1_545
Cd3 Hg90 2.933526 1_554
Cd3 Hg75 3.139685 1_555
Cd3 Hg45 3.233797 1_544
Cd3 Hg47 3.233797 1_454
Cd3 Hg46 3.233797 1_445
Cd3 Hg63 3.253697 1_555
Hg0 Hg45 2.974033 1_554
Hg0 Hg24 3.001049 1_554
Hg0 Hg5 3.070965 1_555
Hg0 Hg48 3.089059 1_555
Hg1 Hg43 2.974038 1_554
Hg1 Hg25 3.001049 1_554
Hg1 Hg4 3.070965 1_555
Hg1 Hg49 3.089059 1_555
Hg2 Hg41 2.974024 1_554
Hg2 Hg26 3.001038 1_554
Hg2 Hg3 3.070965 1_555
Hg2 Hg50 3.089059 1_555
Hg3 Hg42 2.974024 1_554
Hg3 Hg48 3.089059 1_555
Hg4 Hg47 2.974033 1_554
Hg4 Hg50 3.089059 1_555
Hg8 Hg9 3.070965 1_555
Hg10 Hg44 2.974038 1_545
Hg10 Hg29 3.001049 1_545
Hg10 Hg7 3.070965 1_555
Hg10 Hg53 3.089059 1_555
Hg11 Hg37 2.974024 1_545
Hg11 Hg28 3.001038 1_545
Hg11 Hg6 3.070965 1_555
Hg11 Hg52 3.089059 1_555
Hg12 Hg39 2.974038 1_455
Hg12 Hg30 3.001049 1_455
Hg12 Hg17 3.070965 1_555
Hg12 Hg54 3.089059 1_555
Hg13 Hg37 2.974024 1_455
Hg13 Hg31 3.001038 1_455
Hg13 Hg16 3.070965 1_555
Hg13 Hg55 3.089059 1_555
Hg14 Hg47 2.974033 1_455
Hg14 Hg32 3.001049 1_455
Hg14 Hg15 3.070965 1_555
Hg14 Hg56 3.089059 1_555
Hg15 Hg36 2.974038 1_455
Hg15 Hg30 3.001049 1_455
Hg15 Hg54 3.089059 1_555
Hg16 Hg41 2.974024 1_455
Hg16 Hg32 3.001038 1_455
Hg16 Hg56 3.089059 1_555
Hg17 Hg46 2.974033 1_455
Hg17 Hg31 3.001049 1_455
Hg17 Hg55 3.089059 1_555
Hg18 Hg36 2.974024 1_555
Hg18 Hg33 3.001054 1_555
Hg18 Hg23 3.070965 1_555
Hg18 Hg57 3.089059 1_555
Hg19 Hg40 2.974024 1_555
Hg19 Hg34 3.001054 1_555
Hg19 Hg22 3.070965 1_555
Hg19 Hg58 3.089059 1_555
Hg20 Hg44 2.974024 1_555
Hg20 Hg35 3.001054 1_555
Hg20 Hg21 3.070965 1_555
Hg20 Hg59 3.089059 1_555
Hg21 Hg39 2.974024 1_555
Hg21 Hg33 3.001054 1_555
Hg21 Hg57 3.089059 1_555
Hg22 Hg38 2.974024 1_555
Hg22 Hg35 3.001054 1_555
Hg22 Hg59 3.089059 1_555
Hg23 Hg43 2.974024 1_555
Hg23 Hg34 3.001054 1_555
Hg23 Hg58 3.089059 1_555
Hg24 Hg27 2.981795 1_555
Hg24 Hg3 3.001038 1_556
Hg24 Hg25 3.044606 1_555
Hg24 Hg26 3.044606 1_555
Hg25 Hg34 2.981795 1_555
Hg25 Hg5 3.001049 1_556
Hg25 Hg26 3.044606 1_555
Hg26 Hg32 2.981795 1_555
Hg26 Hg4 3.001049 1_556
Hg27 Hg6 3.001038 1_565
Hg27 Hg9 3.001049 1_565
Hg27 Hg28 3.044606 1_555
Hg27 Hg29 3.044606 1_555
Hg28 Hg31 2.981795 1_555
Hg28 Hg7 3.001049 1_565
Hg28 Hg29 3.044606 1_555
Hg29 Hg35 2.981795 1_555
Hg29 Hg8 3.001049 1_565
Hg30 Hg33 2.981795 1_555
Hg30 Hg32 3.044606 1_555
Hg30 Hg31 3.044606 1_555
Hg31 Hg32 3.044606 1_555
Hg33 Hg34 3.044606 1_555
Hg33 Hg35 3.044606 1_555
Hg34 Hg35 3.044606 1_555
Hg36 Hg77 3.022191 1_555
Hg37 Hg79 3.022192 1_555
Hg38 Hg8 2.974038 1_565
Hg38 Hg78 3.022191 1_555
Hg39 Hg76 3.022191 1_555
Hg40 Hg5 2.974038 1_556
Hg40 Hg78 3.022191 1_555
Hg41 Hg79 3.022192 1_555
Hg42 Hg6 2.974024 1_565
Hg42 Hg79 3.022192 1_555
Hg43 Hg77 3.022191 1_555
Hg44 Hg76 3.022191 1_555
Hg45 Hg9 2.974033 1_565
Hg45 Hg78 3.022163 1_555
Hg46 Hg7 2.974033 1_565
Hg46 Hg76 3.022163 1_555
Hg47 Hg77 3.022163 1_555
Hg48 Hg59 3.180064 1_555
Hg48 Hg55 3.180064 1_555
Hg48 Hg69 3.196316 1_555
Hg48 Hg65 3.327180 1_565
Hg48 Hg87 3.364376 1_555
Hg48 Hg91 3.364376 1_555
Hg49 Hg5 3.089059 1_555
Hg49 Hg54 3.180064 1_555
Hg49 Hg53 3.180064 1_555
Hg49 Hg71 3.196316 1_555
Hg49 Hg67 3.327165 1_555
Hg49 Hg85 3.364376 1_555
Hg49 Hg86 3.364376 1_555
Hg50 Hg57 3.180064 1_555
Hg50 Hg52 3.180064 1_555
Hg50 Hg70 3.196316 1_555
Hg50 Hg66 3.327180 1_655
Hg50 Hg84 3.364376 1_555
Hg50 Hg89 3.364376 1_555
Hg51 Hg6 3.089059 1_555
Hg51 Hg9 3.089059 1_555
Hg51 Hg58 3.180064 1_555
Hg51 Hg56 3.180064 1_555
Hg51 Hg68 3.196316 1_555
Hg51 Hg64 3.327180 1_556
Hg51 Hg88 3.364376 1_555
Hg51 Hg90 3.364376 1_555
Hg52 Hg7 3.089059 1_555
Hg52 Hg57 3.180064 1_555
Hg52 Hg70 3.196316 1_555
Hg52 Hg66 3.327180 1_655
Hg52 Hg82 3.364376 1_555
Hg52 Hg89 3.364376 1_555
Hg53 Hg8 3.089059 1_555
Hg53 Hg54 3.180064 1_555
Hg53 Hg71 3.196316 1_555
Hg53 Hg67 3.327165 1_555
Hg53 Hg86 3.364376 1_555
Hg53 Hg81 3.364376 1_555
Hg54 Hg71 3.196316 1_555
Hg54 Hg67 3.327165 1_555
Hg54 Hg85 3.364376 1_555
Hg54 Hg81 3.364376 1_555
Hg55 Hg59 3.180064 1_555
Hg55 Hg69 3.196316 1_555
Hg55 Hg65 3.327180 1_565
Hg55 Hg80 3.364376 1_555
Hg55 Hg91 3.364376 1_555
Hg56 Hg58 3.180064 1_555
Hg56 Hg68 3.196316 1_555
Hg56 Hg64 3.327180 1_556
Hg56 Hg83 3.364376 1_555
Hg56 Hg90 3.364376 1_555
Hg57 Hg70 3.196316 1_555
Hg57 Hg66 3.327171 1_655
Hg57 Hg82 3.364376 1_555
Hg57 Hg84 3.364376 1_555
Hg58 Hg68 3.196316 1_555
Hg58 Hg64 3.327171 1_556
Hg58 Hg83 3.364376 1_555
Hg58 Hg88 3.364376 1_555
Hg59 Hg69 3.196316 1_555
Hg59 Hg65 3.327171 1_565
Hg59 Hg80 3.364376 1_555
Hg59 Hg87 3.364376 1_555
Hg60 Hg66 3.182176 1_555
Hg60 Hg65 3.182176 1_555
Hg60 Hg67 3.182190 1_555
Hg61 Hg66 3.182176 1_555
Hg61 Hg64 3.182176 1_555
Hg61 Hg67 3.182190 1_555
Hg62 Hg65 3.182176 1_555
Hg62 Hg64 3.182176 1_555
Hg62 Hg67 3.182190 1_555
Hg63 Hg65 3.182185 1_555
Hg63 Hg66 3.182185 1_555
Hg63 Hg64 3.182185 1_555
Hg64 Hg83 3.289978 1_554
Hg64 Hg88 3.289978 1_554
Hg64 Hg90 3.289992 1_554
Hg65 Hg87 3.289978 1_545
Hg65 Hg80 3.289978 1_545
Hg65 Hg91 3.289992 1_545
Hg66 Hg84 3.289978 1_455
Hg66 Hg82 3.289978 1_455
Hg66 Hg89 3.289992 1_455
Hg67 Hg86 3.289979 1_555
Hg67 Hg81 3.289979 1_555
Hg67 Hg85 3.289979 1_555
Hg68 Hg69 3.150902 1_555
Hg68 Hg70 3.150902 1_555
Hg68 Hg71 3.150902 1_555
Hg69 Hg70 3.150902 1_555
Hg69 Hg71 3.150902 1_555
Hg70 Hg71 3.150902 1_555
Hg72 Hg79 3.104721 1_445
Hg72 Hg77 3.104721 1_455
Hg72 Hg78 3.104721 1_545
Hg73 Hg79 3.104721 1_454
Hg73 Hg76 3.104721 1_455
Hg73 Hg78 3.104721 1_554
Hg74 Hg79 3.104721 1_544
Hg74 Hg77 3.104721 1_554
Hg74 Hg76 3.104721 1_545
Hg75 Hg76 3.104721 1_445
Hg75 Hg78 3.104721 1_544
Hg75 Hg77 3.104721 1_454
