# generated using pymatgen
data_Nb12Tl(Te3As)4
_symmetry_space_group_name_H-M   'P 1'
_cell_length_a   11.14202045
_cell_length_b   11.14202045
_cell_length_c   10.55022427
_cell_angle_alpha   61.75245867
_cell_angle_beta   61.75245867
_cell_angle_gamma   37.79426578
_symmetry_Int_Tables_number   1
_chemical_formula_structural   Nb12Tl(Te3As)4
_chemical_formula_sum   'Nb12 Tl1 Te12 As4'
_cell_volume   695.00520893
_cell_formula_units_Z   1
loop_
 _symmetry_equiv_pos_site_id
 _symmetry_equiv_pos_as_xyz
  1  'x, y, z'
loop_
 _atom_site_type_symbol
 _atom_site_label
 _atom_site_symmetry_multiplicity
 _atom_site_fract_x
 _atom_site_fract_y
 _atom_site_fract_z
 _atom_site_occupancy
  Nb  Nb0  1  0.62395400  0.62395400  0.12758100  1
  Nb  Nb1  1  0.12257700  0.12257700  0.12668800  1
  Nb  Nb2  1  0.43880000  0.43880000  0.37566300  1
  Nb  Nb3  1  0.93834300  0.93834300  0.37717700  1
  Nb  Nb4  1  0.56398800  0.56398800  0.49496900  1
  Nb  Nb5  1  0.06243400  0.06243400  0.49755800  1
  Nb  Nb6  1  0.37675300  0.87824300  0.87306800  1
  Nb  Nb7  1  0.87824300  0.37675300  0.87306800  1
  Nb  Nb8  1  0.56138100  0.06164700  0.62187600  1
  Nb  Nb9  1  0.06164700  0.56138100  0.62187600  1
  Nb  Nb10  1  0.43641100  0.93549500  0.50517200  1
  Nb  Nb11  1  0.93549500  0.43641100  0.50517200  1
  Tl  Tl0  1  0.37500900  0.37500900  0.99995900  1
  Te  Te0  1  0.01417100  0.01417100  0.05172400  1
  Te  Te1  1  0.51598500  0.51598500  0.05314200  1
  Te  Te2  1  0.90105100  0.90105100  0.66898400  1
  Te  Te3  1  0.40140300  0.40140300  0.66588800  1
  Te  Te4  1  0.20772000  0.20772000  0.28179700  1
  Te  Te5  1  0.70990900  0.70990900  0.27861100  1
  Te  Te6  1  0.98641000  0.48566300  0.94803800  1
  Te  Te7  1  0.48566300  0.98641000  0.94803800  1
  Te  Te8  1  0.09866800  0.59926600  0.32993700  1
  Te  Te9  1  0.59926600  0.09866800  0.32993700  1
  Te  Te10  1  0.78939100  0.29034800  0.72203200  1
  Te  Te11  1  0.29034800  0.78939100  0.72203200  1
  As  As0  1  0.20824900  0.20824900  0.66662900  1
  As  As1  1  0.70818900  0.70818900  0.66713200  1
  As  As2  1  0.79196000  0.29158200  0.33312600  1
  As  As3  1  0.29158200  0.79196000  0.33312600  1
loop_
_geom_bond_atom_site_label_1
_geom_bond_atom_site_label_2
_geom_bond_distance
_geom_bond_site_symmetry_2
Nb0 Te1 2.754435 1_555
Nb0 Te7 2.821147 1_554
Nb0 Te6 2.821147 1_554
Nb0 Te5 2.951592 1_555
Nb1 Te0 2.767232 1_555
Nb1 Te7 2.830086 1_544
Nb1 Te6 2.830086 1_454
Nb1 Te4 2.973067 1_555
Nb2 Te3 2.753502 1_555
Nb2 Te8 2.827917 1_555
Nb2 Te9 2.827917 1_555
Nb2 Te1 2.947269 1_555
Nb3 Te2 2.770276 1_555
Nb3 Te8 2.825998 1_655
Nb3 Te9 2.825998 1_565
Nb3 Te0 2.975481 1_665
Nb4 Te5 2.765701 1_555
Nb4 Te11 2.832238 1_555
Nb4 Te10 2.832238 1_555
Nb4 Te3 2.969375 1_555
Nb5 Te4 2.754645 1_555
Nb5 Te10 2.824120 1_455
Nb5 Te11 2.824120 1_545
Nb5 Te2 2.948038 1_445
Nb6 Te7 2.769985 1_555
Nb6 Te1 2.818297 1_556
Nb6 Te0 2.826965 1_566
Nb6 Te11 2.982894 1_555
Nb7 Te6 2.769985 1_555
Nb7 Te1 2.818297 1_556
Nb7 Te0 2.826965 1_656
Nb7 Te10 2.982894 1_555
Nb8 Te9 2.770706 1_555
Nb8 Te3 2.817711 1_555
Nb8 Te2 2.829840 1_545
Nb8 Te7 2.982418 1_545
Nb9 Te8 2.770706 1_555
Nb9 Te3 2.817711 1_555
Nb9 Te2 2.829840 1_455
Nb9 Te6 2.982418 1_455
Nb10 Te11 2.769522 1_555
Nb10 Te4 2.819535 1_565
Nb10 Te5 2.829164 1_555
Nb10 Te9 2.978705 1_565
Nb11 Te10 2.769522 1_555
Nb11 Te4 2.819535 1_655
Nb11 Te5 2.829164 1_555
Nb11 Te8 2.978705 1_655
Te1 Tl0 3.288957 1_554
Te3 Tl0 3.281721 1_555
Te4 Tl0 3.284578 1_554
As0 Nb6 2.677369 1_545
As0 Nb7 2.677369 1_455
As0 Nb9 2.680740 1_555
As0 Nb8 2.680740 1_555
As0 Nb10 2.681612 1_545
As0 Nb11 2.681612 1_455
As1 Nb10 2.680380 1_555
As1 Nb11 2.680380 1_555
As1 Nb6 2.681698 1_555
As1 Nb7 2.681698 1_555
As1 Nb8 2.681731 1_565
As1 Nb9 2.681731 1_655
As2 Nb1 2.680327 1_655
As2 Nb4 2.682429 1_555
As2 Nb2 2.683278 1_555
As2 Nb0 2.684377 1_555
As2 Nb5 2.684385 1_655
As2 Nb3 2.684675 1_545
As3 Nb1 2.680327 1_565
As3 Nb4 2.682429 1_555
As3 Nb2 2.683278 1_555
As3 Nb0 2.684377 1_555
As3 Nb5 2.684385 1_565
As3 Nb3 2.684675 1_455
