# generated using pymatgen
data_Fe7(SiO4)4
_symmetry_space_group_name_H-M   'P 1'
_cell_length_a   4.90031900
_cell_length_b   10.40467300
_cell_length_c   12.04363103
_cell_angle_alpha   89.12107348
_cell_angle_beta   90.00000000
_cell_angle_gamma   90.00000000
_symmetry_Int_Tables_number   1
_chemical_formula_structural   Fe7(SiO4)4
_chemical_formula_sum   'Fe14 Si8 O32'
_cell_volume   613.98693364
_cell_formula_units_Z   2
loop_
 _symmetry_equiv_pos_site_id
 _symmetry_equiv_pos_as_xyz
  1  'x, y, z'
loop_
 _atom_site_type_symbol
 _atom_site_label
 _atom_site_symmetry_multiplicity
 _atom_site_fract_x
 _atom_site_fract_y
 _atom_site_fract_z
 _atom_site_occupancy
  Fe  Fe0  1  0.50000000  0.50000000  0.50000000  1
  Fe  Fe1  1  0.00000000  0.00000000  0.50000000  1
  Fe  Fe2  1  0.00260300  0.00643400  0.23374400  1
  Fe  Fe3  1  0.99739700  0.99356600  0.76625600  1
  Fe  Fe4  1  0.50260300  0.49356600  0.76625600  1
  Fe  Fe5  1  0.49739700  0.50643400  0.23374400  1
  Fe  Fe6  1  0.51426400  0.77894200  0.37239100  1
  Fe  Fe7  1  0.48573600  0.22105800  0.62760900  1
  Fe  Fe8  1  0.01426400  0.72105800  0.62760900  1
  Fe  Fe9  1  0.98573600  0.27894200  0.37239100  1
  Fe  Fe10  1  0.00522900  0.72903600  0.11883300  1
  Fe  Fe11  1  0.99477100  0.27096400  0.88116700  1
  Fe  Fe12  1  0.50522900  0.77096400  0.88116700  1
  Fe  Fe13  1  0.49477100  0.22903600  0.11883300  1
  Si  Si0  1  0.07129300  0.59708000  0.37012700  1
  Si  Si1  1  0.92870700  0.40292000  0.62987300  1
  Si  Si2  1  0.57129300  0.90292000  0.62987300  1
  Si  Si3  1  0.42870700  0.09708000  0.37012700  1
  Si  Si4  1  0.56449900  0.90482000  0.11916600  1
  Si  Si5  1  0.43550100  0.09518000  0.88083400  1
  Si  Si6  1  0.06449900  0.59518000  0.88083400  1
  Si  Si7  1  0.93550100  0.40482000  0.11916600  1
  O  O0  1  0.73657100  0.59391700  0.37074200  1
  O  O1  1  0.26342900  0.40608300  0.62925800  1
  O  O2  1  0.23657100  0.90608300  0.62925800  1
  O  O3  1  0.76342900  0.09391700  0.37074200  1
  O  O4  1  0.26537200  0.39331600  0.12774900  1
  O  O5  1  0.73462800  0.60668400  0.87225100  1
  O  O6  1  0.76537200  0.10668400  0.87225100  1
  O  O7  1  0.23462800  0.89331600  0.12774900  1
  O  O8  1  0.67267600  0.05448200  0.12547800  1
  O  O9  1  0.32732400  0.94551800  0.87452200  1
  O  O10  1  0.17267600  0.44551800  0.87452200  1
  O  O11  1  0.82732400  0.55448200  0.12547800  1
  O  O12  1  0.28743300  0.95207800  0.37045000  1
  O  O13  1  0.71256700  0.04792200  0.62955000  1
  O  O14  1  0.78743300  0.54792200  0.62955000  1
  O  O15  1  0.21256700  0.45207800  0.37045000  1
  O  O16  1  0.79623200  0.32232500  0.01741200  1
  O  O17  1  0.20376800  0.67767500  0.98258800  1
  O  O18  1  0.29623200  0.17767500  0.98258800  1
  O  O19  1  0.70376800  0.82232500  0.01741200  1
  O  O20  1  0.21178900  0.66710300  0.47853600  1
  O  O21  1  0.78821100  0.33289700  0.52146400  1
  O  O22  1  0.71178900  0.83289700  0.52146400  1
  O  O23  1  0.28821100  0.16710300  0.47853600  1
  O  O24  1  0.73149100  0.83218400  0.22474300  1
  O  O25  1  0.26850900  0.16781600  0.77525700  1
  O  O26  1  0.23149100  0.66781600  0.77525700  1
  O  O27  1  0.76850900  0.33218400  0.22474300  1
  O  O28  1  0.28981600  0.16968800  0.25952600  1
  O  O29  1  0.71018400  0.83031200  0.74047400  1
  O  O30  1  0.78981600  0.33031200  0.74047400  1
  O  O31  1  0.21018400  0.66968800  0.25952600  1
loop_
_geom_bond_atom_site_label_1
_geom_bond_atom_site_label_2
_geom_bond_distance
_geom_bond_site_symmetry_2
Fe0 O0 2.162301 1_555
Fe0 O1 2.162301 1_555
Fe0 O15 2.165821 1_555
Fe0 O14 2.165821 1_555
Fe0 O20 2.251802 1_555
Fe0 O21 2.251802 1_555
Fe1 O2 2.162301 1_545
Fe1 O3 2.162301 1_455
Fe1 O12 2.165821 1_545
Fe1 O13 2.165821 1_455
Fe1 O22 2.251802 1_445
Fe1 O23 2.251802 1_555
Fe2 O7 2.086552 1_545
Fe2 O8 2.131665 1_455
Fe2 O12 2.224900 1_545
Fe2 O3 2.229483 1_455
Fe2 O28 2.231306 1_555
Fe2 O24 2.251623 1_445
Fe3 O6 2.086552 1_565
Fe3 O9 2.131665 1_655
Fe3 O13 2.224900 1_565
Fe3 O2 2.229483 1_655
Fe3 O29 2.231306 1_555
Fe3 O25 2.251623 1_665
Fe4 O5 2.086552 1_555
Fe4 O10 2.131665 1_555
Fe4 O14 2.224900 1_555
Fe4 O1 2.229483 1_555
Fe4 O30 2.231306 1_555
Fe4 O26 2.251623 1_555
Fe5 O4 2.086552 1_555
Fe5 O11 2.131665 1_555
Fe5 O15 2.224900 1_555
Fe5 O0 2.229483 1_555
Fe5 O31 2.231306 1_555
Fe5 O27 2.251623 1_555
Fe6 O12 2.116580 1_555
Fe6 O22 2.122820 1_555
Fe6 O24 2.138185 1_555
Fe6 O0 2.212331 1_555
Fe6 O20 2.267082 1_555
Fe6 O31 2.325443 1_555
Fe7 O13 2.116580 1_555
Fe7 O23 2.122820 1_555
Fe7 O25 2.138185 1_555
Fe7 O1 2.212331 1_555
Fe7 O21 2.267082 1_555
Fe7 O30 2.325443 1_555
Fe8 O14 2.116580 1_455
Fe8 O20 2.122820 1_555
Fe8 O26 2.138185 1_555
Fe8 O2 2.212331 1_555
Fe8 O22 2.267082 1_455
Fe8 O29 2.325443 1_455
Fe9 O15 2.116580 1_655
Fe9 O21 2.122820 1_555
Fe9 O27 2.138185 1_555
Fe9 O3 2.212331 1_555
Fe9 O23 2.267082 1_655
Fe9 O28 2.325443 1_655
Fe10 O17 1.987844 1_554
Fe10 O11 2.015060 1_455
Fe10 O7 2.049991 1_555
Fe10 O31 2.056474 1_555
Fe10 O19 2.140108 1_455
Fe10 O24 2.149458 1_455
Fe11 O16 1.987844 1_556
Fe11 O10 2.015060 1_655
Fe11 O6 2.049991 1_555
Fe11 O30 2.056474 1_555
Fe11 O18 2.140108 1_655
Fe11 O25 2.149458 1_655
Fe12 O19 1.987844 1_556
Fe12 O9 2.015060 1_555
Fe12 O5 2.049991 1_555
Fe12 O29 2.056474 1_555
Fe12 O17 2.140108 1_555
Fe12 O26 2.149458 1_555
Fe13 O18 1.987844 1_554
Fe13 O8 2.015060 1_555
Fe13 O4 2.049991 1_555
Fe13 O28 2.056474 1_555
Fe13 O16 2.140108 1_555
Fe13 O27 2.149458 1_555
O0 Si0 1.640589 1_655
O1 Si1 1.640589 1_455
O2 Si2 1.640589 1_555
O3 Si3 1.640589 1_555
O4 Si7 1.624075 1_455
O5 Si6 1.624075 1_655
O6 Si5 1.624075 1_555
O7 Si4 1.624075 1_555
O8 Si4 1.647799 1_545
O9 Si5 1.647799 1_565
O10 Si6 1.647799 1_555
O11 Si7 1.647799 1_555
O12 Si3 1.659900 1_565
O13 Si2 1.659900 1_545
O14 Si1 1.659900 1_555
O15 Si0 1.659900 1_555
O16 Si7 1.654262 1_555
O17 Si6 1.654262 1_555
O18 Si5 1.654262 1_555
O19 Si4 1.654262 1_555
O20 Si0 1.654896 1_555
O21 Si1 1.654896 1_555
O22 Si2 1.654896 1_555
O23 Si3 1.654896 1_555
O24 Si4 1.681699 1_555
O25 Si5 1.681699 1_555
O26 Si6 1.681699 1_555
O27 Si7 1.681699 1_555
O28 Si3 1.666555 1_555
O29 Si2 1.666555 1_555
O30 Si1 1.666555 1_555
O31 Si0 1.666555 1_555
