# generated using pymatgen
data_Nd5Ge3C
_symmetry_space_group_name_H-M   'P 1'
_cell_length_a   8.84878559
_cell_length_b   8.84878559
_cell_length_c   6.76137700
_cell_angle_alpha   90.00000000
_cell_angle_beta   90.00000000
_cell_angle_gamma   119.99999697
_symmetry_Int_Tables_number   1
_chemical_formula_structural   Nd5Ge3C
_chemical_formula_sum   'Nd10 Ge6 C2'
_cell_volume   458.49345606
_cell_formula_units_Z   2
loop_
 _symmetry_equiv_pos_site_id
 _symmetry_equiv_pos_as_xyz
  1  'x, y, z'
loop_
 _atom_site_type_symbol
 _atom_site_label
 _atom_site_symmetry_multiplicity
 _atom_site_fract_x
 _atom_site_fract_y
 _atom_site_fract_z
 _atom_site_occupancy
  Nd  Nd0  1  0.66666700  0.33333300  0.00000000  1
  Nd  Nd1  1  0.33333300  0.66666700  0.00000000  1
  Nd  Nd2  1  0.33333300  0.66666700  0.50000000  1
  Nd  Nd3  1  0.66666700  0.33333300  0.50000000  1
  Nd  Nd4  1  0.77767400  0.77767400  0.75000000  1
  Nd  Nd5  1  0.22232600  0.00000000  0.75000000  1
  Nd  Nd6  1  0.00000000  0.22232600  0.75000000  1
  Nd  Nd7  1  0.22232600  0.22232600  0.25000000  1
  Nd  Nd8  1  0.77767400  0.00000000  0.25000000  1
  Nd  Nd9  1  0.00000000  0.77767400  0.25000000  1
  Ge  Ge0  1  0.40904500  0.40904500  0.75000000  1
  Ge  Ge1  1  0.59095500  0.00000000  0.75000000  1
  Ge  Ge2  1  0.00000000  0.59095500  0.75000000  1
  Ge  Ge3  1  0.59095500  0.59095500  0.25000000  1
  Ge  Ge4  1  0.40904500  0.00000000  0.25000000  1
  Ge  Ge5  1  0.00000000  0.40904500  0.25000000  1
  C  C0  1  0.00000000  0.00000000  0.00000000  1
  C  C1  1  0.00000000  0.00000000  0.50000000  1
loop_
_geom_bond_atom_site_label_1
_geom_bond_atom_site_label_2
_geom_bond_distance
_geom_bond_site_symmetry_2
Ge0 Nd5 3.138580 1_555
Ge0 Nd6 3.138580 1_555
Ge0 Nd1 3.167040 1_556
Ge0 Nd2 3.167040 1_555
Ge0 Nd3 3.167040 1_555
Ge0 Nd0 3.167040 1_556
Ge0 Nd4 3.261919 1_555
Ge0 Nd7 3.762837 1_556
Ge0 Nd7 3.762837 1_555
Ge1 Nd4 3.138580 1_545
Ge1 Nd6 3.138580 1_655
Ge1 Nd0 3.167033 1_556
Ge1 Nd3 3.167033 1_555
Ge1 Nd1 3.167035 1_546
Ge1 Nd2 3.167035 1_545
Ge1 Nd5 3.261919 1_555
Ge1 Nd8 3.762837 1_555
Ge1 Nd8 3.762837 1_556
Ge2 Nd4 3.138580 1_455
Ge2 Nd5 3.138580 1_565
Ge2 Nd2 3.167033 1_555
Ge2 Nd1 3.167033 1_556
Ge2 Nd0 3.167035 1_456
Ge2 Nd3 3.167035 1_455
Ge2 Nd6 3.261919 1_555
Ge2 Nd9 3.762837 1_556
Ge2 Nd9 3.762837 1_555
Ge3 Nd9 3.138580 1_655
Ge3 Nd8 3.138580 1_565
Ge3 Nd1 3.167040 1_555
Ge3 Nd2 3.167040 1_555
Ge3 Nd0 3.167040 1_555
Ge3 Nd3 3.167040 1_555
Ge3 Nd7 3.261919 1_555
Ge3 Nd4 3.762837 1_555
Ge3 Nd4 3.762837 1_554
Ge4 Nd7 3.138580 1_555
Ge4 Nd9 3.138580 1_545
Ge4 Nd2 3.167033 1_545
Ge4 Nd1 3.167033 1_545
Ge4 Nd3 3.167035 1_555
Ge4 Nd0 3.167035 1_555
Ge4 Nd8 3.261919 1_555
Ge4 Nd5 3.762837 1_554
Ge4 Nd5 3.762837 1_555
Ge5 Nd7 3.138580 1_555
Ge5 Nd8 3.138580 1_455
Ge5 Nd0 3.167033 1_455
Ge5 Nd3 3.167033 1_455
Ge5 Nd1 3.167035 1_555
Ge5 Nd2 3.167035 1_555
Ge5 Nd9 3.261919 1_555
Ge5 Nd6 3.762837 1_554
Ge5 Nd6 3.762837 1_555
C0 Nd9 2.593760 1_545
C0 Nd5 2.593760 1_554
C0 Nd8 2.593760 1_455
C0 Nd6 2.593760 1_554
C0 Nd7 2.593760 1_555
C0 Nd4 2.593760 1_444
C1 Nd9 2.593760 1_545
C1 Nd6 2.593760 1_555
C1 Nd8 2.593760 1_455
C1 Nd5 2.593760 1_555
C1 Nd7 2.593760 1_555
C1 Nd4 2.593760 1_445
