# generated using pymatgen
data_Sr2UMn
_symmetry_space_group_name_H-M   'P 1'
_cell_length_a   5.77793497
_cell_length_b   5.77793497
_cell_length_c   5.77793497
_cell_angle_alpha   60.00000000
_cell_angle_beta   60.00000000
_cell_angle_gamma   60.00000000
_symmetry_Int_Tables_number   1
_chemical_formula_structural   Sr2UMn
_chemical_formula_sum   'Sr2 U1 Mn1'
_cell_volume   136.39641369
_cell_formula_units_Z   1
loop_
 _symmetry_equiv_pos_site_id
 _symmetry_equiv_pos_as_xyz
  1  'x, y, z'
loop_
 _atom_site_type_symbol
 _atom_site_label
 _atom_site_symmetry_multiplicity
 _atom_site_fract_x
 _atom_site_fract_y
 _atom_site_fract_z
 _atom_site_occupancy
  Sr  Sr0  1  0.75000000  0.75000000  0.75000000  1
  Sr  Sr1  1  0.25000000  0.25000000  0.25000000  1
  U  U0  1  0.00000000  0.00000000  0.00000000  1
  Mn  Mn0  1  0.50000000  0.50000000  0.50000000  1
loop_
_geom_bond_atom_site_label_1
_geom_bond_atom_site_label_2
_geom_bond_distance
_geom_bond_site_symmetry_2
Sr0 U0 3.538248 1_656
Sr0 U0 3.538248 1_665
Sr0 U0 3.538248 1_666
Sr0 U0 3.538248 1_566
Sr1 U0 3.538248 1_555
Sr1 U0 3.538248 1_565
Sr1 U0 3.538248 1_556
Sr1 U0 3.538248 1_655
Mn0 Sr1 3.538248 1_565
Mn0 Sr1 3.538248 1_555
Mn0 Sr0 3.538248 1_545
Mn0 Sr1 3.538248 1_556
Mn0 Sr0 3.538248 1_555
Mn0 Sr0 3.538248 1_554
Mn0 Sr0 3.538248 1_455
Mn0 Sr1 3.538248 1_655
