# generated using pymatgen
data_Ca5Co3(SiO4)4
_symmetry_space_group_name_H-M   'P 1'
_cell_length_a   4.94164700
_cell_length_b   6.53799277
_cell_length_c   11.26970958
_cell_angle_alpha   88.43114781
_cell_angle_beta   89.26196856
_cell_angle_gamma   88.97961910
_symmetry_Int_Tables_number   1
_chemical_formula_structural   Ca5Co3(SiO4)4
_chemical_formula_sum   'Ca5 Co3 Si4 O16'
_cell_volume   363.88469369
_cell_formula_units_Z   1
loop_
 _symmetry_equiv_pos_site_id
 _symmetry_equiv_pos_as_xyz
  1  'x, y, z'
loop_
 _atom_site_type_symbol
 _atom_site_label
 _atom_site_symmetry_multiplicity
 _atom_site_fract_x
 _atom_site_fract_y
 _atom_site_fract_z
 _atom_site_occupancy
  Ca  Ca0  1  0.50000000  0.00000000  0.50000000  1
  Ca  Ca1  1  0.48094400  0.25349200  0.77994600  1
  Ca  Ca2  1  0.02060100  0.25330700  0.27398000  1
  Ca  Ca3  1  0.51905600  0.74650800  0.22005400  1
  Ca  Ca4  1  0.97939900  0.74669300  0.72602000  1
  Co  Co0  1  0.00000000  0.50000000  0.00000000  1
  Co  Co1  1  0.50000000  0.50000000  0.50000000  1
  Co  Co2  1  0.00000000  0.00000000  0.00000000  1
  Si  Si0  1  0.91877200  0.26606300  0.58772700  1
  Si  Si1  1  0.58906300  0.25114000  0.08218100  1
  Si  Si2  1  0.08122800  0.73393700  0.41227300  1
  Si  Si3  1  0.41093700  0.74886000  0.91781900  1
  O  O0  1  0.24931500  0.26701100  0.58652900  1
  O  O1  1  0.25581900  0.25337000  0.07894600  1
  O  O2  1  0.75068500  0.73298900  0.41347100  1
  O  O3  1  0.74418100  0.74663000  0.92105400  1
  O  O4  1  0.79842900  0.05822400  0.65661700  1
  O  O5  1  0.71926600  0.45071000  0.14700400  1
  O  O6  1  0.23323300  0.53808400  0.34753500  1
  O  O7  1  0.27757300  0.95428300  0.84989600  1
  O  O8  1  0.20157100  0.94177600  0.34338300  1
  O  O9  1  0.28073400  0.54929000  0.85299600  1
  O  O10  1  0.76676700  0.46191600  0.65246500  1
  O  O11  1  0.72242700  0.04571700  0.15010400  1
  O  O12  1  0.74641300  0.25167900  0.94969300  1
  O  O13  1  0.78243400  0.26924300  0.45247700  1
  O  O14  1  0.25358700  0.74832100  0.05030700  1
  O  O15  1  0.21756600  0.73075700  0.54752300  1
loop_
_geom_bond_atom_site_label_1
_geom_bond_atom_site_label_2
_geom_bond_distance
_geom_bond_site_symmetry_2
Ca0 O13 2.313027 1_555
Ca0 O15 2.313027 1_545
Ca0 O2 2.349073 1_545
Ca0 O0 2.349073 1_555
Ca0 O4 2.357733 1_555
Ca0 O8 2.357733 1_545
Ca1 O9 2.322651 1_555
Ca1 O7 2.328827 1_545
Ca1 O12 2.333136 1_555
Ca1 O10 2.413497 1_555
Ca1 O4 2.448004 1_555
Ca1 O0 2.473749 1_555
Ca2 O13 2.321363 1_455
Ca2 O8 2.329363 1_545
Ca2 O6 2.331183 1_555
Ca2 O5 2.411663 1_455
Ca2 O1 2.473124 1_555
Ca2 O11 2.487987 1_455
Ca3 O5 2.322651 1_555
Ca3 O11 2.328827 1_565
Ca3 O14 2.333136 1_555
Ca3 O6 2.413497 1_555
Ca3 O8 2.448004 1_555
Ca3 O2 2.473749 1_555
Ca4 O15 2.321363 1_655
Ca4 O4 2.329363 1_565
Ca4 O10 2.331183 1_555
Ca4 O9 2.411663 1_655
Ca4 O3 2.473124 1_555
Ca4 O7 2.487987 1_655
Co0 O14 2.160732 1_555
Co0 O12 2.160732 1_454
Co0 O9 2.168071 1_554
Co0 O5 2.168071 1_455
Co0 O1 2.206252 1_555
Co0 O3 2.206252 1_454
Co1 O15 2.112088 1_555
Co1 O13 2.112088 1_555
Co1 O2 2.181899 1_555
Co1 O0 2.181899 1_555
Co1 O10 2.185269 1_555
Co1 O6 2.185269 1_555
Co2 O12 2.119705 1_454
Co2 O14 2.119705 1_545
Co2 O7 2.187631 1_544
Co2 O11 2.187631 1_455
Co2 O1 2.306087 1_555
Co2 O3 2.306087 1_444
O0 Si0 1.633429 1_455
O1 Si1 1.647443 1_555
O2 Si2 1.633429 1_655
O3 Si3 1.647443 1_555
O4 Si0 1.661928 1_555
O5 Si1 1.656606 1_555
O6 Si2 1.654975 1_555
O7 Si3 1.658087 1_555
O8 Si2 1.661928 1_555
O9 Si3 1.656606 1_555
O10 Si0 1.654975 1_555
O11 Si1 1.658087 1_555
O12 Si1 1.674478 1_556
O13 Si0 1.673871 1_555
O14 Si3 1.674478 1_554
O15 Si2 1.673871 1_555
