# generated using pymatgen
data_Li7Mn2(CoO4)3
_symmetry_space_group_name_H-M   'P 1'
_cell_length_a   6.58212432
_cell_length_b   6.58212432
_cell_length_c   5.04913516
_cell_angle_alpha   82.65892032
_cell_angle_beta   82.65892032
_cell_angle_gamma   83.69457979
_symmetry_Int_Tables_number   1
_chemical_formula_structural   Li7Mn2(CoO4)3
_chemical_formula_sum   'Li7 Mn2 Co3 O12'
_cell_volume   214.20479332
_cell_formula_units_Z   1
loop_
 _symmetry_equiv_pos_site_id
 _symmetry_equiv_pos_as_xyz
  1  'x, y, z'
loop_
 _atom_site_type_symbol
 _atom_site_label
 _atom_site_symmetry_multiplicity
 _atom_site_fract_x
 _atom_site_fract_y
 _atom_site_fract_z
 _atom_site_occupancy
  Li  Li0  1  0.24295800  0.24492600  0.75843300  1
  Li  Li1  1  0.58839200  0.91465700  0.75354900  1
  Li  Li2  1  0.08534300  0.41160800  0.24645100  1
  Li  Li3  1  0.42124600  0.08376600  0.25174800  1
  Li  Li4  1  0.91623400  0.57875400  0.74825200  1
  Li  Li5  1  0.75507400  0.75704200  0.24156700  1
  Li  Li6  1  0.83534300  0.16465700  0.00000000  1
  Mn  Mn0  1  0.99869400  0.00130600  0.50000000  1
  Mn  Mn1  1  0.50391500  0.49608500  0.00000000  1
  Co  Co0  1  0.33484700  0.66515300  0.50000000  1
  Co  Co1  1  0.67620400  0.32379600  0.50000000  1
  Co  Co2  1  0.15806000  0.84194000  0.00000000  1
  O  O0  1  0.27759700  0.94704600  0.62283300  1
  O  O1  1  0.61125800  0.61051400  0.64860700  1
  O  O2  1  0.12178300  0.10432900  0.15015000  1
  O  O3  1  0.44553300  0.76845900  0.12373800  1
  O  O4  1  0.95923300  0.26992100  0.61022100  1
  O  O5  1  0.76473300  0.45608900  0.14104100  1
  O  O6  1  0.23154100  0.55446700  0.87626200  1
  O  O7  1  0.54391100  0.23526700  0.85895900  1
  O  O8  1  0.05295400  0.72240300  0.37716700  1
  O  O9  1  0.38948600  0.38874200  0.35139300  1
  O  O10  1  0.89567100  0.87821700  0.84985000  1
  O  O11  1  0.73007900  0.04076700  0.38977900  1
loop_
_geom_bond_atom_site_label_1
_geom_bond_atom_site_label_2
_geom_bond_distance
_geom_bond_site_symmetry_2
Li0 O4 2.081557 1_455
Li0 O7 2.099216 1_555
Li0 O0 2.137754 1_545
Li0 O2 2.166942 1_556
Li0 O6 2.185281 1_555
Li0 O9 2.290621 1_555
Li1 O11 2.067608 1_565
Li1 O1 2.120272 1_555
Li1 O10 2.121230 1_555
Li1 O3 2.143321 1_556
Li1 O0 2.208888 1_555
Li1 O7 2.221221 1_565
Li2 O4 2.067608 1_455
Li2 O9 2.120272 1_555
Li2 O2 2.121230 1_555
Li2 O6 2.143321 1_554
Li2 O8 2.208888 1_555
Li2 O5 2.221221 1_455
Li3 O2 2.085370 1_555
Li3 O9 2.113170 1_555
Li3 O0 2.125491 1_545
Li3 O7 2.200409 1_554
Li3 O11 2.209812 1_555
Li3 O3 2.234742 1_545
Li4 O10 2.085370 1_555
Li4 O1 2.113170 1_555
Li4 O8 2.125491 1_655
Li4 O5 2.200409 1_556
Li4 O4 2.209812 1_555
Li4 O6 2.234742 1_655
Li5 O11 2.081557 1_565
Li5 O5 2.099216 1_555
Li5 O8 2.137754 1_655
Li5 O10 2.166942 1_554
Li5 O3 2.185281 1_555
Li5 O1 2.290621 1_555
Li6 O4 2.093742 1_554
Li6 O11 2.093742 1_555
Li6 O2 2.100239 1_655
Li6 O10 2.100239 1_544
Li6 O5 2.114587 1_555
Li6 O7 2.114587 1_554
Mn0 O4 1.901801 1_555
Mn0 O11 1.901801 1_555
Mn0 O2 1.919735 1_655
Mn0 O10 1.919735 1_545
Mn0 O8 1.993140 1_645
Mn0 O0 1.993140 1_645
Mn1 O9 1.915575 1_555
Mn1 O1 1.915575 1_554
Mn1 O5 1.920642 1_555
Mn1 O7 1.920642 1_554
Mn1 O6 1.955938 1_554
Mn1 O3 1.955938 1_555
Co0 O3 2.006829 1_555
Co0 O6 2.006829 1_555
Co0 O0 2.012494 1_555
Co0 O8 2.012494 1_555
Co0 O1 2.034364 1_555
Co0 O9 2.034364 1_555
Co1 O7 1.954724 1_555
Co1 O5 1.954724 1_555
Co1 O11 1.993837 1_555
Co1 O4 1.993837 1_555
Co1 O9 2.100004 1_555
Co1 O1 2.100004 1_555
Co2 O2 1.952518 1_565
Co2 O10 1.952518 1_454
Co2 O0 2.030829 1_554
Co2 O8 2.030829 1_555
Co2 O3 2.056328 1_555
Co2 O6 2.056328 1_554
