# generated using pymatgen
data_PrCo3P2
_symmetry_space_group_name_H-M   'P 1'
_cell_length_a   3.77457900
_cell_length_b   10.68067100
_cell_length_c   12.40973300
_cell_angle_alpha   90.00000000
_cell_angle_beta   90.00000000
_cell_angle_gamma   90.00000000
_symmetry_Int_Tables_number   1
_chemical_formula_structural   PrCo3P2
_chemical_formula_sum   'Pr6 Co18 P12'
_cell_volume   500.29883839
_cell_formula_units_Z   6
loop_
 _symmetry_equiv_pos_site_id
 _symmetry_equiv_pos_as_xyz
  1  'x, y, z'
loop_
 _atom_site_type_symbol
 _atom_site_label
 _atom_site_symmetry_multiplicity
 _atom_site_fract_x
 _atom_site_fract_y
 _atom_site_fract_z
 _atom_site_occupancy
  Pr  Pr0  1  0.00000000  0.50000000  0.52176800  1
  Pr  Pr1  1  0.50000000  0.00000000  0.47823200  1
  Pr  Pr2  1  0.50000000  0.81598000  0.20602800  1
  Pr  Pr3  1  0.50000000  0.18402000  0.20602800  1
  Pr  Pr4  1  0.00000000  0.68402000  0.79397200  1
  Pr  Pr5  1  0.00000000  0.31598000  0.79397200  1
  Co  Co0  1  0.50000000  0.50000000  0.15783700  1
  Co  Co1  1  0.00000000  0.00000000  0.84216300  1
  Co  Co2  1  0.50000000  0.50000000  0.70544800  1
  Co  Co3  1  0.00000000  0.00000000  0.29455200  1
  Co  Co4  1  0.00000000  0.50000000  0.98705100  1
  Co  Co5  1  0.50000000  0.00000000  0.01294900  1
  Co  Co6  1  0.50000000  0.33348500  0.99640700  1
  Co  Co7  1  0.50000000  0.66651500  0.99640700  1
  Co  Co8  1  0.00000000  0.16651500  0.00359300  1
  Co  Co9  1  0.00000000  0.83348500  0.00359300  1
  Co  Co10  1  0.50000000  0.29681500  0.43058100  1
  Co  Co11  1  0.50000000  0.70318500  0.43058100  1
  Co  Co12  1  0.00000000  0.20318500  0.56941900  1
  Co  Co13  1  0.00000000  0.79681500  0.56941900  1
  Co  Co14  1  0.50000000  0.88242100  0.71016700  1
  Co  Co15  1  0.50000000  0.11757900  0.71016700  1
  Co  Co16  1  0.00000000  0.61757900  0.28983300  1
  Co  Co17  1  0.00000000  0.38242100  0.28983300  1
  P  P0  1  0.50000000  0.50000000  0.88705000  1
  P  P1  1  0.00000000  0.00000000  0.11295000  1
  P  P2  1  0.50000000  0.50000000  0.33878800  1
  P  P3  1  0.00000000  0.00000000  0.66121200  1
  P  P4  1  0.50000000  0.30468200  0.61393700  1
  P  P5  1  0.50000000  0.69531800  0.61393700  1
  P  P6  1  0.00000000  0.19531800  0.38606300  1
  P  P7  1  0.00000000  0.80468200  0.38606300  1
  P  P8  1  0.50000000  0.84928700  0.89598500  1
  P  P9  1  0.50000000  0.15071300  0.89598500  1
  P  P10  1  0.00000000  0.65071300  0.10401500  1
  P  P11  1  0.00000000  0.34928700  0.10401500  1
loop_
_geom_bond_atom_site_label_1
_geom_bond_atom_site_label_2
_geom_bond_distance
_geom_bond_site_symmetry_2
Co0 P2 2.245554 1_555
Co0 P10 2.568883 1_655
Co0 P10 2.568883 1_555
Co0 P11 2.568883 1_555
Co0 P11 2.568883 1_655
Co1 P3 2.245554 1_555
Co1 P9 2.568883 1_455
Co1 P9 2.568883 1_555
Co1 P8 2.568883 1_545
Co1 P8 2.568883 1_445
Co2 P0 2.253632 1_555
Co2 P4 2.375200 1_555
Co2 P5 2.375200 1_555
Co2 Pr5 2.937978 1_555
Co2 Pr5 2.937978 1_655
Co2 Pr4 2.937978 1_655
Co2 Pr4 2.937978 1_555
Co2 Pr0 2.959327 1_555
Co2 Pr0 2.959327 1_655
Co3 P1 2.253632 1_555
Co3 P6 2.375200 1_555
Co3 P7 2.375200 1_545
Co3 Pr2 2.937978 1_445
Co3 Pr2 2.937978 1_545
Co3 Pr3 2.937978 1_455
Co3 Pr3 2.937978 1_555
Co3 Pr1 2.959327 1_555
Co3 Pr1 2.959327 1_455
Co4 P10 2.167490 1_556
Co4 P11 2.167490 1_556
Co4 P0 2.258740 1_455
Co4 P0 2.258740 1_555
Co4 Pr5 3.099051 1_555
Co4 Pr4 3.099051 1_555
Co5 P9 2.167490 1_554
Co5 P8 2.167490 1_544
Co5 P1 2.258740 1_655
Co5 P1 2.258740 1_555
Co5 Pr2 3.099051 1_545
Co5 Pr3 3.099051 1_555
Co6 P0 2.237125 1_555
Co6 P9 2.315997 1_555
Co6 P11 2.318104 1_656
Co6 P11 2.318104 1_556
Co6 Pr3 3.052118 1_556
Co6 Pr5 3.147664 1_555
Co6 Pr5 3.147664 1_655
Co7 P0 2.237125 1_555
Co7 P8 2.315997 1_555
Co7 P10 2.318104 1_656
Co7 P10 2.318104 1_556
Co7 Pr2 3.052118 1_556
Co7 Pr4 3.147664 1_555
Co7 Pr4 3.147664 1_655
Co8 P1 2.237125 1_555
Co8 P11 2.315997 1_555
Co8 P9 2.318104 1_454
Co8 P9 2.318104 1_554
Co8 Pr5 3.052118 1_554
Co8 Pr3 3.147664 1_455
Co8 Pr3 3.147664 1_555
Co9 P1 2.237125 1_565
Co9 P10 2.315997 1_555
Co9 P8 2.318104 1_554
Co9 P8 2.318104 1_454
Co9 Pr4 3.052118 1_554
Co9 Pr2 3.147664 1_555
Co9 Pr2 3.147664 1_455
Co10 P6 2.245495 1_655
Co10 P6 2.245495 1_555
Co10 P4 2.276950 1_555
Co10 P2 2.450953 1_555
Co10 Pr3 3.035909 1_555
Co10 Pr0 3.090624 1_555
Co10 Pr0 3.090624 1_655
Co10 Pr1 3.224863 1_555
Co11 P7 2.245495 1_655
Co11 P7 2.245495 1_555
Co11 P5 2.276950 1_555
Co11 P2 2.450953 1_555
Co11 Pr2 3.035909 1_555
Co11 Pr0 3.090624 1_555
Co11 Pr0 3.090624 1_655
Co11 Pr1 3.224863 1_565
Co12 P4 2.245495 1_555
Co12 P4 2.245495 1_455
Co12 P6 2.276950 1_555
Co12 P3 2.450953 1_555
Co12 Pr5 3.035909 1_555
Co12 Pr1 3.090624 1_455
Co12 Pr1 3.090624 1_555
Co12 Pr0 3.224863 1_555
Co13 P5 2.245495 1_555
Co13 P5 2.245495 1_455
Co13 P7 2.276950 1_555
Co13 P3 2.450953 1_565
Co13 Pr4 3.035909 1_555
Co13 Pr1 3.090624 1_565
Co13 Pr1 3.090624 1_465
Co13 Pr0 3.224863 1_555
Co14 P5 2.328010 1_555
Co14 P8 2.332950 1_555
Co14 P3 2.346919 1_665
Co14 P3 2.346919 1_565
Co14 Pr4 3.022227 1_555
Co14 Pr4 3.022227 1_655
Co14 Pr1 3.140290 1_565
Co15 P4 2.328010 1_555
Co15 P9 2.332950 1_555
Co15 P3 2.346919 1_555
Co15 P3 2.346919 1_655
Co15 Pr5 3.022227 1_655
Co15 Pr5 3.022227 1_555
Co15 Pr1 3.140290 1_555
Co16 P7 2.328010 1_555
Co16 P10 2.332950 1_555
Co16 P2 2.346919 1_555
Co16 P2 2.346919 1_455
Co16 Pr2 3.022227 1_555
Co16 Pr2 3.022227 1_455
Co16 Pr0 3.140290 1_555
Co17 P6 2.328010 1_555
Co17 P11 2.332950 1_555
Co17 P2 2.346919 1_555
Co17 P2 2.346919 1_455
Co17 Pr3 3.022227 1_455
Co17 Pr3 3.022227 1_555
Co17 Pr0 3.140290 1_555
P0 Pr5 2.959574 1_555
P0 Pr5 2.959574 1_655
P0 Pr4 2.959574 1_555
P0 Pr4 2.959574 1_655
P1 Pr2 2.959574 1_545
P1 Pr2 2.959574 1_445
P1 Pr3 2.959574 1_455
P1 Pr3 2.959574 1_555
P2 Pr0 2.952641 1_555
P2 Pr0 2.952641 1_655
P3 Pr1 2.952641 1_455
P3 Pr1 2.952641 1_555
P4 Pr5 2.927117 1_555
P4 Pr5 2.927117 1_655
P4 Pr0 3.036783 1_655
P4 Pr0 3.036783 1_555
P5 Pr4 2.927117 1_555
P5 Pr4 2.927117 1_655
P5 Pr0 3.036783 1_655
P5 Pr0 3.036783 1_555
P6 Pr3 2.927117 1_455
P6 Pr3 2.927117 1_555
P6 Pr1 3.036783 1_555
P6 Pr1 3.036783 1_455
P7 Pr2 2.927117 1_555
P7 Pr2 2.927117 1_455
P7 Pr1 3.036783 1_565
P7 Pr1 3.036783 1_465
P8 Pr4 2.877551 1_555
P8 Pr4 2.877551 1_655
P9 Pr5 2.877551 1_655
P9 Pr5 2.877551 1_555
P10 Pr2 2.877551 1_555
P10 Pr2 2.877551 1_455
P11 Pr3 2.877551 1_455
P11 Pr3 2.877551 1_555
