# generated using pymatgen
data_YbGd3F12
_symmetry_space_group_name_H-M   'P 1'
_cell_length_a   7.01728000
_cell_length_b   4.43428200
_cell_length_c   6.57608901
_cell_angle_alpha   89.99693311
_cell_angle_beta   90.00000000
_cell_angle_gamma   90.00000000
_symmetry_Int_Tables_number   1
_chemical_formula_structural   YbGd3F12
_chemical_formula_sum   'Yb1 Gd3 F12'
_cell_volume   204.62552041
_cell_formula_units_Z   1
loop_
 _symmetry_equiv_pos_site_id
 _symmetry_equiv_pos_as_xyz
  1  'x, y, z'
loop_
 _atom_site_type_symbol
 _atom_site_label
 _atom_site_symmetry_multiplicity
 _atom_site_fract_x
 _atom_site_fract_y
 _atom_site_fract_z
 _atom_site_occupancy
  Yb  Yb0  1  0.00000000  0.93669800  0.13220700  1
  Gd  Gd0  1  0.00000000  0.56511600  0.63186400  1
  Gd  Gd1  1  0.50000000  0.06163200  0.86927200  1
  Gd  Gd2  1  0.50000000  0.43668000  0.36689600  1
  F  F0  1  0.00000000  0.08314600  0.47996800  1
  F  F1  1  0.00000000  0.41546400  0.97770900  1
  F  F2  1  0.50000000  0.91612300  0.52092800  1
  F  F3  1  0.50000000  0.58388800  0.02065700  1
  F  F4  1  0.18661500  0.61675700  0.33547400  1
  F  F5  1  0.81370500  0.88321800  0.83502600  1
  F  F6  1  0.68573000  0.38366700  0.66496200  1
  F  F7  1  0.31411100  0.11698500  0.16478700  1
  F  F8  1  0.31427000  0.38366700  0.66496200  1
  F  F9  1  0.68588900  0.11698500  0.16478700  1
  F  F10  1  0.81338500  0.61675700  0.33547400  1
  F  F11  1  0.18629500  0.88321800  0.83502600  1
loop_
_geom_bond_atom_site_label_1
_geom_bond_atom_site_label_2
_geom_bond_distance
_geom_bond_site_symmetry_2
F0 Gd0 2.359148 1_555
F0 Yb0 2.377354 1_545
F0 Gd0 2.504825 1_545
F1 Yb0 2.353523 1_546
F1 Gd0 2.369109 1_555
F1 Yb0 2.524796 1_556
F2 Gd2 2.355009 1_555
F2 Gd1 2.379910 1_565
F2 Gd2 2.520715 1_565
F3 Gd1 2.340657 1_564
F3 Gd2 2.368587 1_555
F3 Gd1 2.520789 1_554
F4 Yb0 2.348227 1_555
F4 Gd2 2.348699 1_555
F4 Gd0 2.359279 1_555
F5 Gd0 2.341748 1_655
F5 Gd1 2.350022 1_565
F5 Yb0 2.363160 1_656
F6 Gd1 2.354306 1_555
F6 Gd0 2.357577 1_655
F6 Gd2 2.365561 1_555
F7 Gd2 2.340484 1_555
F7 Gd1 2.353379 1_554
F7 Yb0 2.354474 1_545
F8 Gd1 2.354306 1_555
F8 Gd0 2.357577 1_555
F8 Gd2 2.365561 1_555
F9 Gd2 2.340484 1_555
F9 Gd1 2.353379 1_554
F9 Yb0 2.354474 1_645
F10 Yb0 2.348227 1_655
F10 Gd2 2.348699 1_555
F10 Gd0 2.359279 1_655
F11 Gd0 2.341748 1_555
F11 Gd1 2.350022 1_565
F11 Yb0 2.363160 1_556
