# generated using pymatgen
data_Zr9Re4B
_symmetry_space_group_name_H-M   'P 1'
_cell_length_a   8.49006751
_cell_length_b   8.49006751
_cell_length_c   8.71870300
_cell_angle_alpha   90.00000000
_cell_angle_beta   90.00000000
_cell_angle_gamma   119.99999617
_symmetry_Int_Tables_number   1
_chemical_formula_structural   Zr9Re4B
_chemical_formula_sum   'Zr18 Re8 B2'
_cell_volume   544.25799737
_cell_formula_units_Z   2
loop_
 _symmetry_equiv_pos_site_id
 _symmetry_equiv_pos_as_xyz
  1  'x, y, z'
loop_
 _atom_site_type_symbol
 _atom_site_label
 _atom_site_symmetry_multiplicity
 _atom_site_fract_x
 _atom_site_fract_y
 _atom_site_fract_z
 _atom_site_occupancy
  Zr  Zr0  1  0.20161900  0.79838100  0.44634300  1
  Zr  Zr1  1  0.20161900  0.40323800  0.44634300  1
  Zr  Zr2  1  0.59676200  0.79838100  0.44634300  1
  Zr  Zr3  1  0.79838100  0.20161900  0.55365700  1
  Zr  Zr4  1  0.79838100  0.59676200  0.55365700  1
  Zr  Zr5  1  0.40323800  0.20161900  0.55365700  1
  Zr  Zr6  1  0.79838100  0.20161900  0.94634300  1
  Zr  Zr7  1  0.79838100  0.59676200  0.94634300  1
  Zr  Zr8  1  0.40323800  0.20161900  0.94634300  1
  Zr  Zr9  1  0.20161900  0.79838100  0.05365700  1
  Zr  Zr10  1  0.20161900  0.40323800  0.05365700  1
  Zr  Zr11  1  0.59676200  0.79838100  0.05365700  1
  Zr  Zr12  1  0.53892400  0.46107600  0.25000000  1
  Zr  Zr13  1  0.53892400  0.07784900  0.25000000  1
  Zr  Zr14  1  0.92215100  0.46107600  0.25000000  1
  Zr  Zr15  1  0.46107600  0.53892400  0.75000000  1
  Zr  Zr16  1  0.46107600  0.92215100  0.75000000  1
  Zr  Zr17  1  0.07784900  0.53892400  0.75000000  1
  Re  Re0  1  0.89238800  0.10761200  0.25000000  1
  Re  Re1  1  0.89238800  0.78477500  0.25000000  1
  Re  Re2  1  0.21522500  0.10761200  0.25000000  1
  Re  Re3  1  0.10761200  0.89238800  0.75000000  1
  Re  Re4  1  0.10761200  0.21522500  0.75000000  1
  Re  Re5  1  0.78477500  0.89238800  0.75000000  1
  Re  Re6  1  0.00000000  0.00000000  0.50000000  1
  Re  Re7  1  0.00000000  0.00000000  0.00000000  1
  B  B0  1  0.33333300  0.66666700  0.25000000  1
  B  B1  1  0.66666700  0.33333300  0.75000000  1
loop_
_geom_bond_atom_site_label_1
_geom_bond_atom_site_label_2
_geom_bond_distance
_geom_bond_site_symmetry_2
Re0 Re6 2.693541 1_655
Re0 Re7 2.693541 1_655
Re0 Re1 2.740908 1_545
Re0 Re2 2.740908 1_655
Re0 Zr13 2.882906 1_555
Re0 Zr14 2.882906 1_555
Re0 Zr3 2.986678 1_555
Re0 Zr6 2.986678 1_554
Re0 Zr2 3.087592 1_545
Re0 Zr1 3.087592 1_655
Re0 Zr11 3.087592 1_545
Re0 Zr10 3.087592 1_655
Re1 Re6 2.693545 1_665
Re1 Re7 2.693545 1_665
Re1 Re2 2.740908 1_665
Re1 Zr14 2.882889 1_555
Re1 Zr12 2.882899 1_555
Re1 Zr4 2.986675 1_555
Re1 Zr7 2.986675 1_554
Re1 Zr0 3.087589 1_655
Re1 Zr9 3.087589 1_655
Re1 Zr2 3.087596 1_555
Re1 Zr11 3.087596 1_555
Re2 Re6 2.693545 1_555
Re2 Re7 2.693545 1_555
Re2 Zr13 2.882889 1_555
Re2 Zr12 2.882899 1_555
Re2 Zr5 2.986675 1_555
Re2 Zr8 2.986675 1_554
Re2 Zr0 3.087589 1_545
Re2 Zr9 3.087589 1_545
Re2 Zr1 3.087596 1_555
Re2 Zr10 3.087596 1_555
Re3 Re6 2.693541 1_565
Re3 Re7 2.693541 1_566
Re3 Re5 2.740908 1_455
Re3 Re4 2.740908 1_565
Re3 Zr17 2.882906 1_555
Re3 Zr16 2.882906 1_555
Re3 Zr9 2.986678 1_556
Re3 Zr0 2.986678 1_555
Re3 Zr7 3.087592 1_455
Re3 Zr8 3.087592 1_565
Re3 Zr4 3.087592 1_455
Re3 Zr5 3.087592 1_565
Re4 Re6 2.693545 1_555
Re4 Re7 2.693545 1_556
Re4 Re5 2.740908 1_445
Re4 Zr17 2.882889 1_555
Re4 Zr15 2.882899 1_555
Re4 Zr10 2.986675 1_556
Re4 Zr1 2.986675 1_555
Re4 Zr6 3.087589 1_455
Re4 Zr3 3.087589 1_455
Re4 Zr8 3.087596 1_555
Re4 Zr5 3.087596 1_555
Re5 Re7 2.693545 1_666
Re5 Re6 2.693545 1_665
Re5 Zr16 2.882889 1_555
Re5 Zr15 2.882899 1_555
Re5 Zr11 2.986675 1_556
Re5 Zr2 2.986675 1_555
Re5 Zr6 3.087589 1_565
Re5 Zr3 3.087589 1_565
Re5 Zr7 3.087596 1_555
Re5 Zr4 3.087596 1_555
Re6 Zr0 3.001535 1_545
Re6 Zr3 3.001535 1_455
Re6 Zr4 3.001535 1_445
Re6 Zr5 3.001535 1_555
Re6 Zr1 3.001535 1_555
Re6 Zr2 3.001535 1_445
Re7 Zr9 3.001535 1_545
Re7 Zr6 3.001535 1_454
Re7 Zr11 3.001535 1_445
Re7 Zr10 3.001535 1_555
Re7 Zr8 3.001535 1_554
Re7 Zr7 3.001535 1_444
B0 Zr0 2.584951 1_555
B0 Zr9 2.584951 1_555
B0 Zr2 2.584957 1_555
B0 Zr1 2.584957 1_555
B0 Zr10 2.584957 1_555
B0 Zr11 2.584957 1_555
B0 Zr12 3.023263 1_555
B0 Zr13 3.023263 1_565
B0 Zr14 3.023263 1_455
B1 Zr6 2.584951 1_555
B1 Zr3 2.584951 1_555
B1 Zr8 2.584957 1_555
B1 Zr7 2.584957 1_555
B1 Zr5 2.584957 1_555
B1 Zr4 2.584957 1_555
B1 Zr15 3.023263 1_555
B1 Zr17 3.023263 1_655
B1 Zr16 3.023263 1_545
