# generated using pymatgen
data_Mg7Si4
_symmetry_space_group_name_H-M   'P 1'
_cell_length_a   4.88621400
_cell_length_b   6.04142572
_cell_length_c   15.02004602
_cell_angle_alpha   79.35397638
_cell_angle_beta   85.98787592
_cell_angle_gamma   87.44077548
_symmetry_Int_Tables_number   1
_chemical_formula_structural   Mg7Si4
_chemical_formula_sum   'Mg14 Si8'
_cell_volume   434.45974046
_cell_formula_units_Z   2
loop_
 _symmetry_equiv_pos_site_id
 _symmetry_equiv_pos_as_xyz
  1  'x, y, z'
loop_
 _atom_site_type_symbol
 _atom_site_label
 _atom_site_symmetry_multiplicity
 _atom_site_fract_x
 _atom_site_fract_y
 _atom_site_fract_z
 _atom_site_occupancy
  Mg  Mg0  1  0.50923800  0.95024700  0.88441200  1
  Mg  Mg1  1  0.15125000  0.63622900  0.64373400  1
  Mg  Mg2  1  0.73811700  0.51426300  0.50938400  1
  Mg  Mg3  1  0.62900800  0.26870200  0.69896600  1
  Mg  Mg4  1  0.48618200  0.46929600  0.86484800  1
  Mg  Mg5  1  0.75152400  0.65333100  0.30054900  1
  Mg  Mg6  1  0.79362500  0.14280100  0.33285800  1
  Mg  Mg7  1  0.71090300  0.99715600  0.54232900  1
  Mg  Mg8  1  0.97573400  0.63378900  0.97383500  1
  Mg  Mg9  1  0.96832500  0.12994500  0.97960000  1
  Mg  Mg10  1  0.43378000  0.29741000  0.07432100  1
  Mg  Mg11  1  0.47181100  0.78742800  0.10075100  1
  Mg  Mg12  1  0.26175600  0.30973200  0.43086200  1
  Mg  Mg13  1  0.24913400  0.80818200  0.43132700  1
  Si  Si0  1  0.90386900  0.02499800  0.16171000  1
  Si  Si1  1  0.09198000  0.22992100  0.79242300  1
  Si  Si2  1  0.61343100  0.79392700  0.71847500  1
  Si  Si3  1  0.31759800  0.41469600  0.24609900  1
  Si  Si4  1  0.89736000  0.43858100  0.15075300  1
  Si  Si5  1  0.05512000  0.82769900  0.79157800  1
  Si  Si6  1  0.16079100  0.16155500  0.62081300  1
  Si  Si7  1  0.32942400  0.00652000  0.25399600  1
loop_
_geom_bond_atom_site_label_1
_geom_bond_atom_site_label_2
_geom_bond_distance
_geom_bond_site_symmetry_2
Mg0 Si2 2.830587 1_555
Mg0 Si1 2.853880 1_565
Mg0 Si5 2.894323 1_555
Mg0 Si5 3.048198 1_655
Mg1 Si5 2.691558 1_555
Mg1 Si2 2.865311 1_555
Mg1 Si6 2.948736 1_555
Mg1 Si2 2.971961 1_455
Mg1 Si1 3.007403 1_555
Mg1 Si6 3.130566 1_565
Mg1 Mg2 3.153136 1_455
Mg2 Mg3 2.981760 1_555
Mg2 Mg7 3.043531 1_555
Mg2 Mg7 3.078803 1_545
Mg2 Mg5 3.090562 1_555
Mg2 Si6 3.221813 1_655
Mg3 Si1 2.723659 1_655
Mg3 Si6 2.796401 1_555
Mg3 Si2 2.832796 1_545
Mg3 Si6 2.872700 1_655
Mg3 Si1 2.885974 1_555
Mg3 Si2 3.237148 1_555
Mg4 Si2 2.718645 1_555
Mg4 Si1 2.847467 1_555
Mg4 Si5 3.061453 1_555
Mg5 Si4 2.832822 1_555
Mg5 Si0 2.854232 1_565
Mg5 Si3 2.862536 1_555
Mg5 Si7 2.924584 1_565
Mg5 Si3 3.187611 1_655
Mg6 Si0 2.802302 1_555
Mg6 Si7 2.851083 1_555
Mg6 Si7 2.944300 1_655
Mg6 Si4 3.002080 1_555
Mg6 Si3 3.016382 1_555
Mg6 Si3 3.173174 1_655
Mg7 Si2 2.722098 1_555
Mg7 Si6 2.863320 1_665
Mg7 Si6 3.058109 1_565
Mg8 Si4 2.709029 1_556
Mg8 Si5 2.779188 1_655
Mg9 Si0 2.690643 1_556
Mg9 Si1 2.793092 1_655
Mg10 Si3 2.813527 1_555
Mg10 Si4 2.841551 1_555
Mg10 Si4 2.942169 1_455
Mg10 Si7 2.960856 1_555
Mg10 Si0 2.998926 1_555
Mg11 Si7 2.890230 1_565
Mg11 Si0 2.895135 1_565
Mg11 Si3 2.917114 1_555
Mg11 Si4 2.927744 1_555
Mg12 Si3 2.727141 1_555
Mg12 Si6 2.843164 1_555
Mg12 Mg2 3.049293 1_455
Mg12 Mg2 3.084645 1_555
Mg13 Si7 2.720400 1_565
Mg13 Mg2 3.078990 1_555
Mg13 Mg2 3.159025 1_455
Si0 Si4 2.472439 1_555
Si0 Si7 2.565732 1_655
Si1 Si5 2.447094 1_545
Si1 Si6 2.680912 1_555
Si2 Si5 2.521652 1_655
Si2 Si5 2.881543 1_555
Si3 Si7 2.445108 1_555
Si3 Si4 2.568416 1_455
