# generated using pymatgen
data_RbBaMg6
_symmetry_space_group_name_H-M   'P 1'
_cell_length_a   5.49579400
_cell_length_b   7.40593100
_cell_length_c   12.64290600
_cell_angle_alpha   90.00000000
_cell_angle_beta   90.00000000
_cell_angle_gamma   90.00000000
_symmetry_Int_Tables_number   1
_chemical_formula_structural   RbBaMg6
_chemical_formula_sum   'Rb2 Ba2 Mg12'
_cell_volume   514.58487386
_cell_formula_units_Z   2
loop_
 _symmetry_equiv_pos_site_id
 _symmetry_equiv_pos_as_xyz
  1  'x, y, z'
loop_
 _atom_site_type_symbol
 _atom_site_label
 _atom_site_symmetry_multiplicity
 _atom_site_fract_x
 _atom_site_fract_y
 _atom_site_fract_z
 _atom_site_occupancy
  Rb  Rb0  1  0.00000000  0.50000000  0.34285200  1
  Rb  Rb1  1  0.00000000  0.00000000  0.84285200  1
  Ba  Ba0  1  0.50000000  0.50000000  0.16140900  1
  Ba  Ba1  1  0.50000000  0.00000000  0.66140900  1
  Mg  Mg0  1  0.00000000  0.77508700  0.08292400  1
  Mg  Mg1  1  0.00000000  0.22491300  0.08292400  1
  Mg  Mg2  1  0.00000000  0.50000000  0.83119300  1
  Mg  Mg3  1  0.50000000  0.71660300  0.91715300  1
  Mg  Mg4  1  0.50000000  0.28339700  0.91715300  1
  Mg  Mg5  1  0.50000000  0.50000000  0.66439200  1
  Mg  Mg6  1  0.00000000  0.27508700  0.58292400  1
  Mg  Mg7  1  0.00000000  0.72491300  0.58292400  1
  Mg  Mg8  1  0.00000000  0.00000000  0.33119300  1
  Mg  Mg9  1  0.50000000  0.21660300  0.41715300  1
  Mg  Mg10  1  0.50000000  0.78339700  0.41715300  1
  Mg  Mg11  1  0.50000000  0.00000000  0.16439200  1
loop_
_geom_bond_atom_site_label_1
_geom_bond_atom_site_label_2
_geom_bond_distance
_geom_bond_site_symmetry_2
Ba0 Mg3 3.479897 1_554
Ba0 Mg4 3.479897 1_554
Ba0 Mg0 3.561748 1_555
Ba0 Mg1 3.561748 1_655
Ba0 Mg0 3.561748 1_655
Ba0 Mg1 3.561748 1_555
Ba0 Rb0 3.579556 1_655
Ba0 Rb0 3.579556 1_555
Ba0 Mg11 3.703158 1_565
Ba0 Mg11 3.703158 1_555
Ba0 Mg10 3.854812 1_555
Ba0 Mg9 3.854812 1_555
Ba1 Mg9 3.479897 1_555
Ba1 Mg10 3.479897 1_545
Ba1 Mg6 3.561748 1_555
Ba1 Mg6 3.561748 1_655
Ba1 Mg7 3.561748 1_545
Ba1 Mg7 3.561748 1_645
Ba1 Rb1 3.579556 1_655
Ba1 Rb1 3.579556 1_555
Ba1 Mg5 3.703158 1_545
Ba1 Mg5 3.703158 1_555
Ba1 Mg4 3.854812 1_555
Ba1 Mg3 3.854812 1_545
Mg0 Mg1 3.331380 1_565
Mg0 Mg11 3.374366 1_565
Mg0 Mg11 3.374366 1_465
Mg0 Rb1 3.462226 1_564
Mg0 Mg3 3.482963 1_454
Mg0 Mg3 3.482963 1_554
Mg0 Mg8 3.553428 1_565
Mg0 Rb0 3.866510 1_555
Mg1 Mg11 3.374366 1_455
Mg1 Mg11 3.374366 1_555
Mg1 Rb1 3.462226 1_554
Mg1 Mg4 3.482963 1_554
Mg1 Mg4 3.482963 1_454
Mg1 Mg8 3.553428 1_555
Mg1 Rb0 3.866510 1_555
Mg2 Mg3 3.362339 1_455
Mg2 Mg4 3.362339 1_455
Mg2 Mg3 3.362339 1_555
Mg2 Mg4 3.362339 1_555
Mg2 Mg5 3.463839 1_455
Mg2 Mg5 3.463839 1_555
Mg2 Mg7 3.553428 1_555
Mg2 Mg6 3.553428 1_555
Mg2 Rb1 3.705898 1_555
Mg2 Rb1 3.705898 1_565
Mg3 Mg4 3.208294 1_555
Mg3 Mg5 3.575662 1_555
Mg3 Rb1 3.583073 1_565
Mg3 Rb1 3.583073 1_665
Mg4 Mg5 3.575662 1_555
Mg4 Rb1 3.583073 1_655
Mg4 Rb1 3.583073 1_555
Mg5 Mg7 3.374366 1_655
Mg5 Mg7 3.374366 1_555
Mg5 Mg6 3.374366 1_655
Mg5 Mg6 3.374366 1_555
Mg6 Mg7 3.331380 1_555
Mg6 Rb0 3.462226 1_555
Mg6 Mg9 3.482963 1_455
Mg6 Mg9 3.482963 1_555
Mg6 Rb1 3.866510 1_555
Mg7 Rb0 3.462226 1_555
Mg7 Rb1 3.866510 1_565
Mg8 Mg9 3.362339 1_555
Mg8 Mg9 3.362339 1_455
Mg8 Rb0 3.705898 1_555
Mg8 Rb0 3.705898 1_545
Mg9 Rb0 3.583073 1_555
Mg9 Rb0 3.583073 1_655
Mg10 Mg9 3.208294 1_565
Mg10 Mg8 3.362339 1_565
Mg10 Mg8 3.362339 1_665
Mg10 Mg7 3.482963 1_555
Mg10 Mg7 3.482963 1_655
Mg10 Mg11 3.575662 1_565
Mg10 Rb0 3.583073 1_555
Mg10 Rb0 3.583073 1_655
Mg11 Mg8 3.463839 1_655
Mg11 Mg8 3.463839 1_555
Mg11 Mg9 3.575662 1_555
