# generated using pymatgen
data_NaFe2O3
_symmetry_space_group_name_H-M   'P 1'
_cell_length_a   3.11221230
_cell_length_b   3.11221230
_cell_length_c   7.84704200
_cell_angle_alpha   90.00000000
_cell_angle_beta   90.00000000
_cell_angle_gamma   120.00000637
_symmetry_Int_Tables_number   1
_chemical_formula_structural   NaFe2O3
_chemical_formula_sum   'Na1 Fe2 O3'
_cell_volume   65.82259658
_cell_formula_units_Z   1
loop_
 _symmetry_equiv_pos_site_id
 _symmetry_equiv_pos_as_xyz
  1  'x, y, z'
loop_
 _atom_site_type_symbol
 _atom_site_label
 _atom_site_symmetry_multiplicity
 _atom_site_fract_x
 _atom_site_fract_y
 _atom_site_fract_z
 _atom_site_occupancy
  Na  Na0  1  0.00000000  0.00000000  0.50000000  1
  Fe  Fe0  1  0.66666700  0.33333300  0.83337200  1
  Fe  Fe1  1  0.33333300  0.66666700  0.16662800  1
  O  O0  1  0.00000000  0.00000000  0.00000000  1
  O  O1  1  0.66666700  0.33333300  0.29280200  1
  O  O2  1  0.33333300  0.66666700  0.70719800  1
loop_
_geom_bond_atom_site_label_1
_geom_bond_atom_site_label_2
_geom_bond_distance
_geom_bond_site_symmetry_2
Na0 O1 2.423250 1_455
Na0 O2 2.423250 1_545
Na0 O2 2.423251 1_445
Na0 O1 2.423251 1_555
Na0 O1 2.423251 1_445
Na0 O2 2.423251 1_555
Fe0 O2 2.051560 1_545
Fe0 O2 2.051560 1_655
Fe0 O2 2.051565 1_555
Fe0 O0 2.222221 1_656
Fe0 O0 2.222224 1_556
Fe0 O0 2.222224 1_666
Fe1 O1 2.051560 1_455
Fe1 O1 2.051560 1_565
Fe1 O1 2.051565 1_555
Fe1 O0 2.222221 1_565
Fe1 O0 2.222224 1_665
Fe1 O0 2.222224 1_555
