# generated using pymatgen
data_K4Ge2B8H2O19
_symmetry_space_group_name_H-M   'P 1'
_cell_length_a   6.89255800
_cell_length_b   7.05369366
_cell_length_c   20.66456099
_cell_angle_alpha   91.93044980
_cell_angle_beta   90.00000000
_cell_angle_gamma   119.24715537
_symmetry_Int_Tables_number   1
_chemical_formula_structural   K4Ge2B8H2O19
_chemical_formula_sum   'K8 Ge4 B16 H4 O38'
_cell_volume   875.94091442
_cell_formula_units_Z   2
loop_
 _symmetry_equiv_pos_site_id
 _symmetry_equiv_pos_as_xyz
  1  'x, y, z'
loop_
 _atom_site_type_symbol
 _atom_site_label
 _atom_site_symmetry_multiplicity
 _atom_site_fract_x
 _atom_site_fract_y
 _atom_site_fract_z
 _atom_site_occupancy
  K  K0  1  0.02847400  0.71877300  0.20264400  1
  K  K1  1  0.30970100  0.28122700  0.29735600  1
  K  K2  1  0.97152600  0.28122700  0.79735600  1
  K  K3  1  0.69029900  0.71877300  0.70264400  1
  K  K4  1  0.27828000  0.73893000  0.01255400  1
  K  K5  1  0.53935000  0.26107000  0.48744600  1
  K  K6  1  0.72172000  0.26107000  0.98744600  1
  K  K7  1  0.46065000  0.73893000  0.51255400  1
  Ge  Ge0  1  0.66356000  0.04161300  0.17550100  1
  Ge  Ge1  1  0.62194600  0.95838700  0.32449900  1
  Ge  Ge2  1  0.33644000  0.95838700  0.82449900  1
  Ge  Ge3  1  0.37805400  0.04161300  0.67550100  1
  B  B0  1  0.51346500  0.58860000  0.14927800  1
  B  B1  1  0.92486500  0.41140000  0.35072200  1
  B  B2  1  0.48653500  0.41140000  0.85072200  1
  B  B3  1  0.07513500  0.58860000  0.64927800  1
  B  B4  1  0.40551600  0.21437200  0.11603400  1
  B  B5  1  0.19114400  0.78562800  0.38396600  1
  B  B6  1  0.59448400  0.78562800  0.88396600  1
  B  B7  1  0.80885600  0.21437200  0.61603400  1
  B  B8  1  0.12040700  0.29802700  0.14653200  1
  B  B9  1  0.82238000  0.70197300  0.35346800  1
  B  B10  1  0.87959300  0.70197300  0.85346800  1
  B  B11  1  0.17762000  0.29802700  0.64653200  1
  B  B12  1  0.16795900  0.24005800  0.03138000  1
  B  B13  1  0.92790100  0.75994200  0.46862000  1
  B  B14  1  0.83204100  0.75994200  0.96862000  1
  B  B15  1  0.07209900  0.24005800  0.53138000  1
  H  H0  1  0.81758200  0.78379900  0.06662300  1
  H  H1  1  0.03378400  0.21620100  0.43337700  1
  H  H2  1  0.18241800  0.21620100  0.93337700  1
  H  H3  1  0.96621600  0.78379900  0.56662300  1
  O  O0  1  0.21322400  0.15429600  0.15670600  1
  O  O1  1  0.05892800  0.84570400  0.34329400  1
  O  O2  1  0.78677600  0.84570400  0.84329400  1
  O  O3  1  0.94107200  0.15429600  0.65670600  1
  O  O4  1  0.93467100  0.25606200  0.18983200  1
  O  O5  1  0.67861000  0.74393800  0.31016800  1
  O  O6  1  0.06532900  0.74393800  0.81016800  1
  O  O7  1  0.32139000  0.25606200  0.68983200  1
  O  O8  1  0.51841300  0.00000000  0.25000000  1
  O  O9  1  0.48158700  0.00000000  0.75000000  1
  O  O10  1  0.68366400  0.80656900  0.14973300  1
  O  O11  1  0.87709600  0.19343100  0.35026700  1
  O  O12  1  0.31633600  0.19343100  0.85026700  1
  O  O13  1  0.12290400  0.80656900  0.64973300  1
  O  O14  1  0.58313500  0.44068600  0.13467700  1
  O  O15  1  0.14244900  0.55931400  0.36532300  1
  O  O16  1  0.41686500  0.55931400  0.86532300  1
  O  O17  1  0.85755100  0.44068600  0.63467700  1
  O  O18  1  0.89696900  0.75421200  0.03206600  1
  O  O19  1  0.14275700  0.24578800  0.46793400  1
  O  O20  1  0.10303100  0.24578800  0.96793400  1
  O  O21  1  0.85724300  0.75421200  0.53206600  1
  O  O22  1  0.49485800  0.06231500  0.11602500  1
  O  O23  1  0.43254300  0.93768500  0.38397500  1
  O  O24  1  0.50514200  0.93768500  0.88397500  1
  O  O25  1  0.56745700  0.06231500  0.61602500  1
  O  O26  1  0.95242300  0.71826900  0.92290600  1
  O  O27  1  0.23415400  0.28173100  0.57709400  1
  O  O28  1  0.04757700  0.28173100  0.07709400  1
  O  O29  1  0.76584600  0.71826900  0.42290600  1
  O  O30  1  0.29664900  0.53446600  0.15991900  1
  O  O31  1  0.76218300  0.46553400  0.34008100  1
  O  O32  1  0.70335100  0.46553400  0.84008100  1
  O  O33  1  0.23781700  0.53446600  0.65991900  1
  O  O34  1  0.65451600  0.78833000  0.95490900  1
  O  O35  1  0.86618600  0.21167000  0.54509100  1
  O  O36  1  0.34548400  0.21167000  0.04509100  1
  O  O37  1  0.13381400  0.78833000  0.45490900  1
loop_
_geom_bond_atom_site_label_1
_geom_bond_atom_site_label_2
_geom_bond_distance
_geom_bond_site_symmetry_2
K0 O30 2.856053 1_555
K0 O0 2.886877 1_565
K0 O10 2.951465 1_455
K0 O1 2.989028 1_555
K0 O4 3.003403 1_455
K0 O14 3.028730 1_455
K0 O8 3.101580 1_565
K1 O31 2.856053 1_555
K1 O1 2.886877 1_545
K1 O11 2.951458 1_455
K1 O0 2.989028 1_555
K1 O5 3.003406 1_555
K1 O15 3.028730 1_555
K1 O8 3.101580 1_555
K2 O32 2.856053 1_555
K2 O2 2.886877 1_545
K2 O12 2.951465 1_655
K2 O3 2.989028 1_555
K2 O6 3.003403 1_655
K2 O16 3.028730 1_655
K2 O9 3.101580 1_555
K3 O33 2.856053 1_555
K3 O3 2.886877 1_565
K3 O13 2.951458 1_655
K3 O2 2.989028 1_555
K3 O7 3.003406 1_555
K3 O17 3.028730 1_555
K3 O9 3.101580 1_565
K4 O18 2.712117 1_455
K4 O34 2.722172 1_554
K4 O26 2.856494 1_454
K4 O22 2.889206 1_565
K4 O24 3.095024 1_554
K4 O28 3.160117 1_555
K4 O20 3.176037 1_554
K4 O36 3.182072 1_565
K5 O19 2.712117 1_555
K5 O35 2.722172 1_555
K5 O27 2.856494 1_555
K5 O23 2.889206 1_545
K5 O25 3.095024 1_555
K5 O29 3.160117 1_555
K5 O21 3.176037 1_555
K5 O37 3.182072 1_545
K6 O20 2.712117 1_655
K6 O36 2.722172 1_556
K6 O28 2.856494 1_656
K6 O24 2.889206 1_545
K6 O22 3.095024 1_556
K6 O26 3.160117 1_555
K6 O18 3.176037 1_556
K6 O34 3.182072 1_545
K7 O21 2.712117 1_555
K7 O37 2.722172 1_555
K7 O29 2.856494 1_555
K7 O25 2.889206 1_565
K7 O23 3.095024 1_555
K7 O27 3.160117 1_555
K7 O19 3.176037 1_555
K7 O35 3.182072 1_565
Ge0 O22 1.749846 1_555
Ge0 O4 1.753695 1_555
Ge0 O8 1.789009 1_555
Ge0 O10 1.793454 1_545
Ge1 O23 1.749841 1_555
Ge1 O5 1.753704 1_555
Ge1 O8 1.789005 1_565
Ge1 O11 1.793461 1_565
Ge2 O24 1.749846 1_555
Ge2 O6 1.753695 1_555
Ge2 O9 1.789009 1_565
Ge2 O12 1.793454 1_565
Ge3 O25 1.749841 1_555
Ge3 O7 1.753704 1_555
Ge3 O9 1.789005 1_555
Ge3 O13 1.793461 1_545
B0 O30 1.369488 1_555
B0 O14 1.370604 1_555
B0 O10 1.405961 1_555
B1 O31 1.369488 1_555
B1 O15 1.370604 1_655
B1 O11 1.405963 1_555
B2 O32 1.369488 1_555
B2 O16 1.370604 1_555
B2 O12 1.405961 1_555
B3 O33 1.369488 1_555
B3 O17 1.370604 1_455
B3 O13 1.405963 1_555
B4 O0 1.455261 1_555
B4 O22 1.474779 1_555
B4 O14 1.498138 1_555
B4 O36 1.520249 1_555
B5 O1 1.455261 1_555
B5 O23 1.474779 1_555
B5 O15 1.498138 1_555
B5 O37 1.520249 1_555
B6 O2 1.455261 1_555
B6 O24 1.474779 1_555
B6 O16 1.498138 1_555
B6 O34 1.520249 1_555
B7 O3 1.455261 1_555
B7 O25 1.474779 1_555
B7 O17 1.498138 1_555
B7 O35 1.520249 1_555
B8 O0 1.459273 1_555
B8 O4 1.474686 1_455
B8 O28 1.502219 1_555
B8 O30 1.524099 1_555
B9 O1 1.459273 1_655
B9 O5 1.474681 1_555
B9 O29 1.502219 1_555
B9 O31 1.524099 1_555
B10 O2 1.459273 1_555
B10 O6 1.474686 1_655
B10 O26 1.502219 1_555
B10 O32 1.524099 1_555
B11 O3 1.459273 1_455
B11 O7 1.474681 1_555
B11 O27 1.502219 1_555
B11 O33 1.524099 1_555
B12 O36 1.364116 1_555
B12 O28 1.373636 1_555
B12 O20 1.393590 1_554
B13 O37 1.364116 1_655
B13 O29 1.373636 1_555
B13 O21 1.393590 1_555
B14 O34 1.364116 1_555
B14 O26 1.373636 1_555
B14 O18 1.393590 1_556
B15 O35 1.364116 1_455
B15 O27 1.373636 1_555
B15 O19 1.393590 1_555
H0 O18 0.976961 1_555
H1 O19 0.976956 1_555
H2 O20 0.976961 1_555
H3 O21 0.976956 1_555
