# generated using pymatgen
data_Li9Mn7O16
_symmetry_space_group_name_H-M   'P 1'
_cell_length_a   5.08577900
_cell_length_b   7.77881951
_cell_length_c   8.00235437
_cell_angle_alpha   99.46289772
_cell_angle_beta   98.54739710
_cell_angle_gamma   104.10989417
_symmetry_Int_Tables_number   1
_chemical_formula_structural   Li9Mn7O16
_chemical_formula_sum   'Li9 Mn7 O16'
_cell_volume   296.90375671
_cell_formula_units_Z   1
loop_
 _symmetry_equiv_pos_site_id
 _symmetry_equiv_pos_as_xyz
  1  'x, y, z'
loop_
 _atom_site_type_symbol
 _atom_site_label
 _atom_site_symmetry_multiplicity
 _atom_site_fract_x
 _atom_site_fract_y
 _atom_site_fract_z
 _atom_site_occupancy
  Li  Li0  1  0.49628800  0.63400300  0.37882800  1
  Li  Li1  1  0.97833400  0.24591500  0.73839000  1
  Li  Li2  1  0.50411700  0.87525200  0.13762200  1
  Li  Li3  1  0.02166600  0.75408500  0.26161000  1
  Li  Li4  1  0.50371200  0.36599700  0.62117200  1
  Li  Li5  1  0.00000000  0.00000000  0.00000000  1
  Li  Li6  1  0.00000000  0.50000000  0.50000000  1
  Li  Li7  1  0.49588300  0.12474800  0.86237800  1
  Li  Li8  1  0.50000000  0.00000000  0.50000000  1
  Mn  Mn0  1  0.99360800  0.87563600  0.61521500  1
  Mn  Mn1  1  0.00639200  0.12436400  0.38478500  1
  Mn  Mn2  1  0.50000000  0.50000000  0.00000000  1
  Mn  Mn3  1  0.49088700  0.75412200  0.73852600  1
  Mn  Mn4  1  0.00653400  0.37358600  0.12895600  1
  Mn  Mn5  1  0.99346600  0.62641400  0.87104400  1
  Mn  Mn6  1  0.50911300  0.24587800  0.26147400  1
  O  O0  1  0.74327700  0.64411100  0.62140100  1
  O  O1  1  0.24940300  0.26644600  0.00354300  1
  O  O2  1  0.78630700  0.88648300  0.39479000  1
  O  O3  1  0.22642200  0.75990700  0.50480200  1
  O  O4  1  0.74280900  0.38628700  0.87495600  1
  O  O5  1  0.24981800  0.01690300  0.25234600  1
  O  O6  1  0.24388900  0.52220300  0.75476300  1
  O  O7  1  0.77773900  0.13087400  0.15488600  1
  O  O8  1  0.25719100  0.61371300  0.12504400  1
  O  O9  1  0.77357800  0.24009300  0.49519800  1
  O  O10  1  0.22226100  0.86912600  0.84511400  1
  O  O11  1  0.75059700  0.73355400  0.99645700  1
  O  O12  1  0.25672300  0.35588900  0.37859900  1
  O  O13  1  0.75018200  0.98309700  0.74765400  1
  O  O14  1  0.75611100  0.47779700  0.24523700  1
  O  O15  1  0.21369300  0.11351700  0.60521000  1
loop_
_geom_bond_atom_site_label_1
_geom_bond_atom_site_label_2
_geom_bond_distance
_geom_bond_site_symmetry_2
Li0 O2 2.120908 1_555
Li0 O0 2.128140 1_555
Li0 O3 2.145028 1_555
Li0 O8 2.166779 1_555
Li0 O12 2.208535 1_555
Li0 O14 2.267389 1_555
Li1 O9 2.054119 1_555
Li1 O15 2.061223 1_655
Li1 O13 2.109573 1_545
Li1 O4 2.110892 1_555
Li1 O6 2.213549 1_655
Li1 O1 2.310839 1_656
Li2 O8 2.091805 1_555
Li2 O7 2.100682 1_565
Li2 O5 2.108256 1_565
Li2 O11 2.178899 1_554
Li2 O2 2.303101 1_555
Li2 O10 2.543386 1_554
Li3 O3 2.054119 1_555
Li3 O2 2.061223 1_455
Li3 O5 2.109573 1_565
Li3 O8 2.110892 1_555
Li3 O14 2.213549 1_455
Li3 O11 2.310839 1_454
Li4 O15 2.120908 1_555
Li4 O12 2.128140 1_555
Li4 O9 2.145028 1_555
Li4 O4 2.166779 1_555
Li4 O0 2.208535 1_555
Li4 O6 2.267389 1_555
Li5 O7 2.100721 1_455
Li5 O10 2.100721 1_544
Li5 O1 2.143288 1_555
Li5 O11 2.143288 1_444
Li5 O5 2.185847 1_555
Li5 O13 2.185847 1_444
Li6 O9 2.059427 1_455
Li6 O3 2.059427 1_555
Li6 O0 2.153536 1_455
Li6 O12 2.153536 1_555
Li6 O6 2.180078 1_555
Li6 O14 2.180078 1_455
Li7 O4 2.091805 1_555
Li7 O10 2.100682 1_545
Li7 O13 2.108256 1_545
Li7 O1 2.178899 1_556
Li7 O15 2.303101 1_555
Li7 O7 2.543386 1_556
Li8 O3 2.048892 1_545
Li8 O9 2.048892 1_555
Li8 O15 2.087018 1_555
Li8 O2 2.087018 1_545
Li8 O13 2.231927 1_545
Li8 O5 2.231927 1_555
Mn0 O3 1.887378 1_655
Mn0 O15 1.936199 1_665
Mn0 O2 1.941537 1_555
Mn0 O0 1.948587 1_555
Mn0 O13 1.989457 1_555
Mn0 O10 2.040312 1_655
Mn1 O9 1.887378 1_455
Mn1 O2 1.936199 1_445
Mn1 O15 1.941537 1_555
Mn1 O12 1.948587 1_555
Mn1 O5 1.989457 1_555
Mn1 O7 2.040312 1_455
Mn2 O11 1.955639 1_554
Mn2 O1 1.955639 1_555
Mn2 O4 1.979261 1_554
Mn2 O8 1.979261 1_555
Mn2 O14 2.244772 1_555
Mn2 O6 2.244772 1_554
Mn3 O13 1.923600 1_555
Mn3 O6 1.967270 1_555
Mn3 O0 1.971771 1_555
Mn3 O10 2.021294 1_555
Mn3 O3 2.149107 1_555
Mn3 O11 2.330609 1_555
Mn4 O14 1.937182 1_455
Mn4 O1 1.955207 1_555
Mn4 O8 1.996306 1_555
Mn4 O7 2.022642 1_455
Mn4 O12 2.247027 1_555
Mn4 O4 2.293560 1_454
Mn5 O6 1.937182 1_655
Mn5 O11 1.955207 1_555
Mn5 O4 1.996306 1_555
Mn5 O10 2.022642 1_655
Mn5 O0 2.247027 1_555
Mn5 O8 2.293560 1_656
Mn6 O5 1.923600 1_555
Mn6 O14 1.967270 1_555
Mn6 O12 1.971771 1_555
Mn6 O7 2.021294 1_555
Mn6 O9 2.149107 1_555
Mn6 O1 2.330609 1_555
