# generated using pymatgen
data_CaMn4O6
_symmetry_space_group_name_H-M   'P 1'
_cell_length_a   3.16106503
_cell_length_b   5.40834931
_cell_length_c   15.60855202
_cell_angle_alpha   89.99487844
_cell_angle_beta   90.00170180
_cell_angle_gamma   107.08446579
_symmetry_Int_Tables_number   1
_chemical_formula_structural   CaMn4O6
_chemical_formula_sum   'Ca2 Mn8 O12'
_cell_volume   255.07085419
_cell_formula_units_Z   2
loop_
 _symmetry_equiv_pos_site_id
 _symmetry_equiv_pos_as_xyz
  1  'x, y, z'
loop_
 _atom_site_type_symbol
 _atom_site_label
 _atom_site_symmetry_multiplicity
 _atom_site_fract_x
 _atom_site_fract_y
 _atom_site_fract_z
 _atom_site_occupancy
  Ca  Ca0  1  0.66170200  0.32359200  0.74998100  1
  Ca  Ca1  1  0.33828800  0.67639700  0.25001800  1
  Mn  Mn0  1  0.86295000  0.72590300  0.04304400  1
  Mn  Mn1  1  0.40801700  0.81618500  0.63539400  1
  Mn  Mn2  1  0.13704100  0.27409300  0.95695400  1
  Mn  Mn3  1  0.59198600  0.18382300  0.36460900  1
  Mn  Mn4  1  0.86305900  0.72591500  0.45693200  1
  Mn  Mn5  1  0.13696400  0.27408300  0.54307100  1
  Mn  Mn6  1  0.59189400  0.18380500  0.13538500  1
  Mn  Mn7  1  0.40811800  0.81621700  0.86461100  1
  O  O0  1  0.49999400  0.99999800  0.49999900  1
  O  O1  1  0.50000600  0.00000100  0.00000100  1
  O  O2  1  0.05137400  0.10319300  0.84695400  1
  O  O3  1  0.94862700  0.89680300  0.15304500  1
  O  O4  1  0.94865300  0.89688700  0.34687200  1
  O  O5  1  0.05133500  0.10311200  0.65312900  1
  O  O6  1  0.77789400  0.55619900  0.92639700  1
  O  O7  1  0.22209000  0.44379900  0.07360100  1
  O  O8  1  0.22211800  0.44376200  0.42633100  1
  O  O9  1  0.77788700  0.55623900  0.57367000  1
  O  O10  1  0.32153400  0.64303800  0.75000800  1
  O  O11  1  0.67845800  0.35695500  0.24999300  1
loop_
_geom_bond_atom_site_label_1
_geom_bond_atom_site_label_2
_geom_bond_distance
_geom_bond_site_symmetry_2
Ca0 O10 2.284295 1_655
Ca0 O10 2.287502 1_555
Ca0 O5 2.465393 1_555
Ca0 O2 2.466301 1_555
Ca0 O5 2.467293 1_655
Ca0 O2 2.468078 1_655
Ca1 O11 2.284280 1_455
Ca1 O11 2.287487 1_555
Ca1 O4 2.465422 1_555
Ca1 O3 2.466333 1_555
Ca1 O4 2.467350 1_455
Ca1 O3 2.468079 1_455
Mn0 O3 1.931002 1_555
Mn0 O6 2.021106 1_554
Mn0 O7 2.200693 1_555
Mn0 O7 2.204920 1_655
Mn0 O1 2.224882 1_665
Mn0 O1 2.228067 1_565
Mn1 O10 2.000335 1_555
Mn1 O5 2.183116 1_665
Mn1 O5 2.187255 1_565
Mn1 O9 2.286268 1_455
Mn1 O9 2.288617 1_555
Mn1 O0 2.317061 1_555
Mn2 O2 1.930988 1_555
Mn2 O7 2.021111 1_556
Mn2 O6 2.200682 1_555
Mn2 O6 2.204945 1_455
Mn2 O1 2.224841 1_456
Mn2 O1 2.228107 1_556
Mn3 O11 2.000328 1_555
Mn3 O4 2.183176 1_445
Mn3 O4 2.187266 1_545
Mn3 O8 2.286246 1_655
Mn3 O8 2.288571 1_555
Mn3 O0 2.317015 1_545
Mn4 O4 1.931859 1_555
Mn4 O9 2.022190 1_555
Mn4 O8 2.201171 1_555
Mn4 O8 2.205182 1_655
Mn4 O0 2.224735 1_655
Mn4 O0 2.228486 1_555
Mn5 O5 1.931829 1_555
Mn5 O8 2.022225 1_555
Mn5 O9 2.201130 1_555
Mn5 O9 2.205229 1_455
Mn5 O0 2.224842 1_445
Mn5 O0 2.228440 1_545
Mn6 O11 2.000393 1_555
Mn6 O3 2.183009 1_445
Mn6 O3 2.187529 1_545
Mn6 O7 2.286844 1_655
Mn6 O7 2.288931 1_555
Mn6 O1 2.317032 1_555
Mn7 O10 2.000390 1_555
Mn7 O2 2.182917 1_665
Mn7 O2 2.187428 1_565
Mn7 O6 2.286965 1_455
Mn7 O6 2.288982 1_555
Mn7 O1 2.317075 1_566
