# generated using pymatgen
data_LaMg30BO32
_symmetry_space_group_name_H-M   'P 1'
_cell_length_a   8.64475200
_cell_length_b   8.64475200
_cell_length_c   8.65007200
_cell_angle_alpha   90.00000000
_cell_angle_beta   90.00000000
_cell_angle_gamma   90.00000000
_symmetry_Int_Tables_number   1
_chemical_formula_structural   LaMg30BO32
_chemical_formula_sum   'La1 Mg30 B1 O32'
_cell_volume   646.43490696
_cell_formula_units_Z   1
loop_
 _symmetry_equiv_pos_site_id
 _symmetry_equiv_pos_as_xyz
  1  'x, y, z'
loop_
 _atom_site_type_symbol
 _atom_site_label
 _atom_site_symmetry_multiplicity
 _atom_site_fract_x
 _atom_site_fract_y
 _atom_site_fract_z
 _atom_site_occupancy
  La  La0  1  0.00000000  0.00000000  0.00000000  1
  Mg  Mg0  1  0.00000000  0.50000000  0.00000000  1
  Mg  Mg1  1  0.00000000  0.50000000  0.50000000  1
  Mg  Mg2  1  0.50000000  0.00000000  0.00000000  1
  Mg  Mg3  1  0.50000000  0.00000000  0.50000000  1
  Mg  Mg4  1  0.50000000  0.50000000  0.00000000  1
  Mg  Mg5  1  0.50000000  0.50000000  0.50000000  1
  Mg  Mg6  1  0.00000000  0.25625300  0.26173000  1
  Mg  Mg7  1  0.00000000  0.25625300  0.73827000  1
  Mg  Mg8  1  0.00000000  0.74374700  0.26173000  1
  Mg  Mg9  1  0.00000000  0.74374700  0.73827000  1
  Mg  Mg10  1  0.50000000  0.25028500  0.25218100  1
  Mg  Mg11  1  0.50000000  0.25028500  0.74781900  1
  Mg  Mg12  1  0.50000000  0.74971500  0.25218100  1
  Mg  Mg13  1  0.50000000  0.74971500  0.74781900  1
  Mg  Mg14  1  0.25625300  0.00000000  0.26173000  1
  Mg  Mg15  1  0.25625300  0.00000000  0.73827000  1
  Mg  Mg16  1  0.25028500  0.50000000  0.25218100  1
  Mg  Mg17  1  0.25028500  0.50000000  0.74781900  1
  Mg  Mg18  1  0.74374700  0.00000000  0.26173000  1
  Mg  Mg19  1  0.74374700  0.00000000  0.73827000  1
  Mg  Mg20  1  0.74971500  0.50000000  0.25218100  1
  Mg  Mg21  1  0.74971500  0.50000000  0.74781900  1
  Mg  Mg22  1  0.25798500  0.25798500  0.00000000  1
  Mg  Mg23  1  0.24815400  0.24815400  0.50000000  1
  Mg  Mg24  1  0.25798500  0.74201500  0.00000000  1
  Mg  Mg25  1  0.24815400  0.75184600  0.50000000  1
  Mg  Mg26  1  0.74201500  0.25798500  0.00000000  1
  Mg  Mg27  1  0.75184600  0.24815400  0.50000000  1
  Mg  Mg28  1  0.74201500  0.74201500  0.00000000  1
  Mg  Mg29  1  0.75184600  0.75184600  0.50000000  1
  B  B0  1  0.00000000  0.00000000  0.50000000  1
  O  O0  1  0.26868800  0.00000000  0.00000000  1
  O  O1  1  0.26821600  0.00000000  0.50000000  1
  O  O2  1  0.25365100  0.50000000  0.00000000  1
  O  O3  1  0.25289400  0.50000000  0.50000000  1
  O  O4  1  0.73131200  0.00000000  0.00000000  1
  O  O5  1  0.73178400  0.00000000  0.50000000  1
  O  O6  1  0.74634900  0.50000000  0.00000000  1
  O  O7  1  0.74710600  0.50000000  0.50000000  1
  O  O8  1  0.24881800  0.24881800  0.24916600  1
  O  O9  1  0.24881800  0.24881800  0.75083400  1
  O  O10  1  0.24881800  0.75118200  0.24916600  1
  O  O11  1  0.24881800  0.75118200  0.75083400  1
  O  O12  1  0.75118200  0.24881800  0.24916600  1
  O  O13  1  0.75118200  0.24881800  0.75083400  1
  O  O14  1  0.75118200  0.75118200  0.24916600  1
  O  O15  1  0.75118200  0.75118200  0.75083400  1
  O  O16  1  0.00000000  0.00000000  0.26050100  1
  O  O17  1  0.00000000  0.00000000  0.73949900  1
  O  O18  1  0.00000000  0.50000000  0.25006200  1
  O  O19  1  0.00000000  0.50000000  0.74993800  1
  O  O20  1  0.50000000  0.00000000  0.25006200  1
  O  O21  1  0.50000000  0.00000000  0.74993800  1
  O  O22  1  0.50000000  0.50000000  0.24940500  1
  O  O23  1  0.50000000  0.50000000  0.75059500  1
  O  O24  1  0.00000000  0.26868800  0.00000000  1
  O  O25  1  0.00000000  0.26821600  0.50000000  1
  O  O26  1  0.00000000  0.73131200  0.00000000  1
  O  O27  1  0.00000000  0.73178400  0.50000000  1
  O  O28  1  0.50000000  0.25365100  0.00000000  1
  O  O29  1  0.50000000  0.25289400  0.50000000  1
  O  O30  1  0.50000000  0.74634900  0.00000000  1
  O  O31  1  0.50000000  0.74710600  0.50000000  1
loop_
_geom_bond_atom_site_label_1
_geom_bond_atom_site_label_2
_geom_bond_distance
_geom_bond_site_symmetry_2
La0 O16 2.253352 1_555
La0 O17 2.253352 1_554
La0 O24 2.322741 1_555
La0 O0 2.322741 1_555
La0 O26 2.322741 1_545
La0 O4 2.322741 1_455
Mg0 O26 1.999635 1_555
Mg0 O24 1.999635 1_555
Mg0 O18 2.163054 1_555
Mg0 O19 2.163054 1_554
Mg0 O6 2.192750 1_455
Mg0 O2 2.192750 1_555
Mg1 O27 2.003715 1_555
Mg1 O25 2.003715 1_555
Mg1 O18 2.161982 1_555
Mg1 O19 2.161982 1_555
Mg1 O7 2.186206 1_455
Mg1 O3 2.186206 1_555
Mg2 O4 1.999635 1_555
Mg2 O0 1.999635 1_555
Mg2 O20 2.163054 1_555
Mg2 O21 2.163054 1_554
Mg2 O30 2.192750 1_545
Mg2 O28 2.192750 1_555
Mg3 O1 2.003715 1_555
Mg3 O5 2.003715 1_555
Mg3 O21 2.161982 1_555
Mg3 O20 2.161982 1_555
Mg3 O31 2.186206 1_545
Mg3 O29 2.186206 1_555
Mg4 O2 2.129626 1_555
Mg4 O28 2.129626 1_555
Mg4 O6 2.129626 1_555
Mg4 O30 2.129626 1_555
Mg4 O22 2.157371 1_555
Mg4 O23 2.157371 1_554
Mg5 O3 2.136170 1_555
Mg5 O29 2.136170 1_555
Mg5 O7 2.136170 1_555
Mg5 O31 2.136170 1_555
Mg5 O23 2.167665 1_555
Mg5 O22 2.167665 1_555
Mg6 O25 2.063646 1_555
Mg6 O18 2.109548 1_555
Mg6 O8 2.154673 1_555
Mg6 O12 2.154673 1_455
Mg6 O16 2.215269 1_555
Mg6 O24 2.266534 1_555
Mg7 O25 2.063646 1_555
Mg7 O19 2.109548 1_555
Mg7 O9 2.154673 1_555
Mg7 O13 2.154673 1_455
Mg7 O17 2.215269 1_555
Mg7 O24 2.266534 1_556
Mg8 O27 2.063646 1_555
Mg8 O18 2.109548 1_555
Mg8 O14 2.154673 1_455
Mg8 O10 2.154673 1_555
Mg8 O16 2.215269 1_565
Mg8 O26 2.266534 1_555
Mg9 O27 2.063646 1_555
Mg9 O19 2.109548 1_555
Mg9 O11 2.154673 1_555
Mg9 O15 2.154673 1_455
Mg9 O17 2.215269 1_565
Mg9 O26 2.266534 1_556
Mg10 O29 2.143771 1_555
Mg10 O22 2.158858 1_555
Mg10 O20 2.163729 1_555
Mg10 O12 2.171600 1_555
Mg10 O8 2.171600 1_555
Mg10 O28 2.181578 1_555
Mg11 O29 2.143771 1_555
Mg11 O23 2.158858 1_555
Mg11 O21 2.163729 1_555
Mg11 O9 2.171600 1_555
Mg11 O13 2.171600 1_555
Mg11 O28 2.181578 1_556
Mg12 O31 2.143771 1_555
Mg12 O22 2.158858 1_555
Mg12 O20 2.163729 1_565
Mg12 O10 2.171600 1_555
Mg12 O14 2.171600 1_555
Mg12 O30 2.181578 1_555
Mg13 O31 2.143771 1_555
Mg13 O23 2.158858 1_555
Mg13 O21 2.163729 1_565
Mg13 O15 2.171600 1_555
Mg13 O11 2.171600 1_555
Mg13 O30 2.181578 1_556
Mg14 O1 2.063646 1_555
Mg14 O20 2.109548 1_555
Mg14 O8 2.154673 1_555
Mg14 O10 2.154673 1_545
Mg14 O16 2.215269 1_555
Mg14 O0 2.266534 1_555
Mg15 O1 2.063646 1_555
Mg15 O21 2.109548 1_555
Mg15 O9 2.154673 1_555
Mg15 O11 2.154673 1_545
Mg15 O17 2.215269 1_555
Mg15 O0 2.266534 1_556
Mg16 O3 2.143771 1_555
Mg16 O22 2.158858 1_555
Mg16 O18 2.163729 1_555
Mg16 O10 2.171600 1_555
Mg16 O8 2.171600 1_555
Mg16 O2 2.181578 1_555
Mg17 O3 2.143771 1_555
Mg17 O23 2.158858 1_555
Mg17 O19 2.163729 1_555
Mg17 O9 2.171600 1_555
Mg17 O11 2.171600 1_555
Mg17 O2 2.181578 1_556
Mg18 O5 2.063646 1_555
Mg18 O20 2.109548 1_555
Mg18 O14 2.154673 1_545
Mg18 O12 2.154673 1_555
Mg18 O16 2.215269 1_655
Mg18 O4 2.266534 1_555
Mg19 O5 2.063646 1_555
Mg19 O21 2.109548 1_555
Mg19 O15 2.154673 1_545
Mg19 O13 2.154673 1_555
Mg19 O17 2.215269 1_655
Mg19 O4 2.266534 1_556
Mg20 O7 2.143771 1_555
Mg20 O22 2.158858 1_555
Mg20 O18 2.163729 1_655
Mg20 O12 2.171600 1_555
Mg20 O14 2.171600 1_555
Mg20 O6 2.181578 1_555
Mg21 O7 2.143771 1_555
Mg21 O23 2.158858 1_555
Mg21 O19 2.163729 1_655
Mg21 O15 2.171600 1_555
Mg21 O13 2.171600 1_555
Mg21 O6 2.181578 1_556
Mg22 O2 2.092495 1_555
Mg22 O28 2.092495 1_555
Mg22 O8 2.158216 1_555
Mg22 O9 2.158216 1_554
Mg22 O0 2.232135 1_555
Mg22 O24 2.232135 1_555
Mg23 O1 2.152229 1_555
Mg23 O25 2.152229 1_555
Mg23 O9 2.169747 1_555
Mg23 O8 2.169747 1_555
Mg23 O3 2.177532 1_555
Mg23 O29 2.177532 1_555
Mg24 O2 2.092495 1_555
Mg24 O30 2.092495 1_555
Mg24 O10 2.158216 1_555
Mg24 O11 2.158216 1_554
Mg24 O26 2.232135 1_555
Mg24 O0 2.232135 1_565
Mg25 O1 2.152229 1_565
Mg25 O27 2.152229 1_555
Mg25 O10 2.169747 1_555
Mg25 O11 2.169747 1_555
Mg25 O3 2.177532 1_555
Mg25 O31 2.177532 1_555
Mg26 O6 2.092495 1_555
Mg26 O28 2.092495 1_555
Mg26 O13 2.158216 1_554
Mg26 O12 2.158216 1_555
Mg26 O24 2.232135 1_655
Mg26 O4 2.232135 1_555
Mg27 O25 2.152229 1_655
Mg27 O5 2.152229 1_555
Mg27 O13 2.169747 1_555
Mg27 O12 2.169747 1_555
Mg27 O29 2.177532 1_555
Mg27 O7 2.177532 1_555
Mg28 O6 2.092495 1_555
Mg28 O30 2.092495 1_555
Mg28 O15 2.158216 1_554
Mg28 O14 2.158216 1_555
Mg28 O26 2.232135 1_655
Mg28 O4 2.232135 1_565
Mg29 O27 2.152229 1_655
Mg29 O5 2.152229 1_565
Mg29 O15 2.169747 1_555
Mg29 O14 2.169747 1_555
Mg29 O7 2.177532 1_555
Mg29 O31 2.177532 1_555
B0 O16 2.071684 1_555
B0 O17 2.071684 1_555
