# generated using pymatgen
data_BaSrTbZrO6
_symmetry_space_group_name_H-M   'P 1'
_cell_length_a   8.59544914
_cell_length_b   8.59974623
_cell_length_c   8.63812244
_cell_angle_alpha   90.00000000
_cell_angle_beta   90.00000000
_cell_angle_gamma   90.00000000
_symmetry_Int_Tables_number   1
_chemical_formula_structural   BaSrTbZrO6
_chemical_formula_sum   'Ba4 Sr4 Tb4 Zr4 O24'
_cell_volume   638.51861999
_cell_formula_units_Z   4
loop_
 _symmetry_equiv_pos_site_id
 _symmetry_equiv_pos_as_xyz
  1  'x, y, z'
loop_
 _atom_site_type_symbol
 _atom_site_label
 _atom_site_symmetry_multiplicity
 _atom_site_fract_x
 _atom_site_fract_y
 _atom_site_fract_z
 _atom_site_occupancy
  Ba  Ba0  1  -0.00000000  -0.00000000  -0.00000000  1
  Ba  Ba1  1  0.50000000  0.50000000  0.50000000  1
  Ba  Ba2  1  0.50000000  -0.00000000  0.50000000  1
  Ba  Ba3  1  0.50000000  -0.00000000  -0.00000000  1
  Sr  Sr0  1  -0.00000000  0.50000000  0.50000000  1
  Sr  Sr1  1  0.50000000  0.50000000  -0.00000000  1
  Sr  Sr2  1  -0.00000000  0.50000000  -0.00000000  1
  Sr  Sr3  1  -0.00000000  -0.00000000  0.50000000  1
  Tb  Tb0  1  0.75234138  0.74698166  0.75126335  1
  Tb  Tb1  1  0.24765862  0.25301834  0.75126335  1
  Tb  Tb2  1  0.24765862  0.74698166  0.24873665  1
  Tb  Tb3  1  0.75234138  0.25301834  0.24873665  1
  Zr  Zr0  1  0.24694467  0.25534619  0.24762465  1
  Zr  Zr1  1  0.75305533  0.74465381  0.24762465  1
  Zr  Zr2  1  0.75305533  0.25534619  0.75237535  1
  Zr  Zr3  1  0.24694467  0.74465381  0.75237535  1
  O  O0  1  0.00850002  0.20877058  0.28709028  1
  O  O1  1  0.99149998  0.79122942  0.28709028  1
  O  O2  1  0.99149998  0.20877058  0.71290972  1
  O  O3  1  0.00850002  0.79122942  0.71290972  1
  O  O4  1  0.27444755  0.00959400  0.21935332  1
  O  O5  1  0.27444755  0.99040600  0.78064668  1
  O  O6  1  0.72555245  0.99040600  0.21935332  1
  O  O7  1  0.72555245  0.00959400  0.78064668  1
  O  O8  1  0.20867803  0.28842871  0.00901588  1
  O  O9  1  0.79132197  0.28842871  0.99098412  1
  O  O10  1  0.20867803  0.71157129  0.99098412  1
  O  O11  1  0.79132197  0.71157129  0.00901588  1
  O  O12  1  0.49076650  0.28937511  0.21643861  1
  O  O13  1  0.50923350  0.71062489  0.21643861  1
  O  O14  1  0.50923350  0.28937511  0.78356139  1
  O  O15  1  0.49076650  0.71062489  0.78356139  1
  O  O16  1  0.20724257  0.49178167  0.29127967  1
  O  O17  1  0.20724257  0.50821833  0.70872033  1
  O  O18  1  0.79275743  0.50821833  0.29127967  1
  O  O19  1  0.79275743  0.49178167  0.70872033  1
  O  O20  1  0.28197732  0.22562035  0.49105057  1
  O  O21  1  0.71802268  0.22562035  0.50894943  1
  O  O22  1  0.28197732  0.77437965  0.50894943  1
  O  O23  1  0.71802268  0.77437965  0.49105057  1
loop_
_geom_bond_atom_site_label_1
_geom_bond_atom_site_label_2
_geom_bond_distance
_geom_bond_site_symmetry_2
Ba0 O5 3.026873 1_544
Ba0 O7 3.026873 1_454
Ba0 O6 3.026873 1_445
Ba0 O4 3.026873 1_555
Ba0 O9 3.061995 1_454
Ba0 O11 3.061995 1_445
Ba0 O8 3.061995 1_555
Ba0 O10 3.061995 1_544
Ba0 O0 3.062469 1_555
Ba0 O1 3.062469 1_445
Ba0 O2 3.062469 1_454
Ba0 O3 3.062469 1_544
Ba1 O22 3.014225 1_555
Ba1 O20 3.014225 1_555
Ba1 O23 3.014225 1_555
Ba1 O21 3.014225 1_555
Ba1 O15 3.047446 1_555
Ba1 O13 3.047446 1_555
Ba1 O14 3.047446 1_555
Ba1 O12 3.047446 1_555
Ba1 O18 3.096418 1_555
Ba1 O19 3.096418 1_555
Ba1 O16 3.096418 1_555
Ba1 O17 3.096418 1_555
Ba2 O20 2.698618 1_555
Ba2 O22 2.698618 1_545
Ba2 O21 2.698618 1_555
Ba2 O23 2.698618 1_545
Ba2 O7 3.105237 1_555
Ba2 O5 3.105237 1_545
Ba2 O4 3.105237 1_555
Ba2 O6 3.105237 1_545
Ba3 O7 2.712145 1_554
Ba3 O5 2.712145 1_544
Ba3 O6 2.712145 1_545
Ba3 O4 2.712145 1_555
Ba3 O14 3.113629 1_554
Ba3 O12 3.113629 1_555
Ba3 O13 3.113629 1_545
Ba3 O15 3.113629 1_544
O0 Zr0 2.115954 1_555
O0 Tb3 2.258866 1_455
O0 Sr3 2.571214 1_555
O0 Sr0 3.108101 1_555
O1 Zr1 2.115954 1_555
O1 Tb2 2.258866 1_655
O1 Sr3 2.571214 1_665
O1 Sr0 3.108101 1_655
O2 Zr2 2.115954 1_555
O2 Tb1 2.258866 1_655
O2 Sr3 2.571214 1_655
O2 Sr0 3.108101 1_655
O3 Zr3 2.115954 1_555
O3 Tb0 2.258866 1_455
O3 Sr3 2.571214 1_565
O3 Sr0 3.108101 1_555
O4 Zr0 2.140563 1_555
O4 Tb2 2.284253 1_545
O5 Zr3 2.140563 1_555
O5 Tb1 2.284253 1_565
O6 Zr1 2.140563 1_555
O6 Tb3 2.284253 1_565
O7 Zr2 2.140563 1_555
O7 Tb0 2.284253 1_545
O8 Zr0 2.106512 1_555
O8 Tb1 2.272067 1_554
O8 Sr2 2.556128 1_555
O8 Sr1 3.096245 1_555
O9 Zr2 2.106512 1_555
O9 Tb3 2.272067 1_556
O9 Sr2 2.556128 1_656
O9 Sr1 3.096245 1_556
O10 Zr3 2.106512 1_555
O10 Tb2 2.272067 1_556
O10 Sr2 2.556128 1_556
O10 Sr1 3.096245 1_556
O11 Zr1 2.106512 1_555
O11 Tb0 2.272067 1_554
O11 Sr2 2.556128 1_655
O11 Sr1 3.096245 1_555
O12 Zr0 2.133169 1_555
O12 Tb3 2.287070 1_555
O12 Sr1 2.604356 1_555
O13 Zr1 2.133169 1_555
O13 Tb2 2.287070 1_555
O13 Sr1 2.604356 1_555
O14 Zr2 2.133169 1_555
O14 Tb1 2.287070 1_555
O14 Sr1 2.604356 1_556
O15 Zr3 2.133169 1_555
O15 Tb0 2.287070 1_555
O15 Sr1 2.604356 1_556
O16 Zr0 2.095926 1_555
O16 Tb2 2.252164 1_555
O16 Sr0 2.535510 1_555
O16 Sr2 3.083664 1_555
O17 Zr3 2.095926 1_555
O17 Tb1 2.252164 1_555
O17 Sr0 2.535510 1_555
O17 Sr2 3.083664 1_556
O18 Zr1 2.095926 1_555
O18 Tb3 2.252164 1_555
O18 Sr0 2.535510 1_655
O18 Sr2 3.083664 1_655
O19 Zr2 2.095926 1_555
O19 Tb0 2.252164 1_555
O19 Sr0 2.535510 1_655
O19 Sr2 3.083664 1_656
O20 Zr0 2.139521 1_555
O20 Tb1 2.279235 1_555
O20 Sr3 3.105653 1_555
O21 Zr2 2.139521 1_555
O21 Tb3 2.279235 1_555
O21 Sr3 3.105653 1_655
O22 Zr3 2.139521 1_555
O22 Tb2 2.279235 1_555
O22 Sr3 3.105653 1_565
O23 Zr1 2.139521 1_555
O23 Tb0 2.279235 1_555
O23 Sr3 3.105653 1_665
