# generated using pymatgen
data_MgSi2
_symmetry_space_group_name_H-M   'P 1'
_cell_length_a   5.34012092
_cell_length_b   5.34012092
_cell_length_c   11.80040131
_cell_angle_alpha   76.78345776
_cell_angle_beta   76.78345776
_cell_angle_gamma   39.03678941
_symmetry_Int_Tables_number   1
_chemical_formula_structural   MgSi2
_chemical_formula_sum   'Mg4 Si8'
_cell_volume   205.61103340
_cell_formula_units_Z   4
loop_
 _symmetry_equiv_pos_site_id
 _symmetry_equiv_pos_as_xyz
  1  'x, y, z'
loop_
 _atom_site_type_symbol
 _atom_site_label
 _atom_site_symmetry_multiplicity
 _atom_site_fract_x
 _atom_site_fract_y
 _atom_site_fract_z
 _atom_site_occupancy
  Mg  Mg0  1  0.84683900  0.84683900  0.12710800  1
  Mg  Mg1  1  0.51236600  0.51236600  0.93593600  1
  Mg  Mg2  1  0.78395000  0.78395000  0.57642600  1
  Mg  Mg3  1  0.21119700  0.21119700  0.35245300  1
  Si  Si0  1  0.80282500  0.80282500  0.88961400  1
  Si  Si1  1  0.18251300  0.18251300  0.03277500  1
  Si  Si2  1  0.93913800  0.93913800  0.32674800  1
  Si  Si3  1  0.05741000  0.05741000  0.60809400  1
  Si  Si4  1  0.55203300  0.55203300  0.18233800  1
  Si  Si5  1  0.18000500  0.18000500  0.77530300  1
  Si  Si6  1  0.42741300  0.42741300  0.73197200  1
  Si  Si7  1  0.49790700  0.49790700  0.46124200  1
loop_
_geom_bond_atom_site_label_1
_geom_bond_atom_site_label_2
_geom_bond_distance
_geom_bond_site_symmetry_2
Mg0 Si2 2.734070 1_555
Mg0 Si1 2.837627 1_565
Mg0 Si1 2.837627 1_655
Mg0 Si4 2.879835 1_555
Mg0 Si4 2.920243 1_655
Mg0 Si4 2.920243 1_565
Mg0 Si0 2.941574 1_554
Mg1 Si6 2.742783 1_555
Mg1 Si5 2.841176 1_565
Mg1 Si5 2.841176 1_655
Mg1 Si0 2.841236 1_555
Mg1 Si1 2.893501 1_656
Mg1 Si1 2.893501 1_566
Mg1 Si0 2.913899 1_545
Mg1 Si0 2.913899 1_455
Mg1 Si4 3.029373 1_556
Mg2 Si3 2.847813 1_565
Mg2 Si3 2.847813 1_655
Mg2 Si3 2.866449 1_665
Mg2 Si7 2.872174 1_565
Mg2 Si7 2.872174 1_655
Mg2 Si5 2.931631 1_565
Mg2 Si5 2.931631 1_655
Mg2 Si2 2.981305 1_555
Mg2 Si6 3.150243 1_655
Mg2 Si6 3.150243 1_565
Mg3 Si2 2.827613 1_445
Mg3 Si7 2.846769 1_545
Mg3 Si7 2.846769 1_455
Mg3 Si2 2.864035 1_545
Mg3 Si2 2.864035 1_455
Mg3 Si3 3.038292 1_555
Si0 Si1 2.551754 1_656
Si0 Si1 2.551754 1_566
Si0 Si6 2.661742 1_565
Si0 Si6 2.661742 1_655
Si0 Si5 2.709353 1_565
Si0 Si5 2.709353 1_655
Si1 Si4 2.626553 1_455
Si1 Si4 2.626553 1_545
Si2 Si4 2.537568 1_565
Si2 Si4 2.537568 1_655
Si2 Si7 2.551009 1_565
Si2 Si7 2.551009 1_655
Si3 Si6 2.470754 1_455
Si3 Si6 2.470754 1_545
Si3 Si5 2.568581 1_555
Si3 Si7 2.654931 1_545
Si3 Si7 2.654931 1_455
Si5 Si6 2.417930 1_555
