# generated using pymatgen
data_La2NiSn4
_symmetry_space_group_name_H-M   'P 1'
_cell_length_a   9.20913526
_cell_length_b   9.20913526
_cell_length_c   4.52907900
_cell_angle_alpha   90.00000000
_cell_angle_beta   90.00000000
_cell_angle_gamma   151.39214524
_symmetry_Int_Tables_number   1
_chemical_formula_structural   La2NiSn4
_chemical_formula_sum   'La2 Ni1 Sn4'
_cell_volume   183.91316693
_cell_formula_units_Z   1
loop_
 _symmetry_equiv_pos_site_id
 _symmetry_equiv_pos_as_xyz
  1  'x, y, z'
loop_
 _atom_site_type_symbol
 _atom_site_label
 _atom_site_symmetry_multiplicity
 _atom_site_fract_x
 _atom_site_fract_y
 _atom_site_fract_z
 _atom_site_occupancy
  La  La0  1  0.10954600  0.89045400  0.50000000  1
  La  La1  1  0.89790200  0.10209800  0.00000000  1
  Ni  Ni0  1  0.31494900  0.68505100  0.50000000  1
  Sn  Sn0  1  0.45520600  0.54479400  0.50000000  1
  Sn  Sn1  1  0.55836300  0.44163700  0.00000000  1
  Sn  Sn2  1  0.74457100  0.25542900  0.50000000  1
  Sn  Sn3  1  0.24674100  0.75325900  0.00000000  1
loop_
_geom_bond_atom_site_label_1
_geom_bond_atom_site_label_2
_geom_bond_distance
_geom_bond_site_symmetry_2
La0 Sn2 3.314224 1_455
La0 Sn2 3.314224 1_565
La0 Sn3 3.335202 1_555
La0 Sn3 3.335202 1_556
La0 Sn1 3.337572 1_455
La0 Sn1 3.337572 1_456
La0 Sn1 3.337572 1_566
La0 Sn1 3.337572 1_565
La0 Sn0 3.572723 1_455
La0 Sn0 3.572723 1_565
La1 Sn0 3.369110 1_544
La1 Sn0 3.369110 1_545
La1 Sn0 3.369110 1_655
La1 Sn0 3.369110 1_654
La1 Sn3 3.529164 1_655
La1 Sn3 3.529164 1_545
La1 Ni0 3.535079 1_545
La1 Ni0 3.535079 1_655
La1 Ni0 3.535079 1_654
La1 Ni0 3.535079 1_544
La1 Sn2 3.552013 1_555
La1 Sn2 3.552013 1_554
La1 Sn1 3.657610 1_655
La1 Sn1 3.657610 1_545
Ni0 Sn0 2.503206 1_555
Ni0 Sn3 2.570997 1_555
Ni0 Sn3 2.570997 1_556
Ni0 Sn2 2.598938 1_565
Ni0 Sn2 2.598938 1_455
Sn0 Sn1 2.918507 1_556
Sn0 Sn1 2.918507 1_555
Sn2 Sn3 3.210365 1_546
Sn2 Sn3 3.210365 1_545
Sn2 Sn3 3.210365 1_656
Sn2 Sn3 3.210365 1_655
