# generated using pymatgen
data_KSb2PO8
_symmetry_space_group_name_H-M   'P 1'
_cell_length_a   7.22248251
_cell_length_b   7.22248251
_cell_length_c   15.26076210
_cell_angle_alpha   84.82029101
_cell_angle_beta   84.82029101
_cell_angle_gamma   59.71804252
_symmetry_Int_Tables_number   1
_chemical_formula_structural   KSb2PO8
_chemical_formula_sum   'K4 Sb8 P4 O32'
_cell_volume   683.71159798
_cell_formula_units_Z   4
loop_
 _symmetry_equiv_pos_site_id
 _symmetry_equiv_pos_as_xyz
  1  'x, y, z'
loop_
 _atom_site_type_symbol
 _atom_site_label
 _atom_site_symmetry_multiplicity
 _atom_site_fract_x
 _atom_site_fract_y
 _atom_site_fract_z
 _atom_site_occupancy
  K  K0  1  0.09107900  0.84837500  0.88799700  1
  K  K1  1  0.84837500  0.09107900  0.38799700  1
  K  K2  1  0.90793900  0.14874800  0.11853400  1
  K  K3  1  0.14874800  0.90793900  0.61853400  1
  Sb  Sb0  1  0.62201700  0.87658300  0.74823500  1
  Sb  Sb1  1  0.87658300  0.62201700  0.24823500  1
  Sb  Sb2  1  0.37935400  0.12525600  0.25481500  1
  Sb  Sb3  1  0.12525600  0.37935400  0.75481500  1
  Sb  Sb4  1  0.54638100  0.80998400  0.06470900  1
  Sb  Sb5  1  0.80998400  0.54638100  0.56470900  1
  Sb  Sb6  1  0.45558500  0.19288800  0.93834000  1
  Sb  Sb7  1  0.19288800  0.45558500  0.43834000  1
  P  P0  1  0.28724500  0.51322000  0.10748900  1
  P  P1  1  0.51322000  0.28724500  0.60748900  1
  P  P2  1  0.71374600  0.48942800  0.89528800  1
  P  P3  1  0.48942800  0.71374600  0.39528800  1
  O  O0  1  0.93974600  0.69577600  0.74887500  1
  O  O1  1  0.69577600  0.93974600  0.24887500  1
  O  O2  1  0.06141500  0.30517200  0.25471500  1
  O  O3  1  0.30517200  0.06141500  0.75471500  1
  O  O4  1  0.25903600  0.41386900  0.85519900  1
  O  O5  1  0.41386900  0.25903600  0.35519900  1
  O  O6  1  0.75022600  0.58659200  0.14514900  1
  O  O7  1  0.58659200  0.75022600  0.64514900  1
  O  O8  1  0.33253000  0.00329400  0.97411200  1
  O  O9  1  0.00329400  0.33253000  0.47411200  1
  O  O10  1  0.66794200  0.00200600  0.02961500  1
  O  O11  1  0.00200600  0.66794200  0.52961500  1
  O  O12  1  0.34218600  0.97978800  0.16061000  1
  O  O13  1  0.97978800  0.34218600  0.66061000  1
  O  O14  1  0.66197500  0.01743600  0.84391000  1
  O  O15  1  0.01743600  0.66197500  0.34391000  1
  O  O16  1  0.56213100  0.66027400  0.82676200  1
  O  O17  1  0.66027400  0.56213100  0.32676200  1
  O  O18  1  0.44168100  0.33717200  0.17378700  1
  O  O19  1  0.33717200  0.44168100  0.67378700  1
  O  O20  1  0.24468600  0.40819200  0.03329600  1
  O  O21  1  0.40819200  0.24468600  0.53329600  1
  O  O22  1  0.75303900  0.59702300  0.96917500  1
  O  O23  1  0.59702300  0.75303900  0.46917500  1
  O  O24  1  0.61653100  0.35581700  0.93911000  1
  O  O25  1  0.35581700  0.61653100  0.43911000  1
  O  O26  1  0.38062400  0.65079200  0.06426100  1
  O  O27  1  0.65079200  0.38062400  0.56426100  1
  O  O28  1  0.07352600  0.67416300  0.15568000  1
  O  O29  1  0.67416300  0.07352600  0.65568000  1
  O  O30  1  0.93029000  0.32796000  0.84901700  1
  O  O31  1  0.32796000  0.93029000  0.34901700  1
loop_
_geom_bond_atom_site_label_1
_geom_bond_atom_site_label_2
_geom_bond_distance
_geom_bond_site_symmetry_2
K0 O4 2.811610 1_555
K0 O14 2.821405 1_465
K0 O8 2.944018 1_565
K0 O0 2.995556 1_455
K0 O16 3.047537 1_555
K0 O30 3.065340 1_465
K0 O3 3.187809 1_565
K0 O26 3.310333 1_556
K0 O10 3.325997 1_466
K1 O5 2.811610 1_555
K1 O15 2.821405 1_645
K1 O9 2.944018 1_655
K1 O1 2.995556 1_545
K1 O17 3.047537 1_555
K1 O31 3.065340 1_645
K1 O2 3.187809 1_655
K1 O27 3.310333 1_555
K1 O11 3.325997 1_645
K2 O6 2.824594 1_555
K2 O12 2.846113 1_645
K2 O10 2.916563 1_555
K2 O2 2.987808 1_655
K2 O18 2.995993 1_555
K2 O28 3.022911 1_645
K2 O1 3.134251 1_545
K2 O24 3.360139 1_554
K2 O8 3.363621 1_654
K3 O7 2.824594 1_555
K3 O13 2.846113 1_465
K3 O11 2.916563 1_555
K3 O3 2.987808 1_565
K3 O19 2.995993 1_555
K3 O29 3.022911 1_465
K3 O0 3.134251 1_455
K3 O25 3.360139 1_555
K3 O9 3.363621 1_565
O0 Sb3 1.980576 1_655
O0 Sb0 1.987713 1_555
O1 Sb2 1.980576 1_565
O1 Sb1 1.987713 1_555
O2 Sb1 1.982610 1_455
O2 Sb2 1.988100 1_555
O3 Sb0 1.982610 1_545
O3 Sb3 1.988100 1_555
O4 Sb6 1.961364 1_555
O4 Sb3 1.980326 1_555
O5 Sb7 1.961364 1_555
O5 Sb2 1.980326 1_555
O6 Sb4 1.962342 1_555
O6 Sb1 1.985089 1_555
O7 Sb5 1.962342 1_555
O7 Sb0 1.985089 1_555
O8 Sb6 1.991934 1_555
O8 Sb4 2.026984 1_546
O9 Sb7 1.991934 1_555
O9 Sb5 2.026984 1_455
O10 Sb4 1.997517 1_545
O10 Sb6 2.024795 1_554
O11 Sb5 1.997517 1_455
O11 Sb7 2.024795 1_555
O12 Sb2 1.967121 1_565
O12 Sb4 1.982741 1_555
O13 Sb3 1.967121 1_655
O13 Sb5 1.982741 1_555
O14 Sb0 1.972406 1_545
O14 Sb6 1.985284 1_555
O15 Sb1 1.972406 1_455
O15 Sb7 1.985284 1_555
O16 P2 1.557683 1_555
O16 Sb0 2.076965 1_555
O17 P3 1.557683 1_555
O17 Sb1 2.076965 1_555
O18 P0 1.557460 1_555
O18 Sb2 2.080126 1_555
O19 P1 1.557460 1_555
O19 Sb3 2.080126 1_555
O20 P0 1.550788 1_555
O20 Sb6 2.111330 1_554
O21 P1 1.550788 1_555
O21 Sb7 2.111330 1_555
O22 P2 1.547337 1_555
O22 Sb4 2.101382 1_556
O23 P3 1.547337 1_555
O23 Sb5 2.101382 1_555
O24 P2 1.534105 1_555
O24 Sb6 2.029932 1_555
O25 P3 1.534105 1_555
O25 Sb7 2.029932 1_555
O26 P0 1.534421 1_555
O26 Sb4 2.036249 1_555
O27 P1 1.534421 1_555
O27 Sb5 2.036249 1_555
O28 P0 1.553878 1_555
O28 Sb1 2.059519 1_455
O29 P1 1.553878 1_555
O29 Sb0 2.059519 1_545
O30 P2 1.553876 1_555
O30 Sb3 2.062181 1_655
O31 P3 1.553876 1_555
O31 Sb2 2.062181 1_565
