# generated using pymatgen
data_PbWO4
_symmetry_space_group_name_H-M   'P 1'
_cell_length_a   5.82745500
_cell_length_b   7.87379600
_cell_length_c   7.98070386
_cell_angle_alpha   74.70489503
_cell_angle_beta   90.00000000
_cell_angle_gamma   90.00000000
_symmetry_Int_Tables_number   1
_chemical_formula_structural   PbWO4
_chemical_formula_sum   'Pb4 W4 O16'
_cell_volume   353.21774788
_cell_formula_units_Z   4
loop_
 _symmetry_equiv_pos_site_id
 _symmetry_equiv_pos_as_xyz
  1  'x, y, z'
loop_
 _atom_site_type_symbol
 _atom_site_label
 _atom_site_symmetry_multiplicity
 _atom_site_fract_x
 _atom_site_fract_y
 _atom_site_fract_z
 _atom_site_occupancy
  Pb  Pb0  1  0.25984600  0.36006900  0.41858900  1
  Pb  Pb1  1  0.24015400  0.36006900  0.91858900  1
  Pb  Pb2  1  0.75984600  0.63993100  0.08141100  1
  Pb  Pb3  1  0.74015400  0.63993100  0.58141100  1
  W  W0  1  0.74890300  0.17287800  0.72658800  1
  W  W1  1  0.75109700  0.17287800  0.22658800  1
  W  W2  1  0.24890300  0.82712200  0.77341200  1
  W  W3  1  0.25109700  0.82712200  0.27341200  1
  O  O0  1  0.22996300  0.83476200  0.03853600  1
  O  O1  1  0.97719400  0.34841100  0.65528600  1
  O  O2  1  0.53042800  0.36313500  0.66738900  1
  O  O3  1  0.52280600  0.34841100  0.15528600  1
  O  O4  1  0.27003700  0.83476200  0.53853600  1
  O  O5  1  0.47810300  0.01327100  0.75674600  1
  O  O6  1  0.03042800  0.63686500  0.83261100  1
  O  O7  1  0.77003700  0.16523800  0.96146400  1
  O  O8  1  0.72996300  0.16523800  0.46146400  1
  O  O9  1  0.97810300  0.98672900  0.74325400  1
  O  O10  1  0.52189700  0.98672900  0.24325400  1
  O  O11  1  0.47719400  0.65158900  0.84471400  1
  O  O12  1  0.96957200  0.36313500  0.16738900  1
  O  O13  1  0.02189700  0.01327100  0.25674600  1
  O  O14  1  0.02280600  0.65158900  0.34471400  1
  O  O15  1  0.46957200  0.63686500  0.33261100  1
loop_
_geom_bond_atom_site_label_1
_geom_bond_atom_site_label_2
_geom_bond_distance
_geom_bond_site_symmetry_2
O0 W3 1.863587 1_555
O0 W2 2.135389 1_554
O1 W0 1.894453 1_555
O1 Pb0 2.489654 1_655
O1 Pb3 2.609683 1_555
O1 Pb1 2.621840 1_655
O2 W0 1.927400 1_555
O2 Pb3 2.434232 1_555
O2 Pb0 2.540628 1_555
O2 Pb1 2.618292 1_555
O3 W1 1.894453 1_555
O3 Pb1 2.489654 1_554
O3 Pb2 2.609683 1_555
O3 Pb0 2.621840 1_555
O4 W2 1.863587 1_555
O4 W3 2.135389 1_555
O5 W2 1.961398 1_545
O5 W0 1.991984 1_555
O6 W2 1.927400 1_555
O6 Pb1 2.434232 1_555
O6 Pb2 2.540628 1_456
O6 Pb3 2.618292 1_455
O7 W0 1.863587 1_555
O7 W1 2.135389 1_556
O8 W1 1.863587 1_555
O8 W0 2.135389 1_555
O9 W0 1.961398 1_565
O9 W2 1.991984 1_655
O10 W1 1.961398 1_565
O10 W3 1.991984 1_555
O11 W2 1.894453 1_555
O11 Pb2 2.489654 1_556
O11 Pb1 2.609683 1_555
O11 Pb3 2.621840 1_555
O12 W1 1.927400 1_555
O12 Pb2 2.434232 1_555
O12 Pb1 2.540628 1_654
O12 Pb0 2.618292 1_655
O13 W3 1.961398 1_545
O13 W1 1.991984 1_455
O14 W3 1.894453 1_555
O14 Pb3 2.489654 1_455
O14 Pb0 2.609683 1_555
O14 Pb2 2.621840 1_455
O15 W3 1.927400 1_555
O15 Pb0 2.434232 1_555
O15 Pb3 2.540628 1_555
O15 Pb2 2.618292 1_555
