# generated using pymatgen
data_Mg149Hg
_symmetry_space_group_name_H-M   'P 1'
_cell_length_a   15.91724485
_cell_length_b   15.91725287
_cell_length_c   15.59855780
_cell_angle_alpha   90.00000164
_cell_angle_beta   90.00000528
_cell_angle_gamma   120.00104061
_symmetry_Int_Tables_number   1
_chemical_formula_structural   Mg149Hg
_chemical_formula_sum   'Mg149 Hg1'
_cell_volume   3422.52427366
_cell_formula_units_Z   1
loop_
 _symmetry_equiv_pos_site_id
 _symmetry_equiv_pos_as_xyz
  1  'x, y, z'
loop_
 _atom_site_type_symbol
 _atom_site_label
 _atom_site_symmetry_multiplicity
 _atom_site_fract_x
 _atom_site_fract_y
 _atom_site_fract_z
 _atom_site_occupancy
  Mg  Mg0  1  0.80199728  0.00102540  0.00000022  1
  Mg  Mg1  1  0.19902835  0.00102506  0.99999998  1
  Mg  Mg2  1  0.19902700  0.19800192  0.99999939  1
  Mg  Mg3  1  0.99897533  0.19800256  0.00000033  1
  Mg  Mg4  1  0.39944308  0.19972133  0.99999979  1
  Mg  Mg5  1  0.80027926  0.19972225  0.99999998  1
  Mg  Mg6  1  0.59993548  0.19987065  0.99999974  1
  Mg  Mg7  1  0.19935914  0.39871661  0.00000017  1
  Mg  Mg8  1  0.39976808  0.39978735  0.00000034  1
  Mg  Mg9  1  0.00001986  0.39978878  0.99999952  1
  Mg  Mg10  1  0.80012970  0.40006502  0.00000019  1
  Mg  Mg11  1  0.59993494  0.40006454  0.00000033  1
  Mg  Mg12  1  0.19989689  0.59994844  0.99999960  1
  Mg  Mg13  1  0.40005144  0.59994856  0.99999958  1
  Mg  Mg14  1  0.60021181  0.60023087  0.00000046  1
  Mg  Mg15  1  0.00001925  0.60023168  0.00000023  1
  Mg  Mg16  1  0.80027864  0.60055714  0.99999971  1
  Mg  Mg17  1  0.40005145  0.80010242  0.00000031  1
  Mg  Mg18  1  0.60128286  0.80064097  0.00000024  1
  Mg  Mg19  1  0.19935851  0.80064160  0.00000036  1
  Mg  Mg20  1  0.99897516  0.80097364  0.99999960  1
  Mg  Mg21  1  0.80199738  0.80097338  0.00000055  1
  Mg  Mg22  1  0.60021166  0.99997989  0.99999985  1
  Mg  Mg23  1  0.39976809  0.99998036  0.99999978  1
  Mg  Mg24  1  0.06614744  0.13229514  0.16553402  1
  Mg  Mg25  1  0.86770546  0.93385295  0.16553419  1
  Mg  Mg26  1  0.06614722  0.93385246  0.16553414  1
  Mg  Mg27  1  0.06632090  0.33258391  0.16621574  1
  Mg  Mg28  1  0.26626285  0.33258410  0.16621588  1
  Mg  Mg29  1  0.66741527  0.73373662  0.16621577  1
  Mg  Mg30  1  0.06632084  0.73373696  0.16621526  1
  Mg  Mg31  1  0.66741596  0.93367850  0.16621595  1
  Mg  Mg32  1  0.26626294  0.93367918  0.16621621  1
  Mg  Mg33  1  0.26652756  0.53305439  0.16648917  1
  Mg  Mg34  1  0.46694605  0.73347301  0.16648862  1
  Mg  Mg35  1  0.26652749  0.73347287  0.16648916  1
  Mg  Mg36  1  0.06669501  0.53334792  0.16649198  1
  Mg  Mg37  1  0.46665231  0.53334747  0.16649258  1
  Mg  Mg38  1  0.46665243  0.93330468  0.16649211  1
  Mg  Mg39  1  0.46687332  0.13336216  0.16656046  1
  Mg  Mg40  1  0.66648894  0.13336257  0.16656090  1
  Mg  Mg41  1  0.86663685  0.33350972  0.16656026  1
  Mg  Mg42  1  0.46687298  0.33351063  0.16656120  1
  Mg  Mg43  1  0.86663728  0.53312712  0.16656076  1
  Mg  Mg44  1  0.66648916  0.53312668  0.16656065  1
  Mg  Mg45  1  0.66666707  0.33333329  0.16667664  1
  Mg  Mg46  1  0.86625837  0.13374117  0.16720204  1
  Mg  Mg47  1  0.26748294  0.13374141  0.16720149  1
  Mg  Mg48  1  0.86625885  0.73251796  0.16720124  1
  Mg  Mg49  1  0.99999997  0.00000019  0.33258449  1
  Mg  Mg50  1  0.19992506  0.39984916  0.33308719  1
  Mg  Mg51  1  0.60015053  0.80007540  0.33308656  1
  Mg  Mg52  1  0.19992386  0.80007545  0.33308662  1
  Mg  Mg53  1  0.39982719  0.99998016  0.33313656  1
  Mg  Mg54  1  0.60015418  0.99998081  0.33313663  1
  Mg  Mg55  1  0.00002019  0.39984630  0.33313646  1
  Mg  Mg56  1  0.39982672  0.39984634  0.33313670  1
  Mg  Mg57  1  0.60015398  0.60017381  0.33313660  1
  Mg  Mg58  1  0.00001967  0.60017380  0.33313697  1
  Mg  Mg59  1  0.19970029  0.99992735  0.33322723  1
  Mg  Mg60  1  0.80022748  0.99992717  0.33322776  1
  Mg  Mg61  1  0.00007316  0.19977252  0.33322736  1
  Mg  Mg62  1  0.19969984  0.19977277  0.33322741  1
  Mg  Mg63  1  0.80022735  0.80030002  0.33322752  1
  Mg  Mg64  1  0.00007301  0.80029999  0.33322735  1
  Mg  Mg65  1  0.60000512  0.20000999  0.33328288  1
  Mg  Mg66  1  0.79999037  0.39999545  0.33328229  1
  Mg  Mg67  1  0.60000606  0.39999560  0.33328282  1
  Mg  Mg68  1  0.39998444  0.60001595  0.33330232  1
  Mg  Mg69  1  0.20003235  0.60001555  0.33330192  1
  Mg  Mg70  1  0.39998438  0.79996718  0.33330221  1
  Mg  Mg71  1  0.79998676  0.20001233  0.33339905  1
  Mg  Mg72  1  0.40002556  0.20001252  0.33339842  1
  Mg  Mg73  1  0.79998718  0.59997527  0.33339985  1
  Mg  Mg74  1  0.06660771  0.13321433  0.49999995  1
  Mg  Mg75  1  0.26658072  0.13329072  0.49999998  1
  Mg  Mg76  1  0.86670962  0.13329082  0.49999981  1
  Mg  Mg77  1  0.46672370  0.13328645  0.49999945  1
  Mg  Mg78  1  0.66656287  0.13328557  0.50000046  1
  Mg  Mg79  1  0.26669780  0.33322750  0.49999995  1
  Mg  Mg80  1  0.06652973  0.33322794  0.50000024  1
  Mg  Mg81  1  0.66666699  0.33333265  0.49999969  1
  Mg  Mg82  1  0.46672328  0.33343753  0.50000002  1
  Mg  Mg83  1  0.86671354  0.33343640  0.50000023  1
  Mg  Mg84  1  0.26658485  0.53317023  0.50000028  1
  Mg  Mg85  1  0.06657786  0.53328868  0.49999995  1
  Mg  Mg86  1  0.46671116  0.53328880  0.49999974  1
  Mg  Mg87  1  0.66656284  0.53327616  0.49999984  1
  Mg  Mg88  1  0.86671465  0.53327669  0.50000003  1
  Mg  Mg89  1  0.66677275  0.73330283  0.49999985  1
  Mg  Mg90  1  0.06652997  0.73330265  0.50000015  1
  Mg  Mg91  1  0.46682992  0.73341507  0.50000000  1
  Mg  Mg92  1  0.26658490  0.73341501  0.50000009  1
  Mg  Mg93  1  0.86671012  0.73341935  0.49999999  1
  Mg  Mg94  1  0.66677278  0.93347032  0.50000005  1
  Mg  Mg95  1  0.26669766  0.93347020  0.50000028  1
  Mg  Mg96  1  0.06660737  0.93339312  0.50000022  1
  Mg  Mg97  1  0.86678598  0.93339311  0.49999960  1
  Mg  Mg98  1  0.46671084  0.93342223  0.49999978  1
  Mg  Mg99  1  0.79998709  0.20001222  0.66660091  1
  Mg  Mg100  1  0.40002528  0.20001216  0.66660073  1
  Mg  Mg101  1  0.79998718  0.59997476  0.66660085  1
  Mg  Mg102  1  0.39998388  0.60001521  0.66669805  1
  Mg  Mg103  1  0.20003193  0.60001506  0.66669771  1
  Mg  Mg104  1  0.39998492  0.79996752  0.66669785  1
  Mg  Mg105  1  0.60000496  0.20000916  0.66671672  1
  Mg  Mg106  1  0.79999003  0.39999454  0.66671613  1
  Mg  Mg107  1  0.60000545  0.39999551  0.66671674  1
  Mg  Mg108  1  0.19970060  0.99992707  0.66677168  1
  Mg  Mg109  1  0.80022758  0.99992731  0.66677229  1
  Mg  Mg110  1  0.00007257  0.19977308  0.66677149  1
  Mg  Mg111  1  0.19970062  0.19977384  0.66677152  1
  Mg  Mg112  1  0.80022731  0.80029996  0.66677169  1
  Mg  Mg113  1  0.00007247  0.80029982  0.66677159  1
  Mg  Mg114  1  0.39982608  0.99997965  0.66686233  1
  Mg  Mg115  1  0.60015442  0.99998099  0.66686306  1
  Mg  Mg116  1  0.00001987  0.39984515  0.66686316  1
  Mg  Mg117  1  0.39982668  0.39984604  0.66686306  1
  Mg  Mg118  1  0.60015461  0.60017380  0.66686315  1
  Mg  Mg119  1  0.00001988  0.60017434  0.66686349  1
  Mg  Mg120  1  0.19992447  0.39984901  0.66691292  1
  Mg  Mg121  1  0.60015145  0.80007573  0.66691368  1
  Mg  Mg122  1  0.19992391  0.80007466  0.66691316  1
  Mg  Mg123  1  0.00000026  0.99999963  0.66741616  1
  Mg  Mg124  1  0.86625822  0.13374132  0.83279860  1
  Mg  Mg125  1  0.26748270  0.13374098  0.83279840  1
  Mg  Mg126  1  0.86625909  0.73251757  0.83279853  1
  Mg  Mg127  1  0.66666682  0.33333296  0.83332314  1
  Mg  Mg128  1  0.46687256  0.13336195  0.83343933  1
  Mg  Mg129  1  0.66648870  0.13336171  0.83343931  1
  Mg  Mg130  1  0.86663720  0.33351037  0.83343884  1
  Mg  Mg131  1  0.46687265  0.33351039  0.83343847  1
  Mg  Mg132  1  0.86663796  0.53312725  0.83343773  1
  Mg  Mg133  1  0.66648895  0.53312673  0.83343843  1
  Mg  Mg134  1  0.06669508  0.53334775  0.83350727  1
  Mg  Mg135  1  0.46665263  0.53334777  0.83350763  1
  Mg  Mg136  1  0.46665250  0.93330485  0.83350755  1
  Mg  Mg137  1  0.26652768  0.53305400  0.83351068  1
  Mg  Mg138  1  0.46694519  0.73347302  0.83351042  1
  Mg  Mg139  1  0.26652711  0.73347279  0.83351023  1
  Mg  Mg140  1  0.06632185  0.33258408  0.83378539  1
  Mg  Mg141  1  0.26626263  0.33258334  0.83378475  1
  Mg  Mg142  1  0.66741585  0.73373714  0.83378477  1
  Mg  Mg143  1  0.06632156  0.73373798  0.83378434  1
  Mg  Mg144  1  0.66741626  0.93367836  0.83378494  1
  Mg  Mg145  1  0.26626196  0.93367852  0.83378416  1
  Mg  Mg146  1  0.06614716  0.13229461  0.83446555  1
  Mg  Mg147  1  0.86770568  0.93385289  0.83446572  1
  Mg  Mg148  1  0.06614700  0.93385272  0.83446622  1
  Hg  Hg0  1  0.00000006  0.99999999  1.00000000  1
loop_
_geom_bond_atom_site_label_1
_geom_bond_atom_site_label_2
_geom_bond_distance
_geom_bond_site_symmetry_2
Mg0 Mg3 3.135292 1_555
Mg0 Mg25 3.165846 1_545
Mg0 Mg147 3.165855 1_544
Mg0 Mg5 3.176470 1_554
Mg0 Mg21 3.184279 1_545
Mg0 Mg124 3.185932 1_554
Mg0 Mg46 3.185933 1_555
Mg0 Mg144 3.188064 1_544
Mg0 Mg31 3.188072 1_545
Mg0 Mg18 3.192148 1_545
Mg0 Mg22 3.203582 1_544
Mg1 Mg2 3.135341 1_555
Mg1 Mg148 3.165832 1_545
Mg1 Mg26 3.165836 1_546
Mg1 Mg4 3.176413 1_555
Mg1 Mg20 3.184232 1_445
Mg1 Mg125 3.185930 1_555
Mg1 Mg47 3.185933 1_556
Mg1 Mg145 3.188081 1_545
Mg1 Mg32 3.188089 1_546
Mg1 Mg19 3.192185 1_546
Mg1 Mg23 3.203571 1_545
Mg2 Mg24 3.165830 1_556
Mg2 Mg4 3.176476 1_555
Mg2 Mg3 3.184277 1_456
Mg2 Mg47 3.185958 1_556
Mg2 Mg28 3.188089 1_556
Mg2 Mg7 3.192186 1_556
Mg2 Mg8 3.203539 1_556
Mg3 Mg5 3.176469 1_554
Mg3 Mg46 3.185941 1_555
Mg3 Mg7 3.192140 1_655
Mg3 Mg9 3.203601 1_654
Mg4 Mg47 3.179786 1_556
Mg4 Mg8 3.181918 1_556
Mg4 Mg42 3.186139 1_556
Mg4 Mg6 3.190099 1_555
Mg5 Mg9 3.181868 1_655
Mg5 Mg6 3.190103 1_555
Mg7 Mg8 3.181471 1_555
Mg7 Mg9 3.181500 1_554
Mg10 Mg43 3.180325 1_555
Mg10 Mg41 3.180338 1_555
Mg10 Mg132 3.180350 1_554
Mg10 Mg130 3.180352 1_554
Mg10 Mg15 3.183849 1_655
Mg10 Mg9 3.183901 1_654
Mg10 Mg45 3.184987 1_555
Mg10 Mg127 3.184997 1_554
Mg10 Mg6 3.186492 1_554
Mg10 Mg11 3.186545 1_555
Mg10 Mg5 3.190098 1_554
Mg10 Mg16 3.190099 1_554
Mg11 Mg44 3.180322 1_555
Mg11 Mg42 3.180327 1_555
Mg11 Mg131 3.180342 1_554
Mg11 Mg133 3.180343 1_554
Mg11 Mg14 3.183897 1_555
Mg11 Mg8 3.183901 1_555
Mg11 Mg45 3.185008 1_555
Mg11 Mg127 3.185020 1_554
Mg11 Mg6 3.186541 1_554
Mg11 Mg4 3.190046 1_554
Mg11 Mg16 3.190056 1_554
Mg12 Mg134 3.180566 1_555
Mg12 Mg36 3.180568 1_556
Mg12 Mg139 3.183099 1_555
Mg12 Mg35 3.183102 1_556
Mg12 Mg137 3.183116 1_555
Mg12 Mg33 3.183121 1_556
Mg12 Mg9 3.183694 1_555
Mg12 Mg15 3.183758 1_556
Mg12 Mg17 3.185855 1_556
Mg12 Mg13 3.185908 1_555
Mg12 Mg19 3.198777 1_556
Mg12 Mg7 3.198787 1_556
Mg13 Mg135 3.180580 1_555
Mg13 Mg37 3.180593 1_556
Mg13 Mg137 3.183087 1_555
Mg13 Mg34 3.183095 1_556
Mg13 Mg138 3.183097 1_555
Mg13 Mg33 3.183097 1_556
Mg13 Mg14 3.183757 1_556
Mg13 Mg8 3.183764 1_556
Mg13 Mg17 3.185900 1_556
Mg13 Mg18 3.198719 1_556
Mg13 Mg7 3.198722 1_556
Mg14 Mg29 3.179471 1_555
Mg14 Mg142 3.179480 1_554
Mg14 Mg18 3.181488 1_555
Mg14 Mg16 3.181919 1_554
Mg14 Mg44 3.182885 1_555
Mg14 Mg37 3.183413 1_555
Mg14 Mg8 3.190461 1_555
Mg14 Mg21 3.203552 1_555
Mg15 Mg30 3.179463 1_555
Mg15 Mg19 3.181438 1_555
Mg15 Mg16 3.181914 1_454
Mg15 Mg43 3.182876 1_455
Mg15 Mg36 3.183425 1_555
Mg15 Mg9 3.190505 1_554
Mg15 Mg20 3.203603 1_454
Mg16 Mg20 3.176429 1_555
Mg16 Mg21 3.176485 1_556
Mg16 Mg48 3.179789 1_556
Mg16 Mg44 3.186134 1_556
Mg16 Mg43 3.186146 1_556
Mg17 Mg38 3.180564 1_555
Mg17 Mg35 3.183089 1_555
Mg17 Mg34 3.183099 1_555
Mg17 Mg22 3.183702 1_554
Mg17 Mg23 3.183765 1_554
Mg17 Mg18 3.198772 1_555
Mg17 Mg19 3.198779 1_555
Mg18 Mg31 3.175742 1_555
Mg18 Mg29 3.175750 1_555
Mg18 Mg22 3.181488 1_554
Mg18 Mg34 3.189574 1_555
Mg18 Mg21 3.192180 1_555
Mg19 Mg30 3.175733 1_555
Mg19 Mg32 3.175744 1_555
Mg19 Mg23 3.181431 1_554
Mg19 Mg35 3.189603 1_555
Mg19 Mg20 3.192197 1_454
Mg20 Mg21 3.135341 1_556
Mg20 Mg26 3.165823 1_656
Mg20 Mg48 3.185934 1_556
Mg20 Mg30 3.188097 1_656
Mg21 Mg25 3.165817 1_555
Mg21 Mg48 3.185943 1_555
Mg21 Mg29 3.188072 1_555
Mg22 Mg31 3.179497 1_556
Mg22 Mg5 3.181890 1_565
Mg22 Mg40 3.182888 1_566
Mg22 Mg38 3.183413 1_556
Mg22 Mg6 3.183912 1_565
Mg22 Mg23 3.190513 1_555
Mg23 Mg32 3.179480 1_556
Mg23 Mg4 3.181917 1_565
Mg23 Mg39 3.182877 1_566
Mg23 Mg38 3.183437 1_556
Mg23 Mg6 3.183861 1_565
Mg24 Mg25 3.158602 1_445
Mg24 Mg26 3.158661 1_545
Mg24 Mg3 3.165834 1_455
Mg24 Mg49 3.180496 1_455
Mg24 Mg28 3.186637 1_555
Mg24 Mg27 3.186685 1_555
Mg24 Mg46 3.193360 1_455
Mg24 Mg47 3.193364 1_555
Mg24 Mg62 3.198680 1_555
Mg24 Mg61 3.198691 1_555
Mg25 Mg26 3.158650 1_655
Mg25 Mg49 3.180489 1_565
Mg25 Mg29 3.186654 1_555
Mg25 Mg31 3.186687 1_555
Mg25 Mg48 3.193355 1_555
Mg25 Mg46 3.193357 1_565
Mg25 Mg63 3.198685 1_555
Mg25 Mg60 3.198698 1_555
Mg26 Mg49 3.180510 1_465
Mg26 Mg32 3.186689 1_555
Mg26 Mg30 3.186689 1_555
Mg26 Mg48 3.193300 1_455
Mg26 Mg47 3.193314 1_565
Mg26 Mg64 3.198680 1_555
Mg26 Mg59 3.198682 1_555
Mg27 Mg46 3.174769 1_455
Mg27 Mg7 3.175746 1_555
Mg27 Mg9 3.179500 1_554
Mg27 Mg28 3.182523 1_555
Mg27 Mg61 3.184088 1_555
Mg27 Mg41 3.185818 1_455
Mg27 Mg3 3.188069 1_455
Mg27 Mg50 3.188605 1_555
Mg27 Mg33 3.188794 1_555
Mg27 Mg55 3.188924 1_555
Mg27 Mg36 3.192641 1_555
Mg28 Mg47 3.174822 1_555
Mg28 Mg7 3.175748 1_555
Mg28 Mg8 3.179469 1_555
Mg28 Mg62 3.184086 1_555
Mg28 Mg42 3.185817 1_555
Mg28 Mg50 3.188610 1_555
Mg28 Mg33 3.188834 1_555
Mg28 Mg56 3.188914 1_555
Mg28 Mg37 3.192582 1_555
Mg29 Mg48 3.174823 1_555
Mg29 Mg31 3.182520 1_555
Mg29 Mg63 3.184094 1_555
Mg29 Mg44 3.185818 1_555
Mg29 Mg51 3.188609 1_555
Mg29 Mg34 3.188825 1_555
Mg29 Mg57 3.188906 1_555
Mg29 Mg37 3.192576 1_555
Mg30 Mg48 3.174816 1_455
Mg30 Mg32 3.182479 1_555
Mg30 Mg64 3.184106 1_555
Mg30 Mg43 3.185765 1_455
Mg30 Mg52 3.188595 1_555
Mg30 Mg35 3.188845 1_555
Mg30 Mg58 3.188921 1_555
Mg30 Mg36 3.192628 1_555
Mg31 Mg46 3.174768 1_565
Mg31 Mg60 3.184091 1_555
Mg31 Mg40 3.185830 1_565
Mg31 Mg51 3.188587 1_555
Mg31 Mg34 3.188780 1_555
Mg31 Mg54 3.188931 1_555
Mg31 Mg38 3.192634 1_555
Mg32 Mg47 3.174813 1_565
Mg32 Mg59 3.184092 1_555
Mg32 Mg39 3.185765 1_565
Mg32 Mg52 3.188590 1_555
Mg32 Mg35 3.188845 1_555
Mg32 Mg53 3.188911 1_555
Mg32 Mg38 3.192636 1_555
Mg33 Mg50 3.181940 1_555
Mg33 Mg37 3.183105 1_555
Mg33 Mg36 3.183122 1_555
Mg33 Mg68 3.186684 1_555
Mg33 Mg69 3.186692 1_555
Mg33 Mg7 3.189590 1_555
Mg33 Mg34 3.190062 1_555
Mg33 Mg35 3.190112 1_555
Mg34 Mg51 3.181933 1_555
Mg34 Mg38 3.183111 1_555
Mg34 Mg37 3.183114 1_555
Mg34 Mg68 3.186693 1_555
Mg34 Mg70 3.186699 1_555
Mg34 Mg35 3.190110 1_555
Mg35 Mg52 3.181957 1_555
Mg35 Mg38 3.183058 1_555
Mg35 Mg36 3.183063 1_555
Mg35 Mg70 3.186683 1_555
Mg35 Mg69 3.186684 1_555
Mg36 Mg41 3.182577 1_455
Mg36 Mg43 3.182612 1_455
Mg36 Mg9 3.183415 1_554
Mg36 Mg55 3.184892 1_555
Mg36 Mg58 3.184911 1_555
Mg36 Mg69 3.185690 1_555
Mg37 Mg44 3.182611 1_555
Mg37 Mg42 3.182611 1_555
Mg37 Mg8 3.183420 1_555
Mg37 Mg56 3.184883 1_555
Mg37 Mg57 3.184885 1_555
Mg37 Mg68 3.185697 1_555
Mg38 Mg40 3.182561 1_565
Mg38 Mg39 3.182609 1_565
Mg38 Mg54 3.184892 1_555
Mg38 Mg53 3.184900 1_555
Mg38 Mg70 3.185694 1_555
Mg39 Mg47 3.176784 1_555
Mg39 Mg40 3.177327 1_555
Mg39 Mg6 3.180327 1_554
Mg39 Mg45 3.181530 1_555
Mg39 Mg65 3.182941 1_555
Mg39 Mg53 3.183073 1_545
Mg39 Mg42 3.185817 1_555
Mg39 Mg4 3.186147 1_554
Mg39 Mg72 3.187344 1_555
Mg40 Mg46 3.176786 1_555
Mg40 Mg6 3.180344 1_554
Mg40 Mg45 3.181568 1_555
Mg40 Mg65 3.182948 1_555
Mg40 Mg54 3.183067 1_545
Mg40 Mg41 3.185748 1_555
Mg40 Mg5 3.186140 1_554
Mg40 Mg71 3.187327 1_555
Mg41 Mg46 3.176774 1_555
Mg41 Mg43 3.177357 1_555
Mg41 Mg45 3.181565 1_555
Mg41 Mg9 3.182887 1_654
Mg41 Mg66 3.182957 1_555
Mg41 Mg55 3.183084 1_655
Mg41 Mg5 3.186110 1_554
Mg41 Mg71 3.187332 1_555
Mg42 Mg47 3.176729 1_555
Mg42 Mg44 3.177289 1_555
Mg42 Mg45 3.181584 1_555
Mg42 Mg8 3.182894 1_555
Mg42 Mg67 3.182941 1_555
Mg42 Mg56 3.183082 1_555
Mg42 Mg72 3.187318 1_555
Mg43 Mg48 3.176786 1_555
Mg43 Mg45 3.181523 1_555
Mg43 Mg66 3.182930 1_555
Mg43 Mg58 3.183077 1_655
Mg43 Mg44 3.185803 1_555
Mg43 Mg73 3.187359 1_555
Mg44 Mg48 3.176742 1_555
Mg44 Mg45 3.181579 1_555
Mg44 Mg67 3.182933 1_555
Mg44 Mg57 3.183090 1_555
Mg44 Mg73 3.187342 1_555
Mg45 Mg66 3.182976 1_555
Mg45 Mg65 3.182985 1_555
Mg45 Mg67 3.183000 1_555
Mg45 Mg6 3.184993 1_554
Mg46 Mg71 3.171581 1_555
Mg46 Mg60 3.179546 1_545
Mg46 Mg61 3.179546 1_655
Mg46 Mg5 3.179807 1_554
Mg47 Mg72 3.171562 1_555
Mg47 Mg59 3.179546 1_545
Mg47 Mg62 3.179568 1_555
Mg48 Mg73 3.171584 1_555
Mg48 Mg64 3.179551 1_655
Mg48 Mg63 3.179565 1_555
Mg49 Mg62 3.179217 1_655
Mg49 Mg63 3.179220 1_545
Mg49 Mg61 3.179260 1_655
Mg49 Mg60 3.179262 1_545
Mg49 Mg59 3.179275 1_645
Mg49 Mg64 3.179276 1_645
Mg49 Mg97 3.192427 1_545
Mg49 Mg74 3.192433 1_655
Mg49 Mg96 3.192455 1_645
Mg50 Mg56 3.181906 1_555
Mg50 Mg55 3.181912 1_555
Mg50 Mg61 3.182833 1_555
Mg50 Mg62 3.182876 1_555
Mg50 Mg68 3.185202 1_555
Mg50 Mg69 3.185247 1_555
Mg50 Mg84 3.186876 1_555
Mg50 Mg80 3.187466 1_555
Mg50 Mg79 3.187471 1_555
Mg51 Mg57 3.181912 1_555
Mg51 Mg54 3.181916 1_555
Mg51 Mg60 3.182835 1_555
Mg51 Mg63 3.182886 1_555
Mg51 Mg68 3.185197 1_555
Mg51 Mg70 3.185234 1_555
Mg51 Mg91 3.186876 1_555
Mg51 Mg94 3.187468 1_555
Mg51 Mg89 3.187481 1_555
Mg52 Mg58 3.181855 1_555
Mg52 Mg53 3.181872 1_555
Mg52 Mg64 3.182864 1_555
Mg52 Mg59 3.182875 1_555
Mg52 Mg69 3.185270 1_555
Mg52 Mg70 3.185276 1_555
Mg52 Mg92 3.186900 1_555
Mg52 Mg90 3.187460 1_555
Mg52 Mg95 3.187469 1_555
Mg53 Mg72 3.182391 1_565
Mg53 Mg95 3.184724 1_555
Mg53 Mg70 3.184910 1_555
Mg53 Mg59 3.185049 1_555
Mg53 Mg65 3.185055 1_565
Mg53 Mg77 3.186121 1_565
Mg53 Mg98 3.187216 1_555
Mg53 Mg54 3.188649 1_555
Mg54 Mg71 3.182322 1_565
Mg54 Mg94 3.184734 1_555
Mg54 Mg70 3.184861 1_555
Mg54 Mg60 3.185043 1_555
Mg54 Mg65 3.185103 1_565
Mg54 Mg78 3.186121 1_565
Mg54 Mg98 3.187213 1_555
Mg55 Mg71 3.182348 1_455
Mg55 Mg80 3.184729 1_555
Mg55 Mg69 3.184845 1_555
Mg55 Mg61 3.185047 1_555
Mg55 Mg66 3.185112 1_455
Mg55 Mg83 3.186135 1_455
Mg55 Mg85 3.187210 1_555
Mg55 Mg58 3.188668 1_555
Mg56 Mg72 3.182392 1_555
Mg56 Mg79 3.184714 1_555
Mg56 Mg68 3.184897 1_555
Mg56 Mg62 3.184995 1_555
Mg56 Mg67 3.185117 1_555
Mg56 Mg82 3.186136 1_555
Mg56 Mg86 3.187204 1_555
Mg56 Mg57 3.188610 1_555
Mg57 Mg73 3.182378 1_555
Mg57 Mg89 3.184715 1_555
Mg57 Mg68 3.184893 1_555
Mg57 Mg63 3.184988 1_555
Mg57 Mg67 3.185111 1_555
Mg57 Mg87 3.186144 1_555
Mg57 Mg86 3.187208 1_555
Mg58 Mg73 3.182390 1_455
Mg58 Mg90 3.184712 1_555
Mg58 Mg69 3.184912 1_555
Mg58 Mg64 3.185035 1_555
Mg58 Mg66 3.185054 1_455
Mg58 Mg88 3.186113 1_455
Mg58 Mg85 3.187227 1_555
Mg59 Mg64 3.177468 1_555
Mg59 Mg62 3.180994 1_565
Mg59 Mg96 3.183277 1_555
Mg59 Mg75 3.185426 1_565
Mg59 Mg95 3.186173 1_555
Mg59 Mg72 3.186669 1_565
Mg60 Mg63 3.177515 1_555
Mg60 Mg61 3.180941 1_665
Mg60 Mg97 3.183276 1_555
Mg60 Mg76 3.185419 1_565
Mg60 Mg94 3.186148 1_555
Mg60 Mg71 3.186725 1_565
Mg61 Mg62 3.177505 1_555
Mg61 Mg74 3.183287 1_555
Mg61 Mg76 3.185423 1_455
Mg61 Mg80 3.186161 1_555
Mg61 Mg71 3.186736 1_455
Mg62 Mg74 3.183265 1_555
Mg62 Mg75 3.185436 1_555
Mg62 Mg79 3.186151 1_555
Mg62 Mg72 3.186728 1_555
Mg63 Mg64 3.180993 1_655
Mg63 Mg97 3.183267 1_555
Mg63 Mg93 3.185439 1_555
Mg63 Mg89 3.186147 1_555
Mg63 Mg73 3.186711 1_555
Mg64 Mg96 3.183277 1_555
Mg64 Mg93 3.185420 1_455
Mg64 Mg90 3.186168 1_555
Mg64 Mg73 3.186670 1_455
Mg65 Mg71 3.183139 1_555
Mg65 Mg72 3.183144 1_555
Mg65 Mg66 3.183167 1_555
Mg65 Mg67 3.183214 1_555
Mg65 Mg77 3.184057 1_555
Mg65 Mg78 3.184092 1_555
Mg65 Mg81 3.184388 1_555
Mg66 Mg71 3.183154 1_555
Mg66 Mg73 3.183155 1_555
Mg66 Mg67 3.183200 1_555
Mg66 Mg88 3.184070 1_555
Mg66 Mg83 3.184097 1_555
Mg66 Mg81 3.184401 1_555
Mg67 Mg73 3.183088 1_555
Mg67 Mg72 3.183110 1_555
Mg67 Mg87 3.184056 1_555
Mg67 Mg82 3.184075 1_555
Mg67 Mg81 3.184415 1_555
Mg68 Mg70 3.182675 1_555
Mg68 Mg69 3.182683 1_555
Mg68 Mg91 3.184753 1_555
Mg68 Mg84 3.184760 1_555
Mg68 Mg86 3.185201 1_555
Mg69 Mg70 3.182633 1_555
Mg69 Mg92 3.184762 1_555
Mg69 Mg84 3.184768 1_555
Mg69 Mg85 3.185197 1_555
Mg70 Mg92 3.184758 1_555
Mg70 Mg91 3.184759 1_555
Mg70 Mg98 3.185196 1_555
Mg71 Mg83 3.183722 1_555
Mg71 Mg78 3.183723 1_555
Mg71 Mg76 3.183895 1_555
Mg72 Mg82 3.183735 1_555
Mg72 Mg77 3.183738 1_555
Mg72 Mg75 3.183892 1_555
Mg73 Mg87 3.183709 1_555
Mg73 Mg88 3.183742 1_555
Mg73 Mg93 3.183868 1_555
Mg74 Mg97 3.180558 1_445
Mg74 Mg96 3.180602 1_545
Mg74 Mg75 3.182412 1_555
Mg74 Mg76 3.182436 1_455
Mg74 Mg79 3.184222 1_555
Mg74 Mg80 3.184288 1_555
Mg75 Mg79 3.181513 1_555
Mg75 Mg95 3.181525 1_545
Mg75 Mg96 3.182373 1_545
Mg75 Mg82 3.185703 1_555
Mg75 Mg77 3.185759 1_555
Mg76 Mg80 3.181468 1_655
Mg76 Mg94 3.181469 1_545
Mg76 Mg97 3.182430 1_545
Mg76 Mg99 3.183896 1_555
Mg76 Mg83 3.185737 1_555
Mg76 Mg78 3.185743 1_555
Mg77 Mg78 3.180896 1_555
Mg77 Mg98 3.181187 1_545
Mg77 Mg95 3.182146 1_545
Mg77 Mg81 3.183316 1_555
Mg77 Mg82 3.185859 1_555
Mg78 Mg98 3.181134 1_545
Mg78 Mg94 3.182182 1_545
Mg78 Mg81 3.183372 1_555
Mg78 Mg99 3.183713 1_555
Mg78 Mg83 3.185799 1_555
Mg79 Mg82 3.182184 1_555
Mg79 Mg84 3.183438 1_555
Mg79 Mg86 3.183994 1_555
Mg79 Mg80 3.186128 1_555
Mg80 Mg83 3.182184 1_455
Mg80 Mg84 3.183379 1_555
Mg80 Mg85 3.184034 1_555
Mg81 Mg88 3.183334 1_555
Mg81 Mg83 3.183365 1_555
Mg81 Mg87 3.183381 1_555
Mg81 Mg82 3.183388 1_555
Mg82 Mg87 3.180839 1_555
Mg82 Mg86 3.181180 1_555
Mg83 Mg88 3.180900 1_555
Mg83 Mg85 3.181144 1_655
Mg83 Mg99 3.183717 1_555
Mg84 Mg85 3.184503 1_555
Mg84 Mg86 3.184516 1_555
Mg84 Mg91 3.187299 1_555
Mg84 Mg92 3.187346 1_555
Mg85 Mg88 3.181176 1_455
Mg85 Mg90 3.184054 1_555
Mg85 Mg92 3.184462 1_555
Mg86 Mg87 3.181189 1_555
Mg86 Mg89 3.184002 1_555
Mg86 Mg91 3.184516 1_555
Mg87 Mg89 3.182206 1_555
Mg87 Mg93 3.185711 1_555
Mg87 Mg88 3.185861 1_555
Mg88 Mg90 3.182138 1_655
Mg88 Mg93 3.185757 1_555
Mg89 Mg93 3.181525 1_555
Mg89 Mg91 3.183433 1_555
Mg89 Mg97 3.184224 1_555
Mg89 Mg94 3.186116 1_555
Mg90 Mg93 3.181511 1_455
Mg90 Mg92 3.183429 1_555
Mg90 Mg96 3.184275 1_555
Mg90 Mg95 3.186068 1_555
Mg91 Mg94 3.183385 1_555
Mg91 Mg98 3.184513 1_555
Mg91 Mg92 3.187349 1_555
Mg92 Mg95 3.183432 1_555
Mg92 Mg98 3.184460 1_555
Mg93 Mg96 3.182373 1_655
Mg93 Mg97 3.182429 1_555
Mg94 Mg98 3.184052 1_555
Mg94 Mg97 3.184274 1_555
Mg95 Mg98 3.184041 1_555
Mg95 Mg96 3.184273 1_555
Mg96 Mg97 3.180606 1_455
Mg100 Mg125 3.171571 1_555
Mg100 Mg114 3.182386 1_545
Mg100 Mg117 3.182391 1_555
Mg100 Mg107 3.183110 1_555
Mg100 Mg105 3.183150 1_555
Mg100 Mg82 3.183727 1_555
Mg100 Mg77 3.183741 1_555
Mg100 Mg75 3.183879 1_555
Mg100 Mg108 3.186664 1_545
Mg100 Mg111 3.186723 1_555
Mg100 Mg131 3.187325 1_555
Mg100 Mg128 3.187347 1_555
Mg101 Mg126 3.171573 1_555
Mg101 Mg118 3.182372 1_555
Mg101 Mg119 3.182385 1_655
Mg101 Mg107 3.183090 1_555
Mg101 Mg106 3.183159 1_555
Mg101 Mg87 3.183722 1_555
Mg101 Mg88 3.183746 1_555
Mg101 Mg93 3.183882 1_555
Mg101 Mg113 3.186668 1_655
Mg101 Mg112 3.186719 1_555
Mg101 Mg133 3.187323 1_555
Mg101 Mg132 3.187331 1_555
Mg102 Mg103 3.182683 1_555
Mg102 Mg104 3.182683 1_555
Mg102 Mg84 3.184753 1_555
Mg102 Mg91 3.184764 1_555
Mg102 Mg117 3.184894 1_555
Mg102 Mg118 3.184906 1_555
Mg102 Mg120 3.185197 1_555
Mg102 Mg86 3.185211 1_555
Mg102 Mg121 3.185217 1_555
Mg102 Mg135 3.185694 1_555
Mg102 Mg137 3.186673 1_555
Mg102 Mg138 3.186682 1_555
Mg103 Mg104 3.182647 1_555
Mg103 Mg84 3.184756 1_555
Mg103 Mg92 3.184759 1_555
Mg103 Mg116 3.184850 1_555
Mg103 Mg119 3.184910 1_555
Mg103 Mg85 3.185190 1_555
Mg103 Mg120 3.185240 1_555
Mg103 Mg122 3.185261 1_555
Mg103 Mg134 3.185682 1_555
Mg103 Mg139 3.186684 1_555
Mg103 Mg137 3.186698 1_555
Mg104 Mg91 3.184759 1_555
Mg104 Mg92 3.184761 1_555
Mg104 Mg115 3.184858 1_555
Mg104 Mg114 3.184910 1_555
Mg104 Mg98 3.185200 1_555
Mg104 Mg121 3.185241 1_555
Mg104 Mg122 3.185275 1_555
Mg104 Mg136 3.185688 1_555
Mg104 Mg138 3.186677 1_555
Mg104 Mg139 3.186682 1_555
Mg105 Mg128 3.182949 1_555
Mg105 Mg129 3.182955 1_555
Mg105 Mg127 3.182991 1_555
Mg105 Mg99 3.183141 1_555
Mg105 Mg106 3.183165 1_555
Mg105 Mg107 3.183229 1_555
Mg105 Mg77 3.184064 1_555
Mg105 Mg78 3.184070 1_555
Mg105 Mg81 3.184397 1_555
Mg105 Mg114 3.185060 1_545
Mg105 Mg115 3.185090 1_545
Mg106 Mg132 3.182938 1_555
Mg106 Mg130 3.182958 1_555
Mg106 Mg127 3.182993 1_555
Mg106 Mg99 3.183146 1_555
Mg106 Mg107 3.183211 1_555
Mg106 Mg88 3.184057 1_555
Mg106 Mg83 3.184067 1_555
Mg106 Mg81 3.184385 1_555
Mg106 Mg119 3.185070 1_655
Mg106 Mg116 3.185114 1_655
Mg107 Mg133 3.182928 1_555
Mg107 Mg131 3.182941 1_555
Mg107 Mg127 3.183008 1_555
Mg107 Mg87 3.184055 1_555
Mg107 Mg82 3.184064 1_555
Mg107 Mg81 3.184421 1_555
Mg107 Mg118 3.185103 1_555
Mg107 Mg117 3.185106 1_555
Mg108 Mg113 3.177474 1_555
Mg108 Mg123 3.179273 1_555
Mg108 Mg125 3.179557 1_565
Mg108 Mg111 3.181011 1_565
Mg108 Mg122 3.182881 1_555
Mg108 Mg96 3.183259 1_555
Mg108 Mg145 3.184103 1_555
Mg108 Mg114 3.185028 1_555
Mg108 Mg75 3.185415 1_565
Mg108 Mg95 3.186147 1_555
Mg108 Mg148 3.198705 1_555
Mg109 Mg112 3.177517 1_555
Mg109 Mg123 3.179271 1_655
Mg109 Mg124 3.179553 1_565
Mg109 Mg110 3.180939 1_665
Mg109 Mg121 3.182827 1_555
Mg109 Mg97 3.183287 1_555
Mg109 Mg144 3.184100 1_555
Mg109 Mg115 3.185041 1_555
Mg109 Mg76 3.185424 1_565
Mg109 Mg94 3.186147 1_555
Mg109 Mg99 3.186719 1_565
Mg109 Mg147 3.198699 1_555
Mg110 Mg111 3.177523 1_555
Mg110 Mg123 3.179285 1_545
Mg110 Mg124 3.179566 1_455
Mg110 Mg120 3.182828 1_555
Mg110 Mg74 3.183283 1_555
Mg110 Mg140 3.184114 1_555
Mg110 Mg116 3.185018 1_555
Mg110 Mg76 3.185408 1_455
Mg110 Mg80 3.186136 1_555
Mg110 Mg99 3.186716 1_455
Mg110 Mg146 3.198711 1_555
Mg111 Mg123 3.179234 1_545
Mg111 Mg125 3.179584 1_555
Mg111 Mg120 3.182868 1_555
Mg111 Mg74 3.183258 1_555
Mg111 Mg141 3.184093 1_555
Mg111 Mg117 3.184978 1_555
Mg111 Mg75 3.185426 1_555
Mg111 Mg79 3.186131 1_555
Mg111 Mg146 3.198697 1_555
Mg112 Mg123 3.179219 1_655
Mg112 Mg126 3.179577 1_555
Mg112 Mg113 3.180985 1_655
Mg112 Mg121 3.182874 1_555
Mg112 Mg97 3.183268 1_555
Mg112 Mg142 3.184107 1_555
Mg112 Mg118 3.184983 1_555
Mg112 Mg93 3.185429 1_555
Mg112 Mg89 3.186140 1_555
Mg112 Mg147 3.198693 1_555
Mg113 Mg123 3.179263 1_555
Mg113 Mg126 3.179555 1_455
Mg113 Mg122 3.182879 1_555
Mg113 Mg96 3.183260 1_555
Mg113 Mg143 3.184115 1_555
Mg113 Mg119 3.185030 1_555
Mg113 Mg93 3.185402 1_455
Mg113 Mg90 3.186153 1_555
Mg113 Mg148 3.198701 1_555
Mg114 Mg122 3.181865 1_555
Mg114 Mg128 3.183087 1_565
Mg114 Mg95 3.184694 1_555
Mg114 Mg136 3.184914 1_555
Mg114 Mg77 3.186125 1_565
Mg114 Mg98 3.187213 1_555
Mg114 Mg115 3.188665 1_555
Mg114 Mg145 3.188929 1_555
Mg115 Mg121 3.181919 1_555
Mg115 Mg99 3.182320 1_565
Mg115 Mg129 3.183065 1_565
Mg115 Mg94 3.184728 1_555
Mg115 Mg136 3.184894 1_555
Mg115 Mg78 3.186104 1_565
Mg115 Mg98 3.187216 1_555
Mg115 Mg144 3.188949 1_555
Mg116 Mg120 3.181900 1_555
Mg116 Mg99 3.182335 1_455
Mg116 Mg130 3.183073 1_455
Mg116 Mg80 3.184711 1_555
Mg116 Mg134 3.184894 1_555
Mg116 Mg83 3.186121 1_455
Mg116 Mg85 3.187215 1_555
Mg116 Mg119 3.188690 1_555
Mg116 Mg140 3.188943 1_555
Mg117 Mg120 3.181916 1_555
Mg117 Mg131 3.183078 1_555
Mg117 Mg79 3.184711 1_555
Mg117 Mg135 3.184893 1_555
Mg117 Mg82 3.186130 1_555
Mg117 Mg86 3.187211 1_555
Mg117 Mg118 3.188618 1_555
Mg117 Mg141 3.188927 1_555
Mg118 Mg121 3.181915 1_555
Mg118 Mg133 3.183074 1_555
Mg118 Mg89 3.184716 1_555
Mg118 Mg135 3.184894 1_555
Mg118 Mg87 3.186140 1_555
Mg118 Mg86 3.187216 1_555
Mg118 Mg142 3.188920 1_555
Mg119 Mg122 3.181843 1_555
Mg119 Mg132 3.183048 1_455
Mg119 Mg90 3.184710 1_555
Mg119 Mg134 3.184900 1_555
Mg119 Mg88 3.186119 1_455
Mg119 Mg85 3.187237 1_555
Mg119 Mg143 3.188913 1_555
Mg120 Mg137 3.181935 1_555
Mg120 Mg84 3.186871 1_555
Mg120 Mg80 3.187456 1_555
Mg120 Mg79 3.187478 1_555
Mg120 Mg140 3.188606 1_555
Mg120 Mg141 3.188625 1_555
Mg121 Mg138 3.181932 1_555
Mg121 Mg91 3.186886 1_555
Mg121 Mg94 3.187468 1_555
Mg121 Mg89 3.187483 1_555
Mg121 Mg144 3.188591 1_555
Mg121 Mg142 3.188609 1_555
Mg122 Mg139 3.181943 1_555
Mg122 Mg92 3.186889 1_555
Mg122 Mg90 3.187454 1_555
Mg122 Mg95 3.187466 1_555
Mg122 Mg143 3.188588 1_555
Mg122 Mg145 3.188598 1_555
Mg123 Mg147 3.180481 1_455
Mg123 Mg146 3.180482 1_565
Mg123 Mg148 3.180496 1_555
Mg123 Mg74 3.192447 1_565
Mg123 Mg97 3.192447 1_455
Mg123 Mg96 3.192451 1_555
Mg124 Mg99 3.171583 1_555
Mg124 Mg144 3.174766 1_545
Mg124 Mg140 3.174778 1_655
Mg124 Mg130 3.176778 1_555
Mg124 Mg129 3.176779 1_555
Mg124 Mg5 3.179796 1_555
Mg124 Mg3 3.185942 1_556
Mg124 Mg147 3.193363 1_545
Mg124 Mg146 3.193364 1_655
Mg125 Mg145 3.174811 1_545
Mg125 Mg141 3.174816 1_555
Mg125 Mg131 3.176729 1_555
Mg125 Mg128 3.176774 1_555
Mg125 Mg4 3.179783 1_555
Mg125 Mg2 3.185945 1_555
Mg125 Mg148 3.193309 1_545
Mg125 Mg146 3.193364 1_555
Mg126 Mg143 3.174812 1_655
Mg126 Mg142 3.174825 1_555
Mg126 Mg133 3.176742 1_555
Mg126 Mg132 3.176781 1_555
Mg126 Mg16 3.179782 1_555
Mg126 Mg20 3.185924 1_555
Mg126 Mg21 3.185965 1_556
Mg126 Mg148 3.193302 1_655
Mg126 Mg147 3.193360 1_555
Mg127 Mg128 3.181533 1_555
Mg127 Mg132 3.181534 1_555
Mg127 Mg130 3.181567 1_555
Mg127 Mg129 3.181577 1_555
Mg127 Mg133 3.181585 1_555
Mg127 Mg131 3.181586 1_555
Mg127 Mg6 3.184987 1_555
Mg128 Mg129 3.177341 1_555
Mg128 Mg6 3.180329 1_555
Mg128 Mg136 3.182610 1_545
Mg128 Mg23 3.182872 1_545
Mg128 Mg145 3.185770 1_545
Mg128 Mg131 3.185813 1_555
Mg128 Mg4 3.186140 1_555
Mg129 Mg6 3.180340 1_555
Mg129 Mg136 3.182550 1_545
Mg129 Mg22 3.182875 1_545
Mg129 Mg130 3.185765 1_555
Mg129 Mg144 3.185823 1_545
Mg129 Mg5 3.186139 1_555
Mg129 Mg99 3.187335 1_555
Mg130 Mg132 3.177346 1_555
Mg130 Mg134 3.182568 1_655
Mg130 Mg9 3.182883 1_655
Mg130 Mg140 3.185832 1_655
Mg130 Mg5 3.186126 1_555
Mg130 Mg99 3.187327 1_555
Mg131 Mg133 3.177293 1_555
Mg131 Mg135 3.182615 1_555
Mg131 Mg8 3.182906 1_556
Mg131 Mg141 3.185811 1_555
Mg131 Mg4 3.186136 1_555
Mg132 Mg134 3.182605 1_655
Mg132 Mg15 3.182895 1_656
Mg132 Mg143 3.185772 1_655
Mg132 Mg133 3.185817 1_555
Mg132 Mg16 3.186162 1_555
Mg133 Mg135 3.182605 1_555
Mg133 Mg14 3.182906 1_556
Mg133 Mg142 3.185820 1_555
Mg133 Mg16 3.186139 1_555
Mg134 Mg139 3.183061 1_555
Mg134 Mg137 3.183125 1_555
Mg134 Mg9 3.183411 1_555
Mg134 Mg15 3.183443 1_556
Mg134 Mg143 3.192642 1_555
Mg134 Mg140 3.192643 1_555
Mg135 Mg137 3.183102 1_555
Mg135 Mg138 3.183118 1_555
Mg135 Mg14 3.183419 1_556
Mg135 Mg8 3.183429 1_556
Mg135 Mg142 3.192580 1_555
Mg135 Mg141 3.192594 1_555
Mg136 Mg17 3.180577 1_556
Mg136 Mg139 3.183064 1_555
Mg136 Mg138 3.183106 1_555
Mg136 Mg22 3.183412 1_555
Mg136 Mg23 3.183435 1_555
Mg136 Mg144 3.192640 1_555
Mg136 Mg145 3.192646 1_555
Mg137 Mg140 3.188783 1_555
Mg137 Mg141 3.188838 1_555
Mg137 Mg7 3.189593 1_556
Mg137 Mg138 3.190057 1_555
Mg137 Mg139 3.190121 1_555
Mg138 Mg17 3.183112 1_556
Mg138 Mg144 3.188788 1_555
Mg138 Mg142 3.188843 1_555
Mg138 Mg18 3.189599 1_556
Mg138 Mg139 3.190102 1_555
Mg139 Mg17 3.183107 1_556
Mg139 Mg143 3.188836 1_555
Mg139 Mg145 3.188840 1_555
Mg139 Mg19 3.189618 1_556
Mg140 Mg7 3.175728 1_556
Mg140 Mg9 3.179480 1_555
Mg140 Mg141 3.182512 1_555
Mg140 Mg146 3.186686 1_555
Mg140 Mg3 3.188064 1_456
Mg141 Mg7 3.175749 1_556
Mg141 Mg8 3.179471 1_556
Mg141 Mg146 3.186635 1_555
Mg141 Mg2 3.188060 1_555
Mg142 Mg18 3.175750 1_556
Mg142 Mg144 3.182512 1_555
Mg142 Mg147 3.186646 1_555
Mg142 Mg21 3.188074 1_556
Mg143 Mg19 3.175741 1_556
Mg143 Mg15 3.179483 1_556
Mg143 Mg145 3.182452 1_555
Mg143 Mg148 3.186685 1_555
Mg143 Mg20 3.188089 1_455
Mg144 Mg18 3.175736 1_556
Mg144 Mg22 3.179485 1_555
Mg144 Mg147 3.186685 1_555
Mg145 Mg19 3.175744 1_556
Mg145 Mg23 3.179477 1_555
Mg145 Mg148 3.186684 1_555
Mg146 Mg147 3.158595 1_445
Mg146 Mg148 3.158648 1_545
Mg146 Mg2 3.165821 1_555
Mg146 Mg3 3.165850 1_456
Mg147 Mg148 3.158640 1_655
Mg147 Mg21 3.165832 1_556
Mg148 Mg20 3.165810 1_455
Hg0 Mg2 3.159786 1_565
Hg0 Mg21 3.159789 1_456
Hg0 Mg20 3.159827 1_455
Hg0 Mg3 3.159844 1_466
Hg0 Mg0 3.159851 1_466
Hg0 Mg1 3.159855 1_565
Hg0 Mg147 3.161143 1_455
Hg0 Mg25 3.161144 1_456
Hg0 Mg24 3.161146 1_566
Hg0 Mg146 3.161148 1_565
Hg0 Mg148 3.161152 1_555
Hg0 Mg26 3.161161 1_556
