# generated using pymatgen
data_Nd(Co2B)6
_symmetry_space_group_name_H-M   'P 1'
_cell_length_a   5.95233258
_cell_length_b   5.95237466
_cell_length_c   5.95234079
_cell_angle_alpha   104.09649456
_cell_angle_beta   104.09628482
_cell_angle_gamma   104.09651113
_symmetry_Int_Tables_number   1
_chemical_formula_structural   Nd(Co2B)6
_chemical_formula_sum   'Nd1 Co12 B6'
_cell_volume   187.82031180
_cell_formula_units_Z   1
loop_
 _symmetry_equiv_pos_site_id
 _symmetry_equiv_pos_as_xyz
  1  'x, y, z'
loop_
 _atom_site_type_symbol
 _atom_site_label
 _atom_site_symmetry_multiplicity
 _atom_site_fract_x
 _atom_site_fract_y
 _atom_site_fract_z
 _atom_site_occupancy
  Nd  Nd0  1  -0.00000000  -0.00000000  -0.00000000  1
  Co  Co0  1  0.53950974  0.81372860  0.53950727  1
  Co  Co1  1  0.53951507  0.53950689  0.81373826  1
  Co  Co2  1  0.81373855  0.53950912  0.53951478  1
  Co  Co3  1  0.46049026  0.18627140  0.46049273  1
  Co  Co4  1  0.46048493  0.46049311  0.18626174  1
  Co  Co5  1  0.18626145  0.46049088  0.46048522  1
  Co  Co6  1  0.13348869  0.86646715  0.49998485  1
  Co  Co7  1  0.50000775  0.13352901  0.86650179  1
  Co  Co8  1  0.86649919  0.50000288  0.13350938  1
  Co  Co9  1  0.49999225  0.86647099  0.13349821  1
  Co  Co10  1  0.13350081  0.49999712  0.86649062  1
  Co  Co11  1  0.86651131  0.13353285  0.50001515  1
  B  B0  1  0.77022005  0.32655879  0.77021750  1
  B  B1  1  0.77022008  0.77021014  0.32655636  1
  B  B2  1  0.32655726  0.77021072  0.77021825  1
  B  B3  1  0.22977995  0.67344121  0.22978250  1
  B  B4  1  0.22977992  0.22978986  0.67344364  1
  B  B5  1  0.67344274  0.22978928  0.22978175  1
loop_
_geom_bond_atom_site_label_1
_geom_bond_atom_site_label_2
_geom_bond_distance
_geom_bond_site_symmetry_2
Co0 Nd0 3.104044 1_666
Co1 Nd0 3.104035 1_666
Co2 Nd0 3.104031 1_666
Co3 Nd0 3.104044 1_555
Co4 Nd0 3.104035 1_555
Co5 Nd0 3.104031 1_555
Co6 Nd0 3.229273 1_565
Co6 Nd0 3.229313 1_566
Co7 Nd0 3.229298 1_556
Co7 Nd0 3.229302 1_656
Co8 Nd0 3.229282 1_665
Co8 Nd0 3.229290 1_655
Co9 Nd0 3.229298 1_665
Co9 Nd0 3.229302 1_565
Co10 Nd0 3.229282 1_556
Co10 Nd0 3.229290 1_566
Co11 Nd0 3.229273 1_656
Co11 Nd0 3.229313 1_655
B0 Co10 2.022580 1_655
B0 Co8 2.022644 1_556
B0 Co11 2.026089 1_555
B0 Co7 2.026115 1_555
B0 Co3 2.083176 1_555
B0 Co2 2.102560 1_555
B0 Co1 2.102562 1_555
B0 Nd0 3.032921 1_656
B1 Co6 2.022516 1_655
B1 Co11 2.022821 1_565
B1 Co8 2.026126 1_555
B1 Co9 2.026176 1_555
B1 Co4 2.083169 1_555
B1 Co2 2.102590 1_555
B1 Co0 2.102592 1_555
B1 Nd0 3.032918 1_665
B2 Co9 2.022583 1_556
B2 Co7 2.022793 1_565
B2 Co10 2.026153 1_555
B2 Co6 2.026212 1_555
B2 Co5 2.083173 1_555
B2 Co1 2.102601 1_555
B2 Co0 2.102601 1_555
B2 Nd0 3.032926 1_566
B3 Co8 2.022580 1_455
B3 Co10 2.022644 1_554
B3 Co6 2.026089 1_555
B3 Co9 2.026115 1_555
B3 Co0 2.083176 1_555
B3 Co5 2.102560 1_555
B3 Co4 2.102562 1_555
B3 Nd0 3.032921 1_565
B4 Co11 2.022516 1_455
B4 Co6 2.022821 1_545
B4 Co10 2.026126 1_555
B4 Co7 2.026176 1_555
B4 Co1 2.083169 1_555
B4 Co5 2.102590 1_555
B4 Co3 2.102592 1_555
B4 Nd0 3.032918 1_556
B5 Co7 2.022583 1_554
B5 Co9 2.022793 1_545
B5 Co8 2.026153 1_555
B5 Co11 2.026212 1_555
B5 Co2 2.083173 1_555
B5 Co4 2.102601 1_555
B5 Co3 2.102601 1_555
B5 Nd0 3.032926 1_655
