# generated using pymatgen
data_Pb2IOF
_symmetry_space_group_name_H-M   'P 1'
_cell_length_a   7.51310668
_cell_length_b   7.51310668
_cell_length_c   6.02855200
_cell_angle_alpha   90.00000000
_cell_angle_beta   90.00000000
_cell_angle_gamma   132.88430634
_symmetry_Int_Tables_number   1
_chemical_formula_structural   Pb2IOF
_chemical_formula_sum   'Pb4 I2 O2 F2'
_cell_volume   249.34214718
_cell_formula_units_Z   2
loop_
 _symmetry_equiv_pos_site_id
 _symmetry_equiv_pos_as_xyz
  1  'x, y, z'
loop_
 _atom_site_type_symbol
 _atom_site_label
 _atom_site_symmetry_multiplicity
 _atom_site_fract_x
 _atom_site_fract_y
 _atom_site_fract_z
 _atom_site_occupancy
  Pb  Pb0  1  0.40748800  0.59251200  0.21911300  1
  Pb  Pb1  1  0.59251200  0.40748800  0.78088700  1
  Pb  Pb2  1  0.09251200  0.90748800  0.21911300  1
  Pb  Pb3  1  0.90748800  0.09251200  0.78088700  1
  I  I0  1  0.75000000  0.25000000  0.24127900  1
  I  I1  1  0.25000000  0.75000000  0.75872100  1
  O  O0  1  0.25000000  0.25000000  0.00000000  1
  O  O1  1  0.75000000  0.75000000  0.00000000  1
  F  F0  1  0.25000000  0.25000000  0.50000000  1
  F  F1  1  0.75000000  0.75000000  0.50000000  1
loop_
_geom_bond_atom_site_label_1
_geom_bond_atom_site_label_2
_geom_bond_distance
_geom_bond_site_symmetry_2
I0 Pb1 3.522628 1_554
I0 Pb3 3.522628 1_554
I1 Pb2 3.522628 1_556
I1 Pb0 3.522628 1_556
O0 Pb0 2.371240 1_555
O0 Pb1 2.371240 1_554
O0 Pb3 2.371240 1_454
O0 Pb2 2.371240 1_545
O1 Pb3 2.371240 1_564
O1 Pb2 2.371240 1_655
O1 Pb0 2.371240 1_555
O1 Pb1 2.371240 1_554
F0 Pb1 2.597175 1_555
F0 Pb0 2.597175 1_555
F0 Pb3 2.597175 1_455
F0 Pb2 2.597175 1_545
F1 Pb3 2.597175 1_565
F1 Pb2 2.597175 1_655
F1 Pb0 2.597175 1_555
F1 Pb1 2.597175 1_555
