# generated using pymatgen
data_PtCN2
_symmetry_space_group_name_H-M   'P 1'
_cell_length_a   5.07344146
_cell_length_b   5.07344035
_cell_length_c   5.07344056
_cell_angle_alpha   38.85430080
_cell_angle_beta   38.85429688
_cell_angle_gamma   38.85430054
_symmetry_Int_Tables_number   1
_chemical_formula_structural   PtCN2
_chemical_formula_sum   'Pt1 C1 N2'
_cell_volume   46.20724141
_cell_formula_units_Z   1
loop_
 _symmetry_equiv_pos_site_id
 _symmetry_equiv_pos_as_xyz
  1  'x, y, z'
loop_
 _atom_site_type_symbol
 _atom_site_label
 _atom_site_symmetry_multiplicity
 _atom_site_fract_x
 _atom_site_fract_y
 _atom_site_fract_z
 _atom_site_occupancy
  Pt  Pt0  1  0.00000000  0.00000000  0.00000000  1
  C  C0  1  0.50000000  0.50000000  0.50000000  1
  N  N0  1  0.58905600  0.58905600  0.58905600  1
  N  N1  1  0.41094400  0.41094400  0.41094400  1
loop_
_geom_bond_atom_site_label_1
_geom_bond_atom_site_label_2
_geom_bond_distance
_geom_bond_site_symmetry_2
C0 N0 1.251507 1_555
C0 N1 1.251507 1_555
N0 Pt0 2.232997 1_566
N0 Pt0 2.232997 1_665
N0 Pt0 2.232998 1_656
N1 Pt0 2.232997 1_655
N1 Pt0 2.232997 1_556
N1 Pt0 2.232998 1_565
