# generated using pymatgen
data_Nb3Os2
_symmetry_space_group_name_H-M   'P 1'
_cell_length_a   5.08829493
_cell_length_b   9.91352771
_cell_length_c   9.91352771
_cell_angle_alpha   89.81373619
_cell_angle_beta   90.00000000
_cell_angle_gamma   90.00000000
_symmetry_Int_Tables_number   1
_chemical_formula_structural   Nb3Os2
_chemical_formula_sum   'Nb18 Os12'
_cell_volume   500.06496737
_cell_formula_units_Z   6
loop_
 _symmetry_equiv_pos_site_id
 _symmetry_equiv_pos_as_xyz
  1  'x, y, z'
loop_
 _atom_site_type_symbol
 _atom_site_label
 _atom_site_symmetry_multiplicity
 _atom_site_fract_x
 _atom_site_fract_y
 _atom_site_fract_z
 _atom_site_occupancy
  Nb  Nb0  1  0.50384412  0.10474873  0.89525127  1
  Nb  Nb1  1  0.50384412  0.89525127  0.10474873  1
  Nb  Nb2  1  0.99134717  0.39811271  0.39811271  1
  Nb  Nb3  1  0.99134717  0.60188729  0.60188729  1
  Nb  Nb4  1  0.50150038  0.37185959  0.96117037  1
  Nb  Nb5  1  0.50150038  0.62814041  0.03882963  1
  Nb  Nb6  1  0.00363208  0.12921366  0.46564624  1
  Nb  Nb7  1  0.00363208  0.87078634  0.53435376  1
  Nb  Nb8  1  0.50150038  0.96117037  0.37185959  1
  Nb  Nb9  1  0.50150038  0.03882963  0.62814041  1
  Nb  Nb10  1  0.00363208  0.46564624  0.12921366  1
  Nb  Nb11  1  0.00363208  0.53435376  0.87078634  1
  Nb  Nb12  1  0.75023972  0.18106489  0.18106489  1
  Nb  Nb13  1  0.75023972  0.81893511  0.81893511  1
  Nb  Nb14  1  0.75201524  0.68024866  0.31975134  1
  Nb  Nb15  1  0.75201524  0.31975134  0.68024866  1
  Nb  Nb16  1  0.25053103  0.81861619  0.81861619  1
  Nb  Nb17  1  0.25053103  0.18138381  0.18138381  1
  Os  Os0  1  0.47321332  0.50000000  0.50000000  1
  Os  Os1  1  0.00158796  0.00000000  0.00000000  1
  Os  Os2  1  0.49952591  0.43516692  0.24440094  1
  Os  Os3  1  0.49952591  0.56483308  0.75559906  1
  Os  Os4  1  0.00271623  0.07130302  0.74149645  1
  Os  Os5  1  0.00271623  0.92869698  0.25850355  1
  Os  Os6  1  0.49952591  0.24440094  0.43516692  1
  Os  Os7  1  0.49952591  0.75559906  0.56483308  1
  Os  Os8  1  0.00271623  0.74149645  0.07130302  1
  Os  Os9  1  0.00271623  0.25850355  0.92869698  1
  Os  Os10  1  0.24987691  0.31933540  0.68066460  1
  Os  Os11  1  0.24987691  0.68066460  0.31933540  1
loop_
_geom_bond_atom_site_label_1
_geom_bond_atom_site_label_2
_geom_bond_distance
_geom_bond_site_symmetry_2
Nb0 Nb4 2.729543 1_555
Nb0 Nb9 2.729543 1_555
Nb0 Os1 2.926442 1_656
Nb0 Nb1 2.932344 1_546
Nb0 Os1 2.946335 1_556
Nb0 Os9 2.979947 1_655
Nb0 Os4 2.979947 1_655
Nb0 Os9 2.989731 1_555
Nb0 Os4 2.989731 1_555
Nb0 Nb12 3.191622 1_556
Nb0 Nb13 3.191622 1_545
Nb0 Nb17 3.209165 1_556
Nb0 Nb16 3.209165 1_545
Nb0 Nb15 3.263598 1_555
Nb0 Os10 3.269773 1_555
Nb1 Nb8 2.729543 1_555
Nb1 Nb5 2.729543 1_555
Nb1 Os1 2.926442 1_665
Nb1 Os1 2.946335 1_565
Nb1 Os5 2.979947 1_655
Nb1 Os8 2.979947 1_655
Nb1 Os5 2.989731 1_555
Nb1 Os8 2.989731 1_555
Nb1 Nb12 3.191622 1_565
Nb1 Nb13 3.191622 1_554
Nb1 Nb17 3.209165 1_565
Nb1 Nb16 3.209165 1_554
Nb1 Nb14 3.263598 1_555
Nb1 Os11 3.269773 1_555
Nb2 Nb6 2.747124 1_655
Nb2 Os0 2.838800 1_655
Nb2 Nb3 2.861528 1_555
Nb2 Os2 2.952289 1_555
Nb2 Os6 2.952289 1_555
Nb2 Os0 2.999631 1_555
Nb2 Os6 3.023163 1_655
Nb2 Os2 3.023163 1_655
Nb2 Os10 3.189394 1_655
Nb2 Os11 3.189394 1_655
Nb3 Nb7 2.747124 1_655
Nb3 Os0 2.838800 1_655
Nb3 Os3 2.952289 1_555
Nb3 Os7 2.952289 1_555
Nb3 Os0 2.999631 1_555
Nb3 Os3 3.023163 1_655
Nb3 Os7 3.023163 1_655
Nb3 Os11 3.189394 1_655
Nb3 Os10 3.189394 1_655
Nb4 Nb5 2.657125 1_556
Nb4 Os3 2.790644 1_555
Nb4 Os9 2.794650 1_555
Nb4 Os9 2.805891 1_655
Nb4 Os2 2.879107 1_556
Nb4 Os10 3.106873 1_555
Nb5 Os2 2.790644 1_555
Nb5 Os8 2.794650 1_555
Nb5 Os8 2.805891 1_655
Nb5 Os3 2.879107 1_554
Nb5 Os11 3.106873 1_555
Nb6 Os6 2.785647 1_555
Nb6 Os4 2.792437 1_555
Nb6 Os6 2.823553 1_455
Nb6 Os5 2.862681 1_545
Nb7 Os7 2.785647 1_555
Nb7 Os5 2.792437 1_555
Nb7 Os7 2.823553 1_455
Nb7 Os4 2.862681 1_565
Nb8 Nb9 2.657125 1_565
Nb8 Os7 2.790644 1_555
Nb8 Os5 2.794650 1_555
Nb8 Os5 2.805891 1_655
Nb8 Os6 2.879107 1_565
Nb8 Os11 3.106873 1_555
Nb9 Os6 2.790644 1_555
Nb9 Os4 2.794650 1_555
Nb9 Os4 2.805891 1_655
Nb9 Os7 2.879107 1_545
Nb9 Os10 3.106873 1_555
Nb10 Nb2 2.747124 1_455
Nb10 Os2 2.785647 1_555
Nb10 Os8 2.792437 1_555
Nb10 Os2 2.823553 1_455
Nb10 Os9 2.862681 1_554
Nb11 Nb3 2.747124 1_455
Nb11 Os3 2.785647 1_555
Nb11 Os9 2.792437 1_555
Nb11 Os3 2.823553 1_455
Nb11 Os8 2.862681 1_556
Nb12 Nb17 2.542669 1_555
Nb12 Nb17 2.545634 1_655
Nb12 Os1 2.846157 1_655
Nb12 Os6 2.894399 1_555
Nb12 Os2 2.894399 1_555
Nb12 Os5 2.913166 1_645
Nb12 Os9 2.913166 1_654
Nb13 Nb16 2.542669 1_555
Nb13 Nb16 2.545634 1_655
Nb13 Os1 2.846157 1_666
Nb13 Os7 2.894399 1_555
Nb13 Os3 2.894399 1_555
Nb13 Os4 2.913166 1_665
Nb13 Os8 2.913166 1_656
Nb14 Os11 2.533274 1_655
Nb14 Os11 2.555035 1_555
Nb14 Os8 2.837705 1_655
Nb14 Os5 2.837705 1_655
Nb14 Os7 2.850162 1_555
Nb14 Os2 2.850162 1_555
Nb14 Os0 2.894437 1_555
Nb15 Os10 2.533274 1_655
Nb15 Os10 2.555035 1_555
Nb15 Os4 2.837705 1_655
Nb15 Os9 2.837705 1_655
Nb15 Os6 2.850162 1_555
Nb15 Os3 2.850162 1_555
Nb15 Os0 2.894437 1_555
Nb16 Os1 2.844688 1_566
Nb16 Os3 2.887103 1_555
Nb16 Os7 2.887103 1_555
Nb16 Os8 2.904681 1_556
Nb16 Os4 2.904681 1_565
Nb17 Os1 2.844688 1_555
Nb17 Os6 2.887103 1_555
Nb17 Os2 2.887103 1_555
Nb17 Os9 2.904681 1_554
Nb17 Os5 2.904681 1_545
Os0 Os2 2.619580 1_555
Os0 Os3 2.619580 1_555
Os0 Os7 2.619580 1_555
Os0 Os6 2.619580 1_555
Os0 Os10 2.772379 1_555
Os0 Os11 2.772379 1_555
Os1 Os9 2.656172 1_554
Os1 Os8 2.656172 1_545
Os1 Os4 2.656172 1_554
Os1 Os5 2.656172 1_545
Os2 Os6 2.670159 1_555
Os3 Os7 2.670159 1_555
Os4 Os9 2.628785 1_555
Os5 Os8 2.628785 1_555
Os10 Os4 2.825196 1_555
Os10 Os9 2.825196 1_555
Os10 Os6 2.846114 1_555
Os10 Os3 2.846114 1_555
Os11 Os8 2.825196 1_555
Os11 Os5 2.825196 1_555
Os11 Os2 2.846114 1_555
Os11 Os7 2.846114 1_555
