# generated using pymatgen
data_LaSe3
_symmetry_space_group_name_H-M   'P 1'
_cell_length_a   6.10154031
_cell_length_b   6.10154031
_cell_length_c   6.05232200
_cell_angle_alpha   90.00000000
_cell_angle_beta   90.00000000
_cell_angle_gamma   120.00000336
_symmetry_Int_Tables_number   1
_chemical_formula_structural   LaSe3
_chemical_formula_sum   'La2 Se6'
_cell_volume   195.13340019
_cell_formula_units_Z   2
loop_
 _symmetry_equiv_pos_site_id
 _symmetry_equiv_pos_as_xyz
  1  'x, y, z'
loop_
 _atom_site_type_symbol
 _atom_site_label
 _atom_site_symmetry_multiplicity
 _atom_site_fract_x
 _atom_site_fract_y
 _atom_site_fract_z
 _atom_site_occupancy
  La  La0  1  0.66666700  0.33333300  0.25000000  1
  La  La1  1  0.33333300  0.66666700  0.75000000  1
  Se  Se0  1  0.82638100  0.17361900  0.75000000  1
  Se  Se1  1  0.34723700  0.17361900  0.75000000  1
  Se  Se2  1  0.82638100  0.65276300  0.75000000  1
  Se  Se3  1  0.17361900  0.82638100  0.25000000  1
  Se  Se4  1  0.65276300  0.82638100  0.25000000  1
  Se  Se5  1  0.17361900  0.34723700  0.25000000  1
loop_
_geom_bond_atom_site_label_1
_geom_bond_atom_site_label_2
_geom_bond_distance
_geom_bond_site_symmetry_2
La0 Se3 3.051655 1_655
La0 Se3 3.051655 1_545
La0 Se5 3.051655 1_655
La0 Se4 3.051655 1_545
La0 Se4 3.051655 1_555
La0 Se5 3.051655 1_555
La0 Se0 3.465055 1_555
La0 Se0 3.465055 1_554
La0 Se2 3.465061 1_555
La0 Se2 3.465061 1_554
La0 Se1 3.465061 1_554
La0 Se1 3.465061 1_555
La1 Se0 3.051655 1_565
La1 Se0 3.051655 1_455
La1 Se1 3.051655 1_565
La1 Se2 3.051655 1_455
La1 Se2 3.051655 1_555
La1 Se1 3.051655 1_555
La1 Se3 3.465055 1_556
La1 Se3 3.465055 1_555
La1 Se4 3.465061 1_556
La1 Se4 3.465061 1_555
La1 Se5 3.465061 1_556
La1 Se5 3.465061 1_555
Se0 Se1 2.923516 1_555
Se0 Se2 2.923516 1_555
Se1 Se2 2.923516 1_555
Se3 Se4 2.923516 1_555
Se3 Se5 2.923516 1_555
Se4 Se5 2.923516 1_555
