# generated using pymatgen
data_TeMoWSeS2
_symmetry_space_group_name_H-M   'P 1'
_cell_length_a   3.30613757
_cell_length_b   3.30613757
_cell_length_c   38.08318600
_cell_angle_alpha   90.00000000
_cell_angle_beta   90.00000000
_cell_angle_gamma   119.99999140
_symmetry_Int_Tables_number   1
_chemical_formula_structural   TeMoWSeS2
_chemical_formula_sum   'Te2 Mo2 W2 Se2 S4'
_cell_volume   360.50042816
_cell_formula_units_Z   2
loop_
 _symmetry_equiv_pos_site_id
 _symmetry_equiv_pos_as_xyz
  1  'x, y, z'
loop_
 _atom_site_type_symbol
 _atom_site_label
 _atom_site_symmetry_multiplicity
 _atom_site_fract_x
 _atom_site_fract_y
 _atom_site_fract_z
 _atom_site_occupancy
  Te  Te0  1  0.33333300  0.66666700  0.41915100  1
  Te  Te1  1  0.33333300  0.66666700  0.51962400  1
  Mo  Mo0  1  0.00000000  0.00000000  0.46941700  1
  Mo  Mo1  1  0.33333300  0.66666700  0.28169200  1
  W  W0  1  0.00000000  0.00000000  0.09391800  1
  W  W1  1  0.33333300  0.66666700  0.65792700  1
  Se  Se0  1  0.00000000  0.00000000  0.70225100  1
  Se  Se1  1  0.00000000  0.00000000  0.61355300  1
  S  S0  1  0.00000000  0.00000000  0.32180000  1
  S  S1  1  0.33333300  0.66666700  0.05364200  1
  S  S2  1  0.33333300  0.66666700  0.13419200  1
  S  S3  1  0.00000000  0.00000000  0.24158100  1
loop_
_geom_bond_atom_site_label_1
_geom_bond_atom_site_label_2
_geom_bond_distance
_geom_bond_site_symmetry_2
Mo0 Te1 2.701743 1_545
Mo0 Te1 2.701745 1_555
Mo0 Te1 2.701745 1_445
Mo0 Te0 2.703333 1_545
Mo0 Te0 2.703336 1_555
Mo0 Te0 2.703336 1_445
Mo1 S0 2.444705 1_565
Mo1 S0 2.444707 1_555
Mo1 S0 2.444707 1_665
Mo1 S3 2.444776 1_565
Mo1 S3 2.444779 1_665
Mo1 S3 2.444779 1_555
Se0 W1 2.548107 1_545
Se0 W1 2.548109 1_555
Se0 W1 2.548109 1_445
Se1 W1 2.549369 1_545
Se1 W1 2.549371 1_445
Se1 W1 2.549371 1_555
S1 W0 2.448707 1_565
S1 W0 2.448710 1_555
S1 W0 2.448710 1_665
S2 W0 2.448660 1_565
S2 W0 2.448662 1_555
S2 W0 2.448662 1_665
