# generated using pymatgen
data_ZrCu(O2F3)2
_symmetry_space_group_name_H-M   'P 1'
_cell_length_a   8.83444300
_cell_length_b   5.46636200
_cell_length_c   7.30781632
_cell_angle_alpha   84.19965213
_cell_angle_beta   90.00000000
_cell_angle_gamma   90.00000000
_symmetry_Int_Tables_number   1
_chemical_formula_structural   ZrCu(O2F3)2
_chemical_formula_sum   'Zr2 Cu2 O8 F12'
_cell_volume   351.10412089
_cell_formula_units_Z   2
loop_
 _symmetry_equiv_pos_site_id
 _symmetry_equiv_pos_as_xyz
  1  'x, y, z'
loop_
 _atom_site_type_symbol
 _atom_site_label
 _atom_site_symmetry_multiplicity
 _atom_site_fract_x
 _atom_site_fract_y
 _atom_site_fract_z
 _atom_site_occupancy
  Zr  Zr0  1  0.50000000  0.00000000  0.50000000  1
  Zr  Zr1  1  0.00000000  0.00000000  0.00000000  1
  Cu  Cu0  1  0.50000000  0.50000000  0.00000000  1
  Cu  Cu1  1  0.00000000  0.50000000  0.50000000  1
  O  O0  1  0.88689700  0.74229600  0.57887600  1
  O  O1  1  0.11310300  0.25770400  0.42112400  1
  O  O2  1  0.38689700  0.25770400  0.92112400  1
  O  O3  1  0.61310300  0.74229600  0.07887600  1
  O  O4  1  0.16629200  0.61387500  0.60660700  1
  O  O5  1  0.83370800  0.38612500  0.39339300  1
  O  O6  1  0.66629200  0.38612500  0.89339300  1
  O  O7  1  0.33370800  0.61387500  0.10660700  1
  F  F0  1  0.32973300  0.23534200  0.57069900  1
  F  F1  1  0.67026700  0.76465800  0.42930100  1
  F  F2  1  0.82973300  0.76465800  0.92930100  1
  F  F3  1  0.17026700  0.23534200  0.07069900  1
  F  F4  1  0.14752800  0.80956200  0.85163300  1
  F  F5  1  0.85247200  0.19043800  0.14836700  1
  F  F6  1  0.64752800  0.19043800  0.64836700  1
  F  F7  1  0.35247200  0.80956200  0.35163300  1
  F  F8  1  0.46415200  0.77147700  0.73113100  1
  F  F9  1  0.53584800  0.22852300  0.26886900  1
  F  F10  1  0.96415200  0.22852300  0.76886900  1
  F  F11  1  0.03584800  0.77147700  0.23113100  1
loop_
_geom_bond_atom_site_label_1
_geom_bond_atom_site_label_2
_geom_bond_distance
_geom_bond_site_symmetry_2
Cu0 O3 1.799780 1_555
Cu0 O2 1.799780 1_554
Cu0 O7 1.802968 1_555
Cu0 O6 1.802968 1_554
Cu0 F8 2.360887 1_554
Cu0 F9 2.360887 1_555
Cu1 O0 1.799780 1_455
Cu1 O1 1.799780 1_555
Cu1 O4 1.802968 1_555
Cu1 O5 1.802968 1_455
Cu1 F10 2.360887 1_455
Cu1 F11 2.360887 1_555
F0 Zr0 2.078203 1_555
F1 Zr0 2.078203 1_565
F2 Zr1 2.078203 1_666
F3 Zr1 2.078203 1_555
F4 Zr1 2.045987 1_566
F5 Zr1 2.045987 1_655
F6 Zr0 2.045987 1_555
F7 Zr0 2.045987 1_565
F8 Zr0 2.021690 1_565
F9 Zr0 2.021690 1_555
F10 Zr1 2.021690 1_656
F11 Zr1 2.021690 1_565
