# generated using pymatgen
data_Mn3(O2F)2
_symmetry_space_group_name_H-M   'P 1'
_cell_length_a   4.60712100
_cell_length_b   5.52750400
_cell_length_c   7.69187447
_cell_angle_alpha   86.72455666
_cell_angle_beta   90.00000000
_cell_angle_gamma   90.00000000
_symmetry_Int_Tables_number   1
_chemical_formula_structural   Mn3(O2F)2
_chemical_formula_sum   'Mn6 O8 F4'
_cell_volume   195.56035960
_cell_formula_units_Z   2
loop_
 _symmetry_equiv_pos_site_id
 _symmetry_equiv_pos_as_xyz
  1  'x, y, z'
loop_
 _atom_site_type_symbol
 _atom_site_label
 _atom_site_symmetry_multiplicity
 _atom_site_fract_x
 _atom_site_fract_y
 _atom_site_fract_z
 _atom_site_occupancy
  Mn  Mn0  1  0.46960300  0.66743000  0.84019500  1
  Mn  Mn1  1  0.53039700  0.33257000  0.15980500  1
  Mn  Mn2  1  0.50000000  0.00000000  0.50000000  1
  Mn  Mn3  1  0.96960300  0.83257000  0.15980500  1
  Mn  Mn4  1  0.00000000  0.50000000  0.50000000  1
  Mn  Mn5  1  0.03039700  0.16743000  0.84019500  1
  O  O0  1  0.80918400  0.79716000  0.39213200  1
  O  O1  1  0.80960300  0.12931200  0.05976200  1
  O  O2  1  0.69039700  0.62931200  0.05976200  1
  O  O3  1  0.69081600  0.29716000  0.39213200  1
  O  O4  1  0.30918400  0.70284000  0.60786800  1
  O  O5  1  0.30960300  0.37068800  0.94023800  1
  O  O6  1  0.19081600  0.20284000  0.60786800  1
  O  O7  1  0.19039700  0.87068800  0.94023800  1
  F  F0  1  0.79310500  0.46174300  0.74627900  1
  F  F1  1  0.70689500  0.96174300  0.74627900  1
  F  F2  1  0.29310500  0.03825700  0.25372100  1
  F  F3  1  0.20689500  0.53825700  0.25372100  1
loop_
_geom_bond_atom_site_label_1
_geom_bond_atom_site_label_2
_geom_bond_distance
_geom_bond_site_symmetry_2
Mn0 O7 1.899444 1_555
Mn0 O5 1.918774 1_555
Mn0 O4 1.933401 1_555
Mn0 O2 1.972511 1_556
Mn1 O1 1.899444 1_555
Mn1 O2 1.918774 1_555
Mn1 O3 1.933401 1_555
Mn1 O5 1.972511 1_554
Mn2 O4 2.000874 1_545
Mn2 O3 2.000874 1_555
Mn2 O6 2.020113 1_555
Mn2 O0 2.020113 1_545
Mn3 O2 1.899444 1_555
Mn3 O1 1.918774 1_565
Mn3 O0 1.933401 1_555
Mn3 O7 1.972511 1_654
Mn4 O0 2.000874 1_455
Mn4 O6 2.000874 1_555
Mn4 O4 2.020113 1_555
Mn4 O3 2.020113 1_455
Mn5 O5 1.899444 1_555
Mn5 O7 1.918774 1_545
Mn5 O6 1.933401 1_555
Mn5 O1 1.972511 1_456
F0 Mn0 2.032155 1_555
F0 Mn5 2.056513 1_655
F0 Mn4 2.120393 1_655
F1 Mn5 2.032155 1_665
F1 Mn0 2.056513 1_555
F1 Mn2 2.120393 1_565
F2 Mn3 2.032155 1_445
F2 Mn1 2.056513 1_555
F2 Mn2 2.120393 1_555
F3 Mn1 2.032155 1_555
F3 Mn3 2.056513 1_455
F3 Mn4 2.120393 1_555
