# generated using pymatgen
data_NaCaPrFeO6
_symmetry_space_group_name_H-M   'P 1'
_cell_length_a   5.68580901
_cell_length_b   5.68580901
_cell_length_c   5.68580901
_cell_angle_alpha   60.00000000
_cell_angle_beta   60.00000000
_cell_angle_gamma   60.00000000
_symmetry_Int_Tables_number   1
_chemical_formula_structural   NaCaPrFeO6
_chemical_formula_sum   'Na1 Ca1 Pr1 Fe1 O6'
_cell_volume   129.97559227
_cell_formula_units_Z   1
loop_
 _symmetry_equiv_pos_site_id
 _symmetry_equiv_pos_as_xyz
  1  'x, y, z'
loop_
 _atom_site_type_symbol
 _atom_site_label
 _atom_site_symmetry_multiplicity
 _atom_site_fract_x
 _atom_site_fract_y
 _atom_site_fract_z
 _atom_site_occupancy
  Na  Na0  1  0.25000000  0.25000000  0.25000000  1
  Ca  Ca0  1  -0.00000000  0.00000000  0.00000000  1
  Pr  Pr0  1  0.75000000  0.75000000  0.75000000  1
  Fe  Fe0  1  0.50000000  0.50000000  0.50000000  1
  O  O0  1  0.72906798  0.27093202  0.27093202  1
  O  O1  1  0.27093202  0.72906798  0.72906798  1
  O  O2  1  0.72906798  0.27093202  0.72906798  1
  O  O3  1  0.27093202  0.72906798  0.27093202  1
  O  O4  1  0.72906798  0.72906798  0.27093202  1
  O  O5  1  0.27093202  0.27093202  0.72906798  1
loop_
_geom_bond_atom_site_label_1
_geom_bond_atom_site_label_2
_geom_bond_distance
_geom_bond_site_symmetry_2
Na0 O3 2.847883 1_545
Na0 O5 2.847883 1_554
Na0 O0 2.847883 1_455
Na0 O4 2.847883 1_455
Na0 O1 2.847883 1_554
Na0 O2 2.847883 1_455
Na0 O2 2.847883 1_554
Na0 O4 2.847883 1_545
Na0 O1 2.847883 1_545
Na0 O5 2.847883 1_555
Na0 O3 2.847883 1_555
Na0 O0 2.847883 1_555
Ca0 O4 2.178550 1_445
Ca0 O2 2.178550 1_454
Ca0 O1 2.178550 1_544
Ca0 O3 2.178550 1_545
Ca0 O5 2.178550 1_554
Ca0 O0 2.178550 1_455
Fe0 O5 1.841924 1_555
Fe0 O3 1.841924 1_555
Fe0 O0 1.841924 1_555
Fe0 O4 1.841924 1_555
Fe0 O1 1.841924 1_555
Fe0 O2 1.841924 1_555
O0 Pr0 2.847883 1_545
O0 Pr0 2.847883 1_554
O1 Pr0 2.847883 1_555
O1 Pr0 2.847883 1_455
O2 Pr0 2.847883 1_555
O2 Pr0 2.847883 1_545
O3 Pr0 2.847883 1_455
O3 Pr0 2.847883 1_554
O4 Pr0 2.847883 1_555
O4 Pr0 2.847883 1_554
O5 Pr0 2.847883 1_545
O5 Pr0 2.847883 1_455
