# generated using pymatgen
data_Dy2Ru2O7
_symmetry_space_group_name_H-M   'P 1'
_cell_length_a   7.17741721
_cell_length_b   7.17741721
_cell_length_c   7.17741721
_cell_angle_alpha   60.00000000
_cell_angle_beta   60.00000000
_cell_angle_gamma   60.00000000
_symmetry_Int_Tables_number   1
_chemical_formula_structural   Dy2Ru2O7
_chemical_formula_sum   'Dy4 Ru4 O14'
_cell_volume   261.45056045
_cell_formula_units_Z   2
loop_
 _symmetry_equiv_pos_site_id
 _symmetry_equiv_pos_as_xyz
  1  'x, y, z'
loop_
 _atom_site_type_symbol
 _atom_site_label
 _atom_site_symmetry_multiplicity
 _atom_site_fract_x
 _atom_site_fract_y
 _atom_site_fract_z
 _atom_site_occupancy
  Dy  Dy0  1  0.12500000  0.12500000  0.62500000  1
  Dy  Dy1  1  0.12500000  0.62500000  0.12500000  1
  Dy  Dy2  1  0.62500000  0.12500000  0.12500000  1
  Dy  Dy3  1  0.12500000  0.12500000  0.12500000  1
  Ru  Ru0  1  0.62500000  0.62500000  0.12500000  1
  Ru  Ru1  1  0.62500000  0.12500000  0.62500000  1
  Ru  Ru2  1  0.12500000  0.62500000  0.62500000  1
  Ru  Ru3  1  0.62500000  0.62500000  0.62500000  1
  O  O0  1  0.25000000  0.25000000  0.25000000  1
  O  O1  1  0.00000000  -0.00000000  0.00000000  1
  O  O2  1  0.28769299  0.71230701  0.28769299  1
  O  O3  1  0.53769299  0.96230701  0.53769299  1
  O  O4  1  0.28769299  0.28769299  0.71230701  1
  O  O5  1  0.71230701  0.28769299  0.28769299  1
  O  O6  1  0.28769299  0.71230701  0.71230701  1
  O  O7  1  0.71230701  0.71230701  0.28769299  1
  O  O8  1  0.71230701  0.28769299  0.71230701  1
  O  O9  1  0.96230701  0.53769299  0.53769299  1
  O  O10  1  0.53769299  0.96230701  0.96230701  1
  O  O11  1  0.96230701  0.53769299  0.96230701  1
  O  O12  1  0.53769299  0.53769299  0.96230701  1
  O  O13  1  0.96230701  0.96230701  0.53769299  1
loop_
_geom_bond_atom_site_label_1
_geom_bond_atom_site_label_2
_geom_bond_distance
_geom_bond_site_symmetry_2
Dy0 O0 2.197626 1_555
Dy0 O1 2.197626 1_556
Dy0 O4 2.438612 1_555
Dy0 O6 2.438612 1_545
Dy0 O8 2.438612 1_455
Dy0 O3 2.438612 1_545
Dy0 O9 2.438612 1_455
Dy0 O13 2.438612 1_445
Dy1 O1 2.197626 1_565
Dy1 O0 2.197626 1_555
Dy1 O2 2.438612 1_555
Dy1 O9 2.438612 1_455
Dy1 O11 2.438612 1_454
Dy1 O12 2.438612 1_554
Dy1 O7 2.438612 1_455
Dy1 O6 2.438612 1_554
Dy2 O1 2.197626 1_655
Dy2 O0 2.197626 1_555
Dy2 O5 2.438612 1_555
Dy2 O3 2.438612 1_545
Dy2 O10 2.438612 1_544
Dy2 O7 2.438612 1_545
Dy2 O12 2.438612 1_554
Dy2 O8 2.438612 1_554
Dy3 O0 2.197626 1_555
Dy3 O1 2.197626 1_555
Dy3 O4 2.438612 1_554
Dy3 O13 2.438612 1_445
Dy3 O11 2.438612 1_454
Dy3 O10 2.438612 1_544
Dy3 O2 2.438612 1_545
Dy3 O5 2.438612 1_455
O2 Ru2 2.001265 1_555
O2 Ru0 2.001265 1_555
O3 Ru3 2.001265 1_555
O3 Ru1 2.001265 1_565
O4 Ru1 2.001265 1_555
O4 Ru2 2.001265 1_555
O5 Ru1 2.001265 1_555
O5 Ru0 2.001265 1_555
O6 Ru2 2.001265 1_555
O6 Ru3 2.001265 1_555
O7 Ru0 2.001265 1_555
O7 Ru3 2.001265 1_555
O8 Ru1 2.001265 1_555
O8 Ru3 2.001265 1_555
O9 Ru2 2.001265 1_655
O9 Ru3 2.001265 1_555
O10 Ru1 2.001265 1_565
O10 Ru0 2.001265 1_556
O11 Ru0 2.001265 1_556
O11 Ru2 2.001265 1_655
O12 Ru0 2.001265 1_556
O12 Ru3 2.001265 1_555
O13 Ru2 2.001265 1_655
O13 Ru1 2.001265 1_565
