# generated using pymatgen
data_LiFe8(OF)8
_symmetry_space_group_name_H-M   'P 1'
_cell_length_a   9.52765708
_cell_length_b   9.67452042
_cell_length_c   3.08573655
_cell_angle_alpha   89.80055467
_cell_angle_beta   89.91743600
_cell_angle_gamma   90.01746942
_symmetry_Int_Tables_number   1
_chemical_formula_structural   LiFe8(OF)8
_chemical_formula_sum   'Li1 Fe8 O8 F8'
_cell_volume   284.42731719
_cell_formula_units_Z   1
loop_
 _symmetry_equiv_pos_site_id
 _symmetry_equiv_pos_as_xyz
  1  'x, y, z'
loop_
 _atom_site_type_symbol
 _atom_site_label
 _atom_site_symmetry_multiplicity
 _atom_site_fract_x
 _atom_site_fract_y
 _atom_site_fract_z
 _atom_site_occupancy
  Li  Li0  1  0.76495400  0.50666900  0.07265100  1
  Fe  Fe0  1  0.02005900  0.99853500  0.00482200  1
  Fe  Fe1  1  0.01872500  0.49749600  0.99455000  1
  Fe  Fe2  1  0.22591200  0.24912100  0.50079300  1
  Fe  Fe3  1  0.22257900  0.74730900  0.50108300  1
  Fe  Fe4  1  0.50625900  0.49796600  0.99535300  1
  Fe  Fe5  1  0.49679200  0.00047000  0.00727900  1
  Fe  Fe6  1  0.75955200  0.26211700  0.51370800  1
  Fe  Fe7  1  0.74782400  0.73627800  0.51922800  1
  O  O0  1  0.10869600  0.40842500  0.49779500  1
  O  O1  1  0.09702600  0.90585900  0.50465600  1
  O  O2  1  0.14737900  0.15463500  0.00252700  1
  O  O3  1  0.15043400  0.65616900  0.00247000  1
  O  O4  1  0.60692700  0.41183400  0.49673700  1
  O  O5  1  0.64138300  0.65838700  0.01570400  1
  O  O6  1  0.85455200  0.33665900  0.01158100  1
  O  O7  1  0.88616700  0.58657700  0.52003400  1
  F  F0  1  0.35410900  0.34702000  0.99877600  1
  F  F1  1  0.34943500  0.84220400  0.00131100  1
  F  F2  1  0.39609600  0.10930500  0.50479300  1
  F  F3  1  0.39597200  0.59261400  0.50010800  1
  F  F4  1  0.60938800  0.90405800  0.50986300  1
  F  F5  1  0.65174600  0.15465200  0.00975900  1
  F  F6  1  0.84599000  0.84869200  0.01413400  1
  F  F7  1  0.89204500  0.08694600  0.50861700  1
loop_
_geom_bond_atom_site_label_1
_geom_bond_atom_site_label_2
_geom_bond_distance
_geom_bond_site_symmetry_2
Li0 O6 1.863343 1_555
Li0 O5 1.889789 1_555
Li0 O7 1.961799 1_555
Li0 O4 2.192325 1_555
Li0 O7 2.196313 1_554
Li0 O4 2.507002 1_554
Fe0 O1 1.927312 1_555
Fe0 O1 1.931433 1_554
Fe0 O2 1.936758 1_565
Fe1 O0 1.957774 1_555
Fe1 O0 1.970732 1_556
Fe1 O3 1.982669 1_556
Fe1 O7 2.116363 1_455
Fe1 O6 2.206432 1_456
Fe1 O7 2.229705 1_456
Fe2 O0 1.903565 1_555
Fe2 O2 1.942187 1_555
Fe2 O2 1.943919 1_556
Fe3 O3 1.905077 1_555
Fe3 O3 1.905433 1_556
Fe3 O1 1.945536 1_555
Fe4 O4 1.996682 1_555
Fe4 O4 2.000931 1_556
Fe4 O5 2.017366 1_556
Fe6 O6 1.926365 1_556
Fe6 O6 1.930763 1_555
Fe6 O4 2.053357 1_555
Fe7 O7 1.958579 1_555
Fe7 O5 1.982509 1_556
Fe7 O5 2.005657 1_555
F0 Fe4 2.057345 1_555
F0 Fe2 2.182892 1_555
F0 Fe2 2.184541 1_556
F1 Fe5 2.077218 1_565
F1 Fe3 2.160097 1_555
F1 Fe3 2.168140 1_554
F2 Fe5 2.096080 1_555
F2 Fe5 2.103998 1_556
F2 Fe2 2.111922 1_555
F3 Fe4 2.067231 1_555
F3 Fe4 2.091488 1_554
F3 Fe3 2.229472 1_555
F4 Fe7 2.091974 1_555
F4 Fe5 2.093463 1_566
F4 Fe5 2.102688 1_565
F5 Fe5 2.098431 1_555
F5 Fe6 2.112501 1_554
F5 Fe6 2.137600 1_555
F6 Fe7 2.098758 1_554
F6 Fe7 2.114264 1_555
F6 Fe0 2.202491 1_655
F7 Fe6 2.113574 1_555
F7 Fe0 2.135543 1_646
F7 Fe0 2.154146 1_645
