# generated using pymatgen
data_Ho4Fe5Si3
_symmetry_space_group_name_H-M   'P 1'
_cell_length_a   4.02914300
_cell_length_b   4.02914300
_cell_length_c   13.04139400
_cell_angle_alpha   90.00000000
_cell_angle_beta   90.00000000
_cell_angle_gamma   90.00000000
_symmetry_Int_Tables_number   1
_chemical_formula_structural   Ho4Fe5Si3
_chemical_formula_sum   'Ho4 Fe5 Si3'
_cell_volume   211.71390301
_cell_formula_units_Z   1
loop_
 _symmetry_equiv_pos_site_id
 _symmetry_equiv_pos_as_xyz
  1  'x, y, z'
loop_
 _atom_site_type_symbol
 _atom_site_label
 _atom_site_symmetry_multiplicity
 _atom_site_fract_x
 _atom_site_fract_y
 _atom_site_fract_z
 _atom_site_occupancy
  Ho  Ho0  1  0.50000000  0.50000000  0.15962900  1
  Ho  Ho1  1  0.50000000  0.50000000  0.65890500  1
  Ho  Ho2  1  0.00000000  0.00000000  0.33836800  1
  Ho  Ho3  1  0.00000000  0.00000000  0.84394500  1
  Fe  Fe0  1  0.50000000  0.00000000  0.00098800  1
  Fe  Fe1  1  0.50000000  0.00000000  0.50026700  1
  Fe  Fe2  1  0.00000000  0.50000000  0.00098800  1
  Fe  Fe3  1  0.00000000  0.50000000  0.50026700  1
  Fe  Fe4  1  0.50000000  0.50000000  0.40495300  1
  Si  Si0  1  0.50000000  0.50000000  0.91017100  1
  Si  Si1  1  0.00000000  0.00000000  0.08899400  1
  Si  Si2  1  0.00000000  0.00000000  0.59252400  1
loop_
_geom_bond_atom_site_label_1
_geom_bond_atom_site_label_2
_geom_bond_distance
_geom_bond_site_symmetry_2
Ho0 Si1 2.994256 1_665
Ho0 Si1 2.994256 1_565
Ho0 Si1 2.994256 1_655
Ho0 Si1 2.994256 1_555
Ho1 Si2 2.977656 1_655
Ho1 Si2 2.977656 1_665
Ho1 Si2 2.977656 1_565
Ho1 Si2 2.977656 1_555
Ho1 Si0 3.276859 1_555
Ho2 Si1 3.252185 1_555
Ho3 Si0 2.977069 1_545
Ho3 Si0 2.977069 1_455
Ho3 Si0 2.977069 1_445
Ho3 Si0 2.977069 1_555
Ho3 Si2 3.278880 1_555
Fe0 Si1 2.318569 1_555
Fe0 Si1 2.318569 1_655
Fe0 Si0 2.336933 1_554
Fe0 Si0 2.336933 1_544
Fe0 Ho3 2.872812 1_654
Fe0 Ho3 2.872812 1_554
Fe0 Ho0 2.887706 1_545
Fe0 Ho0 2.887706 1_555
Fe1 Si2 2.346506 1_655
Fe1 Si2 2.346506 1_555
Fe1 Fe4 2.367196 1_555
Fe1 Fe4 2.367196 1_545
Fe1 Ho1 2.887678 1_555
Fe1 Ho1 2.887678 1_545
Fe1 Ho2 2.918298 1_655
Fe1 Ho2 2.918298 1_555
Fe2 Si1 2.318569 1_555
Fe2 Si1 2.318569 1_565
Fe2 Si0 2.336933 1_554
Fe2 Si0 2.336933 1_454
Fe2 Ho3 2.872812 1_564
Fe2 Ho3 2.872812 1_554
Fe2 Ho0 2.887706 1_455
Fe2 Ho0 2.887706 1_555
Fe3 Si2 2.346506 1_555
Fe3 Si2 2.346506 1_565
Fe3 Fe4 2.367196 1_555
Fe3 Fe4 2.367196 1_455
Fe3 Ho1 2.887678 1_555
Fe3 Ho1 2.887678 1_455
Fe3 Ho2 2.918298 1_555
Fe3 Ho2 2.918298 1_565
Fe4 Ho2 2.978430 1_655
Fe4 Ho2 2.978430 1_555
Fe4 Ho2 2.978430 1_565
Fe4 Ho2 2.978430 1_665
Fe4 Ho0 3.199367 1_555
