# generated using pymatgen
data_Ac3Pa
_symmetry_space_group_name_H-M   'P 1'
_cell_length_a   7.64637612
_cell_length_b   7.64637612
_cell_length_c   6.20020600
_cell_angle_alpha   90.00000000
_cell_angle_beta   90.00000000
_cell_angle_gamma   120.00000103
_symmetry_Int_Tables_number   1
_chemical_formula_structural   Ac3Pa
_chemical_formula_sum   'Ac6 Pa2'
_cell_volume   313.94101627
_cell_formula_units_Z   2
loop_
 _symmetry_equiv_pos_site_id
 _symmetry_equiv_pos_as_xyz
  1  'x, y, z'
loop_
 _atom_site_type_symbol
 _atom_site_label
 _atom_site_symmetry_multiplicity
 _atom_site_fract_x
 _atom_site_fract_y
 _atom_site_fract_z
 _atom_site_occupancy
  Ac  Ac0  1  0.17198500  0.34397000  0.25000000  1
  Ac  Ac1  1  0.65603000  0.82801500  0.25000000  1
  Ac  Ac2  1  0.17198500  0.82801500  0.25000000  1
  Ac  Ac3  1  0.82801500  0.65603000  0.75000000  1
  Ac  Ac4  1  0.34397000  0.17198500  0.75000000  1
  Ac  Ac5  1  0.82801500  0.17198500  0.75000000  1
  Pa  Pa0  1  0.33333300  0.66666700  0.75000000  1
  Pa  Pa1  1  0.66666700  0.33333300  0.25000000  1
loop_
_geom_bond_atom_site_label_1
_geom_bond_atom_site_label_2
_geom_bond_distance
_geom_bond_site_symmetry_2
Ac0 Ac1 3.701190 1_555
Ac0 Ac2 3.701190 1_555
Ac0 Pa0 3.765225 1_554
Ac0 Pa0 3.765225 1_555
Ac0 Pa1 3.823833 1_455
Ac0 Pa1 3.823841 1_555
Ac0 Ac5 3.846921 1_455
Ac0 Ac5 3.846921 1_454
Ac0 Ac4 3.846921 1_554
Ac0 Ac4 3.846921 1_555
Ac0 Ac1 3.945186 1_445
Ac0 Ac2 3.945186 1_545
Ac1 Ac2 3.701190 1_555
Ac1 Pa0 3.765225 1_555
Ac1 Pa0 3.765225 1_554
Ac1 Pa1 3.823833 1_565
Ac1 Pa1 3.823841 1_555
Ac1 Ac5 3.846921 1_565
Ac1 Ac5 3.846921 1_564
Ac1 Ac3 3.846921 1_554
Ac1 Ac3 3.846921 1_555
Ac1 Ac2 3.945186 1_655
Ac2 Pa0 3.765221 1_554
Ac2 Pa0 3.765221 1_555
Ac2 Pa1 3.823837 1_455
Ac2 Pa1 3.823837 1_565
Ac2 Ac3 3.846921 1_454
Ac2 Ac3 3.846921 1_455
Ac2 Ac4 3.846921 1_565
Ac2 Ac4 3.846921 1_564
Ac3 Ac4 3.701190 1_555
Ac3 Ac5 3.701190 1_555
Ac3 Pa1 3.765225 1_555
Ac3 Pa1 3.765225 1_556
Ac3 Pa0 3.823833 1_655
Ac3 Pa0 3.823841 1_555
Ac3 Ac4 3.945186 1_665
Ac3 Ac5 3.945186 1_565
Ac4 Ac5 3.701190 1_555
Ac4 Pa1 3.765225 1_555
Ac4 Pa1 3.765225 1_556
Ac4 Pa0 3.823833 1_545
Ac4 Pa0 3.823841 1_555
Ac4 Ac5 3.945186 1_455
Ac5 Pa1 3.765221 1_555
Ac5 Pa1 3.765221 1_556
Ac5 Pa0 3.823837 1_545
Ac5 Pa0 3.823837 1_655
