# generated using pymatgen
data_YbZnCuSi2
_symmetry_space_group_name_H-M   'P 1'
_cell_length_a   5.82321006
_cell_length_b   5.82321006
_cell_length_c   5.82321006
_cell_angle_alpha   139.12485435
_cell_angle_beta   139.12485435
_cell_angle_gamma   59.18452539
_symmetry_Int_Tables_number   1
_chemical_formula_structural   YbZnCuSi2
_chemical_formula_sum   'Yb1 Zn1 Cu1 Si2'
_cell_volume   83.74577357
_cell_formula_units_Z   1
loop_
 _symmetry_equiv_pos_site_id
 _symmetry_equiv_pos_as_xyz
  1  'x, y, z'
loop_
 _atom_site_type_symbol
 _atom_site_label
 _atom_site_symmetry_multiplicity
 _atom_site_fract_x
 _atom_site_fract_y
 _atom_site_fract_z
 _atom_site_occupancy
  Yb  Yb0  1  0.00000000  0.00000000  0.00000000  1
  Zn  Zn0  1  0.25000000  0.75000000  0.50000000  1
  Cu  Cu0  1  0.75000000  0.25000000  0.50000000  1
  Si  Si0  1  0.61496200  0.61496200  0.00000000  1
  Si  Si1  1  0.38503800  0.38503800  0.00000000  1
loop_
_geom_bond_atom_site_label_1
_geom_bond_atom_site_label_2
_geom_bond_distance
_geom_bond_site_symmetry_2
Yb0 Zn0 3.247272 1_555
Yb0 Zn0 3.247272 1_545
Yb0 Zn0 3.247272 1_544
Yb0 Zn0 3.247272 1_444
Cu0 Si1 2.450491 1_656
Cu0 Si0 2.450491 1_545
Cu0 Si0 2.450491 1_556
Cu0 Si1 2.450491 1_555
Cu0 Zn0 2.875643 1_645
Cu0 Zn0 2.875643 1_544
Cu0 Zn0 2.875643 1_555
Cu0 Zn0 2.875643 1_656
Cu0 Yb0 3.247272 1_655
Cu0 Yb0 3.247272 1_656
Cu0 Yb0 3.247272 1_666
Cu0 Yb0 3.247272 1_555
Si0 Si1 2.328505 1_555
Si0 Zn0 2.450491 1_655
Si0 Zn0 2.450491 1_554
Si0 Yb0 3.102388 1_565
Si0 Yb0 3.102388 1_554
Si0 Yb0 3.102388 1_655
Si0 Yb0 3.102388 1_666
Si1 Zn0 2.450491 1_544
Si1 Zn0 2.450491 1_555
Si1 Yb0 3.102388 1_565
Si1 Yb0 3.102388 1_554
Si1 Yb0 3.102388 1_655
Si1 Yb0 3.102388 1_666
