# generated using pymatgen
data_NaV2O4
_symmetry_space_group_name_H-M   'P 1'
_cell_length_a   5.08483132
_cell_length_b   6.07680469
_cell_length_c   6.66091390
_cell_angle_alpha   117.10232620
_cell_angle_beta   102.26080571
_cell_angle_gamma   89.63871637
_symmetry_Int_Tables_number   1
_chemical_formula_structural   NaV2O4
_chemical_formula_sum   'Na2 V4 O8'
_cell_volume   178.06963137
_cell_formula_units_Z   2
loop_
 _symmetry_equiv_pos_site_id
 _symmetry_equiv_pos_as_xyz
  1  'x, y, z'
loop_
 _atom_site_type_symbol
 _atom_site_label
 _atom_site_symmetry_multiplicity
 _atom_site_fract_x
 _atom_site_fract_y
 _atom_site_fract_z
 _atom_site_occupancy
  Na  Na0  1  0.74736000  0.69756200  0.00054900  1
  Na  Na1  1  0.25238300  0.30129500  0.99907200  1
  V  V0  1  0.25302000  0.86407700  0.49509600  1
  V  V1  1  0.75249400  0.62520000  0.49950300  1
  V  V2  1  0.24723200  0.37541500  0.50144700  1
  V  V3  1  0.74788200  0.13576500  0.50421000  1
  O  O0  1  0.03793900  0.53840700  0.31127100  1
  O  O1  1  0.48151800  0.20839100  0.68261400  1
  O  O2  1  0.96249800  0.46098600  0.68999900  1
  O  O3  1  0.51748600  0.79158300  0.31642500  1
  O  O4  1  0.46358900  0.71663100  0.67940500  1
  O  O5  1  0.01538700  0.03306000  0.32561200  1
  O  O6  1  0.53740700  0.28512400  0.32157500  1
  O  O7  1  0.98380500  0.96650300  0.67322100  1
loop_
_geom_bond_atom_site_label_1
_geom_bond_atom_site_label_2
_geom_bond_distance
_geom_bond_site_symmetry_2
Na0 O5 2.337015 1_665
Na0 O4 2.363064 1_554
Na0 O2 2.402917 1_554
Na0 O3 2.461786 1_555
Na0 O0 2.812327 1_655
Na0 O1 2.871811 1_554
Na1 O7 2.338307 1_445
Na1 O6 2.364947 1_556
Na1 O0 2.408876 1_556
Na1 O1 2.463725 1_555
Na1 O2 2.804661 1_455
Na1 O3 2.874744 1_556
O0 V0 1.965326 1_555
O0 V1 2.029184 1_455
O0 V2 2.067750 1_555
O1 V3 1.907760 1_555
O1 V0 2.078688 1_545
O1 V2 2.096607 1_555
O2 V3 1.962985 1_555
O2 V2 2.027732 1_655
O2 V1 2.076276 1_555
O3 V0 1.900891 1_555
O3 V3 2.082383 1_565
O3 V1 2.103955 1_555
O4 V0 1.971872 1_555
O4 V1 2.008342 1_555
O4 V2 2.037205 1_555
O5 V3 1.911800 1_455
O5 V0 2.061611 1_545
O5 V2 2.077026 1_555
O6 V3 1.972288 1_555
O6 V2 2.013761 1_555
O6 V1 2.029241 1_555
O7 V0 1.917096 1_655
O7 V3 2.056778 1_565
O7 V1 2.071219 1_555
