# generated using pymatgen
data_BaSrYTlCu2O7
_symmetry_space_group_name_H-M   'P 1'
_cell_length_a   3.85118500
_cell_length_b   3.87001300
_cell_length_c   12.49511535
_cell_angle_alpha   89.83573505
_cell_angle_beta   90.00000000
_cell_angle_gamma   90.00000000
_symmetry_Int_Tables_number   1
_chemical_formula_structural   BaSrYTlCu2O7
_chemical_formula_sum   'Ba1 Sr1 Y1 Tl1 Cu2 O7'
_cell_volume   186.22813338
_cell_formula_units_Z   1
loop_
 _symmetry_equiv_pos_site_id
 _symmetry_equiv_pos_as_xyz
  1  'x, y, z'
loop_
 _atom_site_type_symbol
 _atom_site_label
 _atom_site_symmetry_multiplicity
 _atom_site_fract_x
 _atom_site_fract_y
 _atom_site_fract_z
 _atom_site_occupancy
  Ba  Ba0  1  0.50000000  0.48447200  0.79428700  1
  Sr  Sr0  1  0.50000000  0.48378200  0.21022200  1
  Y  Y0  1  0.50000000  0.49772000  0.49568800  1
  Tl  Tl0  1  0.00000000  0.91717000  0.00785800  1
  Cu  Cu0  1  0.00000000  0.99533300  0.62596000  1
  Cu  Cu1  1  0.00000000  0.99605800  0.35930700  1
  O  O0  1  0.50000000  0.99552100  0.61030800  1
  O  O1  1  0.00000000  0.49560200  0.61082000  1
  O  O2  1  0.50000000  0.99763400  0.37990000  1
  O  O3  1  0.00000000  0.49615700  0.37888500  1
  O  O4  1  0.00000000  0.99285200  0.83783400  1
  O  O5  1  0.00000000  0.00071300  0.17761100  1
  O  O6  1  0.50000000  0.56198700  0.01131800  1
loop_
_geom_bond_atom_site_label_1
_geom_bond_atom_site_label_2
_geom_bond_distance
_geom_bond_site_symmetry_2
Ba0 O6 2.729224 1_556
Ba0 O4 2.760043 1_545
Ba0 O4 2.760043 1_645
Ba0 O4 2.807299 1_655
Ba0 O4 2.807299 1_555
Ba0 O0 2.981644 1_545
Ba0 O1 2.994075 1_655
Ba0 O1 2.994075 1_555
Ba0 O0 3.028226 1_555
Cu0 O0 1.935499 1_555
Cu0 O0 1.935499 1_455
Cu0 O1 1.943736 1_555
Cu0 O1 1.944728 1_565
Cu0 O4 2.647380 1_555
Cu1 O2 1.942720 1_455
Cu1 O2 1.942720 1_555
Cu1 O3 1.949333 1_555
Cu1 O3 1.951484 1_565
Cu1 O5 2.270332 1_565
O0 Y0 2.403826 1_555
O0 Y0 2.410905 1_565
O1 Y0 2.403631 1_555
O1 Y0 2.403631 1_455
O2 Y0 2.412488 1_555
O2 Y0 2.419665 1_565
O2 Sr0 2.830514 1_565
O2 Sr0 2.910976 1_555
O3 Y0 2.416203 1_455
O3 Y0 2.416203 1_555
O3 Sr0 2.855203 1_455
O3 Sr0 2.855203 1_555
O4 Tl0 2.143732 1_556
O5 Tl0 2.146499 1_545
O5 Sr0 2.715379 1_555
O5 Sr0 2.715379 1_455
O5 Sr0 2.805600 1_445
O5 Sr0 2.805600 1_545
O6 Tl0 2.366191 1_555
O6 Tl0 2.366191 1_655
O6 Sr0 2.502827 1_555
