# generated using pymatgen
data_Mg5Si6
_symmetry_space_group_name_H-M   'P 1'
_cell_length_a   5.11558500
_cell_length_b   5.40475081
_cell_length_c   14.66076948
_cell_angle_alpha   98.35431034
_cell_angle_beta   99.94328909
_cell_angle_gamma   91.01485528
_symmetry_Int_Tables_number   1
_chemical_formula_structural   Mg5Si6
_chemical_formula_sum   'Mg10 Si12'
_cell_volume   394.64117218
_cell_formula_units_Z   2
loop_
 _symmetry_equiv_pos_site_id
 _symmetry_equiv_pos_as_xyz
  1  'x, y, z'
loop_
 _atom_site_type_symbol
 _atom_site_label
 _atom_site_symmetry_multiplicity
 _atom_site_fract_x
 _atom_site_fract_y
 _atom_site_fract_z
 _atom_site_occupancy
  Mg  Mg0  1  0.21939500  0.91791000  0.00982100  1
  Mg  Mg1  1  0.27403300  0.92205000  0.61632800  1
  Mg  Mg2  1  0.81460900  0.78837800  0.74255900  1
  Mg  Mg3  1  0.11197500  0.04363200  0.26264100  1
  Mg  Mg4  1  0.59501400  0.71073800  0.24443300  1
  Mg  Mg5  1  0.71543300  0.16075900  0.94160800  1
  Mg  Mg6  1  0.24131900  0.36186300  0.49322300  1
  Mg  Mg7  1  0.67451100  0.29627400  0.37438300  1
  Mg  Mg8  1  0.02113400  0.44413100  0.12603500  1
  Mg  Mg9  1  0.15106300  0.37949700  0.86164600  1
  Si  Si0  1  0.66248500  0.64700700  0.90353600  1
  Si  Si1  1  0.46629900  0.48539900  0.04782300  1
  Si  Si2  1  0.94510900  0.86457600  0.43062900  1
  Si  Si3  1  0.75561200  0.63716000  0.54885900  1
  Si  Si4  1  0.33886300  0.89068500  0.81123600  1
  Si  Si5  1  0.76494800  0.87357200  0.08737700  1
  Si  Si6  1  0.44585900  0.87287500  0.43758200  1
  Si  Si7  1  0.59811700  0.27431200  0.76116900  1
  Si  Si8  1  0.21312400  0.46393400  0.68051500  1
  Si  Si9  1  0.54062400  0.18823700  0.17854900  1
  Si  Si10  1  0.15014400  0.56218300  0.32188400  1
  Si  Si11  1  0.79670200  0.21120000  0.61453700  1
loop_
_geom_bond_atom_site_label_1
_geom_bond_atom_site_label_2
_geom_bond_distance
_geom_bond_site_symmetry_2
Mg0 Si1 2.758656 1_555
Mg0 Si5 2.779765 1_455
Mg0 Si5 2.854111 1_555
Mg0 Si9 2.900866 1_565
Mg0 Si4 3.060168 1_554
Mg0 Si0 3.216265 1_454
Mg0 Si0 3.222411 1_554
Mg0 Si1 3.230516 1_565
Mg1 Si8 2.804321 1_555
Mg1 Si4 2.849476 1_555
Mg1 Si6 2.883043 1_555
Mg1 Si7 2.894843 1_565
Mg1 Si2 2.914349 1_455
Mg1 Si11 2.920695 1_465
Mg1 Si3 2.981503 1_455
Mg1 Si8 2.982097 1_565
Mg1 Si11 3.078980 1_565
Mg1 Si3 3.154636 1_555
Mg2 Si4 2.713868 1_655
Mg2 Si3 2.800770 1_555
Mg2 Si0 2.810060 1_555
Mg2 Si4 2.823938 1_555
Mg2 Si7 2.863188 1_565
Mg2 Si8 2.891690 1_655
Mg2 Si7 3.039094 1_555
Mg2 Si11 3.154034 1_565
Mg3 Si10 2.803922 1_555
Mg3 Si9 2.844640 1_555
Mg3 Si10 2.860011 1_545
Mg3 Si5 2.877373 1_445
Mg3 Si2 3.019953 1_445
Mg3 Si6 3.094820 1_545
Mg3 Si9 3.128894 1_455
Mg4 Si9 2.841129 1_555
Mg4 Si5 2.843422 1_555
Mg4 Si10 2.864566 1_555
Mg4 Si9 2.885781 1_565
Mg4 Si1 2.919144 1_555
Mg4 Si2 2.991625 1_555
Mg4 Si10 3.038196 1_655
Mg4 Si6 3.068792 1_555
Mg5 Si1 2.664274 1_556
Mg5 Si4 2.704250 1_545
Mg5 Si0 2.750593 1_545
Mg5 Si7 2.769727 1_555
Mg5 Si0 2.773233 1_555
Mg5 Si5 2.798471 1_546
Mg5 Mg9 2.991621 1_655
Mg6 Si8 2.750312 1_555
Mg6 Si10 2.846623 1_555
Mg6 Si6 2.917398 1_545
Mg6 Si3 2.927191 1_555
Mg6 Si2 3.003467 1_445
Mg6 Si3 3.087231 1_455
Mg6 Si6 3.199282 1_555
Mg7 Si9 2.805836 1_555
Mg7 Si2 2.884335 1_545
Mg7 Si3 2.889056 1_555
Mg7 Si6 2.891170 1_545
Mg7 Si10 3.069584 1_655
Mg7 Si10 3.098122 1_555
Mg8 Si1 2.740193 1_555
Mg8 Si5 2.767556 1_455
Mg8 Si10 2.808078 1_555
Mg8 Si1 2.897124 1_455
Mg8 Si9 3.049732 1_555
Mg8 Si9 3.064360 1_455
Mg8 Si5 3.261991 1_445
Mg9 Si8 2.828254 1_555
Mg9 Si4 2.866454 1_545
Mg9 Si0 2.892284 1_555
Mg9 Si1 2.893360 1_556
Mg9 Si7 2.947771 1_555
Mg9 Si7 2.958892 1_455
Mg9 Si0 3.019017 1_455
Mg9 Si4 3.137990 1_555
Si0 Si4 2.475450 1_555
Si0 Si7 2.653262 1_555
Si0 Si1 2.735673 1_556
Si0 Si5 2.751164 1_556
Si1 Si5 2.509746 1_555
Si1 Si9 2.657379 1_555
Si2 Si6 2.545343 1_655
Si2 Si3 2.571403 1_555
Si2 Si6 2.574438 1_555
Si3 Si6 2.564778 1_555
Si4 Si7 2.697730 1_565
Si4 Si8 2.764725 1_555
Si5 Si9 2.436004 1_565
Si7 Si8 2.438590 1_555
Si10 Si6 2.486269 1_555
Si10 Si2 2.488787 1_455
Si11 Si8 2.478065 1_655
Si11 Si7 2.514581 1_555
Si11 Si3 2.619716 1_555
