# generated using pymatgen
data_SmGePd
_symmetry_space_group_name_H-M   'P 1'
_cell_length_a   5.71315865
_cell_length_b   5.71315865
_cell_length_c   7.23555094
_cell_angle_alpha   51.66901923
_cell_angle_beta   51.66901923
_cell_angle_gamma   45.84128885
_symmetry_Int_Tables_number   1
_chemical_formula_structural   SmGePd
_chemical_formula_sum   'Sm2 Ge2 Pd2'
_cell_volume   125.26156747
_cell_formula_units_Z   2
loop_
 _symmetry_equiv_pos_site_id
 _symmetry_equiv_pos_as_xyz
  1  'x, y, z'
loop_
 _atom_site_type_symbol
 _atom_site_label
 _atom_site_symmetry_multiplicity
 _atom_site_fract_x
 _atom_site_fract_y
 _atom_site_fract_z
 _atom_site_occupancy
  Sm  Sm0  1  0.54292100  0.54292100  0.69633000  1
  Sm  Sm1  1  0.45707900  0.45707900  0.30367000  1
  Ge  Ge0  1  0.84064400  0.84064400  0.10342800  1
  Ge  Ge1  1  0.15935600  0.15935600  0.89657200  1
  Pd  Pd0  1  0.17979500  0.17979500  0.27254300  1
  Pd  Pd1  1  0.82020500  0.82020500  0.72745700  1
loop_
_geom_bond_atom_site_label_1
_geom_bond_atom_site_label_2
_geom_bond_distance
_geom_bond_site_symmetry_2
Ge0 Pd0 2.554210 1_655
Ge0 Pd0 2.554210 1_565
Ge0 Ge1 2.594164 1_664
Ge0 Pd1 2.869611 1_554
Ge0 Sm0 3.116755 1_564
Ge0 Sm0 3.116755 1_654
Ge0 Sm0 3.181019 1_555
Ge0 Sm1 3.243081 1_555
Ge0 Sm1 3.307943 1_565
Ge0 Sm1 3.307943 1_655
Ge1 Pd1 2.554210 1_455
Ge1 Pd1 2.554210 1_545
Ge1 Pd0 2.869611 1_556
Ge1 Sm1 3.116755 1_546
Ge1 Sm1 3.116755 1_456
Ge1 Sm1 3.181019 1_555
Ge1 Sm0 3.243081 1_555
Ge1 Sm0 3.307943 1_455
Ge1 Sm0 3.307943 1_545
Pd0 Pd1 2.894863 1_445
Pd0 Sm1 3.074349 1_555
Pd0 Sm1 3.127998 1_545
Pd0 Sm1 3.127998 1_455
Pd0 Sm0 3.237217 1_455
Pd0 Sm0 3.237217 1_545
Pd0 Sm0 3.244889 1_554
Pd1 Sm0 3.074349 1_555
Pd1 Sm0 3.127998 1_565
Pd1 Sm0 3.127998 1_655
Pd1 Sm1 3.237217 1_565
Pd1 Sm1 3.237217 1_655
Pd1 Sm1 3.244889 1_556
