# generated using pymatgen
data_Rb2Li14Pr3O14
_symmetry_space_group_name_H-M   'P 1'
_cell_length_a   8.86049251
_cell_length_b   8.86049251
_cell_length_c   8.86049251
_cell_angle_alpha   129.95781394
_cell_angle_beta   123.56143895
_cell_angle_gamma   78.75210658
_symmetry_Int_Tables_number   1
_chemical_formula_structural   Rb2Li14Pr3O14
_chemical_formula_sum   'Rb2 Li14 Pr3 O14'
_cell_volume   430.15430725
_cell_formula_units_Z   1
loop_
 _symmetry_equiv_pos_site_id
 _symmetry_equiv_pos_as_xyz
  1  'x, y, z'
loop_
 _atom_site_type_symbol
 _atom_site_label
 _atom_site_symmetry_multiplicity
 _atom_site_fract_x
 _atom_site_fract_y
 _atom_site_fract_z
 _atom_site_occupancy
  Rb  Rb0  1  0.50000000  0.76224400  0.26224400  1
  Rb  Rb1  1  0.50000000  0.23775600  0.73775600  1
  Li  Li0  1  0.71303600  0.14524900  0.12378100  1
  Li  Li1  1  0.97853200  0.85475100  0.56778700  1
  Li  Li2  1  0.02146800  0.58925400  0.87621900  1
  Li  Li3  1  0.28696400  0.41074600  0.43221300  1
  Li  Li4  1  0.02146800  0.14524900  0.43221300  1
  Li  Li5  1  0.15867600  0.50000000  0.65867600  1
  Li  Li6  1  0.84132400  0.50000000  0.34132400  1
  Li  Li7  1  0.41425700  0.76858100  0.64567500  1
  Li  Li8  1  0.58574300  0.23141900  0.35432500  1
  Li  Li9  1  0.87709400  0.23141900  0.64567500  1
  Li  Li10  1  0.12290600  0.76858100  0.35432500  1
  Li  Li11  1  0.71303600  0.58925400  0.56778700  1
  Li  Li12  1  0.28696400  0.85475100  0.87621900  1
  Li  Li13  1  0.97853200  0.41074600  0.12378100  1
  Pr  Pr0  1  0.00000000  0.00000000  0.00000000  1
  Pr  Pr1  1  0.27209100  0.27209100  0.00000000  1
  Pr  Pr2  1  0.72790900  0.72790900  0.00000000  1
  O  O0  1  0.05804300  0.86777600  0.19026800  1
  O  O1  1  0.40166400  0.62414300  0.77752100  1
  O  O2  1  0.84662300  0.62414300  0.22247900  1
  O  O3  1  0.59833600  0.37585700  0.22247900  1
  O  O4  1  0.15337700  0.37585700  0.77752100  1
  O  O5  1  0.75893900  0.06399700  0.30505800  1
  O  O6  1  0.24106100  0.54611900  0.30505800  1
  O  O7  1  0.24106100  0.93600300  0.69494200  1
  O  O8  1  0.75893900  0.45388100  0.69494200  1
  O  O9  1  0.00000000  0.69382300  0.69382300  1
  O  O10  1  0.00000000  0.30617700  0.30617700  1
  O  O11  1  0.67750800  0.86777600  0.80973200  1
  O  O12  1  0.32249200  0.13222400  0.19026800  1
  O  O13  1  0.94195700  0.13222400  0.80973200  1
loop_
_geom_bond_atom_site_label_1
_geom_bond_atom_site_label_2
_geom_bond_distance
_geom_bond_site_symmetry_2
Li0 O3 1.962172 1_555
Li0 O5 1.977969 1_555
Li0 O11 2.105419 1_544
Li0 O10 2.240784 1_655
Li1 O2 1.962172 1_555
Li1 O7 1.977969 1_655
Li1 O13 2.105415 1_565
Li1 O9 2.240784 1_655
Li2 O4 1.962161 1_555
Li2 O8 1.977966 1_455
Li2 O0 2.105426 1_556
Li2 O9 2.240792 1_555
Li3 O1 1.962171 1_555
Li3 O6 1.977961 1_555
Li3 O12 2.105424 1_555
Li3 O10 2.240787 1_555
Li4 O4 1.962172 1_555
Li4 O5 1.977969 1_455
Li4 O0 2.105415 1_545
Li4 O10 2.240784 1_555
Li5 O9 1.969326 1_555
Li5 O10 1.969326 1_555
Li5 O1 1.970675 1_555
Li5 O4 1.970679 1_555
Li6 O9 1.969326 1_655
Li6 O10 1.969326 1_655
Li6 O3 1.970675 1_555
Li6 O2 1.970679 1_555
Li7 O11 1.932893 1_555
Li7 O6 1.940870 1_555
Li7 O7 1.940876 1_555
Li7 O1 2.266106 1_555
Li8 O12 1.932893 1_555
Li8 O8 1.940870 1_555
Li8 O5 1.940876 1_555
Li8 O3 2.266106 1_555
Li9 O13 1.932899 1_555
Li9 O8 1.940869 1_555
Li9 O5 1.940869 1_555
Li9 O4 2.266094 1_655
Li10 O0 1.932899 1_555
Li10 O6 1.940869 1_555
Li10 O7 1.940869 1_555
Li10 O2 2.266094 1_455
Li11 O3 1.962171 1_555
Li11 O8 1.977961 1_555
Li11 O11 2.105424 1_555
Li11 O9 2.240787 1_655
Li12 O1 1.962172 1_555
Li12 O7 1.977969 1_555
Li12 O12 2.105419 1_566
Li12 O9 2.240784 1_555
Li13 O2 1.962161 1_555
Li13 O6 1.977966 1_655
Li13 O13 2.105426 1_554
Li13 O10 2.240792 1_655
O0 Pr0 2.412978 1_565
O0 Pr2 2.492515 1_455
O1 Pr2 2.344303 1_556
O1 Rb0 3.198528 1_556
O1 Rb1 3.198528 1_555
O2 Pr2 2.344302 1_555
O2 Rb1 3.198532 1_554
O2 Rb0 3.198536 1_555
O3 Pr1 2.344303 1_555
O3 Rb1 3.198528 1_554
O3 Rb0 3.198528 1_555
O4 Pr1 2.344302 1_556
O4 Rb0 3.198532 1_556
O4 Rb1 3.198536 1_555
O5 Pr2 2.325622 1_545
O6 Pr1 2.325622 1_555
O7 Pr1 2.325622 1_566
O8 Pr2 2.325622 1_556
O9 Pr0 2.294835 1_566
O10 Pr0 2.294835 1_555
O11 Pr0 2.412975 1_666
O11 Pr2 2.492523 1_556
O12 Pr0 2.412975 1_555
O12 Pr1 2.492523 1_555
O13 Pr0 2.412978 1_656
O13 Pr1 2.492515 1_656
