# generated using pymatgen
data_Mg2Bi
_symmetry_space_group_name_H-M   'P 1'
_cell_length_a   16.15136692
_cell_length_b   16.15136692
_cell_length_c   11.19032800
_cell_angle_alpha   90.00000000
_cell_angle_beta   90.00000000
_cell_angle_gamma   154.31702940
_symmetry_Int_Tables_number   1
_chemical_formula_structural   Mg2Bi
_chemical_formula_sum   'Mg32 Bi16'
_cell_volume   1265.14854381
_cell_formula_units_Z   16
loop_
 _symmetry_equiv_pos_site_id
 _symmetry_equiv_pos_as_xyz
  1  'x, y, z'
loop_
 _atom_site_type_symbol
 _atom_site_label
 _atom_site_symmetry_multiplicity
 _atom_site_fract_x
 _atom_site_fract_y
 _atom_site_fract_z
 _atom_site_occupancy
  Mg  Mg0_0  1  0.30455600  0.19544400  0.12500000  1
  Mg  Mg0_1  1  0.30455600  0.19544400  0.62500000  1
  Mg  Mg0_2  1  0.30455600  0.69544400  0.12500000  1
  Mg  Mg0_3  1  0.30455600  0.69544400  0.62500000  1
  Mg  Mg0_4  1  0.80455600  0.19544400  0.12500000  1
  Mg  Mg0_5  1  0.80455600  0.19544400  0.62500000  1
  Mg  Mg0_6  1  0.80455600  0.69544400  0.12500000  1
  Mg  Mg0_7  1  0.80455600  0.69544400  0.62500000  1
  Mg  Mg1_0  1  0.47364700  0.02635300  0.12500000  1
  Mg  Mg1_1  1  0.47364700  0.02635300  0.62500000  1
  Mg  Mg1_2  1  0.47364700  0.52635300  0.12500000  1
  Mg  Mg1_3  1  0.47364700  0.52635300  0.62500000  1
  Mg  Mg1_4  1  0.97364700  0.02635300  0.12500000  1
  Mg  Mg1_5  1  0.97364700  0.02635300  0.62500000  1
  Mg  Mg1_6  1  0.97364700  0.52635300  0.12500000  1
  Mg  Mg1_7  1  0.97364700  0.52635300  0.62500000  1
  Mg  Mg2_0  1  0.02635300  0.47364700  0.37500000  1
  Mg  Mg2_1  1  0.02635300  0.47364700  0.87500000  1
  Mg  Mg2_2  1  0.02635300  0.97364700  0.37500000  1
  Mg  Mg2_3  1  0.02635300  0.97364700  0.87500000  1
  Mg  Mg2_4  1  0.52635300  0.47364700  0.37500000  1
  Mg  Mg2_5  1  0.52635300  0.47364700  0.87500000  1
  Mg  Mg2_6  1  0.52635300  0.97364700  0.37500000  1
  Mg  Mg2_7  1  0.52635300  0.97364700  0.87500000  1
  Mg  Mg3_0  1  0.19544400  0.30455600  0.37500000  1
  Mg  Mg3_1  1  0.19544400  0.30455600  0.87500000  1
  Mg  Mg3_2  1  0.19544400  0.80455600  0.37500000  1
  Mg  Mg3_3  1  0.19544400  0.80455600  0.87500000  1
  Mg  Mg3_4  1  0.69544400  0.30455600  0.37500000  1
  Mg  Mg3_5  1  0.69544400  0.30455600  0.87500000  1
  Mg  Mg3_6  1  0.69544400  0.80455600  0.37500000  1
  Mg  Mg3_7  1  0.69544400  0.80455600  0.87500000  1
  Bi  Bi0_0  1  0.14145400  0.35854600  0.12500000  1
  Bi  Bi0_1  1  0.14145400  0.35854600  0.62500000  1
  Bi  Bi0_2  1  0.14145400  0.85854600  0.12500000  1
  Bi  Bi0_3  1  0.14145400  0.85854600  0.62500000  1
  Bi  Bi0_4  1  0.64145400  0.35854600  0.12500000  1
  Bi  Bi0_5  1  0.64145400  0.35854600  0.62500000  1
  Bi  Bi0_6  1  0.64145400  0.85854600  0.12500000  1
  Bi  Bi0_7  1  0.64145400  0.85854600  0.62500000  1
  Bi  Bi1_0  1  0.35854600  0.14145400  0.37500000  1
  Bi  Bi1_1  1  0.35854600  0.14145400  0.87500000  1
  Bi  Bi1_2  1  0.35854600  0.64145400  0.37500000  1
  Bi  Bi1_3  1  0.35854600  0.64145400  0.87500000  1
  Bi  Bi1_4  1  0.85854600  0.14145400  0.37500000  1
  Bi  Bi1_5  1  0.85854600  0.14145400  0.87500000  1
  Bi  Bi1_6  1  0.85854600  0.64145400  0.37500000  1
  Bi  Bi1_7  1  0.85854600  0.64145400  0.87500000  1
loop_
_geom_bond_atom_site_label_1
_geom_bond_atom_site_label_2
_geom_bond_distance
_geom_bond_site_symmetry_2
Mg0_0 Mg1_4 3.116873 1_455
Mg0_0 Mg1_2 3.116873 1_555
Mg0_0 Mg2_3 3.440488 1_544
Mg0_0 Mg2_5 3.440488 1_554
Mg0_0 Mg2_2 3.440488 1_545
Mg0_0 Mg2_4 3.440488 1_555
Mg0_1 Mg1_5 3.116873 1_455
Mg0_1 Mg1_3 3.116873 1_555
Mg0_1 Mg2_2 3.440488 1_545
Mg0_1 Mg2_4 3.440488 1_555
Mg0_1 Mg2_5 3.440488 1_555
Mg0_1 Mg2_3 3.440488 1_545
Mg0_2 Mg1_0 3.116873 1_565
Mg0_2 Mg1_6 3.116873 1_455
Mg0_2 Mg2_7 3.440488 1_554
Mg0_2 Mg2_1 3.440488 1_554
Mg0_2 Mg2_6 3.440488 1_555
Mg0_2 Mg2_0 3.440488 1_555
Mg0_3 Mg1_1 3.116873 1_565
Mg0_3 Mg1_7 3.116873 1_455
Mg0_3 Mg2_6 3.440488 1_555
Mg0_3 Mg2_0 3.440488 1_555
Mg0_3 Mg2_1 3.440488 1_555
Mg0_3 Mg2_7 3.440488 1_555
Mg0_4 Mg1_6 3.116873 1_555
Mg0_4 Mg1_0 3.116873 1_555
Mg0_4 Mg2_1 3.440488 1_654
Mg0_4 Mg2_0 3.440488 1_655
Mg0_4 Mg2_7 3.440488 1_544
Mg0_4 Mg2_6 3.440488 1_545
Mg0_5 Mg1_7 3.116873 1_555
Mg0_5 Mg1_1 3.116873 1_555
Mg0_5 Mg2_0 3.440488 1_655
Mg0_5 Mg2_6 3.440488 1_545
Mg0_5 Mg2_1 3.440488 1_655
Mg0_5 Mg2_7 3.440488 1_545
Mg0_6 Mg1_4 3.116873 1_565
Mg0_6 Mg1_2 3.116873 1_555
Mg0_6 Mg2_5 3.440488 1_554
Mg0_6 Mg2_3 3.440488 1_654
Mg0_6 Mg2_4 3.440488 1_555
Mg0_6 Mg2_2 3.440488 1_655
Mg0_7 Mg1_5 3.116873 1_565
Mg0_7 Mg1_3 3.116873 1_555
Mg0_7 Mg2_4 3.440488 1_555
Mg0_7 Mg2_5 3.440488 1_555
Mg0_7 Mg2_2 3.440488 1_655
Mg0_7 Mg2_3 3.440488 1_655
Mg1_0 Mg2_7 3.252991 1_544
Mg1_0 Mg2_6 3.252991 1_545
Mg1_0 Mg3_5 3.440488 1_554
Mg1_0 Mg3_3 3.440488 1_544
Mg1_0 Mg3_4 3.440488 1_555
Mg1_0 Mg3_2 3.440488 1_545
Mg1_1 Mg2_6 3.252991 1_545
Mg1_1 Mg2_7 3.252991 1_545
Mg1_1 Mg3_4 3.440488 1_555
Mg1_1 Mg3_2 3.440488 1_545
Mg1_1 Mg3_5 3.440488 1_555
Mg1_1 Mg3_3 3.440488 1_545
Mg1_2 Mg2_5 3.252991 1_554
Mg1_2 Mg2_4 3.252991 1_555
Mg1_2 Mg3_7 3.440488 1_554
Mg1_2 Mg3_1 3.440488 1_554
Mg1_2 Mg3_6 3.440488 1_555
Mg1_2 Mg3_0 3.440488 1_555
Mg1_3 Mg2_4 3.252991 1_555
Mg1_3 Mg2_5 3.252991 1_555
Mg1_3 Mg3_6 3.440488 1_555
Mg1_3 Mg3_0 3.440488 1_555
Mg1_3 Mg3_1 3.440488 1_555
Mg1_3 Mg3_7 3.440488 1_555
Mg1_4 Mg2_3 3.252991 1_644
Mg1_4 Mg2_2 3.252991 1_645
Mg1_4 Mg3_1 3.440488 1_654
Mg1_4 Mg3_7 3.440488 1_544
Mg1_4 Mg3_0 3.440488 1_655
Mg1_4 Mg3_6 3.440488 1_545
Mg1_5 Mg2_2 3.252991 1_645
Mg1_5 Mg2_3 3.252991 1_645
Mg1_5 Mg3_0 3.440488 1_655
Mg1_5 Mg3_6 3.440488 1_545
Mg1_5 Mg3_1 3.440488 1_655
Mg1_5 Mg3_7 3.440488 1_545
Mg1_6 Mg2_1 3.252991 1_654
Mg1_6 Mg2_0 3.252991 1_655
Mg1_6 Mg3_5 3.440488 1_554
Mg1_6 Mg3_4 3.440488 1_555
Mg1_6 Mg3_3 3.440488 1_654
Mg1_6 Mg3_2 3.440488 1_655
Mg1_7 Mg2_0 3.252991 1_655
Mg1_7 Mg2_1 3.252991 1_655
Mg1_7 Mg3_4 3.440488 1_555
Mg1_7 Mg3_2 3.440488 1_655
Mg1_7 Mg3_5 3.440488 1_555
Mg1_7 Mg3_3 3.440488 1_655
Mg2_0 Mg3_4 3.116873 1_455
Mg2_0 Mg3_2 3.116873 1_555
Mg2_1 Mg3_5 3.116873 1_455
Mg2_1 Mg3_3 3.116873 1_555
Mg2_2 Mg3_0 3.116873 1_565
Mg2_2 Mg3_6 3.116873 1_455
Mg2_3 Mg3_1 3.116873 1_565
Mg2_3 Mg3_7 3.116873 1_455
Mg2_4 Mg3_0 3.116873 1_555
Mg2_4 Mg3_6 3.116873 1_555
Mg2_5 Mg3_1 3.116873 1_555
Mg2_5 Mg3_7 3.116873 1_555
Mg2_6 Mg3_2 3.116873 1_555
Mg2_6 Mg3_4 3.116873 1_565
Mg2_7 Mg3_3 3.116873 1_555
Mg2_7 Mg3_5 3.116873 1_565
Bi0_0 Mg1_2 3.150021 1_555
Bi0_0 Mg1_4 3.150021 1_455
Bi0_0 Mg0_2 3.272885 1_555
Bi0_0 Mg0_4 3.272885 1_455
Bi0_0 Mg3_1 3.273811 1_554
Bi0_0 Mg3_0 3.273811 1_555
Bi0_0 Bi1_5 3.481690 1_454
Bi0_0 Bi1_3 3.481690 1_554
Bi0_0 Bi1_4 3.481690 1_455
Bi0_0 Bi1_2 3.481690 1_555
Bi0_0 Bi0_6 3.589714 1_445
Bi0_0 Bi0_6 3.589714 1_555
Bi0_1 Mg1_3 3.150021 1_555
Bi0_1 Mg1_5 3.150021 1_455
Bi0_1 Mg0_3 3.272885 1_555
Bi0_1 Mg0_5 3.272885 1_455
Bi0_1 Mg3_0 3.273811 1_555
Bi0_1 Mg3_1 3.273811 1_555
Bi0_1 Bi1_4 3.481690 1_455
Bi0_1 Bi1_2 3.481690 1_555
Bi0_1 Bi1_5 3.481690 1_455
Bi0_1 Bi1_3 3.481690 1_555
Bi0_1 Bi0_7 3.589714 1_555
Bi0_1 Bi0_7 3.589714 1_445
Bi0_2 Mg1_0 3.150021 1_565
Bi0_2 Mg1_6 3.150021 1_455
Bi0_2 Mg0_0 3.272885 1_565
Bi0_2 Mg0_6 3.272885 1_455
Bi0_2 Mg3_3 3.273811 1_554
Bi0_2 Mg3_2 3.273811 1_555
Bi0_2 Bi1_7 3.481690 1_454
Bi0_2 Bi1_1 3.481690 1_564
Bi0_2 Bi1_0 3.481690 1_565
Bi0_2 Bi1_6 3.481690 1_455
Bi0_2 Bi0_4 3.589714 1_565
Bi0_2 Bi0_4 3.589714 1_455
Bi0_3 Mg1_1 3.150021 1_565
Bi0_3 Mg1_7 3.150021 1_455
Bi0_3 Mg0_1 3.272885 1_565
Bi0_3 Mg0_7 3.272885 1_455
Bi0_3 Mg3_2 3.273811 1_555
Bi0_3 Mg3_3 3.273811 1_555
Bi0_3 Bi1_0 3.481690 1_565
Bi0_3 Bi1_6 3.481690 1_455
Bi0_3 Bi1_7 3.481690 1_455
Bi0_3 Bi1_1 3.481690 1_565
Bi0_3 Bi0_5 3.589714 1_565
Bi0_3 Bi0_5 3.589714 1_455
Bi0_4 Mg1_6 3.150021 1_555
Bi0_4 Mg1_0 3.150021 1_555
Bi0_4 Mg0_6 3.272885 1_555
Bi0_4 Mg0_0 3.272885 1_555
Bi0_4 Mg3_5 3.273811 1_554
Bi0_4 Mg3_4 3.273811 1_555
Bi0_4 Bi1_1 3.481690 1_554
Bi0_4 Bi1_7 3.481690 1_554
Bi0_4 Bi1_6 3.481690 1_555
Bi0_4 Bi1_0 3.481690 1_555
Bi0_5 Mg1_7 3.150021 1_555
Bi0_5 Mg1_1 3.150021 1_555
Bi0_5 Mg0_7 3.272885 1_555
Bi0_5 Mg0_1 3.272885 1_555
Bi0_5 Mg3_4 3.273811 1_555
Bi0_5 Mg3_5 3.273811 1_555
Bi0_5 Bi1_6 3.481690 1_555
Bi0_5 Bi1_0 3.481690 1_555
Bi0_5 Bi1_1 3.481690 1_555
Bi0_5 Bi1_7 3.481690 1_555
Bi0_6 Mg1_4 3.150021 1_565
Bi0_6 Mg1_2 3.150021 1_555
Bi0_6 Mg0_4 3.272885 1_565
Bi0_6 Mg0_2 3.272885 1_555
Bi0_6 Mg3_7 3.273811 1_554
Bi0_6 Mg3_6 3.273811 1_555
Bi0_6 Bi1_5 3.481690 1_564
Bi0_6 Bi1_3 3.481690 1_554
Bi0_6 Bi1_2 3.481690 1_555
Bi0_6 Bi1_4 3.481690 1_565
Bi0_7 Mg1_5 3.150021 1_565
Bi0_7 Mg1_3 3.150021 1_555
Bi0_7 Mg0_5 3.272885 1_565
Bi0_7 Mg0_3 3.272885 1_555
Bi0_7 Mg3_6 3.273811 1_555
Bi0_7 Mg3_7 3.273811 1_555
Bi0_7 Bi1_2 3.481690 1_555
Bi0_7 Bi1_4 3.481690 1_565
Bi0_7 Bi1_5 3.481690 1_565
Bi0_7 Bi1_3 3.481690 1_555
Bi1_0 Mg2_4 3.150021 1_555
Bi1_0 Mg2_2 3.150021 1_545
Bi1_0 Mg3_2 3.272885 1_545
Bi1_0 Mg3_4 3.272885 1_555
Bi1_0 Mg0_1 3.273811 1_555
Bi1_0 Mg0_0 3.273811 1_555
Bi1_0 Bi1_6 3.589714 1_555
Bi1_0 Bi1_6 3.589714 1_445
Bi1_1 Mg2_5 3.150021 1_555
Bi1_1 Mg2_3 3.150021 1_545
Bi1_1 Mg3_5 3.272885 1_555
Bi1_1 Mg3_3 3.272885 1_545
Bi1_1 Mg0_0 3.273811 1_556
Bi1_1 Mg0_1 3.273811 1_555
Bi1_1 Bi1_7 3.589714 1_555
Bi1_1 Bi1_7 3.589714 1_445
Bi1_2 Mg2_6 3.150021 1_555
Bi1_2 Mg2_0 3.150021 1_555
Bi1_2 Mg3_6 3.272885 1_555
Bi1_2 Mg3_0 3.272885 1_555
Bi1_2 Mg0_2 3.273811 1_555
Bi1_2 Mg0_3 3.273811 1_555
Bi1_2 Bi1_4 3.589714 1_565
Bi1_2 Bi1_4 3.589714 1_455
Bi1_3 Mg2_7 3.150021 1_555
Bi1_3 Mg2_1 3.150021 1_555
Bi1_3 Mg3_7 3.272885 1_555
Bi1_3 Mg3_1 3.272885 1_555
Bi1_3 Mg0_2 3.273811 1_556
Bi1_3 Mg0_3 3.273811 1_555
Bi1_3 Bi1_5 3.589714 1_455
Bi1_3 Bi1_5 3.589714 1_565
Bi1_4 Mg2_0 3.150021 1_655
Bi1_4 Mg2_6 3.150021 1_545
Bi1_4 Mg3_0 3.272885 1_655
Bi1_4 Mg3_6 3.272885 1_545
Bi1_4 Mg0_5 3.273811 1_555
Bi1_4 Mg0_4 3.273811 1_555
Bi1_5 Mg2_1 3.150021 1_655
Bi1_5 Mg2_7 3.150021 1_545
Bi1_5 Mg3_1 3.272885 1_655
Bi1_5 Mg3_7 3.272885 1_545
Bi1_5 Mg0_4 3.273811 1_556
Bi1_5 Mg0_5 3.273811 1_555
Bi1_6 Mg2_2 3.150021 1_655
Bi1_6 Mg2_4 3.150021 1_555
Bi1_6 Mg3_2 3.272885 1_655
Bi1_6 Mg3_4 3.272885 1_555
Bi1_6 Mg0_6 3.273811 1_555
Bi1_6 Mg0_7 3.273811 1_555
Bi1_7 Mg2_3 3.150021 1_655
Bi1_7 Mg2_5 3.150021 1_555
Bi1_7 Mg3_3 3.272885 1_655
Bi1_7 Mg3_5 3.272885 1_555
Bi1_7 Mg0_6 3.273811 1_556
Bi1_7 Mg0_7 3.273811 1_555
