# generated using pymatgen
data_RhN7ClO6
_symmetry_space_group_name_H-M   'P 1'
_cell_length_a   7.46996373
_cell_length_b   7.46996373
_cell_length_c   7.46996373
_cell_angle_alpha   120.29092324
_cell_angle_beta   120.29092324
_cell_angle_gamma   89.49684045
_symmetry_Int_Tables_number   1
_chemical_formula_structural   RhN7ClO6
_chemical_formula_sum   'Rh1 N7 Cl1 O6'
_cell_volume   293.43262330
_cell_formula_units_Z   1
loop_
 _symmetry_equiv_pos_site_id
 _symmetry_equiv_pos_as_xyz
  1  'x, y, z'
loop_
 _atom_site_type_symbol
 _atom_site_label
 _atom_site_symmetry_multiplicity
 _atom_site_fract_x
 _atom_site_fract_y
 _atom_site_fract_z
 _atom_site_occupancy
  Rh  Rh0  1  0.81775900  0.81775900  0.00000000  1
  N  N0  1  0.65788700  0.65788700  0.00000000  1
  N  N1  1  0.70564400  0.06440700  0.01888700  1
  N  N2  1  0.04552100  0.68675700  0.98111300  1
  N  N3  1  0.68675700  0.70564400  0.64123600  1
  N  N4  1  0.06440700  0.04552100  0.35876400  1
  N  N5  1  0.61950300  0.11950300  0.50000000  1
  N  N6  1  0.11950300  0.61950300  0.50000000  1
  Cl  Cl0  1  0.06033700  0.06033700  0.00000000  1
  O  O0  1  0.73810400  0.23810400  0.50000000  1
  O  O1  1  0.23810400  0.73810400  0.50000000  1
  O  O2  1  0.49511700  0.93102900  0.30325800  1
  O  O3  1  0.62777000  0.19185900  0.69674200  1
  O  O4  1  0.19185900  0.49511700  0.56408800  1
  O  O5  1  0.93102900  0.62777000  0.43591200  1
loop_
_geom_bond_atom_site_label_1
_geom_bond_atom_site_label_2
_geom_bond_distance
_geom_bond_site_symmetry_2
N0 Rh0 1.696307 1_555
N1 Rh0 1.986404 1_545
N2 Rh0 1.986410 1_456
N3 Rh0 1.986410 1_556
N4 Rh0 1.986409 1_445
N5 O2 1.250416 1_545
N5 O3 1.250420 1_555
N5 O0 1.258405 1_555
N6 O5 1.250414 1_455
N6 O4 1.250416 1_555
N6 O1 1.258405 1_555
Cl0 Rh0 2.573852 1_445
