# generated using pymatgen
data_CaFe2O5
_symmetry_space_group_name_H-M   'P 1'
_cell_length_a   6.18889728
_cell_length_b   6.18889728
_cell_length_c   11.07633500
_cell_angle_alpha   90.00000000
_cell_angle_beta   90.00000000
_cell_angle_gamma   143.65021871
_symmetry_Int_Tables_number   1
_chemical_formula_structural   CaFe2O5
_chemical_formula_sum   'Ca2 Fe4 O10'
_cell_volume   251.45901985
_cell_formula_units_Z   2
loop_
 _symmetry_equiv_pos_site_id
 _symmetry_equiv_pos_as_xyz
  1  'x, y, z'
loop_
 _atom_site_type_symbol
 _atom_site_label
 _atom_site_symmetry_multiplicity
 _atom_site_fract_x
 _atom_site_fract_y
 _atom_site_fract_z
 _atom_site_occupancy
  Ca  Ca0  1  0.10646900  0.89353100  0.75000000  1
  Ca  Ca1  1  0.89353100  0.10646900  0.25000000  1
  Fe  Fe0  1  0.79148600  0.20851400  0.59992000  1
  Fe  Fe1  1  0.20851400  0.79148600  0.40008000  1
  Fe  Fe2  1  0.20851400  0.79148600  0.09992000  1
  Fe  Fe3  1  0.79148600  0.20851400  0.90008000  1
  O  O0  1  0.29401600  0.70598400  0.25000000  1
  O  O1  1  0.70598400  0.29401600  0.75000000  1
  O  O2  1  0.75889500  0.24110500  0.07507000  1
  O  O3  1  0.24110500  0.75889500  0.92493000  1
  O  O4  1  0.24110500  0.75889500  0.57507000  1
  O  O5  1  0.75889500  0.24110500  0.42493000  1
  O  O6  1  0.93866800  0.06133200  0.64965500  1
  O  O7  1  0.06133200  0.93866800  0.35034500  1
  O  O8  1  0.93866800  0.06133200  0.85034500  1
  O  O9  1  0.06133200  0.93866800  0.14965500  1
loop_
_geom_bond_atom_site_label_1
_geom_bond_atom_site_label_2
_geom_bond_distance
_geom_bond_site_symmetry_2
Ca0 O1 2.257481 1_565
Ca0 O1 2.257481 1_455
Ca0 O8 2.264855 1_465
Ca0 O6 2.264855 1_465
Ca0 O4 2.502246 1_555
Ca0 O3 2.502246 1_555
Ca1 O0 2.257481 1_655
Ca1 O0 2.257481 1_545
Ca1 O7 2.264855 1_645
Ca1 O9 2.264855 1_645
Ca1 O2 2.502246 1_555
Ca1 O5 2.502246 1_555
Fe0 O6 1.816446 1_555
Fe0 O1 1.942793 1_555
Fe0 O5 1.975780 1_555
Fe0 O4 2.037984 1_545
Fe0 O4 2.037984 1_655
Fe1 O7 1.816446 1_555
Fe1 O0 1.942793 1_555
Fe1 O4 1.975780 1_555
Fe1 O5 2.037984 1_455
Fe1 O5 2.037984 1_565
Fe2 O9 1.816446 1_555
Fe2 O0 1.942793 1_555
Fe2 O3 1.975780 1_554
Fe2 O2 2.037984 1_455
Fe2 O2 2.037984 1_565
Fe3 O8 1.816446 1_555
Fe3 O1 1.942793 1_555
Fe3 O2 1.975780 1_556
Fe3 O3 2.037984 1_545
Fe3 O3 2.037984 1_655
