# generated using pymatgen
data_K3Al(PO4)2
_symmetry_space_group_name_H-M   'P 1'
_cell_length_a   9.95945632
_cell_length_b   13.69533587
_cell_length_c   20.55428303
_cell_angle_alpha   100.55885528
_cell_angle_beta   90.00000000
_cell_angle_gamma   90.00000000
_symmetry_Int_Tables_number   1
_chemical_formula_structural   K3Al(PO4)2
_chemical_formula_sum   'K36 Al12 P24 O96'
_cell_volume   2756.09291243
_cell_formula_units_Z   12
loop_
 _symmetry_equiv_pos_site_id
 _symmetry_equiv_pos_as_xyz
  1  'x, y, z'
loop_
 _atom_site_type_symbol
 _atom_site_label
 _atom_site_symmetry_multiplicity
 _atom_site_fract_x
 _atom_site_fract_y
 _atom_site_fract_z
 _atom_site_occupancy
  K  K0  1  0.32872230  0.57923045  0.28784785  1
  K  K1  1  0.82872230  0.92076955  0.71215215  1
  K  K2  1  0.67127770  0.42076955  0.71215215  1
  K  K3  1  0.17127770  0.07923045  0.28784785  1
  K  K4  1  0.05185958  0.67857916  0.42010149  1
  K  K5  1  0.55185958  0.82142084  0.57989851  1
  K  K6  1  0.94814042  0.32142084  0.57989851  1
  K  K7  1  0.44814042  0.17857916  0.42010149  1
  K  K8  1  0.92773427  0.66034632  0.23367241  1
  K  K9  1  0.42773427  0.83965368  0.76632759  1
  K  K10  1  0.07226573  0.33965368  0.76632759  1
  K  K11  1  0.57226573  0.16034632  0.23367241  1
  K  K12  1  0.83531700  0.57548896  0.55145024  1
  K  K13  1  0.33531700  0.92451104  0.44854976  1
  K  K14  1  0.16468300  0.42451104  0.44854976  1
  K  K15  1  0.66468300  0.07548896  0.55145024  1
  K  K16  1  0.65749934  0.74350904  0.37048478  1
  K  K17  1  0.15749934  0.75649096  0.62951522  1
  K  K18  1  0.34250066  0.25649096  0.62951522  1
  K  K19  1  0.84250066  0.24350904  0.37048478  1
  K  K20  1  0.82374716  0.60672119  0.05444083  1
  K  K21  1  0.32374716  0.89327881  0.94555917  1
  K  K22  1  0.17625284  0.39327881  0.94555917  1
  K  K23  1  0.67625284  0.10672119  0.05444083  1
  K  K24  1  0.83736866  0.92742357  0.21299375  1
  K  K25  1  0.33736866  0.57257643  0.78700625  1
  K  K26  1  0.16263134  0.07257643  0.78700625  1
  K  K27  1  0.66263134  0.42742357  0.21299375  1
  K  K28  1  0.56044426  0.79298929  0.05861583  1
  K  K29  1  0.06044426  0.70701071  0.94138417  1
  K  K30  1  0.43955574  0.20701071  0.94138417  1
  K  K31  1  0.93955574  0.29298929  0.05861583  1
  K  K32  1  0.20133816  0.76672968  0.11697440  1
  K  K33  1  0.70133816  0.73327032  0.88302560  1
  K  K34  1  0.79866184  0.23327032  0.88302560  1
  K  K35  1  0.29866184  0.26672968  0.11697440  1
  Al  Al0  1  0.42456726  0.52841740  0.08938402  1
  Al  Al1  1  0.92456726  0.97158260  0.91061598  1
  Al  Al2  1  0.57543274  0.47158260  0.91061598  1
  Al  Al3  1  0.07543274  0.02841740  0.08938402  1
  Al  Al4  1  0.43633788  0.88916048  0.24849947  1
  Al  Al5  1  0.93633788  0.61083952  0.75150053  1
  Al  Al6  1  0.56366212  0.11083952  0.75150053  1
  Al  Al7  1  0.06366212  0.38916048  0.24849947  1
  Al  Al8  1  0.93658227  0.94494275  0.40458542  1
  Al  Al9  1  0.43658227  0.55505725  0.59541458  1
  Al  Al10  1  0.06341773  0.05505725  0.59541458  1
  Al  Al11  1  0.56341773  0.44494275  0.40458542  1
  P  P0  1  0.15042325  0.83465110  0.29818612  1
  P  P1  1  0.65042325  0.66534890  0.70181388  1
  P  P2  1  0.84957675  0.16534890  0.70181388  1
  P  P3  1  0.34957675  0.33465110  0.29818612  1
  P  P4  1  0.91362752  0.86013751  0.53393559  1
  P  P5  1  0.41362752  0.63986249  0.46606441  1
  P  P6  1  0.08637248  0.13986249  0.46606441  1
  P  P7  1  0.58637248  0.36013751  0.53393559  1
  P  P8  1  0.92047778  0.19170588  0.18729627  1
  P  P9  1  0.42047778  0.30829412  0.81270373  1
  P  P10  1  0.07952222  0.80829412  0.81270373  1
  P  P11  1  0.57952222  0.69170588  0.18729627  1
  P  P12  1  0.35315219  0.60687787  0.95657543  1
  P  P13  1  0.85315219  0.89312213  0.04342457  1
  P  P14  1  0.64684781  0.39312213  0.04342457  1
  P  P15  1  0.14684781  0.10687787  0.95657543  1
  P  P16  1  0.84740806  0.49124413  0.35655748  1
  P  P17  1  0.34740806  0.00875587  0.64344252  1
  P  P18  1  0.15259194  0.50875587  0.64344252  1
  P  P19  1  0.65259194  0.99124413  0.35655748  1
  P  P20  1  0.35848582  0.00985320  0.13450750  1
  P  P21  1  0.85848582  0.49014680  0.86549250  1
  P  P22  1  0.64151418  0.99014680  0.86549250  1
  P  P23  1  0.14151418  0.50985320  0.13450750  1
  O  O0  1  0.29858986  0.87992853  0.30137825  1
  O  O1  1  0.79858986  0.62007147  0.69862175  1
  O  O2  1  0.70141014  0.12007147  0.69862175  1
  O  O3  1  0.20141014  0.37992853  0.30137825  1
  O  O4  1  0.15369403  0.72755469  0.30833787  1
  O  O5  1  0.65369403  0.77244531  0.69166213  1
  O  O6  1  0.84630597  0.27244531  0.69166213  1
  O  O7  1  0.34630597  0.22755469  0.30833787  1
  O  O8  1  0.08052832  0.85090015  0.23511025  1
  O  O9  1  0.58052832  0.64909985  0.76488975  1
  O  O10  1  0.91947168  0.14909985  0.76488975  1
  O  O11  1  0.41947168  0.35090015  0.23511025  1
  O  O12  1  0.08210044  0.90140088  0.36068381  1
  O  O13  1  0.58210044  0.59859912  0.63931619  1
  O  O14  1  0.91789956  0.09859912  0.63931619  1
  O  O15  1  0.41789956  0.40140088  0.36068381  1
  O  O16  1  0.78862099  0.90324683  0.57087905  1
  O  O17  1  0.28862099  0.59675317  0.42912095  1
  O  O18  1  0.21137901  0.09675317  0.42912095  1
  O  O19  1  0.71137901  0.40324683  0.57087905  1
  O  O20  1  0.95186967  0.75559577  0.54282777  1
  O  O21  1  0.45186967  0.74440423  0.45717223  1
  O  O22  1  0.04813033  0.24440423  0.45717223  1
  O  O23  1  0.54813033  0.25559577  0.54282777  1
  O  O24  1  0.89705549  0.85919874  0.45660839  1
  O  O25  1  0.39705549  0.64080126  0.54339161  1
  O  O26  1  0.10294451  0.14080126  0.54339161  1
  O  O27  1  0.60294451  0.35919874  0.45660839  1
  O  O28  1  0.04000067  0.93124432  0.55471457  1
  O  O29  1  0.54000067  0.56875568  0.44528543  1
  O  O30  1  0.95999933  0.06875568  0.44528543  1
  O  O31  1  0.45999933  0.43124432  0.55471457  1
  O  O32  1  0.93067716  0.13435399  0.24382070  1
  O  O33  1  0.43067716  0.36564601  0.75617930  1
  O  O34  1  0.06932284  0.86564601  0.75617930  1
  O  O35  1  0.56932284  0.63435399  0.24382070  1
  O  O36  1  0.95763181  0.12333573  0.11789209  1
  O  O37  1  0.45763181  0.37666427  0.88210791  1
  O  O38  1  0.04236819  0.87666427  0.88210791  1
  O  O39  1  0.54236819  0.62333573  0.11789209  1
  O  O40  1  0.78386294  0.23759194  0.17810008  1
  O  O41  1  0.28386294  0.26240806  0.82189992  1
  O  O42  1  0.21613706  0.76240806  0.82189992  1
  O  O43  1  0.71613706  0.73759194  0.17810008  1
  O  O44  1  0.03453812  0.27576962  0.19391847  1
  O  O45  1  0.53453812  0.22423038  0.80608153  1
  O  O46  1  0.96546188  0.72423038  0.80608153  1
  O  O47  1  0.46546188  0.77576962  0.19391847  1
  O  O48  1  0.24292120  0.56583404  0.90778595  1
  O  O49  1  0.74292120  0.93416596  0.09221405  1
  O  O50  1  0.75707880  0.43416596  0.09221405  1
  O  O51  1  0.25707880  0.06583404  0.90778595  1
  O  O52  1  0.35926149  0.53961031  0.01159094  1
  O  O53  1  0.85926149  0.96038969  0.98840906  1
  O  O54  1  0.64073851  0.46038969  0.98840906  1
  O  O55  1  0.14073851  0.03961031  0.01159094  1
  O  O56  1  0.49651310  0.59071021  0.92017510  1
  O  O57  1  0.99651310  0.90928979  0.07982490  1
  O  O58  1  0.50348690  0.40928979  0.07982490  1
  O  O59  1  0.00348690  0.09071021  0.92017510  1
  O  O60  1  0.33637134  0.71547380  0.98874840  1
  O  O61  1  0.83637134  0.78452620  0.01125160  1
  O  O62  1  0.66362866  0.28452620  0.01125160  1
  O  O63  1  0.16362866  0.21547380  0.98874840  1
  O  O64  1  0.84123130  0.59574419  0.34114982  1
  O  O65  1  0.34123130  0.90425581  0.65885018  1
  O  O66  1  0.15876870  0.40425581  0.65885018  1
  O  O67  1  0.65876870  0.09574419  0.34114982  1
  O  O68  1  0.70160825  0.44185479  0.35060374  1
  O  O69  1  0.20160825  0.05814521  0.64939626  1
  O  O70  1  0.29839175  0.55814521  0.64939626  1
  O  O71  1  0.79839175  0.94185479  0.35060374  1
  O  O72  1  0.91160301  0.48470530  0.42284071  1
  O  O73  1  0.41160301  0.01529470  0.57715929  1
  O  O74  1  0.08839699  0.51529470  0.57715929  1
  O  O75  1  0.58839699  0.98470530  0.42284071  1
  O  O76  1  0.92176442  0.41869927  0.29847905  1
  O  O77  1  0.42176442  0.08130073  0.70152095  1
  O  O78  1  0.07823558  0.58130073  0.70152095  1
  O  O79  1  0.57823558  0.91869927  0.29847905  1
  O  O80  1  0.40630767  0.98637587  0.20431925  1
  O  O81  1  0.90630767  0.51362413  0.79568075  1
  O  O82  1  0.59369233  0.01362413  0.79568075  1
  O  O83  1  0.09369233  0.48637587  0.20431925  1
  O  O84  1  0.44081820  0.09681970  0.11955869  1
  O  O85  1  0.94081820  0.40318030  0.88044131  1
  O  O86  1  0.55918180  0.90318030  0.88044131  1
  O  O87  1  0.05918180  0.59681970  0.11955869  1
  O  O88  1  0.20640039  0.04459631  0.14847424  1
  O  O89  1  0.70640039  0.45540369  0.85152576  1
  O  O90  1  0.79359961  0.95540369  0.85152576  1
  O  O91  1  0.29359961  0.54459631  0.14847424  1
  O  O92  1  0.35902182  0.91568419  0.08211965  1
  O  O93  1  0.85902182  0.58431581  0.91788035  1
  O  O94  1  0.64097818  0.08431581  0.91788035  1
  O  O95  1  0.14097818  0.41568419  0.08211965  1
loop_
_geom_bond_atom_site_label_1
_geom_bond_atom_site_label_2
_geom_bond_distance
_geom_bond_site_symmetry_2
K0 O4 2.651210 1_555
K0 O35 2.716846 1_555
K0 O91 2.838310 1_555
K0 O17 2.897167 1_555
K0 O83 3.040370 1_555
K0 O3 3.068139 1_555
K0 O15 3.209003 1_555
K0 O11 3.244706 1_555
K1 O5 2.651210 1_555
K1 O34 2.716846 1_655
K1 O90 2.838310 1_555
K1 O16 2.897167 1_555
K1 O82 3.040370 1_565
K1 O2 3.068139 1_565
K1 O14 3.209003 1_565
K1 O10 3.244706 1_565
K2 O6 2.651210 1_555
K2 O33 2.716846 1_555
K2 O89 2.838310 1_555
K2 O19 2.897167 1_555
K2 O81 3.040370 1_555
K2 O1 3.068139 1_555
K2 O13 3.209003 1_555
K2 O9 3.244706 1_555
K3 O7 2.651210 1_555
K3 O32 2.716846 1_455
K3 O88 2.838310 1_555
K3 O18 2.897167 1_555
K3 O80 3.040370 1_545
K3 O0 3.068139 1_545
K3 O12 3.209003 1_545
K3 O8 3.244706 1_545
K4 O17 2.631837 1_555
K4 O4 2.705632 1_555
K4 O20 2.737221 1_455
K4 O64 2.765189 1_455
K4 O24 2.894608 1_455
K4 O72 3.009841 1_455
K5 O16 2.631837 1_555
K5 O5 2.705632 1_555
K5 O21 2.737221 1_555
K5 O65 2.765189 1_555
K5 O25 2.894608 1_555
K5 O73 3.009841 1_565
K6 O19 2.631837 1_555
K6 O6 2.705632 1_555
K6 O22 2.737221 1_655
K6 O66 2.765189 1_655
K6 O26 2.894608 1_655
K6 O74 3.009841 1_655
K7 O18 2.631837 1_555
K7 O7 2.705632 1_555
K7 O23 2.737221 1_555
K7 O67 2.765189 1_555
K7 O27 2.894608 1_555
K7 O75 3.009841 1_545
K8 O64 2.668619 1_555
K8 O87 2.687826 1_655
K8 O43 2.703307 1_555
K8 O4 2.783749 1_655
K8 O83 2.871552 1_655
K8 O8 3.016429 1_655
K9 O65 2.668619 1_555
K9 O86 2.687826 1_555
K9 O42 2.703307 1_555
K9 O5 2.783749 1_555
K9 O82 2.871552 1_565
K9 O9 3.016429 1_555
K10 O66 2.668619 1_555
K10 O85 2.687826 1_455
K10 O41 2.703307 1_555
K10 O6 2.783749 1_455
K10 O81 2.871552 1_455
K10 O10 3.016429 1_455
K11 O67 2.668619 1_555
K11 O84 2.687826 1_555
K11 O40 2.703307 1_555
K11 O7 2.783749 1_555
K11 O80 2.871552 1_545
K11 O11 3.016429 1_555
K12 O74 2.733425 1_655
K12 O19 2.755508 1_555
K12 O20 2.761035 1_555
K12 O72 2.811851 1_555
K12 O1 2.996723 1_555
K12 O13 3.084214 1_555
K13 O75 2.733425 1_555
K13 O18 2.755508 1_565
K13 O21 2.761035 1_555
K13 O73 2.811851 1_565
K13 O0 2.996723 1_555
K13 O12 3.084214 1_555
K14 O72 2.733425 1_455
K14 O17 2.755508 1_555
K14 O22 2.761035 1_555
K14 O74 2.811851 1_555
K14 O3 2.996723 1_555
K14 O15 3.084214 1_555
K15 O73 2.733425 1_555
K15 O16 2.755508 1_545
K15 O23 2.761035 1_555
K15 O75 2.811851 1_545
K15 O2 2.996723 1_555
K15 O14 3.084214 1_555
K16 O64 2.712952 1_555
K16 O21 2.713133 1_555
K16 O35 2.890980 1_555
K16 O79 3.141921 1_555
K16 O71 3.149873 1_555
K16 O24 3.210663 1_555
K16 O29 3.287813 1_555
K16 O75 3.352683 1_555
K17 O65 2.712952 1_555
K17 O20 2.713133 1_455
K17 O34 2.890980 1_555
K17 O78 3.141921 1_555
K17 O70 3.149873 1_555
K17 O25 3.210663 1_555
K17 O28 3.287813 1_555
K17 O74 3.352683 1_555
K18 O66 2.712952 1_555
K18 O23 2.713133 1_555
K18 O33 2.890980 1_555
K18 O77 3.141921 1_555
K18 O69 3.149873 1_555
K18 O26 3.210663 1_555
K18 O31 3.287813 1_555
K18 O73 3.352683 1_555
K19 O67 2.712952 1_555
K19 O22 2.713133 1_655
K19 O32 2.890980 1_555
K19 O76 3.141921 1_555
K19 O68 3.149873 1_555
K19 O27 3.210663 1_555
K19 O30 3.287813 1_555
K19 O72 3.352683 1_555
K20 O50 2.702004 1_555
K20 O87 2.715594 1_655
K20 O61 2.743321 1_555
K20 O93 2.789377 1_554
K20 O54 2.860700 1_554
K20 O43 3.025199 1_555
K20 O39 3.081766 1_555
K21 O51 2.702004 1_565
K21 O86 2.715594 1_555
K21 O60 2.743321 1_555
K21 O92 2.789377 1_556
K21 O55 2.860700 1_566
K21 O42 3.025199 1_555
K21 O38 3.081766 1_555
K22 O48 2.702004 1_555
K22 O85 2.715594 1_455
K22 O63 2.743321 1_555
K22 O95 2.789377 1_556
K22 O52 2.860700 1_556
K22 O41 3.025199 1_555
K22 O37 3.081766 1_555
K23 O49 2.702004 1_545
K23 O84 2.715594 1_555
K23 O62 2.743321 1_555
K23 O94 2.789377 1_554
K23 O53 2.860700 1_544
K23 O40 3.025199 1_555
K23 O36 3.081766 1_555
K24 O49 2.672145 1_555
K24 O8 2.710056 1_655
K24 O71 2.825800 1_555
K24 O43 2.836873 1_555
K24 O32 2.939121 1_565
K24 O57 3.133202 1_555
K24 O79 3.136755 1_555
K25 O48 2.672145 1_555
K25 O9 2.710056 1_555
K25 O70 2.825800 1_555
K25 O42 2.836873 1_555
K25 O33 2.939121 1_555
K25 O56 3.133202 1_555
K25 O78 3.136755 1_555
K26 O51 2.672145 1_555
K26 O10 2.710056 1_455
K26 O69 2.825800 1_555
K26 O41 2.836873 1_555
K26 O34 2.939121 1_545
K26 O59 3.133202 1_555
K26 O77 3.136755 1_555
K27 O50 2.672145 1_555
K27 O11 2.710056 1_555
K27 O68 2.825800 1_555
K27 O40 2.836873 1_555
K27 O35 2.939121 1_555
K27 O58 3.133202 1_555
K27 O76 3.136755 1_555
K28 O92 2.604557 1_555
K28 O49 2.651165 1_555
K28 O60 2.758771 1_554
K28 O39 2.820075 1_555
K28 O61 2.910639 1_555
K28 O47 2.987487 1_555
K28 O43 3.113582 1_555
K29 O93 2.604557 1_455
K29 O48 2.651165 1_555
K29 O61 2.758771 1_456
K29 O38 2.820075 1_555
K29 O60 2.910639 1_555
K29 O46 2.987487 1_455
K29 O42 3.113582 1_555
K30 O94 2.604557 1_555
K30 O51 2.651165 1_555
K30 O62 2.758771 1_556
K30 O37 2.820075 1_555
K30 O63 2.910639 1_555
K30 O45 2.987487 1_555
K30 O41 3.113582 1_555
K31 O95 2.604557 1_655
K31 O50 2.651165 1_555
K31 O63 2.758771 1_654
K31 O36 2.820075 1_555
K31 O62 2.910639 1_555
K31 O44 2.987487 1_655
K31 O40 3.113582 1_555
K32 O87 2.732658 1_555
K32 O8 2.765287 1_555
K32 O92 2.770683 1_555
K32 O60 2.927406 1_554
K32 O57 3.017070 1_455
K32 O47 3.060145 1_555
K33 O86 2.732658 1_555
K33 O9 2.765287 1_555
K33 O93 2.770683 1_555
K33 O61 2.927406 1_556
K33 O56 3.017070 1_555
K33 O46 3.060145 1_555
K34 O85 2.732658 1_555
K34 O10 2.765287 1_555
K34 O94 2.770683 1_555
K34 O62 2.927406 1_556
K34 O59 3.017070 1_655
K34 O45 3.060145 1_555
K35 O84 2.732658 1_555
K35 O11 2.765287 1_555
K35 O95 2.770683 1_555
K35 O63 2.927406 1_554
K35 O58 3.017070 1_555
K35 O44 3.060145 1_555
Al0 O52 1.758722 1_555
Al0 O91 1.768329 1_555
Al0 O39 1.769324 1_555
Al0 O58 1.789045 1_555
Al1 O53 1.758722 1_555
Al1 O90 1.768329 1_555
Al1 O38 1.769324 1_655
Al1 O59 1.789045 1_665
Al2 O54 1.758722 1_555
Al2 O89 1.768329 1_555
Al2 O37 1.769324 1_555
Al2 O56 1.789045 1_555
Al3 O55 1.758722 1_555
Al3 O88 1.768329 1_555
Al3 O36 1.769324 1_455
Al3 O57 1.789045 1_445
Al4 O79 1.750395 1_555
Al4 O47 1.765168 1_555
Al4 O0 1.769114 1_555
Al4 O80 1.769125 1_555
Al5 O78 1.750395 1_655
Al5 O46 1.765168 1_555
Al5 O1 1.769114 1_555
Al5 O81 1.769125 1_555
Al6 O77 1.750395 1_555
Al6 O45 1.765168 1_555
Al6 O2 1.769114 1_555
Al6 O82 1.769125 1_555
Al7 O76 1.750395 1_455
Al7 O44 1.765168 1_555
Al7 O3 1.769114 1_555
Al7 O83 1.769125 1_555
Al8 O12 1.753018 1_655
Al8 O30 1.763409 1_565
Al8 O71 1.763494 1_555
Al8 O24 1.771304 1_555
Al9 O13 1.753018 1_555
Al9 O31 1.763409 1_555
Al9 O70 1.763494 1_555
Al9 O25 1.771304 1_555
Al10 O14 1.753018 1_455
Al10 O28 1.763409 1_545
Al10 O69 1.763494 1_555
Al10 O26 1.771304 1_555
Al11 O15 1.753018 1_555
Al11 O29 1.763409 1_555
Al11 O68 1.763494 1_555
Al11 O27 1.771304 1_555
O0 P0 1.597334 1_555
O1 P1 1.597334 1_555
O2 P2 1.597334 1_555
O3 P3 1.597334 1_555
O4 P0 1.519222 1_555
O5 P1 1.519222 1_555
O6 P2 1.519222 1_555
O7 P3 1.519222 1_555
O8 P0 1.523383 1_555
O9 P1 1.523383 1_555
O10 P2 1.523383 1_555
O11 P3 1.523383 1_555
O12 P0 1.586984 1_555
O13 P1 1.586984 1_555
O14 P2 1.586984 1_555
O15 P3 1.586984 1_555
O16 P4 1.520161 1_555
O17 P5 1.520161 1_555
O18 P6 1.520161 1_555
O19 P7 1.520161 1_555
O20 P4 1.524544 1_555
O21 P5 1.524544 1_555
O22 P6 1.524544 1_555
O23 P7 1.524544 1_555
O24 P4 1.595658 1_555
O25 P5 1.595658 1_555
O26 P6 1.595658 1_555
O27 P7 1.595658 1_555
O28 P4 1.600757 1_455
O29 P5 1.600757 1_555
O30 P6 1.600757 1_655
O31 P7 1.600757 1_555
O32 P8 1.520369 1_555
O33 P9 1.520369 1_555
O34 P10 1.520369 1_555
O35 P11 1.520369 1_555
O36 P8 1.599747 1_555
O37 P9 1.599747 1_555
O38 P10 1.599747 1_555
O39 P11 1.599747 1_555
O40 P8 1.524939 1_555
O41 P9 1.524939 1_555
O42 P10 1.524939 1_555
O43 P11 1.524939 1_555
O44 P8 1.605301 1_455
O45 P9 1.605301 1_555
O46 P10 1.605301 1_655
O47 P11 1.605301 1_555
O48 P12 1.523254 1_555
O49 P13 1.523254 1_555
O50 P14 1.523254 1_555
O51 P15 1.523254 1_555
O52 P12 1.585219 1_554
O53 P13 1.585219 1_556
O54 P14 1.585219 1_556
O55 P15 1.585219 1_554
O56 P12 1.608320 1_555
O57 P13 1.608320 1_555
O58 P14 1.608320 1_555
O59 P15 1.608320 1_555
O60 P12 1.522080 1_555
O61 P13 1.522080 1_555
O62 P14 1.522080 1_555
O63 P15 1.522080 1_555
O64 P16 1.522635 1_555
O65 P17 1.522635 1_565
O66 P18 1.522635 1_555
O67 P19 1.522635 1_545
O68 P16 1.597097 1_555
O69 P17 1.597097 1_555
O70 P18 1.597097 1_555
O71 P19 1.597097 1_555
O72 P16 1.522381 1_555
O73 P17 1.522381 1_555
O74 P18 1.522381 1_555
O75 P19 1.522381 1_555
O76 P16 1.589308 1_555
O77 P17 1.589308 1_555
O78 P18 1.589308 1_555
O79 P19 1.589308 1_555
O80 P20 1.599481 1_565
O81 P21 1.599481 1_555
O82 P22 1.599481 1_545
O83 P23 1.599481 1_555
O84 P20 1.522982 1_555
O85 P21 1.522982 1_555
O86 P22 1.522982 1_555
O87 P23 1.522982 1_555
O88 P20 1.597822 1_555
O89 P21 1.597822 1_555
O90 P22 1.597822 1_555
O91 P23 1.597822 1_555
O92 P20 1.521127 1_565
O93 P21 1.521127 1_555
O94 P22 1.521127 1_545
O95 P23 1.521127 1_555
