# generated using pymatgen
data_Nd2(CuSn)3
_symmetry_space_group_name_H-M   'P 1'
_cell_length_a   5.98269600
_cell_length_b   5.98269600
_cell_length_c   45.44008400
_cell_angle_alpha   90.00000000
_cell_angle_beta   90.00000000
_cell_angle_gamma   90.00000000
_symmetry_Int_Tables_number   1
_chemical_formula_structural   Nd2(CuSn)3
_chemical_formula_sum   'Nd16 Cu24 Sn24'
_cell_volume   1626.42108749
_cell_formula_units_Z   8
loop_
 _symmetry_equiv_pos_site_id
 _symmetry_equiv_pos_as_xyz
  1  'x, y, z'
loop_
 _atom_site_type_symbol
 _atom_site_label
 _atom_site_symmetry_multiplicity
 _atom_site_fract_x
 _atom_site_fract_y
 _atom_site_fract_z
 _atom_site_occupancy
  Nd  Nd0_0  1  0.25000000  0.25000000  0.37845950  1
  Nd  Nd0_1  1  0.25000000  0.25000000  0.87845950  1
  Nd  Nd0_2  1  0.25000000  0.75000000  0.37845950  1
  Nd  Nd0_3  1  0.25000000  0.75000000  0.87845950  1
  Nd  Nd0_4  1  0.75000000  0.25000000  0.37845950  1
  Nd  Nd0_5  1  0.75000000  0.25000000  0.87845950  1
  Nd  Nd0_6  1  0.75000000  0.75000000  0.37845950  1
  Nd  Nd0_7  1  0.75000000  0.75000000  0.87845950  1
  Nd  Nd1_0  1  0.25000000  0.25000000  0.12154050  1
  Nd  Nd1_1  1  0.25000000  0.25000000  0.62154050  1
  Nd  Nd1_2  1  0.25000000  0.75000000  0.12154050  1
  Nd  Nd1_3  1  0.25000000  0.75000000  0.62154050  1
  Nd  Nd1_4  1  0.75000000  0.25000000  0.12154050  1
  Nd  Nd1_5  1  0.75000000  0.25000000  0.62154050  1
  Nd  Nd1_6  1  0.75000000  0.75000000  0.12154050  1
  Nd  Nd1_7  1  0.75000000  0.75000000  0.62154050  1
  Cu  Cu0_0  1  0.25000000  0.25000000  0.05886600  1
  Cu  Cu0_1  1  0.25000000  0.25000000  0.55886600  1
  Cu  Cu0_2  1  0.25000000  0.75000000  0.05886600  1
  Cu  Cu0_3  1  0.25000000  0.75000000  0.55886600  1
  Cu  Cu0_4  1  0.75000000  0.25000000  0.05886600  1
  Cu  Cu0_5  1  0.75000000  0.25000000  0.55886600  1
  Cu  Cu0_6  1  0.75000000  0.75000000  0.05886600  1
  Cu  Cu0_7  1  0.75000000  0.75000000  0.55886600  1
  Cu  Cu1_0  1  0.25000000  0.25000000  0.44113400  1
  Cu  Cu1_1  1  0.25000000  0.25000000  0.94113400  1
  Cu  Cu1_2  1  0.25000000  0.75000000  0.44113400  1
  Cu  Cu1_3  1  0.25000000  0.75000000  0.94113400  1
  Cu  Cu1_4  1  0.75000000  0.25000000  0.44113400  1
  Cu  Cu1_5  1  0.75000000  0.25000000  0.94113400  1
  Cu  Cu1_6  1  0.75000000  0.75000000  0.44113400  1
  Cu  Cu1_7  1  0.75000000  0.75000000  0.94113400  1
  Cu  Cu2_0  1  0.25000000  0.25000000  0.25000000  1
  Cu  Cu2_1  1  0.25000000  0.25000000  0.75000000  1
  Cu  Cu2_2  1  0.25000000  0.75000000  0.25000000  1
  Cu  Cu2_3  1  0.25000000  0.75000000  0.75000000  1
  Cu  Cu2_4  1  0.75000000  0.25000000  0.25000000  1
  Cu  Cu2_5  1  0.75000000  0.25000000  0.75000000  1
  Cu  Cu2_6  1  0.75000000  0.75000000  0.25000000  1
  Cu  Cu2_7  1  0.75000000  0.75000000  0.75000000  1
  Sn  Sn0_0  1  0.25000000  0.25000000  0.19417100  1
  Sn  Sn0_1  1  0.25000000  0.25000000  0.69417100  1
  Sn  Sn0_2  1  0.25000000  0.75000000  0.19417100  1
  Sn  Sn0_3  1  0.25000000  0.75000000  0.69417100  1
  Sn  Sn0_4  1  0.75000000  0.25000000  0.19417100  1
  Sn  Sn0_5  1  0.75000000  0.25000000  0.69417100  1
  Sn  Sn0_6  1  0.75000000  0.75000000  0.19417100  1
  Sn  Sn0_7  1  0.75000000  0.75000000  0.69417100  1
  Sn  Sn1_0  1  0.25000000  0.25000000  0.30582900  1
  Sn  Sn1_1  1  0.25000000  0.25000000  0.80582900  1
  Sn  Sn1_2  1  0.25000000  0.75000000  0.30582900  1
  Sn  Sn1_3  1  0.25000000  0.75000000  0.80582900  1
  Sn  Sn1_4  1  0.75000000  0.25000000  0.30582900  1
  Sn  Sn1_5  1  0.75000000  0.25000000  0.80582900  1
  Sn  Sn1_6  1  0.75000000  0.75000000  0.30582900  1
  Sn  Sn1_7  1  0.75000000  0.75000000  0.80582900  1
  Sn  Sn2_0  1  0.25000000  0.25000000  0.00000000  1
  Sn  Sn2_1  1  0.25000000  0.25000000  0.50000000  1
  Sn  Sn2_2  1  0.25000000  0.75000000  0.00000000  1
  Sn  Sn2_3  1  0.25000000  0.75000000  0.50000000  1
  Sn  Sn2_4  1  0.75000000  0.25000000  0.00000000  1
  Sn  Sn2_5  1  0.75000000  0.25000000  0.50000000  1
  Sn  Sn2_6  1  0.75000000  0.75000000  0.00000000  1
  Sn  Sn2_7  1  0.75000000  0.75000000  0.50000000  1
loop_
_geom_bond_atom_site_label_1
_geom_bond_atom_site_label_2
_geom_bond_distance
_geom_bond_site_symmetry_2
Nd0_0 Nd0_4 2.991348 1_555
Nd0_0 Nd0_2 2.991348 1_555
Nd0_0 Nd0_4 2.991348 1_455
Nd0_0 Nd0_2 2.991348 1_545
Nd0_0 Sn1_0 3.300336 1_555
Nd0_1 Nd0_5 2.991348 1_555
Nd0_1 Nd0_3 2.991348 1_555
Nd0_1 Nd0_5 2.991348 1_455
Nd0_1 Nd0_3 2.991348 1_545
Nd0_1 Sn1_1 3.300336 1_555
Nd0_2 Nd0_6 2.991348 1_555
Nd0_2 Nd0_6 2.991348 1_455
Nd0_2 Sn1_2 3.300336 1_555
Nd0_3 Nd0_7 2.991348 1_555
Nd0_3 Nd0_7 2.991348 1_455
Nd0_3 Sn1_3 3.300336 1_555
Nd0_4 Nd0_6 2.991348 1_555
Nd0_4 Nd0_6 2.991348 1_545
Nd0_4 Sn1_4 3.300336 1_555
Nd0_5 Nd0_7 2.991348 1_555
Nd0_5 Nd0_7 2.991348 1_545
Nd0_5 Sn1_5 3.300336 1_555
Nd0_6 Sn1_6 3.300336 1_555
Nd0_7 Sn1_7 3.300336 1_555
Nd1_0 Nd1_4 2.991348 1_555
Nd1_0 Nd1_2 2.991348 1_555
Nd1_0 Nd1_4 2.991348 1_455
Nd1_0 Nd1_2 2.991348 1_545
Nd1_0 Sn0_0 3.300336 1_555
Nd1_1 Nd1_5 2.991348 1_555
Nd1_1 Nd1_3 2.991348 1_555
Nd1_1 Nd1_5 2.991348 1_455
Nd1_1 Nd1_3 2.991348 1_545
Nd1_1 Sn0_1 3.300336 1_555
Nd1_2 Nd1_6 2.991348 1_555
Nd1_2 Nd1_6 2.991348 1_455
Nd1_2 Sn0_2 3.300336 1_555
Nd1_3 Nd1_7 2.991348 1_555
Nd1_3 Nd1_7 2.991348 1_455
Nd1_3 Sn0_3 3.300336 1_555
Nd1_4 Nd1_6 2.991348 1_555
Nd1_4 Nd1_6 2.991348 1_545
Nd1_4 Sn0_4 3.300336 1_555
Nd1_5 Nd1_7 2.991348 1_555
Nd1_5 Nd1_7 2.991348 1_545
Nd1_5 Sn0_5 3.300336 1_555
Nd1_6 Sn0_6 3.300336 1_555
Nd1_7 Sn0_7 3.300336 1_555
Cu0_0 Sn2_0 2.674876 1_555
Cu0_0 Nd1_0 2.847935 1_555
Cu0_0 Cu0_4 2.991348 1_555
Cu0_0 Cu0_2 2.991348 1_555
Cu0_0 Cu0_4 2.991348 1_455
Cu0_0 Cu0_2 2.991348 1_545
Cu0_1 Sn2_1 2.674876 1_555
Cu0_1 Nd1_1 2.847935 1_555
Cu0_1 Cu0_5 2.991348 1_555
Cu0_1 Cu0_3 2.991348 1_555
Cu0_1 Cu0_5 2.991348 1_455
Cu0_1 Cu0_3 2.991348 1_545
Cu0_2 Sn2_2 2.674876 1_555
Cu0_2 Nd1_2 2.847935 1_555
Cu0_2 Cu0_6 2.991348 1_555
Cu0_2 Cu0_6 2.991348 1_455
Cu0_3 Sn2_3 2.674876 1_555
Cu0_3 Nd1_3 2.847935 1_555
Cu0_3 Cu0_7 2.991348 1_555
Cu0_3 Cu0_7 2.991348 1_455
Cu0_4 Sn2_4 2.674876 1_555
Cu0_4 Nd1_4 2.847935 1_555
Cu0_4 Cu0_6 2.991348 1_555
Cu0_4 Cu0_6 2.991348 1_545
Cu0_5 Sn2_5 2.674876 1_555
Cu0_5 Nd1_5 2.847935 1_555
Cu0_5 Cu0_7 2.991348 1_555
Cu0_5 Cu0_7 2.991348 1_545
Cu0_6 Sn2_6 2.674876 1_555
Cu0_6 Nd1_6 2.847935 1_555
Cu0_7 Sn2_7 2.674876 1_555
Cu0_7 Nd1_7 2.847935 1_555
Cu1_0 Sn2_1 2.674876 1_555
Cu1_0 Nd0_0 2.847935 1_555
Cu1_0 Cu1_4 2.991348 1_555
Cu1_0 Cu1_2 2.991348 1_555
Cu1_0 Cu1_2 2.991348 1_545
Cu1_0 Cu1_4 2.991348 1_455
Cu1_1 Sn2_0 2.674876 1_556
Cu1_1 Nd0_1 2.847935 1_555
Cu1_1 Cu1_3 2.991348 1_555
Cu1_1 Cu1_5 2.991348 1_555
Cu1_1 Cu1_3 2.991348 1_545
Cu1_1 Cu1_5 2.991348 1_455
Cu1_2 Sn2_3 2.674876 1_555
Cu1_2 Nd0_2 2.847935 1_555
Cu1_2 Cu1_6 2.991348 1_555
Cu1_2 Cu1_6 2.991348 1_455
Cu1_3 Sn2_2 2.674876 1_556
Cu1_3 Nd0_3 2.847935 1_555
Cu1_3 Cu1_7 2.991348 1_555
Cu1_3 Cu1_7 2.991348 1_455
Cu1_4 Sn2_5 2.674876 1_555
Cu1_4 Nd0_4 2.847935 1_555
Cu1_4 Cu1_6 2.991348 1_555
Cu1_4 Cu1_6 2.991348 1_545
Cu1_5 Sn2_4 2.674876 1_556
Cu1_5 Nd0_5 2.847935 1_555
Cu1_5 Cu1_7 2.991348 1_555
Cu1_5 Cu1_7 2.991348 1_545
Cu1_6 Sn2_7 2.674876 1_555
Cu1_6 Nd0_6 2.847935 1_555
Cu1_7 Sn2_6 2.674876 1_556
Cu1_7 Nd0_7 2.847935 1_555
Cu2_0 Sn0_0 2.536874 1_555
Cu2_0 Sn1_0 2.536874 1_555
Cu2_0 Cu2_4 2.991348 1_555
Cu2_0 Cu2_2 2.991348 1_555
Cu2_0 Cu2_4 2.991348 1_455
Cu2_0 Cu2_2 2.991348 1_545
Cu2_1 Sn0_1 2.536874 1_555
Cu2_1 Sn1_1 2.536874 1_555
Cu2_1 Cu2_5 2.991348 1_555
Cu2_1 Cu2_3 2.991348 1_555
Cu2_1 Cu2_3 2.991348 1_545
Cu2_1 Cu2_5 2.991348 1_455
Cu2_2 Sn0_2 2.536874 1_555
Cu2_2 Sn1_2 2.536874 1_555
Cu2_2 Cu2_6 2.991348 1_555
Cu2_2 Cu2_6 2.991348 1_455
Cu2_3 Sn0_3 2.536874 1_555
Cu2_3 Sn1_3 2.536874 1_555
Cu2_3 Cu2_7 2.991348 1_555
Cu2_3 Cu2_7 2.991348 1_455
Cu2_4 Sn0_4 2.536874 1_555
Cu2_4 Sn1_4 2.536874 1_555
Cu2_4 Cu2_6 2.991348 1_555
Cu2_4 Cu2_6 2.991348 1_545
Cu2_5 Sn0_5 2.536874 1_555
Cu2_5 Sn1_5 2.536874 1_555
Cu2_5 Cu2_7 2.991348 1_555
Cu2_5 Cu2_7 2.991348 1_545
Cu2_6 Sn0_6 2.536874 1_555
Cu2_6 Sn1_6 2.536874 1_555
Cu2_7 Sn0_7 2.536874 1_555
Cu2_7 Sn1_7 2.536874 1_555
Sn0_0 Sn0_4 2.991348 1_555
Sn0_0 Sn0_2 2.991348 1_555
Sn0_0 Sn0_4 2.991348 1_455
Sn0_0 Sn0_2 2.991348 1_545
Sn0_1 Sn0_3 2.991348 1_555
Sn0_1 Sn0_5 2.991348 1_555
Sn0_1 Sn0_5 2.991348 1_455
Sn0_1 Sn0_3 2.991348 1_545
Sn0_2 Sn0_6 2.991348 1_555
Sn0_2 Sn0_6 2.991348 1_455
Sn0_3 Sn0_7 2.991348 1_555
Sn0_3 Sn0_7 2.991348 1_455
Sn0_4 Sn0_6 2.991348 1_555
Sn0_4 Sn0_6 2.991348 1_545
Sn0_5 Sn0_7 2.991348 1_555
Sn0_5 Sn0_7 2.991348 1_545
Sn1_0 Sn1_2 2.991348 1_555
Sn1_0 Sn1_4 2.991348 1_555
Sn1_0 Sn1_4 2.991348 1_455
Sn1_0 Sn1_2 2.991348 1_545
Sn1_1 Sn1_3 2.991348 1_555
Sn1_1 Sn1_5 2.991348 1_555
Sn1_1 Sn1_5 2.991348 1_455
Sn1_1 Sn1_3 2.991348 1_545
Sn1_2 Sn1_6 2.991348 1_555
Sn1_2 Sn1_6 2.991348 1_455
Sn1_3 Sn1_7 2.991348 1_555
Sn1_3 Sn1_7 2.991348 1_455
Sn1_4 Sn1_6 2.991348 1_555
Sn1_4 Sn1_6 2.991348 1_545
Sn1_5 Sn1_7 2.991348 1_555
Sn1_5 Sn1_7 2.991348 1_545
Sn2_0 Sn2_2 2.991348 1_555
Sn2_0 Sn2_4 2.991348 1_555
Sn2_0 Sn2_2 2.991348 1_545
Sn2_0 Sn2_4 2.991348 1_455
Sn2_1 Sn2_5 2.991348 1_555
Sn2_1 Sn2_3 2.991348 1_555
Sn2_1 Sn2_3 2.991348 1_545
Sn2_1 Sn2_5 2.991348 1_455
Sn2_2 Sn2_6 2.991348 1_555
Sn2_2 Sn2_6 2.991348 1_455
Sn2_3 Sn2_7 2.991348 1_555
Sn2_3 Sn2_7 2.991348 1_455
Sn2_4 Sn2_6 2.991348 1_555
Sn2_4 Sn2_6 2.991348 1_545
Sn2_5 Sn2_7 2.991348 1_555
Sn2_5 Sn2_7 2.991348 1_545
