# generated using pymatgen
data_LiTmSiO4
_symmetry_space_group_name_H-M   'P 1'
_cell_length_a   4.93885600
_cell_length_b   6.26707200
_cell_length_c   10.84832300
_cell_angle_alpha   90.00000000
_cell_angle_beta   90.00000000
_cell_angle_gamma   90.00000000
_symmetry_Int_Tables_number   1
_chemical_formula_structural   LiTmSiO4
_chemical_formula_sum   'Li4 Tm4 Si4 O16'
_cell_volume   335.77909594
_cell_formula_units_Z   4
loop_
 _symmetry_equiv_pos_site_id
 _symmetry_equiv_pos_as_xyz
  1  'x, y, z'
loop_
 _atom_site_type_symbol
 _atom_site_label
 _atom_site_symmetry_multiplicity
 _atom_site_fract_x
 _atom_site_fract_y
 _atom_site_fract_z
 _atom_site_occupancy
  Li  Li0  1  0.00000000  0.00000000  0.00000000  1
  Li  Li1  1  0.50000000  0.00000000  0.50000000  1
  Li  Li2  1  0.00000000  0.50000000  0.00000000  1
  Li  Li3  1  0.50000000  0.50000000  0.50000000  1
  Tm  Tm0  1  0.98036600  0.75000000  0.27680700  1
  Tm  Tm1  1  0.51963400  0.75000000  0.77680700  1
  Tm  Tm2  1  0.01963400  0.25000000  0.72319300  1
  Tm  Tm3  1  0.48036600  0.25000000  0.22319300  1
  Si  Si0  1  0.41741800  0.75000000  0.08799500  1
  Si  Si1  1  0.08258200  0.75000000  0.58799500  1
  Si  Si2  1  0.58258200  0.25000000  0.91200500  1
  Si  Si3  1  0.91741800  0.25000000  0.41200500  1
  O  O0  1  0.22610900  0.54540300  0.66300600  1
  O  O1  1  0.77389100  0.45459700  0.33699400  1
  O  O2  1  0.27389100  0.54540300  0.16300600  1
  O  O3  1  0.22610900  0.95459700  0.66300600  1
  O  O4  1  0.72610900  0.04540300  0.83699400  1
  O  O5  1  0.25460600  0.25000000  0.90215400  1
  O  O6  1  0.72610900  0.45459700  0.83699400  1
  O  O7  1  0.77389100  0.04540300  0.33699400  1
  O  O8  1  0.74539400  0.75000000  0.09784600  1
  O  O9  1  0.24539400  0.25000000  0.40215400  1
  O  O10  1  0.71257000  0.25000000  0.05067100  1
  O  O11  1  0.75460600  0.75000000  0.59784600  1
  O  O12  1  0.78743000  0.25000000  0.55067100  1
  O  O13  1  0.21257000  0.75000000  0.44932900  1
  O  O14  1  0.28743000  0.75000000  0.94932900  1
  O  O15  1  0.27389100  0.95459700  0.16300600  1
loop_
_geom_bond_atom_site_label_1
_geom_bond_atom_site_label_2
_geom_bond_distance
_geom_bond_site_symmetry_2
Li0 O10 2.184519 1_455
Li0 O14 2.184519 1_544
Li0 O4 2.244508 1_454
Li0 O15 2.244508 1_545
Li0 O8 2.272154 1_445
Li0 O5 2.272154 1_554
Li1 O12 2.184519 1_555
Li1 O13 2.184519 1_545
Li1 O7 2.244508 1_555
Li1 O3 2.244508 1_545
Li1 O9 2.272154 1_555
Li1 O11 2.272154 1_545
Li2 O10 2.184519 1_455
Li2 O14 2.184519 1_554
Li2 O6 2.244508 1_454
Li2 O2 2.244508 1_555
Li2 O8 2.272154 1_455
Li2 O5 2.272154 1_554
Li3 O12 2.184519 1_555
Li3 O13 2.184519 1_555
Li3 O0 2.244508 1_555
Li3 O1 2.244508 1_555
Li3 O11 2.272154 1_555
Li3 O9 2.272154 1_555
O0 Si1 1.675935 1_555
O0 Tm2 2.212140 1_555
O0 Tm1 2.295600 1_555
O1 Si3 1.675935 1_555
O1 Tm0 2.212140 1_555
O1 Tm3 2.295600 1_555
O2 Si0 1.675935 1_555
O2 Tm3 2.212140 1_555
O2 Tm0 2.295600 1_455
O3 Si1 1.675935 1_555
O3 Tm2 2.212140 1_565
O3 Tm1 2.295600 1_555
O4 Si2 1.675935 1_555
O4 Tm1 2.212140 1_545
O4 Tm2 2.295600 1_655
O5 Si2 1.623348 1_555
O5 Tm2 2.261831 1_555
O6 Si2 1.675935 1_555
O6 Tm1 2.212140 1_555
O6 Tm2 2.295600 1_655
O7 Si3 1.675935 1_555
O7 Tm0 2.212140 1_545
O7 Tm3 2.295600 1_555
O8 Si0 1.623348 1_555
O8 Tm0 2.261831 1_555
O9 Si3 1.623348 1_455
O9 Tm3 2.261831 1_555
O10 Si2 1.635559 1_554
O10 Tm3 2.194992 1_555
O11 Si1 1.623348 1_655
O11 Tm1 2.261831 1_555
O12 Si3 1.635559 1_555
O12 Tm2 2.194992 1_655
O13 Si1 1.635559 1_555
O13 Tm0 2.194992 1_455
O14 Si0 1.635559 1_556
O14 Tm1 2.194992 1_555
O15 Si0 1.675935 1_555
O15 Tm3 2.212140 1_565
O15 Tm0 2.295600 1_455
