# generated using pymatgen
data_Te2P2O9
_symmetry_space_group_name_H-M   'P 1'
_cell_length_a   7.32839017
_cell_length_b   7.32839017
_cell_length_c   9.57464685
_cell_angle_alpha   85.09557492
_cell_angle_beta   85.09557492
_cell_angle_gamma   137.09057884
_symmetry_Int_Tables_number   1
_chemical_formula_structural   Te2P2O9
_chemical_formula_sum   'Te4 P4 O18'
_cell_volume   340.39705108
_cell_formula_units_Z   2
loop_
 _symmetry_equiv_pos_site_id
 _symmetry_equiv_pos_as_xyz
  1  'x, y, z'
loop_
 _atom_site_type_symbol
 _atom_site_label
 _atom_site_symmetry_multiplicity
 _atom_site_fract_x
 _atom_site_fract_y
 _atom_site_fract_z
 _atom_site_occupancy
  Te  Te0  1  0.63219989  0.05266903  0.43497500  1
  Te  Te1  1  0.05266903  0.63219989  0.93497500  1
  Te  Te2  1  0.60184514  0.54119656  0.19927542  1
  Te  Te3  1  0.54119656  0.60184514  0.69927542  1
  P  P0  1  0.00117607  0.19462934  0.14036725  1
  P  P1  1  0.19462934  0.00117607  0.64036725  1
  P  P2  1  0.22211874  0.85480633  0.23228266  1
  P  P3  1  0.85480633  0.22211874  0.73228266  1
  O  O0  1  0.88945572  0.29653592  0.09215751  1
  O  O1  1  0.29653592  0.88945572  0.59215751  1
  O  O2  1  0.34020999  0.77286961  0.30247745  1
  O  O3  1  0.77286961  0.34020999  0.80247745  1
  O  O4  1  0.89608171  0.27817831  0.56765674  1
  O  O5  1  0.27817831  0.89608171  0.06765674  1
  O  O6  1  0.93157833  0.11759112  0.30586489  1
  O  O7  1  0.11759112  0.93157833  0.80586489  1
  O  O8  1  0.51396882  0.73072009  0.52871195  1
  O  O9  1  0.73072009  0.51396882  0.02871195  1
  O  O10  1  0.35681591  0.12443827  0.27238500  1
  O  O11  1  0.12443827  0.35681591  0.77238500  1
  O  O12  1  0.31416809  0.42208364  0.08203269  1
  O  O13  1  0.42208364  0.31416809  0.58203269  1
  O  O14  1  0.86902097  0.93893827  0.08257004  1
  O  O15  1  0.93893827  0.86902097  0.58257004  1
  O  O16  1  0.90867361  0.62646951  0.28826138  1
  O  O17  1  0.62646951  0.90867361  0.78826138  1
loop_
_geom_bond_atom_site_label_1
_geom_bond_atom_site_label_2
_geom_bond_distance
_geom_bond_site_symmetry_2
O0 P0 1.530510 1_655
O0 Te1 2.120328 1_654
O1 P1 1.530510 1_565
O1 Te0 2.120328 1_565
O2 P2 1.533910 1_555
O2 Te0 2.207786 1_565
O3 P3 1.533910 1_555
O3 Te1 2.207786 1_655
O4 P3 1.539645 1_555
O4 Te0 2.045051 1_555
O5 P2 1.539645 1_555
O5 Te1 2.045051 1_554
O6 P0 1.541690 1_655
O6 Te0 2.115326 1_555
O7 P1 1.541690 1_565
O7 Te1 2.115326 1_555
O8 Te0 1.906108 1_565
O8 Te3 1.914891 1_555
O9 Te1 1.906108 1_654
O9 Te2 1.914891 1_555
O10 P2 1.537397 1_545
O10 Te2 2.104323 1_555
O11 P3 1.537397 1_455
O11 Te3 2.104323 1_555
O12 P0 1.540351 1_555
O12 Te2 2.084014 1_555
O13 P1 1.540351 1_555
O13 Te3 2.084014 1_555
O14 P0 1.538157 1_665
O14 Te2 2.070561 1_555
O15 P1 1.538157 1_665
O15 Te3 2.070561 1_555
O16 P2 1.539269 1_655
O16 Te2 2.129017 1_555
O17 P3 1.539269 1_565
O17 Te3 2.129017 1_555
