# generated using pymatgen
data_Yb3Pd
_symmetry_space_group_name_H-M   'P 1'
_cell_length_a   6.51389200
_cell_length_b   7.56953900
_cell_length_c   9.69412500
_cell_angle_alpha   90.00000000
_cell_angle_beta   90.00000000
_cell_angle_gamma   90.00000000
_symmetry_Int_Tables_number   1
_chemical_formula_structural   Yb3Pd
_chemical_formula_sum   'Yb12 Pd4'
_cell_volume   477.98976793
_cell_formula_units_Z   4
loop_
 _symmetry_equiv_pos_site_id
 _symmetry_equiv_pos_as_xyz
  1  'x, y, z'
loop_
 _atom_site_type_symbol
 _atom_site_label
 _atom_site_symmetry_multiplicity
 _atom_site_fract_x
 _atom_site_fract_y
 _atom_site_fract_z
 _atom_site_occupancy
  Yb  Yb0  1  0.33658800  0.67224300  0.06656500  1
  Yb  Yb1  1  0.16341200  0.17224300  0.43343500  1
  Yb  Yb2  1  0.66341200  0.32775700  0.56656500  1
  Yb  Yb3  1  0.83658800  0.82775700  0.93343500  1
  Yb  Yb4  1  0.66341200  0.32775700  0.93343500  1
  Yb  Yb5  1  0.83658800  0.82775700  0.56656500  1
  Yb  Yb6  1  0.33658800  0.67224300  0.43343500  1
  Yb  Yb7  1  0.16341200  0.17224300  0.06656500  1
  Yb  Yb8  1  0.85937800  0.54010600  0.25000000  1
  Yb  Yb9  1  0.64062200  0.04010600  0.25000000  1
  Yb  Yb10  1  0.14062200  0.45989400  0.75000000  1
  Yb  Yb11  1  0.35937800  0.95989400  0.75000000  1
  Pd  Pd0  1  0.04878500  0.88037800  0.25000000  1
  Pd  Pd1  1  0.45121500  0.38037800  0.25000000  1
  Pd  Pd2  1  0.95121500  0.11962200  0.75000000  1
  Pd  Pd3  1  0.54878500  0.61962200  0.75000000  1
loop_
_geom_bond_atom_site_label_1
_geom_bond_atom_site_label_2
_geom_bond_distance
_geom_bond_site_symmetry_2
Pd0 Yb8 2.855949 1_455
Pd0 Yb9 2.920734 1_465
Pd0 Yb1 2.932676 1_565
Pd0 Yb7 2.932676 1_565
Pd0 Yb0 3.026362 1_555
Pd0 Yb6 3.026362 1_555
Pd0 Yb3 3.389229 1_454
Pd0 Yb5 3.389229 1_455
Pd1 Yb9 2.855949 1_555
Pd1 Yb8 2.920734 1_555
Pd1 Yb6 2.932676 1_555
Pd1 Yb0 2.932676 1_555
Pd1 Yb7 3.026362 1_555
Pd1 Yb1 3.026362 1_555
Pd1 Yb2 3.389229 1_555
Pd1 Yb4 3.389229 1_554
Pd2 Yb10 2.855949 1_655
Pd2 Yb11 2.920734 1_645
Pd2 Yb3 2.932676 1_545
Pd2 Yb5 2.932676 1_545
Pd2 Yb4 3.026362 1_555
Pd2 Yb2 3.026362 1_555
Pd2 Yb1 3.389229 1_655
Pd2 Yb7 3.389229 1_656
Pd3 Yb11 2.855949 1_555
Pd3 Yb10 2.920734 1_555
Pd3 Yb2 2.932676 1_555
Pd3 Yb4 2.932676 1_555
Pd3 Yb5 3.026362 1_555
Pd3 Yb3 3.026362 1_555
Pd3 Yb6 3.389229 1_555
Pd3 Yb0 3.389229 1_556
