# generated using pymatgen
data_MgAl2Ga2Cu4(AsO5)4
_symmetry_space_group_name_H-M   'P 1'
_cell_length_a   5.62951547
_cell_length_b   7.64682847
_cell_length_c   10.50332790
_cell_angle_alpha   89.93517652
_cell_angle_beta   89.51072096
_cell_angle_gamma   102.80161133
_symmetry_Int_Tables_number   1
_chemical_formula_structural   MgAl2Ga2Cu4(AsO5)4
_chemical_formula_sum   'Mg1 Al2 Ga2 Cu4 As4 O20'
_cell_volume   440.88947211
_cell_formula_units_Z   1
loop_
 _symmetry_equiv_pos_site_id
 _symmetry_equiv_pos_as_xyz
  1  'x, y, z'
loop_
 _atom_site_type_symbol
 _atom_site_label
 _atom_site_symmetry_multiplicity
 _atom_site_fract_x
 _atom_site_fract_y
 _atom_site_fract_z
 _atom_site_occupancy
  Mg  Mg0  1  0.55337389  0.88053511  0.97033308  1
  Al  Al0  1  0.44849705  0.13667187  0.32354960  1
  Al  Al1  1  0.04368747  0.87533966  0.82054700  1
  Ga  Ga0  1  0.54162393  0.87146947  0.66938356  1
  Ga  Ga1  1  0.94736960  0.13733216  0.18536262  1
  Cu  Cu0  1  0.91581695  0.46904754  0.35870269  1
  Cu  Cu1  1  0.58316758  0.50835254  0.85205807  1
  Cu  Cu2  1  0.07819537  0.54033276  0.64700273  1
  Cu  Cu3  1  0.41162014  0.46632256  0.14736480  1
  As  As0  1  0.55800161  0.27930049  0.60524662  1
  As  As1  1  0.95981824  0.73212951  0.10984441  1
  As  As2  1  0.44353574  0.73007761  0.38906727  1
  As  As3  1  0.04002356  0.26894288  0.89750229  1
  O  O0  1  0.59919015  0.11386890  0.71079634  1
  O  O1  1  0.91607679  0.89236011  0.21485790  1
  O  O2  1  0.41921937  0.90401284  0.28654402  1
  O  O3  1  0.11366371  0.11035392  0.79809632  1
  O  O4  1  0.84079612  0.37811636  0.54150598  1
  O  O5  1  0.67238603  0.66355794  0.03828718  1
  O  O6  1  0.16270525  0.64028299  0.45698468  1
  O  O7  1  0.30963144  0.37532687  0.97042892  1
  O  O8  1  0.75058617  0.23810068  0.28343357  1
  O  O9  1  0.72085221  0.80966126  0.80889698  1
  O  O10  1  0.22642039  0.77631331  0.72271596  1
  O  O11  1  0.26629552  0.22515936  0.21726560  1
  O  O12  1  0.43033497  0.43509025  0.68225461  1
  O  O13  1  0.06346167  0.56286189  0.17751544  1
  O  O14  1  0.56381593  0.57290723  0.31027203  1
  O  O15  1  0.91440707  0.42735445  0.82413942  1
  O  O16  1  0.37600068  0.17180727  0.48473824  1
  O  O17  1  0.16488007  0.83365281  0.98146705  1
  O  O18  1  0.64313029  0.82238319  0.50986091  1
  O  O19  1  0.83183203  0.12716422  0.01022509  1
loop_
_geom_bond_atom_site_label_1
_geom_bond_atom_site_label_2
_geom_bond_distance
_geom_bond_site_symmetry_2
Mg0 O5 2.051661 1_556
Mg0 O9 2.063725 1_555
Mg0 O17 2.138549 1_555
Mg0 O19 2.211901 1_566
Al0 O8 1.753197 1_555
Al0 O11 1.755433 1_555
Al0 O16 1.772816 1_555
Al0 O2 1.793366 1_545
Al1 O10 1.736778 1_555
Al1 O3 1.767522 1_565
Al1 O9 1.780343 1_455
Al1 O17 1.881145 1_555
Ga0 O18 1.831641 1_555
Ga0 O10 1.844403 1_555
Ga0 O0 1.862268 1_565
Ga0 O9 1.903597 1_555
Ga1 O8 1.800725 1_555
Ga1 O11 1.806439 1_655
Ga1 O1 1.867518 1_545
Ga1 O19 1.952255 1_555
Cu0 O8 1.974026 1_555
Cu0 O6 1.983168 1_655
Cu0 O4 2.049735 1_555
Cu0 O13 2.129040 1_655
Cu0 O14 2.351585 1_555
Cu1 O12 2.012421 1_555
Cu1 O7 2.054754 1_555
Cu1 O15 2.109429 1_555
Cu1 O5 2.290138 1_556
Cu1 O9 2.305469 1_555
Cu2 O4 1.961209 1_455
Cu2 O10 1.982985 1_555
Cu2 O6 2.147788 1_555
Cu2 O15 2.161516 1_455
Cu2 O12 2.330968 1_555
Cu3 O11 1.981732 1_555
Cu3 O14 2.011183 1_555
Cu3 O7 2.027717 1_554
Cu3 O5 2.174513 1_555
Cu3 O13 2.262262 1_555
As0 O12 1.720935 1_555
As0 O16 1.725919 1_555
As0 O4 1.732397 1_555
As0 O0 1.736176 1_555
As1 O13 1.691351 1_655
As1 O1 1.706048 1_555
As1 O5 1.761749 1_555
As1 O17 1.824110 1_654
As2 O14 1.714994 1_555
As2 O6 1.725776 1_555
As2 O2 1.739918 1_555
As2 O18 1.745090 1_555
As3 O15 1.716972 1_455
As3 O3 1.717818 1_555
As3 O7 1.739598 1_555
As3 O19 1.833330 1_456
