# generated using pymatgen
data_Al4Ni3Pt
_symmetry_space_group_name_H-M   'P 1'
_cell_length_a   5.83539200
_cell_length_b   5.83539200
_cell_length_c   23.81437200
_cell_angle_alpha   90.00000000
_cell_angle_beta   90.00000000
_cell_angle_gamma   90.00000000
_symmetry_Int_Tables_number   1
_chemical_formula_structural   Al4Ni3Pt
_chemical_formula_sum   'Al32 Ni24 Pt8'
_cell_volume   810.92222756
_cell_formula_units_Z   8
loop_
 _symmetry_equiv_pos_site_id
 _symmetry_equiv_pos_as_xyz
  1  'x, y, z'
loop_
 _atom_site_type_symbol
 _atom_site_label
 _atom_site_symmetry_multiplicity
 _atom_site_fract_x
 _atom_site_fract_y
 _atom_site_fract_z
 _atom_site_occupancy
  Al  Al0_0  1  0.00000000  0.00000000  0.42876200  1
  Al  Al0_1  1  0.00000000  0.00000000  0.92876200  1
  Al  Al0_2  1  0.00000000  0.50000000  0.42876200  1
  Al  Al0_3  1  0.00000000  0.50000000  0.92876200  1
  Al  Al0_4  1  0.50000000  0.00000000  0.42876200  1
  Al  Al0_5  1  0.50000000  0.00000000  0.92876200  1
  Al  Al0_6  1  0.50000000  0.50000000  0.42876200  1
  Al  Al0_7  1  0.50000000  0.50000000  0.92876200  1
  Al  Al1_0  1  0.00000000  0.00000000  0.07123800  1
  Al  Al1_1  1  0.00000000  0.00000000  0.57123800  1
  Al  Al1_2  1  0.00000000  0.50000000  0.07123800  1
  Al  Al1_3  1  0.00000000  0.50000000  0.57123800  1
  Al  Al1_4  1  0.50000000  0.00000000  0.07123800  1
  Al  Al1_5  1  0.50000000  0.00000000  0.57123800  1
  Al  Al1_6  1  0.50000000  0.50000000  0.07123800  1
  Al  Al1_7  1  0.50000000  0.50000000  0.57123800  1
  Al  Al2_0  1  0.00000000  0.00000000  0.19048950  1
  Al  Al2_1  1  0.00000000  0.00000000  0.69048950  1
  Al  Al2_2  1  0.00000000  0.50000000  0.19048950  1
  Al  Al2_3  1  0.00000000  0.50000000  0.69048950  1
  Al  Al2_4  1  0.50000000  0.00000000  0.19048950  1
  Al  Al2_5  1  0.50000000  0.00000000  0.69048950  1
  Al  Al2_6  1  0.50000000  0.50000000  0.19048950  1
  Al  Al2_7  1  0.50000000  0.50000000  0.69048950  1
  Al  Al3_0  1  0.00000000  0.00000000  0.30951050  1
  Al  Al3_1  1  0.00000000  0.00000000  0.80951050  1
  Al  Al3_2  1  0.00000000  0.50000000  0.30951050  1
  Al  Al3_3  1  0.00000000  0.50000000  0.80951050  1
  Al  Al3_4  1  0.50000000  0.00000000  0.30951050  1
  Al  Al3_5  1  0.50000000  0.00000000  0.80951050  1
  Al  Al3_6  1  0.50000000  0.50000000  0.30951050  1
  Al  Al3_7  1  0.50000000  0.50000000  0.80951050  1
  Ni  Ni0_0  1  0.25000000  0.25000000  0.13136250  1
  Ni  Ni0_1  1  0.25000000  0.25000000  0.63136250  1
  Ni  Ni0_2  1  0.25000000  0.75000000  0.13136250  1
  Ni  Ni0_3  1  0.25000000  0.75000000  0.63136250  1
  Ni  Ni0_4  1  0.75000000  0.25000000  0.13136250  1
  Ni  Ni0_5  1  0.75000000  0.25000000  0.63136250  1
  Ni  Ni0_6  1  0.75000000  0.75000000  0.13136250  1
  Ni  Ni0_7  1  0.75000000  0.75000000  0.63136250  1
  Ni  Ni1_0  1  0.25000000  0.25000000  0.25000000  1
  Ni  Ni1_1  1  0.25000000  0.25000000  0.75000000  1
  Ni  Ni1_2  1  0.25000000  0.75000000  0.25000000  1
  Ni  Ni1_3  1  0.25000000  0.75000000  0.75000000  1
  Ni  Ni1_4  1  0.75000000  0.25000000  0.25000000  1
  Ni  Ni1_5  1  0.75000000  0.25000000  0.75000000  1
  Ni  Ni1_6  1  0.75000000  0.75000000  0.25000000  1
  Ni  Ni1_7  1  0.75000000  0.75000000  0.75000000  1
  Ni  Ni2_0  1  0.25000000  0.25000000  0.36863750  1
  Ni  Ni2_1  1  0.25000000  0.25000000  0.86863750  1
  Ni  Ni2_2  1  0.25000000  0.75000000  0.36863750  1
  Ni  Ni2_3  1  0.25000000  0.75000000  0.86863750  1
  Ni  Ni2_4  1  0.75000000  0.25000000  0.36863750  1
  Ni  Ni2_5  1  0.75000000  0.25000000  0.86863750  1
  Ni  Ni2_6  1  0.75000000  0.75000000  0.36863750  1
  Ni  Ni2_7  1  0.75000000  0.75000000  0.86863750  1
  Pt  Pt0_0  1  0.25000000  0.25000000  0.00000000  1
  Pt  Pt0_1  1  0.25000000  0.25000000  0.50000000  1
  Pt  Pt0_2  1  0.25000000  0.75000000  0.00000000  1
  Pt  Pt0_3  1  0.25000000  0.75000000  0.50000000  1
  Pt  Pt0_4  1  0.75000000  0.25000000  0.00000000  1
  Pt  Pt0_5  1  0.75000000  0.25000000  0.50000000  1
  Pt  Pt0_6  1  0.75000000  0.75000000  0.00000000  1
  Pt  Pt0_7  1  0.75000000  0.75000000  0.50000000  1
loop_
_geom_bond_atom_site_label_1
_geom_bond_atom_site_label_2
_geom_bond_distance
_geom_bond_site_symmetry_2
Al0_0 Ni2_4 2.511295 1_455
Al0_0 Ni2_2 2.511295 1_545
Al0_0 Ni2_6 2.511295 1_445
Al0_0 Ni2_0 2.511295 1_555
Al0_0 Pt0_1 2.671057 1_555
Al0_0 Pt0_7 2.671057 1_445
Al0_0 Pt0_3 2.671057 1_545
Al0_0 Pt0_5 2.671057 1_455
Al0_0 Al3_0 2.839900 1_555
Al0_0 Al0_4 2.917696 1_455
Al0_0 Al0_4 2.917696 1_555
Al0_0 Al0_2 2.917696 1_545
Al0_0 Al0_2 2.917696 1_555
Al0_1 Ni2_5 2.511295 1_455
Al0_1 Ni2_3 2.511295 1_545
Al0_1 Ni2_1 2.511295 1_555
Al0_1 Ni2_7 2.511295 1_445
Al0_1 Pt0_4 2.671057 1_456
Al0_1 Pt0_6 2.671057 1_446
Al0_1 Pt0_0 2.671057 1_556
Al0_1 Pt0_2 2.671057 1_546
Al0_1 Al3_1 2.839900 1_555
Al0_1 Al0_5 2.917696 1_555
Al0_1 Al0_3 2.917696 1_555
Al0_1 Al0_3 2.917696 1_545
Al0_1 Al0_5 2.917696 1_455
Al0_2 Ni2_4 2.511295 1_455
Al0_2 Ni2_6 2.511295 1_455
Al0_2 Ni2_2 2.511295 1_555
Al0_2 Ni2_0 2.511295 1_555
Al0_2 Pt0_1 2.671057 1_555
Al0_2 Pt0_7 2.671057 1_455
Al0_2 Pt0_3 2.671057 1_555
Al0_2 Pt0_5 2.671057 1_455
Al0_2 Al3_2 2.839900 1_555
Al0_2 Al0_6 2.917696 1_555
Al0_2 Al0_6 2.917696 1_455
Al0_3 Ni2_5 2.511295 1_455
Al0_3 Ni2_3 2.511295 1_555
Al0_3 Ni2_1 2.511295 1_555
Al0_3 Ni2_7 2.511295 1_455
Al0_3 Pt0_2 2.671057 1_556
Al0_3 Pt0_4 2.671057 1_456
Al0_3 Pt0_0 2.671057 1_556
Al0_3 Pt0_6 2.671057 1_456
Al0_3 Al3_3 2.839900 1_555
Al0_3 Al0_7 2.917696 1_555
Al0_3 Al0_7 2.917696 1_455
Al0_4 Ni2_2 2.511295 1_545
Al0_4 Ni2_6 2.511295 1_545
Al0_4 Ni2_4 2.511295 1_555
Al0_4 Ni2_0 2.511295 1_555
Al0_4 Pt0_1 2.671057 1_555
Al0_4 Pt0_7 2.671057 1_545
Al0_4 Pt0_5 2.671057 1_555
Al0_4 Pt0_3 2.671057 1_545
Al0_4 Al3_4 2.839900 1_555
Al0_4 Al0_6 2.917696 1_555
Al0_4 Al0_6 2.917696 1_545
Al0_5 Ni2_5 2.511295 1_555
Al0_5 Ni2_3 2.511295 1_545
Al0_5 Ni2_1 2.511295 1_555
Al0_5 Ni2_7 2.511295 1_545
Al0_5 Pt0_6 2.671057 1_546
Al0_5 Pt0_4 2.671057 1_556
Al0_5 Pt0_0 2.671057 1_556
Al0_5 Pt0_2 2.671057 1_546
Al0_5 Al3_5 2.839900 1_555
Al0_5 Al0_7 2.917696 1_555
Al0_5 Al0_7 2.917696 1_545
Al0_6 Ni2_6 2.511295 1_555
Al0_6 Ni2_4 2.511295 1_555
Al0_6 Ni2_2 2.511295 1_555
Al0_6 Ni2_0 2.511295 1_555
Al0_6 Pt0_1 2.671057 1_555
Al0_6 Pt0_5 2.671057 1_555
Al0_6 Pt0_3 2.671057 1_555
Al0_6 Pt0_7 2.671057 1_555
Al0_6 Al3_6 2.839900 1_555
Al0_7 Ni2_5 2.511295 1_555
Al0_7 Ni2_3 2.511295 1_555
Al0_7 Ni2_7 2.511295 1_555
Al0_7 Ni2_1 2.511295 1_555
Al0_7 Pt0_4 2.671057 1_556
Al0_7 Pt0_2 2.671057 1_556
Al0_7 Pt0_0 2.671057 1_556
Al0_7 Pt0_6 2.671057 1_556
Al0_7 Al3_7 2.839900 1_555
Al1_0 Ni0_0 2.511295 1_555
Al1_0 Ni0_4 2.511295 1_455
Al1_0 Ni0_2 2.511295 1_545
Al1_0 Ni0_6 2.511295 1_445
Al1_0 Pt0_4 2.671057 1_455
Al1_0 Pt0_2 2.671057 1_545
Al1_0 Pt0_6 2.671057 1_445
Al1_0 Pt0_0 2.671057 1_555
Al1_0 Al2_0 2.839900 1_555
Al1_0 Al1_4 2.917696 1_555
Al1_0 Al1_4 2.917696 1_455
Al1_0 Al1_2 2.917696 1_545
Al1_0 Al1_2 2.917696 1_555
Al1_1 Ni0_1 2.511295 1_555
Al1_1 Ni0_5 2.511295 1_455
Al1_1 Ni0_7 2.511295 1_445
Al1_1 Ni0_3 2.511295 1_545
Al1_1 Pt0_7 2.671057 1_445
Al1_1 Pt0_3 2.671057 1_545
Al1_1 Pt0_1 2.671057 1_555
Al1_1 Pt0_5 2.671057 1_455
Al1_1 Al2_1 2.839900 1_555
Al1_1 Al1_5 2.917696 1_555
Al1_1 Al1_5 2.917696 1_455
Al1_1 Al1_3 2.917696 1_555
Al1_1 Al1_3 2.917696 1_545
Al1_2 Ni0_0 2.511295 1_555
Al1_2 Ni0_2 2.511295 1_555
Al1_2 Ni0_4 2.511295 1_455
Al1_2 Ni0_6 2.511295 1_455
Al1_2 Pt0_2 2.671057 1_555
Al1_2 Pt0_6 2.671057 1_455
Al1_2 Pt0_0 2.671057 1_555
Al1_2 Pt0_4 2.671057 1_455
Al1_2 Al2_2 2.839900 1_555
Al1_2 Al1_6 2.917696 1_455
Al1_2 Al1_6 2.917696 1_555
Al1_3 Ni0_3 2.511295 1_555
Al1_3 Ni0_1 2.511295 1_555
Al1_3 Ni0_5 2.511295 1_455
Al1_3 Ni0_7 2.511295 1_455
Al1_3 Pt0_7 2.671057 1_455
Al1_3 Pt0_3 2.671057 1_555
Al1_3 Pt0_1 2.671057 1_555
Al1_3 Pt0_5 2.671057 1_455
Al1_3 Al2_3 2.839900 1_555
Al1_3 Al1_7 2.917696 1_455
Al1_3 Al1_7 2.917696 1_555
Al1_4 Ni0_0 2.511295 1_555
Al1_4 Ni0_4 2.511295 1_555
Al1_4 Ni0_2 2.511295 1_545
Al1_4 Ni0_6 2.511295 1_545
Al1_4 Pt0_4 2.671057 1_555
Al1_4 Pt0_2 2.671057 1_545
Al1_4 Pt0_6 2.671057 1_545
Al1_4 Pt0_0 2.671057 1_555
Al1_4 Al2_4 2.839900 1_555
Al1_4 Al1_6 2.917696 1_545
Al1_4 Al1_6 2.917696 1_555
Al1_5 Ni0_1 2.511295 1_555
Al1_5 Ni0_7 2.511295 1_545
Al1_5 Ni0_5 2.511295 1_555
Al1_5 Ni0_3 2.511295 1_545
Al1_5 Pt0_5 2.671057 1_555
Al1_5 Pt0_3 2.671057 1_545
Al1_5 Pt0_1 2.671057 1_555
Al1_5 Pt0_7 2.671057 1_545
Al1_5 Al2_5 2.839900 1_555
Al1_5 Al1_7 2.917696 1_545
Al1_5 Al1_7 2.917696 1_555
Al1_6 Ni0_0 2.511295 1_555
Al1_6 Ni0_2 2.511295 1_555
Al1_6 Ni0_4 2.511295 1_555
Al1_6 Ni0_6 2.511295 1_555
Al1_6 Pt0_4 2.671057 1_555
Al1_6 Pt0_2 2.671057 1_555
Al1_6 Pt0_6 2.671057 1_555
Al1_6 Pt0_0 2.671057 1_555
Al1_6 Al2_6 2.839900 1_555
Al1_7 Ni0_3 2.511295 1_555
Al1_7 Ni0_7 2.511295 1_555
Al1_7 Ni0_1 2.511295 1_555
Al1_7 Ni0_5 2.511295 1_555
Al1_7 Pt0_5 2.671057 1_555
Al1_7 Pt0_3 2.671057 1_555
Al1_7 Pt0_1 2.671057 1_555
Al1_7 Pt0_7 2.671057 1_555
Al1_7 Al2_7 2.839900 1_555
Al2_0 Ni0_6 2.497828 1_445
Al2_0 Ni0_0 2.497828 1_555
Al2_0 Ni0_4 2.497828 1_455
Al2_0 Ni0_2 2.497828 1_545
Al2_0 Ni1_0 2.502987 1_555
Al2_0 Ni1_2 2.502987 1_545
Al2_0 Ni1_4 2.502987 1_455
Al2_0 Ni1_6 2.502987 1_445
Al2_1 Ni0_3 2.497828 1_545
Al2_1 Ni0_1 2.497828 1_555
Al2_1 Ni0_5 2.497828 1_455
Al2_1 Ni0_7 2.497828 1_445
Al2_1 Ni1_1 2.502987 1_555
Al2_1 Ni1_3 2.502987 1_545
Al2_1 Ni1_5 2.502987 1_455
Al2_1 Ni1_7 2.502987 1_445
Al2_2 Ni0_0 2.497828 1_555
Al2_2 Ni0_4 2.497828 1_455
Al2_2 Ni0_2 2.497828 1_555
Al2_2 Ni0_6 2.497828 1_455
Al2_2 Ni1_0 2.502987 1_555
Al2_2 Ni1_6 2.502987 1_455
Al2_2 Ni1_4 2.502987 1_455
Al2_2 Ni1_2 2.502987 1_555
Al2_3 Ni0_7 2.497828 1_455
Al2_3 Ni0_3 2.497828 1_555
Al2_3 Ni0_1 2.497828 1_555
Al2_3 Ni0_5 2.497828 1_455
Al2_3 Ni1_1 2.502987 1_555
Al2_3 Ni1_7 2.502987 1_455
Al2_3 Ni1_5 2.502987 1_455
Al2_3 Ni1_3 2.502987 1_555
Al2_4 Ni0_6 2.497828 1_545
Al2_4 Ni0_0 2.497828 1_555
Al2_4 Ni0_4 2.497828 1_555
Al2_4 Ni0_2 2.497828 1_545
Al2_4 Ni1_0 2.502987 1_555
Al2_4 Ni1_4 2.502987 1_555
Al2_4 Ni1_6 2.502987 1_545
Al2_4 Ni1_2 2.502987 1_545
Al2_5 Ni0_3 2.497828 1_545
Al2_5 Ni0_1 2.497828 1_555
Al2_5 Ni0_7 2.497828 1_545
Al2_5 Ni0_5 2.497828 1_555
Al2_5 Ni1_7 2.502987 1_545
Al2_5 Ni1_1 2.502987 1_555
Al2_5 Ni1_5 2.502987 1_555
Al2_5 Ni1_3 2.502987 1_545
Al2_6 Ni0_6 2.497828 1_555
Al2_6 Ni0_0 2.497828 1_555
Al2_6 Ni0_2 2.497828 1_555
Al2_6 Ni0_4 2.497828 1_555
Al2_6 Ni1_0 2.502987 1_555
Al2_6 Ni1_4 2.502987 1_555
Al2_6 Ni1_2 2.502987 1_555
Al2_6 Ni1_6 2.502987 1_555
Al2_7 Ni0_3 2.497828 1_555
Al2_7 Ni0_1 2.497828 1_555
Al2_7 Ni0_7 2.497828 1_555
Al2_7 Ni0_5 2.497828 1_555
Al2_7 Ni1_7 2.502987 1_555
Al2_7 Ni1_1 2.502987 1_555
Al2_7 Ni1_5 2.502987 1_555
Al2_7 Ni1_3 2.502987 1_555
Al3_0 Ni2_6 2.497828 1_445
Al3_0 Ni2_0 2.497828 1_555
Al3_0 Ni2_4 2.497828 1_455
Al3_0 Ni2_2 2.497828 1_545
Al3_0 Ni1_0 2.502987 1_555
Al3_0 Ni1_4 2.502987 1_455
Al3_0 Ni1_6 2.502987 1_445
Al3_0 Ni1_2 2.502987 1_545
Al3_1 Ni2_3 2.497828 1_545
Al3_1 Ni2_7 2.497828 1_445
Al3_1 Ni2_1 2.497828 1_555
Al3_1 Ni2_5 2.497828 1_455
Al3_1 Ni1_3 2.502987 1_545
Al3_1 Ni1_5 2.502987 1_455
Al3_1 Ni1_1 2.502987 1_555
Al3_1 Ni1_7 2.502987 1_445
Al3_2 Ni2_6 2.497828 1_455
Al3_2 Ni2_2 2.497828 1_555
Al3_2 Ni2_0 2.497828 1_555
Al3_2 Ni2_4 2.497828 1_455
Al3_2 Ni1_2 2.502987 1_555
Al3_2 Ni1_4 2.502987 1_455
Al3_2 Ni1_6 2.502987 1_455
Al3_2 Ni1_0 2.502987 1_555
Al3_3 Ni2_1 2.497828 1_555
Al3_3 Ni2_7 2.497828 1_455
Al3_3 Ni2_5 2.497828 1_455
Al3_3 Ni2_3 2.497828 1_555
Al3_3 Ni1_7 2.502987 1_455
Al3_3 Ni1_3 2.502987 1_555
Al3_3 Ni1_5 2.502987 1_455
Al3_3 Ni1_1 2.502987 1_555
Al3_4 Ni2_4 2.497828 1_555
Al3_4 Ni2_0 2.497828 1_555
Al3_4 Ni2_2 2.497828 1_545
Al3_4 Ni2_6 2.497828 1_545
Al3_4 Ni1_0 2.502987 1_555
Al3_4 Ni1_2 2.502987 1_545
Al3_4 Ni1_6 2.502987 1_545
Al3_4 Ni1_4 2.502987 1_555
Al3_5 Ni2_3 2.497828 1_545
Al3_5 Ni2_7 2.497828 1_545
Al3_5 Ni2_1 2.497828 1_555
Al3_5 Ni2_5 2.497828 1_555
Al3_5 Ni1_5 2.502987 1_555
Al3_5 Ni1_3 2.502987 1_545
Al3_5 Ni1_7 2.502987 1_545
Al3_5 Ni1_1 2.502987 1_555
Al3_6 Ni2_6 2.497828 1_555
Al3_6 Ni2_0 2.497828 1_555
Al3_6 Ni2_4 2.497828 1_555
Al3_6 Ni2_2 2.497828 1_555
Al3_6 Ni1_2 2.502987 1_555
Al3_6 Ni1_6 2.502987 1_555
Al3_6 Ni1_4 2.502987 1_555
Al3_6 Ni1_0 2.502987 1_555
Al3_7 Ni2_1 2.497828 1_555
Al3_7 Ni2_5 2.497828 1_555
Al3_7 Ni2_3 2.497828 1_555
Al3_7 Ni2_7 2.497828 1_555
Al3_7 Ni1_5 2.502987 1_555
Al3_7 Ni1_3 2.502987 1_555
Al3_7 Ni1_1 2.502987 1_555
Al3_7 Ni1_7 2.502987 1_555
Pt0_0 Pt0_2 2.917696 1_545
Pt0_0 Pt0_2 2.917696 1_555
Pt0_0 Pt0_4 2.917696 1_555
Pt0_0 Pt0_4 2.917696 1_455
Pt0_1 Pt0_5 2.917696 1_555
Pt0_1 Pt0_3 2.917696 1_555
Pt0_1 Pt0_3 2.917696 1_545
Pt0_1 Pt0_5 2.917696 1_455
Pt0_2 Pt0_6 2.917696 1_455
Pt0_2 Pt0_6 2.917696 1_555
Pt0_3 Pt0_7 2.917696 1_455
Pt0_3 Pt0_7 2.917696 1_555
Pt0_4 Pt0_6 2.917696 1_555
Pt0_4 Pt0_6 2.917696 1_545
Pt0_5 Pt0_7 2.917696 1_545
Pt0_5 Pt0_7 2.917696 1_555
