# generated using pymatgen
data_HPb3Cl4OF
_symmetry_space_group_name_H-M   'P 1'
_cell_length_a   7.86886200
_cell_length_b   7.31403700
_cell_length_c   17.13244121
_cell_angle_alpha   78.36200167
_cell_angle_beta   90.00000000
_cell_angle_gamma   90.00000000
_symmetry_Int_Tables_number   1
_chemical_formula_structural   HPb3Cl4OF
_chemical_formula_sum   'H4 Pb12 Cl16 O4 F4'
_cell_volume   965.75488492
_cell_formula_units_Z   4
loop_
 _symmetry_equiv_pos_site_id
 _symmetry_equiv_pos_as_xyz
  1  'x, y, z'
loop_
 _atom_site_type_symbol
 _atom_site_label
 _atom_site_symmetry_multiplicity
 _atom_site_fract_x
 _atom_site_fract_y
 _atom_site_fract_z
 _atom_site_occupancy
  H  H0  1  0.88944300  0.98697000  0.25223700  1
  H  H1  1  0.11055700  0.01303000  0.74776300  1
  H  H2  1  0.38944300  0.01303000  0.24776300  1
  H  H3  1  0.61055700  0.98697000  0.75223700  1
  Pb  Pb0  1  0.88193400  0.65810200  0.18285300  1
  Pb  Pb1  1  0.11806600  0.34189800  0.81714700  1
  Pb  Pb2  1  0.38193400  0.34189800  0.31714700  1
  Pb  Pb3  1  0.61806600  0.65810200  0.68285300  1
  Pb  Pb4  1  0.85791900  0.25227100  0.04448300  1
  Pb  Pb5  1  0.14208100  0.74772900  0.95551700  1
  Pb  Pb6  1  0.35791900  0.74772900  0.45551700  1
  Pb  Pb7  1  0.64208100  0.25227100  0.54448300  1
  Pb  Pb8  1  0.87696000  0.71916200  0.45077100  1
  Pb  Pb9  1  0.12304000  0.28083800  0.54922900  1
  Pb  Pb10  1  0.37696000  0.28083800  0.04922900  1
  Pb  Pb11  1  0.62304000  0.71916200  0.95077100  1
  Cl  Cl0  1  0.63409400  0.92314600  0.09615000  1
  Cl  Cl1  1  0.36590600  0.07685400  0.90385000  1
  Cl  Cl2  1  0.13409400  0.07685400  0.40385000  1
  Cl  Cl3  1  0.86590600  0.92314600  0.59615000  1
  Cl  Cl4  1  0.13126900  0.91772400  0.09888200  1
  Cl  Cl5  1  0.86873100  0.08227600  0.90111800  1
  Cl  Cl6  1  0.63126900  0.08227600  0.40111800  1
  Cl  Cl7  1  0.36873100  0.91772400  0.59888200  1
  Cl  Cl8  1  0.62497600  0.64384400  0.32457500  1
  Cl  Cl9  1  0.37502400  0.35615600  0.67542500  1
  Cl  Cl10  1  0.12497600  0.35615600  0.17542500  1
  Cl  Cl11  1  0.87502400  0.64384400  0.82457500  1
  Cl  Cl12  1  0.63604100  0.34916800  0.17903700  1
  Cl  Cl13  1  0.36395900  0.65083200  0.82096300  1
  Cl  Cl14  1  0.13604100  0.65083200  0.32096300  1
  Cl  Cl15  1  0.86395900  0.34916800  0.67903700  1
  O  O0  1  0.38554400  0.59866200  0.01931600  1
  O  O1  1  0.61445600  0.40133800  0.98068400  1
  O  O2  1  0.88554400  0.40133800  0.48068400  1
  O  O3  1  0.11445600  0.59866200  0.51931600  1
  F  F0  1  0.87937900  0.61428900  0.03851200  1
  F  F1  1  0.12062100  0.38571100  0.96148800  1
  F  F2  1  0.37937900  0.38571100  0.46148800  1
  F  F3  1  0.62062100  0.61428900  0.53851200  1
loop_
_geom_bond_atom_site_label_1
_geom_bond_atom_site_label_2
_geom_bond_distance
_geom_bond_site_symmetry_2
Cl0 Pb0 2.933604 1_555
Cl0 Pb4 2.969952 1_565
Cl1 Pb1 2.933604 1_555
Cl1 Pb5 2.969952 1_545
Cl2 Pb2 2.933604 1_555
Cl2 Pb6 2.969952 1_545
Cl3 Pb3 2.933604 1_555
Cl3 Pb7 2.969952 1_565
Cl4 Pb0 2.902178 1_455
Cl4 Pb5 2.969537 1_554
Cl5 Pb1 2.902178 1_655
Cl5 Pb4 2.969537 1_556
Cl6 Pb2 2.902178 1_555
Cl6 Pb7 2.969537 1_555
Cl7 Pb3 2.902178 1_555
Cl7 Pb6 2.969537 1_555
Cl8 Pb2 2.943523 1_555
Cl8 Pb8 3.064317 1_555
Cl8 Pb0 3.145229 1_555
Cl9 Pb3 2.943523 1_555
Cl9 Pb9 3.064317 1_555
Cl9 Pb1 3.145229 1_555
Cl10 Pb0 2.943523 1_455
Cl10 Pb10 3.064317 1_555
Cl10 Pb2 3.145229 1_555
Cl11 Pb1 2.943523 1_655
Cl11 Pb11 3.064317 1_555
Cl11 Pb3 3.145229 1_555
Cl12 Pb0 2.985514 1_555
Cl12 Pb4 3.086065 1_555
Cl12 Pb2 3.090132 1_555
Cl12 Pb10 3.130532 1_555
Cl13 Pb1 2.985514 1_555
Cl13 Pb5 3.086065 1_555
Cl13 Pb3 3.090132 1_555
Cl13 Pb11 3.130532 1_555
Cl14 Pb2 2.985514 1_555
Cl14 Pb6 3.086065 1_555
Cl14 Pb0 3.090132 1_455
Cl14 Pb8 3.130532 1_455
Cl15 Pb3 2.985514 1_555
Cl15 Pb7 3.086065 1_555
Cl15 Pb1 3.090132 1_655
Cl15 Pb9 3.130532 1_655
O0 Pb10 2.278205 1_555
O0 Pb11 2.287088 1_554
O0 Pb5 2.360685 1_554
O1 Pb11 2.278205 1_555
O1 Pb10 2.287088 1_556
O1 Pb4 2.360685 1_556
O2 Pb8 2.278205 1_555
O2 Pb9 2.287088 1_655
O2 Pb7 2.360685 1_555
O3 Pb9 2.278205 1_555
O3 Pb8 2.287088 1_455
O3 Pb6 2.360685 1_555
F0 Pb11 2.539980 1_554
F0 Pb0 2.556973 1_555
F0 Pb5 2.586048 1_654
F0 Pb4 2.634504 1_555
F1 Pb10 2.539980 1_556
F1 Pb1 2.556973 1_555
F1 Pb4 2.586048 1_456
F1 Pb5 2.634504 1_555
F2 Pb9 2.539980 1_555
F2 Pb2 2.556973 1_555
F2 Pb7 2.586048 1_555
F2 Pb6 2.634504 1_555
F3 Pb8 2.539980 1_555
F3 Pb3 2.556973 1_555
F3 Pb6 2.586048 1_555
F3 Pb7 2.634504 1_555
