# generated using pymatgen
data_Al3FeSiBO9
_symmetry_space_group_name_H-M   'P 1'
_cell_length_a   5.83352700
_cell_length_b   10.46132300
_cell_length_c   11.23762700
_cell_angle_alpha   90.00000000
_cell_angle_beta   90.00000000
_cell_angle_gamma   90.00000000
_symmetry_Int_Tables_number   1
_chemical_formula_structural   Al3FeSiBO9
_chemical_formula_sum   'Al12 Fe4 Si4 B4 O36'
_cell_volume   685.79203471
_cell_formula_units_Z   4
loop_
 _symmetry_equiv_pos_site_id
 _symmetry_equiv_pos_as_xyz
  1  'x, y, z'
loop_
 _atom_site_type_symbol
 _atom_site_label
 _atom_site_symmetry_multiplicity
 _atom_site_fract_x
 _atom_site_fract_y
 _atom_site_fract_z
 _atom_site_occupancy
  Al  Al0  1  0.25000000  0.27327000  0.05200700  1
  Al  Al1  1  0.75000000  0.72673000  0.94799300  1
  Al  Al2  1  0.75000000  0.77327000  0.44799300  1
  Al  Al3  1  0.25000000  0.22673000  0.55200700  1
  Al  Al4  1  0.00000000  0.50000000  0.00000000  1
  Al  Al5  1  0.00000000  0.00000000  0.50000000  1
  Al  Al6  1  0.50000000  0.50000000  0.00000000  1
  Al  Al7  1  0.50000000  0.00000000  0.50000000  1
  Al  Al8  1  0.00000000  0.00000000  0.00000000  1
  Al  Al9  1  0.00000000  0.50000000  0.50000000  1
  Al  Al10  1  0.50000000  0.00000000  0.00000000  1
  Al  Al11  1  0.50000000  0.50000000  0.50000000  1
  Fe  Fe0  1  0.25000000  0.40640800  0.28132500  1
  Fe  Fe1  1  0.75000000  0.59359200  0.71867500  1
  Fe  Fe2  1  0.75000000  0.90640800  0.21867500  1
  Fe  Fe3  1  0.25000000  0.09359200  0.78132500  1
  Si  Si0  1  0.25000000  0.06504000  0.23632400  1
  Si  Si1  1  0.75000000  0.93496000  0.76367600  1
  Si  Si2  1  0.75000000  0.56504000  0.26367600  1
  Si  Si3  1  0.25000000  0.43496000  0.73632400  1
  B  B0  1  0.25000000  0.74898700  0.00006800  1
  B  B1  1  0.75000000  0.25101300  0.99993200  1
  B  B2  1  0.75000000  0.24898700  0.49993200  1
  B  B3  1  0.25000000  0.75101300  0.50006800  1
  O  O0  1  0.04582000  0.68096100  0.00095300  1
  O  O1  1  0.95418000  0.31903900  0.99904700  1
  O  O2  1  0.95418000  0.18096100  0.49904700  1
  O  O3  1  0.54582000  0.31903900  0.99904700  1
  O  O4  1  0.04582000  0.81903900  0.50095300  1
  O  O5  1  0.45418000  0.68096100  0.00095300  1
  O  O6  1  0.45418000  0.81903900  0.50095300  1
  O  O7  1  0.54582000  0.18096100  0.49904700  1
  O  O8  1  0.02450300  0.00607000  0.16954000  1
  O  O9  1  0.97549700  0.99393000  0.83046000  1
  O  O10  1  0.97549700  0.50607000  0.33046000  1
  O  O11  1  0.52450300  0.99393000  0.83046000  1
  O  O12  1  0.02450300  0.49393000  0.66954000  1
  O  O13  1  0.47549700  0.00607000  0.16954000  1
  O  O14  1  0.47549700  0.49393000  0.66954000  1
  O  O15  1  0.52450300  0.50607000  0.33046000  1
  O  O16  1  0.25000000  0.45283800  0.09583600  1
  O  O17  1  0.75000000  0.54716200  0.90416400  1
  O  O18  1  0.75000000  0.95283800  0.40416400  1
  O  O19  1  0.25000000  0.04716200  0.59583600  1
  O  O20  1  0.25000000  0.22190400  0.20834200  1
  O  O21  1  0.75000000  0.77809600  0.79165800  1
  O  O22  1  0.75000000  0.72190400  0.29165800  1
  O  O23  1  0.25000000  0.27809600  0.70834200  1
  O  O24  1  0.25000000  0.02590800  0.37822200  1
  O  O25  1  0.75000000  0.97409200  0.62177800  1
  O  O26  1  0.75000000  0.52590800  0.12177800  1
  O  O27  1  0.25000000  0.47409200  0.87822200  1
  O  O28  1  0.25000000  0.38250200  0.48080000  1
  O  O29  1  0.75000000  0.61749800  0.51920000  1
  O  O30  1  0.75000000  0.88250200  0.01920000  1
  O  O31  1  0.25000000  0.11749800  0.98080000  1
  O  O32  1  0.25000000  0.62158800  0.49577400  1
  O  O33  1  0.75000000  0.37841200  0.50422600  1
  O  O34  1  0.75000000  0.12158800  0.00422600  1
  O  O35  1  0.25000000  0.87841200  0.99577400  1
loop_
_geom_bond_atom_site_label_1
_geom_bond_atom_site_label_2
_geom_bond_distance
_geom_bond_site_symmetry_2
Al0 O31 1.815448 1_554
Al0 O20 1.837177 1_555
Al0 O1 1.887168 1_454
Al0 O3 1.887168 1_554
Al0 O16 1.942015 1_555
Al1 O30 1.815448 1_556
Al1 O21 1.837177 1_555
Al1 O0 1.887168 1_656
Al1 O5 1.887168 1_556
Al1 O17 1.942015 1_555
Al2 O29 1.815448 1_555
Al2 O22 1.837177 1_555
Al2 O6 1.887168 1_555
Al2 O4 1.887168 1_655
Al2 O18 1.942015 1_555
Al3 O28 1.815448 1_555
Al3 O23 1.837177 1_555
Al3 O2 1.887168 1_455
Al3 O7 1.887168 1_555
Al3 O19 1.942015 1_555
Al4 O16 1.878872 1_555
Al4 O17 1.878872 1_454
Al4 O0 1.911898 1_555
Al4 O1 1.911898 1_454
Al4 O26 2.018196 1_455
Al4 O27 2.018196 1_554
Al5 O19 1.878872 1_555
Al5 O18 1.878872 1_445
Al5 O2 1.911898 1_455
Al5 O4 1.911898 1_545
Al5 O25 2.018196 1_445
Al5 O24 2.018196 1_555
Al6 O16 1.878872 1_555
Al6 O17 1.878872 1_554
Al6 O5 1.911898 1_555
Al6 O3 1.911898 1_554
Al6 O26 2.018196 1_555
Al6 O27 2.018196 1_554
Al7 O19 1.878872 1_555
Al7 O18 1.878872 1_545
Al7 O7 1.911898 1_555
Al7 O6 1.911898 1_545
Al7 O25 2.018196 1_545
Al7 O24 2.018196 1_555
Al8 O9 1.911637 1_444
Al8 O8 1.911637 1_555
Al8 O31 1.919460 1_554
Al8 O30 1.919460 1_445
Al8 O34 1.935728 1_455
Al8 O35 1.935728 1_544
Al9 O10 1.911637 1_455
Al9 O12 1.911637 1_555
Al9 O29 1.919460 1_455
Al9 O28 1.919460 1_555
Al9 O32 1.935728 1_555
Al9 O33 1.935728 1_455
Al10 O11 1.911637 1_544
Al10 O13 1.911637 1_555
Al10 O31 1.919460 1_554
Al10 O30 1.919460 1_545
Al10 O34 1.935728 1_555
Al10 O35 1.935728 1_544
Al11 O15 1.911637 1_555
Al11 O14 1.911637 1_555
Al11 O29 1.919460 1_555
Al11 O28 1.919460 1_555
Al11 O32 1.935728 1_555
Al11 O33 1.935728 1_555
Fe0 O15 1.988999 1_555
Fe0 O10 1.988999 1_455
Fe0 O20 2.097178 1_555
Fe0 O16 2.140299 1_555
Fe0 O28 2.255533 1_555
Fe1 O12 1.988999 1_655
Fe1 O14 1.988999 1_555
Fe1 O21 2.097178 1_555
Fe1 O17 2.140299 1_555
Fe1 O29 2.255533 1_555
Fe2 O8 1.988999 1_665
Fe2 O13 1.988999 1_565
Fe2 O22 2.097178 1_555
Fe2 O18 2.140299 1_555
Fe2 O30 2.255533 1_555
Fe3 O11 1.988999 1_545
Fe3 O9 1.988999 1_445
Fe3 O23 2.097178 1_555
Fe3 O19 2.140299 1_555
Fe3 O31 2.255533 1_555
B0 O35 1.354816 1_554
B0 O5 1.387526 1_555
B0 O0 1.387526 1_555
B1 O34 1.354816 1_556
B1 O3 1.387526 1_555
B1 O1 1.387526 1_555
B2 O33 1.354816 1_555
B2 O7 1.387526 1_555
B2 O2 1.387526 1_555
B3 O32 1.354816 1_555
B3 O4 1.387526 1_555
B3 O6 1.387526 1_555
O8 Si0 1.635299 1_555
O9 Si1 1.635299 1_555
O10 Si2 1.635299 1_555
O11 Si1 1.635299 1_555
O12 Si3 1.635299 1_555
O13 Si0 1.635299 1_555
O14 Si3 1.635299 1_555
O15 Si2 1.635299 1_555
O20 Si0 1.670861 1_555
O21 Si1 1.670861 1_555
O22 Si2 1.670861 1_555
O23 Si3 1.670861 1_555
O24 Si0 1.646306 1_555
O25 Si1 1.646306 1_555
O26 Si2 1.646306 1_555
O27 Si3 1.646306 1_555
