# generated using pymatgen
data_Pr(Mo3Se4)2
_symmetry_space_group_name_H-M   'P 1'
_cell_length_a   6.83889194
_cell_length_b   6.83889194
_cell_length_c   6.83889212
_cell_angle_alpha   88.92227873
_cell_angle_beta   88.92227873
_cell_angle_gamma   88.92227305
_symmetry_Int_Tables_number   1
_chemical_formula_structural   Pr(Mo3Se4)2
_chemical_formula_sum   'Pr1 Mo6 Se8'
_cell_volume   319.69036545
_cell_formula_units_Z   1
loop_
 _symmetry_equiv_pos_site_id
 _symmetry_equiv_pos_as_xyz
  1  'x, y, z'
loop_
 _atom_site_type_symbol
 _atom_site_label
 _atom_site_symmetry_multiplicity
 _atom_site_fract_x
 _atom_site_fract_y
 _atom_site_fract_z
 _atom_site_occupancy
  Pr  Pr0  1  0.00000000  0.00000000  0.00000000  1
  Mo  Mo0  1  0.76260600  0.57759600  0.43878600  1
  Mo  Mo1  1  0.43878600  0.76260600  0.57759600  1
  Mo  Mo2  1  0.57759600  0.43878600  0.76260600  1
  Mo  Mo3  1  0.23739400  0.42240400  0.56121400  1
  Mo  Mo4  1  0.56121500  0.23739400  0.42240400  1
  Mo  Mo5  1  0.42240400  0.56121400  0.23739400  1
  Se  Se0  1  0.75860500  0.75860500  0.75860500  1
  Se  Se1  1  0.24139500  0.24139500  0.24139500  1
  Se  Se2  1  0.24788200  0.62206100  0.87852500  1
  Se  Se3  1  0.87852500  0.24788200  0.62206100  1
  Se  Se4  1  0.62206100  0.87852500  0.24788200  1
  Se  Se5  1  0.75211800  0.37793900  0.12147500  1
  Se  Se6  1  0.12147500  0.75211800  0.37793900  1
  Se  Se7  1  0.37793900  0.12147500  0.75211800  1
loop_
_geom_bond_atom_site_label_1
_geom_bond_atom_site_label_2
_geom_bond_distance
_geom_bond_site_symmetry_2
Pr0 Se1 2.912683 1_555
Pr0 Se0 2.912683 1_444
Pr0 Se5 3.179237 1_455
Pr0 Se2 3.179237 1_544
Pr0 Se3 3.179237 1_454
Pr0 Se6 3.179237 1_545
Pr0 Se4 3.179237 1_445
Pr0 Se7 3.179237 1_554
Mo0 Se0 2.532854 1_555
Mo0 Se5 2.588377 1_555
Mo0 Se4 2.595292 1_555
Mo0 Se3 2.673530 1_555
Mo0 Se6 2.770236 1_655
Mo1 Se0 2.532854 1_555
Mo1 Se6 2.588377 1_555
Mo1 Se2 2.595292 1_555
Mo1 Se4 2.673531 1_555
Mo1 Se7 2.770235 1_565
Mo2 Se0 2.532854 1_555
Mo2 Se7 2.588377 1_555
Mo2 Se3 2.595292 1_555
Mo2 Se2 2.673530 1_555
Mo2 Se5 2.770236 1_556
Mo3 Se1 2.532854 1_555
Mo3 Se2 2.588377 1_555
Mo3 Se7 2.595292 1_555
Mo3 Se6 2.673530 1_555
Mo3 Se3 2.770236 1_455
Mo4 Se1 2.532860 1_555
Mo4 Se3 2.588371 1_555
Mo4 Se5 2.595289 1_555
Mo4 Se7 2.673534 1_555
Mo4 Se4 2.770235 1_545
Mo5 Se1 2.532854 1_555
Mo5 Se4 2.588377 1_555
Mo5 Se6 2.595292 1_555
Mo5 Se5 2.673530 1_555
Mo5 Se2 2.770236 1_554
