# generated using pymatgen
data_Al(SiO3)2
_symmetry_space_group_name_H-M   'P 1'
_cell_length_a   7.87756500
_cell_length_b   7.87756500
_cell_length_c   8.41310900
_cell_angle_alpha   90.00000000
_cell_angle_beta   90.00000000
_cell_angle_gamma   90.00000000
_symmetry_Int_Tables_number   1
_chemical_formula_structural   Al(SiO3)2
_chemical_formula_sum   'Al4 Si8 O24'
_cell_volume   522.08414727
_cell_formula_units_Z   4
loop_
 _symmetry_equiv_pos_site_id
 _symmetry_equiv_pos_as_xyz
  1  'x, y, z'
loop_
 _atom_site_type_symbol
 _atom_site_label
 _atom_site_symmetry_multiplicity
 _atom_site_fract_x
 _atom_site_fract_y
 _atom_site_fract_z
 _atom_site_occupancy
  Al  Al0  1  0.91159300  0.08840700  0.25000000  1
  Al  Al1  1  0.08840700  0.91159300  0.75000000  1
  Al  Al2  1  0.58840700  0.58840700  0.50000000  1
  Al  Al3  1  0.41159300  0.41159300  0.00000000  1
  Si  Si0  1  0.82566300  0.38788000  0.98150000  1
  Si  Si1  1  0.17433700  0.61212000  0.48150000  1
  Si  Si2  1  0.88788000  0.67433700  0.23150000  1
  Si  Si3  1  0.11212000  0.32566300  0.73150000  1
  Si  Si4  1  0.61212000  0.17433700  0.51850000  1
  Si  Si5  1  0.38788000  0.82566300  0.01850000  1
  Si  Si6  1  0.67433700  0.88788000  0.76850000  1
  Si  Si7  1  0.32566300  0.11212000  0.26850000  1
  O  O0  1  0.62395800  0.38531600  0.94518700  1
  O  O1  1  0.37604200  0.61468400  0.44518700  1
  O  O2  1  0.88531600  0.87604200  0.19518700  1
  O  O3  1  0.11468400  0.12395800  0.69518700  1
  O  O4  1  0.61468400  0.37604200  0.55481300  1
  O  O5  1  0.38531600  0.62395800  0.05481300  1
  O  O6  1  0.87604200  0.88531600  0.80481300  1
  O  O7  1  0.12395800  0.11468400  0.30481300  1
  O  O8  1  0.87131800  0.22762800  0.09354400  1
  O  O9  1  0.12868200  0.77237200  0.59354400  1
  O  O10  1  0.72762800  0.62868200  0.34354400  1
  O  O11  1  0.27237200  0.37131800  0.84354400  1
  O  O12  1  0.77237200  0.12868200  0.40645600  1
  O  O13  1  0.22762800  0.87131800  0.90645600  1
  O  O14  1  0.62868200  0.72762800  0.65645600  1
  O  O15  1  0.37131800  0.27237200  0.15645600  1
  O  O16  1  0.93169600  0.37779700  0.81507600  1
  O  O17  1  0.06830400  0.62220300  0.31507600  1
  O  O18  1  0.87779700  0.56830400  0.06507600  1
  O  O19  1  0.12220300  0.43169600  0.56507600  1
  O  O20  1  0.62220300  0.06830400  0.68492400  1
  O  O21  1  0.37779700  0.93169600  0.18492400  1
  O  O22  1  0.56830400  0.87779700  0.93492400  1
  O  O23  1  0.43169600  0.12220300  0.43492400  1
loop_
_geom_bond_atom_site_label_1
_geom_bond_atom_site_label_2
_geom_bond_distance
_geom_bond_site_symmetry_2
Al0 O12 1.742428 1_555
Al0 O8 1.742428 1_555
Al0 O2 1.747617 1_545
Al0 O7 1.747617 1_655
Al1 O13 1.742428 1_555
Al1 O9 1.742428 1_555
Al1 O3 1.747617 1_565
Al1 O6 1.747617 1_455
Al2 O14 1.742428 1_555
Al2 O10 1.742428 1_555
Al2 O4 1.747617 1_555
Al2 O1 1.747617 1_555
Al3 O15 1.742428 1_555
Al3 O11 1.742428 1_554
Al3 O5 1.747617 1_555
Al3 O0 1.747617 1_554
O0 Si0 1.618173 1_555
O1 Si1 1.618173 1_555
O2 Si2 1.618173 1_555
O3 Si3 1.618173 1_555
O4 Si4 1.618173 1_555
O5 Si5 1.618173 1_555
O6 Si6 1.618173 1_555
O7 Si7 1.618173 1_555
O8 Si0 1.616032 1_554
O9 Si1 1.616032 1_555
O10 Si2 1.616032 1_555
O11 Si3 1.616032 1_555
O12 Si4 1.616032 1_555
O13 Si5 1.616032 1_556
O14 Si6 1.616032 1_555
O15 Si7 1.616032 1_555
O16 Si0 1.632301 1_555
O16 Si3 1.638036 1_655
O17 Si1 1.632301 1_555
O17 Si2 1.638036 1_455
O18 Si2 1.632301 1_555
O18 Si0 1.638036 1_554
O19 Si3 1.632301 1_555
O19 Si1 1.638036 1_555
O20 Si4 1.632301 1_555
O20 Si6 1.638036 1_545
O21 Si5 1.632301 1_555
O21 Si7 1.638036 1_565
O22 Si6 1.632301 1_555
O22 Si5 1.638036 1_556
O23 Si7 1.632301 1_555
O23 Si4 1.638036 1_555
