# generated using pymatgen
data_CsZr18(PI14)3
_symmetry_space_group_name_H-M   'P 1'
_cell_length_a   10.95911060
_cell_length_b   10.95911060
_cell_length_c   39.51809328
_cell_angle_alpha   89.96348133
_cell_angle_beta   89.96348133
_cell_angle_gamma   95.63636712
_symmetry_Int_Tables_number   1
_chemical_formula_structural   CsZr18(PI14)3
_chemical_formula_sum   'Cs2 Zr36 P6 I84'
_cell_volume   4723.25739877
_cell_formula_units_Z   2
loop_
 _symmetry_equiv_pos_site_id
 _symmetry_equiv_pos_as_xyz
  1  'x, y, z'
loop_
 _atom_site_type_symbol
 _atom_site_label
 _atom_site_symmetry_multiplicity
 _atom_site_fract_x
 _atom_site_fract_y
 _atom_site_fract_z
 _atom_site_occupancy
  Cs  Cs0  1  0.49998653  0.49998653  0.16676821  1
  Cs  Cs1  1  0.50001347  0.50001347  0.49989879  1
  Zr  Zr0  1  0.13796490  0.13796490  0.13191855  1
  Zr  Zr1  1  0.13804217  0.13804217  0.46523843  1
  Zr  Zr2  1  0.13860250  0.13860250  0.79897324  1
  Zr  Zr3  1  0.86195783  0.86195783  0.20142757  1
  Zr  Zr4  1  0.86203510  0.86203510  0.53474845  1
  Zr  Zr5  1  0.86139750  0.86139750  0.86769376  1
  Zr  Zr6  1  0.36172080  0.36172080  0.29916604  1
  Zr  Zr7  1  0.36148168  0.36148168  0.63256626  1
  Zr  Zr8  1  0.36134602  0.36134602  0.96551352  1
  Zr  Zr9  1  0.63851832  0.63851832  0.03410074  1
  Zr  Zr10  1  0.63827920  0.63827920  0.36750096  1
  Zr  Zr11  1  0.63865398  0.63865398  0.70115248  1
  Zr  Zr12  1  0.04218983  0.82444112  0.12854915  1
  Zr  Zr13  1  0.04242515  0.82447262  0.46187604  1
  Zr  Zr14  1  0.04360144  0.82325027  0.79561725  1
  Zr  Zr15  1  0.17552738  0.95757485  0.20479096  1
  Zr  Zr16  1  0.17555888  0.95781017  0.53811785  1
  Zr  Zr17  1  0.17674973  0.95639856  0.87104875  1
  Zr  Zr18  1  0.67710117  0.45551117  0.29623476  1
  Zr  Zr19  1  0.67729934  0.45592075  0.62951427  1
  Zr  Zr20  1  0.67700806  0.45603766  0.96217614  1
  Zr  Zr21  1  0.54407925  0.32270066  0.03715273  1
  Zr  Zr22  1  0.54448883  0.32289883  0.37043124  1
  Zr  Zr23  1  0.54396234  0.32299194  0.70449086  1
  Zr  Zr24  1  0.95757485  0.17552738  0.20479096  1
  Zr  Zr25  1  0.95781017  0.17555888  0.53811785  1
  Zr  Zr26  1  0.95639856  0.17674973  0.87104875  1
  Zr  Zr27  1  0.82444112  0.04218983  0.12854915  1
  Zr  Zr28  1  0.82447262  0.04242515  0.46187604  1
  Zr  Zr29  1  0.82325027  0.04360144  0.79561725  1
  Zr  Zr30  1  0.32270066  0.54407925  0.03715273  1
  Zr  Zr31  1  0.32289883  0.54448883  0.37043124  1
  Zr  Zr32  1  0.32299194  0.54396234  0.70449086  1
  Zr  Zr33  1  0.45551117  0.67710117  0.29623476  1
  Zr  Zr34  1  0.45592075  0.67729934  0.62951427  1
  Zr  Zr35  1  0.45603766  0.67700806  0.96217614  1
  P  P0  1  0.50001147  0.50001147  0.99970347  1
  P  P1  1  0.50000000  0.50000000  0.33333300  1
  P  P2  1  0.49998853  0.49998853  0.66696353  1
  P  P3  1  0.00017170  0.00017170  0.16685469  1
  P  P4  1  -0.00017170  -0.00017170  0.49981231  1
  P  P5  1  0.00000000  -0.00000000  0.83333300  1
  I  I0  1  0.90080695  0.40077048  0.25003120  1
  I  I1  1  0.90087253  0.40093872  0.58337369  1
  I  I2  1  0.90113139  0.40123865  0.91666854  1
  I  I3  1  0.59906128  0.09912747  0.08329231  1
  I  I4  1  0.59922952  0.09919305  0.41663580  1
  I  I5  1  0.59876135  0.09886861  0.74999846  1
  I  I6  1  0.09912747  0.59906128  0.08329231  1
  I  I7  1  0.09919305  0.59922952  0.41663580  1
  I  I8  1  0.09886861  0.59876135  0.74999846  1
  I  I9  1  0.40077048  0.90080695  0.25003120  1
  I  I10  1  0.40093872  0.90087253  0.58337369  1
  I  I11  1  0.40123865  0.90113139  0.91666854  1
  I  I12  1  0.28657529  0.53605557  0.25020834  1
  I  I13  1  0.28680084  0.53601932  0.58353530  1
  I  I14  1  0.28813467  0.53597009  0.91681710  1
  I  I15  1  0.46398068  0.71319916  0.08313170  1
  I  I16  1  0.46394443  0.71342471  0.41645866  1
  I  I17  1  0.46402991  0.71186533  0.74984890  1
  I  I18  1  0.96412711  0.21232602  0.08328295  1
  I  I19  1  0.96410689  0.21233048  0.41662703  1
  I  I20  1  0.96420754  0.21168978  0.75013686  1
  I  I21  1  0.78766952  0.03589311  0.25003897  1
  I  I22  1  0.78767398  0.03587289  0.58338405  1
  I  I23  1  0.78831022  0.03579246  0.91653014  1
  I  I24  1  0.71319916  0.46398068  0.08313170  1
  I  I25  1  0.71342471  0.46394443  0.41645866  1
  I  I26  1  0.71186533  0.46402991  0.74984890  1
  I  I27  1  0.53605557  0.28657529  0.25020834  1
  I  I28  1  0.53601932  0.28680084  0.58353530  1
  I  I29  1  0.53597009  0.28813467  0.91681710  1
  I  I30  1  0.03589311  0.78766952  0.25003897  1
  I  I31  1  0.03587289  0.78767398  0.58338405  1
  I  I32  1  0.03579246  0.78831022  0.91653014  1
  I  I33  1  0.21232602  0.96412711  0.08328295  1
  I  I34  1  0.21233048  0.96410689  0.41662703  1
  I  I35  1  0.21168978  0.96420754  0.75013686  1
  I  I36  1  0.24903225  0.75096454  0.16663715  1
  I  I37  1  0.24903546  0.75096775  0.50002985  1
  I  I38  1  0.25001033  0.74998967  0.83333300  1
  I  I39  1  0.75092614  0.24997476  0.00000305  1
  I  I40  1  0.75109035  0.24890965  0.33333300  1
  I  I41  1  0.75002524  0.24907386  0.66666395  1
  I  I42  1  0.75096454  0.24903225  0.16663715  1
  I  I43  1  0.75096775  0.24903546  0.50002985  1
  I  I44  1  0.74998967  0.25001033  0.83333300  1
  I  I45  1  0.24890965  0.75109035  0.33333300  1
  I  I46  1  0.24907386  0.75002524  0.66666395  1
  I  I47  1  0.24997476  0.75092614  0.00000305  1
  I  I48  1  0.11602133  0.36455065  0.16880090  1
  I  I49  1  0.11603147  0.36459218  0.50214668  1
  I  I50  1  0.11649407  0.36412943  0.83587770  1
  I  I51  1  0.63540782  0.88396853  0.16451932  1
  I  I52  1  0.63544935  0.88397867  0.49786610  1
  I  I53  1  0.63587057  0.88350593  0.83078930  1
  I  I54  1  0.13566678  0.38300237  0.00254014  1
  I  I55  1  0.13530414  0.38316198  0.33575638  1
  I  I56  1  0.13568511  0.38371930  0.66911740  1
  I  I57  1  0.61683802  0.86469586  0.33091062  1
  I  I58  1  0.61699763  0.86433322  0.66412586  1
  I  I59  1  0.61628070  0.86431489  0.99754960  1
  I  I60  1  0.88396853  0.63540782  0.16451932  1
  I  I61  1  0.88397867  0.63544935  0.49786610  1
  I  I62  1  0.88350593  0.63587057  0.83078930  1
  I  I63  1  0.36455065  0.11602133  0.16880090  1
  I  I64  1  0.36459218  0.11603147  0.50214668  1
  I  I65  1  0.36412943  0.11649407  0.83587770  1
  I  I66  1  0.86469586  0.61683802  0.33091062  1
  I  I67  1  0.86433322  0.61699763  0.66412586  1
  I  I68  1  0.86431489  0.61628070  0.99754960  1
  I  I69  1  0.38300237  0.13566678  0.00254014  1
  I  I70  1  0.38316198  0.13530414  0.33575638  1
  I  I71  1  0.38371930  0.13568511  0.66911740  1
  I  I72  1  0.34269625  0.34269625  0.08727597  1
  I  I73  1  0.34286569  0.34286569  0.42050051  1
  I  I74  1  0.34590845  0.34590845  0.75469589  1
  I  I75  1  0.65713431  0.65713431  0.24616549  1
  I  I76  1  0.65730375  0.65730375  0.57939103  1
  I  I77  1  0.65409155  0.65409155  0.91197111  1
  I  I78  1  0.15345787  0.15345787  0.25496290  1
  I  I79  1  0.15336756  0.15336756  0.58837242  1
  I  I80  1  0.15396863  0.15396863  0.92142344  1
  I  I81  1  0.84663244  0.84663244  0.07829458  1
  I  I82  1  0.84654213  0.84654213  0.41170410  1
  I  I83  1  0.84603137  0.84603137  0.74524256  1
loop_
_geom_bond_atom_site_label_1
_geom_bond_atom_site_label_2
_geom_bond_distance
_geom_bond_site_symmetry_2
Cs0 I75 3.899722 1_555
Cs0 I72 3.903989 1_555
Cs0 I36 4.076143 1_555
Cs0 I42 4.076143 1_555
Cs0 I27 4.083193 1_555
Cs0 I12 4.083193 1_555
Cs0 I15 4.088090 1_555
Cs0 I24 4.088090 1_555
Cs0 I63 4.323035 1_555
Cs0 I48 4.323035 1_555
Cs0 I51 4.323328 1_555
Cs0 I60 4.323328 1_555
Cs1 I73 3.899754 1_555
Cs1 I76 3.903989 1_555
Cs1 I37 4.076143 1_555
Cs1 I43 4.076143 1_555
Cs1 I25 4.083193 1_555
Cs1 I16 4.083193 1_555
Cs1 I28 4.088090 1_555
Cs1 I13 4.088090 1_555
Cs1 I52 4.323035 1_555
Cs1 I61 4.323035 1_555
Cs1 I64 4.323328 1_555
Cs1 I49 4.323328 1_555
P0 Zr8 2.448635 1_555
P0 Zr9 2.451229 1_556
P0 Zr35 2.524867 1_555
P0 Zr20 2.524867 1_555
P0 Zr21 2.526043 1_556
P0 Zr30 2.526043 1_556
P1 Zr6 2.443394 1_555
P1 Zr10 2.443415 1_555
P1 Zr31 2.517372 1_555
P1 Zr22 2.517372 1_555
P1 Zr33 2.517372 1_555
P1 Zr18 2.517372 1_555
P2 Zr11 2.448614 1_555
P2 Zr7 2.451229 1_555
P2 Zr32 2.524867 1_555
P2 Zr23 2.524867 1_555
P2 Zr34 2.526043 1_555
P2 Zr19 2.526043 1_555
P3 Zr3 2.449355 1_445
P3 Zr0 2.452261 1_555
P3 Zr15 2.517444 1_545
P3 Zr24 2.517444 1_455
P3 Zr12 2.527735 1_545
P3 Zr27 2.527735 1_455
P4 Zr1 2.449377 1_555
P4 Zr4 2.452261 1_445
P4 Zr13 2.517444 1_545
P4 Zr28 2.517444 1_455
P4 Zr16 2.527735 1_545
P4 Zr25 2.527735 1_455
P5 Zr2 2.449433 1_555
P5 Zr5 2.449455 1_445
P5 Zr29 2.527134 1_455
P5 Zr14 2.527134 1_545
P5 Zr26 2.527134 1_455
P5 Zr17 2.527134 1_545
I0 Zr24 3.159506 1_555
I0 Zr18 3.160495 1_555
I1 Zr19 3.158610 1_555
I1 Zr25 3.161564 1_555
I2 Zr20 3.148520 1_555
I2 Zr26 3.156976 1_555
I3 Zr21 3.158588 1_555
I3 Zr27 3.161586 1_555
I4 Zr28 3.159506 1_555
I4 Zr22 3.160518 1_555
I5 Zr23 3.148520 1_555
I5 Zr29 3.156954 1_555
I6 Zr30 3.158588 1_555
I6 Zr12 3.161586 1_555
I7 Zr13 3.159506 1_555
I7 Zr31 3.160518 1_555
I8 Zr32 3.148520 1_555
I8 Zr14 3.156954 1_555
I9 Zr15 3.159506 1_555
I9 Zr33 3.160495 1_555
I10 Zr34 3.158610 1_555
I10 Zr16 3.161564 1_555
I11 Zr35 3.148520 1_555
I11 Zr17 3.156976 1_555
I12 Zr6 2.894463 1_555
I12 Zr33 2.927624 1_555
I13 Zr7 2.896151 1_555
I13 Zr34 2.928829 1_555
I14 Zr8 2.882400 1_555
I14 Zr35 2.904655 1_555
I15 Zr9 2.896151 1_555
I15 Zr30 2.928829 1_555
I16 Zr10 2.894463 1_555
I16 Zr31 2.927649 1_555
I17 Zr11 2.882400 1_555
I17 Zr32 2.904631 1_555
I18 Zr0 2.880141 1_655
I18 Zr27 2.907144 1_555
I19 Zr1 2.879963 1_655
I19 Zr28 2.904973 1_555
I20 Zr2 2.884843 1_655
I20 Zr29 2.905717 1_555
I21 Zr3 2.879963 1_545
I21 Zr24 2.904949 1_555
I22 Zr4 2.880141 1_545
I22 Zr25 2.907144 1_555
I23 Zr5 2.884843 1_545
I23 Zr26 2.905741 1_555
I24 Zr9 2.896151 1_555
I24 Zr21 2.928829 1_555
I25 Zr10 2.894463 1_555
I25 Zr22 2.927649 1_555
I26 Zr11 2.882400 1_555
I26 Zr23 2.904631 1_555
I27 Zr6 2.894463 1_555
I27 Zr18 2.927624 1_555
I28 Zr7 2.896151 1_555
I28 Zr19 2.928829 1_555
I29 Zr8 2.882400 1_555
I29 Zr20 2.904655 1_555
I30 Zr3 2.879963 1_455
I30 Zr15 2.904949 1_555
I31 Zr4 2.880141 1_455
I31 Zr16 2.907144 1_555
I32 Zr5 2.884843 1_455
I32 Zr17 2.905741 1_555
I33 Zr0 2.880141 1_565
I33 Zr12 2.907144 1_555
I34 Zr1 2.879963 1_565
I34 Zr13 2.904973 1_555
I35 Zr2 2.884843 1_565
I35 Zr14 2.905717 1_555
I36 Zr15 2.900043 1_555
I36 Zr12 2.900638 1_555
I37 Zr13 2.900043 1_555
I37 Zr16 2.900638 1_555
I38 Zr14 2.888335 1_555
I38 Zr17 2.888335 1_555
I39 Zr21 2.877722 1_555
I39 Zr20 2.889142 1_554
I40 Zr18 2.879439 1_555
I40 Zr22 2.879439 1_555
I41 Zr19 2.877722 1_555
I41 Zr23 2.889142 1_555
I42 Zr24 2.900043 1_555
I42 Zr27 2.900638 1_555
I43 Zr28 2.900043 1_555
I43 Zr25 2.900638 1_555
I44 Zr29 2.888335 1_555
I44 Zr26 2.888335 1_555
I45 Zr31 2.879439 1_555
I45 Zr33 2.879439 1_555
I46 Zr34 2.877722 1_555
I46 Zr32 2.889142 1_555
I47 Zr30 2.877722 1_555
I47 Zr35 2.889142 1_554
I48 Zr0 2.910299 1_555
I48 Zr24 2.935263 1_455
I49 Zr1 2.910597 1_555
I49 Zr25 2.933686 1_455
I50 Zr2 2.901046 1_555
I50 Zr26 2.917627 1_455
I51 Zr3 2.910597 1_555
I51 Zr27 2.933667 1_565
I52 Zr4 2.910299 1_555
I52 Zr28 2.935263 1_565
I53 Zr5 2.901046 1_555
I53 Zr29 2.917646 1_565
I54 Zr8 2.902656 1_554
I54 Zr30 2.912794 1_555
I55 Zr6 2.900592 1_555
I55 Zr31 2.919385 1_555
I56 Zr7 2.895414 1_555
I56 Zr32 2.924107 1_555
I57 Zr10 2.900592 1_555
I57 Zr33 2.919403 1_555
I58 Zr11 2.902656 1_555
I58 Zr34 2.912775 1_555
I59 Zr9 2.895414 1_556
I59 Zr35 2.924107 1_555
I60 Zr3 2.910597 1_555
I60 Zr12 2.933667 1_655
I61 Zr4 2.910299 1_555
I61 Zr13 2.935263 1_655
I62 Zr5 2.901046 1_555
I62 Zr14 2.917646 1_655
I63 Zr0 2.910299 1_555
I63 Zr15 2.935263 1_545
I64 Zr1 2.910597 1_555
I64 Zr16 2.933686 1_545
I65 Zr2 2.901046 1_555
I65 Zr17 2.917627 1_545
I66 Zr10 2.900592 1_555
I66 Zr18 2.919403 1_555
I67 Zr11 2.902656 1_555
I67 Zr19 2.912775 1_555
I68 Zr9 2.895414 1_556
I68 Zr20 2.924107 1_555
I69 Zr8 2.902656 1_554
I69 Zr21 2.912794 1_555
I70 Zr6 2.900592 1_555
I70 Zr22 2.919385 1_555
I71 Zr7 2.895414 1_555
I71 Zr23 2.924107 1_555
I72 Zr21 2.988682 1_555
I72 Zr30 2.988682 1_555
I72 Zr0 3.490212 1_555
I73 Zr31 2.989187 1_555
I73 Zr22 2.989187 1_555
I73 Zr1 3.493284 1_555
I74 Zr23 2.968607 1_555
I74 Zr32 2.968607 1_555
I74 Zr2 3.515765 1_555
I75 Zr18 2.989187 1_555
I75 Zr33 2.989187 1_555
I75 Zr3 3.493284 1_555
I76 Zr19 2.988682 1_555
I76 Zr34 2.988682 1_555
I76 Zr4 3.490212 1_555
I77 Zr35 2.968607 1_555
I77 Zr20 2.968607 1_555
I77 Zr5 3.515765 1_555
I78 Zr15 2.950378 1_545
I78 Zr24 2.950378 1_455
I78 Zr6 3.529419 1_555
I79 Zr25 2.950156 1_455
I79 Zr16 2.950156 1_545
I79 Zr7 3.527333 1_555
I80 Zr26 2.970583 1_455
I80 Zr17 2.970583 1_545
I80 Zr8 3.515880 1_555
I81 Zr12 2.950156 1_655
I81 Zr27 2.950156 1_565
I81 Zr9 3.527333 1_555
I82 Zr28 2.950378 1_565
I82 Zr13 2.950378 1_655
I82 Zr10 3.529419 1_555
I83 Zr14 2.970583 1_655
I83 Zr29 2.970583 1_565
I83 Zr11 3.515880 1_555
