# generated using pymatgen
data_Nb5SiB2
_symmetry_space_group_name_H-M   'P 1'
_cell_length_a   7.33249008
_cell_length_b   7.33249008
_cell_length_c   7.33249008
_cell_angle_alpha   129.37436950
_cell_angle_beta   129.37436950
_cell_angle_gamma   74.40893865
_symmetry_Int_Tables_number   1
_chemical_formula_structural   Nb5SiB2
_chemical_formula_sum   'Nb10 Si2 B4'
_cell_volume   229.60698349
_cell_formula_units_Z   2
loop_
 _symmetry_equiv_pos_site_id
 _symmetry_equiv_pos_as_xyz
  1  'x, y, z'
loop_
 _atom_site_type_symbol
 _atom_site_label
 _atom_site_symmetry_multiplicity
 _atom_site_fract_x
 _atom_site_fract_y
 _atom_site_fract_z
 _atom_site_occupancy
  Nb  Nb0  1  0.00000000  -0.00000000  -0.00000000  1
  Nb  Nb1  1  0.50000000  0.50000000  -0.00000000  1
  Nb  Nb2  1  0.80720926  0.30720926  0.83872844  1
  Nb  Nb3  1  0.19279074  0.69279074  0.16127156  1
  Nb  Nb4  1  0.46848082  0.96848082  0.16127156  1
  Nb  Nb5  1  0.30720926  0.46848082  0.50000000  1
  Nb  Nb6  1  0.03151918  0.19279074  0.50000000  1
  Nb  Nb7  1  0.53151918  0.03151918  0.83872844  1
  Nb  Nb8  1  0.69279074  0.53151918  0.50000000  1
  Nb  Nb9  1  0.96848082  0.80720926  0.50000000  1
  Si  Si0  1  0.25000000  0.25000000  -0.00000000  1
  Si  Si1  1  0.75000000  0.75000000  -0.00000000  1
  B  B0  1  0.11198694  0.61198694  0.72397188  1
  B  B1  1  0.88801306  0.38801306  0.27602812  1
  B  B2  1  0.61198694  0.88801306  0.50000000  1
  B  B3  1  0.38801306  0.11198694  0.50000000  1
loop_
_geom_bond_atom_site_label_1
_geom_bond_atom_site_label_2
_geom_bond_distance
_geom_bond_site_symmetry_2
Nb0 Si1 2.920101 1_445
Nb0 Si0 2.920101 1_555
Nb1 Si1 2.920101 1_555
Nb1 Si0 2.920101 1_555
Nb2 Si0 2.672408 1_656
Nb2 Si1 2.672408 1_556
Nb3 Si0 2.672408 1_555
Nb3 Si1 2.672408 1_455
Nb4 Si1 2.672408 1_555
Nb4 Si0 2.672408 1_565
Nb5 Si1 2.672408 1_556
Nb5 Si0 2.672408 1_555
Nb6 Si1 2.672408 1_445
Nb6 Si0 2.672408 1_556
Nb7 Si0 2.672408 1_556
Nb7 Si1 2.672408 1_546
Nb8 Si0 2.672408 1_555
Nb8 Si1 2.672408 1_556
Nb9 Si1 2.672408 1_555
Nb9 Si0 2.672408 1_666
B0 B1 1.986036 1_455
B0 Nb5 2.415338 1_555
B0 Nb9 2.415338 1_455
B0 Nb8 2.415354 1_455
B0 Nb6 2.415354 1_555
B0 Nb4 2.520209 1_556
B0 Nb3 2.520224 1_556
B0 Nb1 2.532211 1_556
B0 Nb0 2.532211 1_566
B1 Nb6 2.415338 1_655
B1 Nb8 2.415338 1_555
B1 Nb5 2.415354 1_655
B1 Nb9 2.415354 1_555
B1 Nb7 2.520209 1_554
B1 Nb2 2.520224 1_554
B1 Nb1 2.532211 1_555
B1 Nb0 2.532211 1_655
B2 B3 1.986054 1_565
B2 Nb3 2.415350 1_555
B2 Nb2 2.415350 1_565
B2 Nb4 2.415350 1_555
B2 Nb7 2.415350 1_565
B2 Nb8 2.520210 1_555
B2 Nb9 2.520210 1_555
B2 Nb1 2.532207 1_555
B2 Nb0 2.532207 1_666
B3 Nb3 2.415350 1_545
B3 Nb4 2.415350 1_545
B3 Nb7 2.415350 1_555
B3 Nb2 2.415350 1_555
B3 Nb5 2.520210 1_555
B3 Nb6 2.520210 1_555
B3 Nb0 2.532207 1_555
B3 Nb1 2.532207 1_556
