# generated using pymatgen
data_Fe4SiO9
_symmetry_space_group_name_H-M   'P 1'
_cell_length_a   15.42273244
_cell_length_b   15.42273244
_cell_length_c   15.42273213
_cell_angle_alpha   20.00211428
_cell_angle_beta   20.00211428
_cell_angle_gamma   20.00211716
_symmetry_Int_Tables_number   1
_chemical_formula_structural   Fe4SiO9
_chemical_formula_sum   'Fe8 Si2 O18'
_cell_volume   375.48563505
_cell_formula_units_Z   2
loop_
 _symmetry_equiv_pos_site_id
 _symmetry_equiv_pos_as_xyz
  1  'x, y, z'
loop_
 _atom_site_type_symbol
 _atom_site_label
 _atom_site_symmetry_multiplicity
 _atom_site_fract_x
 _atom_site_fract_y
 _atom_site_fract_z
 _atom_site_occupancy
  Fe  Fe0  1  0.08505800  0.41030100  0.75258700  1
  Fe  Fe1  1  0.75258700  0.08505800  0.41030100  1
  Fe  Fe2  1  0.41030100  0.75258700  0.08505800  1
  Fe  Fe3  1  0.84744900  0.84744900  0.84744900  1
  Fe  Fe4  1  0.34789700  0.34789700  0.34789700  1
  Fe  Fe5  1  0.24656100  0.92079900  0.57993800  1
  Fe  Fe6  1  0.57993800  0.24656100  0.92079900  1
  Fe  Fe7  1  0.92079900  0.57993800  0.24656100  1
  Si  Si0  1  0.68341000  0.68341000  0.68341000  1
  Si  Si1  1  0.51671900  0.51671900  0.51671900  1
  O  O0  1  0.72111200  0.72111200  0.72111200  1
  O  O1  1  0.55441200  0.55441200  0.55441200  1
  O  O2  1  0.27637300  0.61170800  0.91588000  1
  O  O3  1  0.91588000  0.27637300  0.61170800  1
  O  O4  1  0.61170800  0.91588000  0.27637300  1
  O  O5  1  0.89118800  0.89118800  0.89118800  1
  O  O6  1  0.06261900  0.06261900  0.06261900  1
  O  O7  1  0.20119800  0.54356500  0.77122200  1
  O  O8  1  0.77122200  0.20119800  0.54356500  1
  O  O9  1  0.54356500  0.77122200  0.20119800  1
  O  O10  1  0.97648400  0.63150400  0.40776000  1
  O  O11  1  0.40776000  0.97648400  0.63150400  1
  O  O12  1  0.63150400  0.40776000  0.97648400  1
  O  O13  1  0.09217300  0.75758900  0.45482600  1
  O  O14  1  0.45482600  0.09217300  0.75758900  1
  O  O15  1  0.75758900  0.45482600  0.09217300  1
  O  O16  1  0.39150200  0.39150200  0.39150200  1
  O  O17  1  0.22916700  0.22916700  0.22916700  1
loop_
_geom_bond_atom_site_label_1
_geom_bond_atom_site_label_2
_geom_bond_distance
_geom_bond_site_symmetry_2
Fe0 O13 1.928831 1_555
Fe0 O6 1.981858 1_556
Fe0 O15 1.984617 1_456
Fe0 O14 2.032554 1_555
Fe0 O16 2.104432 1_555
Fe0 O0 2.213777 1_455
Fe1 O14 1.928831 1_555
Fe1 O6 1.981858 1_655
Fe1 O13 1.984617 1_645
Fe1 O15 2.032554 1_555
Fe1 O16 2.104432 1_555
Fe1 O0 2.213777 1_545
Fe2 O15 1.928831 1_555
Fe2 O6 1.981858 1_565
Fe2 O14 1.984617 1_564
Fe2 O13 2.032554 1_555
Fe2 O16 2.104432 1_555
Fe2 O0 2.213777 1_554
Fe3 O9 1.832786 1_556
Fe3 O8 1.832786 1_565
Fe3 O7 1.832786 1_655
Fe3 O5 1.982617 1_555
Fe4 O12 1.832814 1_554
Fe4 O11 1.832814 1_545
Fe4 O10 1.832815 1_455
Fe4 O16 1.976543 1_555
Fe5 O2 1.928827 1_555
Fe5 O17 1.983241 1_565
Fe5 O4 1.988258 1_555
Fe5 O3 2.028563 1_465
Fe5 O5 2.104683 1_455
Fe5 O1 2.207847 1_555
Fe6 O3 1.928827 1_555
Fe6 O17 1.983241 1_556
Fe6 O2 1.988258 1_555
Fe6 O4 2.028563 1_546
Fe6 O5 2.104684 1_545
Fe6 O1 2.207847 1_555
Fe7 O4 1.928827 1_555
Fe7 O17 1.983241 1_655
Fe7 O3 1.988258 1_555
Fe7 O2 2.028563 1_654
Fe7 O5 2.104683 1_554
Fe7 O1 2.207847 1_555
O0 Si0 1.708970 1_555
O1 Si1 1.708562 1_555
O7 Si1 1.621432 1_555
O8 Si1 1.621432 1_555
O9 Si1 1.621432 1_555
O10 Si0 1.620791 1_555
O11 Si0 1.620791 1_555
O12 Si0 1.620791 1_555
