# generated using pymatgen
data_TmSb(PbO3)2
_symmetry_space_group_name_H-M   'P 1'
_cell_length_a   5.86582045
_cell_length_b   5.86582045
_cell_length_c   5.91213012
_cell_angle_alpha   90.56522586
_cell_angle_beta   119.42116751
_cell_angle_gamma   119.66668405
_symmetry_Int_Tables_number   1
_chemical_formula_structural   TmSb(PbO3)2
_chemical_formula_sum   'Tm1 Sb1 Pb2 O6'
_cell_volume   145.10600273
_cell_formula_units_Z   1
loop_
 _symmetry_equiv_pos_site_id
 _symmetry_equiv_pos_as_xyz
  1  'x, y, z'
loop_
 _atom_site_type_symbol
 _atom_site_label
 _atom_site_symmetry_multiplicity
 _atom_site_fract_x
 _atom_site_fract_y
 _atom_site_fract_z
 _atom_site_occupancy
  Tm  Tm0  1  0.00000000  0.00000000  0.00000000  1
  Sb  Sb0  1  0.00000000  0.50000000  0.50000000  1
  Pb  Pb0  1  0.51434400  0.75321900  0.26756300  1
  Pb  Pb1  1  0.48565600  0.24678100  0.73243700  1
  O  O0  1  0.92893400  0.26324700  0.19218100  1
  O  O1  1  0.07106600  0.73675300  0.80781900  1
  O  O2  1  0.00537000  0.78245600  0.30616300  1
  O  O3  1  0.52370700  0.30079300  0.30616300  1
  O  O4  1  0.99463000  0.21754400  0.69383700  1
  O  O5  1  0.47629300  0.69920700  0.69383700  1
loop_
_geom_bond_atom_site_label_1
_geom_bond_atom_site_label_2
_geom_bond_distance
_geom_bond_site_symmetry_2
O0 Sb0 2.011482 1_655
O0 Tm0 2.217445 1_655
O0 Pb1 2.638361 1_554
O1 Sb0 2.011482 1_555
O1 Tm0 2.217445 1_566
O1 Pb0 2.638361 1_556
O2 Sb0 2.020063 1_555
O2 Tm0 2.221503 1_565
O2 Pb1 2.645738 1_565
O2 Pb0 2.691084 1_455
O3 Sb0 2.020063 1_655
O3 Tm0 2.221503 1_555
O3 Pb1 2.645738 1_555
O3 Pb0 2.691084 1_555
O4 Sb0 2.020063 1_655
O4 Tm0 2.221503 1_656
O4 Pb0 2.645738 1_545
O4 Pb1 2.691084 1_655
O5 Sb0 2.020063 1_555
O5 Tm0 2.221503 1_666
O5 Pb0 2.645738 1_555
O5 Pb1 2.691084 1_555
