# generated using pymatgen
data_CaBO3
_symmetry_space_group_name_H-M   'P 1'
_cell_length_a   9.43989900
_cell_length_b   3.68089800
_cell_length_c   8.19471793
_cell_angle_alpha   69.00875662
_cell_angle_beta   90.00000000
_cell_angle_gamma   90.00000000
_symmetry_Int_Tables_number   1
_chemical_formula_structural   CaBO3
_chemical_formula_sum   'Ca4 B4 O12'
_cell_volume   265.84735931
_cell_formula_units_Z   4
loop_
 _symmetry_equiv_pos_site_id
 _symmetry_equiv_pos_as_xyz
  1  'x, y, z'
loop_
 _atom_site_type_symbol
 _atom_site_label
 _atom_site_symmetry_multiplicity
 _atom_site_fract_x
 _atom_site_fract_y
 _atom_site_fract_z
 _atom_site_occupancy
  Ca  Ca0  1  0.49619800  0.92822200  0.28678100  1
  Ca  Ca1  1  0.99619800  0.07177800  0.21321900  1
  Ca  Ca2  1  0.50380200  0.07177800  0.71321900  1
  Ca  Ca3  1  0.00380200  0.92822200  0.78678100  1
  B  B0  1  0.73871500  0.28768100  0.93158700  1
  B  B1  1  0.23871500  0.71231900  0.56841300  1
  B  B2  1  0.26128500  0.71231900  0.06841300  1
  B  B3  1  0.76128500  0.28768100  0.43158700  1
  O  O0  1  0.61757300  0.31274000  0.42647700  1
  O  O1  1  0.11757300  0.68726000  0.07352300  1
  O  O2  1  0.38242700  0.68726000  0.57352300  1
  O  O3  1  0.88242700  0.31274000  0.92647700  1
  O  O4  1  0.64548000  0.50060600  0.80325400  1
  O  O5  1  0.14548000  0.49939400  0.69674600  1
  O  O6  1  0.35452000  0.49939400  0.19674600  1
  O  O7  1  0.85452000  0.50060600  0.30325400  1
  O  O8  1  0.66228700  0.02490200  0.06424900  1
  O  O9  1  0.16228700  0.97509800  0.43575100  1
  O  O10  1  0.33771300  0.97509800  0.93575100  1
  O  O11  1  0.83771300  0.02490200  0.56424900  1
loop_
_geom_bond_atom_site_label_1
_geom_bond_atom_site_label_2
_geom_bond_distance
_geom_bond_site_symmetry_2
Ca0 O8 2.333530 1_565
Ca0 O6 2.375272 1_565
Ca0 O6 2.378873 1_555
Ca0 O0 2.405702 1_565
Ca0 O0 2.428533 1_555
Ca0 O2 2.443025 1_555
Ca1 O9 2.333530 1_645
Ca1 O7 2.375272 1_545
Ca1 O7 2.378873 1_555
Ca1 O1 2.405702 1_645
Ca1 O1 2.428533 1_655
Ca1 O3 2.443025 1_554
Ca2 O10 2.333530 1_545
Ca2 O4 2.375272 1_545
Ca2 O4 2.378873 1_555
Ca2 O2 2.405702 1_545
Ca2 O2 2.428533 1_555
Ca2 O0 2.443025 1_555
Ca3 O11 2.333530 1_465
Ca3 O5 2.375272 1_565
Ca3 O5 2.378873 1_555
Ca3 O3 2.405702 1_465
Ca3 O3 2.428533 1_455
Ca3 O1 2.443025 1_556
B0 O3 1.359386 1_555
B0 O8 1.372804 1_556
B0 O4 1.379981 1_555
B1 O2 1.359386 1_555
B1 O9 1.372804 1_555
B1 O5 1.379981 1_555
B2 O1 1.359386 1_555
B2 O10 1.372804 1_554
B2 O6 1.379981 1_555
B3 O0 1.359386 1_555
B3 O11 1.372804 1_555
B3 O7 1.379981 1_555
