# generated using pymatgen
data_PrGa3Co10
_symmetry_space_group_name_H-M   'P 1'
_cell_length_a   8.11495867
_cell_length_b   8.07003929
_cell_length_c   7.98275026
_cell_angle_alpha   60.72846971
_cell_angle_beta   60.16753919
_cell_angle_gamma   59.10399109
_symmetry_Int_Tables_number   1
_chemical_formula_structural   PrGa3Co10
_chemical_formula_sum   'Pr2 Ga6 Co20'
_cell_volume   369.50489174
_cell_formula_units_Z   2
loop_
 _symmetry_equiv_pos_site_id
 _symmetry_equiv_pos_as_xyz
  1  'x, y, z'
loop_
 _atom_site_type_symbol
 _atom_site_label
 _atom_site_symmetry_multiplicity
 _atom_site_fract_x
 _atom_site_fract_y
 _atom_site_fract_z
 _atom_site_occupancy
  Pr  Pr0  1  0.75169200  0.75169200  0.74830800  1
  Pr  Pr1  1  0.25169200  0.25169200  0.24830800  1
  Ga  Ga0  1  0.55127900  0.19594000  0.44872100  1
  Ga  Ga1  1  0.19594000  0.55127900  0.80406000  1
  Ga  Ga2  1  0.94384400  0.29953000  0.70047000  1
  Ga  Ga3  1  0.29953000  0.94384400  0.05615600  1
  Ga  Ga4  1  0.44606800  0.80204300  0.55393200  1
  Ga  Ga5  1  0.80204300  0.44606800  0.19795700  1
  Co  Co0  1  0.99843200  0.99843200  0.00156800  1
  Co  Co1  1  0.49894100  0.49894100  0.50105900  1
  Co  Co2  1  0.44811500  0.20379700  0.79620300  1
  Co  Co3  1  0.20379700  0.44811500  0.55188500  1
  Co  Co4  1  0.93598900  0.71506500  0.06401100  1
  Co  Co5  1  0.71506500  0.93598900  0.28493500  1
  Co  Co6  1  0.56058000  0.79827800  0.20172200  1
  Co  Co7  1  0.79827800  0.56058000  0.43942000  1
  Co  Co8  1  0.06102600  0.28913800  0.93897400  1
  Co  Co9  1  0.28913800  0.06102600  0.71086200  1
  Co  Co10  1  0.05923900  0.93472800  0.70245600  1
  Co  Co11  1  0.93472800  0.05923900  0.30357700  1
  Co  Co12  1  0.56234800  0.43661100  0.80064100  1
  Co  Co13  1  0.43661100  0.56234800  0.20039900  1
  Co  Co14  1  0.79960100  0.19935900  0.56338900  1
  Co  Co15  1  0.19935900  0.79960100  0.43765200  1
  Co  Co16  1  0.69642300  0.29754400  0.06527200  1
  Co  Co17  1  0.29754400  0.69642300  0.94076100  1
  Co  Co18  1  0.05738900  0.70530800  0.29469200  1
  Co  Co19  1  0.70530800  0.05738900  0.94261100  1
loop_
_geom_bond_atom_site_label_1
_geom_bond_atom_site_label_2
_geom_bond_distance
_geom_bond_site_symmetry_2
Ga0 Pr0 3.273360 1_545
Ga0 Pr1 3.273360 1_555
Ga1 Pr1 3.273360 1_556
Ga1 Pr0 3.273360 1_455
Ga2 Pr0 3.289249 1_555
Ga2 Pr1 3.289249 1_655
Ga3 Pr1 3.289249 1_565
Ga3 Pr0 3.289249 1_554
Ga4 Pr1 3.301677 1_565
Ga4 Pr0 3.301677 1_555
Ga5 Pr1 3.301677 1_655
Ga5 Pr0 3.301677 1_554
Co0 Co5 2.357673 1_555
Co0 Co4 2.357673 1_555
Co0 Co8 2.415859 1_664
Co0 Co9 2.415859 1_664
Co0 Co18 2.416326 1_655
Co0 Co19 2.416326 1_564
Co0 Co16 2.444727 1_565
Co0 Co10 2.444727 1_654
Co0 Co11 2.444727 1_565
Co0 Co17 2.444727 1_654
Co0 Ga3 2.473936 1_655
Co0 Ga2 2.473936 1_564
Co1 Co3 2.438969 1_555
Co1 Co2 2.438969 1_555
Co1 Co12 2.453393 1_555
Co1 Co15 2.453396 1_555
Co1 Co14 2.453398 1_555
Co1 Co13 2.453401 1_555
Co1 Ga0 2.467801 1_555
Co1 Ga1 2.467801 1_555
Co1 Ga5 2.469207 1_555
Co1 Ga4 2.469207 1_555
Co1 Co7 2.490476 1_555
Co1 Co6 2.490476 1_555
Co2 Ga3 2.451964 1_546
Co2 Ga0 2.491233 1_555
Co2 Ga1 2.491233 1_555
Co2 Co9 2.573794 1_555
Co2 Co8 2.573794 1_555
Co2 Co3 2.773872 1_555
Co2 Pr0 3.274628 1_545
Co2 Pr1 3.274628 1_556
Co3 Ga2 2.451964 1_455
Co3 Ga0 2.491233 1_555
Co3 Ga1 2.491233 1_555
Co3 Co9 2.573794 1_555
Co3 Co8 2.573794 1_555
Co3 Pr0 3.274628 1_455
Co3 Pr1 3.274628 1_555
Co4 Ga1 2.442672 1_654
Co4 Ga5 2.456473 1_555
Co4 Co5 2.479812 1_555
Co4 Co6 2.495825 1_555
Co4 Co7 2.495825 1_555
Co4 Pr1 3.353046 1_655
Co4 Pr0 3.353046 1_554
Co5 Ga0 2.442672 1_565
Co5 Ga4 2.456473 1_555
Co5 Co7 2.495825 1_555
Co5 Co6 2.495825 1_555
Co5 Pr0 3.353046 1_555
Co5 Pr1 3.353046 1_565
Co6 Ga3 2.403445 1_555
Co6 Ga5 2.494923 1_555
Co6 Ga4 2.494923 1_555
Co6 Co7 2.698711 1_555
Co6 Pr0 3.285461 1_554
Co6 Pr1 3.285461 1_565
Co7 Ga2 2.403445 1_555
Co7 Ga4 2.494923 1_555
Co7 Ga5 2.494923 1_555
Co7 Pr0 3.285461 1_555
Co7 Pr1 3.285461 1_655
Co8 Ga5 2.408104 1_456
Co8 Ga1 2.410649 1_555
Co8 Ga3 2.469710 1_546
Co8 Ga2 2.469710 1_455
Co8 Co9 2.560496 1_555
Co8 Pr1 3.342803 1_556
Co8 Pr0 3.342803 1_455
Co9 Ga4 2.408104 1_545
Co9 Ga0 2.410649 1_555
Co9 Ga3 2.469710 1_546
Co9 Ga2 2.469710 1_455
Co9 Pr0 3.342803 1_545
Co9 Pr1 3.342803 1_555
Co10 Co15 2.353692 1_555
Co10 Co14 2.370702 1_465
Co10 Co19 2.522312 1_465
Co10 Ga1 2.525782 1_555
Co10 Co4 2.533458 1_456
Co10 Ga4 2.548111 1_555
Co10 Co9 2.582262 1_565
Co10 Ga2 2.584971 1_465
Co10 Co17 2.705603 1_555
Co10 Pr0 3.300421 1_455
Co10 Pr1 3.395012 1_565
Co11 Co14 2.353699 1_555
Co11 Co15 2.370706 1_645
Co11 Co18 2.522312 1_645
Co11 Ga0 2.525782 1_555
Co11 Co5 2.533458 1_545
Co11 Ga5 2.548111 1_555
Co11 Co8 2.582262 1_654
Co11 Ga3 2.584971 1_645
Co11 Co16 2.705603 1_555
Co11 Pr0 3.300421 1_545
Co11 Pr1 3.395012 1_655
Co12 Co17 2.353697 1_555
Co12 Co16 2.370708 1_556
Co12 Co19 2.503258 1_555
Co12 Co2 2.505378 1_555
Co12 Ga2 2.516406 1_555
Co12 Co7 2.575749 1_555
Co12 Ga4 2.603365 1_555
Co12 Ga1 2.610816 1_555
Co12 Co14 2.663090 1_555
Co12 Pr1 3.322361 1_556
Co12 Pr0 3.366850 1_555
Co13 Co16 2.353694 1_555
Co13 Co17 2.370701 1_554
Co13 Co18 2.503257 1_555
Co13 Co3 2.505382 1_555
Co13 Ga3 2.516405 1_555
Co13 Co6 2.575754 1_555
Co13 Ga5 2.603368 1_555
Co13 Ga0 2.610819 1_555
Co13 Co15 2.663101 1_555
Co13 Pr1 3.322357 1_555
Co13 Pr0 3.366846 1_554
Co14 Co19 2.503257 1_555
Co14 Co2 2.505384 1_555
Co14 Ga2 2.516399 1_555
Co14 Co7 2.575746 1_555
Co14 Ga5 2.603367 1_555
Co14 Ga0 2.610823 1_555
Co14 Pr0 3.322364 1_545
Co14 Pr1 3.366843 1_655
Co15 Co18 2.503264 1_555
Co15 Co3 2.505385 1_555
Co15 Ga3 2.516405 1_555
Co15 Co6 2.575748 1_555
Co15 Ga4 2.603361 1_555
Co15 Ga1 2.610817 1_555
Co15 Pr0 3.322363 1_455
Co15 Pr1 3.366842 1_565
Co16 Co19 2.522312 1_554
Co16 Ga0 2.525782 1_555
Co16 Co5 2.533458 1_545
Co16 Ga5 2.548111 1_555
Co16 Co8 2.582262 1_654
Co16 Ga2 2.584971 1_554
Co16 Pr1 3.300421 1_555
Co16 Pr0 3.395012 1_554
Co17 Co18 2.522312 1_556
Co17 Ga1 2.525782 1_555
Co17 Co4 2.533458 1_456
Co17 Ga4 2.548111 1_555
Co17 Co9 2.582262 1_565
Co17 Ga3 2.584971 1_556
Co17 Pr1 3.300421 1_556
Co17 Pr0 3.395012 1_555
Co18 Co3 2.379511 1_555
Co18 Co7 2.430164 1_455
Co18 Co4 2.439513 1_455
Co18 Co5 2.439513 1_455
Co18 Ga3 2.787459 1_555
Co18 Pr0 3.292558 1_455
Co18 Pr1 3.292558 1_555
Co19 Co2 2.379511 1_555
Co19 Co6 2.430164 1_546
Co19 Co4 2.439513 1_546
Co19 Co5 2.439513 1_546
Co19 Ga2 2.787459 1_555
Co19 Pr1 3.292558 1_556
Co19 Pr0 3.292558 1_545
