# generated using pymatgen
data_Sn4Rh
_symmetry_space_group_name_H-M   'P 1'
_cell_length_a   12.55333483
_cell_length_b   12.55333483
_cell_length_c   12.55333483
_cell_angle_alpha   150.44991618
_cell_angle_beta   150.44991618
_cell_angle_gamma   42.28137377
_symmetry_Int_Tables_number   1
_chemical_formula_structural   Sn4Rh
_chemical_formula_sum   'Sn16 Rh4'
_cell_volume   480.00118939
_cell_formula_units_Z   4
loop_
 _symmetry_equiv_pos_site_id
 _symmetry_equiv_pos_as_xyz
  1  'x, y, z'
loop_
 _atom_site_type_symbol
 _atom_site_label
 _atom_site_symmetry_multiplicity
 _atom_site_fract_x
 _atom_site_fract_y
 _atom_site_fract_z
 _atom_site_occupancy
  Sn  Sn0  1  0.13772000  0.63645700  0.14744800  1
  Sn  Sn1  1  0.63772000  0.49027300  0.50126300  1
  Sn  Sn2  1  0.88645700  0.88772000  0.64744800  1
  Sn  Sn3  1  0.38645700  0.73900900  0.99873700  1
  Sn  Sn4  1  0.61228000  0.61354300  0.35255200  1
  Sn  Sn5  1  0.11228000  0.75972700  0.99873700  1
  Sn  Sn6  1  0.86354300  0.36228000  0.85255200  1
  Sn  Sn7  1  0.36354300  0.51099100  0.50126300  1
  Sn  Sn8  1  0.98900900  0.13645700  0.49873700  1
  Sn  Sn9  1  0.48900900  0.99027300  0.85255200  1
  Sn  Sn10  1  0.74027300  0.38772000  0.00126300  1
  Sn  Sn11  1  0.24027300  0.23900900  0.35255200  1
  Sn  Sn12  1  0.76099100  0.11354300  0.00126300  1
  Sn  Sn13  1  0.26099100  0.25972700  0.64744800  1
  Sn  Sn14  1  0.00972700  0.86228000  0.49873700  1
  Sn  Sn15  1  0.50972700  0.01099100  0.14744800  1
  Rh  Rh0  1  0.75000000  0.75000000  0.00000000  1
  Rh  Rh1  1  0.25000000  0.25000000  0.00000000  1
  Rh  Rh2  1  0.00000000  0.50000000  0.50000000  1
  Rh  Rh3  1  0.50000000  0.00000000  0.50000000  1
loop_
_geom_bond_atom_site_label_1
_geom_bond_atom_site_label_2
_geom_bond_distance
_geom_bond_site_symmetry_2
Sn0 Sn5 3.039602 1_554
Sn0 Sn9 3.192362 1_555
Sn0 Sn6 3.254114 1_454
Sn0 Sn1 3.335428 1_555
Sn0 Sn1 3.335434 1_454
Sn0 Sn8 3.340007 1_454
Sn0 Sn8 3.340007 1_465
Sn1 Sn4 3.039602 1_555
Sn1 Sn8 3.192366 1_555
Sn1 Sn7 3.254123 1_555
Sn1 Sn9 3.340007 1_544
Sn1 Sn9 3.340007 1_555
Sn2 Sn4 3.254114 1_555
Sn2 Sn3 3.340007 1_554
Sn2 Sn3 3.340007 1_655
Sn3 Sn5 3.254123 1_555
Sn4 Sn5 3.335428 1_554
Sn4 Sn5 3.335434 1_655
Sn6 Sn7 3.340007 1_555
Sn6 Sn7 3.340007 1_656
Sn8 Sn9 3.335428 1_645
Sn8 Sn9 3.335434 1_544
Sn10 Sn6 3.039602 1_554
Sn10 Sn3 3.192366 1_554
Sn10 Sn12 3.254123 1_555
Sn10 Sn2 3.335428 1_544
Sn10 Sn2 3.335434 1_555
Sn10 Sn11 3.340007 1_655
Sn10 Sn11 3.340007 1_554
Sn11 Sn7 3.039604 1_555
Sn11 Sn2 3.192362 1_444
Sn11 Sn13 3.254136 1_555
Sn11 Sn3 3.335428 1_544
Sn11 Sn3 3.335434 1_555
Sn12 Sn9 3.039604 1_544
Sn12 Sn5 3.192366 1_644
Sn12 Sn13 3.335428 1_554
Sn12 Sn13 3.335434 1_655
Sn12 Sn4 3.340007 1_544
Sn12 Sn4 3.340007 1_555
Sn13 Sn8 3.039604 1_455
Sn13 Sn4 3.192362 1_556
Sn13 Sn5 3.340007 1_555
Sn13 Sn5 3.340007 1_544
Sn14 Sn2 3.039602 1_455
Sn14 Sn7 3.192366 1_555
Sn14 Sn8 3.254123 1_465
Sn14 Sn6 3.335428 1_465
Sn14 Sn6 3.335434 1_454
Sn14 Sn15 3.340007 1_465
Sn14 Sn15 3.340007 1_566
Sn15 Sn3 3.039604 1_544
Sn15 Sn6 3.192362 1_555
Sn15 Sn9 3.254136 1_544
Sn15 Sn7 3.335428 1_555
Sn15 Sn7 3.335434 1_544
Rh0 Sn8 2.783158 1_565
Rh0 Sn7 2.783158 1_554
Rh0 Sn1 2.783163 1_554
Rh0 Sn14 2.783163 1_655
Rh0 Sn0 2.792445 1_655
Rh0 Sn6 2.792445 1_554
Rh0 Sn9 2.792454 1_554
Rh0 Sn15 2.792454 1_565
Rh1 Sn0 2.783158 1_555
Rh1 Sn6 2.783158 1_454
Rh1 Sn9 2.783161 1_544
Rh1 Sn15 2.783161 1_555
Rh1 Sn8 2.792445 1_454
Rh1 Sn7 2.792445 1_555
Rh1 Sn1 2.792450 1_555
Rh1 Sn14 2.792450 1_544
Rh2 Sn3 2.783158 1_555
Rh2 Sn12 2.783158 1_455
Rh2 Sn10 2.783163 1_455
Rh2 Sn5 2.783163 1_555
Rh2 Sn2 2.792445 1_455
Rh2 Sn4 2.792445 1_455
Rh2 Sn11 2.792454 1_555
Rh2 Sn13 2.792454 1_555
Rh3 Sn2 2.783158 1_545
Rh3 Sn4 2.783158 1_545
Rh3 Sn11 2.783161 1_555
Rh3 Sn13 2.783161 1_555
Rh3 Sn3 2.792445 1_544
Rh3 Sn12 2.792445 1_556
Rh3 Sn10 2.792450 1_556
Rh3 Sn5 2.792450 1_544
