# generated using pymatgen
data_Hf3Co2Si3
_symmetry_space_group_name_H-M   'P 1'
_cell_length_a   3.83501000
_cell_length_b   5.31201140
_cell_length_c   12.75175000
_cell_angle_alpha   90.00000000
_cell_angle_beta   90.00000000
_cell_angle_gamma   111.16010566
_symmetry_Int_Tables_number   1
_chemical_formula_structural   Hf3Co2Si3
_chemical_formula_sum   'Hf6 Co4 Si6'
_cell_volume   242.25861519
_cell_formula_units_Z   2
loop_
 _symmetry_equiv_pos_site_id
 _symmetry_equiv_pos_as_xyz
  1  'x, y, z'
loop_
 _atom_site_type_symbol
 _atom_site_label
 _atom_site_symmetry_multiplicity
 _atom_site_fract_x
 _atom_site_fract_y
 _atom_site_fract_z
 _atom_site_occupancy
  Hf  Hf0  1  0.07510700  0.15021300  0.38260200  1
  Hf  Hf1  1  0.92489300  0.84978700  0.61739800  1
  Hf  Hf2  1  0.07510700  0.15021300  0.11739800  1
  Hf  Hf3  1  0.92489300  0.84978700  0.88260200  1
  Hf  Hf4  1  0.36490600  0.72981100  0.25000000  1
  Hf  Hf5  1  0.63509400  0.27018900  0.75000000  1
  Co  Co0  1  0.21794500  0.43589100  0.91738000  1
  Co  Co1  1  0.78205500  0.56410900  0.08262000  1
  Co  Co2  1  0.21794500  0.43589100  0.58262000  1
  Co  Co3  1  0.78205500  0.56410900  0.41738000  1
  Si  Si0  1  0.38894800  0.77789500  0.45910100  1
  Si  Si1  1  0.61105200  0.22210500  0.54089900  1
  Si  Si2  1  0.38894800  0.77789500  0.04089900  1
  Si  Si3  1  0.61105200  0.22210500  0.95910100  1
  Si  Si4  1  0.66477600  0.32955200  0.25000000  1
  Si  Si5  1  0.33522400  0.67044800  0.75000000  1
loop_
_geom_bond_atom_site_label_1
_geom_bond_atom_site_label_2
_geom_bond_distance
_geom_bond_site_symmetry_2
Hf0 Si4 2.706524 1_555
Hf0 Si4 2.706527 1_455
Hf0 Si1 2.806822 1_555
Hf0 Si1 2.806827 1_455
Hf0 Si0 2.833771 1_445
Hf0 Si0 2.833771 1_545
Hf1 Si5 2.706524 1_555
Hf1 Si5 2.706527 1_655
Hf1 Si0 2.806822 1_555
Hf1 Si0 2.806827 1_655
Hf1 Si1 2.833771 1_665
Hf1 Si1 2.833771 1_565
Hf2 Si4 2.706524 1_555
Hf2 Si4 2.706527 1_455
Hf2 Si3 2.806822 1_554
Hf2 Si3 2.806827 1_454
Hf2 Si2 2.833771 1_445
Hf2 Si2 2.833771 1_545
Hf3 Si5 2.706524 1_555
Hf3 Si5 2.706527 1_655
Hf3 Si2 2.806822 1_556
Hf3 Si2 2.806827 1_656
Hf3 Si3 2.833771 1_665
Hf3 Si3 2.833771 1_565
Hf4 Si0 2.677022 1_555
Hf4 Si2 2.677022 1_555
Hf4 Si4 2.758334 1_555
Hf4 Si4 2.758337 1_455
Hf4 Si4 2.971028 1_565
Hf5 Si3 2.677022 1_555
Hf5 Si1 2.677022 1_555
Hf5 Si5 2.758334 1_555
Hf5 Si5 2.758337 1_655
Hf5 Si5 2.971028 1_545
Co0 Si3 2.254214 1_455
Co0 Si3 2.254214 1_555
Co0 Si2 2.313293 1_556
Co0 Si5 2.430178 1_555
Co0 Hf3 2.842104 1_555
Co0 Hf3 2.842104 1_455
Co0 Hf2 2.916893 1_556
Co0 Hf3 2.937146 1_445
Co0 Hf5 2.984335 1_455
Co0 Hf5 2.984335 1_555
Co1 Si2 2.254214 1_555
Co1 Si2 2.254214 1_655
Co1 Si3 2.313293 1_554
Co1 Si4 2.430178 1_555
Co1 Hf2 2.842104 1_555
Co1 Hf2 2.842104 1_655
Co1 Hf3 2.916893 1_554
Co1 Hf2 2.937146 1_665
Co1 Hf4 2.984335 1_555
Co1 Hf4 2.984335 1_655
Co2 Si1 2.254214 1_455
Co2 Si1 2.254214 1_555
Co2 Si0 2.313293 1_555
Co2 Si5 2.430178 1_555
Co2 Hf1 2.842104 1_555
Co2 Hf1 2.842104 1_455
Co2 Hf0 2.916893 1_555
Co2 Hf1 2.937146 1_445
Co2 Hf5 2.984335 1_455
Co2 Hf5 2.984335 1_555
Co3 Si0 2.254214 1_555
Co3 Si0 2.254214 1_655
Co3 Si1 2.313293 1_555
Co3 Si4 2.430178 1_555
Co3 Hf0 2.842104 1_555
Co3 Hf0 2.842104 1_655
Co3 Hf1 2.916893 1_555
Co3 Hf0 2.937146 1_665
Co3 Hf4 2.984335 1_555
Co3 Hf4 2.984335 1_655
Si0 Si1 2.435244 1_565
Si2 Si3 2.435244 1_564
