# generated using pymatgen
data_Sr2Ca2MnFe3O10
_symmetry_space_group_name_H-M   'P 1'
_cell_length_a   11.06062819
_cell_length_b   11.32639555
_cell_length_c   17.42469355
_cell_angle_alpha   109.03710079
_cell_angle_beta   108.65060827
_cell_angle_gamma   89.81061575
_symmetry_Int_Tables_number   1
_chemical_formula_structural   Sr2Ca2MnFe3O10
_chemical_formula_sum   'Sr16 Ca16 Mn8 Fe24 O80'
_cell_volume   1942.68981894
_cell_formula_units_Z   8
loop_
 _symmetry_equiv_pos_site_id
 _symmetry_equiv_pos_as_xyz
  1  'x, y, z'
loop_
 _atom_site_type_symbol
 _atom_site_label
 _atom_site_symmetry_multiplicity
 _atom_site_fract_x
 _atom_site_fract_y
 _atom_site_fract_z
 _atom_site_occupancy
  Sr  Sr0  1  0.30739400  0.55999300  0.61004100  1
  Sr  Sr1  1  0.80641800  0.06030700  0.60875400  1
  Sr  Sr2  1  0.80927200  0.55965700  0.60996300  1
  Sr  Sr3  1  0.19322700  0.43276600  0.38563600  1
  Sr  Sr4  1  0.19961800  0.44150100  0.89343300  1
  Sr  Sr5  1  0.69349500  0.43331000  0.38555800  1
  Sr  Sr6  1  0.69570900  0.93441900  0.38617400  1
  Sr  Sr7  1  0.70133100  0.93790400  0.89486700  1
  Sr  Sr8  1  0.05924300  0.29784700  0.60929100  1
  Sr  Sr9  1  0.05827100  0.80055400  0.60912400  1
  Sr  Sr10  1  0.55902400  0.30016800  0.61066300  1
  Sr  Sr11  1  0.55683700  0.79609900  0.60787400  1
  Sr  Sr12  1  0.44294200  0.19880500  0.38509200  1
  Sr  Sr13  1  0.44906700  0.20190800  0.89093700  1
  Sr  Sr14  1  0.94474600  0.20158900  0.38593900  1
  Sr  Sr15  1  0.94836500  0.20313100  0.89251300  1
  Ca  Ca0  1  0.30271300  0.06628100  0.10764700  1
  Ca  Ca1  1  0.30422800  0.06010100  0.60353400  1
  Ca  Ca2  1  0.30060700  0.56864600  0.10699100  1
  Ca  Ca3  1  0.80186700  0.06871400  0.10699600  1
  Ca  Ca4  1  0.80243900  0.56760400  0.10771300  1
  Ca  Ca5  1  0.19793200  0.93098100  0.39106500  1
  Ca  Ca6  1  0.20319100  0.93879700  0.89888000  1
  Ca  Ca7  1  0.70284000  0.43927100  0.89747200  1
  Ca  Ca8  1  0.05307700  0.28785800  0.10742800  1
  Ca  Ca9  1  0.05382600  0.78955400  0.10710900  1
  Ca  Ca10  1  0.55009300  0.28851500  0.10558500  1
  Ca  Ca11  1  0.55282800  0.78959600  0.10429200  1
  Ca  Ca12  1  0.44303000  0.70981100  0.39200800  1
  Ca  Ca13  1  0.45047200  0.70835300  0.89718200  1
  Ca  Ca14  1  0.94479900  0.71005600  0.39081700  1
  Ca  Ca15  1  0.95187200  0.70885000  0.89860500  1
  Mn  Mn0  1  0.11817500  0.09442300  0.75344300  1
  Mn  Mn1  1  0.11434800  0.60387800  0.75380000  1
  Mn  Mn2  1  0.61305400  0.59858500  0.75535800  1
  Mn  Mn3  1  0.36663800  0.40523700  0.75351000  1
  Mn  Mn4  1  0.35246300  0.89666000  0.24676600  1
  Mn  Mn5  1  0.35985100  0.89842700  0.75209800  1
  Mn  Mn6  1  0.86200900  0.41030300  0.75600200  1
  Mn  Mn7  1  0.86524600  0.90091100  0.75201000  1
  Fe  Fe0  1  0.00796100  0.00130600  0.00460800  1
  Fe  Fe1  1  0.00472400  0.99886500  0.49789200  1
  Fe  Fe2  1  0.00658000  0.50264600  0.00509600  1
  Fe  Fe3  1  0.00135200  0.49987100  0.49681700  1
  Fe  Fe4  1  0.50687000  0.00158400  0.00412500  1
  Fe  Fe5  1  0.50207100  0.00051000  0.49837700  1
  Fe  Fe6  1  0.50706000  0.50230500  0.00415000  1
  Fe  Fe7  1  0.50090500  0.49806400  0.49622900  1
  Fe  Fe8  1  0.25690300  0.25275800  0.00501600  1
  Fe  Fe9  1  0.25274400  0.24764400  0.49822800  1
  Fe  Fe10  1  0.25584400  0.75321200  0.00280100  1
  Fe  Fe11  1  0.25175000  0.74861900  0.49697600  1
  Fe  Fe12  1  0.75854100  0.25589700  0.00746300  1
  Fe  Fe13  1  0.75256700  0.24970300  0.49833400  1
  Fe  Fe14  1  0.75770400  0.75064700  0.00378500  1
  Fe  Fe15  1  0.75114700  0.74676400  0.49528300  1
  Fe  Fe16  1  0.10364800  0.08006500  0.24581100  1
  Fe  Fe17  1  0.10293900  0.59410800  0.24688100  1
  Fe  Fe18  1  0.60442800  0.08408400  0.24353200  1
  Fe  Fe19  1  0.60690000  0.09137000  0.75012300  1
  Fe  Fe20  1  0.60114500  0.59002200  0.24540600  1
  Fe  Fe21  1  0.35172500  0.41313400  0.24558900  1
  Fe  Fe22  1  0.85216000  0.41293100  0.24592100  1
  Fe  Fe23  1  0.85611500  0.90231000  0.24402400  1
  O  O0  1  0.12520900  0.11616500  0.48795100  1
  O  O1  1  0.12870300  0.12129600  0.99430300  1
  O  O2  1  0.11808700  0.62226200  0.48467100  1
  O  O3  1  0.12332100  0.62540500  0.99186000  1
  O  O4  1  0.62310500  0.12175000  0.48984700  1
  O  O5  1  0.62753700  0.12582500  0.99452500  1
  O  O6  1  0.61876000  0.62165200  0.48649400  1
  O  O7  1  0.62559900  0.62199200  0.99079800  1
  O  O8  1  0.13890400  0.38383900  0.02061900  1
  O  O9  1  0.13036200  0.37604500  0.50497500  1
  O  O10  1  0.13659700  0.88131000  0.01393200  1
  O  O11  1  0.13301700  0.87731600  0.50232600  1
  O  O12  1  0.63924700  0.38438200  0.01803100  1
  O  O13  1  0.63001300  0.37678700  0.50372700  1
  O  O14  1  0.63701200  0.87972500  0.01686900  1
  O  O15  1  0.62692900  0.87342000  0.50102700  1
  O  O16  1  0.37030300  0.11583300  0.49073200  1
  O  O17  1  0.37451100  0.11768400  0.99297400  1
  O  O18  1  0.37311800  0.62083400  0.48688800  1
  O  O19  1  0.37895900  0.62436000  0.99448200  1
  O  O20  1  0.87480200  0.11897000  0.49143800  1
  O  O21  1  0.87769100  0.12210700  0.99538900  1
  O  O22  1  0.87261000  0.61993000  0.48719100  1
  O  O23  1  0.87519100  0.61829400  0.99050500  1
  O  O24  1  0.38839900  0.38774000  0.01937900  1
  O  O25  1  0.37948100  0.37812600  0.50415100  1
  O  O26  1  0.38765400  0.88560800  0.01600400  1
  O  O27  1  0.38119900  0.88274300  0.50856300  1
  O  O28  1  0.88677700  0.38794400  0.01856000  1
  O  O29  1  0.87978300  0.37843800  0.50372400  1
  O  O30  1  0.88963000  0.88409800  0.01771500  1
  O  O31  1  0.88171100  0.87638200  0.50232300  1
  O  O32  1  0.09543900  0.10350000  0.14226600  1
  O  O33  1  0.08462500  0.08030900  0.63488900  1
  O  O34  1  0.08915800  0.60906100  0.14057800  1
  O  O35  1  0.07096900  0.58636900  0.63465400  1
  O  O36  1  0.59246700  0.10731200  0.13993400  1
  O  O37  1  0.58631100  0.09413300  0.63870500  1
  O  O38  1  0.58828100  0.61036700  0.14080200  1
  O  O39  1  0.57361400  0.58267000  0.63666000  1
  O  O40  1  0.43562500  0.40325500  0.35540300  1
  O  O41  1  0.44591200  0.41121500  0.86933700  1
  O  O42  1  0.43444900  0.90995400  0.36238400  1
  O  O43  1  0.44752500  0.90743000  0.86780100  1
  O  O44  1  0.93609700  0.40363800  0.35561400  1
  O  O45  1  0.94532100  0.41045100  0.86909100  1
  O  O46  1  0.94170200  0.89851200  0.35579500  1
  O  O47  1  0.94545800  0.90643400  0.86799100  1
  O  O48  1  0.34358800  0.28501500  0.14269800  1
  O  O49  1  0.32651700  0.29488700  0.63570800  1
  O  O50  1  0.32583600  0.78731300  0.13533100  1
  O  O51  1  0.31844900  0.79516600  0.63450700  1
  O  O52  1  0.84403300  0.28661000  0.14211200  1
  O  O53  1  0.82609800  0.30708500  0.63779600  1
  O  O54  1  0.84131500  0.77945500  0.13830400  1
  O  O55  1  0.82226800  0.79955200  0.63359300  1
  O  O56  1  0.18756300  0.19905800  0.35603300  1
  O  O57  1  0.19400000  0.20931500  0.86920100  1
  O  O58  1  0.19840300  0.70942600  0.35675500  1
  O  O59  1  0.20166200  0.71299500  0.86867800  1
  O  O60  1  0.68831900  0.19760500  0.35591500  1
  O  O61  1  0.69038300  0.21549600  0.86049300  1
  O  O62  1  0.69536100  0.70086500  0.35617500  1
  O  O63  1  0.70075000  0.70738000  0.86853800  1
  O  O64  1  0.43130800  0.04783900  0.23959400  1
  O  O65  1  0.43166600  0.05899200  0.74320700  1
  O  O66  1  0.42459700  0.57201900  0.24764400  1
  O  O67  1  0.44059700  0.57619300  0.75985700  1
  O  O68  1  0.92479200  0.05608600  0.23881000  1
  O  O69  1  0.94174100  0.05720700  0.75111400  1
  O  O70  1  0.92709500  0.57044100  0.24829600  1
  O  O71  1  0.94131100  0.57458400  0.76134800  1
  O  O72  1  0.17355500  0.43447400  0.23964100  1
  O  O73  1  0.19242200  0.44384100  0.75195400  1
  O  O74  1  0.17122100  0.92254600  0.24775300  1
  O  O75  1  0.19063300  0.93087500  0.76092400  1
  O  O76  1  0.67252900  0.43119000  0.23808900  1
  O  O77  1  0.68854100  0.43841300  0.76011100  1
  O  O78  1  0.67857100  0.92749900  0.23868700  1
  O  O79  1  0.68336100  0.93791300  0.75262200  1
loop_
_geom_bond_atom_site_label_1
_geom_bond_atom_site_label_2
_geom_bond_distance
_geom_bond_site_symmetry_2
Ca0 O48 2.357745 1_555
Ca0 O64 2.360609 1_555
Ca0 O10 2.511236 1_545
Ca0 O1 2.521282 1_554
Ca0 O26 2.536794 1_545
Ca0 O32 2.551423 1_555
Ca0 O17 2.595969 1_554
Ca1 O65 2.394967 1_555
Ca1 O27 2.493957 1_545
Ca1 O49 2.527885 1_555
Ca1 O11 2.547627 1_545
Ca1 O16 2.554828 1_555
Ca1 O0 2.579818 1_555
Ca1 O33 2.648433 1_555
Ca1 O37 2.981534 1_555
Ca2 O50 2.361013 1_555
Ca2 O66 2.382928 1_555
Ca2 O8 2.468478 1_555
Ca2 O24 2.523146 1_555
Ca2 O3 2.569028 1_554
Ca2 O34 2.591416 1_555
Ca2 O19 2.624852 1_554
Ca3 O68 2.315192 1_555
Ca3 O52 2.350057 1_555
Ca3 O14 2.524756 1_545
Ca3 O5 2.525655 1_554
Ca3 O36 2.562157 1_555
Ca3 O30 2.562266 1_545
Ca3 O21 2.581613 1_554
Ca4 O54 2.291833 1_555
Ca4 O70 2.385667 1_555
Ca4 O12 2.472203 1_555
Ca4 O28 2.505261 1_555
Ca4 O7 2.572473 1_554
Ca4 O38 2.619468 1_555
Ca4 O23 2.639563 1_554
Ca5 O58 2.382822 1_555
Ca5 O74 2.388502 1_555
Ca5 O11 2.511060 1_555
Ca5 O0 2.538464 1_565
Ca5 O16 2.563424 1_565
Ca5 O27 2.582088 1_555
Ca5 O46 2.700058 1_455
Ca5 O42 2.811494 1_555
Ca6 O75 2.334869 1_555
Ca6 O59 2.436129 1_555
Ca6 O17 2.501049 1_565
Ca6 O1 2.517722 1_565
Ca6 O10 2.604739 1_556
Ca6 O26 2.611796 1_556
Ca6 O47 2.728981 1_455
Ca6 O43 2.920123 1_555
Ca7 O77 2.344471 1_555
Ca7 O61 2.395477 1_555
Ca7 O23 2.505617 1_555
Ca7 O7 2.517706 1_555
Ca7 O28 2.641145 1_556
Ca7 O12 2.663480 1_556
Ca7 O41 2.725865 1_555
Ca7 O45 2.877744 1_555
Ca8 O72 2.322965 1_555
Ca8 O32 2.363636 1_555
Ca8 O21 2.511930 1_454
Ca8 O8 2.523686 1_555
Ca8 O28 2.525051 1_455
Ca8 O52 2.571198 1_455
Ca8 O1 2.600473 1_554
Ca9 O34 2.301923 1_555
Ca9 O74 2.351661 1_555
Ca9 O30 2.477343 1_455
Ca9 O10 2.571370 1_555
Ca9 O3 2.573413 1_554
Ca9 O23 2.584828 1_454
Ca9 O54 2.587070 1_455
Ca9 O50 2.890590 1_555
Ca10 O76 2.314467 1_555
Ca10 O36 2.325020 1_555
Ca10 O24 2.467326 1_555
Ca10 O17 2.544876 1_554
Ca10 O12 2.555154 1_555
Ca10 O5 2.568595 1_554
Ca10 O48 2.568816 1_555
Ca11 O38 2.314548 1_555
Ca11 O78 2.324443 1_555
Ca11 O14 2.481442 1_555
Ca11 O26 2.483455 1_555
Ca11 O19 2.489228 1_554
Ca11 O7 2.592562 1_554
Ca11 O50 2.733992 1_555
Ca12 O66 2.432698 1_555
Ca12 O42 2.478889 1_555
Ca12 O18 2.501314 1_555
Ca12 O15 2.537128 1_555
Ca12 O6 2.549205 1_555
Ca12 O58 2.575579 1_555
Ca12 O27 2.591006 1_555
Ca13 O67 2.340002 1_555
Ca13 O43 2.467651 1_555
Ca13 O19 2.513971 1_555
Ca13 O7 2.525309 1_555
Ca13 O59 2.639087 1_555
Ca13 O26 2.645627 1_556
Ca13 O14 2.647171 1_556
Ca13 O63 2.965173 1_555
Ca14 O46 2.401185 1_555
Ca14 O70 2.415641 1_555
Ca14 O31 2.506314 1_555
Ca14 O2 2.525943 1_655
Ca14 O22 2.545750 1_555
Ca14 O11 2.595343 1_655
Ca14 O62 2.623491 1_555
Ca15 O71 2.344386 1_555
Ca15 O47 2.459956 1_555
Ca15 O3 2.479710 1_655
Ca15 O23 2.506288 1_555
Ca15 O10 2.620681 1_656
Ca15 O30 2.634149 1_556
Ca15 O63 2.655847 1_555
Ca15 O59 2.974172 1_655
Mn0 O57 1.917863 1_555
Mn0 O33 1.930108 1_555
Mn0 O69 1.982724 1_455
Mn0 O75 2.042449 1_545
Mn1 O59 1.903826 1_555
Mn1 O35 1.916924 1_555
Mn1 O71 1.996010 1_455
Mn1 O73 2.000451 1_555
Mn2 O63 1.883523 1_555
Mn2 O39 1.918539 1_555
Mn2 O67 1.954679 1_555
Mn2 O77 2.009718 1_555
Mn3 O41 1.904239 1_555
Mn3 O49 1.928709 1_555
Mn3 O73 1.968186 1_555
Mn3 O67 2.060008 1_555
Mn4 O50 1.859772 1_555
Mn4 O42 1.881007 1_555
Mn4 O64 1.981747 1_565
Mn4 O74 2.029719 1_555
Mn5 O51 1.901584 1_555
Mn5 O43 1.905646 1_555
Mn5 O75 1.950514 1_555
Mn5 O65 2.057763 1_565
Mn6 O45 1.889083 1_555
Mn6 O53 1.917252 1_555
Mn6 O77 1.963854 1_555
Mn6 O71 2.021321 1_555
Mn7 O55 1.905890 1_555
Mn7 O47 1.909536 1_555
Mn7 O69 1.971380 1_565
Mn7 O79 2.056253 1_555
Fe0 O10 1.970120 1_545
Fe0 O30 1.981916 1_445
Fe0 O21 1.989044 1_454
Fe0 O1 1.996836 1_554
Fe0 O47 2.140800 1_444
Fe0 O32 2.177444 1_555
Fe1 O0 1.969912 1_565
Fe1 O11 1.975152 1_555
Fe1 O20 1.977816 1_465
Fe1 O31 1.982754 1_455
Fe1 O33 2.133052 1_565
Fe1 O46 2.230203 1_455
Fe2 O23 1.964863 1_454
Fe2 O28 1.976812 1_455
Fe2 O8 1.999315 1_555
Fe2 O3 2.016249 1_554
Fe2 O45 2.128139 1_454
Fe2 O34 2.152208 1_555
Fe3 O22 1.971852 1_455
Fe3 O29 1.984427 1_455
Fe3 O9 2.002610 1_555
Fe3 O2 2.002893 1_555
Fe3 O35 2.146705 1_555
Fe3 O44 2.209646 1_455
Fe4 O26 1.967351 1_545
Fe4 O17 1.970331 1_554
Fe4 O14 2.002178 1_545
Fe4 O5 2.024418 1_554
Fe4 O43 2.136698 1_544
Fe4 O36 2.157830 1_555
Fe5 O16 1.955700 1_555
Fe5 O27 1.978909 1_545
Fe5 O15 1.992693 1_545
Fe5 O4 1.993118 1_555
Fe5 O42 2.124275 1_545
Fe5 O37 2.197579 1_555
Fe6 O19 1.983276 1_554
Fe6 O24 1.983788 1_555
Fe6 O12 1.987901 1_555
Fe6 O7 2.005857 1_554
Fe6 O41 2.108893 1_554
Fe6 O38 2.170882 1_555
Fe7 O25 1.980193 1_555
Fe7 O13 1.981903 1_555
Fe7 O18 1.986285 1_555
Fe7 O6 1.998967 1_555
Fe7 O39 2.183907 1_555
Fe7 O40 2.201992 1_555
Fe8 O1 1.981394 1_554
Fe8 O8 1.983026 1_555
Fe8 O17 2.007176 1_554
Fe8 O24 2.011886 1_555
Fe8 O57 2.125132 1_554
Fe8 O48 2.183485 1_555
Fe9 O16 1.976168 1_555
Fe9 O0 1.979376 1_555
Fe9 O9 1.984538 1_555
Fe9 O25 1.995367 1_555
Fe9 O49 2.146447 1_555
Fe9 O56 2.220868 1_555
Fe10 O10 1.962067 1_555
Fe10 O3 1.983851 1_554
Fe10 O19 1.995082 1_554
Fe10 O26 2.000497 1_555
Fe10 O50 2.087586 1_555
Fe10 O59 2.107128 1_554
Fe11 O11 1.958356 1_555
Fe11 O2 1.972546 1_555
Fe11 O18 1.974808 1_555
Fe11 O27 2.006980 1_555
Fe11 O51 2.147722 1_555
Fe11 O58 2.210669 1_555
Fe12 O12 1.964843 1_555
Fe12 O5 1.977209 1_554
Fe12 O28 1.983931 1_555
Fe12 O21 2.008362 1_554
Fe12 O52 2.137908 1_555
Fe12 O61 2.310621 1_554
Fe13 O13 1.974460 1_555
Fe13 O4 1.977644 1_555
Fe13 O29 1.988590 1_555
Fe13 O20 2.002374 1_555
Fe13 O53 2.167545 1_555
Fe13 O60 2.220615 1_555
Fe14 O7 1.974109 1_554
Fe14 O14 1.983870 1_555
Fe14 O23 1.985597 1_554
Fe14 O30 2.005376 1_555
Fe14 O63 2.118928 1_554
Fe14 O54 2.138330 1_555
Fe15 O22 1.965898 1_555
Fe15 O6 1.975950 1_555
Fe15 O15 1.984164 1_555
Fe15 O31 2.009748 1_555
Fe15 O55 2.152901 1_555
Fe15 O62 2.179410 1_555
Fe16 O32 1.881878 1_555
Fe16 O56 1.883104 1_555
Fe16 O74 1.938360 1_545
Fe16 O68 1.956973 1_455
Fe17 O34 1.872651 1_555
Fe17 O58 1.889747 1_555
Fe17 O72 1.949358 1_555
Fe17 O70 1.973248 1_455
Fe18 O36 1.871410 1_555
Fe18 O60 1.884698 1_555
Fe18 O64 1.934565 1_555
Fe18 O78 1.939610 1_545
Fe19 O37 1.891767 1_555
Fe19 O61 1.907011 1_555
Fe19 O65 1.931865 1_555
Fe19 O79 1.937592 1_545
Fe20 O38 1.871755 1_555
Fe20 O62 1.878531 1_555
Fe20 O76 1.944580 1_555
Fe20 O66 1.978076 1_555
Fe21 O48 1.878459 1_555
Fe21 O40 1.881048 1_555
Fe21 O72 1.958385 1_555
Fe21 O66 1.959226 1_555
Fe22 O44 1.876688 1_555
Fe22 O52 1.880318 1_555
Fe22 O70 1.952197 1_555
Fe22 O76 1.962439 1_555
Fe23 O54 1.868948 1_555
Fe23 O46 1.888447 1_555
Fe23 O68 1.942934 1_565
Fe23 O78 1.960396 1_555
O0 Sr14 2.630554 1_455
O0 Sr8 2.715815 1_555
O1 Sr15 2.604059 1_455
O2 Sr3 2.600872 1_555
O2 Sr9 2.696357 1_555
O2 Sr0 2.779140 1_555
O3 Sr4 2.564356 1_555
O4 Sr12 2.601107 1_555
O4 Sr6 2.612720 1_545
O4 Sr1 2.670688 1_555
O4 Sr10 2.680952 1_555
O5 Sr13 2.573287 1_555
O5 Sr7 2.587641 1_545
O6 Sr5 2.607281 1_555
O6 Sr11 2.652874 1_555
O6 Sr2 2.763698 1_555
O8 Sr15 2.766340 1_454
O8 Sr4 2.772712 1_554
O9 Sr8 2.583899 1_555
O9 Sr0 2.602393 1_555
O9 Sr3 2.649443 1_555
O9 Sr14 2.655382 1_455
O11 Sr9 2.635659 1_555
O12 Sr13 2.768402 1_554
O13 Sr2 2.612732 1_555
O13 Sr10 2.614719 1_555
O13 Sr5 2.632532 1_555
O13 Sr12 2.681731 1_555
O14 Sr7 2.709944 1_554
O15 Sr11 2.612571 1_555
O15 Sr6 2.634472 1_555
O15 Sr1 2.645314 1_565
O16 Sr12 2.645075 1_555
O16 Sr10 2.734203 1_555
O17 Sr13 2.607801 1_555
O18 Sr3 2.634428 1_555
O18 Sr11 2.659110 1_555
O18 Sr0 2.752084 1_555
O19 Sr4 2.595935 1_555
O20 Sr6 2.619135 1_545
O20 Sr14 2.624892 1_555
O20 Sr1 2.659063 1_555
O20 Sr8 2.667827 1_655
O21 Sr15 2.576966 1_555
O21 Sr7 2.585254 1_545
O22 Sr5 2.621194 1_555
O22 Sr9 2.705200 1_655
O22 Sr2 2.729049 1_555
O24 Sr4 2.734838 1_554
O24 Sr13 2.787032 1_554
O25 Sr0 2.594985 1_555
O25 Sr10 2.620682 1_555
O25 Sr3 2.644969 1_555
O25 Sr12 2.663624 1_555
O27 Sr11 2.583922 1_555
O28 Sr15 2.760060 1_554
O29 Sr2 2.584990 1_555
O29 Sr8 2.627726 1_655
O29 Sr5 2.642754 1_555
O29 Sr14 2.644348 1_555
O30 Sr7 2.698588 1_554
O31 Sr9 2.592625 1_655
O31 Sr1 2.632221 1_565
O31 Sr6 2.637515 1_555
O33 Sr8 2.642150 1_555
O33 Sr1 2.961175 1_455
O33 Sr9 3.053038 1_545
O35 Sr9 2.600890 1_555
O35 Sr0 2.782088 1_555
O35 Sr2 2.789146 1_455
O35 Sr8 3.148870 1_555
O37 Sr10 2.533886 1_555
O37 Sr1 2.649920 1_555
O39 Sr11 2.618829 1_555
O39 Sr2 2.787516 1_555
O39 Sr0 2.829362 1_555
O39 Sr10 3.079060 1_555
O40 Sr12 2.527851 1_555
O40 Sr5 2.730977 1_555
O40 Sr3 2.891360 1_555
O41 Sr13 2.517180 1_555
O41 Sr4 2.889024 1_555
O42 Sr6 2.786251 1_555
O42 Sr12 3.162718 1_565
O43 Sr7 2.697343 1_555
O44 Sr14 2.506117 1_555
O44 Sr3 2.722681 1_655
O44 Sr5 2.891465 1_555
O45 Sr15 2.509494 1_555
O45 Sr4 2.713111 1_655
O46 Sr6 2.936322 1_555
O47 Sr7 2.886339 1_555
O49 Sr10 2.746521 1_555
O49 Sr8 2.844522 1_555
O49 Sr0 3.173690 1_555
O51 Sr0 2.553393 1_555
O51 Sr9 2.771834 1_555
O51 Sr11 2.820245 1_555
O53 Sr1 2.669628 1_555
O53 Sr8 2.773269 1_655
O53 Sr10 2.835476 1_555
O53 Sr2 3.049173 1_555
O55 Sr2 2.609207 1_555
O55 Sr9 2.776867 1_655
O55 Sr11 2.822996 1_555
O55 Sr1 3.118118 1_565
O56 Sr3 2.523223 1_555
O56 Sr12 2.705766 1_555
O56 Sr14 2.893143 1_455
O57 Sr4 2.521520 1_555
O57 Sr13 2.728628 1_555
O57 Sr15 2.876979 1_455
O60 Sr5 2.545551 1_555
O60 Sr14 2.712273 1_555
O60 Sr12 2.915878 1_555
O60 Sr6 3.188555 1_545
O61 Sr15 2.739182 1_555
O61 Sr13 2.896687 1_555
O62 Sr6 2.523433 1_555
O63 Sr7 2.498931 1_555
O64 Sr12 2.516474 1_555
O65 Sr13 2.500092 1_555
O67 Sr0 2.499680 1_555
O68 Sr14 2.494279 1_555
O69 Sr15 2.456902 1_555
O69 Sr1 2.465069 1_555
O71 Sr2 2.523167 1_555
O72 Sr3 2.489435 1_555
O73 Sr4 2.449796 1_555
O73 Sr8 2.464989 1_555
O75 Sr9 2.511771 1_555
O76 Sr5 2.497173 1_555
O77 Sr10 2.500811 1_555
O78 Sr6 2.490715 1_555
O79 Sr7 2.422378 1_555
O79 Sr11 2.452412 1_555
