# generated using pymatgen
data_MnSiO3
_symmetry_space_group_name_H-M   'P 1'
_cell_length_a   5.34225744
_cell_length_b   6.77590232
_cell_length_c   6.77589802
_cell_angle_alpha   86.51072540
_cell_angle_beta   76.02439795
_cell_angle_gamma   76.02474177
_symmetry_Int_Tables_number   1
_chemical_formula_structural   MnSiO3
_chemical_formula_sum   'Mn4 Si4 O12'
_cell_volume   230.97142547
_cell_formula_units_Z   4
loop_
 _symmetry_equiv_pos_site_id
 _symmetry_equiv_pos_as_xyz
  1  'x, y, z'
loop_
 _atom_site_type_symbol
 _atom_site_label
 _atom_site_symmetry_multiplicity
 _atom_site_fract_x
 _atom_site_fract_y
 _atom_site_fract_z
 _atom_site_occupancy
  Mn  Mn0  1  0.74999942  0.25149261  0.24850890  1
  Mn  Mn1  1  0.75000206  0.89577717  0.60422319  1
  Mn  Mn2  1  0.24999844  0.74850582  0.75149322  1
  Mn  Mn3  1  0.24999752  0.10422122  0.39578234  1
  Si  Si0  1  0.23188643  0.21498376  0.88443482  1
  Si  Si1  1  0.26811382  0.61556519  0.28501565  1
  Si  Si2  1  0.76811341  0.78502201  0.11556262  1
  Si  Si3  1  0.73188050  0.38443626  0.71498883  1
  O  O0  1  0.96916977  0.37481875  0.83300720  1
  O  O1  1  0.53082970  0.66699601  0.12517307  1
  O  O2  1  0.03082899  0.62517918  0.16699534  1
  O  O3  1  0.46916900  0.33300208  0.87481780  1
  O  O4  1  0.13641664  0.13684825  0.11307739  1
  O  O5  1  0.36358543  0.38692277  0.36315217  1
  O  O6  1  0.86357944  0.86316157  0.88692430  1
  O  O7  1  0.63642386  0.61307740  0.63684361  1
  O  O8  1  0.34024536  0.03808827  0.71195470  1
  O  O9  1  0.15975890  0.78804513  0.46190699  1
  O  O10  1  0.65976502  0.96190692  0.28804715  1
  O  O11  1  0.84023732  0.21195366  0.53809371  1
loop_
_geom_bond_atom_site_label_1
_geom_bond_atom_site_label_2
_geom_bond_distance
_geom_bond_site_symmetry_2
Mn0 O5 2.025881 1_555
Mn0 O4 2.025898 1_655
Mn0 O10 2.117758 1_545
Mn0 O11 2.117762 1_555
Mn1 O7 2.128710 1_555
Mn1 O6 2.128720 1_555
Mn1 O8 2.132803 1_565
Mn1 O9 2.132810 1_655
Mn1 O11 2.302304 1_565
Mn1 O10 2.302306 1_555
Mn2 O6 2.025918 1_455
Mn2 O7 2.025936 1_555
Mn2 O8 2.117765 1_565
Mn2 O9 2.117775 1_555
Mn3 O5 2.128745 1_555
Mn3 O4 2.128752 1_555
Mn3 O11 2.132818 1_455
Mn3 O10 2.132859 1_545
Mn3 O9 2.302305 1_545
Mn3 O8 2.302306 1_555
O0 Si3 1.641371 1_555
O0 Si0 1.649333 1_655
O1 Si2 1.641385 1_555
O1 Si1 1.649353 1_555
O2 Si1 1.641363 1_555
O2 Si2 1.649365 1_455
O3 Si0 1.641337 1_555
O3 Si3 1.649304 1_555
O4 Si0 1.609209 1_554
O5 Si1 1.609217 1_555
O6 Si2 1.609190 1_556
O7 Si3 1.609217 1_555
O8 Si0 1.626739 1_555
O9 Si1 1.626719 1_555
O10 Si2 1.626709 1_555
O11 Si3 1.626749 1_555
