# generated using pymatgen
data_V4ZnO9
_symmetry_space_group_name_H-M   'P 1'
_cell_length_a   4.99039300
_cell_length_b   8.33691300
_cell_length_c   8.33691300
_cell_angle_alpha   90.00000000
_cell_angle_beta   90.00000000
_cell_angle_gamma   90.00000000
_symmetry_Int_Tables_number   1
_chemical_formula_structural   V4ZnO9
_chemical_formula_sum   'V8 Zn2 O18'
_cell_volume   346.85286578
_cell_formula_units_Z   2
loop_
 _symmetry_equiv_pos_site_id
 _symmetry_equiv_pos_as_xyz
  1  'x, y, z'
loop_
 _atom_site_type_symbol
 _atom_site_label
 _atom_site_symmetry_multiplicity
 _atom_site_fract_x
 _atom_site_fract_y
 _atom_site_fract_z
 _atom_site_occupancy
  V  V0  1  0.63013700  0.53173000  0.33963300  1
  V  V1  1  0.36986400  0.83963200  0.46827100  1
  V  V2  1  0.63013700  0.33963200  0.96827100  1
  V  V3  1  0.36986400  0.03172900  0.83963200  1
  V  V4  1  0.63013700  0.96827100  0.16036700  1
  V  V5  1  0.63013700  0.16036800  0.53173000  1
  V  V6  1  0.36986400  0.46827100  0.66036700  1
  V  V7  1  0.36986400  0.66036700  0.03172900  1
  Zn  Zn0  1  0.14100400  0.25000000  0.25000000  1
  Zn  Zn1  1  0.85899700  0.75000000  0.74999900  1
  O  O0  1  0.49999900  0.75000000  0.25000000  1
  O  O1  1  0.49999900  0.25000100  0.75000000  1
  O  O2  1  0.05090500  0.68572500  0.97981700  1
  O  O3  1  0.05090500  0.52018400  0.68572400  1
  O  O4  1  0.05090500  0.97981700  0.81427600  1
  O  O5  1  0.05090500  0.81427600  0.52018300  1
  O  O6  1  0.94909600  0.31427600  0.02018300  1
  O  O7  1  0.94909600  0.47981600  0.31427600  1
  O  O8  1  0.94909600  0.02018300  0.18572400  1
  O  O9  1  0.94909600  0.18572400  0.47981600  1
  O  O10  1  0.45017800  0.04543500  0.35658400  1
  O  O11  1  0.45017800  0.14341500  0.04543600  1
  O  O12  1  0.45017800  0.35658400  0.45456500  1
  O  O13  1  0.45017800  0.45456500  0.14341600  1
  O  O14  1  0.54982100  0.54543500  0.85658400  1
  O  O15  1  0.54982100  0.85658400  0.95456500  1
  O  O16  1  0.54982100  0.64341600  0.54543500  1
  O  O17  1  0.54982100  0.95456400  0.64341600  1
loop_
_geom_bond_atom_site_label_1
_geom_bond_atom_site_label_2
_geom_bond_distance
_geom_bond_site_symmetry_2
O0 V1 2.071587 1_555
O0 V0 2.071587 1_555
O0 V7 2.071590 1_555
O0 V4 2.071595 1_555
O1 V6 2.071583 1_555
O1 V5 2.071587 1_555
O1 V2 2.071589 1_555
O1 V3 2.071594 1_555
O2 V7 1.663010 1_556
O2 Zn1 2.208002 1_455
O3 V6 1.663011 1_555
O3 Zn1 2.207988 1_455
O4 V3 1.663008 1_565
O4 Zn1 2.207999 1_455
O5 V1 1.663008 1_555
O5 Zn1 2.207990 1_455
O6 V2 1.663008 1_554
O6 Zn0 2.207997 1_655
O7 V0 1.663014 1_555
O7 Zn0 2.207990 1_655
O8 V4 1.663009 1_545
O8 Zn0 2.207997 1_655
O9 V5 1.663013 1_555
O9 Zn0 2.207990 1_655
O10 V5 1.963864 1_555
O10 V4 1.973919 1_545
O10 V1 1.992855 1_545
O10 Zn0 2.465491 1_555
O11 V4 1.963843 1_545
O11 V2 1.973922 1_554
O11 V3 1.992858 1_554
O11 Zn0 2.465488 1_555
O12 V0 1.963860 1_555
O12 V5 1.973915 1_555
O12 V6 1.992848 1_555
O12 Zn0 2.465491 1_555
O13 V2 1.963858 1_554
O13 V0 1.973922 1_555
O13 V7 1.992848 1_555
O13 Zn0 2.465491 1_555
O14 V7 1.963849 1_556
O14 V6 1.973914 1_555
O14 V2 1.992857 1_555
O14 Zn1 2.465500 1_555
O15 V3 1.963853 1_565
O15 V7 1.973914 1_556
O15 V4 1.992850 1_556
O15 Zn1 2.465503 1_555
O16 V6 1.963849 1_555
O16 V1 1.973907 1_555
O16 V0 1.992846 1_555
O16 Zn1 2.465491 1_555
O17 V1 1.963849 1_555
O17 V3 1.973910 1_565
O17 V5 1.992860 1_565
O17 Zn1 2.465488 1_555
