# generated using pymatgen
data_FeSi(AgS2)2
_symmetry_space_group_name_H-M   'P 1'
_cell_length_a   6.63860300
_cell_length_b   6.44624000
_cell_length_c   10.13631775
_cell_angle_alpha   50.96997942
_cell_angle_beta   90.00000000
_cell_angle_gamma   90.00000000
_symmetry_Int_Tables_number   1
_chemical_formula_structural   FeSi(AgS2)2
_chemical_formula_sum   'Fe2 Si2 Ag4 S8'
_cell_volume   336.96253174
_cell_formula_units_Z   2
loop_
 _symmetry_equiv_pos_site_id
 _symmetry_equiv_pos_as_xyz
  1  'x, y, z'
loop_
 _atom_site_type_symbol
 _atom_site_label
 _atom_site_symmetry_multiplicity
 _atom_site_fract_x
 _atom_site_fract_y
 _atom_site_fract_z
 _atom_site_occupancy
  Fe  Fe0  1  0.68369700  0.60090800  0.68016600  1
  Fe  Fe1  1  0.31630300  0.60090800  0.18016600  1
  Si  Si0  1  0.18597400  0.35587700  0.92630200  1
  Si  Si1  1  0.81402600  0.35587700  0.42630200  1
  Ag  Ag0  1  0.67997500  0.09259100  0.17309200  1
  Ag  Ag1  1  0.32002500  0.09259100  0.67309200  1
  Ag  Ag2  1  0.85107100  0.85862400  0.91974500  1
  Ag  Ag3  1  0.14892900  0.85862400  0.41974500  1
  S  S0  1  0.87529100  0.47017900  0.91152400  1
  S  S1  1  0.12470900  0.47017900  0.41152400  1
  S  S2  1  0.31827500  0.26926700  0.14969600  1
  S  S3  1  0.68172500  0.26926700  0.64969600  1
  S  S4  1  0.80023000  0.00413100  0.44361200  1
  S  S5  1  0.19977000  0.00413100  0.94361200  1
  S  S6  1  0.65598600  0.67520300  0.19926300  1
  S  S7  1  0.34401400  0.67520300  0.69926300  1
loop_
_geom_bond_atom_site_label_1
_geom_bond_atom_site_label_2
_geom_bond_distance
_geom_bond_site_symmetry_2
Fe0 S4 2.292275 1_565
Fe0 S0 2.310521 1_555
Fe0 S7 2.338529 1_555
Fe0 S3 2.344675 1_555
Fe1 S5 2.292275 1_564
Fe1 S1 2.310521 1_555
Fe1 S6 2.338529 1_555
Fe1 S2 2.344675 1_555
Ag0 S6 2.536934 1_545
Ag0 S0 2.550981 1_554
Ag0 S4 2.551893 1_555
Ag0 S2 2.603620 1_555
Ag1 S7 2.536934 1_545
Ag1 S1 2.550981 1_555
Ag1 S5 2.551893 1_555
Ag1 S3 2.603620 1_555
Ag2 S0 2.562354 1_555
Ag2 S5 2.565688 1_665
Ag2 S3 2.576420 1_565
Ag2 S6 2.623659 1_556
Ag3 S1 2.562354 1_555
Ag3 S4 2.565688 1_465
Ag3 S2 2.576420 1_565
Ag3 S7 2.623659 1_555
S0 Si0 2.163387 1_655
S1 Si1 2.163387 1_455
S2 Si0 2.149033 1_554
S3 Si1 2.149033 1_555
S4 Si1 2.163189 1_555
S5 Si0 2.163189 1_555
S6 Si1 2.160520 1_555
S7 Si0 2.160520 1_555
