# generated using pymatgen
data_Sr(PPt3)2
_symmetry_space_group_name_H-M   'P 1'
_cell_length_a   8.51940099
_cell_length_b   8.51943407
_cell_length_c   8.51942157
_cell_angle_alpha   89.99997404
_cell_angle_beta   90.00016591
_cell_angle_gamma   89.99986428
_symmetry_Int_Tables_number   1
_chemical_formula_structural   Sr(PPt3)2
_chemical_formula_sum   'Sr4 P8 Pt24'
_cell_volume   618.34366470
_cell_formula_units_Z   4
loop_
 _symmetry_equiv_pos_site_id
 _symmetry_equiv_pos_as_xyz
  1  'x, y, z'
loop_
 _atom_site_type_symbol
 _atom_site_label
 _atom_site_symmetry_multiplicity
 _atom_site_fract_x
 _atom_site_fract_y
 _atom_site_fract_z
 _atom_site_occupancy
  Sr  Sr0  1  0.49998094  0.49999933  0.00001920  1
  Sr  Sr1  1  0.49998364  -0.00000176  0.49997850  1
  Sr  Sr2  1  0.00001895  0.49999649  0.49998174  1
  Sr  Sr3  1  0.00001690  -0.00000289  0.00001725  1
  P  P0  1  0.80515703  0.30515412  0.19484856  1
  P  P1  1  0.19485061  0.80515846  0.30515060  1
  P  P2  1  0.69484435  0.69484558  0.69484408  1
  P  P3  1  0.30515120  0.19484368  0.80515750  1
  P  P4  1  0.19485028  0.69484912  0.80514934  1
  P  P5  1  0.80514785  0.19485062  0.69485097  1
  P  P6  1  0.30515019  0.30515505  0.30515164  1
  P  P7  1  0.69484904  0.80514956  0.19485718  1
  Pt  Pt0  1  0.42259802  0.84223659  0.15647157  1
  Pt  Pt1  1  0.57738656  0.34223203  0.34352566  1
  Pt  Pt2  1  0.07739835  0.15776586  0.65646925  1
  Pt  Pt3  1  0.92261215  0.65776040  0.84353139  1
  Pt  Pt4  1  0.15647062  0.42260733  0.84223672  1
  Pt  Pt5  1  0.34352585  0.57739689  0.34223250  1
  Pt  Pt6  1  0.65647213  0.07739151  0.15776612  1
  Pt  Pt7  1  0.84352976  0.92260289  0.65776587  1
  Pt  Pt8  1  0.84223773  0.15646524  0.42259507  1
  Pt  Pt9  1  0.34223217  0.34352930  0.57738962  1
  Pt  Pt10  1  0.15776624  0.65647212  0.07740090  1
  Pt  Pt11  1  0.65776319  0.84352918  0.92262608  1
  Pt  Pt12  1  0.57737580  0.15775809  0.84352452  1
  Pt  Pt13  1  0.42259947  0.65776440  0.65647219  1
  Pt  Pt14  1  0.92262784  0.84223894  0.34352167  1
  Pt  Pt15  1  0.07740039  0.34224015  0.15647481  1
  Pt  Pt16  1  0.84352782  0.57739410  0.15776447  1
  Pt  Pt17  1  0.65647699  0.42261909  0.65776064  1
  Pt  Pt18  1  0.34352339  0.92260350  0.84223951  1
  Pt  Pt19  1  0.15647697  0.07739895  0.34222986  1
  Pt  Pt20  1  0.15776240  0.84352887  0.57738106  1
  Pt  Pt21  1  0.65776384  0.65647084  0.42259672  1
  Pt  Pt22  1  0.84223827  0.34352260  0.92261575  1
  Pt  Pt23  1  0.34223308  0.15647376  0.07740149  1
loop_
_geom_bond_atom_site_label_1
_geom_bond_atom_site_label_2
_geom_bond_distance
_geom_bond_site_symmetry_2
P0 Pt8 2.338605 1_555
P0 Pt6 2.338706 1_555
P0 Pt1 2.338716 1_555
P0 Pt22 2.363397 1_554
P0 Pt16 2.363466 1_555
P0 Pt15 2.363493 1_655
P0 Sr2 3.502724 1_655
P0 Sr3 3.502824 1_655
P0 Sr0 3.502866 1_555
P1 Pt0 2.338564 1_555
P1 Pt10 2.338622 1_555
P1 Pt5 2.338648 1_555
P1 Pt14 2.363310 1_455
P1 Pt20 2.363388 1_555
P1 Pt19 2.363467 1_565
P1 Sr1 3.502573 1_565
P1 Sr3 3.502591 1_565
P1 Sr2 3.502746 1_555
P2 Pt7 2.338667 1_555
P2 Pt3 2.338747 1_555
P2 Pt11 2.338835 1_555
P2 Pt17 2.363349 1_555
P2 Pt13 2.363496 1_555
P2 Pt21 2.363524 1_555
P2 Sr1 3.502933 1_565
P2 Sr2 3.503014 1_655
P2 Sr0 3.503016 1_556
P3 Pt2 2.338638 1_555
P3 Pt4 2.338686 1_555
P3 Pt9 2.338744 1_555
P3 Pt12 2.363324 1_555
P3 Pt18 2.363466 1_545
P3 Pt23 2.363491 1_556
P3 Sr3 3.502743 1_556
P3 Sr0 3.502818 1_556
P3 Sr1 3.502910 1_555
P4 Pt13 2.338574 1_555
P4 Pt18 2.338602 1_555
P4 Pt20 2.338725 1_555
P4 Pt3 2.363462 1_455
P4 Pt4 2.363496 1_555
P4 Pt10 2.363567 1_556
P4 Sr0 3.502761 1_556
P4 Sr3 3.502808 1_566
P4 Sr2 3.502859 1_555
P5 Pt22 2.338669 1_555
P5 Pt17 2.338687 1_555
P5 Pt12 2.338729 1_555
P5 Pt7 2.363544 1_545
P5 Pt2 2.363559 1_655
P5 Pt8 2.363620 1_555
P5 Sr2 3.502957 1_655
P5 Sr1 3.503001 1_555
P5 Sr3 3.503002 1_656
P6 Pt15 2.338571 1_555
P6 Pt23 2.338601 1_555
P6 Pt19 2.338602 1_555
P6 Pt1 2.363422 1_555
P6 Pt9 2.363447 1_555
P6 Pt5 2.363484 1_555
P6 Sr2 3.502578 1_555
P6 Sr0 3.502607 1_555
P6 Sr1 3.502693 1_555
P7 Pt21 2.338516 1_555
P7 Pt16 2.338635 1_555
P7 Pt14 2.338725 1_555
P7 Pt11 2.363399 1_554
P7 Pt6 2.363496 1_565
P7 Pt0 2.363568 1_555
P7 Sr1 3.502692 1_565
P7 Sr0 3.502843 1_555
P7 Sr3 3.502880 1_665
Pt0 Pt11 2.825420 1_554
Pt0 Pt6 2.825531 1_565
Pt0 Pt10 2.837062 1_555
Pt0 Pt5 2.837107 1_555
Pt0 Pt18 2.844176 1_554
Pt0 Pt23 2.844207 1_565
Pt0 Sr0 3.272967 1_555
Pt0 Sr1 3.287153 1_565
Pt1 Pt9 2.825466 1_555
Pt1 Pt5 2.825504 1_555
Pt1 Pt6 2.837132 1_555
Pt1 Pt8 2.837195 1_555
Pt1 Pt21 2.844251 1_555
Pt1 Pt17 2.844274 1_555
Pt1 Sr1 3.272979 1_555
Pt1 Sr0 3.287201 1_555
Pt2 Pt7 2.825547 1_445
Pt2 Pt8 2.825557 1_455
Pt2 Pt9 2.837091 1_555
Pt2 Pt4 2.837149 1_555
Pt2 Pt20 2.844242 1_545
Pt2 Sr2 3.273030 1_555
Pt2 Sr3 3.287485 1_556
Pt3 Pt4 2.825419 1_655
Pt3 Pt7 2.837164 1_555
Pt3 Sr3 3.273118 1_666
Pt3 Sr2 3.287523 1_655
Pt4 Pt9 2.837169 1_555
Pt4 Sr2 3.273101 1_555
Pt4 Sr0 3.287254 1_556
Pt5 Pt9 2.825505 1_555
Pt5 Sr0 3.272819 1_555
Pt5 Sr2 3.287134 1_555
Pt6 Pt8 2.837051 1_555
Pt6 Sr1 3.272921 1_555
Pt6 Sr3 3.287407 1_655
Pt7 Pt8 2.825556 1_565
Pt7 Sr3 3.273208 1_666
Pt7 Sr1 3.287546 1_565
Pt8 Sr1 3.273142 1_555
Pt8 Sr2 3.287412 1_655
Pt9 Sr2 3.272866 1_555
Pt9 Sr1 3.287345 1_555
Pt10 Pt3 2.825489 1_454
Pt10 Pt4 2.825532 1_554
Pt10 Pt5 2.837041 1_555
Pt10 Pt15 2.844179 1_555
Pt10 Pt16 2.844227 1_455
Pt10 Sr0 3.272855 1_555
Pt10 Sr3 3.287243 1_565
Pt11 Pt6 2.825371 1_566
Pt11 Pt3 2.837244 1_555
Pt11 Pt7 2.837274 1_555
Pt11 Pt12 2.844250 1_565
Pt11 Pt18 2.844271 1_555
Pt11 Sr3 3.273153 1_666
Pt11 Sr0 3.287418 1_556
Pt12 Pt18 2.825398 1_545
Pt12 Pt23 2.825473 1_556
Pt12 Pt22 2.837311 1_555
Pt12 Pt17 2.837324 1_555
Pt12 Pt6 2.844295 1_556
Pt12 Sr0 3.273165 1_556
Pt12 Sr1 3.287455 1_555
Pt13 Pt17 2.825487 1_555
Pt13 Pt21 2.825595 1_555
Pt13 Pt20 2.837133 1_555
Pt13 Pt18 2.837140 1_555
Pt13 Pt9 2.844224 1_555
Pt13 Pt5 2.844237 1_555
Pt13 Sr1 3.273089 1_565
Pt13 Sr0 3.287460 1_556
Pt14 Pt20 2.825310 1_655
Pt14 Pt19 2.825412 1_665
Pt14 Pt16 2.837179 1_555
Pt14 Pt21 2.837309 1_555
Pt14 Pt8 2.844180 1_565
Pt14 Pt7 2.844319 1_555
Pt14 Sr2 3.273045 1_655
Pt14 Sr3 3.287130 1_665
Pt15 Pt22 2.825474 1_454
Pt15 Pt16 2.825509 1_455
Pt15 Pt23 2.837079 1_555
Pt15 Pt19 2.837093 1_555
Pt15 Pt4 2.844220 1_554
Pt15 Sr3 3.273031 1_555
Pt15 Sr2 3.287130 1_555
Pt16 Pt22 2.825478 1_554
Pt16 Pt21 2.837077 1_555
Pt16 Pt3 2.844207 1_554
Pt16 Sr2 3.272967 1_655
Pt16 Sr0 3.287407 1_555
Pt17 Pt21 2.825450 1_555
Pt17 Pt22 2.837252 1_555
Pt17 Pt9 2.844313 1_555
Pt17 Sr0 3.273275 1_556
Pt17 Sr2 3.287464 1_655
Pt18 Pt23 2.825551 1_566
Pt18 Pt20 2.837231 1_555
Pt18 Sr1 3.273195 1_565
Pt18 Sr3 3.287216 1_566
Pt19 Pt20 2.825483 1_545
Pt19 Pt23 2.837011 1_555
Pt19 Pt8 2.844210 1_455
Pt19 Pt2 2.844247 1_555
Pt19 Sr3 3.272832 1_555
Pt19 Sr1 3.287121 1_555
Pt20 Pt7 2.844213 1_455
Pt20 Sr1 3.272934 1_565
Pt20 Sr2 3.287311 1_555
Pt21 Pt5 2.844213 1_555
Pt21 Sr2 3.273169 1_655
Pt21 Sr1 3.287367 1_565
Pt22 Pt4 2.844223 1_655
Pt22 Pt3 2.844263 1_555
Pt22 Sr0 3.273230 1_556
Pt22 Sr3 3.287379 1_656
Pt23 Pt6 2.844236 1_555
Pt23 Sr3 3.272886 1_555
Pt23 Sr0 3.287247 1_555
