# generated using pymatgen
data_RbCaMg14
_symmetry_space_group_name_H-M   'P 1'
_cell_length_a   6.67155560
_cell_length_b   6.67375840
_cell_length_c   10.83638812
_cell_angle_alpha   90.00000000
_cell_angle_beta   90.00000000
_cell_angle_gamma   120.01092855
_symmetry_Int_Tables_number   1
_chemical_formula_structural   RbCaMg14
_chemical_formula_sum   'Rb1 Ca1 Mg14'
_cell_volume   417.79663394
_cell_formula_units_Z   1
loop_
 _symmetry_equiv_pos_site_id
 _symmetry_equiv_pos_as_xyz
  1  'x, y, z'
loop_
 _atom_site_type_symbol
 _atom_site_label
 _atom_site_symmetry_multiplicity
 _atom_site_fract_x
 _atom_site_fract_y
 _atom_site_fract_z
 _atom_site_occupancy
  Rb  Rb0  1  0.16674114  0.83337007  0.12500000  1
  Ca  Ca0  1  0.17504719  0.33752309  0.12500000  1
  Mg  Mg0  1  0.16300256  0.33150078  0.62500000  1
  Mg  Mg1  1  0.16507117  0.83253509  0.62500000  1
  Mg  Mg2  1  0.66499822  0.33112971  0.12500000  1
  Mg  Mg3  1  0.66914427  0.33367412  0.62500000  1
  Mg  Mg4  1  0.66499822  0.83386752  0.12500000  1
  Mg  Mg5  1  0.66914427  0.83546916  0.62500000  1
  Mg  Mg6  1  0.34221658  0.17767912  0.39475487  1
  Mg  Mg7  1  0.34221658  0.17767912  0.85524513  1
  Mg  Mg8  1  0.34221658  0.66453846  0.39475487  1
  Mg  Mg9  1  0.34221658  0.66453846  0.85524513  1
  Mg  Mg10  1  0.82812189  0.16406145  0.37799069  1
  Mg  Mg11  1  0.82812189  0.16406145  0.87200931  1
  Mg  Mg12  1  0.81837143  0.65918621  0.38781962  1
  Mg  Mg13  1  0.81837143  0.65918621  0.86218038  1
loop_
_geom_bond_atom_site_label_1
_geom_bond_atom_site_label_2
_geom_bond_distance
_geom_bond_site_symmetry_2
Ca0 Mg4 3.290284 1_555
Ca0 Mg2 3.290284 1_555
Ca0 Rb0 3.337224 1_545
Ca0 Rb0 3.337224 1_555
Ca0 Mg4 3.381681 1_445
Ca0 Mg2 3.381681 1_455
Ca0 Mg11 3.395991 1_454
Ca0 Mg10 3.395991 1_455
Ca0 Mg7 3.480929 1_554
Ca0 Mg6 3.480929 1_555
Ca0 Mg8 3.480936 1_555
Ca0 Mg9 3.480936 1_554
Mg0 Mg6 3.152198 1_555
Mg0 Mg7 3.152198 1_555
Mg0 Mg8 3.152204 1_555
Mg0 Mg9 3.152204 1_555
Mg0 Mg5 3.302081 1_445
Mg0 Mg3 3.302081 1_455
Mg0 Mg10 3.302649 1_455
Mg0 Mg11 3.302649 1_455
Mg0 Mg1 3.336901 1_545
Mg0 Mg1 3.336901 1_555
Mg0 Mg5 3.369521 1_555
Mg0 Mg3 3.369521 1_555
Mg1 Mg8 3.194430 1_555
Mg1 Mg9 3.194430 1_555
Mg1 Mg7 3.194437 1_565
Mg1 Mg6 3.194437 1_565
Mg1 Mg13 3.258451 1_455
Mg1 Mg12 3.258451 1_455
Mg1 Mg3 3.318441 1_455
Mg1 Mg5 3.318441 1_455
Mg1 Mg3 3.353200 1_565
Mg1 Mg5 3.353201 1_555
Mg2 Mg4 3.318608 1_545
Mg2 Rb0 3.322490 1_545
Mg2 Rb0 3.349067 1_655
Mg2 Mg4 3.355151 1_555
Mg2 Mg7 3.467706 1_554
Mg2 Mg6 3.467706 1_555
Mg3 Mg7 3.129665 1_555
Mg3 Mg6 3.129665 1_555
Mg3 Mg5 3.324900 1_545
Mg3 Mg5 3.348859 1_555
Mg4 Rb0 3.322491 1_555
Mg4 Rb0 3.349068 1_655
Mg4 Mg8 3.467706 1_555
Mg4 Mg9 3.467706 1_554
Mg5 Mg8 3.129665 1_555
Mg5 Mg9 3.129665 1_555
Mg6 Mg8 3.249182 1_555
Mg6 Mg8 3.424577 1_545
Mg6 Rb0 3.536175 1_545
Mg7 Mg9 3.249182 1_555
Mg7 Mg9 3.424577 1_545
Mg7 Rb0 3.536175 1_546
Mg8 Rb0 3.536169 1_555
Mg9 Rb0 3.536169 1_556
Mg10 Mg3 3.282056 1_555
Mg10 Mg5 3.282063 1_545
Mg10 Mg8 3.293156 1_545
Mg10 Mg6 3.293156 1_555
Mg10 Mg12 3.339054 1_555
Mg10 Mg12 3.339054 1_545
Mg10 Mg2 3.340240 1_555
Mg10 Mg4 3.340246 1_545
Mg10 Mg8 3.390141 1_655
Mg10 Mg6 3.390141 1_655
Mg11 Mg3 3.282056 1_555
Mg11 Mg5 3.282063 1_545
Mg11 Mg9 3.293156 1_545
Mg11 Mg7 3.293156 1_555
Mg11 Mg13 3.339054 1_555
Mg11 Mg13 3.339054 1_545
Mg11 Mg2 3.340240 1_556
Mg11 Mg4 3.340246 1_546
Mg11 Mg9 3.390141 1_655
Mg11 Mg7 3.390141 1_655
Mg12 Mg5 3.186334 1_555
Mg12 Mg3 3.186341 1_555
Mg12 Mg6 3.195593 1_555
Mg12 Mg8 3.195593 1_555
Mg12 Mg4 3.422063 1_555
Mg12 Mg2 3.422070 1_555
Mg12 Mg6 3.477946 1_665
Mg12 Mg8 3.477946 1_655
Mg12 Rb0 3.487351 1_655
Mg13 Mg5 3.186334 1_555
Mg13 Mg3 3.186341 1_555
Mg13 Mg7 3.195593 1_555
Mg13 Mg9 3.195593 1_555
Mg13 Mg4 3.422063 1_556
Mg13 Mg2 3.422070 1_556
Mg13 Mg7 3.477946 1_665
Mg13 Mg9 3.477946 1_655
Mg13 Rb0 3.487351 1_656
