# generated using pymatgen
data_HfCrCuS4
_symmetry_space_group_name_H-M   'P 1'
_cell_length_a   11.58205000
_cell_length_b   3.53932200
_cell_length_c   12.92882900
_cell_angle_alpha   90.00000000
_cell_angle_beta   90.00000000
_cell_angle_gamma   90.00000000
_symmetry_Int_Tables_number   1
_chemical_formula_structural   HfCrCuS4
_chemical_formula_sum   'Hf4 Cr4 Cu4 S16'
_cell_volume   529.98637217
_cell_formula_units_Z   4
loop_
 _symmetry_equiv_pos_site_id
 _symmetry_equiv_pos_as_xyz
  1  'x, y, z'
loop_
 _atom_site_type_symbol
 _atom_site_label
 _atom_site_symmetry_multiplicity
 _atom_site_fract_x
 _atom_site_fract_y
 _atom_site_fract_z
 _atom_site_occupancy
  Hf  Hf0  1  0.15271600  0.25000000  0.66666800  1
  Hf  Hf1  1  0.84728400  0.75000000  0.33333200  1
  Hf  Hf2  1  0.34728400  0.75000000  0.16666800  1
  Hf  Hf3  1  0.65271600  0.25000000  0.83333200  1
  Cr  Cr0  1  0.11102900  0.25000000  0.06169600  1
  Cr  Cr1  1  0.88897100  0.75000000  0.93830400  1
  Cr  Cr2  1  0.38897100  0.75000000  0.56169600  1
  Cr  Cr3  1  0.61102900  0.25000000  0.43830400  1
  Cu  Cu0  1  0.09662300  0.75000000  0.48137300  1
  Cu  Cu1  1  0.90337700  0.25000000  0.51862700  1
  Cu  Cu2  1  0.40337700  0.25000000  0.98137300  1
  Cu  Cu3  1  0.59662300  0.75000000  0.01862700  1
  S  S0  1  0.99682000  0.75000000  0.63423600  1
  S  S1  1  0.00318000  0.25000000  0.36576400  1
  S  S2  1  0.50318000  0.25000000  0.13423600  1
  S  S3  1  0.49682000  0.75000000  0.86576400  1
  S  S4  1  0.01897700  0.25000000  0.89357000  1
  S  S5  1  0.98102300  0.75000000  0.10643000  1
  S  S6  1  0.48102300  0.75000000  0.39357000  1
  S  S7  1  0.51897700  0.25000000  0.60643000  1
  S  S8  1  0.21810500  0.25000000  0.23165200  1
  S  S9  1  0.78189500  0.75000000  0.76834800  1
  S  S10  1  0.28189500  0.75000000  0.73165200  1
  S  S11  1  0.71810500  0.25000000  0.26834800  1
  S  S12  1  0.24810900  0.75000000  0.99988200  1
  S  S13  1  0.75189100  0.25000000  0.00011800  1
  S  S14  1  0.25189100  0.25000000  0.49988200  1
  S  S15  1  0.74810900  0.75000000  0.50011800  1
loop_
_geom_bond_atom_site_label_1
_geom_bond_atom_site_label_2
_geom_bond_distance
_geom_bond_site_symmetry_2
Hf0 S14 2.443201 1_555
Hf0 S10 2.464968 1_555
Hf0 S10 2.464968 1_545
Hf0 S0 2.562751 1_455
Hf0 S0 2.562751 1_445
Hf0 S4 3.317407 1_555
Hf1 S15 2.443201 1_555
Hf1 S11 2.464968 1_555
Hf1 S11 2.464968 1_565
Hf1 S1 2.562751 1_655
Hf1 S1 2.562751 1_665
Hf1 S5 3.317407 1_555
Hf2 S12 2.443201 1_554
Hf2 S8 2.464968 1_565
Hf2 S8 2.464968 1_555
Hf2 S2 2.562751 1_555
Hf2 S2 2.562751 1_565
Hf2 S6 3.317407 1_555
Hf3 S13 2.443201 1_556
Hf3 S9 2.464968 1_555
Hf3 S9 2.464968 1_545
Hf3 S3 2.562751 1_555
Hf3 S3 2.562751 1_545
Hf3 S7 3.317407 1_555
Cr0 S5 2.394460 1_455
Cr0 S5 2.394460 1_445
Cr0 S4 2.421059 1_554
Cr0 S12 2.508203 1_544
Cr0 S12 2.508203 1_554
Cr0 S8 2.523146 1_555
Cr1 S4 2.394460 1_655
Cr1 S4 2.394460 1_665
Cr1 S5 2.421059 1_556
Cr1 S13 2.508203 1_556
Cr1 S13 2.508203 1_566
Cr1 S9 2.523146 1_555
Cr2 S7 2.394460 1_555
Cr2 S7 2.394460 1_565
Cr2 S6 2.421059 1_555
Cr2 S14 2.508203 1_565
Cr2 S14 2.508203 1_555
Cr2 S10 2.523146 1_555
Cr3 S6 2.394460 1_545
Cr3 S6 2.394460 1_555
Cr3 S7 2.421059 1_555
Cr3 S15 2.508203 1_555
Cr3 S15 2.508203 1_545
Cr3 S11 2.523146 1_555
Cu0 S0 2.289558 1_455
Cu0 S14 2.534349 1_555
Cu0 S14 2.534349 1_565
Cu0 S1 2.556772 1_555
Cu0 S1 2.556772 1_565
Cu1 S1 2.289558 1_655
Cu1 S15 2.534349 1_555
Cu1 S15 2.534349 1_545
Cu1 S0 2.556772 1_545
Cu1 S0 2.556772 1_555
Cu2 S2 2.289558 1_556
Cu2 S12 2.534349 1_555
Cu2 S12 2.534349 1_545
Cu2 S3 2.556772 1_555
Cu2 S3 2.556772 1_545
Cu3 S3 2.289558 1_554
Cu3 S13 2.534349 1_555
Cu3 S13 2.534349 1_565
Cu3 S2 2.556772 1_565
Cu3 S2 2.556772 1_555
