# generated using pymatgen
data_Ca2Y2Si4CO16
_symmetry_space_group_name_H-M   'P 1'
_cell_length_a   6.80372100
_cell_length_b   13.15130500
_cell_length_c   14.47473000
_cell_angle_alpha   90.00000000
_cell_angle_beta   90.00000000
_cell_angle_gamma   90.00000000
_symmetry_Int_Tables_number   1
_chemical_formula_structural   Ca2Y2Si4CO16
_chemical_formula_sum   'Ca8 Y8 Si16 C4 O64'
_cell_volume   1295.16714083
_cell_formula_units_Z   4
loop_
 _symmetry_equiv_pos_site_id
 _symmetry_equiv_pos_as_xyz
  1  'x, y, z'
loop_
 _atom_site_type_symbol
 _atom_site_label
 _atom_site_symmetry_multiplicity
 _atom_site_fract_x
 _atom_site_fract_y
 _atom_site_fract_z
 _atom_site_occupancy
  Ca  Ca0  1  0.19373900  0.07365400  0.05020400  1
  Ca  Ca1  1  0.30626100  0.42634600  0.55020400  1
  Ca  Ca2  1  0.80626100  0.57365400  0.94979600  1
  Ca  Ca3  1  0.69373900  0.92634600  0.44979600  1
  Ca  Ca4  1  0.80626100  0.92634600  0.94979600  1
  Ca  Ca5  1  0.69373900  0.57365400  0.44979600  1
  Ca  Ca6  1  0.19373900  0.42634600  0.05020400  1
  Ca  Ca7  1  0.30626100  0.07365400  0.55020400  1
  Y  Y0  1  0.38690100  0.06027700  0.27988600  1
  Y  Y1  1  0.11309900  0.43972300  0.77988600  1
  Y  Y2  1  0.61309900  0.56027700  0.72011400  1
  Y  Y3  1  0.88690100  0.93972300  0.22011400  1
  Y  Y4  1  0.61309900  0.93972300  0.72011400  1
  Y  Y5  1  0.88690100  0.56027700  0.22011400  1
  Y  Y6  1  0.38690100  0.43972300  0.27988600  1
  Y  Y7  1  0.11309900  0.06027700  0.77988600  1
  Si  Si0  1  0.88793500  0.13043800  0.35264900  1
  Si  Si1  1  0.61206500  0.36956200  0.85264900  1
  Si  Si2  1  0.11206500  0.63043800  0.64735100  1
  Si  Si3  1  0.38793500  0.86956200  0.14735100  1
  Si  Si4  1  0.11206500  0.86956200  0.64735100  1
  Si  Si5  1  0.38793500  0.63043800  0.14735100  1
  Si  Si6  1  0.88793500  0.36956200  0.35264900  1
  Si  Si7  1  0.61206500  0.13043800  0.85264900  1
  Si  Si8  1  0.66291800  0.13175700  0.06838500  1
  Si  Si9  1  0.83708200  0.36824300  0.56838500  1
  Si  Si10  1  0.33708200  0.63175700  0.93161500  1
  Si  Si11  1  0.16291800  0.86824300  0.43161500  1
  Si  Si12  1  0.33708200  0.86824300  0.93161500  1
  Si  Si13  1  0.16291800  0.63175700  0.43161500  1
  Si  Si14  1  0.66291800  0.36824300  0.06838500  1
  Si  Si15  1  0.83708200  0.13175700  0.56838500  1
  C  C0  1  0.38772500  0.25000000  0.37915300  1
  C  C1  1  0.11227500  0.25000000  0.87915300  1
  C  C2  1  0.61227500  0.75000000  0.62084700  1
  C  C3  1  0.88772500  0.75000000  0.12084700  1
  O  O0  1  0.93876200  0.11197300  0.46391000  1
  O  O1  1  0.56123800  0.38802700  0.96391000  1
  O  O2  1  0.06123800  0.61197300  0.53609000  1
  O  O3  1  0.43876200  0.88802700  0.03609000  1
  O  O4  1  0.06123800  0.88802700  0.53609000  1
  O  O5  1  0.43876200  0.61197300  0.03609000  1
  O  O6  1  0.93876200  0.38802700  0.46391000  1
  O  O7  1  0.56123800  0.11197300  0.96391000  1
  O  O8  1  0.70520700  0.05384000  0.32811200  1
  O  O9  1  0.79479300  0.44616000  0.82811200  1
  O  O10  1  0.29479300  0.55384000  0.67188800  1
  O  O11  1  0.20520700  0.94616000  0.17188800  1
  O  O12  1  0.29479300  0.94616000  0.67188800  1
  O  O13  1  0.20520700  0.55384000  0.17188800  1
  O  O14  1  0.70520700  0.44616000  0.32811200  1
  O  O15  1  0.79479300  0.05384000  0.82811200  1
  O  O16  1  0.06183400  0.09172700  0.28518600  1
  O  O17  1  0.43816600  0.40827300  0.78518600  1
  O  O18  1  0.93816600  0.59172700  0.71481400  1
  O  O19  1  0.56183400  0.90827300  0.21481400  1
  O  O20  1  0.93816600  0.90827300  0.71481400  1
  O  O21  1  0.56183400  0.59172700  0.21481400  1
  O  O22  1  0.06183400  0.40827300  0.28518600  1
  O  O23  1  0.43816600  0.09172700  0.78518600  1
  O  O24  1  0.83063500  0.25000000  0.33837800  1
  O  O25  1  0.66936500  0.25000000  0.83837800  1
  O  O26  1  0.16936500  0.75000000  0.66162200  1
  O  O27  1  0.33063500  0.75000000  0.16162200  1
  O  O28  1  0.84394300  0.05115600  0.08182100  1
  O  O29  1  0.65605700  0.44884400  0.58182100  1
  O  O30  1  0.15605700  0.55115600  0.91817900  1
  O  O31  1  0.34394300  0.94884400  0.41817900  1
  O  O32  1  0.15605700  0.94884400  0.91817900  1
  O  O33  1  0.34394300  0.55115600  0.41817900  1
  O  O34  1  0.84394300  0.44884400  0.08182100  1
  O  O35  1  0.65605700  0.05115600  0.58182100  1
  O  O36  1  0.47675100  0.11220200  0.13637100  1
  O  O37  1  0.02324900  0.38779800  0.63637100  1
  O  O38  1  0.52324900  0.61220200  0.86362900  1
  O  O39  1  0.97675100  0.88779800  0.36362900  1
  O  O40  1  0.52324900  0.88779800  0.86362900  1
  O  O41  1  0.97675100  0.61220200  0.36362900  1
  O  O42  1  0.47675100  0.38779800  0.13637100  1
  O  O43  1  0.02324900  0.11220200  0.63637100  1
  O  O44  1  0.74343500  0.25000000  0.07298800  1
  O  O45  1  0.75656500  0.25000000  0.57298800  1
  O  O46  1  0.25656500  0.75000000  0.92701200  1
  O  O47  1  0.24343500  0.75000000  0.42701200  1
  O  O48  1  0.38138500  0.16357800  0.42171200  1
  O  O49  1  0.11861500  0.33642200  0.92171200  1
  O  O50  1  0.61861500  0.66357800  0.57828800  1
  O  O51  1  0.88138500  0.83642200  0.07828800  1
  O  O52  1  0.61861500  0.83642200  0.57828800  1
  O  O53  1  0.88138500  0.66357800  0.07828800  1
  O  O54  1  0.38138500  0.33642200  0.42171200  1
  O  O55  1  0.11861500  0.16357800  0.92171200  1
  O  O56  1  0.39952500  0.25000000  0.29015500  1
  O  O57  1  0.10047500  0.25000000  0.79015500  1
  O  O58  1  0.60047500  0.75000000  0.70984500  1
  O  O59  1  0.89952500  0.75000000  0.20984500  1
  O  O60  1  0.15495500  0.25000000  0.10312900  1
  O  O61  1  0.34504500  0.25000000  0.60312900  1
  O  O62  1  0.84504500  0.75000000  0.89687100  1
  O  O63  1  0.65495500  0.75000000  0.39687100  1
loop_
_geom_bond_atom_site_label_1
_geom_bond_atom_site_label_2
_geom_bond_distance
_geom_bond_site_symmetry_2
Ca0 O55 2.262523 1_554
Ca0 O36 2.349533 1_555
Ca0 O11 2.433060 1_545
Ca0 O28 2.441511 1_455
Ca0 O60 2.456644 1_555
Ca0 O32 2.532191 1_544
Ca0 O7 2.840065 1_554
Ca0 O3 2.963190 1_545
Ca1 O54 2.262523 1_555
Ca1 O37 2.349533 1_555
Ca1 O10 2.433060 1_555
Ca1 O29 2.441511 1_555
Ca1 O61 2.456644 1_555
Ca1 O33 2.532191 1_555
Ca1 O6 2.840065 1_455
Ca1 O2 2.963190 1_555
Ca2 O53 2.262523 1_556
Ca2 O38 2.349533 1_555
Ca2 O9 2.433060 1_555
Ca2 O30 2.441511 1_655
Ca2 O62 2.456644 1_555
Ca2 O34 2.532191 1_556
Ca2 O5 2.840065 1_556
Ca2 O1 2.963190 1_555
Ca3 O52 2.262523 1_555
Ca3 O39 2.349533 1_555
Ca3 O8 2.433060 1_565
Ca3 O31 2.441511 1_555
Ca3 O63 2.456644 1_555
Ca3 O35 2.532191 1_565
Ca3 O4 2.840065 1_655
Ca3 O0 2.963190 1_565
Ca4 O51 2.262523 1_556
Ca4 O40 2.349533 1_555
Ca4 O15 2.433060 1_565
Ca4 O32 2.441511 1_655
Ca4 O62 2.456644 1_555
Ca4 O28 2.532191 1_566
Ca4 O3 2.840065 1_556
Ca4 O7 2.963190 1_565
Ca5 O50 2.262523 1_555
Ca5 O41 2.349533 1_555
Ca5 O14 2.433060 1_555
Ca5 O33 2.441511 1_555
Ca5 O63 2.456644 1_555
Ca5 O29 2.532191 1_555
Ca5 O2 2.840065 1_655
Ca5 O6 2.963190 1_555
Ca6 O49 2.262523 1_554
Ca6 O42 2.349533 1_555
Ca6 O13 2.433060 1_555
Ca6 O34 2.441511 1_455
Ca6 O60 2.456644 1_555
Ca6 O30 2.532191 1_554
Ca6 O1 2.840065 1_554
Ca6 O5 2.963190 1_555
Ca7 O48 2.262523 1_555
Ca7 O43 2.349533 1_555
Ca7 O12 2.433060 1_545
Ca7 O35 2.441511 1_555
Ca7 O61 2.456644 1_555
Ca7 O31 2.532191 1_545
Ca7 O0 2.840065 1_455
Ca7 O4 2.963190 1_545
C0 O56 1.290721 1_555
C0 O54 1.293494 1_555
C0 O48 1.293494 1_555
C1 O57 1.290721 1_555
C1 O49 1.293494 1_555
C1 O55 1.293494 1_555
C2 O58 1.290721 1_555
C2 O50 1.293494 1_555
C2 O52 1.293494 1_555
C3 O59 1.290721 1_555
C3 O51 1.293494 1_555
C3 O53 1.293494 1_555
O0 Si0 1.664987 1_555
O0 Si15 1.683205 1_555
O1 Si1 1.664987 1_555
O1 Si14 1.683205 1_556
O2 Si2 1.664987 1_555
O2 Si13 1.683205 1_555
O3 Si3 1.664987 1_555
O3 Si12 1.683205 1_554
O4 Si4 1.664987 1_555
O4 Si11 1.683205 1_555
O5 Si5 1.664987 1_555
O5 Si10 1.683205 1_554
O6 Si6 1.664987 1_555
O6 Si9 1.683205 1_555
O7 Si7 1.664987 1_555
O7 Si8 1.683205 1_556
O8 Si0 1.639069 1_555
O8 Y0 2.276962 1_555
O8 Y3 2.494848 1_545
O9 Si1 1.639069 1_555
O9 Y1 2.276962 1_655
O9 Y2 2.494848 1_555
O10 Si2 1.639069 1_555
O10 Y2 2.276962 1_555
O10 Y1 2.494848 1_555
O11 Si3 1.639069 1_555
O11 Y3 2.276962 1_455
O11 Y0 2.494848 1_565
O12 Si4 1.639069 1_555
O12 Y4 2.276962 1_555
O12 Y7 2.494848 1_565
O13 Si5 1.639069 1_555
O13 Y5 2.276962 1_455
O13 Y6 2.494848 1_555
O14 Si6 1.639069 1_555
O14 Y6 2.276962 1_555
O14 Y5 2.494848 1_555
O15 Si7 1.639069 1_555
O15 Y7 2.276962 1_655
O15 Y4 2.494848 1_545
O16 Si0 1.616360 1_455
O16 Y0 2.251315 1_555
O16 Y3 2.509969 1_445
O17 Si1 1.616360 1_555
O17 Y1 2.251315 1_555
O17 Y2 2.509969 1_555
O18 Si2 1.616360 1_655
O18 Y2 2.251315 1_555
O18 Y1 2.509969 1_655
O19 Si3 1.616360 1_555
O19 Y3 2.251315 1_555
O19 Y0 2.509969 1_565
O20 Si4 1.616360 1_655
O20 Y4 2.251315 1_555
O20 Y7 2.509969 1_665
O21 Si5 1.616360 1_555
O21 Y5 2.251315 1_555
O21 Y6 2.509969 1_555
O22 Si6 1.616360 1_455
O22 Y6 2.251315 1_555
O22 Y5 2.509969 1_455
O23 Si7 1.616360 1_555
O23 Y7 2.251315 1_555
O23 Y4 2.509969 1_545
O24 Si6 1.633122 1_555
O24 Si0 1.633122 1_555
O25 Si1 1.633122 1_555
O25 Si7 1.633122 1_555
O26 Si2 1.633122 1_555
O26 Si4 1.633122 1_555
O27 Si3 1.633122 1_555
O27 Si5 1.633122 1_555
O28 Si8 1.636578 1_555
O28 Y3 2.498020 1_545
O29 Si9 1.636578 1_555
O29 Y2 2.498020 1_555
O30 Si10 1.636578 1_555
O30 Y1 2.498020 1_555
O31 Si11 1.636578 1_555
O31 Y0 2.498020 1_565
O32 Si12 1.636578 1_555
O32 Y7 2.498020 1_565
O33 Si13 1.636578 1_555
O33 Y6 2.498020 1_555
O34 Si14 1.636578 1_555
O34 Y5 2.498020 1_555
O35 Si15 1.636578 1_555
O35 Y4 2.498020 1_545
O36 Si8 1.624468 1_555
O36 Y0 2.270546 1_555
O37 Si9 1.624468 1_455
O37 Y1 2.270546 1_555
O38 Si10 1.624468 1_555
O38 Y2 2.270546 1_555
O39 Si11 1.624468 1_655
O39 Y3 2.270546 1_555
O40 Si12 1.624468 1_555
O40 Y4 2.270546 1_555
O41 Si13 1.624468 1_655
O41 Y5 2.270546 1_555
O42 Si14 1.624468 1_555
O42 Y6 2.270546 1_555
O43 Si15 1.624468 1_455
O43 Y7 2.270546 1_555
O44 Si8 1.650067 1_555
O44 Si14 1.650067 1_555
O45 Si9 1.650067 1_555
O45 Si15 1.650067 1_555
O46 Si12 1.650067 1_555
O46 Si10 1.650067 1_555
O47 Si11 1.650067 1_555
O47 Si13 1.650067 1_555
O48 Y0 2.461995 1_555
O49 Y1 2.461995 1_555
O50 Y2 2.461995 1_555
O51 Y3 2.461995 1_555
O52 Y4 2.461995 1_555
O53 Y5 2.461995 1_555
O54 Y6 2.461995 1_555
O55 Y7 2.461995 1_555
O56 Y6 2.501004 1_555
O56 Y0 2.501004 1_555
O57 Y7 2.501004 1_555
O57 Y1 2.501004 1_555
O58 Y2 2.501004 1_555
O58 Y4 2.501004 1_555
O59 Y5 2.501004 1_555
O59 Y3 2.501004 1_555
