# generated using pymatgen
data_EuSiPd
_symmetry_space_group_name_H-M   'P 1'
_cell_length_a   6.43728353
_cell_length_b   6.43721099
_cell_length_c   6.43726237
_cell_angle_alpha   90.00628966
_cell_angle_beta   90.00718047
_cell_angle_gamma   89.99442380
_symmetry_Int_Tables_number   1
_chemical_formula_structural   EuSiPd
_chemical_formula_sum   'Eu4 Si4 Pd4'
_cell_volume   266.74825342
_cell_formula_units_Z   4
loop_
 _symmetry_equiv_pos_site_id
 _symmetry_equiv_pos_as_xyz
  1  'x, y, z'
loop_
 _atom_site_type_symbol
 _atom_site_label
 _atom_site_symmetry_multiplicity
 _atom_site_fract_x
 _atom_site_fract_y
 _atom_site_fract_z
 _atom_site_occupancy
  Eu  Eu0  1  0.37608723  0.87608828  0.62392555  1
  Eu  Eu1  1  0.87596042  0.62391842  0.37617928  1
  Eu  Eu2  1  0.62381837  0.37596132  0.87608668  1
  Eu  Eu3  1  0.12392216  0.12382885  0.12403095  1
  Si  Si0  1  0.66796311  0.16794704  0.33203450  1
  Si  Si1  1  0.16781467  0.33214295  0.66763036  1
  Si  Si2  1  0.33236223  0.66779546  0.16784944  1
  Si  Si3  1  0.83214541  0.83236499  0.83220292  1
  Pd  Pd0  1  0.08680036  0.58679933  0.91319565  1
  Pd  Pd1  1  0.58688369  0.91300971  0.08673949  1
  Pd  Pd2  1  0.91324556  0.08689309  0.58701629  1
  Pd  Pd3  1  0.41299679  0.41325055  0.41310889  1
loop_
_geom_bond_atom_site_label_1
_geom_bond_atom_site_label_2
_geom_bond_distance
_geom_bond_site_symmetry_2
Eu0 Pd0 3.225750 1_555
Eu0 Si1 3.239484 1_565
Eu0 Si3 3.239522 1_555
Eu0 Si2 3.239667 1_555
Eu0 Si0 3.254667 1_565
Eu0 Pd1 3.282175 1_556
Eu0 Pd3 3.282363 1_555
Eu0 Pd2 3.282388 1_465
Eu1 Pd1 3.224387 1_555
Eu1 Si0 3.238719 1_555
Eu1 Si3 3.239862 1_555
Eu1 Si2 3.242107 1_655
Eu1 Si1 3.252159 1_655
Eu1 Pd3 3.283040 1_555
Eu1 Pd2 3.283411 1_565
Eu1 Pd0 3.283664 1_654
Eu2 Pd2 3.224264 1_555
Eu2 Si0 3.238656 1_556
Eu2 Si1 3.239759 1_555
Eu2 Si3 3.242057 1_555
Eu2 Si2 3.252090 1_556
Eu2 Pd1 3.282917 1_546
Eu2 Pd3 3.283400 1_555
Eu2 Pd0 3.283608 1_655
Eu3 Pd3 3.224235 1_555
Eu3 Si0 3.238715 1_455
Eu3 Si2 3.239896 1_545
Eu3 Si1 3.242041 1_554
Eu3 Si3 3.252087 1_444
Eu3 Pd2 3.283220 1_455
Eu3 Pd1 3.283339 1_545
Eu3 Pd0 3.283533 1_554
Pd0 Si2 2.336057 1_556
Pd0 Si3 2.336096 1_455
Pd0 Si1 2.336130 1_555
Pd1 Si3 2.333926 1_554
Pd1 Si2 2.334439 1_555
Pd1 Si0 2.336299 1_565
Pd2 Si1 2.333929 1_655
Pd2 Si3 2.334340 1_545
Pd2 Si0 2.336418 1_555
Pd3 Si2 2.333905 1_555
Pd3 Si1 2.334324 1_555
Pd3 Si0 2.336494 1_555
