# generated using pymatgen
data_BaLaMn2O6
_symmetry_space_group_name_H-M   'P 1'
_cell_length_a   5.67028296
_cell_length_b   5.56703857
_cell_length_c   5.56019767
_cell_angle_alpha   118.69775108
_cell_angle_beta   120.57657265
_cell_angle_gamma   59.30470872
_symmetry_Int_Tables_number   1
_chemical_formula_structural   BaLaMn2O6
_chemical_formula_sum   'Ba1 La1 Mn2 O6'
_cell_volume   124.04157494
_cell_formula_units_Z   1
loop_
 _symmetry_equiv_pos_site_id
 _symmetry_equiv_pos_as_xyz
  1  'x, y, z'
loop_
 _atom_site_type_symbol
 _atom_site_label
 _atom_site_symmetry_multiplicity
 _atom_site_fract_x
 _atom_site_fract_y
 _atom_site_fract_z
 _atom_site_occupancy
  Ba  Ba0  1  0.74999600  0.75000400  0.24999600  1
  La  La0  1  0.24997600  0.25002400  0.74997700  1
  Mn  Mn0  1  0.50007400  0.49992200  0.50007800  1
  Mn  Mn1  1  0.99995200  0.00005200  0.99994700  1
  O  O0  1  0.73968400  0.73965500  0.73968700  1
  O  O1  1  0.26034800  0.26031300  0.26034500  1
  O  O2  1  0.74005400  0.25994500  0.25997100  1
  O  O3  1  0.25997100  0.74003000  0.74005500  1
  O  O4  1  0.75164700  0.24835300  0.75164800  1
  O  O5  1  0.24829800  0.75170100  0.24829800  1
loop_
_geom_bond_atom_site_label_1
_geom_bond_atom_site_label_2
_geom_bond_distance
_geom_bond_site_symmetry_2
Ba0 O0 2.781247 1_554
Ba0 O1 2.781265 1_565
Ba0 O0 2.781425 1_555
Ba0 O1 2.781444 1_655
Ba0 O2 2.784594 1_565
Ba0 O3 2.784604 1_554
Ba0 O2 2.784730 1_555
Ba0 O3 2.784736 1_655
Ba0 O5 2.835169 1_655
Ba0 O5 2.835175 1_555
Ba0 O4 2.836411 1_554
Ba0 O4 2.836417 1_565
La0 O1 2.781110 1_555
La0 O0 2.781123 1_455
La0 O1 2.781562 1_556
La0 O0 2.781586 1_545
La0 O3 2.784447 1_555
La0 O2 2.784453 1_455
La0 O3 2.784877 1_545
La0 O2 2.784887 1_556
La0 O4 2.835171 1_455
La0 O4 2.835171 1_555
La0 O5 2.836409 1_556
La0 O5 2.836421 1_545
Mn0 O3 1.923025 1_555
Mn0 O2 1.923053 1_555
Mn0 O1 1.924583 1_555
Mn0 O0 1.924615 1_555
Mn0 O4 1.940245 1_555
Mn0 O5 1.941864 1_555
Mn1 O4 1.915028 1_555
Mn1 O5 1.915422 1_646
Mn1 O3 2.082573 1_645
Mn1 O2 2.082617 1_556
Mn1 O1 2.090496 1_656
Mn1 O0 2.090528 1_545
