# generated using pymatgen
data_MgCN2
_symmetry_space_group_name_H-M   'P 1'
_cell_length_a   4.43013800
_cell_length_b   4.42731100
_cell_length_c   6.44448700
_cell_angle_alpha   90.00000000
_cell_angle_beta   90.00000000
_cell_angle_gamma   90.00000000
_symmetry_Int_Tables_number   1
_chemical_formula_structural   MgCN2
_chemical_formula_sum   'Mg4 C4 N8'
_cell_volume   126.39958184
_cell_formula_units_Z   4
loop_
 _symmetry_equiv_pos_site_id
 _symmetry_equiv_pos_as_xyz
  1  'x, y, z'
loop_
 _atom_site_type_symbol
 _atom_site_label
 _atom_site_symmetry_multiplicity
 _atom_site_fract_x
 _atom_site_fract_y
 _atom_site_fract_z
 _atom_site_occupancy
  Mg  Mg0  1  0.97693700  0.53969300  0.87709600  1
  Mg  Mg1  1  0.47693700  0.46030700  0.12290400  1
  Mg  Mg2  1  0.47693700  0.96030700  0.37709600  1
  Mg  Mg3  1  0.97693700  0.03969300  0.62290400  1
  C  C0  1  0.00969900  0.54860500  0.37535800  1
  C  C1  1  0.50969900  0.45139500  0.62464200  1
  C  C2  1  0.50969900  0.95139500  0.87535800  1
  C  C3  1  0.00969900  0.04860500  0.12464200  1
  N  N0  1  0.34700100  0.50744200  0.42471700  1
  N  N1  1  0.84700100  0.49255800  0.57528300  1
  N  N2  1  0.84700100  0.99255800  0.92471700  1
  N  N3  1  0.34700100  0.00744200  0.07528300  1
  N  N4  1  0.44236200  0.61841900  0.82185900  1
  N  N5  1  0.94236200  0.38158100  0.17814100  1
  N  N6  1  0.94236200  0.88158100  0.32185900  1
  N  N7  1  0.44236200  0.11841900  0.67814100  1
loop_
_geom_bond_atom_site_label_1
_geom_bond_atom_site_label_2
_geom_bond_distance
_geom_bond_site_symmetry_2
Mg0 N1 2.039128 1_555
Mg0 N5 2.068185 1_556
Mg0 N2 2.108426 1_555
Mg0 N4 2.121231 1_655
Mg0 N4 2.420076 1_555
Mg0 N2 2.508636 1_545
Mg1 N0 2.039128 1_555
Mg1 N4 2.068185 1_554
Mg1 N3 2.108426 1_555
Mg1 N5 2.121231 1_555
Mg1 N5 2.420076 1_455
Mg1 N3 2.508636 1_565
Mg2 N3 2.039128 1_565
Mg2 N7 2.068185 1_565
Mg2 N0 2.108426 1_555
Mg2 N6 2.121231 1_555
Mg2 N6 2.420076 1_455
Mg2 N0 2.508636 1_565
Mg3 N2 2.039128 1_545
Mg3 N6 2.068185 1_545
Mg3 N1 2.108426 1_555
Mg3 N7 2.121231 1_655
Mg3 N7 2.420076 1_555
Mg3 N1 2.508636 1_545
C0 N1 1.497030 1_455
C0 N5 1.500382 1_455
C0 N0 1.538607 1_555
C0 N6 1.543078 1_455
C1 N0 1.497030 1_555
C1 N4 1.500382 1_555
C1 N1 1.538607 1_555
C1 N7 1.543078 1_555
C2 N3 1.497030 1_566
C2 N7 1.500382 1_565
C2 N2 1.538607 1_555
C2 N4 1.543078 1_555
C3 N2 1.497030 1_444
C3 N6 1.500382 1_445
C3 N3 1.538607 1_555
C3 N5 1.543078 1_455
