# generated using pymatgen
data_Li3Yb
_symmetry_space_group_name_H-M   'P 1'
_cell_length_a   6.44319096
_cell_length_b   6.44319096
_cell_length_c   5.02603857
_cell_angle_alpha   90.00000000
_cell_angle_beta   90.00000000
_cell_angle_gamma   120.00000155
_symmetry_Int_Tables_number   1
_chemical_formula_structural   Li3Yb
_chemical_formula_sum   'Li6 Yb2'
_cell_volume   180.70012267
_cell_formula_units_Z   2
loop_
 _symmetry_equiv_pos_site_id
 _symmetry_equiv_pos_as_xyz
  1  'x, y, z'
loop_
 _atom_site_type_symbol
 _atom_site_label
 _atom_site_symmetry_multiplicity
 _atom_site_fract_x
 _atom_site_fract_y
 _atom_site_fract_z
 _atom_site_occupancy
  Li  Li0  1  0.15690865  0.31381731  0.25000000  1
  Li  Li1  1  0.68618269  0.84309135  0.25000000  1
  Li  Li2  1  0.15690865  0.84309135  0.25000000  1
  Li  Li3  1  0.84309135  0.68618269  0.75000000  1
  Li  Li4  1  0.31381731  0.15690865  0.75000000  1
  Li  Li5  1  0.84309135  0.15690865  0.75000000  1
  Yb  Yb0  1  0.33333300  0.66666700  0.75000000  1
  Yb  Yb1  1  0.66666700  0.33333300  0.25000000  1
loop_
_geom_bond_atom_site_label_1
_geom_bond_atom_site_label_2
_geom_bond_distance
_geom_bond_site_symmetry_2
Li0 Li1 3.032977 1_445
Li0 Li2 3.032977 1_545
Li0 Li5 3.062937 1_455
Li0 Li5 3.062937 1_454
Li0 Li4 3.062937 1_554
Li0 Li4 3.062937 1_555
Li0 Yb0 3.192459 1_555
Li0 Yb0 3.192459 1_554
Li0 Yb1 3.223432 1_455
Li0 Yb1 3.223439 1_555
Li1 Li2 3.032977 1_655
Li1 Li5 3.062937 1_564
Li1 Li5 3.062937 1_565
Li1 Li3 3.062937 1_554
Li1 Li3 3.062937 1_555
Li1 Yb0 3.192459 1_555
Li1 Yb0 3.192459 1_554
Li1 Yb1 3.223432 1_565
Li1 Yb1 3.223439 1_555
Li2 Li4 3.062937 1_564
Li2 Li3 3.062937 1_455
Li2 Li4 3.062937 1_565
Li2 Li3 3.062937 1_454
Li2 Yb0 3.192455 1_555
Li2 Yb0 3.192455 1_554
Li2 Yb1 3.223436 1_565
Li2 Yb1 3.223436 1_455
Li3 Li4 3.032977 1_665
Li3 Li5 3.032977 1_565
Li3 Yb1 3.192459 1_555
Li3 Yb1 3.192459 1_556
Li3 Yb0 3.223432 1_655
Li3 Yb0 3.223439 1_555
Li4 Li5 3.032977 1_455
Li4 Yb1 3.192459 1_555
Li4 Yb1 3.192459 1_556
Li4 Yb0 3.223432 1_545
Li4 Yb0 3.223439 1_555
Li5 Yb1 3.192455 1_555
Li5 Yb1 3.192455 1_556
Li5 Yb0 3.223436 1_655
Li5 Yb0 3.223436 1_545
