# generated using pymatgen
data_Ca2Al3O8
_symmetry_space_group_name_H-M   'P 1'
_cell_length_a   7.83906623
_cell_length_b   7.83906623
_cell_length_c   7.83906623
_cell_angle_alpha   109.47122063
_cell_angle_beta   109.47122063
_cell_angle_gamma   109.47122063
_symmetry_Int_Tables_number   1
_chemical_formula_structural   Ca2Al3O8
_chemical_formula_sum   'Ca4 Al6 O16'
_cell_volume   370.82679778
_cell_formula_units_Z   2
loop_
 _symmetry_equiv_pos_site_id
 _symmetry_equiv_pos_as_xyz
  1  'x, y, z'
loop_
 _atom_site_type_symbol
 _atom_site_label
 _atom_site_symmetry_multiplicity
 _atom_site_fract_x
 _atom_site_fract_y
 _atom_site_fract_z
 _atom_site_occupancy
  Ca  Ca0  1  0.34363600  0.34363600  0.34363600  1
  Ca  Ca1  1  0.65636400  0.00000000  0.00000000  1
  Ca  Ca2  1  0.00000000  0.65636400  0.00000000  1
  Ca  Ca3  1  0.00000000  0.00000000  0.65636400  1
  Al  Al0  1  0.25000000  0.75000000  0.50000000  1
  Al  Al1  1  0.75000000  0.25000000  0.50000000  1
  Al  Al2  1  0.75000000  0.50000000  0.25000000  1
  Al  Al3  1  0.25000000  0.50000000  0.75000000  1
  Al  Al4  1  0.50000000  0.25000000  0.75000000  1
  Al  Al5  1  0.50000000  0.75000000  0.25000000  1
  O  O0  1  0.28812500  0.56525700  0.56525700  1
  O  O1  1  0.71187500  0.27713200  0.27713200  1
  O  O2  1  0.00000000  0.43474300  0.72286800  1
  O  O3  1  0.56525700  0.56525700  0.28812500  1
  O  O4  1  0.00000000  0.72286800  0.43474300  1
  O  O5  1  0.27713200  0.27713200  0.71187500  1
  O  O6  1  0.43474300  0.72286800  0.00000000  1
  O  O7  1  0.72286800  0.43474300  0.00000000  1
  O  O8  1  0.56525700  0.28812500  0.56525700  1
  O  O9  1  0.72286800  0.00000000  0.43474300  1
  O  O10  1  0.43474300  0.00000000  0.72286800  1
  O  O11  1  0.27713200  0.71187500  0.27713200  1
  O  O12  1  0.83240100  0.83240100  0.83240100  1
  O  O13  1  0.16759900  0.00000000  0.00000000  1
  O  O14  1  0.00000000  0.16759900  0.00000000  1
  O  O15  1  0.00000000  0.00000000  0.16759900  1
loop_
_geom_bond_atom_site_label_1
_geom_bond_atom_site_label_2
_geom_bond_distance
_geom_bond_site_symmetry_2
Ca0 O8 2.285091 1_555
Ca0 O0 2.285091 1_555
Ca0 O3 2.285091 1_555
Ca0 O14 2.573552 1_555
Ca0 O13 2.573552 1_555
Ca0 O15 2.573552 1_555
Ca1 O1 2.285091 1_555
Ca1 O10 2.285091 1_554
Ca1 O6 2.285091 1_545
Ca1 O12 2.573552 1_544
Ca1 O14 2.573552 1_655
Ca1 O15 2.573552 1_655
Ca2 O11 2.285091 1_555
Ca2 O7 2.285091 1_455
Ca2 O2 2.285091 1_554
Ca2 O12 2.573552 1_454
Ca2 O15 2.573552 1_565
Ca2 O13 2.573552 1_565
Ca3 O5 2.285091 1_555
Ca3 O9 2.285091 1_455
Ca3 O4 2.285091 1_545
Ca3 O12 2.573552 1_445
Ca3 O13 2.573552 1_556
Ca3 O14 2.573552 1_556
Al0 O10 1.768853 1_565
Al0 O11 1.768853 1_555
Al0 O0 1.768853 1_555
Al0 O4 1.768853 1_555
Al1 O2 1.768853 1_655
Al1 O8 1.768853 1_555
Al1 O1 1.768853 1_555
Al1 O9 1.768853 1_555
Al2 O7 1.768853 1_555
Al2 O4 1.768853 1_655
Al2 O1 1.768853 1_555
Al2 O3 1.768853 1_555
Al3 O6 1.768853 1_556
Al3 O0 1.768853 1_555
Al3 O5 1.768853 1_555
Al3 O2 1.768853 1_555
Al4 O10 1.768853 1_555
Al4 O7 1.768853 1_556
Al4 O5 1.768853 1_555
Al4 O8 1.768853 1_555
Al5 O6 1.768853 1_555
Al5 O3 1.768853 1_555
Al5 O11 1.768853 1_555
Al5 O9 1.768853 1_565
