# generated using pymatgen
data_CeSb3
_symmetry_space_group_name_H-M   'P 1'
_cell_length_a   4.77358368
_cell_length_b   4.77358368
_cell_length_c   4.77358262
_cell_angle_alpha   90.00000000
_cell_angle_beta   90.00000000
_cell_angle_gamma   90.00000000
_symmetry_Int_Tables_number   1
_chemical_formula_structural   CeSb3
_chemical_formula_sum   'Ce1 Sb3'
_cell_volume   108.77611001
_cell_formula_units_Z   1
loop_
 _symmetry_equiv_pos_site_id
 _symmetry_equiv_pos_as_xyz
  1  'x, y, z'
loop_
 _atom_site_type_symbol
 _atom_site_label
 _atom_site_symmetry_multiplicity
 _atom_site_fract_x
 _atom_site_fract_y
 _atom_site_fract_z
 _atom_site_occupancy
  Ce  Ce0  1  0.00000000  -0.00000000  -0.00000000  1
  Sb  Sb0  1  0.00000000  0.50000000  0.50000000  1
  Sb  Sb1  1  0.50000000  0.00000000  0.50000000  1
  Sb  Sb2  1  0.50000000  0.50000000  0.00000000  1
loop_
_geom_bond_atom_site_label_1
_geom_bond_atom_site_label_2
_geom_bond_distance
_geom_bond_site_symmetry_2
Ce0 Sb0 3.375433 1_554
Ce0 Sb1 3.375433 1_454
Ce0 Sb1 3.375433 1_455
Ce0 Sb1 3.375433 1_555
Ce0 Sb1 3.375433 1_554
Ce0 Sb0 3.375433 1_545
Ce0 Sb0 3.375433 1_544
Ce0 Sb0 3.375433 1_555
Ce0 Sb2 3.375433 1_555
Ce0 Sb2 3.375433 1_455
Ce0 Sb2 3.375433 1_445
Ce0 Sb2 3.375433 1_545
