# generated using pymatgen
data_CdRh2Pb
_symmetry_space_group_name_H-M   'P 1'
_cell_length_a   11.30757330
_cell_length_b   11.30757330
_cell_length_c   11.30757330
_cell_angle_alpha   124.59938772
_cell_angle_beta   118.48766585
_cell_angle_gamma   87.43203080
_symmetry_Int_Tables_number   1
_chemical_formula_structural   CdRh2Pb
_chemical_formula_sum   'Cd1 Rh2 Pb1'
_cell_volume   993.63997544
_cell_formula_units_Z   1
loop_
 _symmetry_equiv_pos_site_id
 _symmetry_equiv_pos_as_xyz
  1  'x, y, z'
loop_
 _atom_site_type_symbol
 _atom_site_label
 _atom_site_symmetry_multiplicity
 _atom_site_fract_x
 _atom_site_fract_y
 _atom_site_fract_z
 _atom_site_occupancy
  Cd  Cd0  1  0.00000000  0.00000000  0.00000000  1
  Rh  Rh0  1  0.00000000  0.25884000  0.25884000  1
  Rh  Rh1  1  0.00000000  0.74116000  0.74116000  1
  Pb  Pb0  1  0.00000000  0.50000000  0.50000000  1
loop_
_geom_bond_atom_site_label_1
_geom_bond_atom_site_label_2
_geom_bond_distance
_geom_bond_site_symmetry_2
Cd0 Rh1 2.721076 1_544
Cd0 Rh0 2.721076 1_555
Pb0 Rh0 2.535213 1_555
Pb0 Rh1 2.535213 1_555
