# generated using pymatgen
data_UCrB4
_symmetry_space_group_name_H-M   'P 1'
_cell_length_a   3.48614100
_cell_length_b   5.85790500
_cell_length_c   11.35425500
_cell_angle_alpha   90.00000000
_cell_angle_beta   90.00000000
_cell_angle_gamma   90.00000000
_symmetry_Int_Tables_number   1
_chemical_formula_structural   UCrB4
_chemical_formula_sum   'U4 Cr4 B16'
_cell_volume   231.87072313
_cell_formula_units_Z   4
loop_
 _symmetry_equiv_pos_site_id
 _symmetry_equiv_pos_as_xyz
  1  'x, y, z'
loop_
 _atom_site_type_symbol
 _atom_site_label
 _atom_site_symmetry_multiplicity
 _atom_site_fract_x
 _atom_site_fract_y
 _atom_site_fract_z
 _atom_site_occupancy
  U  U0  1  0.00000000  0.62526500  0.34944400  1
  U  U1  1  0.00000000  0.37473500  0.65055600  1
  U  U2  1  0.00000000  0.12526500  0.15055600  1
  U  U3  1  0.00000000  0.87473500  0.84944400  1
  Cr  Cr0  1  0.00000000  0.62987400  0.08811700  1
  Cr  Cr1  1  0.00000000  0.37012600  0.91188300  1
  Cr  Cr2  1  0.00000000  0.12987400  0.41188300  1
  Cr  Cr3  1  0.00000000  0.87012600  0.58811700  1
  B  B0  1  0.50000000  0.78379200  0.18694400  1
  B  B1  1  0.50000000  0.21620800  0.81305600  1
  B  B2  1  0.50000000  0.28379200  0.31305600  1
  B  B3  1  0.50000000  0.71620800  0.68694400  1
  B  B4  1  0.50000000  0.86476300  0.03317200  1
  B  B5  1  0.50000000  0.13523700  0.96682800  1
  B  B6  1  0.50000000  0.36476300  0.46682800  1
  B  B7  1  0.50000000  0.63523700  0.53317200  1
  B  B8  1  0.50000000  0.88562800  0.45383800  1
  B  B9  1  0.50000000  0.11437200  0.54616200  1
  B  B10  1  0.50000000  0.38562800  0.04616200  1
  B  B11  1  0.50000000  0.61437200  0.95383800  1
  B  B12  1  0.50000000  0.97244400  0.30825600  1
  B  B13  1  0.50000000  0.02755600  0.69174400  1
  B  B14  1  0.50000000  0.47244400  0.19174400  1
  B  B15  1  0.50000000  0.52755600  0.80825600  1
loop_
_geom_bond_atom_site_label_1
_geom_bond_atom_site_label_2
_geom_bond_distance
_geom_bond_site_symmetry_2
B0 B12 1.765930 1_555
B0 B4 1.809248 1_555
B0 B14 1.824661 1_555
B0 Cr0 2.260612 1_555
B0 Cr0 2.260612 1_655
B0 U2 2.685193 1_665
B0 U2 2.685193 1_565
B0 U0 2.702763 1_655
B0 U0 2.702763 1_555
B1 B13 1.765930 1_555
B1 B5 1.809248 1_555
B1 B15 1.824661 1_555
B1 Cr1 2.260612 1_655
B1 Cr1 2.260612 1_555
B1 U3 2.685193 1_545
B1 U3 2.685193 1_645
B1 U1 2.702763 1_555
B1 U1 2.702763 1_655
B2 B6 1.809248 1_555
B2 Cr2 2.260612 1_655
B2 Cr2 2.260612 1_555
B2 U0 2.685193 1_555
B2 U0 2.685193 1_655
B2 U2 2.702763 1_555
B2 U2 2.702763 1_655
B3 B7 1.809248 1_555
B3 Cr3 2.260612 1_555
B3 Cr3 2.260612 1_655
B3 U1 2.685193 1_555
B3 U1 2.685193 1_655
B3 U3 2.702763 1_555
B3 U3 2.702763 1_655
B4 B5 1.754366 1_564
B4 Cr0 2.306676 1_555
B4 Cr0 2.306676 1_655
B4 U2 2.672702 1_565
B4 U2 2.672702 1_665
B4 U3 2.719099 1_554
B4 U3 2.719099 1_654
B5 Cr1 2.306676 1_655
B5 Cr1 2.306676 1_555
B5 U3 2.672702 1_545
B5 U3 2.672702 1_645
B5 U2 2.719099 1_656
B5 U2 2.719099 1_556
B6 B9 1.721280 1_555
B6 B7 1.754366 1_555
B6 Cr2 2.306676 1_655
B6 Cr2 2.306676 1_555
B6 U0 2.672702 1_655
B6 U0 2.672702 1_555
B6 U1 2.719099 1_555
B6 U1 2.719099 1_655
B7 B8 1.721280 1_555
B7 Cr3 2.306676 1_555
B7 Cr3 2.306676 1_655
B7 U1 2.672702 1_655
B7 U1 2.672702 1_555
B7 U0 2.719099 1_555
B7 U0 2.719099 1_655
B8 B9 1.701283 1_565
B8 Cr2 2.304848 1_565
B8 Cr2 2.304848 1_665
B8 Cr3 2.317555 1_655
B8 Cr3 2.317555 1_555
B8 U0 2.601816 1_655
B8 U0 2.601816 1_555
B9 Cr3 2.304848 1_645
B9 Cr3 2.304848 1_545
B9 Cr2 2.317555 1_655
B9 Cr2 2.317555 1_555
B9 U1 2.601816 1_555
B9 U1 2.601816 1_655
B10 B11 1.701283 1_554
B10 B5 1.721280 1_554
B10 B14 1.729439 1_555
B10 Cr0 2.304848 1_655
B10 Cr0 2.304848 1_555
B10 Cr1 2.317555 1_654
B10 Cr1 2.317555 1_554
B10 U2 2.601816 1_555
B10 U2 2.601816 1_655
B11 B4 1.721280 1_556
B11 B15 1.729439 1_555
B11 Cr1 2.304848 1_555
B11 Cr1 2.304848 1_655
B11 Cr0 2.317555 1_656
B11 Cr0 2.317555 1_556
B11 U3 2.601816 1_655
B11 U3 2.601816 1_555
B12 B8 1.729439 1_555
B12 B2 1.824661 1_565
B12 Cr2 2.296339 1_565
B12 Cr2 2.296339 1_665
B12 U2 2.654397 1_565
B12 U2 2.654397 1_665
B12 U0 2.719026 1_655
B12 U0 2.719026 1_555
B13 B9 1.729439 1_555
B13 B3 1.824661 1_545
B13 Cr3 2.296339 1_545
B13 Cr3 2.296339 1_645
B13 U3 2.654397 1_545
B13 U3 2.654397 1_645
B13 U1 2.719026 1_555
B13 U1 2.719026 1_655
B14 B2 1.765930 1_555
B14 Cr0 2.296339 1_555
B14 Cr0 2.296339 1_655
B14 U0 2.654397 1_555
B14 U0 2.654397 1_655
B14 U2 2.719026 1_555
B14 U2 2.719026 1_655
B15 B3 1.765930 1_555
B15 Cr1 2.296339 1_655
B15 Cr1 2.296339 1_555
B15 U1 2.654397 1_655
B15 U1 2.654397 1_555
B15 U3 2.719026 1_655
B15 U3 2.719026 1_555
