# generated using pymatgen
data_SbPb
_symmetry_space_group_name_H-M   'P 1'
_cell_length_a   6.78032341
_cell_length_b   6.78032341
_cell_length_c   10.90695000
_cell_angle_alpha   90.00000000
_cell_angle_beta   90.00000000
_cell_angle_gamma   104.48694287
_symmetry_Int_Tables_number   1
_chemical_formula_structural   SbPb
_chemical_formula_sum   'Sb8 Pb8'
_cell_volume   485.47996914
_cell_formula_units_Z   8
loop_
 _symmetry_equiv_pos_site_id
 _symmetry_equiv_pos_as_xyz
  1  'x, y, z'
loop_
 _atom_site_type_symbol
 _atom_site_label
 _atom_site_symmetry_multiplicity
 _atom_site_fract_x
 _atom_site_fract_y
 _atom_site_fract_z
 _atom_site_occupancy
  Sb  Sb0_0  1  0.25000000  0.25000000  0.25000000  1
  Sb  Sb0_1  1  0.25000000  0.25000000  0.75000000  1
  Sb  Sb0_2  1  0.25000000  0.75000000  0.25000000  1
  Sb  Sb0_3  1  0.25000000  0.75000000  0.75000000  1
  Sb  Sb0_4  1  0.75000000  0.25000000  0.25000000  1
  Sb  Sb0_5  1  0.75000000  0.25000000  0.75000000  1
  Sb  Sb0_6  1  0.75000000  0.75000000  0.25000000  1
  Sb  Sb0_7  1  0.75000000  0.75000000  0.75000000  1
  Pb  Pb0_0  1  0.00000000  0.00000000  0.00000000  1
  Pb  Pb0_1  1  0.00000000  0.00000000  0.50000000  1
  Pb  Pb0_2  1  0.00000000  0.50000000  0.00000000  1
  Pb  Pb0_3  1  0.00000000  0.50000000  0.50000000  1
  Pb  Pb0_4  1  0.50000000  0.00000000  0.00000000  1
  Pb  Pb0_5  1  0.50000000  0.00000000  0.50000000  1
  Pb  Pb0_6  1  0.50000000  0.50000000  0.00000000  1
  Pb  Pb0_7  1  0.50000000  0.50000000  0.50000000  1
loop_
_geom_bond_atom_site_label_1
_geom_bond_atom_site_label_2
_geom_bond_distance
_geom_bond_site_symmetry_2
Sb0_0 Sb0_4 3.390162 1_455
Sb0_0 Sb0_4 3.390162 1_555
Sb0_0 Sb0_2 3.390162 1_545
Sb0_0 Sb0_2 3.390162 1_555
Sb0_1 Sb0_3 3.390162 1_555
Sb0_1 Sb0_5 3.390162 1_555
Sb0_1 Sb0_5 3.390162 1_455
Sb0_1 Sb0_3 3.390162 1_545
Sb0_2 Sb0_6 3.390162 1_455
Sb0_2 Sb0_6 3.390162 1_555
Sb0_3 Sb0_7 3.390162 1_455
Sb0_3 Sb0_7 3.390162 1_555
Sb0_4 Sb0_6 3.390162 1_545
Sb0_4 Sb0_6 3.390162 1_555
Sb0_5 Sb0_7 3.390162 1_545
Sb0_5 Sb0_7 3.390162 1_555
Pb0_0 Pb0_2 3.390162 1_545
Pb0_0 Pb0_4 3.390162 1_455
Pb0_0 Pb0_2 3.390162 1_555
Pb0_0 Pb0_4 3.390162 1_555
Pb0_0 Sb0_7 3.426971 1_444
Pb0_0 Sb0_0 3.426971 1_555
Pb0_0 Sb0_1 3.426971 1_554
Pb0_0 Sb0_6 3.426971 1_445
Pb0_1 Pb0_5 3.390162 1_555
Pb0_1 Pb0_3 3.390162 1_545
Pb0_1 Pb0_3 3.390162 1_555
Pb0_1 Pb0_5 3.390162 1_455
Pb0_1 Sb0_1 3.426971 1_555
Pb0_1 Sb0_7 3.426971 1_445
Pb0_1 Sb0_0 3.426971 1_555
Pb0_1 Sb0_6 3.426971 1_445
Pb0_2 Pb0_6 3.390162 1_555
Pb0_2 Pb0_6 3.390162 1_455
Pb0_2 Sb0_3 3.426971 1_554
Pb0_2 Sb0_4 3.426971 1_455
Pb0_2 Sb0_5 3.426971 1_454
Pb0_2 Sb0_2 3.426971 1_555
Pb0_3 Pb0_7 3.390162 1_555
Pb0_3 Pb0_7 3.390162 1_455
Pb0_3 Sb0_5 3.426971 1_455
Pb0_3 Sb0_2 3.426971 1_555
Pb0_3 Sb0_3 3.426971 1_555
Pb0_3 Sb0_4 3.426971 1_455
Pb0_4 Pb0_6 3.390162 1_555
Pb0_4 Pb0_6 3.390162 1_545
Pb0_4 Sb0_5 3.426971 1_554
Pb0_4 Sb0_4 3.426971 1_555
Pb0_4 Sb0_3 3.426971 1_544
Pb0_4 Sb0_2 3.426971 1_545
Pb0_5 Pb0_7 3.390162 1_545
Pb0_5 Pb0_7 3.390162 1_555
Pb0_5 Sb0_5 3.426971 1_555
Pb0_5 Sb0_4 3.426971 1_555
Pb0_5 Sb0_2 3.426971 1_545
Pb0_5 Sb0_3 3.426971 1_545
Pb0_6 Sb0_0 3.426971 1_555
Pb0_6 Sb0_1 3.426971 1_554
Pb0_6 Sb0_7 3.426971 1_554
Pb0_6 Sb0_6 3.426971 1_555
Pb0_7 Sb0_1 3.426971 1_555
Pb0_7 Sb0_0 3.426971 1_555
Pb0_7 Sb0_7 3.426971 1_555
Pb0_7 Sb0_6 3.426971 1_555
