# generated using pymatgen
data_CeU3Al8
_symmetry_space_group_name_H-M   'P 1'
_cell_length_a   9.52579094
_cell_length_b   9.52579094
_cell_length_c   9.52579058
_cell_angle_alpha   33.63179993
_cell_angle_beta   33.63179993
_cell_angle_gamma   33.63179977
_symmetry_Int_Tables_number   1
_chemical_formula_structural   CeU3Al8
_chemical_formula_sum   'Ce1 U3 Al8'
_cell_volume   236.20522564
_cell_formula_units_Z   1
loop_
 _symmetry_equiv_pos_site_id
 _symmetry_equiv_pos_as_xyz
  1  'x, y, z'
loop_
 _atom_site_type_symbol
 _atom_site_label
 _atom_site_symmetry_multiplicity
 _atom_site_fract_x
 _atom_site_fract_y
 _atom_site_fract_z
 _atom_site_occupancy
  Ce  Ce0  1  0.87420600  0.87420600  0.87420600  1
  U  U0  1  0.37621900  0.37621900  0.37621900  1
  U  U1  1  0.00295900  0.00295900  0.00295900  1
  U  U2  1  0.49656700  0.49656700  0.49656700  1
  Al  Al0  1  0.43813600  0.93853300  0.43813600  1
  Al  Al1  1  0.93736600  0.43580900  0.93736600  1
  Al  Al2  1  0.43813600  0.43813600  0.93853300  1
  Al  Al3  1  0.93736600  0.93736600  0.43580900  1
  Al  Al4  1  0.18715200  0.18715200  0.18715200  1
  Al  Al5  1  0.68754900  0.68754900  0.68754900  1
  Al  Al6  1  0.93853300  0.43813600  0.43813600  1
  Al  Al7  1  0.43580900  0.93736600  0.93736600  1
loop_
_geom_bond_atom_site_label_1
_geom_bond_atom_site_label_2
_geom_bond_distance
_geom_bond_site_symmetry_2
Ce0 U2 3.398534 1_565
Ce0 U2 3.398534 1_655
Ce0 U2 3.398534 1_556
Ce0 U1 3.468057 1_666
U0 U2 3.241662 1_555
U0 U1 3.358931 1_565
U0 U1 3.358931 1_655
U0 U1 3.358931 1_556
Al0 Al5 2.736293 1_555
Al0 Al2 2.753599 1_564
Al0 Al6 2.753599 1_465
Al0 Al2 2.757975 1_555
Al0 Al6 2.757975 1_555
Al0 Al4 2.775204 1_565
Al0 U0 3.235467 1_565
Al0 Ce0 3.251452 1_554
Al0 Ce0 3.251452 1_455
Al0 U1 3.260466 1_566
Al0 U1 3.260466 1_665
Al0 U2 3.325037 1_555
Al1 Al5 2.738822 1_555
Al1 Al3 2.747205 1_546
Al1 Al7 2.747205 1_645
Al1 Al4 2.755193 1_656
Al1 Al3 2.764368 1_555
Al1 Al7 2.764369 1_555
Al1 U1 3.138751 1_656
Al1 U2 3.190923 1_556
Al1 U2 3.190923 1_655
Al1 U0 3.203322 1_655
Al1 U0 3.203322 1_556
Al1 Ce0 3.224669 1_555
Al2 Al5 2.736293 1_555
Al2 Al6 2.753599 1_456
Al2 Al6 2.757975 1_555
Al2 Al4 2.775204 1_556
Al2 U0 3.235467 1_556
Al2 Ce0 3.251452 1_545
Al2 Ce0 3.251452 1_455
Al2 U1 3.260466 1_656
Al2 U1 3.260466 1_566
Al2 U2 3.325037 1_555
Al3 Al5 2.738822 1_555
Al3 Al7 2.747205 1_654
Al3 Al4 2.755194 1_665
Al3 Al7 2.764368 1_555
Al3 U1 3.138751 1_665
Al3 U2 3.190923 1_655
Al3 U2 3.190923 1_565
Al3 U0 3.203322 1_655
Al3 U0 3.203322 1_565
Al3 Ce0 3.224669 1_555
Al4 Al7 2.755193 1_544
Al4 Al6 2.775204 1_455
Al4 Ce0 3.229145 1_445
Al4 Ce0 3.229145 1_454
Al4 Ce0 3.229145 1_544
Al4 U2 3.246673 1_554
Al4 U2 3.246673 1_545
Al4 U2 3.246673 1_455
Al5 Al6 2.736293 1_555
Al5 Al7 2.738822 1_555
Al5 U1 3.218523 1_665
Al5 U1 3.218523 1_656
Al5 U1 3.218523 1_566
Al5 U0 3.236832 1_556
Al5 U0 3.236832 1_565
Al5 U0 3.236832 1_655
Al6 U0 3.235467 1_655
Al6 Ce0 3.251452 1_554
Al6 Ce0 3.251452 1_545
Al6 U1 3.260466 1_656
Al6 U1 3.260466 1_665
Al6 U2 3.325037 1_555
Al7 U1 3.138751 1_566
Al7 U2 3.190923 1_556
Al7 U2 3.190923 1_565
Al7 U0 3.203322 1_565
Al7 U0 3.203322 1_556
Al7 Ce0 3.224669 1_555
