# generated using pymatgen
data_CaZr2PbO6
_symmetry_space_group_name_H-M   'P 1'
_cell_length_a   8.27888800
_cell_length_b   8.28157292
_cell_length_c   8.29104218
_cell_angle_alpha   89.83605824
_cell_angle_beta   89.67927213
_cell_angle_gamma   89.71158870
_symmetry_Int_Tables_number   1
_chemical_formula_structural   CaZr2PbO6
_chemical_formula_sum   'Ca4 Zr8 Pb4 O24'
_cell_volume   568.43382416
_cell_formula_units_Z   4
loop_
 _symmetry_equiv_pos_site_id
 _symmetry_equiv_pos_as_xyz
  1  'x, y, z'
loop_
 _atom_site_type_symbol
 _atom_site_label
 _atom_site_symmetry_multiplicity
 _atom_site_fract_x
 _atom_site_fract_y
 _atom_site_fract_z
 _atom_site_occupancy
  Ca  Ca0  1  0.51468000  0.50963200  0.99905200  1
  Ca  Ca1  1  0.49845100  0.01396800  0.01405500  1
  Ca  Ca2  1  0.01721800  0.01229800  0.50039500  1
  Ca  Ca3  1  0.01101800  0.50020300  0.01370300  1
  Zr  Zr0  1  0.74786600  0.74970000  0.75233300  1
  Zr  Zr1  1  0.24845400  0.24936600  0.24544600  1
  Zr  Zr2  1  0.74600700  0.24231400  0.24910900  1
  Zr  Zr3  1  0.24007200  0.25089700  0.74672600  1
  Zr  Zr4  1  0.25324800  0.74310500  0.23848500  1
  Zr  Zr5  1  0.74022600  0.24158700  0.75417300  1
  Zr  Zr6  1  0.24264900  0.74945200  0.74252000  1
  Zr  Zr7  1  0.75084800  0.74101200  0.23906900  1
  Pb  Pb0  1  0.51579100  0.51418800  0.51747500  1
  Pb  Pb1  1  0.01724900  0.01206800  0.01388600  1
  Pb  Pb2  1  0.50853100  0.99704000  0.50459300  1
  Pb  Pb3  1  0.99561600  0.50901100  0.51030800  1
  O  O0  1  0.27228200  0.18733500  0.99200800  1
  O  O1  1  0.19073200  0.99095100  0.27134900  1
  O  O2  1  0.99270100  0.27500100  0.18940200  1
  O  O3  1  0.70080800  0.76340000  0.49118300  1
  O  O4  1  0.76449100  0.49132100  0.70028800  1
  O  O5  1  0.49058500  0.69219700  0.77232200  1
  O  O6  1  0.78015600  0.67439100  0.98816700  1
  O  O7  1  0.67949700  0.98931500  0.79023700  1
  O  O8  1  0.98745900  0.78555100  0.68294900  1
  O  O9  1  0.19054300  0.26599300  0.49061100  1
  O  O10  1  0.28114300  0.48955800  0.17608500  1
  O  O11  1  0.49122100  0.18542700  0.26559800  1
  O  O12  1  0.70907200  0.48720300  0.27915200  1
  O  O13  1  0.48472300  0.29119900  0.72444800  1
  O  O14  1  0.28260100  0.71432600  0.48558900  1
  O  O15  1  0.98483200  0.22169500  0.78940200  1
  O  O16  1  0.21978400  0.78767200  0.98572000  1
  O  O17  1  0.78401500  0.98694300  0.21643900  1
  O  O18  1  0.18125400  0.50011600  0.77785100  1
  O  O19  1  0.50097700  0.77332500  0.17825800  1
  O  O20  1  0.77511400  0.18460900  0.50034300  1
  O  O21  1  0.00069200  0.68927700  0.25119000  1
  O  O22  1  0.68515500  0.27253100  0.00015000  1
  O  O23  1  0.25623600  0.99882200  0.69393000  1
loop_
_geom_bond_atom_site_label_1
_geom_bond_atom_site_label_2
_geom_bond_distance
_geom_bond_site_symmetry_2
Ca0 O22 2.412409 1_556
Ca0 O5 2.417511 1_555
Ca0 O10 2.426983 1_556
Ca0 O6 2.593781 1_555
Ca0 O19 2.646436 1_556
Ca0 O12 2.837965 1_556
Ca0 O13 2.924362 1_555
Ca1 O0 2.361365 1_554
Ca1 O7 2.387420 1_544
Ca1 O19 2.410377 1_545
Ca1 O11 2.526672 1_555
Ca1 O22 2.649075 1_555
Ca1 O17 2.914076 1_545
Ca1 O16 2.990318 1_544
Ca2 O1 2.381162 1_545
Ca2 O8 2.421158 1_445
Ca2 O20 2.454584 1_455
Ca2 O9 2.551054 1_555
Ca2 O23 2.556400 1_545
Ca2 O15 2.971978 1_455
Ca3 O2 2.368165 1_455
Ca3 O6 2.398707 1_454
Ca3 O18 2.404012 1_554
Ca3 O21 2.520032 1_555
Ca3 O10 2.617742 1_555
Ca3 O16 2.956773 1_554
Ca3 O15 2.976475 1_454
O0 Zr3 2.117177 1_555
O0 Zr1 2.172245 1_556
O0 Pb1 2.573469 1_556
O1 Zr4 2.132140 1_555
O1 Zr1 2.204758 1_565
O1 Pb1 2.584515 1_565
O2 Zr2 2.117314 1_555
O2 Zr1 2.179468 1_655
O2 Pb1 2.628842 1_655
O3 Zr7 2.137067 1_555
O3 Zr0 2.204622 1_555
O3 Pb2 2.501684 1_555
O3 Pb0 2.584336 1_555
O4 Zr5 2.124913 1_555
O4 Zr0 2.187573 1_555
O4 Pb3 2.476204 1_555
O4 Pb0 2.569421 1_555
O5 Zr6 2.120000 1_555
O5 Zr0 2.190196 1_555
O5 Pb0 2.586723 1_555
O6 Zr0 2.069025 1_555
O6 Zr7 2.165696 1_556
O7 Zr0 2.084996 1_555
O7 Zr5 2.170782 1_565
O7 Pb2 2.766226 1_555
O8 Zr0 2.084654 1_555
O8 Zr6 2.191176 1_655
O8 Pb3 2.704527 1_555
O9 Zr1 2.090600 1_555
O9 Zr3 2.168078 1_555
O9 Pb3 2.578299 1_455
O10 Zr1 2.087551 1_555
O10 Zr4 2.174861 1_555
O11 Zr1 2.083339 1_555
O11 Zr2 2.167113 1_555
O11 Pb2 2.522742 1_545
O12 Zr2 2.065041 1_555
O12 Zr7 2.156441 1_555
O12 Pb0 2.545254 1_555
O13 Zr3 2.061596 1_555
O13 Zr5 2.168056 1_555
O13 Pb0 2.530394 1_555
O14 Zr4 2.077361 1_555
O14 Zr6 2.174069 1_555
O14 Pb0 2.552467 1_555
O15 Zr5 2.053371 1_555
O15 Zr3 2.155266 1_655
O15 Pb1 2.555849 1_656
O16 Zr6 2.049534 1_555
O16 Zr4 2.146140 1_556
O16 Pb1 2.507244 1_566
O17 Zr7 2.064363 1_555
O17 Zr2 2.154228 1_565
O17 Pb1 2.560817 1_665
O18 Zr3 2.134250 1_555
O18 Zr6 2.147879 1_555
O18 Pb3 2.706282 1_455
O19 Zr4 2.123968 1_555
O19 Zr7 2.147202 1_555
O20 Zr2 2.150364 1_555
O20 Zr5 2.175448 1_555
O20 Pb2 2.705257 1_545
O21 Zr7 2.113109 1_455
O21 Zr4 2.142022 1_555
O21 Pb3 2.612888 1_455
O22 Zr5 2.103359 1_554
O22 Zr2 2.141138 1_555
O23 Zr6 2.106412 1_555
O23 Zr3 2.137583 1_565
O23 Pb2 2.605833 1_555
