# generated using pymatgen
data_Ho2B4C
_symmetry_space_group_name_H-M   'P 1'
_cell_length_a   3.26055647
_cell_length_b   5.23454932
_cell_length_c   5.23454932
_cell_angle_alpha   77.75095757
_cell_angle_beta   71.85361914
_cell_angle_gamma   71.85361914
_symmetry_Int_Tables_number   1
_chemical_formula_structural   Ho2B4C
_chemical_formula_sum   'Ho2 B4 C1'
_cell_volume   80.01619920
_cell_formula_units_Z   1
loop_
 _symmetry_equiv_pos_site_id
 _symmetry_equiv_pos_as_xyz
  1  'x, y, z'
loop_
 _atom_site_type_symbol
 _atom_site_label
 _atom_site_symmetry_multiplicity
 _atom_site_fract_x
 _atom_site_fract_y
 _atom_site_fract_z
 _atom_site_occupancy
  Ho  Ho0  1  0.26649967  0.23350033  0.23350033  1
  Ho  Ho1  1  0.73350033  0.76649967  0.76649967  1
  B  B0  1  0.50000000  0.36595702  0.63404298  1
  B  B1  1  0.50000000  0.63404298  0.36595702  1
  B  B2  1  0.00000000  0.77304507  0.22695493  1
  B  B3  1  -0.00000000  0.22695493  0.77304507  1
  C  C0  1  0.00000000  0.00000000  -0.00000000  1
loop_
_geom_bond_atom_site_label_1
_geom_bond_atom_site_label_2
_geom_bond_distance
_geom_bond_site_symmetry_2
B0 B1 1.761518 1_555
B0 B3 1.868690 1_655
B0 B3 1.868690 1_555
B0 Ho0 2.719618 1_655
B0 Ho1 2.719618 1_455
B0 Ho0 2.719618 1_555
B0 Ho1 2.719618 1_555
B0 Ho1 2.970566 1_545
B0 Ho0 2.970566 1_556
B1 B2 1.868690 1_655
B1 B2 1.868690 1_555
B1 Ho0 2.719618 1_655
B1 Ho1 2.719618 1_455
B1 Ho1 2.719618 1_555
B1 Ho0 2.719618 1_555
B1 Ho1 2.970566 1_554
B1 Ho0 2.970566 1_565
B2 C0 1.491257 1_565
B3 C0 1.491257 1_556
C0 Ho0 2.387460 1_455
C0 Ho1 2.387460 1_544
C0 Ho1 2.387460 1_444
C0 Ho0 2.387460 1_555
