# generated using pymatgen
data_Si
_symmetry_space_group_name_H-M   'P 1'
_cell_length_a   5.77826558
_cell_length_b   5.77826558
_cell_length_c   5.77826558
_cell_angle_alpha   109.47122063
_cell_angle_beta   109.47122063
_cell_angle_gamma   109.47122063
_symmetry_Int_Tables_number   1
_chemical_formula_structural   Si
_chemical_formula_sum   Si6
_cell_volume   148.51509826
_cell_formula_units_Z   6
loop_
 _symmetry_equiv_pos_site_id
 _symmetry_equiv_pos_as_xyz
  1  'x, y, z'
loop_
 _atom_site_type_symbol
 _atom_site_label
 _atom_site_symmetry_multiplicity
 _atom_site_fract_x
 _atom_site_fract_y
 _atom_site_fract_z
 _atom_site_occupancy
  Si  Si0  1  0.50000000  0.75000000  0.25000000  1
  Si  Si1  1  0.75000000  0.50000000  0.25000000  1
  Si  Si2  1  0.25000000  0.75000000  0.50000000  1
  Si  Si3  1  0.25000000  0.50000000  0.75000000  1
  Si  Si4  1  0.50000000  0.25000000  0.75000000  1
  Si  Si5  1  0.75000000  0.25000000  0.50000000  1
loop_
_geom_bond_atom_site_label_1
_geom_bond_atom_site_label_2
_geom_bond_distance
_geom_bond_site_symmetry_2
Si0 Si1 2.358967 1_555
Si0 Si2 2.358967 1_555
Si0 Si5 2.358967 1_565
Si0 Si3 2.358967 1_554
Si1 Si2 2.358967 1_655
Si1 Si5 2.358967 1_555
Si1 Si4 2.358967 1_554
Si2 Si3 2.358967 1_555
Si2 Si4 2.358967 1_565
Si3 Si5 2.358967 1_455
Si3 Si4 2.358967 1_555
Si4 Si5 2.358967 1_555
