# generated using pymatgen
data_PrMoO5
_symmetry_space_group_name_H-M   'P 1'
_cell_length_a   12.94164100
_cell_length_b   5.53488000
_cell_length_c   7.23474080
_cell_angle_alpha   64.12616835
_cell_angle_beta   90.00000000
_cell_angle_gamma   90.00000000
_symmetry_Int_Tables_number   1
_chemical_formula_structural   PrMoO5
_chemical_formula_sum   'Pr4 Mo4 O20'
_cell_volume   466.27899999
_cell_formula_units_Z   4
loop_
 _symmetry_equiv_pos_site_id
 _symmetry_equiv_pos_as_xyz
  1  'x, y, z'
loop_
 _atom_site_type_symbol
 _atom_site_label
 _atom_site_symmetry_multiplicity
 _atom_site_fract_x
 _atom_site_fract_y
 _atom_site_fract_z
 _atom_site_occupancy
  Pr  Pr0  1  0.05756800  0.64734600  0.71437800  1
  Pr  Pr1  1  0.94243200  0.35265400  0.28562200  1
  Pr  Pr2  1  0.55756800  0.35265400  0.78562200  1
  Pr  Pr3  1  0.44243200  0.64734600  0.21437800  1
  Mo  Mo0  1  0.36429700  0.90687500  0.64819700  1
  Mo  Mo1  1  0.63570300  0.09312500  0.35180300  1
  Mo  Mo2  1  0.86429700  0.09312500  0.85180300  1
  Mo  Mo3  1  0.13570300  0.90687500  0.14819700  1
  O  O0  1  0.42255000  0.50573100  0.94632200  1
  O  O1  1  0.57745000  0.49426900  0.05367800  1
  O  O2  1  0.92255000  0.49426900  0.55367800  1
  O  O3  1  0.07745000  0.50573100  0.44632200  1
  O  O4  1  0.92851000  0.99399800  0.66411500  1
  O  O5  1  0.07149000  0.00600200  0.33588500  1
  O  O6  1  0.42851000  0.00600200  0.83588500  1
  O  O7  1  0.57149000  0.99399800  0.16411500  1
  O  O8  1  0.43374100  0.70811500  0.53879900  1
  O  O9  1  0.56625900  0.29188500  0.46120100  1
  O  O10  1  0.93374100  0.29188500  0.96120100  1
  O  O11  1  0.06625900  0.70811500  0.03879900  1
  O  O12  1  0.23501100  0.79226400  0.71471000  1
  O  O13  1  0.76498900  0.20773600  0.28529000  1
  O  O14  1  0.73501100  0.20773600  0.78529000  1
  O  O15  1  0.26498900  0.79226400  0.21471000  1
  O  O16  1  0.64932800  0.77681100  0.56715800  1
  O  O17  1  0.35067200  0.22318900  0.43284200  1
  O  O18  1  0.14932800  0.22318900  0.93284200  1
  O  O19  1  0.85067200  0.77681100  0.06715800  1
loop_
_geom_bond_atom_site_label_1
_geom_bond_atom_site_label_2
_geom_bond_distance
_geom_bond_site_symmetry_2
Mo0 O17 1.772852 1_565
Mo0 O12 1.779622 1_555
Mo0 O8 1.845073 1_555
Mo0 O6 1.866995 1_565
Mo0 O0 2.443447 1_555
Mo1 O16 1.772852 1_545
Mo1 O13 1.779622 1_555
Mo1 O9 1.845073 1_555
Mo1 O7 1.866995 1_545
Mo1 O1 2.443447 1_555
Mo2 O19 1.772852 1_546
Mo2 O14 1.779622 1_555
Mo2 O10 1.845073 1_555
Mo2 O4 1.866995 1_545
Mo2 O2 2.443447 1_555
Mo3 O18 1.772852 1_564
Mo3 O15 1.779622 1_555
Mo3 O11 1.845073 1_555
Mo3 O5 1.866995 1_565
Mo3 O3 2.443447 1_555
O0 Pr3 2.401713 1_556
O0 Pr2 2.445920 1_555
O1 Pr2 2.401713 1_554
O1 Pr3 2.445920 1_555
O2 Pr1 2.401713 1_555
O2 Pr0 2.445920 1_655
O3 Pr0 2.401713 1_555
O3 Pr1 2.445920 1_455
O4 Pr0 2.448316 1_655
O4 Pr1 2.593671 1_565
O5 Pr1 2.448316 1_455
O5 Pr0 2.593671 1_545
O6 Pr2 2.448316 1_555
O6 Pr3 2.593671 1_546
O7 Pr3 2.448316 1_555
O7 Pr2 2.593671 1_564
O8 Pr3 2.514693 1_555
O8 Pr2 2.561505 1_555
O9 Pr2 2.514693 1_555
O9 Pr3 2.561505 1_555
O10 Pr1 2.514693 1_556
O10 Pr0 2.561505 1_655
O11 Pr0 2.514693 1_554
O11 Pr1 2.561505 1_455
O12 Pr0 2.432802 1_555
O13 Pr1 2.432802 1_555
O14 Pr2 2.432802 1_555
O15 Pr3 2.432802 1_555
O16 Pr2 2.486221 1_555
O17 Pr3 2.486221 1_555
O18 Pr0 2.486221 1_555
O19 Pr1 2.486221 1_555
