# generated using pymatgen
data_LiMg
_symmetry_space_group_name_H-M   'P 1'
_cell_length_a   5.33732581
_cell_length_b   5.33732581
_cell_length_c   5.83242422
_cell_angle_alpha   64.00852280
_cell_angle_beta   64.00852280
_cell_angle_gamma   60.95281367
_symmetry_Int_Tables_number   1
_chemical_formula_structural   LiMg
_chemical_formula_sum   'Li3 Mg3'
_cell_volume   125.07031835
_cell_formula_units_Z   3
loop_
 _symmetry_equiv_pos_site_id
 _symmetry_equiv_pos_as_xyz
  1  'x, y, z'
loop_
 _atom_site_type_symbol
 _atom_site_label
 _atom_site_symmetry_multiplicity
 _atom_site_fract_x
 _atom_site_fract_y
 _atom_site_fract_z
 _atom_site_occupancy
  Li  Li0  1  0.99303718  0.33537356  0.00317532  1
  Li  Li1  1  0.66462644  0.00696282  0.99682468  1
  Li  Li2  1  0.50505756  0.49494244  0.50000000  1
  Mg  Mg0  1  0.33275712  0.66724288  0.00000000  1
  Mg  Mg1  1  0.16908729  0.16456658  0.49857433  1
  Mg  Mg2  1  0.83543342  0.83091271  0.50142567  1
loop_
_geom_bond_atom_site_label_1
_geom_bond_atom_site_label_2
_geom_bond_distance
_geom_bond_site_symmetry_2
Li0 Li1 3.040322 1_554
Li0 Li2 3.049534 1_555
Li0 Mg1 3.049847 1_655
Li0 Mg1 3.077586 1_654
Li0 Mg2 3.078968 1_554
Li0 Mg0 3.079948 1_655
Li0 Mg0 3.086123 1_555
Li0 Mg2 3.098519 1_545
Li0 Mg0 3.123182 1_645
Li0 Li1 3.124376 1_564
Li0 Li1 3.124376 1_654
Li0 Li2 3.137883 1_654
Li1 Li2 3.049534 1_555
Li1 Mg2 3.049847 1_545
Li1 Mg2 3.077586 1_546
Li1 Mg1 3.078968 1_556
Li1 Mg0 3.079948 1_546
Li1 Mg0 3.086123 1_556
Li1 Mg1 3.098519 1_655
Li1 Mg0 3.123182 1_646
Li1 Li2 3.137883 1_546
Li2 Mg0 3.061777 1_555
Li2 Mg0 3.061777 1_556
Li2 Mg1 3.069407 1_555
Li2 Mg2 3.069407 1_555
Li2 Mg2 3.096569 1_545
Li2 Mg1 3.096569 1_655
Li2 Mg2 3.122935 1_455
Li2 Mg1 3.122935 1_565
Mg0 Mg1 3.089549 1_564
Mg0 Mg2 3.089549 1_455
Mg0 Mg2 3.102998 1_554
Mg0 Mg1 3.102998 1_555
Mg1 Mg2 3.061133 1_445
Mg1 Mg2 3.113842 1_545
Mg1 Mg2 3.113842 1_455
