# generated using pymatgen
data_Li4MnCo2O7
_symmetry_space_group_name_H-M   'P 1'
_cell_length_a   2.98375410
_cell_length_b   2.98375410
_cell_length_c   34.26570132
_cell_angle_alpha   86.71075525
_cell_angle_beta   86.71075525
_cell_angle_gamma   57.53648356
_symmetry_Int_Tables_number   1
_chemical_formula_structural   Li4MnCo2O7
_chemical_formula_sum   'Li8 Mn2 Co4 O14'
_cell_volume   256.83758415
_cell_formula_units_Z   2
loop_
 _symmetry_equiv_pos_site_id
 _symmetry_equiv_pos_as_xyz
  1  'x, y, z'
loop_
 _atom_site_type_symbol
 _atom_site_label
 _atom_site_symmetry_multiplicity
 _atom_site_fract_x
 _atom_site_fract_y
 _atom_site_fract_z
 _atom_site_occupancy
  Li  Li0  1  0.72957200  0.72957200  0.92252600  1
  Li  Li1  1  0.13451400  0.13451400  0.78665500  1
  Li  Li2  1  0.56729400  0.56729400  0.64482800  1
  Li  Li3  1  0.00377300  0.00377300  0.49839400  1
  Li  Li4  1  0.42812100  0.42812100  0.35689400  1
  Li  Li5  1  0.85751700  0.85751700  0.21542300  1
  Li  Li6  1  0.28187800  0.28187800  0.07309000  1
  Li  Li7  1  0.42378600  0.42378600  0.85882200  1
  Mn  Mn0  1  0.00184600  0.00184600  0.00081400  1
  Mn  Mn1  1  0.28431800  0.28431800  0.57110100  1
  Co  Co0  1  0.85649500  0.85649500  0.71403600  1
  Co  Co1  1  0.71472400  0.71472400  0.42780100  1
  Co  Co2  1  0.14399800  0.14399800  0.28580600  1
  Co  Co3  1  0.57123400  0.57123400  0.14376800  1
  O  O0  1  0.36861500  0.36861500  0.97020600  1
  O  O1  1  0.78616200  0.78616200  0.82045300  1
  O  O2  1  0.21360500  0.21360500  0.68094400  1
  O  O3  1  0.66715200  0.66715200  0.53743200  1
  O  O4  1  0.09115600  0.09115600  0.39618700  1
  O  O5  1  0.52167000  0.52167000  0.25408400  1
  O  O6  1  0.90828000  0.90828000  0.11118100  1
  O  O7  1  0.07134600  0.07134600  0.89368300  1
  O  O8  1  0.50184600  0.50184600  0.74495700  1
  O  O9  1  0.90418700  0.90418700  0.60397500  1
  O  O10  1  0.33842200  0.33842200  0.45944500  1
  O  O11  1  0.76666000  0.76666000  0.31742000  1
  O  O12  1  0.23630700  0.23630700  0.17595400  1
  O  O13  1  0.62552200  0.62552200  0.03412200  1
loop_
_geom_bond_atom_site_label_1
_geom_bond_atom_site_label_2
_geom_bond_distance
_geom_bond_site_symmetry_2
Li0 O7 1.957287 1_655
Li0 O7 1.957287 1_565
Li0 O7 1.985378 1_665
Li0 O0 2.327206 1_655
Li0 O0 2.327206 1_565
Li0 O0 2.414652 1_555
Li1 O1 2.037845 1_455
Li1 O1 2.037845 1_545
Li1 O1 2.094141 1_445
Li1 O8 2.171398 1_545
Li1 O8 2.171398 1_455
Li1 O8 2.318243 1_555
Li2 O2 2.074441 1_655
Li2 O2 2.074441 1_565
Li2 O2 2.157490 1_555
Li2 O9 2.177673 1_555
Li2 O9 2.214942 1_455
Li2 O9 2.214942 1_545
Li3 O10 2.130663 1_555
Li3 O3 2.140465 1_445
Li3 O3 2.175189 1_455
Li3 O3 2.175189 1_545
Li3 O10 2.177728 1_455
Li3 O10 2.177728 1_545
Li4 O4 2.146870 1_555
Li4 O11 2.156849 1_555
Li4 O4 2.180020 1_565
Li4 O4 2.180020 1_655
Li4 O11 2.180479 1_455
Li4 O11 2.180479 1_545
Li5 O12 2.098904 1_565
Li5 O12 2.098904 1_655
Li5 O5 2.129938 1_555
Li5 O5 2.168697 1_655
Li5 O5 2.168697 1_565
Li5 O12 2.324726 1_665
Li6 O6 2.077452 1_545
Li6 O6 2.077452 1_455
Li6 O13 2.157986 1_455
Li6 O13 2.157986 1_545
Li6 O13 2.167957 1_555
Li6 O6 2.277907 1_445
Li7 O7 2.050726 1_655
Li7 O7 2.050726 1_565
Li7 O1 2.105414 1_545
Li7 O1 2.105414 1_455
Li7 O7 2.130136 1_555
Li7 O1 2.235059 1_555
Mn0 O0 1.934797 1_454
Mn0 O0 1.934797 1_544
Mn0 O13 1.969738 1_545
Mn0 O13 1.969738 1_455
Mn0 O0 2.125423 1_554
Mn0 O13 2.209893 1_445
Mn1 O9 1.953606 1_545
Mn1 O9 1.953606 1_455
Mn1 O3 1.965009 1_455
Mn1 O3 1.965009 1_545
Mn1 O9 2.220270 1_445
Mn1 O3 2.244753 1_555
Co0 O8 1.966777 1_655
Co0 O8 1.966777 1_565
Co0 O2 2.004362 1_565
Co0 O2 2.004362 1_655
Co0 O8 2.075303 1_555
Co0 O2 2.120851 1_665
Co1 O4 1.935203 1_655
Co1 O4 1.935203 1_565
Co1 O10 1.936053 1_655
Co1 O10 1.936053 1_565
Co1 O10 2.184258 1_555
Co1 O4 2.184399 1_665
Co2 O11 1.933451 1_455
Co2 O11 1.933451 1_545
Co2 O5 1.934965 1_455
Co2 O5 1.934965 1_545
Co2 O11 2.188519 1_445
Co2 O5 2.191653 1_555
Co3 O12 2.008196 1_555
Co3 O6 2.024238 1_555
Co3 O12 2.036829 1_655
Co3 O12 2.036829 1_565
Co3 O6 2.039628 1_545
Co3 O6 2.039628 1_455
