# generated using pymatgen
data_YbSnF7
_symmetry_space_group_name_H-M   'P 1'
_cell_length_a   6.00134000
_cell_length_b   9.20230300
_cell_length_c   11.97015478
_cell_angle_alpha   60.17770332
_cell_angle_beta   90.00000000
_cell_angle_gamma   90.00000000
_symmetry_Int_Tables_number   1
_chemical_formula_structural   YbSnF7
_chemical_formula_sum   'Yb4 Sn4 F28'
_cell_volume   573.52195670
_cell_formula_units_Z   4
loop_
 _symmetry_equiv_pos_site_id
 _symmetry_equiv_pos_as_xyz
  1  'x, y, z'
loop_
 _atom_site_type_symbol
 _atom_site_label
 _atom_site_symmetry_multiplicity
 _atom_site_fract_x
 _atom_site_fract_y
 _atom_site_fract_z
 _atom_site_occupancy
  Yb  Yb0  1  0.24794900  0.79575100  0.25529100  1
  Yb  Yb1  1  0.75205100  0.20424900  0.74470900  1
  Yb  Yb2  1  0.74794900  0.20424900  0.24470900  1
  Yb  Yb3  1  0.25205100  0.79575100  0.75529100  1
  Sn  Sn0  1  0.74614800  0.73623900  0.04093300  1
  Sn  Sn1  1  0.25385200  0.26376100  0.95906700  1
  Sn  Sn2  1  0.24614800  0.26376100  0.45906700  1
  Sn  Sn3  1  0.75385200  0.73623900  0.54093300  1
  F  F0  1  0.98024500  0.74601100  0.40976600  1
  F  F1  1  0.01975500  0.25398900  0.59023400  1
  F  F2  1  0.48024500  0.25398900  0.09023400  1
  F  F3  1  0.51975500  0.74601100  0.90976600  1
  F  F4  1  0.49547700  0.71663900  0.15589300  1
  F  F5  1  0.50452300  0.28336100  0.84410700  1
  F  F6  1  0.99547700  0.28336100  0.34410700  1
  F  F7  1  0.00452300  0.71663900  0.65589300  1
  F  F8  1  0.96906400  0.72561400  0.16759000  1
  F  F9  1  0.03093600  0.27438600  0.83241000  1
  F  F10  1  0.46906400  0.27438600  0.33241000  1
  F  F11  1  0.53093600  0.72561400  0.66759000  1
  F  F12  1  0.76014800  0.49039500  0.11371000  1
  F  F13  1  0.23985200  0.50960500  0.88629000  1
  F  F14  1  0.26014800  0.50960500  0.38629000  1
  F  F15  1  0.73985200  0.49039500  0.61371000  1
  F  F16  1  0.00643100  0.24933800  0.08369600  1
  F  F17  1  0.99356900  0.75066200  0.91630400  1
  F  F18  1  0.50643100  0.75066200  0.41630400  1
  F  F19  1  0.49356900  0.24933800  0.58369600  1
  F  F20  1  0.75351200  0.98398600  0.45193900  1
  F  F21  1  0.24648800  0.01601400  0.54806100  1
  F  F22  1  0.25351200  0.01601400  0.04806100  1
  F  F23  1  0.74648800  0.98398600  0.95193900  1
  F  F24  1  0.50751300  0.99529400  0.24891200  1
  F  F25  1  0.49248700  0.00470600  0.75108800  1
  F  F26  1  0.00751300  0.00470600  0.25108800  1
  F  F27  1  0.99248700  0.99529400  0.74891200  1
loop_
_geom_bond_atom_site_label_1
_geom_bond_atom_site_label_2
_geom_bond_distance
_geom_bond_site_symmetry_2
F0 Sn3 2.044211 1_555
F0 Yb0 2.316880 1_655
F1 Sn2 2.044211 1_555
F1 Yb1 2.316880 1_455
F2 Sn1 2.044211 1_554
F2 Yb2 2.316880 1_555
F3 Sn0 2.044211 1_556
F3 Yb3 2.316880 1_555
F4 Sn0 1.985546 1_555
F4 Yb0 2.239173 1_555
F5 Sn1 1.985546 1_555
F5 Yb1 2.239173 1_555
F6 Sn2 1.985546 1_655
F6 Yb2 2.239173 1_555
F7 Sn3 1.985546 1_455
F7 Yb3 2.239173 1_555
F8 Sn0 1.987558 1_555
F8 Yb0 2.234675 1_655
F9 Sn1 1.987558 1_555
F9 Yb1 2.234675 1_455
F10 Sn2 1.987558 1_555
F10 Yb2 2.234675 1_555
F11 Sn3 1.987558 1_555
F11 Yb3 2.234675 1_555
F12 Sn0 1.980876 1_555
F12 Yb2 2.300243 1_555
F13 Sn1 1.980876 1_555
F13 Yb3 2.300243 1_555
F14 Sn2 1.980876 1_555
F14 Yb0 2.300243 1_555
F15 Sn3 1.980876 1_555
F15 Yb1 2.300243 1_555
F16 Sn1 2.061803 1_554
F16 Yb2 2.344734 1_455
F17 Sn0 2.061803 1_556
F17 Yb3 2.344734 1_655
F18 Sn3 2.061803 1_555
F18 Yb0 2.344734 1_555
F19 Sn2 2.061803 1_555
F19 Yb1 2.344734 1_555
F20 Sn3 1.979115 1_555
F20 Yb2 2.293881 1_565
F21 Sn2 1.979115 1_555
F21 Yb3 2.293881 1_545
F22 Sn1 1.979115 1_554
F22 Yb0 2.293881 1_545
F23 Sn0 1.979115 1_556
F23 Yb1 2.293881 1_565
F24 Yb0 2.380070 1_555
F24 Yb2 2.384492 1_565
F25 Yb1 2.380070 1_555
F25 Yb3 2.384492 1_545
F26 Yb2 2.380070 1_455
F26 Yb0 2.384492 1_545
F27 Yb3 2.380070 1_655
F27 Yb1 2.384492 1_565
