# generated using pymatgen
data_Ca4Pd
_symmetry_space_group_name_H-M   'P 1'
_cell_length_a   8.25425120
_cell_length_b   8.25425120
_cell_length_c   8.25425120
_cell_angle_alpha   60.00000000
_cell_angle_beta   60.00000000
_cell_angle_gamma   60.00000000
_symmetry_Int_Tables_number   1
_chemical_formula_structural   Ca4Pd
_chemical_formula_sum   'Ca8 Pd2'
_cell_volume   397.66562142
_cell_formula_units_Z   2
loop_
 _symmetry_equiv_pos_site_id
 _symmetry_equiv_pos_as_xyz
  1  'x, y, z'
loop_
 _atom_site_type_symbol
 _atom_site_label
 _atom_site_symmetry_multiplicity
 _atom_site_fract_x
 _atom_site_fract_y
 _atom_site_fract_z
 _atom_site_occupancy
  Ca  Ca0  1  0.38411900  0.38411900  0.38411900  1
  Ca  Ca1  1  0.38411900  0.38411900  0.84764200  1
  Ca  Ca2  1  0.38411900  0.84764200  0.38411900  1
  Ca  Ca3  1  0.86588100  0.86588100  0.40235800  1
  Ca  Ca4  1  0.86588100  0.86588100  0.86588100  1
  Ca  Ca5  1  0.84764200  0.38411900  0.38411900  1
  Ca  Ca6  1  0.86588100  0.40235800  0.86588100  1
  Ca  Ca7  1  0.40235800  0.86588100  0.86588100  1
  Pd  Pd0  1  0.00000000  0.00000000  0.00000000  1
  Pd  Pd1  1  0.25000000  0.25000000  0.25000000  1
loop_
_geom_bond_atom_site_label_1
_geom_bond_atom_site_label_2
_geom_bond_distance
_geom_bond_site_symmetry_2
Ca0 Pd1 2.711712 1_555
Ca1 Pd1 2.711719 1_556
Ca2 Pd1 2.711719 1_565
Ca3 Pd0 2.711719 1_665
Ca4 Pd0 2.711712 1_666
Ca5 Pd1 2.711719 1_655
Ca6 Pd0 2.711719 1_656
Ca7 Pd0 2.711719 1_566
