# generated using pymatgen
data_LaPr(MnSi)4
_symmetry_space_group_name_H-M   'P 1'
_cell_length_a   3.99656100
_cell_length_b   3.99656100
_cell_length_c   10.58840300
_cell_angle_alpha   90.00000000
_cell_angle_beta   90.00000000
_cell_angle_gamma   90.00000000
_symmetry_Int_Tables_number   1
_chemical_formula_structural   LaPr(MnSi)4
_chemical_formula_sum   'La1 Pr1 Mn4 Si4'
_cell_volume   169.12326508
_cell_formula_units_Z   1
loop_
 _symmetry_equiv_pos_site_id
 _symmetry_equiv_pos_as_xyz
  1  'x, y, z'
loop_
 _atom_site_type_symbol
 _atom_site_label
 _atom_site_symmetry_multiplicity
 _atom_site_fract_x
 _atom_site_fract_y
 _atom_site_fract_z
 _atom_site_occupancy
  La  La0  1  0.00000000  0.00000000  0.00000000  1
  Pr  Pr0  1  0.50000000  0.50000000  0.50000000  1
  Mn  Mn0  1  0.00000000  0.50000000  0.25065200  1
  Mn  Mn1  1  0.50000000  0.00000000  0.74934800  1
  Mn  Mn2  1  0.50000000  0.00000000  0.25065200  1
  Mn  Mn3  1  0.00000000  0.50000000  0.74934800  1
  Si  Si0  1  0.50000000  0.50000000  0.12856000  1
  Si  Si1  1  0.00000000  0.00000000  0.62637300  1
  Si  Si2  1  0.00000000  0.00000000  0.37362700  1
  Si  Si3  1  0.50000000  0.50000000  0.87144000  1
loop_
_geom_bond_atom_site_label_1
_geom_bond_atom_site_label_2
_geom_bond_distance
_geom_bond_site_symmetry_2
La0 Si3 3.136756 1_454
La0 Si0 3.136756 1_445
La0 Si3 3.136756 1_544
La0 Si0 3.136756 1_555
La0 Si0 3.136756 1_545
La0 Si3 3.136756 1_554
La0 Si0 3.136756 1_455
La0 Si3 3.136756 1_444
La0 Mn0 3.322178 1_545
La0 Mn2 3.322178 1_455
La0 Mn3 3.322178 1_554
La0 Mn2 3.322178 1_555
La0 Mn1 3.322178 1_554
La0 Mn3 3.322178 1_544
La0 Mn0 3.322178 1_555
La0 Mn1 3.322178 1_454
Pr0 Si1 3.126776 1_555
Pr0 Si2 3.126776 1_555
Pr0 Si1 3.126776 1_655
Pr0 Si1 3.126776 1_665
Pr0 Si2 3.126776 1_655
Pr0 Si2 3.126776 1_565
Pr0 Si2 3.126776 1_665
Pr0 Si1 3.126776 1_565
Mn0 Si0 2.379990 1_555
Mn0 Si0 2.379990 1_455
Mn0 Si2 2.385081 1_555
Mn0 Si2 2.385081 1_565
Mn0 Pr0 3.311158 1_555
Mn0 Pr0 3.311158 1_455
Mn1 Si3 2.379990 1_545
Mn1 Si3 2.379990 1_555
Mn1 Si1 2.385081 1_555
Mn1 Si1 2.385081 1_655
Mn1 Pr0 3.311158 1_545
Mn1 Pr0 3.311158 1_555
Mn2 Si0 2.379990 1_555
Mn2 Si0 2.379990 1_545
Mn2 Si2 2.385081 1_655
Mn2 Si2 2.385081 1_555
Mn2 Pr0 3.311158 1_545
Mn2 Pr0 3.311158 1_555
Mn3 Si3 2.379990 1_455
Mn3 Si3 2.379990 1_555
Mn3 Si1 2.385081 1_565
Mn3 Si1 2.385081 1_555
Mn3 Pr0 3.311158 1_555
Mn3 Pr0 3.311158 1_455
Si0 Si3 2.722490 1_554
Si1 Si2 2.676177 1_555
