# generated using pymatgen
data_Sr10Mg5Mo(W2O15)2
_symmetry_space_group_name_H-M   'P 1'
_cell_length_a   5.66083300
_cell_length_b   5.67196964
_cell_length_c   23.35786372
_cell_angle_alpha   89.77404671
_cell_angle_beta   96.86688952
_cell_angle_gamma   119.72351106
_symmetry_Int_Tables_number   1
_chemical_formula_structural   Sr10Mg5Mo(W2O15)2
_chemical_formula_sum   'Sr10 Mg5 Mo1 W4 O30'
_cell_volume   645.29500408
_cell_formula_units_Z   1
loop_
 _symmetry_equiv_pos_site_id
 _symmetry_equiv_pos_as_xyz
  1  'x, y, z'
loop_
 _atom_site_type_symbol
 _atom_site_label
 _atom_site_symmetry_multiplicity
 _atom_site_fract_x
 _atom_site_fract_y
 _atom_site_fract_z
 _atom_site_occupancy
  Sr  Sr0  1  0.49940200  0.24948400  0.74982700  1
  Sr  Sr1  1  0.69943800  0.84950900  0.54981700  1
  Sr  Sr2  1  0.89944600  0.44950600  0.34981100  1
  Sr  Sr3  1  0.09921200  0.04941700  0.14916700  1
  Sr  Sr4  1  0.29983000  0.64985700  0.95043100  1
  Sr  Sr5  1  0.90078800  0.95058300  0.85083300  1
  Sr  Sr6  1  0.10055400  0.55049400  0.65018900  1
  Sr  Sr7  1  0.30056200  0.15049100  0.45018300  1
  Sr  Sr8  1  0.50059800  0.75051600  0.25017300  1
  Sr  Sr9  1  0.70017000  0.35014300  0.04956900  1
  Mg  Mg0  1  0.59991600  0.30001100  0.89979200  1
  Mg  Mg1  1  0.80001400  0.90000400  0.70006700  1
  Mg  Mg2  1  0.00000000  0.50000000  0.50000000  1
  Mg  Mg3  1  0.19998600  0.09999600  0.29993300  1
  Mg  Mg4  1  0.40008400  0.69998900  0.10020800  1
  Mo  Mo0  1  0.00000000  0.00000000  0.00000000  1
  W  W0  1  0.20001100  0.59997900  0.79994500  1
  W  W1  1  0.39992800  0.19995100  0.59996000  1
  W  W2  1  0.60007200  0.80004900  0.40004000  1
  W  W3  1  0.79998900  0.40002100  0.20005500  1
  O  O0  1  0.01414700  0.25177900  0.75477500  1
  O  O1  1  0.21405800  0.85165800  0.55469100  1
  O  O2  1  0.41401800  0.45153700  0.35466200  1
  O  O3  1  0.61392700  0.05139800  0.15457700  1
  O  O4  1  0.81439000  0.65246100  0.95478000  1
  O  O5  1  0.38607300  0.94860200  0.84542300  1
  O  O6  1  0.58598200  0.54846300  0.64533800  1
  O  O7  1  0.78594200  0.14834200  0.44530900  1
  O  O8  1  0.98585300  0.74822100  0.24522500  1
  O  O9  1  0.18561000  0.34753900  0.04522000  1
  O  O10  1  0.13824100  0.04044900  0.65556000  1
  O  O11  1  0.33834100  0.64048400  0.45551400  1
  O  O12  1  0.53852700  0.24060800  0.25546100  1
  O  O13  1  0.73849900  0.84076600  0.05526200  1
  O  O14  1  0.93834000  0.44050600  0.85569900  1
  O  O15  1  0.26150100  0.15923400  0.94473800  1
  O  O16  1  0.46147300  0.75939200  0.74453900  1
  O  O17  1  0.66165900  0.35951600  0.54448600  1
  O  O18  1  0.86175900  0.95955100  0.34444000  1
  O  O19  1  0.06166000  0.55949400  0.14430100  1
  O  O20  1  0.64111700  0.09098300  0.64451800  1
  O  O21  1  0.84107100  0.69102900  0.44449400  1
  O  O22  1  0.04099700  0.29107900  0.24442100  1
  O  O23  1  0.24031300  0.89101200  0.04437600  1
  O  O24  1  0.44118900  0.49102200  0.84460700  1
  O  O25  1  0.75968700  0.10898800  0.95562400  1
  O  O26  1  0.95900300  0.70892100  0.75557900  1
  O  O27  1  0.15892900  0.30897100  0.55550600  1
  O  O28  1  0.35888300  0.90901700  0.35548200  1
  O  O29  1  0.55881100  0.50897800  0.15539300  1
loop_
_geom_bond_atom_site_label_1
_geom_bond_atom_site_label_2
_geom_bond_distance
_geom_bond_site_symmetry_2
Mg0 O5 2.076212 1_545
Mg0 O14 2.077830 1_555
Mg0 O24 2.078463 1_555
Mg0 O4 2.088218 1_555
Mg0 O15 2.089773 1_555
Mg0 O25 2.090739 1_555
Mg1 O6 2.081351 1_555
Mg1 O0 2.081994 1_665
Mg1 O10 2.082830 1_665
Mg1 O16 2.083666 1_555
Mg1 O20 2.083749 1_565
Mg1 O26 2.084010 1_555
Mg2 O7 2.081316 1_455
Mg2 O1 2.081316 1_555
Mg2 O17 2.083025 1_455
Mg2 O11 2.083025 1_555
Mg2 O21 2.083497 1_455
Mg2 O27 2.083497 1_555
Mg3 O2 2.081351 1_555
Mg3 O8 2.081994 1_445
Mg3 O18 2.082830 1_445
Mg3 O12 2.083666 1_555
Mg3 O28 2.083749 1_545
Mg3 O22 2.084010 1_555
Mg4 O3 2.076212 1_565
Mg4 O19 2.077830 1_555
Mg4 O29 2.078463 1_555
Mg4 O9 2.088218 1_555
Mg4 O13 2.089773 1_555
Mg4 O23 2.090739 1_555
Mo0 O13 1.948116 1_445
Mo0 O15 1.948116 1_554
Mo0 O23 1.949056 1_545
Mo0 O25 1.949056 1_454
Mo0 O9 1.950019 1_555
Mo0 O4 1.950019 1_444
O0 W0 1.952216 1_555
O0 Sr5 2.755273 1_445
O0 Sr0 2.769591 1_555
O0 Sr0 2.895880 1_455
O0 Sr6 2.917016 1_555
O1 W1 1.953720 1_565
O1 Sr6 2.744225 1_555
O1 Sr1 2.769610 1_555
O1 Sr1 2.895722 1_455
O1 Sr7 2.915778 1_565
O2 W2 1.955843 1_555
O2 Sr7 2.744332 1_555
O2 Sr2 2.769464 1_555
O2 Sr2 2.895825 1_455
O2 Sr8 2.915800 1_555
O3 W3 1.957437 1_555
O3 Sr8 2.745318 1_545
O3 Sr3 2.770628 1_655
O3 Sr3 2.895744 1_555
O3 Sr9 2.925553 1_555
O4 Sr9 2.733759 1_556
O4 Sr4 2.769300 1_655
O4 Sr4 2.895126 1_555
O4 Sr5 2.902594 1_555
O5 W0 1.957437 1_555
O5 Sr0 2.745318 1_565
O5 Sr5 2.770628 1_455
O5 Sr5 2.895744 1_555
O5 Sr4 2.925553 1_555
O6 W1 1.955843 1_555
O6 Sr1 2.744332 1_555
O6 Sr6 2.769464 1_555
O6 Sr6 2.895825 1_655
O6 Sr0 2.915800 1_555
O7 W2 1.953720 1_545
O7 Sr2 2.744225 1_555
O7 Sr7 2.769610 1_555
O7 Sr7 2.895722 1_655
O7 Sr1 2.915778 1_545
O8 W3 1.952216 1_555
O8 Sr3 2.755273 1_665
O8 Sr8 2.769591 1_555
O8 Sr8 2.895880 1_655
O8 Sr2 2.917016 1_555
O9 Sr4 2.733759 1_554
O9 Sr9 2.769300 1_455
O9 Sr9 2.895126 1_555
O9 Sr3 2.902594 1_555
O10 W1 1.954825 1_555
O10 Sr0 2.640884 1_555
O10 Sr6 2.681900 1_545
O10 Sr6 3.005532 1_555
O10 Sr1 3.054505 1_445
O11 W2 1.952791 1_555
O11 Sr1 2.641341 1_555
O11 Sr7 2.681847 1_555
O11 Sr7 3.005573 1_565
O11 Sr2 3.054111 1_455
O12 W3 1.950597 1_555
O12 Sr2 2.641653 1_555
O12 Sr8 2.681993 1_545
O12 Sr8 3.005445 1_555
O12 Sr3 3.065189 1_555
O13 Sr3 2.633310 1_665
O13 Sr9 2.684401 1_555
O13 Sr9 3.003959 1_565
O13 Sr4 3.038953 1_554
O14 W0 1.957467 1_655
O14 Sr4 2.649925 1_655
O14 Sr5 2.681593 1_545
O14 Sr5 3.004973 1_555
O14 Sr0 3.057045 1_555
O15 Sr5 2.633310 1_445
O15 Sr4 2.684401 1_555
O15 Sr4 3.003959 1_545
O15 Sr9 3.038953 1_556
O16 W0 1.950597 1_555
O16 Sr6 2.641653 1_555
O16 Sr0 2.681993 1_565
O16 Sr0 3.005445 1_555
O16 Sr5 3.065189 1_555
O17 W1 1.952791 1_555
O17 Sr7 2.641341 1_555
O17 Sr1 2.681847 1_555
O17 Sr1 3.005573 1_545
O17 Sr6 3.054111 1_655
O18 W2 1.954825 1_555
O18 Sr8 2.640884 1_555
O18 Sr2 2.681900 1_565
O18 Sr2 3.005532 1_555
O18 Sr7 3.054505 1_665
O19 W3 1.957467 1_455
O19 Sr9 2.649925 1_455
O19 Sr3 2.681593 1_565
O19 Sr3 3.004973 1_555
O19 Sr8 3.057045 1_555
O20 W1 1.954808 1_555
O20 Sr6 2.602536 1_655
O20 Sr1 2.743139 1_545
O20 Sr0 2.950738 1_555
O20 Sr6 3.093668 1_545
O21 W2 1.953065 1_555
O21 Sr7 2.602520 1_665
O21 Sr2 2.743091 1_555
O21 Sr1 2.950727 1_555
O21 Sr7 3.093720 1_555
O22 W3 1.951895 1_455
O22 Sr8 2.602663 1_555
O22 Sr3 2.754096 1_555
O22 Sr2 2.951709 1_455
O22 Sr8 3.093709 1_445
O23 Sr9 2.603376 1_565
O23 Sr4 2.730768 1_554
O23 Sr3 2.938189 1_565
O23 Sr9 3.091819 1_455
O24 W0 1.955807 1_555
O24 Sr5 2.602329 1_555
O24 Sr0 2.744578 1_555
O24 Sr4 2.960964 1_555
O24 Sr5 3.095129 1_445
O25 Sr4 2.603376 1_545
O25 Sr9 2.730768 1_556
O25 Sr5 2.938189 1_545
O25 Sr4 3.091819 1_655
O26 W0 1.951895 1_655
O26 Sr0 2.602663 1_555
O26 Sr5 2.754096 1_555
O26 Sr6 2.951709 1_655
O26 Sr0 3.093709 1_665
O27 W1 1.953065 1_555
O27 Sr1 2.602520 1_445
O27 Sr6 2.743091 1_555
O27 Sr7 2.950727 1_555
O27 Sr1 3.093720 1_555
O28 W2 1.954808 1_555
O28 Sr2 2.602536 1_455
O28 Sr7 2.743139 1_565
O28 Sr8 2.950738 1_555
O28 Sr2 3.093668 1_565
O29 W3 1.955807 1_555
O29 Sr3 2.602329 1_555
O29 Sr8 2.744578 1_555
O29 Sr9 2.960964 1_555
O29 Sr3 3.095129 1_665
