# generated using pymatgen
data_Sr4CaYCu6(PbO4)4
_symmetry_space_group_name_H-M   'P 1'
_cell_length_a   16.47759997
_cell_length_b   16.47759997
_cell_length_c   16.47759997
_cell_angle_alpha   161.11611045
_cell_angle_beta   161.11611045
_cell_angle_gamma   26.82959578
_symmetry_Int_Tables_number   1
_chemical_formula_structural   Sr4CaYCu6(PbO4)4
_chemical_formula_sum   'Sr4 Ca1 Y1 Cu6 Pb4 O16'
_cell_volume   468.45799375
_cell_formula_units_Z   1
loop_
 _symmetry_equiv_pos_site_id
 _symmetry_equiv_pos_as_xyz
  1  'x, y, z'
loop_
 _atom_site_type_symbol
 _atom_site_label
 _atom_site_symmetry_multiplicity
 _atom_site_fract_x
 _atom_site_fract_y
 _atom_site_fract_z
 _atom_site_occupancy
  Sr  Sr0  1  0.10900100  0.10900100  0.00000000  1
  Sr  Sr1  1  0.60976400  0.60976400  0.00000000  1
  Sr  Sr2  1  0.39023600  0.39023600  0.00000000  1
  Sr  Sr3  1  0.89099900  0.89099900  0.00000000  1
  Ca  Ca0  1  0.00000000  0.00000000  0.00000000  1
  Y  Y0  1  0.50000000  0.50000000  0.00000000  1
  Cu  Cu0  1  0.05322300  0.55322300  0.50000000  1
  Cu  Cu1  1  0.55322300  0.05322300  0.50000000  1
  Cu  Cu2  1  0.44677700  0.94677700  0.50000000  1
  Cu  Cu3  1  0.94677700  0.44677700  0.50000000  1
  Cu  Cu4  1  0.24990700  0.24990700  0.00000000  1
  Cu  Cu5  1  0.75009300  0.75009300  0.00000000  1
  Pb  Pb0  1  0.19371200  0.69371200  0.50000000  1
  Pb  Pb1  1  0.69371200  0.19371200  0.50000000  1
  Pb  Pb2  1  0.30628800  0.80628800  0.50000000  1
  Pb  Pb3  1  0.80628800  0.30628800  0.50000000  1
  O  O0  1  0.12581600  0.62581600  0.50000000  1
  O  O1  1  0.62581600  0.12581600  0.50000000  1
  O  O2  1  0.37418400  0.87418400  0.50000000  1
  O  O3  1  0.87418400  0.37418400  0.50000000  1
  O  O4  1  0.30256200  0.79260600  0.00000000  1
  O  O5  1  0.79260600  0.30256200  0.00000000  1
  O  O6  1  0.69743800  0.69743800  0.49004500  1
  O  O7  1  0.20739400  0.20739400  0.50995500  1
  O  O8  1  0.69743800  0.20739400  0.00000000  1
  O  O9  1  0.20739400  0.69743800  0.00000000  1
  O  O10  1  0.30256200  0.30256200  0.50995500  1
  O  O11  1  0.79260600  0.79260600  0.49004500  1
  O  O12  1  0.19190900  0.19190900  0.00000000  1
  O  O13  1  0.69210300  0.69210300  0.00000000  1
  O  O14  1  0.30789700  0.30789700  0.00000000  1
  O  O15  1  0.80809100  0.80809100  0.00000000  1
loop_
_geom_bond_atom_site_label_1
_geom_bond_atom_site_label_2
_geom_bond_distance
_geom_bond_site_symmetry_2
Ca0 O7 2.475281 1_555
Ca0 O11 2.475281 1_444
Ca0 O5 2.475294 1_455
Ca0 O4 2.475294 1_545
Ca0 O9 2.475294 1_545
Ca0 O8 2.475294 1_455
Ca0 O6 2.475301 1_444
Ca0 O10 2.475301 1_555
Cu0 O10 1.920299 1_555
Cu0 O5 1.920300 1_455
Cu0 O4 1.920300 1_556
Cu0 O11 1.920302 1_455
Cu0 O0 2.327045 1_555
Cu1 O10 1.920299 1_555
Cu1 O5 1.920300 1_556
Cu1 O4 1.920300 1_545
Cu1 O11 1.920302 1_545
Cu1 O1 2.327045 1_555
Cu2 O6 1.920299 1_555
Cu2 O9 1.920300 1_555
Cu2 O8 1.920300 1_566
Cu2 O7 1.920302 1_565
Cu2 O2 2.327045 1_555
Cu3 O6 1.920299 1_555
Cu3 O9 1.920300 1_656
Cu3 O8 1.920300 1_555
Cu3 O7 1.920302 1_655
Cu3 O3 2.327045 1_555
Cu4 O14 1.858930 1_555
Cu4 O12 1.859187 1_555
Cu5 O13 1.858930 1_555
Cu5 O15 1.859187 1_555
O0 Pb0 2.176478 1_555
O0 Sr1 2.751660 1_455
O0 Sr1 2.751660 1_556
O0 Sr0 2.756339 1_555
O0 Sr0 2.756339 1_566
O1 Pb1 2.176478 1_555
O1 Sr1 2.751660 1_545
O1 Sr1 2.751660 1_556
O1 Sr0 2.756339 1_555
O1 Sr0 2.756339 1_656
O2 Pb2 2.176478 1_555
O2 Sr2 2.751660 1_566
O2 Sr2 2.751660 1_555
O2 Sr3 2.756339 1_455
O2 Sr3 2.756339 1_556
O3 Pb3 2.176478 1_555
O3 Sr2 2.751660 1_656
O3 Sr2 2.751660 1_555
O3 Sr3 2.756339 1_545
O3 Sr3 2.756339 1_556
O4 Y0 2.415800 1_555
O4 Sr1 2.735399 1_555
O4 Sr0 2.770648 1_565
O5 Y0 2.415800 1_555
O5 Sr1 2.735399 1_555
O5 Sr0 2.770648 1_655
O6 Y0 2.415813 1_555
O6 Sr2 2.735390 1_555
O6 Sr3 2.770634 1_556
O7 Y0 2.415793 1_556
O7 Sr2 2.735414 1_556
O7 Sr3 2.770657 1_445
O8 Y0 2.415800 1_555
O8 Sr2 2.735399 1_555
O8 Sr3 2.770648 1_545
O9 Y0 2.415800 1_555
O9 Sr2 2.735399 1_555
O9 Sr3 2.770648 1_455
O10 Y0 2.415813 1_556
O10 Sr1 2.735390 1_556
O10 Sr0 2.770634 1_555
O11 Y0 2.415793 1_555
O11 Sr1 2.735414 1_555
O11 Sr0 2.770657 1_666
O12 Sr0 2.657703 1_555
O12 Pb1 2.703738 1_454
O12 Pb1 2.703738 1_555
O12 Pb0 2.703738 1_544
O12 Pb0 2.703738 1_555
O13 Sr1 2.639463 1_555
O13 Pb0 2.703612 1_554
O13 Pb1 2.703612 1_554
O13 Pb0 2.703612 1_655
O13 Pb1 2.703612 1_565
O14 Sr2 2.639463 1_555
O14 Pb3 2.703612 1_454
O14 Pb2 2.703612 1_555
O14 Pb3 2.703612 1_555
O14 Pb2 2.703612 1_544
O15 Sr3 2.657703 1_555
O15 Pb2 2.703738 1_655
O15 Pb2 2.703738 1_554
O15 Pb3 2.703738 1_554
O15 Pb3 2.703738 1_565
