# generated using pymatgen
data_MnZnS4
_symmetry_space_group_name_H-M   'P 1'
_cell_length_a   5.72586200
_cell_length_b   5.71581300
_cell_length_c   5.74196290
_cell_angle_alpha   89.56709164
_cell_angle_beta   90.00000000
_cell_angle_gamma   90.00000000
_symmetry_Int_Tables_number   1
_chemical_formula_structural   MnZnS4
_chemical_formula_sum   'Mn2 Zn2 S8'
_cell_volume   187.91734765
_cell_formula_units_Z   2
loop_
 _symmetry_equiv_pos_site_id
 _symmetry_equiv_pos_as_xyz
  1  'x, y, z'
loop_
 _atom_site_type_symbol
 _atom_site_label
 _atom_site_symmetry_multiplicity
 _atom_site_fract_x
 _atom_site_fract_y
 _atom_site_fract_z
 _atom_site_occupancy
  Mn  Mn0  1  0.00000000  0.50000000  0.50000000  1
  Mn  Mn1  1  0.50000000  0.00000000  0.50000000  1
  Zn  Zn0  1  0.00000000  0.00000000  0.00000000  1
  Zn  Zn1  1  0.50000000  0.50000000  0.00000000  1
  S  S0  1  0.59589300  0.09518600  0.12681500  1
  S  S1  1  0.09589300  0.40481400  0.87318500  1
  S  S2  1  0.37650300  0.62477700  0.41231500  1
  S  S3  1  0.87650300  0.87522300  0.58768500  1
  S  S4  1  0.40410700  0.90481400  0.87318500  1
  S  S5  1  0.90410700  0.59518600  0.12681500  1
  S  S6  1  0.62349700  0.37522300  0.58768500  1
  S  S7  1  0.12349700  0.12477700  0.41231500  1
loop_
_geom_bond_atom_site_label_1
_geom_bond_atom_site_label_2
_geom_bond_distance
_geom_bond_site_symmetry_2
Mn0 S1 2.274098 1_555
Mn0 S5 2.274098 1_455
Mn0 S7 2.317240 1_555
Mn0 S3 2.317240 1_455
Mn0 S2 2.324698 1_555
Mn0 S6 2.324698 1_455
Mn1 S0 2.274098 1_555
Mn1 S4 2.274098 1_545
Mn1 S6 2.317240 1_555
Mn1 S2 2.317240 1_545
Mn1 S3 2.324698 1_545
Mn1 S7 2.324698 1_555
S0 S4 2.129506 1_544
S0 Zn1 2.481956 1_555
S0 Zn0 2.487202 1_655
S1 S5 2.129506 1_456
S1 Zn0 2.481956 1_556
S1 Zn1 2.487202 1_556
S2 S6 2.242102 1_555
S2 Zn1 2.576673 1_555
S3 S7 2.242102 1_665
S3 Zn0 2.576673 1_666
S4 Zn1 2.481956 1_556
S4 Zn0 2.487202 1_566
S5 Zn0 2.481956 1_665
S5 Zn1 2.487202 1_555
S6 Zn1 2.576673 1_556
S7 Zn0 2.576673 1_555
