# generated using pymatgen
data_Sn2Mo15Se19
_symmetry_space_group_name_H-M   'P 1'
_cell_length_a   19.99848939
_cell_length_b   19.99848939
_cell_length_c   19.99848957
_cell_angle_alpha   28.46026113
_cell_angle_beta   28.46026113
_cell_angle_gamma   28.46026174
_symmetry_Int_Tables_number   1
_chemical_formula_structural   Sn2Mo15Se19
_chemical_formula_sum   'Sn4 Mo30 Se38'
_cell_volume   1605.33764830
_cell_formula_units_Z   2
loop_
 _symmetry_equiv_pos_site_id
 _symmetry_equiv_pos_as_xyz
  1  'x, y, z'
loop_
 _atom_site_type_symbol
 _atom_site_label
 _atom_site_symmetry_multiplicity
 _atom_site_fract_x
 _atom_site_fract_y
 _atom_site_fract_z
 _atom_site_occupancy
  Sn  Sn0  1  0.88370900  0.88370900  0.88370900  1
  Sn  Sn1  1  0.38370900  0.38370900  0.38370900  1
  Sn  Sn2  1  0.11629100  0.11629100  0.11629100  1
  Sn  Sn3  1  0.61629100  0.61629100  0.61629100  1
  Mo  Mo0  1  0.81324800  0.99985500  0.12716100  1
  Mo  Mo1  1  0.12716100  0.81324800  0.99985500  1
  Mo  Mo2  1  0.99985500  0.12716100  0.81324800  1
  Mo  Mo3  1  0.62716100  0.49985500  0.31324800  1
  Mo  Mo4  1  0.31324800  0.62716100  0.49985500  1
  Mo  Mo5  1  0.49985500  0.31324800  0.62716100  1
  Mo  Mo6  1  0.18675200  0.00014500  0.87283900  1
  Mo  Mo7  1  0.87283900  0.18675200  0.00014500  1
  Mo  Mo8  1  0.00014500  0.87283900  0.18675200  1
  Mo  Mo9  1  0.37283900  0.50014500  0.68675200  1
  Mo  Mo10  1  0.68675200  0.37283900  0.50014500  1
  Mo  Mo11  1  0.50014500  0.68675200  0.37283900  1
  Mo  Mo12  1  0.64032900  0.77747400  0.95044900  1
  Mo  Mo13  1  0.95044900  0.64032900  0.77747400  1
  Mo  Mo14  1  0.77747400  0.95044900  0.64032900  1
  Mo  Mo15  1  0.45044900  0.27747400  0.14032900  1
  Mo  Mo16  1  0.14032900  0.45044900  0.27747400  1
  Mo  Mo17  1  0.27747400  0.14032900  0.45044900  1
  Mo  Mo18  1  0.35967100  0.22252600  0.04955100  1
  Mo  Mo19  1  0.04955100  0.35967100  0.22252600  1
  Mo  Mo20  1  0.22252600  0.04955100  0.35967100  1
  Mo  Mo21  1  0.54955100  0.72252600  0.85967100  1
  Mo  Mo22  1  0.85967100  0.54955100  0.72252600  1
  Mo  Mo23  1  0.72252600  0.85967100  0.54955100  1
  Mo  Mo24  1  0.59056100  0.90943900  0.75000000  1
  Mo  Mo25  1  0.75000000  0.59056100  0.90943900  1
  Mo  Mo26  1  0.90943900  0.75000000  0.59056100  1
  Mo  Mo27  1  0.25000000  0.40943900  0.09056100  1
  Mo  Mo28  1  0.09056100  0.25000000  0.40943900  1
  Mo  Mo29  1  0.40943900  0.09056100  0.25000000  1
  Se  Se0  1  0.94230400  0.69930600  0.30676300  1
  Se  Se1  1  0.30676300  0.94230400  0.69930600  1
  Se  Se2  1  0.69930600  0.30676300  0.94230400  1
  Se  Se3  1  0.80676300  0.19930600  0.44230400  1
  Se  Se4  1  0.44230400  0.80676300  0.19930600  1
  Se  Se5  1  0.19930600  0.44230400  0.80676300  1
  Se  Se6  1  0.05769600  0.30069400  0.69323700  1
  Se  Se7  1  0.69323700  0.05769600  0.30069400  1
  Se  Se8  1  0.30069400  0.69323700  0.05769600  1
  Se  Se9  1  0.19323700  0.80069400  0.55769600  1
  Se  Se10  1  0.55769600  0.19323700  0.80069400  1
  Se  Se11  1  0.80069400  0.55769600  0.19323700  1
  Se  Se12  1  0.45339700  0.07791700  0.82660600  1
  Se  Se13  1  0.82660600  0.45339700  0.07791700  1
  Se  Se14  1  0.07791700  0.82660600  0.45339700  1
  Se  Se15  1  0.32660600  0.57791700  0.95339700  1
  Se  Se16  1  0.95339700  0.32660600  0.57791700  1
  Se  Se17  1  0.57791700  0.95339700  0.32660600  1
  Se  Se18  1  0.54660300  0.92208300  0.17339400  1
  Se  Se19  1  0.17339400  0.54660300  0.92208300  1
  Se  Se20  1  0.92208300  0.17339400  0.54660300  1
  Se  Se21  1  0.67339400  0.42208300  0.04660300  1
  Se  Se22  1  0.04660300  0.67339400  0.42208300  1
  Se  Se23  1  0.42208300  0.04660300  0.67339400  1
  Se  Se24  1  0.05703800  0.44296200  0.75000000  1
  Se  Se25  1  0.75000000  0.05703800  0.44296200  1
  Se  Se26  1  0.44296200  0.75000000  0.05703800  1
  Se  Se27  1  0.25000000  0.94296200  0.55703800  1
  Se  Se28  1  0.55703800  0.25000000  0.94296200  1
  Se  Se29  1  0.94296200  0.55703800  0.25000000  1
  Se  Se30  1  0.94430200  0.94430200  0.94430200  1
  Se  Se31  1  0.44430200  0.44430200  0.44430200  1
  Se  Se32  1  0.05569800  0.05569800  0.05569800  1
  Se  Se33  1  0.55569800  0.55569800  0.55569800  1
  Se  Se34  1  0.82521400  0.82521400  0.82521400  1
  Se  Se35  1  0.32521400  0.32521400  0.32521400  1
  Se  Se36  1  0.17478600  0.17478600  0.17478600  1
  Se  Se37  1  0.67478600  0.67478600  0.67478600  1
loop_
_geom_bond_atom_site_label_1
_geom_bond_atom_site_label_2
_geom_bond_distance
_geom_bond_site_symmetry_2
Mo0 Se30 2.578366 1_554
Mo0 Se7 2.583381 1_565
Mo0 Se0 2.598689 1_555
Mo0 Se2 2.618195 1_564
Mo0 Se17 2.662287 1_555
Mo1 Se30 2.578366 1_455
Mo1 Se8 2.583381 1_556
Mo1 Se1 2.598689 1_555
Mo1 Se0 2.618195 1_456
Mo1 Se15 2.662287 1_555
Mo2 Se30 2.578366 1_545
Mo2 Se6 2.583381 1_655
Mo2 Se2 2.598689 1_555
Mo2 Se1 2.618195 1_645
Mo2 Se16 2.662287 1_555
Mo3 Se31 2.578366 1_555
Mo3 Se11 2.583381 1_555
Mo3 Se3 2.598689 1_555
Mo3 Se4 2.618195 1_555
Mo3 Se13 2.662287 1_555
Mo4 Se31 2.578366 1_555
Mo4 Se9 2.583381 1_555
Mo4 Se4 2.598689 1_555
Mo4 Se5 2.618195 1_555
Mo4 Se14 2.662287 1_555
Mo5 Se31 2.578366 1_555
Mo5 Se10 2.583381 1_555
Mo5 Se5 2.598689 1_555
Mo5 Se3 2.618195 1_555
Mo5 Se12 2.662287 1_555
Mo6 Se32 2.578366 1_556
Mo6 Se1 2.583381 1_545
Mo6 Se6 2.598689 1_555
Mo6 Se8 2.618195 1_546
Mo6 Se23 2.662287 1_555
Mo7 Se32 2.578366 1_655
Mo7 Se2 2.583381 1_554
Mo7 Se7 2.598689 1_555
Mo7 Se6 2.618195 1_654
Mo7 Se21 2.662287 1_555
Mo8 Se32 2.578366 1_565
Mo8 Se0 2.583381 1_455
Mo8 Se8 2.598689 1_555
Mo8 Se7 2.618195 1_465
Mo8 Se22 2.662287 1_555
Mo9 Se33 2.578366 1_555
Mo9 Se5 2.583381 1_555
Mo9 Se9 2.598689 1_555
Mo9 Se10 2.618195 1_555
Mo9 Se19 2.662287 1_555
Mo10 Se33 2.578366 1_555
Mo10 Se3 2.583381 1_555
Mo10 Se10 2.598689 1_555
Mo10 Se11 2.618195 1_555
Mo10 Se20 2.662287 1_555
Mo11 Se33 2.578366 1_555
Mo11 Se4 2.583381 1_555
Mo11 Se11 2.598689 1_555
Mo11 Se9 2.618195 1_555
Mo11 Se18 2.662287 1_555
Mo12 Se34 2.564236 1_555
Mo12 Se12 2.613552 1_565
Mo12 Se4 2.680893 1_556
Mo12 Se26 2.717550 1_556
Mo12 Se13 2.752503 1_556
Mo13 Se34 2.564236 1_555
Mo13 Se13 2.613552 1_556
Mo13 Se5 2.680893 1_655
Mo13 Se24 2.717550 1_655
Mo13 Se14 2.752502 1_655
Mo14 Se34 2.564236 1_555
Mo14 Se14 2.613552 1_655
Mo14 Se3 2.680893 1_565
Mo14 Se25 2.717550 1_565
Mo14 Se12 2.752502 1_565
Mo15 Se35 2.564236 1_555
Mo15 Se15 2.613552 1_554
Mo15 Se2 2.680893 1_554
Mo15 Se28 2.717550 1_554
Mo15 Se17 2.752502 1_545
Mo16 Se35 2.564236 1_555
Mo16 Se16 2.613552 1_455
Mo16 Se0 2.680893 1_455
Mo16 Se29 2.717550 1_455
Mo16 Se15 2.752502 1_554
Mo17 Se35 2.564236 1_555
Mo17 Se17 2.613552 1_545
Mo17 Se1 2.680893 1_545
Mo17 Se27 2.717550 1_545
Mo17 Se16 2.752503 1_455
Mo18 Se36 2.564236 1_555
Mo18 Se18 2.613552 1_545
Mo18 Se10 2.680893 1_554
Mo18 Se28 2.717550 1_554
Mo18 Se19 2.752503 1_554
Mo19 Se36 2.564236 1_555
Mo19 Se19 2.613552 1_554
Mo19 Se11 2.680893 1_455
Mo19 Se29 2.717550 1_455
Mo19 Se20 2.752502 1_455
Mo20 Se36 2.564236 1_555
Mo20 Se20 2.613552 1_455
Mo20 Se9 2.680893 1_545
Mo20 Se27 2.717550 1_545
Mo20 Se18 2.752502 1_545
Mo21 Se37 2.564236 1_555
Mo21 Se21 2.613552 1_556
Mo21 Se8 2.680893 1_556
Mo21 Se26 2.717550 1_556
Mo21 Se23 2.752502 1_565
Mo22 Se37 2.564236 1_555
Mo22 Se22 2.613552 1_655
Mo22 Se6 2.680893 1_655
Mo22 Se24 2.717550 1_655
Mo22 Se21 2.752502 1_556
Mo23 Se37 2.564236 1_555
Mo23 Se23 2.613552 1_565
Mo23 Se7 2.680893 1_565
Mo23 Se25 2.717550 1_565
Mo23 Se22 2.752503 1_655
Mo24 Se12 2.580696 1_565
Mo24 Se23 2.580696 1_565
Mo24 Se26 2.614988 1_556
Mo24 Se25 2.614988 1_565
Mo25 Se21 2.580696 1_556
Mo25 Se13 2.580696 1_556
Mo25 Se24 2.614988 1_655
Mo25 Se26 2.614988 1_556
Mo26 Se14 2.580696 1_655
Mo26 Se22 2.580696 1_655
Mo26 Se24 2.614988 1_655
Mo26 Se25 2.614988 1_565
Mo27 Se15 2.580696 1_554
Mo27 Se19 2.580696 1_554
Mo27 Se29 2.614988 1_455
Mo27 Se28 2.614988 1_554
Mo28 Se20 2.580696 1_455
Mo28 Se16 2.580696 1_455
Mo28 Se29 2.614988 1_455
Mo28 Se27 2.614988 1_545
Mo29 Se17 2.580696 1_545
Mo29 Se18 2.580696 1_545
Mo29 Se27 2.614988 1_545
Mo29 Se28 2.614988 1_554
Se12 Sn2 3.106224 1_556
Se13 Sn2 3.106224 1_655
Se14 Sn2 3.106224 1_565
Se15 Sn3 3.106224 1_555
Se16 Sn3 3.106224 1_555
Se17 Sn3 3.106224 1_555
Se18 Sn0 3.106224 1_554
Se19 Sn0 3.106224 1_455
Se20 Sn0 3.106224 1_545
Se21 Sn1 3.106224 1_555
Se22 Sn1 3.106224 1_555
Se23 Sn1 3.106224 1_555
