# generated using pymatgen
data_Pr2Ga7Ni
_symmetry_space_group_name_H-M   'P 1'
_cell_length_a   4.28321023
_cell_length_b   4.28321023
_cell_length_c   10.36973722
_cell_angle_alpha   90.00000000
_cell_angle_beta   90.00000000
_cell_angle_gamma   90.00000000
_symmetry_Int_Tables_number   1
_chemical_formula_structural   Pr2Ga7Ni
_chemical_formula_sum   'Pr2 Ga7 Ni1'
_cell_volume   190.24205706
_cell_formula_units_Z   1
loop_
 _symmetry_equiv_pos_site_id
 _symmetry_equiv_pos_as_xyz
  1  'x, y, z'
loop_
 _atom_site_type_symbol
 _atom_site_label
 _atom_site_symmetry_multiplicity
 _atom_site_fract_x
 _atom_site_fract_y
 _atom_site_fract_z
 _atom_site_occupancy
  Pr  Pr0  1  0.00000000  -0.00000000  0.99679679  1
  Pr  Pr1  1  0.50000000  0.50000000  0.48183732  1
  Ga  Ga0  1  0.00000000  0.50000000  0.23347433  1
  Ga  Ga1  1  0.50000000  0.00000000  0.75505185  1
  Ga  Ga2  1  0.50000000  -0.00000000  0.23347433  1
  Ga  Ga3  1  0.00000000  0.50000000  0.75505185  1
  Ga  Ga4  1  0.00000000  -0.00000000  0.61926929  1
  Ga  Ga5  1  0.00000000  -0.00000000  0.38204198  1
  Ga  Ga6  1  0.50000000  0.50000000  0.90947145  1
  Ni  Ni0  1  0.50000000  0.50000000  0.13353181  1
loop_
_geom_bond_atom_site_label_1
_geom_bond_atom_site_label_2
_geom_bond_distance
_geom_bond_site_symmetry_2
Ga0 Ni0 2.379191 1_555
Ga0 Ni0 2.379191 1_455
Ga0 Ga5 2.638171 1_555
Ga0 Ga5 2.638171 1_565
Ga0 Pr0 3.257297 1_564
Ga0 Pr0 3.257297 1_554
Ga0 Pr1 3.349546 1_555
Ga0 Pr1 3.349546 1_455
Ga1 Ga4 2.563010 1_555
Ga1 Ga4 2.563010 1_655
Ga1 Ga6 2.674061 1_545
Ga1 Ga6 2.674061 1_555
Ga1 Ga3 3.028687 1_645
Ga1 Ga3 3.028687 1_655
Ga1 Ga3 3.028687 1_545
Ga1 Ga3 3.028687 1_555
Ga1 Pr0 3.297071 1_655
Ga1 Pr0 3.297071 1_555
Ga1 Pr1 3.551519 1_545
Ga1 Pr1 3.551519 1_555
Ga2 Ni0 2.379191 1_545
Ga2 Ni0 2.379191 1_555
Ga2 Ga5 2.638171 1_555
Ga2 Ga5 2.638171 1_655
Ga2 Pr0 3.257297 1_654
Ga2 Pr0 3.257297 1_554
Ga2 Pr1 3.349546 1_545
Ga2 Pr1 3.349546 1_555
Ga3 Ga4 2.563010 1_555
Ga3 Ga4 2.563010 1_565
Ga3 Ga6 2.674061 1_455
Ga3 Ga6 2.674061 1_555
Ga3 Pr0 3.297071 1_565
Ga3 Pr0 3.297071 1_555
Ga3 Pr1 3.551519 1_555
Ga3 Pr1 3.551519 1_455
Ga4 Ga5 2.459985 1_555
Ga4 Pr1 3.347230 1_555
Ga4 Pr1 3.347230 1_455
Ga4 Pr1 3.347230 1_545
Ga4 Pr1 3.347230 1_445
Ga5 Pr1 3.200603 1_545
Ga5 Pr1 3.200603 1_555
Ga5 Pr1 3.200603 1_445
Ga5 Pr1 3.200603 1_455
Ga6 Ni0 2.323447 1_556
Ga6 Pr0 3.161163 1_565
Ga6 Pr0 3.161163 1_665
Ga6 Pr0 3.161163 1_555
Ga6 Pr0 3.161163 1_655
Ni0 Pr0 3.344160 1_564
Ni0 Pr0 3.344160 1_664
Ni0 Pr0 3.344160 1_654
Ni0 Pr0 3.344160 1_554
