# generated using pymatgen
data_ZnSb3O7
_symmetry_space_group_name_H-M   'P 1'
_cell_length_a   5.53544300
_cell_length_b   10.47136600
_cell_length_c   10.55258800
_cell_angle_alpha   90.00000000
_cell_angle_beta   90.00000000
_cell_angle_gamma   90.00000000
_symmetry_Int_Tables_number   1
_chemical_formula_structural   ZnSb3O7
_chemical_formula_sum   'Zn4 Sb12 O28'
_cell_volume   611.66651347
_cell_formula_units_Z   4
loop_
 _symmetry_equiv_pos_site_id
 _symmetry_equiv_pos_as_xyz
  1  'x, y, z'
loop_
 _atom_site_type_symbol
 _atom_site_label
 _atom_site_symmetry_multiplicity
 _atom_site_fract_x
 _atom_site_fract_y
 _atom_site_fract_z
 _atom_site_occupancy
  Zn  Zn0  1  0.67518800  0.75000000  0.11915400  1
  Zn  Zn1  1  0.17518800  0.25000000  0.38084600  1
  Zn  Zn2  1  0.32481200  0.25000000  0.88084600  1
  Zn  Zn3  1  0.82481200  0.75000000  0.61915400  1
  Sb  Sb0  1  0.34304600  0.98633200  0.62983800  1
  Sb  Sb1  1  0.84304600  0.01366800  0.87016200  1
  Sb  Sb2  1  0.65695400  0.48633200  0.37016200  1
  Sb  Sb3  1  0.15695400  0.51366800  0.12983800  1
  Sb  Sb4  1  0.28271800  0.75000000  0.85211100  1
  Sb  Sb5  1  0.78271800  0.25000000  0.64788900  1
  Sb  Sb6  1  0.71728200  0.25000000  0.14788900  1
  Sb  Sb7  1  0.21728200  0.75000000  0.35211100  1
  Sb  Sb8  1  0.84304600  0.48633200  0.87016200  1
  Sb  Sb9  1  0.34304600  0.51366800  0.62983800  1
  Sb  Sb10  1  0.15695400  0.98633200  0.12983800  1
  Sb  Sb11  1  0.65695400  0.01366800  0.37016200  1
  O  O0  1  0.97538400  0.13103000  0.21612800  1
  O  O1  1  0.47538400  0.86897000  0.28387200  1
  O  O2  1  0.02461600  0.63103000  0.78387200  1
  O  O3  1  0.52461600  0.36897000  0.71612800  1
  O  O4  1  0.02461600  0.86897000  0.78387200  1
  O  O5  1  0.52461600  0.13103000  0.71612800  1
  O  O6  1  0.97538400  0.36897000  0.21612800  1
  O  O7  1  0.47538400  0.63103000  0.28387200  1
  O  O8  1  0.49518500  0.11645400  0.20891100  1
  O  O9  1  0.99518500  0.88354600  0.29108900  1
  O  O10  1  0.50481500  0.61645400  0.79108900  1
  O  O11  1  0.00481500  0.38354600  0.70891100  1
  O  O12  1  0.50481500  0.88354600  0.79108900  1
  O  O13  1  0.00481500  0.11645400  0.70891100  1
  O  O14  1  0.49518500  0.38354600  0.20891100  1
  O  O15  1  0.99518500  0.61645400  0.29108900  1
  O  O16  1  0.16432700  0.75000000  0.53343000  1
  O  O17  1  0.66432700  0.25000000  0.96657000  1
  O  O18  1  0.83567300  0.25000000  0.46657000  1
  O  O19  1  0.33567300  0.75000000  0.03343000  1
  O  O20  1  0.14656300  0.40752000  0.95591200  1
  O  O21  1  0.64656300  0.59248000  0.54408800  1
  O  O22  1  0.85343700  0.90752000  0.04408800  1
  O  O23  1  0.35343700  0.09248000  0.45591200  1
  O  O24  1  0.85343700  0.59248000  0.04408800  1
  O  O25  1  0.35343700  0.40752000  0.45591200  1
  O  O26  1  0.14656300  0.09248000  0.95591200  1
  O  O27  1  0.64656300  0.90752000  0.54408800  1
loop_
_geom_bond_atom_site_label_1
_geom_bond_atom_site_label_2
_geom_bond_distance
_geom_bond_site_symmetry_2
O0 Sb6 2.027736 1_555
O0 Sb10 2.033498 1_645
O0 Zn1 2.407603 1_655
O0 Sb11 2.694317 1_555
O1 Sb7 2.027736 1_555
O1 Sb11 2.033498 1_565
O1 Zn0 2.407603 1_555
O1 Sb10 2.694317 1_555
O2 Sb4 2.027736 1_555
O2 Sb8 2.033498 1_455
O2 Zn3 2.407603 1_455
O2 Sb9 2.694317 1_555
O3 Sb5 2.027736 1_555
O3 Sb9 2.033498 1_555
O3 Zn2 2.407603 1_555
O3 Sb8 2.694317 1_555
O4 Sb4 2.027736 1_555
O4 Sb1 2.033498 1_465
O4 Zn3 2.407603 1_455
O4 Sb0 2.694317 1_555
O5 Sb5 2.027736 1_555
O5 Sb0 2.033498 1_545
O5 Zn2 2.407603 1_555
O5 Sb1 2.694317 1_555
O6 Sb6 2.027736 1_555
O6 Sb3 2.033498 1_655
O6 Zn1 2.407603 1_655
O6 Sb2 2.694317 1_555
O7 Sb7 2.027736 1_555
O7 Sb2 2.033498 1_555
O7 Zn0 2.407603 1_555
O7 Sb3 2.694317 1_555
O8 Sb6 1.970189 1_555
O8 Sb11 2.203586 1_555
O8 Sb10 2.461336 1_545
O9 Sb7 1.970189 1_655
O9 Sb10 2.203586 1_655
O9 Sb11 2.461336 1_565
O10 Sb4 1.970189 1_555
O10 Sb9 2.203586 1_555
O10 Sb8 2.461336 1_555
O11 Sb5 1.970189 1_455
O11 Sb8 2.203586 1_455
O11 Sb9 2.461336 1_555
O12 Sb4 1.970189 1_555
O12 Sb0 2.203586 1_555
O12 Sb1 2.461336 1_565
O13 Sb5 1.970189 1_455
O13 Sb1 2.203586 1_455
O13 Sb0 2.461336 1_545
O14 Sb6 1.970189 1_555
O14 Sb2 2.203586 1_555
O14 Sb3 2.461336 1_555
O15 Sb7 1.970189 1_655
O15 Sb3 2.203586 1_655
O15 Sb2 2.461336 1_555
O16 Sb7 1.935708 1_555
O16 Zn3 2.085746 1_455
O17 Sb6 1.935708 1_556
O17 Zn2 2.085746 1_555
O18 Sb5 1.935708 1_555
O18 Zn1 2.085746 1_655
O19 Sb4 1.935708 1_554
O19 Zn0 2.085746 1_555
O20 Zn2 2.078875 1_555
O20 Sb8 2.079092 1_455
O20 Sb3 2.146475 1_556
O21 Zn3 2.078875 1_555
O21 Sb9 2.079092 1_555
O21 Sb2 2.146475 1_555
O22 Zn0 2.078875 1_555
O22 Sb10 2.079092 1_655
O22 Sb1 2.146475 1_564
O23 Zn1 2.078875 1_555
O23 Sb11 2.079092 1_555
O23 Sb0 2.146475 1_545
O24 Zn0 2.078875 1_555
O24 Sb3 2.079092 1_655
O24 Sb8 2.146475 1_554
O25 Zn1 2.078875 1_555
O25 Sb2 2.079092 1_555
O25 Sb9 2.146475 1_555
O26 Zn2 2.078875 1_555
O26 Sb1 2.079092 1_455
O26 Sb10 2.146475 1_546
O27 Zn3 2.078875 1_555
O27 Sb0 2.079092 1_555
O27 Sb11 2.146475 1_565
