# generated using pymatgen
data_Y5(GeSb)2
_symmetry_space_group_name_H-M   'P 1'
_cell_length_a   8.54064357
_cell_length_b   8.54064308
_cell_length_c   7.96730062
_cell_angle_alpha   90.00000352
_cell_angle_beta   90.00001055
_cell_angle_gamma   124.53816944
_symmetry_Int_Tables_number   1
_chemical_formula_structural   Y5(GeSb)2
_chemical_formula_sum   'Y10 Ge4 Sb4'
_cell_volume   478.72609815
_cell_formula_units_Z   2
loop_
 _symmetry_equiv_pos_site_id
 _symmetry_equiv_pos_as_xyz
  1  'x, y, z'
loop_
 _atom_site_type_symbol
 _atom_site_label
 _atom_site_symmetry_multiplicity
 _atom_site_fract_x
 _atom_site_fract_y
 _atom_site_fract_z
 _atom_site_occupancy
  Y  Y0  1  0.03487496  0.28823858  0.33905933  1
  Y  Y1  1  0.96512504  0.71176142  0.66094067  1
  Y  Y2  1  0.46512504  0.21176142  0.83905933  1
  Y  Y3  1  0.78823858  0.53487496  0.16094067  1
  Y  Y4  1  0.53487496  0.78823858  0.16094067  1
  Y  Y5  1  0.21176142  0.46512504  0.83905933  1
  Y  Y6  1  0.71176142  0.96512504  0.66094067  1
  Y  Y7  1  0.28823858  0.03487496  0.33905933  1
  Y  Y8  1  0.00000000  -0.00000000  0.00000000  1
  Y  Y9  1  0.50000000  0.50000000  0.50000000  1
  Ge  Ge0  1  0.35690778  0.35690778  0.14190224  1
  Ge  Ge1  1  0.64309222  0.64309222  0.85809776  1
  Ge  Ge2  1  0.14309222  0.14309222  0.64190224  1
  Ge  Ge3  1  0.85690778  0.85690778  0.35809776  1
  Sb  Sb0  1  0.79581258  0.20418742  0.00000000  1
  Sb  Sb1  1  0.20418742  0.79581258  -0.00000000  1
  Sb  Sb2  1  0.70418742  0.29581258  0.50000000  1
  Sb  Sb3  1  0.29581258  0.70418742  0.50000000  1
loop_
_geom_bond_atom_site_label_1
_geom_bond_atom_site_label_2
_geom_bond_distance
_geom_bond_site_symmetry_2
Ge0 Y7 2.923506 1_555
Ge0 Y0 2.923506 1_555
Ge0 Y8 3.053787 1_555
Ge0 Y9 3.071408 1_555
Ge0 Y5 3.084137 1_554
Ge0 Y2 3.084137 1_554
Ge0 Y4 3.091099 1_555
Ge0 Y3 3.091099 1_555
Ge1 Y6 2.923506 1_555
Ge1 Y1 2.923506 1_555
Ge1 Y8 3.053787 1_666
Ge1 Y9 3.071408 1_555
Ge1 Y3 3.084137 1_556
Ge1 Y4 3.084137 1_556
Ge1 Y2 3.091099 1_555
Ge1 Y5 3.091099 1_555
Ge2 Y2 2.923506 1_555
Ge2 Y5 2.923506 1_555
Ge2 Y9 3.053787 1_555
Ge2 Y8 3.071409 1_556
Ge2 Y0 3.084137 1_555
Ge2 Y7 3.084138 1_555
Ge2 Y1 3.091099 1_445
Ge2 Y6 3.091099 1_445
Ge3 Y4 2.923506 1_555
Ge3 Y3 2.923506 1_555
Ge3 Y9 3.053787 1_555
Ge3 Y8 3.071409 1_665
Ge3 Y1 3.084137 1_555
Ge3 Y6 3.084138 1_555
Ge3 Y0 3.091099 1_665
Ge3 Y7 3.091099 1_665
Sb0 Y8 3.087186 1_655
Sb0 Y2 3.135621 1_554
Sb0 Y3 3.135621 1_555
Sb0 Y4 3.202138 1_545
Sb0 Y5 3.202138 1_654
Sb0 Y0 3.212412 1_655
Sb0 Y6 3.212413 1_544
Sb1 Y8 3.087186 1_565
Sb1 Y4 3.135621 1_555
Sb1 Y5 3.135621 1_554
Sb1 Y2 3.202138 1_564
Sb1 Y3 3.202138 1_455
Sb1 Y1 3.212412 1_454
Sb1 Y7 3.212413 1_565
Sb2 Y9 3.087186 1_555
Sb2 Y6 3.135622 1_545
Sb2 Y0 3.135622 1_655
Sb2 Y1 3.202137 1_555
Sb2 Y7 3.202137 1_555
Sb2 Y3 3.212413 1_555
Sb2 Y2 3.212413 1_555
Sb3 Y9 3.087186 1_555
Sb3 Y7 3.135622 1_565
Sb3 Y1 3.135622 1_455
Sb3 Y0 3.202137 1_555
Sb3 Y6 3.202137 1_555
Sb3 Y5 3.212413 1_555
Sb3 Y4 3.212413 1_555
