# generated using pymatgen
data_La2ZnNi2
_symmetry_space_group_name_H-M   'P 1'
_cell_length_a   5.51963702
_cell_length_b   5.51963702
_cell_length_c   5.51963702
_cell_angle_alpha   133.14514245
_cell_angle_beta   119.82436062
_cell_angle_gamma   79.56081868
_symmetry_Int_Tables_number   1
_chemical_formula_structural   La2ZnNi2
_chemical_formula_sum   'La2 Zn1 Ni2'
_cell_volume   103.03625410
_cell_formula_units_Z   1
loop_
 _symmetry_equiv_pos_site_id
 _symmetry_equiv_pos_as_xyz
  1  'x, y, z'
loop_
 _atom_site_type_symbol
 _atom_site_label
 _atom_site_symmetry_multiplicity
 _atom_site_fract_x
 _atom_site_fract_y
 _atom_site_fract_z
 _atom_site_occupancy
  La  La0  1  0.69915000  0.19915000  0.50000000  1
  La  La1  1  0.30085000  0.80085000  0.50000000  1
  Zn  Zn0  1  0.00000000  0.00000000  0.00000000  1
  Ni  Ni0  1  0.74223400  0.50000000  0.24223400  1
  Ni  Ni1  1  0.25776600  0.50000000  0.75776600  1
loop_
_geom_bond_atom_site_label_1
_geom_bond_atom_site_label_2
_geom_bond_distance
_geom_bond_site_symmetry_2
La0 Ni1 2.923936 1_655
La0 Ni0 2.923936 1_555
La0 Ni0 3.076961 1_556
La0 Ni1 3.076961 1_555
La0 Ni0 3.076961 1_545
La0 Ni1 3.076961 1_544
La0 Zn0 3.242158 1_656
La0 Zn0 3.242158 1_555
La0 Zn0 3.366058 1_655
La0 Zn0 3.366058 1_666
La0 La1 3.379061 1_545
La0 La1 3.635585 1_555
La0 La1 3.635585 1_645
La0 La1 3.635585 1_544
La0 La1 3.635585 1_656
La1 Ni1 2.923936 1_555
La1 Ni0 2.923936 1_455
La1 Ni0 3.076961 1_566
La1 Ni1 3.076961 1_565
La1 Ni0 3.076961 1_555
La1 Ni1 3.076961 1_554
La1 Zn0 3.242158 1_666
La1 Zn0 3.242158 1_565
La1 Zn0 3.366058 1_566
La1 Zn0 3.366058 1_555
Ni0 Zn0 2.617449 1_655
Ni0 Zn0 2.617449 1_666
Ni0 Ni1 2.681184 1_554
Ni0 Ni1 2.853100 1_655
Ni1 Zn0 2.617449 1_555
Ni1 Zn0 2.617449 1_566
