# generated using pymatgen
data_TiCo3
_symmetry_space_group_name_H-M   'P 1'
_cell_length_a   4.23854778
_cell_length_b   5.03718555
_cell_length_c   5.03856952
_cell_angle_alpha   119.98045034
_cell_angle_beta   90.00000000
_cell_angle_gamma   90.00000000
_symmetry_Int_Tables_number   1
_chemical_formula_structural   TiCo3
_chemical_formula_sum   'Ti2 Co6'
_cell_volume   93.18123013
_cell_formula_units_Z   2
loop_
 _symmetry_equiv_pos_site_id
 _symmetry_equiv_pos_as_xyz
  1  'x, y, z'
loop_
 _atom_site_type_symbol
 _atom_site_label
 _atom_site_symmetry_multiplicity
 _atom_site_fract_x
 _atom_site_fract_y
 _atom_site_fract_z
 _atom_site_occupancy
  Ti  Ti0  1  0.75000000  0.66673893  0.33370477  1
  Ti  Ti1  1  0.25000000  0.33326782  0.66633314  1
  Co  Co0  1  0.75000000  0.16167155  0.32348789  1
  Co  Co1  1  0.75000000  0.16185917  0.83841833  1
  Co  Co2  1  0.75000000  0.67651976  0.83846244  1
  Co  Co3  1  0.25000000  0.83834450  0.67650390  1
  Co  Co4  1  0.25000000  0.83815457  0.16157754  1
  Co  Co5  1  0.25000000  0.32344370  0.16151198  1
loop_
_geom_bond_atom_site_label_1
_geom_bond_atom_site_label_2
_geom_bond_distance
_geom_bond_site_symmetry_2
Co0 Co1 2.444529 1_554
Co0 Co2 2.444539 1_544
Co0 Ti0 2.518789 1_555
Co0 Ti0 2.519186 1_545
Co0 Co4 2.546339 1_545
Co0 Co4 2.546339 1_645
Co0 Co5 2.546774 1_555
Co0 Co5 2.546774 1_655
Co0 Co1 2.594041 1_555
Co0 Ti1 2.594276 1_655
Co0 Ti1 2.594276 1_555
Co0 Co2 2.594827 1_555
Co1 Co2 2.444856 1_545
Co1 Ti0 2.519625 1_545
Co1 Ti0 2.520436 1_556
Co1 Co5 2.545530 1_556
Co1 Co5 2.545530 1_656
Co1 Co3 2.546333 1_545
Co1 Co3 2.546333 1_645
Co1 Co2 2.592330 1_555
Co1 Ti1 2.595535 1_555
Co1 Ti1 2.595535 1_655
Co2 Ti0 2.518999 1_555
Co2 Ti0 2.520294 1_556
Co2 Co4 2.545582 1_556
Co2 Co4 2.545582 1_656
Co2 Co3 2.546859 1_555
Co2 Co3 2.546859 1_655
Co2 Ti1 2.595064 1_655
Co2 Ti1 2.595064 1_555
Co3 Co5 2.444363 1_566
Co3 Co4 2.444555 1_556
Co3 Ti1 2.518948 1_555
Co3 Ti1 2.519020 1_565
Co3 Co4 2.594014 1_555
Co3 Ti0 2.594160 1_455
Co3 Ti0 2.594160 1_555
Co3 Co5 2.595003 1_555
Co4 Co5 2.444656 1_565
Co4 Ti1 2.519717 1_565
Co4 Ti1 2.520351 1_554
Co4 Co5 2.592529 1_555
Co4 Ti0 2.595659 1_455
Co4 Ti0 2.595659 1_555
Co5 Ti1 2.519213 1_555
Co5 Ti1 2.520086 1_554
Co5 Ti0 2.595173 1_555
Co5 Ti0 2.595173 1_455
