# generated using pymatgen
data_SrCuSb
_symmetry_space_group_name_H-M   'P 1'
_cell_length_a   4.51064311
_cell_length_b   4.51064305
_cell_length_c   8.91438591
_cell_angle_alpha   90.00000000
_cell_angle_beta   90.00000000
_cell_angle_gamma   119.99998530
_symmetry_Int_Tables_number   1
_chemical_formula_structural   SrCuSb
_chemical_formula_sum   'Sr2 Cu2 Sb2'
_cell_volume   157.07210128
_cell_formula_units_Z   2
loop_
 _symmetry_equiv_pos_site_id
 _symmetry_equiv_pos_as_xyz
  1  'x, y, z'
loop_
 _atom_site_type_symbol
 _atom_site_label
 _atom_site_symmetry_multiplicity
 _atom_site_fract_x
 _atom_site_fract_y
 _atom_site_fract_z
 _atom_site_occupancy
  Sr  Sr0  1  0.00000000  0.00000000  0.00000000  1
  Sr  Sr1  1  0.00000000  0.00000000  0.50000000  1
  Cu  Cu0  1  0.33333300  0.66666700  0.75000000  1
  Cu  Cu1  1  0.66666700  0.33333300  0.25000000  1
  Sb  Sb0  1  0.33333300  0.66666700  0.25000000  1
  Sb  Sb1  1  0.66666700  0.33333300  0.75000000  1
loop_
_geom_bond_atom_site_label_1
_geom_bond_atom_site_label_2
_geom_bond_distance
_geom_bond_site_symmetry_2
Cu0 Sb1 2.604219 1_565
Cu0 Sb1 2.604219 1_455
Cu0 Sb1 2.604226 1_555
Cu0 Sr1 3.427622 1_565
Cu0 Sr0 3.427622 1_566
Cu0 Sr0 3.427626 1_556
Cu0 Sr1 3.427626 1_555
Cu0 Sr1 3.427626 1_665
Cu0 Sr0 3.427626 1_666
Cu1 Sb0 2.604219 1_545
Cu1 Sb0 2.604219 1_655
Cu1 Sb0 2.604226 1_555
Cu1 Sr1 3.427622 1_655
Cu1 Sr0 3.427622 1_655
Cu1 Sr0 3.427626 1_665
Cu1 Sr1 3.427626 1_665
Cu1 Sr0 3.427626 1_555
Cu1 Sr1 3.427626 1_555
Sb0 Sr1 3.427622 1_565
Sb0 Sr0 3.427622 1_565
Sb0 Sr0 3.427626 1_555
Sb0 Sr1 3.427626 1_555
Sb0 Sr1 3.427626 1_665
Sb0 Sr0 3.427626 1_665
Sb1 Sr0 3.427622 1_656
Sb1 Sr1 3.427622 1_655
Sb1 Sr0 3.427626 1_666
Sb1 Sr1 3.427626 1_665
Sb1 Sr0 3.427626 1_556
Sb1 Sr1 3.427626 1_555
