# generated using pymatgen
data_Fe8Cu3Te12(Cl5O16)2
_symmetry_space_group_name_H-M   'P 1'
_cell_length_a   5.11730500
_cell_length_b   10.21551200
_cell_length_c   21.16645300
_cell_angle_alpha   90.00000000
_cell_angle_beta   90.00000000
_cell_angle_gamma   90.00000000
_symmetry_Int_Tables_number   1
_chemical_formula_structural   Fe8Cu3Te12(Cl5O16)2
_chemical_formula_sum   'Fe8 Cu3 Te12 Cl10 O32'
_cell_volume   1106.49518216
_cell_formula_units_Z   1
loop_
 _symmetry_equiv_pos_site_id
 _symmetry_equiv_pos_as_xyz
  1  'x, y, z'
loop_
 _atom_site_type_symbol
 _atom_site_label
 _atom_site_symmetry_multiplicity
 _atom_site_fract_x
 _atom_site_fract_y
 _atom_site_fract_z
 _atom_site_occupancy
  Fe  Fe0  1  0.24762500  0.32887500  0.27150600  1
  Fe  Fe1  1  0.24762500  0.32887500  0.72849400  1
  Fe  Fe2  1  0.24762500  0.67112500  0.27150600  1
  Fe  Fe3  1  0.24762500  0.67112500  0.72849400  1
  Fe  Fe4  1  0.75717500  0.17528500  0.22780500  1
  Fe  Fe5  1  0.75717500  0.17528500  0.77219500  1
  Fe  Fe6  1  0.75717500  0.82471500  0.22780500  1
  Fe  Fe7  1  0.75717500  0.82471500  0.77219500  1
  Cu  Cu0  1  0.06903000  0.00000000  0.50000000  1
  Cu  Cu1  1  0.90785200  0.50000000  0.00000000  1
  Cu  Cu2  1  0.55583100  0.00000000  0.50000000  1
  Te  Te0  1  0.29625800  0.00000000  0.31152000  1
  Te  Te1  1  0.29625800  0.00000000  0.68848000  1
  Te  Te2  1  0.70255400  0.50000000  0.18498100  1
  Te  Te3  1  0.70255400  0.50000000  0.81501900  1
  Te  Te4  1  0.74795000  0.32640300  0.38719000  1
  Te  Te5  1  0.74795000  0.32640300  0.61281000  1
  Te  Te6  1  0.74795000  0.67359700  0.38719000  1
  Te  Te7  1  0.74795000  0.67359700  0.61281000  1
  Te  Te8  1  0.25047500  0.17419900  0.11091500  1
  Te  Te9  1  0.25047500  0.17419900  0.88908500  1
  Te  Te10  1  0.25047500  0.82580100  0.11091500  1
  Te  Te11  1  0.25047500  0.82580100  0.88908500  1
  Cl  Cl0  1  0.91605400  0.50000000  0.50000000  1
  Cl  Cl1  1  0.08512900  0.00000000  0.00000000  1
  Cl  Cl2  1  0.31641700  0.81006600  0.50000000  1
  Cl  Cl3  1  0.31641700  0.18993400  0.50000000  1
  Cl  Cl4  1  0.72351500  0.69827400  0.00000000  1
  Cl  Cl5  1  0.72351500  0.30172600  0.00000000  1
  Cl  Cl6  1  0.82523000  0.00000000  0.40716100  1
  Cl  Cl7  1  0.82523000  0.00000000  0.59283900  1
  Cl  Cl8  1  0.15199200  0.50000000  0.09416200  1
  Cl  Cl9  1  0.15199200  0.50000000  0.90583800  1
  O  O0  1  0.58018000  0.24373400  0.31353200  1
  O  O1  1  0.58018000  0.24373400  0.68646800  1
  O  O2  1  0.58018000  0.75626600  0.31353200  1
  O  O3  1  0.58018000  0.75626600  0.68646800  1
  O  O4  1  0.42847200  0.24858600  0.18505700  1
  O  O5  1  0.42847200  0.24858600  0.81494300  1
  O  O6  1  0.42847200  0.75141400  0.18505700  1
  O  O7  1  0.42847200  0.75141400  0.81494300  1
  O  O8  1  0.60491900  0.50000000  0.36661000  1
  O  O9  1  0.60491900  0.50000000  0.63339000  1
  O  O10  1  0.39253800  0.00000000  0.13036300  1
  O  O11  1  0.39253800  0.00000000  0.86963700  1
  O  O12  1  0.58911800  0.00000000  0.25139100  1
  O  O13  1  0.58911800  0.00000000  0.74860900  1
  O  O14  1  0.41099100  0.50000000  0.24610700  1
  O  O15  1  0.41099100  0.50000000  0.75389300  1
  O  O16  1  0.09521000  0.13512500  0.27313300  1
  O  O17  1  0.09521000  0.13512500  0.72686700  1
  O  O18  1  0.09521000  0.86487500  0.27313300  1
  O  O19  1  0.09521000  0.86487500  0.72686700  1
  O  O20  1  0.89432000  0.36394700  0.22598500  1
  O  O21  1  0.89432000  0.36394700  0.77401500  1
  O  O22  1  0.89432000  0.63605300  0.22598500  1
  O  O23  1  0.89432000  0.63605300  0.77401500  1
  O  O24  1  0.08406100  0.34916800  0.35621300  1
  O  O25  1  0.08406100  0.34916800  0.64378700  1
  O  O26  1  0.08406100  0.65083200  0.35621300  1
  O  O27  1  0.08406100  0.65083200  0.64378700  1
  O  O28  1  0.91879100  0.14770700  0.14563600  1
  O  O29  1  0.91879100  0.14770700  0.85436400  1
  O  O30  1  0.91879100  0.85229300  0.14563600  1
  O  O31  1  0.91879100  0.85229300  0.85436400  1
loop_
_geom_bond_atom_site_label_1
_geom_bond_atom_site_label_2
_geom_bond_distance
_geom_bond_site_symmetry_2
Fe0 O24 1.989526 1_555
Fe0 O14 2.010936 1_555
Fe0 O20 2.079780 1_455
Fe0 O0 2.108041 1_555
Fe0 O16 2.127667 1_555
Fe0 O4 2.208486 1_555
Fe1 O25 1.989526 1_555
Fe1 O15 2.010936 1_555
Fe1 O21 2.079780 1_455
Fe1 O1 2.108041 1_555
Fe1 O17 2.127667 1_555
Fe1 O5 2.208486 1_555
Fe2 O26 1.989526 1_555
Fe2 O14 2.010936 1_555
Fe2 O22 2.079780 1_455
Fe2 O2 2.108041 1_555
Fe2 O18 2.127667 1_555
Fe2 O6 2.208486 1_555
Fe3 O27 1.989526 1_555
Fe3 O15 2.010936 1_555
Fe3 O23 2.079780 1_455
Fe3 O3 2.108041 1_555
Fe3 O19 2.127667 1_555
Fe3 O7 2.208486 1_555
Fe4 O28 1.946347 1_555
Fe4 O16 2.020180 1_655
Fe4 O12 2.048212 1_555
Fe4 O20 2.051446 1_555
Fe4 O4 2.051533 1_555
Fe4 O0 2.145190 1_555
Fe5 O29 1.946347 1_555
Fe5 O17 2.020180 1_655
Fe5 O13 2.048212 1_555
Fe5 O21 2.051446 1_555
Fe5 O5 2.051533 1_555
Fe5 O1 2.145190 1_555
Fe6 O30 1.946347 1_555
Fe6 O18 2.020180 1_655
Fe6 O12 2.048212 1_565
Fe6 O22 2.051446 1_555
Fe6 O6 2.051533 1_555
Fe6 O2 2.145190 1_555
Fe7 O31 1.946347 1_555
Fe7 O19 2.020180 1_655
Fe7 O13 2.048212 1_565
Fe7 O23 2.051446 1_555
Fe7 O7 2.051533 1_555
Fe7 O3 2.145190 1_555
Cl0 Te4 3.096195 1_555
Cl0 Te6 3.096195 1_555
Cl0 Te5 3.096195 1_555
Cl0 Te7 3.096195 1_555
Cl1 Te11 3.065004 1_544
Cl1 Te9 3.065004 1_554
Cl1 Te8 3.065004 1_555
Cl1 Te10 3.065004 1_545
Cl2 Cu2 2.294703 1_565
Cl2 Cu0 2.316744 1_565
Cl3 Cu2 2.294703 1_555
Cl3 Cu0 2.316744 1_555
Cl4 Cu1 2.234359 1_555
Cl5 Cu1 2.234359 1_555
Cl6 Cu0 2.327662 1_655
Cl6 Cu2 2.400425 1_555
Cl7 Cu0 2.327662 1_655
Cl7 Cu2 2.400425 1_555
Cl8 Cu1 2.352275 1_455
Cl8 Te2 2.997481 1_455
Cl9 Cu1 2.352275 1_456
Cl9 Te3 2.997481 1_455
O0 Te4 1.970023 1_555
O1 Te5 1.970023 1_555
O2 Te6 1.970023 1_555
O3 Te7 1.970023 1_555
O4 Te8 1.967206 1_555
O5 Te9 1.967206 1_555
O6 Te10 1.967206 1_555
O7 Te11 1.967206 1_555
O8 Te4 1.967324 1_555
O8 Te6 1.967324 1_555
O9 Te7 1.967324 1_555
O9 Te5 1.967324 1_555
O10 Te8 1.965880 1_555
O10 Te10 1.965880 1_545
O11 Te9 1.965880 1_555
O11 Te11 1.965880 1_545
O12 Te0 1.966157 1_555
O13 Te1 1.966157 1_555
O14 Te2 1.974864 1_555
O15 Te3 1.974864 1_555
O16 Te0 1.903703 1_555
O17 Te1 1.903703 1_555
O18 Te0 1.903703 1_565
O19 Te1 1.903703 1_565
O20 Te2 1.909961 1_555
O21 Te3 1.909961 1_555
O22 Te2 1.909961 1_555
O23 Te3 1.909961 1_555
O24 Te4 1.855352 1_455
O25 Te5 1.855352 1_455
O26 Te6 1.855352 1_455
O27 Te7 1.855352 1_455
O28 Te8 1.869297 1_655
O29 Te9 1.869297 1_655
O30 Te10 1.869297 1_655
O31 Te11 1.869297 1_655
