# generated using pymatgen
data_KBaV3Cd2O11
_symmetry_space_group_name_H-M   'P 1'
_cell_length_a   7.10960700
_cell_length_b   10.60699300
_cell_length_c   18.09184102
_cell_angle_alpha   59.01588929
_cell_angle_beta   90.00000000
_cell_angle_gamma   90.00000000
_symmetry_Int_Tables_number   1
_chemical_formula_structural   KBaV3Cd2O11
_chemical_formula_sum   'K4 Ba4 V12 Cd8 O44'
_cell_volume   1169.65714746
_cell_formula_units_Z   4
loop_
 _symmetry_equiv_pos_site_id
 _symmetry_equiv_pos_as_xyz
  1  'x, y, z'
loop_
 _atom_site_type_symbol
 _atom_site_label
 _atom_site_symmetry_multiplicity
 _atom_site_fract_x
 _atom_site_fract_y
 _atom_site_fract_z
 _atom_site_occupancy
  K  K0  1  0.55999600  0.52302700  0.34694000  1
  K  K1  1  0.94000400  0.52302700  0.84694000  1
  K  K2  1  0.44000400  0.47697300  0.65306000  1
  K  K3  1  0.05999600  0.47697300  0.15306000  1
  Ba  Ba0  1  0.54196200  0.72144900  0.96238400  1
  Ba  Ba1  1  0.95803800  0.72144900  0.46238400  1
  Ba  Ba2  1  0.45803800  0.27855100  0.03761600  1
  Ba  Ba3  1  0.04196200  0.27855100  0.53761600  1
  V  V0  1  0.34303400  0.84374700  0.13736900  1
  V  V1  1  0.15696600  0.84374700  0.63736900  1
  V  V2  1  0.65696600  0.15625300  0.86263100  1
  V  V3  1  0.84303400  0.15625300  0.36263100  1
  V  V4  1  0.02940100  0.67756900  0.27804300  1
  V  V5  1  0.47059900  0.67756900  0.77804300  1
  V  V6  1  0.97059900  0.32243100  0.72195700  1
  V  V7  1  0.52940100  0.32243100  0.22195700  1
  V  V8  1  0.46116800  0.76411800  0.43736300  1
  V  V9  1  0.03883200  0.76411800  0.93736300  1
  V  V10  1  0.53883200  0.23588200  0.56263700  1
  V  V11  1  0.96116800  0.23588200  0.06263700  1
  Cd  Cd0  1  0.83063400  0.88728000  0.07710100  1
  Cd  Cd1  1  0.66936600  0.88728000  0.57710100  1
  Cd  Cd2  1  0.16936600  0.11272000  0.92289900  1
  Cd  Cd3  1  0.33063400  0.11272000  0.42289900  1
  Cd  Cd4  1  0.22616800  0.02856200  0.25662000  1
  Cd  Cd5  1  0.27383200  0.02856200  0.75662000  1
  Cd  Cd6  1  0.77383200  0.97143800  0.74338000  1
  Cd  Cd7  1  0.72616800  0.97143800  0.24338000  1
  O  O0  1  0.30681600  0.92070500  0.39561800  1
  O  O1  1  0.19318400  0.92070500  0.89561800  1
  O  O2  1  0.69318400  0.07929500  0.60438200  1
  O  O3  1  0.80681600  0.07929500  0.10438200  1
  O  O4  1  0.84684400  0.68572800  0.21391400  1
  O  O5  1  0.65315600  0.68572800  0.71391400  1
  O  O6  1  0.15315600  0.31427200  0.78608600  1
  O  O7  1  0.34684400  0.31427200  0.28608600  1
  O  O8  1  0.25317600  0.66995100  0.22792800  1
  O  O9  1  0.24682400  0.66995100  0.72792800  1
  O  O10  1  0.74682400  0.33004900  0.77207200  1
  O  O11  1  0.75317600  0.33004900  0.27207200  1
  O  O12  1  0.15782700  0.93179900  0.06846000  1
  O  O13  1  0.34217300  0.93179900  0.56846000  1
  O  O14  1  0.84217300  0.06820100  0.93154000  1
  O  O15  1  0.65782700  0.06820100  0.43154000  1
  O  O16  1  0.99441200  0.53657100  0.38024800  1
  O  O17  1  0.50558800  0.53657100  0.88024800  1
  O  O18  1  0.00558800  0.46342900  0.61975200  1
  O  O19  1  0.49441200  0.46342900  0.11975200  1
  O  O20  1  0.42124200  0.95191800  0.17725600  1
  O  O21  1  0.07875800  0.95191800  0.67725600  1
  O  O22  1  0.57875800  0.04808200  0.82274400  1
  O  O23  1  0.92124200  0.04808200  0.32274400  1
  O  O24  1  0.02589500  0.84026800  0.28065300  1
  O  O25  1  0.47410500  0.84026800  0.78065300  1
  O  O26  1  0.97410500  0.15973200  0.71934700  1
  O  O27  1  0.52589500  0.15973200  0.21934700  1
  O  O28  1  0.31835500  0.61588100  0.47158600  1
  O  O29  1  0.18164500  0.61588100  0.97158600  1
  O  O30  1  0.68164500  0.38411900  0.52841400  1
  O  O31  1  0.81835500  0.38411900  0.02841400  1
  O  O32  1  0.51966200  0.81867500  0.08141400  1
  O  O33  1  0.98033800  0.81867500  0.58141400  1
  O  O34  1  0.48033800  0.18132500  0.91858600  1
  O  O35  1  0.01966200  0.18132500  0.41858600  1
  O  O36  1  0.59749700  0.73692300  0.52415800  1
  O  O37  1  0.90250300  0.73692300  0.02415800  1
  O  O38  1  0.40250300  0.26307700  0.47584200  1
  O  O39  1  0.09749700  0.26307700  0.97584200  1
  O  O40  1  0.62332100  0.77425400  0.36089000  1
  O  O41  1  0.87667900  0.77425400  0.86089000  1
  O  O42  1  0.37667900  0.22574600  0.63911000  1
  O  O43  1  0.12332100  0.22574600  0.13911000  1
loop_
_geom_bond_atom_site_label_1
_geom_bond_atom_site_label_2
_geom_bond_distance
_geom_bond_site_symmetry_2
K0 O38 2.770276 1_555
K0 O40 2.838978 1_555
K0 O8 2.892794 1_555
K0 O4 2.941622 1_555
K0 O30 2.952568 1_555
K0 O16 3.164159 1_555
K0 O11 3.281078 1_555
K0 O7 3.304780 1_555
K0 O28 3.360595 1_555
K1 O39 2.770276 1_655
K1 O41 2.838978 1_555
K1 O9 2.892794 1_655
K1 O5 2.941622 1_555
K1 O31 2.952568 1_556
K1 O17 3.164159 1_555
K1 O10 3.281078 1_555
K1 O6 3.304780 1_655
K1 O29 3.360595 1_655
K2 O36 2.770276 1_555
K2 O42 2.838978 1_555
K2 O10 2.892794 1_555
K2 O6 2.941622 1_555
K2 O28 2.952568 1_555
K2 O18 3.164159 1_555
K2 O9 3.281078 1_555
K2 O5 3.304780 1_555
K2 O30 3.360595 1_555
K3 O37 2.770276 1_455
K3 O43 2.838978 1_555
K3 O11 2.892794 1_455
K3 O7 2.941622 1_555
K3 O29 2.952568 1_554
K3 O19 3.164159 1_555
K3 O8 3.281078 1_555
K3 O4 3.304780 1_455
K3 O31 3.360595 1_455
Ba0 O29 2.766227 1_555
Ba0 O19 2.772674 1_556
Ba0 O32 2.830665 1_556
Ba0 O37 2.834674 1_556
Ba0 O41 2.879147 1_555
Ba0 O25 2.892180 1_555
Ba0 O17 3.020075 1_555
Ba0 O22 3.072852 1_565
Ba0 O1 3.073476 1_555
Ba1 O28 2.766227 1_655
Ba1 O18 2.772674 1_655
Ba1 O33 2.830665 1_555
Ba1 O36 2.834674 1_555
Ba1 O40 2.879147 1_555
Ba1 O24 2.892180 1_655
Ba1 O16 3.020075 1_555
Ba1 O23 3.072852 1_565
Ba1 O0 3.073476 1_655
Ba2 O31 2.766227 1_555
Ba2 O17 2.772674 1_554
Ba2 O34 2.830665 1_554
Ba2 O39 2.834674 1_554
Ba2 O43 2.879147 1_555
Ba2 O27 2.892180 1_555
Ba2 O19 3.020075 1_555
Ba2 O20 3.072852 1_545
Ba2 O3 3.073476 1_555
Ba3 O30 2.766227 1_455
Ba3 O16 2.772674 1_455
Ba3 O35 2.830665 1_555
Ba3 O38 2.834674 1_555
Ba3 O42 2.879147 1_555
Ba3 O26 2.892180 1_455
Ba3 O18 3.020075 1_555
Ba3 O21 3.072852 1_545
Ba3 O2 3.073476 1_455
Cd0 O4 2.293921 1_555
Cd0 O37 2.301052 1_555
Cd0 O32 2.316288 1_555
Cd0 O14 2.328359 1_564
Cd0 O3 2.335686 1_565
Cd0 O12 2.362771 1_655
Cd1 O5 2.293921 1_555
Cd1 O36 2.301052 1_555
Cd1 O33 2.316288 1_555
Cd1 O15 2.328359 1_565
Cd1 O2 2.335686 1_565
Cd1 O13 2.362771 1_555
Cd2 O6 2.293921 1_555
Cd2 O39 2.301052 1_555
Cd2 O34 2.316288 1_555
Cd2 O12 2.328359 1_546
Cd2 O1 2.335686 1_545
Cd2 O14 2.362771 1_455
Cd3 O7 2.293921 1_555
Cd3 O38 2.301052 1_555
Cd3 O35 2.316288 1_555
Cd3 O13 2.328359 1_545
Cd3 O0 2.335686 1_545
Cd3 O15 2.362771 1_555
Cd4 O43 2.202443 1_555
Cd4 O0 2.235921 1_545
Cd4 O24 2.304620 1_545
Cd4 O20 2.418238 1_545
Cd4 O27 2.442421 1_555
Cd4 O23 2.535517 1_455
Cd5 O42 2.202443 1_555
Cd5 O1 2.235921 1_545
Cd5 O25 2.304620 1_545
Cd5 O21 2.418238 1_545
Cd5 O26 2.442421 1_455
Cd5 O22 2.535517 1_555
Cd6 O41 2.202443 1_555
Cd6 O2 2.235921 1_565
Cd6 O26 2.304620 1_565
Cd6 O22 2.418238 1_565
Cd6 O25 2.442421 1_555
Cd6 O21 2.535517 1_655
Cd7 O40 2.202443 1_555
Cd7 O3 2.235921 1_565
Cd7 O27 2.304620 1_565
Cd7 O23 2.418238 1_565
Cd7 O24 2.442421 1_655
Cd7 O20 2.535517 1_555
O0 V8 1.800488 1_555
O1 V9 1.800488 1_555
O2 V10 1.800488 1_555
O3 V11 1.800488 1_555
O4 V4 1.713116 1_655
O5 V5 1.713116 1_555
O6 V6 1.713116 1_455
O7 V7 1.713116 1_555
O8 V0 1.838767 1_555
O8 V4 1.853414 1_555
O9 V1 1.838767 1_555
O9 V5 1.853414 1_555
O10 V2 1.838767 1_555
O10 V6 1.853414 1_555
O11 V3 1.838767 1_555
O11 V7 1.853414 1_555
O12 V0 1.720908 1_555
O13 V1 1.720908 1_555
O14 V2 1.720908 1_555
O15 V3 1.720908 1_555
O16 V4 1.694228 1_655
O17 V5 1.694228 1_555
O18 V6 1.694228 1_455
O19 V7 1.694228 1_555
O20 V0 1.731720 1_555
O21 V1 1.731720 1_555
O22 V2 1.731720 1_555
O23 V3 1.731720 1_555
O24 V4 1.750701 1_555
O25 V5 1.750701 1_555
O26 V6 1.750701 1_555
O27 V7 1.750701 1_555
O28 V8 1.698297 1_555
O29 V9 1.698297 1_555
O30 V10 1.698297 1_555
O31 V11 1.698297 1_555
O32 V0 1.717452 1_555
O33 V1 1.717452 1_655
O34 V2 1.717452 1_555
O35 V3 1.717452 1_455
O36 V8 1.738408 1_555
O37 V9 1.738408 1_654
O38 V10 1.738408 1_555
O39 V11 1.738408 1_456
O40 V8 1.761146 1_555
O41 V9 1.761146 1_655
O42 V10 1.761146 1_555
O43 V11 1.761146 1_455
