# generated using pymatgen
data_NaYF4
_symmetry_space_group_name_H-M   'P 1'
_cell_length_a   5.94635239
_cell_length_b   6.89285099
_cell_length_c   6.89830674
_cell_angle_alpha   61.40988404
_cell_angle_beta   64.53177736
_cell_angle_gamma   64.48708099
_symmetry_Int_Tables_number   1
_chemical_formula_structural   NaYF4
_chemical_formula_sum   'Na3 Y3 F12'
_cell_volume   214.92897274
_cell_formula_units_Z   3
loop_
 _symmetry_equiv_pos_site_id
 _symmetry_equiv_pos_as_xyz
  1  'x, y, z'
loop_
 _atom_site_type_symbol
 _atom_site_label
 _atom_site_symmetry_multiplicity
 _atom_site_fract_x
 _atom_site_fract_y
 _atom_site_fract_z
 _atom_site_occupancy
  Na  Na0  1  0.66493240  0.97919363  0.67247355  1
  Na  Na1  1  0.66550871  0.50039742  0.18293151  1
  Na  Na2  1  0.33122737  0.92293502  0.41199398  1
  Y  Y0  1  0.99760964  0.99683636  0.00551031  1
  Y  Y1  1  0.00257344  0.49748517  0.50020652  1
  Y  Y2  1  0.33535712  0.41824377  0.91214247  1
  F  F0  1  0.04176956  0.77570210  0.81908760  1
  F  F1  1  0.05153361  0.31785201  0.27338444  1
  F  F2  1  0.36269650  0.50547166  0.53757083  1
  F  F3  1  0.36068707  0.04165885  0.00543633  1
  F  F4  1  0.59486506  0.65987107  0.69951331  1
  F  F5  1  0.59317154  0.20389896  0.15796669  1
  F  F6  1  0.75479686  0.23358843  0.73445141  1
  F  F7  1  0.75750338  0.74130256  0.24709104  1
  F  F8  1  0.25314822  0.12500496  0.63337650  1
  F  F9  1  0.27564575  0.62878827  0.12686274  1
  F  F10  1  0.97915201  0.87850380  0.38357146  1
  F  F11  1  0.97782176  0.38426798  0.88542733  1
loop_
_geom_bond_atom_site_label_1
_geom_bond_atom_site_label_2
_geom_bond_distance
_geom_bond_site_symmetry_2
F0 Y2 2.296799 1_555
F0 Y0 2.299330 1_456
F0 Na0 2.428038 1_455
F0 Na2 2.549292 1_555
F1 Y1 2.284302 1_555
F1 Na1 2.287783 1_455
F1 Y2 2.296896 1_554
F1 Na2 2.463096 1_545
F2 Y1 2.290187 1_555
F2 Y2 2.302295 1_555
F2 Na1 2.338289 1_555
F2 Na2 2.520986 1_555
F3 Y2 2.307050 1_554
F3 Y0 2.308717 1_445
F3 Na0 2.331486 1_544
F3 Na2 2.463798 1_545
F4 Y2 2.288197 1_555
F4 Y1 2.299862 1_655
F4 Na0 2.320168 1_555
F4 Na2 2.542189 1_555
F5 Y0 2.287224 1_545
F5 Y2 2.301201 1_554
F5 Na1 2.355696 1_555
F5 Na2 2.500115 1_545
F6 Na0 2.294405 1_545
F6 Y2 2.339342 1_555
F6 Y1 2.353437 1_655
F6 Y0 2.369777 1_546
F7 Na1 2.224089 1_555
F7 Y0 2.286653 1_555
F7 Y1 2.294976 1_655
F7 Na2 2.331543 1_555
F8 Na0 2.295025 1_545
F8 Y1 2.297881 1_555
F8 Y0 2.304454 1_446
F8 Na2 2.314462 1_545
F9 Na1 2.232342 1_555
F9 Y0 2.326955 1_455
F9 Y1 2.351002 1_555
F9 Y2 2.363753 1_554
F10 Na0 2.224606 1_555
F10 Y0 2.296507 1_555
F10 Y1 2.307189 1_655
F10 Na2 2.340526 1_655
F11 Na1 2.305506 1_556
F11 Y2 2.327227 1_655
F11 Y1 2.338822 1_655
F11 Y0 2.351080 1_546
