# generated using pymatgen
data_Sm3(CuGe)4
_symmetry_space_group_name_H-M   'P 1'
_cell_length_a   8.14899437
_cell_length_b   8.14899437
_cell_length_c   8.14899437
_cell_angle_alpha   149.42204247
_cell_angle_beta   131.44185838
_cell_angle_gamma   58.47991041
_symmetry_Int_Tables_number   1
_chemical_formula_structural   Sm3(CuGe)4
_chemical_formula_sum   'Sm3 Cu4 Ge4'
_cell_volume   204.78641699
_cell_formula_units_Z   1
loop_
 _symmetry_equiv_pos_site_id
 _symmetry_equiv_pos_as_xyz
  1  'x, y, z'
loop_
 _atom_site_type_symbol
 _atom_site_label
 _atom_site_symmetry_multiplicity
 _atom_site_fract_x
 _atom_site_fract_y
 _atom_site_fract_z
 _atom_site_occupancy
  Sm  Sm0  1  0.50000000  0.00000000  0.50000000  1
  Sm  Sm1  1  0.86856200  0.86856200  0.00000000  1
  Sm  Sm2  1  0.13143800  0.13143800  0.00000000  1
  Cu  Cu0  1  0.47966400  0.66832600  0.81133800  1
  Cu  Cu1  1  0.85698800  0.66832600  0.18866200  1
  Cu  Cu2  1  0.14301200  0.33167400  0.81133800  1
  Cu  Cu3  1  0.52033600  0.33167400  0.18866200  1
  Ge  Ge0  1  0.28469900  0.78469900  0.50000000  1
  Ge  Ge1  1  0.71530100  0.21530100  0.50000000  1
  Ge  Ge2  1  0.80972100  0.50000000  0.30972100  1
  Ge  Ge3  1  0.19027900  0.50000000  0.69027900  1
loop_
_geom_bond_atom_site_label_1
_geom_bond_atom_site_label_2
_geom_bond_distance
_geom_bond_site_symmetry_2
Cu0 Ge3 2.527553 1_555
Cu0 Cu1 2.528610 1_556
Cu0 Ge1 2.581094 1_566
Cu0 Ge1 2.581094 1_555
Cu0 Ge0 2.663092 1_555
Cu0 Sm2 3.040657 1_555
Cu0 Sm2 3.040657 1_566
Cu0 Sm1 3.115673 1_556
Cu1 Ge2 2.527553 1_555
Cu1 Ge1 2.581094 1_565
Cu1 Ge1 2.581094 1_554
Cu1 Ge0 2.663092 1_655
Cu1 Sm2 3.040657 1_655
Cu1 Sm2 3.040657 1_666
Cu1 Sm1 3.115673 1_555
Cu2 Ge3 2.527553 1_555
Cu2 Cu3 2.528610 1_556
Cu2 Ge0 2.581094 1_545
Cu2 Ge0 2.581094 1_556
Cu2 Ge1 2.663092 1_455
Cu2 Sm1 3.040657 1_445
Cu2 Sm1 3.040657 1_456
Cu2 Sm2 3.115673 1_556
Cu3 Ge2 2.527553 1_555
Cu3 Ge0 2.581094 1_544
Cu3 Ge0 2.581094 1_555
Cu3 Ge1 2.663092 1_555
Cu3 Sm1 3.040657 1_545
Cu3 Sm1 3.040657 1_556
Cu3 Sm2 3.115673 1_555
Ge0 Sm2 3.060692 1_555
Ge0 Sm2 3.060692 1_566
Ge0 Sm0 3.061866 1_565
Ge1 Sm1 3.060692 1_556
Ge1 Sm1 3.060692 1_545
Ge1 Sm0 3.061866 1_555
Ge2 Ge3 2.550283 1_655
Ge2 Sm0 2.987523 1_565
Ge2 Sm0 2.987523 1_554
Ge2 Sm2 3.120460 1_655
Ge2 Sm2 3.120460 1_666
Ge2 Sm1 3.120460 1_556
Ge2 Sm1 3.120460 1_545
Ge3 Sm0 2.987523 1_566
Ge3 Sm0 2.987523 1_555
Ge3 Sm2 3.120460 1_566
Ge3 Sm1 3.120460 1_456
Ge3 Sm2 3.120460 1_555
Ge3 Sm1 3.120460 1_445
