# generated using pymatgen
data_Y(FeGe)6
_symmetry_space_group_name_H-M   'P 1'
_cell_length_a   5.11164300
_cell_length_b   8.12340500
_cell_length_c   9.71005169
_cell_angle_alpha   114.72723033
_cell_angle_beta   90.00000000
_cell_angle_gamma   90.00000000
_symmetry_Int_Tables_number   1
_chemical_formula_structural   Y(FeGe)6
_chemical_formula_sum   'Y2 Fe12 Ge12'
_cell_volume   366.23007799
_cell_formula_units_Z   2
loop_
 _symmetry_equiv_pos_site_id
 _symmetry_equiv_pos_as_xyz
  1  'x, y, z'
loop_
 _atom_site_type_symbol
 _atom_site_label
 _atom_site_symmetry_multiplicity
 _atom_site_fract_x
 _atom_site_fract_y
 _atom_site_fract_z
 _atom_site_occupancy
  Y  Y0  1  0.25000000  0.12675200  0.25350400  1
  Y  Y1  1  0.75000000  0.87324800  0.74649600  1
  Fe  Fe0  1  0.50000000  0.00000000  0.50000000  1
  Fe  Fe1  1  0.50000000  0.50000000  0.50000000  1
  Fe  Fe2  1  0.00000000  0.00000000  0.50000000  1
  Fe  Fe3  1  0.00000000  0.50000000  0.50000000  1
  Fe  Fe4  1  0.50000000  0.74983500  0.00000000  1
  Fe  Fe5  1  0.00000000  0.74983500  0.00000000  1
  Fe  Fe6  1  0.50000000  0.25016500  0.00000000  1
  Fe  Fe7  1  0.00000000  0.25016500  0.00000000  1
  Fe  Fe8  1  0.75000000  0.87453800  0.25014500  1
  Fe  Fe9  1  0.25000000  0.62439300  0.74985500  1
  Fe  Fe10  1  0.25000000  0.12546200  0.74985500  1
  Fe  Fe11  1  0.75000000  0.37560700  0.25014500  1
  Ge  Ge0  1  0.75000000  0.04216200  0.08432400  1
  Ge  Ge1  1  0.25000000  0.95783800  0.91567600  1
  Ge  Ge2  1  0.75000000  0.54107100  0.08214200  1
  Ge  Ge3  1  0.25000000  0.45892900  0.91785800  1
  Ge  Ge4  1  0.75000000  0.21100800  0.42201600  1
  Ge  Ge5  1  0.25000000  0.78899200  0.57798400  1
  Ge  Ge6  1  0.75000000  0.70513800  0.41027700  1
  Ge  Ge7  1  0.25000000  0.29486200  0.58972300  1
  Ge  Ge8  1  0.25000000  0.77787500  0.24888700  1
  Ge  Ge9  1  0.75000000  0.52898900  0.75111300  1
  Ge  Ge10  1  0.75000000  0.22212500  0.75111300  1
  Ge  Ge11  1  0.25000000  0.47101100  0.24888700  1
loop_
_geom_bond_atom_site_label_1
_geom_bond_atom_site_label_2
_geom_bond_distance
_geom_bond_site_symmetry_2
Fe0 Ge4 2.496093 1_555
Fe0 Ge5 2.496093 1_545
Fe0 Ge7 2.526586 1_555
Fe0 Ge6 2.526586 1_545
Fe0 Fe8 2.547384 1_545
Fe0 Fe10 2.547384 1_555
Fe0 Fe2 2.555821 1_655
Fe0 Fe2 2.555821 1_555
Fe0 Ge10 2.674613 1_555
Fe0 Ge8 2.674613 1_545
Fe0 Y0 3.237872 1_555
Fe0 Y1 3.237872 1_545
Fe1 Ge4 2.496093 1_555
Fe1 Ge5 2.496093 1_555
Fe1 Ge7 2.526580 1_555
Fe1 Ge6 2.526580 1_555
Fe1 Fe11 2.547384 1_555
Fe1 Fe9 2.547384 1_555
Fe1 Fe3 2.555821 1_555
Fe1 Fe3 2.555821 1_655
Fe1 Ge11 2.674611 1_555
Fe1 Ge9 2.674611 1_555
Fe1 Y0 3.237872 1_555
Fe1 Y1 3.237872 1_555
Fe2 Ge4 2.496093 1_455
Fe2 Ge5 2.496093 1_545
Fe2 Ge7 2.526586 1_555
Fe2 Ge6 2.526586 1_445
Fe2 Fe8 2.547384 1_445
Fe2 Ge10 2.674613 1_455
Fe2 Ge8 2.674613 1_545
Fe2 Y0 3.237872 1_555
Fe2 Y1 3.237872 1_445
Fe3 Ge4 2.496093 1_455
Fe3 Ge5 2.496093 1_555
Fe3 Ge7 2.526580 1_555
Fe3 Ge6 2.526580 1_455
Fe3 Fe9 2.547384 1_555
Fe3 Ge11 2.674611 1_555
Fe3 Ge9 2.674611 1_455
Fe3 Y0 3.237872 1_555
Fe3 Y1 3.237872 1_455
Fe4 Ge3 2.505360 1_554
Fe4 Ge2 2.505360 1_555
Fe4 Ge0 2.513159 1_565
Fe4 Ge1 2.513160 1_554
Fe4 Fe9 2.549595 1_554
Fe4 Fe8 2.549595 1_555
Fe4 Fe5 2.555821 1_555
Fe4 Fe5 2.555821 1_655
Fe4 Ge9 2.657981 1_554
Fe4 Ge8 2.657984 1_555
Fe4 Y0 3.280522 1_565
Fe4 Y1 3.280522 1_554
Fe5 Ge3 2.505360 1_554
Fe5 Ge2 2.505360 1_455
Fe5 Ge0 2.513159 1_465
Fe5 Ge1 2.513160 1_554
Fe5 Fe9 2.549595 1_554
Fe5 Fe8 2.549595 1_455
Fe5 Ge9 2.657981 1_454
Fe5 Ge8 2.657984 1_555
Fe5 Y0 3.280522 1_565
Fe5 Y1 3.280522 1_454
Fe6 Ge2 2.505360 1_555
Fe6 Ge3 2.505360 1_554
Fe6 Ge1 2.513159 1_544
Fe6 Ge0 2.513160 1_555
Fe6 Fe7 2.555821 1_555
Fe6 Fe7 2.555821 1_655
Fe6 Ge11 2.657981 1_555
Fe6 Ge10 2.657984 1_554
Fe6 Y1 3.280522 1_544
Fe6 Y0 3.280522 1_555
Fe7 Ge2 2.505360 1_455
Fe7 Ge3 2.505360 1_554
Fe7 Ge1 2.513159 1_544
Fe7 Ge0 2.513160 1_455
Fe7 Ge11 2.657981 1_555
Fe7 Ge10 2.657984 1_454
Fe7 Y1 3.280522 1_444
Fe7 Y0 3.280522 1_555
Fe8 Ge6 2.470103 1_555
Fe8 Ge0 2.506174 1_565
Fe8 Ge2 2.510438 1_555
Fe8 Ge4 2.537682 1_565
Fe8 Ge8 2.672253 1_555
Fe8 Ge8 2.672253 1_655
Fe8 Y0 3.267279 1_565
Fe8 Y0 3.267279 1_665
Fe9 Ge7 2.470096 1_555
Fe9 Ge1 2.506174 1_555
Fe9 Ge3 2.510438 1_555
Fe9 Ge5 2.537682 1_555
Fe9 Ge9 2.672251 1_555
Fe9 Ge9 2.672251 1_455
Fe9 Y1 3.267279 1_555
Fe9 Y1 3.267279 1_455
Fe10 Ge7 2.470103 1_555
Fe10 Ge1 2.506174 1_545
Fe10 Ge3 2.510438 1_555
Fe10 Ge5 2.537682 1_545
Fe10 Fe2 2.547384 1_555
Fe10 Fe7 2.549595 1_556
Fe10 Fe6 2.549595 1_556
Fe10 Ge10 2.672253 1_555
Fe10 Ge10 2.672253 1_455
Fe10 Y1 3.267279 1_545
Fe10 Y1 3.267279 1_445
Fe11 Ge6 2.470096 1_555
Fe11 Ge0 2.506174 1_555
Fe11 Ge2 2.510438 1_555
Fe11 Ge4 2.537682 1_555
Fe11 Fe3 2.547384 1_655
Fe11 Fe7 2.549595 1_655
Fe11 Fe6 2.549595 1_555
Fe11 Ge11 2.672251 1_555
Fe11 Ge11 2.672251 1_655
Fe11 Y0 3.267279 1_655
Fe11 Y0 3.267279 1_555
Ge0 Y0 2.959502 1_555
Ge0 Y0 2.959502 1_655
Ge0 Y1 2.979552 1_544
Ge1 Y1 2.959502 1_555
Ge1 Y1 2.959502 1_455
Ge1 Y0 2.979552 1_566
Ge4 Y0 2.956536 1_655
Ge4 Y0 2.956536 1_555
Ge5 Y1 2.956536 1_555
Ge5 Y1 2.956536 1_455
Ge6 Y1 2.965361 1_555
Ge7 Y0 2.965361 1_555
Ge8 Y0 2.815611 1_565
Ge9 Y1 2.815603 1_555
Ge10 Ge9 2.492781 1_555
Ge10 Y1 2.815611 1_545
Ge11 Ge8 2.492781 1_555
Ge11 Y0 2.815603 1_555
