# generated using pymatgen
data_ZnCoNi2O7
_symmetry_space_group_name_H-M   'P 1'
_cell_length_a   13.14305200
_cell_length_b   7.01884000
_cell_length_c   10.90062757
_cell_angle_alpha   71.05291492
_cell_angle_beta   90.00000000
_cell_angle_gamma   90.00000000
_symmetry_Int_Tables_number   1
_chemical_formula_structural   ZnCoNi2O7
_chemical_formula_sum   'Zn8 Co8 Ni16 O56'
_cell_volume   951.08872725
_cell_formula_units_Z   8
loop_
 _symmetry_equiv_pos_site_id
 _symmetry_equiv_pos_as_xyz
  1  'x, y, z'
loop_
 _atom_site_type_symbol
 _atom_site_label
 _atom_site_symmetry_multiplicity
 _atom_site_fract_x
 _atom_site_fract_y
 _atom_site_fract_z
 _atom_site_occupancy
  Zn  Zn0  1  0.48526900  0.94773600  0.78716100  1
  Zn  Zn1  1  0.85825100  0.69698400  0.92330700  1
  Zn  Zn2  1  0.35825100  0.30301600  0.57669300  1
  Zn  Zn3  1  0.14174900  0.30301600  0.07669300  1
  Zn  Zn4  1  0.64174900  0.69698400  0.42330700  1
  Zn  Zn5  1  0.01473100  0.94773600  0.28716100  1
  Zn  Zn6  1  0.51473100  0.05226400  0.21283900  1
  Zn  Zn7  1  0.98526900  0.05226400  0.71283900  1
  Co  Co0  1  0.68478400  0.37997700  0.06020700  1
  Co  Co1  1  0.18478400  0.62002300  0.43979300  1
  Co  Co2  1  0.31521600  0.62002300  0.93979300  1
  Co  Co3  1  0.81521600  0.37997700  0.56020700  1
  Co  Co4  1  0.77737500  0.02731500  0.24602100  1
  Co  Co5  1  0.27737500  0.97268500  0.25397900  1
  Co  Co6  1  0.22262500  0.97268500  0.75397900  1
  Co  Co7  1  0.72262500  0.02731500  0.74602100  1
  Ni  Ni0  1  0.87527200  0.16872200  0.96941800  1
  Ni  Ni1  1  0.00423700  0.59089600  0.67912800  1
  Ni  Ni2  1  0.49576300  0.59089600  0.17912800  1
  Ni  Ni3  1  0.99576300  0.40910400  0.32087200  1
  Ni  Ni4  1  0.72279000  0.52543500  0.76210800  1
  Ni  Ni5  1  0.22279000  0.47456500  0.73789200  1
  Ni  Ni6  1  0.27721000  0.47456500  0.23789200  1
  Ni  Ni7  1  0.77721000  0.52543500  0.26210800  1
  Ni  Ni8  1  0.50423700  0.40910400  0.82087200  1
  Ni  Ni9  1  0.15300800  0.12051300  0.45917200  1
  Ni  Ni10  1  0.65300800  0.87948700  0.04082800  1
  Ni  Ni11  1  0.84699200  0.87948700  0.54082800  1
  Ni  Ni12  1  0.37527200  0.83127800  0.53058200  1
  Ni  Ni13  1  0.62472800  0.16872200  0.46941800  1
  Ni  Ni14  1  0.12472800  0.83127800  0.03058200  1
  Ni  Ni15  1  0.34699200  0.12051300  0.95917200  1
  O  O0  1  0.03082800  0.32620400  0.94067300  1
  O  O1  1  0.53082800  0.67379600  0.55932700  1
  O  O2  1  0.96917200  0.67379600  0.05932700  1
  O  O3  1  0.46917200  0.32620400  0.44067300  1
  O  O4  1  0.84261400  0.00853700  0.86740100  1
  O  O5  1  0.34261400  0.99146300  0.63259900  1
  O  O6  1  0.15738600  0.99146300  0.13259900  1
  O  O7  1  0.65738600  0.00853700  0.36740100  1
  O  O8  1  0.88501400  0.00928800  0.14626100  1
  O  O9  1  0.38501400  0.99071200  0.35373900  1
  O  O10  1  0.11498600  0.99071200  0.85373900  1
  O  O11  1  0.61498600  0.00928800  0.64626100  1
  O  O12  1  0.27266400  0.36404300  0.92422500  1
  O  O13  1  0.77266400  0.63595700  0.57577500  1
  O  O14  1  0.72733600  0.63595700  0.07577500  1
  O  O15  1  0.22733600  0.36404300  0.42422500  1
  O  O16  1  0.37026200  0.98886100  0.13626600  1
  O  O17  1  0.87026200  0.01113900  0.36373400  1
  O  O18  1  0.62973800  0.01113900  0.86373400  1
  O  O19  1  0.12973800  0.98886100  0.63626600  1
  O  O20  1  0.32534400  0.90803300  0.89287200  1
  O  O21  1  0.43166400  0.64482100  0.84505700  1
  O  O22  1  0.82534400  0.09196700  0.60712800  1
  O  O23  1  0.17465600  0.90803300  0.39287200  1
  O  O24  1  0.46206200  0.25272700  0.72282600  1
  O  O25  1  0.96206200  0.74727300  0.77717400  1
  O  O26  1  0.53793800  0.74727300  0.27717400  1
  O  O27  1  0.03793800  0.25272700  0.22282600  1
  O  O28  1  0.47345900  0.20884900  0.96593600  1
  O  O29  1  0.97345900  0.79115100  0.53406400  1
  O  O30  1  0.52654100  0.79115100  0.03406400  1
  O  O31  1  0.02654100  0.20884900  0.46593600  1
  O  O32  1  0.92943500  0.59751000  0.17722700  1
  O  O33  1  0.42943500  0.40249000  0.32277300  1
  O  O34  1  0.07056500  0.40249000  0.82277300  1
  O  O35  1  0.57056500  0.59751000  0.67722700  1
  O  O36  1  0.77217900  0.29872300  0.20049200  1
  O  O37  1  0.27217900  0.70127700  0.29950800  1
  O  O38  1  0.22782100  0.70127700  0.79950800  1
  O  O39  1  0.72782100  0.29872300  0.70049200  1
  O  O40  1  0.69535200  0.41231600  0.44436700  1
  O  O41  1  0.19535200  0.58768400  0.05563300  1
  O  O42  1  0.30464800  0.58768400  0.55563300  1
  O  O43  1  0.80464800  0.41231600  0.94436700  1
  O  O44  1  0.74502600  0.77101100  0.28301900  1
  O  O45  1  0.24502600  0.22898900  0.21698100  1
  O  O46  1  0.25497400  0.22898900  0.71698100  1
  O  O47  1  0.75497400  0.77101100  0.78301900  1
  O  O48  1  0.87499000  0.45693900  0.40600800  1
  O  O49  1  0.37499000  0.54306100  0.09399200  1
  O  O50  1  0.12501000  0.54306100  0.59399200  1
  O  O51  1  0.62501000  0.45693900  0.90600800  1
  O  O52  1  0.06833600  0.64482100  0.34505700  1
  O  O53  1  0.56833600  0.35517900  0.15494300  1
  O  O54  1  0.93166400  0.35517900  0.65494300  1
  O  O55  1  0.67465600  0.09196700  0.10712800  1
loop_
_geom_bond_atom_site_label_1
_geom_bond_atom_site_label_2
_geom_bond_distance
_geom_bond_site_symmetry_2
Co0 O51 1.773320 1_554
Co0 O53 1.822740 1_555
Co0 O36 1.848436 1_555
Co0 O55 1.922067 1_555
Co0 O14 1.941041 1_555
Co0 O43 1.985371 1_554
Co1 O50 1.773320 1_555
Co1 O52 1.822740 1_555
Co1 O37 1.848436 1_555
Co1 O23 1.922067 1_555
Co1 O15 1.941041 1_555
Co1 O42 1.985371 1_555
Co2 O49 1.773320 1_556
Co2 O21 1.822740 1_555
Co2 O38 1.848436 1_555
Co2 O20 1.922067 1_555
Co2 O12 1.941041 1_555
Co2 O41 1.985371 1_556
Co3 O48 1.773320 1_555
Co3 O54 1.822740 1_555
Co3 O39 1.848436 1_555
Co3 O22 1.922067 1_555
Co3 O13 1.941041 1_555
Co3 O40 1.985371 1_555
Co4 O17 1.747897 1_555
Co4 O44 1.763098 1_545
Co4 O36 1.807189 1_555
Co4 O8 1.813640 1_555
Co4 O55 1.968409 1_555
Co4 O7 2.035133 1_555
Co5 O16 1.747897 1_555
Co5 O45 1.763098 1_565
Co5 O37 1.807189 1_555
Co5 O9 1.813640 1_555
Co5 O23 1.968409 1_555
Co5 O6 2.035133 1_555
Co6 O19 1.747897 1_555
Co6 O46 1.763098 1_565
Co6 O38 1.807189 1_555
Co6 O10 1.813640 1_555
Co6 O20 1.968409 1_555
Co6 O5 2.035133 1_555
Co7 O18 1.747897 1_555
Co7 O47 1.763098 1_545
Co7 O39 1.807189 1_555
Co7 O11 1.813640 1_555
Co7 O22 1.968409 1_555
Co7 O4 2.035133 1_555
Ni0 O4 1.869998 1_555
Ni0 O43 1.885788 1_555
Ni0 O8 1.893100 1_556
Ni0 O0 2.296725 1_655
Ni1 O29 1.787840 1_455
Ni1 O25 1.848236 1_455
Ni1 O34 1.901531 1_555
Ni1 O50 1.922477 1_555
Ni1 O54 1.999944 1_455
Ni2 O30 1.787840 1_555
Ni2 O26 1.848236 1_555
Ni2 O33 1.901531 1_555
Ni2 O49 1.922477 1_555
Ni2 O53 1.999944 1_555
Ni3 O31 1.787840 1_655
Ni3 O27 1.848236 1_655
Ni3 O32 1.901531 1_555
Ni3 O48 1.922477 1_555
Ni3 O52 1.999944 1_655
Ni4 O47 1.859308 1_555
Ni4 O39 1.918758 1_555
Ni4 O51 1.963026 1_555
Ni4 O13 2.033175 1_555
Ni4 O43 2.170401 1_555
Ni4 O35 2.193367 1_555
Ni5 O46 1.859308 1_555
Ni5 O38 1.918758 1_555
Ni5 O50 1.963026 1_555
Ni5 O12 2.033175 1_555
Ni5 O42 2.170401 1_555
Ni5 O34 2.193367 1_555
Ni6 O45 1.859308 1_555
Ni6 O37 1.918758 1_555
Ni6 O49 1.963026 1_555
Ni6 O15 2.033175 1_555
Ni6 O41 2.170401 1_555
Ni6 O33 2.193367 1_555
Ni7 O44 1.859308 1_555
Ni7 O36 1.918758 1_555
Ni7 O48 1.963026 1_555
Ni7 O14 2.033175 1_555
Ni7 O40 2.170401 1_555
Ni7 O32 2.193367 1_555
Ni8 O28 1.787840 1_555
Ni8 O24 1.848236 1_555
Ni8 O35 1.901531 1_555
Ni8 O51 1.922477 1_555
Ni8 O21 1.999944 1_555
Ni9 O31 1.783908 1_555
Ni9 O19 1.874991 1_545
Ni9 O23 1.878126 1_545
Ni9 O15 1.896918 1_555
Ni10 O30 1.783908 1_555
Ni10 O18 1.874991 1_564
Ni10 O55 1.878126 1_565
Ni10 O14 1.896918 1_555
Ni11 O29 1.783908 1_555
Ni11 O17 1.874991 1_565
Ni11 O22 1.878126 1_565
Ni11 O13 1.896918 1_555
Ni12 O5 1.869998 1_555
Ni12 O42 1.885788 1_555
Ni12 O9 1.893100 1_555
Ni12 O1 2.296725 1_555
Ni13 O7 1.869998 1_555
Ni13 O40 1.885788 1_555
Ni13 O11 1.893100 1_555
Ni13 O3 2.296725 1_555
Ni14 O6 1.869998 1_555
Ni14 O41 1.885788 1_555
Ni14 O10 1.893100 1_554
Ni14 O2 2.296725 1_455
Ni15 O28 1.783908 1_555
Ni15 O16 1.874991 1_546
Ni15 O20 1.878126 1_545
Ni15 O12 1.896918 1_555
O0 O34 1.328264 1_555
O0 Zn3 2.047801 1_556
O1 O35 1.328264 1_555
O1 Zn4 2.047801 1_555
O2 O32 1.328264 1_555
O2 Zn1 2.047801 1_554
O3 O33 1.328264 1_555
O3 Zn2 2.047801 1_555
O4 Zn1 2.080880 1_545
O4 Zn7 2.472319 1_555
O5 Zn2 2.080880 1_565
O5 Zn0 2.472319 1_555
O6 Zn3 2.080880 1_565
O6 Zn5 2.472319 1_555
O7 Zn4 2.080880 1_545
O7 Zn6 2.472319 1_555
O8 Zn5 2.240834 1_645
O9 Zn6 2.240834 1_565
O10 Zn7 2.240834 1_465
O11 Zn0 2.240834 1_545
O12 Zn3 2.333228 1_556
O13 Zn4 2.333228 1_555
O14 Zn1 2.333228 1_554
O15 Zn2 2.333228 1_555
O16 Zn6 2.177446 1_565
O17 Zn5 2.177446 1_645
O18 Zn0 2.177446 1_545
O19 Zn7 2.177446 1_465
O20 Zn0 2.369590 1_555
O21 Zn0 2.131587 1_555
O22 Zn7 2.369590 1_555
O23 Zn5 2.369590 1_555
O24 Zn2 2.039238 1_555
O24 Zn0 2.047553 1_545
O25 Zn1 2.039238 1_555
O25 Zn7 2.047553 1_565
O26 Zn4 2.039238 1_555
O26 Zn6 2.047553 1_565
O27 Zn3 2.039238 1_555
O27 Zn5 2.047553 1_545
O40 Zn4 2.059934 1_555
O41 Zn3 2.059934 1_555
O42 Zn2 2.059934 1_555
O43 Zn1 2.059934 1_555
O44 Zn4 1.983681 1_555
O45 Zn3 1.983681 1_555
O46 Zn2 1.983681 1_555
O47 Zn1 1.983681 1_555
O52 Zn5 2.131587 1_555
O53 Zn6 2.131587 1_555
O54 Zn7 2.131587 1_555
O55 Zn6 2.369590 1_555
