# generated using pymatgen
data_PrMnCu10
_symmetry_space_group_name_H-M   'P 1'
_cell_length_a   4.92196100
_cell_length_b   8.24771965
_cell_length_c   8.24771965
_cell_angle_alpha   89.89225414
_cell_angle_beta   90.00000000
_cell_angle_gamma   90.00000000
_symmetry_Int_Tables_number   1
_chemical_formula_structural   PrMnCu10
_chemical_formula_sum   'Pr2 Mn2 Cu20'
_cell_volume   334.81521121
_cell_formula_units_Z   2
loop_
 _symmetry_equiv_pos_site_id
 _symmetry_equiv_pos_as_xyz
  1  'x, y, z'
loop_
 _atom_site_type_symbol
 _atom_site_label
 _atom_site_symmetry_multiplicity
 _atom_site_fract_x
 _atom_site_fract_y
 _atom_site_fract_z
 _atom_site_occupancy
  Pr  Pr0  1  0.00000000  0.50000000  0.50000000  1
  Pr  Pr1  1  0.00000000  0.00000000  0.00000000  1
  Mn  Mn0  1  0.00000000  0.38304300  0.11695700  1
  Mn  Mn1  1  0.00000000  0.61695700  0.88304300  1
  Cu  Cu0  1  0.50000000  0.56492900  0.71039100  1
  Cu  Cu1  1  0.50000000  0.43507100  0.28960900  1
  Cu  Cu2  1  0.50000000  0.93512800  0.21211400  1
  Cu  Cu3  1  0.50000000  0.06487200  0.78788600  1
  Cu  Cu4  1  0.50000000  0.71211400  0.43512800  1
  Cu  Cu5  1  0.50000000  0.28788600  0.56487200  1
  Cu  Cu6  1  0.50000000  0.21039100  0.06492900  1
  Cu  Cu7  1  0.50000000  0.78960900  0.93507100  1
  Cu  Cu8  1  0.75929400  0.32080000  0.82080000  1
  Cu  Cu9  1  0.75929400  0.67920000  0.17920000  1
  Cu  Cu10  1  0.75961600  0.17820500  0.32179500  1
  Cu  Cu11  1  0.75961600  0.82179500  0.67820500  1
  Cu  Cu12  1  0.24070600  0.67920000  0.17920000  1
  Cu  Cu13  1  0.24070600  0.32080000  0.82080000  1
  Cu  Cu14  1  0.24038400  0.82179500  0.67820500  1
  Cu  Cu15  1  0.24038400  0.17820500  0.32179500  1
  Cu  Cu16  1  0.50000000  0.00000000  0.50000000  1
  Cu  Cu17  1  0.50000000  0.50000000  0.00000000  1
  Cu  Cu18  1  0.00000000  0.11435300  0.61435300  1
  Cu  Cu19  1  0.00000000  0.88564700  0.38564700  1
loop_
_geom_bond_atom_site_label_1
_geom_bond_atom_site_label_2
_geom_bond_distance
_geom_bond_site_symmetry_2
Mn0 Mn1 2.725815 1_554
Mn0 Pr1 3.304953 1_555
Mn0 Pr0 3.304953 1_555
Mn1 Pr0 3.304953 1_555
Mn1 Pr1 3.304953 1_566
Cu0 Cu17 2.446925 1_556
Cu0 Cu11 2.487864 1_555
Cu0 Cu14 2.487864 1_555
Cu0 Cu8 2.550554 1_555
Cu0 Cu13 2.550554 1_555
Cu0 Cu4 2.572453 1_555
Cu0 Cu5 2.583001 1_555
Cu0 Cu7 2.623139 1_555
Cu0 Mn1 2.875864 1_555
Cu0 Mn1 2.875864 1_655
Cu0 Pr0 3.059048 1_555
Cu0 Pr0 3.059048 1_655
Cu1 Cu17 2.446925 1_555
Cu1 Cu10 2.487864 1_555
Cu1 Cu15 2.487864 1_555
Cu1 Cu9 2.550554 1_555
Cu1 Cu12 2.550554 1_555
Cu1 Cu5 2.572453 1_555
Cu1 Cu4 2.583001 1_555
Cu1 Cu6 2.623139 1_555
Cu1 Mn0 2.875864 1_555
Cu1 Mn0 2.875864 1_655
Cu1 Pr0 3.059048 1_555
Cu1 Pr0 3.059048 1_655
Cu2 Cu9 2.481974 1_555
Cu2 Cu6 2.572453 1_565
Cu2 Cu7 2.583001 1_554
Cu2 Cu4 2.598797 1_555
Cu2 Pr1 3.065906 1_565
Cu2 Pr1 3.065906 1_665
Cu3 Cu8 2.481974 1_555
Cu3 Cu7 2.572453 1_545
Cu3 Cu6 2.583001 1_556
Cu3 Cu5 2.598797 1_555
Cu3 Pr1 3.065906 1_556
Cu3 Pr1 3.065906 1_656
Cu4 Cu9 2.481974 1_555
Cu4 Pr0 3.065906 1_555
Cu4 Pr0 3.065906 1_655
Cu5 Cu8 2.481974 1_555
Cu5 Pr0 3.065906 1_555
Cu5 Pr0 3.065906 1_655
Cu6 Cu8 2.550554 1_554
Cu6 Mn0 2.875864 1_555
Cu6 Mn0 2.875864 1_655
Cu6 Pr1 3.059048 1_555
Cu6 Pr1 3.059048 1_655
Cu7 Cu9 2.550554 1_556
Cu7 Mn1 2.875864 1_655
Cu7 Mn1 2.875864 1_555
Cu7 Pr1 3.059048 1_566
Cu7 Pr1 3.059048 1_666
Cu8 Mn0 2.763742 1_656
Cu8 Mn1 2.763742 1_655
Cu8 Pr1 3.251768 1_656
Cu8 Pr0 3.251768 1_655
Cu9 Mn1 2.763742 1_654
Cu9 Mn0 2.763742 1_655
Cu9 Pr1 3.251768 1_665
Cu9 Pr0 3.251768 1_655
Cu10 Cu15 2.366321 1_655
Cu10 Cu16 2.438285 1_555
Cu10 Cu6 2.487864 1_555
Cu10 Cu5 2.545059 1_555
Cu10 Cu2 2.545059 1_545
Cu10 Cu15 2.555640 1_555
Cu10 Mn0 2.664131 1_655
Cu10 Cu18 2.737644 1_655
Cu10 Cu19 2.737644 1_645
Cu10 Pr0 3.258669 1_655
Cu10 Pr1 3.258669 1_655
Cu11 Cu14 2.366321 1_655
Cu11 Cu16 2.438285 1_565
Cu11 Cu7 2.487864 1_555
Cu11 Cu4 2.545059 1_555
Cu11 Cu3 2.545059 1_565
Cu11 Cu14 2.555640 1_555
Cu11 Mn1 2.664131 1_655
Cu11 Cu18 2.737644 1_665
Cu11 Cu19 2.737644 1_655
Cu11 Pr0 3.258669 1_655
Cu11 Pr1 3.258669 1_666
Cu12 Cu9 2.369491 1_455
Cu12 Cu17 2.450695 1_555
Cu12 Cu4 2.481974 1_555
Cu12 Cu2 2.481974 1_555
Cu12 Cu7 2.550554 1_554
Cu12 Cu9 2.552470 1_555
Cu12 Cu19 2.685706 1_555
Cu12 Mn1 2.763742 1_554
Cu12 Mn0 2.763742 1_555
Cu12 Pr1 3.251768 1_565
Cu12 Pr0 3.251768 1_555
Cu13 Cu8 2.369491 1_455
Cu13 Cu17 2.450695 1_556
Cu13 Cu3 2.481974 1_555
Cu13 Cu5 2.481974 1_555
Cu13 Cu6 2.550554 1_556
Cu13 Cu8 2.552470 1_555
Cu13 Cu18 2.685706 1_555
Cu13 Mn0 2.763742 1_556
Cu13 Mn1 2.763742 1_555
Cu13 Pr1 3.251768 1_556
Cu13 Pr0 3.251768 1_555
Cu14 Cu16 2.438285 1_565
Cu14 Cu7 2.487864 1_555
Cu14 Cu4 2.545059 1_555
Cu14 Cu3 2.545059 1_565
Cu14 Mn1 2.664131 1_555
Cu14 Cu18 2.737644 1_565
Cu14 Cu19 2.737644 1_555
Cu14 Pr0 3.258669 1_555
Cu14 Pr1 3.258669 1_566
Cu15 Cu16 2.438285 1_555
Cu15 Cu6 2.487864 1_555
Cu15 Cu5 2.545059 1_555
Cu15 Cu2 2.545059 1_545
Cu15 Mn0 2.664131 1_555
Cu15 Cu18 2.737644 1_555
Cu15 Cu19 2.737644 1_545
Cu15 Pr0 3.258669 1_555
Cu15 Pr1 3.258669 1_555
Cu16 Cu5 2.434921 1_555
Cu16 Cu2 2.434921 1_545
Cu16 Cu3 2.434921 1_555
Cu16 Cu4 2.434921 1_545
Cu16 Cu18 2.799793 1_655
Cu16 Cu18 2.799793 1_555
Cu16 Cu19 2.799793 1_645
Cu16 Cu19 2.799793 1_545
Cu17 Cu7 2.446925 1_554
Cu17 Cu6 2.446925 1_555
Cu17 Cu8 2.450695 1_554
Cu17 Cu9 2.450695 1_555
Cu17 Mn0 2.813173 1_555
Cu17 Mn0 2.813173 1_655
Cu17 Mn1 2.813173 1_654
Cu17 Mn1 2.813173 1_554
Cu18 Cu19 2.670142 1_545
Cu18 Cu8 2.685706 1_455
Cu18 Cu5 2.875632 1_455
Cu18 Cu5 2.875632 1_555
Cu18 Cu3 2.875632 1_555
Cu18 Cu3 2.875632 1_455
Cu18 Pr0 3.315895 1_555
Cu18 Pr1 3.315895 1_556
Cu19 Cu9 2.685706 1_455
Cu19 Cu2 2.875632 1_455
Cu19 Cu2 2.875632 1_555
Cu19 Cu4 2.875632 1_455
Cu19 Cu4 2.875632 1_555
Cu19 Pr1 3.315895 1_565
Cu19 Pr0 3.315895 1_555
