# generated using pymatgen
data_Na3Co2(GeO4)3
_symmetry_space_group_name_H-M   'P 1'
_cell_length_a   10.50219481
_cell_length_b   10.50219481
_cell_length_c   10.50219481
_cell_angle_alpha   109.47122063
_cell_angle_beta   109.47122063
_cell_angle_gamma   109.47122063
_symmetry_Int_Tables_number   1
_chemical_formula_structural   Na3Co2(GeO4)3
_chemical_formula_sum   'Na12 Co8 Ge12 O48'
_cell_volume   891.69908083
_cell_formula_units_Z   4
loop_
 _symmetry_equiv_pos_site_id
 _symmetry_equiv_pos_as_xyz
  1  'x, y, z'
loop_
 _atom_site_type_symbol
 _atom_site_label
 _atom_site_symmetry_multiplicity
 _atom_site_fract_x
 _atom_site_fract_y
 _atom_site_fract_z
 _atom_site_occupancy
  Na  Na0  1  0.75000000  0.62500000  0.87500000  1
  Na  Na1  1  0.25000000  0.87500000  0.62500000  1
  Na  Na2  1  0.62500000  0.25000000  0.87500000  1
  Na  Na3  1  0.87500000  0.75000000  0.62500000  1
  Na  Na4  1  0.87500000  0.62500000  0.25000000  1
  Na  Na5  1  0.62500000  0.87500000  0.75000000  1
  Na  Na6  1  0.25000000  0.37500000  0.12500000  1
  Na  Na7  1  0.75000000  0.12500000  0.37500000  1
  Na  Na8  1  0.37500000  0.75000000  0.12500000  1
  Na  Na9  1  0.12500000  0.25000000  0.37500000  1
  Na  Na10  1  0.12500000  0.37500000  0.75000000  1
  Na  Na11  1  0.37500000  0.12500000  0.25000000  1
  Co  Co0  1  0.50000000  0.00000000  0.50000000  1
  Co  Co1  1  0.00000000  0.50000000  0.00000000  1
  Co  Co2  1  0.50000000  0.50000000  0.50000000  1
  Co  Co3  1  0.00000000  0.00000000  0.50000000  1
  Co  Co4  1  0.00000000  0.00000000  0.00000000  1
  Co  Co5  1  0.00000000  0.50000000  0.50000000  1
  Co  Co6  1  0.50000000  0.50000000  0.00000000  1
  Co  Co7  1  0.50000000  0.00000000  0.00000000  1
  Ge  Ge0  1  0.37500000  0.62500000  0.75000000  1
  Ge  Ge1  1  0.62500000  0.37500000  0.25000000  1
  Ge  Ge2  1  0.62500000  0.75000000  0.37500000  1
  Ge  Ge3  1  0.25000000  0.12500000  0.87500000  1
  Ge  Ge4  1  0.87500000  0.25000000  0.12500000  1
  Ge  Ge5  1  0.75000000  0.37500000  0.62500000  1
  Ge  Ge6  1  0.25000000  0.62500000  0.37500000  1
  Ge  Ge7  1  0.75000000  0.87500000  0.12500000  1
  Ge  Ge8  1  0.12500000  0.75000000  0.87500000  1
  Ge  Ge9  1  0.37500000  0.25000000  0.62500000  1
  Ge  Ge10  1  0.87500000  0.12500000  0.75000000  1
  Ge  Ge11  1  0.12500000  0.87500000  0.25000000  1
  O  O0  1  0.51460000  0.40322800  0.82170400  1
  O  O1  1  0.82170400  0.51460000  0.40322800  1
  O  O2  1  0.80710400  0.88862800  0.98540000  1
  O  O3  1  0.41847600  0.09677200  0.61137200  1
  O  O4  1  0.88862800  0.40322800  0.08152400  1
  O  O5  1  0.67829600  0.08152400  0.69289600  1
  O  O6  1  0.82170400  0.80710400  0.41847600  1
  O  O7  1  0.40322800  0.82170400  0.51460000  1
  O  O8  1  0.61137200  0.69289600  0.51460000  1
  O  O9  1  0.41847600  0.82170400  0.80710400  1
  O  O10  1  0.40322800  0.08152400  0.88862800  1
  O  O11  1  0.09677200  0.98540000  0.67829600  1
  O  O12  1  0.98540000  0.67829600  0.09677200  1
  O  O13  1  0.80710400  0.41847600  0.82170400  1
  O  O14  1  0.51460000  0.61137200  0.69289600  1
  O  O15  1  0.69289600  0.51460000  0.61137200  1
  O  O16  1  0.08152400  0.88862800  0.40322800  1
  O  O17  1  0.98540000  0.80710400  0.88862800  1
  O  O18  1  0.08152400  0.69289600  0.67829600  1
  O  O19  1  0.38862800  0.30710400  0.48540000  1
  O  O20  1  0.61137200  0.41847600  0.09677200  1
  O  O21  1  0.09677200  0.61137200  0.41847600  1
  O  O22  1  0.69289600  0.67829600  0.08152400  1
  O  O23  1  0.67829600  0.09677200  0.98540000  1
  O  O24  1  0.48540000  0.59677200  0.17829600  1
  O  O25  1  0.17829600  0.48540000  0.59677200  1
  O  O26  1  0.19289600  0.11137200  0.01460000  1
  O  O27  1  0.58152400  0.90322800  0.38862800  1
  O  O28  1  0.11137200  0.59677200  0.91847600  1
  O  O29  1  0.32170400  0.91847600  0.30710400  1
  O  O30  1  0.17829600  0.19289600  0.58152400  1
  O  O31  1  0.59677200  0.17829600  0.48540000  1
  O  O32  1  0.32170400  0.90322800  0.01460000  1
  O  O33  1  0.30710400  0.32170400  0.91847600  1
  O  O34  1  0.90322800  0.38862800  0.58152400  1
  O  O35  1  0.11137200  0.01460000  0.19289600  1
  O  O36  1  0.38862800  0.58152400  0.90322800  1
  O  O37  1  0.91847600  0.30710400  0.32170400  1
  O  O38  1  0.01460000  0.19289600  0.11137200  1
  O  O39  1  0.91847600  0.11137200  0.59677200  1
  O  O40  1  0.30710400  0.48540000  0.38862800  1
  O  O41  1  0.48540000  0.38862800  0.30710400  1
  O  O42  1  0.19289600  0.58152400  0.17829600  1
  O  O43  1  0.01460000  0.32170400  0.90322800  1
  O  O44  1  0.90322800  0.01460000  0.32170400  1
  O  O45  1  0.59677200  0.91847600  0.11137200  1
  O  O46  1  0.58152400  0.17829600  0.19289600  1
  O  O47  1  0.88862800  0.98540000  0.80710400  1
loop_
_geom_bond_atom_site_label_1
_geom_bond_atom_site_label_2
_geom_bond_distance
_geom_bond_site_symmetry_2
Na0 O22 2.378851 1_556
Na0 O15 2.378851 1_555
Na0 O13 2.378851 1_555
Na0 O2 2.378851 1_555
Na0 O0 2.493899 1_555
Na0 O17 2.493899 1_555
Na0 O12 2.493899 1_556
Na0 O14 2.493899 1_555
Na1 O10 2.378851 1_565
Na1 O21 2.378851 1_555
Na1 O7 2.378851 1_555
Na1 O11 2.378851 1_555
Na1 O3 2.493899 1_565
Na1 O18 2.493899 1_555
Na1 O16 2.493899 1_555
Na1 O9 2.493899 1_555
Na2 O4 2.378851 1_556
Na2 O3 2.378851 1_555
Na2 O0 2.378851 1_555
Na2 O23 2.378851 1_555
Na2 O10 2.493899 1_555
Na2 O13 2.493899 1_555
Na2 O5 2.493899 1_555
Na2 O20 2.493899 1_556
Na3 O17 2.378851 1_555
Na3 O8 2.378851 1_555
Na3 O6 2.378851 1_555
Na3 O18 2.378851 1_655
Na3 O15 2.493899 1_555
Na3 O1 2.493899 1_555
Na3 O11 2.493899 1_655
Na3 O47 2.493899 1_555
Na4 O16 2.378851 1_655
Na4 O20 2.378851 1_555
Na4 O1 2.378851 1_555
Na4 O12 2.378851 1_555
Na4 O4 2.493899 1_555
Na4 O6 2.493899 1_555
Na4 O21 2.493899 1_655
Na4 O22 2.493899 1_555
Na5 O47 2.378851 1_555
Na5 O14 2.378851 1_555
Na5 O5 2.378851 1_565
Na5 O9 2.378851 1_555
Na5 O7 2.493899 1_555
Na5 O8 2.493899 1_555
Na5 O23 2.493899 1_565
Na5 O2 2.493899 1_555
Na6 O40 2.378851 1_555
Na6 O26 2.378851 1_555
Na6 O42 2.378851 1_555
Na6 O33 2.378851 1_554
Na6 O24 2.493899 1_555
Na6 O43 2.493899 1_554
Na6 O38 2.493899 1_555
Na6 O41 2.493899 1_555
Na7 O45 2.378851 1_545
Na7 O34 2.378851 1_555
Na7 O44 2.378851 1_555
Na7 O31 2.378851 1_555
Na7 O39 2.493899 1_555
Na7 O27 2.493899 1_545
Na7 O37 2.493899 1_555
Na7 O46 2.493899 1_555
Na8 O27 2.378851 1_555
Na8 O28 2.378851 1_554
Na8 O24 2.378851 1_555
Na8 O32 2.378851 1_555
Na8 O36 2.493899 1_554
Na8 O45 2.493899 1_555
Na8 O29 2.493899 1_555
Na8 O42 2.493899 1_555
Na9 O19 2.378851 1_555
Na9 O37 2.378851 1_455
Na9 O38 2.378851 1_555
Na9 O30 2.378851 1_555
Na9 O25 2.493899 1_555
Na9 O40 2.493899 1_555
Na9 O35 2.493899 1_555
Na9 O44 2.493899 1_455
Na10 O39 2.378851 1_455
Na10 O36 2.378851 1_555
Na10 O25 2.378851 1_555
Na10 O43 2.378851 1_555
Na10 O34 2.493899 1_455
Na10 O28 2.493899 1_555
Na10 O30 2.493899 1_555
Na10 O33 2.493899 1_555
Na11 O29 2.378851 1_545
Na11 O41 2.378851 1_555
Na11 O35 2.378851 1_555
Na11 O46 2.378851 1_555
Na11 O31 2.493899 1_555
Na11 O32 2.493899 1_545
Na11 O26 2.493899 1_555
Na11 O19 2.493899 1_555
Co0 O5 1.894535 1_555
Co0 O7 1.894535 1_545
Co0 O31 1.894535 1_555
Co0 O3 1.894535 1_555
Co0 O29 1.894535 1_545
Co0 O27 1.894535 1_545
Co1 O12 1.894535 1_455
Co1 O13 1.894535 1_454
Co1 O4 1.894535 1_455
Co1 O42 1.894535 1_555
Co1 O43 1.894535 1_554
Co1 O28 1.894535 1_554
Co2 O8 1.894535 1_555
Co2 O15 1.894535 1_555
Co2 O14 1.894535 1_555
Co2 O41 1.894535 1_555
Co2 O19 1.894535 1_555
Co2 O40 1.894535 1_555
Co3 O44 1.894535 1_455
Co3 O11 1.894535 1_545
Co3 O6 1.894535 1_445
Co3 O39 1.894535 1_455
Co3 O30 1.894535 1_555
Co3 O16 1.894535 1_545
Co4 O17 1.894535 1_444
Co4 O2 1.894535 1_444
Co4 O38 1.894535 1_555
Co4 O35 1.894535 1_555
Co4 O47 1.894535 1_444
Co4 O26 1.894535 1_555
Co5 O1 1.894535 1_455
Co5 O37 1.894535 1_455
Co5 O21 1.894535 1_555
Co5 O18 1.894535 1_555
Co5 O25 1.894535 1_555
Co5 O34 1.894535 1_455
Co6 O20 1.894535 1_555
Co6 O0 1.894535 1_554
Co6 O24 1.894535 1_555
Co6 O22 1.894535 1_555
Co6 O33 1.894535 1_554
Co6 O36 1.894535 1_554
Co7 O23 1.894535 1_554
Co7 O9 1.894535 1_544
Co7 O46 1.894535 1_555
Co7 O45 1.894535 1_545
Co7 O10 1.894535 1_554
Co7 O32 1.894535 1_545
Ge0 O14 1.788420 1_555
Ge0 O25 1.788420 1_555
Ge0 O9 1.788420 1_555
Ge0 O36 1.788420 1_555
Ge1 O1 1.788420 1_555
Ge1 O41 1.788420 1_555
Ge1 O46 1.788420 1_555
Ge1 O20 1.788420 1_555
Ge2 O8 1.788420 1_555
Ge2 O6 1.788420 1_555
Ge2 O27 1.788420 1_555
Ge2 O24 1.788420 1_555
Ge3 O26 1.788420 1_556
Ge3 O11 1.788420 1_545
Ge3 O10 1.788420 1_555
Ge3 O33 1.788420 1_555
Ge4 O38 1.788420 1_655
Ge4 O4 1.788420 1_555
Ge4 O37 1.788420 1_555
Ge4 O23 1.788420 1_554
Ge5 O15 1.788420 1_555
Ge5 O13 1.788420 1_555
Ge5 O34 1.788420 1_555
Ge5 O31 1.788420 1_555
Ge6 O40 1.788420 1_555
Ge6 O21 1.788420 1_555
Ge6 O7 1.788420 1_555
Ge6 O42 1.788420 1_555
Ge7 O2 1.788420 1_554
Ge7 O22 1.788420 1_555
Ge7 O44 1.788420 1_565
Ge7 O45 1.788420 1_555
Ge8 O17 1.788420 1_455
Ge8 O32 1.788420 1_556
Ge8 O28 1.788420 1_555
Ge8 O18 1.788420 1_555
Ge9 O19 1.788420 1_555
Ge9 O30 1.788420 1_555
Ge9 O0 1.788420 1_555
Ge9 O3 1.788420 1_555
Ge10 O47 1.788420 1_545
Ge10 O5 1.788420 1_555
Ge10 O39 1.788420 1_555
Ge10 O43 1.788420 1_655
Ge11 O35 1.788420 1_565
Ge11 O29 1.788420 1_555
Ge11 O16 1.788420 1_555
Ge11 O12 1.788420 1_455
