# generated using pymatgen
data_CuSnPd2
_symmetry_space_group_name_H-M   'P 1'
_cell_length_a   3.98778000
_cell_length_b   3.98778000
_cell_length_c   7.96821900
_cell_angle_alpha   90.00000000
_cell_angle_beta   90.00000000
_cell_angle_gamma   90.00000000
_symmetry_Int_Tables_number   1
_chemical_formula_structural   CuSnPd2
_chemical_formula_sum   'Cu2 Sn2 Pd4'
_cell_volume   126.71372079
_cell_formula_units_Z   2
loop_
 _symmetry_equiv_pos_site_id
 _symmetry_equiv_pos_as_xyz
  1  'x, y, z'
loop_
 _atom_site_type_symbol
 _atom_site_label
 _atom_site_symmetry_multiplicity
 _atom_site_fract_x
 _atom_site_fract_y
 _atom_site_fract_z
 _atom_site_occupancy
  Cu  Cu0  1  0.00000000  0.50000000  0.50000000  1
  Cu  Cu1  1  0.50000000  0.00000000  0.50000000  1
  Sn  Sn0  1  0.00000000  0.00000000  0.24857800  1
  Sn  Sn1  1  0.00000000  0.00000000  0.75142200  1
  Pd  Pd0  1  0.50000000  0.50000000  0.27189800  1
  Pd  Pd1  1  0.50000000  0.50000000  0.72810200  1
  Pd  Pd2  1  0.00000000  0.50000000  0.00000000  1
  Pd  Pd3  1  0.50000000  0.00000000  0.00000000  1
loop_
_geom_bond_atom_site_label_1
_geom_bond_atom_site_label_2
_geom_bond_distance
_geom_bond_site_symmetry_2
Cu0 Pd1 2.697989 1_455
Cu0 Pd0 2.697989 1_555
Cu0 Pd0 2.697989 1_455
Cu0 Pd1 2.697989 1_555
Cu0 Cu1 2.819786 1_455
Cu0 Cu1 2.819786 1_555
Cu0 Cu1 2.819786 1_565
Cu0 Cu1 2.819786 1_465
Cu0 Sn1 2.826509 1_555
Cu0 Sn0 2.826509 1_565
Cu0 Sn1 2.826509 1_565
Cu0 Sn0 2.826509 1_555
Cu1 Pd0 2.697989 1_555
Cu1 Pd0 2.697989 1_545
Cu1 Pd1 2.697989 1_555
Cu1 Pd1 2.697989 1_545
Cu1 Sn0 2.826509 1_655
Cu1 Sn1 2.826509 1_555
Cu1 Sn1 2.826509 1_655
Cu1 Sn0 2.826509 1_555
Pd0 Sn0 2.825902 1_565
Pd0 Sn0 2.825902 1_665
Pd0 Sn0 2.825902 1_555
Pd0 Sn0 2.825902 1_655
Pd0 Pd2 2.944402 1_555
Pd0 Pd3 2.944402 1_565
Pd0 Pd2 2.944402 1_655
Pd0 Pd3 2.944402 1_555
Pd1 Sn1 2.825902 1_665
Pd1 Sn1 2.825902 1_565
Pd1 Sn1 2.825902 1_555
Pd1 Sn1 2.825902 1_655
Pd1 Pd2 2.944402 1_556
Pd1 Pd3 2.944402 1_566
Pd1 Pd2 2.944402 1_656
Pd1 Pd3 2.944402 1_556
Pd2 Sn1 2.810492 1_564
Pd2 Sn1 2.810492 1_554
Pd2 Sn0 2.810492 1_565
Pd2 Sn0 2.810492 1_555
Pd2 Pd3 2.819786 1_465
Pd2 Pd3 2.819786 1_455
Pd2 Pd3 2.819786 1_555
Pd2 Pd3 2.819786 1_565
Pd3 Sn1 2.810492 1_654
Pd3 Sn1 2.810492 1_554
Pd3 Sn0 2.810492 1_555
Pd3 Sn0 2.810492 1_655
