# generated using pymatgen
data_K2Cu(Cl2O)2
_symmetry_space_group_name_H-M   'P 1'
_cell_length_a   7.12083000
_cell_length_b   7.12083000
_cell_length_c   8.33548300
_cell_angle_alpha   90.00000000
_cell_angle_beta   90.00000000
_cell_angle_gamma   90.00000000
_symmetry_Int_Tables_number   1
_chemical_formula_structural   K2Cu(Cl2O)2
_chemical_formula_sum   'K4 Cu2 Cl8 O4'
_cell_volume   422.66083388
_cell_formula_units_Z   2
loop_
 _symmetry_equiv_pos_site_id
 _symmetry_equiv_pos_as_xyz
  1  'x, y, z'
loop_
 _atom_site_type_symbol
 _atom_site_label
 _atom_site_symmetry_multiplicity
 _atom_site_fract_x
 _atom_site_fract_y
 _atom_site_fract_z
 _atom_site_occupancy
  K  K0  1  0.00000000  0.50000000  0.25000000  1
  K  K1  1  0.00000000  0.50000000  0.75000000  1
  K  K2  1  0.50000000  0.00000000  0.25000000  1
  K  K3  1  0.50000000  0.00000000  0.75000000  1
  Cu  Cu0  1  0.00000000  0.00000000  0.00000000  1
  Cu  Cu1  1  0.50000000  0.50000000  0.50000000  1
  Cl  Cl0  1  0.21999300  0.21999300  0.00000000  1
  Cl  Cl1  1  0.78000700  0.78000700  0.00000000  1
  Cl  Cl2  1  0.28000700  0.71999300  0.50000000  1
  Cl  Cl3  1  0.71999300  0.28000700  0.50000000  1
  Cl  Cl4  1  0.28464500  0.71535500  0.00000000  1
  Cl  Cl5  1  0.71535500  0.28464500  0.00000000  1
  Cl  Cl6  1  0.78464500  0.78464500  0.50000000  1
  Cl  Cl7  1  0.21535500  0.21535500  0.50000000  1
  O  O0  1  0.00000000  0.00000000  0.21040400  1
  O  O1  1  0.00000000  0.00000000  0.78959600  1
  O  O2  1  0.50000000  0.50000000  0.71040400  1
  O  O3  1  0.50000000  0.50000000  0.28959600  1
loop_
_geom_bond_atom_site_label_1
_geom_bond_atom_site_label_2
_geom_bond_distance
_geom_bond_site_symmetry_2
Cu0 O0 1.753819 1_555
Cu0 O1 1.753819 1_554
Cu1 O2 1.753819 1_555
Cu1 O3 1.753819 1_555
Cl0 Cu0 2.215412 1_555
Cl0 K1 3.282089 1_554
Cl0 K3 3.282089 1_554
Cl0 K2 3.282089 1_555
Cl0 K0 3.282089 1_555
Cl1 Cu0 2.215412 1_665
Cl1 K0 3.282089 1_655
Cl1 K3 3.282089 1_564
Cl1 K1 3.282089 1_654
Cl1 K2 3.282089 1_565
Cl2 Cu1 2.215412 1_555
Cl2 K1 3.282089 1_555
Cl2 K3 3.282089 1_565
Cl2 K2 3.282089 1_565
Cl2 K0 3.282089 1_555
Cl3 Cu1 2.215412 1_555
Cl3 K0 3.282089 1_655
Cl3 K1 3.282089 1_655
Cl3 K2 3.282089 1_555
Cl3 K3 3.282089 1_555
Cl4 Cu0 2.866482 1_565
Cl4 K0 3.286718 1_555
Cl4 K1 3.286718 1_554
Cl4 K3 3.286718 1_564
Cl4 K2 3.286718 1_565
Cl5 Cu0 2.866482 1_655
Cl5 K2 3.286718 1_555
Cl5 K3 3.286718 1_554
Cl5 K0 3.286718 1_655
Cl5 K1 3.286718 1_654
Cl6 Cu1 2.866482 1_555
Cl6 K1 3.286718 1_655
Cl6 K2 3.286718 1_565
Cl6 K0 3.286718 1_655
Cl6 K3 3.286718 1_565
Cl7 Cu1 2.866482 1_555
Cl7 K3 3.286718 1_555
Cl7 K0 3.286718 1_555
Cl7 K2 3.286718 1_555
Cl7 K1 3.286718 1_555
