# generated using pymatgen
data_NaGaBP2H3O10
_symmetry_space_group_name_H-M   'P 1'
_cell_length_a   6.71274855
_cell_length_b   6.71274855
_cell_length_c   9.21005114
_cell_angle_alpha   69.40271091
_cell_angle_beta   69.40271091
_cell_angle_gamma   75.69926328
_symmetry_Int_Tables_number   1
_chemical_formula_structural   NaGaBP2H3O10
_chemical_formula_sum   'Na2 Ga2 B2 P4 H6 O20'
_cell_volume   360.03599818
_cell_formula_units_Z   2
loop_
 _symmetry_equiv_pos_site_id
 _symmetry_equiv_pos_as_xyz
  1  'x, y, z'
loop_
 _atom_site_type_symbol
 _atom_site_label
 _atom_site_symmetry_multiplicity
 _atom_site_fract_x
 _atom_site_fract_y
 _atom_site_fract_z
 _atom_site_occupancy
  Na  Na0  1  0.13032000  0.86968000  0.25000000  1
  Na  Na1  1  0.86968000  0.13032000  0.75000000  1
  Ga  Ga0  1  0.00000000  0.50000000  0.00000000  1
  Ga  Ga1  1  0.50000000  0.00000000  0.50000000  1
  B  B0  1  0.46701200  0.53298800  0.75000000  1
  B  B1  1  0.53298800  0.46701200  0.25000000  1
  P  P0  1  0.29090700  0.16232500  0.82038300  1
  P  P1  1  0.83767500  0.70909300  0.67961700  1
  P  P2  1  0.70909300  0.83767500  0.17961700  1
  P  P3  1  0.16232500  0.29090700  0.32038300  1
  H  H0  1  0.50000000  0.00000000  0.00000000  1
  H  H1  1  0.00000000  0.50000000  0.50000000  1
  H  H2  1  0.32022300  0.69641900  0.92495700  1
  H  H3  1  0.30358100  0.67977700  0.57504300  1
  H  H4  1  0.67977700  0.30358100  0.07504300  1
  H  H5  1  0.69641900  0.32022300  0.42495700  1
  O  O0  1  0.08341200  0.27336100  0.18906600  1
  O  O1  1  0.72663900  0.91658800  0.31093400  1
  O  O2  1  0.91658800  0.72663900  0.81093400  1
  O  O3  1  0.27336100  0.08341200  0.68906600  1
  O  O4  1  0.46797900  0.31535500  0.74742100  1
  O  O5  1  0.68464500  0.53202100  0.75257900  1
  O  O6  1  0.53202100  0.68464500  0.25257900  1
  O  O7  1  0.31535500  0.46797900  0.24742100  1
  O  O8  1  0.30474600  0.57150900  0.89971100  1
  O  O9  1  0.42849100  0.69525400  0.60028900  1
  O  O10  1  0.69525400  0.42849100  0.10028900  1
  O  O11  1  0.57150900  0.30474600  0.39971100  1
  O  O12  1  0.36223400  0.97035200  0.95576600  1
  O  O13  1  0.02964800  0.63776600  0.54423400  1
  O  O14  1  0.63776600  0.02964800  0.04423400  1
  O  O15  1  0.97035200  0.36223400  0.45576600  1
  O  O16  1  0.06840000  0.28335000  0.88777900  1
  O  O17  1  0.71665000  0.93160000  0.61222100  1
  O  O18  1  0.93160000  0.71665000  0.11222100  1
  O  O19  1  0.28335000  0.06840000  0.38777900  1
loop_
_geom_bond_atom_site_label_1
_geom_bond_atom_site_label_2
_geom_bond_distance
_geom_bond_site_symmetry_2
Na0 O0 2.527839 1_565
Na0 O1 2.527839 1_455
Na0 O13 2.546923 1_555
Na0 O12 2.546923 1_554
Na0 O6 2.680342 1_555
Na0 O7 2.680342 1_555
Na0 O19 2.688874 1_565
Na0 O18 2.688874 1_455
Na1 O2 2.527839 1_545
Na1 O3 2.527839 1_655
Na1 O15 2.546923 1_555
Na1 O14 2.546923 1_556
Na1 O4 2.680342 1_555
Na1 O5 2.680342 1_555
Na1 O16 2.688874 1_655
Na1 O17 2.688874 1_545
Ga0 O18 1.946256 1_455
Ga0 O16 1.946256 1_554
Ga0 O2 2.015307 1_454
Ga0 O0 2.015307 1_555
Ga0 O10 2.027830 1_455
Ga0 O8 2.027830 1_554
Ga1 O19 1.946256 1_555
Ga1 O17 1.946256 1_545
Ga1 O3 2.015307 1_555
Ga1 O1 2.015307 1_545
Ga1 O9 2.027830 1_545
Ga1 O11 2.027830 1_555
B0 O5 1.467822 1_555
B0 O4 1.467822 1_555
B0 O9 1.486448 1_555
B0 O8 1.486448 1_555
B1 O6 1.467822 1_555
B1 O7 1.467822 1_555
B1 O11 1.486448 1_555
B1 O10 1.486448 1_555
H0 O12 1.214031 1_544
H0 O14 1.214031 1_555
H1 O15 1.214031 1_455
H1 O13 1.214031 1_555
H2 O8 0.982410 1_555
H3 O9 0.982410 1_555
H4 O10 0.982410 1_555
H5 O11 0.982410 1_555
O0 P3 1.529390 1_555
O1 P2 1.529390 1_555
O2 P1 1.529390 1_555
O3 P0 1.529390 1_555
O4 P0 1.573279 1_555
O5 P1 1.573279 1_555
O6 P2 1.573279 1_555
O7 P3 1.573279 1_555
O12 P0 1.558626 1_565
O13 P1 1.558626 1_455
O14 P2 1.558626 1_545
O15 P3 1.558626 1_655
O16 P0 1.542486 1_555
O17 P1 1.542486 1_555
O18 P2 1.542486 1_555
O19 P3 1.542486 1_555
