# generated using pymatgen
data_Sm2(SiIr)3
_symmetry_space_group_name_H-M   'P 1'
_cell_length_a   5.61288800
_cell_length_b   5.61288800
_cell_length_c   41.01516800
_cell_angle_alpha   90.00000000
_cell_angle_beta   90.00000000
_cell_angle_gamma   90.00000000
_symmetry_Int_Tables_number   1
_chemical_formula_structural   Sm2(SiIr)3
_chemical_formula_sum   'Sm16 Si24 Ir24'
_cell_volume   1292.16284016
_cell_formula_units_Z   8
loop_
 _symmetry_equiv_pos_site_id
 _symmetry_equiv_pos_as_xyz
  1  'x, y, z'
loop_
 _atom_site_type_symbol
 _atom_site_label
 _atom_site_symmetry_multiplicity
 _atom_site_fract_x
 _atom_site_fract_y
 _atom_site_fract_z
 _atom_site_occupancy
  Sm  Sm0_0  1  0.25000000  0.25000000  0.37927400  1
  Sm  Sm0_1  1  0.25000000  0.25000000  0.87927400  1
  Sm  Sm0_2  1  0.25000000  0.75000000  0.37927400  1
  Sm  Sm0_3  1  0.25000000  0.75000000  0.87927400  1
  Sm  Sm0_4  1  0.75000000  0.25000000  0.37927400  1
  Sm  Sm0_5  1  0.75000000  0.25000000  0.87927400  1
  Sm  Sm0_6  1  0.75000000  0.75000000  0.37927400  1
  Sm  Sm0_7  1  0.75000000  0.75000000  0.87927400  1
  Sm  Sm1_0  1  0.25000000  0.25000000  0.12072600  1
  Sm  Sm1_1  1  0.25000000  0.25000000  0.62072600  1
  Sm  Sm1_2  1  0.25000000  0.75000000  0.12072600  1
  Sm  Sm1_3  1  0.25000000  0.75000000  0.62072600  1
  Sm  Sm1_4  1  0.75000000  0.25000000  0.12072600  1
  Sm  Sm1_5  1  0.75000000  0.25000000  0.62072600  1
  Sm  Sm1_6  1  0.75000000  0.75000000  0.12072600  1
  Sm  Sm1_7  1  0.75000000  0.75000000  0.62072600  1
  Si  Si0_0  1  0.25000000  0.25000000  0.19396500  1
  Si  Si0_1  1  0.25000000  0.25000000  0.69396500  1
  Si  Si0_2  1  0.25000000  0.75000000  0.19396500  1
  Si  Si0_3  1  0.25000000  0.75000000  0.69396500  1
  Si  Si0_4  1  0.75000000  0.25000000  0.19396500  1
  Si  Si0_5  1  0.75000000  0.25000000  0.69396500  1
  Si  Si0_6  1  0.75000000  0.75000000  0.19396500  1
  Si  Si0_7  1  0.75000000  0.75000000  0.69396500  1
  Si  Si1_0  1  0.25000000  0.25000000  0.30603500  1
  Si  Si1_1  1  0.25000000  0.25000000  0.80603500  1
  Si  Si1_2  1  0.25000000  0.75000000  0.30603500  1
  Si  Si1_3  1  0.25000000  0.75000000  0.80603500  1
  Si  Si1_4  1  0.75000000  0.25000000  0.30603500  1
  Si  Si1_5  1  0.75000000  0.25000000  0.80603500  1
  Si  Si1_6  1  0.75000000  0.75000000  0.30603500  1
  Si  Si1_7  1  0.75000000  0.75000000  0.80603500  1
  Si  Si2_0  1  0.25000000  0.25000000  0.00000000  1
  Si  Si2_1  1  0.25000000  0.25000000  0.50000000  1
  Si  Si2_2  1  0.25000000  0.75000000  0.00000000  1
  Si  Si2_3  1  0.25000000  0.75000000  0.50000000  1
  Si  Si2_4  1  0.75000000  0.25000000  0.00000000  1
  Si  Si2_5  1  0.75000000  0.25000000  0.50000000  1
  Si  Si2_6  1  0.75000000  0.75000000  0.00000000  1
  Si  Si2_7  1  0.75000000  0.75000000  0.50000000  1
  Ir  Ir0_0  1  0.25000000  0.25000000  0.05490650  1
  Ir  Ir0_1  1  0.25000000  0.25000000  0.55490650  1
  Ir  Ir0_2  1  0.25000000  0.75000000  0.05490650  1
  Ir  Ir0_3  1  0.25000000  0.75000000  0.55490650  1
  Ir  Ir0_4  1  0.75000000  0.25000000  0.05490650  1
  Ir  Ir0_5  1  0.75000000  0.25000000  0.55490650  1
  Ir  Ir0_6  1  0.75000000  0.75000000  0.05490650  1
  Ir  Ir0_7  1  0.75000000  0.75000000  0.55490650  1
  Ir  Ir1_0  1  0.25000000  0.25000000  0.44509350  1
  Ir  Ir1_1  1  0.25000000  0.25000000  0.94509350  1
  Ir  Ir1_2  1  0.25000000  0.75000000  0.44509350  1
  Ir  Ir1_3  1  0.25000000  0.75000000  0.94509350  1
  Ir  Ir1_4  1  0.75000000  0.25000000  0.44509350  1
  Ir  Ir1_5  1  0.75000000  0.25000000  0.94509350  1
  Ir  Ir1_6  1  0.75000000  0.75000000  0.44509350  1
  Ir  Ir1_7  1  0.75000000  0.75000000  0.94509350  1
  Ir  Ir2_0  1  0.25000000  0.25000000  0.25000000  1
  Ir  Ir2_1  1  0.25000000  0.25000000  0.75000000  1
  Ir  Ir2_2  1  0.25000000  0.75000000  0.25000000  1
  Ir  Ir2_3  1  0.25000000  0.75000000  0.75000000  1
  Ir  Ir2_4  1  0.75000000  0.25000000  0.25000000  1
  Ir  Ir2_5  1  0.75000000  0.25000000  0.75000000  1
  Ir  Ir2_6  1  0.75000000  0.75000000  0.25000000  1
  Ir  Ir2_7  1  0.75000000  0.75000000  0.75000000  1
loop_
_geom_bond_atom_site_label_1
_geom_bond_atom_site_label_2
_geom_bond_distance
_geom_bond_site_symmetry_2
Sm0_0 Sm0_2 2.806444 1_545
Sm0_0 Sm0_4 2.806444 1_455
Sm0_0 Sm0_4 2.806444 1_555
Sm0_0 Sm0_2 2.806444 1_555
Sm0_1 Sm0_5 2.806444 1_455
Sm0_1 Sm0_3 2.806444 1_545
Sm0_1 Sm0_5 2.806444 1_555
Sm0_1 Sm0_3 2.806444 1_555
Sm0_2 Sm0_6 2.806444 1_455
Sm0_2 Sm0_6 2.806444 1_555
Sm0_3 Sm0_7 2.806444 1_455
Sm0_3 Sm0_7 2.806444 1_555
Sm0_4 Sm0_6 2.806444 1_545
Sm0_4 Sm0_6 2.806444 1_555
Sm0_5 Sm0_7 2.806444 1_545
Sm0_5 Sm0_7 2.806444 1_555
Sm1_0 Sm1_4 2.806444 1_455
Sm1_0 Sm1_2 2.806444 1_545
Sm1_0 Sm1_4 2.806444 1_555
Sm1_0 Sm1_2 2.806444 1_555
Sm1_1 Sm1_5 2.806444 1_455
Sm1_1 Sm1_3 2.806444 1_545
Sm1_1 Sm1_3 2.806444 1_555
Sm1_1 Sm1_5 2.806444 1_555
Sm1_2 Sm1_6 2.806444 1_455
Sm1_2 Sm1_6 2.806444 1_555
Sm1_3 Sm1_7 2.806444 1_455
Sm1_3 Sm1_7 2.806444 1_555
Sm1_4 Sm1_6 2.806444 1_545
Sm1_4 Sm1_6 2.806444 1_555
Sm1_5 Sm1_7 2.806444 1_545
Sm1_5 Sm1_7 2.806444 1_555
Si0_0 Sm1_0 3.003910 1_555
Si0_1 Sm1_1 3.003910 1_555
Si0_2 Sm1_2 3.003910 1_555
Si0_3 Sm1_3 3.003910 1_555
Si0_4 Sm1_4 3.003910 1_555
Si0_5 Sm1_5 3.003910 1_555
Si0_6 Sm1_6 3.003910 1_555
Si0_7 Sm1_7 3.003910 1_555
Si1_0 Sm0_0 3.003910 1_555
Si1_1 Sm0_1 3.003910 1_555
Si1_2 Sm0_2 3.003910 1_555
Si1_3 Sm0_3 3.003910 1_555
Si1_4 Sm0_4 3.003910 1_555
Si1_5 Sm0_5 3.003910 1_555
Si1_6 Sm0_6 3.003910 1_555
Si1_7 Sm0_7 3.003910 1_555
Ir0_0 Si2_0 2.251999 1_555
Ir0_0 Sm1_0 2.699598 1_555
Ir0_1 Si2_1 2.251999 1_555
Ir0_1 Sm1_1 2.699598 1_555
Ir0_2 Si2_2 2.251999 1_555
Ir0_2 Sm1_2 2.699598 1_555
Ir0_3 Si2_3 2.251999 1_555
Ir0_3 Sm1_3 2.699598 1_555
Ir0_4 Si2_4 2.251999 1_555
Ir0_4 Sm1_4 2.699598 1_555
Ir0_5 Si2_5 2.251999 1_555
Ir0_5 Sm1_5 2.699598 1_555
Ir0_6 Si2_6 2.251999 1_555
Ir0_6 Sm1_6 2.699598 1_555
Ir0_7 Si2_7 2.251999 1_555
Ir0_7 Sm1_7 2.699598 1_555
Ir1_0 Si2_1 2.251999 1_555
Ir1_0 Sm0_0 2.699598 1_555
Ir1_1 Si2_0 2.251999 1_556
Ir1_1 Sm0_1 2.699598 1_555
Ir1_2 Si2_3 2.251999 1_555
Ir1_2 Sm0_2 2.699598 1_555
Ir1_3 Si2_2 2.251999 1_556
Ir1_3 Sm0_3 2.699598 1_555
Ir1_4 Si2_5 2.251999 1_555
Ir1_4 Sm0_4 2.699598 1_555
Ir1_5 Si2_4 2.251999 1_556
Ir1_5 Sm0_5 2.699598 1_555
Ir1_6 Si2_7 2.251999 1_555
Ir1_6 Sm0_6 2.699598 1_555
Ir1_7 Si2_6 2.251999 1_556
Ir1_7 Sm0_7 2.699598 1_555
Ir2_0 Si0_0 2.298285 1_555
Ir2_0 Si1_0 2.298285 1_555
Ir2_1 Si1_1 2.298285 1_555
Ir2_1 Si0_1 2.298285 1_555
Ir2_2 Si0_2 2.298285 1_555
Ir2_2 Si1_2 2.298285 1_555
Ir2_3 Si0_3 2.298285 1_555
Ir2_3 Si1_3 2.298285 1_555
Ir2_4 Si1_4 2.298285 1_555
Ir2_4 Si0_4 2.298285 1_555
Ir2_5 Si1_5 2.298285 1_555
Ir2_5 Si0_5 2.298285 1_555
Ir2_6 Si1_6 2.298285 1_555
Ir2_6 Si0_6 2.298285 1_555
Ir2_7 Si0_7 2.298285 1_555
Ir2_7 Si1_7 2.298285 1_555
