# generated using pymatgen
data_Ni5Se4(ClO6)2
_symmetry_space_group_name_H-M   'P 1'
_cell_length_a   8.22805800
_cell_length_b   9.43424638
_cell_length_c   9.53039812
_cell_angle_alpha   101.51906696
_cell_angle_beta   105.95846574
_cell_angle_gamma   92.13195588
_symmetry_Int_Tables_number   1
_chemical_formula_structural   Ni5Se4(ClO6)2
_chemical_formula_sum   'Ni10 Se8 Cl4 O24'
_cell_volume   693.62565020
_cell_formula_units_Z   2
loop_
 _symmetry_equiv_pos_site_id
 _symmetry_equiv_pos_as_xyz
  1  'x, y, z'
loop_
 _atom_site_type_symbol
 _atom_site_label
 _atom_site_symmetry_multiplicity
 _atom_site_fract_x
 _atom_site_fract_y
 _atom_site_fract_z
 _atom_site_occupancy
  Ni  Ni0  1  0.57479400  0.74333400  0.72651200  1
  Ni  Ni1  1  0.42520600  0.25666600  0.27348800  1
  Ni  Ni2  1  0.76613500  0.19571500  0.44241600  1
  Ni  Ni3  1  0.23386500  0.80428500  0.55758400  1
  Ni  Ni4  1  0.91130800  0.48948400  0.82187700  1
  Ni  Ni5  1  0.08869200  0.51051600  0.17812300  1
  Ni  Ni6  1  0.96519600  0.11399100  0.13016500  1
  Ni  Ni7  1  0.03480400  0.88600900  0.86983500  1
  Ni  Ni8  1  0.25506400  0.89393100  0.19631900  1
  Ni  Ni9  1  0.74493600  0.10606900  0.80368100  1
  Se  Se0  1  0.82600500  0.76170600  0.09308100  1
  Se  Se1  1  0.17399500  0.23829400  0.90691900  1
  Se  Se2  1  0.72098100  0.31608300  0.10965200  1
  Se  Se3  1  0.27901900  0.68391700  0.89034800  1
  Se  Se4  1  0.55379600  0.38243700  0.67218500  1
  Se  Se5  1  0.44620400  0.61756300  0.32781500  1
  Se  Se6  1  0.15586300  0.10585000  0.42961100  1
  Se  Se7  1  0.84413700  0.89415000  0.57038900  1
  Cl  Cl0  1  0.98455900  0.37003300  0.60308700  1
  Cl  Cl1  1  0.01544100  0.62996700  0.39691300  1
  Cl  Cl2  1  0.54739400  0.99461700  0.27262600  1
  Cl  Cl3  1  0.45260600  0.00538300  0.72737400  1
  O  O0  1  0.71921000  0.13435000  0.01924000  1
  O  O1  1  0.28079000  0.86565000  0.98076000  1
  O  O2  1  0.89611900  0.59449000  0.03508000  1
  O  O3  1  0.10388100  0.40551000  0.96492000  1
  O  O4  1  0.67170100  0.54540800  0.69242100  1
  O  O5  1  0.32829900  0.45459200  0.30757900  1
  O  O6  1  0.94080100  0.33516800  0.18015700  1
  O  O7  1  0.05919900  0.66483200  0.81984300  1
  O  O8  1  0.44314600  0.72183400  0.49759900  1
  O  O9  1  0.55685400  0.27816600  0.50240100  1
  O  O10  1  0.93930300  0.09196700  0.34286100  1
  O  O11  1  0.06069700  0.90803300  0.65713900  1
  O  O12  1  0.65563800  0.76945300  0.95104400  1
  O  O13  1  0.34436200  0.23054700  0.04895600  1
  O  O14  1  0.78938000  0.86582400  0.73153800  1
  O  O15  1  0.21062000  0.13417600  0.26846200  1
  O  O16  1  0.33086600  0.69185400  0.72728300  1
  O  O17  1  0.66913400  0.30814600  0.27271700  1
  O  O18  1  0.80540400  0.07415000  0.60381400  1
  O  O19  1  0.19459600  0.92585000  0.39618600  1
  O  O20  1  0.71823900  0.32021400  0.79790900  1
  O  O21  1  0.28176100  0.67978600  0.20209100  1
  O  O22  1  0.98871600  0.88631400  0.07256000  1
  O  O23  1  0.01128400  0.11368600  0.92744000  1
loop_
_geom_bond_atom_site_label_1
_geom_bond_atom_site_label_2
_geom_bond_distance
_geom_bond_site_symmetry_2
Ni0 O12 2.019103 1_555
Ni0 O16 2.049685 1_555
Ni0 O14 2.057844 1_555
Ni0 O4 2.058886 1_555
Ni0 O8 2.116946 1_555
Ni1 O13 2.019103 1_555
Ni1 O17 2.049685 1_555
Ni1 O15 2.057844 1_555
Ni1 O5 2.058886 1_555
Ni1 O9 2.116946 1_555
Ni2 O18 2.060238 1_555
Ni2 O9 2.088172 1_555
Ni2 O10 2.089170 1_555
Ni2 O17 2.101449 1_555
Ni3 O19 2.060238 1_555
Ni3 O8 2.088172 1_555
Ni3 O11 2.089170 1_555
Ni3 O16 2.101449 1_555
Ni4 O7 2.023302 1_655
Ni4 O3 2.081754 1_655
Ni4 O2 2.114375 1_556
Ni4 O20 2.142896 1_555
Ni4 O4 2.164996 1_555
Ni5 O6 2.023302 1_455
Ni5 O2 2.081754 1_455
Ni5 O3 2.114375 1_554
Ni5 O21 2.142896 1_555
Ni5 O5 2.164996 1_555
Ni6 O0 2.045594 1_555
Ni6 O15 2.063705 1_655
Ni6 O23 2.068180 1_654
Ni6 O6 2.075582 1_555
Ni6 O22 2.137982 1_545
Ni6 O10 2.144762 1_555
Ni7 O1 2.045594 1_555
Ni7 O14 2.063705 1_455
Ni7 O22 2.068180 1_456
Ni7 O7 2.075582 1_555
Ni7 O23 2.137982 1_565
Ni7 O11 2.144762 1_555
Ni8 O21 2.050277 1_555
Ni8 O19 2.066329 1_555
Ni8 O1 2.088255 1_554
Ni8 O22 2.175358 1_455
Ni8 O15 2.306762 1_565
Ni9 O20 2.050277 1_555
Ni9 O18 2.066329 1_555
Ni9 O0 2.088255 1_556
Ni9 O23 2.175358 1_655
Ni9 O14 2.306762 1_545
Cl0 Ni2 2.353795 1_555
Cl0 Ni4 2.405040 1_555
Cl1 Ni3 2.353795 1_555
Cl1 Ni5 2.405040 1_555
Cl2 Ni8 2.410171 1_555
Cl2 Ni2 2.524984 1_565
Cl2 Ni1 2.702617 1_565
Cl3 Ni9 2.410171 1_555
Cl3 Ni3 2.524984 1_545
Cl3 Ni0 2.702617 1_545
O0 Se2 1.755973 1_555
O1 Se3 1.755973 1_555
O2 Se0 1.738347 1_555
O3 Se1 1.738347 1_555
O4 Se4 1.734933 1_555
O5 Se5 1.734933 1_555
O6 Se2 1.736217 1_555
O7 Se3 1.736217 1_555
O8 Se5 1.724851 1_555
O9 Se4 1.724851 1_555
O10 Se6 1.733510 1_655
O11 Se7 1.733510 1_455
O12 Se0 1.675255 1_556
O13 Se1 1.675255 1_554
O14 Se7 1.780050 1_555
O15 Se6 1.780050 1_555
O16 Se3 1.735337 1_555
O17 Se2 1.735337 1_555
O18 Se7 1.722454 1_545
O19 Se6 1.722454 1_565
O20 Se4 1.749159 1_555
O21 Se5 1.749159 1_555
O22 Se0 1.825190 1_555
O23 Se1 1.825190 1_555
