# generated using pymatgen
data_Ba6Tm2Ga4O15
_symmetry_space_group_name_H-M   'P 1'
_cell_length_a   5.96059391
_cell_length_b   7.93926900
_cell_length_c   18.47223900
_cell_angle_alpha   88.55096907
_cell_angle_beta   90.00000000
_cell_angle_gamma   90.00000000
_symmetry_Int_Tables_number   1
_chemical_formula_structural   Ba6Tm2Ga4O15
_chemical_formula_sum   'Ba12 Tm4 Ga8 O30'
_cell_volume   873.87776230
_cell_formula_units_Z   2
loop_
 _symmetry_equiv_pos_site_id
 _symmetry_equiv_pos_as_xyz
  1  'x, y, z'
loop_
 _atom_site_type_symbol
 _atom_site_label
 _atom_site_symmetry_multiplicity
 _atom_site_fract_x
 _atom_site_fract_y
 _atom_site_fract_z
 _atom_site_occupancy
  Ba  Ba0  1  0.75421494  0.49906420  0.07837662  1
  Ba  Ba1  1  0.24578506  0.50093580  0.92162338  1
  Ba  Ba2  1  0.75421494  0.50093580  0.42162338  1
  Ba  Ba3  1  0.24578506  0.49906420  0.57837662  1
  Ba  Ba4  1  0.74938118  0.97468266  0.08939259  1
  Ba  Ba5  1  0.25061882  0.02531734  0.91060741  1
  Ba  Ba6  1  0.74938118  0.02531734  0.41060741  1
  Ba  Ba7  1  0.25061882  0.97468266  0.58939259  1
  Ba  Ba8  1  0.72145141  -0.00000000  0.75000000  1
  Ba  Ba9  1  0.27854859  -0.00000000  0.25000000  1
  Ba  Ba10  1  0.67640177  0.50000000  0.75000000  1
  Ba  Ba11  1  0.32359823  0.50000000  0.25000000  1
  Tm  Tm0  1  0.74828782  0.75323883  0.91056183  1
  Tm  Tm1  1  0.25171218  0.24676117  0.08943817  1
  Tm  Tm2  1  0.74828782  0.24676117  0.58943817  1
  Tm  Tm3  1  0.25171218  0.75323883  0.41056183  1
  Ga  Ga0  1  0.74651638  0.75429462  0.55757444  1
  Ga  Ga1  1  0.25348362  0.24570538  0.44242556  1
  Ga  Ga2  1  0.74651638  0.24570538  0.94242556  1
  Ga  Ga3  1  0.25348362  0.75429462  0.05757444  1
  Ga  Ga4  1  0.77044492  0.76997298  0.26765212  1
  Ga  Ga5  1  0.22955508  0.23002702  0.73234788  1
  Ga  Ga6  1  0.77044492  0.23002702  0.23234788  1
  Ga  Ga7  1  0.22955508  0.76997298  0.76765212  1
  O  O0  1  0.19531673  -0.00000000  0.75000000  1
  O  O1  1  0.80468327  -0.00000000  0.25000000  1
  O  O2  1  0.51094879  0.76692589  0.00008984  1
  O  O3  1  0.48905121  0.23307411  -0.00008984  1
  O  O4  1  0.51094879  0.23307411  0.49991016  1
  O  O5  1  0.48905121  0.76692589  0.50008984  1
  O  O6  1  0.76449787  0.95509999  0.60704262  1
  O  O7  1  0.23550213  0.04490001  0.39295738  1
  O  O8  1  0.76449787  0.04490001  0.89295738  1
  O  O9  1  0.23550213  0.95509999  0.10704262  1
  O  O10  1  0.01122148  0.76604086  0.99204831  1
  O  O11  1  0.98877852  0.23395914  0.00795169  1
  O  O12  1  0.01122148  0.23395914  0.50795169  1
  O  O13  1  0.98877852  0.76604086  0.49204831  1
  O  O14  1  0.33502800  0.68820155  0.68370150  1
  O  O15  1  0.66497200  0.31179845  0.31629850  1
  O  O16  1  0.33502800  0.31179845  0.81629850  1
  O  O17  1  0.66497200  0.68820155  0.18370150  1
  O  O18  1  0.45900532  0.75404549  0.83661775  1
  O  O19  1  0.54099468  0.24595451  0.16338225  1
  O  O20  1  0.45900532  0.24595451  0.66338225  1
  O  O21  1  0.54099468  0.75404549  0.33661775  1
  O  O22  1  0.96308184  0.72257870  0.81370344  1
  O  O23  1  0.03691816  0.27742130  0.18629656  1
  O  O24  1  0.96308184  0.27742130  0.68629656  1
  O  O25  1  0.03691816  0.72257870  0.31370344  1
  O  O26  1  0.75308740  0.53032387  0.58948950  1
  O  O27  1  0.24691260  0.46967613  0.41051050  1
  O  O28  1  0.75308740  0.46967613  0.91051050  1
  O  O29  1  0.24691260  0.53032387  0.08948950  1
loop_
_geom_bond_atom_site_label_1
_geom_bond_atom_site_label_2
_geom_bond_distance
_geom_bond_site_symmetry_2
Ba0 O17 2.543789 1_555
Ba0 O19 2.821246 1_555
Ba0 O11 2.866280 1_555
Ba0 O2 2.925889 1_555
Ba0 O29 2.954815 1_655
Ba0 O10 3.035046 1_654
Ba0 O3 3.035352 1_555
Ba0 O29 3.041351 1_555
Ba0 O28 3.115514 1_554
Ba0 O23 3.119726 1_655
Ba1 O16 2.543789 1_555
Ba1 O18 2.821246 1_555
Ba1 O10 2.866280 1_555
Ba1 O3 2.925889 1_556
Ba1 O28 2.954815 1_455
Ba1 O11 3.035046 1_456
Ba1 O2 3.035352 1_556
Ba1 O28 3.041351 1_555
Ba1 O29 3.115514 1_556
Ba1 O22 3.119726 1_455
Ba2 O15 2.543789 1_555
Ba2 O21 2.821246 1_555
Ba2 O13 2.866280 1_555
Ba2 O4 2.925889 1_555
Ba2 O27 2.954815 1_655
Ba2 O12 3.035046 1_655
Ba2 O5 3.035352 1_555
Ba2 O27 3.041351 1_555
Ba2 O26 3.115514 1_555
Ba2 O25 3.119726 1_655
Ba3 O14 2.543789 1_555
Ba3 O20 2.821246 1_555
Ba3 O12 2.866280 1_555
Ba3 O5 2.925889 1_555
Ba3 O26 2.954815 1_455
Ba3 O13 3.035046 1_455
Ba3 O4 3.035352 1_555
Ba3 O26 3.041351 1_555
Ba3 O27 3.115514 1_555
Ba3 O24 3.119726 1_455
Ba4 O2 2.756685 1_555
Ba4 O19 2.863240 1_565
Ba4 O17 2.874156 1_555
Ba4 O11 2.894833 1_565
Ba4 O9 2.919558 1_655
Ba4 O10 2.926393 1_654
Ba4 O1 2.996831 1_565
Ba4 O3 3.029350 1_565
Ba4 O9 3.083833 1_555
Ba5 O3 2.756685 1_556
Ba5 O18 2.863240 1_545
Ba5 O16 2.874156 1_555
Ba5 O10 2.894833 1_545
Ba5 O8 2.919558 1_455
Ba5 O11 2.926393 1_456
Ba5 O0 2.996831 1_555
Ba5 O2 3.029350 1_546
Ba5 O8 3.083833 1_555
Ba6 O4 2.756685 1_555
Ba6 O21 2.863240 1_545
Ba6 O15 2.874156 1_555
Ba6 O13 2.894833 1_545
Ba6 O7 2.919558 1_655
Ba6 O12 2.926393 1_655
Ba6 O1 2.996831 1_555
Ba6 O5 3.029350 1_545
Ba6 O7 3.083833 1_555
Ba7 O5 2.756685 1_555
Ba7 O20 2.863240 1_565
Ba7 O14 2.874156 1_555
Ba7 O12 2.894833 1_565
Ba7 O6 2.919558 1_455
Ba7 O13 2.926393 1_455
Ba7 O0 2.996831 1_565
Ba7 O4 3.029350 1_565
Ba7 O6 3.083833 1_555
Ba8 O8 2.685897 1_555
Ba8 O6 2.685897 1_545
Ba8 O0 2.824519 1_655
Ba8 O24 2.859913 1_555
Ba8 O22 2.859913 1_545
Ba8 O20 2.943168 1_555
Ba8 O18 2.943168 1_545
Ba8 O0 3.136075 1_555
Ba9 O9 2.685897 1_545
Ba9 O7 2.685897 1_555
Ba9 O1 2.824519 1_455
Ba9 O23 2.859913 1_555
Ba9 O25 2.859913 1_545
Ba9 O19 2.943168 1_555
Ba9 O21 2.943168 1_545
Ba9 O1 3.136075 1_555
Ba10 O24 2.744544 1_555
Ba10 O22 2.744544 1_555
Ba10 O16 2.789310 1_555
Ba10 O14 2.789310 1_555
Ba10 O20 2.910403 1_555
Ba10 O18 2.910403 1_555
Ba10 O28 3.003656 1_555
Ba10 O26 3.003656 1_555
Ba11 O25 2.744544 1_555
Ba11 O23 2.744544 1_555
Ba11 O15 2.789310 1_555
Ba11 O17 2.789310 1_555
Ba11 O19 2.910403 1_555
Ba11 O21 2.910403 1_555
Ba11 O27 3.003656 1_555
Ba11 O29 3.003656 1_555
Ga0 O26 1.859555 1_555
Ga0 O6 1.860592 1_555
Ga0 O5 1.867451 1_555
Ga0 O13 1.885021 1_555
Ga1 O27 1.859555 1_555
Ga1 O7 1.860592 1_555
Ga1 O4 1.867451 1_555
Ga1 O12 1.885021 1_555
Ga2 O28 1.859555 1_555
Ga2 O8 1.860592 1_555
Ga2 O3 1.867451 1_556
Ga2 O11 1.885021 1_556
Ga3 O29 1.859555 1_555
Ga3 O9 1.860592 1_555
Ga3 O2 1.867451 1_555
Ga3 O10 1.885021 1_554
Ga4 O17 1.808997 1_555
Ga4 O25 1.836261 1_655
Ga4 O1 1.858234 1_565
Ga4 O21 1.871172 1_555
Ga5 O16 1.808997 1_555
Ga5 O24 1.836261 1_455
Ga5 O0 1.858234 1_555
Ga5 O20 1.871172 1_555
Ga6 O15 1.808997 1_555
Ga6 O23 1.836261 1_655
Ga6 O1 1.858234 1_555
Ga6 O19 1.871172 1_555
Ga7 O14 1.808997 1_555
Ga7 O22 1.836261 1_455
Ga7 O0 1.858234 1_565
Ga7 O18 1.871172 1_555
O2 Tm0 2.181105 1_554
O3 Tm1 2.181105 1_555
O4 Tm2 2.181105 1_555
O5 Tm3 2.181105 1_555
O6 Tm2 2.332144 1_565
O7 Tm3 2.332144 1_545
O8 Tm0 2.332144 1_545
O9 Tm1 2.332144 1_565
O10 Tm0 2.177166 1_455
O11 Tm1 2.177166 1_655
O12 Tm2 2.177166 1_455
O13 Tm3 2.177166 1_655
O18 Tm0 2.199662 1_555
O19 Tm1 2.199662 1_555
O20 Tm2 2.199662 1_555
O21 Tm3 2.199662 1_555
O22 Tm0 2.218480 1_555
O23 Tm1 2.218480 1_555
O24 Tm2 2.218480 1_555
O25 Tm3 2.218480 1_555
O26 Tm2 2.251486 1_555
O27 Tm3 2.251486 1_555
O28 Tm0 2.251486 1_555
O29 Tm1 2.251486 1_555
