# generated using pymatgen
data_Tl3B3S10
_symmetry_space_group_name_H-M   'P 1'
_cell_length_a   6.90528527
_cell_length_b   7.83007792
_cell_length_c   13.83803785
_cell_angle_alpha   103.61723601
_cell_angle_beta   93.75661353
_cell_angle_gamma   95.07834596
_symmetry_Int_Tables_number   1
_chemical_formula_structural   Tl3B3S10
_chemical_formula_sum   'Tl6 B6 S20'
_cell_volume   721.43361660
_cell_formula_units_Z   2
loop_
 _symmetry_equiv_pos_site_id
 _symmetry_equiv_pos_as_xyz
  1  'x, y, z'
loop_
 _atom_site_type_symbol
 _atom_site_label
 _atom_site_symmetry_multiplicity
 _atom_site_fract_x
 _atom_site_fract_y
 _atom_site_fract_z
 _atom_site_occupancy
  Tl  Tl0  1  0.01575320  0.87895456  0.79364079  1
  Tl  Tl1  1  0.98424680  0.12104544  0.20635921  1
  Tl  Tl2  1  0.26452016  0.44935199  0.84533791  1
  Tl  Tl3  1  0.73547984  0.55064801  0.15466209  1
  Tl  Tl4  1  0.67284712  0.82413458  0.51895609  1
  Tl  Tl5  1  0.32715288  0.17586542  0.48104391  1
  B  B0  1  0.63473232  0.08451289  0.91201279  1
  B  B1  1  0.36526768  0.91548711  0.08798721  1
  B  B2  1  0.74024705  0.27716372  0.75950302  1
  B  B3  1  0.25975295  0.72283628  0.24049698  1
  B  B4  1  0.89769255  0.38175708  0.58557654  1
  B  B5  1  0.10230745  0.61824292  0.41442346  1
  S  S0  1  0.07418228  0.79092841  0.33840974  1
  S  S1  1  0.92581772  0.20907159  0.66159026  1
  S  S2  1  0.16608119  0.74769950  0.11176190  1
  S  S3  1  0.83391881  0.25230050  0.88823810  1
  S  S4  1  0.32917929  0.49985040  0.38169234  1
  S  S5  1  0.67082071  0.50014960  0.61830766  1
  S  S6  1  0.29669622  0.47957812  0.22952612  1
  S  S7  1  0.70330378  0.52042188  0.77047388  1
  S  S8  1  0.51440415  0.85631010  0.28059868  1
  S  S9  1  0.48559585  0.14368990  0.71940132  1
  S  S10  1  0.47822564  0.06189450  0.21374945  1
  S  S11  1  0.52177436  0.93810550  0.78625055  1
  S  S12  1  0.53947882  0.77003604  0.01363754  1
  S  S13  1  0.46052118  0.22996396  0.98636246  1
  S  S14  1  0.23714305  0.05723066  0.01399159  1
  S  S15  1  0.76285695  0.94276934  0.98600841  1
  S  S16  1  0.14076453  0.73517121  0.55271859  1
  S  S17  1  0.85923547  0.26482879  0.44728141  1
  S  S18  1  0.14299845  0.52549086  0.62222428  1
  S  S19  1  0.85700155  0.47450914  0.37777572  1
loop_
_geom_bond_atom_site_label_1
_geom_bond_atom_site_label_2
_geom_bond_distance
_geom_bond_site_symmetry_2
B0 S15 1.911357 1_545
B0 S13 1.912005 1_555
B0 S3 1.915470 1_555
B0 S11 1.917203 1_545
B1 S14 1.911357 1_565
B1 S12 1.912005 1_555
B1 S2 1.915470 1_555
B1 S10 1.917203 1_565
B2 S3 1.914269 1_555
B2 S7 1.916001 1_555
B2 S9 1.940620 1_555
B2 S1 1.941756 1_555
B3 S2 1.914269 1_555
B3 S6 1.916001 1_555
B3 S8 1.940620 1_555
B3 S0 1.941756 1_555
B4 S17 1.906956 1_555
B4 S1 1.913606 1_555
B4 S5 1.916033 1_555
B4 S18 1.916852 1_655
B5 S16 1.906956 1_555
B5 S0 1.913606 1_555
B5 S4 1.916033 1_555
B5 S19 1.916852 1_455
S4 Tl5 3.156634 1_555
S5 Tl4 3.156634 1_555
S8 Tl3 3.182322 1_555
S9 Tl2 3.182322 1_555
S12 Tl3 3.199236 1_555
S13 Tl2 3.199236 1_555
