# generated using pymatgen
data_Cr3Te5
_symmetry_space_group_name_H-M   'P 1'
_cell_length_a   3.98907587
_cell_length_b   3.98907587
_cell_length_c   14.82580300
_cell_angle_alpha   90.00000000
_cell_angle_beta   90.00000000
_cell_angle_gamma   119.99999779
_symmetry_Int_Tables_number   1
_chemical_formula_structural   Cr3Te5
_chemical_formula_sum   'Cr3 Te5'
_cell_volume   204.31180407
_cell_formula_units_Z   1
loop_
 _symmetry_equiv_pos_site_id
 _symmetry_equiv_pos_as_xyz
  1  'x, y, z'
loop_
 _atom_site_type_symbol
 _atom_site_label
 _atom_site_symmetry_multiplicity
 _atom_site_fract_x
 _atom_site_fract_y
 _atom_site_fract_z
 _atom_site_occupancy
  Cr  Cr0  1  0.00000000  0.00000000  0.50000000  1
  Cr  Cr1  1  0.00000000  0.00000000  0.28222500  1
  Cr  Cr2  1  0.00000000  0.00000000  0.71777500  1
  Te  Te0  1  0.33333300  0.66666700  0.81586600  1
  Te  Te1  1  0.33333300  0.66666700  0.39251900  1
  Te  Te2  1  0.66666700  0.33333300  0.18413400  1
  Te  Te3  1  0.66666700  0.33333300  0.60748100  1
  Te  Te4  1  0.00000000  0.00000000  0.00000000  1
loop_
_geom_bond_atom_site_label_1
_geom_bond_atom_site_label_2
_geom_bond_distance
_geom_bond_site_symmetry_2
Cr0 Te1 2.800616 1_545
Cr0 Te3 2.800616 1_455
Cr0 Te1 2.800619 1_445
Cr0 Te1 2.800619 1_555
Cr0 Te3 2.800619 1_445
Cr0 Te3 2.800619 1_555
Cr1 Te2 2.723813 1_455
Cr1 Te2 2.723816 1_555
Cr1 Te2 2.723816 1_445
Cr1 Te1 2.824553 1_545
Cr1 Te1 2.824556 1_445
Cr1 Te1 2.824556 1_555
Cr2 Te0 2.723813 1_545
Cr2 Te0 2.723816 1_555
Cr2 Te0 2.723816 1_445
Cr2 Te3 2.824553 1_455
Cr2 Te3 2.824556 1_445
Cr2 Te3 2.824556 1_555
