# generated using pymatgen
data_KPrEuWO6
_symmetry_space_group_name_H-M   'P 1'
_cell_length_a   8.55478040
_cell_length_b   8.51115056
_cell_length_c   8.51069907
_cell_angle_alpha   90.00000000
_cell_angle_beta   90.00000000
_cell_angle_gamma   90.00000000
_symmetry_Int_Tables_number   1
_chemical_formula_structural   KPrEuWO6
_chemical_formula_sum   'K4 Pr4 Eu4 W4 O24'
_cell_volume   619.67271418
_cell_formula_units_Z   4
loop_
 _symmetry_equiv_pos_site_id
 _symmetry_equiv_pos_as_xyz
  1  'x, y, z'
loop_
 _atom_site_type_symbol
 _atom_site_label
 _atom_site_symmetry_multiplicity
 _atom_site_fract_x
 _atom_site_fract_y
 _atom_site_fract_z
 _atom_site_occupancy
  K  K0  1  -0.00000000  0.50000000  0.50000000  1
  K  K1  1  0.50000000  -0.00000000  0.50000000  1
  K  K2  1  0.50000000  -0.00000000  -0.00000000  1
  K  K3  1  -0.00000000  0.50000000  -0.00000000  1
  Pr  Pr0  1  0.75000000  0.75000000  0.75000000  1
  Pr  Pr1  1  0.25000000  0.25000000  0.75000000  1
  Pr  Pr2  1  0.25000000  0.75000000  0.25000000  1
  Pr  Pr3  1  0.75000000  0.25000000  0.25000000  1
  Eu  Eu0  1  0.50000000  0.50000000  -0.00000000  1
  Eu  Eu1  1  -0.00000000  -0.00000000  0.50000000  1
  Eu  Eu2  1  -0.00000000  -0.00000000  -0.00000000  1
  Eu  Eu3  1  0.50000000  0.50000000  0.50000000  1
  W  W0  1  0.25000000  0.25000000  0.25000000  1
  W  W1  1  0.75000000  0.75000000  0.25000000  1
  W  W2  1  0.75000000  0.25000000  0.75000000  1
  W  W3  1  0.25000000  0.75000000  0.75000000  1
  O  O0  1  0.02312532  0.20855965  0.27827608  1
  O  O1  1  0.97687468  0.79144035  0.27827608  1
  O  O2  1  0.97687468  0.20855965  0.72172392  1
  O  O3  1  0.02312532  0.79144035  0.72172392  1
  O  O4  1  0.26983544  0.02428607  0.21815336  1
  O  O5  1  0.26983544  0.97571393  0.78184664  1
  O  O6  1  0.73016456  0.97571393  0.21815336  1
  O  O7  1  0.73016456  0.02428607  0.78184664  1
  O  O8  1  0.21986189  0.27518351  0.02405980  1
  O  O9  1  0.78013811  0.27518351  0.97594020  1
  O  O10  1  0.21986189  0.72481649  0.97594020  1
  O  O11  1  0.78013811  0.72481649  0.02405980  1
  O  O12  1  0.47687468  0.29144035  0.22172392  1
  O  O13  1  0.52312532  0.70855965  0.22172392  1
  O  O14  1  0.52312532  0.29144035  0.77827608  1
  O  O15  1  0.47687468  0.70855965  0.77827608  1
  O  O16  1  0.23016456  0.47571393  0.28184664  1
  O  O17  1  0.23016456  0.52428607  0.71815336  1
  O  O18  1  0.76983544  0.52428607  0.28184664  1
  O  O19  1  0.76983544  0.47571393  0.71815336  1
  O  O20  1  0.28013811  0.22481649  0.47594020  1
  O  O21  1  0.71986189  0.22481649  0.52405980  1
  O  O22  1  0.28013811  0.77518351  0.52405980  1
  O  O23  1  0.71986189  0.77518351  0.47594020  1
loop_
_geom_bond_atom_site_label_1
_geom_bond_atom_site_label_2
_geom_bond_distance
_geom_bond_site_symmetry_2
K0 O18 2.714188 1_455
K0 O19 2.714188 1_455
K0 O16 2.714188 1_555
K0 O17 2.714188 1_555
K0 O3 3.122955 1_555
K0 O2 3.122955 1_455
K0 O0 3.122955 1_555
K0 O1 3.122955 1_455
K1 O21 2.690889 1_555
K1 O20 2.690889 1_555
K1 O22 2.690889 1_545
K1 O23 2.690889 1_545
K1 O6 3.110231 1_545
K1 O4 3.110231 1_555
K1 O7 3.110231 1_555
K1 O5 3.110231 1_545
K2 O6 2.714188 1_545
K2 O7 2.714188 1_554
K2 O5 2.714188 1_544
K2 O4 2.714188 1_555
K2 O14 3.122955 1_554
K2 O13 3.122955 1_545
K2 O15 3.122955 1_544
K2 O12 3.122955 1_555
K3 O8 2.690889 1_555
K3 O11 2.690889 1_455
K3 O9 2.690889 1_454
K3 O10 2.690889 1_554
K3 O18 3.110231 1_455
K3 O19 3.110231 1_454
K3 O16 3.110231 1_555
K3 O17 3.110231 1_554
Eu0 O14 2.598253 1_554
Eu0 O15 2.598253 1_554
Eu0 O13 2.598253 1_555
Eu0 O12 2.598253 1_555
Eu1 O3 2.598253 1_545
Eu1 O2 2.598253 1_455
Eu1 O1 2.598253 1_445
Eu1 O0 2.598253 1_555
Eu2 O3 2.966313 1_544
Eu2 O1 2.966313 1_445
Eu2 O0 2.966313 1_555
Eu2 O2 2.966313 1_454
Eu2 O5 2.969589 1_544
Eu2 O4 2.969589 1_555
Eu2 O7 2.969589 1_454
Eu2 O6 2.969589 1_445
Eu2 O11 3.010842 1_445
Eu2 O8 3.010842 1_555
Eu2 O10 3.010842 1_544
Eu2 O9 3.010842 1_454
Eu3 O14 2.966313 1_555
Eu3 O15 2.966313 1_555
Eu3 O13 2.966313 1_555
Eu3 O12 2.966313 1_555
Eu3 O19 2.969589 1_555
Eu3 O16 2.969589 1_555
Eu3 O17 2.969589 1_555
Eu3 O18 2.969589 1_555
Eu3 O21 3.010842 1_555
Eu3 O22 3.010842 1_555
Eu3 O20 3.010842 1_555
Eu3 O23 3.010842 1_555
O0 W0 1.987275 1_555
O0 Pr3 2.375220 1_455
O1 W1 1.987275 1_555
O1 Pr2 2.375220 1_655
O2 W2 1.987275 1_555
O2 Pr1 2.375220 1_655
O3 W3 1.987275 1_555
O3 Pr0 2.375220 1_455
O4 W0 1.947517 1_555
O4 Pr2 2.356289 1_545
O5 W3 1.947517 1_555
O5 Pr1 2.356289 1_565
O6 W1 1.947517 1_555
O6 Pr3 2.356289 1_565
O7 W2 1.947517 1_555
O7 Pr0 2.356289 1_545
O8 W0 1.951921 1_555
O8 Pr1 2.356416 1_554
O9 W2 1.951921 1_555
O9 Pr3 2.356416 1_556
O10 W3 1.951921 1_555
O10 Pr2 2.356416 1_556
O11 W1 1.951921 1_555
O11 Pr0 2.356416 1_554
O12 W0 1.987275 1_555
O12 Pr3 2.375220 1_555
O13 W1 1.987275 1_555
O13 Pr2 2.375220 1_555
O14 W2 1.987275 1_555
O14 Pr1 2.375220 1_555
O15 W3 1.987275 1_555
O15 Pr0 2.375220 1_555
O16 W0 1.947517 1_555
O16 Pr2 2.356289 1_555
O17 W3 1.947517 1_555
O17 Pr1 2.356289 1_555
O18 W1 1.947517 1_555
O18 Pr3 2.356289 1_555
O19 W2 1.947517 1_555
O19 Pr0 2.356289 1_555
O20 W0 1.951921 1_555
O20 Pr1 2.356416 1_555
O21 W2 1.951921 1_555
O21 Pr3 2.356416 1_555
O22 W3 1.951921 1_555
O22 Pr2 2.356416 1_555
O23 W1 1.951921 1_555
O23 Pr0 2.356416 1_555
