# generated using pymatgen
data_MnV4(CuO4)3
_symmetry_space_group_name_H-M   'P 1'
_cell_length_a   6.38310606
_cell_length_b   6.38310606
_cell_length_c   6.38310606
_cell_angle_alpha   109.47122063
_cell_angle_beta   109.47122063
_cell_angle_gamma   109.47122063
_symmetry_Int_Tables_number   1
_chemical_formula_structural   MnV4(CuO4)3
_chemical_formula_sum   'Mn1 V4 Cu3 O12'
_cell_volume   200.20470997
_cell_formula_units_Z   1
loop_
 _symmetry_equiv_pos_site_id
 _symmetry_equiv_pos_as_xyz
  1  'x, y, z'
loop_
 _atom_site_type_symbol
 _atom_site_label
 _atom_site_symmetry_multiplicity
 _atom_site_fract_x
 _atom_site_fract_y
 _atom_site_fract_z
 _atom_site_occupancy
  Mn  Mn0  1  0.00000000  0.00000000  0.00000000  1
  V  V0  1  0.00000000  0.00000000  0.50000000  1
  V  V1  1  0.50000000  0.00000000  0.00000000  1
  V  V2  1  0.00000000  0.50000000  0.00000000  1
  V  V3  1  0.50000000  0.50000000  0.50000000  1
  Cu  Cu0  1  0.50000000  0.00000000  0.50000000  1
  Cu  Cu1  1  0.00000000  0.50000000  0.50000000  1
  Cu  Cu2  1  0.50000000  0.50000000  0.00000000  1
  O  O0  1  0.70042500  0.81954400  0.51996900  1
  O  O1  1  0.70042500  0.18045600  0.88088100  1
  O  O2  1  0.29957500  0.81954400  0.11911900  1
  O  O3  1  0.29957500  0.18045600  0.48003100  1
  O  O4  1  0.81954400  0.51996900  0.70042500  1
  O  O5  1  0.18045600  0.88088100  0.70042500  1
  O  O6  1  0.81954400  0.11911900  0.29957500  1
  O  O7  1  0.18045600  0.48003100  0.29957500  1
  O  O8  1  0.51996900  0.70042500  0.81954400  1
  O  O9  1  0.88088100  0.70042500  0.18045600  1
  O  O10  1  0.11911900  0.29957500  0.81954400  1
  O  O11  1  0.48003100  0.29957500  0.18045600  1
loop_
_geom_bond_atom_site_label_1
_geom_bond_atom_site_label_2
_geom_bond_distance
_geom_bond_site_symmetry_2
Mn0 O6 2.577695 1_455
Mn0 O11 2.577695 1_555
Mn0 O2 2.577695 1_545
Mn0 O10 2.577695 1_554
Mn0 O9 2.577695 1_445
Mn0 O0 2.577695 1_444
Mn0 O7 2.577695 1_555
Mn0 O4 2.577695 1_444
Mn0 O8 2.577695 1_444
Mn0 O1 2.577695 1_454
Mn0 O3 2.577695 1_555
Mn0 O5 2.577695 1_544
Cu0 O0 1.987796 1_545
Cu0 O2 1.987796 1_545
Cu0 O3 1.987796 1_555
Cu0 O1 1.987796 1_555
Cu1 O4 1.987796 1_455
Cu1 O7 1.987796 1_555
Cu1 O5 1.987796 1_555
Cu1 O6 1.987796 1_455
Cu2 O8 1.987796 1_554
Cu2 O9 1.987796 1_555
Cu2 O11 1.987796 1_555
Cu2 O10 1.987796 1_554
O0 V0 1.947200 1_665
O0 V3 1.947200 1_555
O1 V2 1.947200 1_656
O1 V1 1.947200 1_556
O2 V1 1.947200 1_565
O2 V2 1.947200 1_555
O3 V0 1.947200 1_555
O3 V3 1.947200 1_555
O4 V2 1.947200 1_656
O4 V3 1.947200 1_555
O5 V0 1.947200 1_565
O5 V1 1.947200 1_566
O6 V0 1.947200 1_655
O6 V1 1.947200 1_555
O7 V2 1.947200 1_555
O7 V3 1.947200 1_555
O8 V1 1.947200 1_566
O8 V3 1.947200 1_555
O9 V2 1.947200 1_655
O9 V0 1.947200 1_665
O10 V2 1.947200 1_556
O10 V0 1.947200 1_555
O11 V1 1.947200 1_555
O11 V3 1.947200 1_555
