# generated using pymatgen
data_Sc2CrN3
_symmetry_space_group_name_H-M   'P 1'
_cell_length_a   6.38597863
_cell_length_b   3.09345610
_cell_length_c   11.86069794
_cell_angle_alpha   89.99999025
_cell_angle_beta   21.77443852
_cell_angle_gamma   75.98315668
_symmetry_Int_Tables_number   1
_chemical_formula_structural   Sc2CrN3
_chemical_formula_sum   'Sc2 Cr1 N3'
_cell_volume   65.83194011
_cell_formula_units_Z   1
loop_
 _symmetry_equiv_pos_site_id
 _symmetry_equiv_pos_as_xyz
  1  'x, y, z'
loop_
 _atom_site_type_symbol
 _atom_site_label
 _atom_site_symmetry_multiplicity
 _atom_site_fract_x
 _atom_site_fract_y
 _atom_site_fract_z
 _atom_site_occupancy
  Sc  Sc0  1  0.00000000  0.00000000  0.65335900  1
  Sc  Sc1  1  0.00000000  0.00000000  0.34664100  1
  Cr  Cr0  1  0.00000000  0.00000000  0.00000000  1
  N  N0  1  0.00000000  0.50000000  0.50000000  1
  N  N1  1  0.00000000  0.00000000  0.83384700  1
  N  N2  1  0.00000000  0.00000000  0.16615300  1
loop_
_geom_bond_atom_site_label_1
_geom_bond_atom_site_label_2
_geom_bond_distance
_geom_bond_site_symmetry_2
Cr0 N0 1.794248 1_644
Cr0 N0 1.794248 1_455
Cr0 N2 1.970691 1_555
Cr0 N1 1.970691 1_554
N0 Sc1 2.387661 1_565
N0 Sc0 2.387661 1_555
N0 Sc0 2.387662 1_565
N0 Sc1 2.387662 1_555
N1 Sc0 2.140714 1_555
N1 Sc1 2.373756 1_645
N1 Sc1 2.373756 1_466
N1 Sc1 2.373757 1_655
N1 Sc1 2.373757 1_456
N2 Sc1 2.140714 1_555
N2 Sc0 2.373756 1_465
N2 Sc0 2.373756 1_644
N2 Sc0 2.373757 1_455
N2 Sc0 2.373757 1_654
