# generated using pymatgen
data_Mg6ZrNb
_symmetry_space_group_name_H-M   'P 1'
_cell_length_a   4.98314300
_cell_length_b   6.17459600
_cell_length_c   11.28863200
_cell_angle_alpha   90.00000000
_cell_angle_beta   90.00000000
_cell_angle_gamma   90.00000000
_symmetry_Int_Tables_number   1
_chemical_formula_structural   Mg6ZrNb
_chemical_formula_sum   'Mg12 Zr2 Nb2'
_cell_volume   347.33873084
_cell_formula_units_Z   2
loop_
 _symmetry_equiv_pos_site_id
 _symmetry_equiv_pos_as_xyz
  1  'x, y, z'
loop_
 _atom_site_type_symbol
 _atom_site_label
 _atom_site_symmetry_multiplicity
 _atom_site_fract_x
 _atom_site_fract_y
 _atom_site_fract_z
 _atom_site_occupancy
  Mg  Mg0  1  0.00000000  0.25676500  0.07255200  1
  Mg  Mg1  1  0.00000000  0.74323500  0.07255200  1
  Mg  Mg2  1  0.00000000  0.00000000  0.32782700  1
  Mg  Mg3  1  0.50000000  0.74547400  0.42730200  1
  Mg  Mg4  1  0.50000000  0.25452600  0.42730200  1
  Mg  Mg5  1  0.50000000  0.00000000  0.17321600  1
  Mg  Mg6  1  0.00000000  0.75676500  0.57255200  1
  Mg  Mg7  1  0.00000000  0.24323500  0.57255200  1
  Mg  Mg8  1  0.00000000  0.50000000  0.82782700  1
  Mg  Mg9  1  0.50000000  0.24547400  0.92730200  1
  Mg  Mg10  1  0.50000000  0.75452600  0.92730200  1
  Mg  Mg11  1  0.50000000  0.50000000  0.67321600  1
  Zr  Zr0  1  0.00000000  0.50000000  0.30160100  1
  Zr  Zr1  1  0.00000000  0.00000000  0.80160100  1
  Nb  Nb0  1  0.50000000  0.50000000  0.19764900  1
  Nb  Nb1  1  0.50000000  0.00000000  0.69764900  1
loop_
_geom_bond_atom_site_label_1
_geom_bond_atom_site_label_2
_geom_bond_distance
_geom_bond_site_symmetry_2
Mg0 Mg9 2.983508 1_554
Mg0 Mg9 2.983508 1_454
Mg0 Zr0 2.990188 1_555
Mg0 Mg1 3.003756 1_555
Mg0 Mg8 3.144464 1_554
Mg0 Mg5 3.164300 1_455
Mg0 Mg5 3.164300 1_555
Mg0 Mg1 3.170840 1_545
Mg0 Nb0 3.233852 1_455
Mg0 Nb0 3.233852 1_555
Mg0 Mg2 3.289040 1_555
Mg0 Zr1 3.445141 1_554
Mg1 Mg10 2.983508 1_454
Mg1 Mg10 2.983508 1_554
Mg1 Zr0 2.990188 1_555
Mg1 Mg8 3.144464 1_554
Mg1 Mg5 3.164300 1_465
Mg1 Mg5 3.164300 1_565
Mg1 Nb0 3.233852 1_455
Mg1 Nb0 3.233852 1_555
Mg1 Mg2 3.289040 1_565
Mg1 Zr1 3.445141 1_564
Mg2 Mg5 3.042066 1_455
Mg2 Mg5 3.042066 1_555
Mg2 Zr0 3.101461 1_545
Mg2 Zr0 3.101461 1_555
Mg2 Mg7 3.144464 1_555
Mg2 Mg6 3.144464 1_545
Mg2 Mg4 3.152590 1_455
Mg2 Mg4 3.152590 1_555
Mg2 Mg3 3.152590 1_545
Mg2 Mg3 3.152590 1_445
Mg3 Mg6 2.983508 1_555
Mg3 Mg6 2.983508 1_655
Mg3 Nb0 3.003040 1_555
Mg3 Mg4 3.031406 1_555
Mg3 Mg4 3.143190 1_565
Mg3 Zr0 3.243273 1_555
Mg3 Zr0 3.243273 1_655
Mg3 Mg5 3.270621 1_565
Mg3 Nb1 3.432737 1_565
Mg4 Mg7 2.983508 1_655
Mg4 Mg7 2.983508 1_555
Mg4 Nb0 3.003040 1_555
Mg4 Zr0 3.243273 1_555
Mg4 Zr0 3.243273 1_655
Mg4 Mg5 3.270621 1_555
Mg4 Nb1 3.432737 1_555
Mg5 Nb0 3.099594 1_555
Mg5 Nb0 3.099594 1_545
Mg5 Mg9 3.162865 1_554
Mg6 Zr1 2.990188 1_565
Mg6 Mg7 3.003756 1_565
Mg6 Mg7 3.170840 1_555
Mg6 Nb1 3.233852 1_465
Mg6 Nb1 3.233852 1_565
Mg6 Mg8 3.289040 1_555
Mg6 Zr0 3.445141 1_555
Mg7 Zr1 2.990188 1_555
Mg7 Nb1 3.233852 1_455
Mg7 Nb1 3.233852 1_555
Mg7 Mg8 3.289040 1_555
Mg7 Zr0 3.445141 1_555
Mg8 Zr1 3.101461 1_555
Mg8 Zr1 3.101461 1_565
Mg8 Mg9 3.152590 1_455
Mg8 Mg9 3.152590 1_555
Mg9 Nb1 3.003040 1_555
Mg9 Zr1 3.243273 1_555
Mg9 Zr1 3.243273 1_655
Mg9 Nb0 3.432737 1_556
Mg10 Nb1 3.003040 1_565
Mg10 Mg9 3.031406 1_565
Mg10 Mg9 3.143190 1_555
Mg10 Mg8 3.152590 1_655
Mg10 Mg8 3.152590 1_555
Mg10 Mg5 3.162865 1_566
Mg10 Zr1 3.243273 1_665
Mg10 Zr1 3.243273 1_565
Mg10 Mg11 3.270621 1_555
Mg10 Nb0 3.432737 1_556
Mg11 Mg8 3.042066 1_555
Mg11 Mg8 3.042066 1_655
Mg11 Nb1 3.099594 1_565
Mg11 Nb1 3.099594 1_555
Mg11 Mg3 3.162865 1_555
Mg11 Mg4 3.162865 1_555
Mg11 Mg6 3.164300 1_555
Mg11 Mg6 3.164300 1_655
Mg11 Mg7 3.164300 1_555
Mg11 Mg7 3.164300 1_655
Mg11 Mg9 3.270621 1_555
Nb0 Zr0 2.754083 1_555
Nb0 Zr0 2.754083 1_655
Nb1 Zr1 2.754083 1_555
Nb1 Zr1 2.754083 1_655
