# generated using pymatgen
data_Li7Mn2(CoO4)3
_symmetry_space_group_name_H-M   'P 1'
_cell_length_a   3.01797500
_cell_length_b   8.01075093
_cell_length_c   9.80376064
_cell_angle_alpha   113.57896429
_cell_angle_beta   93.40271365
_cell_angle_gamma   89.39748119
_symmetry_Int_Tables_number   1
_chemical_formula_structural   Li7Mn2(CoO4)3
_chemical_formula_sum   'Li7 Mn2 Co3 O12'
_cell_volume   216.82377022
_cell_formula_units_Z   1
loop_
 _symmetry_equiv_pos_site_id
 _symmetry_equiv_pos_as_xyz
  1  'x, y, z'
loop_
 _atom_site_type_symbol
 _atom_site_label
 _atom_site_symmetry_multiplicity
 _atom_site_fract_x
 _atom_site_fract_y
 _atom_site_fract_z
 _atom_site_occupancy
  Li  Li0  1  0.00295800  0.16294200  0.33140300  1
  Li  Li1  1  0.50006300  0.67692000  0.83926300  1
  Li  Li2  1  0.49993700  0.32308000  0.16073700  1
  Li  Li3  1  0.99704200  0.83705800  0.66859700  1
  Li  Li4  1  0.00000000  0.50000000  0.00000000  1
  Li  Li5  1  0.50000000  0.00000000  0.50000000  1
  Li  Li6  1  0.00000000  0.00000000  0.00000000  1
  Mn  Mn0  1  0.00132800  0.33266800  0.66966400  1
  Mn  Mn1  1  0.99867200  0.66733200  0.33033600  1
  Co  Co0  1  0.50548000  0.83930700  0.15749000  1
  Co  Co1  1  0.50000000  0.50000000  0.50000000  1
  Co  Co2  1  0.49452000  0.16069300  0.84251000  1
  O  O0  1  0.53064600  0.26387300  0.50551700  1
  O  O1  1  0.02499300  0.75660400  0.01306200  1
  O  O2  1  0.98481100  0.42789900  0.33636800  1
  O  O3  1  0.50436900  0.93978700  0.83116900  1
  O  O4  1  0.52101300  0.60619100  0.17082000  1
  O  O5  1  0.02343600  0.09585100  0.67586400  1
  O  O6  1  0.49563100  0.06021300  0.16883100  1
  O  O7  1  0.01518900  0.57210100  0.66363200  1
  O  O8  1  0.97500700  0.24339600  0.98693800  1
  O  O9  1  0.46935400  0.73612700  0.49448300  1
  O  O10  1  0.47898700  0.39380900  0.82918000  1
  O  O11  1  0.97656400  0.90414900  0.32413600  1
loop_
_geom_bond_atom_site_label_1
_geom_bond_atom_site_label_2
_geom_bond_distance
_geom_bond_site_symmetry_2
Li0 O11 2.047904 1_445
Li0 O6 2.061369 1_455
Li0 O2 2.103714 1_455
Li0 O6 2.152796 1_555
Li0 O0 2.168853 1_555
Li0 O0 2.181688 1_455
Li1 O7 2.093140 1_555
Li1 O3 2.138943 1_555
Li1 O1 2.156653 1_656
Li1 O1 2.183330 1_556
Li1 O10 2.231650 1_555
Li1 O7 2.284806 1_655
Li2 O2 2.093140 1_555
Li2 O6 2.138943 1_555
Li2 O8 2.156653 1_454
Li2 O8 2.183330 1_554
Li2 O4 2.231650 1_555
Li2 O2 2.284806 1_455
Li3 O5 2.047904 1_665
Li3 O3 2.061369 1_655
Li3 O7 2.103714 1_655
Li3 O3 2.152796 1_555
Li3 O9 2.168853 1_555
Li3 O9 2.181688 1_655
Li4 O1 2.009742 1_555
Li4 O8 2.009742 1_454
Li4 O4 2.139269 1_555
Li4 O10 2.139269 1_454
Li4 O4 2.177076 1_455
Li4 O10 2.177076 1_554
Li5 O0 2.095655 1_555
Li5 O9 2.095655 1_545
Li5 O5 2.168128 1_655
Li5 O11 2.168128 1_445
Li5 O5 2.200637 1_555
Li5 O11 2.200637 1_545
Li6 O8 2.004810 1_454
Li6 O1 2.004810 1_545
Li6 O6 2.071776 1_555
Li6 O3 2.071776 1_444
Li6 O6 2.221307 1_455
Li6 O3 2.221307 1_544
Mn0 O5 1.922544 1_555
Mn0 O7 1.943410 1_555
Mn0 O10 1.974359 1_555
Mn0 O0 1.986669 1_455
Mn0 O10 2.198690 1_455
Mn0 O0 2.241086 1_555
Mn1 O11 1.922544 1_555
Mn1 O2 1.943410 1_555
Mn1 O4 1.974359 1_555
Mn1 O9 1.986669 1_655
Mn1 O4 2.198690 1_655
Mn1 O9 2.241086 1_555
Co0 O6 1.728204 1_565
Co0 O1 1.890124 1_555
Co0 O4 1.923346 1_555
Co0 O11 2.005279 1_555
Co0 O1 2.096006 1_655
Co0 O11 2.258367 1_455
Co1 O9 1.914950 1_555
Co1 O0 1.914950 1_555
Co1 O7 2.075115 1_655
Co1 O2 2.075115 1_455
Co1 O7 2.137164 1_555
Co1 O2 2.137164 1_555
Co2 O3 1.728204 1_545
Co2 O8 1.890124 1_555
Co2 O10 1.923346 1_555
Co2 O5 2.005279 1_555
Co2 O8 2.096006 1_455
Co2 O5 2.258367 1_655
