# generated using pymatgen
data_Sr2VFeAsO3
_symmetry_space_group_name_H-M   'P 1'
_cell_length_a   4.01424400
_cell_length_b   4.01575700
_cell_length_c   16.47676900
_cell_angle_alpha   90.00048596
_cell_angle_beta   89.99940469
_cell_angle_gamma   89.99787370
_symmetry_Int_Tables_number   1
_chemical_formula_structural   Sr2VFeAsO3
_chemical_formula_sum   'Sr4 V2 Fe2 As2 O6'
_cell_volume   265.60928017
_cell_formula_units_Z   2
loop_
 _symmetry_equiv_pos_site_id
 _symmetry_equiv_pos_as_xyz
  1  'x, y, z'
loop_
 _atom_site_type_symbol
 _atom_site_label
 _atom_site_symmetry_multiplicity
 _atom_site_fract_x
 _atom_site_fract_y
 _atom_site_fract_z
 _atom_site_occupancy
  Sr  Sr0  1  0.25000000  0.25000000  0.79933600  1
  Sr  Sr1  1  0.75000000  0.75000000  0.20065700  1
  Sr  Sr2  1  0.25000000  0.25000000  0.57979000  1
  Sr  Sr3  1  0.75000000  0.75000000  0.42021000  1
  V  V0  1  0.75000000  0.75000000  0.68792700  1
  V  V1  1  0.25000000  0.25000000  0.31207100  1
  Fe  Fe0  1  0.25000000  0.75000000  0.00000400  1
  Fe  Fe1  1  0.74999900  0.25000100  0.00000000  1
  As  As0  1  0.75000000  0.74999900  0.89957400  1
  As  As1  1  0.25000000  0.24999900  0.10043700  1
  O  O0  1  0.75000000  0.75000000  0.56658400  1
  O  O1  1  0.25000000  0.25000000  0.43341300  1
  O  O2  1  0.25000100  0.74999900  0.70315700  1
  O  O3  1  0.75000000  0.24999900  0.70315600  1
  O  O4  1  0.75000100  0.25000000  0.29684200  1
  O  O5  1  0.25000000  0.75000100  0.29684200  1
loop_
_geom_bond_atom_site_label_1
_geom_bond_atom_site_label_2
_geom_bond_distance
_geom_bond_site_symmetry_2
As0 Fe0 2.601289 1_556
As0 Fe0 2.601316 1_656
As0 Fe1 2.601840 1_566
As0 Fe1 2.601849 1_556
As0 Sr0 3.284426 1_655
As0 Sr0 3.284469 1_565
As0 Sr0 3.284538 1_555
As0 Sr0 3.284539 1_665
As1 Fe1 2.601360 1_555
As1 Fe1 2.601392 1_455
As1 Fe0 2.601904 1_545
As1 Fe0 2.601932 1_555
As1 Sr1 3.284281 1_455
As1 Sr1 3.284315 1_545
As1 Sr1 3.284385 1_445
As1 Sr1 3.284393 1_555
O0 V0 1.999341 1_555
O0 Sr3 2.411771 1_555
O0 Sr2 2.847305 1_565
O0 Sr2 2.847311 1_655
O0 Sr2 2.847413 1_555
O0 Sr2 2.847413 1_665
O1 V1 1.999324 1_555
O1 Sr2 2.411820 1_555
O1 Sr3 2.847301 1_545
O1 Sr3 2.847307 1_455
O1 Sr3 2.847409 1_555
O1 Sr3 2.847409 1_445
O2 V0 2.022742 1_555
O2 V0 2.022755 1_455
O2 Sr0 2.557904 1_565
O2 Sr0 2.557919 1_555
O2 Sr2 2.857152 1_555
O2 Sr2 2.857182 1_565
O3 V0 2.023491 1_545
O3 V0 2.023503 1_555
O3 Sr0 2.557315 1_555
O3 Sr0 2.557341 1_655
O3 Sr2 2.856609 1_655
O3 Sr2 2.856638 1_555
O4 V1 2.022745 1_655
O4 V1 2.022748 1_555
O4 Sr1 2.557962 1_545
O4 Sr1 2.557983 1_555
O4 Sr3 2.857167 1_555
O4 Sr3 2.857191 1_545
O5 V1 2.023491 1_565
O5 V1 2.023503 1_555
O5 Sr1 2.557366 1_555
O5 Sr1 2.557392 1_455
O5 Sr3 2.856632 1_455
O5 Sr3 2.856662 1_555
