# generated using pymatgen
data_La3Sb4Au3
_symmetry_space_group_name_H-M   'P 1'
_cell_length_a   8.83621142
_cell_length_b   8.83621142
_cell_length_c   8.83621142
_cell_angle_alpha   109.47122063
_cell_angle_beta   109.47122063
_cell_angle_gamma   109.47122063
_symmetry_Int_Tables_number   1
_chemical_formula_structural   La3Sb4Au3
_chemical_formula_sum   'La6 Sb8 Au6'
_cell_volume   531.10012571
_cell_formula_units_Z   2
loop_
 _symmetry_equiv_pos_site_id
 _symmetry_equiv_pos_as_xyz
  1  'x, y, z'
loop_
 _atom_site_type_symbol
 _atom_site_label
 _atom_site_symmetry_multiplicity
 _atom_site_fract_x
 _atom_site_fract_y
 _atom_site_fract_z
 _atom_site_occupancy
  La  La0  1  0.87500000  0.25000000  0.12500000  1
  La  La1  1  0.62500000  0.75000000  0.37500000  1
  La  La2  1  0.25000000  0.12500000  0.87500000  1
  La  La3  1  0.75000000  0.37500000  0.62500000  1
  La  La4  1  0.12500000  0.87500000  0.25000000  1
  La  La5  1  0.37500000  0.62500000  0.75000000  1
  Sb  Sb0  1  0.66861765  0.50000000  -0.00000000  1
  Sb  Sb1  1  0.50000000  0.00000000  0.66861765  1
  Sb  Sb2  1  -0.00000000  0.66861765  0.50000000  1
  Sb  Sb3  1  0.83138235  0.83138235  0.83138235  1
  Sb  Sb4  1  0.50000000  0.00000000  0.16861765  1
  Sb  Sb5  1  0.16861765  0.50000000  0.00000000  1
  Sb  Sb6  1  -0.00000000  0.16861765  0.50000000  1
  Sb  Sb7  1  0.33138235  0.33138235  0.33138235  1
  Au  Au0  1  0.37500000  0.25000000  0.62500000  1
  Au  Au1  1  0.12500000  0.75000000  0.87500000  1
  Au  Au2  1  0.25000000  0.62500000  0.37500000  1
  Au  Au3  1  0.75000000  0.87500000  0.12500000  1
  Au  Au4  1  0.62500000  0.37500000  0.25000000  1
  Au  Au5  1  0.87500000  0.12500000  0.75000000  1
loop_
_geom_bond_atom_site_label_1
_geom_bond_atom_site_label_2
_geom_bond_distance
_geom_bond_site_symmetry_2
La0 Sb7 3.520657 1_655
La0 Sb1 3.520657 1_554
La0 Sb6 3.520657 1_655
La0 Sb0 3.520657 1_555
La0 Sb2 3.542225 1_655
La0 Sb3 3.542225 1_544
La0 Sb4 3.542225 1_555
La0 Sb5 3.542225 1_655
La1 Sb3 3.520657 1_555
La1 Sb2 3.520657 1_655
La1 Sb4 3.520657 1_565
La1 Sb5 3.520657 1_555
La1 Sb0 3.542225 1_555
La1 Sb1 3.542225 1_565
La1 Sb7 3.542225 1_555
La1 Sb6 3.542225 1_665
La2 Sb1 3.520657 1_555
La2 Sb7 3.520657 1_556
La2 Sb5 3.520657 1_556
La2 Sb2 3.520657 1_545
La2 Sb0 3.542225 1_556
La2 Sb3 3.542225 1_445
La2 Sb4 3.542225 1_556
La2 Sb6 3.542225 1_555
La3 Sb3 3.520657 1_555
La3 Sb6 3.520657 1_655
La3 Sb4 3.520657 1_555
La3 Sb0 3.520657 1_556
La3 Sb2 3.542225 1_655
La3 Sb1 3.542225 1_555
La3 Sb5 3.542225 1_656
La3 Sb7 3.542225 1_555
La4 Sb7 3.520657 1_565
La4 Sb0 3.520657 1_455
La4 Sb4 3.520657 1_565
La4 Sb2 3.520657 1_555
La4 Sb1 3.542225 1_565
La4 Sb3 3.542225 1_454
La4 Sb5 3.542225 1_555
La4 Sb6 3.542225 1_565
La5 Sb5 3.520657 1_556
La5 Sb6 3.520657 1_555
La5 Sb3 3.520657 1_555
La5 Sb1 3.520657 1_565
La5 Sb0 3.542225 1_556
La5 Sb2 3.542225 1_555
La5 Sb7 3.542225 1_555
La5 Sb4 3.542225 1_566
Au0 Sb0 2.856375 1_556
Au0 Sb6 2.856375 1_555
Au0 Sb7 2.856375 1_555
Au0 Sb1 2.856375 1_555
Au0 La5 3.124073 1_555
Au0 La4 3.124073 1_545
Au0 La3 3.124073 1_555
Au0 La2 3.124073 1_555
Au1 Sb2 2.856375 1_555
Au1 Sb5 2.856375 1_556
Au1 Sb3 2.856375 1_455
Au1 Sb4 2.856375 1_566
Au1 La5 3.124073 1_555
Au1 La4 3.124073 1_556
Au1 La3 3.124073 1_455
Au1 La2 3.124073 1_565
Au2 Sb2 2.856375 1_555
Au2 Sb5 2.856375 1_555
Au2 Sb7 2.856375 1_555
Au2 Sb1 2.856375 1_565
Au2 La5 3.124073 1_555
Au2 La4 3.124073 1_555
Au2 La1 3.124073 1_555
Au2 La0 3.124073 1_455
Au3 Sb0 2.856375 1_555
Au3 Sb4 2.856375 1_565
Au3 Sb6 2.856375 1_665
Au3 Sb3 2.856375 1_554
Au3 La4 3.124073 1_655
Au3 La5 3.124073 1_554
Au3 La1 3.124073 1_555
Au3 La0 3.124073 1_565
Au4 Sb0 2.856375 1_555
Au4 Sb2 2.856375 1_655
Au4 Sb7 2.856375 1_555
Au4 Sb4 2.856375 1_555
Au4 La3 3.124073 1_555
Au4 La0 3.124073 1_555
Au4 La2 3.124073 1_554
Au4 La1 3.124073 1_555
Au5 Sb3 2.856375 1_545
Au5 Sb6 2.856375 1_655
Au5 Sb1 2.856375 1_555
Au5 Sb5 2.856375 1_656
Au5 La0 3.124073 1_556
Au5 La3 3.124073 1_555
Au5 La2 3.124073 1_655
Au5 La1 3.124073 1_545
