# generated using pymatgen
data_Ba7Nb4MoO20
_symmetry_space_group_name_H-M   'P 1'
_cell_length_a   5.97359386
_cell_length_b   5.97359386
_cell_length_c   16.83119100
_cell_angle_alpha   90.00000000
_cell_angle_beta   90.00000000
_cell_angle_gamma   119.99999850
_symmetry_Int_Tables_number   1
_chemical_formula_structural   Ba7Nb4MoO20
_chemical_formula_sum   'Ba7 Nb4 Mo1 O20'
_cell_volume   520.13594935
_cell_formula_units_Z   1
loop_
 _symmetry_equiv_pos_site_id
 _symmetry_equiv_pos_as_xyz
  1  'x, y, z'
loop_
 _atom_site_type_symbol
 _atom_site_label
 _atom_site_symmetry_multiplicity
 _atom_site_fract_x
 _atom_site_fract_y
 _atom_site_fract_z
 _atom_site_occupancy
  Ba  Ba0  1  0.33333300  0.66666700  0.82330900  1
  Ba  Ba1  1  0.66666700  0.33333300  0.17762900  1
  Ba  Ba2  1  0.00000000  0.00000000  0.99224700  1
  Ba  Ba3  1  0.33333300  0.66666700  0.57390200  1
  Ba  Ba4  1  0.66666700  0.33333300  0.42653900  1
  Ba  Ba5  1  0.00000000  0.00000000  0.28819500  1
  Ba  Ba6  1  0.00000000  0.00000000  0.72111200  1
  Nb  Nb0  1  0.66666700  0.33333300  0.90535200  1
  Nb  Nb1  1  0.33333300  0.66666700  0.34981300  1
  Nb  Nb2  1  0.66666700  0.33333300  0.65083000  1
  Nb  Nb3  1  0.00000000  0.00000000  0.50141300  1
  Mo  Mo0  1  0.33333300  0.66666700  0.09600200  1
  O  O0  1  0.66252900  0.83126500  0.13045400  1
  O  O1  1  0.16873500  0.83126500  0.13045400  1
  O  O2  1  0.16873500  0.33747100  0.13045400  1
  O  O3  1  0.32513800  0.16256900  0.86868600  1
  O  O4  1  0.83743100  0.16256900  0.86868600  1
  O  O5  1  0.83743100  0.67486200  0.86868600  1
  O  O6  1  0.49409800  0.50590200  0.29483600  1
  O  O7  1  0.49409800  0.98819500  0.29483600  1
  O  O8  1  0.01180500  0.50590200  0.29483600  1
  O  O9  1  0.50516500  0.49483500  0.70357800  1
  O  O10  1  0.50516500  0.01032900  0.70357800  1
  O  O11  1  0.98967100  0.49483500  0.70357800  1
  O  O12  1  0.67477200  0.83738600  0.43052500  1
  O  O13  1  0.16261400  0.83738600  0.43052500  1
  O  O14  1  0.16261400  0.32522800  0.43052500  1
  O  O15  1  0.32567400  0.16283700  0.56771700  1
  O  O16  1  0.83716300  0.16283700  0.56771700  1
  O  O17  1  0.83716300  0.67432600  0.56771700  1
  O  O18  1  0.33333300  0.66666700  0.98933600  1
  O  O19  1  0.66666700  0.33333300  0.01694400  1
loop_
_geom_bond_atom_site_label_1
_geom_bond_atom_site_label_2
_geom_bond_distance
_geom_bond_site_symmetry_2
Ba0 O11 2.687356 1_455
Ba0 O10 2.687356 1_565
Ba0 O9 2.687363 1_555
Ba0 O18 2.794432 1_555
Ba0 O5 3.083188 1_455
Ba0 O3 3.083188 1_565
Ba0 O4 3.083191 1_455
Ba0 O4 3.083191 1_565
Ba0 O3 3.083194 1_555
Ba0 O5 3.083194 1_555
Ba1 O6 2.660766 1_555
Ba1 O7 2.660766 1_545
Ba1 O8 2.660766 1_655
Ba1 O19 2.704520 1_555
Ba1 O0 3.090604 1_545
Ba1 O2 3.090604 1_655
Ba1 O1 3.090610 1_545
Ba1 O1 3.090610 1_655
Ba1 O0 3.090615 1_555
Ba1 O2 3.090615 1_555
Ba2 O4 2.674751 1_455
Ba2 O5 2.674751 1_445
Ba2 O3 2.674751 1_555
Ba2 O1 2.908448 1_546
Ba2 O2 2.908451 1_556
Ba2 O0 2.908451 1_446
Ba3 O11 2.815056 1_455
Ba3 O10 2.815056 1_565
Ba3 O9 2.815062 1_555
Ba3 O17 2.988870 1_455
Ba3 O15 2.988870 1_565
Ba3 O16 2.988873 1_455
Ba3 O16 2.988873 1_565
Ba3 O15 2.988876 1_555
Ba3 O17 2.988876 1_555
Ba3 O13 2.990581 1_555
Ba3 O14 2.990584 1_555
Ba3 O12 2.990584 1_555
Ba4 O6 2.846373 1_555
Ba4 O7 2.846373 1_545
Ba4 O8 2.846373 1_655
Ba4 O16 2.959420 1_555
Ba4 O17 2.959423 1_555
Ba4 O15 2.959423 1_555
Ba4 O14 2.987842 1_655
Ba4 O12 2.987842 1_545
Ba4 O13 2.987845 1_545
Ba4 O13 2.987845 1_655
Ba4 O12 2.987848 1_555
Ba4 O14 2.987848 1_555
Ba5 O13 2.927391 1_545
Ba5 O12 2.927391 1_445
Ba5 O14 2.927391 1_555
Ba5 O8 2.989509 1_555
Ba5 O7 2.989509 1_445
Ba5 O6 2.989512 1_555
Ba5 O6 2.989512 1_445
Ba5 O7 2.989515 1_545
Ba5 O8 2.989515 1_545
Ba5 O1 3.177542 1_545
Ba5 O0 3.177545 1_445
Ba5 O2 3.177545 1_555
Ba6 O4 2.999787 1_455
Ba6 O3 2.999787 1_555
Ba6 O5 2.999787 1_445
Ba6 O11 3.001814 1_455
Ba6 O10 3.001814 1_455
Ba6 O9 3.001817 1_555
Ba6 O9 3.001817 1_445
Ba6 O10 3.001820 1_555
Ba6 O11 3.001820 1_445
Ba6 O16 3.082915 1_455
Ba6 O17 3.082915 1_445
Ba6 O15 3.082915 1_555
Nb0 O4 1.871499 1_555
Nb0 O3 1.871504 1_555
Nb0 O5 1.871504 1_555
Nb0 O19 1.878226 1_556
Nb1 O8 1.903414 1_555
Nb1 O7 1.903414 1_555
Nb1 O6 1.903423 1_555
Nb1 O13 2.228335 1_555
Nb1 O12 2.228339 1_555
Nb1 O14 2.228339 1_555
Nb2 O9 1.892200 1_555
Nb2 O11 1.892200 1_555
Nb2 O10 1.892200 1_555
Nb2 O16 2.251391 1_555
Nb2 O17 2.251395 1_555
Nb2 O15 2.251395 1_555
Nb3 O16 2.020882 1_455
Nb3 O17 2.020882 1_445
Nb3 O15 2.020882 1_555
Nb3 O13 2.062608 1_545
Nb3 O12 2.062608 1_445
Nb3 O14 2.062608 1_555
Mo0 O18 1.795316 1_554
Mo0 O1 1.799038 1_555
Mo0 O2 1.799038 1_555
Mo0 O0 1.799038 1_555
