# generated using pymatgen
data_Ba2HoV3O11
_symmetry_space_group_name_H-M   'P 1'
_cell_length_a   7.76557500
_cell_length_b   12.44911941
_cell_length_c   11.34945542
_cell_angle_alpha   103.24224709
_cell_angle_beta   90.00000000
_cell_angle_gamma   90.00000000
_symmetry_Int_Tables_number   1
_chemical_formula_structural   Ba2HoV3O11
_chemical_formula_sum   'Ba8 Ho4 V12 O44'
_cell_volume   1068.02936947
_cell_formula_units_Z   4
loop_
 _symmetry_equiv_pos_site_id
 _symmetry_equiv_pos_as_xyz
  1  'x, y, z'
loop_
 _atom_site_type_symbol
 _atom_site_label
 _atom_site_symmetry_multiplicity
 _atom_site_fract_x
 _atom_site_fract_y
 _atom_site_fract_z
 _atom_site_occupancy
  Ba  Ba0  1  0.27469900  0.77198500  0.94286900  1
  Ba  Ba1  1  0.72530100  0.22801500  0.05713100  1
  Ba  Ba2  1  0.77469900  0.22801500  0.55713100  1
  Ba  Ba3  1  0.22530100  0.77198500  0.44286900  1
  Ba  Ba4  1  0.74764200  0.55446900  0.88945100  1
  Ba  Ba5  1  0.25235800  0.44553100  0.11054900  1
  Ba  Ba6  1  0.24764200  0.44553100  0.61054900  1
  Ba  Ba7  1  0.75235800  0.55446900  0.38945100  1
  Ho  Ho0  1  0.49983600  0.99761500  0.71940900  1
  Ho  Ho1  1  0.50016400  0.00238500  0.28059100  1
  Ho  Ho2  1  0.99983600  0.00238500  0.78059100  1
  Ho  Ho3  1  0.00016400  0.99761500  0.21940900  1
  V  V0  1  0.75547300  0.90731800  0.97672400  1
  V  V1  1  0.24452700  0.09268200  0.02327600  1
  V  V2  1  0.25547300  0.09268200  0.52327600  1
  V  V3  1  0.74452700  0.90731800  0.47672400  1
  V  V4  1  0.51899700  0.68551500  0.67344900  1
  V  V5  1  0.48100300  0.31448500  0.32655100  1
  V  V6  1  0.01899700  0.31448500  0.82655100  1
  V  V7  1  0.98100300  0.68551500  0.17344900  1
  V  V8  1  0.98151600  0.68925100  0.67203900  1
  V  V9  1  0.01848400  0.31074900  0.32796100  1
  V  V10  1  0.48151600  0.31074900  0.82796100  1
  V  V11  1  0.51848400  0.68925100  0.17203900  1
  O  O0  1  0.44602200  0.82085600  0.71729500  1
  O  O1  1  0.55397800  0.17914400  0.28270500  1
  O  O2  1  0.94602200  0.17914400  0.78270500  1
  O  O3  1  0.05397800  0.82085600  0.21729500  1
  O  O4  1  0.54922800  0.17451800  0.80444200  1
  O  O5  1  0.45077200  0.82548200  0.19555800  1
  O  O6  1  0.04922800  0.82548200  0.69555800  1
  O  O7  1  0.95077200  0.17451800  0.30444200  1
  O  O8  1  0.75047000  0.66559900  0.66725200  1
  O  O9  1  0.24953000  0.33440100  0.33274800  1
  O  O10  1  0.25047000  0.33440100  0.83274800  1
  O  O11  1  0.74953000  0.66559900  0.16725200  1
  O  O12  1  0.94438100  0.37467000  0.96660300  1
  O  O13  1  0.05561900  0.62533000  0.03339700  1
  O  O14  1  0.44438100  0.62533000  0.53339700  1
  O  O15  1  0.55561900  0.37467000  0.46660300  1
  O  O16  1  0.93964100  0.39002300  0.73064100  1
  O  O17  1  0.06035900  0.60997700  0.26935900  1
  O  O18  1  0.43964100  0.60997700  0.76935900  1
  O  O19  1  0.56035900  0.39002300  0.23064100  1
  O  O20  1  0.78369200  0.98753500  0.62632600  1
  O  O21  1  0.21630800  0.01246500  0.37367400  1
  O  O22  1  0.28369200  0.01246500  0.87367400  1
  O  O23  1  0.71630800  0.98753500  0.12632600  1
  O  O24  1  0.97381100  0.88407500  0.97470400  1
  O  O25  1  0.02618900  0.11592500  0.02529600  1
  O  O26  1  0.47381100  0.11592500  0.52529600  1
  O  O27  1  0.52618900  0.88407500  0.47470400  1
  O  O28  1  0.64232000  0.78704000  0.94656800  1
  O  O29  1  0.35768000  0.21296000  0.05343200  1
  O  O30  1  0.14232000  0.21296000  0.55343200  1
  O  O31  1  0.85768000  0.78704000  0.44656800  1
  O  O32  1  0.72034400  0.98384400  0.86311100  1
  O  O33  1  0.27965600  0.01615600  0.13688900  1
  O  O34  1  0.22034400  0.01615600  0.63688900  1
  O  O35  1  0.77965600  0.98384400  0.36311100  1
  O  O36  1  0.55880700  0.36949600  0.71794000  1
  O  O37  1  0.44119300  0.63050400  0.28206000  1
  O  O38  1  0.05880700  0.63050400  0.78206000  1
  O  O39  1  0.94119300  0.36949600  0.21794000  1
  O  O40  1  0.56369500  0.38547700  0.96113300  1
  O  O41  1  0.43630500  0.61452300  0.03886700  1
  O  O42  1  0.06369500  0.61452300  0.53886700  1
  O  O43  1  0.93630500  0.38547700  0.46113300  1
loop_
_geom_bond_atom_site_label_1
_geom_bond_atom_site_label_2
_geom_bond_distance
_geom_bond_site_symmetry_2
Ba0 O24 2.703020 1_455
Ba0 O41 2.753743 1_556
Ba0 O18 2.786877 1_555
Ba0 O38 2.787691 1_555
Ba0 O13 2.853535 1_556
Ba0 O28 2.860612 1_555
Ba0 O0 3.067261 1_555
Ba0 O5 3.108503 1_556
Ba0 O22 3.265173 1_565
Ba0 O33 3.320194 1_566
Ba1 O25 2.703020 1_655
Ba1 O40 2.753743 1_554
Ba1 O19 2.786877 1_555
Ba1 O39 2.787691 1_555
Ba1 O12 2.853535 1_554
Ba1 O29 2.860612 1_555
Ba1 O1 3.067261 1_555
Ba1 O4 3.108503 1_554
Ba1 O23 3.265173 1_545
Ba1 O32 3.320194 1_544
Ba2 O26 2.703020 1_555
Ba2 O43 2.753743 1_555
Ba2 O16 2.786877 1_555
Ba2 O36 2.787691 1_555
Ba2 O15 2.853535 1_555
Ba2 O30 2.860612 1_655
Ba2 O2 3.067261 1_555
Ba2 O7 3.108503 1_555
Ba2 O20 3.265173 1_545
Ba2 O35 3.320194 1_545
Ba3 O27 2.703020 1_555
Ba3 O42 2.753743 1_555
Ba3 O17 2.786877 1_555
Ba3 O37 2.787691 1_555
Ba3 O14 2.853535 1_555
Ba3 O31 2.860612 1_455
Ba3 O3 3.067261 1_555
Ba3 O6 3.108503 1_555
Ba3 O21 3.265173 1_565
Ba3 O34 3.320194 1_565
Ba4 O40 2.812909 1_555
Ba4 O16 2.823522 1_555
Ba4 O18 2.913324 1_555
Ba4 O13 2.916639 1_656
Ba4 O28 2.934635 1_555
Ba4 O41 2.949430 1_556
Ba4 O38 2.957864 1_655
Ba4 O12 3.001496 1_555
Ba4 O36 3.031260 1_555
Ba4 O11 3.139516 1_556
Ba4 O8 3.142058 1_555
Ba5 O41 2.812909 1_555
Ba5 O17 2.823522 1_555
Ba5 O19 2.913324 1_555
Ba5 O12 2.916639 1_454
Ba5 O29 2.934635 1_555
Ba5 O40 2.949430 1_554
Ba5 O39 2.957864 1_455
Ba5 O13 3.001496 1_555
Ba5 O37 3.031260 1_555
Ba5 O10 3.139516 1_554
Ba5 O9 3.142058 1_555
Ba6 O42 2.812909 1_555
Ba6 O18 2.823522 1_555
Ba6 O16 2.913324 1_455
Ba6 O15 2.916639 1_555
Ba6 O30 2.934635 1_555
Ba6 O43 2.949430 1_455
Ba6 O36 2.957864 1_555
Ba6 O14 3.001496 1_555
Ba6 O38 3.031260 1_555
Ba6 O9 3.139516 1_555
Ba6 O10 3.142058 1_555
Ba7 O43 2.812909 1_555
Ba7 O19 2.823522 1_555
Ba7 O17 2.913324 1_655
Ba7 O14 2.916639 1_555
Ba7 O31 2.934635 1_555
Ba7 O42 2.949430 1_655
Ba7 O37 2.957864 1_555
Ba7 O15 3.001496 1_555
Ba7 O39 3.031260 1_555
Ba7 O8 3.139516 1_555
Ba7 O11 3.142058 1_555
Ho0 O4 2.225948 1_565
Ho0 O0 2.234547 1_555
Ho0 O34 2.395863 1_565
Ho0 O32 2.397846 1_555
Ho0 O22 2.401786 1_565
Ho0 O20 2.435168 1_555
Ho0 O27 2.820380 1_555
Ho0 O26 2.924084 1_565
Ho1 O5 2.225948 1_545
Ho1 O1 2.234547 1_555
Ho1 O35 2.395863 1_545
Ho1 O33 2.397846 1_555
Ho1 O23 2.401786 1_545
Ho1 O21 2.435168 1_555
Ho1 O26 2.820380 1_555
Ho1 O27 2.924084 1_545
Ho2 O6 2.225948 1_645
Ho2 O2 2.234547 1_555
Ho2 O32 2.395863 1_545
Ho2 O34 2.397846 1_655
Ho2 O20 2.401786 1_545
Ho2 O22 2.435168 1_655
Ho2 O25 2.820380 1_656
Ho2 O24 2.924084 1_545
Ho3 O7 2.225948 1_465
Ho3 O3 2.234547 1_555
Ho3 O33 2.395863 1_565
Ho3 O35 2.397846 1_455
Ho3 O21 2.401786 1_565
Ho3 O23 2.435168 1_455
Ho3 O24 2.820380 1_454
Ho3 O25 2.924084 1_565
O0 V4 1.738810 1_555
O1 V5 1.738810 1_555
O2 V6 1.738810 1_655
O3 V7 1.738810 1_455
O4 V10 1.736839 1_555
O5 V11 1.736839 1_555
O6 V8 1.736839 1_455
O7 V9 1.736839 1_655
O8 V4 1.813701 1_555
O8 V8 1.817001 1_555
O9 V5 1.813701 1_555
O9 V9 1.817001 1_555
O10 V6 1.813701 1_555
O10 V10 1.817001 1_555
O11 V7 1.813701 1_555
O11 V11 1.817001 1_555
O12 V6 1.696485 1_655
O13 V7 1.696485 1_455
O14 V4 1.696485 1_555
O15 V5 1.696485 1_555
O16 V6 1.708194 1_655
O17 V7 1.708194 1_455
O18 V4 1.708194 1_555
O19 V5 1.708194 1_555
O20 V3 1.787687 1_555
O21 V2 1.787687 1_555
O22 V1 1.787687 1_556
O23 V0 1.787687 1_554
O24 V0 1.719303 1_555
O25 V1 1.719303 1_555
O26 V2 1.719303 1_555
O27 V3 1.719303 1_555
O28 V0 1.701921 1_555
O29 V1 1.701921 1_555
O30 V2 1.701921 1_555
O31 V3 1.701921 1_555
O32 V0 1.790944 1_555
O33 V1 1.790944 1_555
O34 V2 1.790944 1_555
O35 V3 1.790944 1_555
O36 V10 1.694904 1_555
O37 V11 1.694904 1_555
O38 V8 1.694904 1_455
O39 V9 1.694904 1_655
O40 V10 1.706738 1_555
O41 V11 1.706738 1_555
O42 V8 1.706738 1_455
O43 V9 1.706738 1_655
