# generated using pymatgen
data_Ca(SnO2)2
_symmetry_space_group_name_H-M   'P 1'
_cell_length_a   5.71107584
_cell_length_b   5.71107584
_cell_length_c   11.07396800
_cell_angle_alpha   90.00000000
_cell_angle_beta   90.00000000
_cell_angle_gamma   146.18958330
_symmetry_Int_Tables_number   1
_chemical_formula_structural   Ca(SnO2)2
_chemical_formula_sum   'Ca2 Sn4 O8'
_cell_volume   200.98455171
_cell_formula_units_Z   2
loop_
 _symmetry_equiv_pos_site_id
 _symmetry_equiv_pos_as_xyz
  1  'x, y, z'
loop_
 _atom_site_type_symbol
 _atom_site_label
 _atom_site_symmetry_multiplicity
 _atom_site_fract_x
 _atom_site_fract_y
 _atom_site_fract_z
 _atom_site_occupancy
  Ca  Ca0  1  0.60983000  0.39017000  0.75000000  1
  Ca  Ca1  1  0.39017000  0.60983000  0.25000000  1
  Sn  Sn0  1  0.13146400  0.86853600  0.07300100  1
  Sn  Sn1  1  0.86853600  0.13146400  0.92699900  1
  Sn  Sn2  1  0.13146400  0.86853600  0.42699900  1
  Sn  Sn3  1  0.86853600  0.13146400  0.57300100  1
  O  O0  1  0.77332200  0.22667800  0.38881200  1
  O  O1  1  0.22667800  0.77332200  0.61118800  1
  O  O2  1  0.22667800  0.77332200  0.88881200  1
  O  O3  1  0.77332200  0.22667800  0.11118800  1
  O  O4  1  0.04394400  0.95605600  0.25000000  1
  O  O5  1  0.95605600  0.04394400  0.75000000  1
  O  O6  1  0.50000000  0.50000000  0.00000000  1
  O  O7  1  0.50000000  0.50000000  0.50000000  1
loop_
_geom_bond_atom_site_label_1
_geom_bond_atom_site_label_2
_geom_bond_distance
_geom_bond_site_symmetry_2
Ca0 O5 2.362661 1_565
Ca0 O5 2.362661 1_455
Ca0 O2 2.598394 1_655
Ca0 O2 2.598394 1_545
Ca0 O1 2.598394 1_655
Ca0 O1 2.598394 1_545
Ca0 O6 3.017488 1_556
Ca0 O7 3.017488 1_555
Ca1 O4 2.362661 1_655
Ca1 O4 2.362661 1_545
Ca1 O3 2.598394 1_565
Ca1 O0 2.598394 1_565
Ca1 O3 2.598394 1_455
Ca1 O0 2.598394 1_455
Ca1 O6 3.017488 1_555
Ca1 O7 3.017488 1_555
O0 Sn3 2.289790 1_555
O0 Sn2 2.310901 1_545
O0 Sn2 2.310901 1_655
O1 Sn2 2.289790 1_555
O1 Sn3 2.310901 1_455
O1 Sn3 2.310901 1_565
O2 Sn0 2.289790 1_556
O2 Sn1 2.310901 1_455
O2 Sn1 2.310901 1_565
O3 Sn1 2.289790 1_554
O3 Sn0 2.310901 1_545
O3 Sn0 2.310901 1_655
O4 Sn2 2.180998 1_555
O4 Sn0 2.180998 1_555
O5 Sn1 2.180998 1_555
O5 Sn3 2.180998 1_555
O6 Sn0 2.340013 1_545
O6 Sn0 2.340013 1_655
O6 Sn1 2.340013 1_454
O6 Sn1 2.340013 1_564
O7 Sn3 2.340013 1_565
O7 Sn3 2.340013 1_455
O7 Sn2 2.340013 1_545
O7 Sn2 2.340013 1_655
