# generated using pymatgen
data_Ca3GeH12S2O17
_symmetry_space_group_name_H-M   'P 1'
_cell_length_a   8.66260015
_cell_length_b   8.66255887
_cell_length_c   10.96081600
_cell_angle_alpha   90.00000000
_cell_angle_beta   90.00000000
_cell_angle_gamma   119.99910267
_symmetry_Int_Tables_number   1
_chemical_formula_structural   Ca3GeH12S2O17
_chemical_formula_sum   'Ca6 Ge2 H24 S4 O34'
_cell_volume   712.31471055
_cell_formula_units_Z   2
loop_
 _symmetry_equiv_pos_site_id
 _symmetry_equiv_pos_as_xyz
  1  'x, y, z'
loop_
 _atom_site_type_symbol
 _atom_site_label
 _atom_site_symmetry_multiplicity
 _atom_site_fract_x
 _atom_site_fract_y
 _atom_site_fract_z
 _atom_site_occupancy
  Ca  Ca0  1  0.69641000  0.84820900  0.75000000  1
  Ca  Ca1  1  0.15178900  0.30358800  0.75000000  1
  Ca  Ca2  1  0.15178000  0.84821100  0.75000000  1
  Ca  Ca3  1  0.30359000  0.15179100  0.25000000  1
  Ca  Ca4  1  0.84821100  0.69641200  0.25000000  1
  Ca  Ca5  1  0.84822000  0.15178900  0.25000000  1
  Ge  Ge0  1  0.00000000  0.00000000  0.50000000  1
  Ge  Ge1  1  0.00000000  0.00000000  0.00000000  1
  H  H0  1  0.84590400  0.69181500  0.55944400  1
  H  H1  1  0.84590600  0.15410700  0.55945200  1
  H  H2  1  0.30818700  0.15409200  0.55945400  1
  H  H3  1  0.15409600  0.30818500  0.44055600  1
  H  H4  1  0.15409400  0.84589300  0.44054800  1
  H  H5  1  0.69181300  0.84590800  0.44054600  1
  H  H6  1  0.15409600  0.30818500  0.05944400  1
  H  H7  1  0.15409400  0.84589300  0.05945200  1
  H  H8  1  0.69181300  0.84590800  0.05945400  1
  H  H9  1  0.84590400  0.69181500  0.94055600  1
  H  H10  1  0.84590600  0.15410700  0.94054800  1
  H  H11  1  0.30818700  0.15409200  0.94054600  1
  H  H12  1  0.44885700  0.55113700  0.18098700  1
  H  H13  1  0.10227500  0.55114200  0.18098500  1
  H  H14  1  0.44885000  0.89772000  0.18098500  1
  H  H15  1  0.55114300  0.44886300  0.81901300  1
  H  H16  1  0.89772500  0.44885800  0.81901500  1
  H  H17  1  0.55115000  0.10228000  0.81901500  1
  H  H18  1  0.55114300  0.44886300  0.68098700  1
  H  H19  1  0.89772500  0.44885800  0.68098500  1
  H  H20  1  0.55115000  0.10228000  0.68098500  1
  H  H21  1  0.44885700  0.55113700  0.31901300  1
  H  H22  1  0.10227500  0.55114200  0.31901500  1
  H  H23  1  0.44885000  0.89772000  0.31901500  1
  S  S0  1  0.66667500  0.33332800  0.02685800  1
  S  S1  1  0.33332500  0.66667200  0.97314200  1
  S  S2  1  0.33332500  0.66667200  0.52685800  1
  S  S3  1  0.66667500  0.33332800  0.47314200  1
  O  O0  1  0.66667000  0.33334600  0.60946000  1
  O  O1  1  0.33333000  0.66665400  0.39054000  1
  O  O2  1  0.33333000  0.66665400  0.10946000  1
  O  O3  1  0.66667000  0.33334600  0.89054000  1
  O  O4  1  0.52132100  0.76064900  0.56965300  1
  O  O5  1  0.23934600  0.47867100  0.56966200  1
  O  O6  1  0.23935100  0.76064600  0.56965700  1
  O  O7  1  0.47867900  0.23935100  0.43034700  1
  O  O8  1  0.76065400  0.52132900  0.43033800  1
  O  O9  1  0.76064900  0.23935400  0.43034300  1
  O  O10  1  0.47867900  0.23935100  0.06965300  1
  O  O11  1  0.76065400  0.52132900  0.06966200  1
  O  O12  1  0.76064900  0.23935400  0.06965700  1
  O  O13  1  0.52132100  0.76064900  0.93034700  1
  O  O14  1  0.23934600  0.47867100  0.93033800  1
  O  O15  1  0.23935100  0.76064600  0.93034300  1
  O  O16  1  0.89988700  0.79979200  0.61030500  1
  O  O17  1  0.89990400  0.10009800  0.61031100  1
  O  O18  1  0.20019800  0.10010000  0.61030700  1
  O  O19  1  0.10011300  0.20020800  0.38969500  1
  O  O20  1  0.10009600  0.89990200  0.38968900  1
  O  O21  1  0.79980200  0.89990000  0.38969300  1
  O  O22  1  0.10011300  0.20020800  0.11030500  1
  O  O23  1  0.10009600  0.89990200  0.11031100  1
  O  O24  1  0.79980200  0.89990000  0.11030700  1
  O  O25  1  0.89988700  0.79979200  0.88969500  1
  O  O26  1  0.89990400  0.10009800  0.88968900  1
  O  O27  1  0.20019800  0.10010000  0.88969300  1
  O  O28  1  0.49084600  0.50914700  0.25000000  1
  O  O29  1  0.01829700  0.50915600  0.25000000  1
  O  O30  1  0.49083300  0.98170100  0.25000000  1
  O  O31  1  0.50915400  0.49085300  0.75000000  1
  O  O32  1  0.98170300  0.49084400  0.75000000  1
  O  O33  1  0.50916700  0.01829900  0.75000000  1
loop_
_geom_bond_atom_site_label_1
_geom_bond_atom_site_label_2
_geom_bond_distance
_geom_bond_site_symmetry_2
Ca0 O13 2.373377 1_555
Ca0 O4 2.373377 1_555
Ca0 O26 2.523200 1_565
Ca0 O17 2.523200 1_565
Ca0 O25 2.523203 1_555
Ca0 O16 2.523203 1_555
Ca0 O33 2.681735 1_565
Ca0 O31 2.681939 1_555
Ca1 O5 2.373266 1_555
Ca1 O14 2.373266 1_555
Ca1 O26 2.523176 1_455
Ca1 O17 2.523176 1_455
Ca1 O27 2.523223 1_555
Ca1 O18 2.523223 1_555
Ca1 O32 2.681803 1_455
Ca1 O31 2.682019 1_555
Ca2 O6 2.373524 1_555
Ca2 O15 2.373524 1_555
Ca2 O27 2.523155 1_565
Ca2 O18 2.523155 1_565
Ca2 O25 2.523202 1_455
Ca2 O16 2.523202 1_455
Ca2 O32 2.682025 1_455
Ca2 O33 2.682188 1_565
Ca3 O10 2.373377 1_555
Ca3 O7 2.373377 1_555
Ca3 O20 2.523200 1_545
Ca3 O23 2.523200 1_545
Ca3 O22 2.523203 1_555
Ca3 O19 2.523203 1_555
Ca3 O30 2.681735 1_545
Ca3 O28 2.681939 1_555
Ca4 O11 2.373266 1_555
Ca4 O8 2.373266 1_555
Ca4 O23 2.523176 1_655
Ca4 O20 2.523176 1_655
Ca4 O21 2.523223 1_555
Ca4 O24 2.523223 1_555
Ca4 O29 2.681803 1_655
Ca4 O28 2.682019 1_555
Ca5 O9 2.373524 1_555
Ca5 O12 2.373524 1_555
Ca5 O24 2.523155 1_545
Ca5 O21 2.523155 1_545
Ca5 O19 2.523202 1_655
Ca5 O22 2.523202 1_655
Ca5 O29 2.682025 1_655
Ca5 O30 2.682188 1_545
Ge0 O20 1.928076 1_545
Ge0 O17 1.928076 1_455
Ge0 O21 1.928091 1_445
Ge0 O18 1.928091 1_555
Ge0 O19 1.928130 1_555
Ge0 O16 1.928130 1_445
Ge1 O26 1.928076 1_454
Ge1 O23 1.928076 1_545
Ge1 O24 1.928091 1_445
Ge1 O27 1.928091 1_554
Ge1 O22 1.928130 1_555
Ge1 O25 1.928130 1_444
H0 O16 0.983343 1_555
H1 O17 0.983508 1_555
H2 O18 0.983371 1_555
H3 O19 0.983343 1_555
H4 O20 0.983508 1_555
H5 O21 0.983371 1_555
H6 O22 0.983343 1_555
H7 O23 0.983508 1_555
H8 O24 0.983371 1_555
H9 O25 0.983343 1_555
H10 O26 0.983508 1_555
H11 O27 0.983371 1_555
H12 O28 0.984434 1_555
H13 O29 0.984453 1_555
H14 O30 0.984465 1_555
H15 O31 0.984434 1_555
H16 O32 0.984453 1_555
H17 O33 0.984465 1_555
H18 O31 0.984434 1_555
H19 O32 0.984453 1_555
H20 O33 0.984465 1_555
H21 O28 0.984434 1_555
H22 O29 0.984453 1_555
H23 O30 0.984465 1_555
O0 S3 1.494157 1_555
O1 S2 1.494157 1_555
O2 S1 1.494157 1_554
O3 S0 1.494157 1_556
O4 S2 1.486322 1_555
O5 S2 1.486383 1_555
O6 S2 1.485973 1_555
O7 S3 1.486322 1_555
O8 S3 1.486383 1_555
O9 S3 1.485973 1_555
O10 S0 1.486322 1_555
O11 S0 1.486383 1_555
O12 S0 1.485973 1_555
O13 S1 1.486322 1_555
O14 S1 1.486383 1_555
O15 S1 1.485973 1_555
