# generated using pymatgen
data_LiBi2As2(PbO5)2
_symmetry_space_group_name_H-M   'P 1'
_cell_length_a   5.86054147
_cell_length_b   7.49489785
_cell_length_c   7.53904418
_cell_angle_alpha   111.06518940
_cell_angle_beta   114.10050962
_cell_angle_gamma   85.15593505
_symmetry_Int_Tables_number   1
_chemical_formula_structural   LiBi2As2(PbO5)2
_chemical_formula_sum   'Li1 Bi2 As2 Pb2 O10'
_cell_volume   281.32354453
_cell_formula_units_Z   1
loop_
 _symmetry_equiv_pos_site_id
 _symmetry_equiv_pos_as_xyz
  1  'x, y, z'
loop_
 _atom_site_type_symbol
 _atom_site_label
 _atom_site_symmetry_multiplicity
 _atom_site_fract_x
 _atom_site_fract_y
 _atom_site_fract_z
 _atom_site_occupancy
  Li  Li0  1  0.57901500  0.81381900  0.06646300  1
  Bi  Bi0  1  0.96669000  0.21812900  0.03465200  1
  Bi  Bi1  1  0.02938300  0.72757100  0.93086300  1
  As  As0  1  0.68359300  0.63721600  0.34026600  1
  As  As1  1  0.31520200  0.36803500  0.66193600  1
  Pb  Pb0  1  0.36292500  0.89891000  0.67046900  1
  Pb  Pb1  1  0.66392700  0.16950400  0.40461100  1
  O  O0  1  0.24726000  0.29878700  0.39021900  1
  O  O1  1  0.40711100  0.74008500  0.23557600  1
  O  O2  1  0.73643600  0.71181000  0.60187700  1
  O  O3  1  0.67366700  0.38984200  0.23850200  1
  O  O4  1  0.05985400  0.30065500  0.69859500  1
  O  O5  1  0.89043900  0.73994800  0.29054600  1
  O  O6  1  0.21920300  0.98078900  0.96603400  1
  O  O7  1  0.76349300  0.96989400  0.00020100  1
  O  O8  1  0.34526200  0.62792300  0.78996800  1
  O  O9  1  0.59225400  0.23115800  0.74403700  1
loop_
_geom_bond_atom_site_label_1
_geom_bond_atom_site_label_2
_geom_bond_distance
_geom_bond_site_symmetry_2
Li0 O7 1.965072 1_555
Li0 O8 2.016315 1_554
Li0 O5 2.115468 1_555
Li0 O1 2.143677 1_555
Li0 O6 2.348929 1_554
Li0 Pb1 2.855846 1_565
Bi0 O7 2.172840 1_545
Bi0 O6 2.267375 1_644
Bi0 O0 2.378698 1_655
Bi0 O9 2.411717 1_554
Bi0 O3 2.706929 1_555
Bi1 O6 2.159532 1_555
Bi1 O2 2.336482 1_455
Bi1 O7 2.346220 1_456
Bi1 O1 2.431792 1_556
Bi1 O8 2.432125 1_555
As0 O5 1.714368 1_555
As0 O3 1.728786 1_555
As0 O1 1.739217 1_555
As0 O2 1.742465 1_555
As1 O4 1.771043 1_555
As1 O0 1.796860 1_555
As1 O8 1.823270 1_555
As1 O9 1.851014 1_555
O0 Pb1 2.524500 1_555
O2 Pb0 2.628727 1_555
O3 Pb1 2.420667 1_555
O4 Pb1 2.425206 1_455
O6 Pb0 2.552207 1_555
O7 Pb0 2.543204 1_554
O8 Pb0 2.524758 1_555
O9 Pb1 2.633095 1_555
O9 Pb0 2.697865 1_545
