# generated using pymatgen
data_Sr3Ca
_symmetry_space_group_name_H-M   'P 1'
_cell_length_a   8.43814759
_cell_length_b   8.43814814
_cell_length_c   6.89077743
_cell_angle_alpha   90.00000000
_cell_angle_beta   90.00000000
_cell_angle_gamma   120.00002521
_symmetry_Int_Tables_number   1
_chemical_formula_structural   Sr3Ca
_chemical_formula_sum   'Sr6 Ca2'
_cell_volume   424.90614000
_cell_formula_units_Z   2
loop_
 _symmetry_equiv_pos_site_id
 _symmetry_equiv_pos_as_xyz
  1  'x, y, z'
loop_
 _atom_site_type_symbol
 _atom_site_label
 _atom_site_symmetry_multiplicity
 _atom_site_fract_x
 _atom_site_fract_y
 _atom_site_fract_z
 _atom_site_occupancy
  Sr  Sr0  1  0.16854514  0.33708928  0.25000000  1
  Sr  Sr1  1  0.66291072  0.83145486  0.25000000  1
  Sr  Sr2  1  0.16854414  0.83145586  0.25000000  1
  Sr  Sr3  1  0.83145486  0.66291072  0.75000000  1
  Sr  Sr4  1  0.33708928  0.16854514  0.75000000  1
  Sr  Sr5  1  0.83145586  0.16854414  0.75000000  1
  Ca  Ca0  1  0.33333300  0.66666700  0.75000000  1
  Ca  Ca1  1  0.66666700  0.33333300  0.25000000  1
loop_
_geom_bond_atom_site_label_1
_geom_bond_atom_site_label_2
_geom_bond_distance
_geom_bond_site_symmetry_2
Sr0 Sr1 4.171528 1_555
Sr0 Sr2 4.171543 1_555
Sr0 Sr4 4.235406 1_554
Sr0 Sr4 4.235406 1_555
Sr0 Sr5 4.235410 1_455
Sr0 Sr5 4.235410 1_454
Sr0 Sr2 4.266605 1_545
Sr0 Sr1 4.266616 1_445
Sr1 Sr2 4.171542 1_555
Sr1 Sr3 4.235406 1_554
Sr1 Sr3 4.235406 1_555
Sr1 Sr5 4.235410 1_564
Sr1 Sr5 4.235410 1_565
Sr1 Sr2 4.266605 1_655
Sr2 Sr3 4.235410 1_455
Sr2 Sr3 4.235410 1_454
Sr2 Sr4 4.235410 1_564
Sr2 Sr4 4.235410 1_565
Sr3 Sr4 4.171528 1_555
Sr3 Sr5 4.171543 1_555
Sr3 Sr5 4.266605 1_565
Sr3 Sr4 4.266616 1_665
Sr4 Sr5 4.171542 1_555
Sr4 Sr5 4.266605 1_455
Ca0 Sr1 4.203722 1_555
Ca0 Sr1 4.203722 1_556
Ca0 Sr0 4.203722 1_555
Ca0 Sr0 4.203722 1_556
Ca0 Sr2 4.203722 1_555
Ca0 Sr2 4.203722 1_556
Ca0 Sr5 4.219162 1_455
Ca0 Sr5 4.219162 1_565
Ca0 Sr3 4.219163 1_455
Ca0 Sr3 4.219163 1_555
Ca0 Sr4 4.219163 1_565
Ca0 Sr4 4.219163 1_555
Ca1 Sr4 4.203722 1_555
Ca1 Sr4 4.203722 1_554
Ca1 Sr3 4.203722 1_554
Ca1 Sr3 4.203722 1_555
Ca1 Sr5 4.203722 1_555
Ca1 Sr5 4.203722 1_554
Ca1 Sr2 4.219162 1_655
Ca1 Sr2 4.219162 1_545
Ca1 Sr0 4.219163 1_655
Ca1 Sr0 4.219163 1_555
Ca1 Sr1 4.219163 1_545
Ca1 Sr1 4.219163 1_555
