# generated using pymatgen
data_NaLi2AlF6
_symmetry_space_group_name_H-M   'P 1'
_cell_length_a   5.60250319
_cell_length_b   5.60250319
_cell_length_c   5.60250319
_cell_angle_alpha   60.00000000
_cell_angle_beta   60.00000000
_cell_angle_gamma   60.00000000
_symmetry_Int_Tables_number   1
_chemical_formula_structural   NaLi2AlF6
_chemical_formula_sum   'Na1 Li2 Al1 F6'
_cell_volume   124.34586292
_cell_formula_units_Z   1
loop_
 _symmetry_equiv_pos_site_id
 _symmetry_equiv_pos_as_xyz
  1  'x, y, z'
loop_
 _atom_site_type_symbol
 _atom_site_label
 _atom_site_symmetry_multiplicity
 _atom_site_fract_x
 _atom_site_fract_y
 _atom_site_fract_z
 _atom_site_occupancy
  Na  Na0  1  0.50000000  0.50000000  0.50000000  1
  Li  Li0  1  0.75000000  0.75000000  0.75000000  1
  Li  Li1  1  0.25000000  0.25000000  0.25000000  1
  Al  Al0  1  0.00000000  0.00000000  0.00000000  1
  F  F0  1  0.77142800  0.22857200  0.22857200  1
  F  F1  1  0.22857200  0.22857200  0.77142800  1
  F  F2  1  0.22857200  0.77142800  0.77142800  1
  F  F3  1  0.22857200  0.77142800  0.22857200  1
  F  F4  1  0.77142800  0.22857200  0.77142800  1
  F  F5  1  0.77142800  0.77142800  0.22857200  1
loop_
_geom_bond_atom_site_label_1
_geom_bond_atom_site_label_2
_geom_bond_distance
_geom_bond_site_symmetry_2
Al0 F4 1.811007 1_454
Al0 F1 1.811007 1_554
Al0 F3 1.811007 1_545
Al0 F2 1.811007 1_544
Al0 F0 1.811007 1_455
Al0 F5 1.811007 1_445
F0 Na0 2.150561 1_555
F1 Na0 2.150561 1_555
F2 Na0 2.150561 1_555
F3 Na0 2.150561 1_555
F4 Na0 2.150561 1_555
F5 Na0 2.150561 1_555
