# generated using pymatgen
data_Ce2Si5Ni3
_symmetry_space_group_name_H-M   'P 1'
_cell_length_a   7.95696805
_cell_length_b   7.95696805
_cell_length_c   7.95696805
_cell_angle_alpha   137.71617026
_cell_angle_beta   106.11422761
_cell_angle_gamma   89.00447986
_symmetry_Int_Tables_number   1
_chemical_formula_structural   Ce2Si5Ni3
_chemical_formula_sum   'Ce4 Si10 Ni6'
_cell_volume   311.55681168
_cell_formula_units_Z   2
loop_
 _symmetry_equiv_pos_site_id
 _symmetry_equiv_pos_as_xyz
  1  'x, y, z'
loop_
 _atom_site_type_symbol
 _atom_site_label
 _atom_site_symmetry_multiplicity
 _atom_site_fract_x
 _atom_site_fract_y
 _atom_site_fract_z
 _atom_site_occupancy
  Ce  Ce0  1  0.89209400  0.62992200  0.26217200  1
  Ce  Ce1  1  0.10790600  0.37007800  0.73782800  1
  Ce  Ce2  1  0.63225000  0.87007800  0.76217200  1
  Ce  Ce3  1  0.36775000  0.12992200  0.23782800  1
  Si  Si0  1  0.24309800  0.89089200  0.35220600  1
  Si  Si1  1  0.75690300  0.10910800  0.64779400  1
  Si  Si2  1  0.46131400  0.60910800  0.85220600  1
  Si  Si3  1  0.53868600  0.39089200  0.14779400  1
  Si  Si4  1  0.73561700  0.98561700  0.25000000  1
  Si  Si5  1  0.26438300  0.51438300  0.25000000  1
  Si  Si6  1  0.26438300  0.01438300  0.75000000  1
  Si  Si7  1  0.73561700  0.48561700  0.75000000  1
  Si  Si8  1  0.00000000  0.75000000  0.75000000  1
  Si  Si9  1  0.00000000  0.25000000  0.25000000  1
  Ni  Ni0  1  0.97812900  0.86662900  0.11150000  1
  Ni  Ni1  1  0.02187100  0.13337100  0.88850000  1
  Ni  Ni2  1  0.24487100  0.63337100  0.61150000  1
  Ni  Ni3  1  0.75512900  0.36662900  0.38850000  1
  Ni  Ni4  1  0.50000000  0.75000000  0.25000000  1
  Ni  Ni5  1  0.50000000  0.25000000  0.75000000  1
loop_
_geom_bond_atom_site_label_1
_geom_bond_atom_site_label_2
_geom_bond_distance
_geom_bond_site_symmetry_2
Ce0 Si3 2.925294 1_555
Ce0 Ni0 3.048769 1_555
Ce0 Si9 3.067250 1_655
Ce0 Si8 3.067250 1_655
Ce0 Si1 3.080417 1_565
Ce0 Si1 3.080422 1_554
Ce0 Si0 3.084695 1_655
Ce0 Si6 3.092349 1_665
Ce0 Si5 3.092349 1_655
Ce0 Ni1 3.114138 1_654
Ce0 Ni1 3.114138 1_665
Ce0 Si7 3.128282 1_554
Ce0 Si4 3.128282 1_555
Ce0 Ni3 3.223446 1_555
Ce0 Ni5 3.243691 1_554
Ce0 Ni4 3.243691 1_555
Ce0 Ni2 3.341402 1_655
Ce1 Si2 2.925294 1_555
Ce1 Ni1 3.048769 1_555
Ce1 Si9 3.067250 1_555
Ce1 Si8 3.067250 1_555
Ce1 Si0 3.080421 1_545
Ce1 Si0 3.080421 1_556
Ce1 Si1 3.084688 1_455
Ce1 Si4 3.092349 1_445
Ce1 Si7 3.092349 1_455
Ce1 Ni0 3.114138 1_445
Ce1 Ni0 3.114138 1_456
Ce1 Si6 3.128282 1_555
Ce1 Si5 3.128282 1_556
Ce1 Ni2 3.223446 1_555
Ce1 Ni5 3.243691 1_555
Ce1 Ni4 3.243691 1_556
Ce1 Ni3 3.341402 1_455
Ce2 Si1 2.925297 1_565
Ce2 Ni2 3.048769 1_555
Ce2 Si8 3.067250 1_655
Ce2 Si9 3.067250 1_666
Ce2 Si3 3.080421 1_566
Ce2 Si3 3.080421 1_555
Ce2 Si2 3.084695 1_555
Ce2 Si4 3.092349 1_556
Ce2 Si7 3.092349 1_555
Ce2 Ni3 3.114138 1_555
Ce2 Ni3 3.114138 1_566
Ce2 Si5 3.128282 1_555
Ce2 Si6 3.128282 1_565
Ce2 Ni1 3.223446 1_665
Ce2 Ni4 3.243691 1_555
Ce2 Ni5 3.243691 1_565
Ce2 Ni0 3.341402 1_556
Ce3 Si0 2.925294 1_545
Ce3 Ni3 3.048769 1_555
Ce3 Si8 3.067250 1_544
Ce3 Si9 3.067250 1_555
Ce3 Si2 3.080421 1_544
Ce3 Si2 3.080421 1_555
Ce3 Si3 3.084695 1_555
Ce3 Si5 3.092349 1_555
Ce3 Si6 3.092349 1_554
Ce3 Ni2 3.114138 1_544
Ce3 Ni2 3.114138 1_555
Ce3 Si4 3.128282 1_545
Ce3 Si7 3.128282 1_555
Ce3 Ni0 3.223446 1_445
Ce3 Ni4 3.243691 1_545
Ce3 Ni5 3.243691 1_555
Ce3 Ni1 3.341402 1_554
Si0 Si6 2.473689 1_565
Si0 Si5 2.473689 1_555
Si1 Si4 2.473687 1_545
Si1 Si7 2.473690 1_555
Si2 Si7 2.473689 1_555
Si2 Si4 2.473689 1_556
Si3 Si6 2.473689 1_554
Si3 Si5 2.473689 1_555
Ni0 Si0 2.318662 1_655
Ni0 Si4 2.325428 1_555
Ni0 Si7 2.325428 1_554
Ni0 Si9 2.342640 1_665
Ni0 Si8 2.342640 1_654
Ni1 Si1 2.318657 1_455
Ni1 Si5 2.325428 1_556
Ni1 Si6 2.325428 1_555
Ni1 Si9 2.342640 1_556
Ni1 Si8 2.342640 1_545
Ni2 Si2 2.318662 1_555
Ni2 Si5 2.325428 1_555
Ni2 Si6 2.325428 1_565
Ni2 Si8 2.342640 1_555
Ni2 Si9 2.342640 1_555
Ni3 Si3 2.318662 1_555
Ni3 Si4 2.325428 1_545
Ni3 Si7 2.325428 1_555
Ni3 Si8 2.342640 1_655
Ni3 Si9 2.342640 1_655
Ni4 Si3 2.364519 1_555
Ni4 Si0 2.364519 1_555
Ni4 Si2 2.364519 1_554
Ni4 Si1 2.364523 1_565
Ni4 Si4 2.674297 1_555
Ni4 Si5 2.674297 1_555
Ni4 Ni5 2.869913 1_554
Ni4 Ni5 2.869913 1_565
Ni5 Si3 2.364519 1_556
Ni5 Si2 2.364519 1_555
Ni5 Si0 2.364519 1_545
Ni5 Si1 2.364527 1_555
Ni5 Si7 2.674297 1_555
Ni5 Si6 2.674297 1_555
