# generated using pymatgen
data_MnPH6NO5
_symmetry_space_group_name_H-M   'P 1'
_cell_length_a   17.98133400
_cell_length_b   5.80056700
_cell_length_c   4.92295100
_cell_angle_alpha   90.00000000
_cell_angle_beta   90.00000000
_cell_angle_gamma   90.00000000
_symmetry_Int_Tables_number   1
_chemical_formula_structural   MnPH6NO5
_chemical_formula_sum   'Mn4 P4 H24 N4 O20'
_cell_volume   513.47330348
_cell_formula_units_Z   4
loop_
 _symmetry_equiv_pos_site_id
 _symmetry_equiv_pos_as_xyz
  1  'x, y, z'
loop_
 _atom_site_type_symbol
 _atom_site_label
 _atom_site_symmetry_multiplicity
 _atom_site_fract_x
 _atom_site_fract_y
 _atom_site_fract_z
 _atom_site_occupancy
  Mn  Mn0  1  0.26175500  0.75000000  0.37025800  1
  Mn  Mn1  1  0.76175500  0.75000000  0.12974200  1
  Mn  Mn2  1  0.73824500  0.25000000  0.62974200  1
  Mn  Mn3  1  0.23824500  0.25000000  0.87025800  1
  P  P0  1  0.15089500  0.75000000  0.80512800  1
  P  P1  1  0.65089500  0.75000000  0.69487200  1
  P  P2  1  0.84910500  0.25000000  0.19487200  1
  P  P3  1  0.34910500  0.25000000  0.30512800  1
  H  H0  1  0.02033600  0.75000000  0.07955000  1
  H  H1  1  0.52033600  0.75000000  0.42045000  1
  H  H2  1  0.97966400  0.25000000  0.92045000  1
  H  H3  1  0.47966400  0.25000000  0.57955000  1
  H  H4  1  0.02156300  0.75000000  0.43195500  1
  H  H5  1  0.52156300  0.75000000  0.06804500  1
  H  H6  1  0.97843700  0.25000000  0.56804500  1
  H  H7  1  0.47843700  0.25000000  0.93195500  1
  H  H8  1  0.34853600  0.88579900  0.79890300  1
  H  H9  1  0.84853600  0.61420100  0.70109700  1
  H  H10  1  0.65146400  0.38579900  0.20109700  1
  H  H11  1  0.15146400  0.11420100  0.29890300  1
  H  H12  1  0.65146400  0.11420100  0.20109700  1
  H  H13  1  0.15146400  0.38579900  0.29890300  1
  H  H14  1  0.34853600  0.61420100  0.79890300  1
  H  H15  1  0.84853600  0.88579900  0.70109700  1
  H  H16  1  0.95504700  0.60280400  0.25629800  1
  H  H17  1  0.45504700  0.89719600  0.24370200  1
  H  H18  1  0.04495300  0.10280400  0.74370200  1
  H  H19  1  0.54495300  0.39719600  0.75629800  1
  H  H20  1  0.04495300  0.39719600  0.74370200  1
  H  H21  1  0.54495300  0.10280400  0.75629800  1
  H  H22  1  0.95504700  0.89719600  0.25629800  1
  H  H23  1  0.45504700  0.60280400  0.24370200  1
  N  N0  1  0.98768400  0.75000000  0.25722200  1
  N  N1  1  0.48768400  0.75000000  0.24277800  1
  N  N2  1  0.01231600  0.25000000  0.74277800  1
  N  N3  1  0.51231600  0.25000000  0.75722200  1
  O  O0  1  0.16624100  0.75000000  0.11141100  1
  O  O1  1  0.66624100  0.75000000  0.38858900  1
  O  O2  1  0.83375900  0.25000000  0.88858900  1
  O  O3  1  0.33375900  0.25000000  0.61141100  1
  O  O4  1  0.18770100  0.96433500  0.66222000  1
  O  O5  1  0.68770100  0.53566500  0.83778000  1
  O  O6  1  0.81229900  0.46433500  0.33778000  1
  O  O7  1  0.31229900  0.03566500  0.16222000  1
  O  O8  1  0.81229900  0.03566500  0.33778000  1
  O  O9  1  0.31229900  0.46433500  0.16222000  1
  O  O10  1  0.18770100  0.53566500  0.66222000  1
  O  O11  1  0.68770100  0.96433500  0.83778000  1
  O  O12  1  0.35585000  0.75000000  0.68160600  1
  O  O13  1  0.85585000  0.75000000  0.81839400  1
  O  O14  1  0.64415000  0.25000000  0.31839400  1
  O  O15  1  0.14415000  0.25000000  0.18160600  1
  O  O16  1  0.06526400  0.75000000  0.75467000  1
  O  O17  1  0.56526400  0.75000000  0.74533000  1
  O  O18  1  0.93473600  0.25000000  0.24533000  1
  O  O19  1  0.43473600  0.25000000  0.25467000  1
loop_
_geom_bond_atom_site_label_1
_geom_bond_atom_site_label_2
_geom_bond_distance
_geom_bond_site_symmetry_2
Mn0 O0 2.138579 1_555
Mn0 O9 2.149563 1_555
Mn0 O7 2.149563 1_565
Mn0 O12 2.282988 1_555
Mn0 O10 2.320498 1_555
Mn0 O4 2.320498 1_555
Mn1 O1 2.138579 1_555
Mn1 O8 2.149563 1_565
Mn1 O6 2.149563 1_555
Mn1 O13 2.282988 1_554
Mn1 O11 2.320498 1_554
Mn1 O5 2.320498 1_554
Mn2 O2 2.138579 1_555
Mn2 O11 2.149563 1_545
Mn2 O5 2.149563 1_555
Mn2 O14 2.282988 1_555
Mn2 O6 2.320498 1_555
Mn2 O8 2.320498 1_555
Mn3 O3 2.138579 1_555
Mn3 O10 2.149563 1_555
Mn3 O4 2.149563 1_545
Mn3 O15 2.282988 1_556
Mn3 O9 2.320498 1_556
Mn3 O7 2.320498 1_556
H0 N0 1.053454 1_455
H1 N1 1.053454 1_555
H2 N2 1.053454 1_655
H3 N3 1.053454 1_555
H4 N0 1.054068 1_455
H5 N1 1.054068 1_555
H6 N2 1.054068 1_655
H7 N3 1.054068 1_555
H8 O12 0.985510 1_555
H9 O13 0.985510 1_555
H10 O14 0.985510 1_555
H11 O15 0.985510 1_555
H12 O14 0.985510 1_555
H13 O15 0.985510 1_555
H14 O12 0.985510 1_555
H15 O13 0.985510 1_555
H16 N0 1.036065 1_555
H17 N1 1.036065 1_555
H18 N2 1.036065 1_555
H19 N3 1.036065 1_555
H20 N2 1.036065 1_555
H21 N3 1.036065 1_555
H22 N0 1.036065 1_555
H23 N1 1.036065 1_555
O0 P0 1.532858 1_554
O1 P1 1.532858 1_555
O2 P2 1.532858 1_556
O3 P3 1.532858 1_555
O4 P0 1.574378 1_555
O5 P1 1.574378 1_555
O6 P2 1.574378 1_555
O7 P3 1.574378 1_555
O8 P2 1.574378 1_555
O9 P3 1.574378 1_555
O10 P0 1.574378 1_555
O11 P1 1.574378 1_555
O16 P0 1.559668 1_555
O17 P1 1.559668 1_555
O18 P2 1.559668 1_555
O19 P3 1.559668 1_555
