# generated using pymatgen
data_MgCrNiP2O9
_symmetry_space_group_name_H-M   'P 1'
_cell_length_a   6.27436800
_cell_length_b   7.42714500
_cell_length_c   14.05258500
_cell_angle_alpha   90.00000000
_cell_angle_beta   90.00000000
_cell_angle_gamma   90.00000000
_symmetry_Int_Tables_number   1
_chemical_formula_structural   MgCrNiP2O9
_chemical_formula_sum   'Mg4 Cr4 Ni4 P8 O36'
_cell_volume   654.85946757
_cell_formula_units_Z   4
loop_
 _symmetry_equiv_pos_site_id
 _symmetry_equiv_pos_as_xyz
  1  'x, y, z'
loop_
 _atom_site_type_symbol
 _atom_site_label
 _atom_site_symmetry_multiplicity
 _atom_site_fract_x
 _atom_site_fract_y
 _atom_site_fract_z
 _atom_site_occupancy
  Mg  Mg0  1  0.25000000  0.42840500  0.27565000  1
  Mg  Mg1  1  0.25000000  0.07159500  0.77565000  1
  Mg  Mg2  1  0.75000000  0.57159500  0.72435000  1
  Mg  Mg3  1  0.75000000  0.92840500  0.22435000  1
  Cr  Cr0  1  0.25000000  0.85670600  0.38299300  1
  Cr  Cr1  1  0.75000000  0.14329400  0.61700700  1
  Cr  Cr2  1  0.75000000  0.35670600  0.11700700  1
  Cr  Cr3  1  0.25000000  0.64329400  0.88299300  1
  Ni  Ni0  1  0.00000000  0.50000000  0.50000000  1
  Ni  Ni1  1  0.00000000  0.00000000  0.00000000  1
  Ni  Ni2  1  0.50000000  0.00000000  0.00000000  1
  Ni  Ni3  1  0.50000000  0.50000000  0.50000000  1
  P  P0  1  0.75000000  0.85381500  0.43204600  1
  P  P1  1  0.25000000  0.14618500  0.56795400  1
  P  P2  1  0.25000000  0.35381500  0.06795400  1
  P  P3  1  0.75000000  0.64618500  0.93204600  1
  P  P4  1  0.25000000  0.88451800  0.19592100  1
  P  P5  1  0.75000000  0.11548200  0.80407900  1
  P  P6  1  0.75000000  0.38451800  0.30407900  1
  P  P7  1  0.25000000  0.61548200  0.69592100  1
  O  O0  1  0.53844200  0.11084200  0.86100400  1
  O  O1  1  0.03844200  0.88915800  0.13899600  1
  O  O2  1  0.46155800  0.61084200  0.63899600  1
  O  O3  1  0.96155800  0.38915800  0.36100400  1
  O  O4  1  0.46155800  0.88915800  0.13899600  1
  O  O5  1  0.96155800  0.11084200  0.86100400  1
  O  O6  1  0.53844200  0.38915800  0.36100400  1
  O  O7  1  0.03844200  0.61084200  0.63899600  1
  O  O8  1  0.75000000  0.83586000  0.97719600  1
  O  O9  1  0.25000000  0.16414000  0.02280400  1
  O  O10  1  0.25000000  0.33586000  0.52280400  1
  O  O11  1  0.75000000  0.66414000  0.47719600  1
  O  O12  1  0.25000000  0.64805900  0.44396500  1
  O  O13  1  0.75000000  0.35194100  0.55603500  1
  O  O14  1  0.75000000  0.14805900  0.05603500  1
  O  O15  1  0.25000000  0.85194100  0.94396500  1
  O  O16  1  0.25000000  0.70877400  0.26005800  1
  O  O17  1  0.75000000  0.29122600  0.73994200  1
  O  O18  1  0.75000000  0.20877400  0.23994200  1
  O  O19  1  0.25000000  0.79122600  0.76005800  1
  O  O20  1  0.93767200  0.62436600  0.86171100  1
  O  O21  1  0.43767200  0.37563400  0.13828900  1
  O  O22  1  0.06232800  0.12436600  0.63828900  1
  O  O23  1  0.56232800  0.87563400  0.36171100  1
  O  O24  1  0.06232800  0.37563400  0.13828900  1
  O  O25  1  0.56232800  0.62436600  0.86171100  1
  O  O26  1  0.93767200  0.87563400  0.36171100  1
  O  O27  1  0.43767200  0.12436600  0.63828900  1
  O  O28  1  0.25000000  0.46829400  0.77359900  1
  O  O29  1  0.75000000  0.53170600  0.22640100  1
  O  O30  1  0.75000000  0.96829400  0.72640100  1
  O  O31  1  0.25000000  0.03170600  0.27359900  1
  O  O32  1  0.25000000  0.49362900  0.98876000  1
  O  O33  1  0.75000000  0.50637100  0.01124000  1
  O  O34  1  0.75000000  0.99362900  0.51124000  1
  O  O35  1  0.25000000  0.00637100  0.48876000  1
loop_
_geom_bond_atom_site_label_1
_geom_bond_atom_site_label_2
_geom_bond_distance
_geom_bond_site_symmetry_2
Mg0 O16 2.093837 1_555
Mg0 O6 2.190657 1_555
Mg0 O3 2.190657 1_455
Mg0 O21 2.294808 1_555
Mg0 O24 2.294808 1_555
Mg1 O19 2.093837 1_545
Mg1 O0 2.190657 1_555
Mg1 O5 2.190657 1_455
Mg1 O27 2.294808 1_555
Mg1 O22 2.294808 1_555
Mg2 O17 2.093837 1_555
Mg2 O7 2.190657 1_655
Mg2 O2 2.190657 1_555
Mg2 O20 2.294808 1_555
Mg2 O25 2.294808 1_555
Mg3 O18 2.093837 1_565
Mg3 O1 2.190657 1_655
Mg3 O4 2.190657 1_555
Mg3 O26 2.294808 1_555
Mg3 O23 2.294808 1_555
Cr0 O12 1.770749 1_555
Cr0 O35 1.855992 1_565
Cr0 O23 1.987329 1_555
Cr0 O26 1.987329 1_455
Cr0 O31 2.013093 1_565
Cr0 O16 2.047343 1_555
Cr1 O13 1.770749 1_555
Cr1 O34 1.855992 1_545
Cr1 O22 1.987329 1_655
Cr1 O27 1.987329 1_555
Cr1 O30 2.013093 1_545
Cr1 O17 2.047343 1_555
Cr2 O14 1.770749 1_555
Cr2 O33 1.855992 1_555
Cr2 O24 1.987329 1_655
Cr2 O21 1.987329 1_555
Cr2 O29 2.013093 1_555
Cr2 O18 2.047343 1_555
Cr3 O15 1.770749 1_555
Cr3 O32 1.855992 1_555
Cr3 O25 1.987329 1_555
Cr3 O20 1.987329 1_455
Cr3 O28 2.013093 1_555
Cr3 O19 2.047343 1_555
Ni0 O10 2.012301 1_555
Ni0 O11 2.012301 1_455
Ni0 O12 2.071178 1_555
Ni0 O13 2.071178 1_455
Ni0 O7 2.133330 1_555
Ni0 O3 2.133330 1_455
Ni1 O9 2.012301 1_555
Ni1 O8 2.012301 1_444
Ni1 O14 2.071178 1_455
Ni1 O15 2.071178 1_544
Ni1 O1 2.133330 1_545
Ni1 O5 2.133330 1_454
Ni2 O9 2.012301 1_555
Ni2 O8 2.012301 1_544
Ni2 O14 2.071178 1_555
Ni2 O15 2.071178 1_544
Ni2 O4 2.133330 1_545
Ni2 O0 2.133330 1_554
Ni3 O10 2.012301 1_555
Ni3 O11 2.012301 1_555
Ni3 O12 2.071178 1_555
Ni3 O13 2.071178 1_555
Ni3 O6 2.133330 1_555
Ni3 O2 2.133330 1_555
O0 P5 1.550183 1_555
O1 P4 1.550183 1_555
O2 P7 1.550183 1_555
O3 P6 1.550183 1_555
O4 P4 1.550183 1_555
O5 P5 1.550183 1_555
O6 P6 1.550183 1_555
O7 P7 1.550183 1_555
O8 P3 1.545030 1_555
O9 P2 1.545030 1_555
O10 P1 1.545030 1_555
O11 P0 1.545030 1_555
O16 P4 1.586213 1_555
O17 P5 1.586213 1_555
O18 P6 1.586213 1_555
O19 P7 1.586213 1_555
O20 P3 1.545876 1_555
O21 P2 1.545876 1_555
O22 P1 1.545876 1_555
O23 P0 1.545876 1_555
O24 P2 1.545876 1_555
O25 P3 1.545876 1_555
O26 P0 1.545876 1_555
O27 P1 1.545876 1_555
O28 P7 1.544861 1_555
O29 P6 1.544861 1_555
O30 P5 1.544861 1_565
O31 P4 1.544861 1_545
O32 P2 1.522109 1_556
O33 P3 1.522109 1_554
O34 P0 1.522109 1_555
O35 P1 1.522109 1_555
