# generated using pymatgen
data_NdSm(CoO3)4
_symmetry_space_group_name_H-M   'P 1'
_cell_length_a   5.28034841
_cell_length_b   5.28034841
_cell_length_c   7.55781008
_cell_angle_alpha   90.00000000
_cell_angle_beta   90.00000000
_cell_angle_gamma   90.00000000
_symmetry_Int_Tables_number   1
_chemical_formula_structural   NdSm(CoO3)4
_chemical_formula_sum   'Nd1 Sm1 Co4 O12'
_cell_volume   210.72746022
_cell_formula_units_Z   1
loop_
 _symmetry_equiv_pos_site_id
 _symmetry_equiv_pos_as_xyz
  1  'x, y, z'
loop_
 _atom_site_type_symbol
 _atom_site_label
 _atom_site_symmetry_multiplicity
 _atom_site_fract_x
 _atom_site_fract_y
 _atom_site_fract_z
 _atom_site_occupancy
  Nd  Nd0  1  0.50000000  0.50000000  0.00000000  1
  Sm  Sm0  1  0.00000000  -0.00000000  0.50000000  1
  Co  Co0  1  -0.00000000  0.50000000  0.74930992  1
  Co  Co1  1  0.00000000  0.50000000  0.25069008  1
  Co  Co2  1  0.50000000  0.00000000  0.25069008  1
  Co  Co3  1  0.50000000  -0.00000000  0.74930992  1
  O  O0  1  0.24823773  0.24823773  0.25177083  1
  O  O1  1  0.24823773  0.24823773  0.74822917  1
  O  O2  1  0.75176227  0.75176227  0.25177083  1
  O  O3  1  0.75176227  0.75176227  0.74822917  1
  O  O4  1  0.75176227  0.24823773  0.74822917  1
  O  O5  1  0.75176227  0.24823773  0.25177083  1
  O  O6  1  0.24823773  0.75176227  0.74822917  1
  O  O7  1  0.24823773  0.75176227  0.25177083  1
  O  O8  1  -0.00000000  0.50000000  0.50000000  1
  O  O9  1  0.00000000  0.50000000  0.00000000  1
  O  O10  1  0.50000000  -0.00000000  0.50000000  1
  O  O11  1  0.50000000  -0.00000000  0.00000000  1
loop_
_geom_bond_atom_site_label_1
_geom_bond_atom_site_label_2
_geom_bond_distance
_geom_bond_site_symmetry_2
Nd0 O9 2.640174 1_555
Nd0 O9 2.640174 1_655
Nd0 O11 2.640174 1_555
Nd0 O11 2.640174 1_565
Nd0 O5 2.674949 1_555
Nd0 O2 2.674949 1_555
Nd0 O3 2.674949 1_554
Nd0 O4 2.674949 1_554
Nd0 O6 2.674949 1_554
Nd0 O0 2.674949 1_555
Nd0 O1 2.674949 1_554
Nd0 O7 2.674949 1_555
Co0 O6 1.866949 1_555
Co0 O3 1.866949 1_455
Co0 O1 1.866949 1_555
Co0 O4 1.866949 1_455
Co0 O8 1.884237 1_555
Co0 O9 1.894668 1_556
Co1 O7 1.866949 1_555
Co1 O0 1.866949 1_555
Co1 O2 1.866949 1_455
Co1 O5 1.866949 1_455
Co1 O8 1.884237 1_555
Co1 O9 1.894668 1_555
Co2 O5 1.866949 1_555
Co2 O0 1.866949 1_555
Co2 O2 1.866949 1_545
Co2 O7 1.866949 1_545
Co2 O10 1.884237 1_555
Co2 O11 1.894668 1_555
Co3 O4 1.866949 1_555
Co3 O3 1.866949 1_545
Co3 O1 1.866949 1_555
Co3 O6 1.866949 1_545
Co3 O10 1.884237 1_555
Co3 O11 1.894668 1_556
O0 Sm0 2.637410 1_555
O1 Sm0 2.637410 1_555
O2 Sm0 2.637410 1_665
O3 Sm0 2.637410 1_665
O4 Sm0 2.637410 1_655
O5 Sm0 2.637410 1_655
O6 Sm0 2.637410 1_565
O7 Sm0 2.637410 1_565
O8 Sm0 2.640174 1_565
O8 Sm0 2.640174 1_555
O10 Sm0 2.640174 1_555
O10 Sm0 2.640174 1_655
