# generated using pymatgen
data_RbOsN2
_symmetry_space_group_name_H-M   'P 1'
_cell_length_a   6.35132600
_cell_length_b   12.45977300
_cell_length_c   15.41618800
_cell_angle_alpha   90.00000000
_cell_angle_beta   90.00000000
_cell_angle_gamma   90.00000000
_symmetry_Int_Tables_number   1
_chemical_formula_structural   RbOsN2
_chemical_formula_sum   'Rb16 Os16 N32'
_cell_volume   1219.97669008
_cell_formula_units_Z   16
loop_
 _symmetry_equiv_pos_site_id
 _symmetry_equiv_pos_as_xyz
  1  'x, y, z'
loop_
 _atom_site_type_symbol
 _atom_site_label
 _atom_site_symmetry_multiplicity
 _atom_site_fract_x
 _atom_site_fract_y
 _atom_site_fract_z
 _atom_site_occupancy
  Rb  Rb0  1  0.24705800  0.00160900  0.93510200  1
  Rb  Rb1  1  0.74705800  0.49839100  0.06489800  1
  Rb  Rb2  1  0.75294200  0.50160900  0.56489800  1
  Rb  Rb3  1  0.25294200  0.99839100  0.43510200  1
  Rb  Rb4  1  0.75294200  0.99839100  0.06489800  1
  Rb  Rb5  1  0.25294200  0.50160900  0.93510200  1
  Rb  Rb6  1  0.24705800  0.49839100  0.43510200  1
  Rb  Rb7  1  0.74705800  0.00160900  0.56489800  1
  Rb  Rb8  1  0.41309600  0.24877900  0.80746600  1
  Rb  Rb9  1  0.91309600  0.25122100  0.19253400  1
  Rb  Rb10  1  0.58690400  0.74877900  0.69253400  1
  Rb  Rb11  1  0.08690400  0.75122100  0.30746600  1
  Rb  Rb12  1  0.58690400  0.75122100  0.19253400  1
  Rb  Rb13  1  0.08690400  0.74877900  0.80746600  1
  Rb  Rb14  1  0.41309600  0.25122100  0.30746600  1
  Rb  Rb15  1  0.91309600  0.24877900  0.69253400  1
  Os  Os0  1  0.74297500  0.99783600  0.81450400  1
  Os  Os1  1  0.24297500  0.50216400  0.18549600  1
  Os  Os2  1  0.25702500  0.49783600  0.68549600  1
  Os  Os3  1  0.75702500  0.00216400  0.31450400  1
  Os  Os4  1  0.25702500  0.00216400  0.18549600  1
  Os  Os5  1  0.75702500  0.49783600  0.81450400  1
  Os  Os6  1  0.74297500  0.50216400  0.31450400  1
  Os  Os7  1  0.24297500  0.99783600  0.68549600  1
  Os  Os8  1  0.85588100  0.24676000  0.94131500  1
  Os  Os9  1  0.35588100  0.25324000  0.05868500  1
  Os  Os10  1  0.14411900  0.74676000  0.55868500  1
  Os  Os11  1  0.64411900  0.75324000  0.44131500  1
  Os  Os12  1  0.14411900  0.75324000  0.05868500  1
  Os  Os13  1  0.64411900  0.74676000  0.94131500  1
  Os  Os14  1  0.85588100  0.25324000  0.44131500  1
  Os  Os15  1  0.35588100  0.24676000  0.55868500  1
  N  N0  1  0.14052900  0.24795600  0.97251000  1
  N  N1  1  0.64052900  0.25204400  0.02749000  1
  N  N2  1  0.85947100  0.74795600  0.52749000  1
  N  N3  1  0.35947100  0.75204400  0.47251000  1
  N  N4  1  0.85947100  0.75204400  0.02749000  1
  N  N5  1  0.35947100  0.74795600  0.97251000  1
  N  N6  1  0.14052900  0.25204400  0.47251000  1
  N  N7  1  0.64052900  0.24795600  0.52749000  1
  N  N8  1  0.78915800  0.37691200  0.88425200  1
  N  N9  1  0.28915800  0.12308800  0.11574800  1
  N  N10  1  0.21084200  0.87691200  0.61574800  1
  N  N11  1  0.71084200  0.62308800  0.38425200  1
  N  N12  1  0.21084200  0.62308800  0.11574800  1
  N  N13  1  0.71084200  0.87691200  0.88425200  1
  N  N14  1  0.78915800  0.12308800  0.38425200  1
  N  N15  1  0.28915800  0.37691200  0.61574800  1
  N  N16  1  0.79033500  0.12222800  0.88223400  1
  N  N17  1  0.29033500  0.37777200  0.11776600  1
  N  N18  1  0.20966500  0.62222800  0.61776600  1
  N  N19  1  0.70966500  0.87777200  0.38223400  1
  N  N20  1  0.20966500  0.87777200  0.11776600  1
  N  N21  1  0.70966500  0.62222800  0.88223400  1
  N  N22  1  0.79033500  0.37777200  0.38223400  1
  N  N23  1  0.29033500  0.12222800  0.61776600  1
  N  N24  1  0.50285200  0.50306600  0.75058600  1
  N  N25  1  0.00285200  0.99693400  0.24941400  1
  N  N26  1  0.49714800  0.00306600  0.74941400  1
  N  N27  1  0.99714800  0.49693400  0.25058600  1
  N  N28  1  0.49714800  0.49693400  0.24941400  1
  N  N29  1  0.99714800  0.00306600  0.75058600  1
  N  N30  1  0.50285200  0.99693400  0.25058600  1
  N  N31  1  0.00285200  0.50306600  0.74941400  1
loop_
_geom_bond_atom_site_label_1
_geom_bond_atom_site_label_2
_geom_bond_distance
_geom_bond_site_symmetry_2
N0 Os8 1.870820 1_455
N0 Os9 1.907883 1_556
N0 Rb8 3.077457 1_555
N0 Rb0 3.195582 1_555
N0 Rb5 3.291022 1_555
N1 Os9 1.870820 1_555
N1 Os8 1.907883 1_554
N1 Rb9 3.077457 1_555
N1 Rb1 3.195582 1_555
N1 Rb4 3.291022 1_545
N2 Os10 1.870820 1_655
N2 Os11 1.907883 1_555
N2 Rb10 3.077457 1_555
N2 Rb2 3.195582 1_555
N2 Rb7 3.291022 1_565
N3 Os11 1.870820 1_555
N3 Os10 1.907883 1_555
N3 Rb11 3.077457 1_555
N3 Rb3 3.195582 1_555
N3 Rb6 3.291022 1_555
N4 Os12 1.870820 1_655
N4 Os13 1.907883 1_554
N4 Rb12 3.077457 1_555
N4 Rb4 3.195582 1_555
N4 Rb1 3.291022 1_555
N5 Os13 1.870820 1_555
N5 Os12 1.907883 1_556
N5 Rb13 3.077457 1_555
N5 Rb5 3.195582 1_555
N5 Rb0 3.291022 1_565
N6 Os14 1.870820 1_455
N6 Os15 1.907883 1_555
N6 Rb14 3.077457 1_555
N6 Rb6 3.195582 1_555
N6 Rb3 3.291022 1_545
N7 Os15 1.870820 1_555
N7 Os14 1.907883 1_555
N7 Rb15 3.077457 1_555
N7 Rb7 3.195582 1_555
N7 Rb2 3.291022 1_555
N8 Os5 1.862233 1_555
N8 Os8 1.892946 1_555
N8 Rb8 3.107248 1_555
N8 Rb1 3.180881 1_556
N8 Rb5 3.421302 1_655
N8 Rb15 3.450191 1_555
N9 Os4 1.862233 1_555
N9 Os9 1.892946 1_555
N9 Rb9 3.107248 1_455
N9 Rb0 3.180881 1_554
N9 Rb4 3.421302 1_545
N9 Rb14 3.450191 1_555
N10 Os7 1.862233 1_555
N10 Os10 1.892946 1_555
N10 Rb10 3.107248 1_555
N10 Rb3 3.180881 1_555
N10 Rb7 3.421302 1_465
N10 Rb13 3.450191 1_555
N11 Os6 1.862233 1_555
N11 Os11 1.892946 1_555
N11 Rb11 3.107248 1_655
N11 Rb2 3.180881 1_555
N11 Rb6 3.421302 1_555
N11 Rb12 3.450191 1_555
N12 Os1 1.862233 1_555
N12 Os12 1.892946 1_555
N12 Rb12 3.107248 1_555
N12 Rb5 3.180881 1_554
N12 Rb1 3.421302 1_455
N12 Rb11 3.450191 1_555
N13 Os0 1.862233 1_555
N13 Os13 1.892946 1_555
N13 Rb13 3.107248 1_655
N13 Rb4 3.180881 1_556
N13 Rb0 3.421302 1_565
N13 Rb10 3.450191 1_555
N14 Os3 1.862233 1_555
N14 Os14 1.892946 1_555
N14 Rb14 3.107248 1_555
N14 Rb7 3.180881 1_555
N14 Rb3 3.421302 1_645
N14 Rb9 3.450191 1_555
N15 Os2 1.862233 1_555
N15 Os15 1.892946 1_555
N15 Rb15 3.107248 1_455
N15 Rb6 3.180881 1_555
N15 Rb2 3.421302 1_555
N15 Rb8 3.450191 1_555
N16 Os8 1.846743 1_555
N16 Os0 1.892850 1_545
N16 Rb8 3.091201 1_555
N16 Rb4 3.219775 1_546
N16 Rb0 3.367128 1_655
N16 Rb15 3.412715 1_555
N17 Os9 1.846743 1_555
N17 Os1 1.892850 1_555
N17 Rb9 3.091201 1_455
N17 Rb5 3.219775 1_554
N17 Rb1 3.367128 1_555
N17 Rb14 3.412715 1_555
N18 Os10 1.846743 1_555
N18 Os2 1.892850 1_555
N18 Rb10 3.091201 1_555
N18 Rb6 3.219775 1_555
N18 Rb2 3.367128 1_455
N18 Rb13 3.412715 1_555
N19 Os11 1.846743 1_555
N19 Os3 1.892850 1_565
N19 Rb11 3.091201 1_655
N19 Rb7 3.219775 1_565
N19 Rb3 3.367128 1_555
N19 Rb12 3.412715 1_555
N20 Os12 1.846743 1_555
N20 Os4 1.892850 1_565
N20 Rb12 3.091201 1_555
N20 Rb0 3.219775 1_564
N20 Rb4 3.367128 1_455
N20 Rb11 3.412715 1_555
N21 Os13 1.846743 1_555
N21 Os5 1.892850 1_555
N21 Rb13 3.091201 1_655
N21 Rb1 3.219775 1_556
N21 Rb5 3.367128 1_555
N21 Rb10 3.412715 1_555
N22 Os14 1.846743 1_555
N22 Os6 1.892850 1_555
N22 Rb14 3.091201 1_555
N22 Rb2 3.219775 1_555
N22 Rb6 3.367128 1_655
N22 Rb9 3.412715 1_555
N23 Os15 1.846743 1_555
N23 Os7 1.892850 1_545
N23 Rb15 3.091201 1_455
N23 Rb3 3.219775 1_545
N23 Rb7 3.367128 1_555
N23 Rb8 3.412715 1_555
N24 Os2 1.857116 1_555
N24 Os5 1.892428 1_555
N24 Rb10 3.234016 1_555
N24 Rb5 3.257467 1_555
N24 Rb2 3.273811 1_555
N24 Rb8 3.336522 1_555
N25 Os3 1.857116 1_465
N25 Os4 1.892428 1_565
N25 Rb11 3.234016 1_555
N25 Rb4 3.257467 1_455
N25 Rb3 3.273811 1_555
N25 Rb9 3.336522 1_465
N26 Os0 1.857116 1_545
N26 Os7 1.892428 1_545
N26 Rb8 3.234016 1_555
N26 Rb7 3.257467 1_555
N26 Rb0 3.273811 1_555
N26 Rb10 3.336522 1_545
N27 Os1 1.857116 1_655
N27 Os6 1.892428 1_555
N27 Rb9 3.234016 1_555
N27 Rb6 3.257467 1_655
N27 Rb1 3.273811 1_555
N27 Rb11 3.336522 1_655
N28 Os6 1.857116 1_555
N28 Os1 1.892428 1_555
N28 Rb14 3.234016 1_555
N28 Rb1 3.257467 1_555
N28 Rb6 3.273811 1_555
N28 Rb12 3.336522 1_555
N29 Os7 1.857116 1_645
N29 Os0 1.892428 1_545
N29 Rb15 3.234016 1_555
N29 Rb0 3.257467 1_655
N29 Rb7 3.273811 1_555
N29 Rb13 3.336522 1_645
N30 Os4 1.857116 1_565
N30 Os3 1.892428 1_565
N30 Rb12 3.234016 1_555
N30 Rb3 3.257467 1_555
N30 Rb4 3.273811 1_555
N30 Rb14 3.336522 1_565
N31 Os5 1.857116 1_455
N31 Os2 1.892428 1_555
N31 Rb13 3.234016 1_555
N31 Rb2 3.257467 1_455
N31 Rb5 3.273811 1_555
N31 Rb15 3.336522 1_455
