# generated using pymatgen
data_Sm3(Co2Sn)4
_symmetry_space_group_name_H-M   'P 1'
_cell_length_a   7.60491000
_cell_length_b   8.93574014
_cell_length_c   8.93574014
_cell_angle_alpha   120.00000102
_cell_angle_beta   90.00000000
_cell_angle_gamma   90.00000000
_symmetry_Int_Tables_number   1
_chemical_formula_structural   Sm3(Co2Sn)4
_chemical_formula_sum   'Sm6 Co16 Sn8'
_cell_volume   525.87892554
_cell_formula_units_Z   2
loop_
 _symmetry_equiv_pos_site_id
 _symmetry_equiv_pos_as_xyz
  1  'x, y, z'
loop_
 _atom_site_type_symbol
 _atom_site_label
 _atom_site_symmetry_multiplicity
 _atom_site_fract_x
 _atom_site_fract_y
 _atom_site_fract_z
 _atom_site_occupancy
  Sm  Sm0  1  0.78382700  0.47535900  0.95071700  1
  Sm  Sm1  1  0.78382700  0.47535900  0.52464100  1
  Sm  Sm2  1  0.28382700  0.52464100  0.04928300  1
  Sm  Sm3  1  0.78382700  0.04928300  0.52464100  1
  Sm  Sm4  1  0.28382700  0.52464100  0.47535900  1
  Sm  Sm5  1  0.28382700  0.95071700  0.47535900  1
  Co  Co0  1  0.61809300  0.66666700  0.33333300  1
  Co  Co1  1  0.11809300  0.33333300  0.66666700  1
  Co  Co2  1  0.75592800  0.09592500  0.19185000  1
  Co  Co3  1  0.75592800  0.09592500  0.90407500  1
  Co  Co4  1  0.25592800  0.90407500  0.80815000  1
  Co  Co5  1  0.75592800  0.80815000  0.90407500  1
  Co  Co6  1  0.25592800  0.90407500  0.09592500  1
  Co  Co7  1  0.25592800  0.19185000  0.09592500  1
  Co  Co8  1  0.94644900  0.84301600  0.68603100  1
  Co  Co9  1  0.94644900  0.84301600  0.15698400  1
  Co  Co10  1  0.44644900  0.15698400  0.31396900  1
  Co  Co11  1  0.94644900  0.31396900  0.15698400  1
  Co  Co12  1  0.44644900  0.15698400  0.84301600  1
  Co  Co13  1  0.44644900  0.68603100  0.84301600  1
  Co  Co14  1  0.00028900  0.00000000  0.00000000  1
  Co  Co15  1  0.50028900  0.00000000  0.00000000  1
  Sn  Sn0  1  0.96834900  0.66666700  0.33333300  1
  Sn  Sn1  1  0.46834900  0.33333300  0.66666700  1
  Sn  Sn2  1  0.57325200  0.82973200  0.65946300  1
  Sn  Sn3  1  0.57325200  0.82973200  0.17026800  1
  Sn  Sn4  1  0.07325200  0.17026800  0.34053700  1
  Sn  Sn5  1  0.57325200  0.34053700  0.17026800  1
  Sn  Sn6  1  0.07325200  0.17026800  0.82973200  1
  Sn  Sn7  1  0.07325200  0.65946300  0.82973200  1
loop_
_geom_bond_atom_site_label_1
_geom_bond_atom_site_label_2
_geom_bond_distance
_geom_bond_site_symmetry_2
Sm0 Sn3 3.198163 1_556
Sm0 Sn5 3.198163 1_556
Sm0 Sn7 3.240102 1_655
Sm0 Sn6 3.240114 1_655
Sm0 Sn1 3.253906 1_555
Sm0 Sn0 3.276603 1_556
Sm1 Sn5 3.198163 1_555
Sm1 Sn2 3.198163 1_555
Sm1 Sn7 3.240113 1_655
Sm1 Sn4 3.240113 1_655
Sm1 Sn1 3.253917 1_555
Sm1 Sn0 3.276603 1_555
Sm2 Sn6 3.198163 1_554
Sm2 Sn7 3.198163 1_554
Sm2 Sn5 3.240102 1_555
Sm2 Sn3 3.240114 1_555
Sm2 Sn0 3.253906 1_455
Sm2 Sn1 3.276603 1_554
Sm3 Sn3 3.198163 1_545
Sm3 Sn2 3.198163 1_545
Sm3 Sn4 3.240102 1_655
Sm3 Sn6 3.240114 1_655
Sm3 Sn1 3.253906 1_555
Sm3 Sn0 3.276603 1_545
Sm4 Sn7 3.198163 1_555
Sm4 Sn4 3.198163 1_555
Sm4 Sn5 3.240113 1_555
Sm4 Sn2 3.240113 1_555
Sm4 Sn0 3.253917 1_455
Sm4 Sn1 3.276603 1_555
Sm5 Sn6 3.198163 1_565
Sm5 Sn4 3.198163 1_565
Sm5 Sn2 3.240102 1_555
Sm5 Sn3 3.240114 1_555
Sm5 Sn0 3.253906 1_455
Sm5 Sn1 3.276603 1_565
Co0 Sn5 2.546717 1_555
Co0 Sn2 2.546717 1_555
Co0 Sn3 2.546717 1_555
Co0 Sn0 2.663665 1_555
Co0 Sm3 3.218002 1_565
Co0 Sm0 3.218002 1_554
Co0 Sm1 3.218002 1_555
Co0 Sm2 3.360642 1_555
Co0 Sm5 3.360642 1_555
Co0 Sm4 3.360652 1_555
Co1 Sn4 2.546717 1_555
Co1 Sn7 2.546717 1_555
Co1 Sn6 2.546717 1_555
Co1 Sn1 2.663665 1_555
Co1 Sm2 3.218002 1_556
Co1 Sm5 3.218002 1_545
Co1 Sm4 3.218002 1_555
Co1 Sm3 3.360642 1_455
Co1 Sm0 3.360642 1_455
Co1 Sm1 3.360652 1_455
Co2 Co9 2.568960 1_545
Co2 Co5 2.571483 1_544
Co2 Co3 2.571483 1_554
Co2 Sn4 2.673495 1_655
Co2 Sn3 2.677000 1_545
Co2 Sn5 2.677008 1_555
Co2 Sm3 3.209550 1_555
Co2 Sm1 3.209555 1_555
Co3 Co8 2.568962 1_545
Co3 Co5 2.571483 1_545
Co3 Sn6 2.673491 1_655
Co3 Sn2 2.677003 1_545
Co3 Sn5 2.677003 1_556
Co3 Sm0 3.209559 1_555
Co3 Sm3 3.209559 1_555
Co4 Co8 2.536202 1_455
Co4 Co7 2.571483 1_566
Co4 Co6 2.571483 1_556
Co4 Sn2 2.673495 1_555
Co4 Sn6 2.677000 1_565
Co4 Sn7 2.677008 1_555
Co4 Sm5 3.209550 1_555
Co4 Sm4 3.209555 1_555
Co5 Co9 2.568960 1_556
Co5 Co8 2.568967 1_555
Co5 Sn7 2.673495 1_655
Co5 Sn3 2.677000 1_556
Co5 Sn2 2.677008 1_555
Co5 Sm0 3.209550 1_555
Co5 Sm1 3.209555 1_555
Co6 Co9 2.536199 1_455
Co6 Co7 2.571483 1_565
Co6 Sn3 2.673491 1_555
Co6 Sn7 2.677003 1_554
Co6 Sn4 2.677003 1_565
Co6 Sm2 3.209559 1_555
Co6 Sm5 3.209559 1_555
Co7 Sn5 2.673495 1_555
Co7 Sn6 2.677000 1_554
Co7 Sn4 2.677008 1_555
Co7 Sm2 3.209550 1_555
Co7 Sm4 3.209555 1_555
Co8 Sn6 2.715696 1_665
Co8 Sn7 2.715711 1_655
Co8 Sn0 2.734458 1_555
Co8 Sn2 2.845567 1_555
Co8 Sm1 3.108782 1_555
Co8 Sm3 3.108782 1_565
Co8 Sm5 3.586741 1_655
Co8 Sm4 3.586750 1_655
Co9 Sn7 2.715697 1_654
Co9 Sn4 2.715697 1_665
Co9 Sn0 2.734458 1_555
Co9 Sn3 2.845567 1_555
Co9 Sm0 3.108782 1_554
Co9 Sm3 3.108782 1_565
Co9 Sm5 3.586752 1_655
Co9 Sm2 3.586752 1_655
Co10 Co15 2.463932 1_555
Co10 Co2 2.536202 1_555
Co10 Co6 2.568962 1_545
Co10 Co7 2.568967 1_555
Co10 Sn3 2.715696 1_545
Co10 Sn5 2.715711 1_555
Co10 Sn1 2.734458 1_555
Co10 Sn4 2.845567 1_555
Co10 Sm4 3.108782 1_555
Co10 Sm5 3.108782 1_545
Co10 Sm3 3.586741 1_555
Co10 Sm1 3.586750 1_555
Co11 Co14 2.463932 1_655
Co11 Co7 2.536202 1_655
Co11 Co3 2.568962 1_554
Co11 Co2 2.568967 1_555
Co11 Sn6 2.715696 1_654
Co11 Sn4 2.715711 1_655
Co11 Sn0 2.734458 1_555
Co11 Sn5 2.845567 1_555
Co11 Sm1 3.108782 1_555
Co11 Sm0 3.108782 1_554
Co11 Sm2 3.586741 1_655
Co11 Sm4 3.586750 1_655
Co12 Co15 2.463925 1_556
Co12 Co3 2.536199 1_555
Co12 Co7 2.568960 1_556
Co12 Co4 2.568960 1_545
Co12 Sn2 2.715697 1_545
Co12 Sn5 2.715697 1_556
Co12 Sn1 2.734458 1_555
Co12 Sn6 2.845567 1_555
Co12 Sm2 3.108782 1_556
Co12 Sm5 3.108782 1_545
Co12 Sm0 3.586752 1_555
Co12 Sm3 3.586752 1_555
Co13 Co15 2.463932 1_566
Co13 Co5 2.536202 1_555
Co13 Co6 2.568962 1_556
Co13 Co4 2.568967 1_555
Co13 Sn3 2.715696 1_556
Co13 Sn2 2.715711 1_555
Co13 Sn1 2.734458 1_555
Co13 Sn7 2.845567 1_555
Co13 Sm4 3.108782 1_555
Co13 Sm2 3.108782 1_556
Co13 Sm0 3.586741 1_555
Co13 Sm1 3.586750 1_555
Co14 Co2 2.378574 1_455
Co14 Co5 2.378574 1_444
Co14 Co3 2.378574 1_454
Co14 Co7 2.446169 1_555
Co14 Co4 2.446169 1_544
Co14 Co6 2.446169 1_545
Co14 Co9 2.463925 1_445
Co14 Co8 2.463932 1_444
Co14 Sn6 2.693048 1_554
Co14 Sn7 2.693055 1_544
Co14 Sn4 2.693055 1_555
Co15 Co4 2.378574 1_544
Co15 Co7 2.378574 1_555
Co15 Co6 2.378574 1_545
Co15 Co5 2.446169 1_544
Co15 Co2 2.446169 1_555
Co15 Co3 2.446169 1_554
Co15 Sn3 2.693048 1_545
Co15 Sn2 2.693055 1_544
Co15 Sn5 2.693055 1_555
