# generated using pymatgen
data_Li3Ni2SnO6
_symmetry_space_group_name_H-M   'P 1'
_cell_length_a   6.06664594
_cell_length_b   6.77002975
_cell_length_c   6.70347556
_cell_angle_alpha   95.51842165
_cell_angle_beta   76.93931415
_cell_angle_gamma   63.33565277
_symmetry_Int_Tables_number   1
_chemical_formula_structural   Li3Ni2SnO6
_chemical_formula_sum   'Li6 Ni4 Sn2 O12'
_cell_volume   233.42130436
_cell_formula_units_Z   2
loop_
 _symmetry_equiv_pos_site_id
 _symmetry_equiv_pos_as_xyz
  1  'x, y, z'
loop_
 _atom_site_type_symbol
 _atom_site_label
 _atom_site_symmetry_multiplicity
 _atom_site_fract_x
 _atom_site_fract_y
 _atom_site_fract_z
 _atom_site_occupancy
  Li  Li0  1  0.75103100  0.83286000  0.33395300  1
  Li  Li1  1  0.24830000  0.83402700  0.33317900  1
  Li  Li2  1  0.75517700  0.49552000  0.97986800  1
  Li  Li3  1  0.23792200  0.53340000  0.98659700  1
  Li  Li4  1  0.76208900  0.13332500  0.67991000  1
  Li  Li5  1  0.24425500  0.17167900  0.68713400  1
  Ni  Ni0  1  0.51082300  0.98490400  0.99215700  1
  Ni  Ni1  1  0.48906300  0.68182500  0.67451700  1
  Ni  Ni2  1  0.00621800  0.98911900  0.99398000  1
  Ni  Ni3  1  0.99377500  0.67733500  0.67272600  1
  Sn  Sn0  1  0.50021900  0.33329900  0.33328100  1
  Sn  Sn1  1  0.00020700  0.33330100  0.33328700  1
  O  O0  1  0.65099600  0.22654300  0.00795000  1
  O  O1  1  0.12083700  0.22204800  0.00623200  1
  O  O2  1  0.87922400  0.44451500  0.66035700  1
  O  O3  1  0.34915300  0.44004900  0.65862100  1
  O  O4  1  0.64962500  0.89637200  0.66938100  1
  O  O5  1  0.11928200  0.89588600  0.66646800  1
  O  O6  1  0.88069400  0.77068600  0.00010100  1
  O  O7  1  0.35049400  0.77018200  0.99716900  1
  O  O8  1  0.63115100  0.57295100  0.33167700  1
  O  O9  1  0.13657600  0.56632700  0.31915900  1
  O  O10  1  0.86371900  0.10023800  0.34746000  1
  O  O11  1  0.36916900  0.09360500  0.33483500  1
loop_
_geom_bond_atom_site_label_1
_geom_bond_atom_site_label_2
_geom_bond_distance
_geom_bond_site_symmetry_2
Li0 O6 2.128483 1_555
Li0 O4 2.137916 1_555
Li0 O8 2.184887 1_555
Li0 O11 2.191877 1_565
Li0 O9 2.193013 1_655
Li0 O10 2.204396 1_565
Li1 O5 2.124882 1_555
Li1 O7 2.141435 1_554
Li1 O11 2.186911 1_565
Li1 O10 2.189203 1_465
Li1 O8 2.195489 1_555
Li1 O9 2.202575 1_555
Li2 O2 2.041825 1_555
Li2 O0 2.189979 1_556
Li2 O1 2.221237 1_656
Li2 O8 2.238065 1_556
Li2 O7 2.287128 1_555
Li2 O6 2.310801 1_556
Li3 O7 2.005916 1_555
Li3 O6 2.011012 1_456
Li3 O3 2.089970 1_555
Li3 O9 2.135299 1_556
Li3 O0 2.482522 1_556
Li3 O1 2.513936 1_556
Li4 O4 2.006541 1_545
Li4 O5 2.011298 1_645
Li4 O0 2.090369 1_556
Li4 O10 2.134445 1_555
Li4 O3 2.481473 1_555
Li4 O2 2.513030 1_555
Li5 O1 2.039406 1_556
Li5 O3 2.189085 1_555
Li5 O2 2.218162 1_455
Li5 O11 2.241091 1_555
Li5 O4 2.290643 1_545
Li5 O5 2.312666 1_545
Ni0 O4 2.055264 1_555
Ni0 O6 2.071038 1_556
Ni0 O7 2.079429 1_555
Ni0 O1 2.155174 1_566
Ni0 O0 2.160208 1_566
Ni0 O11 2.184476 1_566
Ni1 O7 2.054424 1_555
Ni1 O5 2.070623 1_555
Ni1 O4 2.079432 1_555
Ni1 O2 2.156095 1_555
Ni1 O3 2.159927 1_555
Ni1 O8 2.185569 1_555
Ni2 O6 1.943372 1_456
Ni2 O7 1.951261 1_555
Ni2 O1 1.990491 1_566
Ni2 O0 2.001839 1_466
Ni2 O5 2.086442 1_555
Ni2 O10 2.252919 1_466
Ni3 O5 1.944052 1_655
Ni3 O4 1.951232 1_555
Ni3 O2 1.989533 1_555
Ni3 O3 2.001966 1_655
Ni3 O6 2.085610 1_556
Ni3 O9 2.253411 1_655
O0 Sn0 2.077750 1_555
O1 Sn1 2.090939 1_555
O2 Sn1 2.090903 1_655
O3 Sn0 2.077886 1_555
O8 Sn1 2.097436 1_655
O8 Sn0 2.102280 1_555
O9 Sn1 2.084928 1_555
O9 Sn0 2.089034 1_555
O10 Sn1 2.085696 1_655
O10 Sn0 2.088603 1_555
O11 Sn1 2.096983 1_555
O11 Sn0 2.103067 1_555
