# generated using pymatgen
data_Yb2MgS4
_symmetry_space_group_name_H-M   'P 1'
_cell_length_a   9.27513200
_cell_length_b   5.24332800
_cell_length_c   13.03455000
_cell_angle_alpha   90.00000000
_cell_angle_beta   90.00000000
_cell_angle_gamma   90.00000000
_symmetry_Int_Tables_number   1
_chemical_formula_structural   Yb2MgS4
_chemical_formula_sum   'Yb8 Mg4 S16'
_cell_volume   633.90352608
_cell_formula_units_Z   4
loop_
 _symmetry_equiv_pos_site_id
 _symmetry_equiv_pos_as_xyz
  1  'x, y, z'
loop_
 _atom_site_type_symbol
 _atom_site_label
 _atom_site_symmetry_multiplicity
 _atom_site_fract_x
 _atom_site_fract_y
 _atom_site_fract_z
 _atom_site_occupancy
  Yb  Yb0  1  0.99067600  0.75000000  0.29584800  1
  Yb  Yb1  1  0.00932400  0.25000000  0.70415200  1
  Yb  Yb2  1  0.50932400  0.25000000  0.79584800  1
  Yb  Yb3  1  0.49067600  0.75000000  0.20415200  1
  Yb  Yb4  1  0.12822100  0.25000000  0.03106900  1
  Yb  Yb5  1  0.87177900  0.75000000  0.96893100  1
  Yb  Yb6  1  0.37177900  0.75000000  0.53106900  1
  Yb  Yb7  1  0.62822100  0.25000000  0.46893100  1
  Mg  Mg0  1  0.16201100  0.25000000  0.47427800  1
  Mg  Mg1  1  0.83798900  0.75000000  0.52572200  1
  Mg  Mg2  1  0.33798900  0.75000000  0.97427800  1
  Mg  Mg3  1  0.66201100  0.25000000  0.02572200  1
  S  S0  1  0.22459500  0.44827800  0.83695900  1
  S  S1  1  0.77540500  0.55172200  0.16304100  1
  S  S2  1  0.27540500  0.55172200  0.33695900  1
  S  S3  1  0.72459500  0.44827800  0.66304100  1
  S  S4  1  0.72459500  0.05172200  0.66304100  1
  S  S5  1  0.27540500  0.94827800  0.33695900  1
  S  S6  1  0.77540500  0.94827800  0.16304100  1
  S  S7  1  0.22459500  0.05172200  0.83695900  1
  S  S8  1  0.91860700  0.25000000  0.41342200  1
  S  S9  1  0.08139300  0.75000000  0.58657800  1
  S  S10  1  0.58139300  0.75000000  0.91342200  1
  S  S11  1  0.41860700  0.25000000  0.08657800  1
  S  S12  1  0.12825400  0.75000000  0.09270900  1
  S  S13  1  0.87174600  0.25000000  0.90729100  1
  S  S14  1  0.37174600  0.25000000  0.59270900  1
  S  S15  1  0.62825400  0.75000000  0.40729100  1
loop_
_geom_bond_atom_site_label_1
_geom_bond_atom_site_label_2
_geom_bond_distance
_geom_bond_site_symmetry_2
Mg0 S8 2.392904 1_455
Mg0 S14 2.483397 1_555
Mg0 S2 2.610113 1_555
Mg0 S5 2.610113 1_545
Mg0 S9 3.094332 1_555
Mg0 S9 3.094332 1_545
Mg1 S9 2.392904 1_655
Mg1 S15 2.483397 1_555
Mg1 S3 2.610113 1_555
Mg1 S4 2.610113 1_565
Mg1 S8 3.094332 1_565
Mg1 S8 3.094332 1_555
Mg2 S10 2.392904 1_555
Mg2 S12 2.483397 1_556
Mg2 S0 2.610113 1_555
Mg2 S7 2.610113 1_565
Mg2 S11 3.094332 1_566
Mg2 S11 3.094332 1_556
Mg3 S11 2.392904 1_555
Mg3 S13 2.483397 1_554
Mg3 S6 2.610113 1_545
Mg3 S1 2.610113 1_555
Mg3 S10 3.094332 1_544
Mg3 S10 3.094332 1_554
S0 S7 2.079273 1_555
S0 Yb1 2.839746 1_555
S0 Yb4 2.877752 1_556
S0 Yb2 2.888311 1_555
S1 S6 2.079273 1_555
S1 Yb0 2.839746 1_555
S1 Yb5 2.877752 1_554
S1 Yb3 2.888311 1_555
S2 S5 2.079273 1_555
S2 Yb3 2.839746 1_555
S2 Yb6 2.877752 1_555
S2 Yb0 2.888311 1_455
S3 S4 2.079273 1_555
S3 Yb2 2.839746 1_555
S3 Yb7 2.877752 1_555
S3 Yb1 2.888311 1_655
S4 Yb2 2.839746 1_555
S4 Yb7 2.877752 1_555
S4 Yb1 2.888311 1_655
S5 Yb3 2.839746 1_555
S5 Yb6 2.877752 1_555
S5 Yb0 2.888311 1_455
S6 Yb0 2.839746 1_555
S6 Yb5 2.877752 1_554
S6 Yb3 2.888311 1_555
S7 Yb1 2.839746 1_555
S7 Yb4 2.877752 1_556
S7 Yb2 2.888311 1_555
S8 Yb7 2.788859 1_555
S8 Yb0 3.109434 1_545
S8 Yb0 3.109434 1_555
S9 Yb6 2.788859 1_555
S9 Yb1 3.109434 1_565
S9 Yb1 3.109434 1_555
S10 Yb5 2.788859 1_555
S10 Yb2 3.109434 1_555
S10 Yb2 3.109434 1_565
S11 Yb4 2.788859 1_555
S11 Yb3 3.109434 1_555
S11 Yb3 3.109434 1_545
S12 Yb4 2.742016 1_555
S12 Yb4 2.742016 1_565
S12 Yb5 2.874353 1_454
S12 Yb0 2.939268 1_455
S13 Yb5 2.742016 1_545
S13 Yb5 2.742016 1_555
S13 Yb4 2.874353 1_656
S13 Yb1 2.939268 1_655
S14 Yb6 2.742016 1_555
S14 Yb6 2.742016 1_545
S14 Yb7 2.874353 1_555
S14 Yb2 2.939268 1_555
S15 Yb7 2.742016 1_555
S15 Yb7 2.742016 1_565
S15 Yb6 2.874353 1_555
S15 Yb3 2.939268 1_555
