# generated using pymatgen
data_Hg6P4PbCl6
_symmetry_space_group_name_H-M   'P 1'
_cell_length_a   12.13087300
_cell_length_b   12.13087300
_cell_length_c   12.13087300
_cell_angle_alpha   90.00000000
_cell_angle_beta   90.00000000
_cell_angle_gamma   90.00000000
_symmetry_Int_Tables_number   1
_chemical_formula_structural   Hg6P4PbCl6
_chemical_formula_sum   'Hg24 P16 Pb4 Cl24'
_cell_volume   1785.15597628
_cell_formula_units_Z   4
loop_
 _symmetry_equiv_pos_site_id
 _symmetry_equiv_pos_as_xyz
  1  'x, y, z'
loop_
 _atom_site_type_symbol
 _atom_site_label
 _atom_site_symmetry_multiplicity
 _atom_site_fract_x
 _atom_site_fract_y
 _atom_site_fract_z
 _atom_site_occupancy
  Hg  Hg0  1  0.28474000  0.98445700  0.77640800  1
  Hg  Hg1  1  0.22359200  0.78474000  0.51554300  1
  Hg  Hg2  1  0.48445700  0.72359200  0.71526000  1
  Hg  Hg3  1  0.78474000  0.51554300  0.22359200  1
  Hg  Hg4  1  0.72359200  0.71526000  0.48445700  1
  Hg  Hg5  1  0.98445700  0.77640800  0.28474000  1
  Hg  Hg6  1  0.71526000  0.48445700  0.72359200  1
  Hg  Hg7  1  0.77640800  0.28474000  0.98445700  1
  Hg  Hg8  1  0.51554300  0.22359200  0.78474000  1
  Hg  Hg9  1  0.21526000  0.01554300  0.27640800  1
  Hg  Hg10  1  0.27640800  0.21526000  0.01554300  1
  Hg  Hg11  1  0.01554300  0.27640800  0.21526000  1
  Hg  Hg12  1  0.98601400  0.72984800  0.78346100  1
  Hg  Hg13  1  0.21653900  0.48601400  0.77015200  1
  Hg  Hg14  1  0.22984800  0.71653900  0.01398600  1
  Hg  Hg15  1  0.48601400  0.77015200  0.21653900  1
  Hg  Hg16  1  0.71653900  0.01398600  0.22984800  1
  Hg  Hg17  1  0.72984800  0.78346100  0.98601400  1
  Hg  Hg18  1  0.01398600  0.22984800  0.71653900  1
  Hg  Hg19  1  0.78346100  0.98601400  0.72984800  1
  Hg  Hg20  1  0.77015200  0.21653900  0.48601400  1
  Hg  Hg21  1  0.51398600  0.27015200  0.28346100  1
  Hg  Hg22  1  0.28346100  0.51398600  0.27015200  1
  Hg  Hg23  1  0.27015200  0.28346100  0.51398600  1
  P  P0  1  0.28854900  0.78854900  0.71145100  1
  P  P1  1  0.78854900  0.71145100  0.28854900  1
  P  P2  1  0.71145100  0.28854900  0.78854900  1
  P  P3  1  0.21145100  0.21145100  0.21145100  1
  P  P4  1  0.18334400  0.68334400  0.81665600  1
  P  P5  1  0.68334400  0.81665600  0.18334400  1
  P  P6  1  0.81665600  0.18334400  0.68334400  1
  P  P7  1  0.31665600  0.31665600  0.31665600  1
  P  P8  1  0.81528700  0.31528700  0.18471300  1
  P  P9  1  0.31528700  0.18471300  0.81528700  1
  P  P10  1  0.18471300  0.81528700  0.31528700  1
  P  P11  1  0.68471300  0.68471300  0.68471300  1
  P  P12  1  0.71041400  0.21041400  0.28958600  1
  P  P13  1  0.21041400  0.28958600  0.71041400  1
  P  P14  1  0.28958600  0.71041400  0.21041400  1
  P  P15  1  0.78958600  0.78958600  0.78958600  1
  Pb  Pb0  1  0.47786500  0.97786500  0.52213500  1
  Pb  Pb1  1  0.97786500  0.52213500  0.47786500  1
  Pb  Pb2  1  0.52213500  0.47786500  0.97786500  1
  Pb  Pb3  1  0.02213500  0.02213500  0.02213500  1
  Cl  Cl0  1  0.04206900  0.98572900  0.79567400  1
  Cl  Cl1  1  0.20432600  0.54206900  0.51427100  1
  Cl  Cl2  1  0.48572900  0.70432600  0.95793100  1
  Cl  Cl3  1  0.54206900  0.51427100  0.20432600  1
  Cl  Cl4  1  0.70432600  0.95793100  0.48572900  1
  Cl  Cl5  1  0.98572900  0.79567400  0.04206900  1
  Cl  Cl6  1  0.95793100  0.48572900  0.70432600  1
  Cl  Cl7  1  0.79567400  0.04206900  0.98572900  1
  Cl  Cl8  1  0.51427100  0.20432600  0.54206900  1
  Cl  Cl9  1  0.45793100  0.01427100  0.29567400  1
  Cl  Cl10  1  0.29567400  0.45793100  0.01427100  1
  Cl  Cl11  1  0.01427100  0.29567400  0.45793100  1
  Cl  Cl12  1  0.26860400  0.95358300  0.01995900  1
  Cl  Cl13  1  0.98004100  0.76860400  0.54641700  1
  Cl  Cl14  1  0.45358300  0.48004100  0.73139600  1
  Cl  Cl15  1  0.76860400  0.54641700  0.98004100  1
  Cl  Cl16  1  0.48004100  0.73139600  0.45358300  1
  Cl  Cl17  1  0.95358300  0.01995900  0.26860400  1
  Cl  Cl18  1  0.73139600  0.45358300  0.48004100  1
  Cl  Cl19  1  0.01995900  0.26860400  0.95358300  1
  Cl  Cl20  1  0.54641700  0.98004100  0.76860400  1
  Cl  Cl21  1  0.23139600  0.04641700  0.51995900  1
  Cl  Cl22  1  0.51995900  0.23139600  0.04641700  1
  Cl  Cl23  1  0.04641700  0.51995900  0.23139600  1
loop_
_geom_bond_atom_site_label_1
_geom_bond_atom_site_label_2
_geom_bond_distance
_geom_bond_site_symmetry_2
Hg0 P9 2.502231 1_565
Hg0 P0 2.504191 1_555
Hg1 P10 2.502231 1_555
Hg1 P0 2.504191 1_555
Hg2 P11 2.502231 1_555
Hg2 P0 2.504191 1_555
Hg3 P8 2.502231 1_555
Hg3 P1 2.504191 1_555
Hg4 P11 2.502231 1_555
Hg4 P1 2.504191 1_555
Hg5 P10 2.502231 1_655
Hg5 P1 2.504191 1_555
Hg6 P11 2.502231 1_555
Hg6 P2 2.504191 1_555
Hg7 P8 2.502231 1_556
Hg7 P2 2.504191 1_555
Hg8 P9 2.502231 1_555
Hg8 P2 2.504191 1_555
Hg9 P10 2.502231 1_545
Hg9 P3 2.504191 1_555
Hg10 P9 2.502231 1_554
Hg10 P3 2.504191 1_555
Hg11 P8 2.502231 1_455
Hg11 P3 2.504191 1_555
Hg12 P15 2.491709 1_555
Hg12 P4 2.492109 1_655
Hg13 P13 2.491709 1_555
Hg13 P4 2.492109 1_555
Hg14 P14 2.491709 1_555
Hg14 P4 2.492109 1_554
Hg15 P14 2.491709 1_555
Hg15 P5 2.492109 1_555
Hg16 P12 2.491709 1_555
Hg16 P5 2.492109 1_545
Hg17 P15 2.491709 1_555
Hg17 P5 2.492109 1_556
Hg18 P13 2.491709 1_555
Hg18 P6 2.492109 1_455
Hg19 P15 2.491709 1_555
Hg19 P6 2.492109 1_565
Hg20 P12 2.491709 1_555
Hg20 P6 2.492109 1_555
Hg21 P12 2.491709 1_555
Hg21 P7 2.492109 1_555
Hg22 P14 2.491709 1_555
Hg22 P7 2.492109 1_555
Hg23 P13 2.491709 1_555
Hg23 P7 2.492109 1_555
P0 P4 2.210493 1_555
P1 P5 2.210493 1_555
P2 P6 2.210493 1_555
P3 P7 2.210493 1_555
P10 P14 2.203517 1_555
P11 P15 2.203517 1_555
P12 P8 2.203517 1_555
P13 P9 2.203517 1_555
Cl0 Pb3 2.792930 1_566
Cl0 Hg0 2.953114 1_555
Cl1 Pb1 2.792930 1_455
Cl1 Hg1 2.953114 1_555
Cl2 Pb2 2.792930 1_555
Cl2 Hg2 2.953114 1_555
Cl3 Pb2 2.792930 1_554
Cl3 Hg3 2.953114 1_555
Cl4 Pb0 2.792930 1_555
Cl4 Hg4 2.953114 1_555
Cl5 Pb3 2.792930 1_665
Cl5 Hg5 2.953114 1_555
Cl6 Pb1 2.792930 1_555
Cl6 Hg6 2.953114 1_555
Cl7 Pb3 2.792930 1_656
Cl7 Hg7 2.953114 1_555
Cl8 Pb0 2.792930 1_545
Cl8 Hg8 2.953114 1_555
Cl9 Pb0 2.792930 1_545
Cl9 Hg9 2.953114 1_555
Cl10 Pb2 2.792930 1_554
Cl10 Hg10 2.953114 1_555
Cl11 Pb1 2.792930 1_455
Cl11 Hg11 2.953114 1_555
Cl12 Hg14 2.914632 1_555
Cl12 Hg0 2.984556 1_554
Cl12 Pb3 3.103491 1_565
Cl13 Hg12 2.914632 1_555
Cl13 Hg1 2.984556 1_655
Cl13 Pb1 3.103491 1_555
Cl14 Hg13 2.914632 1_555
Cl14 Hg2 2.984556 1_555
Cl14 Pb2 3.103491 1_555
Cl15 Hg17 2.914632 1_555
Cl15 Hg3 2.984556 1_556
Cl15 Pb2 3.103491 1_555
Cl16 Hg15 2.914632 1_555
Cl16 Hg4 2.984556 1_555
Cl16 Pb0 3.103491 1_555
Cl17 Hg16 2.914632 1_555
Cl17 Hg5 2.984556 1_545
Cl17 Pb3 3.103491 1_655
Cl18 Hg20 2.914632 1_555
Cl18 Hg6 2.984556 1_555
Cl18 Pb1 3.103491 1_555
Cl19 Hg18 2.914632 1_555
Cl19 Hg7 2.984556 1_455
Cl19 Pb3 3.103491 1_556
Cl20 Hg19 2.914632 1_555
Cl20 Hg8 2.984556 1_565
Cl20 Pb0 3.103491 1_555
Cl21 Hg23 2.914632 1_555
Cl21 Hg9 2.984556 1_555
Cl21 Pb0 3.103491 1_545
Cl22 Hg21 2.914632 1_555
Cl22 Hg10 2.984556 1_555
Cl22 Pb2 3.103491 1_554
Cl23 Hg22 2.914632 1_555
Cl23 Hg11 2.984556 1_555
Cl23 Pb1 3.103491 1_455
