# generated using pymatgen
data_Ho2CrS4
_symmetry_space_group_name_H-M   'P 1'
_cell_length_a   12.55513300
_cell_length_b   7.51114000
_cell_length_c   12.56375300
_cell_angle_alpha   90.00000000
_cell_angle_beta   90.00000000
_cell_angle_gamma   90.00000000
_symmetry_Int_Tables_number   1
_chemical_formula_structural   Ho2CrS4
_chemical_formula_sum   'Ho16 Cr8 S32'
_cell_volume   1184.80414324
_cell_formula_units_Z   8
loop_
 _symmetry_equiv_pos_site_id
 _symmetry_equiv_pos_as_xyz
  1  'x, y, z'
loop_
 _atom_site_type_symbol
 _atom_site_label
 _atom_site_symmetry_multiplicity
 _atom_site_fract_x
 _atom_site_fract_y
 _atom_site_fract_z
 _atom_site_occupancy
  Ho  Ho0  1  0.86543300  0.63450200  0.92083000  1
  Ho  Ho1  1  0.13456700  0.36549800  0.42083000  1
  Ho  Ho2  1  0.63456700  0.63450200  0.42083000  1
  Ho  Ho3  1  0.36543300  0.36549800  0.92083000  1
  Ho  Ho4  1  0.36519900  0.86513200  0.92589300  1
  Ho  Ho5  1  0.63480100  0.13486800  0.42589300  1
  Ho  Ho6  1  0.13480100  0.86513200  0.42589300  1
  Ho  Ho7  1  0.86519900  0.13486800  0.92589300  1
  Ho  Ho8  1  0.62476900  0.88520500  0.75454400  1
  Ho  Ho9  1  0.37523100  0.11479500  0.25454400  1
  Ho  Ho10  1  0.87523100  0.88520500  0.25454400  1
  Ho  Ho11  1  0.12476900  0.11479500  0.75454400  1
  Ho  Ho12  1  0.88982500  0.38769000  0.61498900  1
  Ho  Ho13  1  0.11017500  0.61231000  0.11498900  1
  Ho  Ho14  1  0.61017500  0.38769000  0.11498900  1
  Ho  Ho15  1  0.38982500  0.61231000  0.61498900  1
  Cr  Cr0  1  0.88108800  0.89441900  0.62439600  1
  Cr  Cr1  1  0.11891200  0.10558100  0.12439600  1
  Cr  Cr2  1  0.61891200  0.89441900  0.12439600  1
  Cr  Cr3  1  0.38108800  0.10558100  0.62439600  1
  Cr  Cr4  1  0.62427200  0.38570500  0.75077700  1
  Cr  Cr5  1  0.37572800  0.61429500  0.25077700  1
  Cr  Cr6  1  0.87572800  0.38570500  0.25077700  1
  Cr  Cr7  1  0.12427200  0.61429500  0.75077700  1
  S  S0  1  0.71111900  0.88455200  0.95208300  1
  S  S1  1  0.28888100  0.11544800  0.45208300  1
  S  S2  1  0.78888100  0.88455200  0.45208300  1
  S  S3  1  0.21111900  0.11544800  0.95208300  1
  S  S4  1  0.52459300  0.88599600  0.55903700  1
  S  S5  1  0.47540700  0.11400400  0.05903700  1
  S  S6  1  0.97540700  0.88599600  0.05903700  1
  S  S7  1  0.02459300  0.11400400  0.55903700  1
  S  S8  1  0.54973300  0.38324100  0.56873300  1
  S  S9  1  0.45026700  0.61675900  0.06873300  1
  S  S10  1  0.95026700  0.38324100  0.06873300  1
  S  S11  1  0.04973300  0.61675900  0.56873300  1
  S  S12  1  0.98823100  0.38325300  0.80823400  1
  S  S13  1  0.01176900  0.61674700  0.30823400  1
  S  S14  1  0.51176900  0.38325300  0.30823400  1
  S  S15  1  0.48823100  0.61674700  0.80823400  1
  S  S16  1  0.25717000  0.85265700  0.70314800  1
  S  S17  1  0.74283000  0.14734300  0.20314800  1
  S  S18  1  0.24283000  0.85265700  0.20314800  1
  S  S19  1  0.75717000  0.14734300  0.70314800  1
  S  S20  1  0.76853900  0.64176500  0.70113300  1
  S  S21  1  0.23146100  0.35823500  0.20113300  1
  S  S22  1  0.73146100  0.64176500  0.20113300  1
  S  S23  1  0.26853900  0.35823500  0.70113300  1
  S  S24  1  0.96856900  0.88106700  0.79613500  1
  S  S25  1  0.03143100  0.11893300  0.29613500  1
  S  S26  1  0.53143100  0.88106700  0.29613500  1
  S  S27  1  0.46856900  0.11893300  0.79613500  1
  S  S28  1  0.70812700  0.38522800  0.92506800  1
  S  S29  1  0.29187300  0.61477200  0.42506800  1
  S  S30  1  0.79187300  0.38522800  0.42506800  1
  S  S31  1  0.20812700  0.61477200  0.92506800  1
loop_
_geom_bond_atom_site_label_1
_geom_bond_atom_site_label_2
_geom_bond_distance
_geom_bond_site_symmetry_2
Ho0 S28 2.721962 1_555
Ho0 S0 2.726777 1_555
Ho0 S24 2.749714 1_555
Ho0 S12 2.817720 1_555
Ho0 S10 2.854672 1_556
Ho0 S6 2.913737 1_556
Ho0 S20 3.016902 1_555
Ho1 S29 2.721962 1_555
Ho1 S1 2.726777 1_555
Ho1 S25 2.749714 1_555
Ho1 S13 2.817720 1_555
Ho1 S11 2.854672 1_555
Ho1 S7 2.913737 1_555
Ho1 S21 3.016902 1_555
Ho2 S30 2.721962 1_555
Ho2 S2 2.726777 1_555
Ho2 S26 2.749714 1_555
Ho2 S14 2.817720 1_555
Ho2 S8 2.854672 1_555
Ho2 S4 2.913737 1_555
Ho2 S22 3.016902 1_555
Ho3 S31 2.721962 1_555
Ho3 S3 2.726777 1_555
Ho3 S27 2.749714 1_555
Ho3 S15 2.817720 1_555
Ho3 S9 2.854672 1_556
Ho3 S5 2.913737 1_556
Ho3 S23 3.016902 1_555
Ho4 S3 2.717634 1_565
Ho4 S31 2.724953 1_555
Ho4 S9 2.800295 1_556
Ho4 S27 2.824211 1_565
Ho4 S15 2.837587 1_555
Ho4 S5 2.864805 1_566
Ho4 S16 3.111279 1_555
Ho5 S2 2.717634 1_545
Ho5 S30 2.724953 1_555
Ho5 S8 2.800295 1_555
Ho5 S26 2.824211 1_545
Ho5 S14 2.837587 1_555
Ho5 S4 2.864805 1_545
Ho5 S17 3.111279 1_555
Ho6 S1 2.717634 1_565
Ho6 S29 2.724953 1_555
Ho6 S11 2.800295 1_555
Ho6 S25 2.824211 1_565
Ho6 S13 2.837587 1_555
Ho6 S7 2.864805 1_565
Ho6 S18 3.111279 1_555
Ho7 S0 2.717634 1_545
Ho7 S28 2.724953 1_555
Ho7 S10 2.800295 1_556
Ho7 S24 2.824211 1_545
Ho7 S12 2.837587 1_555
Ho7 S6 2.864805 1_546
Ho7 S19 3.111279 1_555
Ho8 S20 2.655554 1_555
Ho8 S19 2.656507 1_565
Ho8 S27 2.683470 1_565
Ho8 S0 2.708295 1_555
Ho8 S15 2.731236 1_555
Ho8 S4 2.759587 1_555
Ho9 S21 2.655554 1_555
Ho9 S18 2.656507 1_545
Ho9 S26 2.683470 1_545
Ho9 S1 2.708295 1_555
Ho9 S14 2.731236 1_555
Ho9 S5 2.759587 1_555
Ho10 S22 2.655554 1_555
Ho10 S17 2.656507 1_565
Ho10 S25 2.683470 1_665
Ho10 S2 2.708295 1_555
Ho10 S13 2.731236 1_655
Ho10 S6 2.759587 1_555
Ho11 S23 2.655554 1_555
Ho11 S16 2.656507 1_545
Ho11 S24 2.683470 1_445
Ho11 S3 2.708295 1_555
Ho11 S12 2.731236 1_455
Ho11 S7 2.759587 1_555
Ho12 S20 2.670603 1_555
Ho12 S30 2.684459 1_555
Ho12 S19 2.694388 1_555
Ho12 S11 2.707179 1_655
Ho12 S12 2.724369 1_555
Ho12 S7 2.753726 1_655
Ho13 S21 2.670603 1_555
Ho13 S31 2.684459 1_554
Ho13 S18 2.694388 1_555
Ho13 S10 2.707179 1_455
Ho13 S13 2.724369 1_555
Ho13 S6 2.753726 1_455
Ho14 S22 2.670603 1_555
Ho14 S28 2.684459 1_554
Ho14 S17 2.694388 1_555
Ho14 S9 2.707179 1_555
Ho14 S14 2.724369 1_555
Ho14 S5 2.753726 1_555
Ho15 S23 2.670603 1_555
Ho15 S29 2.684459 1_555
Ho15 S16 2.694388 1_555
Ho15 S8 2.707179 1_555
Ho15 S15 2.724369 1_555
Ho15 S4 2.753726 1_555
Cr0 S24 2.423223 1_555
Cr0 S2 2.456110 1_555
Cr0 S20 2.554916 1_555
Cr0 S7 2.576976 1_665
Cr0 S19 2.647363 1_565
Cr0 S11 3.053158 1_655
Cr1 S25 2.423223 1_555
Cr1 S3 2.456110 1_554
Cr1 S21 2.554916 1_555
Cr1 S6 2.576976 1_445
Cr1 S18 2.647363 1_545
Cr1 S10 3.053158 1_455
Cr2 S26 2.423223 1_555
Cr2 S0 2.456110 1_554
Cr2 S22 2.554916 1_555
Cr2 S5 2.576976 1_565
Cr2 S17 2.647363 1_565
Cr2 S9 3.053158 1_555
Cr3 S27 2.423223 1_555
Cr3 S1 2.456110 1_555
Cr3 S23 2.554916 1_555
Cr3 S4 2.576976 1_545
Cr3 S16 2.647363 1_545
Cr3 S8 3.053158 1_555
Cr4 S28 2.429696 1_555
Cr4 S8 2.471282 1_555
Cr4 S19 2.519439 1_555
Cr4 S15 2.539682 1_555
Cr4 S20 2.714570 1_555
Cr4 S27 2.856805 1_555
Cr5 S29 2.429696 1_555
Cr5 S9 2.471282 1_555
Cr5 S18 2.519439 1_555
Cr5 S14 2.539682 1_555
Cr5 S21 2.714570 1_555
Cr5 S26 2.856805 1_555
Cr6 S30 2.429696 1_555
Cr6 S10 2.471282 1_555
Cr6 S17 2.519439 1_555
Cr6 S13 2.539682 1_655
Cr6 S22 2.714570 1_555
Cr6 S25 2.856805 1_655
Cr7 S31 2.429696 1_555
Cr7 S11 2.471282 1_555
Cr7 S16 2.519439 1_555
Cr7 S12 2.539682 1_455
Cr7 S23 2.714570 1_555
Cr7 S24 2.856805 1_455
