# generated using pymatgen
data_DyMgMnS4
_symmetry_space_group_name_H-M   'P 1'
_cell_length_a   7.74106626
_cell_length_b   7.55652854
_cell_length_c   7.55628571
_cell_angle_alpha   60.18353225
_cell_angle_beta   59.17145785
_cell_angle_gamma   59.20400402
_symmetry_Int_Tables_number   1
_chemical_formula_structural   DyMgMnS4
_chemical_formula_sum   'Dy2 Mg2 Mn2 S8'
_cell_volume   309.07027956
_cell_formula_units_Z   2
loop_
 _symmetry_equiv_pos_site_id
 _symmetry_equiv_pos_as_xyz
  1  'x, y, z'
loop_
 _atom_site_type_symbol
 _atom_site_label
 _atom_site_symmetry_multiplicity
 _atom_site_fract_x
 _atom_site_fract_y
 _atom_site_fract_z
 _atom_site_occupancy
  Dy  Dy0  1  0.49998200  0.49999600  0.49998800  1
  Dy  Dy1  1  0.00003100  0.49999900  0.50004500  1
  Mg  Mg0  1  0.87588500  0.87407100  0.87419300  1
  Mg  Mg1  1  0.12407000  0.12595700  0.12588500  1
  Mn  Mn0  1  0.50016400  0.50003100  0.99966800  1
  Mn  Mn1  1  0.49993300  0.99989000  0.50004900  1
  S  S0  1  0.71502800  0.75510500  0.75527100  1
  S  S1  1  0.27039900  0.23163600  0.72744300  1
  S  S2  1  0.27054100  0.72746200  0.23164900  1
  S  S3  1  0.72534600  0.24473500  0.24500200  1
  S  S4  1  0.72945800  0.27254800  0.76835900  1
  S  S5  1  0.27460500  0.75528200  0.75505200  1
  S  S6  1  0.28494600  0.24492500  0.24479200  1
  S  S7  1  0.72961700  0.76835600  0.27260400  1
loop_
_geom_bond_atom_site_label_1
_geom_bond_atom_site_label_2
_geom_bond_distance
_geom_bond_site_symmetry_2
Dy0 S3 2.698411 1_555
Dy0 S5 2.698977 1_555
Dy0 S1 2.705252 1_555
Dy0 S2 2.705483 1_555
Dy0 S7 2.705579 1_555
Dy0 S4 2.705873 1_555
Dy1 S6 2.698820 1_555
Dy1 S0 2.698902 1_455
Dy1 S2 2.705303 1_555
Dy1 S1 2.705564 1_555
Dy1 S4 2.705569 1_455
Dy1 S7 2.706031 1_455
Mg0 S7 2.454431 1_556
Mg0 S4 2.455740 1_565
Mg0 S5 2.502297 1_655
Mg0 S0 2.502520 1_555
Mg1 S1 2.454638 1_554
Mg1 S2 2.455878 1_545
Mg1 S3 2.502348 1_455
Mg1 S6 2.502569 1_555
Mn0 S4 2.417471 1_555
Mn0 S2 2.420755 1_556
Mn0 S0 2.546924 1_555
Mn0 S6 2.549014 1_556
Mn0 S5 2.549425 1_555
Mn0 S3 2.551288 1_556
Mn1 S7 2.418475 1_555
Mn1 S1 2.419330 1_565
Mn1 S5 2.546879 1_555
Mn1 S3 2.548589 1_565
Mn1 S6 2.549801 1_565
Mn1 S0 2.550138 1_555
