# generated using pymatgen
data_Ca2YAgO5
_symmetry_space_group_name_H-M   'P 1'
_cell_length_a   8.77173502
_cell_length_b   8.77173502
_cell_length_c   5.80271074
_cell_angle_alpha   71.36279413
_cell_angle_beta   71.36279413
_cell_angle_gamma   39.71225884
_symmetry_Int_Tables_number   1
_chemical_formula_structural   Ca2YAgO5
_chemical_formula_sum   'Ca4 Y2 Ag2 O10'
_cell_volume   268.29884500
_cell_formula_units_Z   2
loop_
 _symmetry_equiv_pos_site_id
 _symmetry_equiv_pos_as_xyz
  1  'x, y, z'
loop_
 _atom_site_type_symbol
 _atom_site_label
 _atom_site_symmetry_multiplicity
 _atom_site_fract_x
 _atom_site_fract_y
 _atom_site_fract_z
 _atom_site_occupancy
  Ca  Ca0  1  0.57835200  0.13194200  0.92187000  1
  Ca  Ca1  1  0.86529400  0.42207600  0.63785500  1
  Ca  Ca2  1  0.42207600  0.86529400  0.13785500  1
  Ca  Ca3  1  0.13194200  0.57835200  0.42187000  1
  Y  Y0  1  0.20266100  0.79615600  0.80518600  1
  Y  Y1  1  0.79615600  0.20266100  0.30518600  1
  Ag  Ag0  1  0.49870700  0.99994900  0.49368500  1
  Ag  Ag1  1  0.99994900  0.49870700  0.99368500  1
  O  O0  1  0.14445600  0.85291400  0.18490900  1
  O  O1  1  0.85291400  0.14445600  0.68490900  1
  O  O2  1  0.52315500  0.25629200  0.27370300  1
  O  O3  1  0.47717800  0.73909700  0.55485800  1
  O  O4  1  0.25629200  0.52315500  0.77370300  1
  O  O5  1  0.73909700  0.47717800  0.05485800  1
  O  O6  1  0.19655300  0.23122400  0.29221200  1
  O  O7  1  0.79201600  0.77475200  0.20932000  1
  O  O8  1  0.77475200  0.79201600  0.70932000  1
  O  O9  1  0.23122400  0.19655300  0.79221200  1
loop_
_geom_bond_atom_site_label_1
_geom_bond_atom_site_label_2
_geom_bond_distance
_geom_bond_site_symmetry_2
Ca0 O4 2.290751 1_555
Ca0 O2 2.360353 1_556
Ca0 O7 2.394763 1_546
Ca0 O1 2.428316 1_555
Ca0 O8 2.543458 1_545
Ca0 O9 2.948799 1_555
Ca0 O6 2.949841 1_556
Ca1 O3 2.276330 1_555
Ca1 O5 2.350853 1_556
Ca1 O9 2.440178 1_655
Ca1 O1 2.445306 1_555
Ca1 O6 2.491097 1_655
Ca1 O8 2.831488 1_555
Ca1 O7 3.035192 1_555
Ca2 O5 2.276330 1_555
Ca2 O3 2.350853 1_555
Ca2 O6 2.440178 1_565
Ca2 O0 2.445306 1_555
Ca2 O9 2.491097 1_564
Ca2 O7 2.831488 1_555
Ca2 O8 3.035192 1_554
Ca3 O2 2.290751 1_555
Ca3 O4 2.360353 1_555
Ca3 O8 2.394763 1_455
Ca3 O0 2.428316 1_555
Ca3 O7 2.543458 1_455
Ca3 O6 2.948799 1_555
Ca3 O9 2.949841 1_555
Ag0 O8 2.106782 1_555
Ag0 O9 2.136866 1_565
Ag0 O6 2.167757 1_565
Ag0 O7 2.189744 1_555
Ag0 O2 2.337496 1_565
Ag0 O3 2.345211 1_555
Ag1 O7 2.106782 1_556
Ag1 O6 2.136866 1_656
Ag1 O9 2.167757 1_655
Ag1 O8 2.189744 1_555
Ag1 O4 2.337496 1_655
Ag1 O5 2.345211 1_556
O0 Y1 2.195069 1_465
O0 Y0 2.225906 1_554
O1 Y0 2.195069 1_645
O1 Y1 2.225906 1_555
O2 Y1 2.116765 1_555
O3 Y0 2.129254 1_555
O4 Y0 2.116765 1_555
O5 Y1 2.129254 1_555
