# generated using pymatgen
data_TlV3CdCu4O13
_symmetry_space_group_name_H-M   'P 1'
_cell_length_a   6.37214300
_cell_length_b   8.47384100
_cell_length_c   10.95284097
_cell_angle_alpha   82.79834951
_cell_angle_beta   90.00000000
_cell_angle_gamma   90.00000000
_symmetry_Int_Tables_number   1
_chemical_formula_structural   TlV3CdCu4O13
_chemical_formula_sum   'Tl2 V6 Cd2 Cu8 O26'
_cell_volume   586.74974665
_cell_formula_units_Z   2
loop_
 _symmetry_equiv_pos_site_id
 _symmetry_equiv_pos_as_xyz
  1  'x, y, z'
loop_
 _atom_site_type_symbol
 _atom_site_label
 _atom_site_symmetry_multiplicity
 _atom_site_fract_x
 _atom_site_fract_y
 _atom_site_fract_z
 _atom_site_occupancy
  Tl  Tl0  1  0.25000000  0.51033200  0.10171400  1
  Tl  Tl1  1  0.75000000  0.48966800  0.89828600  1
  V  V0  1  0.25000000  0.13947800  0.99229700  1
  V  V1  1  0.75000000  0.86052200  0.00770300  1
  V  V2  1  0.25000000  0.46266100  0.70119600  1
  V  V3  1  0.75000000  0.53733900  0.29880400  1
  V  V4  1  0.25000000  0.17485200  0.37895200  1
  V  V5  1  0.75000000  0.82514800  0.62104800  1
  Cd  Cd0  1  0.25000000  0.80322800  0.86151000  1
  Cd  Cd1  1  0.75000000  0.19677200  0.13849000  1
  Cu  Cu0  1  0.50134000  0.88995900  0.28100400  1
  Cu  Cu1  1  0.49866000  0.11004100  0.71899600  1
  Cu  Cu2  1  0.00134000  0.11004100  0.71899600  1
  Cu  Cu3  1  0.99866000  0.88995900  0.28100400  1
  Cu  Cu4  1  0.25000000  0.85452400  0.55913800  1
  Cu  Cu5  1  0.75000000  0.14547600  0.44086200  1
  Cu  Cu6  1  0.25000000  0.59920000  0.39156300  1
  Cu  Cu7  1  0.75000000  0.40080000  0.60843700  1
  O  O0  1  0.25000000  0.37539500  0.38013700  1
  O  O1  1  0.75000000  0.62460500  0.61986300  1
  O  O2  1  0.25000000  0.08617800  0.53120500  1
  O  O3  1  0.75000000  0.91382200  0.46879500  1
  O  O4  1  0.25000000  0.61957400  0.57825300  1
  O  O5  1  0.75000000  0.38042600  0.42174700  1
  O  O6  1  0.50972300  0.88334000  0.69265100  1
  O  O7  1  0.49027700  0.11666000  0.30734900  1
  O  O8  1  0.00972300  0.11666000  0.30734900  1
  O  O9  1  0.99027700  0.88334000  0.69265100  1
  O  O10  1  0.25000000  0.84105000  0.37762600  1
  O  O11  1  0.75000000  0.15895000  0.62237400  1
  O  O12  1  0.25000000  0.97580100  0.09717400  1
  O  O13  1  0.75000000  0.02419900  0.90282600  1
  O  O14  1  0.25000000  0.07775200  0.82768600  1
  O  O15  1  0.75000000  0.92224800  0.17231400  1
  O  O16  1  0.46646800  0.25400300  0.01816700  1
  O  O17  1  0.53353200  0.74599700  0.98183300  1
  O  O18  1  0.96646800  0.74599700  0.98183300  1
  O  O19  1  0.03353200  0.25400300  0.01816700  1
  O  O20  1  0.25000000  0.54516100  0.83474500  1
  O  O21  1  0.75000000  0.45483900  0.16525500  1
  O  O22  1  0.97723000  0.65950700  0.29847800  1
  O  O23  1  0.02277000  0.34049300  0.70152200  1
  O  O24  1  0.47723000  0.34049300  0.70152200  1
  O  O25  1  0.52277000  0.65950700  0.29847800  1
loop_
_geom_bond_atom_site_label_1
_geom_bond_atom_site_label_2
_geom_bond_distance
_geom_bond_site_symmetry_2
Cd0 O20 2.242509 1_555
Cd0 O18 2.252985 1_455
Cd0 O17 2.252985 1_555
Cd0 O14 2.309267 1_565
Cd0 O9 2.511105 1_455
Cd0 O6 2.511105 1_555
Cd1 O21 2.242509 1_555
Cd1 O19 2.252985 1_655
Cd1 O16 2.252985 1_555
Cd1 O15 2.309267 1_545
Cd1 O8 2.511105 1_655
Cd1 O7 2.511105 1_555
Cu0 O10 1.935667 1_555
Cu0 O25 1.942949 1_555
Cu0 O7 1.979283 1_565
Cu0 O15 1.980160 1_555
Cu1 O11 1.935667 1_555
Cu1 O24 1.942949 1_555
Cu1 O6 1.979283 1_545
Cu1 O14 1.980160 1_555
Cu2 O11 1.935667 1_455
Cu2 O23 1.942949 1_555
Cu2 O9 1.979283 1_445
Cu2 O14 1.980160 1_555
Cu3 O10 1.935667 1_655
Cu3 O22 1.942949 1_555
Cu3 O8 1.979283 1_665
Cu3 O15 1.980160 1_555
Cu4 O2 1.948433 1_565
Cu4 O4 1.975632 1_555
Cu4 O10 2.005587 1_555
Cu4 O9 2.242010 1_455
Cu4 O6 2.242010 1_555
Cu5 O3 1.948433 1_545
Cu5 O5 1.975632 1_555
Cu5 O11 2.005587 1_555
Cu5 O7 2.242010 1_555
Cu5 O8 2.242010 1_655
Cu6 O0 1.916203 1_555
Cu6 O10 2.035903 1_555
Cu6 O22 2.047215 1_455
Cu6 O25 2.047215 1_555
Cu6 O4 2.073516 1_555
Cu7 O1 1.916203 1_555
Cu7 O11 2.035903 1_555
Cu7 O23 2.047215 1_655
Cu7 O24 2.047215 1_555
Cu7 O5 2.073516 1_555
O0 V4 1.701045 1_555
O1 V5 1.701045 1_555
O2 V4 1.741076 1_555
O3 V5 1.741076 1_555
O4 V2 1.769840 1_555
O5 V3 1.769840 1_555
O6 V5 1.816420 1_555
O7 V4 1.816420 1_555
O8 V4 1.816420 1_555
O9 V5 1.816420 1_555
O12 V0 1.686342 1_564
O13 V1 1.686342 1_546
O14 V0 1.939250 1_555
O15 V1 1.939250 1_555
O16 V0 1.730227 1_554
O16 Tl0 2.820698 1_555
O16 Tl1 2.884231 1_554
O17 V1 1.730227 1_556
O17 Tl1 2.820698 1_555
O17 Tl0 2.884231 1_556
O18 V1 1.730227 1_556
O18 Tl1 2.820698 1_555
O18 Tl0 2.884231 1_656
O19 V0 1.730227 1_554
O19 Tl0 2.820698 1_555
O19 Tl1 2.884231 1_454
O20 V2 1.698449 1_555
O20 Tl0 2.901881 1_556
O21 V3 1.698449 1_555
O21 Tl1 2.901881 1_554
O22 V3 1.779699 1_555
O23 V2 1.779699 1_555
O24 V2 1.779699 1_555
O25 V3 1.779699 1_555
