# generated using pymatgen
data_Li9Mn2Co5O16
_symmetry_space_group_name_H-M   'P 1'
_cell_length_a   5.89021000
_cell_length_b   6.65323408
_cell_length_c   7.69288492
_cell_angle_alpha   90.28473728
_cell_angle_beta   100.39122376
_cell_angle_gamma   103.44109743
_symmetry_Int_Tables_number   1
_chemical_formula_structural   Li9Mn2Co5O16
_chemical_formula_sum   'Li9 Mn2 Co5 O16'
_cell_volume   288.06266949
_cell_formula_units_Z   1
loop_
 _symmetry_equiv_pos_site_id
 _symmetry_equiv_pos_as_xyz
  1  'x, y, z'
loop_
 _atom_site_type_symbol
 _atom_site_label
 _atom_site_symmetry_multiplicity
 _atom_site_fract_x
 _atom_site_fract_y
 _atom_site_fract_z
 _atom_site_occupancy
  Li  Li0  1  0.74976900  0.24125500  0.75912900  1
  Li  Li1  1  0.37873800  0.87624400  0.62741700  1
  Li  Li2  1  0.12974600  0.63250700  0.87854200  1
  Li  Li3  1  0.50000000  0.00000000  0.00000000  1
  Li  Li4  1  0.87025400  0.36749300  0.12145800  1
  Li  Li5  1  0.25023100  0.75874500  0.24087100  1
  Li  Li6  1  0.62126200  0.12375600  0.37258300  1
  Li  Li7  1  0.00000000  0.50000000  0.50000000  1
  Li  Li8  1  0.00000000  0.00000000  0.00000000  1
  Mn  Mn0  1  0.87838500  0.87660700  0.62830900  1
  Mn  Mn1  1  0.12161500  0.12339300  0.37169100  1
  Co  Co0  1  0.50000000  0.50000000  0.50000000  1
  Co  Co1  1  0.74851000  0.75514000  0.24109200  1
  Co  Co2  1  0.36734200  0.36922100  0.12229400  1
  Co  Co3  1  0.63265800  0.63077900  0.87770600  1
  Co  Co4  1  0.25149000  0.24486000  0.75890800  1
  O  O0  1  0.69805100  0.92656400  0.79915600  1
  O  O1  1  0.33719200  0.55690900  0.68609900  1
  O  O2  1  0.08988900  0.31961800  0.93406300  1
  O  O3  1  0.44304400  0.68189400  0.06465800  1
  O  O4  1  0.83087800  0.05978100  0.20229200  1
  O  O5  1  0.18336100  0.41354900  0.31899900  1
  O  O6  1  0.58790300  0.80739900  0.44129800  1
  O  O7  1  0.94442900  0.16714400  0.56159500  1
  O  O8  1  0.81663900  0.58645100  0.68100100  1
  O  O9  1  0.41209700  0.19260100  0.55870200  1
  O  O10  1  0.16912200  0.94021900  0.79770800  1
  O  O11  1  0.55695600  0.31810600  0.93534200  1
  O  O12  1  0.91011100  0.68038200  0.06593700  1
  O  O13  1  0.30194900  0.07343600  0.20084400  1
  O  O14  1  0.66280800  0.44309100  0.31390100  1
  O  O15  1  0.05557100  0.83285600  0.43840500  1
loop_
_geom_bond_atom_site_label_1
_geom_bond_atom_site_label_2
_geom_bond_distance
_geom_bond_site_symmetry_2
Li0 O11 2.051178 1_555
Li0 O0 2.077254 1_545
Li0 O2 2.152039 1_655
Li0 O7 2.179658 1_555
Li0 O9 2.242216 1_555
Li0 O8 2.338727 1_555
Li1 O0 2.049766 1_555
Li1 O10 2.060107 1_555
Li1 O15 2.136095 1_555
Li1 O1 2.141337 1_555
Li1 O9 2.145804 1_565
Li1 O6 2.160993 1_555
Li2 O3 2.079350 1_556
Li2 O2 2.094976 1_555
Li2 O10 2.115603 1_555
Li2 O8 2.127488 1_455
Li2 O12 2.170973 1_456
Li2 O1 2.206490 1_555
Li3 O11 2.140053 1_554
Li3 O3 2.140053 1_545
Li3 O13 2.212350 1_555
Li3 O0 2.212350 1_544
Li3 O4 2.217596 1_555
Li3 O10 2.217596 1_544
Li4 O11 2.079350 1_554
Li4 O12 2.094976 1_555
Li4 O4 2.115603 1_555
Li4 O5 2.127488 1_655
Li4 O2 2.170973 1_654
Li4 O14 2.206490 1_555
Li5 O3 2.051178 1_555
Li5 O13 2.077254 1_565
Li5 O12 2.152039 1_455
Li5 O15 2.179658 1_555
Li5 O6 2.242216 1_555
Li5 O5 2.338727 1_555
Li6 O13 2.049766 1_555
Li6 O4 2.060107 1_555
Li6 O7 2.136095 1_555
Li6 O14 2.141337 1_555
Li6 O6 2.145804 1_545
Li6 O9 2.160993 1_555
Li7 O8 2.063849 1_455
Li7 O5 2.063849 1_555
Li7 O14 2.181043 1_455
Li7 O1 2.181043 1_555
Li7 O7 2.228312 1_455
Li7 O15 2.228312 1_555
Li8 O10 2.075957 1_544
Li8 O4 2.075957 1_455
Li8 O13 2.094373 1_555
Li8 O0 2.094373 1_444
Li8 O12 2.154945 1_445
Li8 O2 2.154945 1_554
Mn0 O0 1.905139 1_555
Mn0 O10 1.913781 1_655
Mn0 O8 1.938525 1_555
Mn0 O7 1.970675 1_565
Mn0 O6 1.987072 1_555
Mn0 O15 1.998809 1_655
Mn1 O13 1.905139 1_555
Mn1 O4 1.913781 1_455
Mn1 O5 1.938525 1_555
Mn1 O15 1.970675 1_545
Mn1 O9 1.987072 1_555
Mn1 O7 1.998809 1_455
Co0 O14 1.941970 1_555
Co0 O1 1.941970 1_555
Co0 O6 2.063028 1_555
Co0 O9 2.063028 1_555
Co0 O8 2.074767 1_555
Co0 O5 2.074767 1_555
Co1 O12 1.909231 1_555
Co1 O3 2.005463 1_555
Co1 O4 2.008405 1_565
Co1 O6 2.015219 1_555
Co1 O15 2.099930 1_655
Co1 O14 2.122550 1_555
Co2 O2 1.940971 1_554
Co2 O14 2.028018 1_555
Co2 O13 2.032152 1_555
Co2 O11 2.045146 1_554
Co2 O5 2.070489 1_555
Co2 O3 2.090996 1_555
Co3 O12 1.940971 1_556
Co3 O1 2.028018 1_555
Co3 O0 2.032152 1_555
Co3 O3 2.045146 1_556
Co3 O8 2.070489 1_555
Co3 O11 2.090996 1_555
Co4 O2 1.909231 1_555
Co4 O11 2.005463 1_555
Co4 O10 2.008405 1_545
Co4 O9 2.015219 1_555
Co4 O7 2.099930 1_455
Co4 O1 2.122550 1_555
