# generated using pymatgen
data_Li3Mn2O5
_symmetry_space_group_name_H-M   'P 1'
_cell_length_a   2.97560299
_cell_length_b   8.21687596
_cell_length_c   7.84430776
_cell_angle_alpha   75.08669655
_cell_angle_beta   96.60911258
_cell_angle_gamma   89.59592954
_symmetry_Int_Tables_number   1
_chemical_formula_structural   Li3Mn2O5
_chemical_formula_sum   'Li6 Mn4 O10'
_cell_volume   183.96818957
_cell_formula_units_Z   2
loop_
 _symmetry_equiv_pos_site_id
 _symmetry_equiv_pos_as_xyz
  1  'x, y, z'
loop_
 _atom_site_type_symbol
 _atom_site_label
 _atom_site_symmetry_multiplicity
 _atom_site_fract_x
 _atom_site_fract_y
 _atom_site_fract_z
 _atom_site_occupancy
  Li  Li0  1  0.59990900  0.70002700  0.19999000  1
  Li  Li1  1  0.59994100  0.20003500  0.19995900  1
  Li  Li2  1  0.73690900  0.10714800  0.57617600  1
  Li  Li3  1  0.46299000  0.29295000  0.82381500  1
  Li  Li4  1  0.00045000  0.47963600  0.00111100  1
  Li  Li5  1  0.19943700  0.92035300  0.39891700  1
  Mn  Mn0  1  0.17404200  0.39379400  0.39181500  1
  Mn  Mn1  1  0.78077700  0.60274900  0.59499200  1
  Mn  Mn2  1  0.02598500  0.00615600  0.00822100  1
  Mn  Mn3  1  0.41933900  0.79719700  0.80503100  1
  O  O0  1  0.46667200  0.03367700  0.82991600  1
  O  O1  1  0.73336800  0.36629100  0.57007600  1
  O  O2  1  0.62005000  0.44317500  0.22387700  1
  O  O3  1  0.58000800  0.95681000  0.17612400  1
  O  O4  1  0.77536600  0.84151200  0.60529200  1
  O  O5  1  0.42474700  0.55845400  0.79469900  1
  O  O6  1  0.01621900  0.23242300  0.99533400  1
  O  O7  1  0.18368100  0.16760600  0.40463500  1
  O  O8  1  0.15553300  0.63654100  0.40525100  1
  O  O9  1  0.04458000  0.76346600  0.99477000  1
loop_
_geom_bond_atom_site_label_1
_geom_bond_atom_site_label_2
_geom_bond_distance
_geom_bond_site_symmetry_2
Li0 O3 2.069500 1_555
Li0 O2 2.070044 1_555
Li0 O9 2.130108 1_554
Li0 O8 2.130922 1_655
Li0 O8 2.163464 1_555
Li0 O9 2.163815 1_654
Li1 O2 2.054806 1_555
Li1 O3 2.055268 1_545
Li1 O6 2.103350 1_654
Li1 O7 2.103611 1_555
Li1 O6 2.189988 1_554
Li1 O7 2.190245 1_655
Li2 O7 1.975312 1_655
Li2 O7 1.975323 1_555
Li2 O1 2.117460 1_555
Li2 O4 2.136187 1_545
Li2 O0 2.174763 1_555
Li3 O6 1.975236 1_555
Li3 O6 1.975275 1_655
Li3 O0 2.118524 1_555
Li3 O5 2.135088 1_555
Li3 O1 2.174909 1_555
Li4 O6 2.043780 1_554
Li4 O5 2.139503 1_554
Li4 O2 2.148299 1_455
Li4 O5 2.186738 1_454
Li4 O9 2.324859 1_554
Li4 O2 2.350239 1_555
Li5 O7 2.043978 1_565
Li5 O4 2.138851 1_455
Li5 O3 2.148795 1_555
Li5 O4 2.187058 1_555
Li5 O8 2.324680 1_555
Li5 O3 2.350017 1_455
Mn0 O7 1.835091 1_555
Mn0 O2 1.948407 1_555
Mn0 O2 1.957816 1_455
Mn0 O1 1.997359 1_455
Mn0 O1 2.018101 1_555
Mn0 O8 2.025006 1_555
Mn1 O8 1.926033 1_655
Mn1 O5 1.950107 1_555
Mn1 O4 1.984245 1_555
Mn1 O1 2.006520 1_555
Mn1 O8 2.212769 1_555
Mn1 O5 2.294363 1_655
Mn2 O6 1.835631 1_554
Mn2 O3 1.948133 1_445
Mn2 O3 1.957735 1_545
Mn2 O0 1.997636 1_554
Mn2 O0 2.018258 1_454
Mn2 O9 2.024582 1_544
Mn3 O9 1.926052 1_555
Mn3 O4 1.950304 1_555
Mn3 O5 1.984155 1_555
Mn3 O0 2.006602 1_565
Mn3 O9 2.212780 1_655
Mn3 O4 2.294503 1_455
