# generated using pymatgen
data_Li7Mn5O12
_symmetry_space_group_name_H-M   'P 1'
_cell_length_a   5.08921432
_cell_length_b   7.65612795
_cell_length_c   5.99890326
_cell_angle_alpha   98.31708293
_cell_angle_beta   103.64084389
_cell_angle_gamma   77.49824737
_symmetry_Int_Tables_number   1
_chemical_formula_structural   Li7Mn5O12
_chemical_formula_sum   'Li7 Mn5 O12'
_cell_volume   220.67865041
_cell_formula_units_Z   1
loop_
 _symmetry_equiv_pos_site_id
 _symmetry_equiv_pos_as_xyz
  1  'x, y, z'
loop_
 _atom_site_type_symbol
 _atom_site_label
 _atom_site_symmetry_multiplicity
 _atom_site_fract_x
 _atom_site_fract_y
 _atom_site_fract_z
 _atom_site_occupancy
  Li  Li0  1  0.51560000  0.17556800  0.18592600  1
  Li  Li1  1  0.50182000  0.16662000  0.66562700  1
  Li  Li2  1  0.00486000  0.66508400  0.17102100  1
  Li  Li3  1  0.49438400  0.50416500  0.49431600  1
  Li  Li4  1  0.48771100  0.82114700  0.81444800  1
  Li  Li5  1  0.48389000  0.50544700  0.00570200  1
  Li  Li6  1  0.51396800  0.82699700  0.33133500  1
  Mn  Mn0  1  0.99769300  0.99660600  0.48998000  1
  Mn  Mn1  1  0.00083800  0.34029400  0.84315400  1
  Mn  Mn2  1  0.99661800  0.66674600  0.66735200  1
  Mn  Mn3  1  0.99713100  0.99675500  0.99598200  1
  Mn  Mn4  1  0.00634400  0.33670300  0.33516200  1
  O  O0  1  0.20722200  0.08180900  0.80426900  1
  O  O1  1  0.77558100  0.23635200  0.49055400  1
  O  O2  1  0.23383200  0.08574200  0.34624100  1
  O  O3  1  0.76694000  0.24227500  0.98605700  1
  O  O4  1  0.24444300  0.40742600  0.17964400  1
  O  O5  1  0.78282500  0.93018700  0.18967200  1
  O  O6  1  0.23289300  0.43230500  0.68793200  1
  O  O7  1  0.76492500  0.90473200  0.64584500  1
  O  O8  1  0.22378100  0.76042500  0.50814700  1
  O  O9  1  0.76837900  0.58161700  0.82560800  1
  O  O10  1  0.21343100  0.75560500  0.96662800  1
  O  O11  1  0.78489000  0.57939600  0.36939900  1
loop_
_geom_bond_atom_site_label_1
_geom_bond_atom_site_label_2
_geom_bond_distance
_geom_bond_site_symmetry_2
Li0 O4 1.997783 1_555
Li0 O1 2.046162 1_555
Li0 O5 2.066659 1_545
Li0 O3 2.125544 1_554
Li0 O2 2.173225 1_555
Li0 O0 2.556891 1_554
Li1 O1 2.122152 1_555
Li1 O0 2.127679 1_555
Li1 O3 2.154966 1_555
Li1 O7 2.161248 1_545
Li1 O2 2.168943 1_555
Li1 O6 2.197962 1_555
Li2 O11 2.066888 1_455
Li2 O10 2.070896 1_554
Li2 O4 2.083072 1_555
Li2 O5 2.099978 1_455
Li2 O8 2.174029 1_555
Li2 O9 2.219014 1_454
Li3 O11 2.023661 1_555
Li3 O8 2.142373 1_555
Li3 O4 2.144939 1_555
Li3 O6 2.157224 1_555
Li3 O9 2.226134 1_555
Li3 O1 2.232519 1_555
Li4 O10 2.017547 1_555
Li4 O8 2.062934 1_555
Li4 O9 2.064990 1_555
Li4 O7 2.161952 1_555
Li4 O0 2.187434 1_565
Li4 O5 2.534553 1_556
Li5 O4 2.087872 1_555
Li5 O6 2.105108 1_554
Li5 O10 2.110457 1_554
Li5 O9 2.211123 1_554
Li5 O3 2.214378 1_554
Li5 O11 2.422604 1_555
Li6 O11 2.095680 1_555
Li6 O7 2.100651 1_555
Li6 O5 2.104568 1_555
Li6 O2 2.179679 1_565
Li6 O8 2.187908 1_555
Li6 O10 2.421239 1_554
Mn0 O2 1.915084 1_665
Mn0 O8 1.924211 1_655
Mn0 O5 1.935549 1_555
Mn0 O1 1.936142 1_565
Mn0 O7 1.961065 1_555
Mn0 O0 2.028390 1_665
Mn1 O3 1.941440 1_455
Mn1 O6 1.956183 1_555
Mn1 O9 1.968628 1_455
Mn1 O0 2.038660 1_555
Mn1 O4 2.161283 1_556
Mn1 O1 2.277250 1_455
Mn2 O9 1.924107 1_555
Mn2 O6 1.934559 1_655
Mn2 O7 1.947559 1_555
Mn2 O8 1.959842 1_655
Mn2 O11 1.964898 1_555
Mn2 O10 1.985148 1_655
Mn3 O10 1.941384 1_655
Mn3 O5 1.951674 1_556
Mn3 O3 1.988829 1_565
Mn3 O0 1.996988 1_665
Mn3 O7 2.250846 1_555
Mn3 O2 2.253334 1_666
Mn4 O4 1.896120 1_555
Mn4 O11 1.963929 1_455
Mn4 O1 1.988132 1_455
Mn4 O2 2.018440 1_555
Mn4 O6 2.260506 1_555
Mn4 O3 2.265569 1_454
