# generated using pymatgen
data_Ba6Br2N3Cl
_symmetry_space_group_name_H-M   'P 1'
_cell_length_a   4.16862822
_cell_length_b   4.16862822
_cell_length_c   23.59955200
_cell_angle_alpha   90.00000000
_cell_angle_beta   90.00000000
_cell_angle_gamma   120.00000348
_symmetry_Int_Tables_number   1
_chemical_formula_structural   Ba6Br2N3Cl
_chemical_formula_sum   'Ba6 Br2 N3 Cl1'
_cell_volume   355.15726538
_cell_formula_units_Z   1
loop_
 _symmetry_equiv_pos_site_id
 _symmetry_equiv_pos_as_xyz
  1  'x, y, z'
loop_
 _atom_site_type_symbol
 _atom_site_label
 _atom_site_symmetry_multiplicity
 _atom_site_fract_x
 _atom_site_fract_y
 _atom_site_fract_z
 _atom_site_occupancy
  Ba  Ba0  1  0.33333300  0.66666700  0.89764600  1
  Ba  Ba1  1  0.00000000  0.00000000  0.22817100  1
  Ba  Ba2  1  0.66666700  0.33333300  0.56211700  1
  Ba  Ba3  1  0.00000000  0.00000000  0.77182900  1
  Ba  Ba4  1  0.66666700  0.33333300  0.10235400  1
  Ba  Ba5  1  0.33333300  0.66666700  0.43788300  1
  Br  Br0  1  0.66666700  0.33333300  0.33329200  1
  Br  Br1  1  0.33333300  0.66666700  0.66670800  1
  N  N0  1  0.66666700  0.33333300  0.83425600  1
  N  N1  1  0.33333300  0.66666700  0.16574400  1
  N  N2  1  0.00000000  0.00000000  0.50000000  1
  Cl  Cl0  1  0.00000000  0.00000000  0.00000000  1
loop_
_geom_bond_atom_site_label_1
_geom_bond_atom_site_label_2
_geom_bond_distance
_geom_bond_site_symmetry_2
Ba0 N0 2.833799 1_455
Ba0 N0 2.833799 1_565
Ba0 N0 2.833805 1_555
Ba0 Cl0 3.409862 1_566
Ba0 Cl0 3.409864 1_556
Ba0 Cl0 3.409864 1_666
Ba1 N1 2.821868 1_545
Ba1 N1 2.821871 1_555
Ba1 N1 2.821871 1_445
Ba1 Br0 3.456427 1_455
Ba1 Br0 3.456429 1_445
Ba1 Br0 3.456429 1_555
Ba2 N2 2.818055 1_655
Ba2 N2 2.818058 1_665
Ba2 N2 2.818058 1_555
Ba2 Br1 3.447460 1_545
Ba2 Br1 3.447460 1_655
Ba2 Br1 3.447466 1_555
Ba3 N0 2.821868 1_455
Ba3 N0 2.821871 1_445
Ba3 N0 2.821871 1_555
Ba3 Br1 3.456427 1_545
Ba3 Br1 3.456429 1_555
Ba3 Br1 3.456429 1_445
Ba4 N1 2.833799 1_545
Ba4 N1 2.833799 1_655
Ba4 N1 2.833805 1_555
Ba4 Cl0 3.409862 1_655
Ba4 Cl0 3.409864 1_555
Ba4 Cl0 3.409864 1_665
Ba5 N2 2.818055 1_565
Ba5 N2 2.818058 1_665
Ba5 N2 2.818058 1_555
Ba5 Br0 3.447460 1_565
Ba5 Br0 3.447460 1_455
Ba5 Br0 3.447466 1_555
