# generated using pymatgen
data_Li8CoO5F
_symmetry_space_group_name_H-M   'P 1'
_cell_length_a   5.55934700
_cell_length_b   5.57443161
_cell_length_c   10.93905473
_cell_angle_alpha   90.36202003
_cell_angle_beta   89.83441951
_cell_angle_gamma   119.55400127
_symmetry_Int_Tables_number   1
_chemical_formula_structural   Li8CoO5F
_chemical_formula_sum   'Li16 Co2 O10 F2'
_cell_volume   294.89025606
_cell_formula_units_Z   2
loop_
 _symmetry_equiv_pos_site_id
 _symmetry_equiv_pos_as_xyz
  1  'x, y, z'
loop_
 _atom_site_type_symbol
 _atom_site_label
 _atom_site_symmetry_multiplicity
 _atom_site_fract_x
 _atom_site_fract_y
 _atom_site_fract_z
 _atom_site_occupancy
  Li  Li0  1  0.68586200  0.97554200  0.22774200  1
  Li  Li1  1  0.63787100  0.02115600  0.87892400  1
  Li  Li2  1  0.35747600  0.97802400  0.38081200  1
  Li  Li3  1  0.31154400  0.02255000  0.72677300  1
  Li  Li4  1  0.66445100  0.32849600  0.58690800  1
  Li  Li5  1  0.66954200  0.33218800  0.07623500  1
  Li  Li6  1  0.28915000  0.31008800  0.22751600  1
  Li  Li7  1  0.38596400  0.36659100  0.87763000  1
  Li  Li8  1  0.61563700  0.63476400  0.37790800  1
  Li  Li9  1  0.97951600  0.29129000  0.72804800  1
  Li  Li10  1  0.71375100  0.68889600  0.72740000  1
  Li  Li11  1  0.01958700  0.38500200  0.37806700  1
  Li  Li12  1  0.32993300  0.66533400  0.08691900  1
  Li  Li13  1  0.33675900  0.66970900  0.57612200  1
  Li  Li14  1  0.97973300  0.62002700  0.88053000  1
  Li  Li15  1  0.02260800  0.71290500  0.22685500  1
  Co  Co0  1  0.00220200  0.00658800  0.01218700  1
  Co  Co1  1  0.99198700  0.99978800  0.51239200  1
  O  O0  1  0.67475100  0.99351900  0.05196900  1
  O  O1  1  0.32098100  0.99753800  0.55305300  1
  O  O2  1  0.66839800  0.33458300  0.78659100  1
  O  O3  1  0.99843200  0.00150800  0.32848900  1
  O  O4  1  0.00220900  0.00277300  0.82847400  1
  O  O5  1  0.32337100  0.31836700  0.05099400  1
  O  O6  1  0.00859500  0.32586700  0.55187000  1
  O  O7  1  0.68288100  0.67631900  0.55114900  1
  O  O8  1  0.33220000  0.66542800  0.28654100  1
  O  O9  1  0.99363100  0.67569300  0.05308700  1
  F  F0  1  0.66520200  0.33303500  0.28870800  1
  F  F1  1  0.33577900  0.66623500  0.78885200  1
loop_
_geom_bond_atom_site_label_1
_geom_bond_atom_site_label_2
_geom_bond_distance
_geom_bond_site_symmetry_2
Li0 O0 1.928784 1_555
Li0 O8 1.980308 1_555
Li0 O3 2.003997 1_565
Li1 O0 1.919926 1_546
Li1 O2 1.957142 1_555
Li1 O4 2.148307 1_655
Li2 O1 1.902631 1_555
Li2 O8 1.963730 1_555
Li2 O3 2.143426 1_465
Li3 O1 1.907026 1_545
Li3 O2 1.994607 1_555
Li3 O4 2.002667 1_555
Li4 O1 1.925399 1_545
Li4 O7 1.932947 1_555
Li4 O6 1.957260 1_655
Li4 O2 2.184398 1_555
Li5 O9 1.891308 1_555
Li5 O5 1.908494 1_555
Li5 O0 1.919107 1_545
Li6 O5 1.938392 1_555
Li6 O8 1.978608 1_555
Li6 O3 2.015494 1_455
Li7 O5 1.923585 1_556
Li7 O2 1.937542 1_555
Li7 O4 2.162941 1_555
Li8 O7 1.922995 1_555
Li8 O8 1.946287 1_555
Li8 O3 2.171636 1_565
Li9 O6 1.936394 1_655
Li9 O2 1.965538 1_555
Li9 O4 2.008168 1_655
Li10 O7 1.933898 1_555
Li10 O2 1.976809 1_555
Li10 O4 2.018262 1_665
Li11 O6 1.927302 1_555
Li11 O8 1.948364 1_555
Li11 O3 2.148413 1_455
Li12 O0 1.926862 1_555
Li12 O9 1.935601 1_455
Li12 O5 1.953856 1_555
Li12 O8 2.183744 1_555
Li13 O1 1.890786 1_555
Li13 O6 1.902461 1_555
Li13 O7 1.925026 1_555
Li14 O9 1.906600 1_556
Li14 O2 1.963761 1_555
Li14 O4 2.155003 1_665
Li15 O9 1.909467 1_455
Li15 O8 1.979053 1_555
Li15 O3 2.008031 1_465
Co0 O5 1.822806 1_555
Co0 O0 1.836732 1_445
Co0 O9 1.878408 1_445
Co0 O4 2.009625 1_554
Co1 O6 1.823136 1_665
Co1 O7 1.825606 1_555
Co1 O1 1.889606 1_655
Co1 O3 2.011940 1_565
F0 Li8 2.071706 1_555
F0 Li11 2.089368 1_655
F0 Li2 2.129227 1_545
F0 Li6 2.139686 1_555
F0 Li0 2.153567 1_545
F0 Li15 2.179341 1_655
F0 Li5 2.324308 1_555
F1 Li7 2.071909 1_555
F1 Li1 2.100669 1_565
F1 Li14 2.116337 1_455
F1 Li10 2.148085 1_555
F1 Li9 2.154072 1_455
F1 Li3 2.169350 1_565
F1 Li13 2.327236 1_555
