# generated using pymatgen
data_Ba10MgAs6(ClO12)2
_symmetry_space_group_name_H-M   'P 1'
_cell_length_a   10.82833743
_cell_length_b   11.13826204
_cell_length_c   7.75631726
_cell_angle_alpha   88.56371684
_cell_angle_beta   92.61758750
_cell_angle_gamma   120.31236754
_symmetry_Int_Tables_number   1
_chemical_formula_structural   Ba10MgAs6(ClO12)2
_chemical_formula_sum   'Ba10 Mg1 As6 Cl2 O24'
_cell_volume   806.74303231
_cell_formula_units_Z   1
loop_
 _symmetry_equiv_pos_site_id
 _symmetry_equiv_pos_as_xyz
  1  'x, y, z'
loop_
 _atom_site_type_symbol
 _atom_site_label
 _atom_site_symmetry_multiplicity
 _atom_site_fract_x
 _atom_site_fract_y
 _atom_site_fract_z
 _atom_site_occupancy
  Ba  Ba0  1  0.68827835  0.32257024  0.49941155  1
  Ba  Ba1  1  0.31172165  0.67742976  0.50058845  1
  Ba  Ba2  1  0.00532714  0.25086021  0.26203592  1
  Ba  Ba3  1  0.34290060  0.67377263  0.00721122  1
  Ba  Ba4  1  0.74073993  0.74645376  0.25459904  1
  Ba  Ba5  1  0.25460756  0.00643809  0.23778818  1
  Ba  Ba6  1  0.74539244  0.99356191  0.76221182  1
  Ba  Ba7  1  0.99467286  0.74913979  0.73796408  1
  Ba  Ba8  1  0.65709940  0.32622737  0.99278878  1
  Ba  Ba9  1  0.25926007  0.25354624  0.74540096  1
  Mg  Mg0  1  0.50000000  0.50000000  0.50000000  1
  As  As0  1  0.96233172  0.59382298  0.23325657  1
  As  As1  1  0.59849073  0.61115584  0.79750294  1
  As  As2  1  0.36954076  0.96457948  0.74111445  1
  As  As3  1  0.40150927  0.38884416  0.20249706  1
  As  As4  1  0.03766828  0.40617702  0.76674343  1
  As  As5  1  0.63045924  0.03542052  0.25888555  1
  Cl  Cl0  1  0.00000000  0.00000000  0.00000000  1
  Cl  Cl1  1  0.00000000  0.00000000  0.50000000  1
  O  O0  1  0.62448997  0.74739763  0.94344251  1
  O  O1  1  0.41726240  0.56196705  0.29455689  1
  O  O2  1  0.32373802  0.29526857  0.39619467  1
  O  O3  1  0.41400424  0.54350846  0.72430368  1
  O  O4  1  0.08970928  0.35883773  0.58506091  1
  O  O5  1  0.58273760  0.43803295  0.70544311  1
  O  O6  1  0.85363108  0.32238582  0.77257925  1
  O  O7  1  0.11188460  0.58545099  0.75861144  1
  O  O8  1  0.58599576  0.45649154  0.27569632  1
  O  O9  1  0.73845526  0.08700878  0.08353704  1
  O  O10  1  0.11375058  0.36759899  0.94500533  1
  O  O11  1  0.88811540  0.41454901  0.24138856  1
  O  O12  1  0.46346684  0.87601462  0.75060482  1
  O  O13  1  0.88624942  0.63240101  0.05499467  1
  O  O14  1  0.91029072  0.64116227  0.41493909  1
  O  O15  1  0.48218923  0.14077559  0.73018441  1
  O  O16  1  0.37551003  0.25260237  0.05655749  1
  O  O17  1  0.74464303  0.09918021  0.43958685  1
  O  O18  1  0.14636892  0.67761418  0.22742075  1
  O  O19  1  0.26154474  0.91299122  0.91646296  1
  O  O20  1  0.51781077  0.85922441  0.26981559  1
  O  O21  1  0.25535697  0.90081979  0.56041315  1
  O  O22  1  0.67626198  0.70473143  0.60380533  1
  O  O23  1  0.53653316  0.12398538  0.24939518  1
loop_
_geom_bond_atom_site_label_1
_geom_bond_atom_site_label_2
_geom_bond_distance
_geom_bond_site_symmetry_2
Ba0 O5 2.695772 1_555
Ba0 O6 2.711470 1_555
Ba0 O23 2.758291 1_555
Ba0 O11 2.791463 1_555
Ba0 O8 2.797319 1_555
Ba0 O15 2.811747 1_555
Ba0 O17 2.897505 1_555
Ba0 O14 3.196398 1_555
Ba1 O1 2.695772 1_555
Ba1 O18 2.711470 1_555
Ba1 O12 2.758291 1_555
Ba1 O7 2.791463 1_555
Ba1 O3 2.797319 1_555
Ba1 O20 2.811747 1_555
Ba1 O21 2.897505 1_555
Ba1 O4 3.196398 1_555
Ba2 O11 2.695046 1_455
Ba2 O4 2.718724 1_555
Ba2 O10 2.770948 1_554
Ba2 O9 2.834774 1_455
Ba2 O17 2.853657 1_455
Ba2 Cl1 3.287214 1_555
Ba2 O2 3.345415 1_555
Ba2 Cl0 3.471693 1_555
Ba3 O12 2.789998 1_554
Ba3 O0 2.794243 1_554
Ba3 O18 2.806348 1_555
Ba3 O1 2.806357 1_555
Ba3 O20 2.812843 1_555
Ba3 O7 2.848480 1_554
Ba3 O3 2.992418 1_554
Ba3 O10 3.074238 1_554
Ba3 O19 3.254182 1_554
Ba4 O0 2.672809 1_554
Ba4 O8 2.793045 1_555
Ba4 O22 2.796750 1_555
Ba4 O14 2.860862 1_555
Ba4 O13 2.972400 1_555
Ba4 O1 3.064204 1_555
Ba4 O20 3.242366 1_555
Ba4 Cl1 3.355300 1_665
Ba4 Cl0 3.461232 1_665
Ba5 O23 2.643481 1_555
Ba5 O21 2.739729 1_545
Ba5 O19 2.743466 1_544
Ba5 O16 2.749376 1_555
Ba5 O2 3.178477 1_555
Ba5 Cl0 3.217195 1_555
Ba5 O18 3.235320 1_545
Ba5 Cl1 3.470976 1_555
Ba6 O12 2.643481 1_555
Ba6 O17 2.739729 1_565
Ba6 O9 2.743466 1_566
Ba6 O0 2.749376 1_555
Ba6 O22 3.178477 1_555
Ba6 Cl0 3.217195 1_666
Ba6 O6 3.235320 1_565
Ba6 Cl1 3.470976 1_665
Ba7 O7 2.695046 1_655
Ba7 O14 2.718724 1_555
Ba7 O13 2.770948 1_556
Ba7 O19 2.834774 1_655
Ba7 O21 2.853657 1_655
Ba7 Cl1 3.287214 1_665
Ba7 O22 3.345415 1_555
Ba7 Cl0 3.471693 1_666
Ba8 O23 2.789998 1_556
Ba8 O16 2.794243 1_556
Ba8 O6 2.806348 1_555
Ba8 O5 2.806357 1_555
Ba8 O15 2.812843 1_555
Ba8 O11 2.848480 1_556
Ba8 O8 2.992418 1_556
Ba8 O13 3.074238 1_556
Ba8 O9 3.254182 1_556
Ba9 O16 2.672809 1_556
Ba9 O3 2.793045 1_555
Ba9 O2 2.796750 1_555
Ba9 O4 2.860862 1_555
Ba9 O10 2.972400 1_555
Ba9 O5 3.064204 1_555
Ba9 O15 3.242366 1_555
Ba9 Cl1 3.355300 1_555
Ba9 Cl0 3.461232 1_556
Mg0 O5 2.063222 1_555
Mg0 O1 2.063222 1_555
Mg0 O3 2.185068 1_555
Mg0 O8 2.185068 1_555
Mg0 O2 2.247092 1_555
Mg0 O22 2.247092 1_555
As0 O18 1.724271 1_655
As0 O14 1.729478 1_555
As0 O13 1.731647 1_555
As0 O11 1.736521 1_555
As1 O22 1.789894 1_555
As1 O3 1.810873 1_555
As1 O0 1.813596 1_555
As1 O5 1.995776 1_555
As2 O15 1.712084 1_565
As2 O19 1.724899 1_555
As2 O21 1.732847 1_555
As2 O12 1.736436 1_555
As3 O2 1.789894 1_555
As3 O8 1.810873 1_555
As3 O16 1.813596 1_555
As3 O1 1.995776 1_555
As4 O6 1.724271 1_455
As4 O4 1.729478 1_555
As4 O10 1.731647 1_555
As4 O7 1.736521 1_555
As5 O20 1.712084 1_545
As5 O9 1.724899 1_555
As5 O17 1.732847 1_555
As5 O23 1.736436 1_555
