# generated using pymatgen
data_RbLi3S2O9
_symmetry_space_group_name_H-M   'P 1'
_cell_length_a   5.07611491
_cell_length_b   5.21190915
_cell_length_c   8.35376626
_cell_angle_alpha   105.33060705
_cell_angle_beta   90.35907890
_cell_angle_gamma   89.46935203
_symmetry_Int_Tables_number   1
_chemical_formula_structural   RbLi3S2O9
_chemical_formula_sum   'Rb1 Li3 S2 O9'
_cell_volume   213.13418973
_cell_formula_units_Z   1
loop_
 _symmetry_equiv_pos_site_id
 _symmetry_equiv_pos_as_xyz
  1  'x, y, z'
loop_
 _atom_site_type_symbol
 _atom_site_label
 _atom_site_symmetry_multiplicity
 _atom_site_fract_x
 _atom_site_fract_y
 _atom_site_fract_z
 _atom_site_occupancy
  Rb  Rb0  1  0.50921400  0.57462800  0.22177300  1
  Li  Li0  1  0.50405400  0.13995300  0.59498100  1
  Li  Li1  1  0.99689900  0.98511100  0.99493500  1
  Li  Li2  1  0.00701300  0.76343200  0.59891700  1
  S  S0  1  0.50456000  0.74063400  0.80490300  1
  S  S1  1  0.00327200  0.16339100  0.38677300  1
  O  O0  1  0.14070300  0.06127700  0.51718100  1
  O  O1  1  0.62800700  0.81484000  0.66135600  1
  O  O2  1  0.71481500  0.11988700  0.39585600  1
  O  O3  1  0.54269500  0.45037600  0.78749600  1
  O  O4  1  0.05876600  0.45144300  0.41345700  1
  O  O5  1  0.10505600  0.01512500  0.22068700  1
  O  O6  1  0.21573400  0.79879600  0.80372800  1
  O  O7  1  0.62171100  0.89491600  0.96365900  1
  O  O8  1  0.00560300  0.35589000  0.95599700  1
loop_
_geom_bond_atom_site_label_1
_geom_bond_atom_site_label_2
_geom_bond_distance
_geom_bond_site_symmetry_2
Li0 O0 1.962259 1_555
Li0 O2 1.962345 1_555
Li0 O3 1.966858 1_555
Li0 O1 2.011771 1_545
Li1 O5 1.927447 1_666
Li1 O7 1.965136 1_555
Li1 O6 1.977461 1_655
Li1 O8 2.043607 1_665
Li2 O4 1.943824 1_555
Li2 O6 1.974327 1_555
Li2 O0 1.980482 1_565
Li2 O1 1.993563 1_455
O0 S1 1.498959 1_555
O1 S0 1.496452 1_555
O2 S1 1.489231 1_655
O2 Rb0 3.021709 1_545
O2 Rb0 3.252531 1_555
O3 S0 1.491906 1_555
O4 S1 1.487627 1_555
O4 Rb0 2.970053 1_555
O4 Rb0 3.348518 1_455
O5 S1 1.491224 1_555
O5 Rb0 3.066484 1_545
O6 S0 1.494871 1_555
O7 S0 1.481260 1_555
O7 Rb0 3.114221 1_556
O8 Rb0 3.355092 1_456
O8 Rb0 3.377671 1_556
