# generated using pymatgen
data_CsYMg14
_symmetry_space_group_name_H-M   'P 1'
_cell_length_a   6.65516639
_cell_length_b   6.67413637
_cell_length_c   10.74102315
_cell_angle_alpha   90.00000000
_cell_angle_beta   90.00000000
_cell_angle_gamma   120.09434164
_symmetry_Int_Tables_number   1
_chemical_formula_structural   CsYMg14
_chemical_formula_sum   'Cs1 Y1 Mg14'
_cell_volume   412.77808496
_cell_formula_units_Z   1
loop_
 _symmetry_equiv_pos_site_id
 _symmetry_equiv_pos_as_xyz
  1  'x, y, z'
loop_
 _atom_site_type_symbol
 _atom_site_label
 _atom_site_symmetry_multiplicity
 _atom_site_fract_x
 _atom_site_fract_y
 _atom_site_fract_z
 _atom_site_occupancy
  Cs  Cs0  1  0.16330193  0.83165046  0.12500000  1
  Y  Y0  1  0.18313593  0.34156747  0.12500000  1
  Mg  Mg0  1  0.16210494  0.33105197  0.62500000  1
  Mg  Mg1  1  0.16567450  0.83283675  0.62500000  1
  Mg  Mg2  1  0.66633896  0.32998037  0.12500000  1
  Mg  Mg3  1  0.66865252  0.33249596  0.62500000  1
  Mg  Mg4  1  0.66633896  0.83635759  0.12500000  1
  Mg  Mg5  1  0.66865252  0.83615556  0.62500000  1
  Mg  Mg6  1  0.33939186  0.17971149  0.39389993  1
  Mg  Mg7  1  0.33939186  0.17971149  0.85610007  1
  Mg  Mg8  1  0.33939186  0.65968137  0.39389993  1
  Mg  Mg9  1  0.33939186  0.65968137  0.85610007  1
  Mg  Mg10  1  0.83299864  0.16649982  0.37487069  1
  Mg  Mg11  1  0.83299864  0.16649982  0.87512931  1
  Mg  Mg12  1  0.81611752  0.65805926  0.39103932  1
  Mg  Mg13  1  0.81611752  0.65805926  0.85896068  1
loop_
_geom_bond_atom_site_label_1
_geom_bond_atom_site_label_2
_geom_bond_distance
_geom_bond_site_symmetry_2
Cs0 Mg2 3.323235 1_455
Cs0 Mg4 3.323235 1_455
Cs0 Mg2 3.332153 1_565
Cs0 Mg4 3.332153 1_555
Cs0 Y0 3.339022 1_555
Cs0 Y0 3.339022 1_565
Cs0 Mg13 3.487396 1_454
Cs0 Mg12 3.487396 1_455
Cs0 Mg8 3.518753 1_555
Cs0 Mg9 3.518753 1_554
Cs0 Mg6 3.518759 1_565
Cs0 Mg7 3.518759 1_564
Mg0 Mg7 3.125549 1_555
Mg0 Mg6 3.125549 1_555
Mg0 Mg9 3.125556 1_555
Mg0 Mg8 3.125556 1_555
Mg0 Mg10 3.287725 1_455
Mg0 Mg11 3.287725 1_455
Mg0 Mg5 3.288851 1_445
Mg0 Mg3 3.288851 1_455
Mg0 Mg1 3.337131 1_555
Mg0 Mg1 3.337131 1_545
Mg0 Mg5 3.366336 1_555
Mg0 Mg3 3.366336 1_555
Mg1 Mg9 3.189612 1_555
Mg1 Mg8 3.189612 1_555
Mg1 Mg7 3.189619 1_565
Mg1 Mg6 3.189619 1_565
Mg1 Mg12 3.219673 1_455
Mg1 Mg13 3.219673 1_455
Mg1 Mg3 3.318926 1_455
Mg1 Mg5 3.318926 1_455
Mg1 Mg3 3.336350 1_565
Mg1 Mg5 3.336351 1_555
Mg2 Y0 3.255261 1_555
Mg2 Mg4 3.294506 1_545
Mg2 Mg4 3.379631 1_555
Mg2 Y0 3.401251 1_655
Mg2 Mg6 3.448757 1_555
Mg2 Mg7 3.448757 1_554
Mg3 Mg6 3.124462 1_555
Mg3 Mg7 3.124462 1_555
Mg3 Mg5 3.312644 1_545
Mg3 Mg5 3.361493 1_555
Mg4 Y0 3.255261 1_555
Mg4 Y0 3.401251 1_665
Mg4 Mg8 3.448756 1_555
Mg4 Mg9 3.448756 1_554
Mg5 Mg9 3.124462 1_555
Mg5 Mg8 3.124462 1_555
Mg6 Mg8 3.203384 1_555
Mg6 Y0 3.423005 1_555
Mg6 Mg8 3.470752 1_545
Mg7 Mg9 3.203384 1_555
Mg7 Y0 3.423005 1_556
Mg7 Mg9 3.470752 1_545
Mg8 Y0 3.423011 1_555
Mg9 Y0 3.423011 1_556
Mg10 Mg2 3.292030 1_555
Mg10 Mg4 3.292037 1_545
Mg10 Mg3 3.294989 1_555
Mg10 Mg5 3.294995 1_545
Mg10 Mg8 3.333065 1_655
Mg10 Mg6 3.333065 1_655
Mg10 Mg8 3.336390 1_545
Mg10 Mg6 3.336390 1_555
Mg10 Mg12 3.342998 1_545
Mg10 Mg12 3.342998 1_555
Mg10 Y0 3.356761 1_655
Mg11 Mg2 3.292030 1_556
Mg11 Mg4 3.292037 1_546
Mg11 Mg3 3.294989 1_555
Mg11 Mg5 3.294995 1_545
Mg11 Mg9 3.333065 1_655
Mg11 Mg7 3.333065 1_655
Mg11 Mg9 3.336390 1_545
Mg11 Mg7 3.336390 1_555
Mg11 Mg13 3.342998 1_545
Mg11 Mg13 3.342998 1_555
Mg11 Y0 3.356761 1_656
Mg12 Mg5 3.140212 1_555
Mg12 Mg3 3.140219 1_555
Mg12 Mg6 3.178279 1_555
Mg12 Mg8 3.178279 1_555
Mg12 Mg4 3.429978 1_555
Mg12 Mg2 3.429984 1_555
Mg12 Mg6 3.477197 1_665
Mg12 Mg8 3.477198 1_655
Mg13 Mg5 3.140212 1_555
Mg13 Mg3 3.140219 1_555
Mg13 Mg7 3.178279 1_555
Mg13 Mg9 3.178279 1_555
Mg13 Mg4 3.429978 1_556
Mg13 Mg2 3.429984 1_556
Mg13 Mg7 3.477197 1_665
Mg13 Mg9 3.477198 1_655
