# generated using pymatgen
data_Mg4Si3
_symmetry_space_group_name_H-M   'P 1'
_cell_length_a   7.05887127
_cell_length_b   7.49759386
_cell_length_c   5.79008980
_cell_angle_alpha   99.25195612
_cell_angle_beta   100.49327849
_cell_angle_gamma   116.50406342
_symmetry_Int_Tables_number   1
_chemical_formula_structural   Mg4Si3
_chemical_formula_sum   'Mg8 Si6'
_cell_volume   259.24365424
_cell_formula_units_Z   2
loop_
 _symmetry_equiv_pos_site_id
 _symmetry_equiv_pos_as_xyz
  1  'x, y, z'
loop_
 _atom_site_type_symbol
 _atom_site_label
 _atom_site_symmetry_multiplicity
 _atom_site_fract_x
 _atom_site_fract_y
 _atom_site_fract_z
 _atom_site_occupancy
  Mg  Mg0  1  0.22520600  0.20183300  0.77086200  1
  Mg  Mg1  1  0.81059600  0.90533500  0.87187200  1
  Mg  Mg2  1  0.38077700  0.61145800  0.43402800  1
  Mg  Mg3  1  0.51474400  0.03810300  0.06823300  1
  Mg  Mg4  1  0.52096400  0.06901300  0.57456900  1
  Mg  Mg5  1  0.65491100  0.49562000  0.20893300  1
  Mg  Mg6  1  0.08724300  0.77181500  0.17106400  1
  Mg  Mg7  1  0.94843300  0.33531700  0.47183800  1
  Si  Si0  1  0.78085600  0.91221000  0.37004000  1
  Si  Si1  1  0.30806600  0.60698600  0.91386700  1
  Si  Si2  1  0.12590200  0.76524400  0.66497500  1
  Si  Si3  1  0.90989600  0.34192200  0.97802800  1
  Si  Si4  1  0.72758600  0.50012800  0.72903000  1
  Si  Si5  1  0.25472000  0.19485700  0.27260000  1
loop_
_geom_bond_atom_site_label_1
_geom_bond_atom_site_label_2
_geom_bond_distance
_geom_bond_site_symmetry_2
Mg0 Si1 2.772041 1_555
Mg0 Si5 2.885121 1_556
Mg0 Si5 2.923934 1_555
Mg0 Si2 2.955062 1_545
Mg0 Mg7 2.981020 1_455
Mg0 Si0 3.096569 1_445
Mg0 Si3 3.185864 1_455
Mg1 Si4 2.771996 1_555
Mg1 Si0 2.885339 1_555
Mg1 Si0 2.923887 1_556
Mg1 Si3 2.955035 1_565
Mg1 Mg6 2.981094 1_656
Mg1 Si5 3.095327 1_666
Mg1 Si2 3.185145 1_655
Mg2 Si5 2.774770 1_555
Mg2 Si0 2.857192 1_555
Mg2 Mg7 2.897924 1_455
Mg2 Si1 2.918487 1_555
Mg2 Si2 2.930264 1_555
Mg2 Si1 2.953725 1_554
Mg2 Mg6 3.117687 1_555
Mg2 Si4 3.219717 1_555
Mg3 Si1 2.786128 1_544
Mg3 Si2 2.879029 1_544
Mg3 Si0 2.896630 1_545
Mg3 Si5 2.901675 1_555
Mg3 Si3 2.912779 1_554
Mg3 Mg6 3.017668 1_545
Mg3 Mg7 3.070790 1_555
Mg4 Si4 2.786157 1_555
Mg4 Si3 2.880006 1_555
Mg4 Si5 2.897510 1_555
Mg4 Si0 2.901506 1_545
Mg4 Si2 2.912786 1_545
Mg4 Mg7 3.017249 1_555
Mg4 Mg6 3.070624 1_545
Mg5 Si0 2.774705 1_555
Mg5 Si5 2.856933 1_555
Mg5 Mg6 2.898095 1_655
Mg5 Si4 2.918788 1_554
Mg5 Si3 2.930427 1_554
Mg5 Si4 2.953301 1_555
Mg5 Mg7 3.117170 1_555
Mg5 Si1 3.220260 1_554
Mg6 Si5 2.757549 1_565
Mg6 Si3 2.817063 1_454
Mg6 Si2 2.833432 1_555
Mg6 Si1 2.854423 1_554
Mg6 Si4 2.913161 1_454
Mg6 Si2 2.986704 1_554
Mg6 Si0 3.108424 1_455
Mg7 Si0 2.757838 1_545
Mg7 Si2 2.817246 1_655
Mg7 Si3 2.832976 1_554
Mg7 Si4 2.854468 1_555
Mg7 Si1 2.913053 1_655
Mg7 Si3 2.987021 1_555
Mg7 Si5 3.108738 1_655
Si1 Si2 2.524839 1_555
Si1 Si3 2.760354 1_455
Si2 Si4 2.760942 1_455
Si3 Si4 2.525505 1_555
