# generated using pymatgen
data_NaCeMo8H40C12(S3O17)2
_symmetry_space_group_name_H-M   'P 1'
_cell_length_a   9.63181400
_cell_length_b   12.79686892
_cell_length_c   23.74639891
_cell_angle_alpha   97.37618395
_cell_angle_beta   90.00000000
_cell_angle_gamma   112.10683517
_symmetry_Int_Tables_number   1
_chemical_formula_structural   NaCeMo8H40C12(S3O17)2
_chemical_formula_sum   'Na2 Ce2 Mo16 H80 C24 S12 O68'
_cell_volume   2685.57447140
_cell_formula_units_Z   2
loop_
 _symmetry_equiv_pos_site_id
 _symmetry_equiv_pos_as_xyz
  1  'x, y, z'
loop_
 _atom_site_type_symbol
 _atom_site_label
 _atom_site_symmetry_multiplicity
 _atom_site_fract_x
 _atom_site_fract_y
 _atom_site_fract_z
 _atom_site_occupancy
  Na  Na0  1  0.50000000  0.50000000  0.50000000  1
  Na  Na1  1  0.00000000  0.50000000  0.00000000  1
  Ce  Ce0  1  0.92216600  0.00000000  0.25000000  1
  Ce  Ce1  1  0.07783400  0.00000000  0.75000000  1
  Mo  Mo0  1  0.74785100  0.39593800  0.37089200  1
  Mo  Mo1  1  0.35191300  0.60406200  0.12910800  1
  Mo  Mo2  1  0.25214900  0.60406200  0.62910800  1
  Mo  Mo3  1  0.64808700  0.39593800  0.87089200  1
  Mo  Mo4  1  0.90374000  0.65207400  0.44444900  1
  Mo  Mo5  1  0.25166600  0.34792600  0.05555100  1
  Mo  Mo6  1  0.09626000  0.34792600  0.55555100  1
  Mo  Mo7  1  0.74833400  0.65207400  0.94444900  1
  Mo  Mo8  1  0.90239700  0.53802300  0.55917500  1
  Mo  Mo9  1  0.36437300  0.46197700  0.94082500  1
  Mo  Mo10  1  0.09760300  0.46197700  0.44082500  1
  Mo  Mo11  1  0.63562700  0.53802300  0.05917500  1
  Mo  Mo12  1  0.74543300  0.28211600  0.48838800  1
  Mo  Mo13  1  0.46331600  0.71788400  0.01161200  1
  Mo  Mo14  1  0.25456700  0.71788400  0.51161200  1
  Mo  Mo15  1  0.53668400  0.28211600  0.98838800  1
  H  H0  1  0.19051200  0.79210200  0.33322700  1
  H  H1  1  0.39841000  0.20789800  0.16677300  1
  H  H2  1  0.80948800  0.20789800  0.66677300  1
  H  H3  1  0.60159000  0.79210200  0.83322700  1
  H  H4  1  0.10907900  0.64146500  0.31467100  1
  H  H5  1  0.46761400  0.35853500  0.18532900  1
  H  H6  1  0.89092100  0.35853500  0.68532900  1
  H  H7  1  0.53238600  0.64146500  0.81467100  1
  H  H8  1  0.20767900  0.72796200  0.26170500  1
  H  H9  1  0.47971800  0.27203800  0.23829500  1
  H  H10  1  0.79232100  0.27203800  0.73829500  1
  H  H11  1  0.52028200  0.72796200  0.76170500  1
  H  H12  1  0.78895700  0.60559700  0.20742200  1
  H  H13  1  0.18336000  0.39440300  0.29257800  1
  H  H14  1  0.21104300  0.39440300  0.79257800  1
  H  H15  1  0.81664000  0.60559700  0.70742200  1
  H  H16  1  0.97751700  0.62064000  0.19070100  1
  H  H17  1  0.35687700  0.37936000  0.30929900  1
  H  H18  1  0.02248300  0.37936000  0.80929900  1
  H  H19  1  0.64312300  0.62064000  0.69070100  1
  H  H20  1  0.88278500  0.53601200  0.24523800  1
  H  H21  1  0.34677300  0.46398800  0.25476200  1
  H  H22  1  0.11721500  0.46398800  0.75476200  1
  H  H23  1  0.65322700  0.53601200  0.74523800  1
  H  H24  1  0.94613400  0.89161700  0.02767300  1
  H  H25  1  0.05451700  0.10838300  0.47232700  1
  H  H26  1  0.05386600  0.10838300  0.97232700  1
  H  H27  1  0.94548300  0.89161700  0.52767300  1
  H  H28  1  0.13127400  0.00032900  0.04731100  1
  H  H29  1  0.13094500  0.99967100  0.45268900  1
  H  H30  1  0.86872600  0.99967100  0.95268900  1
  H  H31  1  0.86905500  0.00032900  0.54731100  1
  H  H32  1  0.10614400  0.85386200  0.02134100  1
  H  H33  1  0.25228300  0.14613800  0.47865900  1
  H  H34  1  0.89385600  0.14613800  0.97865900  1
  H  H35  1  0.74771700  0.85386200  0.52134100  1
  H  H36  1  0.23932300  0.88624500  0.17664300  1
  H  H37  1  0.35307800  0.11375500  0.32335700  1
  H  H38  1  0.76067700  0.11375500  0.82335700  1
  H  H39  1  0.64692200  0.88624500  0.67664300  1
  H  H40  1  0.27088500  0.85091800  0.10325600  1
  H  H41  1  0.41996700  0.14908200  0.39674400  1
  H  H42  1  0.72911500  0.14908200  0.89674400  1
  H  H43  1  0.58003300  0.85091800  0.60325600  1
  H  H44  1  0.29526700  0.99595200  0.13053500  1
  H  H45  1  0.29931500  0.00404800  0.36946500  1
  H  H46  1  0.70473300  0.00404800  0.86946500  1
  H  H47  1  0.70068500  0.99595200  0.63053500  1
  H  H48  1  0.96107900  0.37371100  0.16427700  1
  H  H49  1  0.58736800  0.62628900  0.33572300  1
  H  H50  1  0.03892100  0.62628900  0.83572300  1
  H  H51  1  0.41263200  0.37371100  0.66427700  1
  H  H52  1  0.82713900  0.33474600  0.10562800  1
  H  H53  1  0.49239300  0.66525400  0.39437200  1
  H  H54  1  0.17286100  0.66525400  0.89437200  1
  H  H55  1  0.50760700  0.33474600  0.60562800  1
  H  H56  1  0.76342600  0.31414100  0.17687600  1
  H  H57  1  0.44928400  0.68585900  0.32312400  1
  H  H58  1  0.23657400  0.68585900  0.82312400  1
  H  H59  1  0.55071600  0.31414100  0.67687600  1
  H  H60  1  0.65738900  0.00807800  0.09421300  1
  H  H61  1  0.64931200  0.99192200  0.40578700  1
  H  H62  1  0.34261100  0.99192200  0.90578700  1
  H  H63  1  0.35068800  0.00807800  0.59421300  1
  H  H64  1  0.59050300  0.10584500  0.13641000  1
  H  H65  1  0.48465800  0.89415500  0.36359000  1
  H  H66  1  0.40949700  0.89415500  0.86359000  1
  H  H67  1  0.51534200  0.10584500  0.63641000  1
  H  H68  1  0.65840900  0.13188800  0.06649600  1
  H  H69  1  0.52652100  0.86811200  0.43350400  1
  H  H70  1  0.34159100  0.86811200  0.93350400  1
  H  H71  1  0.47347900  0.13188800  0.56649600  1
  H  H72  1  0.77973400  0.14933900  0.34339700  1
  H  H73  1  0.63039600  0.85066100  0.15660300  1
  H  H74  1  0.22026600  0.85066100  0.65660300  1
  H  H75  1  0.36960400  0.14933900  0.84339700  1
  H  H76  1  0.77920700  0.17633800  0.28139600  1
  H  H77  1  0.60286900  0.82366200  0.21860400  1
  H  H78  1  0.22079300  0.82366200  0.71860400  1
  H  H79  1  0.39713100  0.17633800  0.78139600  1
  C  C0  1  0.13729200  0.72309700  0.29842200  1
  C  C1  1  0.41419500  0.27690300  0.20157800  1
  C  C2  1  0.86270800  0.27690300  0.70157800  1
  C  C3  1  0.58580500  0.72309700  0.79842200  1
  C  C4  1  0.89762600  0.61123700  0.22449600  1
  C  C5  1  0.28638800  0.38876300  0.27550400  1
  C  C6  1  0.10237400  0.38876300  0.77550400  1
  C  C7  1  0.71361200  0.61123700  0.72449600  1
  C  C8  1  0.05858600  0.91013400  0.04588700  1
  C  C9  1  0.14845200  0.08986600  0.45411300  1
  C  C10  1  0.94141400  0.08986600  0.95411300  1
  C  C11  1  0.85154800  0.91013400  0.54588700  1
  C  C12  1  0.23254800  0.90551500  0.13342000  1
  C  C13  1  0.32703300  0.09448500  0.36658000  1
  C  C14  1  0.76745200  0.09448500  0.86658000  1
  C  C15  1  0.67296700  0.90551500  0.63342000  1
  C  C16  1  0.85031500  0.31356000  0.14708700  1
  C  C17  1  0.53675500  0.68644000  0.35291300  1
  C  C18  1  0.14968500  0.68644000  0.85291300  1
  C  C19  1  0.46324500  0.31356000  0.64708700  1
  C  C20  1  0.67101900  0.09723300  0.10528700  1
  C  C21  1  0.57378600  0.90276700  0.39471300  1
  C  C22  1  0.32898100  0.90276700  0.89471300  1
  C  C23  1  0.42621400  0.09723300  0.60528700  1
  S  S0  1  0.85870900  0.17424000  0.13568600  1
  S  S1  1  0.68446900  0.82576000  0.36431400  1
  S  S2  1  0.14129100  0.82576000  0.86431400  1
  S  S3  1  0.31553100  0.17424000  0.63568600  1
  S  S4  1  0.03740400  0.87111800  0.11632600  1
  S  S5  1  0.16628500  0.12888200  0.38367400  1
  S  S6  1  0.96259600  0.12888200  0.88367400  1
  S  S7  1  0.83371500  0.87111800  0.61632600  1
  S  S8  1  0.96269000  0.73285800  0.27891100  1
  S  S9  1  0.22983200  0.26714200  0.22108900  1
  S  S10  1  0.03731000  0.26714200  0.72108900  1
  S  S11  1  0.77016800  0.73285800  0.77891100  1
  O  O0  1  0.57605600  0.40136500  0.39021700  1
  O  O1  1  0.17469200  0.59863500  0.10978300  1
  O  O2  1  0.42394400  0.59863500  0.60978300  1
  O  O3  1  0.82530800  0.40136500  0.89021700  1
  O  O4  1  0.72526300  0.64529700  0.46252000  1
  O  O5  1  0.07996600  0.35470300  0.03748000  1
  O  O6  1  0.27473700  0.35470300  0.53748000  1
  O  O7  1  0.92003400  0.64529700  0.96252000  1
  O  O8  1  0.72355300  0.53653000  0.56914700  1
  O  O9  1  0.18702300  0.46347000  0.93085300  1
  O  O10  1  0.27644700  0.46347000  0.43085300  1
  O  O11  1  0.81297700  0.53653000  0.06914700  1
  O  O12  1  0.57601400  0.29700300  0.50301800  1
  O  O13  1  0.27901100  0.70299700  0.99698200  1
  O  O14  1  0.42398600  0.70299700  0.49698200  1
  O  O15  1  0.72098900  0.29700300  0.00301800  1
  O  O16  1  0.72399100  0.34111300  0.29903900  1
  O  O17  1  0.38287800  0.65888700  0.20096100  1
  O  O18  1  0.27600900  0.65888700  0.70096100  1
  O  O19  1  0.61712200  0.34111300  0.79903900  1
  O  O20  1  0.85819100  0.55861100  0.37095500  1
  O  O21  1  0.29958000  0.44138900  0.12904500  1
  O  O22  1  0.14180900  0.44138900  0.62904500  1
  O  O23  1  0.70042000  0.55861100  0.87095500  1
  O  O24  1  0.99643300  0.78484700  0.42414300  1
  O  O25  1  0.21158600  0.21515300  0.07585700  1
  O  O26  1  0.00356700  0.21515300  0.57585700  1
  O  O27  1  0.78841400  0.78484700  0.92414300  1
  O  O28  1  0.99400600  0.67902800  0.52442600  1
  O  O29  1  0.31497800  0.32097200  0.97557400  1
  O  O30  1  0.00599400  0.32097200  0.47557400  1
  O  O31  1  0.68502200  0.67902800  0.02442600  1
  O  O32  1  0.00410600  0.58942600  0.62633500  1
  O  O33  1  0.41468000  0.41057400  0.87366500  1
  O  O34  1  0.99589400  0.41057400  0.37366500  1
  O  O35  1  0.58532000  0.58942600  0.12633500  1
  O  O36  1  0.86306200  0.37482200  0.56017000  1
  O  O37  1  0.48824000  0.62517800  0.93983000  1
  O  O38  1  0.13693800  0.62517800  0.43983000  1
  O  O39  1  0.51176000  0.37482200  0.06017000  1
  O  O40  1  0.71971900  0.14575800  0.50011900  1
  O  O41  1  0.57396100  0.85424200  0.99988100  1
  O  O42  1  0.28028100  0.85424200  0.49988100  1
  O  O43  1  0.42603900  0.14575800  0.00011900  1
  O  O44  1  0.73357900  0.26118000  0.40576500  1
  O  O45  1  0.47239900  0.73882000  0.09423500  1
  O  O46  1  0.26642100  0.73882000  0.59423500  1
  O  O47  1  0.52760100  0.26118000  0.90576500  1
  O  O48  1  0.86590700  0.47132400  0.46817600  1
  O  O49  1  0.39458200  0.52867600  0.03182400  1
  O  O50  1  0.13409300  0.52867600  0.53182400  1
  O  O51  1  0.60541800  0.47132400  0.96817600  1
  O  O52  1  0.99727700  0.96272600  0.15303900  1
  O  O53  1  0.03455000  0.03727400  0.34696100  1
  O  O54  1  0.00272300  0.03727400  0.84696100  1
  O  O55  1  0.96545000  0.96272600  0.65303900  1
  O  O56  1  0.00502500  0.83786700  0.24743100  1
  O  O57  1  0.16715800  0.16213300  0.25256900  1
  O  O58  1  0.99497500  0.16213300  0.75256900  1
  O  O59  1  0.83284200  0.83786700  0.74743100  1
  O  O60  1  0.85927100  0.13867800  0.19497400  1
  O  O61  1  0.72059300  0.86132200  0.30502600  1
  O  O62  1  0.14072900  0.86132200  0.80502600  1
  O  O63  1  0.27940700  0.13867800  0.69497400  1
  O  O64  1  0.79007000  0.12082500  0.30395100  1
  O  O65  1  0.66924500  0.87917500  0.19604900  1
  O  O66  1  0.20993000  0.87917500  0.69604900  1
  O  O67  1  0.33075500  0.12082500  0.80395100  1
loop_
_geom_bond_atom_site_label_1
_geom_bond_atom_site_label_2
_geom_bond_distance
_geom_bond_site_symmetry_2
Na0 O6 2.518996 1_555
Na0 O4 2.518996 1_555
Na0 O8 2.568331 1_555
Na0 O10 2.568331 1_555
Na0 O14 2.961198 1_555
Na0 O12 2.961198 1_555
Na0 O2 2.962614 1_555
Na0 O0 2.962614 1_555
Na1 O7 2.518996 1_454
Na1 O5 2.518996 1_555
Na1 O9 2.568331 1_554
Na1 O11 2.568331 1_455
Na1 O15 2.961198 1_455
Na1 O13 2.961198 1_554
Na1 O3 2.962618 1_454
Na1 O1 2.962618 1_555
Ce0 O53 2.455609 1_655
Ce0 O52 2.455612 1_545
Ce0 O57 2.481783 1_655
Ce0 O56 2.481783 1_645
Ce0 O64 2.573494 1_555
Ce0 O65 2.573494 1_545
Ce0 O60 2.574551 1_555
Ce0 O61 2.574551 1_545
Ce1 O55 2.455609 1_445
Ce1 O54 2.455612 1_555
Ce1 O58 2.481783 1_455
Ce1 O59 2.481783 1_445
Ce1 O66 2.573494 1_545
Ce1 O67 2.573494 1_555
Ce1 O62 2.574551 1_545
Ce1 O63 2.574551 1_555
Mo0 O16 1.740000 1_555
Mo0 O0 1.741191 1_555
Mo0 O20 1.948588 1_555
Mo0 O44 1.966404 1_555
Mo0 O34 2.325354 1_555
Mo0 O48 2.482443 1_555
Mo1 O17 1.740000 1_555
Mo1 O1 1.741182 1_555
Mo1 O21 1.948588 1_555
Mo1 O45 1.966404 1_555
Mo1 O35 2.325354 1_555
Mo1 O49 2.482440 1_555
Mo2 O18 1.740000 1_555
Mo2 O2 1.741191 1_555
Mo2 O22 1.948588 1_555
Mo2 O46 1.966404 1_555
Mo2 O32 2.325354 1_555
Mo2 O50 2.482443 1_555
Mo3 O19 1.740000 1_555
Mo3 O3 1.741182 1_555
Mo3 O23 1.948588 1_555
Mo3 O47 1.966404 1_555
Mo3 O33 2.325354 1_555
Mo3 O51 2.482440 1_555
Mo4 O24 1.727740 1_555
Mo4 O4 1.744755 1_555
Mo4 O20 1.933353 1_555
Mo4 O28 2.021828 1_555
Mo4 O48 2.345334 1_555
Mo4 O38 2.397442 1_655
Mo5 O25 1.727740 1_555
Mo5 O5 1.744755 1_555
Mo5 O21 1.933353 1_555
Mo5 O29 2.021828 1_554
Mo5 O49 2.345332 1_555
Mo5 O39 2.397442 1_555
Mo6 O26 1.727740 1_555
Mo6 O6 1.744755 1_555
Mo6 O22 1.933353 1_555
Mo6 O30 2.021828 1_555
Mo6 O50 2.345334 1_555
Mo6 O36 2.397442 1_455
Mo7 O27 1.727740 1_555
Mo7 O7 1.744755 1_555
Mo7 O23 1.933353 1_555
Mo7 O31 2.021828 1_556
Mo7 O51 2.345332 1_555
Mo7 O37 2.397442 1_555
Mo8 O8 1.732095 1_555
Mo8 O32 1.783654 1_655
Mo8 O28 1.974675 1_555
Mo8 O36 1.980629 1_555
Mo8 O48 2.195942 1_555
Mo8 O50 2.365878 1_655
Mo9 O9 1.732085 1_555
Mo9 O33 1.783658 1_555
Mo9 O29 1.974676 1_555
Mo9 O37 1.980631 1_555
Mo9 O49 2.195942 1_556
Mo9 O51 2.365897 1_555
Mo10 O10 1.732095 1_555
Mo10 O34 1.783654 1_455
Mo10 O30 1.974675 1_555
Mo10 O38 1.980629 1_555
Mo10 O50 2.195942 1_555
Mo10 O48 2.365878 1_455
Mo11 O11 1.732085 1_555
Mo11 O35 1.783658 1_555
Mo11 O31 1.974676 1_555
Mo11 O39 1.980631 1_555
Mo11 O51 2.195942 1_554
Mo11 O49 2.365897 1_555
Mo12 O40 1.727234 1_555
Mo12 O12 1.742638 1_555
Mo12 O44 1.943260 1_555
Mo12 O36 2.016358 1_555
Mo12 O48 2.371306 1_555
Mo12 O30 2.395391 1_655
Mo13 O41 1.727236 1_554
Mo13 O13 1.742629 1_554
Mo13 O45 1.943260 1_555
Mo13 O37 2.016361 1_554
Mo13 O49 2.371306 1_555
Mo13 O31 2.395400 1_555
Mo14 O42 1.727234 1_555
Mo14 O14 1.742638 1_555
Mo14 O46 1.943260 1_555
Mo14 O38 2.016358 1_555
Mo14 O50 2.371306 1_555
Mo14 O28 2.395391 1_455
Mo15 O43 1.727236 1_556
Mo15 O15 1.742629 1_556
Mo15 O47 1.943260 1_555
Mo15 O39 2.016361 1_556
Mo15 O51 2.371306 1_555
Mo15 O29 2.395400 1_555
H72 O64 0.979818 1_555
H73 O65 0.979816 1_555
H74 O66 0.979818 1_555
H75 O67 0.979816 1_555
H76 O64 0.977811 1_555
H77 O65 0.977811 1_555
H78 O66 0.977811 1_555
H79 O67 0.977811 1_555
C0 H0 1.094318 1_555
C0 H4 1.097189 1_555
C0 H8 1.098122 1_555
C0 S8 1.797627 1_455
C1 H1 1.094318 1_555
C1 H5 1.097189 1_555
C1 H9 1.098127 1_555
C1 S9 1.797627 1_555
C2 H2 1.094318 1_555
C2 H6 1.097189 1_555
C2 H10 1.098122 1_555
C2 S10 1.797627 1_655
C3 H3 1.094318 1_555
C3 H7 1.097189 1_555
C3 H11 1.098127 1_555
C3 S11 1.797627 1_555
C4 H12 1.095792 1_555
C4 H16 1.098056 1_555
C4 H20 1.099043 1_555
C4 S8 1.798388 1_555
C5 H13 1.095783 1_555
C5 H17 1.098062 1_555
C5 H21 1.099045 1_555
C5 S9 1.798388 1_555
C6 H14 1.095792 1_555
C6 H18 1.098056 1_555
C6 H22 1.099043 1_555
C6 S10 1.798388 1_555
C7 H15 1.095783 1_555
C7 H19 1.098062 1_555
C7 H23 1.099045 1_555
C7 S11 1.798388 1_555
C8 H24 1.094016 1_455
C8 H28 1.097850 1_565
C8 H32 1.099376 1_555
C8 S4 1.796248 1_555
C9 H25 1.094016 1_555
C9 H29 1.097850 1_545
C9 H33 1.099383 1_555
C9 S5 1.796248 1_555
C10 H26 1.094016 1_655
C10 H30 1.097850 1_545
C10 H34 1.099376 1_555
C10 S6 1.796248 1_555
C11 H27 1.094016 1_555
C11 H31 1.097850 1_565
C11 H35 1.099383 1_555
C11 S7 1.796248 1_555
C12 H36 1.093456 1_555
C12 H44 1.096877 1_555
C12 H40 1.096922 1_555
C12 S4 1.795213 1_555
C13 H37 1.093456 1_555
C13 H45 1.096877 1_555
C13 H41 1.096922 1_555
C13 S5 1.795222 1_555
C14 H38 1.093456 1_555
C14 H46 1.096877 1_555
C14 H42 1.096922 1_555
C14 S6 1.795213 1_555
C15 H39 1.093456 1_555
C15 H47 1.096877 1_555
C15 H43 1.096922 1_555
C15 S7 1.795222 1_555
C16 H48 1.094780 1_555
C16 H56 1.097350 1_555
C16 H52 1.098482 1_555
C16 S0 1.800827 1_555
C17 H49 1.094780 1_555
C17 H57 1.097357 1_555
C17 H53 1.098482 1_555
C17 S1 1.800827 1_555
C18 H50 1.094780 1_555
C18 H58 1.097350 1_555
C18 H54 1.098482 1_555
C18 S2 1.800827 1_555
C19 H51 1.094780 1_555
C19 H59 1.097357 1_555
C19 H55 1.098482 1_555
C19 S3 1.800827 1_555
C20 H60 1.094660 1_555
C20 H64 1.096901 1_555
C20 H68 1.097891 1_555
C20 S0 1.799110 1_555
C21 H61 1.094663 1_555
C21 H65 1.096901 1_555
C21 H69 1.097891 1_555
C21 S1 1.799110 1_555
C22 H62 1.094660 1_555
C22 H66 1.096901 1_555
C22 H70 1.097891 1_555
C22 S2 1.799110 1_555
C23 H63 1.094663 1_555
C23 H67 1.096901 1_555
C23 H71 1.097891 1_555
C23 S3 1.799110 1_555
O52 S4 1.536978 1_655
O53 S5 1.536978 1_555
O54 S6 1.536978 1_455
O55 S7 1.536978 1_555
O56 S8 1.541542 1_455
O57 S9 1.541542 1_555
O58 S10 1.541542 1_655
O59 S11 1.541542 1_555
O60 S0 1.534800 1_555
O61 S1 1.534800 1_555
O62 S2 1.534800 1_555
O63 S3 1.534800 1_555
