# generated using pymatgen
data_LaZn4Ni
_symmetry_space_group_name_H-M   'P 1'
_cell_length_a   5.28752582
_cell_length_b   5.28752582
_cell_length_c   4.19881747
_cell_angle_alpha   90.00000000
_cell_angle_beta   90.00000000
_cell_angle_gamma   119.99999453
_symmetry_Int_Tables_number   1
_chemical_formula_structural   LaZn4Ni
_chemical_formula_sum   'La1 Zn4 Ni1'
_cell_volume   101.66293741
_cell_formula_units_Z   1
loop_
 _symmetry_equiv_pos_site_id
 _symmetry_equiv_pos_as_xyz
  1  'x, y, z'
loop_
 _atom_site_type_symbol
 _atom_site_label
 _atom_site_symmetry_multiplicity
 _atom_site_fract_x
 _atom_site_fract_y
 _atom_site_fract_z
 _atom_site_occupancy
  La  La0  1  -0.00000000  -0.00000000  -0.00000000  1
  Zn  Zn0  1  0.66666700  0.33333300  -0.00000000  1
  Zn  Zn1  1  0.00889311  0.50444755  0.50000000  1
  Zn  Zn2  1  0.49555245  0.50444755  0.50000000  1
  Zn  Zn3  1  0.49555245  0.99110689  0.50000000  1
  Ni  Ni0  1  0.33333300  0.66666700  -0.00000000  1
loop_
_geom_bond_atom_site_label_1
_geom_bond_atom_site_label_2
_geom_bond_distance
_geom_bond_site_symmetry_2
La0 Zn0 3.052751 1_455
La0 Ni0 3.052751 1_545
La0 Ni0 3.052756 1_445
La0 Zn0 3.052756 1_445
La0 Ni0 3.052756 1_555
La0 Zn0 3.052756 1_555
La0 Zn3 3.376186 1_545
La0 Zn3 3.376186 1_544
La0 Zn1 3.376186 1_544
La0 Zn1 3.376186 1_545
La0 Zn2 3.376190 1_554
La0 Zn2 3.376190 1_444
La0 Zn2 3.376190 1_445
La0 Zn2 3.376190 1_555
La0 Zn3 3.376194 1_445
La0 Zn3 3.376194 1_444
La0 Zn1 3.376194 1_555
La0 Zn1 3.376194 1_554
Zn0 Zn3 2.619793 1_545
Zn0 Zn3 2.619793 1_544
Zn0 Zn1 2.619793 1_655
Zn0 Zn1 2.619793 1_654
Zn0 Zn2 2.619801 1_555
Zn0 Zn2 2.619801 1_554
Zn1 Zn2 2.573224 1_555
Zn1 Zn3 2.573224 1_555
Zn1 Zn2 2.714302 1_455
Zn1 Zn3 2.714302 1_445
Zn2 Zn3 2.573224 1_555
Zn2 Zn3 2.714302 1_545
Ni0 Zn2 2.571900 1_554
Ni0 Zn2 2.571900 1_555
Ni0 Zn3 2.571902 1_555
Ni0 Zn3 2.571902 1_554
Ni0 Zn1 2.571902 1_555
Ni0 Zn1 2.571902 1_554
Ni0 Zn0 3.052752 1_455
Ni0 Zn0 3.052752 1_565
Ni0 Zn0 3.052760 1_555
