# generated using pymatgen
data_Cs2GaFeS4
_symmetry_space_group_name_H-M   'P 1'
_cell_length_a   7.28830274
_cell_length_b   7.28830274
_cell_length_c   5.78344719
_cell_angle_alpha   78.78689336
_cell_angle_beta   78.78689336
_cell_angle_gamma   117.39047861
_symmetry_Int_Tables_number   1
_chemical_formula_structural   Cs2GaFeS4
_chemical_formula_sum   'Cs2 Ga1 Fe1 S4'
_cell_volume   252.94853761
_cell_formula_units_Z   1
loop_
 _symmetry_equiv_pos_site_id
 _symmetry_equiv_pos_as_xyz
  1  'x, y, z'
loop_
 _atom_site_type_symbol
 _atom_site_label
 _atom_site_symmetry_multiplicity
 _atom_site_fract_x
 _atom_site_fract_y
 _atom_site_fract_z
 _atom_site_occupancy
  Cs  Cs0  1  0.14512900  0.85487100  0.00000000  1
  Cs  Cs1  1  0.85477000  0.14523000  0.50000000  1
  Ga  Ga0  1  0.50301800  0.49698200  0.00000000  1
  Fe  Fe0  1  0.49704800  0.50295200  0.50000000  1
  S  S0  1  0.21835400  0.41856600  0.84298500  1
  S  S1  1  0.58143400  0.78164600  0.15701500  1
  S  S2  1  0.78199400  0.58174700  0.65463100  1
  S  S3  1  0.41825300  0.21800600  0.34536900  1
loop_
_geom_bond_atom_site_label_1
_geom_bond_atom_site_label_2
_geom_bond_distance
_geom_bond_site_symmetry_2
Cs0 S2 3.691284 1_455
Cs0 S3 3.691284 1_564
Cs0 S3 3.702943 1_565
Cs0 S2 3.702943 1_454
Cs0 S1 3.703704 1_555
Cs0 S0 3.703704 1_554
Cs0 S0 3.785681 1_564
Cs0 S1 3.785681 1_455
Cs1 S0 3.694519 1_655
Cs1 S1 3.694519 1_545
Cs1 S2 3.698321 1_555
Cs1 S3 3.698321 1_555
Cs1 S1 3.702959 1_546
Cs1 S0 3.702959 1_654
Cs1 S3 3.785504 1_655
Cs1 S2 3.785504 1_545
Ga0 S2 2.300069 1_554
Ga0 S3 2.300069 1_555
Ga0 S0 2.302016 1_554
Ga0 S1 2.302016 1_555
Fe0 S1 2.290837 1_555
Fe0 S0 2.290837 1_555
Fe0 S3 2.295050 1_555
Fe0 S2 2.295050 1_555
