# generated using pymatgen
data_MgV2(PO5)2
_symmetry_space_group_name_H-M   'P 1'
_cell_length_a   9.85348129
_cell_length_b   8.82526478
_cell_length_c   6.72799012
_cell_angle_alpha   77.32336782
_cell_angle_beta   60.90529690
_cell_angle_gamma   41.77133528
_symmetry_Int_Tables_number   1
_chemical_formula_structural   MgV2(PO5)2
_chemical_formula_sum   'Mg2 V4 P4 O20'
_cell_volume   330.09936451
_cell_formula_units_Z   2
loop_
 _symmetry_equiv_pos_site_id
 _symmetry_equiv_pos_as_xyz
  1  'x, y, z'
loop_
 _atom_site_type_symbol
 _atom_site_label
 _atom_site_symmetry_multiplicity
 _atom_site_fract_x
 _atom_site_fract_y
 _atom_site_fract_z
 _atom_site_occupancy
  Mg  Mg0  1  0.99786700  0.50213300  0.50213300  1
  Mg  Mg1  1  0.74786700  0.25213300  0.25213300  1
  V  V0  1  0.39031500  0.35010700  0.87757500  1
  V  V1  1  0.38200300  0.87757500  0.35010700  1
  V  V2  1  0.89989300  0.85968500  0.86799700  1
  V  V3  1  0.37242500  0.86799700  0.85968500  1
  P  P0  1  0.96228200  0.45336500  0.03716300  1
  P  P1  1  0.79663500  0.28771800  0.70281000  1
  P  P2  1  0.54719000  0.03716300  0.45336500  1
  P  P3  1  0.21283700  0.70281000  0.28771800  1
  O  O0  1  0.44699600  0.24980900  0.58301100  1
  O  O1  1  0.33750000  0.82766200  0.65761400  1
  O  O2  1  0.41224200  0.61761900  0.30745700  1
  O  O3  1  0.66698900  0.52981700  0.80300400  1
  O  O4  1  0.75760800  0.94752500  0.21522100  1
  O  O5  1  0.35028900  0.12268100  0.42685700  1
  O  O6  1  0.42233800  0.91250000  0.07277600  1
  O  O7  1  0.17722400  0.65761400  0.82766200  1
  O  O8  1  0.59238600  0.07277600  0.91250000  1
  O  O9  1  0.30247500  0.49239200  0.17035300  1
  O  O10  1  0.72018300  0.58301100  0.24980900  1
  O  O11  1  0.03477900  0.17035300  0.49239200  1
  O  O12  1  0.07964700  0.21522100  0.94752500  1
  O  O13  1  0.12731900  0.89971100  0.14982700  1
  O  O14  1  0.10017300  0.42685700  0.12268100  1
  O  O15  1  0.82314300  0.14982700  0.89971100  1
  O  O16  1  0.94254300  0.58731800  0.83775800  1
  O  O17  1  0.66268200  0.30745700  0.61761900  1
  O  O18  1  0.00019100  0.80300400  0.52981700  1
  O  O19  1  0.63238100  0.83775800  0.58731800  1
loop_
_geom_bond_atom_site_label_1
_geom_bond_atom_site_label_2
_geom_bond_distance
_geom_bond_site_symmetry_2
Mg0 O19 2.213126 1_555
Mg0 O16 2.213126 1_555
Mg0 O14 2.284236 1_655
Mg0 O5 2.284236 1_655
Mg1 O17 2.213126 1_555
Mg1 O2 2.213126 1_555
Mg1 O15 2.284236 1_554
Mg1 O13 2.284236 1_645
O0 P2 1.541017 1_555
O0 V0 1.994779 1_555
O1 V3 1.715690 1_555
O1 V1 1.916386 1_555
O2 P3 1.565229 1_555
O2 V1 2.149543 1_555
O3 P1 1.541025 1_555
O3 V3 1.994775 1_555
O4 P2 1.539752 1_565
O4 V2 2.003119 1_554
O5 P2 1.568094 1_555
O5 V1 2.090081 1_545
O6 V1 1.715690 1_555
O6 V3 1.916386 1_554
O7 V2 1.715690 1_455
O7 V0 1.916386 1_555
O8 V0 1.715690 1_555
O8 V2 1.916386 1_545
O9 P3 1.539756 1_555
O9 V0 2.003113 1_554
O10 P0 1.541023 1_555
O10 V1 1.994774 1_555
O11 P1 1.539750 1_455
O11 V1 2.003118 1_545
O12 P0 1.539748 1_456
O12 V3 2.003117 1_545
O13 P3 1.568094 1_555
O13 V3 2.090081 1_554
O14 P0 1.568094 1_455
O14 V0 2.090081 1_554
O15 P1 1.568094 1_555
O15 V2 2.090081 1_545
O16 P0 1.565229 1_556
O16 V2 2.149543 1_555
O17 P1 1.565229 1_555
O17 V0 2.149543 1_555
O18 P3 1.541021 1_555
O18 V2 1.994773 1_455
O19 P2 1.565229 1_565
O19 V3 2.149543 1_555
