# generated using pymatgen
data_Fe4OF7
_symmetry_space_group_name_H-M   'P 1'
_cell_length_a   5.80536700
_cell_length_b   5.81046426
_cell_length_c   10.14560087
_cell_angle_alpha   99.61480342
_cell_angle_beta   100.96095138
_cell_angle_gamma   111.94818172
_symmetry_Int_Tables_number   1
_chemical_formula_structural   Fe4OF7
_chemical_formula_sum   'Fe8 O2 F14'
_cell_volume   300.79430555
_cell_formula_units_Z   2
loop_
 _symmetry_equiv_pos_site_id
 _symmetry_equiv_pos_as_xyz
  1  'x, y, z'
loop_
 _atom_site_type_symbol
 _atom_site_label
 _atom_site_symmetry_multiplicity
 _atom_site_fract_x
 _atom_site_fract_y
 _atom_site_fract_z
 _atom_site_occupancy
  Fe  Fe0  1  0.61454600  0.12827900  0.24485400  1
  Fe  Fe1  1  0.87453700  0.37301600  0.75300500  1
  Fe  Fe2  1  0.25212200  0.26682400  0.49314400  1
  Fe  Fe3  1  0.73886800  0.74531600  0.49538400  1
  Fe  Fe4  1  0.50454300  0.51327400  0.99740700  1
  Fe  Fe5  1  0.38734600  0.87561800  0.75389900  1
  Fe  Fe6  1  0.14249700  0.61688700  0.26082000  1
  Fe  Fe7  1  0.96668600  0.98161400  0.99144900  1
  O  O0  1  0.34569300  0.52845700  0.40694800  1
  O  O1  1  0.61908200  0.81022600  0.90268100  1
  F  F0  1  0.86609200  0.06555300  0.39898800  1
  F  F1  1  0.92069600  0.21619600  0.14505800  1
  F  F2  1  0.57570300  0.27983100  0.85338900  1
  F  F3  1  0.32842100  0.02737700  0.35718300  1
  F  F4  1  0.82009900  0.52390500  0.34778200  1
  F  F5  1  0.92819600  0.71613700  0.10392800  1
  F  F6  1  0.63446100  0.43259200  0.60284200  1
  F  F7  1  0.37038000  0.18675300  0.09340800  1
  F  F8  1  0.08881500  0.28393900  0.90389300  1
  F  F9  1  0.68378400  0.97895200  0.64759400  1
  F  F10  1  0.16868400  0.46595900  0.64760500  1
  F  F11  1  0.43395900  0.72745100  0.15268900  1
  F  F12  1  0.07459100  0.77739300  0.85251000  1
  F  F13  1  0.16237100  0.97101700  0.59662700  1
loop_
_geom_bond_atom_site_label_1
_geom_bond_atom_site_label_2
_geom_bond_distance
_geom_bond_site_symmetry_2
Fe2 O0 1.838020 1_555
Fe3 O0 2.072736 1_555
Fe4 O1 2.069338 1_555
Fe5 O1 2.008539 1_555
Fe6 O0 1.973830 1_555
Fe7 O1 1.839034 1_555
F0 Fe2 2.038635 1_655
F0 Fe0 2.104903 1_555
F0 Fe3 2.195341 1_545
F1 Fe7 2.019554 1_544
F1 Fe0 2.150192 1_555
F1 Fe6 2.174484 1_655
F2 Fe4 2.032692 1_555
F2 Fe1 2.119910 1_555
F2 Fe5 2.144596 1_545
F3 Fe2 2.021537 1_555
F3 Fe0 2.148657 1_555
F3 Fe6 2.169103 1_545
F4 Fe3 2.049028 1_555
F4 Fe0 2.114819 1_555
F4 Fe6 2.145841 1_655
F5 Fe7 2.039355 1_554
F5 Fe6 2.122251 1_655
F5 Fe4 2.236707 1_554
F6 Fe1 2.027981 1_555
F6 Fe2 2.048762 1_555
F6 Fe3 2.224289 1_555
F7 Fe0 2.047364 1_555
F7 Fe7 2.135705 1_444
F7 Fe4 2.226192 1_554
F8 Fe1 2.044660 1_455
F8 Fe7 2.051177 1_445
F8 Fe4 2.191664 1_555
F9 Fe3 2.035171 1_555
F9 Fe1 2.109255 1_565
F9 Fe5 2.152920 1_555
F10 Fe2 2.032527 1_555
F10 Fe1 2.132862 1_455
F10 Fe5 2.191675 1_555
F11 Fe4 2.042144 1_554
F11 Fe0 2.114751 1_565
F11 Fe6 2.146625 1_555
F12 Fe7 2.029831 1_455
F12 Fe1 2.147224 1_455
F12 Fe5 2.174895 1_555
F13 Fe2 2.114079 1_565
F13 Fe5 2.145510 1_555
F13 Fe3 2.235844 1_455
