# generated using pymatgen
data_HoMn2SiC
_symmetry_space_group_name_H-M   'P 1'
_cell_length_a   5.60295595
_cell_length_b   5.60295595
_cell_length_c   6.99325700
_cell_angle_alpha   90.00000000
_cell_angle_beta   90.00000000
_cell_angle_gamma   141.43416243
_symmetry_Int_Tables_number   1
_chemical_formula_structural   HoMn2SiC
_chemical_formula_sum   'Ho2 Mn4 Si2 C2'
_cell_volume   136.86427823
_cell_formula_units_Z   2
loop_
 _symmetry_equiv_pos_site_id
 _symmetry_equiv_pos_as_xyz
  1  'x, y, z'
loop_
 _atom_site_type_symbol
 _atom_site_label
 _atom_site_symmetry_multiplicity
 _atom_site_fract_x
 _atom_site_fract_y
 _atom_site_fract_z
 _atom_site_occupancy
  Ho  Ho0  1  0.54401000  0.45599000  0.25000000  1
  Ho  Ho1  1  0.45599000  0.54401000  0.75000000  1
  Mn  Mn0  1  0.83188700  0.16811300  0.06155800  1
  Mn  Mn1  1  0.16811300  0.83188700  0.93844200  1
  Mn  Mn2  1  0.16811300  0.83188700  0.56155800  1
  Mn  Mn3  1  0.83188700  0.16811300  0.43844200  1
  Si  Si0  1  0.26452700  0.73547300  0.25000000  1
  Si  Si1  1  0.73547300  0.26452700  0.75000000  1
  C  C0  1  0.00000000  0.00000000  0.00000000  1
  C  C1  1  0.00000000  0.00000000  0.50000000  1
loop_
_geom_bond_atom_site_label_1
_geom_bond_atom_site_label_2
_geom_bond_distance
_geom_bond_site_symmetry_2
Ho0 Si0 2.956163 1_555
Ho0 Si0 2.977235 1_655
Ho0 Si0 2.977235 1_545
Ho1 Si1 2.956163 1_555
Ho1 Si1 2.977235 1_565
Ho1 Si1 2.977235 1_455
Mn0 Si0 2.380721 1_545
Mn0 Si0 2.380721 1_655
Mn0 Si1 2.405655 1_554
Mn1 Si1 2.380721 1_455
Mn1 Si1 2.380721 1_565
Mn1 Si0 2.405655 1_556
Mn2 Si1 2.380721 1_455
Mn2 Si1 2.380721 1_565
Mn2 Si0 2.405655 1_555
Mn3 Si0 2.380721 1_545
Mn3 Si0 2.380721 1_655
Mn3 Si1 2.405655 1_555
C0 Mn0 1.829542 1_455
C0 Mn1 1.829542 1_544
C0 Ho1 2.587825 1_554
C0 Ho1 2.587825 1_444
C0 Ho0 2.587825 1_445
C0 Ho0 2.587825 1_555
C1 Mn2 1.829542 1_545
C1 Mn3 1.829542 1_455
C1 Ho0 2.587825 1_445
C1 Ho0 2.587825 1_555
C1 Ho1 2.587825 1_445
C1 Ho1 2.587825 1_555
