# generated using pymatgen
data_Er2(Ga3Rh)3
_symmetry_space_group_name_H-M   'P 1'
_cell_length_a   7.45320289
_cell_length_b   7.45320289
_cell_length_c   9.44682055
_cell_angle_alpha   90.00000000
_cell_angle_beta   90.00000000
_cell_angle_gamma   119.74053871
_symmetry_Int_Tables_number   1
_chemical_formula_structural   Er2(Ga3Rh)3
_chemical_formula_sum   'Er4 Ga18 Rh6'
_cell_volume   455.65036447
_cell_formula_units_Z   2
loop_
 _symmetry_equiv_pos_site_id
 _symmetry_equiv_pos_as_xyz
  1  'x, y, z'
loop_
 _atom_site_type_symbol
 _atom_site_label
 _atom_site_symmetry_multiplicity
 _atom_site_fract_x
 _atom_site_fract_y
 _atom_site_fract_z
 _atom_site_occupancy
  Er  Er0  1  0.99808691  0.66955859  0.25000000  1
  Er  Er1  1  0.00191309  0.33044141  0.75000000  1
  Er  Er2  1  0.66955859  0.99808691  0.25000000  1
  Er  Er3  1  0.33044141  0.00191309  0.75000000  1
  Ga  Ga0  1  0.12771916  0.12771916  0.25000000  1
  Ga  Ga1  1  0.87228084  0.87228084  0.75000000  1
  Ga  Ga2  1  0.00144143  0.33458332  0.07825495  1
  Ga  Ga3  1  -0.00144143  0.66541668  0.92174505  1
  Ga  Ga4  1  -0.00144143  0.66541668  0.57825495  1
  Ga  Ga5  1  0.33458332  0.00144143  0.42174505  1
  Ga  Ga6  1  0.00144143  0.33458332  0.42174505  1
  Ga  Ga7  1  0.66541668  -0.00144143  0.57825495  1
  Ga  Ga8  1  0.66541668  -0.00144143  0.92174505  1
  Ga  Ga9  1  0.33458332  0.00144143  0.07825495  1
  Ga  Ga10  1  0.33416945  0.33416945  0.56742621  1
  Ga  Ga11  1  0.66583055  0.66583055  0.43257379  1
  Ga  Ga12  1  0.66583055  0.66583055  0.06742621  1
  Ga  Ga13  1  0.33416945  0.33416945  0.93257379  1
  Ga  Ga14  1  0.33717655  0.54603319  0.25000000  1
  Ga  Ga15  1  0.66282345  0.45396681  0.75000000  1
  Ga  Ga16  1  0.54603319  0.33717655  0.25000000  1
  Ga  Ga17  1  0.45396681  0.66282345  0.75000000  1
  Rh  Rh0  1  0.67154761  0.32845239  0.00000000  1
  Rh  Rh1  1  0.32845239  0.67154761  0.00000000  1
  Rh  Rh2  1  0.32845239  0.67154761  0.50000000  1
  Rh  Rh3  1  0.67154761  0.32845239  0.50000000  1
  Rh  Rh4  1  0.00000000  0.00000000  0.00000000  1
  Rh  Rh5  1  0.00000000  0.00000000  0.50000000  1
loop_
_geom_bond_atom_site_label_1
_geom_bond_atom_site_label_2
_geom_bond_distance
_geom_bond_site_symmetry_2
Er0 Ga9 2.980929 1_665
Er0 Ga5 2.980929 1_665
Er0 Ga2 2.987990 1_655
Er0 Ga6 2.987990 1_655
Er0 Ga11 3.006604 1_555
Er0 Ga12 3.006604 1_555
Er0 Ga16 3.034432 1_555
Er0 Ga0 3.052991 1_665
Er0 Ga14 3.089238 1_655
Er0 Ga3 3.101139 1_654
Er0 Ga4 3.101139 1_655
Er1 Ga7 2.980929 1_455
Er1 Ga8 2.980929 1_455
Er1 Ga4 2.987990 1_555
Er1 Ga3 2.987990 1_555
Er1 Ga10 3.006604 1_555
Er1 Ga13 3.006604 1_555
Er1 Ga17 3.034432 1_555
Er1 Ga1 3.052991 1_445
Er1 Ga15 3.089238 1_455
Er1 Ga6 3.101139 1_555
Er1 Ga2 3.101139 1_556
Er2 Ga2 2.980929 1_665
Er2 Ga6 2.980929 1_665
Er2 Ga9 2.987990 1_565
Er2 Ga5 2.987990 1_565
Er2 Ga11 3.006604 1_555
Er2 Ga12 3.006604 1_555
Er2 Ga14 3.034432 1_555
Er2 Ga0 3.052991 1_665
Er2 Ga16 3.089238 1_565
Er2 Ga8 3.101139 1_564
Er2 Ga7 3.101139 1_565
Er3 Ga4 2.980929 1_545
Er3 Ga3 2.980929 1_545
Er3 Ga7 2.987990 1_555
Er3 Ga8 2.987990 1_555
Er3 Ga10 3.006604 1_555
Er3 Ga13 3.006604 1_555
Er3 Ga15 3.034432 1_555
Er3 Ga1 3.052991 1_445
Er3 Ga17 3.089238 1_545
Er3 Ga5 3.101139 1_555
Er3 Ga9 3.101139 1_556
Ga0 Rh4 2.547727 1_555
Ga0 Rh5 2.547727 1_555
Ga0 Ga14 2.707146 1_555
Ga0 Ga16 2.707146 1_555
Ga0 Ga6 2.708318 1_555
Ga0 Ga9 2.708318 1_555
Ga0 Ga2 2.708318 1_555
Ga0 Ga5 2.708318 1_555
Ga1 Rh4 2.547727 1_666
Ga1 Rh5 2.547727 1_665
Ga1 Ga17 2.707146 1_555
Ga1 Ga15 2.707146 1_555
Ga1 Ga7 2.708318 1_565
Ga1 Ga4 2.708318 1_655
Ga1 Ga3 2.708318 1_655
Ga1 Ga8 2.708318 1_565
Ga2 Rh0 2.546105 1_455
Ga2 Rh1 2.592532 1_555
Ga2 Rh4 2.595894 1_555
Ga2 Ga3 2.884279 1_554
Ga2 Ga8 2.916780 1_454
Ga3 Rh1 2.546105 1_556
Ga3 Rh0 2.592532 1_456
Ga3 Rh4 2.595894 1_566
Ga3 Ga9 2.916780 1_566
Ga4 Rh2 2.546105 1_555
Ga4 Rh3 2.592532 1_455
Ga4 Rh5 2.595894 1_565
Ga4 Ga6 2.884279 1_555
Ga4 Ga5 2.916780 1_565
Ga5 Rh2 2.546105 1_545
Ga5 Rh3 2.592532 1_555
Ga5 Rh5 2.595894 1_555
Ga5 Ga7 2.884279 1_555
Ga6 Rh3 2.546105 1_455
Ga6 Rh2 2.592532 1_555
Ga6 Rh5 2.595894 1_555
Ga6 Ga7 2.916780 1_455
Ga7 Rh3 2.546105 1_555
Ga7 Rh2 2.592532 1_545
Ga7 Rh5 2.595894 1_655
Ga8 Rh0 2.546105 1_556
Ga8 Rh1 2.592532 1_546
Ga8 Rh4 2.595894 1_656
Ga8 Ga9 2.884279 1_556
Ga9 Rh1 2.546105 1_545
Ga9 Rh0 2.592532 1_555
Ga9 Rh4 2.595894 1_555
Ga10 Rh5 2.580250 1_555
Ga10 Rh2 2.614726 1_555
Ga10 Rh3 2.614726 1_555
Ga10 Ga17 2.757207 1_555
Ga10 Ga15 2.757207 1_555
Ga10 Ga11 2.789508 1_555
Ga10 Ga5 2.837506 1_555
Ga10 Ga6 2.837506 1_555
Ga11 Rh5 2.580250 1_665
Ga11 Rh2 2.614726 1_555
Ga11 Rh3 2.614726 1_555
Ga11 Ga14 2.757207 1_555
Ga11 Ga16 2.757207 1_555
Ga11 Ga7 2.837506 1_565
Ga11 Ga4 2.837506 1_655
Ga12 Rh4 2.580250 1_665
Ga12 Rh1 2.614726 1_555
Ga12 Rh0 2.614726 1_555
Ga12 Ga14 2.757207 1_555
Ga12 Ga16 2.757207 1_555
Ga12 Ga13 2.789508 1_554
Ga12 Ga8 2.837506 1_564
Ga12 Ga3 2.837506 1_654
Ga13 Rh4 2.580250 1_556
Ga13 Rh0 2.614726 1_556
Ga13 Rh1 2.614726 1_556
Ga13 Ga17 2.757207 1_555
Ga13 Ga15 2.757207 1_555
Ga13 Ga9 2.837506 1_556
Ga13 Ga2 2.837506 1_556
Ga14 Rh2 2.552912 1_555
Ga14 Rh1 2.552912 1_555
Ga14 Ga16 2.692667 1_555
Ga14 Ga2 2.732206 1_555
Ga14 Ga6 2.732206 1_555
Ga15 Rh3 2.552912 1_555
Ga15 Rh0 2.552912 1_556
Ga15 Ga17 2.692667 1_555
Ga15 Ga4 2.732206 1_655
Ga15 Ga3 2.732206 1_655
Ga16 Rh3 2.552912 1_555
Ga16 Rh0 2.552912 1_555
Ga16 Ga5 2.732206 1_555
Ga16 Ga9 2.732206 1_555
Ga17 Rh1 2.552912 1_556
Ga17 Rh2 2.552912 1_555
Ga17 Ga7 2.732206 1_565
Ga17 Ga8 2.732206 1_565
