# generated using pymatgen
data_ScSnPt
_symmetry_space_group_name_H-M   'P 1'
_cell_length_a   3.72189911
_cell_length_b   7.39782026
_cell_length_c   7.39776773
_cell_angle_alpha   120.00024461
_cell_angle_beta   90.00000000
_cell_angle_gamma   90.00000000
_symmetry_Int_Tables_number   1
_chemical_formula_structural   ScSnPt
_chemical_formula_sum   'Sc3 Sn3 Pt3'
_cell_volume   176.40001763
_cell_formula_units_Z   3
loop_
 _symmetry_equiv_pos_site_id
 _symmetry_equiv_pos_as_xyz
  1  'x, y, z'
loop_
 _atom_site_type_symbol
 _atom_site_label
 _atom_site_symmetry_multiplicity
 _atom_site_fract_x
 _atom_site_fract_y
 _atom_site_fract_z
 _atom_site_occupancy
  Sc  Sc0  1  0.50000000  0.60465749  -0.00000000  1
  Sc  Sc1  1  0.50000000  0.39532177  0.39532933  1
  Sc  Sc2  1  0.50000000  0.99999044  0.60467067  1
  Sn  Sn0  1  0.00000000  0.27068073  -0.00000000  1
  Sn  Sn1  1  0.00000000  0.72929682  0.72930613  1
  Sn  Sn2  1  0.00000000  0.99998969  0.27069387  1
  Pt  Pt0  1  -0.00000000  0.33332573  0.66666880  1
  Pt  Pt1  1  -0.00000000  0.66665693  0.33333120  1
  Pt  Pt2  1  0.50000000  0.99997941  0.00000000  1
loop_
_geom_bond_atom_site_label_1
_geom_bond_atom_site_label_2
_geom_bond_distance
_geom_bond_site_symmetry_2
Sc0 Sn0 3.093136 1_555
Sc0 Sn0 3.093136 1_655
Sc0 Sn2 3.189026 1_655
Sc0 Sn2 3.189026 1_555
Sc0 Sn1 3.189031 1_554
Sc0 Sn1 3.189031 1_654
Sc1 Sn1 3.093117 1_655
Sc1 Sn1 3.093117 1_555
Sc1 Sn0 3.188997 1_555
Sc1 Sn0 3.188997 1_655
Sc1 Sn2 3.189036 1_645
Sc1 Sn2 3.189036 1_545
Sc2 Sn2 3.093120 1_655
Sc2 Sn2 3.093120 1_555
Sc2 Sn0 3.188999 1_666
Sc2 Sn0 3.188999 1_566
Sc2 Sn1 3.189020 1_555
Sc2 Sn1 3.189020 1_655
Pt0 Sn1 2.727318 1_555
Pt0 Sn0 2.727319 1_556
Pt0 Sn2 2.727319 1_545
Pt0 Sc0 2.936524 1_556
Pt0 Sc0 2.936524 1_456
Pt0 Sc1 2.936561 1_555
Pt0 Sc1 2.936561 1_455
Pt0 Sc2 2.936564 1_445
Pt0 Sc2 2.936564 1_545
Pt1 Sn2 2.727310 1_555
Pt1 Sn1 2.727317 1_555
Pt1 Sn0 2.727319 1_555
Pt1 Sc0 2.936525 1_455
Pt1 Sc0 2.936525 1_555
Pt1 Sc2 2.936553 1_555
Pt1 Sc2 2.936553 1_455
Pt1 Sc1 2.936553 1_555
Pt1 Sc1 2.936553 1_455
Pt2 Sn1 2.733696 1_654
Pt2 Sn1 2.733696 1_554
Pt2 Sn2 2.733699 1_555
Pt2 Sn2 2.733699 1_655
Pt2 Sn0 2.733777 1_565
Pt2 Sn0 2.733777 1_665
Pt2 Sc0 2.924521 1_555
Pt2 Sc2 2.924595 1_554
Pt2 Sc1 2.924602 1_565
