# generated using pymatgen
data_CeB4H2ClO8
_symmetry_space_group_name_H-M   'P 1'
_cell_length_a   6.56479390
_cell_length_b   6.56479390
_cell_length_c   9.82179908
_cell_angle_alpha   97.68790963
_cell_angle_beta   97.68790963
_cell_angle_gamma   119.50869553
_symmetry_Int_Tables_number   1
_chemical_formula_structural   CeB4H2ClO8
_chemical_formula_sum   'Ce2 B8 H4 Cl2 O16'
_cell_volume   355.14788094
_cell_formula_units_Z   2
loop_
 _symmetry_equiv_pos_site_id
 _symmetry_equiv_pos_as_xyz
  1  'x, y, z'
loop_
 _atom_site_type_symbol
 _atom_site_label
 _atom_site_symmetry_multiplicity
 _atom_site_fract_x
 _atom_site_fract_y
 _atom_site_fract_z
 _atom_site_occupancy
  Ce  Ce0  1  0.68151500  0.26908200  0.06637800  1
  Ce  Ce1  1  0.26908200  0.68151500  0.56637800  1
  B  B0  1  0.61184400  0.72148200  0.14714800  1
  B  B1  1  0.72148200  0.61184400  0.64714800  1
  B  B2  1  0.23160100  0.42104600  0.19288000  1
  B  B3  1  0.42104600  0.23160100  0.69288000  1
  B  B4  1  0.04236700  0.97658800  0.12912500  1
  B  B5  1  0.97658800  0.04236700  0.62912500  1
  B  B6  1  0.31998800  0.83201800  0.21748500  1
  B  B7  1  0.83201800  0.31998800  0.71748500  1
  H  H0  1  0.41124700  0.39700700  0.37296600  1
  H  H1  1  0.39700700  0.41124700  0.87296600  1
  H  H2  1  0.47061700  0.06171200  0.41630700  1
  H  H3  1  0.06171200  0.47061700  0.91630700  1
  Cl  Cl0  1  0.43894300  0.79388200  0.87098100  1
  Cl  Cl1  1  0.79388200  0.43894300  0.37098100  1
  O  O0  1  0.45108400  0.48101900  0.13585400  1
  O  O1  1  0.48101900  0.45108400  0.63585400  1
  O  O2  1  0.56554400  0.89864500  0.18831100  1
  O  O3  1  0.89864500  0.56554400  0.68831100  1
  O  O4  1  0.25874800  0.98860300  0.14802600  1
  O  O5  1  0.98860300  0.25874800  0.64802600  1
  O  O6  1  0.14547900  0.57768600  0.16127400  1
  O  O7  1  0.57768600  0.14547900  0.66127400  1
  O  O8  1  0.82902200  0.75907700  0.11713300  1
  O  O9  1  0.75907700  0.82902200  0.61713300  1
  O  O10  1  0.02908500  0.17563200  0.12045200  1
  O  O11  1  0.17563200  0.02908500  0.62045200  1
  O  O12  1  0.34571900  0.89368900  0.37304700  1
  O  O13  1  0.89368900  0.34571900  0.87304700  1
  O  O14  1  0.29273400  0.44355700  0.34924300  1
  O  O15  1  0.44355700  0.29273400  0.84924300  1
loop_
_geom_bond_atom_site_label_1
_geom_bond_atom_site_label_2
_geom_bond_distance
_geom_bond_site_symmetry_2
Ce0 O13 2.464104 1_554
Ce0 O15 2.539451 1_554
Ce0 O0 2.604862 1_555
Ce0 O6 2.628050 1_655
Ce0 O10 2.646997 1_655
Ce0 O2 2.669650 1_545
Ce0 O4 2.773540 1_545
Ce0 O8 2.811894 1_555
Ce0 Cl1 2.905991 1_555
Ce0 Cl0 2.938968 1_544
Ce1 O12 2.464104 1_555
Ce1 O14 2.539451 1_555
Ce1 O1 2.604862 1_555
Ce1 O7 2.628050 1_565
Ce1 O11 2.646997 1_565
Ce1 O3 2.669650 1_455
Ce1 O5 2.773540 1_455
Ce1 O9 2.811894 1_555
Ce1 Cl0 2.905991 1_555
Ce1 Cl1 2.938968 1_455
B0 O2 1.365215 1_555
B0 O0 1.377928 1_555
B0 O8 1.402073 1_555
B1 O3 1.365215 1_555
B1 O1 1.377928 1_555
B1 O9 1.402073 1_555
B2 O6 1.443816 1_555
B2 O10 1.483064 1_555
B2 O14 1.502473 1_555
B2 O0 1.503624 1_555
B3 O7 1.443816 1_555
B3 O11 1.483064 1_555
B3 O15 1.502473 1_555
B3 O1 1.503624 1_555
B4 O10 1.364665 1_565
B4 O4 1.368812 1_555
B4 O8 1.398267 1_455
B5 O11 1.364665 1_655
B5 O5 1.368812 1_555
B5 O9 1.398267 1_545
B6 O6 1.450790 1_555
B6 O4 1.484950 1_555
B6 O12 1.491640 1_555
B6 O2 1.527930 1_555
B7 O7 1.450790 1_555
B7 O5 1.484950 1_555
B7 O13 1.491640 1_555
B7 O3 1.527930 1_555
H0 O14 0.978644 1_555
H1 O15 0.978644 1_555
H2 O12 0.979773 1_545
H3 O13 0.979773 1_455
