# generated using pymatgen
data_Er3Co4Ge13
_symmetry_space_group_name_H-M   'P 1'
_cell_length_a   8.76371900
_cell_length_b   8.76371900
_cell_length_c   8.76371900
_cell_angle_alpha   90.00000000
_cell_angle_beta   90.00000000
_cell_angle_gamma   90.00000000
_symmetry_Int_Tables_number   1
_chemical_formula_structural   Er3Co4Ge13
_chemical_formula_sum   'Er6 Co8 Ge26'
_cell_volume   673.07790093
_cell_formula_units_Z   2
loop_
 _symmetry_equiv_pos_site_id
 _symmetry_equiv_pos_as_xyz
  1  'x, y, z'
loop_
 _atom_site_type_symbol
 _atom_site_label
 _atom_site_symmetry_multiplicity
 _atom_site_fract_x
 _atom_site_fract_y
 _atom_site_fract_z
 _atom_site_occupancy
  Er  Er0  1  0.00000000  0.50000000  0.75000000  1
  Er  Er1  1  0.50000000  0.25000000  0.00000000  1
  Er  Er2  1  0.75000000  0.00000000  0.50000000  1
  Er  Er3  1  0.00000000  0.50000000  0.25000000  1
  Er  Er4  1  0.50000000  0.75000000  0.00000000  1
  Er  Er5  1  0.25000000  0.00000000  0.50000000  1
  Co  Co0  1  0.75000000  0.25000000  0.75000000  1
  Co  Co1  1  0.25000000  0.75000000  0.25000000  1
  Co  Co2  1  0.75000000  0.75000000  0.25000000  1
  Co  Co3  1  0.25000000  0.25000000  0.75000000  1
  Co  Co4  1  0.25000000  0.75000000  0.75000000  1
  Co  Co5  1  0.75000000  0.25000000  0.25000000  1
  Co  Co6  1  0.25000000  0.25000000  0.25000000  1
  Co  Co7  1  0.75000000  0.75000000  0.75000000  1
  Ge  Ge0  1  0.50000000  0.50000000  0.50000000  1
  Ge  Ge1  1  0.00000000  0.00000000  0.00000000  1
  Ge  Ge2  1  0.80485800  0.34702400  0.50000000  1
  Ge  Ge3  1  0.65297600  0.50000000  0.80485800  1
  Ge  Ge4  1  0.50000000  0.19514200  0.65297600  1
  Ge  Ge5  1  0.19514200  0.65297600  0.50000000  1
  Ge  Ge6  1  0.34702400  0.50000000  0.19514200  1
  Ge  Ge7  1  0.50000000  0.80485800  0.34702400  1
  Ge  Ge8  1  0.80485800  0.65297600  0.50000000  1
  Ge  Ge9  1  0.65297600  0.50000000  0.19514200  1
  Ge  Ge10  1  0.19514200  0.34702400  0.50000000  1
  Ge  Ge11  1  0.34702400  0.50000000  0.80485800  1
  Ge  Ge12  1  0.50000000  0.80485800  0.65297600  1
  Ge  Ge13  1  0.50000000  0.19514200  0.34702400  1
  Ge  Ge14  1  0.30485800  0.00000000  0.84702400  1
  Ge  Ge15  1  0.15297600  0.30485800  0.00000000  1
  Ge  Ge16  1  0.00000000  0.15297600  0.69514200  1
  Ge  Ge17  1  0.69514200  0.00000000  0.15297600  1
  Ge  Ge18  1  0.84702400  0.69514200  0.00000000  1
  Ge  Ge19  1  0.00000000  0.84702400  0.30485800  1
  Ge  Ge20  1  0.30485800  0.00000000  0.15297600  1
  Ge  Ge21  1  0.15297600  0.69514200  0.00000000  1
  Ge  Ge22  1  0.69514200  0.00000000  0.84702400  1
  Ge  Ge23  1  0.84702400  0.30485800  0.00000000  1
  Ge  Ge24  1  0.00000000  0.15297600  0.30485800  1
  Ge  Ge25  1  0.00000000  0.84702400  0.69514200  1
loop_
_geom_bond_atom_site_label_1
_geom_bond_atom_site_label_2
_geom_bond_distance
_geom_bond_site_symmetry_2
Er0 Ge3 3.078986 1_455
Er0 Ge11 3.078986 1_555
Er0 Ge25 3.078986 1_555
Er0 Ge16 3.078986 1_555
Er0 Ge18 3.085801 1_456
Er0 Ge5 3.085801 1_555
Er0 Ge21 3.085801 1_556
Er0 Ge10 3.085801 1_555
Er0 Ge8 3.085801 1_455
Er0 Ge2 3.085801 1_455
Er0 Ge15 3.085801 1_556
Er0 Ge23 3.085801 1_456
Er1 Ge23 3.078986 1_555
Er1 Ge15 3.078986 1_555
Er1 Ge4 3.078986 1_554
Er1 Ge13 3.078986 1_555
Er1 Ge6 3.085801 1_555
Er1 Ge22 3.085801 1_554
Er1 Ge9 3.085801 1_555
Er1 Ge17 3.085801 1_555
Er1 Ge3 3.085801 1_554
Er1 Ge11 3.085801 1_554
Er1 Ge20 3.085801 1_555
Er1 Ge14 3.085801 1_554
Er2 Ge8 3.078986 1_545
Er2 Ge2 3.078986 1_555
Er2 Ge22 3.078986 1_555
Er2 Ge17 3.078986 1_555
Er2 Ge4 3.085801 1_555
Er2 Ge13 3.085801 1_555
Er2 Ge16 3.085801 1_655
Er2 Ge25 3.085801 1_645
Er2 Ge7 3.085801 1_545
Er2 Ge12 3.085801 1_545
Er2 Ge24 3.085801 1_655
Er2 Ge19 3.085801 1_645
Er3 Ge24 3.078986 1_555
Er3 Ge19 3.078986 1_555
Er3 Ge6 3.078986 1_555
Er3 Ge9 3.078986 1_455
Er3 Ge18 3.085801 1_455
Er3 Ge21 3.085801 1_555
Er3 Ge5 3.085801 1_555
Er3 Ge10 3.085801 1_555
Er3 Ge8 3.085801 1_455
Er3 Ge2 3.085801 1_455
Er3 Ge15 3.085801 1_555
Er3 Ge23 3.085801 1_455
Er4 Ge7 3.078986 1_555
Er4 Ge12 3.078986 1_554
Er4 Ge21 3.078986 1_555
Er4 Ge18 3.078986 1_555
Er4 Ge6 3.085801 1_555
Er4 Ge17 3.085801 1_565
Er4 Ge9 3.085801 1_555
Er4 Ge22 3.085801 1_564
Er4 Ge3 3.085801 1_554
Er4 Ge11 3.085801 1_554
Er4 Ge14 3.085801 1_564
Er4 Ge20 3.085801 1_565
Er5 Ge14 3.078986 1_555
Er5 Ge20 3.078986 1_555
Er5 Ge10 3.078986 1_555
Er5 Ge5 3.078986 1_545
Er5 Ge4 3.085801 1_555
Er5 Ge13 3.085801 1_555
Er5 Ge25 3.085801 1_545
Er5 Ge16 3.085801 1_555
Er5 Ge7 3.085801 1_545
Er5 Ge12 3.085801 1_545
Er5 Ge24 3.085801 1_555
Er5 Ge19 3.085801 1_545
Co0 Ge23 2.398812 1_556
Co0 Ge3 2.398812 1_555
Co0 Ge2 2.398812 1_555
Co0 Ge4 2.398812 1_555
Co0 Ge16 2.398812 1_655
Co0 Ge22 2.398812 1_555
Co0 Er1 3.098443 1_556
Co0 Er2 3.098443 1_555
Co0 Er0 3.098443 1_655
Co1 Ge19 2.398812 1_555
Co1 Ge20 2.398812 1_565
Co1 Ge7 2.398812 1_555
Co1 Ge6 2.398812 1_555
Co1 Ge21 2.398812 1_555
Co1 Ge5 2.398812 1_555
Co1 Er3 3.098443 1_555
Co1 Er4 3.098443 1_555
Co1 Er5 3.098443 1_565
Co2 Ge19 2.398812 1_655
Co2 Ge7 2.398812 1_555
Co2 Ge8 2.398812 1_555
Co2 Ge18 2.398812 1_555
Co2 Ge17 2.398812 1_565
Co2 Ge9 2.398812 1_555
Co2 Er2 3.098443 1_565
Co2 Er3 3.098443 1_655
Co2 Er4 3.098443 1_555
Co3 Ge15 2.398812 1_556
Co3 Ge14 2.398812 1_555
Co3 Ge11 2.398812 1_555
Co3 Ge4 2.398812 1_555
Co3 Ge16 2.398812 1_555
Co3 Ge10 2.398812 1_555
Co3 Er1 3.098443 1_556
Co3 Er0 3.098443 1_555
Co3 Er5 3.098443 1_555
Co4 Ge14 2.398812 1_565
Co4 Ge11 2.398812 1_555
Co4 Ge12 2.398812 1_555
Co4 Ge21 2.398812 1_556
Co4 Ge5 2.398812 1_555
Co4 Ge25 2.398812 1_555
Co4 Er4 3.098443 1_556
Co4 Er0 3.098443 1_555
Co4 Er5 3.098443 1_565
Co5 Ge24 2.398812 1_655
Co5 Ge23 2.398812 1_555
Co5 Ge2 2.398812 1_555
Co5 Ge13 2.398812 1_555
Co5 Ge17 2.398812 1_555
Co5 Ge9 2.398812 1_555
Co5 Er2 3.098443 1_555
Co5 Er1 3.098443 1_555
Co5 Er3 3.098443 1_655
Co6 Ge24 2.398812 1_555
Co6 Ge20 2.398812 1_555
Co6 Ge15 2.398812 1_555
Co6 Ge13 2.398812 1_555
Co6 Ge6 2.398812 1_555
Co6 Ge10 2.398812 1_555
Co6 Er3 3.098443 1_555
Co6 Er1 3.098443 1_555
Co6 Er5 3.098443 1_555
Co7 Ge3 2.398812 1_555
Co7 Ge8 2.398812 1_555
Co7 Ge12 2.398812 1_555
Co7 Ge18 2.398812 1_556
Co7 Ge22 2.398812 1_565
Co7 Ge25 2.398812 1_655
Co7 Er4 3.098443 1_556
Co7 Er2 3.098443 1_565
Co7 Er0 3.098443 1_655
Ge0 Ge8 2.989187 1_555
Ge0 Ge12 2.989187 1_555
Ge0 Ge2 2.989187 1_555
Ge0 Ge3 2.989187 1_555
Ge0 Ge7 2.989187 1_555
Ge0 Ge11 2.989187 1_555
Ge0 Ge10 2.989187 1_555
Ge0 Ge4 2.989187 1_555
Ge0 Ge13 2.989187 1_555
Ge0 Ge6 2.989187 1_555
Ge0 Ge5 2.989187 1_555
Ge0 Ge9 2.989187 1_555
Ge1 Ge15 2.989187 1_555
Ge1 Ge20 2.989187 1_555
Ge1 Ge24 2.989187 1_555
Ge1 Ge23 2.989187 1_455
Ge1 Ge19 2.989187 1_545
Ge1 Ge14 2.989187 1_554
Ge1 Ge16 2.989187 1_554
Ge1 Ge18 2.989187 1_445
Ge1 Ge17 2.989187 1_455
Ge1 Ge25 2.989187 1_544
Ge1 Ge22 2.989187 1_454
Ge1 Ge21 2.989187 1_545
Ge2 Ge8 2.681277 1_555
Ge2 Ge24 2.956576 1_655
Ge6 Ge9 2.681277 1_555
Ge10 Ge5 2.681277 1_555
Ge10 Ge16 2.956576 1_555
Ge10 Ge24 2.956576 1_555
Ge11 Ge3 2.681277 1_555
Ge11 Ge21 2.956576 1_556
Ge11 Ge15 2.956576 1_556
Ge12 Ge7 2.681277 1_555
Ge12 Ge22 2.956576 1_565
Ge12 Ge14 2.956576 1_565
Ge13 Ge4 2.681277 1_555
Ge13 Ge17 2.956576 1_555
Ge13 Ge20 2.956576 1_555
Ge14 Ge20 2.681277 1_556
Ge14 Ge4 2.956576 1_555
Ge15 Ge23 2.681277 1_455
Ge15 Ge6 2.956576 1_555
Ge16 Ge25 2.681277 1_545
Ge16 Ge2 2.956576 1_455
Ge17 Ge22 2.681277 1_554
Ge17 Ge7 2.956576 1_545
Ge18 Ge21 2.681277 1_655
Ge18 Ge9 2.956576 1_555
Ge18 Ge3 2.956576 1_554
Ge19 Ge24 2.681277 1_565
Ge19 Ge5 2.956576 1_555
Ge19 Ge8 2.956576 1_455
Ge20 Ge7 2.956576 1_545
Ge21 Ge6 2.956576 1_555
Ge22 Ge4 2.956576 1_555
Ge23 Ge9 2.956576 1_555
Ge23 Ge3 2.956576 1_554
Ge25 Ge5 2.956576 1_555
Ge25 Ge8 2.956576 1_455
