# generated using pymatgen
data_V4Ir
_symmetry_space_group_name_H-M   'P 1'
_cell_length_a   21.07952941
_cell_length_b   20.83217311
_cell_length_c   5.34832137
_cell_angle_alpha   85.30549351
_cell_angle_beta   80.04710169
_cell_angle_gamma   14.64740480
_symmetry_Int_Tables_number   1
_chemical_formula_structural   V4Ir
_chemical_formula_sum   'V32 Ir8'
_cell_volume   549.51486996
_cell_formula_units_Z   8
loop_
 _symmetry_equiv_pos_site_id
 _symmetry_equiv_pos_as_xyz
  1  'x, y, z'
loop_
 _atom_site_type_symbol
 _atom_site_label
 _atom_site_symmetry_multiplicity
 _atom_site_fract_x
 _atom_site_fract_y
 _atom_site_fract_z
 _atom_site_occupancy
  V  V0_0  1  0.19857350  0.19857350  0.30142650  1
  V  V0_1  1  0.19857350  0.19857350  0.80142650  1
  V  V0_2  1  0.19857350  0.69857350  0.30142650  1
  V  V0_3  1  0.19857350  0.69857350  0.80142650  1
  V  V0_4  1  0.69857350  0.19857350  0.30142650  1
  V  V0_5  1  0.69857350  0.19857350  0.80142650  1
  V  V0_6  1  0.69857350  0.69857350  0.30142650  1
  V  V0_7  1  0.69857350  0.69857350  0.80142650  1
  V  V1_0  1  0.39974450  0.39974450  0.10025550  1
  V  V1_1  1  0.39974450  0.39974450  0.60025550  1
  V  V1_2  1  0.39974450  0.89974450  0.10025550  1
  V  V1_3  1  0.39974450  0.89974450  0.60025550  1
  V  V1_4  1  0.89974450  0.39974450  0.10025550  1
  V  V1_5  1  0.89974450  0.39974450  0.60025550  1
  V  V1_6  1  0.89974450  0.89974450  0.10025550  1
  V  V1_7  1  0.89974450  0.89974450  0.60025550  1
  V  V2_0  1  0.10025550  0.10025550  0.39974450  1
  V  V2_1  1  0.10025550  0.10025550  0.89974450  1
  V  V2_2  1  0.10025550  0.60025550  0.39974450  1
  V  V2_3  1  0.10025550  0.60025550  0.89974450  1
  V  V2_4  1  0.60025550  0.10025550  0.39974450  1
  V  V2_5  1  0.60025550  0.10025550  0.89974450  1
  V  V2_6  1  0.60025550  0.60025550  0.39974450  1
  V  V2_7  1  0.60025550  0.60025550  0.89974450  1
  V  V3_0  1  0.30142650  0.30142650  0.19857350  1
  V  V3_1  1  0.30142650  0.30142650  0.69857350  1
  V  V3_2  1  0.30142650  0.80142650  0.19857350  1
  V  V3_3  1  0.30142650  0.80142650  0.69857350  1
  V  V3_4  1  0.80142650  0.30142650  0.19857350  1
  V  V3_5  1  0.80142650  0.30142650  0.69857350  1
  V  V3_6  1  0.80142650  0.80142650  0.19857350  1
  V  V3_7  1  0.80142650  0.80142650  0.69857350  1
  Ir  Ir0_0  1  0.00000000  0.00000000  0.00000000  1
  Ir  Ir0_1  1  0.00000000  0.00000000  0.50000000  1
  Ir  Ir0_2  1  0.00000000  0.50000000  0.00000000  1
  Ir  Ir0_3  1  0.00000000  0.50000000  0.50000000  1
  Ir  Ir0_4  1  0.50000000  0.00000000  0.00000000  1
  Ir  Ir0_5  1  0.50000000  0.00000000  0.50000000  1
  Ir  Ir0_6  1  0.50000000  0.50000000  0.00000000  1
  Ir  Ir0_7  1  0.50000000  0.50000000  0.50000000  1
loop_
_geom_bond_atom_site_label_1
_geom_bond_atom_site_label_2
_geom_bond_distance
_geom_bond_site_symmetry_2
V0_0 V1_2 2.516269 1_545
V0_0 V1_5 2.516269 1_455
V0_1 V1_4 2.516269 1_456
V0_1 V1_3 2.516269 1_545
V0_2 V1_0 2.516269 1_555
V0_2 V1_7 2.516269 1_455
V0_3 V1_6 2.516269 1_456
V0_3 V1_1 2.516269 1_555
V0_4 V1_6 2.516269 1_545
V0_4 V1_1 2.516269 1_555
V0_5 V1_7 2.516269 1_545
V0_5 V1_0 2.516269 1_556
V0_6 V1_3 2.516269 1_555
V0_6 V1_4 2.516269 1_555
V0_7 V1_5 2.516269 1_555
V0_7 V1_2 2.516269 1_556
V1_0 V2_5 2.538087 1_554
V1_0 V2_2 2.538087 1_555
V1_0 V1_6 2.674161 1_455
V1_0 V1_1 2.674161 1_555
V1_0 V1_1 2.674161 1_554
V1_0 V1_6 2.674161 1_545
V1_1 V2_4 2.538087 1_555
V1_1 V2_3 2.538087 1_555
V1_1 V1_7 2.674161 1_545
V1_1 V1_7 2.674161 1_455
V1_2 V2_0 2.538087 1_565
V1_2 V2_7 2.538087 1_554
V1_2 V1_4 2.674161 1_465
V1_2 V1_3 2.674161 1_554
V1_2 V1_4 2.674161 1_555
V1_2 V1_3 2.674161 1_555
V1_3 V2_1 2.538087 1_565
V1_3 V2_6 2.538087 1_555
V1_3 V1_5 2.674161 1_555
V1_3 V1_5 2.674161 1_465
V1_4 V2_1 2.538087 1_654
V1_4 V2_6 2.538087 1_555
V1_4 V1_5 2.674161 1_555
V1_4 V1_5 2.674161 1_554
V1_5 V2_0 2.538087 1_655
V1_5 V2_7 2.538087 1_555
V1_6 V2_4 2.538087 1_565
V1_6 V2_3 2.538087 1_654
V1_6 V1_7 2.674161 1_555
V1_6 V1_7 2.674161 1_554
V1_7 V2_5 2.538087 1_565
V1_7 V2_2 2.538087 1_655
V2_0 V3_5 2.516269 1_455
V2_0 V3_2 2.516269 1_545
V2_0 V2_1 2.674161 1_554
V2_0 V2_6 2.674161 1_545
V2_0 V2_1 2.674161 1_555
V2_0 V2_6 2.674161 1_455
V2_1 V3_3 2.516269 1_545
V2_1 V3_4 2.516269 1_456
V2_1 V2_7 2.674161 1_545
V2_1 V2_7 2.674161 1_455
V2_2 V3_7 2.516269 1_455
V2_2 V3_0 2.516269 1_555
V2_2 V2_3 2.674161 1_554
V2_2 V2_4 2.674161 1_555
V2_2 V2_4 2.674161 1_465
V2_2 V2_3 2.674161 1_555
V2_3 V3_6 2.516269 1_456
V2_3 V3_1 2.516269 1_555
V2_3 V2_5 2.674161 1_555
V2_3 V2_5 2.674161 1_465
V2_4 V3_6 2.516269 1_545
V2_4 V3_1 2.516269 1_555
V2_4 V2_5 2.674161 1_554
V2_4 V2_5 2.674161 1_555
V2_5 V3_7 2.516269 1_545
V2_5 V3_0 2.516269 1_556
V2_6 V3_4 2.516269 1_555
V2_6 V3_3 2.516269 1_555
V2_6 V2_7 2.674161 1_555
V2_6 V2_7 2.674161 1_554
V2_7 V3_5 2.516269 1_555
V2_7 V3_2 2.516269 1_556
Ir0_0 V0_3 2.602723 1_544
Ir0_0 V0_4 2.602723 1_455
Ir0_0 V3_3 2.602723 1_544
Ir0_0 V3_4 2.602723 1_455
Ir0_1 V0_2 2.602723 1_545
Ir0_1 V0_5 2.602723 1_455
Ir0_1 V3_2 2.602723 1_545
Ir0_1 V3_5 2.602723 1_455
Ir0_2 V3_1 2.602723 1_554
Ir0_2 V0_6 2.602723 1_455
Ir0_2 V0_1 2.602723 1_554
Ir0_2 V3_6 2.602723 1_455
Ir0_3 V0_7 2.602723 1_455
Ir0_3 V0_0 2.602723 1_555
Ir0_3 V3_0 2.602723 1_555
Ir0_3 V3_7 2.602723 1_455
Ir0_4 V0_7 2.602723 1_544
Ir0_4 V0_0 2.602723 1_555
Ir0_4 V3_0 2.602723 1_555
Ir0_4 V3_7 2.602723 1_544
Ir0_5 V3_1 2.602723 1_555
Ir0_5 V0_6 2.602723 1_545
Ir0_5 V0_1 2.602723 1_555
Ir0_5 V3_6 2.602723 1_545
Ir0_6 V0_2 2.602723 1_555
Ir0_6 V0_5 2.602723 1_554
Ir0_6 V3_2 2.602723 1_555
Ir0_6 V3_5 2.602723 1_554
Ir0_7 V0_3 2.602723 1_555
Ir0_7 V0_4 2.602723 1_555
Ir0_7 V3_3 2.602723 1_555
Ir0_7 V3_4 2.602723 1_555
