# generated using pymatgen
data_PaTi
_symmetry_space_group_name_H-M   'P 1'
_cell_length_a   6.14689015
_cell_length_b   6.14724476
_cell_length_c   10.26692800
_cell_angle_alpha   90.00182224
_cell_angle_beta   89.99766486
_cell_angle_gamma   119.97326717
_symmetry_Int_Tables_number   1
_chemical_formula_structural   PaTi
_chemical_formula_sum   'Pa8 Ti8'
_cell_volume   336.06557780
_cell_formula_units_Z   8
loop_
 _symmetry_equiv_pos_site_id
 _symmetry_equiv_pos_as_xyz
  1  'x, y, z'
loop_
 _atom_site_type_symbol
 _atom_site_label
 _atom_site_symmetry_multiplicity
 _atom_site_fract_x
 _atom_site_fract_y
 _atom_site_fract_z
 _atom_site_occupancy
  Pa  Pa0_0  1  0.33333500  0.16666800  0.37500100  1
  Pa  Pa0_1  1  0.33333500  0.16666800  0.87500100  1
  Pa  Pa0_2  1  0.33333500  0.66666800  0.37500100  1
  Pa  Pa0_3  1  0.33333500  0.66666800  0.87500100  1
  Pa  Pa0_4  1  0.83333500  0.16666800  0.37500100  1
  Pa  Pa0_5  1  0.83333500  0.16666800  0.87500100  1
  Pa  Pa0_6  1  0.83333500  0.66666800  0.37500100  1
  Pa  Pa0_7  1  0.83333500  0.66666800  0.87500100  1
  Ti  Ti0_0  1  0.16666550  0.33333150  0.12499850  1
  Ti  Ti0_1  1  0.16666550  0.33333150  0.62499850  1
  Ti  Ti0_2  1  0.16666550  0.83333150  0.12499850  1
  Ti  Ti0_3  1  0.16666550  0.83333150  0.62499850  1
  Ti  Ti0_4  1  0.66666550  0.33333150  0.12499850  1
  Ti  Ti0_5  1  0.66666550  0.33333150  0.62499850  1
  Ti  Ti0_6  1  0.66666550  0.83333150  0.12499850  1
  Ti  Ti0_7  1  0.66666550  0.83333150  0.62499850  1
loop_
_geom_bond_atom_site_label_1
_geom_bond_atom_site_label_2
_geom_bond_distance
_geom_bond_site_symmetry_2
Pa0_0 Pa0_4 3.073445 1_555
Pa0_0 Pa0_4 3.073445 1_455
Pa0_0 Pa0_2 3.073622 1_545
Pa0_0 Pa0_2 3.073622 1_555
Pa0_0 Pa0_6 3.074776 1_555
Pa0_0 Pa0_6 3.074776 1_445
Pa0_0 Ti0_1 3.120195 1_555
Pa0_0 Ti0_0 3.120359 1_555
Pa0_0 Ti0_4 3.120627 1_555
Pa0_0 Ti0_5 3.120669 1_555
Pa0_0 Ti0_3 3.120723 1_545
Pa0_0 Ti0_2 3.120726 1_545
Pa0_1 Pa0_5 3.073445 1_455
Pa0_1 Pa0_5 3.073445 1_555
Pa0_1 Pa0_3 3.073622 1_555
Pa0_1 Pa0_3 3.073622 1_545
Pa0_1 Pa0_7 3.074776 1_555
Pa0_1 Pa0_7 3.074776 1_445
Pa0_1 Ti0_0 3.120195 1_556
Pa0_1 Ti0_1 3.120359 1_555
Pa0_1 Ti0_5 3.120627 1_555
Pa0_1 Ti0_4 3.120669 1_556
Pa0_1 Ti0_2 3.120723 1_546
Pa0_1 Ti0_3 3.120726 1_545
Pa0_2 Pa0_6 3.073445 1_555
Pa0_2 Pa0_6 3.073445 1_455
Pa0_2 Pa0_4 3.074776 1_565
Pa0_2 Pa0_4 3.074776 1_455
Pa0_2 Ti0_3 3.120195 1_555
Pa0_2 Ti0_2 3.120359 1_555
Pa0_2 Ti0_6 3.120627 1_555
Pa0_2 Ti0_7 3.120669 1_555
Pa0_2 Ti0_1 3.120723 1_555
Pa0_2 Ti0_0 3.120726 1_555
Pa0_3 Pa0_7 3.073445 1_555
Pa0_3 Pa0_7 3.073445 1_455
Pa0_3 Pa0_5 3.074776 1_565
Pa0_3 Pa0_5 3.074776 1_455
Pa0_3 Ti0_2 3.120195 1_556
Pa0_3 Ti0_3 3.120359 1_555
Pa0_3 Ti0_7 3.120627 1_555
Pa0_3 Ti0_6 3.120669 1_556
Pa0_3 Ti0_0 3.120723 1_556
Pa0_3 Ti0_1 3.120726 1_555
Pa0_4 Pa0_6 3.073622 1_545
Pa0_4 Pa0_6 3.073622 1_555
Pa0_4 Ti0_5 3.120195 1_555
Pa0_4 Ti0_4 3.120359 1_555
Pa0_4 Ti0_0 3.120627 1_655
Pa0_4 Ti0_1 3.120669 1_655
Pa0_4 Ti0_7 3.120723 1_545
Pa0_4 Ti0_6 3.120726 1_545
Pa0_5 Pa0_7 3.073622 1_545
Pa0_5 Pa0_7 3.073622 1_555
Pa0_5 Ti0_4 3.120195 1_556
Pa0_5 Ti0_5 3.120359 1_555
Pa0_5 Ti0_1 3.120627 1_655
Pa0_5 Ti0_0 3.120669 1_656
Pa0_5 Ti0_6 3.120723 1_546
Pa0_5 Ti0_7 3.120726 1_545
Pa0_6 Ti0_7 3.120195 1_555
Pa0_6 Ti0_6 3.120359 1_555
Pa0_6 Ti0_2 3.120627 1_655
Pa0_6 Ti0_3 3.120669 1_655
Pa0_6 Ti0_5 3.120723 1_555
Pa0_6 Ti0_4 3.120726 1_555
Pa0_7 Ti0_6 3.120195 1_556
Pa0_7 Ti0_7 3.120359 1_555
Pa0_7 Ti0_3 3.120627 1_655
Pa0_7 Ti0_2 3.120669 1_656
Pa0_7 Ti0_4 3.120723 1_556
Pa0_7 Ti0_5 3.120726 1_555
Ti0_0 Ti0_4 3.073445 1_455
Ti0_0 Ti0_4 3.073445 1_555
Ti0_0 Ti0_2 3.073622 1_545
Ti0_0 Ti0_2 3.073622 1_555
Ti0_0 Ti0_6 3.074776 1_445
Ti0_0 Ti0_6 3.074776 1_555
Ti0_1 Ti0_5 3.073445 1_555
Ti0_1 Ti0_5 3.073445 1_455
Ti0_1 Ti0_3 3.073622 1_545
Ti0_1 Ti0_3 3.073622 1_555
Ti0_1 Ti0_7 3.074776 1_445
Ti0_1 Ti0_7 3.074776 1_555
Ti0_2 Ti0_6 3.073445 1_455
Ti0_2 Ti0_6 3.073445 1_555
Ti0_2 Ti0_4 3.074776 1_455
Ti0_2 Ti0_4 3.074776 1_565
Ti0_3 Ti0_7 3.073445 1_455
Ti0_3 Ti0_7 3.073445 1_555
Ti0_3 Ti0_5 3.074776 1_565
Ti0_3 Ti0_5 3.074776 1_455
Ti0_4 Ti0_6 3.073622 1_545
Ti0_4 Ti0_6 3.073622 1_555
Ti0_5 Ti0_7 3.073622 1_545
Ti0_5 Ti0_7 3.073622 1_555
