# generated using pymatgen
data_Pr5Ge3O13
_symmetry_space_group_name_H-M   'P 1'
_cell_length_a   9.84695185
_cell_length_b   9.84694176
_cell_length_c   7.25989556
_cell_angle_alpha   90.00000611
_cell_angle_beta   90.00000013
_cell_angle_gamma   119.99989044
_symmetry_Int_Tables_number   1
_chemical_formula_structural   Pr5Ge3O13
_chemical_formula_sum   'Pr10 Ge6 O26'
_cell_volume   609.62766576
_cell_formula_units_Z   2
loop_
 _symmetry_equiv_pos_site_id
 _symmetry_equiv_pos_as_xyz
  1  'x, y, z'
loop_
 _atom_site_type_symbol
 _atom_site_label
 _atom_site_symmetry_multiplicity
 _atom_site_fract_x
 _atom_site_fract_y
 _atom_site_fract_z
 _atom_site_occupancy
  Pr  Pr0  1  0.33333351  0.66666695  -0.00000380  1
  Pr  Pr1  1  0.66666660  0.33333283  0.00000377  1
  Pr  Pr2  1  0.66666649  0.33333285  0.49999626  1
  Pr  Pr3  1  0.33333339  0.66666666  0.50000386  1
  Pr  Pr4  1  0.24074063  0.23189393  0.24999995  1
  Pr  Pr5  1  0.75925954  0.76810630  0.74999990  1
  Pr  Pr6  1  0.76810565  0.00884585  0.24999987  1
  Pr  Pr7  1  0.23189450  0.99115409  0.75000021  1
  Pr  Pr8  1  0.99115298  0.75925899  0.25000004  1
  Pr  Pr9  1  0.00884718  0.24074150  0.75000008  1
  Ge  Ge0  1  0.02786176  0.39815109  0.25000008  1
  Ge  Ge1  1  0.97213813  0.60184905  0.74999996  1
  Ge  Ge2  1  0.60184793  0.62970947  0.24999998  1
  Ge  Ge3  1  0.39815241  0.37029057  0.75000002  1
  Ge  Ge4  1  0.37028907  0.97213746  0.25000015  1
  Ge  Ge5  1  0.62971131  0.02786258  0.74999985  1
  O  O0  1  0.48797129  0.17718103  0.24999987  1
  O  O1  1  0.51202872  0.82281842  0.74999993  1
  O  O2  1  0.82281838  0.31079139  0.25000001  1
  O  O3  1  0.17718189  0.68920851  0.75000003  1
  O  O4  1  0.68920901  0.51202771  0.24999999  1
  O  O5  1  0.31079064  0.48797224  0.74999998  1
  O  O6  1  0.10224962  0.34739933  0.05614592  1
  O  O7  1  0.89775049  0.65260089  0.94385418  1
  O  O8  1  0.65260061  0.75484986  0.05614640  1
  O  O9  1  0.89775047  0.65260091  0.55614582  1
  O  O10  1  0.34739939  0.24515019  0.94385356  1
  O  O11  1  0.10224981  0.34739953  0.44385419  1
  O  O12  1  0.24514954  0.89775059  0.05614615  1
  O  O13  1  0.34739962  0.24515027  0.55614641  1
  O  O14  1  0.75485040  0.10224962  0.94385399  1
  O  O15  1  0.65260074  0.75484993  0.44385350  1
  O  O16  1  0.75485045  0.10224967  0.55614586  1
  O  O17  1  0.24514949  0.89775065  0.44385404  1
  O  O18  1  0.00000008  -0.00000011  0.24999992  1
  O  O19  1  -0.00000004  0.00000033  0.74999994  1
  O  O20  1  0.13006372  0.60555794  0.25000008  1
  O  O21  1  0.86993644  0.39444235  0.74999996  1
  O  O22  1  0.39444129  0.52450601  0.24999995  1
  O  O23  1  0.60555878  0.47549408  0.74999999  1
  O  O24  1  0.47549386  0.86993585  0.25000011  1
  O  O25  1  0.52450622  0.13006365  0.75000003  1
loop_
_geom_bond_atom_site_label_1
_geom_bond_atom_site_label_2
_geom_bond_distance
_geom_bond_site_symmetry_2
Ge0 O2 1.754915 1_455
Ge0 O20 1.768767 1_555
Ge0 O11 1.770035 1_555
Ge0 O6 1.770035 1_555
Ge1 O3 1.754918 1_655
Ge1 O21 1.768766 1_555
Ge1 O9 1.770034 1_555
Ge1 O7 1.770034 1_555
Ge2 O4 1.754905 1_555
Ge2 O22 1.768767 1_555
Ge2 O15 1.770036 1_555
Ge2 O8 1.770036 1_555
Ge3 O5 1.754910 1_555
Ge3 O23 1.768765 1_555
Ge3 O13 1.770035 1_555
Ge3 O10 1.770035 1_555
Ge4 O0 1.754914 1_565
Ge4 O24 1.768762 1_555
Ge4 O17 1.770034 1_555
Ge4 O12 1.770034 1_555
Ge5 O1 1.754919 1_545
Ge5 O25 1.768760 1_555
Ge5 O16 1.770033 1_555
Ge5 O14 1.770033 1_555
O0 Pr1 2.459454 1_555
O0 Pr2 2.459455 1_555
O0 Pr4 2.743806 1_555
O1 Pr3 2.459453 1_555
O1 Pr0 2.459454 1_556
O1 Pr5 2.743802 1_555
O2 Pr1 2.459444 1_555
O2 Pr2 2.459445 1_555
O2 Pr6 2.743825 1_555
O3 Pr0 2.459444 1_556
O3 Pr3 2.459444 1_555
O3 Pr7 2.743825 1_555
O4 Pr1 2.459452 1_555
O4 Pr2 2.459452 1_555
O4 Pr8 2.743815 1_555
O5 Pr3 2.459448 1_555
O5 Pr0 2.459450 1_556
O5 Pr9 2.743810 1_555
O6 Pr9 2.433697 1_554
O6 Pr4 2.585546 1_555
O6 Pr0 2.841453 1_555
O7 Pr8 2.433698 1_556
O7 Pr5 2.585547 1_555
O7 Pr1 2.841456 1_556
O8 Pr5 2.433704 1_554
O8 Pr6 2.585543 1_565
O8 Pr0 2.841451 1_555
O9 Pr8 2.433697 1_555
O9 Pr5 2.585546 1_555
O9 Pr2 2.841456 1_555
O10 Pr4 2.433703 1_556
O10 Pr7 2.585543 1_545
O10 Pr1 2.841452 1_556
O11 Pr9 2.433698 1_555
O11 Pr4 2.585547 1_555
O11 Pr3 2.841449 1_555
O12 Pr7 2.433700 1_554
O12 Pr8 2.585551 1_455
O12 Pr0 2.841447 1_555
O13 Pr4 2.433704 1_555
O13 Pr7 2.585546 1_545
O13 Pr2 2.841449 1_555
O14 Pr6 2.433701 1_556
O14 Pr9 2.585553 1_655
O14 Pr1 2.841442 1_556
O15 Pr5 2.433703 1_555
O15 Pr6 2.585543 1_565
O15 Pr3 2.841452 1_555
O16 Pr6 2.433702 1_555
O16 Pr9 2.585554 1_655
O16 Pr2 2.841443 1_555
O17 Pr7 2.433701 1_555
O17 Pr8 2.585551 1_455
O17 Pr3 2.841450 1_555
O18 Pr8 2.328226 1_445
O18 Pr6 2.328228 1_455
O18 Pr4 2.328230 1_555
O19 Pr9 2.328228 1_555
O19 Pr5 2.328230 1_445
O19 Pr7 2.328231 1_545
O20 Pr8 2.496368 1_455
O20 Pr3 2.541307 1_555
O20 Pr0 2.541308 1_555
O21 Pr9 2.496366 1_655
O21 Pr1 2.541308 1_556
O21 Pr2 2.541308 1_555
O22 Pr4 2.496374 1_555
O22 Pr3 2.541300 1_555
O22 Pr0 2.541300 1_555
O23 Pr5 2.496375 1_555
O23 Pr2 2.541302 1_555
O23 Pr1 2.541303 1_556
O24 Pr6 2.496374 1_565
O24 Pr0 2.541303 1_555
O24 Pr3 2.541304 1_555
O25 Pr7 2.496373 1_545
O25 Pr1 2.541304 1_556
O25 Pr2 2.541304 1_555
