# generated using pymatgen
data_Dy(AlC)3
_symmetry_space_group_name_H-M   'P 1'
_cell_length_a   3.41600711
_cell_length_b   3.41600711
_cell_length_c   17.25681631
_cell_angle_alpha   90.00000000
_cell_angle_beta   90.00000000
_cell_angle_gamma   120.00000020
_symmetry_Int_Tables_number   1
_chemical_formula_structural   Dy(AlC)3
_chemical_formula_sum   'Dy2 Al6 C6'
_cell_volume   174.39291583
_cell_formula_units_Z   2
loop_
 _symmetry_equiv_pos_site_id
 _symmetry_equiv_pos_as_xyz
  1  'x, y, z'
loop_
 _atom_site_type_symbol
 _atom_site_label
 _atom_site_symmetry_multiplicity
 _atom_site_fract_x
 _atom_site_fract_y
 _atom_site_fract_z
 _atom_site_occupancy
  Dy  Dy0  1  0.00000000  0.00000000  0.50000000  1
  Dy  Dy1  1  0.00000000  0.00000000  0.00000000  1
  Al  Al0  1  0.33333300  0.66666700  0.36587595  1
  Al  Al1  1  0.66666700  0.33333300  0.63412405  1
  Al  Al2  1  0.66666700  0.33333300  0.86587595  1
  Al  Al3  1  0.33333300  0.66666700  0.13412405  1
  Al  Al4  1  0.33333300  0.66666700  0.75000000  1
  Al  Al5  1  0.66666700  0.33333300  0.25000000  1
  C  C0  1  0.33333300  0.66666700  0.90664042  1
  C  C1  1  0.66666700  0.33333300  0.09335958  1
  C  C2  1  0.66666700  0.33333300  0.40664042  1
  C  C3  1  0.33333300  0.66666700  0.59335958  1
  C  C4  1  0.33333300  0.66666700  0.25000000  1
  C  C5  1  0.66666700  0.33333300  0.75000000  1
loop_
_geom_bond_atom_site_label_1
_geom_bond_atom_site_label_2
_geom_bond_distance
_geom_bond_site_symmetry_2
Al0 C4 1.999650 1_555
Al0 C2 2.093933 1_455
Al0 C2 2.093933 1_565
Al0 C2 2.093939 1_555
Al1 C5 1.999650 1_555
Al1 C3 2.093933 1_545
Al1 C3 2.093933 1_655
Al1 C3 2.093939 1_555
Al2 C5 1.999650 1_555
Al2 C0 2.093933 1_655
Al2 C0 2.093933 1_545
Al2 C0 2.093939 1_555
Al3 C4 1.999650 1_555
Al3 C1 2.093933 1_565
Al3 C1 2.093933 1_455
Al3 C1 2.093939 1_555
Al4 C5 1.972231 1_455
Al4 C5 1.972231 1_565
Al4 C5 1.972237 1_555
Al5 C4 1.972231 1_545
Al5 C4 1.972231 1_655
Al5 C4 1.972237 1_555
C0 Dy1 2.546626 1_566
C0 Dy1 2.546628 1_556
C0 Dy1 2.546628 1_666
C1 Dy1 2.546626 1_655
C1 Dy1 2.546628 1_665
C1 Dy1 2.546628 1_555
C2 Dy0 2.546626 1_655
C2 Dy0 2.546628 1_665
C2 Dy0 2.546628 1_555
C3 Dy0 2.546626 1_565
C3 Dy0 2.546628 1_665
C3 Dy0 2.546628 1_555
