# generated using pymatgen
data_IrC4
_symmetry_space_group_name_H-M   'P 1'
_cell_length_a   4.89118881
_cell_length_b   4.89118881
_cell_length_c   5.90715400
_cell_angle_alpha   90.00000000
_cell_angle_beta   90.00000000
_cell_angle_gamma   120.00001098
_symmetry_Int_Tables_number   1
_chemical_formula_structural   IrC4
_chemical_formula_sum   'Ir3 C12'
_cell_volume   122.38768856
_cell_formula_units_Z   3
loop_
 _symmetry_equiv_pos_site_id
 _symmetry_equiv_pos_as_xyz
  1  'x, y, z'
loop_
 _atom_site_type_symbol
 _atom_site_label
 _atom_site_symmetry_multiplicity
 _atom_site_fract_x
 _atom_site_fract_y
 _atom_site_fract_z
 _atom_site_occupancy
  Ir  Ir0  1  0.32022000  0.00000000  0.83333300  1
  Ir  Ir1  1  0.67978000  0.67978000  0.50000000  1
  Ir  Ir2  1  0.00000000  0.32022000  0.16666700  1
  C  C0  1  0.15305500  0.00000000  0.33333300  1
  C  C1  1  0.84694500  0.84694500  0.00000000  1
  C  C2  1  0.00000000  0.15305500  0.66666700  1
  C  C3  1  0.57870000  0.00000000  0.33333300  1
  C  C4  1  0.42130000  0.42130000  0.00000000  1
  C  C5  1  0.00000000  0.57870000  0.66666700  1
  C  C6  1  0.28547500  0.84294500  0.18827000  1
  C  C7  1  0.55747000  0.71452500  0.85493700  1
  C  C8  1  0.15705500  0.44253000  0.52160300  1
  C  C9  1  0.71452500  0.55747000  0.14506300  1
  C  C10  1  0.84294500  0.28547500  0.81173000  1
  C  C11  1  0.44253000  0.15705500  0.47839700  1
loop_
_geom_bond_atom_site_label_1
_geom_bond_atom_site_label_2
_geom_bond_distance
_geom_bond_site_symmetry_2
C0 C6 1.497149 1_545
C0 C11 1.497152 1_555
C0 Ir2 2.270552 1_555
C0 Ir1 2.270555 1_445
C1 C9 1.497149 1_555
C1 C7 1.497149 1_554
C1 Ir2 2.270555 1_665
C1 Ir0 2.270555 1_664
C2 C8 1.497152 1_555
C2 Ir0 2.270552 1_555
C2 Ir1 2.270555 1_445
C3 C6 1.509848 1_545
C3 Ir2 2.107423 1_655
C3 Ir1 2.107426 1_545
C4 C9 1.509848 1_555
C4 C7 1.509848 1_554
C4 Ir2 2.107426 1_555
C4 Ir0 2.107426 1_554
C5 C8 1.509851 1_555
C5 Ir0 2.107423 1_565
C5 Ir1 2.107426 1_455
C6 Ir0 2.210081 1_564
C6 Ir2 2.221015 1_555
C7 Ir1 2.210081 1_555
C7 Ir0 2.221016 1_565
C8 Ir2 2.210075 1_555
C8 Ir1 2.221015 1_555
C9 Ir1 2.210081 1_555
C9 Ir2 2.221016 1_655
C10 C2 1.497149 1_655
C10 C5 1.509848 1_655
C10 Ir2 2.210081 1_656
C10 Ir0 2.221015 1_555
C11 C3 1.509851 1_555
C11 Ir0 2.210075 1_555
C11 Ir1 2.221015 1_555
