# generated using pymatgen
data_Fe6CuP4(H4O7)4
_symmetry_space_group_name_H-M   'P 1'
_cell_length_a   7.78390159
_cell_length_b   7.97546176
_cell_length_c   10.34723148
_cell_angle_alpha   67.20855382
_cell_angle_beta   69.18479627
_cell_angle_gamma   65.42834349
_symmetry_Int_Tables_number   1
_chemical_formula_structural   Fe6CuP4(H4O7)4
_chemical_formula_sum   'Fe6 Cu1 P4 H16 O28'
_cell_volume   523.91775541
_cell_formula_units_Z   1
loop_
 _symmetry_equiv_pos_site_id
 _symmetry_equiv_pos_as_xyz
  1  'x, y, z'
loop_
 _atom_site_type_symbol
 _atom_site_label
 _atom_site_symmetry_multiplicity
 _atom_site_fract_x
 _atom_site_fract_y
 _atom_site_fract_z
 _atom_site_occupancy
  Fe  Fe0  1  0.71677900  0.31723400  0.24601500  1
  Fe  Fe1  1  0.28322100  0.68276600  0.75398500  1
  Fe  Fe2  1  0.24077000  0.31626300  0.72435700  1
  Fe  Fe3  1  0.75923000  0.68373700  0.27564300  1
  Fe  Fe4  1  0.24622500  0.00095600  0.24164100  1
  Fe  Fe5  1  0.75377500  0.99904400  0.75835900  1
  Cu  Cu0  1  0.00000000  0.50000000  0.00000000  1
  P  P0  1  0.65300400  0.11654800  0.05154200  1
  P  P1  1  0.34699600  0.88345200  0.94845800  1
  P  P2  1  0.16011100  0.11825000  0.53589200  1
  P  P3  1  0.83988900  0.88175000  0.46410800  1
  H  H0  1  0.15536300  0.63665600  0.18186000  1
  H  H1  1  0.84463700  0.36334400  0.81814000  1
  H  H2  1  0.65835900  0.67743100  0.04657600  1
  H  H3  1  0.34164100  0.32256900  0.95342400  1
  H  H4  1  0.13022800  0.42765700  0.26156400  1
  H  H5  1  0.86977200  0.57234300  0.73843600  1
  H  H6  1  0.40911200  0.57547500  0.33146100  1
  H  H7  1  0.59088800  0.42452500  0.66853900  1
  H  H8  1  0.16241500  0.67950600  0.54887100  1
  H  H9  1  0.83758500  0.32049400  0.45112900  1
  H  H10  1  0.35389700  0.37949400  0.40437700  1
  H  H11  1  0.64610300  0.62050600  0.59562300  1
  H  H12  1  0.57563100  0.20791200  0.56828500  1
  H  H13  1  0.42436800  0.79208800  0.43171500  1
  H  H14  1  0.01723500  0.16458200  0.07613800  1
  H  H15  1  0.98276500  0.83541800  0.92386200  1
  O  O0  1  0.19473300  0.16247800  0.37012100  1
  O  O1  1  0.80526700  0.83752200  0.62988000  1
  O  O2  1  0.21795100  0.08328900  0.87427500  1
  O  O3  1  0.78204900  0.91671100  0.12572500  1
  O  O4  1  0.53854300  0.21810700  0.66727100  1
  O  O5  1  0.46145700  0.78189300  0.33272900  1
  O  O6  1  0.27190400  0.84952000  0.11414300  1
  O  O7  1  0.72809600  0.15048000  0.88585700  1
  O  O8  1  0.42290100  0.45546000  0.31387600  1
  O  O9  1  0.57709900  0.54454000  0.68612400  1
  O  O10  1  0.67679100  0.27331700  0.08875900  1
  O  O11  1  0.32320900  0.72668300  0.91124100  1
  O  O12  1  0.07012600  0.56027500  0.20454600  1
  O  O13  1  0.92987400  0.43972500  0.79545400  1
  O  O14  1  0.23316200  0.58516700  0.62362300  1
  O  O15  1  0.76683800  0.41483300  0.37637700  1
  O  O16  1  0.21697000  0.27067400  0.55725000  1
  O  O17  1  0.78303000  0.72932600  0.44275000  1
  O  O18  1  0.01640800  0.22608900  0.14257300  1
  O  O19  1  0.98359200  0.77391100  0.85742700  1
  O  O20  1  0.43447000  0.13457300  0.09403600  1
  O  O21  1  0.56553100  0.86542700  0.90596400  1
  O  O22  1  0.05594600  0.86137900  0.39178800  1
  O  O23  1  0.94405400  0.13862100  0.60821200  1
  O  O24  1  0.70421600  0.08527100  0.40310200  1
  O  O25  1  0.29578400  0.91472900  0.59689800  1
  O  O26  1  0.74179200  0.58451300  0.11623800  1
  O  O27  1  0.25820700  0.41548700  0.88376200  1
loop_
_geom_bond_atom_site_label_1
_geom_bond_atom_site_label_2
_geom_bond_distance
_geom_bond_site_symmetry_2
Fe0 O10 1.938920 1_555
Fe0 O24 1.944699 1_555
Fe0 O15 2.004119 1_555
Fe0 O8 2.074123 1_555
Fe0 O26 2.080089 1_555
Fe0 O18 2.128903 1_655
Fe1 O11 1.938920 1_555
Fe1 O25 1.944699 1_555
Fe1 O14 2.004119 1_555
Fe1 O9 2.074123 1_555
Fe1 O27 2.080091 1_555
Fe1 O19 2.128903 1_455
Fe2 O2 1.932845 1_555
Fe2 O14 1.973765 1_555
Fe2 O16 1.981678 1_555
Fe2 O4 2.051896 1_555
Fe2 O27 2.150555 1_555
Fe2 O13 2.163628 1_455
Fe3 O3 1.932845 1_555
Fe3 O15 1.973765 1_555
Fe3 O17 1.981678 1_555
Fe3 O5 2.051896 1_555
Fe3 O26 2.150559 1_555
Fe3 O12 2.163628 1_655
Fe4 O20 2.015555 1_555
Fe4 O6 2.021229 1_545
Fe4 O0 2.026374 1_555
Fe4 O5 2.039535 1_545
Fe4 O22 2.059731 1_545
Fe4 O18 2.163513 1_555
Fe5 O21 2.015549 1_555
Fe5 O7 2.021229 1_565
Fe5 O1 2.026366 1_555
Fe5 O4 2.039535 1_565
Fe5 O23 2.059731 1_565
Fe5 O19 2.163513 1_555
Cu0 O27 1.929723 1_554
Cu0 O26 1.929728 1_455
Cu0 O19 2.090451 1_454
Cu0 O18 2.090451 1_555
H0 O12 0.990482 1_555
H1 O13 0.990482 1_555
H2 O26 1.004539 1_555
H2 O21 1.744440 1_554
H3 O27 1.004544 1_555
H3 O20 1.744443 1_556
H4 O12 0.993392 1_555
H5 O13 0.993392 1_555
H6 O8 0.998211 1_555
H7 O9 0.998211 1_555
H8 O14 0.987361 1_555
H9 O15 0.987361 1_555
H10 O8 1.003040 1_555
H10 O16 1.702594 1_555
H11 O9 1.003040 1_555
H11 O17 1.702594 1_555
H12 O4 0.986841 1_555
H13 O5 0.986841 1_555
H14 O18 0.984229 1_555
H15 O19 0.984229 1_555
O0 P2 1.555948 1_555
O1 P3 1.555958 1_555
O2 P1 1.551471 1_545
O3 P0 1.551471 1_565
O6 P1 1.553677 1_554
O7 P0 1.553677 1_556
O10 P0 1.536906 1_555
O11 P1 1.536906 1_555
O16 P2 1.564495 1_555
O17 P3 1.564495 1_555
O20 P0 1.556145 1_555
O21 P1 1.556153 1_555
O22 P3 1.545070 1_455
O23 P2 1.545070 1_655
O24 P3 1.550088 1_545
O25 P2 1.550088 1_565
