# generated using pymatgen
data_Hf2InPd2
_symmetry_space_group_name_H-M   'P 1'
_cell_length_a   15.00353504
_cell_length_b   15.00353504
_cell_length_c   6.70190536
_cell_angle_alpha   90.00000000
_cell_angle_beta   90.00000000
_cell_angle_gamma   90.00000000
_symmetry_Int_Tables_number   1
_chemical_formula_structural   Hf2InPd2
_chemical_formula_sum   'Hf32 In16 Pd32'
_cell_volume   1508.63953486
_cell_formula_units_Z   16
loop_
 _symmetry_equiv_pos_site_id
 _symmetry_equiv_pos_as_xyz
  1  'x, y, z'
loop_
 _atom_site_type_symbol
 _atom_site_label
 _atom_site_symmetry_multiplicity
 _atom_site_fract_x
 _atom_site_fract_y
 _atom_site_fract_z
 _atom_site_occupancy
  Hf  Hf0_0  1  0.08303616  0.16696384  0.00000000  1
  Hf  Hf0_1  1  0.08303616  0.16696384  0.50000000  1
  Hf  Hf0_2  1  0.08303616  0.66696384  0.00000000  1
  Hf  Hf0_3  1  0.08303616  0.66696384  0.50000000  1
  Hf  Hf0_4  1  0.58303616  0.16696384  0.00000000  1
  Hf  Hf0_5  1  0.58303616  0.16696384  0.50000000  1
  Hf  Hf0_6  1  0.58303616  0.66696384  0.00000000  1
  Hf  Hf0_7  1  0.58303616  0.66696384  0.50000000  1
  Hf  Hf1_0  1  0.41696384  0.33303615  0.00000000  1
  Hf  Hf1_1  1  0.41696384  0.33303615  0.50000000  1
  Hf  Hf1_2  1  0.41696384  0.83303615  0.00000000  1
  Hf  Hf1_3  1  0.41696384  0.83303615  0.50000000  1
  Hf  Hf1_4  1  0.91696384  0.33303615  0.00000000  1
  Hf  Hf1_5  1  0.91696384  0.33303615  0.50000000  1
  Hf  Hf1_6  1  0.91696384  0.83303615  0.00000000  1
  Hf  Hf1_7  1  0.91696384  0.83303615  0.50000000  1
  Hf  Hf2_0  1  0.33303615  0.08303616  0.00000000  1
  Hf  Hf2_1  1  0.33303615  0.08303616  0.50000000  1
  Hf  Hf2_2  1  0.33303615  0.58303616  0.00000000  1
  Hf  Hf2_3  1  0.33303615  0.58303616  0.50000000  1
  Hf  Hf2_4  1  0.83303615  0.08303616  0.00000000  1
  Hf  Hf2_5  1  0.83303615  0.08303616  0.50000000  1
  Hf  Hf2_6  1  0.83303615  0.58303616  0.00000000  1
  Hf  Hf2_7  1  0.83303615  0.58303616  0.50000000  1
  Hf  Hf3_0  1  0.16696384  0.41696384  0.00000000  1
  Hf  Hf3_1  1  0.16696384  0.41696384  0.50000000  1
  Hf  Hf3_2  1  0.16696384  0.91696384  0.00000000  1
  Hf  Hf3_3  1  0.16696384  0.91696384  0.50000000  1
  Hf  Hf3_4  1  0.66696384  0.41696384  0.00000000  1
  Hf  Hf3_5  1  0.66696384  0.41696384  0.50000000  1
  Hf  Hf3_6  1  0.66696384  0.91696384  0.00000000  1
  Hf  Hf3_7  1  0.66696384  0.91696384  0.50000000  1
  In  In0_0  1  0.00000000  0.00000000  0.25000000  1
  In  In0_1  1  0.00000000  0.00000000  0.75000000  1
  In  In0_2  1  0.00000000  0.50000000  0.25000000  1
  In  In0_3  1  0.00000000  0.50000000  0.75000000  1
  In  In0_4  1  0.50000000  0.00000000  0.25000000  1
  In  In0_5  1  0.50000000  0.00000000  0.75000000  1
  In  In0_6  1  0.50000000  0.50000000  0.25000000  1
  In  In0_7  1  0.50000000  0.50000000  0.75000000  1
  In  In1_0  1  0.25000000  0.25000000  0.25000000  1
  In  In1_1  1  0.25000000  0.25000000  0.75000000  1
  In  In1_2  1  0.25000000  0.75000000  0.25000000  1
  In  In1_3  1  0.25000000  0.75000000  0.75000000  1
  In  In1_4  1  0.75000000  0.25000000  0.25000000  1
  In  In1_5  1  0.75000000  0.25000000  0.75000000  1
  In  In1_6  1  0.75000000  0.75000000  0.25000000  1
  In  In1_7  1  0.75000000  0.75000000  0.75000000  1
  Pd  Pd0_0  1  0.18515496  0.06484503  0.25000000  1
  Pd  Pd0_1  1  0.18515496  0.06484503  0.75000000  1
  Pd  Pd0_2  1  0.18515496  0.56484504  0.25000000  1
  Pd  Pd0_3  1  0.18515496  0.56484504  0.75000000  1
  Pd  Pd0_4  1  0.68515496  0.06484503  0.25000000  1
  Pd  Pd0_5  1  0.68515496  0.06484503  0.75000000  1
  Pd  Pd0_6  1  0.68515496  0.56484504  0.25000000  1
  Pd  Pd0_7  1  0.68515496  0.56484504  0.75000000  1
  Pd  Pd1_0  1  0.31484503  0.43515497  0.25000000  1
  Pd  Pd1_1  1  0.31484503  0.43515497  0.75000000  1
  Pd  Pd1_2  1  0.31484503  0.93515496  0.25000000  1
  Pd  Pd1_3  1  0.31484503  0.93515496  0.75000000  1
  Pd  Pd1_4  1  0.81484503  0.43515497  0.25000000  1
  Pd  Pd1_5  1  0.81484503  0.43515497  0.75000000  1
  Pd  Pd1_6  1  0.81484503  0.93515496  0.25000000  1
  Pd  Pd1_7  1  0.81484503  0.93515496  0.75000000  1
  Pd  Pd2_0  1  0.43515497  0.18515496  0.25000000  1
  Pd  Pd2_1  1  0.43515497  0.18515496  0.75000000  1
  Pd  Pd2_2  1  0.43515497  0.68515496  0.25000000  1
  Pd  Pd2_3  1  0.43515497  0.68515496  0.75000000  1
  Pd  Pd2_4  1  0.93515496  0.18515496  0.25000000  1
  Pd  Pd2_5  1  0.93515496  0.18515496  0.75000000  1
  Pd  Pd2_6  1  0.93515496  0.68515496  0.25000000  1
  Pd  Pd2_7  1  0.93515496  0.68515496  0.75000000  1
  Pd  Pd3_0  1  0.06484503  0.31484503  0.25000000  1
  Pd  Pd3_1  1  0.06484503  0.31484503  0.75000000  1
  Pd  Pd3_2  1  0.06484503  0.81484503  0.25000000  1
  Pd  Pd3_3  1  0.06484503  0.81484503  0.75000000  1
  Pd  Pd3_4  1  0.56484504  0.31484503  0.25000000  1
  Pd  Pd3_5  1  0.56484504  0.31484503  0.75000000  1
  Pd  Pd3_6  1  0.56484504  0.81484503  0.25000000  1
  Pd  Pd3_7  1  0.56484504  0.81484503  0.75000000  1
loop_
_geom_bond_atom_site_label_1
_geom_bond_atom_site_label_2
_geom_bond_distance
_geom_bond_site_symmetry_2
Hf0_0 Pd0_0 2.739005 1_555
Hf0_0 Pd0_1 2.739005 1_554
Hf0_0 Pd3_0 2.793658 1_555
Hf0_0 Pd3_1 2.793658 1_554
Hf0_0 Pd2_5 2.793658 1_454
Hf0_0 Pd2_4 2.793658 1_455
Hf0_0 In1_0 3.261072 1_555
Hf0_0 In0_0 3.261072 1_555
Hf0_0 In0_1 3.261072 1_554
Hf0_0 In1_1 3.261072 1_554
Hf0_1 Pd0_0 2.739005 1_555
Hf0_1 Pd0_1 2.739005 1_555
Hf0_1 Pd3_0 2.793658 1_555
Hf0_1 Pd3_1 2.793658 1_555
Hf0_1 Pd2_5 2.793658 1_455
Hf0_1 Pd2_4 2.793658 1_455
Hf0_1 In0_1 3.261072 1_555
Hf0_1 In1_0 3.261072 1_555
Hf0_1 In0_0 3.261072 1_555
Hf0_1 In1_1 3.261072 1_555
Hf0_2 Pd0_3 2.739005 1_554
Hf0_2 Pd0_2 2.739005 1_555
Hf0_2 Pd3_3 2.793658 1_554
Hf0_2 Pd3_2 2.793658 1_555
Hf0_2 Pd2_6 2.793658 1_455
Hf0_2 Pd2_7 2.793658 1_454
Hf0_2 In1_3 3.261072 1_554
Hf0_2 In1_2 3.261072 1_555
Hf0_2 In0_3 3.261072 1_554
Hf0_2 In0_2 3.261072 1_555
Hf0_3 Pd0_2 2.739005 1_555
Hf0_3 Pd0_3 2.739005 1_555
Hf0_3 Pd3_2 2.793658 1_555
Hf0_3 Pd3_3 2.793658 1_555
Hf0_3 Pd2_7 2.793658 1_455
Hf0_3 Pd2_6 2.793658 1_455
Hf0_3 In0_3 3.261072 1_555
Hf0_3 In1_2 3.261072 1_555
Hf0_3 In1_3 3.261072 1_555
Hf0_3 In0_2 3.261072 1_555
Hf0_4 Pd0_5 2.739005 1_554
Hf0_4 Pd0_4 2.739005 1_555
Hf0_4 Pd3_5 2.793658 1_554
Hf0_4 Pd3_4 2.793658 1_555
Hf0_4 Pd2_1 2.793658 1_554
Hf0_4 Pd2_0 2.793658 1_555
Hf0_4 In1_4 3.261072 1_555
Hf0_4 In1_5 3.261072 1_554
Hf0_4 In0_4 3.261072 1_555
Hf0_4 In0_5 3.261072 1_554
Hf0_5 Pd0_4 2.739005 1_555
Hf0_5 Pd0_5 2.739005 1_555
Hf0_5 Pd3_4 2.793658 1_555
Hf0_5 Pd3_5 2.793658 1_555
Hf0_5 Pd2_1 2.793658 1_555
Hf0_5 Pd2_0 2.793658 1_555
Hf0_5 In1_5 3.261072 1_555
Hf0_5 In1_4 3.261072 1_555
Hf0_5 In0_5 3.261072 1_555
Hf0_5 In0_4 3.261072 1_555
Hf0_6 Pd0_6 2.739005 1_555
Hf0_6 Pd0_7 2.739005 1_554
Hf0_6 Pd3_7 2.793658 1_554
Hf0_6 Pd3_6 2.793658 1_555
Hf0_6 Pd2_2 2.793658 1_555
Hf0_6 Pd2_3 2.793658 1_554
Hf0_6 In1_7 3.261072 1_554
Hf0_6 In1_6 3.261072 1_555
Hf0_6 In0_7 3.261072 1_554
Hf0_6 In0_6 3.261072 1_555
Hf0_7 Pd0_6 2.739005 1_555
Hf0_7 Pd0_7 2.739005 1_555
Hf0_7 Pd3_6 2.793658 1_555
Hf0_7 Pd3_7 2.793658 1_555
Hf0_7 Pd2_3 2.793658 1_555
Hf0_7 Pd2_2 2.793658 1_555
Hf0_7 In1_6 3.261072 1_555
Hf0_7 In1_7 3.261072 1_555
Hf0_7 In0_7 3.261072 1_555
Hf0_7 In0_6 3.261072 1_555
Hf1_0 Pd1_0 2.739005 1_555
Hf1_0 Pd1_1 2.739005 1_554
Hf1_0 Pd2_1 2.793658 1_554
Hf1_0 Pd2_0 2.793658 1_555
Hf1_0 Pd3_5 2.793658 1_554
Hf1_0 Pd3_4 2.793658 1_555
Hf1_0 In1_1 3.261072 1_554
Hf1_0 In1_0 3.261072 1_555
Hf1_0 In0_7 3.261072 1_554
Hf1_0 In0_6 3.261072 1_555
Hf1_1 Pd1_1 2.739005 1_555
Hf1_1 Pd1_0 2.739005 1_555
Hf1_1 Pd2_1 2.793658 1_555
Hf1_1 Pd2_0 2.793658 1_555
Hf1_1 Pd3_5 2.793658 1_555
Hf1_1 Pd3_4 2.793658 1_555
Hf1_1 In1_0 3.261072 1_555
Hf1_1 In1_1 3.261072 1_555
Hf1_1 In0_6 3.261072 1_555
Hf1_1 In0_7 3.261072 1_555
Hf1_2 Pd1_3 2.739005 1_554
Hf1_2 Pd1_2 2.739005 1_555
Hf1_2 Pd2_3 2.793658 1_554
Hf1_2 Pd2_2 2.793658 1_555
Hf1_2 Pd3_6 2.793658 1_555
Hf1_2 Pd3_7 2.793658 1_554
Hf1_2 In0_5 3.261072 1_564
Hf1_2 In1_3 3.261072 1_554
Hf1_2 In0_4 3.261072 1_565
Hf1_2 In1_2 3.261072 1_555
Hf1_3 Pd1_3 2.739005 1_555
Hf1_3 Pd1_2 2.739005 1_555
Hf1_3 Pd2_3 2.793658 1_555
Hf1_3 Pd2_2 2.793658 1_555
Hf1_3 Pd3_6 2.793658 1_555
Hf1_3 Pd3_7 2.793658 1_555
Hf1_3 In1_3 3.261072 1_555
Hf1_3 In0_4 3.261072 1_565
Hf1_3 In1_2 3.261072 1_555
Hf1_3 In0_5 3.261072 1_565
Hf1_4 Pd1_4 2.739005 1_555
Hf1_4 Pd1_5 2.739005 1_554
Hf1_4 Pd2_5 2.793658 1_554
Hf1_4 Pd2_4 2.793658 1_555
Hf1_4 Pd3_0 2.793658 1_655
Hf1_4 Pd3_1 2.793658 1_654
Hf1_4 In1_4 3.261072 1_555
Hf1_4 In1_5 3.261072 1_554
Hf1_4 In0_2 3.261072 1_655
Hf1_4 In0_3 3.261072 1_654
Hf1_5 Pd1_4 2.739005 1_555
Hf1_5 Pd1_5 2.739005 1_555
Hf1_5 Pd2_5 2.793658 1_555
Hf1_5 Pd2_4 2.793658 1_555
Hf1_5 Pd3_0 2.793658 1_655
Hf1_5 Pd3_1 2.793658 1_655
Hf1_5 In1_4 3.261072 1_555
Hf1_5 In1_5 3.261072 1_555
Hf1_5 In0_3 3.261072 1_655
Hf1_5 In0_2 3.261072 1_655
Hf1_6 Pd1_7 2.739005 1_554
Hf1_6 Pd1_6 2.739005 1_555
Hf1_6 Pd2_7 2.793658 1_554
Hf1_6 Pd2_6 2.793658 1_555
Hf1_6 Pd3_3 2.793658 1_654
Hf1_6 Pd3_2 2.793658 1_655
Hf1_6 In1_7 3.261072 1_554
Hf1_6 In1_6 3.261072 1_555
Hf1_6 In0_0 3.261072 1_665
Hf1_6 In0_1 3.261072 1_664
Hf1_7 Pd1_7 2.739005 1_555
Hf1_7 Pd1_6 2.739005 1_555
Hf1_7 Pd2_7 2.793658 1_555
Hf1_7 Pd2_6 2.793658 1_555
Hf1_7 Pd3_3 2.793658 1_655
Hf1_7 Pd3_2 2.793658 1_655
Hf1_7 In0_1 3.261072 1_665
Hf1_7 In1_6 3.261072 1_555
Hf1_7 In0_0 3.261072 1_665
Hf1_7 In1_7 3.261072 1_555
Hf2_0 Pd2_0 2.739005 1_555
Hf2_0 Pd2_1 2.739005 1_554
Hf2_0 Pd0_1 2.793658 1_554
Hf2_0 Pd0_0 2.793658 1_555
Hf2_0 Pd1_3 2.793658 1_544
Hf2_0 Pd1_2 2.793658 1_545
Hf2_0 In1_1 3.261072 1_554
Hf2_0 In1_0 3.261072 1_555
Hf2_0 In0_5 3.261072 1_554
Hf2_0 In0_4 3.261072 1_555
Hf2_1 Pd2_0 2.739005 1_555
Hf2_1 Pd2_1 2.739005 1_555
Hf2_1 Pd0_0 2.793658 1_555
Hf2_1 Pd0_1 2.793658 1_555
Hf2_1 Pd1_3 2.793658 1_545
Hf2_1 Pd1_2 2.793658 1_545
Hf2_1 In1_0 3.261072 1_555
Hf2_1 In1_1 3.261072 1_555
Hf2_1 In0_4 3.261072 1_555
Hf2_1 In0_5 3.261072 1_555
Hf2_2 Pd2_3 2.739005 1_554
Hf2_2 Pd2_2 2.739005 1_555
Hf2_2 Pd0_2 2.793658 1_555
Hf2_2 Pd0_3 2.793658 1_554
Hf2_2 Pd1_0 2.793658 1_555
Hf2_2 Pd1_1 2.793658 1_554
Hf2_2 In1_2 3.261072 1_555
Hf2_2 In1_3 3.261072 1_554
Hf2_2 In0_6 3.261072 1_555
Hf2_2 In0_7 3.261072 1_554
Hf2_3 Pd2_2 2.739005 1_555
Hf2_3 Pd2_3 2.739005 1_555
Hf2_3 Pd0_2 2.793658 1_555
Hf2_3 Pd0_3 2.793658 1_555
Hf2_3 Pd1_0 2.793658 1_555
Hf2_3 Pd1_1 2.793658 1_555
Hf2_3 In1_2 3.261072 1_555
Hf2_3 In1_3 3.261072 1_555
Hf2_3 In0_7 3.261072 1_555
Hf2_3 In0_6 3.261072 1_555
Hf2_4 Pd2_5 2.739005 1_554
Hf2_4 Pd2_4 2.739005 1_555
Hf2_4 Pd0_5 2.793658 1_554
Hf2_4 Pd0_4 2.793658 1_555
Hf2_4 Pd1_6 2.793658 1_545
Hf2_4 Pd1_7 2.793658 1_544
Hf2_4 In1_4 3.261072 1_555
Hf2_4 In1_5 3.261072 1_554
Hf2_4 In0_0 3.261072 1_655
Hf2_4 In0_1 3.261072 1_654
Hf2_5 Pd2_5 2.739005 1_555
Hf2_5 Pd2_4 2.739005 1_555
Hf2_5 Pd0_4 2.793658 1_555
Hf2_5 Pd0_5 2.793658 1_555
Hf2_5 Pd1_6 2.793658 1_545
Hf2_5 Pd1_7 2.793658 1_545
Hf2_5 In1_4 3.261072 1_555
Hf2_5 In1_5 3.261072 1_555
Hf2_5 In0_0 3.261072 1_655
Hf2_5 In0_1 3.261072 1_655
Hf2_6 Pd2_7 2.739005 1_554
Hf2_6 Pd2_6 2.739005 1_555
Hf2_6 Pd0_7 2.793658 1_554
Hf2_6 Pd0_6 2.793658 1_555
Hf2_6 Pd1_5 2.793658 1_554
Hf2_6 Pd1_4 2.793658 1_555
Hf2_6 In1_6 3.261072 1_555
Hf2_6 In1_7 3.261072 1_554
Hf2_6 In0_2 3.261072 1_655
Hf2_6 In0_3 3.261072 1_654
Hf2_7 Pd2_6 2.739005 1_555
Hf2_7 Pd2_7 2.739005 1_555
Hf2_7 Pd0_7 2.793658 1_555
Hf2_7 Pd0_6 2.793658 1_555
Hf2_7 Pd1_5 2.793658 1_555
Hf2_7 Pd1_4 2.793658 1_555
Hf2_7 In1_6 3.261072 1_555
Hf2_7 In1_7 3.261072 1_555
Hf2_7 In0_3 3.261072 1_655
Hf2_7 In0_2 3.261072 1_655
Hf3_0 Pd3_0 2.739005 1_555
Hf3_0 Pd3_1 2.739005 1_554
Hf3_0 Pd1_0 2.793658 1_555
Hf3_0 Pd1_1 2.793658 1_554
Hf3_0 Pd0_2 2.793658 1_555
Hf3_0 Pd0_3 2.793658 1_554
Hf3_0 In0_2 3.261072 1_555
Hf3_0 In0_3 3.261072 1_554
Hf3_0 In1_0 3.261072 1_555
Hf3_0 In1_1 3.261072 1_554
Hf3_1 Pd3_1 2.739005 1_555
Hf3_1 Pd3_0 2.739005 1_555
Hf3_1 Pd1_0 2.793658 1_555
Hf3_1 Pd1_1 2.793658 1_555
Hf3_1 Pd0_2 2.793658 1_555
Hf3_1 Pd0_3 2.793658 1_555
Hf3_1 In0_2 3.261072 1_555
Hf3_1 In1_0 3.261072 1_555
Hf3_1 In1_1 3.261072 1_555
Hf3_1 In0_3 3.261072 1_555
Hf3_2 Pd3_3 2.739005 1_554
Hf3_2 Pd3_2 2.739005 1_555
Hf3_2 Pd1_3 2.793658 1_554
Hf3_2 Pd1_2 2.793658 1_555
Hf3_2 Pd0_1 2.793658 1_564
Hf3_2 Pd0_0 2.793658 1_565
Hf3_2 In1_3 3.261072 1_554
Hf3_2 In1_2 3.261072 1_555
Hf3_2 In0_0 3.261072 1_565
Hf3_2 In0_1 3.261072 1_564
Hf3_3 Pd3_2 2.739005 1_555
Hf3_3 Pd3_3 2.739005 1_555
Hf3_3 Pd1_3 2.793658 1_555
Hf3_3 Pd1_2 2.793658 1_555
Hf3_3 Pd0_1 2.793658 1_565
Hf3_3 Pd0_0 2.793658 1_565
Hf3_3 In1_3 3.261072 1_555
Hf3_3 In0_1 3.261072 1_565
Hf3_3 In1_2 3.261072 1_555
Hf3_3 In0_0 3.261072 1_565
Hf3_4 Pd3_5 2.739005 1_554
Hf3_4 Pd3_4 2.739005 1_555
Hf3_4 Pd1_4 2.793658 1_555
Hf3_4 Pd1_5 2.793658 1_554
Hf3_4 Pd0_7 2.793658 1_554
Hf3_4 Pd0_6 2.793658 1_555
Hf3_4 In0_7 3.261072 1_554
Hf3_4 In1_5 3.261072 1_554
Hf3_4 In1_4 3.261072 1_555
Hf3_4 In0_6 3.261072 1_555
Hf3_5 Pd3_4 2.739005 1_555
Hf3_5 Pd3_5 2.739005 1_555
Hf3_5 Pd1_4 2.793658 1_555
Hf3_5 Pd1_5 2.793658 1_555
Hf3_5 Pd0_7 2.793658 1_555
Hf3_5 Pd0_6 2.793658 1_555
Hf3_5 In1_5 3.261072 1_555
Hf3_5 In0_7 3.261072 1_555
Hf3_5 In1_4 3.261072 1_555
Hf3_5 In0_6 3.261072 1_555
Hf3_6 Pd3_6 2.739005 1_555
Hf3_6 Pd3_7 2.739005 1_554
Hf3_6 Pd1_7 2.793658 1_554
Hf3_6 Pd1_6 2.793658 1_555
Hf3_6 Pd0_5 2.793658 1_564
Hf3_6 Pd0_4 2.793658 1_565
Hf3_6 In0_4 3.261072 1_565
Hf3_6 In0_5 3.261072 1_564
Hf3_6 In1_6 3.261072 1_555
Hf3_6 In1_7 3.261072 1_554
Hf3_7 Pd3_7 2.739005 1_555
Hf3_7 Pd3_6 2.739005 1_555
Hf3_7 Pd1_6 2.793658 1_555
Hf3_7 Pd1_7 2.793658 1_555
Hf3_7 Pd0_5 2.793658 1_565
Hf3_7 Pd0_4 2.793658 1_565
Hf3_7 In0_4 3.261072 1_565
Hf3_7 In0_5 3.261072 1_565
Hf3_7 In1_6 3.261072 1_555
Hf3_7 In1_7 3.261072 1_555
In0_0 Pd0_0 2.943418 1_555
In0_0 Pd2_4 2.943418 1_455
In0_0 Pd3_2 2.943418 1_545
In0_0 Pd1_6 2.943418 1_445
In0_0 In0_1 3.350953 1_555
In0_0 In0_1 3.350953 1_554
In0_1 Pd0_1 2.943418 1_555
In0_1 Pd2_5 2.943418 1_455
In0_1 Pd3_3 2.943418 1_545
In0_1 Pd1_7 2.943418 1_445
In0_2 Pd2_6 2.943418 1_455
In0_2 Pd0_2 2.943418 1_555
In0_2 Pd1_4 2.943418 1_455
In0_2 Pd3_0 2.943418 1_555
In0_2 In0_3 3.350953 1_554
In0_2 In0_3 3.350953 1_555
In0_3 Pd2_7 2.943418 1_455
In0_3 Pd0_3 2.943418 1_555
In0_3 Pd1_5 2.943418 1_455
In0_3 Pd3_1 2.943418 1_555
In0_4 Pd2_0 2.943418 1_555
In0_4 Pd0_4 2.943418 1_555
In0_4 Pd1_2 2.943418 1_545
In0_4 Pd3_6 2.943418 1_545
In0_4 In0_5 3.350953 1_555
In0_4 In0_5 3.350953 1_554
In0_5 Pd2_1 2.943418 1_555
In0_5 Pd0_5 2.943418 1_555
In0_5 Pd3_7 2.943418 1_545
In0_5 Pd1_3 2.943418 1_545
In0_6 Pd2_2 2.943418 1_555
In0_6 Pd0_6 2.943418 1_555
In0_6 Pd1_0 2.943418 1_555
In0_6 Pd3_4 2.943418 1_555
In0_6 In0_7 3.350953 1_554
In0_6 In0_7 3.350953 1_555
In0_7 Pd2_3 2.943418 1_555
In0_7 Pd0_7 2.943418 1_555
In0_7 Pd1_1 2.943418 1_555
In0_7 Pd3_5 2.943418 1_555
In1_0 Pd3_0 2.943418 1_555
In1_0 Pd1_0 2.943418 1_555
In1_0 Pd2_0 2.943418 1_555
In1_0 Pd0_0 2.943418 1_555
In1_0 In1_1 3.350953 1_555
In1_0 In1_1 3.350953 1_554
In1_1 Pd1_1 2.943418 1_555
In1_1 Pd3_1 2.943418 1_555
In1_1 Pd2_1 2.943418 1_555
In1_1 Pd0_1 2.943418 1_555
In1_2 Pd0_2 2.943418 1_555
In1_2 Pd2_2 2.943418 1_555
In1_2 Pd3_2 2.943418 1_555
In1_2 Pd1_2 2.943418 1_555
In1_2 In1_3 3.350953 1_555
In1_2 In1_3 3.350953 1_554
In1_3 Pd0_3 2.943418 1_555
In1_3 Pd2_3 2.943418 1_555
In1_3 Pd3_3 2.943418 1_555
In1_3 Pd1_3 2.943418 1_555
In1_4 Pd3_4 2.943418 1_555
In1_4 Pd0_4 2.943418 1_555
In1_4 Pd1_4 2.943418 1_555
In1_4 Pd2_4 2.943418 1_555
In1_4 In1_5 3.350953 1_554
In1_4 In1_5 3.350953 1_555
In1_5 Pd3_5 2.943418 1_555
In1_5 Pd0_5 2.943418 1_555
In1_5 Pd1_5 2.943418 1_555
In1_5 Pd2_5 2.943418 1_555
In1_6 Pd0_6 2.943418 1_555
In1_6 Pd3_6 2.943418 1_555
In1_6 Pd2_6 2.943418 1_555
In1_6 Pd1_6 2.943418 1_555
In1_6 In1_7 3.350953 1_555
In1_6 In1_7 3.350953 1_554
In1_7 Pd0_7 2.943418 1_555
In1_7 Pd3_7 2.943418 1_555
In1_7 Pd2_7 2.943418 1_555
In1_7 Pd1_7 2.943418 1_555
Pd0_0 Pd1_2 2.751790 1_545
Pd0_1 Pd1_3 2.751790 1_545
Pd0_2 Pd1_0 2.751790 1_555
Pd0_3 Pd1_1 2.751790 1_555
Pd0_4 Pd1_6 2.751790 1_545
Pd0_5 Pd1_7 2.751790 1_545
Pd0_6 Pd1_4 2.751790 1_555
Pd0_7 Pd1_5 2.751790 1_555
Pd2_0 Pd3_4 2.751790 1_555
Pd2_1 Pd3_5 2.751790 1_555
Pd2_2 Pd3_6 2.751790 1_555
Pd2_3 Pd3_7 2.751790 1_555
Pd2_4 Pd3_0 2.751790 1_655
Pd2_5 Pd3_1 2.751790 1_655
Pd2_6 Pd3_2 2.751790 1_655
Pd2_7 Pd3_3 2.751790 1_655
