# generated using pymatgen
data_Ca(SbO2)2
_symmetry_space_group_name_H-M   'P 1'
_cell_length_a   6.98151916
_cell_length_b   6.98151916
_cell_length_c   6.98151868
_cell_angle_alpha   58.82928207
_cell_angle_beta   58.82928207
_cell_angle_gamma   58.82927997
_symmetry_Int_Tables_number   1
_chemical_formula_structural   Ca(SbO2)2
_chemical_formula_sum   'Ca2 Sb4 O8'
_cell_volume   234.18961022
_cell_formula_units_Z   2
loop_
 _symmetry_equiv_pos_site_id
 _symmetry_equiv_pos_as_xyz
  1  'x, y, z'
loop_
 _atom_site_type_symbol
 _atom_site_label
 _atom_site_symmetry_multiplicity
 _atom_site_fract_x
 _atom_site_fract_y
 _atom_site_fract_z
 _atom_site_occupancy
  Ca  Ca0  1  0.99826300  0.99826300  0.99826300  1
  Ca  Ca1  1  0.37773400  0.37773400  0.37773400  1
  Sb  Sb0  1  0.75088100  0.75088100  0.75088100  1
  Sb  Sb1  1  0.37492000  0.37492000  0.88310700  1
  Sb  Sb2  1  0.37492000  0.88310700  0.37492000  1
  Sb  Sb3  1  0.88310700  0.37492000  0.37492000  1
  O  O0  1  0.13092700  0.62347000  0.62347000  1
  O  O1  1  0.62347000  0.13092700  0.62347000  1
  O  O2  1  0.62347000  0.62347000  0.13092700  1
  O  O3  1  0.62559100  0.62559100  0.62559100  1
  O  O4  1  0.13936200  0.13936200  0.13936200  1
  O  O5  1  0.13395100  0.13395100  0.57945500  1
  O  O6  1  0.13395100  0.57945500  0.13395100  1
  O  O7  1  0.57945500  0.13395100  0.13395100  1
loop_
_geom_bond_atom_site_label_1
_geom_bond_atom_site_label_2
_geom_bond_distance
_geom_bond_site_symmetry_2
Ca0 O5 2.353391 1_665
Ca0 O7 2.353391 1_566
Ca0 O6 2.353391 1_656
Ca0 O4 2.434086 1_666
Ca1 O1 2.404630 1_555
Ca1 O0 2.404630 1_555
Ca1 O2 2.404631 1_555
Ca1 O6 2.411003 1_555
Ca1 O7 2.411003 1_555
Ca1 O5 2.411003 1_555
O0 Sb0 2.134287 1_455
O0 Sb1 2.465557 1_555
O0 Sb2 2.465558 1_555
O1 Sb0 2.134287 1_545
O1 Sb1 2.465557 1_555
O1 Sb3 2.465558 1_555
O2 Sb0 2.134287 1_554
O2 Sb3 2.465557 1_555
O2 Sb2 2.465557 1_555
O3 Sb0 2.161366 1_555
O3 Sb3 2.452367 1_555
O3 Sb2 2.452367 1_555
O3 Sb1 2.452367 1_555
O4 Sb2 2.306105 1_545
O4 Sb3 2.306105 1_455
O4 Sb1 2.306105 1_554
O5 Sb2 2.233454 1_545
O5 Sb3 2.233454 1_455
O6 Sb1 2.233454 1_554
O6 Sb3 2.233454 1_455
O7 Sb1 2.233454 1_554
O7 Sb2 2.233454 1_545
