# generated using pymatgen
data_K2SrNb5O15
_symmetry_space_group_name_H-M   'P 1'
_cell_length_a   4.05748500
_cell_length_b   12.77567500
_cell_length_c   12.77567500
_cell_angle_alpha   90.00000000
_cell_angle_beta   90.00000000
_cell_angle_gamma   90.00000000
_symmetry_Int_Tables_number   1
_chemical_formula_structural   K2SrNb5O15
_chemical_formula_sum   'K4 Sr2 Nb10 O30'
_cell_volume   662.25406618
_cell_formula_units_Z   2
loop_
 _symmetry_equiv_pos_site_id
 _symmetry_equiv_pos_as_xyz
  1  'x, y, z'
loop_
 _atom_site_type_symbol
 _atom_site_label
 _atom_site_symmetry_multiplicity
 _atom_site_fract_x
 _atom_site_fract_y
 _atom_site_fract_z
 _atom_site_occupancy
  K  K0  1  0.03275000  0.67051900  0.17051900  1
  K  K1  1  0.03275000  0.32948100  0.82948100  1
  K  K2  1  0.03275000  0.82948100  0.67051900  1
  K  K3  1  0.03275000  0.17051900  0.32948100  1
  Sr  Sr0  1  0.03154700  0.00000000  0.00000000  1
  Sr  Sr1  1  0.03154700  0.50000000  0.50000000  1
  Nb  Nb0  1  0.54147400  0.50000000  0.00000000  1
  Nb  Nb1  1  0.54147400  0.00000000  0.50000000  1
  Nb  Nb2  1  0.53445000  0.21262900  0.07577100  1
  Nb  Nb3  1  0.53445000  0.78737100  0.92422900  1
  Nb  Nb4  1  0.53445000  0.92422900  0.21262900  1
  Nb  Nb5  1  0.53445000  0.71262900  0.42422900  1
  Nb  Nb6  1  0.53445000  0.07577100  0.78737100  1
  Nb  Nb7  1  0.53445000  0.28737100  0.57577100  1
  Nb  Nb8  1  0.53445000  0.42422900  0.28737100  1
  Nb  Nb9  1  0.53445000  0.57577100  0.71262900  1
  O  O0  1  0.00013200  0.19934500  0.07121200  1
  O  O1  1  0.00013200  0.80065500  0.92878800  1
  O  O2  1  0.00013200  0.92878800  0.19934500  1
  O  O3  1  0.00013200  0.69934500  0.42878800  1
  O  O4  1  0.00013200  0.07121200  0.80065500  1
  O  O5  1  0.00013200  0.30065500  0.57121200  1
  O  O6  1  0.00013200  0.42878800  0.30065500  1
  O  O7  1  0.00013200  0.57121200  0.69934500  1
  O  O8  1  0.49096600  0.00117300  0.34420100  1
  O  O9  1  0.49096600  0.99882700  0.65579900  1
  O  O10  1  0.49096600  0.65579900  0.00117300  1
  O  O11  1  0.49096600  0.50117300  0.15579900  1
  O  O12  1  0.49096600  0.34420100  0.99882700  1
  O  O13  1  0.49096600  0.49882700  0.84420100  1
  O  O14  1  0.49096600  0.15579900  0.49882700  1
  O  O15  1  0.49096600  0.84420100  0.50117300  1
  O  O16  1  0.99933200  0.50000000  0.00000000  1
  O  O17  1  0.99933200  0.00000000  0.50000000  1
  O  O18  1  0.50495100  0.21324500  0.71324500  1
  O  O19  1  0.50495100  0.78675500  0.28675500  1
  O  O20  1  0.50495100  0.28675500  0.21324500  1
  O  O21  1  0.50495100  0.71324500  0.78675500  1
  O  O22  1  0.49446300  0.06704900  0.13643100  1
  O  O23  1  0.49446300  0.93295100  0.86356900  1
  O  O24  1  0.49446300  0.86356900  0.06704900  1
  O  O25  1  0.49446300  0.56704900  0.36356900  1
  O  O26  1  0.49446300  0.13643100  0.93295100  1
  O  O27  1  0.49446300  0.43295100  0.63643100  1
  O  O28  1  0.49446300  0.36356900  0.43295100  1
  O  O29  1  0.49446300  0.63643100  0.56704900  1
loop_
_geom_bond_atom_site_label_1
_geom_bond_atom_site_label_2
_geom_bond_distance
_geom_bond_site_symmetry_2
K0 O19 2.842757 1_555
K0 O11 2.858808 1_555
K0 O10 2.858808 1_555
K0 O19 2.999431 1_455
K0 O16 3.083840 1_455
K0 O10 3.090077 1_455
K0 O11 3.090077 1_455
K1 O18 2.842757 1_555
K1 O12 2.858808 1_555
K1 O13 2.858808 1_555
K1 O18 2.999431 1_455
K1 O16 3.083840 1_456
K1 O13 3.090077 1_455
K1 O12 3.090077 1_455
K2 O21 2.842757 1_555
K2 O15 2.858808 1_555
K2 O9 2.858808 1_555
K2 O21 2.999431 1_455
K2 O17 3.083840 1_465
K2 O15 3.090077 1_455
K2 O9 3.090077 1_455
K3 O20 2.842757 1_555
K3 O8 2.858808 1_555
K3 O14 2.858808 1_555
K3 O20 2.999431 1_455
K3 O17 3.083840 1_455
K3 O14 3.090077 1_455
K3 O8 3.090077 1_455
Nb0 O16 1.857752 1_555
Nb0 O11 2.001016 1_555
Nb0 O12 2.001016 1_554
Nb0 O13 2.001016 1_554
Nb0 O10 2.001016 1_555
Nb0 O16 2.199733 1_455
Nb1 O17 1.857752 1_555
Nb1 O14 2.001016 1_555
Nb1 O15 2.001016 1_545
Nb1 O8 2.001016 1_555
Nb1 O9 2.001016 1_545
Nb1 O17 2.199733 1_455
Nb2 O0 1.897998 1_655
Nb2 O12 1.955233 1_554
Nb2 O20 1.998956 1_555
Nb2 O22 2.021403 1_555
Nb2 O26 2.074424 1_554
Nb2 O0 2.175400 1_555
Nb3 O1 1.897998 1_655
Nb3 O10 1.955233 1_556
Nb3 O21 1.998956 1_555
Nb3 O23 2.021403 1_555
Nb3 O24 2.074424 1_556
Nb3 O1 2.175400 1_555
Nb4 O2 1.897998 1_655
Nb4 O8 1.955233 1_565
Nb4 O19 1.998956 1_555
Nb4 O24 2.021403 1_555
Nb4 O22 2.074424 1_565
Nb4 O2 2.175400 1_555
Nb5 O3 1.897998 1_655
Nb5 O15 1.955233 1_555
Nb5 O19 1.998956 1_555
Nb5 O25 2.021403 1_555
Nb5 O29 2.074424 1_555
Nb5 O3 2.175400 1_555
Nb6 O4 1.897998 1_655
Nb6 O9 1.955233 1_545
Nb6 O18 1.998956 1_555
Nb6 O26 2.021403 1_555
Nb6 O23 2.074424 1_545
Nb6 O4 2.175400 1_555
Nb7 O5 1.897998 1_655
Nb7 O14 1.955233 1_555
Nb7 O18 1.998956 1_555
Nb7 O27 2.021403 1_555
Nb7 O28 2.074424 1_555
Nb7 O5 2.175400 1_555
Nb8 O6 1.897998 1_655
Nb8 O11 1.955233 1_555
Nb8 O20 1.998956 1_555
Nb8 O28 2.021403 1_555
Nb8 O25 2.074424 1_555
Nb8 O6 2.175400 1_555
Nb9 O7 1.897998 1_655
Nb9 O13 1.955233 1_555
Nb9 O21 1.998956 1_555
Nb9 O29 2.021403 1_555
Nb9 O27 2.074424 1_555
Nb9 O7 2.175400 1_555
O0 Sr0 2.707392 1_555
O1 Sr0 2.707392 1_566
O2 Sr0 2.707392 1_565
O3 Sr1 2.707392 1_555
O4 Sr0 2.707392 1_556
O5 Sr1 2.707392 1_555
O6 Sr1 2.707392 1_555
O7 Sr1 2.707392 1_555
O22 Sr0 2.701799 1_555
O22 Sr0 2.919034 1_655
O23 Sr0 2.701799 1_566
O23 Sr0 2.919034 1_666
O24 Sr0 2.701799 1_565
O24 Sr0 2.919034 1_665
O25 Sr1 2.701799 1_555
O25 Sr1 2.919034 1_655
O26 Sr0 2.701799 1_556
O26 Sr0 2.919034 1_656
O27 Sr1 2.701799 1_555
O27 Sr1 2.919034 1_655
O28 Sr1 2.701799 1_555
O28 Sr1 2.919034 1_655
O29 Sr1 2.701799 1_555
O29 Sr1 2.919034 1_655
