# generated using pymatgen
data_BaCaPrSbO6
_symmetry_space_group_name_H-M   'P 1'
_cell_length_a   8.53251535
_cell_length_b   8.52225214
_cell_length_c   8.55403518
_cell_angle_alpha   90.00000000
_cell_angle_beta   90.00000000
_cell_angle_gamma   90.00000000
_symmetry_Int_Tables_number   1
_chemical_formula_structural   BaCaPrSbO6
_chemical_formula_sum   'Ba4 Ca4 Pr4 Sb4 O24'
_cell_volume   622.01733672
_cell_formula_units_Z   4
loop_
 _symmetry_equiv_pos_site_id
 _symmetry_equiv_pos_as_xyz
  1  'x, y, z'
loop_
 _atom_site_type_symbol
 _atom_site_label
 _atom_site_symmetry_multiplicity
 _atom_site_fract_x
 _atom_site_fract_y
 _atom_site_fract_z
 _atom_site_occupancy
  Ba  Ba0  1  0.00000000  0.00000000  0.00000000  1
  Ba  Ba1  1  0.50000000  0.50000000  0.50000000  1
  Ba  Ba2  1  0.50000000  0.00000000  0.00000000  1
  Ba  Ba3  1  0.00000000  0.00000000  0.50000000  1
  Ca  Ca0  1  0.00000000  0.50000000  0.50000000  1
  Ca  Ca1  1  0.50000000  -0.00000000  0.50000000  1
  Ca  Ca2  1  0.50000000  0.50000000  0.00000000  1
  Ca  Ca3  1  0.00000000  0.50000000  0.00000000  1
  Pr  Pr0  1  0.74777797  0.74498834  0.74918047  1
  Pr  Pr1  1  0.25222203  0.25501166  0.74918047  1
  Pr  Pr2  1  0.25222203  0.74498834  0.25081953  1
  Pr  Pr3  1  0.74777797  0.25501166  0.25081953  1
  Sb  Sb0  1  0.24863290  0.25677078  0.25151928  1
  Sb  Sb1  1  0.75136710  0.74322922  0.25151928  1
  Sb  Sb2  1  0.75136710  0.25677078  0.74848072  1
  Sb  Sb3  1  0.24863290  0.74322922  0.74848072  1
  O  O0  1  0.01727838  0.22350947  0.28320064  1
  O  O1  1  0.98272162  0.77649053  0.28320064  1
  O  O2  1  0.98272162  0.22350947  0.71679936  1
  O  O3  1  0.01727838  0.77649053  0.71679936  1
  O  O4  1  0.27419557  0.02236838  0.21451750  1
  O  O5  1  0.27419557  0.97763162  0.78548250  1
  O  O6  1  0.72580443  0.97763162  0.21451750  1
  O  O7  1  0.72580443  0.02236838  0.78548250  1
  O  O8  1  0.20490868  0.30015148  0.02058208  1
  O  O9  1  0.79509132  0.30015148  0.97941792  1
  O  O10  1  0.20490868  0.69984852  0.97941792  1
  O  O11  1  0.79509132  0.69984852  0.02058208  1
  O  O12  1  0.47717582  0.30270828  0.20230466  1
  O  O13  1  0.52282418  0.69729172  0.20230466  1
  O  O14  1  0.52282418  0.30270828  0.79769534  1
  O  O15  1  0.47717582  0.69729172  0.79769534  1
  O  O16  1  0.20937368  0.48182355  0.31044331  1
  O  O17  1  0.20937368  0.51817645  0.68955669  1
  O  O18  1  0.79062632  0.51817645  0.31044331  1
  O  O19  1  0.79062632  0.48182355  0.68955669  1
  O  O20  1  0.30545810  0.20919971  0.47880332  1
  O  O21  1  0.69454190  0.20919971  0.52119668  1
  O  O22  1  0.30545810  0.79080029  0.52119668  1
  O  O23  1  0.69454190  0.79080029  0.47880332  1
loop_
_geom_bond_atom_site_label_1
_geom_bond_atom_site_label_2
_geom_bond_distance
_geom_bond_site_symmetry_2
Ba0 O5 2.979455 1_544
Ba0 O7 2.979455 1_454
Ba0 O6 2.979455 1_445
Ba0 O4 2.979455 1_555
Ba0 O1 3.085216 1_445
Ba0 O0 3.085216 1_555
Ba0 O3 3.085216 1_544
Ba0 O2 3.085216 1_454
Ba0 O9 3.103393 1_454
Ba0 O10 3.103393 1_544
Ba0 O8 3.103393 1_555
Ba0 O11 3.103393 1_445
Ba1 O17 2.966893 1_555
Ba1 O19 2.966893 1_555
Ba1 O18 2.966893 1_555
Ba1 O16 2.966893 1_555
Ba1 O23 2.988325 1_555
Ba1 O21 2.988325 1_555
Ba1 O22 2.988325 1_555
Ba1 O20 2.988325 1_555
Ba1 O15 3.057707 1_555
Ba1 O13 3.057707 1_555
Ba1 O14 3.057707 1_555
Ba1 O12 3.057707 1_555
Ba2 O6 2.667513 1_545
Ba2 O7 2.667513 1_554
Ba2 O5 2.667513 1_544
Ba2 O4 2.667513 1_555
Ba2 O12 3.112519 1_555
Ba2 O14 3.112519 1_554
Ba2 O15 3.112519 1_544
Ba2 O13 3.112519 1_545
Ba3 O1 2.662559 1_445
Ba3 O0 2.662559 1_555
Ba3 O2 2.662559 1_455
Ba3 O3 2.662559 1_545
Ca0 O17 2.417582 1_555
Ca0 O18 2.417582 1_455
Ca0 O19 2.417582 1_455
Ca0 O16 2.417582 1_555
Ca0 O2 3.002198 1_455
Ca0 O3 3.002198 1_555
Ca0 O1 3.002198 1_455
Ca0 O0 3.002198 1_555
Ca1 O22 2.442706 1_545
Ca1 O21 2.442706 1_555
Ca1 O20 2.442706 1_555
Ca1 O23 2.442706 1_545
Ca2 O13 2.420668 1_555
Ca2 O12 2.420668 1_555
Ca2 O14 2.420668 1_554
Ca2 O15 2.420668 1_554
Ca3 O10 2.447163 1_554
Ca3 O9 2.447163 1_454
Ca3 O8 2.447163 1_555
Ca3 O11 2.447163 1_455
O0 Sb0 2.012613 1_555
O0 Pr3 2.331646 1_455
O1 Sb1 2.012613 1_555
O1 Pr2 2.331646 1_655
O2 Sb2 2.012613 1_555
O2 Pr1 2.331646 1_655
O3 Sb3 2.012613 1_555
O3 Pr0 2.331646 1_455
O4 Sb0 2.034283 1_555
O4 Pr2 2.391572 1_545
O5 Sb3 2.034283 1_555
O5 Pr1 2.391572 1_565
O6 Sb1 2.034283 1_555
O6 Pr3 2.391572 1_565
O7 Sb2 2.034283 1_555
O7 Pr0 2.391572 1_545
O8 Sb0 2.044076 1_555
O8 Pr1 2.387612 1_554
O9 Sb2 2.044076 1_555
O9 Pr3 2.387612 1_556
O10 Sb3 2.044076 1_555
O10 Pr2 2.387612 1_556
O11 Sb1 2.044076 1_555
O11 Pr0 2.387612 1_554
O12 Sb0 2.033020 1_555
O12 Pr3 2.380871 1_555
O13 Sb1 2.033020 1_555
O13 Pr2 2.380871 1_555
O14 Sb2 2.033020 1_555
O14 Pr1 2.380871 1_555
O15 Sb3 2.033020 1_555
O15 Pr0 2.380871 1_555
O16 Sb0 2.011175 1_555
O16 Pr2 2.328894 1_555
O17 Sb3 2.011175 1_555
O17 Pr1 2.328894 1_555
O18 Sb1 2.011175 1_555
O18 Pr3 2.328894 1_555
O19 Sb2 2.011175 1_555
O19 Pr0 2.328894 1_555
O20 Sb0 2.044345 1_555
O20 Pr1 2.389116 1_555
O21 Sb2 2.044345 1_555
O21 Pr3 2.389116 1_555
O22 Sb3 2.044345 1_555
O22 Pr2 2.389116 1_555
O23 Sb1 2.044345 1_555
O23 Pr0 2.389116 1_555
