# generated using pymatgen
data_TaAlO4
_symmetry_space_group_name_H-M   'P 1'
_cell_length_a   3.77891429
_cell_length_b   6.35500015
_cell_length_c   6.46165125
_cell_angle_alpha   106.88722982
_cell_angle_beta   90.00000000
_cell_angle_gamma   107.29660781
_symmetry_Int_Tables_number   1
_chemical_formula_structural   TaAlO4
_chemical_formula_sum   'Ta2 Al2 O8'
_cell_volume   141.13544759
_cell_formula_units_Z   2
loop_
 _symmetry_equiv_pos_site_id
 _symmetry_equiv_pos_as_xyz
  1  'x, y, z'
loop_
 _atom_site_type_symbol
 _atom_site_label
 _atom_site_symmetry_multiplicity
 _atom_site_fract_x
 _atom_site_fract_y
 _atom_site_fract_z
 _atom_site_occupancy
  Ta  Ta0  1  0.89419076  0.78837952  0.76649806  1
  Ta  Ta1  1  0.10580924  0.21162048  0.23350194  1
  Al  Al0  1  0.79908059  0.59816217  0.17895459  1
  Al  Al1  1  0.20091941  0.40183783  0.82104541  1
  O  O0  1  0.35796276  0.71592551  0.79752558  1
  O  O1  1  0.64203724  0.28407449  0.20247442  1
  O  O2  1  0.94218677  0.88437453  0.13516783  1
  O  O3  1  0.05781323  0.11562547  0.86483217  1
  O  O4  1  0.14129523  0.28259246  0.52670664  1
  O  O5  1  0.85870477  0.71740754  0.47329336  1
  O  O6  1  0.26256297  0.52512693  0.14190917  1
  O  O7  1  0.73743703  0.47487307  0.85809083  1
loop_
_geom_bond_atom_site_label_1
_geom_bond_atom_site_label_2
_geom_bond_distance
_geom_bond_site_symmetry_2
Al0 O5 1.817534 1_555
Al0 O2 1.842528 1_555
Al0 O6 1.938861 1_555
Al0 O6 1.938861 1_655
Al0 O1 1.957364 1_555
Al0 O7 1.978499 1_554
Al1 O4 1.817534 1_555
Al1 O3 1.842528 1_555
Al1 O7 1.938861 1_555
Al1 O7 1.938861 1_455
Al1 O0 1.957364 1_555
Al1 O6 1.978499 1_556
O0 Ta0 1.963958 1_455
O0 Ta0 1.963965 1_555
O1 Ta1 1.963958 1_655
O1 Ta1 1.963965 1_555
O2 Ta1 1.891730 1_665
O2 Ta0 2.273740 1_554
O3 Ta0 1.891730 1_445
O3 Ta1 2.273740 1_556
O4 Ta1 1.810649 1_555
O5 Ta0 1.810649 1_555
O6 Ta1 2.157275 1_555
O7 Ta0 2.157275 1_555
