# generated using pymatgen
data_Mg6CdB
_symmetry_space_group_name_H-M   'P 1'
_cell_length_a   6.07081865
_cell_length_b   6.07081865
_cell_length_c   4.90884000
_cell_angle_alpha   90.00000000
_cell_angle_beta   90.00000000
_cell_angle_gamma   118.32875148
_symmetry_Int_Tables_number   1
_chemical_formula_structural   Mg6CdB
_chemical_formula_sum   'Mg6 Cd1 B1'
_cell_volume   159.24806768
_cell_formula_units_Z   1
loop_
 _symmetry_equiv_pos_site_id
 _symmetry_equiv_pos_as_xyz
  1  'x, y, z'
loop_
 _atom_site_type_symbol
 _atom_site_label
 _atom_site_symmetry_multiplicity
 _atom_site_fract_x
 _atom_site_fract_y
 _atom_site_fract_z
 _atom_site_occupancy
  Mg  Mg0  1  0.66592400  0.83381400  0.00000000  1
  Mg  Mg1  1  0.16618600  0.33407600  0.00000000  1
  Mg  Mg2  1  0.84454300  0.67151400  0.50000000  1
  Mg  Mg3  1  0.32848600  0.15545700  0.50000000  1
  Mg  Mg4  1  0.83286600  0.16713400  0.50000000  1
  Mg  Mg5  1  0.32770300  0.67229700  0.50000000  1
  Cd  Cd0  1  0.66630700  0.33369300  0.00000000  1
  B  B0  1  0.16799100  0.83200900  0.00000000  1
loop_
_geom_bond_atom_site_label_1
_geom_bond_atom_site_label_2
_geom_bond_distance
_geom_bond_site_symmetry_2
Mg0 Mg2 3.030646 1_554
Mg0 Mg2 3.030646 1_555
Mg0 Mg4 3.033091 1_564
Mg0 Mg4 3.033091 1_565
Mg0 Mg5 3.048086 1_555
Mg0 Mg5 3.048086 1_554
Mg0 Mg1 3.110130 1_555
Mg0 Mg1 3.113392 1_665
Mg1 Mg3 3.030646 1_555
Mg1 Mg3 3.030646 1_554
Mg1 Mg4 3.033091 1_455
Mg1 Mg4 3.033091 1_454
Mg1 Mg5 3.048086 1_555
Mg1 Mg5 3.048086 1_554
Mg2 Mg5 2.930924 1_655
Mg2 Mg3 3.011830 1_665
Mg2 Mg4 3.029003 1_555
Mg2 Mg4 3.043098 1_565
Mg2 Mg5 3.139900 1_555
Mg2 Mg3 3.211692 1_555
Mg3 Mg5 2.930924 1_545
Mg3 Mg4 3.029003 1_555
Mg3 Mg4 3.043098 1_455
Mg3 Mg5 3.139900 1_555
Mg4 Mg5 3.112226 1_655
Mg4 Mg5 3.112226 1_545
Cd0 Mg4 3.006554 1_555
Cd0 Mg4 3.006554 1_554
Cd0 Mg1 3.033572 1_655
Cd0 Mg0 3.033572 1_545
Cd0 Mg0 3.037248 1_555
Cd0 Mg1 3.037248 1_555
Cd0 Mg3 3.048756 1_555
Cd0 Mg2 3.048756 1_554
Cd0 Mg3 3.048756 1_554
Cd0 Mg2 3.048756 1_555
B0 Mg5 2.965900 1_555
B0 Mg5 2.965900 1_554
B0 Mg3 3.002244 1_565
B0 Mg3 3.002244 1_564
B0 Mg2 3.002244 1_455
B0 Mg2 3.002244 1_454
B0 Mg1 3.017677 1_555
B0 Mg0 3.017677 1_555
B0 Mg0 3.053173 1_455
B0 Mg1 3.053173 1_565
