# generated using pymatgen
data_Er(Al2Mo)2
_symmetry_space_group_name_H-M   'P 1'
_cell_length_a   5.32546394
_cell_length_b   5.42731837
_cell_length_c   5.42731711
_cell_angle_alpha   76.07186386
_cell_angle_beta   60.61887573
_cell_angle_gamma   60.61888320
_symmetry_Int_Tables_number   1
_chemical_formula_structural   Er(Al2Mo)2
_chemical_formula_sum   'Er1 Al4 Mo2'
_cell_volume   119.10737529
_cell_formula_units_Z   1
loop_
 _symmetry_equiv_pos_site_id
 _symmetry_equiv_pos_as_xyz
  1  'x, y, z'
loop_
 _atom_site_type_symbol
 _atom_site_label
 _atom_site_symmetry_multiplicity
 _atom_site_fract_x
 _atom_site_fract_y
 _atom_site_fract_z
 _atom_site_occupancy
  Er  Er0  1  0.00000000  -0.00000000  0.00000000  1
  Al  Al0  1  0.30581763  -0.00000000  0.38836574  1
  Al  Al1  1  0.69418237  0.00000000  0.61163426  1
  Al  Al2  1  0.69418237  0.61163426  -0.00000000  1
  Al  Al3  1  0.30581763  0.38836574  0.00000000  1
  Mo  Mo0  1  0.25000000  0.50000000  0.50000000  1
  Mo  Mo1  1  0.75000000  0.50000000  0.50000000  1
loop_
_geom_bond_atom_site_label_1
_geom_bond_atom_site_label_2
_geom_bond_distance
_geom_bond_site_symmetry_2
Al0 Al3 2.597446 1_555
Al0 Al2 2.597446 1_545
Al0 Mo1 2.764537 1_545
Al0 Mo0 2.764537 1_555
Al0 Mo1 2.764539 1_455
Al0 Mo0 2.764539 1_545
Al0 Al1 2.864440 1_555
Al0 Al1 2.864449 1_455
Al0 Er0 2.892560 1_556
Al0 Er0 3.234732 1_655
Al0 Er0 3.234736 1_555
Al1 Al2 2.597446 1_546
Al1 Al3 2.597446 1_556
Al1 Mo0 2.764537 1_555
Al1 Mo1 2.764537 1_545
Al1 Mo0 2.764539 1_645
Al1 Mo1 2.764539 1_555
Al1 Er0 2.892560 1_655
Al1 Er0 3.234732 1_556
Al1 Er0 3.234736 1_656
Al2 Mo0 2.764536 1_555
Al2 Mo1 2.764536 1_554
Al2 Mo0 2.764539 1_654
Al2 Mo1 2.764539 1_555
Al2 Al3 2.864440 1_555
Al2 Al3 2.864449 1_655
Al2 Er0 2.892561 1_655
Al2 Er0 3.234732 1_565
Al2 Er0 3.234737 1_665
Al3 Mo1 2.764536 1_554
Al3 Mo0 2.764536 1_555
Al3 Mo1 2.764539 1_455
Al3 Mo0 2.764539 1_554
Al3 Er0 2.892561 1_565
Al3 Er0 3.234732 1_655
Al3 Er0 3.234737 1_555
Mo0 Mo1 2.662732 1_455
Mo0 Mo1 2.662732 1_555
