# generated using pymatgen
data_Mg2Mn2O5
_symmetry_space_group_name_H-M   'P 1'
_cell_length_a   8.04117669
_cell_length_b   8.04117669
_cell_length_c   8.04117669
_cell_angle_alpha   142.21845419
_cell_angle_beta   141.45467898
_cell_angle_gamma   55.07750136
_symmetry_Int_Tables_number   1
_chemical_formula_structural   Mg2Mn2O5
_chemical_formula_sum   'Mg4 Mn4 O10'
_cell_volume   197.07105351
_cell_formula_units_Z   2
loop_
 _symmetry_equiv_pos_site_id
 _symmetry_equiv_pos_as_xyz
  1  'x, y, z'
loop_
 _atom_site_type_symbol
 _atom_site_label
 _atom_site_symmetry_multiplicity
 _atom_site_fract_x
 _atom_site_fract_y
 _atom_site_fract_z
 _atom_site_occupancy
  Mg  Mg0  1  0.41365100  0.87574300  0.53238600  1
  Mg  Mg1  1  0.65664300  0.12425700  0.53790700  1
  Mg  Mg2  1  0.91365100  0.38126400  0.53790700  1
  Mg  Mg3  1  0.15664300  0.61873600  0.53238600  1
  Mn  Mn0  1  0.97579800  0.00000000  0.97579800  1
  Mn  Mn1  1  0.47579800  0.50000000  0.97579800  1
  Mn  Mn2  1  0.80345700  0.76966100  0.07311800  1
  Mn  Mn3  1  0.30345700  0.23033900  0.03379600  1
  O  O0  1  0.77695300  0.77896900  0.46438200  1
  O  O1  1  0.68541300  0.22103100  0.99798400  1
  O  O2  1  0.27695300  0.81257200  0.99798400  1
  O  O3  1  0.18541300  0.18742800  0.46438200  1
  O  O4  1  0.79127000  0.74128900  0.78440400  1
  O  O5  1  0.04311500  0.25871100  0.04998100  1
  O  O6  1  0.29127000  0.50686600  0.04998100  1
  O  O7  1  0.54311500  0.49313400  0.78440400  1
  O  O8  1  0.18970000  0.84750600  0.53720600  1
  O  O9  1  0.68970000  0.15249400  0.34219400  1
loop_
_geom_bond_atom_site_label_1
_geom_bond_atom_site_label_2
_geom_bond_distance
_geom_bond_site_symmetry_2
Mg0 O8 1.971622 1_555
Mg0 O6 1.999282 1_555
Mg0 O1 2.054022 1_565
Mg0 O4 2.138938 1_555
Mg0 O3 2.297605 1_565
Mg1 O9 1.971614 1_555
Mg1 O7 1.999283 1_555
Mg1 O0 2.054026 1_545
Mg1 O5 2.138941 1_656
Mg1 O2 2.297608 1_544
Mg2 O9 1.971620 1_555
Mg2 O4 1.999287 1_555
Mg2 O3 2.054018 1_655
Mg2 O6 2.138940 1_656
Mg2 O1 2.297608 1_554
Mg3 O8 1.971614 1_555
Mg3 O5 1.999283 1_555
Mg3 O2 2.054022 1_555
Mg3 O7 2.138941 1_555
Mg3 O0 2.297611 1_455
Mn0 O2 1.933427 1_645
Mn0 O3 1.933430 1_656
Mn0 O5 1.949179 1_656
Mn0 O4 1.949179 1_545
Mn0 O1 2.010452 1_555
Mn0 O0 2.010452 1_545
Mn1 O0 1.933428 1_556
Mn1 O1 1.933428 1_555
Mn1 O7 1.949179 1_555
Mn1 O6 1.949179 1_556
Mn1 O3 2.010454 1_555
Mn1 O2 2.010457 1_555
Mn2 O7 2.069774 1_554
Mn2 O4 2.069774 1_554
Mn2 O9 2.082828 1_565
Mn2 O8 2.089940 1_655
Mn3 O6 2.069774 1_555
Mn3 O5 2.069774 1_555
Mn3 O8 2.082828 1_544
Mn3 O9 2.089940 1_555
