# generated using pymatgen
data_Mg16Al12Se
_symmetry_space_group_name_H-M   'P 1'
_cell_length_a   9.06786679
_cell_length_b   9.06786679
_cell_length_c   9.06786684
_cell_angle_alpha   108.87409651
_cell_angle_beta   108.87409651
_cell_angle_gamma   108.87409498
_symmetry_Int_Tables_number   1
_chemical_formula_structural   Mg16Al12Se
_chemical_formula_sum   'Mg16 Al12 Se1'
_cell_volume   586.32178609
_cell_formula_units_Z   1
loop_
 _symmetry_equiv_pos_site_id
 _symmetry_equiv_pos_as_xyz
  1  'x, y, z'
loop_
 _atom_site_type_symbol
 _atom_site_label
 _atom_site_symmetry_multiplicity
 _atom_site_fract_x
 _atom_site_fract_y
 _atom_site_fract_z
 _atom_site_occupancy
  Mg  Mg0  1  0.00012700  0.00012700  0.34602000  1
  Mg  Mg1  1  0.97197100  0.97197100  0.97197100  1
  Mg  Mg2  1  0.68870900  0.68870900  0.28990600  1
  Mg  Mg3  1  0.41152600  0.41152600  0.70689400  1
  Mg  Mg4  1  0.59813300  0.32387400  0.00266000  1
  Mg  Mg5  1  0.70689400  0.41152600  0.41152600  1
  Mg  Mg6  1  0.32387400  0.00266000  0.59813300  1
  Mg  Mg7  1  0.34602000  0.00012700  0.00012700  1
  Mg  Mg8  1  0.68870900  0.28990600  0.68870900  1
  Mg  Mg9  1  0.00266000  0.59813300  0.32387400  1
  Mg  Mg10  1  0.59813300  0.00266000  0.32387400  1
  Mg  Mg11  1  0.28990600  0.68870900  0.68870900  1
  Mg  Mg12  1  0.00012700  0.34602000  0.00012700  1
  Mg  Mg13  1  0.00266000  0.32387400  0.59813300  1
  Mg  Mg14  1  0.41152600  0.70689400  0.41152600  1
  Mg  Mg15  1  0.32387400  0.59813300  0.00266000  1
  Al  Al0  1  0.18881300  0.18881300  0.80980900  1
  Al  Al1  1  0.35349000  0.35349000  0.16419500  1
  Al  Al2  1  0.82445600  0.63681200  0.01276500  1
  Al  Al3  1  0.01276500  0.82445600  0.63681200  1
  Al  Al4  1  0.35349000  0.16419500  0.35349000  1
  Al  Al5  1  0.01276500  0.63681200  0.82445600  1
  Al  Al6  1  0.18881300  0.80980900  0.18881300  1
  Al  Al7  1  0.80980900  0.18881300  0.18881300  1
  Al  Al8  1  0.63681200  0.01276500  0.82445600  1
  Al  Al9  1  0.16419500  0.35349000  0.35349000  1
  Al  Al10  1  0.82445600  0.01276500  0.63681200  1
  Al  Al11  1  0.63681200  0.82445600  0.01276500  1
  Se  Se0  1  0.62849500  0.62849500  0.62849500  1
loop_
_geom_bond_atom_site_label_1
_geom_bond_atom_site_label_2
_geom_bond_distance
_geom_bond_site_symmetry_2
Mg0 Mg2 3.031361 1_445
Mg0 Mg6 3.070096 1_555
Mg0 Mg13 3.070096 1_555
Mg0 Mg1 3.236068 1_444
Mg1 Se0 3.205252 1_555
Mg1 Mg12 3.236068 1_666
Mg1 Mg7 3.236068 1_666
Mg2 Mg5 3.082983 1_555
Mg2 Mg4 3.112335 1_555
Mg2 Mg9 3.159626 1_655
Mg3 Se0 2.748192 1_555
Mg3 Mg8 3.082983 1_555
Mg3 Mg4 3.162455 1_556
Mg3 Mg6 3.251292 1_555
Mg4 Mg7 3.070096 1_555
Mg4 Mg8 3.159626 1_554
Mg4 Mg5 3.251292 1_555
Mg4 Mg6 3.259325 1_554
Mg4 Mg9 3.259325 1_655
Mg5 Se0 2.748192 1_555
Mg5 Mg8 3.082983 1_555
Mg5 Mg9 3.162455 1_655
Mg6 Mg8 3.112335 1_555
Mg6 Mg9 3.259325 1_545
Mg10 Mg7 3.070096 1_555
Mg10 Mg8 3.112335 1_555
Mg10 Mg2 3.159626 1_545
Mg10 Mg14 3.162455 1_545
Mg10 Mg5 3.251292 1_555
Mg10 Mg15 3.259325 1_545
Mg10 Mg13 3.259325 1_655
Mg11 Mg7 3.031361 1_566
Mg11 Mg3 3.082983 1_555
Mg11 Mg14 3.082983 1_555
Mg11 Mg9 3.112335 1_555
Mg11 Mg13 3.112335 1_555
Mg11 Mg6 3.159626 1_565
Mg11 Mg15 3.159626 1_556
Mg12 Mg8 3.031361 1_454
Mg12 Mg9 3.070096 1_555
Mg12 Mg15 3.070096 1_555
Mg13 Mg8 3.159626 1_455
Mg13 Mg5 3.162455 1_455
Mg13 Mg3 3.251292 1_555
Mg13 Mg15 3.259325 1_556
Mg14 Se0 2.748192 1_555
Mg14 Mg2 3.082983 1_555
Mg14 Mg6 3.162455 1_565
Mg14 Mg15 3.251292 1_555
Mg14 Mg9 3.251292 1_555
Mg15 Mg2 3.112335 1_555
Mg15 Mg3 3.162455 1_554
Al0 Al1 2.671051 1_556
Al0 Al3 2.745809 1_545
Al0 Al10 2.745809 1_455
Al0 Mg6 2.965767 1_555
Al0 Mg13 2.965767 1_555
Al0 Mg3 2.971176 1_555
Al0 Mg15 3.131843 1_556
Al0 Mg4 3.131843 1_556
Al0 Mg12 3.136022 1_556
Al0 Mg7 3.136022 1_556
Al1 Al4 2.792670 1_555
Al1 Al9 2.792670 1_555
Al1 Mg14 3.011948 1_555
Al1 Mg5 3.011948 1_555
Al1 Mg7 3.032382 1_555
Al1 Mg12 3.032382 1_555
Al1 Mg2 3.052469 1_555
Al1 Mg4 3.061407 1_555
Al1 Mg15 3.061407 1_555
Al2 Al6 2.745809 1_655
Al2 Al5 2.778123 1_654
Al2 Mg4 2.866171 1_555
Al2 Mg9 2.958089 1_655
Al2 Mg8 3.036372 1_554
Al2 Mg0 3.093910 1_665
Al2 Mg1 3.095163 1_554
Al2 Mg2 3.108576 1_555
Al2 Mg3 3.248490 1_554
Al3 Al5 2.768312 1_555
Al3 Mg9 2.866171 1_555
Al3 Mg6 2.958089 1_565
Al3 Mg2 3.036372 1_455
Al3 Mg7 3.093910 1_566
Al3 Mg1 3.095163 1_455
Al3 Mg11 3.108576 1_555
Al3 Mg5 3.248490 1_455
Al4 Al6 2.671051 1_545
Al4 Al9 2.792670 1_555
Al4 Mg3 3.011948 1_555
Al4 Mg5 3.011948 1_555
Al4 Mg7 3.032382 1_555
Al4 Mg0 3.032382 1_555
Al4 Mg8 3.052469 1_555
Al4 Mg10 3.061407 1_555
Al4 Mg6 3.061407 1_555
Al5 Al6 2.745809 1_556
Al5 Mg13 2.866171 1_555
Al5 Mg15 2.958089 1_556
Al5 Mg8 3.036372 1_455
Al5 Mg7 3.093910 1_566
Al5 Mg1 3.095163 1_455
Al5 Mg11 3.108576 1_555
Al5 Mg5 3.248490 1_455
Al6 Mg15 2.965767 1_555
Al6 Mg9 2.965767 1_555
Al6 Mg14 2.971176 1_555
Al6 Mg6 3.131843 1_565
Al6 Mg10 3.131843 1_565
Al6 Mg0 3.136022 1_565
Al6 Mg7 3.136022 1_565
Al7 Al9 2.671051 1_655
Al7 Al8 2.745809 1_554
Al7 Mg4 2.965767 1_555
Al7 Mg10 2.965767 1_555
Al7 Mg5 2.971176 1_555
Al7 Mg13 3.131843 1_655
Al7 Mg9 3.131843 1_655
Al7 Mg0 3.136022 1_655
Al7 Mg12 3.136022 1_655
Al8 Mg6 2.866171 1_555
Al8 Mg4 2.958089 1_556
Al8 Mg11 3.036372 1_545
Al8 Mg12 3.093910 1_656
Al8 Mg1 3.095163 1_545
Al8 Mg8 3.108576 1_555
Al8 Mg14 3.248490 1_545
Al9 Mg3 3.011948 1_555
Al9 Mg14 3.011948 1_555
Al9 Mg12 3.032382 1_555
Al9 Mg0 3.032382 1_555
Al9 Mg11 3.052469 1_555
Al9 Mg9 3.061407 1_555
Al9 Mg13 3.061407 1_555
Al10 Al8 2.768312 1_555
Al10 Al3 2.778123 1_645
Al10 Mg10 2.866171 1_555
Al10 Mg13 2.958089 1_655
Al10 Mg2 3.036372 1_545
Al10 Mg12 3.093910 1_656
Al10 Mg1 3.095163 1_545
Al10 Mg8 3.108576 1_555
Al10 Mg14 3.248490 1_545
Al11 Al7 2.745809 1_565
Al11 Al2 2.768312 1_555
Al11 Al8 2.778123 1_564
Al11 Mg15 2.866171 1_555
Al11 Mg10 2.958089 1_565
Al11 Mg11 3.036372 1_554
Al11 Mg0 3.093910 1_665
Al11 Mg1 3.095163 1_554
Al11 Mg2 3.108576 1_555
Al11 Mg3 3.248490 1_554
