# generated using pymatgen
data_AlV
_symmetry_space_group_name_H-M   'P 1'
_cell_length_a   5.27364227
_cell_length_b   5.27364227
_cell_length_c   8.10881413
_cell_angle_alpha   90.00000000
_cell_angle_beta   90.00000000
_cell_angle_gamma   95.77793030
_symmetry_Int_Tables_number   1
_chemical_formula_structural   AlV
_chemical_formula_sum   'Al8 V8'
_cell_volume   224.37096169
_cell_formula_units_Z   8
loop_
 _symmetry_equiv_pos_site_id
 _symmetry_equiv_pos_as_xyz
  1  'x, y, z'
loop_
 _atom_site_type_symbol
 _atom_site_label
 _atom_site_symmetry_multiplicity
 _atom_site_fract_x
 _atom_site_fract_y
 _atom_site_fract_z
 _atom_site_occupancy
  Al  Al0_0  1  0.00000000  0.00000000  0.00000000  1
  Al  Al0_1  1  0.00000000  0.00000000  0.50000000  1
  Al  Al0_2  1  0.00000000  0.50000000  0.00000000  1
  Al  Al0_3  1  0.00000000  0.50000000  0.50000000  1
  Al  Al0_4  1  0.50000000  0.00000000  0.00000000  1
  Al  Al0_5  1  0.50000000  0.00000000  0.50000000  1
  Al  Al0_6  1  0.50000000  0.50000000  0.00000000  1
  Al  Al0_7  1  0.50000000  0.50000000  0.50000000  1
  V  V0_0  1  0.25000000  0.25000000  0.25000000  1
  V  V0_1  1  0.25000000  0.25000000  0.75000000  1
  V  V0_2  1  0.25000000  0.75000000  0.25000000  1
  V  V0_3  1  0.25000000  0.75000000  0.75000000  1
  V  V0_4  1  0.75000000  0.25000000  0.25000000  1
  V  V0_5  1  0.75000000  0.25000000  0.75000000  1
  V  V0_6  1  0.75000000  0.75000000  0.25000000  1
  V  V0_7  1  0.75000000  0.75000000  0.75000000  1
loop_
_geom_bond_atom_site_label_1
_geom_bond_atom_site_label_2
_geom_bond_distance
_geom_bond_site_symmetry_2
Al0_0 Al0_4 2.636821 1_555
Al0_0 Al0_2 2.636821 1_545
Al0_0 Al0_2 2.636821 1_555
Al0_0 Al0_4 2.636821 1_455
Al0_0 V0_7 2.689979 1_444
Al0_0 V0_1 2.689979 1_554
Al0_0 V0_6 2.689979 1_445
Al0_0 V0_0 2.689979 1_555
Al0_0 V0_5 2.817082 1_454
Al0_0 V0_2 2.817082 1_545
Al0_0 V0_4 2.817082 1_455
Al0_0 V0_3 2.817082 1_544
Al0_1 Al0_5 2.636821 1_455
Al0_1 Al0_5 2.636821 1_555
Al0_1 Al0_3 2.636821 1_555
Al0_1 Al0_3 2.636821 1_545
Al0_1 V0_6 2.689979 1_445
Al0_1 V0_0 2.689979 1_555
Al0_1 V0_7 2.689979 1_445
Al0_1 V0_1 2.689979 1_555
Al0_1 V0_2 2.817082 1_545
Al0_1 V0_3 2.817082 1_545
Al0_1 V0_4 2.817082 1_455
Al0_1 V0_5 2.817082 1_455
Al0_2 Al0_6 2.636821 1_455
Al0_2 Al0_6 2.636821 1_555
Al0_2 V0_5 2.689979 1_454
Al0_2 V0_4 2.689979 1_455
Al0_2 V0_3 2.689979 1_554
Al0_2 V0_2 2.689979 1_555
Al0_2 V0_1 2.817082 1_554
Al0_2 V0_7 2.817082 1_454
Al0_2 V0_0 2.817082 1_555
Al0_2 V0_6 2.817082 1_455
Al0_3 Al0_7 2.636821 1_555
Al0_3 Al0_7 2.636821 1_455
Al0_3 V0_4 2.689979 1_455
Al0_3 V0_3 2.689979 1_555
Al0_3 V0_2 2.689979 1_555
Al0_3 V0_5 2.689979 1_455
Al0_3 V0_0 2.817082 1_555
Al0_3 V0_6 2.817082 1_455
Al0_3 V0_7 2.817082 1_455
Al0_3 V0_1 2.817082 1_555
Al0_4 Al0_6 2.636821 1_555
Al0_4 Al0_6 2.636821 1_545
Al0_4 V0_5 2.689979 1_554
Al0_4 V0_3 2.689979 1_544
Al0_4 V0_4 2.689979 1_555
Al0_4 V0_2 2.689979 1_545
Al0_4 V0_7 2.817082 1_544
Al0_4 V0_1 2.817082 1_554
Al0_4 V0_0 2.817082 1_555
Al0_4 V0_6 2.817082 1_545
Al0_5 Al0_7 2.636821 1_555
Al0_5 Al0_7 2.636821 1_545
Al0_5 V0_3 2.689979 1_545
Al0_5 V0_4 2.689979 1_555
Al0_5 V0_2 2.689979 1_545
Al0_5 V0_5 2.689979 1_555
Al0_5 V0_6 2.817082 1_545
Al0_5 V0_0 2.817082 1_555
Al0_5 V0_1 2.817082 1_555
Al0_5 V0_7 2.817082 1_545
Al0_6 V0_1 2.689979 1_554
Al0_6 V0_7 2.689979 1_554
Al0_6 V0_0 2.689979 1_555
Al0_6 V0_6 2.689979 1_555
Al0_6 V0_5 2.817082 1_554
Al0_6 V0_2 2.817082 1_555
Al0_6 V0_3 2.817082 1_554
Al0_6 V0_4 2.817082 1_555
Al0_7 V0_0 2.689979 1_555
Al0_7 V0_6 2.689979 1_555
Al0_7 V0_1 2.689979 1_555
Al0_7 V0_7 2.689979 1_555
Al0_7 V0_4 2.817082 1_555
Al0_7 V0_3 2.817082 1_555
Al0_7 V0_2 2.817082 1_555
Al0_7 V0_5 2.817082 1_555
V0_0 V0_4 2.636821 1_555
V0_0 V0_2 2.636821 1_555
V0_0 V0_2 2.636821 1_545
V0_0 V0_4 2.636821 1_455
V0_1 V0_5 2.636821 1_555
V0_1 V0_3 2.636821 1_555
V0_1 V0_3 2.636821 1_545
V0_1 V0_5 2.636821 1_455
V0_2 V0_6 2.636821 1_455
V0_2 V0_6 2.636821 1_555
V0_3 V0_7 2.636821 1_455
V0_3 V0_7 2.636821 1_555
V0_4 V0_6 2.636821 1_555
V0_4 V0_6 2.636821 1_545
V0_5 V0_7 2.636821 1_545
V0_5 V0_7 2.636821 1_555
