# generated using pymatgen
data_CoSb(PO4)2
_symmetry_space_group_name_H-M   'P 1'
_cell_length_a   6.12615200
_cell_length_b   10.08591064
_cell_length_c   10.12698182
_cell_angle_alpha   87.98532915
_cell_angle_beta   90.00071554
_cell_angle_gamma   90.00058038
_symmetry_Int_Tables_number   1
_chemical_formula_structural   CoSb(PO4)2
_chemical_formula_sum   'Co4 Sb4 P8 O32'
_cell_volume   625.33736032
_cell_formula_units_Z   4
loop_
 _symmetry_equiv_pos_site_id
 _symmetry_equiv_pos_as_xyz
  1  'x, y, z'
loop_
 _atom_site_type_symbol
 _atom_site_label
 _atom_site_symmetry_multiplicity
 _atom_site_fract_x
 _atom_site_fract_y
 _atom_site_fract_z
 _atom_site_occupancy
  Co  Co0  1  0.75001600  0.70595200  0.21494500  1
  Co  Co1  1  0.25000000  0.27776700  0.76785600  1
  Co  Co2  1  0.74999800  0.22272200  0.23209400  1
  Co  Co3  1  0.24998500  0.79405600  0.78567200  1
  Sb  Sb0  1  0.25001200  0.47345500  0.29143200  1
  Sb  Sb1  1  0.24998700  0.97658700  0.27040900  1
  Sb  Sb2  1  0.74998000  0.02670900  0.70886900  1
  Sb  Sb3  1  0.75001200  0.52325100  0.72925900  1
  P  P0  1  0.24999600  0.19710000  0.08970900  1
  P  P1  1  0.25001000  0.70114000  0.09725800  1
  P  P2  1  0.75001200  0.30325000  0.91048000  1
  P  P3  1  0.74999900  0.79833800  0.90267200  1
  P  P4  1  0.75001200  0.43827400  0.41199900  1
  P  P5  1  0.74999100  0.94257000  0.39700700  1
  P  P6  1  0.24997500  0.06181500  0.58822000  1
  P  P7  1  0.25000600  0.55750500  0.60260400  1
  O  O0  1  0.75001900  0.32578300  0.05695500  1
  O  O1  1  0.74998200  0.81539700  0.04943700  1
  O  O2  1  0.24998300  0.17494000  0.94315900  1
  O  O3  1  0.25002600  0.68359400  0.95051600  1
  O  O4  1  0.25001800  0.34302900  0.12156100  1
  O  O5  1  0.24998200  0.85626600  0.11999200  1
  O  O6  1  0.75000100  0.15721900  0.87889200  1
  O  O7  1  0.75003800  0.64335500  0.87960300  1
  O  O8  1  0.74999400  0.09207000  0.38418800  1
  O  O9  1  0.74999900  0.58578000  0.37962600  1
  O  O10  1  0.24999500  0.40791100  0.61510200  1
  O  O11  1  0.25000800  0.91446100  0.62120100  1
  O  O12  1  0.24996900  0.08526700  0.43153600  1
  O  O13  1  0.25000400  0.61375300  0.46140700  1
  O  O14  1  0.75002000  0.41417100  0.56856900  1
  O  O15  1  0.75001300  0.88674700  0.53838300  1
  O  O16  1  0.05652000  0.11650300  0.16783000  1
  O  O17  1  0.05258800  0.63182900  0.16959300  1
  O  O18  1  0.44346600  0.11649000  0.16782300  1
  O  O19  1  0.44742600  0.63184600  0.16961100  1
  O  O20  1  0.55651300  0.38366800  0.83218400  1
  O  O21  1  0.55263300  0.86781900  0.83045600  1
  O  O22  1  0.94351200  0.38366500  0.83218300  1
  O  O23  1  0.94736100  0.86784700  0.83047200  1
  O  O24  1  0.94647000  0.36030700  0.35416800  1
  O  O25  1  0.95662300  0.88099900  0.32132100  1
  O  O26  1  0.55355800  0.36029200  0.35417700  1
  O  O27  1  0.54333600  0.88100200  0.32133900  1
  O  O28  1  0.05343000  0.13995500  0.64584200  1
  O  O29  1  0.04322600  0.61878400  0.67827300  1
  O  O30  1  0.44649700  0.13998600  0.64583800  1
  O  O31  1  0.45679600  0.61877600  0.67827500  1
loop_
_geom_bond_atom_site_label_1
_geom_bond_atom_site_label_2
_geom_bond_distance
_geom_bond_site_symmetry_2
Co0 O1 1.974260 1_555
Co0 O9 2.026875 1_555
Co0 O19 2.056634 1_555
Co0 O17 2.056665 1_655
Co0 O25 2.452179 1_555
Co0 O27 2.452550 1_555
Co1 O10 1.993293 1_555
Co1 O2 2.024299 1_555
Co1 O30 2.242293 1_555
Co1 O28 2.242678 1_555
Co1 O22 2.267048 1_455
Co1 O20 2.267161 1_555
Co2 O8 1.991513 1_555
Co2 O0 2.024011 1_555
Co2 O26 2.241123 1_555
Co2 O24 2.241241 1_555
Co2 O16 2.268587 1_655
Co2 O18 2.268691 1_555
Co3 O3 1.974152 1_555
Co3 O11 2.026510 1_555
Co3 O21 2.054365 1_555
Co3 O23 2.054398 1_455
Co3 O29 2.459156 1_555
Co3 O31 2.459402 1_555
O0 P2 1.508535 1_554
O1 P3 1.502209 1_554
O2 P0 1.508594 1_556
O3 P1 1.502719 1_556
O4 P0 1.517795 1_555
O4 Sb0 2.202027 1_555
O5 P1 1.589422 1_555
O5 Sb1 1.980662 1_555
O6 P2 1.518144 1_555
O6 Sb2 2.203792 1_555
O7 P3 1.588608 1_555
O7 Sb3 1.978678 1_555
O8 P5 1.508868 1_545
O9 P4 1.512129 1_555
O10 P7 1.509651 1_555
O11 P6 1.511768 1_565
O12 P6 1.596023 1_555
O12 Sb1 1.997453 1_545
O13 P7 1.519677 1_555
O13 Sb0 2.266400 1_555
O14 P4 1.595639 1_555
O14 Sb3 1.996090 1_555
O15 P5 1.519908 1_555
O15 Sb2 2.268245 1_565
O16 P0 1.626751 1_555
O16 Sb1 2.090985 1_545
O17 P1 1.565898 1_555
O17 Sb0 2.323386 1_555
O18 P0 1.626752 1_555
O18 Sb1 2.090972 1_545
O19 P1 1.565875 1_555
O19 Sb0 2.323376 1_555
O20 P2 1.626813 1_555
O20 Sb3 2.090550 1_555
O21 P3 1.565824 1_555
O21 Sb2 2.325333 1_565
O22 P2 1.626810 1_555
O22 Sb3 2.090570 1_555
O23 P3 1.565857 1_555
O23 Sb2 2.325335 1_565
O24 P4 1.562777 1_555
O24 Sb0 2.261171 1_655
O25 P5 1.615247 1_555
O25 Sb1 2.095290 1_655
O26 P4 1.562777 1_555
O26 Sb0 2.261296 1_555
O27 P5 1.615232 1_555
O27 Sb1 2.095245 1_555
O28 P6 1.563260 1_555
O28 Sb2 2.261974 1_455
O29 P7 1.614695 1_555
O29 Sb3 2.094424 1_455
O30 P6 1.563274 1_555
O30 Sb2 2.262312 1_555
O31 P7 1.614696 1_555
O31 Sb3 2.094399 1_555
