# generated using pymatgen
data_RbHfMg6O7
_symmetry_space_group_name_H-M   'P 1'
_cell_length_a   12.56826421
_cell_length_b   4.22907738
_cell_length_c   4.22907738
_cell_angle_alpha   90.00000000
_cell_angle_beta   90.00000000
_cell_angle_gamma   90.00000000
_symmetry_Int_Tables_number   1
_chemical_formula_structural   RbHfMg6O7
_chemical_formula_sum   'Rb1 Hf1 Mg6 O7'
_cell_volume   224.78460549
_cell_formula_units_Z   1
loop_
 _symmetry_equiv_pos_site_id
 _symmetry_equiv_pos_as_xyz
  1  'x, y, z'
loop_
 _atom_site_type_symbol
 _atom_site_label
 _atom_site_symmetry_multiplicity
 _atom_site_fract_x
 _atom_site_fract_y
 _atom_site_fract_z
 _atom_site_occupancy
  Rb  Rb0  1  0.03194104  0.00000000  -0.00000000  1
  Hf  Hf0  1  0.53550760  0.00000000  -0.00000000  1
  Mg  Mg0  1  0.90229673  0.50000000  0.50000000  1
  Mg  Mg1  1  0.53192440  0.50000000  0.50000000  1
  Mg  Mg2  1  0.33161807  -0.00000000  0.50000000  1
  Mg  Mg3  1  0.74477680  0.00000000  0.50000000  1
  Mg  Mg4  1  0.33161807  0.50000000  0.00000000  1
  Mg  Mg5  1  0.74477680  0.50000000  -0.00000000  1
  O  O0  1  0.69232246  0.00000000  -0.00000000  1
  O  O1  1  0.36009956  0.50000000  0.50000000  1
  O  O2  1  0.70228269  0.50000000  0.50000000  1
  O  O3  1  0.89661892  0.00000000  0.50000000  1
  O  O4  1  0.52379897  0.00000000  0.50000000  1
  O  O5  1  0.89661892  0.50000000  -0.00000000  1
  O  O6  1  0.52379897  0.50000000  -0.00000000  1
loop_
_geom_bond_atom_site_label_1
_geom_bond_atom_site_label_2
_geom_bond_distance
_geom_bond_site_symmetry_2
Hf0 O0 1.970891 1_555
Hf0 O4 2.119653 1_555
Hf0 O4 2.119653 1_554
Hf0 O6 2.119653 1_545
Hf0 O6 2.119653 1_555
Mg0 O5 2.115742 1_556
Mg0 O5 2.115742 1_555
Mg0 O3 2.115742 1_555
Mg0 O3 2.115742 1_565
Mg0 O2 2.513829 1_555
Mg1 O4 2.117003 1_555
Mg1 O4 2.117003 1_565
Mg1 O6 2.117003 1_556
Mg1 O6 2.117003 1_555
Mg1 O2 2.141108 1_555
Mg1 O1 2.159540 1_555
Mg2 O1 2.144624 1_555
Mg2 O1 2.144624 1_545
Mg2 O4 2.415380 1_555
Mg3 O3 1.908392 1_555
Mg3 O2 2.180943 1_555
Mg3 O2 2.180943 1_545
Mg3 O0 2.214926 1_555
Mg3 O0 2.214926 1_556
Mg4 O1 2.144624 1_555
Mg4 O1 2.144624 1_554
Mg4 O6 2.415380 1_555
Mg5 O5 1.908392 1_555
Mg5 O2 2.180943 1_555
Mg5 O2 2.180943 1_554
Mg5 O0 2.214926 1_565
Mg5 O0 2.214926 1_555
O3 Rb0 2.713646 1_656
O3 Rb0 2.713646 1_655
O5 Rb0 2.713646 1_655
O5 Rb0 2.713646 1_665
