# generated using pymatgen
data_BaTi2TlO6
_symmetry_space_group_name_H-M   'P 1'
_cell_length_a   3.41629400
_cell_length_b   3.45443828
_cell_length_c   26.89741409
_cell_angle_alpha   93.45127456
_cell_angle_beta   91.35127898
_cell_angle_gamma   90.10014713
_symmetry_Int_Tables_number   1
_chemical_formula_structural   BaTi2TlO6
_chemical_formula_sum   'Ba2 Ti4 Tl2 O12'
_cell_volume   316.76110760
_cell_formula_units_Z   2
loop_
 _symmetry_equiv_pos_site_id
 _symmetry_equiv_pos_as_xyz
  1  'x, y, z'
loop_
 _atom_site_type_symbol
 _atom_site_label
 _atom_site_symmetry_multiplicity
 _atom_site_fract_x
 _atom_site_fract_y
 _atom_site_fract_z
 _atom_site_occupancy
  Ba  Ba0  1  0.17651400  0.16050600  0.33190100  1
  Ba  Ba1  1  0.80773100  0.83665100  0.67327300  1
  Ti  Ti0  1  0.55985600  0.55542900  0.09146300  1
  Ti  Ti1  1  0.24909300  0.39779800  0.79920000  1
  Ti  Ti2  1  0.60049600  0.60717700  0.21006800  1
  Ti  Ti3  1  0.53848300  0.43506700  0.90506900  1
  Tl  Tl0  1  0.73007800  0.72337600  0.44952500  1
  Tl  Tl1  1  0.27002400  0.27741200  0.55317700  1
  O  O0  1  0.81243100  0.37900600  0.75886300  1
  O  O1  1  0.06558500  0.56835900  0.12135700  1
  O  O2  1  0.23057300  0.22549200  0.45458700  1
  O  O3  1  0.53191700  0.94812600  0.93340100  1
  O  O4  1  0.76748100  0.77294100  0.54395700  1
  O  O5  1  0.58602200  0.09528800  0.18484300  1
  O  O6  1  0.10600700  0.62302100  0.24469000  1
  O  O7  1  0.30302100  0.32051100  0.63939700  1
  O  O8  1  0.40743900  0.90441300  0.81486700  1
  O  O9  1  0.55580000  0.04192500  0.06242400  1
  O  O10  1  0.02689100  0.42531500  0.87208100  1
  O  O11  1  0.68602600  0.67542500  0.36384400  1
loop_
_geom_bond_atom_site_label_1
_geom_bond_atom_site_label_2
_geom_bond_distance
_geom_bond_site_symmetry_2
Ba0 O11 2.566192 1_445
Ba0 O11 2.569882 1_455
Ba0 O11 2.581985 1_555
Ba0 O11 2.586300 1_545
Ba0 O6 2.907806 1_545
Ba0 O6 2.922198 1_555
Ba1 O7 2.588781 1_555
Ba1 O7 2.591597 1_565
Ba1 O7 2.594858 1_665
Ba1 O7 2.599991 1_655
Ba1 O0 2.869835 1_555
Ba1 O0 2.879084 1_565
O0 Ti1 1.822516 1_655
O0 Ti1 2.230605 1_555
O1 Ti0 1.886740 1_555
O1 Ti0 1.887703 1_455
O2 Tl0 2.429175 1_445
O2 Tl0 2.432594 1_555
O2 Tl0 2.434680 1_455
O2 Tl0 2.435568 1_545
O2 Tl1 2.647311 1_555
O3 Ti3 1.886988 1_555
O3 Ti3 1.888314 1_565
O4 Tl1 2.437346 1_555
O4 Tl1 2.441992 1_665
O4 Tl1 2.442281 1_565
O4 Tl1 2.445505 1_655
O4 Tl0 2.535622 1_555
O5 Ti2 1.855354 1_545
O5 Ti2 1.855612 1_555
O6 Ti2 1.941734 1_455
O6 Ti2 1.947407 1_555
O7 Tl1 2.314976 1_555
O8 Ti1 1.852054 1_555
O8 Ti1 1.858502 1_565
O9 Ti0 1.894588 1_555
O9 Ti0 1.895310 1_545
O10 Ti3 1.907587 1_455
O10 Ti3 1.940645 1_555
O10 Ti1 2.115679 1_555
O11 Tl0 2.301923 1_555
