# generated using pymatgen
data_CuSi2P3
_symmetry_space_group_name_H-M   'P 1'
_cell_length_a   3.53723803
_cell_length_b   9.98183800
_cell_length_c   3.91121832
_cell_angle_alpha   90.00000000
_cell_angle_beta   90.00000000
_cell_angle_gamma   90.00000000
_symmetry_Int_Tables_number   1
_chemical_formula_structural   CuSi2P3
_chemical_formula_sum   'Cu1 Si2 P3'
_cell_volume   138.09783250
_cell_formula_units_Z   1
loop_
 _symmetry_equiv_pos_site_id
 _symmetry_equiv_pos_as_xyz
  1  'x, y, z'
loop_
 _atom_site_type_symbol
 _atom_site_label
 _atom_site_symmetry_multiplicity
 _atom_site_fract_x
 _atom_site_fract_y
 _atom_site_fract_z
 _atom_site_occupancy
  Cu  Cu0  1  0.00000000  0.01916700  0.00000000  1
  Si  Si0  1  0.50000000  0.24156300  0.50000000  1
  Si  Si1  1  0.00000000  0.51249700  0.00000000  1
  P  P0  1  0.50000000  0.36426200  0.00000000  1
  P  P1  1  0.00000000  0.63419000  0.50000000  1
  P  P2  1  0.00000000  0.10332100  0.50000000  1
loop_
_geom_bond_atom_site_label_1
_geom_bond_atom_site_label_2
_geom_bond_distance
_geom_bond_site_symmetry_2
Cu0 P2 2.128386 1_554
Cu0 P2 2.128386 1_555
P0 Si1 2.305949 1_655
P0 Si1 2.305949 1_555
P0 Si0 2.307477 1_554
P0 Si0 2.307477 1_555
P1 Si1 2.302162 1_555
P1 Si1 2.302162 1_556
P2 Si0 2.243248 1_455
P2 Si0 2.243248 1_555
