# generated using pymatgen
data_Rb5(FeO2)3
_symmetry_space_group_name_H-M   'P 1'
_cell_length_a   9.60057324
_cell_length_b   9.60056806
_cell_length_c   9.60055158
_cell_angle_alpha   126.70486261
_cell_angle_beta   126.70496096
_cell_angle_gamma   78.73253178
_symmetry_Int_Tables_number   1
_chemical_formula_structural   Rb5(FeO2)3
_chemical_formula_sum   'Rb10 Fe6 O12'
_cell_volume   550.44839253
_cell_formula_units_Z   2
loop_
 _symmetry_equiv_pos_site_id
 _symmetry_equiv_pos_as_xyz
  1  'x, y, z'
loop_
 _atom_site_type_symbol
 _atom_site_label
 _atom_site_symmetry_multiplicity
 _atom_site_fract_x
 _atom_site_fract_y
 _atom_site_fract_z
 _atom_site_occupancy
  Rb  Rb0  1  0.99999958  0.99999967  0.99999966  1
  Rb  Rb1  1  0.75000005  0.25000025  0.49999876  1
  Rb  Rb2  1  0.24505554  0.24505473  0.00000108  1
  Rb  Rb3  1  0.50494545  0.00494432  0.49999918  1
  Rb  Rb4  1  0.75494490  0.75494577  0.99999886  1
  Rb  Rb5  1  0.99505456  0.49505508  0.50000096  1
  Rb  Rb6  1  0.87499846  0.83703326  0.46203325  1
  Rb  Rb7  1  0.37499993  0.41296650  0.53796633  1
  Rb  Rb8  1  0.58703497  0.12500049  0.96203569  1
  Rb  Rb9  1  0.16296682  0.62499990  0.03796529  1
  Fe  Fe0  1  0.87500107  0.36700148  0.99200137  1
  Fe  Fe1  1  0.37500009  0.88300009  0.00800075  1
  Fe  Fe2  1  0.11700259  0.12500209  0.49200198  1
  Fe  Fe3  1  0.63299992  0.62499911  0.50800034  1
  Fe  Fe4  1  0.49999859  0.49999817  -0.00000185  1
  Fe  Fe5  1  0.24999845  0.74999904  0.49999766  1
  O  O0  1  0.09400569  0.51947294  0.26128003  1
  O  O1  1  0.65599400  0.41727389  0.92546767  1
  O  O2  1  0.25819331  0.83272641  0.73872045  1
  O  O3  1  0.49180366  0.73052697  0.07453270  1
  O  O4  1  0.16727552  0.90599374  0.42546687  1
  O  O5  1  0.58272548  0.50819330  0.23872104  1
  O  O6  1  0.48052625  0.74180253  0.57453183  1
  O  O7  1  0.26947244  0.34400687  0.76127849  1
  O  O8  1  0.87500061  0.15680368  0.78180296  1
  O  O9  1  0.37500066  0.09319870  0.21819927  1
  O  O10  1  0.90680252  0.12500013  0.28180329  1
  O  O11  1  0.84319889  0.62500093  0.71819811  1
loop_
_geom_bond_atom_site_label_1
_geom_bond_atom_site_label_2
_geom_bond_distance
_geom_bond_site_symmetry_2
Fe0 O8 1.810167 1_555
Fe0 O0 1.851567 1_656
Fe0 O1 1.851581 1_555
Fe1 O9 1.810170 1_565
Fe1 O3 1.851564 1_555
Fe1 O2 1.851578 1_554
Fe2 O10 1.810169 1_455
Fe2 O7 1.851561 1_555
Fe2 O4 1.851591 1_545
Fe3 O11 1.810161 1_555
Fe3 O6 1.851568 1_555
Fe3 O5 1.851569 1_555
Fe4 O7 1.876843 1_554
Fe4 O1 1.876850 1_554
Fe4 O5 1.876860 1_555
Fe4 O3 1.876867 1_555
Fe5 O4 1.876843 1_555
Fe5 O0 1.876847 1_555
Fe5 O6 1.876859 1_555
Fe5 O2 1.876861 1_555
O0 Rb7 2.997006 1_555
O0 Rb5 3.089001 1_455
O0 Rb2 3.208062 1_555
O0 Rb9 3.258312 1_555
O1 Rb7 2.997013 1_555
O1 Rb4 3.089016 1_555
O1 Rb3 3.208072 1_555
O1 Rb8 3.258299 1_555
O2 Rb6 2.997023 1_455
O2 Rb5 3.089011 1_455
O2 Rb2 3.208059 1_566
O2 Rb8 3.258308 1_565
O3 Rb6 2.997022 1_555
O3 Rb4 3.089036 1_554
O3 Rb3 3.208034 1_565
O3 Rb9 3.258264 1_555
O4 Rb9 2.997011 1_555
O4 Rb3 3.088991 1_565
O4 Rb4 3.208074 1_454
O4 Rb6 3.258329 1_455
O5 Rb8 2.997017 1_554
O5 Rb2 3.088998 1_555
O5 Rb5 3.208062 1_555
O5 Rb6 3.258302 1_555
O6 Rb8 2.997048 1_565
O6 Rb3 3.089031 1_565
O6 Rb4 3.208027 1_555
O6 Rb7 3.258264 1_555
O7 Rb9 2.997005 1_556
O7 Rb2 3.089018 1_556
O7 Rb5 3.208036 1_455
O7 Rb7 3.258283 1_555
O8 Rb6 2.753763 1_545
O8 Rb2 2.808240 1_656
O8 Rb3 2.808247 1_555
O8 Rb1 2.855389 1_555
O8 Rb0 2.855392 1_545
O9 Rb7 2.753753 1_555
O9 Rb3 2.808227 1_555
O9 Rb2 2.808228 1_555
O9 Rb1 2.855390 1_555
O9 Rb0 2.855399 1_444
O10 Rb8 2.753749 1_554
O10 Rb4 2.808239 1_544
O10 Rb5 2.808243 1_555
O10 Rb1 2.855371 1_555
O10 Rb0 2.855391 1_544
O11 Rb9 2.753751 1_656
O11 Rb5 2.808220 1_555
O11 Rb4 2.808234 1_555
O11 Rb0 2.855382 1_555
O11 Rb1 2.855397 1_555
