# generated using pymatgen
data_K2RuBr6
_symmetry_space_group_name_H-M   'P 1'
_cell_length_a   7.27466407
_cell_length_b   10.60823250
_cell_length_c   14.45343264
_cell_angle_alpha   90.00000000
_cell_angle_beta   90.00000000
_cell_angle_gamma   90.00000000
_symmetry_Int_Tables_number   1
_chemical_formula_structural   K2RuBr6
_chemical_formula_sum   'K8 Ru4 Br24'
_cell_volume   1115.39058830
_cell_formula_units_Z   4
loop_
 _symmetry_equiv_pos_site_id
 _symmetry_equiv_pos_as_xyz
  1  'x, y, z'
loop_
 _atom_site_type_symbol
 _atom_site_label
 _atom_site_symmetry_multiplicity
 _atom_site_fract_x
 _atom_site_fract_y
 _atom_site_fract_z
 _atom_site_occupancy
  K  K0  1  0.76037687  0.49940509  0.37596293  1
  K  K1  1  0.73962313  0.49940509  0.87596293  1
  K  K2  1  0.26037687  0.99940509  0.12403707  1
  K  K3  1  0.73962313  0.00059491  0.87596293  1
  K  K4  1  0.23962313  0.99940509  0.62403707  1
  K  K5  1  0.23962313  0.50059491  0.62403707  1
  K  K6  1  0.26037687  0.50059491  0.12403707  1
  K  K7  1  0.76037687  0.00059491  0.37596293  1
  Ru  Ru0  1  0.73572830  0.75000000  0.62684872  1
  Ru  Ru1  1  0.23572830  0.25000000  0.87315128  1
  Ru  Ru2  1  0.26427170  0.25000000  0.37315128  1
  Ru  Ru3  1  0.76427170  0.75000000  0.12684872  1
  Br  Br0  1  0.48956094  0.75000000  0.74651437  1
  Br  Br1  1  0.47231686  0.25000000  0.74949730  1
  Br  Br2  1  0.23735919  0.01358696  0.87345167  1
  Br  Br3  1  0.73735919  0.51358696  0.62654833  1
  Br  Br4  1  0.48218038  0.25000000  0.99385213  1
  Br  Br5  1  0.01781962  0.25000000  0.49385213  1
  Br  Br6  1  0.76264081  0.98641304  0.12654833  1
  Br  Br7  1  0.01043906  0.75000000  0.24651437  1
  Br  Br8  1  0.26264081  0.01358696  0.37345167  1
  Br  Br9  1  0.23735919  0.48641304  0.87345167  1
  Br  Br10  1  0.02768314  0.25000000  0.24949730  1
  Br  Br11  1  0.73735919  0.98641304  0.62654833  1
  Br  Br12  1  0.76264081  0.51358696  0.12654833  1
  Br  Br13  1  0.97231686  0.75000000  0.75050270  1
  Br  Br14  1  0.98218038  0.75000000  0.50614787  1
  Br  Br15  1  0.51781962  0.75000000  0.00614787  1
  Br  Br16  1  0.51043906  0.25000000  0.25348563  1
  Br  Br17  1  0.52768314  0.75000000  0.25050270  1
  Br  Br18  1  0.98956094  0.25000000  0.75348563  1
  Br  Br19  1  0.26264081  0.48641304  0.37345167  1
  Br  Br20  1  0.00210880  0.75000000  0.00456649  1
  Br  Br21  1  0.50210880  0.25000000  0.49543351  1
  Br  Br22  1  0.49789120  0.75000000  0.50456649  1
  Br  Br23  1  0.99789120  0.25000000  0.99543351  1
loop_
_geom_bond_atom_site_label_1
_geom_bond_atom_site_label_2
_geom_bond_distance
_geom_bond_site_symmetry_2
Br0 Ru0 2.489650 1_555
Br0 K5 3.665999 1_555
Br0 K4 3.665999 1_555
Br0 K1 3.725140 1_555
Br0 K3 3.725140 1_565
Br1 Ru1 2.481202 1_555
Br1 K5 3.636009 1_555
Br1 K4 3.636009 1_545
Br1 K1 3.757976 1_555
Br1 K3 3.757976 1_555
Br2 Ru1 2.507956 1_555
Br2 K4 3.608073 1_545
Br2 K3 3.623666 1_455
Br2 K2 3.628808 1_546
Br2 K3 3.656580 1_555
Br3 Ru0 2.507956 1_555
Br3 K1 3.608073 1_555
Br3 K5 3.623666 1_555
Br3 K0 3.628808 1_555
Br3 K5 3.656580 1_655
Br4 Ru1 2.501551 1_555
Br4 K2 3.634687 1_546
Br4 K6 3.634687 1_556
Br4 K1 3.662060 1_555
Br4 K3 3.662060 1_555
Br5 Ru2 2.501551 1_555
Br5 K5 3.634687 1_555
Br5 K4 3.634687 1_545
Br5 K7 3.662060 1_455
Br5 K0 3.662060 1_455
Br6 Ru3 2.507956 1_555
Br6 K7 3.608073 1_565
Br6 K2 3.623666 1_655
Br6 K3 3.628808 1_564
Br6 K2 3.656580 1_555
Br7 Ru3 2.489650 1_455
Br7 K2 3.665999 1_555
Br7 K6 3.665999 1_555
Br7 K7 3.725140 1_465
Br7 K0 3.725140 1_455
Br8 Ru2 2.507956 1_555
Br8 K2 3.608073 1_545
Br8 K7 3.623666 1_555
Br8 K4 3.628808 1_545
Br8 K7 3.656580 1_455
Br9 Ru1 2.507956 1_555
Br9 K5 3.608073 1_555
Br9 K1 3.623666 1_455
Br9 K6 3.628808 1_556
Br9 K1 3.656580 1_555
Br10 Ru2 2.481202 1_555
Br10 K6 3.636009 1_555
Br10 K2 3.636009 1_545
Br10 K7 3.757976 1_455
Br10 K0 3.757976 1_455
Br11 Ru0 2.507956 1_555
Br11 K3 3.608073 1_565
Br11 K4 3.623666 1_555
Br11 K7 3.628808 1_565
Br11 K4 3.656580 1_655
Br12 Ru3 2.507956 1_555
Br12 K0 3.608073 1_555
Br12 K6 3.623666 1_655
Br12 K1 3.628808 1_554
Br12 K6 3.656580 1_555
Br13 Ru0 2.481202 1_555
Br13 K1 3.636009 1_555
Br13 K3 3.636009 1_565
Br13 K5 3.757976 1_655
Br13 K4 3.757976 1_655
Br14 Ru0 2.501551 1_555
Br14 K0 3.634687 1_555
Br14 K7 3.634687 1_565
Br14 K4 3.662060 1_655
Br14 K5 3.662060 1_655
Br15 Ru3 2.501551 1_555
Br15 K1 3.634687 1_554
Br15 K3 3.634687 1_564
Br15 K2 3.662060 1_555
Br15 K6 3.662060 1_555
Br16 Ru2 2.489650 1_555
Br16 K0 3.665999 1_555
Br16 K7 3.665999 1_555
Br16 K6 3.725140 1_555
Br16 K2 3.725140 1_545
Br17 Ru3 2.481202 1_555
Br17 K0 3.636009 1_555
Br17 K7 3.636009 1_565
Br17 K2 3.757976 1_555
Br17 K6 3.757976 1_555
Br18 Ru1 2.489650 1_655
Br18 K1 3.665999 1_555
Br18 K3 3.665999 1_555
Br18 K4 3.725140 1_645
Br18 K5 3.725140 1_655
Br19 Ru2 2.507956 1_555
Br19 K6 3.608073 1_555
Br19 K0 3.623666 1_555
Br19 K5 3.628808 1_555
Br19 K0 3.656580 1_455
Br20 Ru3 2.473305 1_455
Br20 K2 3.675815 1_555
Br20 K6 3.675815 1_555
Br20 K1 3.764053 1_454
Br20 K3 3.764053 1_464
Br21 Ru2 2.473305 1_555
Br21 K7 3.675815 1_555
Br21 K0 3.675815 1_555
Br21 K5 3.764053 1_555
Br21 K4 3.764053 1_545
Br22 Ru0 2.473305 1_555
Br22 K5 3.675815 1_555
Br22 K4 3.675815 1_555
Br22 K0 3.764053 1_555
Br22 K7 3.764053 1_565
Br23 Ru1 2.473305 1_655
Br23 K1 3.675815 1_555
Br23 K3 3.675815 1_555
Br23 K6 3.764053 1_656
Br23 K2 3.764053 1_646
