# generated using pymatgen
data_SiO2
_symmetry_space_group_name_H-M   'P 1'
_cell_length_a   15.13188890
_cell_length_b   15.13188853
_cell_length_c   15.13188736
_cell_angle_alpha   109.47122209
_cell_angle_beta   109.47122156
_cell_angle_gamma   109.47122022
_symmetry_Int_Tables_number   1
_chemical_formula_structural   SiO2
_chemical_formula_sum   'Si48 O96'
_cell_volume   2667.21162814
_cell_formula_units_Z   48
loop_
 _symmetry_equiv_pos_site_id
 _symmetry_equiv_pos_as_xyz
  1  'x, y, z'
loop_
 _atom_site_type_symbol
 _atom_site_label
 _atom_site_symmetry_multiplicity
 _atom_site_fract_x
 _atom_site_fract_y
 _atom_site_fract_z
 _atom_site_occupancy
  Si  Si0  1  0.63022194  0.39472159  0.53782406  1
  Si  Si1  1  0.14310247  0.53782406  0.40760312  1
  Si  Si2  1  0.76450065  0.86977806  0.40760312  1
  Si  Si3  1  0.89472159  0.13022194  0.03782406  1
  Si  Si4  1  0.40760312  0.76450065  0.86977806  1
  Si  Si5  1  0.90760312  0.36977806  0.26450065  1
  Si  Si6  1  0.46217594  0.59239688  0.85689753  1
  Si  Si7  1  0.09239688  0.96217594  0.35689753  1
  Si  Si8  1  0.10527841  0.73549935  0.14310247  1
  Si  Si9  1  0.59239688  0.85689753  0.46217594  1
  Si  Si10  1  0.09239688  0.63022194  0.73549935  1
  Si  Si11  1  0.96217594  0.10527841  0.86977806  1
  Si  Si12  1  0.35689753  0.76450065  0.39472159  1
  Si  Si13  1  0.36977806  0.60527841  0.46217594  1
  Si  Si14  1  0.23549935  0.13022194  0.59239688  1
  Si  Si15  1  0.86977806  0.96217594  0.10527841  1
  Si  Si16  1  0.60527841  0.46217594  0.36977806  1
  Si  Si17  1  0.10527841  0.86977806  0.96217594  1
  Si  Si18  1  0.76450065  0.39472159  0.35689753  1
  Si  Si19  1  0.14310247  0.10527841  0.73549935  1
  Si  Si20  1  0.85689753  0.89472159  0.26450065  1
  Si  Si21  1  0.85689753  0.46217594  0.59239688  1
  Si  Si22  1  0.13022194  0.59239688  0.23549935  1
  Si  Si23  1  0.26450065  0.85689753  0.89472159  1
  Si  Si24  1  0.23549935  0.60527841  0.64310247  1
  Si  Si25  1  0.63022194  0.73549935  0.09239688  1
  Si  Si26  1  0.53782406  0.40760312  0.14310247  1
  Si  Si27  1  0.03782406  0.64310247  0.90760312  1
  Si  Si28  1  0.73549935  0.09239688  0.63022194  1
  Si  Si29  1  0.36977806  0.26450065  0.90760312  1
  Si  Si30  1  0.40760312  0.14310247  0.53782406  1
  Si  Si31  1  0.73549935  0.14310247  0.10527841  1
  Si  Si32  1  0.89472159  0.26450065  0.85689753  1
  Si  Si33  1  0.13022194  0.03782406  0.89472159  1
  Si  Si34  1  0.35689753  0.09239688  0.96217594  1
  Si  Si35  1  0.39472159  0.53782406  0.63022194  1
  Si  Si36  1  0.64310247  0.23549935  0.60527841  1
  Si  Si37  1  0.86977806  0.40760312  0.76450065  1
  Si  Si38  1  0.39472159  0.35689753  0.76450065  1
  Si  Si39  1  0.90760312  0.03782406  0.64310247  1
  Si  Si40  1  0.59239688  0.23549935  0.13022194  1
  Si  Si41  1  0.03782406  0.89472159  0.13022194  1
  Si  Si42  1  0.53782406  0.63022194  0.39472159  1
  Si  Si43  1  0.96217594  0.35689753  0.09239688  1
  Si  Si44  1  0.46217594  0.36977806  0.60527841  1
  Si  Si45  1  0.64310247  0.90760312  0.03782406  1
  Si  Si46  1  0.60527841  0.64310247  0.23549935  1
  Si  Si47  1  0.26450065  0.90760312  0.36977806  1
  O  O0  1  0.53424188  0.18128132  0.61203727  1
  O  O1  1  0.61679904  0.84087582  0.10036837  1
  O  O2  1  0.22407578  0.84087582  0.24050745  1
  O  O3  1  0.46575812  0.81871868  0.38796273  1
  O  O4  1  0.15912418  0.89963163  0.38319996  1
  O  O5  1  0.84087582  0.10036837  0.61679904  1
  O  O6  1  0.75949255  0.48356933  0.60036837  1
  O  O7  1  0.88796273  0.31871868  0.96575812  1
  O  O8  1  0.03424188  0.42220461  0.35296056  1
  O  O9  1  0.60036837  0.75949255  0.48356933  1
  O  O10  1  0.43075595  0.61203727  0.57779539  1
  O  O11  1  0.65912418  0.88320096  0.39963163  1
  O  O12  1  0.68128132  0.14703944  0.56924405  1
  O  O13  1  0.34087582  0.11679904  0.60036837  1
  O  O14  1  0.65912418  0.27592422  0.25949255  1
  O  O15  1  0.11203727  0.93075595  0.07779539  1
  O  O16  1  0.15912418  0.75949255  0.77592422  1
  O  O17  1  0.18128132  0.06924405  0.64703944  1
  O  O18  1  0.77592422  0.15912418  0.75949255  1
  O  O19  1  0.31871868  0.96575812  0.88796273  1
  O  O20  1  0.42220461  0.56924405  0.38796273  1
  O  O21  1  0.56924405  0.38796273  0.42220461  1
  O  O22  1  0.64703944  0.18128132  0.06924405  1
  O  O23  1  0.07779539  0.46575812  0.14703944  1
  O  O24  1  0.25949255  0.65912418  0.27592422  1
  O  O25  1  0.93075595  0.07779539  0.11203727  1
  O  O26  1  0.42220461  0.35296056  0.03424188  1
  O  O27  1  0.68128132  0.03424188  0.11203727  1
  O  O28  1  0.61203727  0.57779539  0.43075595  1
  O  O29  1  0.88320096  0.98356933  0.22407578  1
  O  O30  1  0.72407578  0.74050745  0.34087582  1
  O  O31  1  0.89963163  0.01643067  0.74050745  1
  O  O32  1  0.14703944  0.07779539  0.46575812  1
  O  O33  1  0.06924405  0.92220461  0.88796273  1
  O  O34  1  0.88796273  0.06924405  0.92220461  1
  O  O35  1  0.01643067  0.77592422  0.11679904  1
  O  O36  1  0.38319996  0.72407578  0.48356933  1
  O  O37  1  0.98356933  0.22407578  0.88320096  1
  O  O38  1  0.35296056  0.03424188  0.42220461  1
  O  O39  1  0.25949255  0.10036837  0.98356933  1
  O  O40  1  0.27592422  0.25949255  0.65912418  1
  O  O41  1  0.64703944  0.96575812  0.57779539  1
  O  O42  1  0.81871868  0.93075595  0.35296056  1
  O  O43  1  0.10036837  0.98356933  0.25949255  1
  O  O44  1  0.27592422  0.51643067  0.61679904  1
  O  O45  1  0.51643067  0.39963163  0.24050745  1
  O  O46  1  0.39963163  0.24050745  0.51643067  1
  O  O47  1  0.06924405  0.64703944  0.18128132  1
  O  O48  1  0.14703944  0.56924405  0.68128132  1
  O  O49  1  0.11679904  0.60036837  0.34087582  1
  O  O50  1  0.11203727  0.68128132  0.03424188  1
  O  O51  1  0.88320096  0.39963163  0.65912418  1
  O  O52  1  0.35296056  0.81871868  0.93075595  1
  O  O53  1  0.01643067  0.74050745  0.89963163  1
  O  O54  1  0.74050745  0.89963163  0.01643067  1
  O  O55  1  0.96575812  0.57779539  0.64703944  1
  O  O56  1  0.72407578  0.48356933  0.38319996  1
  O  O57  1  0.74050745  0.34087582  0.72407578  1
  O  O58  1  0.38796273  0.46575812  0.81871868  1
  O  O59  1  0.38319996  0.15912418  0.89963163  1
  O  O60  1  0.92220461  0.53424188  0.85296056  1
  O  O61  1  0.53424188  0.85296056  0.92220461  1
  O  O62  1  0.77592422  0.11679904  0.01643067  1
  O  O63  1  0.24050745  0.51643067  0.39963163  1
  O  O64  1  0.75949255  0.77592422  0.15912418  1
  O  O65  1  0.48356933  0.38319996  0.72407578  1
  O  O66  1  0.96575812  0.88796273  0.31871868  1
  O  O67  1  0.39963163  0.65912418  0.88320096  1
  O  O68  1  0.38796273  0.42220461  0.56924405  1
  O  O69  1  0.57779539  0.64703944  0.96575812  1
  O  O70  1  0.24050745  0.22407578  0.84087582  1
  O  O71  1  0.31871868  0.85296056  0.43075595  1
  O  O72  1  0.85296056  0.43075595  0.31871868  1
  O  O73  1  0.43075595  0.31871868  0.85296056  1
  O  O74  1  0.92220461  0.88796273  0.06924405  1
  O  O75  1  0.89963163  0.38319996  0.15912418  1
  O  O76  1  0.11679904  0.01643067  0.77592422  1
  O  O77  1  0.84087582  0.24050745  0.22407578  1
  O  O78  1  0.57779539  0.43075595  0.61203727  1
  O  O79  1  0.03424188  0.11203727  0.68128132  1
  O  O80  1  0.93075595  0.35296056  0.81871868  1
  O  O81  1  0.34087582  0.72407578  0.74050745  1
  O  O82  1  0.60036837  0.34087582  0.11679904  1
  O  O83  1  0.51643067  0.61679904  0.27592422  1
  O  O84  1  0.85296056  0.92220461  0.53424188  1
  O  O85  1  0.56924405  0.68128132  0.14703944  1
  O  O86  1  0.48356933  0.60036837  0.75949255  1
  O  O87  1  0.07779539  0.11203727  0.93075595  1
  O  O88  1  0.46575812  0.14703944  0.07779539  1
  O  O89  1  0.61679904  0.27592422  0.51643067  1
  O  O90  1  0.22407578  0.88320096  0.98356933  1
  O  O91  1  0.98356933  0.25949255  0.10036837  1
  O  O92  1  0.10036837  0.61679904  0.84087582  1
  O  O93  1  0.18128132  0.61203727  0.53424188  1
  O  O94  1  0.61203727  0.53424188  0.18128132  1
  O  O95  1  0.81871868  0.38796273  0.46575812  1
loop_
_geom_bond_atom_site_label_1
_geom_bond_atom_site_label_2
_geom_bond_distance
_geom_bond_site_symmetry_2
O0 Si30 1.631502 1_555
O0 Si36 1.632275 1_555
O1 Si45 1.641312 1_555
O1 Si25 1.643898 1_555
O2 Si47 1.641296 1_555
O2 Si8 1.643884 1_555
O3 Si9 1.631502 1_555
O3 Si12 1.632275 1_555
O4 Si7 1.641309 1_555
O4 Si47 1.643891 1_555
O5 Si39 1.641312 1_555
O5 Si28 1.643898 1_555
O6 Si0 1.641302 1_555
O6 Si21 1.643891 1_555
O7 Si43 1.631502 1_556
O7 Si32 1.632275 1_555
O8 Si5 1.631499 1_455
O8 Si1 1.632275 1_555
O9 Si42 1.641301 1_555
O9 Si9 1.643891 1_555
O10 Si35 1.631514 1_555
O10 Si13 1.632278 1_555
O11 Si9 1.641312 1_555
O11 Si2 1.643898 1_555
O12 Si36 1.631502 1_555
O12 Si28 1.632284 1_555
O13 Si30 1.641312 1_555
O13 Si14 1.643898 1_555
O14 Si40 1.641296 1_555
O14 Si18 1.643884 1_555
O15 Si41 1.631514 1_555
O15 Si17 1.632278 1_554
O16 Si10 1.641296 1_555
O16 Si23 1.643884 1_555
O17 Si19 1.631502 1_555
O17 Si14 1.632284 1_555
O18 Si28 1.641296 1_555
O18 Si32 1.643884 1_555
O19 Si34 1.631502 1_565
O19 Si23 1.632275 1_555
O20 Si13 1.631514 1_555
O20 Si42 1.632278 1_555
O21 Si16 1.631514 1_555
O21 Si0 1.632278 1_555
O22 Si31 1.631502 1_555
O22 Si40 1.632284 1_555
O23 Si22 1.631499 1_555
O23 Si43 1.632275 1_455
O24 Si22 1.641296 1_555
O24 Si12 1.643884 1_555
O25 Si3 1.631514 1_555
O25 Si15 1.632278 1_545
O26 Si29 1.631499 1_554
O26 Si26 1.632275 1_555
O27 Si45 1.631502 1_545
O27 Si31 1.632275 1_555
O28 Si42 1.631514 1_555
O28 Si16 1.632278 1_555
O29 Si20 1.641323 1_555
O29 Si15 1.643872 1_555
O30 Si2 1.641296 1_555
O30 Si46 1.643884 1_555
O31 Si11 1.641301 1_555
O31 Si39 1.643891 1_555
O32 Si14 1.631499 1_555
O32 Si7 1.632275 1_545
O33 Si17 1.631514 1_555
O33 Si33 1.632278 1_565
O34 Si11 1.631514 1_555
O34 Si3 1.632278 1_556
O35 Si8 1.641323 1_555
O35 Si41 1.643872 1_555
O36 Si12 1.641322 1_555
O36 Si13 1.643876 1_555
O37 Si32 1.641323 1_555
O37 Si11 1.643872 1_555
O38 Si47 1.631499 1_545
O38 Si30 1.632275 1_555
O39 Si33 1.641301 1_555
O39 Si34 1.643891 1_555
O40 Si14 1.641296 1_555
O40 Si38 1.643884 1_555
O41 Si28 1.631499 1_565
O41 Si9 1.632275 1_555
O42 Si20 1.631502 1_555
O42 Si2 1.632284 1_555
O43 Si41 1.641301 1_555
O43 Si7 1.643891 1_555
O44 Si24 1.641323 1_555
O44 Si35 1.643872 1_555
O45 Si16 1.641301 1_555
O45 Si26 1.643891 1_555
O46 Si44 1.641301 1_555
O46 Si30 1.643891 1_555
O47 Si8 1.631502 1_555
O47 Si22 1.632284 1_555
O48 Si24 1.631502 1_555
O48 Si10 1.632284 1_555
O49 Si1 1.641312 1_555
O49 Si22 1.643898 1_555
O50 Si27 1.631502 1_554
O50 Si8 1.632275 1_555
O51 Si21 1.641312 1_555
O51 Si37 1.643898 1_555
O52 Si23 1.631502 1_555
O52 Si4 1.632284 1_555
O53 Si17 1.641301 1_555
O53 Si27 1.643891 1_555
O54 Si15 1.641301 1_555
O54 Si45 1.643891 1_555
O55 Si10 1.631499 1_655
O55 Si21 1.632275 1_555
O56 Si18 1.641322 1_555
O56 Si16 1.643876 1_555
O57 Si37 1.641296 1_555
O57 Si36 1.643884 1_555
O58 Si6 1.631502 1_555
O58 Si38 1.632275 1_555
O59 Si34 1.641309 1_555
O59 Si29 1.643891 1_555
O60 Si37 1.631499 1_555
O60 Si27 1.632275 1_655
O61 Si4 1.631499 1_555
O61 Si45 1.632275 1_556
O62 Si31 1.641323 1_555
O62 Si3 1.643872 1_555
O63 Si13 1.641302 1_555
O63 Si1 1.643891 1_555
O64 Si25 1.641296 1_555
O64 Si20 1.643884 1_555
O65 Si38 1.641322 1_555
O65 Si44 1.643876 1_555
O66 Si7 1.631502 1_655
O66 Si20 1.632275 1_555
O67 Si6 1.641312 1_555
O67 Si4 1.643898 1_555
O68 Si44 1.631514 1_555
O68 Si35 1.632278 1_555
O69 Si25 1.631499 1_556
O69 Si6 1.632275 1_555
O70 Si29 1.641296 1_555
O70 Si19 1.643884 1_555
O71 Si12 1.631502 1_555
O71 Si47 1.632284 1_555
O72 Si18 1.631502 1_555
O72 Si5 1.632284 1_555
O73 Si38 1.631502 1_555
O73 Si29 1.632284 1_555
O74 Si15 1.631514 1_555
O74 Si41 1.632278 1_655
O75 Si43 1.641309 1_555
O75 Si5 1.643891 1_555
O76 Si19 1.641323 1_555
O76 Si33 1.643872 1_555
O77 Si5 1.641296 1_555
O77 Si31 1.643884 1_555
O78 Si0 1.631514 1_555
O78 Si44 1.632278 1_555
O79 Si39 1.631502 1_455
O79 Si19 1.632275 1_555
O80 Si32 1.631502 1_555
O80 Si37 1.632284 1_555
O81 Si4 1.641296 1_555
O81 Si24 1.643884 1_555
O82 Si26 1.641312 1_555
O82 Si40 1.643898 1_555
O83 Si46 1.641323 1_555
O83 Si42 1.643872 1_555
O84 Si2 1.631499 1_555
O84 Si39 1.632275 1_565
O85 Si46 1.631502 1_555
O85 Si25 1.632284 1_555
O86 Si35 1.641301 1_555
O86 Si6 1.643891 1_555
O87 Si33 1.631514 1_555
O87 Si11 1.632278 1_455
O88 Si40 1.631499 1_555
O88 Si34 1.632275 1_554
O89 Si36 1.641323 1_555
O89 Si0 1.643872 1_555
O90 Si23 1.641323 1_555
O90 Si17 1.643872 1_555
O91 Si3 1.641301 1_555
O91 Si43 1.643891 1_555
O92 Si27 1.641312 1_555
O92 Si10 1.643898 1_555
O93 Si1 1.631502 1_555
O93 Si24 1.632275 1_555
O94 Si26 1.631502 1_555
O94 Si46 1.632275 1_555
O95 Si21 1.631502 1_555
O95 Si18 1.632275 1_555
