# generated using pymatgen
data_Cd2Cl4O5
_symmetry_space_group_name_H-M   'P 1'
_cell_length_a   11.65937000
_cell_length_b   9.98567100
_cell_length_c   14.42346126
_cell_angle_alpha   51.19070115
_cell_angle_beta   90.00000000
_cell_angle_gamma   90.00000000
_symmetry_Int_Tables_number   1
_chemical_formula_structural   Cd2Cl4O5
_chemical_formula_sum   'Cd8 Cl16 O20'
_cell_volume   1308.55199218
_cell_formula_units_Z   4
loop_
 _symmetry_equiv_pos_site_id
 _symmetry_equiv_pos_as_xyz
  1  'x, y, z'
loop_
 _atom_site_type_symbol
 _atom_site_label
 _atom_site_symmetry_multiplicity
 _atom_site_fract_x
 _atom_site_fract_y
 _atom_site_fract_z
 _atom_site_occupancy
  Cd  Cd0  1  0.82703900  0.54146300  0.54521700  1
  Cd  Cd1  1  0.67296100  0.54146300  0.04521700  1
  Cd  Cd2  1  0.17296100  0.45853700  0.45478300  1
  Cd  Cd3  1  0.32703900  0.45853700  0.95478300  1
  Cd  Cd4  1  0.91629300  0.49513600  0.30341000  1
  Cd  Cd5  1  0.58370700  0.49513600  0.80341000  1
  Cd  Cd6  1  0.08370700  0.50486400  0.69659000  1
  Cd  Cd7  1  0.41629300  0.50486400  0.19659000  1
  Cl  Cl0  1  0.74258300  0.50514900  0.40288300  1
  Cl  Cl1  1  0.75741700  0.50514900  0.90288300  1
  Cl  Cl2  1  0.25741700  0.49485100  0.59711700  1
  Cl  Cl3  1  0.24258300  0.49485100  0.09711700  1
  Cl  Cl4  1  0.93702500  0.74066600  0.56202700  1
  Cl  Cl5  1  0.56297500  0.74066600  0.06202700  1
  Cl  Cl6  1  0.06297500  0.25933400  0.43797300  1
  Cl  Cl7  1  0.43702500  0.25933400  0.93797300  1
  Cl  Cl8  1  0.87471500  0.51962500  0.12642300  1
  Cl  Cl9  1  0.62528500  0.51962500  0.62642300  1
  Cl  Cl10  1  0.12528500  0.48037500  0.87357700  1
  Cl  Cl11  1  0.37471500  0.48037500  0.37357700  1
  Cl  Cl12  1  0.02821200  0.70089600  0.32008700  1
  Cl  Cl13  1  0.47178800  0.70089600  0.82008700  1
  Cl  Cl14  1  0.97178800  0.29910400  0.67991300  1
  Cl  Cl15  1  0.52821200  0.29910400  0.17991300  1
  O  O0  1  0.75740600  0.01729000  0.24102200  1
  O  O1  1  0.74259400  0.01729000  0.74102200  1
  O  O2  1  0.24259400  0.98271000  0.75897800  1
  O  O3  1  0.25740600  0.98271000  0.25897800  1
  O  O4  1  0.85367300  0.01227300  0.99303000  1
  O  O5  1  0.64632700  0.01227300  0.49303000  1
  O  O6  1  0.14632700  0.98772700  0.00697000  1
  O  O7  1  0.35367300  0.98772700  0.50697000  1
  O  O8  1  0.11183200  0.84453600  0.04558000  1
  O  O9  1  0.38816800  0.84453600  0.54558000  1
  O  O10  1  0.88816800  0.15546400  0.95442000  1
  O  O11  1  0.61183200  0.15546400  0.45442000  1
  O  O12  1  0.19512600  0.99626000  0.32639800  1
  O  O13  1  0.30487400  0.99626000  0.82639800  1
  O  O14  1  0.80487400  0.00374000  0.67360200  1
  O  O15  1  0.69512600  0.00374000  0.17360200  1
  O  O16  1  0.85778300  0.08406400  0.20411600  1
  O  O17  1  0.64221700  0.08406400  0.70411600  1
  O  O18  1  0.14221700  0.91593600  0.79588400  1
  O  O19  1  0.35778300  0.91593600  0.29588400  1
loop_
_geom_bond_atom_site_label_1
_geom_bond_atom_site_label_2
_geom_bond_distance
_geom_bond_site_symmetry_2
Cd0 Cl0 2.499772 1_555
Cd0 Cl4 2.502920 1_555
Cd0 Cl14 2.566353 1_555
Cd0 Cl9 2.575404 1_555
Cd1 Cl1 2.499772 1_554
Cd1 Cl5 2.502920 1_555
Cd1 Cl15 2.566353 1_555
Cd1 Cl8 2.575404 1_555
Cd2 Cl2 2.499772 1_555
Cd2 Cl6 2.502920 1_555
Cd2 Cl12 2.566353 1_555
Cd2 Cl11 2.575404 1_555
Cd3 Cl3 2.499772 1_556
Cd3 Cl7 2.502920 1_555
Cd3 Cl13 2.566353 1_555
Cd3 Cl10 2.575404 1_555
Cd4 Cl8 2.455390 1_555
Cd4 Cl0 2.519989 1_555
Cd4 Cl6 2.551035 1_655
Cd4 Cl12 2.569382 1_655
Cd5 Cl9 2.455390 1_555
Cd5 Cl1 2.519989 1_555
Cd5 Cl7 2.551035 1_555
Cd5 Cl13 2.569382 1_555
Cd6 Cl10 2.455390 1_555
Cd6 Cl2 2.519989 1_555
Cd6 Cl4 2.551035 1_455
Cd6 Cl14 2.569382 1_455
Cd7 Cl11 2.455390 1_555
Cd7 Cl3 2.519989 1_555
Cd7 Cl5 2.551035 1_555
Cd7 Cl15 2.569382 1_555
O0 O16 1.285587 1_555
O0 O15 1.286911 1_555
O1 O17 1.285587 1_555
O1 O14 1.286911 1_555
O6 O8 1.232185 1_555
O7 O9 1.232185 1_555
O10 O4 1.232185 1_555
O11 O5 1.232185 1_555
O12 O3 1.286911 1_555
O13 O2 1.286911 1_555
O18 O2 1.285587 1_555
O19 O3 1.285587 1_555
