# generated using pymatgen
data_SmFe2Ni2B
_symmetry_space_group_name_H-M   'P 1'
_cell_length_a   5.04517857
_cell_length_b   5.04517857
_cell_length_c   7.04993300
_cell_angle_alpha   90.00000000
_cell_angle_beta   90.00000000
_cell_angle_gamma   119.67247866
_symmetry_Int_Tables_number   1
_chemical_formula_structural   SmFe2Ni2B
_chemical_formula_sum   'Sm2 Fe4 Ni4 B2'
_cell_volume   155.91667962
_cell_formula_units_Z   2
loop_
 _symmetry_equiv_pos_site_id
 _symmetry_equiv_pos_as_xyz
  1  'x, y, z'
loop_
 _atom_site_type_symbol
 _atom_site_label
 _atom_site_symmetry_multiplicity
 _atom_site_fract_x
 _atom_site_fract_y
 _atom_site_fract_z
 _atom_site_occupancy
  Sm  Sm0  1  0.00000000  0.00000000  0.00241000  1
  Sm  Sm1  1  0.00000000  0.00000000  0.49419500  1
  Fe  Fe0  1  0.50000000  0.50000000  0.28656600  1
  Fe  Fe1  1  0.00000000  0.50000000  0.71526800  1
  Fe  Fe2  1  0.50000000  0.00000000  0.71526800  1
  Fe  Fe3  1  0.50000000  0.50000000  0.71230400  1
  Ni  Ni0  1  0.33637900  0.66362100  0.99888900  1
  Ni  Ni1  1  0.66362100  0.33637900  0.99888900  1
  Ni  Ni2  1  0.00000000  0.50000000  0.29049100  1
  Ni  Ni3  1  0.50000000  0.00000000  0.29049100  1
  B  B0  1  0.33453100  0.66546900  0.49763800  1
  B  B1  1  0.66546900  0.33453100  0.49763800  1
loop_
_geom_bond_atom_site_label_1
_geom_bond_atom_site_label_2
_geom_bond_distance
_geom_bond_site_symmetry_2
Fe0 Ni0 2.480077 1_554
Fe0 Ni1 2.480077 1_554
Fe0 Sm1 2.927318 1_665
Fe0 Sm1 2.927318 1_555
Fe1 Ni1 2.484462 1_455
Fe1 Ni0 2.484462 1_555
Fe1 Sm1 2.965221 1_565
Fe1 Sm1 2.965221 1_555
Fe2 Ni0 2.484462 1_545
Fe2 Ni1 2.484462 1_555
Fe2 Sm1 2.965221 1_555
Fe2 Sm1 2.965221 1_655
Fe3 Ni1 2.473786 1_555
Fe3 Ni0 2.473786 1_555
Fe3 Sm1 2.964953 1_555
Fe3 Sm1 2.964953 1_665
Ni0 Ni3 2.529965 1_566
Ni0 Ni2 2.529965 1_556
Ni0 Sm0 2.909426 1_666
Ni0 Sm0 2.909426 1_556
Ni0 Sm0 2.934692 1_566
Ni1 Ni3 2.529965 1_556
Ni1 Ni2 2.529965 1_656
Ni1 Sm0 2.909426 1_666
Ni1 Sm0 2.909426 1_556
Ni1 Sm0 2.934692 1_656
Ni2 Sm1 2.902730 1_565
Ni2 Sm1 2.902730 1_555
Ni3 Sm1 2.902730 1_655
Ni3 Sm1 2.902730 1_555
B0 Ni3 2.069581 1_565
B0 Ni2 2.069581 1_555
B0 Fe0 2.073195 1_555
B0 Fe3 2.091456 1_555
B0 Fe2 2.122377 1_565
B0 Fe1 2.122377 1_555
B0 Sm1 2.917365 1_665
B0 Sm1 2.917365 1_555
B0 Sm1 2.918566 1_565
B1 Ni3 2.069581 1_555
B1 Ni2 2.069581 1_655
B1 Fe0 2.073195 1_555
B1 Fe3 2.091456 1_555
B1 Fe1 2.122377 1_655
B1 Fe2 2.122377 1_555
B1 Sm1 2.917365 1_665
B1 Sm1 2.917365 1_555
B1 Sm1 2.918566 1_655
