# generated using pymatgen
data_NaZnO3
_symmetry_space_group_name_H-M   'P 1'
_cell_length_a   12.78138500
_cell_length_b   12.78138500
_cell_length_c   3.59029000
_cell_angle_alpha   90.00000000
_cell_angle_beta   90.00000000
_cell_angle_gamma   90.00000000
_symmetry_Int_Tables_number   1
_chemical_formula_structural   NaZnO3
_chemical_formula_sum   'Na8 Zn8 O24'
_cell_volume   586.52342654
_cell_formula_units_Z   8
loop_
 _symmetry_equiv_pos_site_id
 _symmetry_equiv_pos_as_xyz
  1  'x, y, z'
loop_
 _atom_site_type_symbol
 _atom_site_label
 _atom_site_symmetry_multiplicity
 _atom_site_fract_x
 _atom_site_fract_y
 _atom_site_fract_z
 _atom_site_occupancy
  Na  Na0  1  0.14287800  0.13945000  0.50000000  1
  Na  Na1  1  0.86055000  0.14287800  0.00000000  1
  Na  Na2  1  0.64287800  0.36055000  0.50000000  1
  Na  Na3  1  0.63945000  0.64287800  0.00000000  1
  Na  Na4  1  0.85712200  0.86055000  0.50000000  1
  Na  Na5  1  0.13945000  0.85712200  0.00000000  1
  Na  Na6  1  0.35712200  0.63945000  0.50000000  1
  Na  Na7  1  0.36055000  0.35712200  0.00000000  1
  Zn  Zn0  1  0.47202300  0.17273600  0.50000000  1
  Zn  Zn1  1  0.82726400  0.47202300  0.00000000  1
  Zn  Zn2  1  0.97202300  0.32726400  0.50000000  1
  Zn  Zn3  1  0.67273600  0.97202300  0.00000000  1
  Zn  Zn4  1  0.52797700  0.82726400  0.50000000  1
  Zn  Zn5  1  0.17273600  0.52797700  0.00000000  1
  Zn  Zn6  1  0.02797700  0.67273600  0.50000000  1
  Zn  Zn7  1  0.32726400  0.02797700  0.00000000  1
  O  O0  1  0.34725400  0.06945100  0.50000000  1
  O  O1  1  0.93054900  0.34725400  0.00000000  1
  O  O2  1  0.84725400  0.43054900  0.50000000  1
  O  O3  1  0.56945100  0.84725400  0.00000000  1
  O  O4  1  0.65274600  0.93054900  0.50000000  1
  O  O5  1  0.06945100  0.65274600  0.00000000  1
  O  O6  1  0.15274600  0.56945100  0.50000000  1
  O  O7  1  0.43054900  0.15274600  0.00000000  1
  O  O8  1  0.46751300  0.32374100  0.50000000  1
  O  O9  1  0.67625900  0.46751300  0.00000000  1
  O  O10  1  0.96751300  0.17625900  0.50000000  1
  O  O11  1  0.82374100  0.96751300  0.00000000  1
  O  O12  1  0.53248700  0.67625900  0.50000000  1
  O  O13  1  0.32374100  0.53248700  0.00000000  1
  O  O14  1  0.03248700  0.82374100  0.50000000  1
  O  O15  1  0.17625900  0.03248700  0.00000000  1
  O  O16  1  0.13460900  0.33795000  0.50000000  1
  O  O17  1  0.66205000  0.13460900  0.00000000  1
  O  O18  1  0.63460900  0.16205000  0.50000000  1
  O  O19  1  0.83795000  0.63460900  0.00000000  1
  O  O20  1  0.86539100  0.66205000  0.50000000  1
  O  O21  1  0.33795000  0.86539100  0.00000000  1
  O  O22  1  0.36539100  0.83795000  0.50000000  1
  O  O23  1  0.16205000  0.36539100  0.00000000  1
loop_
_geom_bond_atom_site_label_1
_geom_bond_atom_site_label_2
_geom_bond_distance
_geom_bond_site_symmetry_2
Na0 O10 2.290251 1_455
Na0 O15 2.296441 1_556
Na0 O15 2.296441 1_555
Na0 O16 2.539305 1_555
Na0 O0 2.761176 1_555
Na1 O11 2.290251 1_545
Na1 O10 2.296441 1_555
Na1 O10 2.296441 1_554
Na1 O17 2.539305 1_555
Na1 O1 2.761176 1_555
Na2 O8 2.290251 1_555
Na2 O9 2.296441 1_555
Na2 O9 2.296441 1_556
Na2 O18 2.539305 1_555
Na2 O2 2.761176 1_555
Na3 O9 2.290251 1_555
Na3 O12 2.296441 1_555
Na3 O12 2.296441 1_554
Na3 O19 2.539305 1_555
Na3 O3 2.761176 1_555
Na4 O14 2.290251 1_655
Na4 O11 2.296441 1_556
Na4 O11 2.296441 1_555
Na4 O20 2.539305 1_555
Na4 O4 2.761176 1_555
Na5 O15 2.290251 1_565
Na5 O14 2.296441 1_554
Na5 O14 2.296441 1_555
Na5 O21 2.539305 1_555
Na5 O5 2.761176 1_555
Na6 O12 2.290251 1_555
Na6 O13 2.296441 1_555
Na6 O13 2.296441 1_556
Na6 O22 2.539305 1_555
Na6 O6 2.761176 1_555
Na7 O13 2.290251 1_555
Na7 O8 2.296441 1_555
Na7 O8 2.296441 1_554
Na7 O23 2.539305 1_555
Na7 O7 2.761176 1_555
O0 Zn7 1.889134 1_556
O0 Zn7 1.889134 1_555
O0 Zn0 2.070233 1_555
O1 Zn2 1.889134 1_555
O1 Zn2 1.889134 1_554
O1 Zn1 2.070233 1_555
O2 Zn1 1.889134 1_555
O2 Zn1 1.889134 1_556
O2 Zn2 2.070233 1_555
O3 Zn4 1.889134 1_554
O3 Zn4 1.889134 1_555
O3 Zn3 2.070233 1_555
O4 Zn3 1.889134 1_556
O4 Zn3 1.889134 1_555
O4 Zn4 2.070233 1_555
O5 Zn6 1.889134 1_555
O5 Zn6 1.889134 1_554
O5 Zn5 2.070233 1_555
O6 Zn5 1.889134 1_556
O6 Zn5 1.889134 1_555
O6 Zn6 2.070233 1_555
O7 Zn0 1.889134 1_554
O7 Zn0 1.889134 1_555
O7 Zn7 2.070233 1_555
O8 Zn0 1.930914 1_555
O9 Zn1 1.930914 1_555
O10 Zn2 1.930914 1_555
O11 Zn3 1.930914 1_555
O12 Zn4 1.930914 1_555
O13 Zn5 1.930914 1_555
O14 Zn6 1.930914 1_555
O15 Zn7 1.930914 1_555
O16 O23 1.862411 1_556
O16 O23 1.862411 1_555
O16 Zn2 2.082558 1_455
O17 O18 1.862411 1_554
O17 O18 1.862411 1_555
O17 Zn3 2.082558 1_545
O18 Zn0 2.082558 1_555
O19 O20 1.862411 1_555
O19 O20 1.862411 1_554
O19 Zn1 2.082558 1_555
O20 Zn6 2.082558 1_655
O21 O22 1.862411 1_554
O21 O22 1.862411 1_555
O21 Zn7 2.082558 1_565
O22 Zn4 2.082558 1_555
O23 Zn5 2.082558 1_555
