# generated using pymatgen
data_CrAsRu
_symmetry_space_group_name_H-M   'P 1'
_cell_length_a   3.98715700
_cell_length_b   6.06045200
_cell_length_c   7.31609500
_cell_angle_alpha   90.00000000
_cell_angle_beta   90.00000000
_cell_angle_gamma   90.00000000
_symmetry_Int_Tables_number   1
_chemical_formula_structural   CrAsRu
_chemical_formula_sum   'Cr4 As4 Ru4'
_cell_volume   176.78592654
_cell_formula_units_Z   4
loop_
 _symmetry_equiv_pos_site_id
 _symmetry_equiv_pos_as_xyz
  1  'x, y, z'
loop_
 _atom_site_type_symbol
 _atom_site_label
 _atom_site_symmetry_multiplicity
 _atom_site_fract_x
 _atom_site_fract_y
 _atom_site_fract_z
 _atom_site_occupancy
  Cr  Cr0  1  0.75000000  0.96674600  0.30759000  1
  Cr  Cr1  1  0.25000000  0.03325400  0.69241000  1
  Cr  Cr2  1  0.25000000  0.53325400  0.80759000  1
  Cr  Cr3  1  0.75000000  0.46674600  0.19241000  1
  As  As0  1  0.75000000  0.74835400  0.61845800  1
  As  As1  1  0.25000000  0.25164600  0.38154200  1
  As  As2  1  0.25000000  0.75164600  0.11845800  1
  As  As3  1  0.75000000  0.24835400  0.88154200  1
  Ru  Ru0  1  0.75000000  0.84286700  0.94082900  1
  Ru  Ru1  1  0.25000000  0.15713300  0.05917100  1
  Ru  Ru2  1  0.25000000  0.65713300  0.44082900  1
  Ru  Ru3  1  0.75000000  0.34286700  0.55917100  1
loop_
_geom_bond_atom_site_label_1
_geom_bond_atom_site_label_2
_geom_bond_distance
_geom_bond_site_symmetry_2
Cr0 Ru0 2.786309 1_554
Cr0 Ru2 2.906102 1_555
Cr0 Ru2 2.906102 1_655
Cr0 Ru3 2.929800 1_565
Cr0 Ru1 2.934081 1_565
Cr0 Ru1 2.934081 1_665
Cr1 Ru1 2.786309 1_556
Cr1 Ru3 2.906102 1_455
Cr1 Ru3 2.906102 1_555
Cr1 Ru2 2.929800 1_545
Cr1 Ru0 2.934081 1_445
Cr1 Ru0 2.934081 1_545
Cr2 Ru2 2.786309 1_555
Cr2 Ru0 2.906102 1_455
Cr2 Ru0 2.906102 1_555
Cr2 Ru1 2.929800 1_556
Cr2 Ru3 2.934081 1_455
Cr2 Ru3 2.934081 1_555
Cr3 Ru3 2.786309 1_555
Cr3 Ru1 2.906102 1_555
Cr3 Ru1 2.906102 1_655
Cr3 Ru0 2.929800 1_554
Cr3 Ru2 2.934081 1_555
Cr3 Ru2 2.934081 1_655
As0 Ru0 2.427055 1_555
As0 Ru2 2.443117 1_555
As0 Ru2 2.443117 1_655
As0 Ru3 2.495420 1_555
As0 Cr0 2.631429 1_555
As0 Cr1 2.692268 1_565
As0 Cr1 2.692268 1_665
As0 Cr2 2.754702 1_555
As0 Cr2 2.754702 1_655
As1 Ru1 2.427055 1_555
As1 Ru3 2.443117 1_455
As1 Ru3 2.443117 1_555
As1 Ru2 2.495420 1_555
As1 Cr1 2.631429 1_555
As1 Cr0 2.692268 1_545
As1 Cr0 2.692268 1_445
As1 Cr3 2.754702 1_455
As1 Cr3 2.754702 1_555
As2 Ru2 2.427055 1_555
As2 Ru0 2.443117 1_554
As2 Ru0 2.443117 1_454
As2 Ru1 2.495420 1_565
As2 Cr2 2.631429 1_554
As2 Cr3 2.692268 1_455
As2 Cr3 2.692268 1_555
As2 Cr0 2.754702 1_555
As2 Cr0 2.754702 1_455
As3 Ru3 2.427055 1_555
As3 Ru1 2.443117 1_656
As3 Ru1 2.443117 1_556
As3 Ru0 2.495420 1_545
As3 Cr3 2.631429 1_556
As3 Cr2 2.692268 1_555
As3 Cr2 2.692268 1_655
As3 Cr1 2.754702 1_655
As3 Cr1 2.754702 1_555
