# generated using pymatgen
data_Ce2Ge6Au
_symmetry_space_group_name_H-M   'P 1'
_cell_length_a   4.18336319
_cell_length_b   4.22802371
_cell_length_c   11.36514139
_cell_angle_alpha   90.00000000
_cell_angle_beta   100.60537942
_cell_angle_gamma   90.00000000
_symmetry_Int_Tables_number   1
_chemical_formula_structural   Ce2Ge6Au
_chemical_formula_sum   'Ce2 Ge6 Au1'
_cell_volume   197.58553559
_cell_formula_units_Z   1
loop_
 _symmetry_equiv_pos_site_id
 _symmetry_equiv_pos_as_xyz
  1  'x, y, z'
loop_
 _atom_site_type_symbol
 _atom_site_label
 _atom_site_symmetry_multiplicity
 _atom_site_fract_x
 _atom_site_fract_y
 _atom_site_fract_z
 _atom_site_occupancy
  Ce  Ce0  1  0.77884252  0.50000000  0.55768503  1
  Ce  Ce1  1  0.11671039  0.50000000  0.23342079  1
  Ge  Ge0  1  0.49215423  0.50000000  0.98430846  1
  Ge  Ge1  1  0.37988011  0.50000000  0.75976022  1
  Ge  Ge2  1  0.99126847  0.00000000  0.98253693  1
  Ge  Ge3  1  0.87902459  -0.00000000  0.75804918  1
  Ge  Ge4  1  0.67241510  0.00000000  0.34483020  1
  Ge  Ge5  1  0.23661637  -0.00000000  0.47323274  1
  Au  Au0  1  0.56008822  -0.00000000  0.12017645  1
loop_
_geom_bond_atom_site_label_1
_geom_bond_atom_site_label_2
_geom_bond_distance
_geom_bond_site_symmetry_2
Ce0 Ge1 3.077484 1_655
Ce0 Ge1 3.077484 1_555
Ce0 Ge3 3.078781 1_555
Ce0 Ge3 3.078781 1_565
Ce0 Ge5 3.119970 1_555
Ce0 Ge5 3.119970 1_565
Ce0 Ge5 3.119970 1_655
Ce0 Ge5 3.119970 1_665
Ce0 Ge4 3.181664 1_565
Ce0 Ge4 3.181664 1_555
Ce1 Ge4 3.223832 1_555
Ce1 Ge4 3.223832 1_565
Ce1 Ge4 3.223832 1_465
Ce1 Ge4 3.223832 1_455
Ce1 Ge5 3.412589 1_555
Ce1 Ge5 3.412589 1_565
Ce1 Ge0 3.481278 1_454
Ce1 Ge0 3.481279 1_554
Ce1 Ge2 3.510520 1_454
Ce1 Ge2 3.510520 1_464
Ge0 Ge1 2.508429 1_555
Ge0 Ge2 2.973982 1_465
Ge0 Ge2 2.973982 1_455
Ge0 Ge2 2.973982 1_565
Ge0 Ge2 2.973982 1_555
Ge1 Ge3 2.973978 1_455
Ge1 Ge3 2.973978 1_465
Ge1 Ge3 2.973978 1_555
Ge1 Ge3 2.973978 1_565
Ge2 Ge3 2.507753 1_555
Ge4 Ge5 2.536256 1_655
Ge4 Ge5 2.536256 1_555
Au0 Ge4 2.509608 1_555
Au0 Ge2 2.596008 1_454
Au0 Ge2 2.596008 1_554
Au0 Ge0 2.602443 1_554
Au0 Ge0 2.602443 1_544
Au0 Ce1 3.231801 1_655
Au0 Ce1 3.231801 1_645
Au0 Ce1 3.231801 1_555
Au0 Ce1 3.231801 1_545
