# generated using pymatgen
data_Rb2Be3Co2F12
_symmetry_space_group_name_H-M   'P 1'
_cell_length_a   10.21838900
_cell_length_b   10.21838900
_cell_length_c   10.21838900
_cell_angle_alpha   90.00000000
_cell_angle_beta   90.00000000
_cell_angle_gamma   90.00000000
_symmetry_Int_Tables_number   1
_chemical_formula_structural   Rb2Be3Co2F12
_chemical_formula_sum   'Rb8 Be12 Co8 F48'
_cell_volume   1066.95792845
_cell_formula_units_Z   4
loop_
 _symmetry_equiv_pos_site_id
 _symmetry_equiv_pos_as_xyz
  1  'x, y, z'
loop_
 _atom_site_type_symbol
 _atom_site_label
 _atom_site_symmetry_multiplicity
 _atom_site_fract_x
 _atom_site_fract_y
 _atom_site_fract_z
 _atom_site_occupancy
  Rb  Rb0  1  0.04918700  0.04918700  0.04918700  1
  Rb  Rb1  1  0.45081300  0.95081300  0.54918700  1
  Rb  Rb2  1  0.95081300  0.54918700  0.45081300  1
  Rb  Rb3  1  0.54918700  0.45081300  0.95081300  1
  Rb  Rb4  1  0.81500700  0.81500700  0.81500700  1
  Rb  Rb5  1  0.68499300  0.18499300  0.31500700  1
  Rb  Rb6  1  0.18499300  0.31500700  0.68499300  1
  Rb  Rb7  1  0.31500700  0.68499300  0.18499300  1
  Be  Be0  1  0.02025500  0.21410500  0.37571100  1
  Be  Be1  1  0.47974500  0.78589500  0.87571100  1
  Be  Be2  1  0.97974500  0.71410500  0.12428900  1
  Be  Be3  1  0.37571100  0.02025500  0.21410500  1
  Be  Be4  1  0.52025500  0.28589500  0.62428900  1
  Be  Be5  1  0.87571100  0.47974500  0.78589500  1
  Be  Be6  1  0.12428900  0.97974500  0.71410500  1
  Be  Be7  1  0.62428900  0.52025500  0.28589500  1
  Be  Be8  1  0.21410500  0.37571100  0.02025500  1
  Be  Be9  1  0.71410500  0.12428900  0.97974500  1
  Be  Be10  1  0.28589500  0.62428900  0.52025500  1
  Be  Be11  1  0.78589500  0.87571100  0.47974500  1
  Co  Co0  1  0.33535800  0.33535800  0.33535800  1
  Co  Co1  1  0.16464200  0.66464200  0.83535800  1
  Co  Co2  1  0.66464200  0.83535800  0.16464200  1
  Co  Co3  1  0.83535800  0.16464200  0.66464200  1
  Co  Co4  1  0.59963100  0.59963100  0.59963100  1
  Co  Co5  1  0.90036900  0.40036900  0.09963100  1
  Co  Co6  1  0.40036900  0.09963100  0.90036900  1
  Co  Co7  1  0.09963100  0.90036900  0.40036900  1
  F  F0  1  0.01375600  0.06804000  0.33002000  1
  F  F1  1  0.48624400  0.93196000  0.83002000  1
  F  F2  1  0.98624400  0.56804000  0.16998000  1
  F  F3  1  0.33002000  0.01375600  0.06804000  1
  F  F4  1  0.51375600  0.43196000  0.66998000  1
  F  F5  1  0.83002000  0.48624400  0.93196000  1
  F  F6  1  0.16998000  0.98624400  0.56804000  1
  F  F7  1  0.66998000  0.51375600  0.43196000  1
  F  F8  1  0.06804000  0.33002000  0.01375600  1
  F  F9  1  0.56804000  0.16998000  0.98624400  1
  F  F10  1  0.43196000  0.66998000  0.51375600  1
  F  F11  1  0.93196000  0.83002000  0.48624400  1
  F  F12  1  0.26608700  0.49647300  0.43692500  1
  F  F13  1  0.23391300  0.50352700  0.93692500  1
  F  F14  1  0.73391300  0.99647300  0.06307500  1
  F  F15  1  0.43692500  0.26608700  0.49647300  1
  F  F16  1  0.76608700  0.00352700  0.56307500  1
  F  F17  1  0.93692500  0.23391300  0.50352700  1
  F  F18  1  0.06307500  0.73391300  0.99647300  1
  F  F19  1  0.56307500  0.76608700  0.00352700  1
  F  F20  1  0.49647300  0.43692500  0.26608700  1
  F  F21  1  0.99647300  0.06307500  0.73391300  1
  F  F22  1  0.00352700  0.56307500  0.76608700  1
  F  F23  1  0.50352700  0.93692500  0.23391300  1
  F  F24  1  0.04599600  0.80462900  0.23008500  1
  F  F25  1  0.45400400  0.19537100  0.73008500  1
  F  F26  1  0.95400400  0.30462900  0.26991500  1
  F  F27  1  0.23008500  0.04599600  0.80462900  1
  F  F28  1  0.54599600  0.69537100  0.76991500  1
  F  F29  1  0.73008500  0.45400400  0.19537100  1
  F  F30  1  0.26991500  0.95400400  0.30462900  1
  F  F31  1  0.76991500  0.54599600  0.69537100  1
  F  F32  1  0.80462900  0.23008500  0.04599600  1
  F  F33  1  0.30462900  0.26991500  0.95400400  1
  F  F34  1  0.69537100  0.76991500  0.54599600  1
  F  F35  1  0.19537100  0.73008500  0.45400400  1
  F  F36  1  0.16404700  0.25654800  0.40259500  1
  F  F37  1  0.33595300  0.74345200  0.90259500  1
  F  F38  1  0.83595300  0.75654800  0.09740500  1
  F  F39  1  0.40259500  0.16404700  0.25654800  1
  F  F40  1  0.66404700  0.24345200  0.59740500  1
  F  F41  1  0.90259500  0.33595300  0.74345200  1
  F  F42  1  0.09740500  0.83595300  0.75654800  1
  F  F43  1  0.59740500  0.66404700  0.24345200  1
  F  F44  1  0.25654800  0.40259500  0.16404700  1
  F  F45  1  0.75654800  0.09740500  0.83595300  1
  F  F46  1  0.24345200  0.59740500  0.66404700  1
  F  F47  1  0.74345200  0.90259500  0.33595300  1
loop_
_geom_bond_atom_site_label_1
_geom_bond_atom_site_label_2
_geom_bond_distance
_geom_bond_site_symmetry_2
Be0 F36 1.556429 1_555
Be0 F0 1.565279 1_555
Be0 F17 1.572210 1_455
Be0 F26 1.575641 1_455
Be1 F37 1.556429 1_555
Be1 F1 1.565279 1_555
Be1 F19 1.572210 1_556
Be1 F28 1.575641 1_555
Be2 F38 1.556429 1_555
Be2 F2 1.565279 1_555
Be2 F18 1.572210 1_654
Be2 F24 1.575641 1_655
Be3 F39 1.556429 1_555
Be3 F3 1.565279 1_555
Be3 F23 1.572210 1_545
Be3 F30 1.575641 1_545
Be4 F40 1.556429 1_555
Be4 F4 1.565279 1_555
Be4 F15 1.572210 1_555
Be4 F25 1.575641 1_555
Be5 F41 1.556429 1_555
Be5 F5 1.565279 1_555
Be5 F22 1.572210 1_655
Be5 F31 1.575641 1_555
Be6 F42 1.556429 1_555
Be6 F6 1.565279 1_555
Be6 F21 1.572210 1_465
Be6 F27 1.575641 1_565
Be7 F43 1.556429 1_555
Be7 F7 1.565279 1_555
Be7 F20 1.572210 1_555
Be7 F29 1.575641 1_555
Be8 F44 1.556429 1_555
Be8 F8 1.565279 1_555
Be8 F13 1.572210 1_554
Be8 F33 1.575641 1_554
Be9 F45 1.556429 1_555
Be9 F9 1.565279 1_555
Be9 F14 1.572210 1_546
Be9 F32 1.575641 1_556
Be10 F46 1.556429 1_555
Be10 F10 1.565279 1_555
Be10 F12 1.572210 1_555
Be10 F35 1.575641 1_555
Be11 F47 1.556429 1_555
Be11 F11 1.565279 1_555
Be11 F16 1.572210 1_565
Be11 F34 1.575641 1_555
Co0 F36 2.045702 1_555
Co0 F39 2.045702 1_555
Co0 F44 2.045702 1_555
Co0 F12 2.070891 1_555
Co0 F20 2.070891 1_555
Co0 F15 2.070891 1_555
Co1 F46 2.045702 1_555
Co1 F37 2.045702 1_555
Co1 F42 2.045702 1_555
Co1 F22 2.070891 1_555
Co1 F13 2.070891 1_555
Co1 F18 2.070891 1_555
Co2 F43 2.045702 1_555
Co2 F47 2.045702 1_555
Co2 F38 2.045702 1_555
Co2 F23 2.070891 1_555
Co2 F14 2.070891 1_555
Co2 F19 2.070891 1_555
Co3 F40 2.045702 1_555
Co3 F41 2.045702 1_555
Co3 F45 2.045702 1_555
Co3 F16 2.070891 1_555
Co3 F17 2.070891 1_555
Co3 F21 2.070891 1_555
Co4 F10 2.054813 1_555
Co4 F7 2.054813 1_555
Co4 F4 2.054813 1_555
Co4 F28 2.070063 1_555
Co4 F34 2.070063 1_555
Co4 F31 2.070063 1_555
Co5 F5 2.054813 1_554
Co5 F2 2.054813 1_555
Co5 F8 2.054813 1_655
Co5 F32 2.070063 1_555
Co5 F26 2.070063 1_555
Co5 F29 2.070063 1_555
Co6 F1 2.054813 1_545
Co6 F9 2.054813 1_555
Co6 F3 2.054813 1_556
Co6 F27 2.070063 1_555
Co6 F25 2.070063 1_555
Co6 F33 2.070063 1_555
Co7 F11 2.054813 1_455
Co7 F6 2.054813 1_555
Co7 F0 2.054813 1_565
Co7 F24 2.070063 1_555
Co7 F35 2.070063 1_555
Co7 F30 2.070063 1_555
F0 Rb0 2.898818 1_555
F1 Rb1 2.898818 1_555
F2 Rb2 2.898818 1_555
F3 Rb0 2.898818 1_555
F4 Rb3 2.898818 1_555
F5 Rb3 2.898818 1_555
F6 Rb1 2.898818 1_555
F7 Rb2 2.898818 1_555
F8 Rb0 2.898818 1_555
F9 Rb3 2.898818 1_555
F10 Rb1 2.898818 1_555
F11 Rb2 2.898818 1_555
F12 Rb6 3.248160 1_555
F12 Rb7 3.253922 1_555
F12 Rb2 3.269395 1_455
F13 Rb7 3.248160 1_556
F13 Rb6 3.253922 1_555
F13 Rb3 3.269395 1_555
F14 Rb4 3.248160 1_554
F14 Rb5 3.253922 1_565
F14 Rb0 3.269395 1_665
F15 Rb5 3.248160 1_555
F15 Rb6 3.253922 1_555
F15 Rb1 3.269395 1_545
F16 Rb5 3.248160 1_555
F16 Rb4 3.253922 1_545
F16 Rb1 3.269395 1_545
F17 Rb6 3.248160 1_655
F17 Rb5 3.253922 1_555
F17 Rb2 3.269395 1_555
F18 Rb4 3.248160 1_455
F18 Rb7 3.253922 1_556
F18 Rb0 3.269395 1_566
F19 Rb7 3.248160 1_555
F19 Rb4 3.253922 1_554
F19 Rb3 3.269395 1_554
F20 Rb7 3.248160 1_555
F20 Rb5 3.253922 1_555
F20 Rb3 3.269395 1_554
F21 Rb4 3.248160 1_545
F21 Rb6 3.253922 1_655
F21 Rb0 3.269395 1_656
F22 Rb6 3.248160 1_555
F22 Rb4 3.253922 1_455
F22 Rb2 3.269395 1_455
F23 Rb5 3.248160 1_565
F23 Rb7 3.253922 1_555
F23 Rb1 3.269395 1_555
F24 Rb7 3.043519 1_555
F24 Rb0 3.108522 1_565
F25 Rb6 3.043519 1_555
F25 Rb1 3.108522 1_545
F26 Rb5 3.043519 1_555
F26 Rb2 3.108522 1_555
F27 Rb6 3.043519 1_555
F27 Rb0 3.108522 1_556
F28 Rb4 3.043519 1_555
F28 Rb3 3.108522 1_555
F29 Rb5 3.043519 1_555
F29 Rb3 3.108522 1_554
F30 Rb7 3.043519 1_555
F30 Rb1 3.108522 1_555
F31 Rb4 3.043519 1_555
F31 Rb2 3.108522 1_555
F32 Rb5 3.043519 1_555
F32 Rb0 3.108522 1_655
F33 Rb6 3.043519 1_555
F33 Rb3 3.108522 1_555
F34 Rb4 3.043519 1_555
F34 Rb1 3.108522 1_555
F35 Rb7 3.043519 1_555
F35 Rb2 3.108522 1_455
F36 Rb6 2.954596 1_555
F37 Rb7 2.954596 1_556
F38 Rb4 2.954596 1_554
F39 Rb5 2.954596 1_555
F40 Rb5 2.954596 1_555
F41 Rb6 2.954596 1_655
F42 Rb4 2.954596 1_455
F43 Rb7 2.954596 1_555
F44 Rb7 2.954596 1_555
F45 Rb4 2.954596 1_545
F46 Rb6 2.954596 1_555
F47 Rb5 2.954596 1_565
