# generated using pymatgen
data_MnRe(PbO3)2
_symmetry_space_group_name_H-M   'P 1'
_cell_length_a   7.22819825
_cell_length_b   7.43021175
_cell_length_c   7.42956276
_cell_angle_alpha   119.43813546
_cell_angle_beta   60.89265042
_cell_angle_gamma   119.10466453
_symmetry_Int_Tables_number   1
_chemical_formula_structural   MnRe(PbO3)2
_chemical_formula_sum   'Mn2 Re2 Pb4 O12'
_cell_volume   287.12869269
_cell_formula_units_Z   2
loop_
 _symmetry_equiv_pos_site_id
 _symmetry_equiv_pos_as_xyz
  1  'x, y, z'
loop_
 _atom_site_type_symbol
 _atom_site_label
 _atom_site_symmetry_multiplicity
 _atom_site_fract_x
 _atom_site_fract_y
 _atom_site_fract_z
 _atom_site_occupancy
  Mn  Mn0  1  0.49999400  0.99997200  0.50000100  1
  Mn  Mn1  1  0.99999700  0.99994900  0.49997600  1
  Re  Re0  1  0.00000200  0.50000900  0.49999900  1
  Re  Re1  1  0.99999900  0.00000800  0.00000500  1
  Pb  Pb0  1  0.50000200  0.49999000  0.00000500  1
  Pb  Pb1  1  0.00000700  0.49999600  0.99999300  1
  Pb  Pb2  1  0.50000200  0.00000600  0.00000400  1
  Pb  Pb3  1  0.50000000  0.49999800  0.49999900  1
  O  O0  1  0.05201900  0.30196300  0.19791900  1
  O  O1  1  0.94797800  0.69804600  0.80208400  1
  O  O2  1  0.67794700  0.92803600  0.57196500  1
  O  O3  1  0.32205300  0.07197800  0.42803600  1
  O  O4  1  0.68866000  0.91844500  0.16523000  1
  O  O5  1  0.06462300  0.33483400  0.58168300  1
  O  O6  1  0.06458200  0.91841000  0.16519100  1
  O  O7  1  0.68856400  0.33480300  0.58164200  1
  O  O8  1  0.31133800  0.08156500  0.83477400  1
  O  O9  1  0.93537700  0.66518000  0.41832500  1
  O  O10  1  0.93541900  0.08160200  0.83480900  1
  O  O11  1  0.31143500  0.66521000  0.41836100  1
loop_
_geom_bond_atom_site_label_1
_geom_bond_atom_site_label_2
_geom_bond_distance
_geom_bond_site_symmetry_2
Mn0 O2 1.960837 1_555
Mn0 O3 1.961140 1_565
Mn0 O4 2.106082 1_555
Mn0 O8 2.106088 1_565
Mn0 O11 2.106126 1_555
Mn0 O7 2.106514 1_565
Mn1 O3 1.962102 1_665
Mn1 O2 1.962147 1_555
Mn1 O9 2.106072 1_555
Mn1 O6 2.106150 1_655
Mn1 O10 2.106337 1_565
Mn1 O5 2.106789 1_665
O0 Re1 1.952334 1_455
O0 Re0 1.953120 1_555
O0 Pb1 2.769785 1_554
O0 Pb0 2.769812 1_555
O1 Re1 1.952385 1_566
O1 Re0 1.953127 1_655
O1 Pb0 2.769839 1_556
O1 Pb1 2.769865 1_655
O2 Pb2 2.659252 1_566
O2 Pb3 2.659570 1_555
O3 Pb2 2.659205 1_555
O3 Pb3 2.659459 1_555
O4 Re1 1.911919 1_565
O4 Pb0 2.604972 1_555
O4 Pb2 2.626306 1_565
O5 Re0 1.912664 1_555
O5 Pb1 2.603717 1_555
O5 Pb3 2.625811 1_555
O6 Re1 1.912012 1_465
O6 Pb1 2.604709 1_554
O6 Pb2 2.626121 1_565
O7 Re0 1.912482 1_655
O7 Pb0 2.604060 1_556
O7 Pb3 2.626004 1_555
O8 Re1 1.911926 1_456
O8 Pb0 2.604828 1_556
O8 Pb2 2.626358 1_556
O9 Re0 1.912602 1_655
O9 Pb1 2.603838 1_654
O9 Pb3 2.625820 1_555
O10 Re1 1.912042 1_556
O10 Pb1 2.604566 1_655
O10 Pb2 2.626102 1_556
O11 Re0 1.912446 1_555
O11 Pb0 2.604064 1_555
O11 Pb3 2.626089 1_555
