# generated using pymatgen
data_CuRh
_symmetry_space_group_name_H-M   'P 1'
_cell_length_a   8.99926551
_cell_length_b   8.99926551
_cell_length_c   8.99926552
_cell_angle_alpha   34.26635785
_cell_angle_beta   34.26635785
_cell_angle_gamma   34.26635087
_symmetry_Int_Tables_number   1
_chemical_formula_structural   CuRh
_chemical_formula_sum   'Cu8 Rh8'
_cell_volume   206.04174848
_cell_formula_units_Z   8
loop_
 _symmetry_equiv_pos_site_id
 _symmetry_equiv_pos_as_xyz
  1  'x, y, z'
loop_
 _atom_site_type_symbol
 _atom_site_label
 _atom_site_symmetry_multiplicity
 _atom_site_fract_x
 _atom_site_fract_y
 _atom_site_fract_z
 _atom_site_occupancy
  Cu  Cu0_0  1  0.00000000  0.00000000  0.00000000  1
  Cu  Cu0_1  1  0.00000000  0.00000000  0.50000000  1
  Cu  Cu0_2  1  0.00000000  0.50000000  0.00000000  1
  Cu  Cu0_3  1  0.00000000  0.50000000  0.50000000  1
  Cu  Cu0_4  1  0.50000000  0.00000000  0.00000000  1
  Cu  Cu0_5  1  0.50000000  0.00000000  0.50000000  1
  Cu  Cu0_6  1  0.50000000  0.50000000  0.00000000  1
  Cu  Cu0_7  1  0.50000000  0.50000000  0.50000000  1
  Rh  Rh0_0  1  0.25000000  0.25000000  0.25000000  1
  Rh  Rh0_1  1  0.25000000  0.25000000  0.75000000  1
  Rh  Rh0_2  1  0.25000000  0.75000000  0.25000000  1
  Rh  Rh0_3  1  0.25000000  0.75000000  0.75000000  1
  Rh  Rh0_4  1  0.75000000  0.25000000  0.25000000  1
  Rh  Rh0_5  1  0.75000000  0.25000000  0.75000000  1
  Rh  Rh0_6  1  0.75000000  0.75000000  0.25000000  1
  Rh  Rh0_7  1  0.75000000  0.75000000  0.75000000  1
loop_
_geom_bond_atom_site_label_1
_geom_bond_atom_site_label_2
_geom_bond_distance
_geom_bond_site_symmetry_2
Cu0_0 Rh0_4 2.611282 1_455
Cu0_0 Rh0_5 2.611282 1_454
Cu0_0 Rh0_3 2.611282 1_544
Cu0_0 Rh0_2 2.611282 1_545
Cu0_0 Rh0_6 2.611282 1_445
Cu0_0 Rh0_1 2.611282 1_554
Cu0_0 Cu0_6 2.651127 1_545
Cu0_0 Cu0_6 2.651127 1_455
Cu0_0 Cu0_5 2.651127 1_554
Cu0_0 Cu0_3 2.651127 1_545
Cu0_0 Cu0_3 2.651127 1_554
Cu0_0 Cu0_5 2.651127 1_455
Cu0_1 Rh0_3 2.611282 1_545
Cu0_1 Rh0_5 2.611282 1_455
Cu0_1 Rh0_2 2.611282 1_545
Cu0_1 Rh0_4 2.611282 1_455
Cu0_1 Rh0_0 2.611282 1_555
Cu0_1 Rh0_7 2.611282 1_445
Cu0_1 Cu0_7 2.651127 1_545
Cu0_1 Cu0_7 2.651127 1_455
Cu0_1 Cu0_4 2.651127 1_555
Cu0_1 Cu0_2 2.651127 1_546
Cu0_1 Cu0_2 2.651127 1_555
Cu0_1 Cu0_4 2.651127 1_456
Cu0_2 Rh0_0 2.611282 1_555
Cu0_2 Rh0_7 2.611282 1_454
Cu0_2 Rh0_1 2.611282 1_554
Cu0_2 Rh0_6 2.611282 1_455
Cu0_2 Rh0_3 2.611282 1_554
Cu0_2 Rh0_4 2.611282 1_455
Cu0_2 Cu0_4 2.651127 1_555
Cu0_2 Cu0_4 2.651127 1_465
Cu0_2 Cu0_7 2.651127 1_455
Cu0_2 Cu0_7 2.651127 1_554
Cu0_3 Rh0_6 2.611282 1_455
Cu0_3 Rh0_1 2.611282 1_555
Cu0_3 Rh0_7 2.611282 1_455
Cu0_3 Rh0_0 2.611282 1_555
Cu0_3 Rh0_2 2.611282 1_555
Cu0_3 Rh0_5 2.611282 1_455
Cu0_3 Cu0_5 2.651127 1_555
Cu0_3 Cu0_5 2.651127 1_465
Cu0_3 Cu0_6 2.651127 1_555
Cu0_3 Cu0_6 2.651127 1_456
Cu0_4 Rh0_7 2.611282 1_544
Cu0_4 Rh0_1 2.611282 1_554
Cu0_4 Rh0_0 2.611282 1_555
Cu0_4 Rh0_6 2.611282 1_545
Cu0_4 Rh0_2 2.611282 1_545
Cu0_4 Rh0_5 2.611282 1_554
Cu0_4 Cu0_7 2.651127 1_545
Cu0_4 Cu0_7 2.651127 1_554
Cu0_5 Rh0_6 2.611282 1_545
Cu0_5 Rh0_0 2.611282 1_555
Cu0_5 Rh0_1 2.611282 1_555
Cu0_5 Rh0_7 2.611282 1_545
Cu0_5 Rh0_4 2.611282 1_555
Cu0_5 Rh0_3 2.611282 1_545
Cu0_5 Cu0_6 2.651127 1_555
Cu0_5 Cu0_6 2.651127 1_546
Cu0_6 Rh0_5 2.611282 1_554
Cu0_6 Rh0_3 2.611282 1_554
Cu0_6 Rh0_4 2.611282 1_555
Cu0_6 Rh0_2 2.611282 1_555
Cu0_6 Rh0_7 2.611282 1_554
Cu0_6 Rh0_0 2.611282 1_555
Cu0_7 Rh0_2 2.611282 1_555
Cu0_7 Rh0_4 2.611282 1_555
Cu0_7 Rh0_3 2.611282 1_555
Cu0_7 Rh0_5 2.611282 1_555
Cu0_7 Rh0_1 2.611282 1_555
Cu0_7 Rh0_6 2.611282 1_555
Rh0_0 Rh0_6 2.651127 1_545
Rh0_0 Rh0_6 2.651127 1_455
Rh0_0 Rh0_5 2.651127 1_554
Rh0_0 Rh0_3 2.651127 1_554
Rh0_0 Rh0_3 2.651127 1_545
Rh0_0 Rh0_5 2.651127 1_455
Rh0_1 Rh0_7 2.651127 1_545
Rh0_1 Rh0_7 2.651127 1_455
Rh0_1 Rh0_4 2.651127 1_456
Rh0_1 Rh0_2 2.651127 1_546
Rh0_1 Rh0_4 2.651127 1_555
Rh0_1 Rh0_2 2.651127 1_555
Rh0_2 Rh0_4 2.651127 1_465
Rh0_2 Rh0_4 2.651127 1_555
Rh0_2 Rh0_7 2.651127 1_554
Rh0_2 Rh0_7 2.651127 1_455
Rh0_3 Rh0_5 2.651127 1_555
Rh0_3 Rh0_5 2.651127 1_465
Rh0_3 Rh0_6 2.651127 1_456
Rh0_3 Rh0_6 2.651127 1_555
Rh0_4 Rh0_7 2.651127 1_545
Rh0_4 Rh0_7 2.651127 1_554
Rh0_5 Rh0_6 2.651127 1_546
Rh0_5 Rh0_6 2.651127 1_555
