# generated using pymatgen
data_CoS2N5O9
_symmetry_space_group_name_H-M   'P 1'
_cell_length_a   6.96844100
_cell_length_b   11.96926200
_cell_length_c   17.77231200
_cell_angle_alpha   90.00000000
_cell_angle_beta   90.00000000
_cell_angle_gamma   90.00000000
_symmetry_Int_Tables_number   1
_chemical_formula_structural   CoS2N5O9
_chemical_formula_sum   'Co4 S8 N20 O36'
_cell_volume   1482.33693420
_cell_formula_units_Z   4
loop_
 _symmetry_equiv_pos_site_id
 _symmetry_equiv_pos_as_xyz
  1  'x, y, z'
loop_
 _atom_site_type_symbol
 _atom_site_label
 _atom_site_symmetry_multiplicity
 _atom_site_fract_x
 _atom_site_fract_y
 _atom_site_fract_z
 _atom_site_occupancy
  Co  Co0  1  0.99489200  0.64378200  0.34773600  1
  Co  Co1  1  0.50510800  0.35621800  0.84773600  1
  Co  Co2  1  0.49489200  0.85621800  0.65226400  1
  Co  Co3  1  0.00510800  0.14378200  0.15226400  1
  S  S0  1  0.58040700  0.54423700  0.46504500  1
  S  S1  1  0.91959300  0.45576300  0.96504500  1
  S  S2  1  0.08040700  0.95576300  0.53495500  1
  S  S3  1  0.41959300  0.04423700  0.03495500  1
  S  S4  1  0.99360400  0.32477400  0.35620600  1
  S  S5  1  0.50639600  0.67522600  0.85620600  1
  S  S6  1  0.49360400  0.17522600  0.64379400  1
  S  S7  1  0.00639600  0.82477400  0.14379400  1
  N  N0  1  0.92059200  0.77020600  0.37155600  1
  N  N1  1  0.57940800  0.22979400  0.87155600  1
  N  N2  1  0.42059200  0.72979400  0.62844400  1
  N  N3  1  0.07940800  0.27020600  0.12844400  1
  N  N4  1  0.82557300  0.58713900  0.29381500  1
  N  N5  1  0.67442700  0.41286100  0.79381500  1
  N  N6  1  0.32557300  0.91286100  0.70618500  1
  N  N7  1  0.17442700  0.08713900  0.20618500  1
  N  N8  1  0.19159500  0.65467400  0.29686800  1
  N  N9  1  0.30840500  0.34532600  0.79686800  1
  N  N10  1  0.69159500  0.84532600  0.70313200  1
  N  N11  1  0.80840500  0.15467400  0.20313200  1
  N  N12  1  0.03171900  0.56810000  0.42090400  1
  N  N13  1  0.46828100  0.43190000  0.92090400  1
  N  N14  1  0.53171900  0.93190000  0.57909600  1
  N  N15  1  0.96828100  0.06810000  0.07909600  1
  N  N16  1  0.30516600  0.49323000  0.15705800  1
  N  N17  1  0.19483400  0.50677000  0.65705800  1
  N  N18  1  0.80516600  0.00677000  0.84294200  1
  N  N19  1  0.69483400  0.99323000  0.34294200  1
  O  O0  1  0.58926600  0.65968100  0.48736200  1
  O  O1  1  0.91073400  0.34031900  0.98736200  1
  O  O2  1  0.08926600  0.84031900  0.51263800  1
  O  O3  1  0.41073400  0.15968100  0.01263800  1
  O  O4  1  0.68341400  0.46132400  0.50717300  1
  O  O5  1  0.81658600  0.53867600  0.00717300  1
  O  O6  1  0.18341400  0.03867600  0.49282700  1
  O  O7  1  0.31658600  0.96132400  0.99282700  1
  O  O8  1  0.46687600  0.51272900  0.40098300  1
  O  O9  1  0.03312400  0.48727100  0.90098300  1
  O  O10  1  0.96687600  0.98727100  0.59901700  1
  O  O11  1  0.53312400  0.01272900  0.09901700  1
  O  O12  1  0.08083100  0.29142000  0.42592900  1
  O  O13  1  0.41916900  0.70858000  0.92592900  1
  O  O14  1  0.58083100  0.20858000  0.57407100  1
  O  O15  1  0.91916900  0.79142000  0.07407100  1
  O  O16  1  0.11222300  0.35112400  0.29240800  1
  O  O17  1  0.38777700  0.64887600  0.79240800  1
  O  O18  1  0.61222300  0.14887600  0.70759200  1
  O  O19  1  0.88777700  0.85112400  0.20759200  1
  O  O20  1  0.78862100  0.32856100  0.34893400  1
  O  O21  1  0.71137900  0.67143900  0.84893400  1
  O  O22  1  0.28862100  0.17143900  0.65106600  1
  O  O23  1  0.21137900  0.82856100  0.15106600  1
  O  O24  1  0.52907700  0.73343800  0.07441100  1
  O  O25  1  0.97092300  0.26656200  0.57441100  1
  O  O26  1  0.02907700  0.76656200  0.92558900  1
  O  O27  1  0.47092300  0.23343800  0.42558900  1
  O  O28  1  0.56437800  0.94689700  0.31171300  1
  O  O29  1  0.93562200  0.05310300  0.81171300  1
  O  O30  1  0.06437800  0.55310300  0.68828700  1
  O  O31  1  0.43562200  0.44689700  0.18828700  1
  O  O32  1  0.18308900  0.56013800  0.17484200  1
  O  O33  1  0.31691100  0.43986200  0.67484200  1
  O  O34  1  0.68308900  0.93986200  0.82515800  1
  O  O35  1  0.81691100  0.06013800  0.32515800  1
loop_
_geom_bond_atom_site_label_1
_geom_bond_atom_site_label_2
_geom_bond_distance
_geom_bond_site_symmetry_2
Co0 N12 1.605423 1_655
Co0 N8 1.647162 1_655
Co0 N0 1.654408 1_555
Co0 N4 1.664371 1_555
Co1 N13 1.605423 1_555
Co1 N9 1.647162 1_555
Co1 N1 1.654408 1_555
Co1 N5 1.664371 1_555
Co2 N14 1.605423 1_555
Co2 N10 1.647162 1_555
Co2 N2 1.654408 1_555
Co2 N6 1.664371 1_555
Co3 N15 1.605423 1_455
Co3 N11 1.647162 1_455
Co3 N3 1.654408 1_555
Co3 N7 1.664371 1_555
N16 O31 1.200835 1_555
N16 O32 1.210333 1_555
N17 O30 1.200835 1_555
N17 O33 1.210333 1_555
N18 O29 1.200835 1_555
N18 O34 1.210333 1_545
N19 O28 1.200835 1_555
N19 O35 1.210333 1_565
O0 S0 1.438901 1_555
O1 S1 1.438901 1_555
O2 S2 1.438901 1_555
O3 S3 1.438901 1_555
O4 S0 1.435506 1_555
O5 S1 1.435506 1_554
O6 S2 1.435506 1_545
O7 S3 1.435506 1_566
O8 S0 1.436791 1_555
O9 S1 1.436791 1_455
O10 S2 1.436791 1_655
O11 S3 1.436791 1_555
O12 S4 1.436770 1_455
O13 S5 1.436770 1_555
O14 S6 1.436770 1_555
O15 S7 1.436770 1_655
O16 S4 1.438162 1_455
O17 S5 1.438162 1_555
O18 S6 1.438162 1_555
O19 S7 1.438162 1_655
O20 S4 1.434963 1_555
O21 S5 1.434963 1_555
O22 S6 1.434963 1_555
O23 S7 1.434963 1_555
