# generated using pymatgen
data_Mg17Al11In
_symmetry_space_group_name_H-M   'P 1'
_cell_length_a   9.16088095
_cell_length_b   9.16088095
_cell_length_c   9.20219053
_cell_angle_alpha   70.58503103
_cell_angle_beta   70.58503103
_cell_angle_gamma   109.21307185
_symmetry_Int_Tables_number   1
_chemical_formula_structural   Mg17Al11In
_chemical_formula_sum   'Mg17 Al11 In1'
_cell_volume   597.19104144
_cell_formula_units_Z   1
loop_
 _symmetry_equiv_pos_site_id
 _symmetry_equiv_pos_as_xyz
  1  'x, y, z'
loop_
 _atom_site_type_symbol
 _atom_site_label
 _atom_site_symmetry_multiplicity
 _atom_site_fract_x
 _atom_site_fract_y
 _atom_site_fract_z
 _atom_site_occupancy
  Mg  Mg0  1  0.65769300  0.65769300  0.34053100  1
  Mg  Mg1  1  0.99621300  0.99621300  0.00136400  1
  Mg  Mg2  1  0.00278300  0.00278300  0.65572800  1
  Mg  Mg3  1  0.69247300  0.69247300  0.71187000  1
  Mg  Mg4  1  0.39891300  0.39891300  0.28518500  1
  Mg  Mg5  1  0.60685500  0.31487300  0.00132700  1
  Mg  Mg6  1  0.31619000  0.99986600  0.39605600  1
  Mg  Mg7  1  0.72004600  0.39978600  0.59681500  1
  Mg  Mg8  1  0.34331900  0.99453600  0.00322700  1
  Mg  Mg9  1  0.68372000  0.28681100  0.31666200  1
  Mg  Mg10  1  0.00138400  0.60278200  0.68358800  1
  Mg  Mg11  1  0.60278200  0.00138400  0.68358800  1
  Mg  Mg12  1  0.28681100  0.68372000  0.31666200  1
  Mg  Mg13  1  0.99453600  0.34331900  0.00322700  1
  Mg  Mg14  1  0.39978600  0.72004600  0.59681500  1
  Mg  Mg15  1  0.99986600  0.31619000  0.39605600  1
  Mg  Mg16  1  0.31487300  0.60685500  0.00132700  1
  Al  Al0  1  0.17699900  0.17699900  0.19679400  1
  Al  Al1  1  0.81493400  0.63334600  0.99957800  1
  Al  Al2  1  0.99886300  0.81232300  0.36671200  1
  Al  Al3  1  0.36465200  0.17674000  0.62904500  1
  Al  Al4  1  0.99826800  0.63315200  0.18477800  1
  Al  Al5  1  0.18336300  0.81761800  0.81609700  1
  Al  Al6  1  0.81761800  0.18336300  0.81609700  1
  Al  Al7  1  0.63315200  0.99826800  0.18477800  1
  Al  Al8  1  0.17674000  0.36465200  0.62904500  1
  Al  Al9  1  0.81232300  0.99886300  0.36671200  1
  Al  Al10  1  0.63334600  0.81493400  0.99957800  1
  In  In0  1  0.37150800  0.37150800  0.82076500  1
loop_
_geom_bond_atom_site_label_1
_geom_bond_atom_site_label_2
_geom_bond_distance
_geom_bond_site_symmetry_2
Mg0 Mg4 3.066900 1_555
Mg0 Mg7 3.090276 1_555
Mg0 Mg14 3.090276 1_555
Mg0 Mg1 3.126709 1_555
Mg1 Mg2 3.141114 1_664
Mg1 Mg8 3.190589 1_655
Mg1 Mg13 3.190589 1_565
Mg2 Mg3 3.026148 1_445
Mg2 Mg6 3.079888 1_545
Mg3 Mg5 3.221133 1_556
Mg3 Mg7 3.244878 1_555
Mg4 Mg9 3.164491 1_555
Mg4 Mg5 3.168402 1_555
Mg4 Mg6 3.187777 1_545
Mg5 Mg8 3.116954 1_545
Mg5 Mg9 3.156552 1_555
Mg5 Mg6 3.186804 1_545
Mg5 Mg7 3.242616 1_554
Mg6 Mg9 3.168990 1_565
Mg7 Mg9 3.153655 1_555
Mg10 Mg13 3.071896 1_456
Mg10 Mg3 3.151830 1_455
Mg10 Mg7 3.152651 1_455
Mg10 Mg12 3.158751 1_555
Mg10 Mg14 3.166042 1_555
Mg10 Mg5 3.184626 1_456
Mg10 Mg6 3.189666 1_555
Mg11 Mg8 3.071896 1_546
Mg11 Mg3 3.151830 1_545
Mg11 Mg14 3.152651 1_545
Mg11 Mg9 3.158751 1_555
Mg11 Mg7 3.166042 1_555
Mg11 Mg16 3.184626 1_546
Mg11 Mg15 3.189666 1_555
Mg12 Mg8 3.044980 1_555
Mg12 Mg14 3.153655 1_555
Mg12 Mg16 3.156552 1_555
Mg12 Mg4 3.164491 1_555
Mg12 Mg6 3.165195 1_555
Mg12 Mg15 3.168990 1_455
Mg13 Mg9 3.044980 1_555
Mg13 Mg16 3.116954 1_655
Mg14 Mg6 3.107201 1_555
Mg14 Mg16 3.242616 1_556
Mg14 Mg3 3.244878 1_555
Mg15 Mg2 3.079888 1_655
Mg15 Mg7 3.107201 1_555
Mg15 Mg9 3.165195 1_555
Mg15 Mg16 3.186804 1_655
Mg15 Mg4 3.187777 1_655
Mg16 Mg4 3.168402 1_555
Mg16 Mg3 3.221133 1_554
Al0 Al2 2.740677 1_445
Al0 Al9 2.740677 1_445
Al0 In0 2.834749 1_554
Al0 Mg4 2.899270 1_555
Al0 Mg15 2.925647 1_455
Al0 Mg6 2.925647 1_545
Al0 Mg13 3.184275 1_455
Al0 Mg8 3.184275 1_545
Al0 Mg5 3.293111 1_555
Al0 Mg16 3.293111 1_555
Al0 Mg1 3.297702 1_445
Al1 Al10 2.712160 1_555
Al1 Al4 2.761887 1_556
Al1 Al5 2.767422 1_655
Al1 Mg5 2.904087 1_556
Al1 Mg10 3.000873 1_655
Al1 Mg9 3.005873 1_556
Al1 Mg0 3.104956 1_556
Al1 Mg2 3.139240 1_665
Al1 Mg3 3.159523 1_555
Al1 Mg1 3.198350 1_556
Al1 Mg4 3.200918 1_556
Al2 Al4 2.706305 1_555
Al2 Al9 2.786122 1_555
Al2 Mg10 2.922467 1_655
Al2 Mg3 2.983026 1_555
Al2 Mg6 3.003069 1_655
Al2 Mg0 3.105878 1_555
Al2 Mg8 3.120275 1_655
Al2 Mg7 3.165620 1_555
Al2 Mg12 3.186972 1_655
Al2 Mg1 3.233795 1_555
Al3 Al5 2.698707 1_545
Al3 Al8 2.806614 1_555
Al3 Mg9 2.893247 1_555
Al3 In0 2.897013 1_555
Al3 Mg4 2.981825 1_555
Al3 Mg2 3.051404 1_555
Al3 Mg7 3.072384 1_555
Al3 Mg6 3.144554 1_545
Al3 Mg11 3.176426 1_555
Al3 Mg8 3.193356 1_546
Al3 Mg1 3.276735 1_446
Al4 Al5 2.778337 1_654
Al4 Mg15 2.916366 1_555
Al4 Mg16 2.965672 1_655
Al4 Mg9 2.990086 1_555
Al4 Mg0 3.089009 1_555
Al4 Mg8 3.109269 1_655
Al4 Mg7 3.169093 1_555
Al4 Mg1 3.200218 1_555
Al4 Mg12 3.221041 1_655
Al5 Mg14 2.916735 1_555
Al5 Mg16 2.965287 1_556
Al5 Mg10 2.987789 1_555
Al5 Mg2 3.097976 1_565
Al5 Mg8 3.115953 1_556
Al5 Mg1 3.206249 1_456
Al5 Mg11 3.216696 1_565
Al5 Mg6 3.233321 1_555
Al6 Al8 2.698707 1_655
Al6 Al7 2.778337 1_546
Al6 Mg7 2.916735 1_555
Al6 Mg5 2.965287 1_556
Al6 Mg11 2.987789 1_555
Al6 Mg2 3.097976 1_655
Al6 Mg13 3.115953 1_556
Al6 Mg1 3.206249 1_546
Al6 Mg10 3.216696 1_655
Al6 Mg15 3.233321 1_555
Al7 Al9 2.706305 1_555
Al7 Mg6 2.916366 1_555
Al7 Mg5 2.965672 1_565
Al7 Mg12 2.990086 1_555
Al7 Mg0 3.089009 1_555
Al7 Mg13 3.109269 1_565
Al7 Mg14 3.169093 1_555
Al7 Mg1 3.200218 1_555
Al7 Mg9 3.221041 1_565
Al8 Mg12 2.893247 1_555
Al8 In0 2.897013 1_555
Al8 Mg4 2.981825 1_555
Al8 Mg2 3.051404 1_555
Al8 Mg14 3.072384 1_555
Al8 Mg15 3.144554 1_455
Al8 Mg10 3.176426 1_555
Al8 Mg13 3.193356 1_456
Al8 Mg1 3.276735 1_446
Al9 Mg11 2.922467 1_565
Al9 Mg3 2.983026 1_555
Al9 Mg15 3.003069 1_565
Al9 Mg0 3.105878 1_555
Al9 Mg13 3.120275 1_565
Al9 Mg14 3.165620 1_555
Al9 Mg9 3.186972 1_565
Al9 Mg1 3.233795 1_555
Al10 Al7 2.761887 1_556
Al10 Al6 2.767422 1_565
Al10 Mg16 2.904087 1_556
Al10 Mg11 3.000873 1_565
Al10 Mg12 3.005873 1_556
Al10 Mg0 3.104956 1_556
Al10 Mg2 3.139240 1_665
Al10 Mg3 3.159523 1_555
Al10 Mg1 3.198350 1_556
Al10 Mg4 3.200918 1_556
In0 Mg3 2.947429 1_555
In0 Mg7 3.038916 1_555
In0 Mg14 3.038916 1_555
In0 Mg8 3.175178 1_546
In0 Mg13 3.175178 1_456
In0 Mg5 3.197332 1_556
In0 Mg16 3.197332 1_556
In0 Mg1 3.320457 1_446
