# generated using pymatgen
data_LiFeCl4
_symmetry_space_group_name_H-M   'P 1'
_cell_length_a   6.47820667
_cell_length_b   7.05901348
_cell_length_c   12.80871328
_cell_angle_alpha   86.84031568
_cell_angle_beta   90.00000000
_cell_angle_gamma   90.00000000
_symmetry_Int_Tables_number   1
_chemical_formula_structural   LiFeCl4
_chemical_formula_sum   'Li4 Fe4 Cl16'
_cell_volume   584.84878938
_cell_formula_units_Z   4
loop_
 _symmetry_equiv_pos_site_id
 _symmetry_equiv_pos_as_xyz
  1  'x, y, z'
loop_
 _atom_site_type_symbol
 _atom_site_label
 _atom_site_symmetry_multiplicity
 _atom_site_fract_x
 _atom_site_fract_y
 _atom_site_fract_z
 _atom_site_occupancy
  Li  Li0  1  0.48682316  0.85696787  0.86984691  1
  Li  Li1  1  0.51317684  0.14303213  0.13015309  1
  Li  Li2  1  0.98682316  0.14303213  0.63015309  1
  Li  Li3  1  0.01317684  0.85696787  0.36984691  1
  Fe  Fe0  1  0.17656194  0.70393593  0.60144256  1
  Fe  Fe1  1  0.82343806  0.29606407  0.39855744  1
  Fe  Fe2  1  0.67656194  0.29606407  0.89855744  1
  Fe  Fe3  1  0.32343806  0.70393593  0.10144256  1
  Cl  Cl0  1  0.17368117  0.43071017  0.68928473  1
  Cl  Cl1  1  0.82631883  0.56928983  0.31071527  1
  Cl  Cl2  1  0.67368117  0.56928983  0.81071527  1
  Cl  Cl3  1  0.32631883  0.43071017  0.18928473  1
  Cl  Cl4  1  0.31825655  0.93245132  0.69013730  1
  Cl  Cl5  1  0.68174345  0.06754868  0.30986270  1
  Cl  Cl6  1  0.81825655  0.06754868  0.80986270  1
  Cl  Cl7  1  0.18174345  0.93245132  0.19013730  1
  Cl  Cl8  1  0.18051342  0.69095687  0.94733541  1
  Cl  Cl9  1  0.81948658  0.30904313  0.05266459  1
  Cl  Cl10  1  0.68051342  0.30904313  0.55266459  1
  Cl  Cl11  1  0.31948658  0.69095687  0.44733541  1
  Cl  Cl12  1  0.86210653  0.81461414  0.56537322  1
  Cl  Cl13  1  0.13789347  0.18538586  0.43462678  1
  Cl  Cl14  1  0.36210653  0.18538586  0.93462678  1
  Cl  Cl15  1  0.63789347  0.81461414  0.06537322  1
loop_
_geom_bond_atom_site_label_1
_geom_bond_atom_site_label_2
_geom_bond_distance
_geom_bond_site_symmetry_2
Cl0 Fe0 2.178756 1_555
Cl0 Li2 2.516420 1_455
Cl1 Fe1 2.178756 1_555
Cl1 Li3 2.516420 1_655
Cl2 Fe2 2.178756 1_555
Cl2 Li0 2.516420 1_555
Cl3 Fe3 2.178756 1_555
Cl3 Li1 2.516420 1_555
Cl4 Fe0 2.222009 1_555
Cl4 Li0 2.576762 1_555
Cl4 Li2 2.698905 1_465
Cl5 Fe1 2.222009 1_555
Cl5 Li1 2.576762 1_555
Cl5 Li3 2.698905 1_645
Cl6 Fe2 2.222009 1_555
Cl6 Li2 2.576762 1_555
Cl6 Li0 2.698905 1_545
Cl7 Fe3 2.222009 1_555
Cl7 Li3 2.576762 1_555
Cl7 Li1 2.698905 1_565
Cl8 Fe3 2.186767 1_556
Cl8 Li0 2.483501 1_555
Cl9 Fe2 2.186767 1_554
Cl9 Li1 2.483501 1_555
Cl10 Fe1 2.186767 1_555
Cl10 Li2 2.483501 1_555
Cl11 Fe0 2.186767 1_555
Cl11 Li3 2.483501 1_555
Cl12 Fe0 2.221229 1_655
Cl12 Li2 2.632081 1_565
Cl12 Li3 2.690139 1_655
Cl13 Fe1 2.221229 1_455
Cl13 Li3 2.632081 1_545
Cl13 Li2 2.690139 1_455
Cl14 Fe2 2.221229 1_555
Cl14 Li0 2.632081 1_545
Cl14 Li1 2.690139 1_556
Cl15 Fe3 2.221229 1_555
Cl15 Li1 2.632081 1_565
Cl15 Li0 2.690139 1_554
