# generated using pymatgen
data_Mg(NO3)2
_symmetry_space_group_name_H-M   'P 1'
_cell_length_a   14.55934977
_cell_length_b   14.55934977
_cell_length_c   14.55934951
_cell_angle_alpha   43.13335219
_cell_angle_beta   43.13335219
_cell_angle_gamma   43.13335245
_symmetry_Int_Tables_number   1
_chemical_formula_structural   Mg(NO3)2
_chemical_formula_sum   'Mg12 N24 O72'
_cell_volume   1307.95989351
_cell_formula_units_Z   12
loop_
 _symmetry_equiv_pos_site_id
 _symmetry_equiv_pos_as_xyz
  1  'x, y, z'
loop_
 _atom_site_type_symbol
 _atom_site_label
 _atom_site_symmetry_multiplicity
 _atom_site_fract_x
 _atom_site_fract_y
 _atom_site_fract_z
 _atom_site_occupancy
  Mg  Mg0  1  0.00000000  0.50000000  0.50000000  1
  Mg  Mg1  1  0.50000000  0.50000000  0.00000000  1
  Mg  Mg2  1  0.50000000  0.00000000  0.50000000  1
  Mg  Mg3  1  0.00000000  0.00000000  0.00000000  1
  Mg  Mg4  1  0.72360700  0.22218200  0.72804600  1
  Mg  Mg5  1  0.22218200  0.72804600  0.72360700  1
  Mg  Mg6  1  0.72804600  0.72360700  0.22218200  1
  Mg  Mg7  1  0.27639300  0.77781800  0.27195400  1
  Mg  Mg8  1  0.77781800  0.27195400  0.27639300  1
  Mg  Mg9  1  0.27195400  0.27639300  0.77781800  1
  Mg  Mg10  1  0.21242700  0.21242700  0.21242700  1
  Mg  Mg11  1  0.78757300  0.78757300  0.78757300  1
  N  N0  1  0.65159400  0.65159400  0.65159400  1
  N  N1  1  0.34840600  0.34840600  0.34840600  1
  N  N2  1  0.91626900  0.24168500  0.73446100  1
  N  N3  1  0.24168500  0.73446100  0.91626900  1
  N  N4  1  0.73446100  0.91626900  0.24168500  1
  N  N5  1  0.08373100  0.75831500  0.26553900  1
  N  N6  1  0.75831500  0.26553900  0.08373100  1
  N  N7  1  0.26553900  0.08373100  0.75831500  1
  N  N8  1  0.89509100  0.89509100  0.89509100  1
  N  N9  1  0.10490900  0.10490900  0.10490900  1
  N  N10  1  0.55397700  0.55397700  0.55397700  1
  N  N11  1  0.44602300  0.44602300  0.44602300  1
  N  N12  1  0.00499200  0.47515200  0.30109100  1
  N  N13  1  0.47515200  0.30109100  0.00499200  1
  N  N14  1  0.30109100  0.00499200  0.47515200  1
  N  N15  1  0.99500800  0.52484800  0.69890900  1
  N  N16  1  0.52484800  0.69890900  0.99500800  1
  N  N17  1  0.69890900  0.99500800  0.52484800  1
  N  N18  1  0.89957800  0.20038400  0.43235100  1
  N  N19  1  0.20038400  0.43235100  0.89957800  1
  N  N20  1  0.43235100  0.89957800  0.20038400  1
  N  N21  1  0.10042200  0.79961600  0.56764900  1
  N  N22  1  0.79961600  0.56764900  0.10042200  1
  N  N23  1  0.56764900  0.10042200  0.79961600  1
  O  O0  1  0.77216500  0.64539900  0.53627100  1
  O  O1  1  0.64539900  0.53627100  0.77216500  1
  O  O2  1  0.53627100  0.77216500  0.64539900  1
  O  O3  1  0.22783500  0.35460100  0.46372900  1
  O  O4  1  0.35460100  0.46372900  0.22783500  1
  O  O5  1  0.46372900  0.22783500  0.35460100  1
  O  O6  1  0.86773000  0.28557900  0.65819300  1
  O  O7  1  0.28557900  0.65819300  0.86773000  1
  O  O8  1  0.65819300  0.86773000  0.28557900  1
  O  O9  1  0.13227000  0.71442100  0.34180700  1
  O  O10  1  0.71442100  0.34180700  0.13227000  1
  O  O11  1  0.34180700  0.13227000  0.71442100  1
  O  O12  1  0.90813900  0.12844100  0.85592200  1
  O  O13  1  0.12844100  0.85592200  0.90813900  1
  O  O14  1  0.85592200  0.90813900  0.12844100  1
  O  O15  1  0.09186100  0.87155900  0.14407800  1
  O  O16  1  0.87155900  0.14407800  0.09186100  1
  O  O17  1  0.14407800  0.09186100  0.87155900  1
  O  O18  1  0.97357100  0.31050100  0.68956200  1
  O  O19  1  0.31050100  0.68956200  0.97357100  1
  O  O20  1  0.68956200  0.97357100  0.31050100  1
  O  O21  1  0.02642900  0.68949900  0.31043800  1
  O  O22  1  0.68949900  0.31043800  0.02642900  1
  O  O23  1  0.31043800  0.02642900  0.68949900  1
  O  O24  1  0.01101400  0.89924700  0.77522300  1
  O  O25  1  0.89924700  0.77522300  0.01101400  1
  O  O26  1  0.77522300  0.01101400  0.89924700  1
  O  O27  1  0.98898600  0.10075300  0.22477700  1
  O  O28  1  0.10075300  0.22477700  0.98898600  1
  O  O29  1  0.22477700  0.98898600  0.10075300  1
  O  O30  1  0.67198600  0.43612300  0.55374800  1
  O  O31  1  0.43612300  0.55374800  0.67198600  1
  O  O32  1  0.55374800  0.67198600  0.43612300  1
  O  O33  1  0.32801400  0.56387700  0.44625200  1
  O  O34  1  0.56387700  0.44625200  0.32801400  1
  O  O35  1  0.44625200  0.32801400  0.56387700  1
  O  O36  1  0.88305000  0.58877900  0.30687700  1
  O  O37  1  0.58877900  0.30687700  0.88305000  1
  O  O38  1  0.30687700  0.88305000  0.58877900  1
  O  O39  1  0.11695000  0.41122100  0.69312300  1
  O  O40  1  0.41122100  0.69312300  0.11695000  1
  O  O41  1  0.69312300  0.11695000  0.41122100  1
  O  O42  1  0.06135800  0.41297300  0.23045400  1
  O  O43  1  0.41297300  0.23045400  0.06135800  1
  O  O44  1  0.23045400  0.06135800  0.41297300  1
  O  O45  1  0.93864200  0.58702700  0.76954600  1
  O  O46  1  0.58702700  0.76954600  0.93864200  1
  O  O47  1  0.76954600  0.93864200  0.58702700  1
  O  O48  1  0.07025500  0.42511700  0.36516400  1
  O  O49  1  0.42511700  0.36516400  0.07025500  1
  O  O50  1  0.36516400  0.07025500  0.42511700  1
  O  O51  1  0.92974500  0.57488300  0.63483600  1
  O  O52  1  0.57488300  0.63483600  0.92974500  1
  O  O53  1  0.63483600  0.92974500  0.57488300  1
  O  O54  1  0.89634300  0.17158400  0.53981800  1
  O  O55  1  0.17158400  0.53981800  0.89634300  1
  O  O56  1  0.53981800  0.89634300  0.17158400  1
  O  O57  1  0.10365700  0.82841600  0.46018200  1
  O  O58  1  0.82841600  0.46018200  0.10365700  1
  O  O59  1  0.46018200  0.10365700  0.82841600  1
  O  O60  1  0.01438700  0.20379000  0.31140900  1
  O  O61  1  0.20379000  0.31140900  0.01438700  1
  O  O62  1  0.31140900  0.01438700  0.20379000  1
  O  O63  1  0.98561300  0.79621000  0.68859100  1
  O  O64  1  0.79621000  0.68859100  0.98561300  1
  O  O65  1  0.68859100  0.98561300  0.79621000  1
  O  O66  1  0.78827900  0.22430100  0.44532300  1
  O  O67  1  0.22430100  0.44532300  0.78827900  1
  O  O68  1  0.44532300  0.78827900  0.22430100  1
  O  O69  1  0.21172100  0.77569900  0.55467700  1
  O  O70  1  0.77569900  0.55467700  0.21172100  1
  O  O71  1  0.55467700  0.21172100  0.77569900  1
loop_
_geom_bond_atom_site_label_1
_geom_bond_atom_site_label_2
_geom_bond_distance
_geom_bond_site_symmetry_2
Mg0 O21 2.064697 1_555
Mg0 O18 2.064697 1_455
Mg0 O3 2.142324 1_555
Mg0 O0 2.142324 1_455
Mg0 O51 2.157355 1_455
Mg0 O48 2.157355 1_555
Mg1 O22 2.064697 1_555
Mg1 O19 2.064697 1_554
Mg1 O4 2.142324 1_555
Mg1 O1 2.142324 1_554
Mg1 O52 2.157355 1_554
Mg1 O49 2.157355 1_555
Mg2 O23 2.064697 1_555
Mg2 O20 2.064697 1_545
Mg2 O5 2.142324 1_555
Mg2 O2 2.142324 1_545
Mg2 O53 2.157355 1_545
Mg2 O50 2.157355 1_555
Mg3 O15 2.098829 1_545
Mg3 O12 2.098829 1_454
Mg3 O16 2.098829 1_455
Mg3 O13 2.098829 1_544
Mg3 O17 2.098829 1_554
Mg3 O14 2.098829 1_445
Mg4 O26 2.099268 1_555
Mg4 O71 2.110856 1_555
Mg4 O37 2.128336 1_555
Mg4 O30 2.130018 1_555
Mg4 O54 2.135662 1_555
Mg4 O6 2.152055 1_555
Mg5 O24 2.099268 1_555
Mg5 O69 2.110856 1_555
Mg5 O38 2.128336 1_555
Mg5 O31 2.130018 1_555
Mg5 O55 2.135662 1_555
Mg5 O7 2.152055 1_555
Mg6 O25 2.099268 1_555
Mg6 O70 2.110856 1_555
Mg6 O36 2.128336 1_555
Mg6 O32 2.130018 1_555
Mg6 O56 2.135662 1_555
Mg6 O8 2.152055 1_555
Mg7 O29 2.099268 1_555
Mg7 O68 2.110856 1_555
Mg7 O40 2.128336 1_555
Mg7 O33 2.130018 1_555
Mg7 O57 2.135662 1_555
Mg7 O9 2.152055 1_555
Mg8 O27 2.099268 1_555
Mg8 O66 2.110856 1_555
Mg8 O41 2.128336 1_555
Mg8 O34 2.130018 1_555
Mg8 O58 2.135662 1_555
Mg8 O10 2.152055 1_555
Mg9 O28 2.099268 1_555
Mg9 O67 2.110856 1_555
Mg9 O39 2.128336 1_555
Mg9 O35 2.130018 1_555
Mg9 O59 2.135662 1_555
Mg9 O11 2.152055 1_555
Mg10 O44 2.081987 1_555
Mg10 O43 2.081987 1_555
Mg10 O42 2.081987 1_555
Mg10 O61 2.146225 1_555
Mg10 O62 2.146225 1_555
Mg10 O60 2.146225 1_555
Mg11 O47 2.081987 1_555
Mg11 O46 2.081987 1_555
Mg11 O45 2.081987 1_555
Mg11 O64 2.146225 1_555
Mg11 O65 2.146225 1_555
Mg11 O63 2.146225 1_555
N0 O1 1.263690 1_555
N0 O0 1.263690 1_555
N0 O2 1.263690 1_555
N1 O4 1.263690 1_555
N1 O3 1.263690 1_555
N1 O5 1.263690 1_555
N2 O12 1.258365 1_555
N2 O6 1.261461 1_555
N2 O18 1.263039 1_555
N3 O13 1.258365 1_555
N3 O7 1.261461 1_555
N3 O19 1.263039 1_555
N4 O14 1.258365 1_555
N4 O8 1.261461 1_555
N4 O20 1.263039 1_555
N5 O15 1.258365 1_555
N5 O9 1.261461 1_555
N5 O21 1.263039 1_555
N6 O16 1.258365 1_555
N6 O10 1.261461 1_555
N6 O22 1.263039 1_555
N7 O17 1.258365 1_555
N7 O11 1.261461 1_555
N7 O23 1.263039 1_555
N8 O24 1.262473 1_655
N8 O25 1.262473 1_556
N8 O26 1.262473 1_565
N9 O27 1.262473 1_455
N9 O28 1.262473 1_554
N9 O29 1.262473 1_545
N10 O31 1.262289 1_555
N10 O32 1.262289 1_555
N10 O30 1.262289 1_555
N11 O34 1.262289 1_555
N11 O35 1.262289 1_555
N11 O33 1.262289 1_555
N12 O42 1.262297 1_555
N12 O36 1.262650 1_455
N12 O48 1.263076 1_555
N13 O43 1.262297 1_555
N13 O37 1.262650 1_554
N13 O49 1.263076 1_555
N14 O44 1.262297 1_555
N14 O38 1.262650 1_545
N14 O50 1.263076 1_555
N15 O45 1.262297 1_555
N15 O39 1.262650 1_655
N15 O51 1.263076 1_555
N16 O46 1.262297 1_555
N16 O40 1.262650 1_556
N16 O52 1.263076 1_555
N17 O47 1.262297 1_555
N17 O41 1.262650 1_565
N17 O53 1.263076 1_555
N18 O54 1.260903 1_555
N18 O60 1.262833 1_655
N18 O66 1.268268 1_555
N19 O55 1.260903 1_555
N19 O61 1.262833 1_556
N19 O67 1.268268 1_555
N20 O56 1.260903 1_555
N20 O62 1.262833 1_565
N20 O68 1.268268 1_555
N21 O57 1.260903 1_555
N21 O63 1.262833 1_455
N21 O69 1.268268 1_555
N22 O58 1.260903 1_555
N22 O64 1.262833 1_554
N22 O70 1.268268 1_555
N23 O59 1.260903 1_555
N23 O65 1.262833 1_545
N23 O71 1.268268 1_555
