# generated using pymatgen
data_CoH8(ClO2)2
_symmetry_space_group_name_H-M   'P 1'
_cell_length_a   10.79411600
_cell_length_b   6.14696800
_cell_length_c   12.74220457
_cell_angle_alpha   84.88091423
_cell_angle_beta   90.00000000
_cell_angle_gamma   90.00000000
_symmetry_Int_Tables_number   1
_chemical_formula_structural   CoH8(ClO2)2
_chemical_formula_sum   'Co4 H32 Cl8 O16'
_cell_volume   842.08690762
_cell_formula_units_Z   4
loop_
 _symmetry_equiv_pos_site_id
 _symmetry_equiv_pos_as_xyz
  1  'x, y, z'
loop_
 _atom_site_type_symbol
 _atom_site_label
 _atom_site_symmetry_multiplicity
 _atom_site_fract_x
 _atom_site_fract_y
 _atom_site_fract_z
 _atom_site_occupancy
  Co  Co0  1  0.62294100  0.09938200  0.74893700  1
  Co  Co1  1  0.12294100  0.90061800  0.75106300  1
  Co  Co2  1  0.37705900  0.90061800  0.25106300  1
  Co  Co3  1  0.87705900  0.09938200  0.24893700  1
  H  H0  1  0.71551500  0.45628800  0.63335000  1
  H  H1  1  0.21551500  0.54371200  0.86665000  1
  H  H2  1  0.28448500  0.54371200  0.36665000  1
  H  H3  1  0.78448500  0.45628800  0.13335000  1
  H  H4  1  0.76350600  0.85354300  0.67352800  1
  H  H5  1  0.26350600  0.14645700  0.82647200  1
  H  H6  1  0.23649400  0.14645700  0.32647200  1
  H  H7  1  0.73649400  0.85354300  0.17352800  1
  H  H8  1  0.39078900  0.04583800  0.72470400  1
  H  H9  1  0.89078900  0.95416200  0.77529600  1
  H  H10  1  0.60921100  0.95416200  0.27529600  1
  H  H11  1  0.10921100  0.04583800  0.22470400  1
  H  H12  1  0.62460800  0.04360500  0.94944900  1
  H  H13  1  0.12460800  0.95639500  0.55055100  1
  H  H14  1  0.37539200  0.95639500  0.05055100  1
  H  H15  1  0.87539200  0.04360500  0.44944900  1
  H  H16  1  0.30336100  0.40587400  0.57038200  1
  H  H17  1  0.80336100  0.59412600  0.92961800  1
  H  H18  1  0.69663900  0.59412600  0.42961800  1
  H  H19  1  0.19663900  0.40587400  0.07038200  1
  H  H20  1  0.49240500  0.99749200  0.52895300  1
  H  H21  1  0.99240500  0.00250800  0.97104700  1
  H  H22  1  0.50759500  0.00250800  0.47104700  1
  H  H23  1  0.00759500  0.99749200  0.02895300  1
  H  H24  1  0.48266700  0.77951900  0.07893500  1
  H  H25  1  0.98266700  0.22048100  0.42106500  1
  H  H26  1  0.51733300  0.22048100  0.92106500  1
  H  H27  1  0.01733300  0.77951900  0.57893500  1
  H  H28  1  0.25387900  0.55549500  0.74607000  1
  H  H29  1  0.75387900  0.44450500  0.75393000  1
  H  H30  1  0.74612100  0.44450500  0.25393000  1
  H  H31  1  0.24612100  0.55549500  0.24607000  1
  Cl  Cl0  1  0.88273600  0.47011500  0.88253000  1
  Cl  Cl1  1  0.38273600  0.52988500  0.61747000  1
  Cl  Cl2  1  0.11726400  0.52988500  0.11747000  1
  Cl  Cl3  1  0.61726400  0.47011500  0.38253000  1
  Cl  Cl4  1  0.82575400  0.74023400  0.52904500  1
  Cl  Cl5  1  0.32575400  0.25976600  0.97095500  1
  Cl  Cl6  1  0.17424600  0.25976600  0.47095500  1
  Cl  Cl7  1  0.67424600  0.74023400  0.02904500  1
  O  O0  1  0.68906000  0.40078500  0.70447800  1
  O  O1  1  0.18906000  0.59921500  0.79552200  1
  O  O2  1  0.31094000  0.59921500  0.29552200  1
  O  O3  1  0.81094000  0.40078500  0.20447800  1
  O  O4  1  0.75604000  0.92112800  0.74087900  1
  O  O5  1  0.25604000  0.07887200  0.75912100  1
  O  O6  1  0.24396000  0.07887200  0.25912100  1
  O  O7  1  0.74396000  0.92112800  0.24087900  1
  O  O8  1  0.48088000  0.00418100  0.71074800  1
  O  O9  1  0.98088000  0.99581900  0.78925200  1
  O  O10  1  0.51912000  0.99581900  0.28925200  1
  O  O11  1  0.01912000  0.00418100  0.21074800  1
  O  O12  1  0.60155700  0.17298100  0.90007900  1
  O  O13  1  0.10155700  0.82701900  0.59992100  1
  O  O14  1  0.39844300  0.82701900  0.09992100  1
  O  O15  1  0.89844300  0.17298100  0.40007900  1
loop_
_geom_bond_atom_site_label_1
_geom_bond_atom_site_label_2
_geom_bond_distance
_geom_bond_site_symmetry_2
Co0 O8 1.726688 1_555
Co0 O4 1.815294 1_545
Co0 O0 2.018798 1_555
Co0 O12 2.030384 1_555
Co1 O9 1.726688 1_455
Co1 O5 1.815294 1_565
Co1 O1 2.018798 1_555
Co1 O13 2.030384 1_555
Co2 O10 1.726688 1_555
Co2 O6 1.815294 1_565
Co2 O2 2.018798 1_555
Co2 O14 2.030384 1_555
Co3 O11 1.726688 1_655
Co3 O7 1.815294 1_545
Co3 O3 2.018798 1_555
Co3 O15 2.030384 1_555
H0 O0 0.981933 1_555
H1 O1 0.981933 1_555
H2 O2 0.981933 1_555
H3 O3 0.981933 1_555
H4 O4 0.989555 1_555
H5 O5 0.989555 1_555
H6 O6 0.989555 1_555
H7 O7 0.989555 1_555
H8 O8 1.025174 1_555
H8 O5 1.537858 1_555
H9 O9 1.025174 1_555
H9 O4 1.537858 1_555
H10 O10 1.025174 1_555
H10 O7 1.537858 1_555
H11 O11 1.025174 1_555
H11 O6 1.537858 1_555
H12 O12 1.000415 1_555
H13 O13 1.000415 1_555
H14 O14 1.000415 1_555
H15 O15 1.000415 1_555
H20 H22 0.753789 1_565
H21 H23 0.753789 1_646
H24 O14 0.998598 1_555
H25 O15 0.998598 1_555
H26 O12 0.998598 1_555
H27 O13 0.998598 1_555
H28 O1 0.994502 1_555
H29 O0 0.994502 1_555
H30 O3 0.994502 1_555
H31 O2 0.994502 1_555
Cl0 H17 1.325440 1_555
Cl1 H16 1.325440 1_555
Cl2 H19 1.325440 1_555
Cl3 H18 1.325440 1_555
