# generated using pymatgen
data_Li7Mn2(CoO4)3
_symmetry_space_group_name_H-M   'P 1'
_cell_length_a   7.81972381
_cell_length_b   7.81972381
_cell_length_c   10.31338705
_cell_angle_alpha   70.45058318
_cell_angle_beta   70.45058318
_cell_angle_gamma   21.38149784
_symmetry_Int_Tables_number   1
_chemical_formula_structural   Li7Mn2(CoO4)3
_chemical_formula_sum   'Li7 Mn2 Co3 O12'
_cell_volume   216.17629378
_cell_formula_units_Z   1
loop_
 _symmetry_equiv_pos_site_id
 _symmetry_equiv_pos_as_xyz
  1  'x, y, z'
loop_
 _atom_site_type_symbol
 _atom_site_label
 _atom_site_symmetry_multiplicity
 _atom_site_fract_x
 _atom_site_fract_y
 _atom_site_fract_z
 _atom_site_occupancy
  Li  Li0  1  0.50298500  0.50298500  0.75442600  1
  Li  Li1  1  0.50094800  0.50094800  0.24539400  1
  Li  Li2  1  0.16733800  0.16733800  0.59938300  1
  Li  Li3  1  0.17192000  0.17192000  0.06737800  1
  Li  Li4  1  0.83010400  0.83010400  0.91488200  1
  Li  Li5  1  0.82950300  0.82950300  0.42145800  1
  Li  Li6  1  0.66412400  0.66412400  0.83178700  1
  Mn  Mn0  1  0.00546300  0.00546300  0.99205400  1
  Mn  Mn1  1  0.99787200  0.99787200  0.50163400  1
  Co  Co0  1  0.66938100  0.66938100  0.33018200  1
  Co  Co1  1  0.31965700  0.31965700  0.68615400  1
  Co  Co2  1  0.33459000  0.33459000  0.16597800  1
  O  O0  1  0.42537000  0.42537000  0.96550700  1
  O  O1  1  0.42794700  0.42794700  0.45941500  1
  O  O2  1  0.07558900  0.07558900  0.80823200  1
  O  O3  1  0.08489900  0.08489900  0.30768600  1
  O  O4  1  0.75164500  0.75164500  0.13133100  1
  O  O5  1  0.75595400  0.75595400  0.62468000  1
  O  O6  1  0.57362100  0.57362100  0.53627600  1
  O  O7  1  0.57429900  0.57429900  0.03758000  1
  O  O8  1  0.24555800  0.24555800  0.36863400  1
  O  O9  1  0.25705200  0.25705200  0.86714400  1
  O  O10  1  0.91634200  0.91634200  0.68750900  1
  O  O11  1  0.91783700  0.91783700  0.19529600  1
loop_
_geom_bond_atom_site_label_1
_geom_bond_atom_site_label_2
_geom_bond_distance
_geom_bond_site_symmetry_2
Li0 O2 2.019627 1_565
Li0 O2 2.019627 1_655
Li0 O0 2.096048 1_555
Li0 O6 2.139374 1_555
Li0 O10 2.231461 1_545
Li0 O10 2.231461 1_455
Li1 O7 2.053983 1_555
Li1 O1 2.108125 1_555
Li1 O11 2.109994 1_545
Li1 O11 2.109994 1_455
Li1 O3 2.178540 1_655
Li1 O3 2.178540 1_565
Li2 O5 2.066153 1_545
Li2 O5 2.066153 1_455
Li2 O2 2.135214 1_555
Li2 O8 2.271595 1_555
Li2 O6 2.289238 1_545
Li2 O6 2.289238 1_455
Li3 O9 2.033764 1_554
Li3 O4 2.142629 1_545
Li3 O4 2.142629 1_455
Li3 O7 2.182536 1_545
Li3 O7 2.182536 1_455
Li3 O3 2.381921 1_555
Li4 O9 1.995875 1_655
Li4 O9 1.995875 1_565
Li4 O4 2.145680 1_556
Li4 O0 2.245204 1_565
Li4 O0 2.245204 1_655
Li4 O10 2.266887 1_555
Li5 O5 2.014192 1_555
Li5 O8 2.131674 1_565
Li5 O8 2.131674 1_655
Li5 O1 2.224798 1_565
Li5 O1 2.224798 1_655
Li5 O11 2.264261 1_555
Li6 O2 2.059048 1_565
Li6 O2 2.059048 1_655
Li6 O7 2.101156 1_556
Li6 O5 2.121560 1_555
Li6 O9 2.152083 1_655
Li6 O9 2.152083 1_565
Mn0 O2 1.834148 1_555
Mn0 O7 1.944770 1_456
Mn0 O7 1.944770 1_546
Mn0 O0 1.980862 1_545
Mn0 O0 1.980862 1_455
Mn0 O11 2.069949 1_446
Mn1 O10 1.899720 1_555
Mn1 O1 1.940965 1_655
Mn1 O1 1.940965 1_565
Mn1 O6 1.967323 1_655
Mn1 O6 1.967323 1_565
Mn1 O3 1.991929 1_665
Co0 O8 1.987025 1_565
Co0 O8 1.987025 1_655
Co0 O4 2.009571 1_555
Co0 O3 2.012191 1_565
Co0 O3 2.012191 1_655
Co0 O6 2.133828 1_555
Co1 O9 1.785165 1_555
Co1 O5 1.971650 1_545
Co1 O5 1.971650 1_455
Co1 O10 2.080000 1_455
Co1 O10 2.080000 1_545
Co1 O1 2.363779 1_555
Co2 O11 2.023831 1_455
Co2 O11 2.023831 1_545
Co2 O4 2.041336 1_455
Co2 O4 2.041336 1_545
Co2 O0 2.063141 1_554
Co2 O8 2.071916 1_555
