# generated using pymatgen
data_BaMg6Cd
_symmetry_space_group_name_H-M   'P 1'
_cell_length_a   5.20780200
_cell_length_b   6.91141500
_cell_length_c   12.20686800
_cell_angle_alpha   90.00000000
_cell_angle_beta   90.00000000
_cell_angle_gamma   90.00000000
_symmetry_Int_Tables_number   1
_chemical_formula_structural   BaMg6Cd
_chemical_formula_sum   'Ba2 Mg12 Cd2'
_cell_volume   439.36522834
_cell_formula_units_Z   2
loop_
 _symmetry_equiv_pos_site_id
 _symmetry_equiv_pos_as_xyz
  1  'x, y, z'
loop_
 _atom_site_type_symbol
 _atom_site_label
 _atom_site_symmetry_multiplicity
 _atom_site_fract_x
 _atom_site_fract_y
 _atom_site_fract_z
 _atom_site_occupancy
  Ba  Ba0  1  0.50000000  0.50000000  0.66911600  1
  Ba  Ba1  1  0.50000000  0.00000000  0.16911600  1
  Mg  Mg0  1  0.50000000  0.74021100  0.92088500  1
  Mg  Mg1  1  0.50000000  0.25978900  0.92088500  1
  Mg  Mg2  1  0.00000000  0.22572200  0.57599700  1
  Mg  Mg3  1  0.00000000  0.77427800  0.57599700  1
  Mg  Mg4  1  0.00000000  0.50000000  0.84953200  1
  Mg  Mg5  1  0.00000000  0.00000000  0.83091500  1
  Mg  Mg6  1  0.50000000  0.24021100  0.42088500  1
  Mg  Mg7  1  0.50000000  0.75978900  0.42088500  1
  Mg  Mg8  1  0.00000000  0.72572200  0.07599700  1
  Mg  Mg9  1  0.00000000  0.27427800  0.07599700  1
  Mg  Mg10  1  0.00000000  0.00000000  0.34953200  1
  Mg  Mg11  1  0.00000000  0.50000000  0.33091500  1
  Cd  Cd0  1  0.50000000  0.00000000  0.65666900  1
  Cd  Cd1  1  0.50000000  0.50000000  0.15666900  1
loop_
_geom_bond_atom_site_label_1
_geom_bond_atom_site_label_2
_geom_bond_distance
_geom_bond_site_symmetry_2
Ba0 Mg4 3.410350 1_555
Ba0 Mg4 3.410350 1_655
Ba0 Mg3 3.415531 1_655
Ba0 Mg3 3.415531 1_555
Ba0 Mg2 3.415531 1_555
Ba0 Mg2 3.415531 1_655
Ba0 Cd0 3.459046 1_565
Ba0 Cd0 3.459046 1_555
Ba0 Mg0 3.493064 1_555
Ba0 Mg1 3.493064 1_555
Ba0 Mg7 3.522144 1_555
Ba0 Mg6 3.522144 1_555
Ba1 Mg10 3.410350 1_555
Ba1 Mg10 3.410350 1_655
Ba1 Mg9 3.415531 1_555
Ba1 Mg9 3.415531 1_655
Ba1 Mg8 3.415531 1_545
Ba1 Mg8 3.415531 1_645
Ba1 Cd1 3.459046 1_555
Ba1 Cd1 3.459046 1_545
Ba1 Mg6 3.493064 1_555
Ba1 Mg7 3.493064 1_545
Ba1 Mg1 3.522144 1_554
Ba1 Mg0 3.522144 1_544
Mg0 Mg4 3.208612 1_655
Mg0 Mg4 3.208612 1_555
Mg0 Mg8 3.221089 1_656
Mg0 Mg8 3.221089 1_556
Mg0 Mg1 3.320396 1_555
Mg0 Mg5 3.348180 1_665
Mg0 Mg5 3.348180 1_565
Mg1 Mg4 3.208612 1_655
Mg1 Mg4 3.208612 1_555
Mg1 Mg9 3.221089 1_556
Mg1 Mg9 3.221089 1_656
Mg1 Mg5 3.348180 1_655
Mg1 Mg5 3.348180 1_555
Mg2 Mg6 3.221089 1_455
Mg2 Mg6 3.221089 1_555
Mg3 Mg7 3.221089 1_455
Mg3 Mg7 3.221089 1_555
Mg4 Mg8 3.174247 1_556
Mg4 Mg9 3.174247 1_556
Mg4 Mg5 3.463172 1_565
Mg4 Mg5 3.463172 1_555
Mg6 Mg7 3.320396 1_545
Mg10 Mg2 3.174247 1_555
Mg10 Mg3 3.174247 1_545
Mg10 Mg6 3.208612 1_555
Mg10 Mg6 3.208612 1_455
Mg10 Mg7 3.208612 1_545
Mg10 Mg7 3.208612 1_445
Mg10 Mg11 3.463172 1_545
Mg10 Mg11 3.463172 1_555
Mg11 Mg7 3.348180 1_555
Mg11 Mg7 3.348180 1_455
Mg11 Mg6 3.348180 1_455
Mg11 Mg6 3.348180 1_555
Cd0 Mg2 3.191210 1_555
Cd0 Mg2 3.191210 1_655
Cd0 Mg3 3.191210 1_645
Cd0 Mg3 3.191210 1_545
Cd0 Mg6 3.322680 1_555
Cd0 Mg7 3.322680 1_545
Cd0 Mg5 3.362205 1_655
Cd0 Mg5 3.362205 1_555
Cd1 Mg8 3.191210 1_555
Cd1 Mg8 3.191210 1_655
Cd1 Mg9 3.191210 1_555
Cd1 Mg9 3.191210 1_655
Cd1 Mg1 3.322680 1_554
Cd1 Mg0 3.322680 1_554
Cd1 Mg11 3.362205 1_655
Cd1 Mg11 3.362205 1_555
