# generated using pymatgen
data_NaNpH2SeO7
_symmetry_space_group_name_H-M   'P 1'
_cell_length_a   5.84738600
_cell_length_b   9.87600759
_cell_length_c   24.38864093
_cell_angle_alpha   79.31877595
_cell_angle_beta   83.11486379
_cell_angle_gamma   72.78009094
_symmetry_Int_Tables_number   1
_chemical_formula_structural   NaNpH2SeO7
_chemical_formula_sum   'Na8 Np8 H16 Se8 O56'
_cell_volume   1318.80045331
_cell_formula_units_Z   8
loop_
 _symmetry_equiv_pos_site_id
 _symmetry_equiv_pos_as_xyz
  1  'x, y, z'
loop_
 _atom_site_type_symbol
 _atom_site_label
 _atom_site_symmetry_multiplicity
 _atom_site_fract_x
 _atom_site_fract_y
 _atom_site_fract_z
 _atom_site_occupancy
  Na  Na0  1  0.54577200  0.00685300  0.42385400  1
  Na  Na1  1  0.97647900  0.49314700  0.07614600  1
  Na  Na2  1  0.45422800  0.99314700  0.57614600  1
  Na  Na3  1  0.02352100  0.50685300  0.92385400  1
  Na  Na4  1  0.36467100  0.75000000  0.25000000  1
  Na  Na5  1  0.63532900  0.25000000  0.75000000  1
  Na  Na6  1  0.50000000  0.50000000  0.50000000  1
  Na  Na7  1  0.50000000  0.00000000  0.00000000  1
  Np  Np0  1  0.05345100  0.55496000  0.36147000  1
  Np  Np1  1  0.96988100  0.94504000  0.13853000  1
  Np  Np2  1  0.94654900  0.44504000  0.63853000  1
  Np  Np3  1  0.03011900  0.05496000  0.86147000  1
  Np  Np4  1  0.32298700  0.20459200  0.19203100  1
  Np  Np5  1  0.71961000  0.29540800  0.30796900  1
  Np  Np6  1  0.67701300  0.79540800  0.80796900  1
  Np  Np7  1  0.28039000  0.70459200  0.69203100  1
  H  H0  1  0.45279700  0.43415800  0.09417200  1
  H  H1  1  0.98112600  0.06584200  0.40582800  1
  H  H2  1  0.54720300  0.56584200  0.90582800  1
  H  H3  1  0.01887400  0.93415800  0.59417200  1
  H  H4  1  0.51106200  0.64700000  0.05094000  1
  H  H5  1  0.20900100  0.85300000  0.44906000  1
  H  H6  1  0.48893800  0.35300000  0.94906000  1
  H  H7  1  0.79099900  0.14700000  0.55094000  1
  H  H8  1  0.47770400  0.29553600  0.06605900  1
  H  H9  1  0.83929900  0.20446400  0.43394100  1
  H  H10  1  0.52229600  0.70446400  0.93394100  1
  H  H11  1  0.16070100  0.79553600  0.56605900  1
  H  H12  1  0.47054900  0.65093600  0.11424700  1
  H  H13  1  0.23573200  0.84906400  0.38575300  1
  H  H14  1  0.52945100  0.34906400  0.88575300  1
  H  H15  1  0.76426800  0.15093600  0.61424700  1
  Se  Se0  1  0.13434500  0.29409500  0.49947200  1
  Se  Se1  1  0.92791100  0.20590500  0.00052800  1
  Se  Se2  1  0.86565500  0.70590500  0.50052800  1
  Se  Se3  1  0.07208900  0.79409500  0.99947200  1
  Se  Se4  1  0.71582100  0.92577300  0.28471100  1
  Se  Se5  1  0.92630600  0.57422700  0.21528900  1
  Se  Se6  1  0.28417900  0.07422700  0.71528900  1
  Se  Se7  1  0.07369400  0.42577300  0.78471100  1
  O  O0  1  0.27593500  0.82221700  0.14501700  1
  O  O1  1  0.24316900  0.67778300  0.35498300  1
  O  O2  1  0.72406500  0.17778300  0.85498300  1
  O  O3  1  0.75683100  0.32221700  0.64501700  1
  O  O4  1  0.21366600  0.42334700  0.45226100  1
  O  O5  1  0.08927400  0.07665300  0.04773900  1
  O  O6  1  0.78633400  0.57665300  0.54773900  1
  O  O7  1  0.91072600  0.92334700  0.95226100  1
  O  O8  1  0.12325600  0.57507500  0.25997600  1
  O  O9  1  0.95830800  0.92492500  0.24002400  1
  O  O10  1  0.87674400  0.42492500  0.74002400  1
  O  O11  1  0.04169200  0.07507500  0.75997600  1
  O  O12  1  0.35980000  0.79751300  0.99513700  1
  O  O13  1  0.15245000  0.70248700  0.50486300  1
  O  O14  1  0.64020000  0.20248700  0.00486300  1
  O  O15  1  0.84755000  0.29751300  0.49513700  1
  O  O16  1  0.41053700  0.36183500  0.34114300  1
  O  O17  1  0.11351500  0.13816500  0.15885700  1
  O  O18  1  0.58946300  0.63816500  0.65885700  1
  O  O19  1  0.88648500  0.86183500  0.84114300  1
  O  O20  1  0.30609800  0.13215700  0.49027200  1
  O  O21  1  0.92852600  0.36784300  0.00972800  1
  O  O22  1  0.69390200  0.86784300  0.50972800  1
  O  O23  1  0.07147400  0.63215700  0.99027200  1
  O  O24  1  0.53830400  0.26402000  0.22676100  1
  O  O25  1  0.02908500  0.23598000  0.27323900  1
  O  O26  1  0.46169600  0.73598000  0.77323900  1
  O  O27  1  0.97091500  0.76402000  0.72676100  1
  O  O28  1  0.38530000  0.35124300  0.09515600  1
  O  O29  1  0.83170000  0.14875700  0.40484400  1
  O  O30  1  0.61470000  0.64875700  0.90484400  1
  O  O31  1  0.16830000  0.85124300  0.59515600  1
  O  O32  1  0.69592200  0.04091500  0.32852500  1
  O  O33  1  0.06536200  0.45908500  0.17147500  1
  O  O34  1  0.30407800  0.95908500  0.67147500  1
  O  O35  1  0.93463800  0.54091500  0.82852500  1
  O  O36  1  0.46219400  0.97410800  0.25059600  1
  O  O37  1  0.68689700  0.52589200  0.24940400  1
  O  O38  1  0.53780600  0.02589200  0.74940400  1
  O  O39  1  0.31310300  0.47410800  0.75059600  1
  O  O40  1  0.65338200  0.06359300  0.13682900  1
  O  O41  1  0.85380500  0.43640700  0.36317100  1
  O  O42  1  0.34661800  0.93640700  0.86317100  1
  O  O43  1  0.14619500  0.56359300  0.63682900  1
  O  O44  1  0.81029000  0.67958000  0.43792800  1
  O  O45  1  0.92779800  0.82042000  0.06207200  1
  O  O46  1  0.18971000  0.32042000  0.56207200  1
  O  O47  1  0.07220200  0.17958000  0.93792800  1
  O  O48  1  0.72698600  0.76263900  0.32004700  1
  O  O49  1  0.80967200  0.73736100  0.17995300  1
  O  O50  1  0.27301400  0.23736100  0.67995300  1
  O  O51  1  0.19032800  0.26263900  0.82004700  1
  O  O52  1  0.55101100  0.58509900  0.08745500  1
  O  O53  1  0.22356500  0.91490100  0.41254500  1
  O  O54  1  0.44898900  0.41490100  0.91254500  1
  O  O55  1  0.77643500  0.08509900  0.58745500  1
loop_
_geom_bond_atom_site_label_1
_geom_bond_atom_site_label_2
_geom_bond_distance
_geom_bond_site_symmetry_2
Na0 O20 2.300292 1_555
Na0 O53 2.383469 1_545
Na0 O32 2.384309 1_555
Na0 O22 2.384609 1_545
Na0 O29 2.436178 1_555
Na1 O21 2.300294 1_555
Na1 O52 2.383469 1_555
Na1 O33 2.384309 1_655
Na1 O23 2.384611 1_654
Na1 O28 2.436173 1_655
Na2 O22 2.300292 1_555
Na2 O55 2.383469 1_565
Na2 O34 2.384309 1_555
Na2 O20 2.384609 1_565
Na2 O31 2.436178 1_555
Na3 O23 2.300294 1_555
Na3 O54 2.383469 1_555
Na3 O35 2.384309 1_455
Na3 O21 2.384611 1_456
Na3 O30 2.436173 1_455
Na4 O37 2.446477 1_555
Na4 O36 2.446480 1_555
Na4 O9 2.498428 1_455
Na4 O8 2.498432 1_555
Na4 O0 2.599233 1_555
Na4 O1 2.599233 1_555
Na4 O48 2.919910 1_555
Na4 O49 2.919910 1_555
Na5 O39 2.446477 1_555
Na5 O38 2.446480 1_555
Na5 O11 2.498428 1_655
Na5 O10 2.498432 1_555
Na5 O2 2.599233 1_555
Na5 O3 2.599233 1_555
Na5 O51 2.919910 1_555
Na5 O50 2.919910 1_555
Na6 O13 2.401477 1_555
Na6 O15 2.401477 1_555
Na6 O6 2.505298 1_555
Na6 O4 2.505298 1_555
Na7 O14 2.401477 1_555
Na7 O12 2.401477 1_544
Na7 O5 2.505298 1_555
Na7 O7 2.505298 1_544
Np0 O1 1.846776 1_555
Np0 O41 1.874850 1_455
Np0 O8 2.440630 1_555
Np0 O16 2.446992 1_555
Np0 O4 2.485889 1_555
Np0 O44 2.488470 1_455
Np0 O48 2.499521 1_455
Np1 O0 1.846776 1_655
Np1 O40 1.874855 1_565
Np1 O9 2.440630 1_555
Np1 O17 2.446992 1_665
Np1 O5 2.485889 1_665
Np1 O45 2.488470 1_555
Np1 O49 2.499521 1_555
Np2 O3 1.846776 1_555
Np2 O43 1.874850 1_655
Np2 O10 2.440630 1_555
Np2 O18 2.446992 1_555
Np2 O6 2.485889 1_555
Np2 O46 2.488470 1_655
Np2 O50 2.499521 1_655
Np3 O2 1.846776 1_455
Np3 O42 1.874855 1_545
Np3 O11 2.440630 1_555
Np3 O19 2.446992 1_445
Np3 O7 2.485889 1_445
Np3 O47 2.488470 1_555
Np3 O51 2.499521 1_555
Np4 O17 1.869594 1_555
Np4 O24 1.877383 1_555
Np4 O36 2.420861 1_545
Np4 O40 2.441827 1_555
Np4 O25 2.463376 1_555
Np4 O33 2.511964 1_555
Np4 O28 2.578783 1_555
Np5 O16 1.869594 1_555
Np5 O25 1.877383 1_655
Np5 O37 2.420861 1_555
Np5 O41 2.441830 1_555
Np5 O24 2.463376 1_555
Np5 O32 2.511964 1_555
Np5 O29 2.578784 1_555
Np6 O19 1.869594 1_555
Np6 O26 1.877383 1_555
Np6 O38 2.420861 1_565
Np6 O42 2.441827 1_555
Np6 O27 2.463376 1_555
Np6 O35 2.511964 1_555
Np6 O30 2.578783 1_555
Np7 O18 1.869594 1_555
Np7 O27 1.877383 1_455
Np7 O39 2.420861 1_555
Np7 O43 2.441830 1_555
Np7 O26 2.463376 1_555
Np7 O34 2.511964 1_555
Np7 O31 2.578784 1_555
H0 O28 1.004338 1_555
H1 O29 1.004331 1_555
H2 O30 1.004338 1_555
H3 O31 1.004331 1_555
H4 O52 0.992417 1_555
H5 O53 0.992418 1_555
H6 O54 0.992417 1_555
H7 O55 0.992418 1_555
H8 O28 0.987420 1_555
H9 O29 0.987418 1_555
H10 O30 0.987420 1_555
H11 O31 0.987418 1_555
H12 O52 0.986785 1_555
H13 O53 0.986785 1_555
H14 O54 0.986785 1_555
H15 O55 0.986785 1_555
O4 Se0 1.687600 1_555
O5 Se1 1.687603 1_455
O6 Se2 1.687600 1_555
O7 Se3 1.687603 1_655
O8 Se5 1.680523 1_455
O9 Se4 1.680531 1_555
O10 Se7 1.680523 1_655
O11 Se6 1.680531 1_555
O12 Se3 1.682944 1_555
O13 Se2 1.682949 1_455
O14 Se1 1.682944 1_555
O15 Se0 1.682949 1_655
O20 Se0 1.656725 1_555
O21 Se1 1.656725 1_555
O22 Se2 1.656725 1_555
O23 Se3 1.656725 1_555
O32 Se4 1.670551 1_545
O33 Se5 1.670549 1_455
O34 Se6 1.670551 1_565
O35 Se7 1.670549 1_655
O36 Se4 1.687908 1_555
O37 Se5 1.687918 1_555
O38 Se6 1.687908 1_555
O39 Se7 1.687918 1_555
O44 Se2 1.678921 1_555
O45 Se3 1.678923 1_654
O46 Se0 1.678921 1_555
O47 Se1 1.678923 1_456
O48 Se4 1.667084 1_555
O49 Se5 1.667085 1_555
O50 Se6 1.667084 1_555
O51 Se7 1.667085 1_555
