# generated using pymatgen
data_Pr2MgIrO6
_symmetry_space_group_name_H-M   'P 1'
_cell_length_a   5.73049900
_cell_length_b   5.54705800
_cell_length_c   9.66073821
_cell_angle_alpha   54.88350833
_cell_angle_beta   90.00000000
_cell_angle_gamma   90.00000000
_symmetry_Int_Tables_number   1
_chemical_formula_structural   Pr2MgIrO6
_chemical_formula_sum   'Pr4 Mg2 Ir2 O12'
_cell_volume   251.19463800
_cell_formula_units_Z   2
loop_
 _symmetry_equiv_pos_site_id
 _symmetry_equiv_pos_as_xyz
  1  'x, y, z'
loop_
 _atom_site_type_symbol
 _atom_site_label
 _atom_site_symmetry_multiplicity
 _atom_site_fract_x
 _atom_site_fract_y
 _atom_site_fract_z
 _atom_site_occupancy
  Pr  Pr0  1  0.55501800  0.23597100  0.75059200  1
  Pr  Pr1  1  0.94498200  0.23597100  0.25059200  1
  Pr  Pr2  1  0.44498200  0.76402900  0.24940800  1
  Pr  Pr3  1  0.05501800  0.76402900  0.74940800  1
  Mg  Mg0  1  0.50000000  0.00000000  0.50000000  1
  Mg  Mg1  1  0.00000000  0.00000000  0.00000000  1
  Ir  Ir0  1  0.00000000  0.50000000  0.50000000  1
  Ir  Ir1  1  0.50000000  0.50000000  0.00000000  1
  O  O0  1  0.79733200  0.15577100  0.54799300  1
  O  O1  1  0.70266800  0.15577100  0.04799300  1
  O  O2  1  0.20266800  0.84422900  0.45200700  1
  O  O3  1  0.29733200  0.84422900  0.95200700  1
  O  O4  1  0.97303000  0.34356100  0.74766300  1
  O  O5  1  0.52697000  0.34356100  0.24766300  1
  O  O6  1  0.02697000  0.65643900  0.25233700  1
  O  O7  1  0.47303000  0.65643900  0.75233700  1
  O  O8  1  0.29257600  0.25336800  0.54847300  1
  O  O9  1  0.20742400  0.25336800  0.04847300  1
  O  O10  1  0.70742400  0.74663200  0.45152700  1
  O  O11  1  0.79257600  0.74663200  0.95152700  1
loop_
_geom_bond_atom_site_label_1
_geom_bond_atom_site_label_2
_geom_bond_distance
_geom_bond_site_symmetry_2
Mg0 O7 2.062423 1_545
Mg0 O5 2.062423 1_555
Mg0 O0 2.079817 1_555
Mg0 O2 2.079817 1_545
Mg0 O8 2.089170 1_555
Mg0 O10 2.089170 1_545
Mg1 O6 2.062423 1_545
Mg1 O4 2.062423 1_454
Mg1 O1 2.079817 1_455
Mg1 O3 2.079817 1_544
Mg1 O9 2.089170 1_555
Mg1 O11 2.089170 1_444
Ir0 O4 2.028006 1_455
Ir0 O6 2.028006 1_555
Ir0 O8 2.040806 1_555
Ir0 O10 2.040806 1_455
Ir0 O2 2.047263 1_555
Ir0 O0 2.047263 1_455
Ir1 O5 2.028006 1_555
Ir1 O7 2.028006 1_554
Ir1 O11 2.040806 1_554
Ir1 O9 2.040806 1_555
Ir1 O3 2.047263 1_554
Ir1 O1 2.047263 1_555
O0 Pr3 2.413335 1_645
O0 Pr0 2.637931 1_555
O0 Pr1 2.774541 1_555
O1 Pr2 2.413335 1_545
O1 Pr1 2.637931 1_555
O1 Pr0 2.774541 1_554
O2 Pr1 2.413335 1_465
O2 Pr2 2.637931 1_555
O2 Pr3 2.774541 1_555
O3 Pr0 2.413335 1_565
O3 Pr3 2.637931 1_555
O3 Pr2 2.774541 1_556
O4 Pr3 2.388758 1_655
O4 Pr0 2.464868 1_555
O5 Pr2 2.388758 1_555
O5 Pr1 2.464868 1_555
O6 Pr1 2.388758 1_455
O6 Pr2 2.464868 1_555
O7 Pr0 2.388758 1_555
O7 Pr3 2.464868 1_555
O8 Pr0 2.422196 1_555
O8 Pr3 2.631973 1_545
O8 Pr2 2.778220 1_555
O9 Pr1 2.422196 1_455
O9 Pr2 2.631973 1_545
O9 Pr3 2.778220 1_554
O10 Pr2 2.422196 1_555
O10 Pr1 2.631973 1_565
O10 Pr0 2.778220 1_555
O11 Pr3 2.422196 1_655
O11 Pr0 2.631973 1_565
O11 Pr1 2.778220 1_556
