# generated using pymatgen
data_NiPNO10
_symmetry_space_group_name_H-M   'P 1'
_cell_length_a   4.55878300
_cell_length_b   6.41595400
_cell_length_c   14.73906000
_cell_angle_alpha   90.00000000
_cell_angle_beta   90.00000000
_cell_angle_gamma   90.00000000
_symmetry_Int_Tables_number   1
_chemical_formula_structural   NiPNO10
_chemical_formula_sum   'Ni2 P2 N2 O20'
_cell_volume   431.10191143
_cell_formula_units_Z   2
loop_
 _symmetry_equiv_pos_site_id
 _symmetry_equiv_pos_as_xyz
  1  'x, y, z'
loop_
 _atom_site_type_symbol
 _atom_site_label
 _atom_site_symmetry_multiplicity
 _atom_site_fract_x
 _atom_site_fract_y
 _atom_site_fract_z
 _atom_site_occupancy
  Ni  Ni0  1  0.63092000  0.50000000  0.25511100  1
  Ni  Ni1  1  0.36908000  0.00000000  0.75511100  1
  P  P0  1  0.06164700  0.50000000  0.48447300  1
  P  P1  1  0.93835300  0.00000000  0.98447300  1
  N  N0  1  0.63055700  0.50000000  0.80640700  1
  N  N1  1  0.36944300  0.00000000  0.30640700  1
  O  O0  1  0.83755400  0.50000000  0.76448300  1
  O  O1  1  0.16244600  0.00000000  0.26448300  1
  O  O2  1  0.36138400  0.73678300  0.76143800  1
  O  O3  1  0.63861600  0.76321700  0.26143800  1
  O  O4  1  0.63861600  0.23678300  0.26143800  1
  O  O5  1  0.36138400  0.26321700  0.76143800  1
  O  O6  1  0.21947500  0.50000000  0.28231600  1
  O  O7  1  0.78052500  0.00000000  0.78231600  1
  O  O8  1  0.02511300  0.79942300  0.94044600  1
  O  O9  1  0.97488700  0.70057700  0.44044600  1
  O  O10  1  0.97488700  0.29942300  0.44044600  1
  O  O11  1  0.02511300  0.20057700  0.94044600  1
  O  O12  1  0.03972700  0.50000000  0.21382700  1
  O  O13  1  0.96027300  0.00000000  0.71382700  1
  O  O14  1  0.50988500  0.90481200  0.53423400  1
  O  O15  1  0.49011500  0.59518800  0.03423400  1
  O  O16  1  0.49011500  0.40481200  0.03423400  1
  O  O17  1  0.50988500  0.09518800  0.53423400  1
  O  O18  1  0.23628000  0.50000000  0.56992900  1
  O  O19  1  0.76372000  0.00000000  0.06992900  1
loop_
_geom_bond_atom_site_label_1
_geom_bond_atom_site_label_2
_geom_bond_distance
_geom_bond_site_symmetry_2
Ni0 O3 1.691725 1_555
Ni0 O4 1.691725 1_555
Ni0 O6 1.918069 1_555
Ni0 O12 1.960483 1_655
Ni1 O5 1.691725 1_555
Ni1 O2 1.691725 1_545
Ni1 O7 1.918069 1_555
Ni1 O13 1.960483 1_455
N0 O0 1.127967 1_555
N1 O1 1.127967 1_555
O8 P1 1.494531 1_465
O9 P0 1.494531 1_655
O10 P0 1.494531 1_655
O11 P1 1.494531 1_455
O12 O6 1.300187 1_555
O13 O7 1.300187 1_555
O14 O17 1.221444 1_565
O15 O16 1.221444 1_555
O18 P0 1.490047 1_555
O19 P1 1.490047 1_554
