# generated using pymatgen
data_Ca2AsH4F13
_symmetry_space_group_name_H-M   'P 1'
_cell_length_a   7.31208100
_cell_length_b   7.31208100
_cell_length_c   17.78044700
_cell_angle_alpha   90.00000000
_cell_angle_beta   90.00000000
_cell_angle_gamma   90.00000000
_symmetry_Int_Tables_number   1
_chemical_formula_structural   Ca2AsH4F13
_chemical_formula_sum   'Ca8 As4 H16 F52'
_cell_volume   950.65877717
_cell_formula_units_Z   4
loop_
 _symmetry_equiv_pos_site_id
 _symmetry_equiv_pos_as_xyz
  1  'x, y, z'
loop_
 _atom_site_type_symbol
 _atom_site_label
 _atom_site_symmetry_multiplicity
 _atom_site_fract_x
 _atom_site_fract_y
 _atom_site_fract_z
 _atom_site_occupancy
  Ca  Ca0  1  0.27865100  0.25590900  0.78531100  1
  Ca  Ca1  1  0.72134900  0.74409100  0.28531100  1
  Ca  Ca2  1  0.74409100  0.27865100  0.53531100  1
  Ca  Ca3  1  0.25590900  0.72134900  0.03531100  1
  Ca  Ca4  1  0.72134900  0.25590900  0.21468900  1
  Ca  Ca5  1  0.27865100  0.74409100  0.71468900  1
  Ca  Ca6  1  0.25590900  0.27865100  0.46468900  1
  Ca  Ca7  1  0.74409100  0.72134900  0.96468900  1
  As  As0  1  0.78316400  0.00000000  0.75000000  1
  As  As1  1  0.21683600  0.00000000  0.25000000  1
  As  As2  1  0.00000000  0.78316400  0.50000000  1
  As  As3  1  0.00000000  0.21683600  0.00000000  1
  H  H0  1  0.46530900  0.38368200  0.93938900  1
  H  H1  1  0.53469100  0.61631800  0.43938900  1
  H  H2  1  0.61631800  0.46530900  0.68938900  1
  H  H3  1  0.38368200  0.53469100  0.18938900  1
  H  H4  1  0.53469100  0.38368200  0.06061100  1
  H  H5  1  0.46530900  0.61631800  0.56061100  1
  H  H6  1  0.38368200  0.46530900  0.31061100  1
  H  H7  1  0.61631800  0.53469100  0.81061100  1
  H  H8  1  0.11331800  0.62765800  0.87174700  1
  H  H9  1  0.88668200  0.37234200  0.37174700  1
  H  H10  1  0.37234200  0.11331800  0.62174700  1
  H  H11  1  0.62765800  0.88668200  0.12174700  1
  H  H12  1  0.88668200  0.62765800  0.12825300  1
  H  H13  1  0.11331800  0.37234200  0.62825300  1
  H  H14  1  0.62765800  0.11331800  0.37825300  1
  H  H15  1  0.37234200  0.88668200  0.87825300  1
  F  F0  1  0.61381100  0.16692300  0.76682100  1
  F  F1  1  0.38618900  0.83307700  0.26682100  1
  F  F2  1  0.83307700  0.61381100  0.51682100  1
  F  F3  1  0.16692300  0.38618900  0.01682100  1
  F  F4  1  0.38618900  0.16692300  0.23317900  1
  F  F5  1  0.61381100  0.83307700  0.73317900  1
  F  F6  1  0.16692300  0.61381100  0.48317900  1
  F  F7  1  0.83307700  0.38618900  0.98317900  1
  F  F8  1  0.78196700  0.94545000  0.84640100  1
  F  F9  1  0.21803300  0.05455000  0.34640100  1
  F  F10  1  0.05455000  0.78196700  0.59640100  1
  F  F11  1  0.94545000  0.21803300  0.09640100  1
  F  F12  1  0.21803300  0.94545000  0.15359900  1
  F  F13  1  0.78196700  0.05455000  0.65359900  1
  F  F14  1  0.94545000  0.78196700  0.40359900  1
  F  F15  1  0.05455000  0.21803300  0.90359900  1
  F  F16  1  0.95591300  0.16741000  0.76413900  1
  F  F17  1  0.04408700  0.83259000  0.26413900  1
  F  F18  1  0.83259000  0.95591300  0.51413900  1
  F  F19  1  0.16741000  0.04408700  0.01413900  1
  F  F20  1  0.04408700  0.16741000  0.23586100  1
  F  F21  1  0.95591300  0.83259000  0.73586100  1
  F  F22  1  0.16741000  0.95591300  0.48586100  1
  F  F23  1  0.83259000  0.04408700  0.98586100  1
  F  F24  1  0.43801500  0.29510600  0.89817700  1
  F  F25  1  0.56198500  0.70489400  0.39817700  1
  F  F26  1  0.70489400  0.43801500  0.64817700  1
  F  F27  1  0.29510600  0.56198500  0.14817700  1
  F  F28  1  0.56198500  0.29510600  0.10182300  1
  F  F29  1  0.43801500  0.70489400  0.60182300  1
  F  F30  1  0.29510600  0.43801500  0.35182300  1
  F  F31  1  0.70489400  0.56198500  0.85182300  1
  F  F32  1  0.49352400  0.50000000  0.75000000  1
  F  F33  1  0.50647600  0.50000000  0.25000000  1
  F  F34  1  0.50000000  0.49352400  0.50000000  1
  F  F35  1  0.50000000  0.50647600  0.00000000  1
  F  F36  1  0.17135300  0.56376600  0.82025400  1
  F  F37  1  0.82864700  0.43623400  0.32025400  1
  F  F38  1  0.43623400  0.17135300  0.57025400  1
  F  F39  1  0.56376600  0.82864700  0.07025400  1
  F  F40  1  0.82864700  0.56376600  0.17974600  1
  F  F41  1  0.17135300  0.43623400  0.67974600  1
  F  F42  1  0.56376600  0.17135300  0.42974600  1
  F  F43  1  0.43623400  0.82864700  0.92974600  1
  F  F44  1  0.30297300  0.94221300  0.82153200  1
  F  F45  1  0.69702700  0.05778700  0.32153200  1
  F  F46  1  0.05778700  0.30297300  0.57153200  1
  F  F47  1  0.94221300  0.69702700  0.07153200  1
  F  F48  1  0.69702700  0.94221300  0.17846800  1
  F  F49  1  0.30297300  0.05778700  0.67846800  1
  F  F50  1  0.94221300  0.30297300  0.42846800  1
  F  F51  1  0.05778700  0.69702700  0.92846800  1
loop_
_geom_bond_atom_site_label_1
_geom_bond_atom_site_label_2
_geom_bond_distance
_geom_bond_site_symmetry_2
Ca0 F24 2.338227 1_555
Ca0 F44 2.389096 1_545
Ca0 F49 2.395670 1_555
Ca0 F41 2.424300 1_555
Ca0 F32 2.459333 1_555
Ca0 F36 2.463516 1_555
Ca0 F16 2.475789 1_455
Ca0 F0 2.556848 1_555
Ca0 F15 2.680553 1_555
Ca1 F25 2.338227 1_555
Ca1 F45 2.389096 1_565
Ca1 F48 2.395670 1_555
Ca1 F40 2.424300 1_555
Ca1 F33 2.459333 1_555
Ca1 F37 2.463516 1_555
Ca1 F17 2.475789 1_655
Ca1 F1 2.556848 1_555
Ca1 F14 2.680553 1_555
Ca2 F26 2.338227 1_555
Ca2 F46 2.389096 1_655
Ca2 F50 2.395670 1_555
Ca2 F42 2.424300 1_555
Ca2 F34 2.459333 1_555
Ca2 F38 2.463516 1_555
Ca2 F18 2.475789 1_545
Ca2 F2 2.556848 1_555
Ca2 F13 2.680553 1_555
Ca3 F27 2.338227 1_555
Ca3 F47 2.389096 1_455
Ca3 F51 2.395670 1_554
Ca3 F43 2.424300 1_554
Ca3 F35 2.459333 1_555
Ca3 F39 2.463516 1_555
Ca3 F19 2.475789 1_565
Ca3 F3 2.556848 1_555
Ca3 F12 2.680553 1_555
Ca4 F28 2.338227 1_555
Ca4 F48 2.389096 1_545
Ca4 F45 2.395670 1_555
Ca4 F37 2.424300 1_555
Ca4 F33 2.459333 1_555
Ca4 F40 2.463516 1_555
Ca4 F20 2.475789 1_655
Ca4 F4 2.556848 1_555
Ca4 F11 2.680553 1_555
Ca5 F29 2.338227 1_555
Ca5 F49 2.389096 1_565
Ca5 F44 2.395670 1_555
Ca5 F36 2.424300 1_555
Ca5 F32 2.459333 1_555
Ca5 F41 2.463516 1_555
Ca5 F21 2.475789 1_455
Ca5 F5 2.556848 1_555
Ca5 F10 2.680553 1_555
Ca6 F30 2.338227 1_555
Ca6 F50 2.389096 1_455
Ca6 F46 2.395670 1_555
Ca6 F38 2.424300 1_555
Ca6 F34 2.459333 1_555
Ca6 F42 2.463516 1_555
Ca6 F22 2.475789 1_545
Ca6 F6 2.556848 1_555
Ca6 F9 2.680553 1_555
Ca7 F31 2.338227 1_555
Ca7 F51 2.389096 1_655
Ca7 F47 2.395670 1_556
Ca7 F39 2.424300 1_556
Ca7 F35 2.459333 1_556
Ca7 F43 2.463516 1_555
Ca7 F23 2.475789 1_565
Ca7 F7 2.556848 1_555
Ca7 F8 2.680553 1_555
As0 F13 1.759873 1_555
As0 F8 1.759873 1_545
As0 F0 1.764270 1_555
As0 F5 1.764270 1_545
As0 F21 1.776857 1_545
As0 F16 1.776857 1_555
As1 F12 1.759873 1_545
As1 F9 1.759873 1_555
As1 F4 1.764270 1_555
As1 F1 1.764270 1_545
As1 F17 1.776857 1_545
As1 F20 1.776857 1_555
As2 F10 1.759873 1_555
As2 F14 1.759873 1_455
As2 F6 1.764270 1_555
As2 F2 1.764270 1_455
As2 F18 1.776857 1_455
As2 F22 1.776857 1_555
As3 F15 1.759873 1_554
As3 F11 1.759873 1_455
As3 F3 1.764270 1_555
As3 F7 1.764270 1_454
As3 F23 1.776857 1_454
As3 F19 1.776857 1_555
F24 H0 0.998129 1_555
F25 H1 0.998129 1_555
F26 H2 0.998129 1_555
F27 H3 0.998129 1_555
F28 H4 0.998129 1_555
F29 H5 0.998129 1_555
F30 H6 0.998129 1_555
F31 H7 0.998129 1_555
F32 H7 1.425465 1_555
F32 H2 1.425465 1_555
F33 H3 1.425465 1_555
F33 H6 1.425465 1_555
F34 H5 1.425465 1_555
F34 H1 1.425465 1_555
F35 H0 1.425465 1_554
F35 H4 1.425465 1_555
F36 H8 1.112027 1_555
F37 H9 1.112027 1_555
F38 H10 1.112027 1_555
F39 H11 1.112027 1_555
F40 H12 1.112027 1_555
F41 H13 1.112027 1_555
F42 H14 1.112027 1_555
F43 H15 1.112027 1_555
F44 H15 1.199700 1_555
F45 H14 1.199700 1_555
F46 H13 1.199700 1_555
F47 H12 1.199700 1_555
F48 H11 1.199700 1_555
F49 H10 1.199700 1_555
F50 H9 1.199700 1_555
F51 H8 1.199700 1_555
