# generated using pymatgen
data_CsMg6B
_symmetry_space_group_name_H-M   'P 1'
_cell_length_a   16.98721051
_cell_length_b   16.98721051
_cell_length_c   6.97607200
_cell_angle_alpha   90.00000000
_cell_angle_beta   90.00000000
_cell_angle_gamma   112.03839806
_symmetry_Int_Tables_number   1
_chemical_formula_structural   CsMg6B
_chemical_formula_sum   'Cs8 Mg48 B8'
_cell_volume   1865.96393633
_cell_formula_units_Z   8
loop_
 _symmetry_equiv_pos_site_id
 _symmetry_equiv_pos_as_xyz
  1  'x, y, z'
loop_
 _atom_site_type_symbol
 _atom_site_label
 _atom_site_symmetry_multiplicity
 _atom_site_fract_x
 _atom_site_fract_y
 _atom_site_fract_z
 _atom_site_occupancy
  Cs  Cs0_0  1  0.41479300  0.08520700  0.25000000  1
  Cs  Cs0_1  1  0.41479300  0.08520700  0.75000000  1
  Cs  Cs0_2  1  0.41479300  0.58520700  0.25000000  1
  Cs  Cs0_3  1  0.41479300  0.58520700  0.75000000  1
  Cs  Cs0_4  1  0.91479300  0.08520700  0.25000000  1
  Cs  Cs0_5  1  0.91479300  0.08520700  0.75000000  1
  Cs  Cs0_6  1  0.91479300  0.58520700  0.25000000  1
  Cs  Cs0_7  1  0.91479300  0.58520700  0.75000000  1
  Mg  Mg0_0  1  0.14929950  0.08365000  0.25000000  1
  Mg  Mg0_1  1  0.14929950  0.08365000  0.75000000  1
  Mg  Mg0_2  1  0.14929950  0.58365000  0.25000000  1
  Mg  Mg0_3  1  0.14929950  0.58365000  0.75000000  1
  Mg  Mg0_4  1  0.64929950  0.08365000  0.25000000  1
  Mg  Mg0_5  1  0.64929950  0.08365000  0.75000000  1
  Mg  Mg0_6  1  0.64929950  0.58365000  0.25000000  1
  Mg  Mg0_7  1  0.64929950  0.58365000  0.75000000  1
  Mg  Mg1_0  1  0.41635000  0.35070050  0.25000000  1
  Mg  Mg1_1  1  0.41635000  0.35070050  0.75000000  1
  Mg  Mg1_2  1  0.41635000  0.85070050  0.25000000  1
  Mg  Mg1_3  1  0.41635000  0.85070050  0.75000000  1
  Mg  Mg1_4  1  0.91635000  0.35070050  0.25000000  1
  Mg  Mg1_5  1  0.91635000  0.35070050  0.75000000  1
  Mg  Mg1_6  1  0.91635000  0.85070050  0.25000000  1
  Mg  Mg1_7  1  0.91635000  0.85070050  0.75000000  1
  Mg  Mg2_0  1  0.12761400  0.22987050  0.00000000  1
  Mg  Mg2_1  1  0.12761400  0.22987050  0.50000000  1
  Mg  Mg2_2  1  0.12761400  0.72987050  0.00000000  1
  Mg  Mg2_3  1  0.12761400  0.72987050  0.50000000  1
  Mg  Mg2_4  1  0.62761400  0.22987050  0.00000000  1
  Mg  Mg2_5  1  0.62761400  0.22987050  0.50000000  1
  Mg  Mg2_6  1  0.62761400  0.72987050  0.00000000  1
  Mg  Mg2_7  1  0.62761400  0.72987050  0.50000000  1
  Mg  Mg3_0  1  0.27012950  0.37238600  0.00000000  1
  Mg  Mg3_1  1  0.27012950  0.37238600  0.50000000  1
  Mg  Mg3_2  1  0.27012950  0.87238600  0.00000000  1
  Mg  Mg3_3  1  0.27012950  0.87238600  0.50000000  1
  Mg  Mg3_4  1  0.77012950  0.37238600  0.00000000  1
  Mg  Mg3_5  1  0.77012950  0.37238600  0.50000000  1
  Mg  Mg3_6  1  0.77012950  0.87238600  0.00000000  1
  Mg  Mg3_7  1  0.77012950  0.87238600  0.50000000  1
  Mg  Mg4_0  1  0.29243050  0.20756950  0.00000000  1
  Mg  Mg4_1  1  0.29243050  0.20756950  0.50000000  1
  Mg  Mg4_2  1  0.29243050  0.70756950  0.00000000  1
  Mg  Mg4_3  1  0.29243050  0.70756950  0.50000000  1
  Mg  Mg4_4  1  0.79243050  0.20756950  0.00000000  1
  Mg  Mg4_5  1  0.79243050  0.20756950  0.50000000  1
  Mg  Mg4_6  1  0.79243050  0.70756950  0.00000000  1
  Mg  Mg4_7  1  0.79243050  0.70756950  0.50000000  1
  Mg  Mg5_0  1  0.09143700  0.40856300  0.00000000  1
  Mg  Mg5_1  1  0.09143700  0.40856300  0.50000000  1
  Mg  Mg5_2  1  0.09143700  0.90856300  0.00000000  1
  Mg  Mg5_3  1  0.09143700  0.90856300  0.50000000  1
  Mg  Mg5_4  1  0.59143700  0.40856300  0.00000000  1
  Mg  Mg5_5  1  0.59143700  0.40856300  0.50000000  1
  Mg  Mg5_6  1  0.59143700  0.90856300  0.00000000  1
  Mg  Mg5_7  1  0.59143700  0.90856300  0.50000000  1
  B  B0_0  1  0.23794800  0.26205200  0.25000000  1
  B  B0_1  1  0.23794800  0.26205200  0.75000000  1
  B  B0_2  1  0.23794800  0.76205200  0.25000000  1
  B  B0_3  1  0.23794800  0.76205200  0.75000000  1
  B  B0_4  1  0.73794800  0.26205200  0.25000000  1
  B  B0_5  1  0.73794800  0.26205200  0.75000000  1
  B  B0_6  1  0.73794800  0.76205200  0.25000000  1
  B  B0_7  1  0.73794800  0.76205200  0.75000000  1
loop_
_geom_bond_atom_site_label_1
_geom_bond_atom_site_label_2
_geom_bond_distance
_geom_bond_site_symmetry_2
Cs0_0 Cs0_1 3.488036 1_555
Cs0_0 Cs0_1 3.488036 1_554
Cs0_0 Mg4_0 3.863305 1_555
Cs0_0 Mg4_1 3.863305 1_555
Cs0_0 Mg3_3 3.934882 1_545
Cs0_0 Mg3_2 3.934882 1_545
Cs0_0 Mg2_5 3.934882 1_555
Cs0_0 Mg2_4 3.934882 1_555
Cs0_0 Mg1_2 3.993611 1_545
Cs0_0 Mg0_4 3.993611 1_555
Cs0_1 Mg4_1 3.863305 1_555
Cs0_1 Mg4_0 3.863305 1_556
Cs0_1 Mg3_3 3.934882 1_545
Cs0_1 Mg3_2 3.934882 1_546
Cs0_1 Mg2_5 3.934882 1_555
Cs0_1 Mg2_4 3.934882 1_556
Cs0_1 Mg1_3 3.993611 1_545
Cs0_1 Mg0_5 3.993611 1_555
Cs0_2 Cs0_3 3.488036 1_555
Cs0_2 Cs0_3 3.488036 1_554
Cs0_2 Mg4_2 3.863305 1_555
Cs0_2 Mg4_3 3.863305 1_555
Cs0_2 Mg3_1 3.934882 1_555
Cs0_2 Mg3_0 3.934882 1_555
Cs0_2 Mg2_6 3.934882 1_555
Cs0_2 Mg2_7 3.934882 1_555
Cs0_2 Mg1_0 3.993611 1_555
Cs0_2 Mg0_6 3.993611 1_555
Cs0_3 Mg4_3 3.863305 1_555
Cs0_3 Mg4_2 3.863305 1_556
Cs0_3 Mg3_1 3.934882 1_555
Cs0_3 Mg3_0 3.934882 1_556
Cs0_3 Mg2_7 3.934882 1_555
Cs0_3 Mg2_6 3.934882 1_556
Cs0_3 Mg1_1 3.993611 1_555
Cs0_3 Mg0_7 3.993611 1_555
Cs0_4 Cs0_5 3.488036 1_555
Cs0_4 Cs0_5 3.488036 1_554
Cs0_4 Mg4_4 3.863305 1_555
Cs0_4 Mg4_5 3.863305 1_555
Cs0_4 Mg3_6 3.934882 1_545
Cs0_4 Mg3_7 3.934882 1_545
Cs0_4 Mg2_0 3.934882 1_655
Cs0_4 Mg2_1 3.934882 1_655
Cs0_4 Mg0_0 3.993611 1_655
Cs0_4 Mg1_6 3.993611 1_545
Cs0_5 Mg4_5 3.863305 1_555
Cs0_5 Mg4_4 3.863305 1_556
Cs0_5 Mg3_7 3.934882 1_545
Cs0_5 Mg3_6 3.934882 1_546
Cs0_5 Mg2_1 3.934882 1_655
Cs0_5 Mg2_0 3.934882 1_656
Cs0_5 Mg0_1 3.993611 1_655
Cs0_5 Mg1_7 3.993611 1_545
Cs0_6 Cs0_7 3.488036 1_555
Cs0_6 Cs0_7 3.488036 1_554
Cs0_6 Mg4_6 3.863305 1_555
Cs0_6 Mg4_7 3.863305 1_555
Cs0_6 Mg3_5 3.934882 1_555
Cs0_6 Mg3_4 3.934882 1_555
Cs0_6 Mg2_3 3.934882 1_655
Cs0_6 Mg2_2 3.934882 1_655
Cs0_6 Mg1_4 3.993611 1_555
Cs0_6 Mg0_2 3.993611 1_655
Cs0_7 Mg4_7 3.863305 1_555
Cs0_7 Mg4_6 3.863305 1_556
Cs0_7 Mg3_5 3.934882 1_555
Cs0_7 Mg3_4 3.934882 1_556
Cs0_7 Mg2_3 3.934882 1_655
Cs0_7 Mg2_2 3.934882 1_656
Cs0_7 Mg1_5 3.993611 1_555
Cs0_7 Mg0_3 3.993611 1_655
Mg0_0 Mg5_3 3.264953 1_545
Mg0_0 Mg5_2 3.264953 1_545
Mg0_1 Mg5_3 3.264953 1_545
Mg0_1 Mg5_2 3.264953 1_546
Mg0_2 Mg5_1 3.264953 1_555
Mg0_2 Mg5_0 3.264953 1_555
Mg0_3 Mg5_1 3.264953 1_555
Mg0_3 Mg5_0 3.264953 1_556
Mg0_4 Mg5_7 3.264953 1_545
Mg0_4 Mg5_6 3.264953 1_545
Mg0_5 Mg5_7 3.264953 1_545
Mg0_5 Mg5_6 3.264953 1_546
Mg0_6 Mg5_5 3.264953 1_555
Mg0_6 Mg5_4 3.264953 1_555
Mg0_7 Mg5_5 3.264953 1_555
Mg0_7 Mg5_4 3.264953 1_556
Mg1_0 Mg5_5 3.264953 1_555
Mg1_0 Mg5_4 3.264953 1_555
Mg1_1 Mg5_5 3.264953 1_555
Mg1_1 Mg5_4 3.264953 1_556
Mg1_2 Mg5_7 3.264953 1_555
Mg1_2 Mg5_6 3.264953 1_555
Mg1_3 Mg5_7 3.264953 1_555
Mg1_3 Mg5_6 3.264953 1_556
Mg1_4 Mg5_1 3.264953 1_655
Mg1_4 Mg5_0 3.264953 1_655
Mg1_5 Mg5_1 3.264953 1_655
Mg1_5 Mg5_0 3.264953 1_656
Mg1_6 Mg5_2 3.264953 1_655
Mg1_6 Mg5_3 3.264953 1_655
Mg1_7 Mg5_3 3.264953 1_655
Mg1_7 Mg5_2 3.264953 1_656
Mg2_0 Mg5_0 3.315386 1_555
Mg2_1 Mg5_1 3.315386 1_555
Mg2_2 Mg5_2 3.315386 1_555
Mg2_3 Mg5_3 3.315386 1_555
Mg2_4 Mg5_4 3.315386 1_555
Mg2_5 Mg5_5 3.315386 1_555
Mg2_6 Mg5_6 3.315386 1_555
Mg2_7 Mg5_7 3.315386 1_555
Mg3_0 Mg5_0 3.315386 1_555
Mg3_1 Mg5_1 3.315386 1_555
Mg3_2 Mg5_2 3.315386 1_555
Mg3_3 Mg5_3 3.315386 1_555
Mg3_4 Mg5_4 3.315386 1_555
Mg3_5 Mg5_5 3.315386 1_555
Mg3_6 Mg5_6 3.315386 1_555
Mg3_7 Mg5_7 3.315386 1_555
Mg5_0 Mg5_1 3.488036 1_554
Mg5_0 Mg5_1 3.488036 1_555
Mg5_2 Mg5_3 3.488036 1_555
Mg5_2 Mg5_3 3.488036 1_554
Mg5_4 Mg5_5 3.488036 1_555
Mg5_4 Mg5_5 3.488036 1_554
Mg5_6 Mg5_7 3.488036 1_555
Mg5_6 Mg5_7 3.488036 1_554
B0_0 Mg4_1 2.323259 1_555
B0_0 Mg4_0 2.323259 1_555
B0_0 Mg2_0 2.466658 1_555
B0_0 Mg2_1 2.466658 1_555
B0_0 Mg3_0 2.466658 1_555
B0_0 Mg3_1 2.466658 1_555
B0_0 Mg1_0 2.833216 1_555
B0_0 Mg0_0 2.833216 1_555
B0_1 Mg4_1 2.323259 1_555
B0_1 Mg4_0 2.323259 1_556
B0_1 Mg2_1 2.466658 1_555
B0_1 Mg2_0 2.466658 1_556
B0_1 Mg3_1 2.466658 1_555
B0_1 Mg3_0 2.466658 1_556
B0_1 Mg1_1 2.833216 1_555
B0_1 Mg0_1 2.833216 1_555
B0_2 Mg4_2 2.323259 1_555
B0_2 Mg4_3 2.323259 1_555
B0_2 Mg2_2 2.466658 1_555
B0_2 Mg2_3 2.466658 1_555
B0_2 Mg3_2 2.466658 1_555
B0_2 Mg3_3 2.466658 1_555
B0_2 Mg1_2 2.833216 1_555
B0_2 Mg0_2 2.833216 1_555
B0_3 Mg4_3 2.323259 1_555
B0_3 Mg4_2 2.323259 1_556
B0_3 Mg2_3 2.466658 1_555
B0_3 Mg2_2 2.466658 1_556
B0_3 Mg3_3 2.466658 1_555
B0_3 Mg3_2 2.466658 1_556
B0_3 Mg1_3 2.833216 1_555
B0_3 Mg0_3 2.833216 1_555
B0_4 Mg4_4 2.323259 1_555
B0_4 Mg4_5 2.323259 1_555
B0_4 Mg2_5 2.466658 1_555
B0_4 Mg2_4 2.466658 1_555
B0_4 Mg3_5 2.466658 1_555
B0_4 Mg3_4 2.466658 1_555
B0_4 Mg0_4 2.833216 1_555
B0_4 Mg1_4 2.833216 1_555
B0_5 Mg4_5 2.323259 1_555
B0_5 Mg4_4 2.323259 1_556
B0_5 Mg2_5 2.466658 1_555
B0_5 Mg2_4 2.466658 1_556
B0_5 Mg3_5 2.466658 1_555
B0_5 Mg3_4 2.466658 1_556
B0_5 Mg0_5 2.833216 1_555
B0_5 Mg1_5 2.833216 1_555
B0_6 Mg4_6 2.323259 1_555
B0_6 Mg4_7 2.323259 1_555
B0_6 Mg2_7 2.466658 1_555
B0_6 Mg2_6 2.466658 1_555
B0_6 Mg3_6 2.466658 1_555
B0_6 Mg3_7 2.466658 1_555
B0_6 Mg1_6 2.833216 1_555
B0_6 Mg0_6 2.833216 1_555
B0_7 Mg4_7 2.323259 1_555
B0_7 Mg4_6 2.323259 1_556
B0_7 Mg2_7 2.466658 1_555
B0_7 Mg2_6 2.466658 1_556
B0_7 Mg3_7 2.466658 1_555
B0_7 Mg3_6 2.466658 1_556
B0_7 Mg1_7 2.833216 1_555
B0_7 Mg0_7 2.833216 1_555
