# generated using pymatgen
data_Eu3InP3
_symmetry_space_group_name_H-M   'P 1'
_cell_length_a   4.28088400
_cell_length_b   12.63266000
_cell_length_c   13.45975000
_cell_angle_alpha   90.00000000
_cell_angle_beta   90.00000000
_cell_angle_gamma   90.00000000
_symmetry_Int_Tables_number   1
_chemical_formula_structural   Eu3InP3
_chemical_formula_sum   'Eu12 In4 P12'
_cell_volume   727.88917514
_cell_formula_units_Z   4
loop_
 _symmetry_equiv_pos_site_id
 _symmetry_equiv_pos_as_xyz
  1  'x, y, z'
loop_
 _atom_site_type_symbol
 _atom_site_label
 _atom_site_symmetry_multiplicity
 _atom_site_fract_x
 _atom_site_fract_y
 _atom_site_fract_z
 _atom_site_occupancy
  Eu  Eu0  1  0.25000000  0.27372700  0.70514200  1
  Eu  Eu1  1  0.25000000  0.77372700  0.79485800  1
  Eu  Eu2  1  0.75000000  0.72627300  0.29485800  1
  Eu  Eu3  1  0.75000000  0.22627300  0.20514200  1
  Eu  Eu4  1  0.25000000  0.57352900  0.60639000  1
  Eu  Eu5  1  0.25000000  0.07352900  0.89361000  1
  Eu  Eu6  1  0.75000000  0.42647100  0.39361000  1
  Eu  Eu7  1  0.75000000  0.92647100  0.10639000  1
  Eu  Eu8  1  0.25000000  0.35652100  0.99579400  1
  Eu  Eu9  1  0.25000000  0.85652100  0.50420600  1
  Eu  Eu10  1  0.75000000  0.64347900  0.00420600  1
  Eu  Eu11  1  0.75000000  0.14347900  0.49579400  1
  In  In0  1  0.25000000  0.54989900  0.19986100  1
  In  In1  1  0.25000000  0.04989900  0.30013900  1
  In  In2  1  0.75000000  0.45010100  0.80013900  1
  In  In3  1  0.75000000  0.95010100  0.69986100  1
  P  P0  1  0.25000000  0.59589400  0.38866600  1
  P  P1  1  0.25000000  0.09589400  0.11133400  1
  P  P2  1  0.75000000  0.40410600  0.61133400  1
  P  P3  1  0.75000000  0.90410600  0.88866600  1
  P  P4  1  0.25000000  0.74551200  0.12793300  1
  P  P5  1  0.25000000  0.24551200  0.37206700  1
  P  P6  1  0.75000000  0.25448800  0.87206700  1
  P  P7  1  0.75000000  0.75448800  0.62793300  1
  P  P8  1  0.25000000  0.05004400  0.64104900  1
  P  P9  1  0.25000000  0.55004400  0.85895100  1
  P  P10  1  0.75000000  0.94995600  0.35895100  1
  P  P11  1  0.75000000  0.44995600  0.14104900  1
loop_
_geom_bond_atom_site_label_1
_geom_bond_atom_site_label_2
_geom_bond_distance
_geom_bond_site_symmetry_2
Eu0 P8 2.954463 1_555
Eu0 P2 2.981351 1_555
Eu0 P2 2.981351 1_455
Eu0 P6 3.112640 1_555
Eu0 P6 3.112640 1_455
Eu1 P9 2.954463 1_555
Eu1 P3 2.981351 1_455
Eu1 P3 2.981351 1_555
Eu1 P7 3.112640 1_555
Eu1 P7 3.112640 1_455
Eu2 P10 2.954463 1_555
Eu2 P0 2.981351 1_655
Eu2 P0 2.981351 1_555
Eu2 P4 3.112640 1_555
Eu2 P4 3.112640 1_655
Eu3 P11 2.954463 1_555
Eu3 P1 2.981351 1_655
Eu3 P1 2.981351 1_555
Eu3 P5 3.112640 1_655
Eu3 P5 3.112640 1_555
Eu4 P0 2.944098 1_555
Eu4 P2 3.027647 1_555
Eu4 P2 3.027647 1_455
Eu4 P7 3.145050 1_555
Eu4 P7 3.145050 1_455
Eu4 P9 3.412329 1_555
Eu5 P1 2.944098 1_556
Eu5 P3 3.027647 1_445
Eu5 P3 3.027647 1_545
Eu5 P6 3.145050 1_555
Eu5 P6 3.145050 1_455
Eu5 P8 3.412329 1_555
Eu6 P2 2.944098 1_555
Eu6 P0 3.027647 1_555
Eu6 P0 3.027647 1_655
Eu6 P5 3.145050 1_555
Eu6 P5 3.145050 1_655
Eu6 P11 3.412329 1_555
Eu7 P3 2.944098 1_554
Eu7 P1 3.027647 1_565
Eu7 P1 3.027647 1_665
Eu7 P4 3.145050 1_555
Eu7 P4 3.145050 1_655
Eu7 P10 3.412329 1_555
Eu8 P6 3.002702 1_555
Eu8 P6 3.002702 1_455
Eu8 P9 3.060899 1_555
Eu8 P11 3.130028 1_456
Eu8 P11 3.130028 1_556
Eu8 P1 3.641214 1_556
Eu9 P7 3.002702 1_555
Eu9 P7 3.002702 1_455
Eu9 P8 3.060899 1_565
Eu9 P10 3.130028 1_555
Eu9 P10 3.130028 1_455
Eu9 P0 3.641214 1_555
Eu10 P4 3.002702 1_655
Eu10 P4 3.002702 1_555
Eu10 P11 3.060899 1_555
Eu10 P9 3.130028 1_654
Eu10 P9 3.130028 1_554
Eu10 P3 3.641214 1_554
Eu11 P5 3.002702 1_655
Eu11 P5 3.002702 1_555
Eu11 P10 3.060899 1_545
Eu11 P8 3.130028 1_555
Eu11 P8 3.130028 1_655
Eu11 P2 3.641214 1_555
In0 P0 2.606847 1_555
In0 P11 2.608091 1_555
In0 P11 2.608091 1_455
In0 P4 2.653993 1_555
In1 P1 2.606847 1_555
In1 P10 2.608091 1_445
In1 P10 2.608091 1_545
In1 P5 2.653993 1_555
In2 P2 2.606847 1_555
In2 P9 2.608091 1_655
In2 P9 2.608091 1_555
In2 P6 2.653993 1_555
In3 P3 2.606847 1_555
In3 P8 2.608091 1_665
In3 P8 2.608091 1_565
In3 P7 2.653993 1_555
