# generated using pymatgen
data_LiHfMg14O15
_symmetry_space_group_name_H-M   'P 1'
_cell_length_a   8.61197428
_cell_length_b   8.61969870
_cell_length_c   4.27867090
_cell_angle_alpha   90.00000000
_cell_angle_beta   90.00000000
_cell_angle_gamma   90.00000000
_symmetry_Int_Tables_number   1
_chemical_formula_structural   LiHfMg14O15
_chemical_formula_sum   'Li1 Hf1 Mg14 O15'
_cell_volume   317.61696602
_cell_formula_units_Z   1
loop_
 _symmetry_equiv_pos_site_id
 _symmetry_equiv_pos_as_xyz
  1  'x, y, z'
loop_
 _atom_site_type_symbol
 _atom_site_label
 _atom_site_symmetry_multiplicity
 _atom_site_fract_x
 _atom_site_fract_y
 _atom_site_fract_z
 _atom_site_occupancy
  Li  Li0  1  0.99243475  0.00000000  0.00000000  1
  Hf  Hf0  1  0.99991228  0.50000000  0.00000000  1
  Mg  Mg0  1  0.50093531  0.00000000  0.00000000  1
  Mg  Mg1  1  0.50074951  0.50000000  0.00000000  1
  Mg  Mg2  1  0.00067656  0.23349793  0.50000000  1
  Mg  Mg3  1  0.00067656  0.76650207  0.50000000  1
  Mg  Mg4  1  0.50022626  0.24730375  0.50000000  1
  Mg  Mg5  1  0.50022626  0.75269625  0.50000000  1
  Mg  Mg6  1  0.24632796  0.00000000  0.50000000  1
  Mg  Mg7  1  0.25709945  0.50000000  0.50000000  1
  Mg  Mg8  1  0.75470276  0.00000000  0.50000000  1
  Mg  Mg9  1  0.74333455  0.50000000  0.50000000  1
  Mg  Mg10  1  0.25413412  0.24247511  0.00000000  1
  Mg  Mg11  1  0.25413412  0.75752489  0.00000000  1
  Mg  Mg12  1  0.74730768  0.24076597  0.00000000  1
  Mg  Mg13  1  0.74730768  0.75923403  0.00000000  1
  O  O0  1  0.25489516  0.50000000  0.00000000  1
  O  O1  1  0.74337602  0.00000000  0.00000000  1
  O  O2  1  0.74572625  0.50000000  0.00000000  1
  O  O3  1  0.24889625  0.25346655  0.50000000  1
  O  O4  1  0.24889625  0.74653345  0.50000000  1
  O  O5  1  0.75170945  0.25122114  0.50000000  1
  O  O6  1  0.75170945  0.74877886  0.50000000  1
  O  O7  1  0.99990488  0.00000000  0.50000000  1
  O  O8  1  0.99974617  0.50000000  0.50000000  1
  O  O9  1  0.50283192  0.00000000  0.50000000  1
  O  O10  1  0.50036866  0.50000000  0.50000000  1
  O  O11  1  0.99918102  0.25636817  -0.00000000  1
  O  O12  1  0.99918102  0.74363183  -0.00000000  1
  O  O13  1  0.50169584  0.25295560  0.00000000  1
  O  O14  1  0.50169584  0.74704440  0.00000000  1
loop_
_geom_bond_atom_site_label_1
_geom_bond_atom_site_label_2
_geom_bond_distance
_geom_bond_site_symmetry_2
Li0 O7 2.140303 1_555
Li0 O7 2.140303 1_554
Li0 O1 2.144887 1_555
Li0 O11 2.210580 1_555
Li0 O12 2.210580 1_545
Hf0 O12 2.100042 1_555
Hf0 O11 2.100042 1_555
Hf0 O8 2.139336 1_555
Hf0 O8 2.139336 1_554
Hf0 O2 2.189044 1_555
Hf0 O0 2.195906 1_655
Mg0 O1 2.087893 1_555
Mg0 O9 2.139398 1_554
Mg0 O9 2.139398 1_555
Mg0 O14 2.180411 1_545
Mg0 O13 2.180411 1_555
Mg1 O2 2.109733 1_555
Mg1 O0 2.117291 1_555
Mg1 O13 2.129464 1_555
Mg1 O14 2.129464 1_555
Mg1 O10 2.139338 1_555
Mg1 O10 2.139338 1_554
Mg2 O7 2.012693 1_455
Mg2 O3 2.144580 1_555
Mg2 O11 2.148438 1_456
Mg2 O11 2.148438 1_455
Mg2 O5 2.149534 1_455
Mg2 O8 2.297182 1_455
Mg3 O7 2.012693 1_465
Mg3 O4 2.144580 1_555
Mg3 O12 2.148438 1_455
Mg3 O12 2.148438 1_456
Mg3 O6 2.149534 1_455
Mg3 O8 2.297182 1_455
Mg4 O9 2.131802 1_555
Mg4 O13 2.139928 1_556
Mg4 O13 2.139928 1_555
Mg4 O3 2.165099 1_555
Mg4 O5 2.166030 1_555
Mg4 O10 2.178166 1_555
Mg5 O9 2.131802 1_565
Mg5 O14 2.139928 1_556
Mg5 O14 2.139928 1_555
Mg5 O4 2.165099 1_555
Mg5 O6 2.166030 1_555
Mg5 O10 2.178166 1_555
Mg6 O7 2.122189 1_455
Mg6 O4 2.184917 1_545
Mg6 O3 2.184917 1_555
Mg6 O9 2.209006 1_555
Mg7 O10 2.095028 1_555
Mg7 O3 2.126218 1_555
Mg7 O4 2.126218 1_555
Mg7 O0 2.139420 1_555
Mg7 O0 2.139420 1_556
Mg7 O8 2.216320 1_455
Mg8 O7 2.111674 1_555
Mg8 O1 2.141558 1_556
Mg8 O1 2.141558 1_555
Mg8 O6 2.165604 1_545
Mg8 O5 2.165604 1_555
Mg8 O9 2.169105 1_555
Mg9 O10 2.092416 1_555
Mg9 O2 2.139435 1_556
Mg9 O2 2.139435 1_555
Mg9 O5 2.145611 1_555
Mg9 O6 2.145611 1_555
Mg9 O8 2.208210 1_555
Mg10 O13 2.133908 1_555
Mg10 O3 2.141907 1_555
Mg10 O3 2.141907 1_554
Mg10 O11 2.198913 1_455
Mg10 O0 2.219797 1_555
Mg11 O14 2.133908 1_555
Mg11 O4 2.141907 1_554
Mg11 O4 2.141907 1_555
Mg11 O12 2.198913 1_455
Mg11 O0 2.219797 1_555
Mg12 O1 2.075606 1_555
Mg12 O13 2.117811 1_555
Mg12 O5 2.141568 1_555
Mg12 O5 2.141568 1_554
Mg12 O11 2.173292 1_555
Mg12 O2 2.234561 1_555
Mg13 O1 2.075606 1_565
Mg13 O14 2.117811 1_555
Mg13 O6 2.141568 1_555
Mg13 O6 2.141568 1_554
Mg13 O12 2.173292 1_555
Mg13 O2 2.234561 1_555
