# generated using pymatgen
data_Zn(NiO2)2
_symmetry_space_group_name_H-M   'P 1'
_cell_length_a   5.89618624
_cell_length_b   5.90335062
_cell_length_c   23.50044271
_cell_angle_alpha   59.84455000
_cell_angle_beta   60.61260317
_cell_angle_gamma   60.16127298
_symmetry_Int_Tables_number   1
_chemical_formula_structural   Zn(NiO2)2
_chemical_formula_sum   'Zn8 Ni16 O32'
_cell_volume   581.05066527
_cell_formula_units_Z   8
loop_
 _symmetry_equiv_pos_site_id
 _symmetry_equiv_pos_as_xyz
  1  'x, y, z'
loop_
 _atom_site_type_symbol
 _atom_site_label
 _atom_site_symmetry_multiplicity
 _atom_site_fract_x
 _atom_site_fract_y
 _atom_site_fract_z
 _atom_site_occupancy
  Zn  Zn0  1  0.14057711  0.12267246  0.02851596  1
  Zn  Zn1  1  0.99841785  0.50064582  0.12530616  1
  Zn  Zn2  1  0.13836908  0.11770845  0.28170882  1
  Zn  Zn3  1  0.00011979  0.50026388  0.37495168  1
  Zn  Zn4  1  0.99945237  0.49956229  0.62530014  1
  Zn  Zn5  1  0.50025195  0.50214446  0.49903687  1
  Zn  Zn6  1  0.99843981  0.50107844  0.87482627  1
  Zn  Zn7  1  0.50052118  0.49826219  0.75071709  1
  Ni  Ni0  1  0.49748212  0.50201129  0.12529203  1
  Ni  Ni1  1  0.49977033  0.50113198  0.24972472  1
  Ni  Ni2  1  0.49812654  -0.00023968  0.12544000  1
  Ni  Ni3  1  0.12936493  0.11855685  0.53328306  1
  Ni  Ni4  1  0.50437583  0.49792987  0.37365695  1
  Ni  Ni5  1  0.86446785  0.88169997  0.21854981  1
  Ni  Ni6  1  0.13239529  0.11985346  0.78185642  1
  Ni  Ni7  1  0.50309366  0.00438427  0.37378147  1
  Ni  Ni8  1  0.49977678  0.50009405  0.62521757  1
  Ni  Ni9  1  0.87111999  0.88055041  0.46697875  1
  Ni  Ni10  1  0.49957657  0.99911661  0.62525147  1
  Ni  Ni11  1  0.49944169  0.99625065  0.87574502  1
  Ni  Ni12  1  0.49938300  0.50126936  0.87576068  1
  Ni  Ni13  1  0.87056642  0.88018014  0.71740886  1
  Ni  Ni14  1  0.49982511  0.49841304  0.00086117  1
  Ni  Ni15  1  0.86398223  0.87890843  0.96959054  1
  O  O0  1  0.28094695  0.25756977  0.06288119  1
  O  O1  1  0.27863674  0.25307458  0.17865412  1
  O  O2  1  0.28244423  0.71002876  0.06276911  1
  O  O3  1  0.72796393  0.26316121  0.06198847  1
  O  O4  1  0.26271278  0.74283737  0.18549293  1
  O  O5  1  0.28545872  0.25327431  0.31424671  1
  O  O6  1  0.71095815  0.29067779  0.18803299  1
  O  O7  1  0.27884088  0.25437472  0.43111479  1
  O  O8  1  0.28521953  0.70536374  0.31325277  1
  O  O9  1  0.71876314  0.74821451  0.07129592  1
  O  O10  1  0.72912976  0.25406257  0.31619495  1
  O  O11  1  0.72064909  0.74336490  0.18729438  1
  O  O12  1  0.27082738  0.24309207  0.56776561  1
  O  O13  1  0.27026125  0.75326476  0.42875952  1
  O  O14  1  0.72976096  0.28139476  0.43233967  1
  O  O15  1  0.27023175  0.24606499  0.68401499  1
  O  O16  1  0.26916841  0.71541034  0.56778542  1
  O  O17  1  0.72414345  0.74560896  0.31911308  1
  O  O18  1  0.72362690  0.24591266  0.57061404  1
  O  O19  1  0.72824330  0.76291355  0.43139065  1
  O  O20  1  0.27745930  0.75300889  0.67938022  1
  O  O21  1  0.26509519  0.24141389  0.81613609  1
  O  O22  1  0.73107184  0.28389026  0.68200845  1
  O  O23  1  0.28462840  0.25520706  0.92614950  1
  O  O24  1  0.26522322  0.72886989  0.81615038  1
  O  O25  1  0.72325464  0.75638547  0.56675891  1
  O  O26  1  0.75078287  0.24328547  0.81571330  1
  O  O27  1  0.73044384  0.75780102  0.68188934  1
  O  O28  1  0.26974472  0.73131983  0.94180935  1
  O  O29  1  0.71554912  0.28523950  0.93926064  1
  O  O30  1  0.71409541  0.74947700  0.82175292  1
  O  O31  1  0.71576767  0.74198772  0.93922508  1
loop_
_geom_bond_atom_site_label_1
_geom_bond_atom_site_label_2
_geom_bond_distance
_geom_bond_site_symmetry_2
Ni0 O6 1.930119 1_555
Ni0 O2 1.934068 1_555
Ni0 O9 1.958102 1_555
Ni0 O1 1.960765 1_555
Ni0 O4 2.019716 1_555
Ni0 O3 2.065092 1_555
Ni1 O6 1.922070 1_555
Ni1 O8 1.928704 1_555
Ni1 O11 1.940009 1_555
Ni1 O5 1.940937 1_555
Ni1 O4 2.046998 1_555
Ni1 O10 2.053685 1_555
Ni2 O0 1.943621 1_555
Ni2 O11 1.952031 1_545
Ni2 O1 1.959498 1_555
Ni2 O9 1.966709 1_545
Ni2 O4 2.059291 1_545
Ni2 O3 2.064467 1_555
Ni3 O12 1.940354 1_555
Ni3 O16 1.940594 1_545
Ni3 O18 1.967510 1_455
Ni3 O7 1.968934 1_555
Ni4 O14 1.907594 1_555
Ni4 O8 1.914019 1_555
Ni4 O17 1.957613 1_555
Ni4 O7 1.961815 1_555
Ni4 O10 1.987622 1_555
Ni4 O13 1.997643 1_555
Ni5 O4 1.929574 1_655
Ni5 O17 1.936491 1_555
Ni5 O11 1.956667 1_555
Ni5 O6 1.971155 1_565
Ni6 O26 1.849518 1_455
Ni6 O21 1.879969 1_555
Ni6 O24 1.882016 1_545
Ni6 O15 1.884116 1_555
Ni7 O19 1.889183 1_545
Ni7 O5 1.892977 1_555
Ni7 O10 1.990174 1_555
Ni7 O17 2.007506 1_545
Ni7 O7 2.012241 1_555
Ni7 O13 2.027734 1_545
Ni8 O22 1.900738 1_555
Ni8 O16 1.908848 1_555
Ni8 O20 1.972781 1_555
Ni8 O18 1.985379 1_555
Ni8 O25 2.007903 1_555
Ni8 O15 2.022977 1_555
Ni9 O25 1.923158 1_555
Ni9 O14 1.929957 1_565
Ni9 O19 1.936121 1_555
Ni9 O13 1.937443 1_655
Ni10 O27 1.896679 1_555
Ni10 O12 1.902325 1_565
Ni10 O20 1.961059 1_555
Ni10 O18 1.971679 1_565
Ni10 O25 2.000328 1_555
Ni10 O15 2.022156 1_565
Ni11 O23 1.940199 1_565
Ni11 O30 1.944302 1_555
Ni11 O31 1.953956 1_555
Ni11 O21 1.959312 1_565
Ni11 O28 2.072514 1_555
Ni11 O26 2.084452 1_565
Ni12 O23 1.935511 1_555
Ni12 O30 1.939362 1_555
Ni12 O29 1.953173 1_555
Ni12 O24 1.958324 1_555
Ni12 O28 2.076610 1_555
Ni12 O26 2.089933 1_555
Ni13 O22 1.943542 1_565
Ni13 O27 1.943696 1_555
Ni13 O20 1.973719 1_655
Ni13 O30 2.011628 1_555
Ni14 O31 1.925125 1_554
Ni14 O0 1.925927 1_555
Ni14 O2 1.929403 1_555
Ni14 O29 1.930679 1_554
Ni14 O28 1.931612 1_554
Ni14 O3 1.958260 1_555
Ni15 O31 1.954667 1_555
Ni15 O29 1.957857 1_565
Ni15 O9 1.958894 1_556
Ni15 O28 1.968102 1_655
O0 Zn0 1.982270 1_555
O0 Zn1 2.079447 1_455
O1 Zn2 1.983776 1_555
O1 Zn1 2.055888 1_455
O2 Zn0 1.986128 1_565
O2 Zn1 2.076432 1_455
O3 Zn0 1.998690 1_655
O5 Zn2 1.983347 1_555
O5 Zn3 2.069985 1_555
O6 Zn1 2.094020 1_555
O7 Zn3 2.092808 1_555
O8 Zn2 1.986006 1_565
O8 Zn3 2.064845 1_555
O9 Zn1 2.063501 1_555
O10 Zn2 1.982540 1_655
O11 Zn1 2.068300 1_555
O12 Zn4 2.050218 1_455
O12 Zn5 2.051828 1_555
O13 Zn5 2.121762 1_555
O14 Zn5 2.049852 1_555
O14 Zn3 2.053862 1_655
O15 Zn4 2.098167 1_455
O16 Zn4 2.038670 1_455
O16 Zn5 2.056181 1_555
O17 Zn3 2.075650 1_655
O18 Zn5 2.118388 1_555
O19 Zn5 2.051178 1_555
O19 Zn3 2.058903 1_655
O20 Zn7 2.112951 1_555
O21 Zn7 2.060947 1_555
O21 Zn6 2.078855 1_455
O22 Zn4 2.032630 1_555
O22 Zn7 2.059981 1_555
O23 Zn0 1.971220 1_556
O23 Zn6 2.051864 1_455
O24 Zn7 2.067031 1_555
O24 Zn6 2.072988 1_455
O25 Zn4 2.118865 1_555
O26 Zn7 2.113753 1_555
O27 Zn4 2.041783 1_555
O27 Zn7 2.055873 1_555
O29 Zn6 2.096722 1_555
O30 Zn6 2.070011 1_555
O31 Zn6 2.102133 1_555
