# generated using pymatgen
data_CuSn3
_symmetry_space_group_name_H-M   'P 1'
_cell_length_a   6.62288418
_cell_length_b   6.62288418
_cell_length_c   5.00480800
_cell_angle_alpha   90.00000000
_cell_angle_beta   90.00000000
_cell_angle_gamma   120.00000181
_symmetry_Int_Tables_number   1
_chemical_formula_structural   CuSn3
_chemical_formula_sum   'Cu2 Sn6'
_cell_volume   190.11324102
_cell_formula_units_Z   2
loop_
 _symmetry_equiv_pos_site_id
 _symmetry_equiv_pos_as_xyz
  1  'x, y, z'
loop_
 _atom_site_type_symbol
 _atom_site_label
 _atom_site_symmetry_multiplicity
 _atom_site_fract_x
 _atom_site_fract_y
 _atom_site_fract_z
 _atom_site_occupancy
  Cu  Cu0  1  0.33333300  0.66666700  0.75000000  1
  Cu  Cu1  1  0.66666700  0.33333300  0.25000000  1
  Sn  Sn0  1  0.17234000  0.34468000  0.25000000  1
  Sn  Sn1  1  0.65532000  0.82766000  0.25000000  1
  Sn  Sn2  1  0.17234000  0.82766000  0.25000000  1
  Sn  Sn3  1  0.82766000  0.65532000  0.75000000  1
  Sn  Sn4  1  0.34468000  0.17234000  0.75000000  1
  Sn  Sn5  1  0.82766000  0.17234000  0.75000000  1
loop_
_geom_bond_atom_site_label_1
_geom_bond_atom_site_label_2
_geom_bond_distance
_geom_bond_site_symmetry_2
Cu0 Sn2 3.110083 1_555
Cu0 Sn2 3.110083 1_556
Cu0 Sn0 3.110086 1_555
Cu0 Sn1 3.110086 1_555
Cu0 Sn0 3.110086 1_556
Cu0 Sn1 3.110086 1_556
Cu0 Sn4 3.312078 1_565
Cu0 Sn3 3.312078 1_455
Cu0 Sn5 3.312081 1_565
Cu0 Sn5 3.312081 1_455
Cu0 Sn3 3.312085 1_555
Cu0 Sn4 3.312085 1_555
Cu1 Sn5 3.110083 1_555
Cu1 Sn5 3.110083 1_554
Cu1 Sn3 3.110086 1_555
Cu1 Sn4 3.110086 1_555
Cu1 Sn3 3.110086 1_554
Cu1 Sn4 3.110086 1_554
Cu1 Sn0 3.312078 1_655
Cu1 Sn1 3.312078 1_545
Cu1 Sn2 3.312081 1_655
Cu1 Sn2 3.312081 1_545
Cu1 Sn1 3.312085 1_555
Cu1 Sn0 3.312085 1_555
Sn0 Sn5 3.189095 1_455
Sn0 Sn5 3.189095 1_454
Sn0 Sn4 3.189095 1_555
Sn0 Sn4 3.189095 1_554
Sn0 Sn1 3.198721 1_555
Sn0 Sn2 3.198721 1_555
Sn0 Sn1 3.424163 1_445
Sn0 Sn2 3.424164 1_545
Sn1 Sn5 3.189095 1_564
Sn1 Sn5 3.189095 1_565
Sn1 Sn3 3.189095 1_555
Sn1 Sn3 3.189095 1_554
Sn1 Sn2 3.198721 1_555
Sn1 Sn2 3.424164 1_655
Sn2 Sn4 3.189095 1_565
Sn2 Sn4 3.189095 1_564
Sn2 Sn3 3.189095 1_455
Sn2 Sn3 3.189095 1_454
Sn3 Sn4 3.198721 1_555
Sn3 Sn5 3.198721 1_555
Sn3 Sn4 3.424163 1_665
Sn3 Sn5 3.424164 1_565
Sn4 Sn5 3.198721 1_555
Sn4 Sn5 3.424164 1_455
