# generated using pymatgen
data_ErCrO4
_symmetry_space_group_name_H-M   'P 1'
_cell_length_a   5.02557800
_cell_length_b   5.02557800
_cell_length_c   6.65094992
_cell_angle_alpha   112.19803538
_cell_angle_beta   112.19803538
_cell_angle_gamma   90.00000000
_symmetry_Int_Tables_number   1
_chemical_formula_structural   ErCrO4
_chemical_formula_sum   'Er2 Cr2 O8'
_cell_volume   141.99174903
_cell_formula_units_Z   2
loop_
 _symmetry_equiv_pos_site_id
 _symmetry_equiv_pos_as_xyz
  1  'x, y, z'
loop_
 _atom_site_type_symbol
 _atom_site_label
 _atom_site_symmetry_multiplicity
 _atom_site_fract_x
 _atom_site_fract_y
 _atom_site_fract_z
 _atom_site_occupancy
  Er  Er0  1  0.62500000  0.87500000  0.25000000  1
  Er  Er1  1  0.37500000  0.12500000  0.75000000  1
  Cr  Cr0  1  0.12500000  0.37500000  0.25000000  1
  Cr  Cr1  1  0.87500000  0.62500000  0.75000000  1
  O  O0  1  0.34923000  0.19388700  0.40616100  1
  O  O1  1  0.05693100  0.71227400  0.40616100  1
  O  O2  1  0.69388700  0.55693100  0.90616100  1
  O  O3  1  0.21227400  0.84923000  0.90616100  1
  O  O4  1  0.65077000  0.80611300  0.59383900  1
  O  O5  1  0.94306900  0.28772600  0.59383900  1
  O  O6  1  0.30611300  0.44306900  0.09383900  1
  O  O7  1  0.78772600  0.15077000  0.09383900  1
loop_
_geom_bond_atom_site_label_1
_geom_bond_atom_site_label_2
_geom_bond_distance
_geom_bond_site_symmetry_2
Er0 O1 2.323295 1_655
Er0 O0 2.323295 1_565
Er0 O6 2.323295 1_555
Er0 O7 2.323295 1_565
Er0 O2 2.395990 1_554
Er0 O5 2.395990 1_565
Er0 O4 2.395990 1_555
Er0 O3 2.395990 1_554
Er1 O2 2.323295 1_555
Er1 O3 2.323295 1_545
Er1 O4 2.323295 1_545
Er1 O5 2.323295 1_455
Er1 O7 2.395990 1_556
Er1 O6 2.395990 1_556
Er1 O0 2.395990 1_555
Er1 O1 2.395990 1_545
Cr0 O0 1.734071 1_555
Cr0 O6 1.734071 1_555
Cr0 O1 1.734071 1_555
Cr0 O7 1.734071 1_455
Cr1 O5 1.734071 1_555
Cr1 O4 1.734071 1_555
Cr1 O3 1.734071 1_655
Cr1 O2 1.734071 1_555
