# generated using pymatgen
data_Ce2Ge6Pd
_symmetry_space_group_name_H-M   'P 1'
_cell_length_a   4.12196100
_cell_length_b   4.15852900
_cell_length_c   11.29665742
_cell_angle_alpha   90.00000000
_cell_angle_beta   100.51201236
_cell_angle_gamma   90.00000000
_symmetry_Int_Tables_number   1
_chemical_formula_structural   Ce2Ge6Pd
_chemical_formula_sum   'Ce2 Ge6 Pd1'
_cell_volume   190.38941917
_cell_formula_units_Z   1
loop_
 _symmetry_equiv_pos_site_id
 _symmetry_equiv_pos_as_xyz
  1  'x, y, z'
loop_
 _atom_site_type_symbol
 _atom_site_label
 _atom_site_symmetry_multiplicity
 _atom_site_fract_x
 _atom_site_fract_y
 _atom_site_fract_z
 _atom_site_occupancy
  Ce  Ce0  1  0.78013500  0.50000000  0.56026900  1
  Ce  Ce1  1  0.11400900  0.50000000  0.22801800  1
  Ge  Ge0  1  0.49496000  0.50000000  0.98992000  1
  Ge  Ge1  1  0.38243100  0.50000000  0.76486200  1
  Ge  Ge2  1  0.99410900  0.00000000  0.98821700  1
  Ge  Ge3  1  0.88122000  0.00000000  0.76244100  1
  Ge  Ge4  1  0.66757800  0.00000000  0.33515700  1
  Ge  Ge5  1  0.23485800  0.00000000  0.46971600  1
  Pd  Pd0  1  0.55770000  0.00000000  0.11540000  1
loop_
_geom_bond_atom_site_label_1
_geom_bond_atom_site_label_2
_geom_bond_distance
_geom_bond_site_symmetry_2
Ce0 Ge3 3.060356 1_555
Ce0 Ge3 3.060356 1_565
Ce0 Ge1 3.067826 1_655
Ce0 Ge1 3.067829 1_555
Ce0 Ge5 3.095571 1_655
Ce0 Ge5 3.095571 1_665
Ce0 Ge5 3.095574 1_555
Ce0 Ge5 3.095574 1_565
Ce0 Ge4 3.251923 1_555
Ce0 Ge4 3.251923 1_565
Ce1 Ge4 3.160233 1_555
Ce1 Ge4 3.160233 1_565
Ce1 Ge4 3.160236 1_465
Ce1 Ge4 3.160236 1_455
Ce1 Pd0 3.183649 1_455
Ce1 Pd0 3.183649 1_465
Ce1 Pd0 3.183649 1_565
Ce1 Pd0 3.183649 1_555
Ce1 Ge0 3.352818 1_454
Ce1 Ge0 3.352818 1_554
Ce1 Ge2 3.378978 1_454
Ce1 Ge2 3.378978 1_464
Ce1 Ge5 3.395611 1_565
Ce1 Ge5 3.395611 1_555
Ge0 Ge1 2.499733 1_555
Ge0 Pd0 2.503154 1_556
Ge0 Pd0 2.503154 1_566
Ge0 Ge2 2.927684 1_455
Ge0 Ge2 2.927684 1_465
Ge0 Ge2 2.927686 1_555
Ge0 Ge2 2.927686 1_565
Ge1 Ge3 2.927746 1_565
Ge1 Ge3 2.927746 1_555
Ge1 Ge3 2.927749 1_455
Ge1 Ge3 2.927749 1_465
Ge2 Pd0 2.498630 1_656
Ge2 Pd0 2.498634 1_556
Ge2 Ge3 2.507708 1_555
Ge4 Pd0 2.440855 1_555
Ge4 Ge5 2.545845 1_555
Ge4 Ge5 2.545848 1_655
