# generated using pymatgen
data_Al8SiO14
_symmetry_space_group_name_H-M   'P 1'
_cell_length_a   12.24640000
_cell_length_b   5.66519100
_cell_length_c   18.60326500
_cell_angle_alpha   90.00000000
_cell_angle_beta   90.00000000
_cell_angle_gamma   90.00000000
_symmetry_Int_Tables_number   1
_chemical_formula_structural   Al8SiO14
_chemical_formula_sum   'Al16 Si2 O28'
_cell_volume   1290.66094797
_cell_formula_units_Z   2
loop_
 _symmetry_equiv_pos_site_id
 _symmetry_equiv_pos_as_xyz
  1  'x, y, z'
loop_
 _atom_site_type_symbol
 _atom_site_label
 _atom_site_symmetry_multiplicity
 _atom_site_fract_x
 _atom_site_fract_y
 _atom_site_fract_z
 _atom_site_occupancy
  Al  Al0  1  0.00000000  0.11326900  0.47233400  1
  Al  Al1  1  0.00000000  0.85563200  0.86214200  1
  Al  Al2  1  0.50000000  0.24873300  0.37471300  1
  Al  Al3  1  0.50000000  0.31951300  0.05223300  1
  Al  Al4  1  0.50000000  0.17936100  0.19877200  1
  Al  Al5  1  0.50000000  0.18191000  0.69891000  1
  Al  Al6  1  0.50000000  0.31825600  0.55005500  1
  Al  Al7  1  0.50000000  0.74873300  0.12528700  1
  Al  Al8  1  0.50000000  0.67936100  0.30122800  1
  Al  Al9  1  0.50000000  0.81825600  0.94994500  1
  Al  Al10  1  0.50000000  0.81951300  0.44776700  1
  Al  Al11  1  0.50000000  0.68191000  0.80109000  1
  Al  Al12  1  0.00000000  0.11065500  0.12114800  1
  Al  Al13  1  0.00000000  0.61065500  0.37885200  1
  Al  Al14  1  0.00000000  0.35563200  0.63785800  1
  Al  Al15  1  0.00000000  0.61326900  0.02766600  1
  Si  Si0  1  0.50000000  0.75061500  0.62450500  1
  Si  Si1  1  0.50000000  0.25061500  0.87549500  1
  O  O0  1  0.00000000  0.33390800  0.05963100  1
  O  O1  1  0.00000000  0.82971600  0.09077500  1
  O  O2  1  0.00000000  0.83390800  0.44036900  1
  O  O3  1  0.00000000  0.80030400  0.77112200  1
  O  O4  1  0.00000000  0.68017400  0.93832400  1
  O  O5  1  0.50000000  0.45307300  0.64311300  1
  O  O6  1  0.50000000  0.64459900  0.03112700  1
  O  O7  1  0.50000000  0.55242400  0.39468000  1
  O  O8  1  0.50000000  0.84851700  0.71697400  1
  O  O9  1  0.50000000  0.35122700  0.28109600  1
  O  O10  1  0.50000000  0.04882400  0.60739000  1
  O  O11  1  0.50000000  0.05242400  0.10532000  1
  O  O12  1  0.50000000  0.14459900  0.46887300  1
  O  O13  1  0.50000000  0.15494300  0.96661500  1
  O  O14  1  0.50000000  0.44482000  0.14450000  1
  O  O15  1  0.50000000  0.94482000  0.35550000  1
  O  O16  1  0.50000000  0.85122700  0.21890400  1
  O  O17  1  0.50000000  0.65494300  0.53338500  1
  O  O18  1  0.50000000  0.95307300  0.85688700  1
  O  O19  1  0.50000000  0.34851700  0.78302600  1
  O  O20  1  0.50000000  0.54882400  0.89261000  1
  O  O21  1  0.00000000  0.14510700  0.21338400  1
  O  O22  1  0.00000000  0.13441900  0.89997900  1
  O  O23  1  0.00000000  0.18017400  0.56167600  1
  O  O24  1  0.00000000  0.32971600  0.40922500  1
  O  O25  1  0.00000000  0.30030400  0.72887800  1
  O  O26  1  0.00000000  0.64510700  0.28661600  1
  O  O27  1  0.00000000  0.63441900  0.60002100  1
loop_
_geom_bond_atom_site_label_1
_geom_bond_atom_site_label_2
_geom_bond_distance
_geom_bond_site_symmetry_2
Al0 O2 1.690663 1_545
Al0 O24 1.697632 1_555
Al0 O23 1.704724 1_555
Al1 O3 1.722036 1_555
Al1 O22 1.729136 1_565
Al1 O4 1.731067 1_555
Al2 O15 1.758434 1_545
Al2 O7 1.760109 1_555
Al2 O9 1.835827 1_555
Al2 O12 1.848357 1_555
Al3 O11 1.806887 1_555
Al3 O13 1.845576 1_554
Al3 O14 1.857472 1_555
Al3 O6 1.883064 1_555
Al4 O14 1.811355 1_555
Al4 O9 1.814794 1_555
Al4 O11 1.881372 1_555
Al4 O16 1.896294 1_545
Al5 O19 1.827450 1_555
Al5 O5 1.854006 1_555
Al5 O10 1.862042 1_555
Al5 O8 1.918398 1_545
Al6 O12 1.802420 1_555
Al6 O10 1.862128 1_555
Al6 O5 1.892176 1_555
Al6 O17 1.932442 1_555
Al7 O14 1.758434 1_555
Al7 O11 1.760109 1_565
Al7 O16 1.835827 1_555
Al7 O6 1.848357 1_555
Al8 O15 1.811355 1_555
Al8 O16 1.814794 1_555
Al8 O7 1.881372 1_555
Al8 O9 1.896294 1_555
Al9 O6 1.802420 1_556
Al9 O20 1.862128 1_555
Al9 O18 1.892176 1_555
Al9 O13 1.932442 1_565
Al10 O7 1.806887 1_555
Al10 O17 1.845576 1_555
Al10 O15 1.857472 1_555
Al10 O12 1.883064 1_565
Al11 O8 1.827450 1_555
Al11 O18 1.854006 1_555
Al11 O20 1.862042 1_555
Al11 O19 1.918398 1_555
Al12 O1 1.688897 1_545
Al12 O0 1.705678 1_555
Al12 O21 1.726955 1_555
Al13 O24 1.688897 1_555
Al13 O2 1.705678 1_555
Al13 O26 1.726955 1_555
Al14 O25 1.722036 1_555
Al14 O27 1.729136 1_555
Al14 O23 1.731067 1_555
Al15 O0 1.690663 1_555
Al15 O1 1.697632 1_555
Al15 O4 1.704724 1_554
O5 Si0 1.720811 1_555
O8 Si0 1.807427 1_555
O10 Si0 1.719152 1_545
O13 Si1 1.779671 1_555
O17 Si0 1.779671 1_555
O18 Si1 1.720811 1_565
O19 Si1 1.807427 1_555
O20 Si1 1.719152 1_555
