# generated using pymatgen
data_Cu2Pd3Se4
_symmetry_space_group_name_H-M   'P 1'
_cell_length_a   9.99319900
_cell_length_b   5.72182900
_cell_length_c   6.30158276
_cell_angle_alpha   64.51629099
_cell_angle_beta   90.00000000
_cell_angle_gamma   90.00000000
_symmetry_Int_Tables_number   1
_chemical_formula_structural   Cu2Pd3Se4
_chemical_formula_sum   'Cu4 Pd6 Se8'
_cell_volume   325.26413614
_cell_formula_units_Z   2
loop_
 _symmetry_equiv_pos_site_id
 _symmetry_equiv_pos_as_xyz
  1  'x, y, z'
loop_
 _atom_site_type_symbol
 _atom_site_label
 _atom_site_symmetry_multiplicity
 _atom_site_fract_x
 _atom_site_fract_y
 _atom_site_fract_z
 _atom_site_occupancy
  Cu  Cu0  1  0.19292500  0.38233900  0.98357700  1
  Cu  Cu1  1  0.80707500  0.61766100  0.01642300  1
  Cu  Cu2  1  0.69292500  0.61766100  0.51642300  1
  Cu  Cu3  1  0.30707500  0.38233900  0.48357700  1
  Pd  Pd0  1  0.12843100  0.73971100  0.50094900  1
  Pd  Pd1  1  0.87156900  0.26028900  0.49905100  1
  Pd  Pd2  1  0.62843100  0.26028900  0.99905100  1
  Pd  Pd3  1  0.37156900  0.73971100  0.00094900  1
  Pd  Pd4  1  0.50000000  0.00000000  0.50000000  1
  Pd  Pd5  1  0.00000000  0.00000000  0.00000000  1
  Se  Se0  1  0.18714200  0.98665600  0.73438900  1
  Se  Se1  1  0.81285800  0.01334400  0.26561100  1
  Se  Se2  1  0.68714200  0.01334400  0.76561100  1
  Se  Se3  1  0.31285800  0.98665600  0.23438900  1
  Se  Se4  1  0.44484000  0.52975000  0.73984700  1
  Se  Se5  1  0.55516000  0.47025000  0.26015300  1
  Se  Se6  1  0.94484000  0.47025000  0.76015300  1
  Se  Se7  1  0.05516000  0.52975000  0.23984700  1
loop_
_geom_bond_atom_site_label_1
_geom_bond_atom_site_label_2
_geom_bond_distance
_geom_bond_site_symmetry_2
Cu0 Se3 2.445630 1_546
Cu0 Se7 2.527211 1_556
Cu0 Pd3 2.751896 1_556
Cu0 Se6 2.787850 1_455
Cu0 Se4 2.879775 1_555
Cu0 Pd5 2.884228 1_556
Cu0 Pd0 2.914591 1_555
Cu1 Se2 2.445630 1_564
Cu1 Se6 2.527211 1_554
Cu1 Pd2 2.751896 1_554
Cu1 Se7 2.787850 1_655
Cu1 Se5 2.879775 1_555
Cu1 Pd5 2.884228 1_665
Cu1 Pd1 2.914591 1_555
Cu2 Se1 2.445630 1_565
Cu2 Se5 2.527211 1_555
Cu2 Pd1 2.751896 1_555
Cu2 Se4 2.787850 1_555
Cu2 Se6 2.879775 1_555
Cu2 Pd4 2.884228 1_565
Cu2 Pd2 2.914591 1_555
Cu3 Se0 2.445630 1_545
Cu3 Se4 2.527211 1_555
Cu3 Pd0 2.751896 1_555
Cu3 Se5 2.787850 1_555
Cu3 Se7 2.879775 1_555
Cu3 Pd4 2.884228 1_555
Cu3 Pd3 2.914591 1_555
Pd0 Se3 2.484431 1_555
Pd0 Se6 2.498809 1_455
Pd0 Se0 2.508646 1_555
Pd0 Se7 2.527358 1_555
Pd1 Se2 2.484431 1_555
Pd1 Se7 2.498809 1_655
Pd1 Se1 2.508646 1_555
Pd1 Se6 2.527358 1_555
Pd2 Se1 2.484431 1_556
Pd2 Se4 2.498809 1_555
Pd2 Se2 2.508646 1_555
Pd2 Se5 2.527358 1_556
Pd3 Se0 2.484431 1_554
Pd3 Se5 2.498809 1_555
Pd3 Se3 2.508646 1_555
Pd3 Se4 2.527358 1_554
Pd4 Se4 2.515664 1_545
Pd4 Se5 2.515664 1_555
Pd4 Se2 2.532737 1_555
Pd4 Se3 2.532737 1_545
Pd5 Se7 2.515664 1_545
Pd5 Se6 2.515664 1_454
Pd5 Se0 2.532737 1_544
Pd5 Se1 2.532737 1_455
