# generated using pymatgen
data_Mg7Si4
_symmetry_space_group_name_H-M   'P 1'
_cell_length_a   6.58128400
_cell_length_b   18.52702224
_cell_length_c   28.62527955
_cell_angle_alpha   86.17395567
_cell_angle_beta   89.53269400
_cell_angle_gamma   89.73228917
_symmetry_Int_Tables_number   1
_chemical_formula_structural   Mg7Si4
_chemical_formula_sum   'Mg112 Si64'
_cell_volume   3482.40125519
_cell_formula_units_Z   16
loop_
 _symmetry_equiv_pos_site_id
 _symmetry_equiv_pos_as_xyz
  1  'x, y, z'
loop_
 _atom_site_type_symbol
 _atom_site_label
 _atom_site_symmetry_multiplicity
 _atom_site_fract_x
 _atom_site_fract_y
 _atom_site_fract_z
 _atom_site_occupancy
  Mg  Mg0_0  1  0.31127750  0.46953000  0.06320300  1
  Mg  Mg0_1  1  0.31127750  0.46953000  0.56320300  1
  Mg  Mg0_2  1  0.31127750  0.96953000  0.06320300  1
  Mg  Mg0_3  1  0.31127750  0.96953000  0.56320300  1
  Mg  Mg0_4  1  0.81127750  0.46953000  0.06320300  1
  Mg  Mg0_5  1  0.81127750  0.46953000  0.56320300  1
  Mg  Mg0_6  1  0.81127750  0.96953000  0.06320300  1
  Mg  Mg0_7  1  0.81127750  0.96953000  0.56320300  1
  Mg  Mg1_0  1  0.07238100  0.22696150  0.25301350  1
  Mg  Mg1_1  1  0.07238100  0.22696150  0.75301350  1
  Mg  Mg1_2  1  0.07238100  0.72696150  0.25301350  1
  Mg  Mg1_3  1  0.07238100  0.72696150  0.75301350  1
  Mg  Mg1_4  1  0.57238100  0.22696150  0.25301350  1
  Mg  Mg1_5  1  0.57238100  0.22696150  0.75301350  1
  Mg  Mg1_6  1  0.57238100  0.72696150  0.25301350  1
  Mg  Mg1_7  1  0.57238100  0.72696150  0.75301350  1
  Mg  Mg2_0  1  0.32304900  0.30290850  0.32382500  1
  Mg  Mg2_1  1  0.32304900  0.30290850  0.82382500  1
  Mg  Mg2_2  1  0.32304900  0.80290850  0.32382500  1
  Mg  Mg2_3  1  0.32304900  0.80290850  0.82382500  1
  Mg  Mg2_4  1  0.82304900  0.30290850  0.32382500  1
  Mg  Mg2_5  1  0.82304900  0.30290850  0.82382500  1
  Mg  Mg2_6  1  0.82304900  0.80290850  0.32382500  1
  Mg  Mg2_7  1  0.82304900  0.80290850  0.82382500  1
  Mg  Mg3_0  1  0.32394450  0.15684000  0.18223400  1
  Mg  Mg3_1  1  0.32394450  0.15684000  0.68223400  1
  Mg  Mg3_2  1  0.32394450  0.65684000  0.18223400  1
  Mg  Mg3_3  1  0.32394450  0.65684000  0.68223400  1
  Mg  Mg3_4  1  0.82394450  0.15684000  0.18223400  1
  Mg  Mg3_5  1  0.82394450  0.15684000  0.68223400  1
  Mg  Mg3_6  1  0.82394450  0.65684000  0.18223400  1
  Mg  Mg3_7  1  0.82394450  0.65684000  0.68223400  1
  Mg  Mg4_0  1  0.31634650  0.20939350  0.08573400  1
  Mg  Mg4_1  1  0.31634650  0.20939350  0.58573400  1
  Mg  Mg4_2  1  0.31634650  0.70939350  0.08573400  1
  Mg  Mg4_3  1  0.31634650  0.70939350  0.58573400  1
  Mg  Mg4_4  1  0.81634650  0.20939350  0.08573400  1
  Mg  Mg4_5  1  0.81634650  0.20939350  0.58573400  1
  Mg  Mg4_6  1  0.81634650  0.70939350  0.08573400  1
  Mg  Mg4_7  1  0.81634650  0.70939350  0.58573400  1
  Mg  Mg5_0  1  0.32136500  0.42220100  0.38515750  1
  Mg  Mg5_1  1  0.32136500  0.42220100  0.88515750  1
  Mg  Mg5_2  1  0.32136500  0.92220100  0.38515750  1
  Mg  Mg5_3  1  0.32136500  0.92220100  0.88515750  1
  Mg  Mg5_4  1  0.82136500  0.42220100  0.38515750  1
  Mg  Mg5_5  1  0.82136500  0.42220100  0.88515750  1
  Mg  Mg5_6  1  0.82136500  0.92220100  0.38515750  1
  Mg  Mg5_7  1  0.82136500  0.92220100  0.88515750  1
  Mg  Mg6_0  1  0.32035800  0.09257500  0.28879350  1
  Mg  Mg6_1  1  0.32035800  0.09257500  0.78879350  1
  Mg  Mg6_2  1  0.32035800  0.59257500  0.28879350  1
  Mg  Mg6_3  1  0.32035800  0.59257500  0.78879350  1
  Mg  Mg6_4  1  0.82035800  0.09257500  0.28879350  1
  Mg  Mg6_5  1  0.82035800  0.09257500  0.78879350  1
  Mg  Mg6_6  1  0.82035800  0.59257500  0.28879350  1
  Mg  Mg6_7  1  0.82035800  0.59257500  0.78879350  1
  Mg  Mg7_0  1  0.32070800  0.35033850  0.21526000  1
  Mg  Mg7_1  1  0.32070800  0.35033850  0.71526000  1
  Mg  Mg7_2  1  0.32070800  0.85033850  0.21526000  1
  Mg  Mg7_3  1  0.32070800  0.85033850  0.71526000  1
  Mg  Mg7_4  1  0.82070800  0.35033850  0.21526000  1
  Mg  Mg7_5  1  0.82070800  0.35033850  0.71526000  1
  Mg  Mg7_6  1  0.82070800  0.85033850  0.21526000  1
  Mg  Mg7_7  1  0.82070800  0.85033850  0.71526000  1
  Mg  Mg8_0  1  0.07468200  0.39890150  0.47842800  1
  Mg  Mg8_1  1  0.07468200  0.39890150  0.97842800  1
  Mg  Mg8_2  1  0.07468200  0.89890150  0.47842800  1
  Mg  Mg8_3  1  0.07468200  0.89890150  0.97842800  1
  Mg  Mg8_4  1  0.57468200  0.39890150  0.47842800  1
  Mg  Mg8_5  1  0.57468200  0.39890150  0.97842800  1
  Mg  Mg8_6  1  0.57468200  0.89890150  0.47842800  1
  Mg  Mg8_7  1  0.57468200  0.89890150  0.97842800  1
  Mg  Mg9_0  1  0.06977950  0.10920550  0.02531100  1
  Mg  Mg9_1  1  0.06977950  0.10920550  0.52531100  1
  Mg  Mg9_2  1  0.06977950  0.60920550  0.02531100  1
  Mg  Mg9_3  1  0.06977950  0.60920550  0.52531100  1
  Mg  Mg9_4  1  0.56977950  0.10920550  0.02531100  1
  Mg  Mg9_5  1  0.56977950  0.10920550  0.52531100  1
  Mg  Mg9_6  1  0.56977950  0.60920550  0.02531100  1
  Mg  Mg9_7  1  0.56977950  0.60920550  0.52531100  1
  Mg  Mg10_0  1  0.32738000  0.24810300  0.48444850  1
  Mg  Mg10_1  1  0.32738000  0.24810300  0.98444850  1
  Mg  Mg10_2  1  0.32738000  0.74810300  0.48444850  1
  Mg  Mg10_3  1  0.32738000  0.74810300  0.98444850  1
  Mg  Mg10_4  1  0.82738000  0.24810300  0.48444850  1
  Mg  Mg10_5  1  0.82738000  0.24810300  0.98444850  1
  Mg  Mg10_6  1  0.82738000  0.74810300  0.48444850  1
  Mg  Mg10_7  1  0.82738000  0.74810300  0.98444850  1
  Mg  Mg11_0  1  0.32244800  0.03860300  0.45113750  1
  Mg  Mg11_1  1  0.32244800  0.03860300  0.95113750  1
  Mg  Mg11_2  1  0.32244800  0.53860300  0.45113750  1
  Mg  Mg11_3  1  0.32244800  0.53860300  0.95113750  1
  Mg  Mg11_4  1  0.82244800  0.03860300  0.45113750  1
  Mg  Mg11_5  1  0.82244800  0.03860300  0.95113750  1
  Mg  Mg11_6  1  0.82244800  0.53860300  0.45113750  1
  Mg  Mg11_7  1  0.82244800  0.53860300  0.95113750  1
  Mg  Mg12_0  1  0.29345400  0.00182150  0.19276800  1
  Mg  Mg12_1  1  0.29345400  0.00182150  0.69276800  1
  Mg  Mg12_2  1  0.29345400  0.50182150  0.19276800  1
  Mg  Mg12_3  1  0.29345400  0.50182150  0.69276800  1
  Mg  Mg12_4  1  0.79345400  0.00182150  0.19276800  1
  Mg  Mg12_5  1  0.79345400  0.00182150  0.69276800  1
  Mg  Mg12_6  1  0.79345400  0.50182150  0.19276800  1
  Mg  Mg12_7  1  0.79345400  0.50182150  0.69276800  1
  Mg  Mg13_0  1  0.06537100  0.44654450  0.28871750  1
  Mg  Mg13_1  1  0.06537100  0.44654450  0.78871750  1
  Mg  Mg13_2  1  0.06537100  0.94654450  0.28871750  1
  Mg  Mg13_3  1  0.06537100  0.94654450  0.78871750  1
  Mg  Mg13_4  1  0.56537100  0.44654450  0.28871750  1
  Mg  Mg13_5  1  0.56537100  0.44654450  0.78871750  1
  Mg  Mg13_6  1  0.56537100  0.94654450  0.28871750  1
  Mg  Mg13_7  1  0.56537100  0.94654450  0.78871750  1
  Si  Si0_0  1  0.07279400  0.15915800  0.42807750  1
  Si  Si0_1  1  0.07279400  0.15915800  0.92807750  1
  Si  Si0_2  1  0.07279400  0.65915800  0.42807750  1
  Si  Si0_3  1  0.07279400  0.65915800  0.92807750  1
  Si  Si0_4  1  0.57279400  0.15915800  0.42807750  1
  Si  Si0_5  1  0.57279400  0.15915800  0.92807750  1
  Si  Si0_6  1  0.57279400  0.65915800  0.42807750  1
  Si  Si0_7  1  0.57279400  0.65915800  0.92807750  1
  Si  Si1_0  1  0.05754900  0.07395500  0.11996150  1
  Si  Si1_1  1  0.05754900  0.07395500  0.61996150  1
  Si  Si1_2  1  0.05754900  0.57395500  0.11996150  1
  Si  Si1_3  1  0.05754900  0.57395500  0.61996150  1
  Si  Si1_4  1  0.55754900  0.07395500  0.11996150  1
  Si  Si1_5  1  0.55754900  0.07395500  0.61996150  1
  Si  Si1_6  1  0.55754900  0.57395500  0.11996150  1
  Si  Si1_7  1  0.55754900  0.57395500  0.61996150  1
  Si  Si2_0  1  0.06974800  0.27532850  0.15219600  1
  Si  Si2_1  1  0.06974800  0.27532850  0.65219600  1
  Si  Si2_2  1  0.06974800  0.77532850  0.15219600  1
  Si  Si2_3  1  0.06974800  0.77532850  0.65219600  1
  Si  Si2_4  1  0.56974800  0.27532850  0.15219600  1
  Si  Si2_5  1  0.56974800  0.27532850  0.65219600  1
  Si  Si2_6  1  0.56974800  0.77532850  0.15219600  1
  Si  Si2_7  1  0.56974800  0.77532850  0.65219600  1
  Si  Si3_0  1  0.07479300  0.17933950  0.34543400  1
  Si  Si3_1  1  0.07479300  0.17933950  0.84543400  1
  Si  Si3_2  1  0.07479300  0.67933950  0.34543400  1
  Si  Si3_3  1  0.07479300  0.67933950  0.84543400  1
  Si  Si3_4  1  0.57479300  0.17933950  0.34543400  1
  Si  Si3_5  1  0.57479300  0.17933950  0.84543400  1
  Si  Si3_6  1  0.57479300  0.67933950  0.34543400  1
  Si  Si3_7  1  0.57479300  0.67933950  0.84543400  1
  Si  Si4_0  1  0.07763100  0.29714950  0.40876400  1
  Si  Si4_1  1  0.07763100  0.29714950  0.90876400  1
  Si  Si4_2  1  0.07763100  0.79714950  0.40876400  1
  Si  Si4_3  1  0.07763100  0.79714950  0.90876400  1
  Si  Si4_4  1  0.57763100  0.29714950  0.40876400  1
  Si  Si4_5  1  0.57763100  0.29714950  0.90876400  1
  Si  Si4_6  1  0.57763100  0.79714950  0.40876400  1
  Si  Si4_7  1  0.57763100  0.79714950  0.90876400  1
  Si  Si5_0  1  0.05927850  0.33773950  0.06884100  1
  Si  Si5_1  1  0.05927850  0.33773950  0.56884100  1
  Si  Si5_2  1  0.05927850  0.83773950  0.06884100  1
  Si  Si5_3  1  0.05927850  0.83773950  0.56884100  1
  Si  Si5_4  1  0.55927850  0.33773950  0.06884100  1
  Si  Si5_5  1  0.55927850  0.33773950  0.56884100  1
  Si  Si5_6  1  0.55927850  0.83773950  0.06884100  1
  Si  Si5_7  1  0.55927850  0.83773950  0.56884100  1
  Si  Si6_0  1  0.05839350  0.40789200  0.14098500  1
  Si  Si6_1  1  0.05839350  0.40789200  0.64098500  1
  Si  Si6_2  1  0.05839350  0.90789200  0.14098500  1
  Si  Si6_3  1  0.05839350  0.90789200  0.64098500  1
  Si  Si6_4  1  0.55839350  0.40789200  0.14098500  1
  Si  Si6_5  1  0.55839350  0.40789200  0.64098500  1
  Si  Si6_6  1  0.55839350  0.90789200  0.14098500  1
  Si  Si6_7  1  0.55839350  0.90789200  0.64098500  1
  Si  Si7_0  1  0.06909350  0.04371100  0.36590350  1
  Si  Si7_1  1  0.06909350  0.04371100  0.86590350  1
  Si  Si7_2  1  0.06909350  0.54371100  0.36590350  1
  Si  Si7_3  1  0.06909350  0.54371100  0.86590350  1
  Si  Si7_4  1  0.56909350  0.04371100  0.36590350  1
  Si  Si7_5  1  0.56909350  0.04371100  0.86590350  1
  Si  Si7_6  1  0.56909350  0.54371100  0.36590350  1
  Si  Si7_7  1  0.56909350  0.54371100  0.86590350  1
loop_
_geom_bond_atom_site_label_1
_geom_bond_atom_site_label_2
_geom_bond_distance
_geom_bond_site_symmetry_2
Mg0_0 Si5_4 2.926825 1_555
Mg0_0 Si6_4 2.934093 1_555
Mg0_0 Si6_0 2.940990 1_555
Mg0_0 Si5_0 2.952847 1_555
Mg0_0 Si1_6 3.082439 1_555
Mg0_0 Si1_2 3.084838 1_555
Mg0_1 Si5_5 2.926825 1_555
Mg0_1 Si6_5 2.934093 1_555
Mg0_1 Si6_1 2.940990 1_555
Mg0_1 Si5_1 2.952847 1_555
Mg0_1 Si1_7 3.082439 1_555
Mg0_1 Si1_3 3.084838 1_555
Mg0_2 Si5_6 2.926825 1_555
Mg0_2 Si6_6 2.934093 1_555
Mg0_2 Si6_2 2.940990 1_555
Mg0_2 Si5_2 2.952847 1_555
Mg0_2 Si1_4 3.082439 1_565
Mg0_2 Si1_0 3.084838 1_565
Mg0_3 Si5_7 2.926825 1_555
Mg0_3 Si6_7 2.934093 1_555
Mg0_3 Si6_3 2.940990 1_555
Mg0_3 Si5_3 2.952847 1_555
Mg0_3 Si1_5 3.082439 1_565
Mg0_3 Si1_1 3.084838 1_565
Mg0_4 Si5_0 2.926825 1_655
Mg0_4 Si6_0 2.934093 1_655
Mg0_4 Si6_4 2.940990 1_555
Mg0_4 Si5_4 2.952847 1_555
Mg0_4 Si1_2 3.082439 1_655
Mg0_4 Si1_6 3.084838 1_555
Mg0_5 Si5_1 2.926825 1_655
Mg0_5 Si6_1 2.934093 1_655
Mg0_5 Si6_5 2.940990 1_555
Mg0_5 Si5_5 2.952847 1_555
Mg0_5 Si1_3 3.082439 1_655
Mg0_5 Si1_7 3.084838 1_555
Mg0_6 Si5_2 2.926825 1_655
Mg0_6 Si6_2 2.934093 1_655
Mg0_6 Si6_6 2.940990 1_555
Mg0_6 Si5_6 2.952847 1_555
Mg0_6 Si1_0 3.082439 1_665
Mg0_6 Si1_4 3.084838 1_565
Mg0_7 Si5_3 2.926825 1_655
Mg0_7 Si6_3 2.934093 1_655
Mg0_7 Si6_7 2.940990 1_555
Mg0_7 Si5_7 2.952847 1_555
Mg0_7 Si1_1 3.082439 1_665
Mg0_7 Si1_5 3.084838 1_565
Mg1_0 Si3_0 2.732534 1_555
Mg1_0 Si2_0 2.964359 1_555
Mg1_1 Si3_1 2.732534 1_555
Mg1_1 Si2_1 2.964359 1_555
Mg1_2 Si3_2 2.732534 1_555
Mg1_2 Si2_2 2.964359 1_555
Mg1_3 Si3_3 2.732534 1_555
Mg1_3 Si2_3 2.964359 1_555
Mg1_4 Si3_4 2.732534 1_555
Mg1_4 Si2_4 2.964359 1_555
Mg1_5 Si3_5 2.732534 1_555
Mg1_5 Si2_5 2.964359 1_555
Mg1_6 Si3_6 2.732534 1_555
Mg1_6 Si2_6 2.964359 1_555
Mg1_7 Si3_7 2.732534 1_555
Mg1_7 Si2_7 2.964359 1_555
Mg2_0 Si3_0 2.850042 1_555
Mg2_0 Si3_4 2.856761 1_555
Mg2_0 Si4_0 2.904272 1_555
Mg2_0 Si4_4 2.959811 1_555
Mg2_1 Si3_1 2.850042 1_555
Mg2_1 Si3_5 2.856761 1_555
Mg2_1 Si4_1 2.904272 1_555
Mg2_1 Si4_5 2.959811 1_555
Mg2_2 Si3_2 2.850042 1_555
Mg2_2 Si3_6 2.856761 1_555
Mg2_2 Si4_2 2.904272 1_555
Mg2_2 Si4_6 2.959811 1_555
Mg2_3 Si3_3 2.850042 1_555
Mg2_3 Si3_7 2.856761 1_555
Mg2_3 Si4_3 2.904272 1_555
Mg2_3 Si4_7 2.959811 1_555
Mg2_4 Si3_4 2.850042 1_555
Mg2_4 Si3_0 2.856761 1_655
Mg2_4 Si4_4 2.904272 1_555
Mg2_4 Si4_0 2.959811 1_655
Mg2_5 Si3_5 2.850042 1_555
Mg2_5 Si3_1 2.856761 1_655
Mg2_5 Si4_5 2.904272 1_555
Mg2_5 Si4_1 2.959811 1_655
Mg2_6 Si3_6 2.850042 1_555
Mg2_6 Si3_2 2.856761 1_655
Mg2_6 Si4_6 2.904272 1_555
Mg2_6 Si4_2 2.959811 1_655
Mg2_7 Si3_7 2.850042 1_555
Mg2_7 Si3_3 2.856761 1_655
Mg2_7 Si4_7 2.904272 1_555
Mg2_7 Si4_3 2.959811 1_655
Mg3_0 Si2_4 2.816729 1_555
Mg3_0 Si2_0 2.845062 1_555
Mg3_0 Si1_4 2.863189 1_555
Mg3_0 Mg4_0 2.867733 1_555
Mg3_0 Si1_0 3.008471 1_555
Mg3_1 Si2_5 2.816729 1_555
Mg3_1 Si2_1 2.845062 1_555
Mg3_1 Si1_5 2.863189 1_555
Mg3_1 Mg4_1 2.867733 1_555
Mg3_1 Si1_1 3.008471 1_555
Mg3_2 Si2_6 2.816729 1_555
Mg3_2 Si2_2 2.845062 1_555
Mg3_2 Si1_6 2.863189 1_555
Mg3_2 Mg4_2 2.867733 1_555
Mg3_2 Si1_2 3.008471 1_555
Mg3_3 Si2_7 2.816729 1_555
Mg3_3 Si2_3 2.845062 1_555
Mg3_3 Si1_7 2.863189 1_555
Mg3_3 Mg4_3 2.867733 1_555
Mg3_3 Si1_3 3.008471 1_555
Mg3_4 Si2_0 2.816729 1_655
Mg3_4 Si2_4 2.845062 1_555
Mg3_4 Si1_0 2.863189 1_655
Mg3_4 Mg4_4 2.867733 1_555
Mg3_4 Si1_4 3.008471 1_555
Mg3_5 Si2_1 2.816729 1_655
Mg3_5 Si2_5 2.845062 1_555
Mg3_5 Si1_1 2.863189 1_655
Mg3_5 Mg4_5 2.867733 1_555
Mg3_5 Si1_5 3.008471 1_555
Mg3_6 Si2_2 2.816729 1_655
Mg3_6 Si2_6 2.845062 1_555
Mg3_6 Si1_2 2.863189 1_655
Mg3_6 Mg4_6 2.867733 1_555
Mg3_6 Si1_6 3.008471 1_555
Mg3_7 Si2_3 2.816729 1_655
Mg3_7 Si2_7 2.845062 1_555
Mg3_7 Si1_3 2.863189 1_655
Mg3_7 Mg4_7 2.867733 1_555
Mg3_7 Si1_7 3.008471 1_555
Mg4_0 Si2_0 2.826114 1_555
Mg4_0 Si2_4 2.876444 1_555
Mg4_0 Si5_4 2.883355 1_555
Mg4_0 Si5_0 2.927919 1_555
Mg4_0 Si1_4 3.071865 1_555
Mg4_0 Mg9_4 3.093774 1_555
Mg4_0 Mg9_0 3.093971 1_555
Mg4_0 Si1_0 3.137192 1_555
Mg4_0 Mg4_4 3.290642 1_555
Mg4_0 Mg4_4 3.290642 1_455
Mg4_1 Si2_1 2.826114 1_555
Mg4_1 Si2_5 2.876444 1_555
Mg4_1 Si5_5 2.883355 1_555
Mg4_1 Si5_1 2.927919 1_555
Mg4_1 Si1_5 3.071865 1_555
Mg4_1 Mg9_5 3.093774 1_555
Mg4_1 Mg9_1 3.093971 1_555
Mg4_1 Si1_1 3.137192 1_555
Mg4_1 Mg4_5 3.290642 1_455
Mg4_1 Mg4_5 3.290642 1_555
Mg4_2 Si2_2 2.826114 1_555
Mg4_2 Si2_6 2.876444 1_555
Mg4_2 Si5_6 2.883355 1_555
Mg4_2 Si5_2 2.927919 1_555
Mg4_2 Si1_6 3.071865 1_555
Mg4_2 Mg9_6 3.093774 1_555
Mg4_2 Mg9_2 3.093971 1_555
Mg4_2 Si1_2 3.137192 1_555
Mg4_2 Mg4_6 3.290642 1_555
Mg4_2 Mg4_6 3.290642 1_455
Mg4_3 Si2_3 2.826114 1_555
Mg4_3 Si2_7 2.876444 1_555
Mg4_3 Si5_7 2.883355 1_555
Mg4_3 Si5_3 2.927919 1_555
Mg4_3 Si1_7 3.071865 1_555
Mg4_3 Mg9_7 3.093774 1_555
Mg4_3 Mg9_3 3.093971 1_555
Mg4_3 Si1_3 3.137192 1_555
Mg4_3 Mg4_7 3.290642 1_555
Mg4_3 Mg4_7 3.290642 1_455
Mg4_4 Si2_4 2.826114 1_555
Mg4_4 Si2_0 2.876444 1_655
Mg4_4 Si5_0 2.883355 1_655
Mg4_4 Si5_4 2.927919 1_555
Mg4_4 Si1_0 3.071865 1_655
Mg4_4 Mg9_0 3.093774 1_655
Mg4_4 Mg9_4 3.093971 1_555
Mg4_4 Si1_4 3.137192 1_555
Mg4_5 Si2_5 2.826114 1_555
Mg4_5 Si2_1 2.876444 1_655
Mg4_5 Si5_1 2.883355 1_655
Mg4_5 Si5_5 2.927919 1_555
Mg4_5 Si1_1 3.071865 1_655
Mg4_5 Mg9_1 3.093774 1_655
Mg4_5 Mg9_5 3.093971 1_555
Mg4_5 Si1_5 3.137192 1_555
Mg4_6 Si2_6 2.826114 1_555
Mg4_6 Si2_2 2.876444 1_655
Mg4_6 Si5_2 2.883355 1_655
Mg4_6 Si5_6 2.927919 1_555
Mg4_6 Si1_2 3.071865 1_655
Mg4_6 Mg9_2 3.093774 1_655
Mg4_6 Mg9_6 3.093971 1_555
Mg4_6 Si1_6 3.137192 1_555
Mg4_7 Si2_7 2.826114 1_555
Mg4_7 Si2_3 2.876444 1_655
Mg4_7 Si5_3 2.883355 1_655
Mg4_7 Si5_7 2.927919 1_555
Mg4_7 Si1_3 3.071865 1_655
Mg4_7 Mg9_3 3.093774 1_655
Mg4_7 Mg9_7 3.093971 1_555
Mg4_7 Si1_7 3.137192 1_555
Mg5_0 Si7_6 2.807832 1_555
Mg5_0 Si7_2 2.818273 1_555
Mg5_0 Si4_0 2.864530 1_555
Mg5_0 Si4_4 2.905505 1_555
Mg5_1 Si7_7 2.807832 1_555
Mg5_1 Si7_3 2.818273 1_555
Mg5_1 Si4_1 2.864530 1_555
Mg5_1 Si4_5 2.905505 1_555
Mg5_2 Si7_4 2.807832 1_565
Mg5_2 Si7_0 2.818273 1_565
Mg5_2 Si4_2 2.864530 1_555
Mg5_2 Si4_6 2.905505 1_555
Mg5_3 Si7_5 2.807832 1_565
Mg5_3 Si7_1 2.818273 1_565
Mg5_3 Si4_3 2.864530 1_555
Mg5_3 Si4_7 2.905505 1_555
Mg5_4 Si7_2 2.807832 1_655
Mg5_4 Si7_6 2.818273 1_555
Mg5_4 Si4_4 2.864530 1_555
Mg5_4 Si4_0 2.905505 1_655
Mg5_5 Si7_3 2.807832 1_655
Mg5_5 Si7_7 2.818273 1_555
Mg5_5 Si4_5 2.864530 1_555
Mg5_5 Si4_1 2.905505 1_655
Mg5_6 Si7_0 2.807832 1_665
Mg5_6 Si7_4 2.818273 1_565
Mg5_6 Si4_6 2.864530 1_555
Mg5_6 Si4_2 2.905505 1_655
Mg5_7 Si7_1 2.807832 1_665
Mg5_7 Si7_5 2.818273 1_565
Mg5_7 Si4_7 2.864530 1_555
Mg5_7 Si4_3 2.905505 1_655
Mg6_0 Si3_0 2.847013 1_555
Mg6_0 Si7_0 2.848514 1_555
Mg6_0 Si7_4 2.854804 1_555
Mg6_0 Si3_4 2.904141 1_555
Mg6_1 Si3_1 2.847013 1_555
Mg6_1 Si7_1 2.848514 1_555
Mg6_1 Si7_5 2.854804 1_555
Mg6_1 Si3_5 2.904141 1_555
Mg6_2 Si3_2 2.847013 1_555
Mg6_2 Si7_2 2.848514 1_555
Mg6_2 Si7_6 2.854804 1_555
Mg6_2 Si3_6 2.904141 1_555
Mg6_3 Si3_3 2.847013 1_555
Mg6_3 Si7_3 2.848514 1_555
Mg6_3 Si7_7 2.854804 1_555
Mg6_3 Si3_7 2.904141 1_555
Mg6_4 Si3_4 2.847013 1_555
Mg6_4 Si7_4 2.848514 1_555
Mg6_4 Si7_0 2.854804 1_655
Mg6_4 Si3_0 2.904141 1_655
Mg6_5 Si3_5 2.847013 1_555
Mg6_5 Si7_5 2.848514 1_555
Mg6_5 Si7_1 2.854804 1_655
Mg6_5 Si3_1 2.904141 1_655
Mg6_6 Si3_6 2.847013 1_555
Mg6_6 Si7_6 2.848514 1_555
Mg6_6 Si7_2 2.854804 1_655
Mg6_6 Si3_2 2.904141 1_655
Mg6_7 Si3_7 2.847013 1_555
Mg6_7 Si7_7 2.848514 1_555
Mg6_7 Si7_3 2.854804 1_655
Mg6_7 Si3_3 2.904141 1_655
Mg7_0 Si6_4 2.786253 1_555
Mg7_0 Si2_4 2.853370 1_555
Mg7_0 Si2_0 2.884950 1_555
Mg7_0 Si6_0 2.894464 1_555
Mg7_1 Si6_5 2.786253 1_555
Mg7_1 Si2_5 2.853370 1_555
Mg7_1 Si2_1 2.884950 1_555
Mg7_1 Si6_1 2.894464 1_555
Mg7_2 Si6_6 2.786253 1_555
Mg7_2 Si2_6 2.853370 1_555
Mg7_2 Si2_2 2.884950 1_555
Mg7_2 Si6_2 2.894464 1_555
Mg7_3 Si6_7 2.786253 1_555
Mg7_3 Si2_7 2.853370 1_555
Mg7_3 Si2_3 2.884950 1_555
Mg7_3 Si6_3 2.894464 1_555
Mg7_4 Si6_0 2.786253 1_655
Mg7_4 Si2_0 2.853370 1_655
Mg7_4 Si2_4 2.884950 1_555
Mg7_4 Si6_4 2.894464 1_555
Mg7_5 Si6_1 2.786253 1_655
Mg7_5 Si2_1 2.853370 1_655
Mg7_5 Si2_5 2.884950 1_555
Mg7_5 Si6_5 2.894464 1_555
Mg7_6 Si6_2 2.786253 1_655
Mg7_6 Si2_2 2.853370 1_655
Mg7_6 Si2_6 2.884950 1_555
Mg7_6 Si6_6 2.894464 1_555
Mg7_7 Si6_3 2.786253 1_655
Mg7_7 Si2_3 2.853370 1_655
Mg7_7 Si2_7 2.884950 1_555
Mg7_7 Si6_7 2.894464 1_555
Mg8_0 Si5_1 2.756440 1_555
Mg8_0 Si4_0 2.834003 1_555
Mg8_1 Si5_0 2.756440 1_556
Mg8_1 Si4_1 2.834003 1_555
Mg8_2 Si5_3 2.756440 1_555
Mg8_2 Si4_2 2.834003 1_555
Mg8_3 Si5_2 2.756440 1_556
Mg8_3 Si4_3 2.834003 1_555
Mg8_4 Si5_5 2.756440 1_555
Mg8_4 Si4_4 2.834003 1_555
Mg8_5 Si5_4 2.756440 1_556
Mg8_5 Si4_5 2.834003 1_555
Mg8_6 Si5_7 2.756440 1_555
Mg8_6 Si4_6 2.834003 1_555
Mg8_7 Si5_6 2.756440 1_556
Mg8_7 Si4_7 2.834003 1_555
Mg9_0 Si1_0 2.744927 1_555
Mg9_0 Si0_1 2.873909 1_554
Mg9_1 Si1_1 2.744927 1_555
Mg9_1 Si0_0 2.873909 1_555
Mg9_2 Si1_2 2.744927 1_555
Mg9_2 Si0_3 2.873909 1_554
Mg9_3 Si1_3 2.744927 1_555
Mg9_3 Si0_2 2.873909 1_555
Mg9_4 Si1_4 2.744927 1_555
Mg9_4 Si0_5 2.873909 1_554
Mg9_5 Si1_5 2.744927 1_555
Mg9_5 Si0_4 2.873909 1_555
Mg9_6 Si1_6 2.744927 1_555
Mg9_6 Si0_7 2.873909 1_554
Mg9_7 Si1_7 2.744927 1_555
Mg9_7 Si0_6 2.873909 1_555
Mg10_0 Si4_4 2.815131 1_555
Mg10_0 Si4_0 2.828858 1_555
Mg10_0 Si0_4 2.866270 1_555
Mg10_0 Si0_0 2.924283 1_555
Mg10_0 Mg4_1 2.940282 1_555
Mg10_1 Si4_5 2.815131 1_555
Mg10_1 Si4_1 2.828858 1_555
Mg10_1 Si0_5 2.866270 1_555
Mg10_1 Si0_1 2.924283 1_555
Mg10_1 Mg4_0 2.940282 1_556
Mg10_2 Si4_6 2.815131 1_555
Mg10_2 Si4_2 2.828858 1_555
Mg10_2 Si0_6 2.866270 1_555
Mg10_2 Si0_2 2.924283 1_555
Mg10_2 Mg4_3 2.940282 1_555
Mg10_3 Si4_7 2.815131 1_555
Mg10_3 Si4_3 2.828858 1_555
Mg10_3 Si0_7 2.866270 1_555
Mg10_3 Si0_3 2.924283 1_555
Mg10_3 Mg4_2 2.940282 1_556
Mg10_4 Si4_0 2.815131 1_655
Mg10_4 Si4_4 2.828858 1_555
Mg10_4 Si0_0 2.866270 1_655
Mg10_4 Si0_4 2.924283 1_555
Mg10_4 Mg4_5 2.940282 1_555
Mg10_5 Si4_1 2.815131 1_655
Mg10_5 Si4_5 2.828858 1_555
Mg10_5 Si0_1 2.866270 1_655
Mg10_5 Si0_5 2.924283 1_555
Mg10_5 Mg4_4 2.940282 1_556
Mg10_6 Si4_2 2.815131 1_655
Mg10_6 Si4_6 2.828858 1_555
Mg10_6 Si0_2 2.866270 1_655
Mg10_6 Si0_6 2.924283 1_555
Mg10_6 Mg4_7 2.940282 1_555
Mg10_7 Si4_3 2.815131 1_655
Mg10_7 Si4_7 2.828858 1_555
Mg10_7 Si0_3 2.866270 1_655
Mg10_7 Si0_7 2.924283 1_555
Mg10_7 Mg4_6 2.940282 1_556
Mg11_0 Si0_0 2.812578 1_555
Mg11_0 Si0_4 2.821141 1_555
Mg11_0 Si7_4 2.915947 1_555
Mg11_0 Si7_0 2.962448 1_555
Mg11_1 Si0_1 2.812578 1_555
Mg11_1 Si0_5 2.821141 1_555
Mg11_1 Si7_5 2.915947 1_555
Mg11_1 Si7_1 2.962448 1_555
Mg11_2 Si0_2 2.812578 1_555
Mg11_2 Si0_6 2.821141 1_555
Mg11_2 Si7_6 2.915947 1_555
Mg11_2 Si7_2 2.962448 1_555
Mg11_3 Si0_3 2.812578 1_555
Mg11_3 Si0_7 2.821141 1_555
Mg11_3 Si7_7 2.915947 1_555
Mg11_3 Si7_3 2.962448 1_555
Mg11_4 Si0_4 2.812578 1_555
Mg11_4 Si0_0 2.821141 1_655
Mg11_4 Si7_0 2.915947 1_655
Mg11_4 Si7_4 2.962448 1_555
Mg11_5 Si0_5 2.812578 1_555
Mg11_5 Si0_1 2.821141 1_655
Mg11_5 Si7_1 2.915947 1_655
Mg11_5 Si7_5 2.962448 1_555
Mg11_6 Si0_6 2.812578 1_555
Mg11_6 Si0_2 2.821141 1_655
Mg11_6 Si7_2 2.915947 1_655
Mg11_6 Si7_6 2.962448 1_555
Mg11_7 Si0_7 2.812578 1_555
Mg11_7 Si0_3 2.821141 1_655
Mg11_7 Si7_3 2.915947 1_655
Mg11_7 Si7_7 2.962448 1_555
Mg12_0 Si6_2 2.832960 1_545
Mg12_0 Si1_0 2.863850 1_555
Mg12_0 Si6_6 2.922270 1_545
Mg12_0 Si1_4 2.956580 1_555
Mg12_1 Si6_3 2.832960 1_545
Mg12_1 Si1_1 2.863850 1_555
Mg12_1 Si6_7 2.922270 1_545
Mg12_1 Si1_5 2.956580 1_555
Mg12_2 Si6_0 2.832960 1_555
Mg12_2 Si1_2 2.863850 1_555
Mg12_2 Si6_4 2.922270 1_555
Mg12_2 Si1_6 2.956580 1_555
Mg12_3 Si6_1 2.832960 1_555
Mg12_3 Si1_3 2.863850 1_555
Mg12_3 Si6_5 2.922270 1_555
Mg12_3 Si1_7 2.956580 1_555
Mg12_4 Si6_6 2.832960 1_545
Mg12_4 Si1_4 2.863850 1_555
Mg12_4 Si6_2 2.922270 1_645
Mg12_4 Si1_0 2.956580 1_655
Mg12_5 Si6_7 2.832960 1_545
Mg12_5 Si1_5 2.863850 1_555
Mg12_5 Si6_3 2.922270 1_645
Mg12_5 Si1_1 2.956580 1_655
Mg12_6 Si6_4 2.832960 1_555
Mg12_6 Si1_6 2.863850 1_555
Mg12_6 Si6_0 2.922270 1_655
Mg12_6 Si1_2 2.956580 1_655
Mg12_7 Si6_5 2.832960 1_555
Mg12_7 Si1_7 2.863850 1_555
Mg12_7 Si6_1 2.922270 1_655
Mg12_7 Si1_3 2.956580 1_655
Mg13_0 Si7_2 2.941975 1_555
Mg13_1 Si7_3 2.941975 1_555
Mg13_2 Si7_0 2.941975 1_565
Mg13_3 Si7_1 2.941975 1_565
Mg13_4 Si7_6 2.941975 1_555
Mg13_5 Si7_7 2.941975 1_555
Mg13_6 Si7_4 2.941975 1_565
Mg13_7 Si7_5 2.941975 1_565
Si0_0 Si3_0 2.370226 1_555
Si0_0 Si4_0 2.579645 1_555
Si0_1 Si3_1 2.370226 1_555
Si0_1 Si4_1 2.579645 1_555
Si0_2 Si3_2 2.370226 1_555
Si0_2 Si4_2 2.579645 1_555
Si0_3 Si3_3 2.370226 1_555
Si0_3 Si4_3 2.579645 1_555
Si0_4 Si3_4 2.370226 1_555
Si0_4 Si4_4 2.579645 1_555
Si0_5 Si3_5 2.370226 1_555
Si0_5 Si4_5 2.579645 1_555
Si0_6 Si3_6 2.370226 1_555
Si0_6 Si4_6 2.579645 1_555
Si0_7 Si3_7 2.370226 1_555
Si0_7 Si4_7 2.579645 1_555
Si2_0 Si6_0 2.456427 1_555
Si2_0 Si5_0 2.582397 1_555
Si2_1 Si6_1 2.456427 1_555
Si2_1 Si5_1 2.582397 1_555
Si2_2 Si6_2 2.456427 1_555
Si2_2 Si5_2 2.582397 1_555
Si2_3 Si6_3 2.456427 1_555
Si2_3 Si5_3 2.582397 1_555
Si2_4 Si6_4 2.456427 1_555
Si2_4 Si5_4 2.582397 1_555
Si2_5 Si6_5 2.456427 1_555
Si2_5 Si5_5 2.582397 1_555
Si2_6 Si6_6 2.456427 1_555
Si2_6 Si5_6 2.582397 1_555
Si2_7 Si6_7 2.456427 1_555
Si2_7 Si5_7 2.582397 1_555
Si3_0 Si7_0 2.542222 1_555
Si3_1 Si7_1 2.542222 1_555
Si3_2 Si7_2 2.542222 1_555
Si3_3 Si7_3 2.542222 1_555
Si3_4 Si7_4 2.542222 1_555
Si3_5 Si7_5 2.542222 1_555
Si3_6 Si7_6 2.542222 1_555
Si3_7 Si7_7 2.542222 1_555
Si5_0 Si6_0 2.512379 1_555
Si5_1 Si6_1 2.512379 1_555
Si5_2 Si6_2 2.512379 1_555
Si5_3 Si6_3 2.512379 1_555
Si5_4 Si6_4 2.512379 1_555
Si5_5 Si6_5 2.512379 1_555
Si5_6 Si6_6 2.512379 1_555
Si5_7 Si6_7 2.512379 1_555
