# generated using pymatgen
data_Mg2IrN3
_symmetry_space_group_name_H-M   'P 1'
_cell_length_a   6.26371476
_cell_length_b   6.30829973
_cell_length_c   4.37891600
_cell_angle_alpha   90.00000000
_cell_angle_beta   90.00000000
_cell_angle_gamma   120.23573845
_symmetry_Int_Tables_number   1
_chemical_formula_structural   Mg2IrN3
_chemical_formula_sum   'Mg4 Ir2 N6'
_cell_volume   149.48753523
_cell_formula_units_Z   2
loop_
 _symmetry_equiv_pos_site_id
 _symmetry_equiv_pos_as_xyz
  1  'x, y, z'
loop_
 _atom_site_type_symbol
 _atom_site_label
 _atom_site_symmetry_multiplicity
 _atom_site_fract_x
 _atom_site_fract_y
 _atom_site_fract_z
 _atom_site_occupancy
  Mg  Mg0  1  0.33769000  0.33390200  0.43309200  1
  Mg  Mg1  1  0.66231000  0.99621100  0.43309200  1
  Mg  Mg2  1  0.66231000  0.66609800  0.93309200  1
  Mg  Mg3  1  0.33769000  0.00378900  0.93309200  1
  Ir  Ir0  1  0.00000000  0.67703900  0.44138200  1
  Ir  Ir1  1  0.00000000  0.32296100  0.94138200  1
  N  N0  1  0.31284100  0.33075700  0.93120500  1
  N  N1  1  0.68715900  0.01791700  0.93120500  1
  N  N2  1  0.68715900  0.66924300  0.43120500  1
  N  N3  1  0.31284100  0.98208300  0.43120500  1
  N  N4  1  0.00000000  0.62733100  0.90202400  1
  N  N5  1  0.00000000  0.37266900  0.40202400  1
loop_
_geom_bond_atom_site_label_1
_geom_bond_atom_site_label_2
_geom_bond_distance
_geom_bond_site_symmetry_2
Mg0 N3 2.145237 1_545
Mg0 N2 2.145493 1_555
Mg0 N0 2.186120 1_555
Mg0 N0 2.202609 1_554
Mg0 N5 2.252403 1_555
Mg1 N2 2.145224 1_555
Mg1 N3 2.145493 1_555
Mg1 N1 2.186120 1_565
Mg1 N1 2.202610 1_564
Mg1 N5 2.252407 1_665
Mg2 N1 2.145237 1_565
Mg2 N0 2.145493 1_555
Mg2 N2 2.186120 1_556
Mg2 N2 2.202609 1_555
Mg2 N4 2.252403 1_655
Mg3 N0 2.145224 1_555
Mg3 N1 2.145493 1_555
Mg3 N3 2.186120 1_546
Mg3 N3 2.202610 1_545
Mg3 N4 2.252407 1_545
Ir0 N5 1.927777 1_555
Ir0 N3 1.935759 1_555
Ir0 N2 1.935762 1_455
Ir0 N4 2.041341 1_555
Ir0 N4 2.382529 1_554
Ir1 N4 1.927777 1_555
Ir1 N1 1.935759 1_455
Ir1 N0 1.935762 1_555
Ir1 N5 2.041341 1_556
Ir1 N5 2.382529 1_555
