# generated using pymatgen
data_Tb5CuPb3
_symmetry_space_group_name_H-M   'P 1'
_cell_length_a   9.17469589
_cell_length_b   9.17469539
_cell_length_c   6.70972059
_cell_angle_alpha   90.00000000
_cell_angle_beta   90.00000000
_cell_angle_gamma   119.99999414
_symmetry_Int_Tables_number   1
_chemical_formula_structural   Tb5CuPb3
_chemical_formula_sum   'Tb10 Cu2 Pb6'
_cell_volume   489.12338215
_cell_formula_units_Z   2
loop_
 _symmetry_equiv_pos_site_id
 _symmetry_equiv_pos_as_xyz
  1  'x, y, z'
loop_
 _atom_site_type_symbol
 _atom_site_label
 _atom_site_symmetry_multiplicity
 _atom_site_fract_x
 _atom_site_fract_y
 _atom_site_fract_z
 _atom_site_occupancy
  Tb  Tb0  1  0.25199120  -0.00000000  0.25000000  1
  Tb  Tb1  1  0.74800880  0.00000000  0.75000000  1
  Tb  Tb2  1  -0.00000000  0.25199120  0.25000000  1
  Tb  Tb3  1  0.00000000  0.74800880  0.75000000  1
  Tb  Tb4  1  0.74800880  0.74800880  0.25000000  1
  Tb  Tb5  1  0.25199120  0.25199120  0.75000000  1
  Tb  Tb6  1  0.33333300  0.66666700  0.00000000  1
  Tb  Tb7  1  0.66666700  0.33333300  0.00000000  1
  Tb  Tb8  1  0.66666700  0.33333300  0.50000000  1
  Tb  Tb9  1  0.33333300  0.66666700  0.50000000  1
  Cu  Cu0  1  -0.00000000  0.00000000  0.00000000  1
  Cu  Cu1  1  -0.00000000  0.00000000  0.50000000  1
  Pb  Pb0  1  0.61093365  0.00000000  0.25000000  1
  Pb  Pb1  1  0.38906635  -0.00000000  0.75000000  1
  Pb  Pb2  1  0.00000000  0.61093365  0.25000000  1
  Pb  Pb3  1  -0.00000000  0.38906635  0.75000000  1
  Pb  Pb4  1  0.38906635  0.38906635  0.25000000  1
  Pb  Pb5  1  0.61093365  0.61093365  0.75000000  1
loop_
_geom_bond_atom_site_label_1
_geom_bond_atom_site_label_2
_geom_bond_distance
_geom_bond_site_symmetry_2
Cu0 Tb2 2.856370 1_555
Cu0 Tb3 2.856370 1_544
Cu0 Tb0 2.856370 1_555
Cu0 Tb1 2.856370 1_454
Cu0 Tb5 2.856370 1_554
Cu0 Tb4 2.856370 1_445
Cu1 Tb2 2.856370 1_555
Cu1 Tb3 2.856370 1_545
Cu1 Tb0 2.856370 1_555
Cu1 Tb1 2.856370 1_455
Cu1 Tb5 2.856370 1_555
Cu1 Tb4 2.856370 1_445
Pb0 Tb4 3.135960 1_545
Pb0 Tb2 3.135960 1_655
Pb0 Tb0 3.293188 1_555
Pb0 Tb7 3.296091 1_555
Pb0 Tb8 3.296091 1_555
Pb0 Tb9 3.296094 1_545
Pb0 Tb6 3.296094 1_545
Pb0 Tb1 3.582834 1_554
Pb0 Tb1 3.582834 1_555
Pb1 Tb5 3.135960 1_555
Pb1 Tb3 3.135960 1_545
Pb1 Tb1 3.293188 1_555
Pb1 Tb9 3.296091 1_545
Pb1 Tb6 3.296091 1_546
Pb1 Tb7 3.296094 1_556
Pb1 Tb8 3.296094 1_555
Pb1 Tb0 3.582834 1_556
Pb1 Tb0 3.582834 1_555
Pb2 Tb4 3.135960 1_455
Pb2 Tb0 3.135960 1_565
Pb2 Tb2 3.293188 1_555
Pb2 Tb9 3.296091 1_555
Pb2 Tb6 3.296091 1_555
Pb2 Tb8 3.296094 1_455
Pb2 Tb7 3.296094 1_455
Pb2 Tb3 3.582834 1_555
Pb2 Tb3 3.582834 1_554
Pb3 Tb5 3.135960 1_555
Pb3 Tb1 3.135960 1_455
Pb3 Tb3 3.293188 1_555
Pb3 Tb7 3.296091 1_456
Pb3 Tb8 3.296091 1_455
Pb3 Tb6 3.296094 1_556
Pb3 Tb9 3.296094 1_555
Pb3 Tb2 3.582834 1_555
Pb3 Tb2 3.582834 1_556
Pb4 Tb0 3.135960 1_555
Pb4 Tb2 3.135960 1_555
Pb4 Tb4 3.293188 1_555
Pb4 Tb9 3.296099 1_555
Pb4 Tb6 3.296099 1_555
Pb4 Tb7 3.296099 1_555
Pb4 Tb8 3.296099 1_555
Pb4 Tb5 3.582834 1_554
Pb4 Tb5 3.582834 1_555
Pb5 Tb1 3.135960 1_565
Pb5 Tb3 3.135960 1_655
Pb5 Tb5 3.293188 1_555
Pb5 Tb8 3.296099 1_555
Pb5 Tb7 3.296099 1_556
Pb5 Tb9 3.296099 1_555
Pb5 Tb6 3.296099 1_556
Pb5 Tb4 3.582834 1_555
Pb5 Tb4 3.582834 1_556
