# generated using pymatgen
data_Mg14NbAlO16
_symmetry_space_group_name_H-M   'P 1'
_cell_length_a   4.25684200
_cell_length_b   8.56435500
_cell_length_c   8.62154500
_cell_angle_alpha   90.00000000
_cell_angle_beta   90.00000000
_cell_angle_gamma   90.00000000
_symmetry_Int_Tables_number   1
_chemical_formula_structural   Mg14NbAlO16
_chemical_formula_sum   'Mg14 Nb1 Al1 O16'
_cell_volume   314.31658053
_cell_formula_units_Z   1
loop_
 _symmetry_equiv_pos_site_id
 _symmetry_equiv_pos_as_xyz
  1  'x, y, z'
loop_
 _atom_site_type_symbol
 _atom_site_label
 _atom_site_symmetry_multiplicity
 _atom_site_fract_x
 _atom_site_fract_y
 _atom_site_fract_z
 _atom_site_occupancy
  Mg  Mg0  1  0.00000000  0.00000000  0.50000000  1
  Mg  Mg1  1  0.00000000  0.50000000  0.50000000  1
  Mg  Mg2  1  0.50000000  0.74994100  0.00000000  1
  Mg  Mg3  1  0.50000000  0.25005900  0.00000000  1
  Mg  Mg4  1  0.50000000  0.74882800  0.50000000  1
  Mg  Mg5  1  0.50000000  0.25117200  0.50000000  1
  Mg  Mg6  1  0.50000000  0.00000000  0.74878200  1
  Mg  Mg7  1  0.50000000  0.50000000  0.74647300  1
  Mg  Mg8  1  0.50000000  0.00000000  0.25121800  1
  Mg  Mg9  1  0.50000000  0.50000000  0.25352700  1
  Mg  Mg10  1  0.00000000  0.74581300  0.75004700  1
  Mg  Mg11  1  0.00000000  0.25418700  0.75004700  1
  Mg  Mg12  1  0.00000000  0.74581300  0.24995300  1
  Mg  Mg13  1  0.00000000  0.25418700  0.24995300  1
  Nb  Nb0  1  0.00000000  0.50000000  0.00000000  1
  Al  Al0  1  0.00000000  0.00000000  0.00000000  1
  O  O0  1  0.00000000  0.00000000  0.76386300  1
  O  O1  1  0.00000000  0.50000000  0.72985800  1
  O  O2  1  0.00000000  0.00000000  0.23613700  1
  O  O3  1  0.00000000  0.50000000  0.27014200  1
  O  O4  1  0.50000000  0.75126800  0.75033600  1
  O  O5  1  0.50000000  0.24873200  0.75033600  1
  O  O6  1  0.50000000  0.75126800  0.24966400  1
  O  O7  1  0.50000000  0.24873200  0.24966400  1
  O  O8  1  0.50000000  0.00000000  0.00000000  1
  O  O9  1  0.50000000  0.50000000  0.00000000  1
  O  O10  1  0.50000000  0.00000000  0.50000000  1
  O  O11  1  0.50000000  0.50000000  0.50000000  1
  O  O12  1  0.00000000  0.78426000  0.00000000  1
  O  O13  1  0.00000000  0.21574000  0.00000000  1
  O  O14  1  0.00000000  0.75663800  0.50000000  1
  O  O15  1  0.00000000  0.24336200  0.50000000  1
loop_
_geom_bond_atom_site_label_1
_geom_bond_atom_site_label_2
_geom_bond_distance
_geom_bond_site_symmetry_2
Mg0 O14 2.084239 1_545
Mg0 O15 2.084239 1_555
Mg0 O10 2.128421 1_555
Mg0 O10 2.128421 1_455
Mg0 O2 2.274907 1_555
Mg0 O0 2.274907 1_555
Mg1 O1 1.981731 1_555
Mg1 O3 1.981731 1_555
Mg1 O11 2.128421 1_455
Mg1 O11 2.128421 1_555
Mg1 O14 2.197939 1_555
Mg1 O15 2.197939 1_555
Mg2 O9 2.140583 1_555
Mg2 O8 2.141594 1_565
Mg2 O12 2.148619 1_655
Mg2 O12 2.148619 1_555
Mg2 O4 2.152519 1_554
Mg2 O6 2.152519 1_555
Mg3 O9 2.140583 1_555
Mg3 O8 2.141594 1_555
Mg3 O13 2.148619 1_655
Mg3 O13 2.148619 1_555
Mg3 O5 2.152519 1_554
Mg3 O7 2.152519 1_555
Mg4 O14 2.129472 1_655
Mg4 O14 2.129472 1_555
Mg4 O11 2.131051 1_555
Mg4 O10 2.151126 1_565
Mg4 O4 2.158384 1_555
Mg4 O6 2.158384 1_555
Mg5 O15 2.129472 1_555
Mg5 O15 2.129472 1_655
Mg5 O11 2.131051 1_555
Mg5 O10 2.151126 1_555
Mg5 O5 2.158384 1_555
Mg5 O7 2.158384 1_555
Mg6 O4 2.130271 1_545
Mg6 O5 2.130271 1_555
Mg6 O0 2.132389 1_555
Mg6 O0 2.132389 1_655
Mg6 O10 2.144885 1_555
Mg6 O8 2.165887 1_556
Mg7 O11 2.124978 1_555
Mg7 O1 2.133236 1_555
Mg7 O1 2.133236 1_655
Mg7 O5 2.152206 1_555
Mg7 O4 2.152206 1_555
Mg7 O9 2.185794 1_556
Mg8 O6 2.130271 1_545
Mg8 O7 2.130271 1_555
Mg8 O2 2.132389 1_655
Mg8 O2 2.132389 1_555
Mg8 O10 2.144885 1_555
Mg8 O8 2.165887 1_555
Mg9 O11 2.124978 1_555
Mg9 O3 2.133236 1_655
Mg9 O3 2.133236 1_555
Mg9 O7 2.152206 1_555
Mg9 O6 2.152206 1_555
Mg9 O9 2.185794 1_555
Mg10 O1 2.112413 1_555
Mg10 O4 2.128935 1_455
Mg10 O4 2.128935 1_555
Mg10 O14 2.157784 1_555
Mg10 O12 2.179992 1_556
Mg10 O0 2.180204 1_565
Mg11 O1 2.112413 1_555
Mg11 O5 2.128935 1_555
Mg11 O5 2.128935 1_455
Mg11 O15 2.157784 1_555
Mg11 O13 2.179992 1_556
Mg11 O0 2.180204 1_555
Mg12 O3 2.112413 1_555
Mg12 O6 2.128935 1_555
Mg12 O6 2.128935 1_455
Mg12 O14 2.157784 1_555
Mg12 O12 2.179992 1_555
Mg12 O2 2.180204 1_565
Mg13 O3 2.112413 1_555
Mg13 O7 2.128935 1_555
Mg13 O7 2.128935 1_455
Mg13 O15 2.157784 1_555
Mg13 O13 2.179992 1_555
Mg13 O2 2.180204 1_555
Nb0 O9 2.128421 1_555
Nb0 O9 2.128421 1_455
Nb0 O1 2.329041 1_554
Nb0 O3 2.329041 1_555
Nb0 O12 2.434504 1_555
Nb0 O13 2.434504 1_555
Al0 O13 1.847674 1_555
Al0 O12 1.847674 1_545
Al0 O0 2.035866 1_554
Al0 O2 2.035866 1_555
Al0 O8 2.128421 1_455
Al0 O8 2.128421 1_555
