# generated using pymatgen
data_Yb7In(NiGe3)4
_symmetry_space_group_name_H-M   'P 1'
_cell_length_a   10.38123200
_cell_length_b   10.38123200
_cell_length_c   4.26832600
_cell_angle_alpha   90.00000000
_cell_angle_beta   90.00000000
_cell_angle_gamma   90.00000000
_symmetry_Int_Tables_number   1
_chemical_formula_structural   Yb7In(NiGe3)4
_chemical_formula_sum   'Yb7 In1 Ni4 Ge12'
_cell_volume   459.99739842
_cell_formula_units_Z   1
loop_
 _symmetry_equiv_pos_site_id
 _symmetry_equiv_pos_as_xyz
  1  'x, y, z'
loop_
 _atom_site_type_symbol
 _atom_site_label
 _atom_site_symmetry_multiplicity
 _atom_site_fract_x
 _atom_site_fract_y
 _atom_site_fract_z
 _atom_site_occupancy
  Yb  Yb0  1  0.32215700  0.67604400  0.50000000  1
  Yb  Yb1  1  0.67784300  0.32395600  0.50000000  1
  Yb  Yb2  1  0.32395600  0.32215700  0.50000000  1
  Yb  Yb3  1  0.67604400  0.67784300  0.50000000  1
  Yb  Yb4  1  0.00000000  0.00000000  0.00000000  1
  Yb  Yb5  1  0.00000000  0.50000000  0.50000000  1
  Yb  Yb6  1  0.50000000  0.00000000  0.50000000  1
  In  In0  1  0.50000000  0.50000000  0.00000000  1
  Ni  Ni0  1  0.11579800  0.72156000  0.00000000  1
  Ni  Ni1  1  0.88420200  0.27844000  0.00000000  1
  Ni  Ni2  1  0.27844000  0.11579800  0.00000000  1
  Ni  Ni3  1  0.72156000  0.88420200  0.00000000  1
  Ge  Ge0  1  0.21075000  0.50930000  0.00000000  1
  Ge  Ge1  1  0.78925000  0.49070000  0.00000000  1
  Ge  Ge2  1  0.49070000  0.21075000  0.00000000  1
  Ge  Ge3  1  0.50930000  0.78925000  0.00000000  1
  Ge  Ge4  1  0.28539000  0.88578500  0.00000000  1
  Ge  Ge5  1  0.71461000  0.11421500  0.00000000  1
  Ge  Ge6  1  0.11421500  0.28539000  0.00000000  1
  Ge  Ge7  1  0.88578500  0.71461000  0.00000000  1
  Ge  Ge8  1  0.06263600  0.81038100  0.50000000  1
  Ge  Ge9  1  0.93736400  0.18961900  0.50000000  1
  Ge  Ge10  1  0.18961900  0.06263600  0.50000000  1
  Ge  Ge11  1  0.81038100  0.93736400  0.50000000  1
loop_
_geom_bond_atom_site_label_1
_geom_bond_atom_site_label_2
_geom_bond_distance
_geom_bond_site_symmetry_2
In0 Yb2 3.362018 1_554
In0 Yb1 3.362018 1_554
In0 Yb1 3.362018 1_555
In0 Yb2 3.362018 1_555
In0 Yb3 3.362018 1_554
In0 Yb0 3.362018 1_555
In0 Yb3 3.362018 1_555
In0 Yb0 3.362018 1_554
Ni0 Yb0 3.060588 1_555
Ni0 Yb0 3.060588 1_554
Ni0 Yb4 3.130557 1_565
Ni0 Yb5 3.360069 1_555
Ni0 Yb5 3.360069 1_554
Ni1 Yb1 3.060588 1_555
Ni1 Yb1 3.060588 1_554
Ni1 Yb4 3.130557 1_655
Ni1 Yb5 3.360069 1_655
Ni1 Yb5 3.360069 1_654
Ni2 Yb2 3.060588 1_555
Ni2 Yb2 3.060588 1_554
Ni2 Yb4 3.130557 1_555
Ni2 Yb6 3.360069 1_555
Ni2 Yb6 3.360069 1_554
Ni3 Yb3 3.060588 1_554
Ni3 Yb3 3.060588 1_555
Ni3 Yb4 3.130557 1_665
Ni3 Yb6 3.360069 1_564
Ni3 Yb6 3.360069 1_565
Ge0 Ni0 2.413948 1_555
Ge0 Ge6 2.531290 1_555
Ge0 Yb0 2.981381 1_555
Ge0 Yb0 2.981381 1_554
Ge0 In0 3.004323 1_555
Ge0 Yb5 3.057881 1_554
Ge0 Yb5 3.057881 1_555
Ge0 Yb2 3.116113 1_554
Ge0 Yb2 3.116113 1_555
Ge1 Ni1 2.413948 1_555
Ge1 Ge7 2.531290 1_555
Ge1 Yb1 2.981381 1_554
Ge1 Yb1 2.981381 1_555
Ge1 In0 3.004323 1_555
Ge1 Yb5 3.057881 1_655
Ge1 Yb5 3.057881 1_654
Ge1 Yb3 3.116113 1_555
Ge1 Yb3 3.116113 1_554
Ge2 Ni2 2.413948 1_555
Ge2 Ge5 2.531290 1_555
Ge2 Yb2 2.981381 1_555
Ge2 Yb2 2.981381 1_554
Ge2 In0 3.004323 1_555
Ge2 Yb6 3.057881 1_555
Ge2 Yb6 3.057881 1_554
Ge2 Yb1 3.116113 1_554
Ge2 Yb1 3.116113 1_555
Ge3 Ni3 2.413948 1_555
Ge3 Ge4 2.531290 1_555
Ge3 Yb3 2.981381 1_555
Ge3 Yb3 2.981381 1_554
Ge3 In0 3.004323 1_555
Ge3 Yb6 3.057881 1_564
Ge3 Yb6 3.057881 1_565
Ge3 Yb0 3.116113 1_555
Ge3 Yb0 3.116113 1_554
Ge4 Ni2 2.388908 1_565
Ge4 Ni0 2.450747 1_555
Ge4 Yb0 3.072666 1_555
Ge4 Yb0 3.072666 1_554
Ge4 Yb4 3.191153 1_565
Ge4 Yb6 3.305167 1_564
Ge4 Yb6 3.305167 1_565
Ge5 Ni3 2.388908 1_545
Ge5 Ni1 2.450747 1_555
Ge5 Yb1 3.072666 1_554
Ge5 Yb1 3.072666 1_555
Ge5 Yb4 3.191153 1_655
Ge5 Yb6 3.305167 1_555
Ge5 Yb6 3.305167 1_554
Ge6 Ni1 2.388908 1_455
Ge6 Ni2 2.450747 1_555
Ge6 Ge9 2.985594 1_455
Ge6 Ge9 2.985594 1_454
Ge6 Yb2 3.072666 1_555
Ge6 Yb2 3.072666 1_554
Ge6 Yb4 3.191153 1_555
Ge6 Yb5 3.305167 1_554
Ge6 Yb5 3.305167 1_555
Ge7 Ni0 2.388908 1_655
Ge7 Ni3 2.450747 1_555
Ge7 Ge8 2.985594 1_655
Ge7 Ge8 2.985594 1_654
Ge7 Yb3 3.072666 1_555
Ge7 Yb3 3.072666 1_554
Ge7 Yb4 3.191153 1_665
Ge7 Yb5 3.305167 1_655
Ge7 Yb5 3.305167 1_654
Ge8 Ni0 2.389445 1_556
Ge8 Ni0 2.389445 1_555
Ge8 Yb4 2.975293 1_565
Ge8 Yb4 2.975293 1_566
Ge8 Yb0 3.033693 1_555
Ge8 Yb5 3.287093 1_555
Ge9 Ni1 2.389445 1_555
Ge9 Ni1 2.389445 1_556
Ge9 Yb4 2.975293 1_656
Ge9 Yb4 2.975293 1_655
Ge9 Yb1 3.033693 1_555
Ge9 Yb5 3.287093 1_655
Ge10 Ni2 2.389445 1_556
Ge10 Ni2 2.389445 1_555
Ge10 Ge8 2.931798 1_545
Ge10 Ge9 2.931798 1_455
Ge10 Yb4 2.975293 1_555
Ge10 Yb4 2.975293 1_556
Ge10 Ge4 2.985594 1_546
Ge10 Ge4 2.985594 1_545
Ge10 Yb2 3.033693 1_555
Ge10 Yb6 3.287093 1_555
Ge11 Ni3 2.389445 1_555
Ge11 Ni3 2.389445 1_556
Ge11 Ge8 2.931798 1_655
Ge11 Ge9 2.931798 1_565
Ge11 Yb4 2.975293 1_666
Ge11 Yb4 2.975293 1_665
Ge11 Ge5 2.985594 1_565
Ge11 Ge5 2.985594 1_566
Ge11 Yb3 3.033693 1_555
Ge11 Yb6 3.287093 1_565
