# generated using pymatgen
data_Dy(InPt)4
_symmetry_space_group_name_H-M   'P 1'
_cell_length_a   4.56417557
_cell_length_b   4.56417557
_cell_length_c   20.11087915
_cell_angle_alpha   90.00000000
_cell_angle_beta   90.00000000
_cell_angle_gamma   119.99999695
_symmetry_Int_Tables_number   1
_chemical_formula_structural   Dy(InPt)4
_chemical_formula_sum   'Dy2 In8 Pt8'
_cell_volume   362.81596189
_cell_formula_units_Z   2
loop_
 _symmetry_equiv_pos_site_id
 _symmetry_equiv_pos_as_xyz
  1  'x, y, z'
loop_
 _atom_site_type_symbol
 _atom_site_label
 _atom_site_symmetry_multiplicity
 _atom_site_fract_x
 _atom_site_fract_y
 _atom_site_fract_z
 _atom_site_occupancy
  Dy  Dy0  1  0.33333300  0.66666700  0.25000000  1
  Dy  Dy1  1  0.66666700  0.33333300  0.75000000  1
  In  In0  1  0.33333300  0.66666700  0.95836884  1
  In  In1  1  0.66666700  0.33333300  0.04163116  1
  In  In2  1  0.66666700  0.33333300  0.45836884  1
  In  In3  1  0.33333300  0.66666700  0.54163116  1
  In  In4  1  0.00000000  0.00000000  0.35774650  1
  In  In5  1  -0.00000000  0.00000000  0.64225350  1
  In  In6  1  -0.00000000  0.00000000  0.85774650  1
  In  In7  1  0.00000000  -0.00000000  0.14225350  1
  Pt  Pt0  1  0.33333300  0.66666700  0.40526050  1
  Pt  Pt1  1  0.66666700  0.33333300  0.59473950  1
  Pt  Pt2  1  0.66666700  0.33333300  0.90526050  1
  Pt  Pt3  1  0.33333300  0.66666700  0.09473950  1
  Pt  Pt4  1  0.33333300  0.66666700  0.81990323  1
  Pt  Pt5  1  0.66666700  0.33333300  0.18009677  1
  Pt  Pt6  1  0.66666700  0.33333300  0.31990323  1
  Pt  Pt7  1  0.33333300  0.66666700  0.68009677  1
loop_
_geom_bond_atom_site_label_1
_geom_bond_atom_site_label_2
_geom_bond_distance
_geom_bond_site_symmetry_2
Dy0 Pt6 2.986671 1_455
Dy0 Pt5 2.986671 1_455
Dy0 Pt6 2.986671 1_565
Dy0 Pt5 2.986671 1_565
Dy0 Pt5 2.986678 1_555
Dy0 Pt6 2.986678 1_555
Dy0 Pt0 3.122425 1_555
Dy0 Pt3 3.122425 1_555
Dy0 In4 3.411633 1_565
Dy0 In7 3.411633 1_565
Dy0 In4 3.411636 1_665
Dy0 In4 3.411636 1_555
Dy0 In7 3.411636 1_555
Dy0 In7 3.411636 1_665
Dy1 Pt7 2.986671 1_545
Dy1 Pt4 2.986671 1_545
Dy1 Pt7 2.986671 1_655
Dy1 Pt4 2.986671 1_655
Dy1 Pt7 2.986678 1_555
Dy1 Pt4 2.986678 1_555
Dy1 Pt2 3.122425 1_555
Dy1 Pt1 3.122425 1_555
Dy1 In6 3.411633 1_655
Dy1 In5 3.411633 1_655
Dy1 In6 3.411636 1_555
Dy1 In6 3.411636 1_665
Dy1 In5 3.411636 1_665
Dy1 In5 3.411636 1_555
In0 Pt3 2.742534 1_556
In0 Pt4 2.784665 1_555
In0 Pt2 2.843348 1_455
In0 Pt2 2.843348 1_565
In0 Pt2 2.843355 1_555
In1 Pt2 2.742534 1_554
In1 Pt5 2.784665 1_555
In1 Pt3 2.843348 1_545
In1 Pt3 2.843348 1_655
In1 Pt3 2.843355 1_555
In2 Pt1 2.742534 1_555
In2 Pt6 2.784665 1_555
In2 Pt0 2.843348 1_655
In2 Pt0 2.843348 1_545
In2 Pt0 2.843355 1_555
In3 Pt0 2.742534 1_555
In3 Pt7 2.784665 1_555
In3 Pt1 2.843348 1_565
In3 Pt1 2.843348 1_455
In3 Pt1 2.843355 1_555
In4 Pt6 2.742827 1_455
In4 Pt6 2.742831 1_445
In4 Pt6 2.742831 1_555
In4 Pt0 2.803027 1_545
In4 Pt0 2.803030 1_555
In4 Pt0 2.803030 1_445
In5 Pt7 2.742827 1_545
In5 Pt7 2.742831 1_555
In5 Pt7 2.742831 1_445
In5 Pt1 2.803027 1_455
In5 Pt1 2.803030 1_555
In5 Pt1 2.803030 1_445
In6 Pt4 2.742827 1_545
In6 Pt4 2.742831 1_555
In6 Pt4 2.742831 1_445
In6 Pt2 2.803027 1_455
In6 Pt2 2.803030 1_555
In6 Pt2 2.803030 1_445
In7 Pt5 2.742827 1_455
In7 Pt5 2.742831 1_555
In7 Pt5 2.742831 1_445
In7 Pt3 2.803027 1_545
In7 Pt3 2.803030 1_445
In7 Pt3 2.803030 1_555
