# generated using pymatgen
data_Gd3YV4O16
_symmetry_space_group_name_H-M   'P 1'
_cell_length_a   6.05998483
_cell_length_b   6.05998483
_cell_length_c   10.28118200
_cell_angle_alpha   90.00000000
_cell_angle_beta   90.00000000
_cell_angle_gamma   116.06520265
_symmetry_Int_Tables_number   1
_chemical_formula_structural   Gd3YV4O16
_chemical_formula_sum   'Gd3 Y1 V4 O16'
_cell_volume   339.16022077
_cell_formula_units_Z   1
loop_
 _symmetry_equiv_pos_site_id
 _symmetry_equiv_pos_as_xyz
  1  'x, y, z'
loop_
 _atom_site_type_symbol
 _atom_site_label
 _atom_site_symmetry_multiplicity
 _atom_site_fract_x
 _atom_site_fract_y
 _atom_site_fract_z
 _atom_site_occupancy
  Gd  Gd0  1  0.50000000  0.50000000  0.00000000  1
  Gd  Gd1  1  0.50000000  0.00000000  0.25060100  1
  Gd  Gd2  1  0.00000000  0.50000000  0.74939900  1
  Y  Y0  1  0.00000000  0.00000000  0.50000000  1
  V  V0  1  0.00000000  0.50000000  0.25162700  1
  V  V1  1  0.50000000  0.00000000  0.74837300  1
  V  V2  1  0.50000000  0.50000000  0.50000000  1
  V  V3  1  0.00000000  0.00000000  0.00000000  1
  O  O0  1  0.91972000  0.23394100  0.34322700  1
  O  O1  1  0.41786100  0.73540200  0.84090000  1
  O  O2  1  0.23338700  0.41590800  0.59130000  1
  O  O3  1  0.73437000  0.91786800  0.09173700  1
  O  O4  1  0.41590800  0.23338700  0.40870000  1
  O  O5  1  0.91786800  0.73437000  0.90826300  1
  O  O6  1  0.73540200  0.41786100  0.15910000  1
  O  O7  1  0.23394100  0.91972000  0.65677300  1
  O  O8  1  0.58409200  0.76661300  0.40870000  1
  O  O9  1  0.08213200  0.26563000  0.90826300  1
  O  O10  1  0.26459800  0.58213900  0.15910000  1
  O  O11  1  0.76605900  0.08028000  0.65677300  1
  O  O12  1  0.08028000  0.76605900  0.34322700  1
  O  O13  1  0.58213900  0.26459800  0.84090000  1
  O  O14  1  0.76661300  0.58409200  0.59130000  1
  O  O15  1  0.26563000  0.08213200  0.09173700  1
loop_
_geom_bond_atom_site_label_1
_geom_bond_atom_site_label_2
_geom_bond_distance
_geom_bond_site_symmetry_2
Gd0 O10 2.362710 1_555
Gd0 O1 2.362710 1_554
Gd0 O13 2.362710 1_554
Gd0 O6 2.362710 1_555
Gd0 O3 2.481647 1_555
Gd0 O15 2.481647 1_555
Gd0 O5 2.481647 1_554
Gd0 O9 2.481647 1_554
Gd1 O4 2.352751 1_555
Gd1 O8 2.352751 1_545
Gd1 O15 2.356657 1_555
Gd1 O3 2.356657 1_545
Gd1 O6 2.481477 1_555
Gd1 O10 2.481477 1_545
Gd1 O12 2.493449 1_545
Gd1 O0 2.493449 1_555
Gd2 O14 2.352751 1_455
Gd2 O2 2.352751 1_555
Gd2 O5 2.356657 1_455
Gd2 O9 2.356657 1_555
Gd2 O13 2.481477 1_455
Gd2 O1 2.481477 1_555
Gd2 O7 2.493449 1_555
Gd2 O11 2.493449 1_455
O0 V0 1.741790 1_655
O0 Y0 2.334636 1_655
O1 V1 1.738505 1_565
O2 V2 1.740013 1_555
O2 Y0 2.470068 1_555
O3 V3 1.739078 1_665
O4 V2 1.740013 1_555
O4 Y0 2.470068 1_555
O5 V3 1.739078 1_666
O6 V0 1.738505 1_655
O7 V1 1.741790 1_565
O7 Y0 2.334636 1_565
O8 V2 1.740013 1_555
O8 Y0 2.470068 1_665
O9 V3 1.739078 1_556
O10 V0 1.738505 1_555
O11 V1 1.741790 1_555
O11 Y0 2.334636 1_655
O12 V0 1.741790 1_555
O12 Y0 2.334636 1_565
O13 V1 1.738505 1_555
O14 V2 1.740013 1_555
O14 Y0 2.470068 1_665
O15 V3 1.739078 1_555
