# generated using pymatgen
data_Ho5Ga3
_symmetry_space_group_name_H-M   'P 1'
_cell_length_a   7.55351305
_cell_length_b   7.55354730
_cell_length_c   14.00607315
_cell_angle_alpha   89.99984195
_cell_angle_beta   90.00017004
_cell_angle_gamma   89.99985178
_symmetry_Int_Tables_number   1
_chemical_formula_structural   Ho5Ga3
_chemical_formula_sum   'Ho20 Ga12'
_cell_volume   799.12796200
_cell_formula_units_Z   4
loop_
 _symmetry_equiv_pos_site_id
 _symmetry_equiv_pos_as_xyz
  1  'x, y, z'
loop_
 _atom_site_type_symbol
 _atom_site_label
 _atom_site_symmetry_multiplicity
 _atom_site_fract_x
 _atom_site_fract_y
 _atom_site_fract_z
 _atom_site_occupancy
  Ho  Ho0  1  0.99999900  0.50000100  0.76862099  1
  Ho  Ho1  1  -0.00000000  0.50000000  0.26896029  1
  Ho  Ho2  1  0.50000000  -0.00000000  0.23140681  1
  Ho  Ho3  1  0.50000100  -0.00000000  0.73101900  1
  Ho  Ho4  1  0.67955146  0.65792229  0.60305759  1
  Ho  Ho5  1  0.67956870  0.34203841  0.10347100  1
  Ho  Ho6  1  0.82045300  0.84205864  0.39685549  1
  Ho  Ho7  1  0.17957558  0.84205641  0.89662339  1
  Ho  Ho8  1  0.32044854  0.34207571  0.60305759  1
  Ho  Ho9  1  0.32043130  0.65795959  0.10347100  1
  Ho  Ho10  1  0.17954700  0.15794236  0.39685549  1
  Ho  Ho11  1  0.82042442  0.15794559  0.89662239  1
  Ho  Ho12  1  0.65793974  0.32045266  0.39685508  1
  Ho  Ho13  1  0.34205338  0.32042775  0.89662048  1
  Ho  Ho14  1  0.15792425  0.82044644  0.60305690  1
  Ho  Ho15  1  0.84204222  0.82043362  0.10347056  1
  Ho  Ho16  1  0.34206026  0.67954734  0.39685408  1
  Ho  Ho17  1  0.65794362  0.67957425  0.89662248  1
  Ho  Ho18  1  0.84207675  0.17955256  0.60305790  1
  Ho  Ho19  1  0.15795978  0.17956638  0.10347056  1
  Ga  Ga0  1  0.00000100  0.50000000  0.49417963  1
  Ga  Ga1  1  0.00000000  0.50000000  0.99417481  1
  Ga  Ga2  1  0.49999900  0.00000000  0.50575154  1
  Ga  Ga3  1  0.50000000  0.00000100  0.00591837  1
  Ga  Ga4  1  0.87739464  0.87738653  0.74958046  1
  Ga  Ga5  1  0.87737026  0.12261327  0.25041177  1
  Ga  Ga6  1  0.62261267  0.62263140  0.25040085  1
  Ga  Ga7  1  0.37738895  0.62260266  0.74958071  1
  Ga  Ga8  1  0.12260436  0.12261247  0.74958046  1
  Ga  Ga9  1  0.12263074  0.87738773  0.25041177  1
  Ga  Ga10  1  0.37738733  0.37736760  0.25040085  1
  Ga  Ga11  1  0.62261205  0.37739634  0.74958071  1
loop_
_geom_bond_atom_site_label_1
_geom_bond_atom_site_label_2
_geom_bond_distance
_geom_bond_site_symmetry_2
Ho4 Ho6 3.377619 1_555
Ho7 Ho9 3.385114 1_556
Ho10 Ho8 3.377611 1_555
Ho11 Ho5 3.385126 1_556
Ho12 Ho18 3.377618 1_555
Ho13 Ho19 3.385155 1_556
Ho14 Ho16 3.377624 1_555
Ho15 Ho17 3.385140 1_554
Ga0 Ho8 3.099558 1_555
Ga0 Ho14 3.099562 1_555
Ga0 Ho4 3.099574 1_455
Ga0 Ho18 3.099574 1_455
Ga0 Ho1 3.154439 1_555
Ga0 Ho10 3.220742 1_555
Ga0 Ho6 3.220745 1_455
Ga0 Ho16 3.220760 1_555
Ga0 Ho12 3.220763 1_455
Ga1 Ho9 3.102459 1_556
Ga1 Ho5 3.102469 1_456
Ga1 Ho19 3.102469 1_556
Ga1 Ho15 3.102473 1_456
Ga1 Ho0 3.159123 1_455
Ga1 Ho13 3.222158 1_555
Ga1 Ho17 3.222161 1_455
Ga1 Ho11 3.222173 1_455
Ga1 Ho7 3.222176 1_555
Ga2 Ho10 3.099762 1_555
Ga2 Ho12 3.099778 1_555
Ga2 Ho6 3.099781 1_545
Ga2 Ho16 3.099783 1_545
Ga2 Ho3 3.155113 1_555
Ga2 Ho14 3.220754 1_545
Ga2 Ho8 3.220758 1_555
Ga2 Ho4 3.220767 1_545
Ga2 Ho18 3.220771 1_555
Ga3 Ho7 3.102367 1_544
Ga3 Ho11 3.102377 1_554
Ga3 Ho17 3.102392 1_544
Ga3 Ho13 3.102405 1_554
Ga3 Ho2 3.158208 1_555
Ga3 Ho19 3.222044 1_555
Ga3 Ho5 3.222049 1_555
Ga3 Ho15 3.222053 1_545
Ga3 Ho9 3.222071 1_545
Ga4 Ga8 2.619495 1_665
Ga4 Ho14 2.981059 1_655
Ga4 Ho11 2.986258 1_565
Ga4 Ho3 3.008578 1_565
Ga4 Ho0 3.009097 1_555
Ga4 Ho4 3.031984 1_555
Ga4 Ho17 3.036740 1_555
Ga4 Ho18 3.080933 1_565
Ga4 Ho7 3.085876 1_655
Ga5 Ga9 2.619757 1_645
Ga5 Ho6 2.980398 1_545
Ga5 Ho19 2.985424 1_655
Ga5 Ho1 3.008568 1_655
Ga5 Ho2 3.008959 1_555
Ga5 Ho12 3.031077 1_555
Ga5 Ho5 3.035622 1_555
Ga5 Ho10 3.080259 1_655
Ga5 Ho15 3.084934 1_545
Ga6 Ho16 2.980477 1_555
Ga6 Ho5 2.985343 1_555
Ga6 Ho1 3.008573 1_655
Ga6 Ho2 3.008938 1_565
Ga6 Ho6 3.031173 1_555
Ga6 Ho15 3.035553 1_555
Ga6 Ho12 3.080373 1_555
Ga6 Ho9 3.084821 1_555
Ga7 Ho8 2.981047 1_555
Ga7 Ho17 2.986221 1_555
Ga7 Ho3 3.008618 1_565
Ga7 Ho0 3.009117 1_455
Ga7 Ho14 3.031985 1_555
Ga7 Ho7 3.036764 1_555
Ga7 Ho4 3.080922 1_555
Ga7 Ho13 3.085827 1_555
Ga8 Ho18 2.981028 1_455
Ga8 Ho7 2.986243 1_545
Ga8 Ho3 3.008599 1_555
Ga8 Ho0 3.009123 1_455
Ga8 Ho8 3.031983 1_555
Ga8 Ho13 3.036723 1_555
Ga8 Ho14 3.080953 1_545
Ga8 Ho11 3.085873 1_455
Ga9 Ho10 2.980404 1_565
Ga9 Ho15 2.985413 1_455
Ga9 Ho1 3.008577 1_555
Ga9 Ho2 3.008950 1_565
Ga9 Ho16 3.031055 1_555
Ga9 Ho9 3.035643 1_555
Ga9 Ho6 3.080273 1_455
Ga9 Ho19 3.084922 1_565
Ga10 Ga6 2.619781 1_555
Ga10 Ho12 2.980475 1_555
Ga10 Ho9 2.985327 1_555
Ga10 Ho1 3.008577 1_555
Ga10 Ho2 3.008933 1_555
Ga10 Ho10 3.031165 1_555
Ga10 Ho19 3.035540 1_555
Ga10 Ho16 3.080379 1_555
Ga10 Ho5 3.084831 1_555
Ga11 Ga7 2.619455 1_555
Ga11 Ho4 2.981034 1_555
Ga11 Ho13 2.986227 1_555
Ga11 Ho3 3.008609 1_555
Ga11 Ho0 3.009102 1_555
Ga11 Ho18 3.031988 1_555
Ga11 Ho11 3.036726 1_555
Ga11 Ho8 3.080920 1_555
Ga11 Ho17 3.085867 1_555
