# generated using pymatgen
data_YGePt
_symmetry_space_group_name_H-M   'P 1'
_cell_length_a   3.56896100
_cell_length_b   4.41494022
_cell_length_c   4.42047754
_cell_angle_alpha   59.88310459
_cell_angle_beta   90.00000000
_cell_angle_gamma   90.00000000
_symmetry_Int_Tables_number   1
_chemical_formula_structural   YGePt
_chemical_formula_sum   'Y1 Ge1 Pt1'
_cell_volume   60.24953253
_cell_formula_units_Z   1
loop_
 _symmetry_equiv_pos_site_id
 _symmetry_equiv_pos_as_xyz
  1  'x, y, z'
loop_
 _atom_site_type_symbol
 _atom_site_label
 _atom_site_symmetry_multiplicity
 _atom_site_fract_x
 _atom_site_fract_y
 _atom_site_fract_z
 _atom_site_occupancy
  Y  Y0  1  0.00000000  0.00081800  0.99956300  1
  Ge  Ge0  1  0.50000000  0.66587000  0.66689200  1
  Pt  Pt0  1  0.50000000  0.33321100  0.33364500  1
loop_
_geom_bond_atom_site_label_1
_geom_bond_atom_site_label_2
_geom_bond_distance
_geom_bond_site_symmetry_2
Ge0 Pt0 2.548540 1_565
Ge0 Pt0 2.549157 1_555
Ge0 Pt0 2.549503 1_556
Ge0 Y0 3.104018 1_655
Ge0 Y0 3.104018 1_555
Ge0 Y0 3.113755 1_564
Ge0 Y0 3.113755 1_664
Ge0 Y0 3.117054 1_565
Ge0 Y0 3.117054 1_665
Pt0 Y0 3.109349 1_655
Pt0 Y0 3.109349 1_555
Pt0 Y0 3.112006 1_564
Pt0 Y0 3.112006 1_664
Pt0 Y0 3.113472 1_654
Pt0 Y0 3.113472 1_554
