# generated using pymatgen
data_K4P4H6WO14
_symmetry_space_group_name_H-M   'P 1'
_cell_length_a   7.31706600
_cell_length_b   10.50034659
_cell_length_c   12.69189918
_cell_angle_alpha   82.59359824
_cell_angle_beta   73.24634622
_cell_angle_gamma   69.60928128
_symmetry_Int_Tables_number   1
_chemical_formula_structural   K4P4H6WO14
_chemical_formula_sum   'K8 P8 H12 W2 O28'
_cell_volume   874.79812891
_cell_formula_units_Z   2
loop_
 _symmetry_equiv_pos_site_id
 _symmetry_equiv_pos_as_xyz
  1  'x, y, z'
loop_
 _atom_site_type_symbol
 _atom_site_label
 _atom_site_symmetry_multiplicity
 _atom_site_fract_x
 _atom_site_fract_y
 _atom_site_fract_z
 _atom_site_occupancy
  K  K0  1  0.75360900  0.52632900  0.45350500  1
  K  K1  1  0.24639100  0.47367100  0.54649500  1
  K  K2  1  0.73344300  0.97367100  0.04649500  1
  K  K3  1  0.26655700  0.02632900  0.95350500  1
  K  K4  1  0.71977500  0.06468800  0.39941700  1
  K  K5  1  0.28022500  0.93531200  0.60058300  1
  K  K6  1  0.18388000  0.43531200  0.10058300  1
  K  K7  1  0.81612000  0.56468800  0.89941700  1
  P  P0  1  0.82218900  0.25724600  0.08965100  1
  P  P1  1  0.17781100  0.74275400  0.91034900  1
  P  P2  1  0.16908700  0.24275400  0.41034900  1
  P  P3  1  0.83091300  0.75724600  0.58965100  1
  P  P4  1  0.58872100  0.51223500  0.20660000  1
  P  P5  1  0.41127900  0.48776500  0.79340000  1
  P  P6  1  0.30755600  0.98776500  0.29340000  1
  P  P7  1  0.69244400  0.01223500  0.70660000  1
  H  H0  1  0.30733700  0.48536700  0.31770300  1
  H  H1  1  0.69266300  0.51463300  0.68229700  1
  H  H2  1  0.11040700  0.01463300  0.18229700  1
  H  H3  1  0.88959300  0.98536700  0.81770300  1
  H  H4  1  0.08164800  0.61988800  0.23040100  1
  H  H5  1  0.91835200  0.38011200  0.76959900  1
  H  H6  1  0.93193700  0.88011200  0.26959900  1
  H  H7  1  0.06806300  0.11988800  0.73040100  1
  H  H8  1  0.38067600  0.67584400  0.02887000  1
  H  H9  1  0.61932400  0.32415600  0.97113000  1
  H  H10  1  0.08539100  0.82415600  0.47113000  1
  H  H11  1  0.91460900  0.17584400  0.52887000  1
  W  W0  1  0.83645100  0.75000000  0.25000000  1
  W  W1  1  0.16354900  0.25000000  0.75000000  1
  O  O0  1  0.90272800  0.11249000  0.13237300  1
  O  O1  1  0.09727200  0.88751000  0.86762700  1
  O  O2  1  0.14759200  0.38751000  0.36762700  1
  O  O3  1  0.85240800  0.61249000  0.63237300  1
  O  O4  1  0.68852900  0.82224000  0.51815800  1
  O  O5  1  0.31147100  0.17776000  0.48184200  1
  O  O6  1  0.02892600  0.67776000  0.98184200  1
  O  O7  1  0.97107400  0.32224000  0.01815800  1
  O  O8  1  0.69396200  0.34628100  0.19973700  1
  O  O9  1  0.30603800  0.65371900  0.80026300  1
  O  O10  1  0.23998000  0.15371900  0.30026300  1
  O  O11  1  0.76002000  0.84628100  0.69973700  1
  O  O12  1  0.65472800  0.25520000  0.03157900  1
  O  O13  1  0.34527200  0.74480000  0.96842100  1
  O  O14  1  0.94150800  0.24480000  0.46842100  1
  O  O15  1  0.05849200  0.75520000  0.53157900  1
  O  O16  1  0.53546200  0.93070400  0.27030900  1
  O  O17  1  0.46453800  0.06929600  0.72969100  1
  O  O18  1  0.73647500  0.56929600  0.22969100  1
  O  O19  1  0.26352500  0.43070400  0.77030900  1
  O  O20  1  0.50986900  0.56343200  0.10665200  1
  O  O21  1  0.49013100  0.43656800  0.89334800  1
  O  O22  1  0.17995200  0.93656800  0.39334800  1
  O  O23  1  0.82004800  0.06343200  0.60665200  1
  O  O24  1  0.41798900  0.52057800  0.31971700  1
  O  O25  1  0.58201100  0.47942200  0.68028300  1
  O  O26  1  0.25828400  0.97942200  0.18028300  1
  O  O27  1  0.74171600  0.02057800  0.81971700  1
loop_
_geom_bond_atom_site_label_1
_geom_bond_atom_site_label_2
_geom_bond_distance
_geom_bond_site_symmetry_2
K0 O2 2.700593 1_655
K0 O14 2.799737 1_555
K0 O25 2.843481 1_555
K0 O18 2.850247 1_555
K0 O3 2.902800 1_555
K0 O4 3.155248 1_555
K0 W0 3.328687 1_555
K0 O24 3.384000 1_555
K1 O3 2.700593 1_455
K1 O15 2.799737 1_555
K1 O24 2.843481 1_555
K1 O19 2.850247 1_555
K1 O2 2.902800 1_555
K1 O5 3.155248 1_555
K1 W1 3.328687 1_555
K1 O25 3.384000 1_555
K2 O0 2.700587 1_565
K2 O12 2.799736 1_565
K2 O27 2.843481 1_564
K2 O16 2.850247 1_555
K2 O1 2.902804 1_654
K2 O6 3.155246 1_654
K2 W0 3.328687 1_555
K2 O26 3.384000 1_555
K3 O1 2.700587 1_545
K3 O13 2.799736 1_545
K3 O26 2.843481 1_546
K3 O17 2.850247 1_555
K3 O0 2.902804 1_456
K3 O7 3.155246 1_456
K3 W1 3.328687 1_555
K3 O27 3.384000 1_555
K4 O5 2.734286 1_555
K4 O4 2.832370 1_545
K4 O23 2.924610 1_555
K4 O16 3.110265 1_545
K4 O22 3.142302 1_645
K4 O14 3.218771 1_555
K4 O0 3.308355 1_555
K5 O4 2.734286 1_555
K5 O5 2.832370 1_565
K5 O22 2.924610 1_555
K5 O17 3.110265 1_565
K5 O23 3.142302 1_465
K5 O15 3.218771 1_555
K5 O1 3.308355 1_555
K6 O7 2.734280 1_455
K6 O6 2.832372 1_554
K6 O21 2.924607 1_554
K6 O18 3.110265 1_455
K6 O20 3.142309 1_555
K6 O12 3.218765 1_555
K6 O2 3.308356 1_555
K7 O6 2.734280 1_655
K7 O7 2.832372 1_556
K7 O20 2.924607 1_556
K7 O19 3.110265 1_655
K7 O21 3.142309 1_555
K7 O13 3.218765 1_555
K7 O3 3.308356 1_555
H0 O24 1.007893 1_555
H0 K1 2.801018 1_555
H1 O25 1.007893 1_555
H1 K0 2.801018 1_555
H2 O26 1.007893 1_545
H2 K3 2.801018 1_554
H3 O27 1.007893 1_565
H3 K2 2.801018 1_556
H4 W0 1.808194 1_455
H4 K6 2.476490 1_555
H5 W1 1.808194 1_655
H5 K7 2.476490 1_555
H6 W0 1.808194 1_555
H6 K4 2.476490 1_565
H7 W1 1.808194 1_555
H7 K5 2.476490 1_545
H8 O13 1.010271 1_554
H8 O20 1.649695 1_555
H8 K7 3.016362 1_554
H9 O12 1.010271 1_556
H9 O21 1.649695 1_555
H9 K6 3.016362 1_556
H10 O15 1.010274 1_555
H10 O22 1.649688 1_555
H10 K5 3.016356 1_555
H11 O14 1.010274 1_555
H11 O23 1.649688 1_555
H11 K4 3.016356 1_555
O0 P0 1.516312 1_555
O1 P1 1.516312 1_555
O2 P2 1.516312 1_555
O3 P3 1.516312 1_555
O4 P3 1.504793 1_555
O5 P2 1.504793 1_555
O6 P1 1.504803 1_555
O7 P0 1.504803 1_555
O8 P0 1.635930 1_555
O8 P4 1.643936 1_555
O9 P1 1.635930 1_555
O9 P5 1.643936 1_555
O10 P2 1.635931 1_555
O10 P6 1.643936 1_545
O11 P3 1.635931 1_555
O11 P7 1.643936 1_565
O12 P0 1.608788 1_555
O13 P1 1.608788 1_555
O14 P2 1.608788 1_655
O15 P3 1.608788 1_455
O16 P6 1.514279 1_555
O16 W0 2.324642 1_555
O17 P7 1.514279 1_555
O17 W1 2.324642 1_555
O18 P4 1.514279 1_555
O18 W0 2.324642 1_555
O19 P5 1.514279 1_555
O19 W1 2.324642 1_555
O20 P4 1.503680 1_555
O21 P5 1.503680 1_555
O22 P6 1.503684 1_555
O23 P7 1.503684 1_555
O24 P4 1.597385 1_555
O25 P5 1.597385 1_555
O26 P6 1.597385 1_555
O27 P7 1.597385 1_555
