# generated using pymatgen
data_Zr3AgHg3F20
_symmetry_space_group_name_H-M   'P 1'
_cell_length_a   10.69615004
_cell_length_b   10.69615004
_cell_length_c   8.55074318
_cell_angle_alpha   90.00000000
_cell_angle_beta   90.00000000
_cell_angle_gamma   119.99999924
_symmetry_Int_Tables_number   1
_chemical_formula_structural   Zr3AgHg3F20
_chemical_formula_sum   'Zr6 Ag2 Hg6 F40'
_cell_volume   847.20687271
_cell_formula_units_Z   2
loop_
 _symmetry_equiv_pos_site_id
 _symmetry_equiv_pos_as_xyz
  1  'x, y, z'
loop_
 _atom_site_type_symbol
 _atom_site_label
 _atom_site_symmetry_multiplicity
 _atom_site_fract_x
 _atom_site_fract_y
 _atom_site_fract_z
 _atom_site_occupancy
  Zr  Zr0  1  0.58377816  0.72273868  0.75000000  1
  Zr  Zr1  1  0.41622184  0.27726132  0.25000000  1
  Zr  Zr2  1  0.13895953  0.41622184  0.75000000  1
  Zr  Zr3  1  0.86104047  0.58377816  0.25000000  1
  Zr  Zr4  1  0.27726132  0.86104047  0.75000000  1
  Zr  Zr5  1  0.72273868  0.13895953  0.25000000  1
  Ag  Ag0  1  0.00000000  -0.00000000  0.75000000  1
  Ag  Ag1  1  0.00000000  -0.00000000  0.25000000  1
  Hg  Hg0  1  0.73066335  0.16182770  0.75000000  1
  Hg  Hg1  1  0.26933665  0.83817230  0.25000000  1
  Hg  Hg2  1  0.43116435  0.26933665  0.75000000  1
  Hg  Hg3  1  0.56883565  0.73066335  0.25000000  1
  Hg  Hg4  1  0.83817230  0.56883565  0.75000000  1
  Hg  Hg5  1  0.16182770  0.43116435  0.25000000  1
  F  F0  1  0.57430844  0.71959856  0.98307953  1
  F  F1  1  0.42569156  0.28040144  0.01692047  1
  F  F2  1  0.14529112  0.42569156  0.98307953  1
  F  F3  1  0.42569156  0.28040144  0.48307953  1
  F  F4  1  0.85470888  0.57430844  0.01692047  1
  F  F5  1  0.57430844  0.71959856  0.51692047  1
  F  F6  1  0.28040144  0.85470888  0.98307953  1
  F  F7  1  0.85470888  0.57430844  0.48307953  1
  F  F8  1  0.71959856  0.14529112  0.01692047  1
  F  F9  1  0.14529112  0.42569156  0.51692047  1
  F  F10  1  0.71959856  0.14529112  0.48307953  1
  F  F11  1  0.28040144  0.85470888  0.51692047  1
  F  F12  1  0.72008431  0.94318319  0.75000000  1
  F  F13  1  0.27991569  0.05681681  0.25000000  1
  F  F14  1  0.22309788  0.27991569  0.75000000  1
  F  F15  1  0.77690212  0.72008431  0.25000000  1
  F  F16  1  0.05681681  0.77690212  0.75000000  1
  F  F17  1  0.94318319  0.22309788  0.25000000  1
  F  F18  1  0.96943926  0.19950744  0.75000000  1
  F  F19  1  0.03056074  0.80049256  0.25000000  1
  F  F20  1  0.23006918  0.03056074  0.75000000  1
  F  F21  1  0.76993082  0.96943926  0.25000000  1
  F  F22  1  0.80049256  0.76993082  0.75000000  1
  F  F23  1  0.19950744  0.23006918  0.25000000  1
  F  F24  1  0.66666700  0.33333300  0.75000000  1
  F  F25  1  0.33333300  0.66666700  0.25000000  1
  F  F26  1  0.36615775  0.55030864  0.75000000  1
  F  F27  1  0.63384225  0.44969136  0.25000000  1
  F  F28  1  0.18415189  0.63384225  0.75000000  1
  F  F29  1  0.81584811  0.36615775  0.25000000  1
  F  F30  1  0.44969136  0.81584811  0.75000000  1
  F  F31  1  0.55030864  0.18415189  0.25000000  1
  F  F32  1  0.94337844  0.41221053  0.75000000  1
  F  F33  1  0.05662156  0.58778947  0.25000000  1
  F  F34  1  0.46883209  0.05662156  0.75000000  1
  F  F35  1  0.53116791  0.94337844  0.25000000  1
  F  F36  1  0.58778947  0.53116791  0.75000000  1
  F  F37  1  0.41221053  0.46883209  0.25000000  1
  F  F38  1  0.00000000  -0.00000000  0.00000000  1
  F  F39  1  0.00000000  -0.00000000  0.50000000  1
loop_
_geom_bond_atom_site_label_1
_geom_bond_atom_site_label_2
_geom_bond_distance
_geom_bond_site_symmetry_2
Ag0 F38 2.137686 1_556
Ag0 F39 2.137686 1_555
Ag0 F18 2.314778 1_455
Ag0 F22 2.314785 1_445
Ag0 F20 2.314789 1_555
Ag1 F38 2.137686 1_555
Ag1 F39 2.137686 1_555
Ag1 F19 2.314778 1_545
Ag1 F23 2.314785 1_555
Ag1 F21 2.314789 1_445
F0 Zr0 1.995006 1_555
F0 Hg3 2.287699 1_556
F1 Zr1 1.995006 1_555
F1 Hg2 2.287699 1_554
F2 Zr2 1.995006 1_555
F2 Hg5 2.287698 1_556
F3 Zr1 1.995006 1_555
F3 Hg2 2.287699 1_555
F4 Zr3 1.995006 1_555
F4 Hg4 2.287698 1_554
F5 Zr0 1.995006 1_555
F5 Hg3 2.287699 1_555
F6 Zr4 1.995007 1_555
F6 Hg1 2.287699 1_556
F7 Zr3 1.995006 1_555
F7 Hg4 2.287698 1_555
F8 Zr5 1.995007 1_555
F8 Hg0 2.287699 1_554
F9 Zr2 1.995006 1_555
F9 Hg5 2.287698 1_555
F10 Zr5 1.995007 1_555
F10 Hg0 2.287699 1_555
F11 Zr4 1.995007 1_555
F11 Hg1 2.287699 1_555
F12 Zr0 2.060979 1_555
F12 Hg0 2.284180 1_565
F13 Zr1 2.060979 1_555
F13 Hg1 2.284180 1_545
F14 Zr2 2.060979 1_555
F14 Hg2 2.284191 1_555
F15 Zr3 2.060979 1_555
F15 Hg3 2.284191 1_555
F16 Zr4 2.060979 1_555
F16 Hg4 2.284185 1_455
F17 Zr5 2.060979 1_555
F17 Hg5 2.284185 1_655
F18 Zr2 2.111366 1_655
F18 Hg0 2.378221 1_555
F19 Zr3 2.111366 1_455
F19 Hg1 2.378221 1_555
F20 Zr4 2.111352 1_545
F20 Hg2 2.378217 1_555
F21 Zr5 2.111352 1_565
F21 Hg3 2.378217 1_555
F22 Zr0 2.111373 1_555
F22 Hg4 2.378210 1_555
F23 Zr1 2.111373 1_555
F23 Hg5 2.378210 1_555
F24 Hg0 2.255983 1_555
F24 Hg4 2.255991 1_555
F24 Hg2 2.255993 1_555
F25 Hg1 2.255983 1_555
F25 Hg5 2.255991 1_555
F25 Hg3 2.255993 1_555
F26 Zr2 2.115947 1_555
F26 Zr0 2.127606 1_555
F27 Zr3 2.115947 1_555
F27 Zr1 2.127606 1_555
F28 Zr4 2.115949 1_555
F28 Zr2 2.127599 1_555
F29 Zr5 2.115949 1_555
F29 Zr3 2.127599 1_555
F30 Zr0 2.115929 1_555
F30 Zr4 2.127620 1_555
F31 Zr1 2.115929 1_555
F31 Zr5 2.127620 1_555
F32 Zr2 2.070845 1_655
F32 Hg4 2.440919 1_555
F32 Hg0 2.501140 1_555
F33 Zr3 2.070845 1_455
F33 Hg5 2.440919 1_555
F33 Hg1 2.501140 1_555
F34 Zr4 2.070850 1_545
F34 Hg0 2.440919 1_555
F34 Hg2 2.501140 1_555
F35 Zr5 2.070850 1_565
F35 Hg1 2.440919 1_555
F35 Hg3 2.501140 1_555
F36 Zr0 2.070856 1_555
F36 Hg2 2.440919 1_555
F36 Hg4 2.501140 1_555
F37 Zr1 2.070856 1_555
F37 Hg3 2.440919 1_555
F37 Hg5 2.501140 1_555
