# generated using pymatgen
data_TePb3Cl4O3
_symmetry_space_group_name_H-M   'P 1'
_cell_length_a   7.57498800
_cell_length_b   8.63112500
_cell_length_c   16.30711100
_cell_angle_alpha   90.00000000
_cell_angle_beta   90.00000000
_cell_angle_gamma   90.00000000
_symmetry_Int_Tables_number   1
_chemical_formula_structural   TePb3Cl4O3
_chemical_formula_sum   'Te4 Pb12 Cl16 O12'
_cell_volume   1066.16981525
_cell_formula_units_Z   4
loop_
 _symmetry_equiv_pos_site_id
 _symmetry_equiv_pos_as_xyz
  1  'x, y, z'
loop_
 _atom_site_type_symbol
 _atom_site_label
 _atom_site_symmetry_multiplicity
 _atom_site_fract_x
 _atom_site_fract_y
 _atom_site_fract_z
 _atom_site_occupancy
  Te  Te0  1  0.15415000  0.07629700  0.02059800  1
  Te  Te1  1  0.84585000  0.57629700  0.97940200  1
  Te  Te2  1  0.34585000  0.57629700  0.52059800  1
  Te  Te3  1  0.65415000  0.07629700  0.47940200  1
  Pb  Pb0  1  0.70745700  0.14801800  0.97687600  1
  Pb  Pb1  1  0.29254300  0.64801800  0.02312400  1
  Pb  Pb2  1  0.79254300  0.64801800  0.47687600  1
  Pb  Pb3  1  0.20745700  0.14801800  0.52312400  1
  Pb  Pb4  1  0.95269200  0.86885200  0.18856900  1
  Pb  Pb5  1  0.04730800  0.36885200  0.81143100  1
  Pb  Pb6  1  0.54730800  0.36885200  0.68856900  1
  Pb  Pb7  1  0.45269200  0.86885200  0.31143100  1
  Pb  Pb8  1  0.94008700  0.36339100  0.18356300  1
  Pb  Pb9  1  0.05991300  0.86339100  0.81643700  1
  Pb  Pb10  1  0.55991300  0.86339100  0.68356300  1
  Pb  Pb11  1  0.44008700  0.36339100  0.31643700  1
  Cl  Cl0  1  0.60293800  0.37289100  0.10511300  1
  Cl  Cl1  1  0.39706200  0.87289100  0.89488700  1
  Cl  Cl2  1  0.89706200  0.87289100  0.60511300  1
  Cl  Cl3  1  0.10293800  0.37289100  0.39488700  1
  Cl  Cl4  1  0.63343200  0.86153300  0.09868800  1
  Cl  Cl5  1  0.36656800  0.36153300  0.90131200  1
  Cl  Cl6  1  0.86656800  0.36153300  0.59868800  1
  Cl  Cl7  1  0.13343200  0.86153300  0.40131200  1
  Cl  Cl8  1  0.75296000  0.61779100  0.28382100  1
  Cl  Cl9  1  0.24704000  0.11779100  0.71617900  1
  Cl  Cl10  1  0.74704000  0.11779100  0.78382100  1
  Cl  Cl11  1  0.25296000  0.61779100  0.21617900  1
  Cl  Cl12  1  0.75440100  0.11428400  0.28249700  1
  Cl  Cl13  1  0.24559900  0.61428400  0.71750300  1
  Cl  Cl14  1  0.74559900  0.61428400  0.78249700  1
  Cl  Cl15  1  0.25440100  0.11428400  0.21750300  1
  O  O0  1  0.95373800  0.14893400  0.08145000  1
  O  O1  1  0.04626200  0.64893400  0.91855000  1
  O  O2  1  0.54626200  0.64893400  0.58145000  1
  O  O3  1  0.45373800  0.14893400  0.41855000  1
  O  O4  1  0.01157300  0.05173600  0.92541400  1
  O  O5  1  0.98842700  0.55173600  0.07458600  1
  O  O6  1  0.48842700  0.55173600  0.42541400  1
  O  O7  1  0.51157300  0.05173600  0.57458600  1
  O  O8  1  0.13301800  0.87215200  0.06314200  1
  O  O9  1  0.86698200  0.37215200  0.93685800  1
  O  O10  1  0.36698200  0.37215200  0.56314200  1
  O  O11  1  0.63301800  0.87215200  0.43685800  1
loop_
_geom_bond_atom_site_label_1
_geom_bond_atom_site_label_2
_geom_bond_distance
_geom_bond_site_symmetry_2
Cl0 Pb8 2.857572 1_555
Cl0 Pb0 2.960907 1_554
Cl1 Pb9 2.857572 1_555
Cl1 Pb1 2.960907 1_556
Cl2 Pb10 2.857572 1_555
Cl2 Pb2 2.960907 1_555
Cl3 Pb11 2.857572 1_555
Cl3 Pb3 2.960907 1_555
Cl4 Pb4 2.828582 1_555
Cl5 Pb5 2.828582 1_555
Cl6 Pb6 2.828582 1_555
Cl7 Pb7 2.828582 1_555
Cl8 Pb4 3.065516 1_555
Cl8 Pb8 3.082787 1_555
Cl8 Pb2 3.173159 1_555
Cl8 Pb7 3.173612 1_555
Cl8 Pb11 3.274322 1_555
Cl9 Pb5 3.065516 1_555
Cl9 Pb9 3.082787 1_545
Cl9 Pb3 3.173159 1_555
Cl9 Pb6 3.173612 1_555
Cl9 Pb10 3.274322 1_545
Cl10 Pb6 3.065516 1_555
Cl10 Pb10 3.082787 1_545
Cl10 Pb0 3.173159 1_555
Cl10 Pb5 3.173612 1_655
Cl10 Pb9 3.274322 1_645
Cl11 Pb7 3.065516 1_555
Cl11 Pb11 3.082787 1_555
Cl11 Pb1 3.173159 1_555
Cl11 Pb4 3.173612 1_455
Cl11 Pb8 3.274322 1_455
Cl12 Pb4 3.014908 1_545
Cl12 Pb8 3.033823 1_555
Cl12 Pb7 3.151713 1_545
Cl12 Pb11 3.255448 1_555
Cl13 Pb5 3.014908 1_555
Cl13 Pb9 3.033823 1_555
Cl13 Pb6 3.151713 1_555
Cl13 Pb10 3.255448 1_555
Cl14 Pb6 3.014908 1_555
Cl14 Pb10 3.033823 1_555
Cl14 Pb5 3.151713 1_655
Cl14 Pb9 3.255448 1_655
Cl15 Pb7 3.014908 1_545
Cl15 Pb11 3.033823 1_555
Cl15 Pb4 3.151713 1_445
Cl15 Pb8 3.255448 1_455
O0 Te0 1.918967 1_655
O0 Pb8 2.491926 1_555
O0 Pb0 2.527545 1_554
O1 Te1 1.918967 1_455
O1 Pb9 2.491926 1_555
O1 Pb1 2.527545 1_556
O2 Te2 1.918967 1_555
O2 Pb10 2.491926 1_555
O2 Pb2 2.527545 1_555
O3 Te3 1.918967 1_555
O3 Pb11 2.491926 1_555
O3 Pb3 2.527545 1_555
O4 Te0 1.902796 1_556
O4 Pb9 2.436153 1_545
O4 Pb0 2.588777 1_455
O5 Te1 1.902796 1_554
O5 Pb8 2.436153 1_555
O5 Pb1 2.588777 1_655
O6 Te2 1.902796 1_555
O6 Pb11 2.436153 1_555
O6 Pb2 2.588777 1_555
O7 Te3 1.902796 1_555
O7 Pb10 2.436153 1_545
O7 Pb3 2.588777 1_555
O8 Te0 1.900418 1_565
O8 Pb1 2.372444 1_555
O8 Pb4 2.459704 1_455
O9 Te1 1.900418 1_555
O9 Pb0 2.372444 1_555
O9 Pb5 2.459704 1_655
O10 Te2 1.900418 1_555
O10 Pb3 2.372444 1_555
O10 Pb6 2.459704 1_555
O11 Te3 1.900418 1_565
O11 Pb2 2.372444 1_555
O11 Pb7 2.459704 1_555
