# generated using pymatgen
data_TmGaAg
_symmetry_space_group_name_H-M   'P 1'
_cell_length_a   5.64964279
_cell_length_b   5.64964279
_cell_length_c   7.00831960
_cell_angle_alpha   52.28786248
_cell_angle_beta   52.28786248
_cell_angle_gamma   46.48547141
_symmetry_Int_Tables_number   1
_chemical_formula_structural   TmGaAg
_chemical_formula_sum   'Tm2 Ga2 Ag2'
_cell_volume   121.05080823
_cell_formula_units_Z   2
loop_
 _symmetry_equiv_pos_site_id
 _symmetry_equiv_pos_as_xyz
  1  'x, y, z'
loop_
 _atom_site_type_symbol
 _atom_site_label
 _atom_site_symmetry_multiplicity
 _atom_site_fract_x
 _atom_site_fract_y
 _atom_site_fract_z
 _atom_site_occupancy
  Tm  Tm0  1  0.46606430  0.46606430  0.28997897  1
  Tm  Tm1  1  0.53393570  0.53393570  0.71002103  1
  Ga  Ga0  1  0.15826095  0.15826095  0.88076230  1
  Ga  Ga1  1  0.84173905  0.84173905  0.11923770  1
  Ag  Ag0  1  0.82692861  0.82692861  0.71964381  1
  Ag  Ag1  1  0.17307139  0.17307139  0.28035619  1
loop_
_geom_bond_atom_site_label_1
_geom_bond_atom_site_label_2
_geom_bond_distance
_geom_bond_site_symmetry_2
Ga0 Ga1 2.505947 1_446
Ga0 Tm0 3.091581 1_546
Ga0 Tm0 3.091581 1_456
Ga0 Tm0 3.120637 1_555
Ga0 Tm1 3.182005 1_455
Ga0 Tm1 3.182005 1_545
Ga0 Tm1 3.229624 1_555
Ga1 Tm1 3.091581 1_564
Ga1 Tm1 3.091581 1_654
Ga1 Tm1 3.120637 1_555
Ga1 Tm0 3.182005 1_565
Ga1 Tm0 3.182005 1_655
Ga1 Tm0 3.229624 1_555
Ag0 Ga0 2.584474 1_565
Ag0 Ga0 2.584474 1_655
Ag0 Ag1 2.768053 1_665
Ag0 Ga1 2.905114 1_556
Ag0 Tm1 3.066156 1_565
Ag0 Tm1 3.066156 1_655
Ag0 Tm1 3.087232 1_555
Ag0 Tm0 3.174053 1_556
Ag0 Tm0 3.214544 1_655
Ag0 Tm0 3.214544 1_565
Ag1 Ga1 2.584474 1_455
Ag1 Ga1 2.584474 1_545
Ag1 Ga0 2.905114 1_554
Ag1 Tm0 3.066156 1_455
Ag1 Tm0 3.066156 1_545
Ag1 Tm0 3.087232 1_555
Ag1 Tm1 3.174053 1_554
Ag1 Tm1 3.214544 1_455
Ag1 Tm1 3.214544 1_545
