# generated using pymatgen
data_Y3Bi
_symmetry_space_group_name_H-M   'P 1'
_cell_length_a   4.89250500
_cell_length_b   4.89250500
_cell_length_c   4.89250500
_cell_angle_alpha   90.00000000
_cell_angle_beta   90.00000000
_cell_angle_gamma   90.00000000
_symmetry_Int_Tables_number   1
_chemical_formula_structural   Y3Bi
_chemical_formula_sum   'Y3 Bi1'
_cell_volume   117.10996050
_cell_formula_units_Z   1
loop_
 _symmetry_equiv_pos_site_id
 _symmetry_equiv_pos_as_xyz
  1  'x, y, z'
loop_
 _atom_site_type_symbol
 _atom_site_label
 _atom_site_symmetry_multiplicity
 _atom_site_fract_x
 _atom_site_fract_y
 _atom_site_fract_z
 _atom_site_occupancy
  Y  Y0  1  0.00000000  0.50000000  0.50000000  1
  Y  Y1  1  0.50000000  0.00000000  0.50000000  1
  Y  Y2  1  0.50000000  0.50000000  0.00000000  1
  Bi  Bi0  1  0.00000000  0.00000000  0.00000000  1
loop_
_geom_bond_atom_site_label_1
_geom_bond_atom_site_label_2
_geom_bond_distance
_geom_bond_site_symmetry_2
Y0 Y1 3.459523 1_565
Y0 Y2 3.459523 1_556
Y0 Y2 3.459523 1_455
Y0 Y2 3.459523 1_555
Y0 Y1 3.459523 1_555
Y0 Y1 3.459523 1_465
Y0 Y1 3.459523 1_455
Y0 Y2 3.459523 1_456
Y1 Y2 3.459523 1_556
Y1 Y2 3.459523 1_555
Y1 Y2 3.459523 1_546
Y1 Y2 3.459523 1_545
Bi0 Y1 3.459523 1_454
Bi0 Y0 3.459523 1_545
Bi0 Y2 3.459523 1_455
Bi0 Y2 3.459523 1_555
Bi0 Y0 3.459523 1_554
Bi0 Y1 3.459523 1_555
Bi0 Y2 3.459523 1_545
Bi0 Y1 3.459523 1_554
Bi0 Y2 3.459523 1_445
Bi0 Y0 3.459523 1_544
Bi0 Y1 3.459523 1_455
Bi0 Y0 3.459523 1_555
