# generated using pymatgen
data_Mg16Al12Ge
_symmetry_space_group_name_H-M   'P 1'
_cell_length_a   9.10016896
_cell_length_b   9.10016896
_cell_length_c   9.10016896
_cell_angle_alpha   109.47122063
_cell_angle_beta   109.47122063
_cell_angle_gamma   109.47122063
_symmetry_Int_Tables_number   1
_chemical_formula_structural   Mg16Al12Ge
_chemical_formula_sum   'Mg16 Al12 Ge1'
_cell_volume   580.13153946
_cell_formula_units_Z   1
loop_
 _symmetry_equiv_pos_site_id
 _symmetry_equiv_pos_as_xyz
  1  'x, y, z'
loop_
 _atom_site_type_symbol
 _atom_site_label
 _atom_site_symmetry_multiplicity
 _atom_site_fract_x
 _atom_site_fract_y
 _atom_site_fract_z
 _atom_site_occupancy
  Mg  Mg0  1  0.31349300  0.59831200  0.00000000  1
  Mg  Mg1  1  0.59831200  0.31349300  0.00000000  1
  Mg  Mg2  1  0.00000000  0.33384800  0.00000000  1
  Mg  Mg3  1  0.33384800  0.00000000  0.00000000  1
  Mg  Mg4  1  0.40168800  0.40168800  0.71518100  1
  Mg  Mg5  1  0.28481900  0.68650700  0.68650700  1
  Mg  Mg6  1  0.68650700  0.28481900  0.68650700  1
  Mg  Mg7  1  0.66615200  0.66615200  0.66615200  1
  Mg  Mg8  1  0.31349300  0.00000000  0.59831200  1
  Mg  Mg9  1  0.00000000  0.31349300  0.59831200  1
  Mg  Mg10  1  0.71518100  0.40168800  0.40168800  1
  Mg  Mg11  1  0.40168800  0.71518100  0.40168800  1
  Mg  Mg12  1  0.00000000  0.00000000  0.33384800  1
  Mg  Mg13  1  0.59831200  0.00000000  0.31349300  1
  Mg  Mg14  1  0.00000000  0.59831200  0.31349300  1
  Mg  Mg15  1  0.68650700  0.68650700  0.28481900  1
  Al  Al0  1  0.63003800  0.81327100  0.00000000  1
  Al  Al1  1  0.81327100  0.63003800  0.00000000  1
  Al  Al2  1  0.18672900  0.18672900  0.81676700  1
  Al  Al3  1  0.00000000  0.63003800  0.81327100  1
  Al  Al4  1  0.63003800  0.00000000  0.81327100  1
  Al  Al5  1  0.81327100  0.00000000  0.63003800  1
  Al  Al6  1  0.00000000  0.81327100  0.63003800  1
  Al  Al7  1  0.18323300  0.36996200  0.36996200  1
  Al  Al8  1  0.36996200  0.18323300  0.36996200  1
  Al  Al9  1  0.81676700  0.18672900  0.18672900  1
  Al  Al10  1  0.18672900  0.81676700  0.18672900  1
  Al  Al11  1  0.36996200  0.36996200  0.18323300  1
  Ge  Ge0  1  0.00000000  0.00000000  0.00000000  1
loop_
_geom_bond_atom_site_label_1
_geom_bond_atom_site_label_2
_geom_bond_distance
_geom_bond_site_symmetry_2
Mg0 Mg2 3.058352 1_555
Mg0 Mg4 3.133071 1_554
Mg0 Mg15 3.133071 1_555
Mg0 Mg9 3.165551 1_554
Mg0 Mg11 3.165551 1_555
Mg0 Mg13 3.165551 1_565
Mg0 Mg5 3.165551 1_554
Mg1 Mg3 3.058352 1_555
Mg1 Mg15 3.133071 1_555
Mg1 Mg4 3.133071 1_554
Mg1 Mg10 3.165551 1_555
Mg1 Mg14 3.165551 1_655
Mg1 Mg8 3.165551 1_554
Mg1 Mg6 3.165551 1_554
Mg2 Mg6 3.058352 1_454
Mg3 Mg5 3.058352 1_544
Mg4 Mg7 3.058352 1_555
Mg4 Mg5 3.165551 1_555
Mg4 Mg9 3.165551 1_555
Mg4 Mg8 3.165551 1_555
Mg4 Mg6 3.165551 1_555
Mg5 Mg9 3.133071 1_555
Mg5 Mg8 3.165551 1_565
Mg6 Mg8 3.133071 1_555
Mg6 Mg9 3.165551 1_655
Mg10 Mg7 3.058352 1_555
Mg10 Mg9 3.133071 1_655
Mg10 Mg14 3.133071 1_655
Mg10 Mg6 3.165551 1_555
Mg10 Mg13 3.165551 1_555
Mg10 Mg15 3.165551 1_555
Mg11 Mg7 3.058352 1_555
Mg11 Mg8 3.133071 1_565
Mg11 Mg13 3.133071 1_565
Mg11 Mg14 3.165551 1_555
Mg11 Mg5 3.165551 1_555
Mg11 Mg15 3.165551 1_555
Mg12 Mg9 3.058352 1_555
Mg12 Mg8 3.058352 1_555
Mg12 Mg15 3.058352 1_445
Mg13 Mg3 3.058352 1_555
Mg13 Mg6 3.133071 1_555
Mg13 Mg15 3.165551 1_545
Mg13 Mg9 3.165551 1_655
Mg14 Mg2 3.058352 1_555
Mg14 Mg5 3.133071 1_555
Mg14 Mg15 3.165551 1_455
Mg14 Mg8 3.165551 1_565
Al0 Al1 2.722937 1_555
Al0 Al9 2.774889 1_565
Al0 Al4 2.774889 1_564
Al0 Mg0 2.892728 1_555
Al0 Mg5 2.958698 1_554
Al0 Mg13 2.958698 1_565
Al0 Mg12 3.062297 1_665
Al0 Mg7 3.062297 1_554
Al0 Mg15 3.132619 1_555
Al0 Mg4 3.132619 1_554
Al1 Al10 2.774889 1_655
Al1 Al3 2.774889 1_654
Al1 Mg1 2.892728 1_555
Al1 Mg6 2.958698 1_554
Al1 Mg14 2.958698 1_655
Al1 Mg12 3.062297 1_665
Al1 Mg7 3.062297 1_554
Al1 Mg15 3.132619 1_555
Al1 Mg4 3.132619 1_554
Al2 Al6 2.774889 1_545
Al2 Al5 2.774889 1_455
Al2 Mg4 2.892728 1_555
Al2 Mg9 2.958698 1_555
Al2 Mg8 2.958698 1_555
Al2 Mg3 3.062297 1_556
Al2 Mg2 3.062297 1_556
Al2 Mg0 3.132619 1_556
Al2 Mg1 3.132619 1_556
Al3 Al6 2.722937 1_555
Al3 Mg9 2.892728 1_555
Al3 Mg0 2.958698 1_556
Al3 Mg6 2.958698 1_455
Al3 Mg3 3.062297 1_566
Al3 Mg7 3.062297 1_455
Al3 Mg5 3.132619 1_555
Al3 Mg10 3.132619 1_455
Al4 Al5 2.722937 1_555
Al4 Al9 2.774889 1_556
Al4 Mg8 2.892728 1_555
Al4 Mg1 2.958698 1_556
Al4 Mg5 2.958698 1_545
Al4 Mg7 3.062297 1_545
Al4 Mg2 3.062297 1_656
Al4 Mg6 3.132619 1_555
Al4 Mg11 3.132619 1_545
Al5 Al6 2.774889 1_645
Al5 Mg13 2.892728 1_555
Al5 Mg15 2.958698 1_545
Al5 Mg9 2.958698 1_655
Al5 Mg7 3.062297 1_545
Al5 Mg2 3.062297 1_656
Al5 Mg6 3.132619 1_555
Al5 Mg11 3.132619 1_545
Al6 Mg14 2.892728 1_555
Al6 Mg8 2.958698 1_565
Al6 Mg15 2.958698 1_455
Al6 Mg3 3.062297 1_566
Al6 Mg7 3.062297 1_455
Al6 Mg5 3.132619 1_555
Al6 Mg10 3.132619 1_455
Al7 Al9 2.722937 1_455
Al7 Al8 2.774889 1_555
Al7 Mg5 2.892728 1_555
Al7 Mg11 2.958698 1_555
Al7 Mg4 2.958698 1_555
Al7 Mg12 3.062297 1_555
Al7 Mg2 3.062297 1_555
Al7 Mg14 3.132619 1_555
Al7 Mg9 3.132619 1_555
Al8 Mg6 2.892728 1_555
Al8 Mg10 2.958698 1_555
Al8 Mg4 2.958698 1_555
Al8 Mg12 3.062297 1_555
Al8 Mg3 3.062297 1_555
Al8 Mg13 3.132619 1_555
Al8 Mg8 3.132619 1_555
Al9 Mg10 2.892728 1_555
Al9 Mg1 2.958698 1_555
Al9 Mg13 2.958698 1_555
Al9 Mg2 3.062297 1_655
Al9 Mg12 3.062297 1_655
Al9 Mg14 3.132619 1_655
Al9 Mg9 3.132619 1_655
Al10 Al8 2.722937 1_565
Al10 Al3 2.774889 1_554
Al10 Mg11 2.892728 1_555
Al10 Mg14 2.958698 1_555
Al10 Mg0 2.958698 1_555
Al10 Mg3 3.062297 1_565
Al10 Mg12 3.062297 1_565
Al10 Mg13 3.132619 1_565
Al10 Mg8 3.132619 1_565
Al11 Al2 2.722937 1_554
Al11 Al7 2.774889 1_555
Al11 Al8 2.774889 1_555
Al11 Mg15 2.892728 1_555
Al11 Mg10 2.958698 1_555
Al11 Mg11 2.958698 1_555
Al11 Mg3 3.062297 1_555
Al11 Mg2 3.062297 1_555
Al11 Mg1 3.132619 1_555
Al11 Mg0 3.132619 1_555
Ge0 Mg2 3.038073 1_555
Ge0 Mg3 3.038073 1_555
Ge0 Mg12 3.038073 1_555
Ge0 Mg7 3.038073 1_444
