# generated using pymatgen
data_Hg15(As2Cl3)4
_symmetry_space_group_name_H-M   'P 1'
_cell_length_a   12.53453800
_cell_length_b   12.53366400
_cell_length_c   12.53582217
_cell_angle_alpha   89.84282267
_cell_angle_beta   90.00000000
_cell_angle_gamma   90.00000000
_symmetry_Int_Tables_number   1
_chemical_formula_structural   Hg15(As2Cl3)4
_chemical_formula_sum   'Hg30 As16 Cl24'
_cell_volume   1969.41648052
_cell_formula_units_Z   2
loop_
 _symmetry_equiv_pos_site_id
 _symmetry_equiv_pos_as_xyz
  1  'x, y, z'
loop_
 _atom_site_type_symbol
 _atom_site_label
 _atom_site_symmetry_multiplicity
 _atom_site_fract_x
 _atom_site_fract_y
 _atom_site_fract_z
 _atom_site_occupancy
  Hg  Hg0  1  0.50000000  0.50000000  0.00000000  1
  Hg  Hg1  1  0.00000000  0.50000000  0.50000000  1
  Hg  Hg2  1  0.50000000  0.00000000  0.50000000  1
  Hg  Hg3  1  0.00000000  0.00000000  0.00000000  1
  Hg  Hg4  1  0.50000000  0.00000000  0.00000000  1
  Hg  Hg5  1  0.00000000  0.00000000  0.50000000  1
  Hg  Hg6  1  0.21892100  0.29021400  0.02648100  1
  Hg  Hg7  1  0.71892100  0.70978600  0.47351900  1
  Hg  Hg8  1  0.78133100  0.21017200  0.52657700  1
  Hg  Hg9  1  0.28133100  0.78982800  0.97342300  1
  Hg  Hg10  1  0.29034800  0.02675400  0.21858000  1
  Hg  Hg11  1  0.71022600  0.47385000  0.71901300  1
  Hg  Hg12  1  0.21022600  0.52615000  0.78098700  1
  Hg  Hg13  1  0.79034800  0.97324600  0.28142000  1
  Hg  Hg14  1  0.02661700  0.21893300  0.29008000  1
  Hg  Hg15  1  0.47354000  0.71864300  0.71003400  1
  Hg  Hg16  1  0.52661700  0.78106700  0.20992000  1
  Hg  Hg17  1  0.97354000  0.28135700  0.78996600  1
  Hg  Hg18  1  0.78107900  0.70978600  0.97351900  1
  Hg  Hg19  1  0.28107900  0.29021400  0.52648100  1
  Hg  Hg20  1  0.21866900  0.78982800  0.47342300  1
  Hg  Hg21  1  0.71866900  0.21017200  0.02657700  1
  Hg  Hg22  1  0.70965200  0.97324600  0.78142000  1
  Hg  Hg23  1  0.28977400  0.52615000  0.28098700  1
  Hg  Hg24  1  0.78977400  0.47385000  0.21901300  1
  Hg  Hg25  1  0.20965200  0.02675400  0.71858000  1
  Hg  Hg26  1  0.97338300  0.78106700  0.70992000  1
  Hg  Hg27  1  0.52646000  0.28135700  0.28996600  1
  Hg  Hg28  1  0.47338300  0.21893300  0.79008000  1
  Hg  Hg29  1  0.02646000  0.71864300  0.21003400  1
  As  As0  1  0.16737800  0.33255700  0.83254700  1
  As  As1  1  0.66737800  0.66744300  0.66745300  1
  As  As2  1  0.83219200  0.16783800  0.33226100  1
  As  As3  1  0.33219200  0.83216200  0.16773900  1
  As  As4  1  0.83262200  0.66744300  0.16745300  1
  As  As5  1  0.33262200  0.33255700  0.33254700  1
  As  As6  1  0.16780800  0.83216200  0.66773900  1
  As  As7  1  0.66780800  0.16783800  0.83226100  1
  As  As8  1  0.21911300  0.21921900  0.21907800  1
  As  As9  1  0.71911300  0.78078100  0.28092200  1
  As  As10  1  0.78125500  0.28137400  0.71880600  1
  As  As11  1  0.28125500  0.71862600  0.78119400  1
  As  As12  1  0.78088700  0.78078100  0.78092200  1
  As  As13  1  0.28088700  0.21921900  0.71907800  1
  As  As14  1  0.21874500  0.71862600  0.28119400  1
  As  As15  1  0.71874500  0.28137400  0.21880600  1
  Cl  Cl0  1  0.45819200  0.28828800  0.03461600  1
  Cl  Cl1  1  0.95819200  0.71171200  0.46538400  1
  Cl  Cl2  1  0.54153000  0.21365800  0.53453100  1
  Cl  Cl3  1  0.04153000  0.78634200  0.96546900  1
  Cl  Cl4  1  0.28809200  0.03476700  0.45820200  1
  Cl  Cl5  1  0.71347600  0.46561300  0.95844900  1
  Cl  Cl6  1  0.21347600  0.53438700  0.54155100  1
  Cl  Cl7  1  0.78809200  0.96523300  0.04179800  1
  Cl  Cl8  1  0.03429300  0.45832000  0.28653900  1
  Cl  Cl9  1  0.46513300  0.95830900  0.71191400  1
  Cl  Cl10  1  0.53429300  0.54168000  0.21346100  1
  Cl  Cl11  1  0.96513300  0.04169100  0.78808600  1
  Cl  Cl12  1  0.54180800  0.71171200  0.96538400  1
  Cl  Cl13  1  0.04180800  0.28828800  0.53461600  1
  Cl  Cl14  1  0.45847000  0.78634200  0.46546900  1
  Cl  Cl15  1  0.95847000  0.21365800  0.03453100  1
  Cl  Cl16  1  0.71190800  0.96523300  0.54179800  1
  Cl  Cl17  1  0.28652400  0.53438700  0.04155100  1
  Cl  Cl18  1  0.78652400  0.46561300  0.45844900  1
  Cl  Cl19  1  0.21190800  0.03476700  0.95820200  1
  Cl  Cl20  1  0.96570700  0.54168000  0.71346100  1
  Cl  Cl21  1  0.53486700  0.04169100  0.28808600  1
  Cl  Cl22  1  0.46570700  0.45832000  0.78653900  1
  Cl  Cl23  1  0.03486700  0.95830900  0.21191400  1
loop_
_geom_bond_atom_site_label_1
_geom_bond_atom_site_label_2
_geom_bond_distance
_geom_bond_site_symmetry_2
As0 As13 2.465082 1_555
As0 Hg12 2.566160 1_555
As0 Hg17 2.569419 1_455
As0 Hg6 2.569501 1_556
As1 As12 2.465082 1_555
As1 Hg11 2.566160 1_555
As1 Hg15 2.569419 1_555
As1 Hg7 2.569501 1_555
As2 Hg14 2.574290 1_655
As2 Hg8 2.574630 1_555
As2 Hg13 2.576490 1_545
As3 Hg16 2.574290 1_555
As3 Hg9 2.574630 1_554
As3 Hg10 2.576490 1_565
As4 As9 2.465082 1_555
As4 Hg24 2.566160 1_555
As4 Hg29 2.569419 1_655
As4 Hg18 2.569501 1_554
As5 As8 2.465082 1_555
As5 Hg23 2.566160 1_555
As5 Hg27 2.569419 1_555
As5 Hg19 2.569501 1_555
As6 Hg26 2.574290 1_455
As6 Hg20 2.574630 1_555
As6 Hg25 2.576490 1_565
As7 Hg28 2.574290 1_555
As7 Hg21 2.574630 1_556
As7 Hg22 2.576490 1_545
As8 Hg6 2.570828 1_555
As8 Hg14 2.571780 1_555
As8 Hg10 2.572263 1_555
As9 Hg7 2.570828 1_555
As9 Hg16 2.571780 1_555
As9 Hg13 2.572263 1_555
As10 As7 2.461461 1_555
As10 Hg17 2.569987 1_555
As10 Hg11 2.571482 1_555
As10 Hg8 2.571985 1_555
As11 As6 2.461461 1_555
As11 Hg15 2.569987 1_555
As11 Hg12 2.571482 1_555
As11 Hg9 2.571985 1_555
As12 Hg18 2.570828 1_555
As12 Hg26 2.571780 1_555
As12 Hg22 2.572263 1_555
As13 Hg19 2.570828 1_555
As13 Hg28 2.571780 1_555
As13 Hg25 2.572263 1_555
As14 As3 2.461461 1_555
As14 Hg29 2.569987 1_555
As14 Hg23 2.571482 1_555
As14 Hg20 2.571985 1_555
As15 As2 2.461461 1_555
As15 Hg27 2.569987 1_555
As15 Hg24 2.571482 1_555
As15 Hg21 2.571985 1_555
Cl0 Hg0 2.738214 1_555
Cl0 Hg6 3.000980 1_555
Cl1 Hg1 2.738214 1_655
Cl1 Hg7 3.000980 1_555
Cl2 Hg2 2.763325 1_555
Cl2 Hg8 3.007769 1_555
Cl3 Hg3 2.763325 1_566
Cl3 Hg9 3.007769 1_555
Cl4 Hg2 2.741972 1_555
Cl4 Hg10 3.005946 1_555
Cl5 Hg0 2.760132 1_556
Cl5 Hg11 3.003295 1_555
Cl6 Hg1 2.760132 1_555
Cl6 Hg12 3.003295 1_555
Cl7 Hg3 2.741972 1_665
Cl7 Hg13 3.005946 1_555
Cl8 Hg1 2.761491 1_555
Cl8 Hg14 3.002145 1_555
Cl9 Hg2 2.741080 1_565
Cl9 Hg15 3.005898 1_555
Cl10 Hg0 2.761491 1_555
Cl10 Hg16 3.002145 1_555
Cl11 Hg3 2.741080 1_656
Cl11 Hg17 3.005898 1_555
Cl12 Hg0 2.738214 1_556
Cl12 Hg18 3.000980 1_555
Cl13 Hg1 2.738214 1_555
Cl13 Hg19 3.000980 1_555
Cl14 Hg2 2.763325 1_565
Cl14 Hg20 3.007769 1_555
Cl15 Hg3 2.763325 1_655
Cl15 Hg21 3.007769 1_555
Cl16 Hg2 2.741972 1_565
Cl16 Hg22 3.005946 1_555
Cl17 Hg0 2.760132 1_555
Cl17 Hg23 3.003295 1_555
Cl18 Hg1 2.760132 1_655
Cl18 Hg24 3.003295 1_555
Cl19 Hg3 2.741972 1_556
Cl19 Hg25 3.005946 1_555
Cl20 Hg1 2.761491 1_655
Cl20 Hg26 3.002145 1_555
Cl21 Hg2 2.741080 1_555
Cl21 Hg27 3.005898 1_555
Cl22 Hg0 2.761491 1_556
Cl22 Hg28 3.002145 1_555
Cl23 Hg3 2.741080 1_565
Cl23 Hg29 3.005898 1_555
