# generated using pymatgen
data_CrCoCl3
_symmetry_space_group_name_H-M   'P 1'
_cell_length_a   5.69136600
_cell_length_b   6.57425762
_cell_length_c   6.57425762
_cell_angle_alpha   119.99999617
_cell_angle_beta   90.00000000
_cell_angle_gamma   90.00000000
_symmetry_Int_Tables_number   1
_chemical_formula_structural   CrCoCl3
_chemical_formula_sum   'Cr2 Co2 Cl6'
_cell_volume   213.02991807
_cell_formula_units_Z   2
loop_
 _symmetry_equiv_pos_site_id
 _symmetry_equiv_pos_as_xyz
  1  'x, y, z'
loop_
 _atom_site_type_symbol
 _atom_site_label
 _atom_site_symmetry_multiplicity
 _atom_site_fract_x
 _atom_site_fract_y
 _atom_site_fract_z
 _atom_site_occupancy
  Cr  Cr0  1  0.25000000  0.66666700  0.33333300  1
  Cr  Cr1  1  0.75000000  0.33333300  0.66666700  1
  Co  Co0  1  0.00000000  0.00000000  0.00000000  1
  Co  Co1  1  0.50000000  0.00000000  0.00000000  1
  Cl  Cl0  1  0.75000000  0.83102700  0.16897300  1
  Cl  Cl1  1  0.25000000  0.16897300  0.83102700  1
  Cl  Cl2  1  0.75000000  0.33794700  0.16897300  1
  Cl  Cl3  1  0.25000000  0.66205300  0.83102700  1
  Cl  Cl4  1  0.75000000  0.83102700  0.66205300  1
  Cl  Cl5  1  0.25000000  0.16897300  0.33794700  1
loop_
_geom_bond_atom_site_label_1
_geom_bond_atom_site_label_2
_geom_bond_distance
_geom_bond_site_symmetry_2
Cl0 Co0 2.393029 1_665
Cl0 Co1 2.393029 1_565
Cl1 Co1 2.393029 1_556
Cl1 Co0 2.393029 1_556
Cl2 Co1 2.393034 1_555
Cl2 Co0 2.393034 1_655
Cl3 Co1 2.393034 1_566
Cl3 Co0 2.393034 1_566
Cl4 Co1 2.393034 1_566
Cl4 Co0 2.393034 1_666
Cl5 Co1 2.393034 1_555
Cl5 Co0 2.393034 1_555
