# generated using pymatgen
data_LiV2(PO4)3
_symmetry_space_group_name_H-M   'P 1'
_cell_length_a   8.59940200
_cell_length_b   8.59940200
_cell_length_c   8.54908870
_cell_angle_alpha   60.43408292
_cell_angle_beta   60.43408292
_cell_angle_gamma   59.98727534
_symmetry_Int_Tables_number   1
_chemical_formula_structural   LiV2(PO4)3
_chemical_formula_sum   'Li2 V4 P6 O24'
_cell_volume   449.90160278
_cell_formula_units_Z   2
loop_
 _symmetry_equiv_pos_site_id
 _symmetry_equiv_pos_as_xyz
  1  'x, y, z'
loop_
 _atom_site_type_symbol
 _atom_site_label
 _atom_site_symmetry_multiplicity
 _atom_site_fract_x
 _atom_site_fract_y
 _atom_site_fract_z
 _atom_site_occupancy
  Li  Li0  1  0.01819600  0.43359800  0.98245500  1
  Li  Li1  1  0.43359800  0.01819600  0.48245500  1
  V  V0  1  0.36094500  0.85583100  0.91811500  1
  V  V1  1  0.85583100  0.36094500  0.41811500  1
  V  V2  1  0.14070800  0.64118700  0.57205500  1
  V  V3  1  0.64118700  0.14070800  0.07205500  1
  P  P0  1  0.03715300  0.96265500  0.74216000  1
  P  P1  1  0.75003300  0.53389200  0.75167500  1
  P  P2  1  0.53389200  0.75003300  0.25167500  1
  P  P3  1  0.96265500  0.03715300  0.24216000  1
  P  P4  1  0.46197000  0.24763900  0.74396300  1
  P  P5  1  0.24763900  0.46197000  0.24396300  1
  O  O0  1  0.94587600  0.22958200  0.23257100  1
  O  O1  1  0.69864800  0.37156200  0.93356500  1
  O  O2  1  0.50090800  0.79833100  0.06978900  1
  O  O3  1  0.37156200  0.69864800  0.43356500  1
  O  O4  1  0.22958200  0.94587600  0.73257100  1
  O  O5  1  0.91970300  0.54988200  0.75529400  1
  O  O6  1  0.54988200  0.91970300  0.25529400  1
  O  O7  1  0.72398600  0.58080000  0.25145300  1
  O  O8  1  0.12851500  0.99904500  0.06060100  1
  O  O9  1  0.99422100  0.87556300  0.42402400  1
  O  O10  1  0.58080000  0.72398600  0.75145300  1
  O  O11  1  0.19798800  0.50248900  0.42454200  1
  O  O12  1  0.79833100  0.50090800  0.56978900  1
  O  O13  1  0.05893400  0.77391700  0.73947700  1
  O  O14  1  0.99904500  0.12851500  0.56060100  1
  O  O15  1  0.26851500  0.41308900  0.75469800  1
  O  O16  1  0.87556300  0.99422100  0.92402400  1
  O  O17  1  0.77391700  0.05893400  0.23947700  1
  O  O18  1  0.07991000  0.43949000  0.24524100  1
  O  O19  1  0.62354800  0.29911000  0.56223500  1
  O  O20  1  0.50248900  0.19798800  0.92454200  1
  O  O21  1  0.29911000  0.62354800  0.06223500  1
  O  O22  1  0.41308900  0.26851500  0.25469800  1
  O  O23  1  0.43949000  0.07991000  0.74524100  1
loop_
_geom_bond_atom_site_label_1
_geom_bond_atom_site_label_2
_geom_bond_distance
_geom_bond_site_symmetry_2
Li0 O0 2.028309 1_456
Li0 O15 2.068548 1_555
Li0 O5 2.085251 1_455
Li1 O4 2.028309 1_545
Li1 O22 2.068548 1_555
Li1 O6 2.085251 1_545
O0 P3 1.550730 1_555
O0 V1 2.018156 1_555
O1 P1 1.535830 1_555
O1 V3 1.916107 1_556
O2 P2 1.533271 1_555
O2 V0 1.920043 1_554
O3 P2 1.535830 1_555
O3 V2 1.916107 1_555
O4 P0 1.550730 1_555
O4 V0 2.018156 1_555
O5 P1 1.548604 1_555
O5 V2 2.005834 1_655
O6 P2 1.548604 1_555
O6 V3 2.005834 1_565
O7 P2 1.552388 1_555
O7 V1 1.918711 1_555
O8 P3 1.549378 1_465
O8 V0 1.900212 1_554
O9 P3 1.526109 1_565
O9 V2 1.940833 1_655
O10 P1 1.552388 1_555
O10 V0 1.918711 1_555
O11 P5 1.555159 1_555
O11 V2 1.881277 1_555
O12 P1 1.533271 1_555
O12 V1 1.920043 1_555
O13 P0 1.548622 1_555
O13 V2 1.913613 1_555
O14 P0 1.549378 1_645
O14 V1 1.900212 1_555
O15 P4 1.552616 1_555
O15 V2 2.001982 1_555
O16 P0 1.526109 1_655
O16 V3 1.940833 1_566
O17 P3 1.548622 1_555
O17 V3 1.913613 1_555
O18 P5 1.542472 1_555
O18 V1 1.964709 1_455
O19 P4 1.531852 1_555
O19 V1 1.943728 1_555
O20 P4 1.555159 1_555
O20 V3 1.881277 1_556
O21 P5 1.531852 1_555
O21 V0 1.943728 1_554
O22 P5 1.552616 1_555
O22 V3 2.001982 1_555
O23 P4 1.542472 1_555
O23 V0 1.964709 1_545
