# generated using pymatgen
data_BaLa4Ti4O15
_symmetry_space_group_name_H-M   'P 1'
_cell_length_a   5.62966756
_cell_length_b   5.62966756
_cell_length_c   22.22690200
_cell_angle_alpha   90.00000000
_cell_angle_beta   90.00000000
_cell_angle_gamma   119.99999488
_symmetry_Int_Tables_number   1
_chemical_formula_structural   BaLa4Ti4O15
_chemical_formula_sum   'Ba2 La8 Ti8 O30'
_cell_volume   610.06356636
_cell_formula_units_Z   2
loop_
 _symmetry_equiv_pos_site_id
 _symmetry_equiv_pos_as_xyz
  1  'x, y, z'
loop_
 _atom_site_type_symbol
 _atom_site_label
 _atom_site_symmetry_multiplicity
 _atom_site_fract_x
 _atom_site_fract_y
 _atom_site_fract_z
 _atom_site_occupancy
  Ba  Ba0  1  0.00000000  0.00000000  0.25000000  1
  Ba  Ba1  1  0.00000000  0.00000000  0.75000000  1
  La  La0  1  0.33333300  0.66666700  0.03947800  1
  La  La1  1  0.33333300  0.66666700  0.53947800  1
  La  La2  1  0.66666700  0.33333300  0.96052200  1
  La  La3  1  0.66666700  0.33333300  0.46052200  1
  La  La4  1  0.66666700  0.33333300  0.14155900  1
  La  La5  1  0.66666700  0.33333300  0.64155900  1
  La  La6  1  0.33333300  0.66666700  0.85844100  1
  La  La7  1  0.33333300  0.66666700  0.35844100  1
  Ti  Ti0  1  0.33333300  0.66666700  0.19756100  1
  Ti  Ti1  1  0.33333300  0.66666700  0.69756100  1
  Ti  Ti2  1  0.66666700  0.33333300  0.80243900  1
  Ti  Ti3  1  0.66666700  0.33333300  0.30243900  1
  Ti  Ti4  1  0.00000000  0.00000000  0.08876100  1
  Ti  Ti5  1  0.00000000  0.00000000  0.58876100  1
  Ti  Ti6  1  0.00000000  0.00000000  0.91123900  1
  Ti  Ti7  1  0.00000000  0.00000000  0.41123900  1
  O  O0  1  0.22972600  0.88747400  0.14678400  1
  O  O1  1  0.65774800  0.77027400  0.14678400  1
  O  O2  1  0.11252600  0.34225200  0.14678400  1
  O  O3  1  0.22972600  0.34225200  0.64678400  1
  O  O4  1  0.11252600  0.77027400  0.64678400  1
  O  O5  1  0.65774800  0.88747400  0.64678400  1
  O  O6  1  0.77027400  0.11252600  0.85321600  1
  O  O7  1  0.34225200  0.22972600  0.85321600  1
  O  O8  1  0.88747400  0.65774800  0.85321600  1
  O  O9  1  0.77027400  0.65774800  0.35321600  1
  O  O10  1  0.88747400  0.22972600  0.35321600  1
  O  O11  1  0.34225200  0.11252600  0.35321600  1
  O  O12  1  0.52013000  0.00000000  0.25000000  1
  O  O13  1  0.47987000  0.47987000  0.25000000  1
  O  O14  1  0.00000000  0.52013000  0.25000000  1
  O  O15  1  0.52013000  0.52013000  0.75000000  1
  O  O16  1  0.00000000  0.47987000  0.75000000  1
  O  O17  1  0.47987000  0.00000000  0.75000000  1
  O  O18  1  0.66007500  0.76225200  0.94762000  1
  O  O19  1  0.10217600  0.33992500  0.94762000  1
  O  O20  1  0.23774800  0.89782400  0.94762000  1
  O  O21  1  0.66007500  0.89782400  0.44762000  1
  O  O22  1  0.23774800  0.33992500  0.44762000  1
  O  O23  1  0.10217600  0.76225200  0.44762000  1
  O  O24  1  0.33992500  0.23774800  0.05238000  1
  O  O25  1  0.89782400  0.66007500  0.05238000  1
  O  O26  1  0.76225200  0.10217600  0.05238000  1
  O  O27  1  0.33992500  0.10217600  0.55238000  1
  O  O28  1  0.76225200  0.66007500  0.55238000  1
  O  O29  1  0.89782400  0.23774800  0.55238000  1
loop_
_geom_bond_atom_site_label_1
_geom_bond_atom_site_label_2
_geom_bond_distance
_geom_bond_site_symmetry_2
Ba0 O12 2.701509 1_455
Ba0 O14 2.701509 1_545
Ba0 O13 2.701509 1_555
Ba0 O10 2.855937 1_455
Ba0 O0 2.855937 1_545
Ba0 O11 2.855937 1_555
Ba0 O2 2.855937 1_555
Ba0 O9 2.855937 1_445
Ba0 O1 2.855937 1_445
Ba0 O12 2.928159 1_555
Ba0 O14 2.928159 1_555
Ba0 O13 2.928159 1_445
Ba1 O16 2.701509 1_555
Ba1 O17 2.701509 1_555
Ba1 O15 2.701509 1_445
Ba1 O6 2.855937 1_455
Ba1 O4 2.855937 1_545
Ba1 O8 2.855937 1_445
Ba1 O5 2.855937 1_445
Ba1 O3 2.855937 1_555
Ba1 O7 2.855937 1_555
Ba1 O16 2.928159 1_545
Ba1 O17 2.928159 1_455
Ba1 O15 2.928159 1_555
La0 O25 2.450267 1_455
La0 O26 2.450273 1_565
La0 O24 2.450278 1_555
La0 O20 2.617618 1_554
La0 O18 2.617618 1_554
La0 O19 2.617618 1_554
La0 O0 2.880813 1_555
La0 O2 2.880816 1_555
La0 O1 2.880816 1_555
La1 O27 2.450267 1_565
La1 O29 2.450273 1_455
La1 O28 2.450278 1_555
La1 O23 2.617618 1_555
La1 O22 2.617618 1_555
La1 O21 2.617618 1_555
La1 O4 2.880813 1_555
La1 O5 2.880816 1_555
La1 O3 2.880816 1_555
La2 O19 2.450267 1_655
La2 O20 2.450273 1_545
La2 O18 2.450278 1_555
La2 O26 2.617618 1_556
La2 O24 2.617618 1_556
La2 O25 2.617618 1_556
La2 O6 2.880813 1_555
La2 O8 2.880816 1_555
La2 O7 2.880816 1_555
La3 O21 2.450267 1_545
La3 O23 2.450273 1_655
La3 O22 2.450278 1_555
La3 O29 2.617618 1_555
La3 O28 2.617618 1_555
La3 O27 2.617618 1_555
La3 O10 2.880813 1_555
La3 O11 2.880816 1_555
La3 O9 2.880816 1_555
La4 O2 2.488025 1_655
La4 O0 2.488028 1_545
La4 O1 2.488030 1_555
La4 O26 2.571442 1_555
La4 O24 2.571443 1_555
La4 O25 2.571443 1_555
La4 O12 2.909212 1_555
La4 O14 2.909212 1_655
La4 O13 2.909215 1_555
La4 O1 3.147174 1_545
La4 O0 3.147177 1_655
La4 O2 3.147179 1_555
La5 O5 2.488025 1_545
La5 O4 2.488028 1_655
La5 O3 2.488030 1_555
La5 O29 2.571442 1_555
La5 O28 2.571443 1_555
La5 O27 2.571443 1_555
La5 O16 2.909212 1_655
La5 O17 2.909212 1_555
La5 O15 2.909215 1_555
La5 O3 3.147174 1_655
La5 O4 3.147177 1_545
La5 O5 3.147179 1_555
La6 O8 2.488025 1_455
La6 O6 2.488028 1_565
La6 O7 2.488030 1_555
La6 O20 2.571442 1_555
La6 O18 2.571443 1_555
La6 O19 2.571443 1_555
La6 O17 2.909212 1_565
La6 O16 2.909212 1_555
La6 O15 2.909215 1_555
La6 O7 3.147174 1_565
La6 O6 3.147177 1_455
La6 O8 3.147179 1_555
La7 O11 2.488025 1_565
La7 O10 2.488028 1_455
La7 O9 2.488030 1_555
La7 O23 2.571442 1_555
La7 O22 2.571443 1_555
La7 O21 2.571443 1_555
La7 O14 2.909212 1_555
La7 O12 2.909212 1_565
La7 O13 2.909215 1_555
La7 O9 3.147174 1_455
La7 O10 3.147177 1_565
La7 O11 3.147179 1_555
O0 Ti0 1.970851 1_555
O0 Ti4 2.134573 1_565
O1 Ti0 1.970855 1_555
O1 Ti4 2.134573 1_665
O2 Ti0 1.970854 1_555
O2 Ti4 2.134573 1_555
O3 Ti1 1.970855 1_555
O3 Ti5 2.134573 1_555
O4 Ti1 1.970851 1_555
O4 Ti5 2.134573 1_565
O5 Ti1 1.970854 1_555
O5 Ti5 2.134573 1_665
O6 Ti2 1.970851 1_555
O6 Ti6 2.134573 1_655
O7 Ti2 1.970855 1_555
O7 Ti6 2.134573 1_555
O8 Ti2 1.970854 1_555
O8 Ti6 2.134573 1_665
O9 Ti3 1.970855 1_555
O9 Ti7 2.134573 1_665
O10 Ti3 1.970851 1_555
O10 Ti7 2.134573 1_655
O11 Ti3 1.970854 1_555
O11 Ti7 2.134573 1_555
O12 Ti3 2.003111 1_555
O12 Ti0 2.003112 1_545
O13 Ti3 2.003115 1_555
O13 Ti0 2.003115 1_555
O14 Ti0 2.003111 1_555
O14 Ti3 2.003112 1_455
O15 Ti2 2.003115 1_555
O15 Ti1 2.003115 1_555
O16 Ti2 2.003111 1_455
O16 Ti1 2.003112 1_555
O17 Ti1 2.003111 1_545
O17 Ti2 2.003112 1_555
O18 Ti6 1.883110 1_665
O19 Ti6 1.883111 1_555
O20 Ti6 1.883107 1_565
O21 Ti7 1.883111 1_665
O22 Ti7 1.883110 1_555
O23 Ti7 1.883107 1_565
O24 Ti4 1.883110 1_555
O25 Ti4 1.883111 1_665
O26 Ti4 1.883107 1_655
O27 Ti5 1.883111 1_555
O28 Ti5 1.883110 1_665
O29 Ti5 1.883107 1_655
