# generated using pymatgen
data_Sr2YGaCo2O7
_symmetry_space_group_name_H-M   'P 1'
_cell_length_a   5.52657000
_cell_length_b   5.68122770
_cell_length_c   11.98845443
_cell_angle_alpha   103.63743937
_cell_angle_beta   103.27462249
_cell_angle_gamma   89.89975400
_symmetry_Int_Tables_number   1
_chemical_formula_structural   Sr2YGaCo2O7
_chemical_formula_sum   'Sr4 Y2 Ga2 Co4 O14'
_cell_volume   355.47743083
_cell_formula_units_Z   2
loop_
 _symmetry_equiv_pos_site_id
 _symmetry_equiv_pos_as_xyz
  1  'x, y, z'
loop_
 _atom_site_type_symbol
 _atom_site_label
 _atom_site_symmetry_multiplicity
 _atom_site_fract_x
 _atom_site_fract_y
 _atom_site_fract_z
 _atom_site_occupancy
  Sr  Sr0  1  0.84141100  0.82118200  0.69746100  1
  Sr  Sr1  1  0.14402600  0.17047000  0.30044600  1
  Sr  Sr2  1  0.34012900  0.36866800  0.69824000  1
  Sr  Sr3  1  0.64130500  0.62243200  0.30047500  1
  Y  Y0  1  0.50102200  0.49667200  0.00026500  1
  Y  Y1  1  0.99946600  0.99735400  0.00093600  1
  Ga  Ga0  1  0.70766500  0.17019900  0.49662100  1
  Ga  Ga1  1  0.20761900  0.82098800  0.49950600  1
  Co  Co0  1  0.57800200  0.07098800  0.15855400  1
  Co  Co1  1  0.92763500  0.42207500  0.85585900  1
  Co  Co2  1  0.07580900  0.57741600  0.15428400  1
  Co  Co3  1  0.41842600  0.92160800  0.84120600  1
  O  O0  1  0.68002600  0.67322700  0.87293100  1
  O  O1  1  0.36396000  0.12073600  0.49928900  1
  O  O2  1  0.17932100  0.69394200  0.87600800  1
  O  O3  1  0.20302700  0.62175600  0.35265100  1
  O  O4  1  0.82168200  0.81786300  0.12727500  1
  O  O5  1  0.32418800  0.80407600  0.13110900  1
  O  O6  1  0.86239500  0.86895000  0.49798100  1
  O  O7  1  0.30464000  0.29952400  0.12422500  1
  O  O8  1  0.80580600  0.31864800  0.12561200  1
  O  O9  1  0.69727200  0.21699600  0.34786800  1
  O  O10  1  0.85399300  0.37426900  0.64034800  1
  O  O11  1  0.34698600  0.77555500  0.64931600  1
  O  O12  1  0.69301400  0.17271700  0.87101500  1
  O  O13  1  0.19103400  0.18927400  0.86906100  1
loop_
_geom_bond_atom_site_label_1
_geom_bond_atom_site_label_2
_geom_bond_distance
_geom_bond_site_symmetry_2
Ga0 O10 1.840768 1_555
Ga0 O9 1.852212 1_555
Ga0 O6 1.913701 1_545
Ga0 O1 1.929284 1_555
Ga1 O3 1.849670 1_555
Ga1 O11 1.862279 1_555
Ga1 O1 1.911758 1_565
Ga1 O6 1.923328 1_455
Co0 O5 1.983818 1_545
Co0 O4 1.998280 1_545
Co0 O7 2.024125 1_555
Co0 O8 2.053588 1_555
Co0 O9 2.168109 1_555
Co1 O13 1.969649 1_655
Co1 O0 1.983550 1_555
Co1 O12 1.989281 1_555
Co1 O2 2.013952 1_655
Co1 O10 2.470064 1_555
Co2 O4 1.984036 1_455
Co2 O5 1.992404 1_555
Co2 O8 2.009944 1_455
Co2 O7 2.038561 1_555
Co2 O3 2.272331 1_555
Co3 O13 1.987416 1_565
Co3 O12 1.995979 1_565
Co3 O2 2.026534 1_555
Co3 O0 2.054142 1_555
Co3 O11 2.195550 1_555
O0 Y0 2.394606 1_556
O0 Y1 2.509421 1_556
O0 Sr2 2.721106 1_555
O0 Sr0 2.761396 1_555
O1 Sr1 2.495116 1_555
O1 Sr2 2.499909 1_555
O2 Y1 2.379639 1_456
O2 Y0 2.489993 1_556
O2 Sr0 2.735140 1_455
O2 Sr2 2.784519 1_555
O3 Sr1 2.494782 1_555
O3 Sr3 2.637263 1_555
O3 Sr3 3.022893 1_455
O4 Y1 2.390502 1_555
O4 Y0 2.500131 1_555
O4 Sr1 2.801693 1_665
O4 Sr3 2.929076 1_555
O5 Y0 2.423198 1_555
O5 Y1 2.525217 1_455
O5 Sr3 2.758018 1_555
O5 Sr1 2.893768 1_565
O6 Sr3 2.484850 1_555
O6 Sr0 2.497934 1_555
O7 Y1 2.375921 1_445
O7 Y0 2.484092 1_555
O7 Sr1 2.717075 1_555
O7 Sr3 2.769574 1_555
O8 Y0 2.380467 1_555
O8 Y1 2.480462 1_545
O8 Sr3 2.713561 1_555
O8 Sr1 2.760993 1_655
O9 Sr3 2.501589 1_555
O9 Sr1 2.657179 1_655
O9 Sr1 2.979160 1_555
O10 Sr0 2.474209 1_555
O10 Sr2 2.618142 1_655
O10 Sr2 3.076304 1_555
O11 Sr2 2.517713 1_555
O11 Sr0 2.659774 1_555
O11 Sr0 2.979066 1_455
O12 Y1 2.408592 1_546
O12 Y0 2.513472 1_556
O12 Sr0 2.794410 1_545
O12 Sr2 2.925354 1_555
O13 Y0 2.436513 1_556
O13 Y1 2.528792 1_446
O13 Sr2 2.770119 1_555
O13 Sr0 2.915269 1_445
