# generated using pymatgen
data_SmScS3
_symmetry_space_group_name_H-M   'P 1'
_cell_length_a   6.45689741
_cell_length_b   7.10807002
_cell_length_c   9.55313825
_cell_angle_alpha   90.00000000
_cell_angle_beta   90.00000000
_cell_angle_gamma   90.00000000
_symmetry_Int_Tables_number   1
_chemical_formula_structural   SmScS3
_chemical_formula_sum   'Sm4 Sc4 S12'
_cell_volume   438.45158689
_cell_formula_units_Z   4
loop_
 _symmetry_equiv_pos_site_id
 _symmetry_equiv_pos_as_xyz
  1  'x, y, z'
loop_
 _atom_site_type_symbol
 _atom_site_label
 _atom_site_symmetry_multiplicity
 _atom_site_fract_x
 _atom_site_fract_y
 _atom_site_fract_z
 _atom_site_occupancy
  Sm  Sm0  1  0.53757125  0.40129345  0.75000000  1
  Sm  Sm1  1  0.46242875  0.59870655  0.25000000  1
  Sm  Sm2  1  0.03757125  0.09870655  0.25000000  1
  Sm  Sm3  1  0.96242875  0.90129345  0.75000000  1
  Sc  Sc0  1  -0.00000000  0.50000000  0.00000000  1
  Sc  Sc1  1  -0.00000000  0.50000000  0.50000000  1
  Sc  Sc2  1  0.50000000  -0.00000000  0.50000000  1
  Sc  Sc3  1  0.50000000  -0.00000000  0.00000000  1
  S  S0  1  0.82280917  0.18617070  0.56578449  1
  S  S1  1  0.17719083  0.81382930  0.06578449  1
  S  S2  1  0.32280917  0.31382930  0.06578449  1
  S  S3  1  0.67719083  0.68617070  0.56578449  1
  S  S4  1  0.82280917  0.18617070  0.93421551  1
  S  S5  1  0.17719083  0.81382930  0.43421551  1
  S  S6  1  0.32280917  0.31382930  0.43421551  1
  S  S7  1  0.67719083  0.68617070  0.93421551  1
  S  S8  1  0.86501840  0.45884272  0.25000000  1
  S  S9  1  0.13498160  0.54115728  0.75000000  1
  S  S10  1  0.36501840  0.04115728  0.75000000  1
  S  S11  1  0.63498160  0.95884272  0.25000000  1
loop_
_geom_bond_atom_site_label_1
_geom_bond_atom_site_label_2
_geom_bond_distance
_geom_bond_site_symmetry_2
S0 Sc2 2.547667 1_555
S0 Sc1 2.584576 1_655
S0 Sm3 2.830207 1_545
S0 Sm0 2.971068 1_555
S0 Sm2 3.377887 1_655
S1 Sc3 2.547667 1_565
S1 Sc0 2.584576 1_555
S1 Sm2 2.830207 1_565
S1 Sm1 2.971068 1_555
S1 Sm3 3.377887 1_454
S2 Sc0 2.547667 1_555
S2 Sc3 2.584576 1_555
S2 Sm1 2.830207 1_555
S2 Sm2 2.971068 1_555
S2 Sm0 3.377887 1_554
S3 Sc1 2.547667 1_655
S3 Sc2 2.584576 1_565
S3 Sm0 2.830207 1_555
S3 Sm3 2.971068 1_555
S3 Sm1 3.377887 1_555
S4 Sc3 2.547667 1_556
S4 Sc0 2.584576 1_656
S4 Sm3 2.830207 1_545
S4 Sm0 2.971068 1_555
S4 Sm2 3.377887 1_656
S5 Sc2 2.547667 1_565
S5 Sc1 2.584576 1_555
S5 Sm2 2.830207 1_565
S5 Sm1 2.971068 1_555
S5 Sm3 3.377887 1_455
S6 Sc1 2.547667 1_555
S6 Sc2 2.584576 1_555
S6 Sm1 2.830207 1_555
S6 Sm2 2.971068 1_555
S6 Sm0 3.377887 1_555
S7 Sc0 2.547667 1_656
S7 Sc3 2.584576 1_566
S7 Sm0 2.830207 1_555
S7 Sm3 2.971068 1_555
S7 Sm1 3.377887 1_556
S8 Sc0 2.559123 1_655
S8 Sc1 2.559123 1_655
S8 Sm1 2.783102 1_555
S8 Sm2 2.791826 1_655
S9 Sc0 2.559123 1_556
S9 Sc1 2.559123 1_555
S9 Sm0 2.783102 1_555
S9 Sm3 2.791826 1_455
S10 Sc2 2.559123 1_555
S10 Sc3 2.559123 1_556
S10 Sm3 2.783102 1_445
S10 Sm0 2.791826 1_555
S11 Sc3 2.559123 1_565
S11 Sc2 2.559123 1_565
S11 Sm2 2.783102 1_665
S11 Sm1 2.791826 1_555
