# generated using pymatgen
data_Li4Mn3CoO8
_symmetry_space_group_name_H-M   'P 1'
_cell_length_a   6.01102726
_cell_length_b   10.40064133
_cell_length_c   5.92014821
_cell_angle_alpha   89.99633036
_cell_angle_beta   60.18559189
_cell_angle_gamma   108.05567519
_symmetry_Int_Tables_number   1
_chemical_formula_structural   Li4Mn3CoO8
_chemical_formula_sum   'Li8 Mn6 Co2 O16'
_cell_volume   299.93728433
_cell_formula_units_Z   2
loop_
 _symmetry_equiv_pos_site_id
 _symmetry_equiv_pos_as_xyz
  1  'x, y, z'
loop_
 _atom_site_type_symbol
 _atom_site_label
 _atom_site_symmetry_multiplicity
 _atom_site_fract_x
 _atom_site_fract_y
 _atom_site_fract_z
 _atom_site_occupancy
  Li  Li0  1  0.49933100  0.25005400  0.24781000  1
  Li  Li1  1  0.50071200  0.74995700  0.75216200  1
  Li  Li2  1  0.99921300  0.25570500  0.74056000  1
  Li  Li3  1  0.00133400  0.74421200  0.25912400  1
  Li  Li4  1  0.50013400  0.25015400  0.73831500  1
  Li  Li5  1  0.50041300  0.75002100  0.26177800  1
  Li  Li6  1  0.00242000  0.24485700  0.23960400  1
  Li  Li7  1  0.99805200  0.75516100  0.76049500  1
  Mn  Mn0  1  0.50015400  0.50008400  0.99973600  1
  Mn  Mn1  1  0.00001200  0.50009200  0.00022000  1
  Mn  Mn2  1  0.50007400  0.99992600  0.00012000  1
  Mn  Mn3  1  0.49955200  0.99997300  0.50011600  1
  Mn  Mn4  1  0.99954800  0.99981800  0.49997800  1
  Mn  Mn5  1  0.50006500  0.50003400  0.49990000  1
  Co  Co0  1  0.00016900  0.00015700  0.99992300  1
  Co  Co1  1  0.00010900  0.49995300  0.50012400  1
  O  O0  1  0.73343000  0.12633800  0.60286300  1
  O  O1  1  0.73578500  0.62655700  0.16082100  1
  O  O2  1  0.26443500  0.37355900  0.83894900  1
  O  O3  1  0.26579200  0.87343400  0.39719500  1
  O  O4  1  0.24897700  0.10937300  0.13785600  1
  O  O5  1  0.25714600  0.60734800  0.63566400  1
  O  O6  1  0.72213400  0.11035900  0.13736600  1
  O  O7  1  0.72296100  0.61070900  0.63593700  1
  O  O8  1  0.25744200  0.10668900  0.60620400  1
  O  O9  1  0.25154100  0.60826200  0.11171700  1
  O  O10  1  0.74288700  0.39268900  0.36451700  1
  O  O11  1  0.75083500  0.89033600  0.86233600  1
  O  O12  1  0.27736500  0.38944100  0.36363600  1
  O  O13  1  0.27764200  0.88964600  0.86288000  1
  O  O14  1  0.74868300  0.39188200  0.88838200  1
  O  O15  1  0.74165400  0.89322000  0.39371300  1
loop_
_geom_bond_atom_site_label_1
_geom_bond_atom_site_label_2
_geom_bond_distance
_geom_bond_site_symmetry_2
Li0 O14 2.099504 1_554
Li0 O8 2.104099 1_555
Li0 O4 2.106793 1_555
Li0 O10 2.116877 1_555
Li0 O12 2.154404 1_555
Li0 O6 2.160487 1_555
Li1 O9 2.099343 1_556
Li1 O15 2.103970 1_555
Li1 O11 2.105267 1_555
Li1 O5 2.115954 1_555
Li1 O7 2.154319 1_555
Li1 O13 2.161512 1_555
Li2 O2 2.023748 1_655
Li2 O12 2.134852 1_655
Li2 O0 2.233832 1_555
Li2 O14 2.247558 1_555
Li2 O6 2.264051 1_556
Li2 O8 2.389110 1_655
Li3 O1 2.024117 1_455
Li3 O7 2.133514 1_455
Li3 O3 2.229204 1_555
Li3 O9 2.244138 1_555
Li3 O13 2.262163 1_554
Li3 O15 2.395036 1_455
Li4 O0 2.066231 1_555
Li4 O2 2.073058 1_555
Li4 O10 2.161413 1_555
Li4 O8 2.179843 1_555
Li4 O4 2.257508 1_556
Li4 O14 2.269177 1_555
Li5 O3 2.068148 1_555
Li5 O1 2.072030 1_555
Li5 O5 2.162313 1_555
Li5 O15 2.172265 1_555
Li5 O11 2.255190 1_554
Li5 O9 2.270561 1_555
Li6 O0 2.016229 1_455
Li6 O6 2.171389 1_455
Li6 O2 2.208259 1_554
Li6 O4 2.225289 1_555
Li6 O12 2.279961 1_555
Li6 O10 2.384229 1_455
Li7 O3 2.014859 1_655
Li7 O13 2.168924 1_655
Li7 O1 2.206454 1_556
Li7 O11 2.225448 1_555
Li7 O7 2.282089 1_555
Li7 O5 2.382223 1_655
Mn0 O7 1.983005 1_555
Mn0 O12 1.983528 1_556
Mn0 O14 1.998941 1_555
Mn0 O9 1.998973 1_556
Mn0 O2 2.197938 1_555
Mn0 O1 2.198695 1_556
Mn1 O10 1.975551 1_455
Mn1 O5 1.976140 1_554
Mn1 O9 1.981281 1_555
Mn1 O14 1.981954 1_454
Mn1 O1 2.224902 1_455
Mn1 O2 2.226573 1_554
Mn2 O6 1.972142 1_565
Mn2 O13 1.973093 1_554
Mn2 O11 2.019669 1_554
Mn2 O4 2.019933 1_565
Mn2 O3 2.190721 1_555
Mn2 O0 2.191635 1_564
Mn3 O0 1.943923 1_565
Mn3 O3 1.944960 1_555
Mn3 O8 1.958784 1_565
Mn3 O15 1.958964 1_555
Mn3 O6 1.977486 1_565
Mn3 O13 1.977499 1_555
Mn4 O4 1.971474 1_665
Mn4 O11 1.972036 1_555
Mn4 O15 1.983071 1_555
Mn4 O8 1.983810 1_665
Mn4 O3 2.234986 1_655
Mn4 O0 2.235504 1_565
Mn5 O2 1.945023 1_555
Mn5 O1 1.945370 1_555
Mn5 O10 1.966290 1_555
Mn5 O5 1.966538 1_555
Mn5 O12 1.971114 1_555
Mn5 O7 1.971256 1_555
Co0 O4 2.086947 1_556
Co0 O11 2.089797 1_445
Co0 O8 2.098889 1_555
Co0 O15 2.100632 1_446
Co0 O13 2.145712 1_545
Co0 O6 2.145751 1_456
Co1 O14 2.079210 1_455
Co1 O9 2.080648 1_555
Co1 O5 2.107571 1_555
Co1 O10 2.108298 1_455
Co1 O12 2.144764 1_555
Co1 O7 2.146286 1_455
