# generated using pymatgen
data_KAlPO5
_symmetry_space_group_name_H-M   'P 1'
_cell_length_a   6.34004900
_cell_length_b   10.23878900
_cell_length_c   12.79641100
_cell_angle_alpha   90.00000000
_cell_angle_beta   90.00000000
_cell_angle_gamma   90.00000000
_symmetry_Int_Tables_number   1
_chemical_formula_structural   KAlPO5
_chemical_formula_sum   'K8 Al8 P8 O40'
_cell_volume   830.67164883
_cell_formula_units_Z   8
loop_
 _symmetry_equiv_pos_site_id
 _symmetry_equiv_pos_as_xyz
  1  'x, y, z'
loop_
 _atom_site_type_symbol
 _atom_site_label
 _atom_site_symmetry_multiplicity
 _atom_site_fract_x
 _atom_site_fract_y
 _atom_site_fract_z
 _atom_site_occupancy
  K  K0  1  0.03726000  0.15275200  0.14463900  1
  K  K1  1  0.03726000  0.84724800  0.35536100  1
  K  K2  1  0.46274000  0.34724800  0.14463900  1
  K  K3  1  0.46274000  0.65275200  0.35536100  1
  K  K4  1  0.96274000  0.84724800  0.85536100  1
  K  K5  1  0.96274000  0.15275200  0.64463900  1
  K  K6  1  0.53726000  0.65275200  0.85536100  1
  K  K7  1  0.53726000  0.34724800  0.64463900  1
  Al  Al0  1  0.75000000  0.25000000  0.36931100  1
  Al  Al1  1  0.75000000  0.75000000  0.13068900  1
  Al  Al2  1  0.25000000  0.75000000  0.63068900  1
  Al  Al3  1  0.25000000  0.25000000  0.86931100  1
  Al  Al4  1  0.00000000  0.50000000  0.00000000  1
  Al  Al5  1  0.00000000  0.50000000  0.50000000  1
  Al  Al6  1  0.50000000  0.00000000  0.00000000  1
  Al  Al7  1  0.50000000  0.00000000  0.50000000  1
  P  P0  1  0.75000000  0.25000000  0.93092200  1
  P  P1  1  0.75000000  0.75000000  0.56907800  1
  P  P2  1  0.25000000  0.75000000  0.06907800  1
  P  P3  1  0.25000000  0.25000000  0.43092200  1
  P  P4  1  0.92902300  0.50000000  0.25000000  1
  P  P5  1  0.57097700  0.00000000  0.25000000  1
  P  P6  1  0.07097700  0.50000000  0.75000000  1
  P  P7  1  0.42902300  0.00000000  0.75000000  1
  O  O0  1  0.06543000  0.47492400  0.15171600  1
  O  O1  1  0.06543000  0.52507600  0.34828400  1
  O  O2  1  0.43457000  0.02507600  0.15171600  1
  O  O3  1  0.43457000  0.97492400  0.34828400  1
  O  O4  1  0.93457000  0.52507600  0.84828400  1
  O  O5  1  0.93457000  0.47492400  0.65171600  1
  O  O6  1  0.56543000  0.97492400  0.84828400  1
  O  O7  1  0.56543000  0.02507600  0.65171600  1
  O  O8  1  0.80680800  0.36366500  0.00698200  1
  O  O9  1  0.80680800  0.63633500  0.49301800  1
  O  O10  1  0.69319200  0.13633500  0.00698200  1
  O  O11  1  0.69319200  0.86366500  0.49301800  1
  O  O12  1  0.19319200  0.63633500  0.99301800  1
  O  O13  1  0.19319200  0.36366500  0.50698200  1
  O  O14  1  0.30680800  0.86366500  0.99301800  1
  O  O15  1  0.30680800  0.13633500  0.50698200  1
  O  O16  1  0.05831500  0.21095700  0.36348100  1
  O  O17  1  0.05831500  0.78904300  0.13651900  1
  O  O18  1  0.44168500  0.28904300  0.36348100  1
  O  O19  1  0.44168500  0.71095700  0.13651900  1
  O  O20  1  0.94168500  0.78904300  0.63651900  1
  O  O21  1  0.94168500  0.21095700  0.86348100  1
  O  O22  1  0.55831500  0.71095700  0.63651900  1
  O  O23  1  0.55831500  0.28904300  0.86348100  1
  O  O24  1  0.78360700  0.37988000  0.26779200  1
  O  O25  1  0.78360700  0.62012000  0.23220800  1
  O  O26  1  0.71639300  0.12012000  0.26779200  1
  O  O27  1  0.71639300  0.87988000  0.23220800  1
  O  O28  1  0.21639300  0.62012000  0.73220800  1
  O  O29  1  0.21639300  0.37988000  0.76779200  1
  O  O30  1  0.28360700  0.87988000  0.73220800  1
  O  O31  1  0.28360700  0.12012000  0.76779200  1
  O  O32  1  0.21199500  0.37393100  0.97445400  1
  O  O33  1  0.21199500  0.62606900  0.52554600  1
  O  O34  1  0.28800500  0.12606900  0.97445400  1
  O  O35  1  0.28800500  0.87393100  0.52554600  1
  O  O36  1  0.78800500  0.62606900  0.02554600  1
  O  O37  1  0.78800500  0.37393100  0.47445400  1
  O  O38  1  0.71199500  0.87393100  0.02554600  1
  O  O39  1  0.71199500  0.12606900  0.47445400  1
loop_
_geom_bond_atom_site_label_1
_geom_bond_atom_site_label_2
_geom_bond_distance
_geom_bond_site_symmetry_2
K0 O26 2.594912 1_455
K0 O34 2.710078 1_554
K0 O10 2.808867 1_455
K0 O2 2.839416 1_555
K0 O16 2.866212 1_555
K1 O27 2.594912 1_455
K1 O35 2.710078 1_555
K1 O11 2.808867 1_455
K1 O3 2.839416 1_555
K1 O17 2.866212 1_555
K2 O24 2.594912 1_555
K2 O32 2.710078 1_554
K2 O8 2.808867 1_555
K2 O0 2.839416 1_555
K2 O18 2.866212 1_555
K3 O25 2.594912 1_555
K3 O33 2.710078 1_555
K3 O9 2.808867 1_555
K3 O1 2.839416 1_555
K3 O19 2.866212 1_555
K4 O30 2.594912 1_655
K4 O38 2.710078 1_556
K4 O14 2.808867 1_655
K4 O6 2.839416 1_555
K4 O20 2.866212 1_555
K5 O31 2.594912 1_655
K5 O39 2.710078 1_555
K5 O15 2.808867 1_655
K5 O7 2.839416 1_555
K5 O21 2.866212 1_555
K6 O28 2.594912 1_555
K6 O36 2.710078 1_556
K6 O12 2.808867 1_555
K6 O4 2.839416 1_555
K6 O22 2.866212 1_555
K7 O29 2.594912 1_555
K7 O37 2.710078 1_555
K7 O13 2.808867 1_555
K7 O5 2.839416 1_555
K7 O23 2.866212 1_555
Al0 O37 1.865052 1_555
Al0 O39 1.865052 1_555
Al0 O24 1.871205 1_555
Al0 O26 1.871205 1_555
Al0 O18 1.996584 1_555
Al0 O16 1.996584 1_655
Al1 O36 1.865052 1_555
Al1 O38 1.865052 1_555
Al1 O25 1.871205 1_555
Al1 O27 1.871205 1_555
Al1 O17 1.996584 1_655
Al1 O19 1.996584 1_555
Al2 O35 1.865052 1_555
Al2 O33 1.865052 1_555
Al2 O28 1.871205 1_555
Al2 O30 1.871205 1_555
Al2 O20 1.996584 1_455
Al2 O22 1.996584 1_555
Al3 O32 1.865052 1_555
Al3 O34 1.865052 1_555
Al3 O31 1.871205 1_555
Al3 O29 1.871205 1_555
Al3 O23 1.996584 1_555
Al3 O21 1.996584 1_455
Al4 O12 1.859243 1_554
Al4 O8 1.859243 1_455
Al4 O36 1.891958 1_455
Al4 O32 1.891958 1_554
Al4 O0 2.001778 1_555
Al4 O4 2.001778 1_454
Al5 O9 1.859243 1_455
Al5 O13 1.859243 1_555
Al5 O33 1.891958 1_555
Al5 O37 1.891958 1_455
Al5 O1 2.001778 1_555
Al5 O5 2.001778 1_455
Al6 O10 1.859243 1_555
Al6 O14 1.859243 1_544
Al6 O38 1.891958 1_545
Al6 O34 1.891958 1_554
Al6 O2 2.001778 1_555
Al6 O6 2.001778 1_544
Al7 O15 1.859243 1_555
Al7 O11 1.859243 1_545
Al7 O39 1.891958 1_555
Al7 O35 1.891958 1_545
Al7 O7 2.001778 1_555
Al7 O3 2.001778 1_545
O0 P4 1.547776 1_455
O1 P4 1.547776 1_455
O2 P5 1.547776 1_555
O3 P5 1.547776 1_565
O4 P6 1.547776 1_655
O5 P6 1.547776 1_655
O6 P7 1.547776 1_565
O7 P7 1.547776 1_555
O8 P0 1.559306 1_554
O9 P1 1.559306 1_555
O10 P0 1.559306 1_554
O11 P1 1.559306 1_555
O12 P2 1.559306 1_556
O13 P3 1.559306 1_555
O14 P2 1.559306 1_556
O15 P3 1.559306 1_555
O16 P3 1.543215 1_555
O17 P2 1.543215 1_555
O18 P3 1.543215 1_555
O19 P2 1.543215 1_555
O20 P1 1.543215 1_555
O21 P0 1.543215 1_555
O22 P1 1.543215 1_555
O23 P0 1.543215 1_555
O24 P4 1.553844 1_555
O25 P4 1.553844 1_555
O26 P5 1.553844 1_555
O27 P5 1.553844 1_565
O28 P6 1.553844 1_555
O29 P6 1.553844 1_555
O30 P7 1.553844 1_565
O31 P7 1.553844 1_555
