# generated using pymatgen
data_CeSiAg
_symmetry_space_group_name_H-M   'P 1'
_cell_length_a   4.06683500
_cell_length_b   4.38411847
_cell_length_c   4.38398292
_cell_angle_alpha   120.00197230
_cell_angle_beta   90.00000000
_cell_angle_gamma   90.00000000
_symmetry_Int_Tables_number   1
_chemical_formula_structural   CeSiAg
_chemical_formula_sum   'Ce1 Si1 Ag1'
_cell_volume   67.69080631
_cell_formula_units_Z   1
loop_
 _symmetry_equiv_pos_site_id
 _symmetry_equiv_pos_as_xyz
  1  'x, y, z'
loop_
 _atom_site_type_symbol
 _atom_site_label
 _atom_site_symmetry_multiplicity
 _atom_site_fract_x
 _atom_site_fract_y
 _atom_site_fract_z
 _atom_site_occupancy
  Ce  Ce0  1  0.00000000  0.99995800  0.99997900  1
  Si  Si0  1  0.50000000  0.66664900  0.33334700  1
  Ag  Ag0  1  0.50000000  0.33329300  0.66667400  1
loop_
_geom_bond_atom_site_label_1
_geom_bond_atom_site_label_2
_geom_bond_distance
_geom_bond_site_symmetry_2
Ce0 Si0 3.246583 1_555
Ce0 Si0 3.246583 1_455
Ce0 Si0 3.246806 1_456
Ce0 Si0 3.246806 1_556
Ce0 Si0 3.246819 1_566
Ce0 Si0 3.246819 1_466
Ag0 Si0 2.531036 1_545
Ag0 Si0 2.531067 1_556
Ag0 Si0 2.531220 1_555
Ag0 Ce0 3.246696 1_545
Ag0 Ce0 3.246696 1_645
Ag0 Ce0 3.246742 1_555
Ag0 Ce0 3.246742 1_655
Ag0 Ce0 3.246769 1_544
Ag0 Ce0 3.246769 1_644
