# generated using pymatgen
data_LiGaSiO4
_symmetry_space_group_name_H-M   'P 1'
_cell_length_a   8.55317445
_cell_length_b   8.55317445
_cell_length_c   8.55317516
_cell_angle_alpha   107.88318982
_cell_angle_beta   107.88318982
_cell_angle_gamma   107.88318693
_symmetry_Int_Tables_number   1
_chemical_formula_structural   LiGaSiO4
_chemical_formula_sum   'Li6 Ga6 Si6 O24'
_cell_volume   508.03061522
_cell_formula_units_Z   6
loop_
 _symmetry_equiv_pos_site_id
 _symmetry_equiv_pos_as_xyz
  1  'x, y, z'
loop_
 _atom_site_type_symbol
 _atom_site_label
 _atom_site_symmetry_multiplicity
 _atom_site_fract_x
 _atom_site_fract_y
 _atom_site_fract_z
 _atom_site_occupancy
  Li  Li0  1  0.78958400  0.56640600  0.39120100  1
  Li  Li1  1  0.27630900  0.87387700  0.10646300  1
  Li  Li2  1  0.87387700  0.10646300  0.27630900  1
  Li  Li3  1  0.10646300  0.27630900  0.87387700  1
  Li  Li4  1  0.56640600  0.39120100  0.78958400  1
  Li  Li5  1  0.39120100  0.78958400  0.56640600  1
  Ga  Ga0  1  0.76218700  0.94691300  0.54227100  1
  Ga  Ga1  1  0.94691300  0.54227100  0.76218700  1
  Ga  Ga2  1  0.54227100  0.76218700  0.94691300  1
  Ga  Ga3  1  0.23058000  0.05534800  0.46536300  1
  Ga  Ga4  1  0.05534800  0.46536300  0.23058000  1
  Ga  Ga5  1  0.46536300  0.23058000  0.05534800  1
  Si  Si0  1  0.71849500  0.12416100  0.90539700  1
  Si  Si1  1  0.12416100  0.90539700  0.71849500  1
  Si  Si2  1  0.90539700  0.71849500  0.12416100  1
  Si  Si3  1  0.43341300  0.61202300  0.20419900  1
  Si  Si4  1  0.61202300  0.20419900  0.43341300  1
  Si  Si5  1  0.20419900  0.43341300  0.61202300  1
  O  O0  1  0.29525700  0.62079900  0.30151100  1
  O  O1  1  0.64288400  0.70270300  0.36955000  1
  O  O2  1  0.36955000  0.64288400  0.70270300  1
  O  O3  1  0.99684700  0.93773200  0.26895300  1
  O  O4  1  0.93773200  0.26895300  0.99684700  1
  O  O5  1  0.26895300  0.99684700  0.93773200  1
  O  O6  1  0.00612300  0.02342300  0.68926700  1
  O  O7  1  0.02342300  0.68926700  0.00612300  1
  O  O8  1  0.68926700  0.00612300  0.02342300  1
  O  O9  1  0.70270300  0.36955000  0.64288400  1
  O  O10  1  0.30151100  0.29525700  0.62079900  1
  O  O11  1  0.62079900  0.30151100  0.29525700  1
  O  O12  1  0.39831400  0.06334400  0.36778100  1
  O  O13  1  0.36778100  0.39831400  0.06334400  1
  O  O14  1  0.06334400  0.36778100  0.39831400  1
  O  O15  1  0.64666200  0.97994100  0.69263300  1
  O  O16  1  0.69263300  0.64666200  0.97994100  1
  O  O17  1  0.97994100  0.69263300  0.64666200  1
  O  O18  1  0.91778800  0.59599000  0.23942300  1
  O  O19  1  0.23942300  0.91778800  0.59599000  1
  O  O20  1  0.59599000  0.23942300  0.91778800  1
  O  O21  1  0.09018500  0.42147900  0.73561900  1
  O  O22  1  0.73561900  0.09018500  0.42147900  1
  O  O23  1  0.42147900  0.73561900  0.09018500  1
loop_
_geom_bond_atom_site_label_1
_geom_bond_atom_site_label_2
_geom_bond_distance
_geom_bond_site_symmetry_2
Li0 O1 1.963658 1_555
Li0 O18 1.964009 1_555
Li0 O17 1.969138 1_555
Li0 O11 2.003152 1_555
Li1 O7 1.959180 1_555
Li1 O23 1.966306 1_555
Li1 O12 2.003804 1_565
Li1 O5 2.027340 1_554
Li2 O8 1.959180 1_555
Li2 O22 1.966306 1_555
Li2 O14 2.003804 1_655
Li2 O3 2.027340 1_545
Li3 O6 1.959180 1_555
Li3 O21 1.966306 1_555
Li3 O13 2.003804 1_556
Li3 O4 2.027340 1_455
Li4 O9 1.963658 1_555
Li4 O20 1.964009 1_555
Li4 O16 1.969138 1_555
Li4 O10 2.003152 1_555
Li5 O2 1.963658 1_555
Li5 O19 1.964009 1_555
Li5 O15 1.969138 1_555
Li5 O0 2.003152 1_555
Ga0 O6 1.845876 1_665
Ga0 O22 1.850708 1_565
Ga0 O15 1.854426 1_555
Ga0 O1 1.859216 1_555
Ga1 O7 1.845876 1_656
Ga1 O21 1.850707 1_655
Ga1 O17 1.854426 1_555
Ga1 O9 1.859216 1_555
Ga2 O8 1.845876 1_566
Ga2 O23 1.850708 1_556
Ga2 O16 1.854426 1_555
Ga2 O2 1.859216 1_555
Ga3 O10 1.846842 1_555
Ga3 O19 1.857000 1_545
Ga3 O12 1.862723 1_555
Ga3 O3 1.869531 1_445
Ga4 O0 1.846842 1_555
Ga4 O18 1.857000 1_455
Ga4 O14 1.862723 1_555
Ga4 O4 1.869531 1_454
Ga5 O11 1.846842 1_555
Ga5 O20 1.857000 1_554
Ga5 O13 1.862723 1_555
Ga5 O5 1.869531 1_544
O0 Si3 1.647696 1_555
O1 Si3 1.651792 1_555
O2 Si5 1.651792 1_555
O3 Si2 1.655246 1_555
O4 Si0 1.655246 1_555
O5 Si1 1.655246 1_555
O6 Si1 1.651301 1_545
O7 Si2 1.651301 1_455
O8 Si0 1.651301 1_554
O9 Si4 1.651792 1_555
O10 Si5 1.647695 1_555
O11 Si4 1.647696 1_555
O12 Si4 1.646128 1_555
O13 Si3 1.646128 1_555
O14 Si5 1.646128 1_555
O15 Si0 1.637073 1_565
O16 Si2 1.637073 1_556
O17 Si1 1.637073 1_655
O18 Si2 1.649087 1_555
O19 Si1 1.649087 1_555
O20 Si0 1.649087 1_555
O21 Si5 1.648396 1_555
O22 Si4 1.648396 1_555
O23 Si3 1.648396 1_555
