# generated using pymatgen
data_P2O3F4
_symmetry_space_group_name_H-M   'P 1'
_cell_length_a   6.35724014
_cell_length_b   6.41004513
_cell_length_c   12.18704593
_cell_angle_alpha   90.00000000
_cell_angle_beta   90.00000000
_cell_angle_gamma   90.00000000
_symmetry_Int_Tables_number   1
_chemical_formula_structural   P2O3F4
_chemical_formula_sum   'P8 O12 F16'
_cell_volume   496.62451274
_cell_formula_units_Z   4
loop_
 _symmetry_equiv_pos_site_id
 _symmetry_equiv_pos_as_xyz
  1  'x, y, z'
loop_
 _atom_site_type_symbol
 _atom_site_label
 _atom_site_symmetry_multiplicity
 _atom_site_fract_x
 _atom_site_fract_y
 _atom_site_fract_z
 _atom_site_occupancy
  P  P0  1  0.12137283  0.30990358  0.89860948  1
  P  P1  1  0.12137283  0.69009642  0.60139052  1
  P  P2  1  0.37862717  0.69009642  0.39860948  1
  P  P3  1  0.37862717  0.30990358  0.10139052  1
  P  P4  1  0.87862717  0.69009642  0.10139052  1
  P  P5  1  0.87862717  0.30990358  0.39860948  1
  P  P6  1  0.62137283  0.30990358  0.60139052  1
  P  P7  1  0.62137283  0.69009642  0.89860948  1
  O  O0  1  0.07973580  0.52995301  0.88751987  1
  O  O1  1  0.07973580  0.47004699  0.61248013  1
  O  O2  1  0.42026420  0.47004699  0.38751987  1
  O  O3  1  0.42026420  0.52995301  0.11248013  1
  O  O4  1  0.92026420  0.47004699  0.11248013  1
  O  O5  1  0.92026420  0.52995301  0.38751987  1
  O  O6  1  0.57973580  0.52995301  0.61248013  1
  O  O7  1  0.57973580  0.47004699  0.88751987  1
  O  O8  1  0.25000000  0.22908268  0.00000000  1
  O  O9  1  0.25000000  0.77091732  0.50000000  1
  O  O10  1  0.75000000  0.77091732  0.00000000  1
  O  O11  1  0.75000000  0.22908268  0.50000000  1
  F  F0  1  0.92943360  0.16668295  0.90616610  1
  F  F1  1  0.92943360  0.83331705  0.59383390  1
  F  F2  1  0.57056640  0.83331705  0.40616610  1
  F  F3  1  0.57056640  0.16668295  0.09383390  1
  F  F4  1  0.07056640  0.83331705  0.09383390  1
  F  F5  1  0.07056640  0.16668295  0.40616610  1
  F  F6  1  0.42943360  0.16668295  0.59383390  1
  F  F7  1  0.42943360  0.83331705  0.90616610  1
  F  F8  1  0.23941886  0.20708557  0.80371825  1
  F  F9  1  0.23941886  0.79291443  0.69628175  1
  F  F10  1  0.26058114  0.79291443  0.30371825  1
  F  F11  1  0.26058114  0.20708557  0.19628175  1
  F  F12  1  0.76058114  0.79291443  0.19628175  1
  F  F13  1  0.76058114  0.20708557  0.30371825  1
  F  F14  1  0.73941886  0.20708557  0.69628175  1
  F  F15  1  0.73941886  0.79291443  0.80371825  1
loop_
_geom_bond_atom_site_label_1
_geom_bond_atom_site_label_2
_geom_bond_distance
_geom_bond_site_symmetry_2
O0 P0 1.441498 1_555
O1 P1 1.441498 1_555
O2 P2 1.441498 1_555
O3 P3 1.441498 1_555
O4 P4 1.441498 1_555
O5 P5 1.441498 1_555
O6 P6 1.441498 1_555
O7 P7 1.441498 1_555
O8 P0 1.569675 1_554
O8 P3 1.569675 1_555
O9 P2 1.569675 1_555
O9 P1 1.569675 1_555
O10 P7 1.569675 1_554
O10 P4 1.569675 1_555
O11 P5 1.569675 1_555
O11 P6 1.569675 1_555
F0 P0 1.529770 1_655
F1 P1 1.529770 1_655
F2 P2 1.529770 1_555
F3 P3 1.529770 1_555
F4 P4 1.529770 1_455
F5 P5 1.529770 1_455
F6 P6 1.529770 1_555
F7 P7 1.529770 1_555
F8 P0 1.528039 1_555
F9 P1 1.528039 1_555
F10 P2 1.528039 1_555
F11 P3 1.528039 1_555
F12 P4 1.528039 1_555
F13 P5 1.528039 1_555
F14 P6 1.528039 1_555
F15 P7 1.528039 1_555
