# generated using pymatgen
data_Nd4CoSi4(C2O11)2
_symmetry_space_group_name_H-M   'P 1'
_cell_length_a   5.74421000
_cell_length_b   11.76307700
_cell_length_c   14.74215570
_cell_angle_alpha   75.58930233
_cell_angle_beta   90.00000000
_cell_angle_gamma   90.00000000
_symmetry_Int_Tables_number   1
_chemical_formula_structural   Nd4CoSi4(C2O11)2
_chemical_formula_sum   'Nd8 Co2 Si8 C8 O44'
_cell_volume   964.78008268
_cell_formula_units_Z   2
loop_
 _symmetry_equiv_pos_site_id
 _symmetry_equiv_pos_as_xyz
  1  'x, y, z'
loop_
 _atom_site_type_symbol
 _atom_site_label
 _atom_site_symmetry_multiplicity
 _atom_site_fract_x
 _atom_site_fract_y
 _atom_site_fract_z
 _atom_site_occupancy
  Nd  Nd0  1  0.96636600  0.71109400  0.91259400  1
  Nd  Nd1  1  0.03363400  0.28890600  0.08740600  1
  Nd  Nd2  1  0.46636600  0.28890600  0.58740600  1
  Nd  Nd3  1  0.53363400  0.71109400  0.41259400  1
  Nd  Nd4  1  0.05443000  0.70648000  0.66996000  1
  Nd  Nd5  1  0.94557000  0.29352000  0.33004000  1
  Nd  Nd6  1  0.55443000  0.29352000  0.83004000  1
  Nd  Nd7  1  0.44557000  0.70648000  0.16996000  1
  Co  Co0  1  0.50000000  0.50000000  0.00000000  1
  Co  Co1  1  0.00000000  0.50000000  0.50000000  1
  Si  Si0  1  0.02929200  0.43010600  0.86576800  1
  Si  Si1  1  0.97070800  0.56989400  0.13423200  1
  Si  Si2  1  0.52929200  0.56989400  0.63423200  1
  Si  Si3  1  0.47070800  0.43010600  0.36576800  1
  Si  Si4  1  0.51534800  0.71468200  0.79391000  1
  Si  Si5  1  0.48465200  0.28531800  0.20609000  1
  Si  Si6  1  0.01534800  0.28531800  0.70609000  1
  Si  Si7  1  0.98465200  0.71468200  0.29391000  1
  C  C0  1  0.50000000  0.00000000  0.50000000  1
  C  C1  1  0.00000000  0.00000000  0.00000000  1
  C  C2  1  0.25117900  0.98025700  0.83196600  1
  C  C3  1  0.74882100  0.01974300  0.16803400  1
  C  C4  1  0.75117900  0.01974300  0.66803400  1
  C  C5  1  0.24882100  0.98025700  0.33196600  1
  C  C6  1  0.50000000  0.00000000  0.00000000  1
  C  C7  1  0.00000000  0.00000000  0.50000000  1
  O  O0  1  0.44941900  0.62477600  0.72405900  1
  O  O1  1  0.55058100  0.37522400  0.27594100  1
  O  O2  1  0.94941900  0.37522400  0.77594100  1
  O  O3  1  0.05058100  0.62477600  0.22405900  1
  O  O4  1  0.49901200  0.89463700  0.52308200  1
  O  O5  1  0.50098800  0.10536300  0.47691800  1
  O  O6  1  0.99901200  0.10536300  0.97691800  1
  O  O7  1  0.00098800  0.89463700  0.02308200  1
  O  O8  1  0.32683800  0.62230000  0.55521600  1
  O  O9  1  0.67316200  0.37770000  0.44478400  1
  O  O10  1  0.82683800  0.37770000  0.94478400  1
  O  O11  1  0.17316200  0.62230000  0.05521600  1
  O  O12  1  0.04739500  0.96769000  0.83999500  1
  O  O13  1  0.95260500  0.03231000  0.16000500  1
  O  O14  1  0.54739500  0.03231000  0.66000500  1
  O  O15  1  0.45260500  0.96769000  0.33999500  1
  O  O16  1  0.26585300  0.78417000  0.78861300  1
  O  O17  1  0.73414700  0.21583000  0.21138700  1
  O  O18  1  0.76585300  0.21583000  0.71138700  1
  O  O19  1  0.23414700  0.78417000  0.28861300  1
  O  O20  1  0.95340200  0.00792500  0.66782700  1
  O  O21  1  0.04659800  0.99207500  0.33217300  1
  O  O22  1  0.45340200  0.99207500  0.83217300  1
  O  O23  1  0.54659800  0.00792500  0.16782700  1
  O  O24  1  0.08243200  0.34774800  0.59757200  1
  O  O25  1  0.91756800  0.65225200  0.40242800  1
  O  O26  1  0.58243200  0.65225200  0.90242800  1
  O  O27  1  0.41756800  0.34774800  0.09757200  1
  O  O28  1  0.00039700  0.89354500  0.52554200  1
  O  O29  1  0.99960300  0.10645500  0.47445800  1
  O  O30  1  0.50039700  0.10645500  0.97445800  1
  O  O31  1  0.49960300  0.89354500  0.02554200  1
  O  O32  1  0.27937400  0.37718100  0.90769100  1
  O  O33  1  0.72062600  0.62281900  0.09230900  1
  O  O34  1  0.77937400  0.62281900  0.59230900  1
  O  O35  1  0.22062600  0.37718100  0.40769100  1
  O  O36  1  0.75764400  0.78205900  0.75257000  1
  O  O37  1  0.24235600  0.21794100  0.24743000  1
  O  O38  1  0.25764400  0.21794100  0.74743000  1
  O  O39  1  0.74235600  0.78205900  0.25257000  1
  O  O40  1  0.52219600  0.42776000  0.67330100  1
  O  O41  1  0.47780400  0.57224000  0.32669900  1
  O  O42  1  0.02219600  0.57224000  0.82669900  1
  O  O43  1  0.97780400  0.42776000  0.17330100  1
loop_
_geom_bond_atom_site_label_1
_geom_bond_atom_site_label_2
_geom_bond_distance
_geom_bond_site_symmetry_2
Nd0 O42 2.324566 1_655
Nd0 O26 2.327437 1_555
Nd0 O11 2.414471 1_656
Nd0 O16 2.501408 1_655
Nd0 O36 2.592189 1_555
Nd0 O33 2.953088 1_556
Nd0 O12 2.977360 1_655
Nd0 O7 3.017360 1_656
Nd1 O43 2.324566 1_455
Nd1 O27 2.327437 1_555
Nd1 O10 2.414471 1_454
Nd1 O17 2.501408 1_455
Nd1 O37 2.592189 1_555
Nd1 O32 2.953088 1_554
Nd1 O13 2.977360 1_455
Nd1 O6 3.017360 1_454
Nd2 O40 2.324566 1_555
Nd2 O24 2.327437 1_555
Nd2 O9 2.414471 1_555
Nd2 O18 2.501408 1_555
Nd2 O38 2.592189 1_555
Nd2 O35 2.953088 1_555
Nd2 O14 2.977360 1_555
Nd2 O5 3.017360 1_555
Nd3 O41 2.324566 1_555
Nd3 O25 2.327437 1_555
Nd3 O8 2.414471 1_555
Nd3 O19 2.501408 1_555
Nd3 O39 2.592189 1_555
Nd3 O34 2.953088 1_555
Nd3 O15 2.977360 1_555
Nd3 O4 3.017360 1_555
Nd4 O34 2.309974 1_455
Nd4 O36 2.391404 1_455
Nd4 O42 2.459846 1_555
Nd4 O16 2.483031 1_555
Nd4 O0 2.515183 1_555
Nd4 O8 2.669116 1_555
Nd4 O28 2.671946 1_555
Nd5 O35 2.309974 1_655
Nd5 O37 2.391404 1_655
Nd5 O43 2.459846 1_555
Nd5 O17 2.483031 1_555
Nd5 O1 2.515183 1_555
Nd5 O9 2.669116 1_555
Nd5 O29 2.671946 1_555
Nd6 O32 2.309974 1_555
Nd6 O38 2.391404 1_555
Nd6 O40 2.459846 1_555
Nd6 O18 2.483031 1_555
Nd6 O2 2.515183 1_555
Nd6 O10 2.669116 1_555
Nd6 O30 2.671946 1_555
Nd7 O33 2.309974 1_555
Nd7 O39 2.391404 1_555
Nd7 O41 2.459846 1_555
Nd7 O19 2.483031 1_555
Nd7 O3 2.515183 1_555
Nd7 O11 2.669116 1_555
Nd7 O31 2.671946 1_555
Co0 O26 2.053904 1_554
Co0 O27 2.053904 1_555
Co0 O32 2.554172 1_554
Co0 O33 2.554172 1_555
Co0 O11 2.615310 1_555
Co0 O10 2.615310 1_554
Co1 O24 2.053904 1_555
Co1 O25 2.053904 1_455
Co1 O35 2.554172 1_555
Co1 O34 2.554172 1_455
Co1 O8 2.615310 1_555
Co1 O9 2.615310 1_455
C0 O4 1.200833 1_545
C0 O5 1.200833 1_555
C1 O7 1.200833 1_545
C1 O6 1.200833 1_454
C2 O22 1.169994 1_555
C2 O12 1.182120 1_555
C3 O23 1.169994 1_555
C3 O13 1.182120 1_555
C4 O20 1.169994 1_555
C4 O14 1.182120 1_555
C5 O21 1.169994 1_555
C5 O15 1.182120 1_555
C6 O31 1.214576 1_545
C6 O30 1.214576 1_554
C7 O28 1.214576 1_545
C7 O29 1.214576 1_455
O0 Si2 1.675238 1_555
O0 Si4 1.692434 1_555
O1 Si3 1.675238 1_555
O1 Si5 1.692434 1_555
O2 Si0 1.675238 1_655
O2 Si6 1.692434 1_655
O3 Si1 1.675238 1_455
O3 Si7 1.692434 1_455
O8 Si2 1.652856 1_555
O9 Si3 1.652856 1_555
O10 Si0 1.652856 1_655
O11 Si1 1.652856 1_455
O16 Si4 1.642066 1_555
O17 Si5 1.642066 1_555
O18 Si6 1.642066 1_655
O19 Si7 1.642066 1_455
O24 Si6 1.631671 1_555
O25 Si7 1.631671 1_555
O26 Si4 1.631671 1_555
O27 Si5 1.631671 1_555
O32 Si0 1.625311 1_555
O33 Si1 1.625311 1_555
O34 Si2 1.625311 1_555
O35 Si3 1.625311 1_555
O36 Si4 1.642028 1_555
O37 Si5 1.642028 1_555
O38 Si6 1.642028 1_555
O39 Si7 1.642028 1_555
O40 Si2 1.627711 1_555
O41 Si3 1.627711 1_555
O42 Si0 1.627711 1_555
O43 Si1 1.627711 1_555
