# generated using pymatgen
data_Ba4Ir3O10
_symmetry_space_group_name_H-M   'P 1'
_cell_length_a   13.19379536
_cell_length_b   5.81274429
_cell_length_c   7.31757034
_cell_angle_alpha   67.36997626
_cell_angle_beta   90.00000000
_cell_angle_gamma   90.00000000
_symmetry_Int_Tables_number   1
_chemical_formula_structural   Ba4Ir3O10
_chemical_formula_sum   'Ba8 Ir6 O20'
_cell_volume   517.99273588
_cell_formula_units_Z   2
loop_
 _symmetry_equiv_pos_site_id
 _symmetry_equiv_pos_as_xyz
  1  'x, y, z'
loop_
 _atom_site_type_symbol
 _atom_site_label
 _atom_site_symmetry_multiplicity
 _atom_site_fract_x
 _atom_site_fract_y
 _atom_site_fract_z
 _atom_site_occupancy
  Ba  Ba0  1  0.63717301  0.03515191  0.91681377  1
  Ba  Ba1  1  0.13717301  0.46484809  0.08318623  1
  Ba  Ba2  1  0.36282699  0.96484809  0.08318623  1
  Ba  Ba3  1  0.86282699  0.53515191  0.91681377  1
  Ba  Ba4  1  0.61153003  0.73903217  0.51542581  1
  Ba  Ba5  1  0.11153003  0.76096783  0.48457419  1
  Ba  Ba6  1  0.88846997  0.23903217  0.51542581  1
  Ba  Ba7  1  0.38846997  0.26096783  0.48457419  1
  Ir  Ir0  1  -0.00000000  -0.00000000  0.00000000  1
  Ir  Ir1  1  0.50000000  0.50000000  0.00000000  1
  Ir  Ir2  1  0.84997531  0.86935369  0.24039845  1
  Ir  Ir3  1  0.34997531  0.63064631  0.75960155  1
  Ir  Ir4  1  0.15002469  0.13064631  0.75960155  1
  Ir  Ir5  1  0.65002469  0.36935369  0.24039845  1
  O  O0  1  0.27239788  0.92685993  0.76743286  1
  O  O1  1  0.77239788  0.57314007  0.23256714  1
  O  O2  1  0.72760212  0.07314007  0.23256714  1
  O  O3  1  0.22760212  0.42685993  0.76743286  1
  O  O4  1  0.34887906  0.76882107  0.47032504  1
  O  O5  1  0.84887906  0.73117893  0.52967496  1
  O  O6  1  0.65112094  0.23117893  0.52967496  1
  O  O7  1  0.15112094  0.26882107  0.47032504  1
  O  O8  1  0.45930296  0.36595432  0.78824016  1
  O  O9  1  0.95930296  0.13404568  0.21175984  1
  O  O10  1  0.54069704  0.63404568  0.21175984  1
  O  O11  1  0.04069704  0.86595432  0.78824016  1
  O  O12  1  0.47399107  0.83946761  0.77675505  1
  O  O13  1  0.97399107  0.66053239  0.22324495  1
  O  O14  1  0.15082683  0.97499816  0.07489006  1
  O  O15  1  0.65082683  0.52500184  0.92510994  1
  O  O16  1  0.84917317  0.02500184  0.92510994  1
  O  O17  1  0.34917317  0.47499816  0.07489006  1
  O  O18  1  0.02600893  0.33946761  0.77675505  1
  O  O19  1  0.52600893  0.16053239  0.22324495  1
loop_
_geom_bond_atom_site_label_1
_geom_bond_atom_site_label_2
_geom_bond_distance
_geom_bond_site_symmetry_2
Ba0 O6 2.621739 1_555
Ba0 O2 2.683937 1_556
Ba0 O16 2.797875 1_555
Ba0 O10 2.800351 1_546
Ba0 O12 2.806548 1_545
Ba0 O15 2.876924 1_555
Ba0 O15 2.948056 1_545
Ba0 O8 2.949199 1_555
Ba0 O19 2.994658 1_556
Ba0 O1 3.310404 1_546
Ba1 O7 2.621739 1_555
Ba1 O3 2.683937 1_554
Ba1 O17 2.797875 1_555
Ba1 O11 2.800351 1_554
Ba1 O13 2.806548 1_455
Ba1 O14 2.876924 1_545
Ba1 O14 2.948056 1_555
Ba1 O9 2.949199 1_455
Ba1 O18 2.994658 1_554
Ba1 O0 3.310404 1_554
Ba2 O4 2.621739 1_555
Ba2 O0 2.683937 1_554
Ba2 O14 2.797875 1_555
Ba2 O8 2.800351 1_564
Ba2 O19 2.806548 1_565
Ba2 O17 2.876924 1_555
Ba2 O17 2.948056 1_565
Ba2 O10 2.949199 1_555
Ba2 O12 2.994658 1_554
Ba2 O3 3.310404 1_564
Ba3 O5 2.621739 1_555
Ba3 O1 2.683937 1_556
Ba3 O15 2.797875 1_555
Ba3 O9 2.800351 1_556
Ba3 O18 2.806548 1_655
Ba3 O16 2.876924 1_565
Ba3 O16 2.948056 1_555
Ba3 O11 2.949199 1_655
Ba3 O13 2.994658 1_556
Ba3 O2 3.310404 1_556
Ba4 O10 2.688325 1_555
Ba4 O2 2.703282 1_565
Ba4 O19 2.795721 1_565
Ba4 O15 2.816692 1_555
Ba4 O12 2.854792 1_555
Ba4 O6 2.949070 1_565
Ba4 O6 2.959946 1_555
Ba4 O8 3.064388 1_555
Ba4 O5 3.133018 1_555
Ba5 O11 2.688325 1_555
Ba5 O3 2.703282 1_555
Ba5 O18 2.795721 1_555
Ba5 O14 2.816692 1_555
Ba5 O13 2.854792 1_455
Ba5 O7 2.949070 1_555
Ba5 O7 2.959946 1_565
Ba5 O9 3.064388 1_465
Ba5 O4 3.133018 1_555
Ba6 O9 2.688325 1_555
Ba6 O1 2.703282 1_555
Ba6 O13 2.795721 1_555
Ba6 O16 2.816692 1_555
Ba6 O18 2.854792 1_655
Ba6 O5 2.949070 1_555
Ba6 O5 2.959946 1_545
Ba6 O11 3.064388 1_645
Ba6 O6 3.133018 1_555
Ba7 O8 2.688325 1_555
Ba7 O0 2.703282 1_545
Ba7 O12 2.795721 1_545
Ba7 O17 2.816692 1_555
Ba7 O19 2.854792 1_555
Ba7 O4 2.949070 1_545
Ba7 O4 2.959946 1_555
Ba7 O10 3.064388 1_555
Ba7 O7 3.133018 1_555
Ir0 O13 2.049253 1_445
Ir0 O18 2.049253 1_554
Ir0 O16 2.054304 1_454
Ir0 O14 2.054304 1_545
Ir0 O11 2.055659 1_544
Ir0 O9 2.055659 1_455
Ir1 O12 2.049253 1_554
Ir1 O19 2.049253 1_555
Ir1 O15 2.054304 1_554
Ir1 O17 2.054304 1_555
Ir1 O8 2.055659 1_554
Ir1 O10 2.055659 1_555
Ir2 O5 1.953912 1_555
Ir2 O2 1.990238 1_565
Ir2 O1 2.022745 1_555
Ir2 O9 2.060021 1_565
Ir2 O13 2.069699 1_555
Ir2 O16 2.129610 1_564
Ir3 O4 1.953912 1_555
Ir3 O3 1.990238 1_555
Ir3 O0 2.022745 1_555
Ir3 O8 2.060021 1_555
Ir3 O12 2.069699 1_555
Ir3 O17 2.129610 1_556
Ir4 O7 1.953912 1_555
Ir4 O0 1.990238 1_545
Ir4 O3 2.022745 1_555
Ir4 O11 2.060021 1_545
Ir4 O18 2.069699 1_555
Ir4 O14 2.129610 1_546
Ir5 O6 1.953912 1_555
Ir5 O1 1.990238 1_555
Ir5 O2 2.022745 1_555
Ir5 O10 2.060021 1_555
Ir5 O19 2.069699 1_555
Ir5 O15 2.129610 1_554
