# generated using pymatgen
data_Li3Co4SnO8
_symmetry_space_group_name_H-M   'P 1'
_cell_length_a   6.08097080
_cell_length_b   8.51579470
_cell_length_c   6.10560004
_cell_angle_alpha   90.59710700
_cell_angle_beta   89.97973504
_cell_angle_gamma   90.08344038
_symmetry_Int_Tables_number   1
_chemical_formula_structural   Li3Co4SnO8
_chemical_formula_sum   'Li6 Co8 Sn2 O16'
_cell_volume   316.15669530
_cell_formula_units_Z   2
loop_
 _symmetry_equiv_pos_site_id
 _symmetry_equiv_pos_as_xyz
  1  'x, y, z'
loop_
 _atom_site_type_symbol
 _atom_site_label
 _atom_site_symmetry_multiplicity
 _atom_site_fract_x
 _atom_site_fract_y
 _atom_site_fract_z
 _atom_site_occupancy
  Li  Li0  1  0.50005300  0.50000700  0.00005700  1
  Li  Li1  1  0.99992800  0.99999200  0.50000000  1
  Li  Li2  1  0.25063200  0.24971000  0.24839400  1
  Li  Li3  1  0.74935400  0.75028600  0.75159200  1
  Li  Li4  1  0.25078800  0.75064600  0.75042500  1
  Li  Li5  1  0.74926100  0.24935800  0.24953000  1
  Co  Co0  1  0.00008400  0.99998500  0.99998500  1
  Co  Co1  1  0.49992700  0.49999500  0.50003000  1
  Co  Co2  1  0.25028400  0.24989400  0.75031500  1
  Co  Co3  1  0.74968200  0.75010200  0.24970200  1
  Co  Co4  1  0.74962100  0.25101900  0.74993300  1
  Co  Co5  1  0.25037600  0.74900100  0.25002500  1
  Co  Co6  1  0.50000700  0.99998100  0.49997700  1
  Co  Co7  1  0.99999500  0.49998800  0.00003500  1
  Sn  Sn0  1  0.99989200  0.49999400  0.50004200  1
  Sn  Sn1  1  0.50014500  0.00004500  0.99995000  1
  O  O0  1  0.49626100  0.75577000  0.00813500  1
  O  O1  1  0.99644800  0.25658100  0.50817700  1
  O  O2  1  0.00345400  0.74343100  0.49180600  1
  O  O3  1  0.50381100  0.24427600  0.99186300  1
  O  O4  1  0.51949200  0.24797000  0.52492100  1
  O  O5  1  0.01780800  0.75008300  0.02465800  1
  O  O6  1  0.98221200  0.24989900  0.97530700  1
  O  O7  1  0.48042500  0.75199500  0.47511400  1
  O  O8  1  0.74424700  0.00175400  0.75574400  1
  O  O9  1  0.24363200  0.50129100  0.25414100  1
  O  O10  1  0.25696400  0.00079300  0.75740900  1
  O  O11  1  0.75422200  0.50067400  0.25920300  1
  O  O12  1  0.24564400  0.49929500  0.74083300  1
  O  O13  1  0.74317100  0.99923400  0.24260000  1
  O  O14  1  0.75625500  0.49871500  0.74594200  1
  O  O15  1  0.25592600  0.99823700  0.24415600  1
loop_
_geom_bond_atom_site_label_1
_geom_bond_atom_site_label_2
_geom_bond_distance
_geom_bond_site_symmetry_2
Li0 O3 2.177959 1_554
Li0 O0 2.178225 1_555
Li0 O14 2.198309 1_554
Li0 O9 2.199120 1_555
Li0 O11 2.212216 1_555
Li0 O12 2.213575 1_554
Li1 O2 2.185008 1_655
Li1 O1 2.185242 1_565
Li1 O8 2.203099 1_565
Li1 O15 2.204892 1_655
Li1 O13 2.215663 1_555
Li1 O10 2.216896 1_665
Li2 O15 2.141668 1_545
Li2 O9 2.142818 1_555
Li2 O3 2.196051 1_554
Li2 O1 2.214718 1_455
Li2 O6 2.333738 1_454
Li2 O4 2.350815 1_555
Li3 O8 2.141606 1_565
Li3 O14 2.142717 1_555
Li3 O0 2.195743 1_556
Li3 O2 2.214372 1_655
Li3 O5 2.333792 1_656
Li3 O7 2.350888 1_555
Li4 O10 2.130460 1_565
Li4 O12 2.140828 1_555
Li4 O0 2.169323 1_556
Li4 O2 2.181419 1_555
Li4 O7 2.185031 1_555
Li4 O5 2.192973 1_556
Li5 O13 2.130252 1_545
Li5 O11 2.140524 1_555
Li5 O3 2.169032 1_554
Li5 O1 2.180928 1_555
Li5 O4 2.185923 1_555
Li5 O6 2.192810 1_554
Co0 O5 2.137882 1_556
Co0 O6 2.138034 1_465
Co0 O10 2.152268 1_565
Co0 O13 2.152573 1_456
Co0 O15 2.155301 1_556
Co0 O8 2.155577 1_465
Co1 O12 2.133357 1_555
Co1 O11 2.133510 1_555
Co1 O7 2.156385 1_555
Co1 O4 2.156606 1_555
Co1 O9 2.164501 1_555
Co1 O14 2.164741 1_555
Co2 O10 2.122634 1_555
Co2 O12 2.125468 1_555
Co2 O6 2.131396 1_455
Co2 O3 2.134810 1_555
Co2 O4 2.138232 1_555
Co2 O1 2.138956 1_455
Co3 O13 2.122879 1_555
Co3 O11 2.125694 1_555
Co3 O5 2.131851 1_655
Co3 O0 2.134438 1_555
Co3 O2 2.138527 1_655
Co3 O7 2.138530 1_555
Co4 O4 1.961363 1_555
Co4 O6 1.973764 1_555
Co4 O3 2.102255 1_555
Co4 O1 2.105597 1_555
Co4 O14 2.110050 1_555
Co4 O8 2.123559 1_555
Co5 O7 1.961343 1_555
Co5 O5 1.973630 1_555
Co5 O0 2.102415 1_555
Co5 O2 2.106118 1_555
Co5 O9 2.110198 1_555
Co5 O15 2.123337 1_555
Co6 O7 2.118847 1_555
Co6 O4 2.118871 1_565
Co6 O15 2.154987 1_555
Co6 O8 2.155414 1_565
Co6 O10 2.157079 1_565
Co6 O13 2.157340 1_555
Co7 O6 2.136066 1_554
Co7 O5 2.136087 1_655
Co7 O9 2.145551 1_655
Co7 O14 2.145927 1_554
Co7 O12 2.175812 1_654
Co7 O11 2.176179 1_555
O0 Sn1 2.081416 1_564
O1 Sn0 2.074043 1_555
O2 Sn0 2.074275 1_455
O3 Sn1 2.081008 1_555
O8 Sn1 2.103702 1_555
O9 Sn0 2.109458 1_455
O10 Sn1 2.093212 1_555
O11 Sn0 2.096625 1_555
O12 Sn0 2.096776 1_455
O13 Sn1 2.093023 1_564
O14 Sn0 2.109012 1_555
O15 Sn1 2.104216 1_564
