# generated using pymatgen
data_Li2ThN2
_symmetry_space_group_name_H-M   'P 1'
_cell_length_a   6.38530843
_cell_length_b   6.38530883
_cell_length_c   5.50450239
_cell_angle_alpha   90.00000000
_cell_angle_beta   90.00000000
_cell_angle_gamma   119.99999929
_symmetry_Int_Tables_number   1
_chemical_formula_structural   Li2ThN2
_chemical_formula_sum   'Li6 Th3 N6'
_cell_volume   194.36250448
_cell_formula_units_Z   3
loop_
 _symmetry_equiv_pos_site_id
 _symmetry_equiv_pos_as_xyz
  1  'x, y, z'
loop_
 _atom_site_type_symbol
 _atom_site_label
 _atom_site_symmetry_multiplicity
 _atom_site_fract_x
 _atom_site_fract_y
 _atom_site_fract_z
 _atom_site_occupancy
  Li  Li0  1  0.32842640  0.33868010  0.40533068  1
  Li  Li1  1  0.01025470  0.67157360  0.40533068  1
  Li  Li2  1  0.66131990  0.98974530  0.40533068  1
  Li  Li3  1  0.33868010  0.01025470  0.59466932  1
  Li  Li4  1  0.67157360  0.66131990  0.59466932  1
  Li  Li5  1  0.98974530  0.32842640  0.59466932  1
  Th  Th0  1  0.66666700  0.33333300  0.00568850  1
  Th  Th1  1  0.33333300  0.66666700  0.99431150  1
  Th  Th2  1  0.00000000  0.00000000  0.00000000  1
  N  N0  1  0.66772040  0.00230871  0.77047458  1
  N  N1  1  0.99769129  0.66541269  0.77047458  1
  N  N2  1  0.33458731  0.33227960  0.77047458  1
  N  N3  1  0.33227960  0.99769129  0.22952542  1
  N  N4  1  0.66541269  0.66772040  0.22952542  1
  N  N5  1  0.00230871  0.33458731  0.22952542  1
loop_
_geom_bond_atom_site_label_1
_geom_bond_atom_site_label_2
_geom_bond_distance
_geom_bond_site_symmetry_2
Li0 N2 2.011136 1_555
Li0 N5 2.284508 1_555
Li0 N4 2.336656 1_555
Li0 N3 2.394029 1_545
Li1 N1 2.011136 1_455
Li1 N3 2.284508 1_555
Li1 N5 2.336656 1_555
Li1 N4 2.394029 1_455
Li2 N0 2.011136 1_565
Li2 N4 2.284508 1_555
Li2 N3 2.336656 1_555
Li2 N5 2.394029 1_665
Li3 N3 2.011136 1_545
Li3 N2 2.284508 1_555
Li3 N0 2.336656 1_555
Li3 N1 2.394029 1_445
Li4 N4 2.011136 1_555
Li4 N1 2.284508 1_555
Li4 N2 2.336656 1_555
Li4 N0 2.394029 1_565
Li5 N5 2.011136 1_655
Li5 N0 2.284508 1_555
Li5 N1 2.336656 1_555
Li5 N2 2.394029 1_655
N0 Th1 2.468643 1_545
N0 Th2 2.475758 1_656
N0 Th0 2.481592 1_556
N1 Th1 2.468643 1_655
N1 Th2 2.475753 1_666
N1 Th0 2.481597 1_556
N2 Th1 2.468643 1_555
N2 Th2 2.475755 1_556
N2 Th0 2.481603 1_556
N3 Th0 2.468643 1_565
N3 Th2 2.475758 1_565
N3 Th1 2.481592 1_554
N4 Th0 2.468643 1_555
N4 Th2 2.475755 1_665
N4 Th1 2.481603 1_554
N5 Th0 2.468643 1_455
N5 Th2 2.475753 1_555
N5 Th1 2.481597 1_554
