# generated using pymatgen
data_TiAlCo2
_symmetry_space_group_name_H-M   'P 1'
_cell_length_a   2.95122600
_cell_length_b   2.95122600
_cell_length_c   5.71149400
_cell_angle_alpha   90.00000000
_cell_angle_beta   90.00000000
_cell_angle_gamma   90.00000000
_symmetry_Int_Tables_number   1
_chemical_formula_structural   TiAlCo2
_chemical_formula_sum   'Ti1 Al1 Co2'
_cell_volume   49.74559864
_cell_formula_units_Z   1
loop_
 _symmetry_equiv_pos_site_id
 _symmetry_equiv_pos_as_xyz
  1  'x, y, z'
loop_
 _atom_site_type_symbol
 _atom_site_label
 _atom_site_symmetry_multiplicity
 _atom_site_fract_x
 _atom_site_fract_y
 _atom_site_fract_z
 _atom_site_occupancy
  Ti  Ti0  1  0.00000000  0.00000000  0.50000000  1
  Al  Al0  1  0.00000000  0.00000000  0.00000000  1
  Co  Co0  1  0.50000000  0.50000000  0.25067900  1
  Co  Co1  1  0.50000000  0.50000000  0.74932100  1
loop_
_geom_bond_atom_site_label_1
_geom_bond_atom_site_label_2
_geom_bond_distance
_geom_bond_site_symmetry_2
Al0 Co0 2.530767 1_455
Al0 Co1 2.530767 1_544
Al0 Co0 2.530767 1_445
Al0 Co1 2.530767 1_454
Al0 Co1 2.530767 1_554
Al0 Co0 2.530767 1_555
Al0 Co0 2.530767 1_545
Al0 Co1 2.530767 1_444
Co0 Ti0 2.526387 1_655
Co0 Ti0 2.526387 1_665
Co0 Ti0 2.526387 1_555
Co0 Ti0 2.526387 1_565
Co1 Ti0 2.526387 1_655
Co1 Ti0 2.526387 1_665
Co1 Ti0 2.526387 1_555
Co1 Ti0 2.526387 1_565
