# generated using pymatgen
data_SrMgV2O7
_symmetry_space_group_name_H-M   'P 1'
_cell_length_a   15.04380000
_cell_length_b   6.92407800
_cell_length_c   11.49948665
_cell_angle_alpha   80.87461574
_cell_angle_beta   90.00000000
_cell_angle_gamma   90.00000000
_symmetry_Int_Tables_number   1
_chemical_formula_structural   SrMgV2O7
_chemical_formula_sum   'Sr8 Mg8 V16 O56'
_cell_volume   1182.67737513
_cell_formula_units_Z   8
loop_
 _symmetry_equiv_pos_site_id
 _symmetry_equiv_pos_as_xyz
  1  'x, y, z'
loop_
 _atom_site_type_symbol
 _atom_site_label
 _atom_site_symmetry_multiplicity
 _atom_site_fract_x
 _atom_site_fract_y
 _atom_site_fract_z
 _atom_site_occupancy
  Sr  Sr0  1  0.00481700  0.91738100  0.74537300  1
  Sr  Sr1  1  0.99518300  0.08261900  0.25462700  1
  Sr  Sr2  1  0.50481700  0.08261900  0.75462700  1
  Sr  Sr3  1  0.49518300  0.91738100  0.24537300  1
  Sr  Sr4  1  0.37573300  0.65842500  0.97918900  1
  Sr  Sr5  1  0.62426700  0.34157500  0.02081100  1
  Sr  Sr6  1  0.87573300  0.34157500  0.52081100  1
  Sr  Sr7  1  0.12426700  0.65842500  0.47918900  1
  Mg  Mg0  1  0.32447000  0.36135200  0.57707600  1
  Mg  Mg1  1  0.67553000  0.63864800  0.42292400  1
  Mg  Mg2  1  0.82447000  0.63864800  0.92292400  1
  Mg  Mg3  1  0.17553000  0.36135200  0.07707600  1
  Mg  Mg4  1  0.24601200  0.99595300  0.75010100  1
  Mg  Mg5  1  0.75398800  0.00404700  0.24989900  1
  Mg  Mg6  1  0.74601200  0.00404700  0.74989900  1
  Mg  Mg7  1  0.25398800  0.99595300  0.25010100  1
  V  V0  1  0.36291000  0.87349900  0.52097400  1
  V  V1  1  0.63709000  0.12650100  0.47902600  1
  V  V2  1  0.86291000  0.12650100  0.97902600  1
  V  V3  1  0.13709000  0.87349900  0.02097400  1
  V  V4  1  0.01240100  0.40890100  0.82284300  1
  V  V5  1  0.98759900  0.59109900  0.17715700  1
  V  V6  1  0.51240100  0.59109900  0.67715700  1
  V  V7  1  0.48759900  0.40890100  0.32284300  1
  V  V8  1  0.86413200  0.84433100  0.51824400  1
  V  V9  1  0.13586800  0.15566900  0.48175600  1
  V  V10  1  0.36413200  0.15566900  0.98175600  1
  V  V11  1  0.63586800  0.84433100  0.01824400  1
  V  V12  1  0.19999800  0.48617700  0.79862900  1
  V  V13  1  0.80000200  0.51382300  0.20137100  1
  V  V14  1  0.69999800  0.51382300  0.70137100  1
  V  V15  1  0.30000200  0.48617700  0.29862900  1
  O  O0  1  0.29162800  0.68023600  0.54968600  1
  O  O1  1  0.70837200  0.31976400  0.45031400  1
  O  O2  1  0.79162800  0.31976400  0.95031400  1
  O  O3  1  0.20837200  0.68023600  0.04968600  1
  O  O4  1  0.48234700  0.71641100  0.78621200  1
  O  O5  1  0.51765300  0.28358900  0.21378800  1
  O  O6  1  0.98234700  0.28358900  0.71378800  1
  O  O7  1  0.01765300  0.71641100  0.28621200  1
  O  O8  1  0.14242700  0.96887200  0.87295200  1
  O  O9  1  0.85757300  0.03112800  0.12704800  1
  O  O10  1  0.64242700  0.03112800  0.62704800  1
  O  O11  1  0.35757300  0.96887200  0.37295200  1
  O  O12  1  0.10191400  0.57182700  0.71565100  1
  O  O13  1  0.89808600  0.42817300  0.28434900  1
  O  O14  1  0.60191400  0.42817300  0.78434900  1
  O  O15  1  0.39808600  0.57182700  0.21565100  1
  O  O16  1  0.78549200  0.65207500  0.53373000  1
  O  O17  1  0.21450800  0.34792500  0.46627000  1
  O  O18  1  0.28549200  0.34792500  0.96627000  1
  O  O19  1  0.71450800  0.65207500  0.03373000  1
  O  O20  1  0.85362100  0.99043300  0.62880700  1
  O  O21  1  0.14637900  0.00956700  0.37119300  1
  O  O22  1  0.35362100  0.00956700  0.87119300  1
  O  O23  1  0.64637900  0.99043300  0.12880700  1
  O  O24  1  0.24542400  0.31186800  0.72378000  1
  O  O25  1  0.75457600  0.68813200  0.27622000  1
  O  O26  1  0.74542400  0.68813200  0.77622000  1
  O  O27  1  0.25457600  0.31186800  0.22378000  1
  O  O28  1  0.43989500  0.40577400  0.66728900  1
  O  O29  1  0.56010500  0.59422600  0.33271100  1
  O  O30  1  0.93989500  0.59422600  0.83271100  1
  O  O31  1  0.06010500  0.40577400  0.16728900  1
  O  O32  1  0.47216500  0.77906100  0.55038600  1
  O  O33  1  0.52783500  0.22093900  0.44961400  1
  O  O34  1  0.97216500  0.22093900  0.94961400  1
  O  O35  1  0.02783500  0.77906100  0.05038600  1
  O  O36  1  0.96710100  0.73873600  0.53736400  1
  O  O37  1  0.03289900  0.26126400  0.46263600  1
  O  O38  1  0.46710100  0.26126400  0.96263600  1
  O  O39  1  0.53289900  0.73873600  0.03736400  1
  O  O40  1  0.11908500  0.39874000  0.91504700  1
  O  O41  1  0.88091500  0.60126000  0.08495300  1
  O  O42  1  0.61908500  0.60126000  0.58495300  1
  O  O43  1  0.38091500  0.39874000  0.41504700  1
  O  O44  1  0.14308500  0.00008500  0.61625500  1
  O  O45  1  0.85691500  0.99991500  0.38374500  1
  O  O46  1  0.64308500  0.99991500  0.88374500  1
  O  O47  1  0.35691500  0.00008500  0.11625500  1
  O  O48  1  0.26374300  0.68888000  0.79808300  1
  O  O49  1  0.73625700  0.31112000  0.20191700  1
  O  O50  1  0.76374300  0.31112000  0.70191700  1
  O  O51  1  0.23625700  0.68888000  0.29808300  1
  O  O52  1  0.84215300  0.95039600  0.88569700  1
  O  O53  1  0.15784700  0.04960400  0.11430300  1
  O  O54  1  0.34215300  0.04960400  0.61430300  1
  O  O55  1  0.65784700  0.95039600  0.38569700  1
loop_
_geom_bond_atom_site_label_1
_geom_bond_atom_site_label_2
_geom_bond_distance
_geom_bond_site_symmetry_2
Mg0 O43 2.026517 1_555
Mg0 O24 2.047968 1_555
Mg0 O28 2.070559 1_555
Mg0 O17 2.099135 1_555
Mg0 O54 2.149497 1_555
Mg0 O0 2.235595 1_555
Mg1 O42 2.026517 1_555
Mg1 O25 2.047968 1_555
Mg1 O29 2.070559 1_555
Mg1 O16 2.099135 1_555
Mg1 O55 2.149497 1_555
Mg1 O1 2.235595 1_555
Mg2 O41 2.026517 1_556
Mg2 O26 2.047968 1_555
Mg2 O30 2.070559 1_555
Mg2 O19 2.099135 1_556
Mg2 O52 2.149497 1_555
Mg2 O2 2.235595 1_555
Mg3 O40 2.026517 1_554
Mg3 O27 2.047968 1_555
Mg3 O31 2.070559 1_555
Mg3 O18 2.099135 1_554
Mg3 O53 2.149497 1_555
Mg3 O3 2.235595 1_555
Mg4 O8 2.091712 1_555
Mg4 O54 2.117657 1_565
Mg4 O48 2.127016 1_555
Mg4 O22 2.147146 1_565
Mg4 O24 2.160206 1_565
Mg4 O44 2.180240 1_565
Mg5 O9 2.091712 1_555
Mg5 O55 2.117657 1_545
Mg5 O49 2.127016 1_555
Mg5 O23 2.147146 1_545
Mg5 O25 2.160206 1_545
Mg5 O45 2.180240 1_545
Mg6 O10 2.091712 1_555
Mg6 O52 2.117657 1_545
Mg6 O50 2.127016 1_555
Mg6 O20 2.147146 1_545
Mg6 O26 2.160206 1_545
Mg6 O46 2.180240 1_545
Mg7 O11 2.091712 1_555
Mg7 O53 2.117657 1_565
Mg7 O51 2.127016 1_555
Mg7 O21 2.147146 1_565
Mg7 O27 2.160206 1_565
Mg7 O47 2.180240 1_565
O0 V0 1.705727 1_555
O0 Sr7 2.656668 1_555
O1 V1 1.705727 1_555
O1 Sr6 2.656668 1_555
O2 V2 1.705727 1_555
O2 Sr5 2.656668 1_556
O3 V3 1.705727 1_555
O3 Sr4 2.656668 1_554
O4 V6 1.695618 1_555
O4 Sr2 2.526578 1_565
O4 Sr4 2.715803 1_555
O5 V7 1.695618 1_555
O5 Sr3 2.526578 1_545
O5 Sr5 2.715803 1_555
O6 V4 1.695618 1_655
O6 Sr0 2.526578 1_645
O6 Sr6 2.715803 1_555
O7 V5 1.695618 1_455
O7 Sr1 2.526578 1_465
O7 Sr7 2.715803 1_555
O8 V3 1.727251 1_556
O8 Sr0 2.594421 1_555
O9 V2 1.727251 1_554
O9 Sr1 2.594421 1_555
O10 V1 1.727251 1_555
O10 Sr2 2.594421 1_555
O11 V0 1.727251 1_555
O11 Sr3 2.594421 1_555
O12 V12 1.805542 1_555
O12 V4 2.040678 1_555
O12 Sr7 2.710987 1_555
O12 Sr0 2.869602 1_555
O13 V13 1.805542 1_555
O13 V5 2.040678 1_555
O13 Sr6 2.710987 1_555
O13 Sr1 2.869602 1_555
O14 V14 1.805542 1_555
O14 V6 2.040678 1_555
O14 Sr5 2.710987 1_556
O14 Sr2 2.869602 1_555
O15 V15 1.805542 1_555
O15 V7 2.040678 1_555
O15 Sr4 2.710987 1_554
O15 Sr3 2.869602 1_555
O16 V8 1.768670 1_555
O16 V14 2.387795 1_555
O16 Sr6 2.566818 1_555
O17 V9 1.768670 1_555
O17 V15 2.387795 1_555
O17 Sr7 2.566818 1_555
O18 V10 1.768670 1_555
O18 V12 2.387795 1_555
O18 Sr4 2.566818 1_555
O19 V11 1.768670 1_555
O19 V13 2.387795 1_555
O19 Sr5 2.566818 1_555
O20 V8 1.752956 1_555
O20 Sr6 2.570332 1_565
O20 Sr0 2.647872 1_655
O21 V9 1.752956 1_555
O21 Sr7 2.570332 1_545
O21 Sr1 2.647872 1_455
O22 V10 1.752956 1_555
O22 Sr4 2.570332 1_545
O22 Sr2 2.647872 1_555
O23 V11 1.752956 1_555
O23 Sr5 2.570332 1_565
O23 Sr3 2.647872 1_555
O24 V12 1.730330 1_555
O25 V13 1.730330 1_555
O26 V14 1.730330 1_555
O27 V15 1.730330 1_555
O28 V6 1.701602 1_555
O28 Sr2 2.501282 1_555
O29 V7 1.701602 1_555
O29 Sr3 2.501282 1_555
O30 V4 1.701602 1_655
O30 Sr0 2.501282 1_655
O31 V5 1.701602 1_455
O31 Sr1 2.501282 1_455
O32 V0 1.781370 1_555
O32 V6 1.893036 1_555
O33 V1 1.781370 1_555
O33 V7 1.893036 1_555
O34 V2 1.781370 1_555
O34 V4 1.893036 1_655
O35 V3 1.781370 1_555
O35 V5 1.893036 1_455
O36 V8 1.712154 1_555
O36 Sr7 2.542641 1_655
O36 Sr0 2.917556 1_655
O36 Sr6 3.107078 1_555
O37 V9 1.712154 1_555
O37 Sr6 2.542641 1_455
O37 Sr1 2.917556 1_455
O37 Sr7 3.107078 1_555
O38 V10 1.712154 1_555
O38 Sr5 2.542641 1_556
O38 Sr2 2.917556 1_555
O38 Sr4 3.107078 1_555
O39 V11 1.712154 1_555
O39 Sr4 2.542641 1_554
O39 Sr3 2.917556 1_555
O39 Sr5 3.107078 1_555
O40 V12 1.839392 1_555
O40 V4 1.918679 1_555
O41 V13 1.839392 1_555
O41 V5 1.918679 1_555
O42 V14 1.839392 1_555
O42 V6 1.918679 1_555
O43 V15 1.839392 1_555
O43 V7 1.918679 1_555
O44 V9 1.742411 1_555
O44 Sr0 2.567012 1_545
O44 Sr7 3.056744 1_545
O45 V8 1.742411 1_555
O45 Sr1 2.567012 1_565
O45 Sr6 3.056744 1_565
O46 V11 1.742411 1_556
O46 Sr2 2.567012 1_565
O46 Sr5 3.056744 1_566
O47 V10 1.742411 1_554
O47 Sr3 2.567012 1_545
O47 Sr4 3.056744 1_544
O48 V12 1.699047 1_555
O48 Sr4 2.660996 1_555
O49 V13 1.699047 1_555
O49 Sr5 2.660996 1_555
O50 V14 1.699047 1_555
O50 Sr6 2.660996 1_555
O51 V15 1.699047 1_555
O51 Sr7 2.660996 1_555
O52 V2 1.775188 1_565
O52 Sr0 2.959960 1_655
O53 V3 1.775188 1_545
O53 Sr1 2.959960 1_455
O54 V0 1.775188 1_545
O54 Sr2 2.959960 1_555
O55 V1 1.775188 1_565
O55 Sr3 2.959960 1_555
