# generated using pymatgen
data_Li7Mn2(CoO4)3
_symmetry_space_group_name_H-M   'P 1'
_cell_length_a   5.10818900
_cell_length_b   5.84327787
_cell_length_c   7.70400684
_cell_angle_alpha   78.94170871
_cell_angle_beta   77.98578975
_cell_angle_gamma   73.39804073
_symmetry_Int_Tables_number   1
_chemical_formula_structural   Li7Mn2(CoO4)3
_chemical_formula_sum   'Li7 Mn2 Co3 O12'
_cell_volume   213.38157852
_cell_formula_units_Z   1
loop_
 _symmetry_equiv_pos_site_id
 _symmetry_equiv_pos_as_xyz
  1  'x, y, z'
loop_
 _atom_site_type_symbol
 _atom_site_label
 _atom_site_symmetry_multiplicity
 _atom_site_fract_x
 _atom_site_fract_y
 _atom_site_fract_z
 _atom_site_occupancy
  Li  Li0  1  0.49725600  0.66589100  0.83644300  1
  Li  Li1  1  0.50537000  0.83259700  0.16446700  1
  Li  Li2  1  0.50274400  0.33410900  0.16355700  1
  Li  Li3  1  0.50000000  0.50000000  0.50000000  1
  Li  Li4  1  0.50000000  0.00000000  0.50000000  1
  Li  Li5  1  0.49463000  0.16740300  0.83553300  1
  Li  Li6  1  0.00000000  0.50000000  0.00000000  1
  Mn  Mn0  1  0.00783200  0.83038100  0.66883800  1
  Mn  Mn1  1  0.99216800  0.16961900  0.33116200  1
  Co  Co0  1  0.00000000  0.00000000  0.00000000  1
  Co  Co1  1  0.00087100  0.33471200  0.67857100  1
  Co  Co2  1  0.99912900  0.66528800  0.32142900  1
  O  O0  1  0.78518800  0.66979900  0.58310100  1
  O  O1  1  0.78406600  0.84284500  0.90187600  1
  O  O2  1  0.77635900  0.31299100  0.90509800  1
  O  O3  1  0.75917900  0.48513500  0.26081100  1
  O  O4  1  0.75898300  0.00724400  0.25939700  1
  O  O5  1  0.78010800  0.15182100  0.57537800  1
  O  O6  1  0.22364100  0.68700900  0.09490200  1
  O  O7  1  0.21989200  0.84817900  0.42462200  1
  O  O8  1  0.21481200  0.33020100  0.41689900  1
  O  O9  1  0.24082100  0.51486500  0.73918900  1
  O  O10  1  0.24101700  0.99275600  0.74060300  1
  O  O11  1  0.21593400  0.15715500  0.09812400  1
loop_
_geom_bond_atom_site_label_1
_geom_bond_atom_site_label_2
_geom_bond_distance
_geom_bond_site_symmetry_2
Li0 O10 2.083061 1_555
Li0 O9 2.092570 1_555
Li0 O6 2.184169 1_556
Li0 O0 2.186355 1_555
Li0 O2 2.186356 1_555
Li0 O1 2.200634 1_555
Li1 O6 2.068236 1_555
Li1 O11 2.093868 1_565
Li1 O3 2.161557 1_555
Li1 O4 2.165840 1_565
Li1 O1 2.219487 1_554
Li1 O7 2.220179 1_555
Li2 O4 2.083061 1_555
Li2 O3 2.092570 1_555
Li2 O2 2.184169 1_554
Li2 O8 2.186355 1_555
Li2 O6 2.186356 1_555
Li2 O11 2.200634 1_555
Li3 O9 2.033713 1_555
Li3 O3 2.033713 1_555
Li3 O5 2.180125 1_555
Li3 O7 2.180125 1_555
Li3 O8 2.230349 1_555
Li3 O0 2.230349 1_555
Li4 O4 2.041772 1_555
Li4 O10 2.041772 1_545
Li4 O5 2.107237 1_555
Li4 O7 2.107237 1_545
Li4 O0 2.136143 1_545
Li4 O8 2.136143 1_555
Li5 O2 2.068236 1_555
Li5 O1 2.093868 1_545
Li5 O9 2.161557 1_555
Li5 O10 2.165840 1_545
Li5 O11 2.219487 1_556
Li5 O5 2.220179 1_555
Li6 O1 2.074834 1_454
Li6 O11 2.074834 1_555
Li6 O2 2.097922 1_454
Li6 O6 2.097922 1_555
Li6 O3 2.126777 1_455
Li6 O9 2.126777 1_554
Mn0 O1 1.919195 1_455
Mn0 O9 1.934061 1_555
Mn0 O10 1.935451 1_555
Mn0 O0 1.941784 1_455
Mn0 O7 1.965937 1_555
Mn0 O5 1.995197 1_465
Mn1 O11 1.919195 1_655
Mn1 O3 1.934061 1_555
Mn1 O4 1.935451 1_555
Mn1 O8 1.941784 1_655
Mn1 O5 1.965937 1_555
Mn1 O7 1.995197 1_645
Co0 O11 1.955420 1_555
Co0 O1 1.955420 1_444
Co0 O2 1.955840 1_454
Co0 O6 1.955840 1_545
Co0 O10 2.118854 1_544
Co0 O4 2.118854 1_455
Co1 O2 1.882011 1_455
Co1 O9 1.998201 1_555
Co1 O0 2.034888 1_455
Co1 O10 2.050082 1_545
Co1 O8 2.084638 1_555
Co1 O5 2.105620 1_455
Co2 O6 1.882011 1_655
Co2 O3 1.998201 1_555
Co2 O8 2.034888 1_655
Co2 O4 2.050082 1_565
Co2 O0 2.084638 1_555
Co2 O7 2.105620 1_655
