# generated using pymatgen
data_Sm(Al2Cu)4
_symmetry_space_group_name_H-M   'P 1'
_cell_length_a   5.11405691
_cell_length_b   6.70458945
_cell_length_c   6.69921082
_cell_angle_alpha   81.58155577
_cell_angle_beta   67.56152591
_cell_angle_gamma   67.44560183
_symmetry_Int_Tables_number   1
_chemical_formula_structural   Sm(Al2Cu)4
_chemical_formula_sum   'Sm1 Al8 Cu4'
_cell_volume   196.07125968
_cell_formula_units_Z   1
loop_
 _symmetry_equiv_pos_site_id
 _symmetry_equiv_pos_as_xyz
  1  'x, y, z'
loop_
 _atom_site_type_symbol
 _atom_site_label
 _atom_site_symmetry_multiplicity
 _atom_site_fract_x
 _atom_site_fract_y
 _atom_site_fract_z
 _atom_site_occupancy
  Sm  Sm0  1  0.00000000  -0.00000000  -0.00000000  1
  Al  Al0  1  0.34912914  0.65108917  0.65108452  1
  Al  Al1  1  0.99978535  0.34891083  0.65108452  1
  Al  Al2  1  0.00021465  0.65108917  0.34891548  1
  Al  Al3  1  0.65087086  0.34891083  0.34891548  1
  Al  Al4  1  0.72010302  0.77975074  0.77976124  1
  Al  Al5  1  0.50013574  0.22024926  0.77976124  1
  Al  Al6  1  0.49986426  0.77975074  0.22023876  1
  Al  Al7  1  0.27989698  0.22024926  0.22023876  1
  Cu  Cu0  1  0.50000000  -0.00000000  0.50000000  1
  Cu  Cu1  1  0.00000000  0.50000000  -0.00000000  1
  Cu  Cu2  1  0.50000000  0.50000000  -0.00000000  1
  Cu  Cu3  1  0.00000000  -0.00000000  0.50000000  1
loop_
_geom_bond_atom_site_label_1
_geom_bond_atom_site_label_2
_geom_bond_distance
_geom_bond_site_symmetry_2
Al0 Al3 2.646045 1_555
Al0 Cu3 2.677103 1_565
Al0 Cu2 2.677508 1_556
Al0 Cu1 2.680666 1_556
Al0 Cu0 2.680906 1_565
Al0 Al5 2.784126 1_555
Al0 Al6 2.784208 1_555
Al0 Al4 2.794211 1_455
Al0 Al4 2.794305 1_555
Al0 Sm0 3.055321 1_566
Al1 Al2 2.646045 1_655
Al1 Cu0 2.677105 1_655
Al1 Cu2 2.677505 1_556
Al1 Cu1 2.680668 1_656
Al1 Cu3 2.680903 1_655
Al1 Al4 2.784126 1_555
Al1 Al7 2.784208 1_655
Al1 Al5 2.794216 1_655
Al1 Al5 2.794300 1_555
Al1 Sm0 3.055322 1_656
Al2 Cu0 2.677105 1_465
Al2 Cu2 2.677505 1_555
Al2 Cu1 2.680668 1_555
Al2 Cu3 2.680903 1_565
Al2 Al7 2.784126 1_555
Al2 Al4 2.784208 1_455
Al2 Al6 2.794216 1_455
Al2 Al6 2.794300 1_555
Al2 Sm0 3.055322 1_565
Al3 Cu3 2.677103 1_655
Al3 Cu2 2.677508 1_555
Al3 Cu1 2.680666 1_655
Al3 Cu0 2.680906 1_555
Al3 Al6 2.784126 1_555
Al3 Al5 2.784208 1_555
Al3 Al7 2.794211 1_655
Al3 Al7 2.794305 1_555
Al3 Sm0 3.055321 1_655
Al4 Cu0 2.546596 1_565
Al4 Cu1 2.546788 1_656
Al4 Cu2 2.550159 1_556
Al4 Cu3 2.550542 1_665
Al4 Al6 2.727443 1_556
Al4 Al5 2.727488 1_565
Al4 Sm0 3.199658 1_566
Al4 Sm0 3.205939 1_666
Al5 Cu3 2.546595 1_655
Al5 Cu1 2.546788 1_556
Al5 Cu2 2.550159 1_556
Al5 Cu0 2.550542 1_555
Al5 Al7 2.727443 1_556
Al5 Sm0 3.199658 1_656
Al5 Sm0 3.205939 1_556
Al6 Cu3 2.546595 1_565
Al6 Cu1 2.546788 1_655
Al6 Cu2 2.550159 1_555
Al6 Cu0 2.550542 1_565
Al6 Al7 2.727488 1_565
Al6 Sm0 3.199658 1_565
Al6 Sm0 3.205939 1_665
Al7 Cu0 2.546596 1_555
Al7 Cu1 2.546788 1_555
Al7 Cu2 2.550159 1_555
Al7 Cu3 2.550542 1_555
Al7 Sm0 3.199658 1_655
Al7 Sm0 3.205939 1_555
Cu0 Cu3 2.557028 1_555
Cu0 Cu3 2.557028 1_655
Cu0 Sm0 3.349605 1_556
Cu0 Sm0 3.349605 1_655
Cu1 Cu2 2.557028 1_455
Cu1 Cu2 2.557028 1_555
Cu1 Sm0 3.352295 1_555
Cu1 Sm0 3.352295 1_565
Cu2 Sm0 3.346727 1_655
Cu2 Sm0 3.346727 1_565
Cu3 Sm0 3.349605 1_556
Cu3 Sm0 3.349605 1_555
