# generated using pymatgen
data_Ba4TiN4
_symmetry_space_group_name_H-M   'P 1'
_cell_length_a   6.81611955
_cell_length_b   6.91072778
_cell_length_c   9.68902066
_cell_angle_alpha   72.37854134
_cell_angle_beta   80.35183348
_cell_angle_gamma   66.14121428
_symmetry_Int_Tables_number   1
_chemical_formula_structural   Ba4TiN4
_chemical_formula_sum   'Ba8 Ti2 N8'
_cell_volume   397.27455983
_cell_formula_units_Z   2
loop_
 _symmetry_equiv_pos_site_id
 _symmetry_equiv_pos_as_xyz
  1  'x, y, z'
loop_
 _atom_site_type_symbol
 _atom_site_label
 _atom_site_symmetry_multiplicity
 _atom_site_fract_x
 _atom_site_fract_y
 _atom_site_fract_z
 _atom_site_occupancy
  Ba  Ba0  1  0.77875200  0.57565000  0.15282100  1
  Ba  Ba1  1  0.22124800  0.42435000  0.84717900  1
  Ba  Ba2  1  0.73822300  0.22557600  0.96423500  1
  Ba  Ba3  1  0.26177700  0.77442400  0.03576500  1
  Ba  Ba4  1  0.71564500  0.50319900  0.56292800  1
  Ba  Ba5  1  0.28435500  0.49680100  0.43707200  1
  Ba  Ba6  1  0.21680600  0.96830300  0.61962000  1
  Ba  Ba7  1  0.78319400  0.03169700  0.38038000  1
  Ti  Ti0  1  0.73478000  0.83993800  0.75519800  1
  Ti  Ti1  1  0.26522000  0.16006200  0.24480200  1
  N  N0  1  0.95618000  0.69139800  0.62242400  1
  N  N1  1  0.04382000  0.30860200  0.37757600  1
  N  N2  1  0.90862700  0.81357800  0.91081600  1
  N  N3  1  0.09137300  0.18642200  0.08918400  1
  N  N4  1  0.54838600  0.67063000  0.81700400  1
  N  N5  1  0.45161400  0.32937000  0.18299600  1
  N  N6  1  0.43068800  0.86004600  0.35960000  1
  N  N7  1  0.56931200  0.13995400  0.64040000  1
loop_
_geom_bond_atom_site_label_1
_geom_bond_atom_site_label_2
_geom_bond_distance
_geom_bond_site_symmetry_2
Ba0 N2 2.670717 1_554
Ba0 N1 2.756910 1_655
Ba0 N3 2.843067 1_655
Ba0 N5 3.241074 1_555
Ba0 N6 3.244067 1_555
Ba1 N3 2.670717 1_556
Ba1 N0 2.756910 1_455
Ba1 N2 2.843067 1_455
Ba1 N4 3.241074 1_555
Ba1 N7 3.244067 1_555
Ba2 N5 2.687470 1_556
Ba2 N3 2.754017 1_656
Ba2 N2 2.781904 1_545
Ba2 N4 2.812776 1_555
Ba3 N4 2.687470 1_554
Ba3 N2 2.754017 1_454
Ba3 N3 2.781904 1_565
Ba3 N5 2.812776 1_555
Ba4 N0 2.684693 1_555
Ba4 N1 2.778401 1_655
Ba4 N6 2.863815 1_555
Ba4 N4 2.900941 1_555
Ba4 N7 2.914367 1_555
Ba5 N1 2.684693 1_555
Ba5 N0 2.778401 1_455
Ba5 N7 2.863815 1_555
Ba5 N5 2.900941 1_555
Ba5 N6 2.914367 1_555
Ba6 N1 2.786603 1_565
Ba6 N6 2.838984 1_555
Ba6 N4 2.881496 1_555
Ba6 N0 3.085589 1_455
Ba6 N7 3.135799 1_565
Ba6 N2 3.394111 1_455
Ba7 N0 2.786603 1_545
Ba7 N7 2.838984 1_555
Ba7 N5 2.881496 1_555
Ba7 N1 3.085589 1_655
Ba7 N6 3.135799 1_545
Ba7 N3 3.394111 1_655
N0 Ti0 1.970196 1_555
N1 Ti1 1.970196 1_555
N2 Ti0 1.992159 1_555
N3 Ti1 1.992159 1_555
N4 Ti0 1.965970 1_555
N5 Ti1 1.965970 1_555
N6 Ti1 1.985059 1_565
N7 Ti0 1.985059 1_545
