# generated using pymatgen
data_Sr3Y2(BO3)4
_symmetry_space_group_name_H-M   'P 1'
_cell_length_a   7.54872800
_cell_length_b   8.72813400
_cell_length_c   15.79809700
_cell_angle_alpha   90.00000000
_cell_angle_beta   90.00000000
_cell_angle_gamma   90.00000000
_symmetry_Int_Tables_number   1
_chemical_formula_structural   Sr3Y2(BO3)4
_chemical_formula_sum   'Sr12 Y8 B16 O48'
_cell_volume   1040.87830867
_cell_formula_units_Z   4
loop_
 _symmetry_equiv_pos_site_id
 _symmetry_equiv_pos_as_xyz
  1  'x, y, z'
loop_
 _atom_site_type_symbol
 _atom_site_label
 _atom_site_symmetry_multiplicity
 _atom_site_fract_x
 _atom_site_fract_y
 _atom_site_fract_z
 _atom_site_occupancy
  Sr  Sr0  1  0.32565000  0.15327500  0.37542800  1
  Sr  Sr1  1  0.82565000  0.34672500  0.12457200  1
  Sr  Sr2  1  0.67435000  0.84672500  0.87542800  1
  Sr  Sr3  1  0.17435000  0.65327500  0.62457200  1
  Sr  Sr4  1  0.67435000  0.84672500  0.62457200  1
  Sr  Sr5  1  0.17435000  0.65327500  0.87542800  1
  Sr  Sr6  1  0.32565000  0.15327500  0.12457200  1
  Sr  Sr7  1  0.82565000  0.34672500  0.37542800  1
  Sr  Sr8  1  0.67648700  0.97157600  0.25000000  1
  Sr  Sr9  1  0.17648700  0.52842400  0.25000000  1
  Sr  Sr10  1  0.32351300  0.02842400  0.75000000  1
  Sr  Sr11  1  0.82351300  0.47157600  0.75000000  1
  Y  Y0  1  0.48784900  0.67211700  0.41706300  1
  Y  Y1  1  0.98784900  0.82788300  0.08293700  1
  Y  Y2  1  0.51215100  0.32788300  0.91706300  1
  Y  Y3  1  0.01215100  0.17211700  0.58293700  1
  Y  Y4  1  0.51215100  0.32788300  0.58293700  1
  Y  Y5  1  0.01215100  0.17211700  0.91706300  1
  Y  Y6  1  0.48784900  0.67211700  0.08293700  1
  Y  Y7  1  0.98784900  0.82788300  0.41706300  1
  B  B0  1  0.33354700  0.94581200  0.53802600  1
  B  B1  1  0.83354700  0.55418800  0.96197400  1
  B  B2  1  0.66645300  0.05418800  0.03802600  1
  B  B3  1  0.16645300  0.44581200  0.46197400  1
  B  B4  1  0.66645300  0.05418800  0.46197400  1
  B  B5  1  0.16645300  0.44581200  0.03802600  1
  B  B6  1  0.33354700  0.94581200  0.96197400  1
  B  B7  1  0.83354700  0.55418800  0.53802600  1
  B  B8  1  0.02046500  0.10599600  0.25000000  1
  B  B9  1  0.52046500  0.39400400  0.25000000  1
  B  B10  1  0.97953500  0.89400400  0.75000000  1
  B  B11  1  0.47953500  0.60599600  0.75000000  1
  B  B12  1  0.78031100  0.64685400  0.25000000  1
  B  B13  1  0.28031100  0.85314600  0.25000000  1
  B  B14  1  0.21968900  0.35314600  0.75000000  1
  B  B15  1  0.71968900  0.14685400  0.75000000  1
  O  O0  1  0.41832100  0.05318400  0.58755600  1
  O  O1  1  0.91832100  0.44681600  0.91244400  1
  O  O2  1  0.58167900  0.94681600  0.08755600  1
  O  O3  1  0.08167900  0.55318400  0.41244400  1
  O  O4  1  0.58167900  0.94681600  0.41244400  1
  O  O5  1  0.08167900  0.55318400  0.08755600  1
  O  O6  1  0.41832100  0.05318400  0.91244400  1
  O  O7  1  0.91832100  0.44681600  0.58755600  1
  O  O8  1  0.39345500  0.79450200  0.53607600  1
  O  O9  1  0.89345500  0.70549800  0.96392400  1
  O  O10  1  0.60654500  0.20549800  0.03607500  1
  O  O11  1  0.10654500  0.29450200  0.46392400  1
  O  O12  1  0.60654500  0.20549800  0.46392400  1
  O  O13  1  0.10654500  0.29450200  0.03607500  1
  O  O14  1  0.39345500  0.79450200  0.96392400  1
  O  O15  1  0.89345500  0.70549800  0.53607600  1
  O  O16  1  0.17948100  0.98196400  0.49387200  1
  O  O17  1  0.67948100  0.51803600  0.00612800  1
  O  O18  1  0.82051900  0.01803600  0.99387200  1
  O  O19  1  0.32051900  0.48196400  0.50612800  1
  O  O20  1  0.82051900  0.01803600  0.50612800  1
  O  O21  1  0.32051900  0.48196400  0.99387200  1
  O  O22  1  0.17948100  0.98196400  0.00612800  1
  O  O23  1  0.67948100  0.51803600  0.49387200  1
  O  O24  1  0.10618600  0.24657200  0.25000000  1
  O  O25  1  0.60618600  0.25342800  0.25000000  1
  O  O26  1  0.89381400  0.75342800  0.75000000  1
  O  O27  1  0.39381400  0.74657200  0.75000000  1
  O  O28  1  0.96818000  0.03875400  0.32644700  1
  O  O29  1  0.46818000  0.46124600  0.17355300  1
  O  O30  1  0.03182000  0.96124600  0.82644700  1
  O  O31  1  0.53182000  0.53875400  0.67355300  1
  O  O32  1  0.03182000  0.96124600  0.67355300  1
  O  O33  1  0.53182000  0.53875400  0.82644700  1
  O  O34  1  0.96818000  0.03875400  0.17355300  1
  O  O35  1  0.46818000  0.46124600  0.32644700  1
  O  O36  1  0.74660800  0.72229800  0.32703600  1
  O  O37  1  0.24660800  0.77770200  0.17296400  1
  O  O38  1  0.25339200  0.27770200  0.82703600  1
  O  O39  1  0.75339200  0.22229800  0.67296400  1
  O  O40  1  0.25339200  0.27770200  0.67296400  1
  O  O41  1  0.75339200  0.22229800  0.82703600  1
  O  O42  1  0.74660800  0.72229800  0.17296400  1
  O  O43  1  0.24660800  0.77770200  0.32703600  1
  O  O44  1  0.35466600  0.99399700  0.25000000  1
  O  O45  1  0.85466600  0.50600300  0.25000000  1
  O  O46  1  0.64533400  0.00600300  0.75000000  1
  O  O47  1  0.14533400  0.49399700  0.75000000  1
loop_
_geom_bond_atom_site_label_1
_geom_bond_atom_site_label_2
_geom_bond_distance
_geom_bond_site_symmetry_2
B0 O0 1.378425 1_565
B0 O16 1.392377 1_555
B0 O8 1.396276 1_555
B1 O1 1.378425 1_555
B1 O17 1.392377 1_556
B1 O9 1.396276 1_555
B2 O2 1.378425 1_545
B2 O18 1.392377 1_554
B2 O10 1.396277 1_555
B3 O3 1.378425 1_555
B3 O19 1.392377 1_555
B3 O11 1.396276 1_555
B4 O4 1.378425 1_545
B4 O20 1.392377 1_555
B4 O12 1.396276 1_555
B5 O5 1.378425 1_555
B5 O21 1.392377 1_554
B5 O13 1.396277 1_555
B6 O6 1.378425 1_565
B6 O22 1.392377 1_556
B6 O14 1.396276 1_555
B7 O7 1.378425 1_555
B7 O23 1.392377 1_555
B7 O15 1.396276 1_555
B8 O24 1.387143 1_555
B8 O34 1.399573 1_455
B8 O28 1.399573 1_455
B9 O25 1.387143 1_555
B9 O29 1.399573 1_555
B9 O35 1.399573 1_555
B10 O26 1.387143 1_555
B10 O30 1.399573 1_655
B10 O32 1.399573 1_655
B11 O27 1.387143 1_555
B11 O31 1.399573 1_555
B11 O33 1.399573 1_555
B12 O45 1.351438 1_555
B12 O42 1.406937 1_555
B12 O36 1.406937 1_555
B13 O44 1.351438 1_555
B13 O37 1.406937 1_555
B13 O43 1.406937 1_555
B14 O47 1.351438 1_555
B14 O40 1.406937 1_555
B14 O38 1.406937 1_555
B15 O46 1.351438 1_555
B15 O39 1.406937 1_555
B15 O41 1.406937 1_555
O0 Y4 2.501108 1_555
O0 Sr10 2.672981 1_555
O0 Sr4 2.706378 1_545
O1 Y5 2.501108 1_655
O1 Sr11 2.672981 1_555
O1 Sr5 2.706378 1_655
O2 Y6 2.501108 1_555
O2 Sr8 2.672981 1_555
O2 Sr6 2.706378 1_565
O3 Y7 2.501108 1_455
O3 Sr9 2.672981 1_555
O3 Sr7 2.706378 1_455
O4 Y0 2.501108 1_555
O4 Sr8 2.672981 1_555
O4 Sr0 2.706378 1_565
O5 Y1 2.501108 1_455
O5 Sr9 2.672981 1_555
O5 Sr1 2.706378 1_455
O6 Y2 2.501108 1_555
O6 Sr10 2.672981 1_555
O6 Sr2 2.706378 1_545
O7 Y3 2.501108 1_655
O7 Sr11 2.672981 1_555
O7 Sr3 2.706378 1_655
O8 Y0 2.276805 1_555
O8 Sr3 2.491910 1_555
O8 Sr4 2.580398 1_555
O9 Y1 2.276805 1_556
O9 Sr2 2.491910 1_555
O9 Sr5 2.580398 1_655
O10 Y2 2.276792 1_554
O10 Sr1 2.491919 1_555
O10 Sr6 2.580406 1_555
O11 Y3 2.276805 1_555
O11 Sr0 2.491910 1_555
O11 Sr7 2.580398 1_455
O12 Y4 2.276805 1_555
O12 Sr7 2.491910 1_555
O12 Sr0 2.580398 1_555
O13 Y5 2.276792 1_554
O13 Sr6 2.491919 1_555
O13 Sr1 2.580406 1_455
O14 Y6 2.276805 1_556
O14 Sr5 2.491910 1_555
O14 Sr2 2.580398 1_555
O15 Y7 2.276805 1_555
O15 Sr4 2.491910 1_555
O15 Sr3 2.580398 1_655
O16 Y7 2.318104 1_455
O16 Y3 2.515918 1_565
O16 Sr0 2.637142 1_565
O17 Y6 2.318104 1_555
O17 Y2 2.515918 1_554
O17 Sr1 2.637142 1_555
O18 Y5 2.318104 1_655
O18 Y1 2.515918 1_546
O18 Sr2 2.637142 1_545
O19 Y4 2.318104 1_555
O19 Y0 2.515918 1_555
O19 Sr3 2.637142 1_555
O20 Y3 2.318104 1_655
O20 Y7 2.515918 1_545
O20 Sr4 2.637142 1_545
O21 Y2 2.318104 1_555
O21 Y6 2.515918 1_556
O21 Sr5 2.637142 1_555
O22 Y1 2.318104 1_455
O22 Y5 2.515918 1_564
O22 Sr6 2.637142 1_565
O23 Y0 2.318104 1_555
O23 Y4 2.515918 1_555
O23 Sr7 2.637142 1_555
O24 Sr9 2.516631 1_555
O24 Sr0 2.708155 1_555
O24 Sr6 2.708155 1_555
O24 Sr7 3.029056 1_455
O24 Sr1 3.029056 1_455
O25 Sr8 2.516631 1_545
O25 Sr7 2.708155 1_555
O25 Sr1 2.708155 1_555
O25 Sr0 3.029056 1_555
O25 Sr6 3.029056 1_555
O26 Sr11 2.516631 1_555
O26 Sr2 2.708155 1_555
O26 Sr4 2.708155 1_555
O26 Sr5 3.029056 1_655
O26 Sr3 3.029056 1_655
O27 Sr10 2.516631 1_565
O27 Sr3 2.708155 1_555
O27 Sr5 2.708155 1_555
O27 Sr2 3.029056 1_555
O27 Sr4 3.029056 1_555
O28 Y7 2.336426 1_545
O28 Sr8 2.578912 1_545
O28 Sr0 2.979846 1_655
O28 Sr7 2.996964 1_555
O29 Y6 2.336426 1_555
O29 Sr9 2.578912 1_555
O29 Sr1 2.979846 1_555
O29 Sr6 2.996964 1_555
O30 Y5 2.336426 1_565
O30 Sr10 2.578912 1_565
O30 Sr2 2.979846 1_455
O30 Sr5 2.996964 1_555
O31 Y4 2.336426 1_555
O31 Sr11 2.578912 1_555
O31 Sr3 2.979846 1_555
O31 Sr4 2.996964 1_555
O32 Y3 2.336426 1_565
O32 Sr10 2.578912 1_565
O32 Sr4 2.979846 1_455
O32 Sr3 2.996964 1_555
O33 Y2 2.336426 1_555
O33 Sr11 2.578912 1_555
O33 Sr5 2.979846 1_555
O33 Sr2 2.996964 1_555
O34 Y1 2.336426 1_545
O34 Sr8 2.578912 1_545
O34 Sr6 2.979846 1_655
O34 Sr1 2.996964 1_555
O35 Y0 2.336426 1_555
O35 Sr9 2.578912 1_555
O35 Sr7 2.979846 1_555
O35 Sr0 2.996964 1_555
O36 Y0 2.455612 1_555
O36 Y7 2.487640 1_555
O36 Sr8 2.548556 1_555
O37 Y1 2.455612 1_455
O37 Y6 2.487640 1_555
O37 Sr9 2.548556 1_555
O38 Y2 2.455612 1_555
O38 Y5 2.487640 1_555
O38 Sr10 2.548556 1_555
O39 Y3 2.455612 1_655
O39 Y4 2.487640 1_555
O39 Sr11 2.548556 1_555
O40 Y4 2.455612 1_555
O40 Y3 2.487640 1_555
O40 Sr10 2.548556 1_555
O41 Y5 2.455612 1_655
O41 Y2 2.487640 1_555
O41 Sr11 2.548556 1_555
O42 Y6 2.455612 1_555
O42 Y1 2.487640 1_555
O42 Sr8 2.548556 1_555
O43 Y7 2.455612 1_455
O43 Y0 2.487640 1_555
O43 Sr9 2.548556 1_555
O44 Sr0 2.430446 1_565
O44 Sr6 2.430446 1_565
O44 Sr8 2.437208 1_555
O45 Sr7 2.430446 1_555
O45 Sr1 2.430446 1_555
O45 Sr9 2.437208 1_655
O46 Sr4 2.430446 1_545
O46 Sr2 2.430446 1_545
O46 Sr10 2.437208 1_555
O47 Sr3 2.430446 1_555
O47 Sr5 2.430446 1_555
O47 Sr11 2.437208 1_455
