# generated using pymatgen
data_PrMg(BiO3)2
_symmetry_space_group_name_H-M   'P 1'
_cell_length_a   8.43650062
_cell_length_b   8.43650062
_cell_length_c   8.43650062
_cell_angle_alpha   90.00000000
_cell_angle_beta   90.00000000
_cell_angle_gamma   90.00000000
_symmetry_Int_Tables_number   1
_chemical_formula_structural   PrMg(BiO3)2
_chemical_formula_sum   'Pr4 Mg4 Bi8 O24'
_cell_volume   600.46407371
_cell_formula_units_Z   4
loop_
 _symmetry_equiv_pos_site_id
 _symmetry_equiv_pos_as_xyz
  1  'x, y, z'
loop_
 _atom_site_type_symbol
 _atom_site_label
 _atom_site_symmetry_multiplicity
 _atom_site_fract_x
 _atom_site_fract_y
 _atom_site_fract_z
 _atom_site_occupancy
  Pr  Pr0  1  0.25000000  0.25000000  0.25000000  1
  Pr  Pr1  1  0.25000000  0.75000000  0.75000000  1
  Pr  Pr2  1  0.75000000  0.25000000  0.75000000  1
  Pr  Pr3  1  0.75000000  0.75000000  0.25000000  1
  Mg  Mg0  1  0.75000000  0.75000000  0.75000000  1
  Mg  Mg1  1  0.75000000  0.25000000  0.25000000  1
  Mg  Mg2  1  0.25000000  0.75000000  0.25000000  1
  Mg  Mg3  1  0.25000000  0.25000000  0.75000000  1
  Bi  Bi0  1  0.50000000  0.50000000  0.50000000  1
  Bi  Bi1  1  0.00000000  -0.00000000  0.00000000  1
  Bi  Bi2  1  0.00000000  -0.00000000  0.50000000  1
  Bi  Bi3  1  0.00000000  0.50000000  0.00000000  1
  Bi  Bi4  1  0.50000000  -0.00000000  0.00000000  1
  Bi  Bi5  1  0.50000000  0.50000000  0.00000000  1
  Bi  Bi6  1  0.50000000  -0.00000000  0.50000000  1
  Bi  Bi7  1  0.00000000  0.50000000  0.50000000  1
  O  O0  1  0.19959455  0.32189511  0.51557534  1
  O  O1  1  0.19959455  0.67810489  0.48442466  1
  O  O2  1  0.80040545  0.32189511  0.48442466  1
  O  O3  1  0.80040545  0.67810489  0.51557534  1
  O  O4  1  0.32189511  0.51557534  0.19959455  1
  O  O5  1  0.67810489  0.48442466  0.19959455  1
  O  O6  1  0.32189511  0.48442466  0.80040545  1
  O  O7  1  0.67810489  0.51557534  0.80040545  1
  O  O8  1  0.51557534  0.19959455  0.32189511  1
  O  O9  1  0.48442466  0.19959455  0.67810489  1
  O  O10  1  0.48442466  0.80040545  0.32189511  1
  O  O11  1  0.51557534  0.80040545  0.67810489  1
  O  O12  1  0.30040545  0.17810489  0.98442466  1
  O  O13  1  0.30040545  0.82189511  0.01557534  1
  O  O14  1  0.69959455  0.17810489  0.01557534  1
  O  O15  1  0.69959455  0.82189511  0.98442466  1
  O  O16  1  0.17810489  0.98442466  0.30040545  1
  O  O17  1  0.82189511  0.01557534  0.30040545  1
  O  O18  1  0.17810489  0.01557534  0.69959455  1
  O  O19  1  0.82189511  0.98442466  0.69959455  1
  O  O20  1  0.98442466  0.30040545  0.17810489  1
  O  O21  1  0.01557534  0.30040545  0.82189511  1
  O  O22  1  0.01557534  0.69959455  0.17810489  1
  O  O23  1  0.98442466  0.69959455  0.82189511  1
loop_
_geom_bond_atom_site_label_1
_geom_bond_atom_site_label_2
_geom_bond_distance
_geom_bond_site_symmetry_2
Mg0 O3 2.111900 1_555
Mg0 O7 2.111900 1_555
Mg0 O11 2.111900 1_555
Mg0 O15 2.111900 1_555
Mg0 O19 2.111900 1_555
Mg0 O23 2.111900 1_555
Mg1 O8 2.111900 1_555
Mg1 O14 2.111900 1_555
Mg1 O2 2.111900 1_555
Mg1 O20 2.111900 1_555
Mg1 O17 2.111900 1_555
Mg1 O5 2.111900 1_555
Mg2 O4 2.111900 1_555
Mg2 O22 2.111900 1_555
Mg2 O10 2.111900 1_555
Mg2 O1 2.111900 1_555
Mg2 O16 2.111900 1_555
Mg2 O13 2.111900 1_555
Mg3 O0 2.111900 1_555
Mg3 O6 2.111900 1_555
Mg3 O18 2.111900 1_555
Mg3 O9 2.111900 1_555
Mg3 O21 2.111900 1_555
Mg3 O12 2.111900 1_555
Bi2 O17 2.260635 1_455
Bi2 O16 2.260635 1_545
Bi2 O19 2.260635 1_445
Bi2 O18 2.260635 1_555
Bi3 O21 2.260635 1_554
Bi3 O20 2.260635 1_455
Bi3 O23 2.260635 1_454
Bi3 O22 2.260635 1_555
Bi4 O13 2.260635 1_545
Bi4 O15 2.260635 1_544
Bi4 O12 2.260635 1_554
Bi4 O14 2.260635 1_555
Bi5 O7 2.260635 1_554
Bi5 O5 2.260635 1_555
Bi5 O6 2.260635 1_554
Bi5 O4 2.260635 1_555
Bi6 O11 2.260635 1_545
Bi6 O9 2.260635 1_555
Bi6 O10 2.260635 1_545
Bi6 O8 2.260635 1_555
Bi7 O1 2.260635 1_555
Bi7 O3 2.260635 1_455
Bi7 O0 2.260635 1_555
Bi7 O2 2.260635 1_455
O0 Pr0 2.359807 1_555
O1 Pr1 2.359807 1_555
O2 Pr2 2.359807 1_555
O3 Pr3 2.359807 1_555
O4 Pr0 2.359807 1_555
O5 Pr3 2.359807 1_555
O6 Pr1 2.359807 1_555
O7 Pr2 2.359807 1_555
O8 Pr0 2.359807 1_555
O9 Pr2 2.359807 1_555
O10 Pr3 2.359807 1_555
O11 Pr1 2.359807 1_555
O12 Pr0 2.359807 1_556
O13 Pr1 2.359807 1_554
O14 Pr2 2.359807 1_554
O15 Pr3 2.359807 1_556
O16 Pr0 2.359807 1_565
O17 Pr3 2.359807 1_545
O18 Pr1 2.359807 1_545
O19 Pr2 2.359807 1_565
O20 Pr0 2.359807 1_655
O21 Pr2 2.359807 1_455
O22 Pr3 2.359807 1_455
O23 Pr1 2.359807 1_655
