# generated using pymatgen
data_LiB9
_symmetry_space_group_name_H-M   'P 1'
_cell_length_a   5.01192300
_cell_length_b   5.74214797
_cell_length_c   5.74214797
_cell_angle_alpha   119.99999960
_cell_angle_beta   90.00000000
_cell_angle_gamma   90.00000000
_symmetry_Int_Tables_number   1
_chemical_formula_structural   LiB9
_chemical_formula_sum   'Li2 B18'
_cell_volume   143.11454766
_cell_formula_units_Z   2
loop_
 _symmetry_equiv_pos_site_id
 _symmetry_equiv_pos_as_xyz
  1  'x, y, z'
loop_
 _atom_site_type_symbol
 _atom_site_label
 _atom_site_symmetry_multiplicity
 _atom_site_fract_x
 _atom_site_fract_y
 _atom_site_fract_z
 _atom_site_occupancy
  Li  Li0  1  0.58415500  0.00000000  0.00000000  1
  Li  Li1  1  0.08415500  0.00000000  0.00000000  1
  B  B0  1  0.31250600  0.37152500  0.00000000  1
  B  B1  1  0.31250600  0.62847500  0.62847500  1
  B  B2  1  0.31250600  0.00000000  0.37152500  1
  B  B3  1  0.81250600  0.62847500  0.00000000  1
  B  B4  1  0.81250600  0.37152500  0.37152500  1
  B  B5  1  0.81250600  0.00000000  0.62847500  1
  B  B6  1  0.47255500  0.52645300  0.83082200  1
  B  B7  1  0.47255500  0.30437000  0.47354700  1
  B  B8  1  0.47255500  0.16917800  0.69563000  1
  B  B9  1  0.47255500  0.69563000  0.16917800  1
  B  B10  1  0.47255500  0.83082200  0.52645300  1
  B  B11  1  0.47255500  0.47354700  0.30437000  1
  B  B12  1  0.97255500  0.47354700  0.16917800  1
  B  B13  1  0.97255500  0.69563000  0.52645300  1
  B  B14  1  0.97255500  0.83082200  0.30437000  1
  B  B15  1  0.97255500  0.30437000  0.83082200  1
  B  B16  1  0.97255500  0.16917800  0.47354700  1
  B  B17  1  0.97255500  0.52645300  0.69563000  1
loop_
_geom_bond_atom_site_label_1
_geom_bond_atom_site_label_2
_geom_bond_distance
_geom_bond_site_symmetry_2
Li0 Li1 2.505962 1_655
Li0 Li1 2.505962 1_555
B0 B8 1.737054 1_554
B0 B11 1.737055 1_555
B0 B9 1.800772 1_555
B0 B6 1.800776 1_554
B0 B12 1.902830 1_455
B0 B15 1.902830 1_454
B0 Li1 2.420954 1_555
B0 Li0 2.530776 1_555
B1 B6 1.737050 1_555
B1 B10 1.737050 1_555
B1 B7 1.800772 1_555
B1 B11 1.800772 1_555
B1 B13 1.902828 1_455
B1 B17 1.902828 1_455
B1 Li1 2.420954 1_566
B1 Li0 2.530776 1_566
B2 B9 1.737054 1_545
B2 B7 1.737055 1_555
B2 B8 1.800772 1_555
B2 Li1 2.420954 1_555
B2 Li0 2.530776 1_555
B3 B6 1.902830 1_554
B3 B9 1.902830 1_555
B3 Li0 2.420954 1_565
B3 Li1 2.530776 1_665
B4 B7 1.902828 1_555
B4 Li0 2.420954 1_555
B4 Li1 2.530776 1_655
B5 B8 1.902830 1_555
B5 Li0 2.420954 1_556
B5 Li1 2.530776 1_656
B6 B9 1.682592 1_556
B6 B8 1.794103 1_555
B6 B7 1.794103 1_555
B6 Li0 2.451316 1_566
B7 B8 1.794103 1_555
B7 Li0 2.451317 1_555
B8 Li0 2.451321 1_556
B9 Li0 2.451321 1_565
B10 B8 1.682592 1_565
B10 B9 1.794103 1_555
B10 B11 1.794103 1_555
B10 B2 1.800776 1_565
B10 B5 1.902830 1_565
B10 Li0 2.451316 1_566
B11 B7 1.682582 1_555
B11 B9 1.794103 1_555
B11 B4 1.902828 1_555
B11 Li0 2.451317 1_555
B12 B15 1.682592 1_554
B12 B4 1.737050 1_555
B12 B14 1.794103 1_555
B12 B13 1.794103 1_555
B12 B3 1.800776 1_555
B12 Li1 2.451316 1_655
B13 B17 1.682582 1_555
B13 B5 1.737055 1_565
B13 B14 1.794103 1_555
B13 B4 1.800772 1_555
B13 Li1 2.451317 1_666
B14 B16 1.682592 1_565
B14 B3 1.737054 1_555
B14 B5 1.800772 1_565
B14 B2 1.902830 1_665
B14 Li1 2.451321 1_665
B15 B5 1.737054 1_555
B15 B17 1.794103 1_555
B15 B16 1.794103 1_555
B15 B3 1.800772 1_556
B15 Li1 2.451321 1_656
B16 B4 1.737050 1_555
B16 B17 1.794103 1_555
B16 B5 1.800776 1_555
B16 B2 1.902830 1_655
B16 Li1 2.451316 1_655
B17 B3 1.737055 1_556
B17 B4 1.800772 1_555
B17 Li1 2.451317 1_666
