# generated using pymatgen
data_Ce2(Al3Rh)3
_symmetry_space_group_name_H-M   'P 1'
_cell_length_a   7.59494068
_cell_length_b   7.59494068
_cell_length_c   9.43164684
_cell_angle_alpha   90.00000000
_cell_angle_beta   90.00000000
_cell_angle_gamma   119.40500228
_symmetry_Int_Tables_number   1
_chemical_formula_structural   Ce2(Al3Rh)3
_chemical_formula_sum   'Ce4 Al18 Rh6'
_cell_volume   473.95781413
_cell_formula_units_Z   2
loop_
 _symmetry_equiv_pos_site_id
 _symmetry_equiv_pos_as_xyz
  1  'x, y, z'
loop_
 _atom_site_type_symbol
 _atom_site_label
 _atom_site_symmetry_multiplicity
 _atom_site_fract_x
 _atom_site_fract_y
 _atom_site_fract_z
 _atom_site_occupancy
  Ce  Ce0  1  0.99676492  0.67144078  0.25000000  1
  Ce  Ce1  1  0.00323508  0.32855922  0.75000000  1
  Ce  Ce2  1  0.67144078  0.99676492  0.25000000  1
  Ce  Ce3  1  0.32855922  0.00323508  0.75000000  1
  Al  Al0  1  0.00355972  0.33561066  0.07481058  1
  Al  Al1  1  0.99644028  0.66438934  0.92518942  1
  Al  Al2  1  0.99644028  0.66438934  0.57481058  1
  Al  Al3  1  0.33561066  0.00355972  0.42518942  1
  Al  Al4  1  0.00355972  0.33561066  0.42518942  1
  Al  Al5  1  0.66438934  0.99644028  0.57481058  1
  Al  Al6  1  0.66438934  0.99644028  0.92518942  1
  Al  Al7  1  0.33561066  0.00355972  0.07481058  1
  Al  Al8  1  0.33450189  0.33450189  0.54534077  1
  Al  Al9  1  0.66549811  0.66549811  0.45465923  1
  Al  Al10  1  0.66549811  0.66549811  0.04534077  1
  Al  Al11  1  0.33450189  0.33450189  0.95465923  1
  Al  Al12  1  0.13107396  0.13107396  0.25000000  1
  Al  Al13  1  0.86892604  0.86892604  0.75000000  1
  Al  Al14  1  0.34220576  0.54811565  0.25000000  1
  Al  Al15  1  0.65779424  0.45188435  0.75000000  1
  Al  Al16  1  0.54811565  0.34220576  0.25000000  1
  Al  Al17  1  0.45188435  0.65779424  0.75000000  1
  Rh  Rh0  1  0.67172665  0.32827335  0.00000000  1
  Rh  Rh1  1  0.32827335  0.67172665  0.00000000  1
  Rh  Rh2  1  0.32827335  0.67172665  0.50000000  1
  Rh  Rh3  1  0.67172665  0.32827335  0.50000000  1
  Rh  Rh4  1  -0.00000000  0.00000000  0.00000000  1
  Rh  Rh5  1  -0.00000000  0.00000000  0.50000000  1
loop_
_geom_bond_atom_site_label_1
_geom_bond_atom_site_label_2
_geom_bond_distance
_geom_bond_site_symmetry_2
Ce0 Rh4 3.424486 1_665
Ce0 Rh5 3.424486 1_665
Ce0 Rh1 3.448715 1_655
Ce0 Rh2 3.448715 1_655
Ce0 Rh3 3.482657 1_555
Ce0 Rh0 3.482657 1_555
Ce1 Rh4 3.424486 1_556
Ce1 Rh5 3.424486 1_555
Ce1 Rh0 3.448715 1_456
Ce1 Rh3 3.448715 1_455
Ce1 Rh1 3.482657 1_556
Ce1 Rh2 3.482657 1_555
Ce2 Rh4 3.424486 1_665
Ce2 Rh5 3.424486 1_665
Ce2 Rh0 3.448715 1_565
Ce2 Rh3 3.448715 1_565
Ce2 Rh1 3.482657 1_555
Ce2 Rh2 3.482657 1_555
Ce3 Rh5 3.424486 1_555
Ce3 Rh4 3.424486 1_556
Ce3 Rh2 3.448715 1_545
Ce3 Rh1 3.448715 1_546
Ce3 Rh0 3.482657 1_556
Ce3 Rh3 3.482657 1_555
Al0 Rh0 2.591278 1_455
Al0 Rh1 2.629553 1_555
Al0 Rh4 2.632114 1_555
Al0 Ce2 3.056368 1_445
Al0 Ce0 3.060670 1_455
Al0 Ce1 3.063947 1_554
Al1 Rh1 2.591278 1_656
Al1 Rh0 2.629553 1_556
Al1 Rh4 2.632114 1_666
Al1 Ce3 3.056368 1_665
Al1 Ce1 3.060670 1_655
Al1 Ce0 3.063947 1_556
Al2 Rh2 2.591278 1_655
Al2 Rh3 2.629553 1_555
Al2 Rh5 2.632114 1_665
Al2 Ce3 3.056368 1_665
Al2 Ce1 3.060670 1_655
Al2 Ce0 3.063947 1_555
Al3 Rh2 2.591278 1_545
Al3 Rh3 2.629553 1_555
Al3 Rh5 2.632114 1_555
Al3 Ce0 3.056368 1_445
Al3 Ce2 3.060670 1_545
Al3 Ce3 3.063947 1_555
Al4 Rh3 2.591278 1_455
Al4 Rh2 2.629553 1_555
Al4 Rh5 2.632114 1_555
Al4 Ce2 3.056368 1_445
Al4 Ce0 3.060670 1_455
Al4 Ce1 3.063947 1_555
Al5 Rh3 2.591278 1_565
Al5 Rh2 2.629553 1_555
Al5 Rh5 2.632114 1_665
Al5 Ce1 3.056368 1_665
Al5 Ce3 3.060670 1_565
Al5 Ce2 3.063947 1_555
Al6 Rh0 2.591278 1_566
Al6 Rh1 2.629553 1_556
Al6 Rh4 2.632114 1_666
Al6 Ce1 3.056368 1_665
Al6 Ce3 3.060670 1_565
Al6 Ce2 3.063947 1_556
Al7 Rh1 2.591278 1_545
Al7 Rh0 2.629553 1_555
Al7 Rh4 2.632114 1_555
Al7 Ce0 3.056368 1_445
Al7 Ce2 3.060670 1_545
Al7 Ce3 3.063947 1_554
Al8 Rh5 2.598762 1_555
Al8 Rh2 2.619893 1_555
Al8 Rh3 2.619893 1_555
Al8 Ce3 3.153807 1_555
Al8 Ce1 3.153807 1_555
Al9 Rh5 2.598762 1_665
Al9 Rh3 2.619893 1_555
Al9 Rh2 2.619893 1_555
Al9 Ce2 3.153807 1_555
Al9 Ce0 3.153807 1_555
Al10 Rh4 2.598762 1_665
Al10 Rh0 2.619893 1_555
Al10 Rh1 2.619893 1_555
Al10 Ce2 3.153807 1_555
Al10 Ce0 3.153807 1_555
Al11 Rh4 2.598762 1_556
Al11 Rh1 2.619893 1_556
Al11 Rh0 2.619893 1_556
Al11 Ce3 3.153807 1_555
Al11 Ce1 3.153807 1_555
Al12 Rh4 2.562937 1_555
Al12 Rh5 2.562937 1_555
Al12 Ce2 3.119315 1_445
Al12 Ce0 3.119315 1_445
Al13 Rh4 2.562937 1_666
Al13 Rh5 2.562937 1_665
Al13 Ce1 3.119315 1_665
Al13 Ce3 3.119315 1_665
Al14 Rh2 2.559272 1_555
Al14 Rh1 2.559272 1_555
Al14 Ce2 3.081671 1_555
Al14 Ce0 3.189617 1_455
Al15 Rh0 2.559272 1_556
Al15 Rh3 2.559272 1_555
Al15 Ce3 3.081671 1_555
Al15 Ce1 3.189617 1_655
Al16 Rh0 2.559272 1_555
Al16 Rh3 2.559272 1_555
Al16 Ce0 3.081671 1_555
Al16 Ce2 3.189617 1_545
Al17 Rh2 2.559272 1_555
Al17 Rh1 2.559272 1_556
Al17 Ce1 3.081671 1_555
Al17 Ce3 3.189617 1_565
