# generated using pymatgen
data_Ho2MnRuO7
_symmetry_space_group_name_H-M   'P 1'
_cell_length_a   7.18200800
_cell_length_b   7.18200800
_cell_length_c   7.18200800
_cell_angle_alpha   120.27189476
_cell_angle_beta   119.83747350
_cell_angle_gamma   89.90572278
_symmetry_Int_Tables_number   1
_chemical_formula_structural   Ho2MnRuO7
_chemical_formula_sum   'Ho4 Mn2 Ru2 O14'
_cell_volume   261.73095282
_cell_formula_units_Z   2
loop_
 _symmetry_equiv_pos_site_id
 _symmetry_equiv_pos_as_xyz
  1  'x, y, z'
loop_
 _atom_site_type_symbol
 _atom_site_label
 _atom_site_symmetry_multiplicity
 _atom_site_fract_x
 _atom_site_fract_y
 _atom_site_fract_z
 _atom_site_occupancy
  Ho  Ho0  1  0.00000000  0.50000000  0.00000000  1
  Ho  Ho1  1  0.00000000  0.00000000  0.50000000  1
  Ho  Ho2  1  0.00000000  0.50000000  0.50000000  1
  Ho  Ho3  1  0.50000000  0.50000000  0.00000000  1
  Mn  Mn0  1  0.50000000  0.00000000  0.00000000  1
  Mn  Mn1  1  0.50000000  0.50000000  0.50000000  1
  Ru  Ru0  1  0.50000000  0.00000000  0.50000000  1
  Ru  Ru1  1  0.00000000  0.00000000  0.00000000  1
  O  O0  1  0.83970600  0.08970600  0.75000000  1
  O  O1  1  0.41820100  0.66820100  0.75000000  1
  O  O2  1  0.83242800  0.66270900  0.74745700  1
  O  O3  1  0.41525200  0.08497100  0.75254300  1
  O  O4  1  0.83242800  0.08497100  0.16971900  1
  O  O5  1  0.41525200  0.66270900  0.33028100  1
  O  O6  1  0.16029400  0.91029400  0.25000000  1
  O  O7  1  0.58179900  0.33179900  0.25000000  1
  O  O8  1  0.16757200  0.33729100  0.25254300  1
  O  O9  1  0.58474800  0.91502900  0.24745700  1
  O  O10  1  0.16757200  0.91502900  0.83028100  1
  O  O11  1  0.58474800  0.33729100  0.66971900  1
  O  O12  1  0.87432900  0.62432900  0.25000000  1
  O  O13  1  0.12567100  0.37567100  0.75000000  1
loop_
_geom_bond_atom_site_label_1
_geom_bond_atom_site_label_2
_geom_bond_distance
_geom_bond_site_symmetry_2
Ho0 O13 2.197570 1_554
Ho0 O12 2.197570 1_455
Ho0 O6 2.419174 1_555
Ho0 O0 2.419174 1_454
Ho0 O5 2.462498 1_555
Ho0 O8 2.462498 1_555
Ho0 O2 2.462498 1_454
Ho0 O11 2.462498 1_454
Ho1 O13 2.197570 1_555
Ho1 O12 2.197570 1_445
Ho1 O6 2.419174 1_545
Ho1 O0 2.419174 1_455
Ho1 O10 2.462498 1_545
Ho1 O3 2.462498 1_555
Ho1 O4 2.462498 1_455
Ho1 O9 2.462498 1_445
Ho2 O13 2.199309 1_555
Ho2 O12 2.199309 1_455
Ho2 O2 2.449989 1_455
Ho2 O10 2.449989 1_555
Ho2 O8 2.449989 1_555
Ho2 O4 2.449989 1_455
Ho2 O1 2.482561 1_555
Ho2 O7 2.482561 1_455
Ho3 O12 2.199309 1_555
Ho3 O13 2.199309 1_554
Ho3 O11 2.449989 1_554
Ho3 O9 2.449989 1_555
Ho3 O3 2.449989 1_554
Ho3 O5 2.449989 1_555
Ho3 O1 2.482561 1_554
Ho3 O7 2.482561 1_555
Mn0 O7 1.971996 1_555
Mn0 O1 1.971996 1_544
Mn0 O3 1.979219 1_554
Mn0 O9 1.979219 1_545
Mn0 O10 1.979219 1_544
Mn0 O4 1.979219 1_555
Mn1 O1 1.971996 1_555
Mn1 O7 1.971996 1_555
Mn1 O11 1.979219 1_555
Mn1 O2 1.979219 1_555
Mn1 O5 1.979219 1_555
Mn1 O8 1.979219 1_555
O0 Ru0 2.017724 1_555
O0 Ru1 2.017724 1_656
O2 Ru1 2.003495 1_666
O3 Ru0 2.003495 1_555
O4 Ru1 2.003495 1_655
O5 Ru0 2.003495 1_565
O6 Ru0 2.017724 1_565
O6 Ru1 2.017724 1_565
O8 Ru1 2.003495 1_555
O9 Ru0 2.003495 1_565
O10 Ru1 2.003495 1_566
O11 Ru0 2.003495 1_555
