# generated using pymatgen
data_Rb3(Cr5Te8)4
_symmetry_space_group_name_H-M   'P 1'
_cell_length_a   11.14075683
_cell_length_b   13.72517756
_cell_length_c   11.88500396
_cell_angle_alpha   114.71947742
_cell_angle_beta   102.31966667
_cell_angle_gamma   100.55725809
_symmetry_Int_Tables_number   1
_chemical_formula_structural   Rb3(Cr5Te8)4
_chemical_formula_sum   'Rb3 Cr20 Te32'
_cell_volume   1534.90080159
_cell_formula_units_Z   1
loop_
 _symmetry_equiv_pos_site_id
 _symmetry_equiv_pos_as_xyz
  1  'x, y, z'
loop_
 _atom_site_type_symbol
 _atom_site_label
 _atom_site_symmetry_multiplicity
 _atom_site_fract_x
 _atom_site_fract_y
 _atom_site_fract_z
 _atom_site_occupancy
  Rb  Rb0  1  0.61968947  0.11963500  0.49994084  1
  Rb  Rb1  1  0.87500000  0.37500000  0.50000000  1
  Rb  Rb2  1  0.13031053  0.63036500  0.50005916  1
  Cr  Cr0  1  0.94490647  0.61143995  0.96392876  1
  Cr  Cr1  1  0.69417579  0.36088844  0.96319356  1
  Cr  Cr2  1  0.44451640  0.11105053  0.96173048  1
  Cr  Cr3  1  0.19583160  0.86205441  0.96360065  1
  Cr  Cr4  1  0.05582421  0.38911156  0.03680644  1
  Cr  Cr5  1  0.80509353  0.13856005  0.03607124  1
  Cr  Cr6  1  0.55416840  0.88794559  0.03639935  1
  Cr  Cr7  1  0.30548360  0.63894947  0.03826952  1
  Cr  Cr8  1  0.24326303  0.25109540  0.66196580  1
  Cr  Cr9  1  0.99240633  0.00063432  0.66157069  1
  Cr  Cr10  1  0.74239028  0.75235531  0.66273873  1
  Cr  Cr11  1  0.49358348  0.50238275  0.66250927  1
  Cr  Cr12  1  0.75759367  0.74936568  0.33842931  1
  Cr  Cr13  1  0.50673697  0.49890460  0.33803420  1
  Cr  Cr14  1  0.25641652  0.24761725  0.33749073  1
  Cr  Cr15  1  0.00760972  0.99764469  0.33726127  1
  Cr  Cr16  1  0.75017176  0.75012611  0.00012117  1
  Cr  Cr17  1  0.50028740  0.50034828  0.00045093  1
  Cr  Cr18  1  0.24971260  0.24965172  0.99954907  1
  Cr  Cr19  1  0.99982824  0.99987389  0.99987883  1
  Te  Te0  1  0.00589921  0.85304285  0.76100874  1
  Te  Te1  1  0.75607378  0.60295615  0.76101355  1
  Te  Te2  1  0.50596827  0.35284569  0.76148119  1
  Te  Te3  1  0.25603868  0.10362662  0.76245344  1
  Te  Te4  1  0.99392522  0.14704285  0.23898645  1
  Te  Te5  1  0.74409979  0.89695615  0.23899126  1
  Te  Te6  1  0.49396032  0.64637438  0.23754656  1
  Te  Te7  1  0.24403073  0.39715431  0.23851881  1
  Te  Te8  1  0.76662725  0.60209609  0.43590770  1
  Te  Te9  1  0.51624828  0.35174595  0.43556042  1
  Te  Te10  1  0.26600766  0.10103688  0.43492462  1
  Te  Te11  1  0.01674018  0.85172419  0.43510756  1
  Te  Te12  1  0.23375072  0.39825305  0.56443958  1
  Te  Te13  1  0.98337175  0.14790291  0.56409230  1
  Te  Te14  1  0.73325882  0.89827481  0.56489244  1
  Te  Te15  1  0.48399134  0.64896312  0.56507538  1
  Te  Te16  1  0.23263541  0.40151641  0.90262793  1
  Te  Te17  1  0.98234026  0.15131506  0.90216051  1
  Te  Te18  1  0.73227461  0.90213653  0.90254968  1
  Te  Te19  1  0.48233204  0.65234856  0.90286433  1
  Te  Te20  1  0.76765974  0.59868494  0.09783949  1
  Te  Te21  1  0.51736459  0.34848359  0.09737207  1
  Te  Te22  1  0.26766796  0.09765144  0.09713567  1
  Te  Te23  1  0.01772539  0.84786347  0.09745032  1
  Te  Te24  1  0.12175347  0.63241421  0.84195134  1
  Te  Te25  1  0.87091929  0.38196827  0.84135110  1
  Te  Te26  1  0.62124745  0.13219476  0.84158422  1
  Te  Te27  1  0.37179527  0.88270729  0.84187487  1
  Te  Te28  1  0.87908071  0.36803173  0.15864890  1
  Te  Te29  1  0.62824653  0.11758579  0.15804866  1
  Te  Te30  1  0.37820473  0.86729271  0.15812513  1
  Te  Te31  1  0.12875255  0.61780524  0.15841578  1
loop_
_geom_bond_atom_site_label_1
_geom_bond_atom_site_label_2
_geom_bond_distance
_geom_bond_site_symmetry_2
Rb0 Te10 3.788835 1_555
Rb0 Te14 3.792205 1_545
Rb0 Te13 3.873809 1_555
Rb0 Te9 3.882055 1_555
Rb0 Te30 3.986368 1_545
Rb0 Te26 3.987550 1_555
Rb0 Te5 4.042238 1_545
Rb0 Te2 4.044507 1_555
Rb0 Te25 4.062553 1_555
Rb0 Te29 4.073293 1_555
Rb1 Te12 3.832023 1_655
Rb1 Te9 3.832031 1_555
Rb1 Te8 3.837381 1_555
Rb1 Te13 3.837389 1_555
Rb1 Te24 4.027530 1_655
Rb1 Te29 4.027530 1_555
Rb1 Te25 4.028141 1_555
Rb1 Te28 4.028141 1_555
Rb1 Te4 4.040200 1_555
Rb1 Te1 4.040200 1_555
Rb2 Te15 3.788824 1_555
Rb2 Te11 3.792197 1_555
Rb2 Te8 3.873818 1_455
Rb2 Te12 3.882064 1_555
Rb2 Te27 3.986368 1_555
Rb2 Te31 3.987550 1_555
Rb2 Te0 4.042238 1_555
Rb2 Te7 4.044500 1_555
Rb2 Te28 4.062553 1_455
Rb2 Te24 4.073293 1_555
Cr0 Te31 2.700162 1_656
Cr0 Te25 2.724001 1_555
Cr0 Te24 2.725119 1_655
Cr0 Te1 2.786698 1_555
Cr0 Te23 2.808093 1_656
Cr0 Te20 2.812536 1_556
Cr1 Te28 2.709774 1_556
Cr1 Te26 2.715081 1_555
Cr1 Te25 2.723289 1_555
Cr1 Te2 2.775742 1_555
Cr1 Te21 2.810146 1_556
Cr1 Te20 2.824371 1_556
Cr2 Te26 2.708657 1_555
Cr2 Te27 2.711290 1_545
Cr2 Te29 2.713207 1_556
Cr2 Te3 2.761594 1_555
Cr2 Te21 2.820659 1_556
Cr2 Te22 2.823686 1_556
Cr3 Te30 2.698376 1_556
Cr3 Te27 2.714032 1_555
Cr3 Te24 2.726180 1_555
Cr3 Te0 2.787672 1_555
Cr3 Te22 2.798765 1_566
Cr3 Te23 2.823173 1_556
Cr4 Te25 2.709774 1_454
Cr4 Te31 2.715081 1_555
Cr4 Te28 2.723289 1_455
Cr4 Te7 2.775736 1_555
Cr4 Te16 2.810146 1_554
Cr4 Te17 2.824371 1_454
Cr5 Te26 2.700162 1_554
Cr5 Te28 2.724001 1_555
Cr5 Te29 2.725119 1_555
Cr5 Te4 2.786698 1_555
Cr5 Te18 2.808093 1_544
Cr5 Te17 2.812536 1_554
Cr6 Te27 2.698376 1_554
Cr6 Te30 2.714032 1_555
Cr6 Te29 2.726180 1_565
Cr6 Te5 2.787672 1_555
Cr6 Te19 2.798765 1_554
Cr6 Te18 2.823173 1_554
Cr7 Te31 2.708657 1_555
Cr7 Te30 2.711290 1_555
Cr7 Te24 2.713207 1_554
Cr7 Te6 2.761581 1_555
Cr7 Te16 2.820659 1_554
Cr7 Te19 2.823686 1_554
Cr8 Te12 2.723637 1_555
Cr8 Te10 2.724393 1_555
Cr8 Te13 2.724799 1_455
Cr8 Te2 2.749299 1_555
Cr8 Te3 2.756457 1_555
Cr8 Te16 2.784390 1_555
Cr9 Te14 2.716126 1_545
Cr9 Te11 2.721874 1_645
Cr9 Te13 2.724192 1_555
Cr9 Te0 2.749703 1_645
Cr9 Te3 2.760531 1_655
Cr9 Te17 2.782427 1_555
Cr10 Te14 2.710323 1_555
Cr10 Te15 2.710693 1_555
Cr10 Te8 2.731056 1_555
Cr10 Te0 2.755446 1_655
Cr10 Te1 2.762927 1_555
Cr10 Te18 2.771973 1_555
Cr11 Te15 2.715572 1_555
Cr11 Te9 2.726098 1_555
Cr11 Te12 2.726101 1_555
Cr11 Te1 2.745193 1_555
Cr11 Te2 2.769254 1_555
Cr11 Te19 2.782514 1_555
Cr12 Te11 2.716114 1_655
Cr12 Te14 2.721874 1_555
Cr12 Te8 2.724204 1_555
Cr12 Te5 2.749692 1_555
Cr12 Te6 2.760539 1_555
Cr12 Te20 2.782427 1_555
Cr13 Te9 2.723649 1_555
Cr13 Te15 2.724398 1_555
Cr13 Te8 2.724788 1_555
Cr13 Te7 2.749309 1_555
Cr13 Te6 2.756471 1_555
Cr13 Te21 2.784390 1_555
Cr14 Te10 2.715571 1_555
Cr14 Te9 2.726089 1_555
Cr14 Te12 2.726098 1_555
Cr14 Te4 2.745205 1_455
Cr14 Te7 2.769255 1_555
Cr14 Te22 2.782514 1_555
Cr15 Te11 2.710335 1_555
Cr15 Te10 2.710683 1_565
Cr15 Te13 2.731056 1_465
Cr15 Te5 2.755457 1_455
Cr15 Te4 2.762915 1_465
Cr15 Te23 2.771973 1_555
Cr16 Te5 2.733595 1_555
Cr16 Te1 2.736385 1_554
Cr16 Te20 2.788899 1_555
Cr16 Te23 2.790714 1_655
Cr16 Te19 2.793630 1_554
Cr16 Te18 2.795482 1_554
Cr17 Te6 2.715779 1_555
Cr17 Te2 2.735656 1_554
Cr17 Te21 2.787035 1_555
Cr17 Te20 2.789834 1_555
Cr17 Te16 2.793314 1_554
Cr17 Te19 2.795558 1_554
Cr18 Te3 2.715770 1_555
Cr18 Te7 2.735660 1_556
Cr18 Te16 2.787035 1_555
Cr18 Te17 2.789834 1_455
Cr18 Te21 2.793314 1_556
Cr18 Te22 2.795558 1_556
Cr19 Te0 2.733595 1_655
Cr19 Te4 2.736385 1_566
Cr19 Te17 2.788899 1_565
Cr19 Te18 2.790714 1_555
Cr19 Te22 2.793630 1_666
Cr19 Te23 2.795482 1_656
