# generated using pymatgen
data_Li5Co3O8
_symmetry_space_group_name_H-M   'P 1'
_cell_length_a   2.98765300
_cell_length_b   5.02592963
_cell_length_c   9.73237933
_cell_angle_alpha   76.96137330
_cell_angle_beta   88.16476206
_cell_angle_gamma   88.87858665
_symmetry_Int_Tables_number   1
_chemical_formula_structural   Li5Co3O8
_chemical_formula_sum   'Li5 Co3 O8'
_cell_volume   142.28662610
_cell_formula_units_Z   1
loop_
 _symmetry_equiv_pos_site_id
 _symmetry_equiv_pos_as_xyz
  1  'x, y, z'
loop_
 _atom_site_type_symbol
 _atom_site_label
 _atom_site_symmetry_multiplicity
 _atom_site_fract_x
 _atom_site_fract_y
 _atom_site_fract_z
 _atom_site_occupancy
  Li  Li0  1  0.00000000  0.00000000  0.00000000  1
  Li  Li1  1  0.49432400  0.74663700  0.25067000  1
  Li  Li2  1  0.00000000  0.50000000  0.50000000  1
  Li  Li3  1  0.50567600  0.25336300  0.74933000  1
  Li  Li4  1  0.50000000  0.50000000  0.00000000  1
  Co  Co0  1  0.00119300  0.74390800  0.76002600  1
  Co  Co1  1  0.99880700  0.25609200  0.23997400  1
  Co  Co2  1  0.50000000  0.00000000  0.50000000  1
  O  O0  1  0.52950100  0.86813300  0.86574100  1
  O  O1  1  0.00025400  0.58757600  0.13944800  1
  O  O2  1  0.53378000  0.35423900  0.37577000  1
  O  O3  1  0.99084700  0.09139400  0.62860100  1
  O  O4  1  0.47049900  0.13186700  0.13425900  1
  O  O5  1  0.00915300  0.90860600  0.37139900  1
  O  O6  1  0.46622000  0.64576100  0.62423000  1
  O  O7  1  0.99974600  0.41242400  0.86055200  1
loop_
_geom_bond_atom_site_label_1
_geom_bond_atom_site_label_2
_geom_bond_distance
_geom_bond_site_symmetry_2
Li0 O4 2.160422 1_555
Li0 O0 2.160422 1_444
Li0 O4 2.206021 1_455
Li0 O0 2.206021 1_544
Li0 O7 2.206607 1_454
Li0 O1 2.206607 1_545
Li1 O4 2.011788 1_565
Li1 O2 2.074209 1_555
Li1 O1 2.081807 1_655
Li1 O5 2.102539 1_555
Li1 O1 2.128071 1_555
Li1 O5 2.237285 1_655
Li2 O6 2.118050 1_555
Li2 O2 2.118050 1_455
Li2 O5 2.150547 1_555
Li2 O3 2.150547 1_455
Li2 O6 2.184524 1_455
Li2 O2 2.184524 1_555
Li3 O0 2.011788 1_545
Li3 O6 2.074209 1_555
Li3 O7 2.081807 1_455
Li3 O3 2.102539 1_555
Li3 O7 2.128071 1_555
Li3 O3 2.237285 1_455
Li4 O0 2.011605 1_554
Li4 O4 2.011605 1_555
Li4 O1 2.092581 1_555
Li4 O7 2.092581 1_554
Li4 O1 2.166705 1_655
Li4 O7 2.166705 1_454
Co0 O7 1.731288 1_455
Co0 O0 1.896546 1_455
Co0 O3 1.918210 1_465
Co0 O6 2.017421 1_555
Co0 O0 2.090967 1_555
Co0 O6 2.237169 1_455
Co1 O1 1.731288 1_655
Co1 O4 1.896546 1_655
Co1 O5 1.918210 1_645
Co1 O2 2.017421 1_555
Co1 O4 2.090967 1_555
Co1 O2 2.237169 1_655
Co2 O2 1.915644 1_555
Co2 O6 1.915644 1_545
Co2 O3 2.049770 1_455
Co2 O5 2.049770 1_645
Co2 O3 2.081197 1_555
Co2 O5 2.081197 1_545
