# generated using pymatgen
data_SrCa3Mn4O10
_symmetry_space_group_name_H-M   'P 1'
_cell_length_a   10.99701934
_cell_length_b   11.18815883
_cell_length_c   17.27463516
_cell_angle_alpha   108.85355296
_cell_angle_beta   108.49040604
_cell_angle_gamma   89.99939949
_symmetry_Int_Tables_number   1
_chemical_formula_structural   SrCa3Mn4O10
_chemical_formula_sum   'Sr8 Ca24 Mn32 O80'
_cell_volume   1895.06694535
_cell_formula_units_Z   8
loop_
 _symmetry_equiv_pos_site_id
 _symmetry_equiv_pos_as_xyz
  1  'x, y, z'
loop_
 _atom_site_type_symbol
 _atom_site_label
 _atom_site_symmetry_multiplicity
 _atom_site_fract_x
 _atom_site_fract_y
 _atom_site_fract_z
 _atom_site_occupancy
  Sr  Sr0  1  0.30816100  0.56103000  0.60994100  1
  Sr  Sr1  1  0.80638600  0.05953200  0.60980000  1
  Sr  Sr2  1  0.19831800  0.44098400  0.89238200  1
  Sr  Sr3  1  0.05708700  0.29860600  0.60869700  1
  Sr  Sr4  1  0.05778200  0.80039600  0.61001000  1
  Sr  Sr5  1  0.55790900  0.29934000  0.61010800  1
  Sr  Sr6  1  0.44823700  0.20031800  0.89053500  1
  Sr  Sr7  1  0.94621400  0.19968700  0.38737000  1
  Ca  Ca0  1  0.30574400  0.06336100  0.10697500  1
  Ca  Ca1  1  0.30610200  0.06034100  0.60434700  1
  Ca  Ca2  1  0.30621600  0.56415100  0.10843100  1
  Ca  Ca3  1  0.80515900  0.06250600  0.10520500  1
  Ca  Ca4  1  0.80616400  0.56341600  0.10709800  1
  Ca  Ca5  1  0.80533100  0.56266400  0.60609100  1
  Ca  Ca6  1  0.19944100  0.43674000  0.39227900  1
  Ca  Ca7  1  0.19942700  0.93552700  0.39237900  1
  Ca  Ca8  1  0.19964900  0.93821000  0.89569300  1
  Ca  Ca9  1  0.69811900  0.43726000  0.39280300  1
  Ca  Ca10  1  0.70112400  0.43808800  0.89556600  1
  Ca  Ca11  1  0.69827600  0.93557000  0.39199800  1
  Ca  Ca12  1  0.70021500  0.93692300  0.89403000  1
  Ca  Ca13  1  0.05627900  0.29372600  0.10749000  1
  Ca  Ca14  1  0.05589400  0.79347900  0.10696500  1
  Ca  Ca15  1  0.55664800  0.29388300  0.10808700  1
  Ca  Ca16  1  0.55642500  0.79373600  0.10717400  1
  Ca  Ca17  1  0.55653100  0.79418900  0.60625800  1
  Ca  Ca18  1  0.44892900  0.20610500  0.39172000  1
  Ca  Ca19  1  0.44908700  0.70624100  0.39265400  1
  Ca  Ca20  1  0.45109800  0.70731300  0.89532300  1
  Ca  Ca21  1  0.95015200  0.20686600  0.89528500  1
  Ca  Ca22  1  0.94859400  0.70501900  0.39171700  1
  Ca  Ca23  1  0.94886000  0.70763900  0.89438700  1
  Mn  Mn0  1  0.00608100  0.00022400  0.00044800  1
  Mn  Mn1  1  0.00466100  0.99792200  0.49784000  1
  Mn  Mn2  1  0.00576800  0.50114000  0.00187500  1
  Mn  Mn3  1  0.00317400  0.50020000  0.49736300  1
  Mn  Mn4  1  0.50683100  0.00003700  0.00158300  1
  Mn  Mn5  1  0.50380600  0.99835500  0.49774800  1
  Mn  Mn6  1  0.50761700  0.50180600  0.00229000  1
  Mn  Mn7  1  0.50493300  0.50013800  0.49800700  1
  Mn  Mn8  1  0.25604700  0.25069700  0.00247200  1
  Mn  Mn9  1  0.25453000  0.24765800  0.49696500  1
  Mn  Mn10  1  0.25628900  0.75200000  0.00165600  1
  Mn  Mn11  1  0.25517900  0.74968700  0.49758900  1
  Mn  Mn12  1  0.75669500  0.25058800  0.00084300  1
  Mn  Mn13  1  0.75286400  0.24991900  0.49785100  1
  Mn  Mn14  1  0.75620800  0.75033600  0.00032700  1
  Mn  Mn15  1  0.75330900  0.74775300  0.49731400  1
  Mn  Mn16  1  0.11144200  0.09444500  0.24741700  1
  Mn  Mn17  1  0.11209200  0.09521300  0.75326600  1
  Mn  Mn18  1  0.11005700  0.59623200  0.24979400  1
  Mn  Mn19  1  0.10917100  0.60045700  0.75115300  1
  Mn  Mn20  1  0.60750800  0.09568500  0.24917500  1
  Mn  Mn21  1  0.61092900  0.09412800  0.74951600  1
  Mn  Mn22  1  0.60934800  0.59602800  0.24947500  1
  Mn  Mn23  1  0.61498700  0.60169500  0.75297300  1
  Mn  Mn24  1  0.35916800  0.40363800  0.24998000  1
  Mn  Mn25  1  0.36612600  0.40479800  0.75195500  1
  Mn  Mn26  1  0.35906500  0.90305600  0.24989600  1
  Mn  Mn27  1  0.36404300  0.90324200  0.75047700  1
  Mn  Mn28  1  0.85858300  0.40583900  0.24873100  1
  Mn  Mn29  1  0.85981900  0.40686700  0.75260800  1
  Mn  Mn30  1  0.85876300  0.89983300  0.24744100  1
  Mn  Mn31  1  0.85941000  0.90088500  0.75214200  1
  O  O0  1  0.12723800  0.11658300  0.48925200  1
  O  O1  1  0.12326600  0.11986100  0.98899200  1
  O  O2  1  0.12239500  0.62093600  0.48555200  1
  O  O3  1  0.12254700  0.62549900  0.99163000  1
  O  O4  1  0.61985000  0.11850900  0.48476300  1
  O  O5  1  0.62801300  0.11904500  0.99136500  1
  O  O6  1  0.62334500  0.61976900  0.48758400  1
  O  O7  1  0.62545900  0.62147500  0.98894500  1
  O  O8  1  0.13437600  0.37965800  0.01451600  1
  O  O9  1  0.13267100  0.37788200  0.50537300  1
  O  O10  1  0.13606000  0.88112100  0.01247200  1
  O  O11  1  0.13608500  0.87961200  0.50721800  1
  O  O12  1  0.63824600  0.38208100  0.01400200  1
  O  O13  1  0.63479300  0.38204900  0.50823500  1
  O  O14  1  0.63565300  0.87918600  0.01231000  1
  O  O15  1  0.62998200  0.87408400  0.50743900  1
  O  O16  1  0.37153300  0.11458600  0.48576800  1
  O  O17  1  0.37344500  0.11652000  0.99240300  1
  O  O18  1  0.37501200  0.61954500  0.48667800  1
  O  O19  1  0.37838600  0.62372800  0.99237500  1
  O  O20  1  0.87064900  0.11537700  0.48813000  1
  O  O21  1  0.87455600  0.11791900  0.98819500  1
  O  O22  1  0.87052000  0.61686700  0.48646400  1
  O  O23  1  0.87347800  0.61803400  0.98841200  1
  O  O24  1  0.38720800  0.38441000  0.01572600  1
  O  O25  1  0.38285700  0.37871900  0.50511100  1
  O  O26  1  0.38612900  0.88228400  0.01229900  1
  O  O27  1  0.38493900  0.88076900  0.51020200  1
  O  O28  1  0.88562900  0.38235500  0.01265400  1
  O  O29  1  0.87930600  0.38461100  0.50829800  1
  O  O30  1  0.88609200  0.88226400  0.01239300  1
  O  O31  1  0.88163000  0.87687900  0.50464500  1
  O  O32  1  0.07984500  0.09387500  0.13103600  1
  O  O33  1  0.07864700  0.08275600  0.63477000  1
  O  O34  1  0.07830100  0.59462500  0.13246600  1
  O  O35  1  0.07354200  0.58633300  0.63274600  1
  O  O36  1  0.57912800  0.09343900  0.13291200  1
  O  O37  1  0.57550300  0.08560500  0.63100900  1
  O  O38  1  0.58016700  0.59521900  0.13327100  1
  O  O39  1  0.57816800  0.59153900  0.63281900  1
  O  O40  1  0.44557100  0.40676600  0.36554100  1
  O  O41  1  0.44784700  0.41245000  0.86943400  1
  O  O42  1  0.44436700  0.90484700  0.36544000  1
  O  O43  1  0.44916600  0.90812600  0.86785500  1
  O  O44  1  0.94391900  0.41320900  0.36423800  1
  O  O45  1  0.94396800  0.40576200  0.86810300  1
  O  O46  1  0.94534600  0.90731100  0.36421500  1
  O  O47  1  0.94654600  0.90457000  0.86894400  1
  O  O48  1  0.32876700  0.28908900  0.13457000  1
  O  O49  1  0.32639000  0.29139900  0.63335000  1
  O  O50  1  0.32913900  0.79039700  0.13438100  1
  O  O51  1  0.32703300  0.79502500  0.63224500  1
  O  O52  1  0.82992100  0.28960700  0.13407100  1
  O  O53  1  0.82336700  0.29799900  0.63451500  1
  O  O54  1  0.82747900  0.78653100  0.13175400  1
  O  O55  1  0.82375900  0.79147800  0.63270700  1
  O  O56  1  0.19382100  0.20872000  0.36448300  1
  O  O57  1  0.19374800  0.20699300  0.86877800  1
  O  O58  1  0.19670900  0.71130400  0.36680900  1
  O  O59  1  0.19548100  0.71091900  0.86763300  1
  O  O60  1  0.69007600  0.21065800  0.36522600  1
  O  O61  1  0.69495500  0.21070000  0.86696100  1
  O  O62  1  0.69395100  0.70934300  0.36559400  1
  O  O63  1  0.69908000  0.71546700  0.86965300  1
  O  O64  1  0.42514300  0.07168600  0.24932900  1
  O  O65  1  0.42674000  0.06578500  0.74330300  1
  O  O66  1  0.42657700  0.57211000  0.24981700  1
  O  O67  1  0.43717000  0.57325800  0.75743100  1
  O  O68  1  0.92673800  0.06177300  0.24131700  1
  O  O69  1  0.93425800  0.07076600  0.75746800  1
  O  O70  1  0.92508700  0.57266400  0.24911600  1
  O  O71  1  0.92820900  0.57474800  0.75154900  1
  O  O72  1  0.17707100  0.42599800  0.24964200  1
  O  O73  1  0.18562000  0.43962000  0.75059100  1
  O  O74  1  0.17802700  0.92537400  0.24943200  1
  O  O75  1  0.18651600  0.93404200  0.75861100  1
  O  O76  1  0.67650900  0.42591000  0.24945800  1
  O  O77  1  0.68461000  0.43542200  0.75820000  1
  O  O78  1  0.67742900  0.92740900  0.25006800  1
  O  O79  1  0.67718300  0.92580400  0.75077300  1
loop_
_geom_bond_atom_site_label_1
_geom_bond_atom_site_label_2
_geom_bond_distance
_geom_bond_site_symmetry_2
Ca0 O64 2.363023 1_555
Ca0 O48 2.411386 1_555
Ca0 O10 2.494178 1_545
Ca0 O26 2.517180 1_545
Ca0 O17 2.553555 1_554
Ca0 O1 2.611291 1_554
Ca0 O32 2.650255 1_555
Ca0 O36 2.898388 1_555
Ca1 O65 2.326222 1_555
Ca1 O49 2.464881 1_555
Ca1 O27 2.493097 1_545
Ca1 O11 2.493409 1_545
Ca1 O0 2.558502 1_555
Ca1 O16 2.611596 1_555
Ca1 O33 2.710046 1_555
Ca1 O37 2.849466 1_555
Ca2 O66 2.352461 1_555
Ca2 O50 2.422154 1_555
Ca2 O24 2.495041 1_555
Ca2 O8 2.520897 1_555
Ca2 O3 2.632849 1_554
Ca2 O19 2.639401 1_554
Ca2 O34 2.671921 1_555
Ca2 O38 2.909404 1_555
Ca3 O68 2.309685 1_555
Ca3 O52 2.423574 1_555
Ca3 O14 2.496410 1_545
Ca3 O30 2.498949 1_545
Ca3 O5 2.537014 1_554
Ca3 O21 2.615495 1_554
Ca3 O36 2.678610 1_555
Ca3 O32 2.913918 1_655
Ca4 O70 2.353855 1_555
Ca4 O54 2.391053 1_555
Ca4 O12 2.473864 1_555
Ca4 O28 2.509445 1_555
Ca4 O7 2.611707 1_554
Ca4 O23 2.626280 1_554
Ca4 O38 2.667668 1_555
Ca4 O34 2.887813 1_655
Ca5 O71 2.405171 1_555
Ca5 O55 2.446690 1_555
Ca5 O29 2.486106 1_555
Ca5 O13 2.497926 1_555
Ca5 O6 2.617421 1_555
Ca5 O22 2.627124 1_555
Ca5 O39 2.682036 1_555
Ca5 O35 2.835769 1_655
Ca6 O72 2.360170 1_555
Ca6 O56 2.435590 1_555
Ca6 O2 2.506157 1_555
Ca6 O18 2.533289 1_555
Ca6 O9 2.555573 1_555
Ca6 O25 2.571565 1_555
Ca6 O44 2.693357 1_455
Ca6 O40 2.888749 1_555
Ca7 O74 2.369835 1_555
Ca7 O58 2.400990 1_555
Ca7 O16 2.484492 1_565
Ca7 O0 2.487121 1_565
Ca7 O11 2.547673 1_555
Ca7 O27 2.617636 1_555
Ca7 O46 2.679932 1_455
Ca7 O42 2.877802 1_555
Ca8 O75 2.311354 1_555
Ca8 O59 2.427550 1_555
Ca8 O1 2.485010 1_565
Ca8 O17 2.498898 1_565
Ca8 O10 2.587293 1_556
Ca8 O26 2.617040 1_556
Ca8 O47 2.678470 1_455
Ca8 O43 2.933618 1_555
Ca9 O76 2.372308 1_555
Ca9 O60 2.419713 1_555
Ca9 O22 2.490645 1_555
Ca9 O6 2.493918 1_555
Ca9 O13 2.553359 1_555
Ca9 O29 2.556493 1_555
Ca9 O40 2.667959 1_555
Ca9 O44 2.895286 1_555
Ca10 O77 2.312069 1_555
Ca10 O61 2.426365 1_555
Ca10 O23 2.490595 1_555
Ca10 O7 2.493280 1_555
Ca10 O12 2.604334 1_556
Ca10 O28 2.609365 1_556
Ca10 O41 2.676326 1_555
Ca10 O45 2.860151 1_555
Ca11 O78 2.360287 1_555
Ca11 O62 2.420062 1_555
Ca11 O20 2.498449 1_565
Ca11 O4 2.501552 1_565
Ca11 O31 2.573043 1_555
Ca11 O15 2.617389 1_555
Ca11 O42 2.685294 1_555
Ca11 O46 2.905446 1_555
Ca12 O79 2.367971 1_555
Ca12 O63 2.374605 1_555
Ca12 O5 2.498399 1_565
Ca12 O21 2.513063 1_565
Ca12 O14 2.620956 1_556
Ca12 O30 2.624894 1_556
Ca12 O43 2.654106 1_555
Ca12 O47 2.881006 1_555
Ca13 O72 2.359449 1_555
Ca13 O32 2.398555 1_555
Ca13 O8 2.472725 1_555
Ca13 O28 2.507732 1_455
Ca13 O21 2.622500 1_454
Ca13 O1 2.626741 1_554
Ca13 O52 2.673590 1_455
Ca13 O48 2.885726 1_555
Ca14 O74 2.365287 1_555
Ca14 O34 2.401898 1_555
Ca14 O30 2.501272 1_455
Ca14 O10 2.520008 1_555
Ca14 O3 2.558348 1_554
Ca14 O23 2.620581 1_454
Ca14 O54 2.683797 1_455
Ca14 O50 2.891829 1_555
Ca15 O76 2.347377 1_555
Ca15 O36 2.414245 1_555
Ca15 O24 2.490405 1_555
Ca15 O12 2.526280 1_555
Ca15 O17 2.621766 1_554
Ca15 O5 2.638645 1_554
Ca15 O48 2.689854 1_555
Ca15 O52 2.897101 1_555
Ca16 O78 2.373023 1_555
Ca16 O38 2.403514 1_555
Ca16 O14 2.505350 1_555
Ca16 O26 2.505445 1_555
Ca16 O19 2.546256 1_554
Ca16 O7 2.627064 1_554
Ca16 O50 2.688141 1_555
Ca16 O54 2.879442 1_555
Ca17 O79 2.384160 1_555
Ca17 O39 2.451691 1_555
Ca17 O15 2.495263 1_555
Ca17 O27 2.511016 1_555
Ca17 O18 2.616420 1_555
Ca17 O6 2.630688 1_555
Ca17 O51 2.699457 1_555
Ca17 O55 2.828957 1_555
Ca18 O64 2.362543 1_555
Ca18 O40 2.427262 1_555
Ca18 O4 2.485674 1_555
Ca18 O16 2.522807 1_555
Ca18 O25 2.559746 1_555
Ca18 O13 2.633209 1_555
Ca18 O56 2.695237 1_555
Ca18 O60 2.833644 1_555
Ca19 O66 2.370881 1_555
Ca19 O42 2.412631 1_555
Ca19 O18 2.469820 1_555
Ca19 O6 2.515854 1_555
Ca19 O15 2.550884 1_555
Ca19 O27 2.603797 1_555
Ca19 O58 2.671291 1_555
Ca19 O62 2.877437 1_555
Ca20 O67 2.325213 1_555
Ca20 O43 2.440491 1_555
Ca20 O19 2.487634 1_555
Ca20 O7 2.500270 1_555
Ca20 O26 2.604818 1_556
Ca20 O14 2.605339 1_556
Ca20 O59 2.700350 1_555
Ca20 O63 2.904312 1_555
Ca21 O69 2.325988 1_555
Ca21 O45 2.414963 1_555
Ca21 O21 2.477102 1_555
Ca21 O1 2.501163 1_655
Ca21 O28 2.609384 1_556
Ca21 O8 2.619895 1_656
Ca21 O61 2.694392 1_555
Ca21 O57 2.857318 1_655
Ca22 O70 2.359318 1_555
Ca22 O46 2.456332 1_555
Ca22 O2 2.487153 1_655
Ca22 O22 2.514629 1_555
Ca22 O31 2.555766 1_555
Ca22 O11 2.630515 1_655
Ca22 O62 2.694495 1_555
Ca22 O58 2.898131 1_655
Ca23 O71 2.371522 1_555
Ca23 O47 2.380569 1_555
Ca23 O23 2.497375 1_555
Ca23 O3 2.505433 1_655
Ca23 O30 2.601445 1_556
Ca23 O10 2.635134 1_656
Ca23 O63 2.648600 1_555
Ca23 O59 2.894204 1_655
Mn0 O1 1.955633 1_554
Mn0 O10 1.962772 1_545
Mn0 O21 1.963841 1_454
Mn0 O30 1.968302 1_445
Mn0 O32 2.038740 1_555
Mn0 O47 2.054238 1_444
Mn1 O0 1.963608 1_565
Mn1 O11 1.963976 1_555
Mn1 O31 1.970319 1_455
Mn1 O20 1.978009 1_465
Mn1 O46 2.077045 1_455
Mn1 O33 2.118091 1_565
Mn2 O28 1.965293 1_455
Mn2 O23 1.965418 1_454
Mn2 O8 1.972598 1_555
Mn2 O3 1.979833 1_554
Mn2 O34 2.037901 1_555
Mn2 O45 2.085858 1_454
Mn3 O22 1.962626 1_455
Mn3 O29 1.970986 1_455
Mn3 O9 1.979226 1_555
Mn3 O2 1.983200 1_555
Mn3 O44 2.064793 1_455
Mn3 O35 2.095823 1_555
Mn4 O26 1.960947 1_545
Mn4 O17 1.964990 1_554
Mn4 O14 1.965913 1_545
Mn4 O5 1.970041 1_554
Mn4 O36 2.048091 1_555
Mn4 O43 2.081265 1_544
Mn5 O16 1.957737 1_565
Mn5 O27 1.961396 1_555
Mn5 O4 1.965320 1_565
Mn5 O15 1.972185 1_555
Mn5 O42 2.062187 1_555
Mn5 O37 2.066476 1_565
Mn6 O12 1.972202 1_555
Mn6 O19 1.976438 1_554
Mn6 O7 1.978415 1_554
Mn6 O24 1.981000 1_555
Mn6 O38 2.043293 1_555
Mn6 O41 2.063732 1_554
Mn7 O13 1.951144 1_555
Mn7 O6 1.955517 1_555
Mn7 O18 1.963654 1_555
Mn7 O25 1.968495 1_555
Mn7 O40 2.064295 1_555
Mn7 O39 2.094993 1_555
Mn8 O1 1.973123 1_554
Mn8 O8 1.974305 1_555
Mn8 O17 1.980966 1_554
Mn8 O24 1.984970 1_555
Mn8 O48 2.059202 1_555
Mn8 O57 2.075779 1_554
Mn9 O16 1.970098 1_555
Mn9 O0 1.970616 1_555
Mn9 O25 1.975394 1_555
Mn9 O9 1.981496 1_555
Mn9 O56 2.063879 1_555
Mn9 O49 2.118637 1_555
Mn10 O10 1.962694 1_555
Mn10 O26 1.964078 1_555
Mn10 O19 1.968742 1_554
Mn10 O3 1.968832 1_554
Mn10 O50 2.069187 1_555
Mn10 O59 2.085385 1_554
Mn11 O27 1.957257 1_555
Mn11 O11 1.959034 1_555
Mn11 O2 1.965801 1_555
Mn11 O18 1.967830 1_555
Mn11 O58 2.037971 1_555
Mn11 O51 2.089051 1_555
Mn12 O28 1.961515 1_555
Mn12 O12 1.970879 1_555
Mn12 O5 1.972989 1_554
Mn12 O21 1.975059 1_554
Mn12 O52 2.076273 1_555
Mn12 O61 2.084694 1_554
Mn13 O13 1.969708 1_555
Mn13 O29 1.975359 1_555
Mn13 O4 1.981871 1_555
Mn13 O20 1.986549 1_555
Mn13 O60 2.065141 1_555
Mn13 O53 2.117120 1_555
Mn14 O7 1.955028 1_554
Mn14 O14 1.964640 1_555
Mn14 O23 1.966709 1_554
Mn14 O30 1.968407 1_555
Mn14 O63 2.042992 1_554
Mn14 O54 2.051807 1_555
Mn15 O6 1.952789 1_555
Mn15 O22 1.953658 1_555
Mn15 O15 1.964263 1_555
Mn15 O31 1.965434 1_555
Mn15 O62 2.052852 1_555
Mn15 O55 2.102620 1_555
Mn16 O32 1.926463 1_555
Mn16 O56 1.926622 1_555
Mn16 O68 2.027271 1_455
Mn16 O74 2.035157 1_545
Mn17 O57 1.898090 1_555
Mn17 O33 1.919085 1_555
Mn17 O75 1.997391 1_545
Mn17 O69 2.001876 1_455
Mn18 O58 1.935943 1_555
Mn18 O34 1.938475 1_555
Mn18 O72 2.041714 1_555
Mn18 O70 2.047000 1_455
Mn19 O35 1.909206 1_555
Mn19 O59 1.912706 1_555
Mn19 O73 1.984650 1_555
Mn19 O71 2.013199 1_455
Mn20 O60 1.917515 1_555
Mn20 O36 1.923931 1_555
Mn20 O64 2.024321 1_555
Mn20 O78 2.036480 1_545
Mn21 O37 1.928657 1_555
Mn21 O61 1.942096 1_555
Mn21 O65 2.013696 1_555
Mn21 O79 2.023429 1_545
Mn22 O62 1.915531 1_555
Mn22 O38 1.926734 1_555
Mn22 O66 2.029791 1_555
Mn22 O76 2.041522 1_555
Mn23 O63 1.922932 1_555
Mn23 O39 1.949242 1_555
Mn23 O67 2.010556 1_555
Mn23 O77 2.029710 1_555
Mn24 O40 1.908110 1_555
Mn24 O48 1.911766 1_555
Mn24 O72 2.016492 1_555
Mn24 O66 2.026606 1_555
Mn25 O41 1.914249 1_555
Mn25 O49 1.936632 1_555
Mn25 O67 2.002391 1_555
Mn25 O73 2.017157 1_555
Mn26 O50 1.907056 1_555
Mn26 O42 1.910716 1_555
Mn26 O74 2.004288 1_555
Mn26 O64 2.025858 1_565
Mn27 O51 1.917697 1_555
Mn27 O43 1.927467 1_555
Mn27 O65 1.999443 1_565
Mn27 O75 2.023000 1_555
Mn28 O44 1.890716 1_555
Mn28 O52 1.911270 1_555
Mn28 O70 2.001880 1_555
Mn28 O76 2.018364 1_555
Mn29 O53 1.918679 1_555
Mn29 O45 1.918833 1_555
Mn29 O77 1.980395 1_555
Mn29 O71 2.030976 1_555
Mn30 O54 1.909373 1_555
Mn30 O46 1.911921 1_555
Mn30 O68 2.006665 1_565
Mn30 O78 2.030309 1_555
Mn31 O47 1.926382 1_555
Mn31 O55 1.939983 1_555
Mn31 O79 2.017005 1_555
Mn31 O69 2.034069 1_565
O0 Sr7 2.600044 1_455
O0 Sr3 2.700705 1_555
O2 Sr4 2.708807 1_555
O2 Sr0 2.717759 1_555
O3 Sr2 2.552263 1_555
O4 Sr5 2.711068 1_555
O4 Sr1 2.723880 1_555
O5 Sr6 2.570718 1_555
O8 Sr2 2.700587 1_554
O9 Sr0 2.565699 1_555
O9 Sr3 2.574412 1_555
O9 Sr7 2.656459 1_455
O11 Sr4 2.582069 1_555
O12 Sr6 2.724101 1_554
O13 Sr5 2.581548 1_555
O15 Sr1 2.578376 1_565
O16 Sr5 2.724942 1_555
O17 Sr6 2.576138 1_555
O18 Sr0 2.719736 1_555
O19 Sr2 2.575496 1_555
O20 Sr7 2.566821 1_555
O20 Sr1 2.664259 1_555
O20 Sr3 2.697404 1_655
O22 Sr4 2.718825 1_655
O24 Sr2 2.705500 1_554
O24 Sr6 2.722380 1_554
O25 Sr5 2.571128 1_555
O25 Sr0 2.582793 1_555
O29 Sr3 2.585337 1_655
O29 Sr7 2.714299 1_555
O31 Sr4 2.562777 1_655
O31 Sr1 2.591277 1_565
O33 Sr3 2.593524 1_555
O33 Sr1 2.885545 1_455
O33 Sr4 3.046295 1_545
O35 Sr4 2.546553 1_555
O35 Sr0 2.732201 1_555
O35 Sr3 3.107437 1_555
O37 Sr5 2.529785 1_555
O37 Sr1 2.680845 1_555
O39 Sr0 2.873636 1_555
O39 Sr5 3.163331 1_555
O41 Sr6 2.514735 1_555
O41 Sr2 2.897790 1_555
O43 Sr6 3.164698 1_565
O44 Sr7 2.545154 1_555
O45 Sr2 2.702594 1_655
O46 Sr7 3.164243 1_565
O49 Sr5 2.706058 1_555
O49 Sr3 2.860198 1_555
O49 Sr0 3.168757 1_555
O51 Sr0 2.518468 1_555
O51 Sr4 2.865650 1_555
O53 Sr1 2.559035 1_555
O53 Sr3 2.744824 1_655
O53 Sr5 2.814850 1_555
O55 Sr4 2.729870 1_655
O55 Sr1 3.147428 1_565
O56 Sr7 2.879167 1_455
O57 Sr2 2.513849 1_555
O57 Sr6 2.707411 1_555
O59 Sr2 3.182866 1_555
O60 Sr7 2.728076 1_555
O61 Sr6 2.876105 1_555
O65 Sr6 2.436116 1_555
O67 Sr0 2.450493 1_555
O68 Sr7 2.435881 1_555
O69 Sr1 2.453137 1_555
O73 Sr2 2.403773 1_555
O73 Sr3 2.407969 1_555
O75 Sr4 2.458417 1_555
O77 Sr5 2.454751 1_555
