# generated using pymatgen
data_LiVFeO4
_symmetry_space_group_name_H-M   'P 1'
_cell_length_a   5.24241200
_cell_length_b   5.94440843
_cell_length_c   7.90168243
_cell_angle_alpha   101.13522546
_cell_angle_beta   109.18717177
_cell_angle_gamma   91.04116112
_symmetry_Int_Tables_number   1
_chemical_formula_structural   LiVFeO4
_chemical_formula_sum   'Li3 V3 Fe3 O12'
_cell_volume   227.29626878
_cell_formula_units_Z   3
loop_
 _symmetry_equiv_pos_site_id
 _symmetry_equiv_pos_as_xyz
  1  'x, y, z'
loop_
 _atom_site_type_symbol
 _atom_site_label
 _atom_site_symmetry_multiplicity
 _atom_site_fract_x
 _atom_site_fract_y
 _atom_site_fract_z
 _atom_site_occupancy
  Li  Li0  1  0.00346500  0.50982900  0.00363700  1
  Li  Li1  1  0.00423800  0.34683000  0.33831200  1
  Li  Li2  1  0.99250200  0.15360700  0.66200100  1
  V  V0  1  0.51481400  0.75456200  0.00142200  1
  V  V1  1  0.46135600  0.07514500  0.32524900  1
  V  V2  1  0.49766200  0.91047900  0.66668200  1
  Fe  Fe0  1  0.49986900  0.25312700  0.99891200  1
  Fe  Fe1  1  0.52558500  0.58238200  0.34141000  1
  Fe  Fe2  1  0.50436300  0.41545700  0.66679700  1
  O  O0  1  0.72566800  0.54302600  0.15601400  1
  O  O1  1  0.69071000  0.03546100  0.15447400  1
  O  O2  1  0.71559200  0.34352400  0.47596000  1
  O  O3  1  0.69885600  0.89397200  0.50431000  1
  O  O4  1  0.71716200  0.21602100  0.82059600  1
  O  O5  1  0.71092100  0.71133500  0.83072300  1
  O  O6  1  0.28055400  0.29569600  0.17979700  1
  O  O7  1  0.29823000  0.79018000  0.17737300  1
  O  O8  1  0.27353700  0.12548300  0.50712000  1
  O  O9  1  0.30330000  0.61512900  0.50794900  1
  O  O10  1  0.29655800  0.95868900  0.82690900  1
  O  O11  1  0.28660200  0.47242200  0.85692000  1
loop_
_geom_bond_atom_site_label_1
_geom_bond_atom_site_label_2
_geom_bond_distance
_geom_bond_site_symmetry_2
Li0 O11 2.154106 1_554
Li0 O7 2.162897 1_555
Li0 O0 2.163509 1_455
Li0 O4 2.212937 1_454
Li0 O5 2.230518 1_454
Li0 O6 2.256190 1_555
Li1 O9 2.121421 1_555
Li1 O2 2.135919 1_455
Li1 O6 2.195706 1_555
Li1 O0 2.212661 1_455
Li1 O8 2.238569 1_555
Li1 O1 2.349273 1_455
Li2 O3 2.052907 1_545
Li2 O8 2.193489 1_655
Li2 O4 2.195561 1_555
Li2 O2 2.200171 1_555
Li2 O10 2.205964 1_645
Li2 O11 2.355092 1_655
Fe0 O11 2.000375 1_555
Fe0 O1 2.009739 1_556
Fe0 O0 2.011371 1_556
Fe0 O10 2.026777 1_545
Fe0 O4 2.067768 1_555
Fe0 O6 2.092813 1_556
Fe1 O9 2.011170 1_555
Fe1 O2 2.019141 1_555
Fe1 O3 2.040124 1_555
Fe1 O6 2.046139 1_555
Fe1 O0 2.046357 1_555
Fe1 O7 2.069519 1_555
Fe2 O4 1.959667 1_555
Fe2 O9 1.961263 1_555
Fe2 O5 2.018092 1_555
Fe2 O8 2.026832 1_555
Fe2 O2 2.132760 1_555
Fe2 O11 2.149332 1_555
O0 V0 2.012830 1_555
O1 V0 1.879381 1_545
O1 V1 2.067868 1_555
O2 V1 1.971124 1_555
O3 V2 1.900754 1_555
O3 V1 2.047269 1_565
O4 V2 2.062285 1_545
O5 V0 1.931180 1_556
O5 V2 2.004905 1_555
O6 V1 1.961957 1_555
O7 V1 1.868724 1_565
O7 V0 2.049300 1_555
O8 V1 1.974574 1_555
O8 V2 2.075299 1_545
O9 V2 1.984486 1_555
O10 V2 1.882744 1_555
O10 V0 2.083912 1_556
O11 V0 1.958931 1_556
