# generated using pymatgen
data_UGa
_symmetry_space_group_name_H-M   'P 1'
_cell_length_a   6.04471896
_cell_length_b   6.04471896
_cell_length_c   10.89289000
_cell_angle_alpha   90.00000000
_cell_angle_beta   90.00000000
_cell_angle_gamma   126.72045655
_symmetry_Int_Tables_number   1
_chemical_formula_structural   UGa
_chemical_formula_sum   'U8 Ga8'
_cell_volume   319.03077948
_cell_formula_units_Z   8
loop_
 _symmetry_equiv_pos_site_id
 _symmetry_equiv_pos_as_xyz
  1  'x, y, z'
loop_
 _atom_site_type_symbol
 _atom_site_label
 _atom_site_symmetry_multiplicity
 _atom_site_fract_x
 _atom_site_fract_y
 _atom_site_fract_z
 _atom_site_occupancy
  U  U0  1  0.00000000  0.00000000  0.50000000  1
  U  U1  1  0.00000000  0.00000000  0.00000000  1
  U  U2  1  0.01397600  0.01397600  0.25000000  1
  U  U3  1  0.98602400  0.98602400  0.75000000  1
  U  U4  1  0.76478000  0.23522000  0.50000000  1
  U  U5  1  0.76478000  0.23522000  0.00000000  1
  U  U6  1  0.23522000  0.76478000  0.50000000  1
  U  U7  1  0.23522000  0.76478000  0.00000000  1
  Ga  Ga0  1  0.50762900  0.50762900  0.37344600  1
  Ga  Ga1  1  0.49237100  0.49237100  0.62655400  1
  Ga  Ga2  1  0.50762900  0.50762900  0.12655400  1
  Ga  Ga3  1  0.49237100  0.49237100  0.87344600  1
  Ga  Ga4  1  0.97894200  0.49714800  0.25000000  1
  Ga  Ga5  1  0.50285200  0.02105800  0.75000000  1
  Ga  Ga6  1  0.02105800  0.50285200  0.75000000  1
  Ga  Ga7  1  0.49714800  0.97894200  0.25000000  1
loop_
_geom_bond_atom_site_label_1
_geom_bond_atom_site_label_2
_geom_bond_distance
_geom_bond_site_symmetry_2
U0 U4 2.541802 1_455
U0 U6 2.541802 1_545
U0 U3 2.724276 1_445
U0 U2 2.724276 1_555
U1 U5 2.541802 1_455
U1 U7 2.541802 1_545
U1 U3 2.724276 1_444
U1 U2 2.724276 1_555
U4 U6 2.729087 1_545
U4 U6 2.729087 1_655
U5 U7 2.729087 1_545
U5 U7 2.729087 1_655
Ga0 Ga2 2.689367 1_555
Ga0 Ga1 2.758318 1_555
Ga0 U2 2.994786 1_555
Ga0 U0 3.003963 1_665
Ga0 U2 3.056426 1_665
Ga0 U0 3.077683 1_555
Ga0 U4 3.176273 1_555
Ga0 U6 3.176273 1_555
Ga1 Ga3 2.689367 1_555
Ga1 U3 2.994786 1_555
Ga1 U0 3.003963 1_555
Ga1 U3 3.056426 1_445
Ga1 U0 3.077683 1_665
Ga1 U6 3.176273 1_555
Ga1 U4 3.176273 1_555
Ga2 Ga3 2.758318 1_554
Ga2 U2 2.994786 1_555
Ga2 U1 3.003963 1_665
Ga2 U2 3.056426 1_665
Ga2 U1 3.077683 1_555
Ga2 U5 3.176273 1_555
Ga2 U7 3.176273 1_555
Ga3 U3 2.994786 1_555
Ga3 U1 3.003963 1_556
Ga3 U3 3.056426 1_445
Ga3 U1 3.077683 1_666
Ga3 U7 3.176273 1_556
Ga3 U5 3.176273 1_556
Ga4 Ga7 2.717460 1_655
Ga4 Ga7 2.717460 1_545
Ga4 U2 3.002262 1_665
Ga4 U5 3.024496 1_555
Ga4 U4 3.024496 1_555
Ga4 U2 3.051983 1_655
Ga4 U6 3.071810 1_655
Ga4 U7 3.071810 1_655
Ga5 Ga6 2.717460 1_655
Ga5 Ga6 2.717460 1_545
Ga5 U3 3.002262 1_445
Ga5 U4 3.024496 1_555
Ga5 U5 3.024496 1_556
Ga5 U3 3.051983 1_545
Ga5 U6 3.071810 1_545
Ga5 U7 3.071810 1_546
Ga6 U3 3.002262 1_445
Ga6 U6 3.024496 1_555
Ga6 U7 3.024496 1_556
Ga6 U3 3.051983 1_455
Ga6 U4 3.071810 1_455
Ga6 U5 3.071810 1_456
Ga7 U2 3.002262 1_665
Ga7 U6 3.024496 1_555
Ga7 U7 3.024496 1_555
Ga7 U2 3.051983 1_565
Ga7 U5 3.071810 1_565
Ga7 U4 3.071810 1_565
