# generated using pymatgen
data_SbPb4
_symmetry_space_group_name_H-M   'P 1'
_cell_length_a   28.55708806
_cell_length_b   28.55708806
_cell_length_c   28.55708688
_cell_angle_alpha   14.32124545
_cell_angle_beta   14.32124545
_cell_angle_gamma   14.32124598
_symmetry_Int_Tables_number   1
_chemical_formula_structural   SbPb4
_chemical_formula_sum   'Sb8 Pb32'
_cell_volume   1240.45343622
_cell_formula_units_Z   8
loop_
 _symmetry_equiv_pos_site_id
 _symmetry_equiv_pos_as_xyz
  1  'x, y, z'
loop_
 _atom_site_type_symbol
 _atom_site_label
 _atom_site_symmetry_multiplicity
 _atom_site_fract_x
 _atom_site_fract_y
 _atom_site_fract_z
 _atom_site_occupancy
  Sb  Sb0_0  1  0.00000000  0.00000000  0.00000000  1
  Sb  Sb0_1  1  0.00000000  0.00000000  0.50000000  1
  Sb  Sb0_2  1  0.00000000  0.50000000  0.00000000  1
  Sb  Sb0_3  1  0.00000000  0.50000000  0.50000000  1
  Sb  Sb0_4  1  0.50000000  0.00000000  0.00000000  1
  Sb  Sb0_5  1  0.50000000  0.00000000  0.50000000  1
  Sb  Sb0_6  1  0.50000000  0.50000000  0.00000000  1
  Sb  Sb0_7  1  0.50000000  0.50000000  0.50000000  1
  Pb  Pb0_0  1  0.30183650  0.30183650  0.30183650  1
  Pb  Pb0_1  1  0.30183650  0.30183650  0.80183650  1
  Pb  Pb0_2  1  0.30183650  0.80183650  0.30183650  1
  Pb  Pb0_3  1  0.30183650  0.80183650  0.80183650  1
  Pb  Pb0_4  1  0.80183650  0.30183650  0.30183650  1
  Pb  Pb0_5  1  0.80183650  0.30183650  0.80183650  1
  Pb  Pb0_6  1  0.80183650  0.80183650  0.30183650  1
  Pb  Pb0_7  1  0.80183650  0.80183650  0.80183650  1
  Pb  Pb1_0  1  0.10009100  0.10009100  0.10009100  1
  Pb  Pb1_1  1  0.10009100  0.10009100  0.60009100  1
  Pb  Pb1_2  1  0.10009100  0.60009100  0.10009100  1
  Pb  Pb1_3  1  0.10009100  0.60009100  0.60009100  1
  Pb  Pb1_4  1  0.60009100  0.10009100  0.10009100  1
  Pb  Pb1_5  1  0.60009100  0.10009100  0.60009100  1
  Pb  Pb1_6  1  0.60009100  0.60009100  0.10009100  1
  Pb  Pb1_7  1  0.60009100  0.60009100  0.60009100  1
  Pb  Pb2_0  1  0.39990900  0.39990900  0.39990900  1
  Pb  Pb2_1  1  0.39990900  0.39990900  0.89990900  1
  Pb  Pb2_2  1  0.39990900  0.89990900  0.39990900  1
  Pb  Pb2_3  1  0.39990900  0.89990900  0.89990900  1
  Pb  Pb2_4  1  0.89990900  0.39990900  0.39990900  1
  Pb  Pb2_5  1  0.89990900  0.39990900  0.89990900  1
  Pb  Pb2_6  1  0.89990900  0.89990900  0.39990900  1
  Pb  Pb2_7  1  0.89990900  0.89990900  0.89990900  1
  Pb  Pb3_0  1  0.19816350  0.19816350  0.19816350  1
  Pb  Pb3_1  1  0.19816350  0.19816350  0.69816350  1
  Pb  Pb3_2  1  0.19816350  0.69816350  0.19816350  1
  Pb  Pb3_3  1  0.19816350  0.69816350  0.69816350  1
  Pb  Pb3_4  1  0.69816350  0.19816350  0.19816350  1
  Pb  Pb3_5  1  0.69816350  0.19816350  0.69816350  1
  Pb  Pb3_6  1  0.69816350  0.69816350  0.19816350  1
  Pb  Pb3_7  1  0.69816350  0.69816350  0.69816350  1
loop_
_geom_bond_atom_site_label_1
_geom_bond_atom_site_label_2
_geom_bond_distance
_geom_bond_site_symmetry_2
Pb0_0 Sb0_5 3.369591 1_555
Pb0_0 Sb0_3 3.369591 1_555
Pb0_0 Sb0_6 3.369592 1_555
Pb0_0 Pb1_2 3.614994 1_555
Pb0_0 Pb1_4 3.614994 1_555
Pb0_0 Pb1_1 3.614994 1_555
Pb0_1 Sb0_4 3.369591 1_556
Pb0_1 Sb0_2 3.369591 1_556
Pb0_1 Sb0_7 3.369592 1_555
Pb0_1 Pb1_3 3.614994 1_555
Pb0_1 Pb1_5 3.614994 1_555
Pb0_1 Pb1_0 3.614994 1_556
Pb0_2 Sb0_7 3.369591 1_555
Pb0_2 Sb0_1 3.369591 1_565
Pb0_2 Sb0_4 3.369592 1_565
Pb0_2 Pb1_6 3.614994 1_555
Pb0_2 Pb1_0 3.614994 1_565
Pb0_2 Pb1_3 3.614994 1_555
Pb0_3 Sb0_0 3.369591 1_566
Pb0_3 Sb0_6 3.369591 1_556
Pb0_3 Sb0_5 3.369592 1_565
Pb0_3 Pb1_7 3.614994 1_555
Pb0_3 Pb1_1 3.614994 1_565
Pb0_3 Pb1_2 3.614994 1_556
Pb0_4 Sb0_7 3.369591 1_555
Pb0_4 Sb0_1 3.369591 1_655
Pb0_4 Sb0_2 3.369592 1_655
Pb0_4 Pb1_6 3.614994 1_555
Pb0_4 Pb1_0 3.614994 1_655
Pb0_4 Pb1_5 3.614994 1_555
Pb0_5 Sb0_0 3.369591 1_656
Pb0_5 Sb0_6 3.369591 1_556
Pb0_5 Sb0_3 3.369592 1_655
Pb0_5 Pb1_7 3.614994 1_555
Pb0_5 Pb1_1 3.614994 1_655
Pb0_5 Pb1_4 3.614994 1_556
Pb0_6 Sb0_5 3.369591 1_565
Pb0_6 Sb0_3 3.369591 1_655
Pb0_6 Sb0_0 3.369592 1_665
Pb0_6 Pb1_2 3.614994 1_655
Pb0_6 Pb1_4 3.614994 1_565
Pb0_6 Pb1_7 3.614994 1_555
Pb0_7 Sb0_4 3.369591 1_566
Pb0_7 Sb0_2 3.369591 1_656
Pb0_7 Sb0_1 3.369592 1_665
Pb0_7 Pb1_3 3.614994 1_655
Pb0_7 Pb1_5 3.614994 1_565
Pb0_7 Pb1_6 3.614994 1_556
Pb1_0 Pb2_3 3.506756 1_544
Pb1_0 Pb2_5 3.506756 1_454
Pb1_0 Pb2_6 3.506757 1_445
Pb1_0 Pb1_3 3.559680 1_554
Pb1_0 Pb1_5 3.559680 1_455
Pb1_0 Pb1_5 3.559680 1_554
Pb1_0 Pb1_3 3.559680 1_545
Pb1_0 Pb1_6 3.559680 1_455
Pb1_0 Pb1_6 3.559680 1_545
Pb1_1 Pb2_2 3.506756 1_545
Pb1_1 Pb2_4 3.506756 1_455
Pb1_1 Pb2_7 3.506757 1_445
Pb1_1 Pb1_4 3.559680 1_555
Pb1_1 Pb1_4 3.559680 1_456
Pb1_1 Pb1_2 3.559680 1_555
Pb1_1 Pb1_2 3.559680 1_546
Pb1_1 Pb1_7 3.559680 1_455
Pb1_1 Pb1_7 3.559680 1_545
Pb1_2 Pb2_1 3.506756 1_554
Pb1_2 Pb2_7 3.506756 1_454
Pb1_2 Pb2_4 3.506757 1_455
Pb1_2 Pb1_7 3.559680 1_554
Pb1_2 Pb1_7 3.559680 1_455
Pb1_2 Pb1_4 3.559680 1_555
Pb1_2 Pb1_4 3.559680 1_465
Pb1_3 Pb2_0 3.506756 1_555
Pb1_3 Pb2_6 3.506756 1_455
Pb1_3 Pb2_5 3.506757 1_455
Pb1_3 Pb1_6 3.559680 1_456
Pb1_3 Pb1_6 3.559680 1_555
Pb1_3 Pb1_5 3.559680 1_555
Pb1_3 Pb1_5 3.559680 1_465
Pb1_4 Pb2_1 3.506756 1_554
Pb1_4 Pb2_7 3.506756 1_544
Pb1_4 Pb2_2 3.506757 1_545
Pb1_4 Pb1_7 3.559680 1_554
Pb1_4 Pb1_7 3.559680 1_545
Pb1_5 Pb2_0 3.506756 1_555
Pb1_5 Pb2_6 3.506756 1_545
Pb1_5 Pb2_3 3.506757 1_545
Pb1_5 Pb1_6 3.559680 1_555
Pb1_5 Pb1_6 3.559680 1_546
Pb1_6 Pb2_3 3.506756 1_554
Pb1_6 Pb2_5 3.506756 1_554
Pb1_6 Pb2_0 3.506757 1_555
Pb1_7 Pb2_2 3.506756 1_555
Pb1_7 Pb2_4 3.506756 1_555
Pb1_7 Pb2_1 3.506757 1_555
Pb2_0 Pb2_5 3.559680 1_455
Pb2_0 Pb2_3 3.559680 1_545
Pb2_0 Pb2_3 3.559680 1_554
Pb2_0 Pb2_5 3.559680 1_554
Pb2_0 Pb2_6 3.559680 1_545
Pb2_0 Pb2_6 3.559680 1_455
Pb2_0 Pb3_2 3.614994 1_555
Pb2_0 Pb3_4 3.614994 1_555
Pb2_0 Pb3_1 3.614994 1_555
Pb2_1 Pb2_4 3.559680 1_555
Pb2_1 Pb2_2 3.559680 1_555
Pb2_1 Pb2_2 3.559680 1_546
Pb2_1 Pb2_4 3.559680 1_456
Pb2_1 Pb2_7 3.559680 1_545
Pb2_1 Pb2_7 3.559680 1_455
Pb2_1 Pb3_3 3.614994 1_555
Pb2_1 Pb3_5 3.614994 1_555
Pb2_1 Pb3_0 3.614994 1_556
Pb2_2 Pb2_7 3.559680 1_554
Pb2_2 Pb2_7 3.559680 1_455
Pb2_2 Pb2_4 3.559680 1_555
Pb2_2 Pb2_4 3.559680 1_465
Pb2_2 Pb3_6 3.614994 1_555
Pb2_2 Pb3_0 3.614994 1_565
Pb2_2 Pb3_3 3.614994 1_555
Pb2_3 Pb2_6 3.559680 1_555
Pb2_3 Pb2_6 3.559680 1_456
Pb2_3 Pb2_5 3.559680 1_555
Pb2_3 Pb2_5 3.559680 1_465
Pb2_3 Pb3_7 3.614994 1_555
Pb2_3 Pb3_1 3.614994 1_565
Pb2_3 Pb3_2 3.614994 1_556
Pb2_4 Pb2_7 3.559680 1_554
Pb2_4 Pb2_7 3.559680 1_545
Pb2_4 Pb3_6 3.614994 1_555
Pb2_4 Pb3_0 3.614994 1_655
Pb2_4 Pb3_5 3.614994 1_555
Pb2_5 Pb2_6 3.559680 1_555
Pb2_5 Pb2_6 3.559680 1_546
Pb2_5 Pb3_7 3.614994 1_555
Pb2_5 Pb3_1 3.614994 1_655
Pb2_5 Pb3_4 3.614994 1_556
Pb2_6 Pb3_2 3.614994 1_655
Pb2_6 Pb3_4 3.614994 1_565
Pb2_6 Pb3_7 3.614994 1_555
Pb2_7 Pb3_5 3.614994 1_565
Pb2_7 Pb3_3 3.614994 1_655
Pb2_7 Pb3_6 3.614994 1_556
Pb3_0 Sb0_2 3.369591 1_555
Pb3_0 Sb0_4 3.369591 1_555
Pb3_0 Sb0_1 3.369592 1_555
Pb3_1 Sb0_3 3.369591 1_555
Pb3_1 Sb0_5 3.369591 1_555
Pb3_1 Sb0_0 3.369592 1_556
Pb3_2 Sb0_6 3.369591 1_555
Pb3_2 Sb0_0 3.369591 1_565
Pb3_2 Sb0_3 3.369592 1_555
Pb3_3 Sb0_1 3.369591 1_565
Pb3_3 Sb0_7 3.369591 1_555
Pb3_3 Sb0_2 3.369592 1_556
Pb3_4 Sb0_6 3.369591 1_555
Pb3_4 Sb0_0 3.369591 1_655
Pb3_4 Sb0_5 3.369592 1_555
Pb3_5 Sb0_1 3.369591 1_655
Pb3_5 Sb0_7 3.369591 1_555
Pb3_5 Sb0_4 3.369592 1_556
Pb3_6 Sb0_2 3.369591 1_655
Pb3_6 Sb0_4 3.369591 1_565
Pb3_6 Sb0_7 3.369592 1_555
Pb3_7 Sb0_3 3.369591 1_655
Pb3_7 Sb0_5 3.369591 1_565
Pb3_7 Sb0_6 3.369592 1_556
