# generated using pymatgen
data_Mg14MoW
_symmetry_space_group_name_H-M   'P 1'
_cell_length_a   6.21034536
_cell_length_b   6.21034489
_cell_length_c   9.86180779
_cell_angle_alpha   90.00000000
_cell_angle_beta   90.00000000
_cell_angle_gamma   120.00000253
_symmetry_Int_Tables_number   1
_chemical_formula_structural   Mg14MoW
_chemical_formula_sum   'Mg14 Mo1 W1'
_cell_volume   329.39623091
_cell_formula_units_Z   1
loop_
 _symmetry_equiv_pos_site_id
 _symmetry_equiv_pos_as_xyz
  1  'x, y, z'
loop_
 _atom_site_type_symbol
 _atom_site_label
 _atom_site_symmetry_multiplicity
 _atom_site_fract_x
 _atom_site_fract_y
 _atom_site_fract_z
 _atom_site_occupancy
  Mg  Mg0  1  0.16932104  0.83466002  0.12500000  1
  Mg  Mg1  1  0.16918347  0.83459123  0.62500000  1
  Mg  Mg2  1  0.66533998  0.33067896  0.12500000  1
  Mg  Mg3  1  0.66540877  0.33081653  0.62500000  1
  Mg  Mg4  1  0.66533998  0.83466002  0.12500000  1
  Mg  Mg5  1  0.66540877  0.83459123  0.62500000  1
  Mg  Mg6  1  0.32372236  0.17627764  0.37616316  1
  Mg  Mg7  1  0.32372236  0.17627764  0.87383684  1
  Mg  Mg8  1  0.32372236  0.64744571  0.37616316  1
  Mg  Mg9  1  0.32372236  0.64744571  0.87383684  1
  Mg  Mg10  1  0.85255429  0.17627764  0.37616316  1
  Mg  Mg11  1  0.85255429  0.17627764  0.87383684  1
  Mg  Mg12  1  0.83333300  0.66666700  0.37538254  1
  Mg  Mg13  1  0.83333300  0.66666700  0.87461746  1
  Mo  Mo0  1  0.16666700  0.33333300  0.12500000  1
  W  W0  1  0.16666700  0.33333300  0.62500000  1
loop_
_geom_bond_atom_site_label_1
_geom_bond_atom_site_label_2
_geom_bond_distance
_geom_bond_site_symmetry_2
Mg0 Mg13 3.059820 1_454
Mg0 Mg12 3.059820 1_455
Mg0 Mg2 3.080449 1_565
Mg0 Mg4 3.080449 1_555
Mg0 Mg8 3.085654 1_555
Mg0 Mg9 3.085654 1_554
Mg0 Mg6 3.085661 1_565
Mg0 Mg7 3.085661 1_564
Mg0 Mo0 3.105205 1_555
Mg0 Mo0 3.105205 1_565
Mg0 Mg2 3.129896 1_455
Mg0 Mg4 3.129896 1_455
Mg1 Mg12 3.053297 1_455
Mg1 Mg13 3.053297 1_455
Mg1 W0 3.105202 1_555
Mg1 W0 3.105202 1_565
Mg2 Mg4 3.080449 1_545
Mg2 Mg7 3.085661 1_554
Mg2 Mg6 3.085661 1_555
Mg2 Mo0 3.105205 1_655
Mg2 Mo0 3.105205 1_555
Mg2 Mg4 3.129896 1_555
Mg3 W0 3.105202 1_655
Mg3 W0 3.105202 1_555
Mg4 Mg8 3.085660 1_555
Mg4 Mg9 3.085660 1_554
Mg4 Mo0 3.105205 1_555
Mg4 Mo0 3.105205 1_665
Mg5 W0 3.105202 1_555
Mg5 W0 3.105202 1_665
Mg6 W0 2.979270 1_555
Mg6 Mo0 2.998195 1_555
Mg7 W0 2.979270 1_555
Mg7 Mo0 2.998195 1_556
Mg8 W0 2.979276 1_555
Mg8 Mo0 2.998201 1_555
Mg9 W0 2.979276 1_555
Mg9 Mo0 2.998201 1_556
Mg10 W0 2.979276 1_655
Mg10 Mo0 2.998201 1_655
Mg10 Mg2 3.085654 1_555
Mg10 Mg4 3.085660 1_545
Mg10 Mg12 3.106902 1_545
Mg10 Mg12 3.106902 1_555
Mg11 W0 2.979276 1_655
Mg11 Mo0 2.998201 1_656
Mg11 Mg2 3.085654 1_556
Mg11 Mg4 3.085660 1_546
Mg11 Mg13 3.106902 1_545
Mg11 Mg13 3.106902 1_555
Mg12 Mg5 3.053291 1_555
Mg12 Mg3 3.053297 1_555
Mg12 Mg4 3.059814 1_555
Mg12 Mg2 3.059820 1_555
Mg12 Mg6 3.106902 1_665
Mg12 Mg6 3.106902 1_555
Mg12 Mg8 3.106903 1_555
Mg12 Mg8 3.106903 1_655
Mg13 Mg5 3.053291 1_555
Mg13 Mg3 3.053297 1_555
Mg13 Mg4 3.059814 1_556
Mg13 Mg2 3.059820 1_556
Mg13 Mg7 3.106902 1_665
Mg13 Mg7 3.106902 1_555
Mg13 Mg9 3.106903 1_555
Mg13 Mg9 3.106903 1_655
