# generated using pymatgen
data_Ca20(CdGa3)3
_symmetry_space_group_name_H-M   'P 1'
_cell_length_a   8.04231948
_cell_length_b   8.04232664
_cell_length_c   14.91732987
_cell_angle_alpha   90.00018024
_cell_angle_beta   90.00102119
_cell_angle_gamma   89.99971930
_symmetry_Int_Tables_number   1
_chemical_formula_structural   Ca20(CdGa3)3
_chemical_formula_sum   'Ca20 Cd3 Ga9'
_cell_volume   964.83738489
_cell_formula_units_Z   1
loop_
 _symmetry_equiv_pos_site_id
 _symmetry_equiv_pos_as_xyz
  1  'x, y, z'
loop_
 _atom_site_type_symbol
 _atom_site_label
 _atom_site_symmetry_multiplicity
 _atom_site_fract_x
 _atom_site_fract_y
 _atom_site_fract_z
 _atom_site_occupancy
  Ca  Ca0  1  0.68196715  0.16834697  0.10752724  1
  Ca  Ca1  1  0.17450673  0.67438375  0.61083816  1
  Ca  Ca2  1  0.31803197  0.83164427  0.10752926  1
  Ca  Ca3  1  0.82549957  0.32562992  0.61083530  1
  Ca  Ca4  1  0.83164796  0.68197210  0.10752856  1
  Ca  Ca5  1  0.32562035  0.17450235  0.61083453  1
  Ca  Ca6  1  0.16835099  0.31803486  0.10752736  1
  Ca  Ca7  1  0.67437651  0.82549336  0.61083653  1
  Ca  Ca8  1  0.83165045  0.31803779  0.89247865  1
  Ca  Ca9  1  0.32562097  0.82549343  0.38915536  1
  Ca  Ca10  1  0.16835279  0.68197108  0.89247666  1
  Ca  Ca11  1  0.67437581  0.17449996  0.38915866  1
  Ca  Ca12  1  0.68196562  0.83164343  0.89247750  1
  Ca  Ca13  1  0.17450142  0.32562895  0.38915960  1
  Ca  Ca14  1  0.31803102  0.16834815  0.89247867  1
  Ca  Ca15  1  0.82549295  0.67438547  0.38915722  1
  Ca  Ca16  1  0.49999939  0.49999578  0.75482912  1
  Ca  Ca17  1  -0.00000089  0.00000440  0.24783704  1
  Ca  Ca18  1  -0.00000073  0.00000450  0.75216266  1
  Ca  Ca19  1  0.50000197  0.49999630  0.24517118  1
  Cd  Cd0  1  0.50000416  0.49997991  0.49999320  1
  Cd  Cd1  1  0.50000549  0.49997086  0.00000653  1
  Cd  Cd2  1  -0.00000411  0.00001782  0.49999262  1
  Ga  Ga0  1  0.61074431  0.11199994  0.75133583  1
  Ga  Ga1  1  0.11197458  0.61072761  0.24864789  1
  Ga  Ga2  1  0.88799905  0.38925789  0.24866421  1
  Ga  Ga3  1  0.38928514  0.88802539  0.75134974  1
  Ga  Ga4  1  0.88800679  0.61074042  0.75134338  1
  Ga  Ga5  1  0.38925713  0.11199675  0.24866376  1
  Ga  Ga6  1  0.11199981  0.38926169  0.75133822  1
  Ga  Ga7  1  0.61073587  0.88800404  0.24865926  1
  Ga  Ga8  1  -0.00000022  0.00000088  0.00000611  1
loop_
_geom_bond_atom_site_label_1
_geom_bond_atom_site_label_2
_geom_bond_distance
_geom_bond_site_symmetry_2
Ca0 Ga7 3.137494 1_545
Ca0 Ga5 3.190585 1_555
Ca0 Ga2 3.214738 1_555
Ca0 Ga8 3.308723 1_655
Ca0 Cd1 3.439045 1_555
Ca0 Ca17 3.571484 1_655
Ca0 Ca19 3.670385 1_555
Ca1 Ga6 3.146995 1_555
Ca1 Ga4 3.156615 1_455
Ca1 Ga3 3.213889 1_555
Ca1 Cd0 3.399141 1_555
Ca1 Cd2 3.400320 1_565
Ca1 Ca18 3.643072 1_565
Ca1 Ca16 3.665095 1_555
Ca1 Ca9 3.726894 1_555
Ca1 Ca3 3.968024 1_455
Ca2 Ga5 3.137541 1_565
Ca2 Ga7 3.190438 1_555
Ca2 Ga1 3.214736 1_555
Ca2 Ga8 3.308729 1_565
Ca2 Cd1 3.439425 1_555
Ca3 Ga4 3.146986 1_555
Ca3 Ga6 3.156522 1_655
Ca3 Ga0 3.213679 1_555
Ca3 Cd0 3.398888 1_555
Ca3 Cd2 3.400131 1_655
Ca4 Ga1 3.137249 1_655
Ca4 Ga2 3.190571 1_555
Ca4 Ga7 3.214713 1_555
Ca4 Ga8 3.308734 1_665
Ca4 Cd1 3.439299 1_555
Ca5 Ga0 3.146971 1_555
Ca5 Ga3 3.156575 1_545
Ca5 Ga6 3.213671 1_555
Ca5 Cd0 3.398933 1_555
Ca5 Cd2 3.400139 1_555
Ca5 Ca7 3.968028 1_545
Ca6 Ga2 3.137591 1_455
Ca6 Ga1 3.190325 1_555
Ca6 Ga5 3.214733 1_555
Ca6 Ga8 3.308725 1_555
Ca6 Cd1 3.439191 1_555
Ca7 Ga3 3.146989 1_555
Ca7 Ga0 3.156552 1_565
Ca7 Ga4 3.213683 1_555
Ca7 Cd0 3.399099 1_555
Ca7 Cd2 3.400304 1_665
Ca8 Ga6 3.137619 1_655
Ca8 Ga4 3.190519 1_555
Ca8 Ga0 3.214797 1_555
Ca8 Ga8 3.308779 1_656
Ca8 Cd1 3.439155 1_556
Ca9 Ga7 3.146935 1_555
Ca9 Ga5 3.156475 1_565
Ca9 Ga1 3.213816 1_555
Ca9 Cd0 3.399093 1_555
Ca9 Cd2 3.400276 1_565
Ca10 Ga4 3.137482 1_455
Ca10 Ga6 3.190566 1_555
Ca10 Ga3 3.214875 1_555
Ca10 Ga8 3.308777 1_566
Ca10 Cd1 3.439407 1_556
Ca10 Ca18 3.571579 1_565
Ca10 Ca16 3.670444 1_555
Ca11 Ga5 3.146879 1_555
Ca11 Ga7 3.156492 1_545
Ca11 Ga2 3.213602 1_555
Ca11 Cd0 3.398840 1_555
Ca11 Cd2 3.400040 1_655
Ca11 Ca17 3.643039 1_655
Ca11 Ca19 3.665058 1_555
Ca11 Ca3 3.726845 1_555
Ca11 Ca9 3.968026 1_545
Ca12 Ga0 3.137636 1_565
Ca12 Ga3 3.190301 1_555
Ca12 Ga4 3.214743 1_555
Ca12 Ga8 3.308790 1_666
Ca12 Cd1 3.439436 1_556
Ca12 Ca18 3.571657 1_665
Ca12 Ca16 3.670397 1_555
Ca13 Ga1 3.146984 1_555
Ca13 Ga2 3.156455 1_455
Ca13 Ga5 3.213629 1_555
Ca13 Cd0 3.398882 1_555
Ca13 Cd2 3.400104 1_555
Ca13 Ca17 3.643043 1_555
Ca13 Ca19 3.665119 1_555
Ca13 Ca5 3.726804 1_555
Ca13 Ca15 3.968027 1_455
Ca14 Ga3 3.137366 1_545
Ca14 Ga0 3.190659 1_555
Ca14 Ga6 3.214779 1_555
Ca14 Ga8 3.308778 1_556
Ca14 Cd1 3.439134 1_556
Ca14 Ca18 3.571545 1_555
Ca14 Ca16 3.670452 1_555
Ca15 Ga2 3.146943 1_555
Ca15 Ga1 3.156561 1_655
Ca15 Ga7 3.213564 1_555
Ca15 Cd0 3.399043 1_555
Ca15 Cd2 3.400212 1_665
Ca15 Ca17 3.643040 1_665
Ca15 Ca19 3.665050 1_555
Ca15 Ca7 3.726838 1_555
Ca16 Ga0 3.245423 1_555
Ca16 Ga6 3.245432 1_555
Ca16 Ga4 3.245516 1_555
Ca16 Ga3 3.245613 1_555
Ca16 Cd1 3.657392 1_556
Ca16 Ca5 3.665120 1_555
Ca16 Ca3 3.665144 1_555
Ca16 Ca7 3.665159 1_555
Ca16 Ca8 3.670384 1_555
Ca16 Cd0 3.801471 1_555
Ca17 Ga2 3.257531 1_455
Ca17 Ga5 3.257555 1_555
Ca17 Ga7 3.257613 1_445
Ca17 Ga1 3.257656 1_545
Ca17 Ca4 3.571517 1_445
Ca17 Ca6 3.571556 1_555
Ca17 Ca2 3.571574 1_545
Ca17 Ca9 3.643001 1_545
Ca17 Ga8 3.696976 1_555
Ca17 Cd2 3.761488 1_555
Ca18 Ga0 3.257530 1_455
Ca18 Ga6 3.257570 1_555
Ca18 Ga4 3.257604 1_445
Ca18 Ga3 3.257732 1_545
Ca18 Ca8 3.571600 1_455
Ca18 Ca7 3.643079 1_445
Ca18 Ca3 3.643081 1_455
Ca18 Ca5 3.643104 1_555
Ca18 Ga8 3.697163 1_556
Ca18 Cd2 3.761704 1_555
Ca19 Ga2 3.245414 1_555
Ca19 Ga5 3.245460 1_555
Ca19 Ga7 3.245497 1_555
Ca19 Ga1 3.245631 1_555
Ca19 Cd1 3.657202 1_555
Ca19 Ca9 3.665075 1_555
Ca19 Ca6 3.670352 1_555
Ca19 Ca2 3.670356 1_555
Ca19 Ca4 3.670417 1_555
Ca19 Cd0 3.801264 1_555
Ga0 Ga3 2.533131 1_545
Ga1 Ga2 2.533196 1_455
Ga4 Ga6 2.533334 1_655
Ga5 Ga7 2.533333 1_545
