# generated using pymatgen
data_ZnFeF4
_symmetry_space_group_name_H-M   'P 1'
_cell_length_a   6.36769418
_cell_length_b   6.36769418
_cell_length_c   6.36769418
_cell_angle_alpha   132.97568803
_cell_angle_beta   130.83747919
_cell_angle_gamma   70.39075272
_symmetry_Int_Tables_number   1
_chemical_formula_structural   ZnFeF4
_chemical_formula_sum   'Zn2 Fe2 F8'
_cell_volume   140.06121693
_cell_formula_units_Z   2
loop_
 _symmetry_equiv_pos_site_id
 _symmetry_equiv_pos_as_xyz
  1  'x, y, z'
loop_
 _atom_site_type_symbol
 _atom_site_label
 _atom_site_symmetry_multiplicity
 _atom_site_fract_x
 _atom_site_fract_y
 _atom_site_fract_z
 _atom_site_occupancy
  Zn  Zn0  1  0.75000000  0.25000000  0.50000000  1
  Zn  Zn1  1  0.25000000  0.75000000  0.50000000  1
  Fe  Fe0  1  0.00000000  0.00000000  0.00000000  1
  Fe  Fe1  1  0.50000000  0.50000000  0.00000000  1
  F  F0  1  0.93823800  0.86042700  0.54609600  1
  F  F1  1  0.68566900  0.60785800  0.54609600  1
  F  F2  1  0.06176200  0.13957300  0.45390400  1
  F  F3  1  0.56176200  0.10785800  0.92218900  1
  F  F4  1  0.31433100  0.39214200  0.45390400  1
  F  F5  1  0.81433100  0.36042700  0.92218900  1
  F  F6  1  0.43823800  0.89214200  0.07781100  1
  F  F7  1  0.18566900  0.63957300  0.07781100  1
loop_
_geom_bond_atom_site_label_1
_geom_bond_atom_site_label_2
_geom_bond_distance
_geom_bond_site_symmetry_2
F0 Zn1 2.016276 1_655
F0 Fe0 2.131729 1_666
F0 Fe1 2.423572 1_555
F0 Zn0 2.492685 1_565
F1 Zn0 2.016276 1_555
F1 Fe0 2.131729 1_666
F1 Fe1 2.423572 1_555
F1 Zn1 2.492685 1_555
F2 Zn0 2.016276 1_455
F2 Fe0 2.131729 1_555
F2 Fe1 2.423572 1_556
F2 Zn1 2.492685 1_545
F3 Zn1 2.016276 1_545
F3 Fe1 2.131729 1_556
F3 Fe0 2.423572 1_656
F3 Zn0 2.492685 1_556
F4 Zn1 2.016276 1_555
F4 Fe0 2.131729 1_555
F4 Fe1 2.423572 1_556
F4 Zn0 2.492685 1_555
F5 Zn0 2.016276 1_555
F5 Fe1 2.131729 1_556
F5 Fe0 2.423572 1_656
F5 Zn1 2.492685 1_656
F6 Zn0 2.016276 1_565
F6 Fe1 2.131729 1_555
F6 Fe0 2.423572 1_565
F6 Zn1 2.492685 1_554
F7 Zn1 2.016276 1_555
F7 Fe1 2.131729 1_555
F7 Fe0 2.423572 1_565
F7 Zn0 2.492685 1_454
