# generated using pymatgen
data_KCr(SO4)2
_symmetry_space_group_name_H-M   'P 1'
_cell_length_a   4.85876834
_cell_length_b   17.13624559
_cell_length_c   8.41629711
_cell_angle_alpha   75.78175356
_cell_angle_beta   90.00805729
_cell_angle_gamma   98.15038392
_symmetry_Int_Tables_number   1
_chemical_formula_structural   KCr(SO4)2
_chemical_formula_sum   'K4 Cr4 S8 O32'
_cell_volume   671.98326781
_cell_formula_units_Z   4
loop_
 _symmetry_equiv_pos_site_id
 _symmetry_equiv_pos_as_xyz
  1  'x, y, z'
loop_
 _atom_site_type_symbol
 _atom_site_label
 _atom_site_symmetry_multiplicity
 _atom_site_fract_x
 _atom_site_fract_y
 _atom_site_fract_z
 _atom_site_occupancy
  K  K0  1  0.49998500  0.00003400  0.49998500  1
  K  K1  1  0.99999000  0.99996600  0.00002200  1
  K  K2  1  0.75000400  0.50000600  0.25001000  1
  K  K3  1  0.24997200  0.49999300  0.75001100  1
  Cr  Cr0  1  0.87529400  0.75005500  0.12491200  1
  Cr  Cr1  1  0.62494700  0.25000400  0.37494600  1
  Cr  Cr2  1  0.37510900  0.75000100  0.62497900  1
  Cr  Cr3  1  0.12500900  0.25004800  0.87498600  1
  S  S0  1  0.17728100  0.35466000  0.15601600  1
  S  S1  1  0.67727700  0.35466500  0.65600400  1
  S  S2  1  0.82264500  0.64532600  0.84400400  1
  S  S3  1  0.32268400  0.64533700  0.34398100  1
  S  S4  1  0.42734300  0.85466300  0.90599400  1
  S  S5  1  0.92732400  0.85466200  0.40600900  1
  S  S6  1  0.57271000  0.14533500  0.09400200  1
  S  S7  1  0.07270300  0.14533600  0.59400800  1
  O  O0  1  0.22174300  0.44353400  0.11155100  1
  O  O1  1  0.72173600  0.44353800  0.61156400  1
  O  O2  1  0.77824100  0.55645100  0.88844800  1
  O  O3  1  0.27824100  0.55645800  0.38845400  1
  O  O4  1  0.47173100  0.94353500  0.86156600  1
  O  O5  1  0.97174600  0.94353900  0.36154800  1
  O  O6  1  0.52823900  0.05645500  0.13846300  1
  O  O7  1  0.02824000  0.05645700  0.63844300  1
  O  O8  1  0.01358800  0.67578100  0.69493700  1
  O  O9  1  0.51363700  0.67580200  0.19492600  1
  O  O10  1  0.95067000  0.67575800  0.98360000  1
  O  O11  1  0.45068200  0.67576500  0.48360700  1
  O  O12  1  0.33780900  0.32419200  0.30506700  1
  O  O13  1  0.83780300  0.32420500  0.80506100  1
  O  O14  1  0.54926000  0.67577400  0.80777800  1
  O  O15  1  0.04927300  0.67578900  0.30775300  1
  O  O16  1  0.27491800  0.32422800  0.01643400  1
  O  O17  1  0.77491100  0.32423200  0.51643700  1
  O  O18  1  0.87344900  0.32421100  0.19224200  1
  O  O19  1  0.37345200  0.32421900  0.69222400  1
  O  O20  1  0.70069800  0.82421300  0.94223900  1
  O  O21  1  0.20070900  0.82420900  0.44223800  1
  O  O22  1  0.23640500  0.82420900  0.05507400  1
  O  O23  1  0.73636600  0.82420400  0.55507100  1
  O  O24  1  0.87654500  0.17578100  0.05777100  1
  O  O25  1  0.37653400  0.17578000  0.55776500  1
  O  O26  1  0.29929400  0.82422800  0.76641500  1
  O  O27  1  0.79931000  0.82423000  0.26639800  1
  O  O28  1  0.41216000  0.17579700  0.94494900  1
  O  O29  1  0.91217000  0.17579800  0.44494200  1
  O  O30  1  0.47508200  0.17576700  0.23359200  1
  O  O31  1  0.97508300  0.17577100  0.73357600  1
loop_
_geom_bond_atom_site_label_1
_geom_bond_atom_site_label_2
_geom_bond_distance
_geom_bond_site_symmetry_2
K0 O6 2.954470 1_555
K0 O7 2.954508 1_555
K0 O7 2.954581 1_655
K0 O5 2.954805 1_445
K0 O4 2.955032 1_545
K0 O5 2.955147 1_545
K0 O30 3.300990 1_555
K0 O25 3.301192 1_555
K0 O29 3.301774 1_555
K0 O26 3.302158 1_545
K0 O21 3.302360 1_545
K0 O23 3.302646 1_545
K1 O5 2.954509 1_555
K1 O4 2.954557 1_654
K1 O4 2.954631 1_554
K1 O6 2.954830 1_665
K1 O7 2.955007 1_664
K1 O6 2.955068 1_565
K1 O27 3.301099 1_555
K1 O20 3.301403 1_554
K1 O22 3.301589 1_655
K1 O31 3.302123 1_564
K1 O24 3.302238 1_565
K1 O28 3.302627 1_664
K2 O3 2.954603 1_655
K2 O1 2.954780 1_555
K2 O3 2.954789 1_555
K2 O2 2.954818 1_554
K2 O0 2.954862 1_555
K2 O0 2.954937 1_655
K2 O10 3.301410 1_554
K2 O17 3.301651 1_555
K2 O15 3.301699 1_655
K2 O18 3.301964 1_555
K2 O9 3.302075 1_555
K2 O12 3.302466 1_555
K3 O1 2.954626 1_455
K3 O0 2.954658 1_556
K3 O2 2.954688 1_455
K3 O2 2.954734 1_555
K3 O3 2.954801 1_555
K3 O1 2.954833 1_555
K3 O16 3.301552 1_556
K3 O11 3.301664 1_555
K3 O19 3.301726 1_555
K3 O14 3.301773 1_555
K3 O8 3.301994 1_555
K3 O13 3.302058 1_455
Cr0 O22 2.009948 1_655
Cr0 O20 2.010922 1_554
Cr0 O15 2.011186 1_655
Cr0 O10 2.011405 1_554
Cr0 O27 2.011623 1_555
Cr0 O9 2.012970 1_555
Cr1 O12 2.010944 1_555
Cr1 O18 2.010974 1_555
Cr1 O30 2.011082 1_555
Cr1 O25 2.011448 1_555
Cr1 O29 2.011606 1_555
Cr1 O17 2.011962 1_555
Cr2 O23 2.010951 1_555
Cr2 O14 2.011060 1_555
Cr2 O11 2.011202 1_555
Cr2 O21 2.011216 1_555
Cr2 O26 2.011801 1_555
Cr2 O8 2.012141 1_555
Cr3 O19 2.010903 1_555
Cr3 O13 2.010906 1_455
Cr3 O16 2.011022 1_556
Cr3 O24 2.011665 1_456
Cr3 O28 2.011802 1_555
Cr3 O31 2.012013 1_455
O0 S0 1.460447 1_555
O1 S1 1.460431 1_555
O2 S2 1.460464 1_555
O3 S3 1.460530 1_555
O4 S4 1.460415 1_555
O5 S5 1.460497 1_555
O6 S6 1.460546 1_555
O7 S7 1.460530 1_555
O8 S2 1.499496 1_455
O9 S3 1.499457 1_555
O10 S2 1.499342 1_555
O11 S3 1.499480 1_555
O12 S0 1.499354 1_555
O13 S1 1.499357 1_555
O14 S2 1.499290 1_555
O15 S3 1.499439 1_555
O16 S0 1.499439 1_555
O17 S1 1.499334 1_555
O18 S0 1.499365 1_655
O19 S1 1.499319 1_555
O20 S4 1.499187 1_555
O21 S5 1.499329 1_455
O22 S4 1.499563 1_554
O23 S5 1.499508 1_555
O24 S6 1.499376 1_555
O25 S7 1.499364 1_555
O26 S4 1.499285 1_555
O27 S5 1.499432 1_555
O28 S6 1.499406 1_556
O29 S7 1.499441 1_655
O30 S6 1.499482 1_555
O31 S7 1.499337 1_655
