# generated using pymatgen
data_Mg2Ni3WS8
_symmetry_space_group_name_H-M   'P 1'
_cell_length_a   7.10434862
_cell_length_b   7.12756041
_cell_length_c   7.09580368
_cell_angle_alpha   60.15494833
_cell_angle_beta   60.08892129
_cell_angle_gamma   60.18512791
_symmetry_Int_Tables_number   1
_chemical_formula_structural   Mg2Ni3WS8
_chemical_formula_sum   'Mg2 Ni3 W1 S8'
_cell_volume   254.89166080
_cell_formula_units_Z   1
loop_
 _symmetry_equiv_pos_site_id
 _symmetry_equiv_pos_as_xyz
  1  'x, y, z'
loop_
 _atom_site_type_symbol
 _atom_site_label
 _atom_site_symmetry_multiplicity
 _atom_site_fract_x
 _atom_site_fract_y
 _atom_site_fract_z
 _atom_site_occupancy
  Mg  Mg0  1  0.86878200  0.89330500  0.86888100  1
  Mg  Mg1  1  0.13120700  0.10671500  0.13113300  1
  Ni  Ni0  1  0.49998200  0.50005900  0.49990400  1
  Ni  Ni1  1  0.50001300  0.49998600  0.99999400  1
  Ni  Ni2  1  0.00000300  0.49999400  0.50001100  1
  W  W0  1  0.49999100  0.99998500  0.50002800  1
  S  S0  1  0.73932600  0.73265700  0.73924200  1
  S  S1  1  0.26071800  0.26721000  0.71119000  1
  S  S2  1  0.27030000  0.68861200  0.27037500  1
  S  S3  1  0.71135600  0.26717100  0.26075100  1
  S  S4  1  0.72971700  0.31136400  0.72963100  1
  S  S5  1  0.28863700  0.73282100  0.73926000  1
  S  S6  1  0.26068000  0.26732900  0.26077600  1
  S  S7  1  0.73929300  0.73278700  0.28882500  1
loop_
_geom_bond_atom_site_label_1
_geom_bond_atom_site_label_2
_geom_bond_distance
_geom_bond_site_symmetry_2
Mg0 S0 2.437713 1_555
Mg0 S4 2.438644 1_565
Mg0 S7 2.440114 1_556
Mg0 S5 2.443302 1_655
Mg1 S6 2.437627 1_555
Mg1 S2 2.438901 1_545
Mg1 S1 2.440100 1_554
Mg1 S3 2.443270 1_455
Ni0 S2 2.326495 1_555
Ni0 S4 2.327732 1_555
Ni0 S3 2.381935 1_555
Ni0 S5 2.382360 1_555
Ni0 S7 2.382718 1_555
Ni0 S1 2.382998 1_555
Ni1 S4 2.326825 1_555
Ni1 S2 2.326941 1_556
Ni1 S3 2.380889 1_556
Ni1 S5 2.380924 1_555
Ni1 S0 2.382564 1_555
Ni1 S6 2.382609 1_556
Ni2 S4 2.327264 1_455
Ni2 S2 2.327269 1_555
Ni2 S1 2.380447 1_555
Ni2 S7 2.380453 1_455
Ni2 S0 2.382018 1_455
Ni2 S6 2.382047 1_555
S0 W0 2.416714 1_555
S1 W0 2.417266 1_545
S3 W0 2.418053 1_545
S5 W0 2.417884 1_555
S6 W0 2.416789 1_545
S7 W0 2.417315 1_555
