# generated using pymatgen
data_NdFe5Co5Mo2
_symmetry_space_group_name_H-M   'P 1'
_cell_length_a   4.72544676
_cell_length_b   6.52999455
_cell_length_c   6.57747845
_cell_angle_alpha   97.36202994
_cell_angle_beta   111.65298710
_cell_angle_gamma   68.91404770
_symmetry_Int_Tables_number   1
_chemical_formula_structural   NdFe5Co5Mo2
_chemical_formula_sum   'Nd1 Fe5 Co5 Mo2'
_cell_volume   176.00678148
_cell_formula_units_Z   1
loop_
 _symmetry_equiv_pos_site_id
 _symmetry_equiv_pos_as_xyz
  1  'x, y, z'
loop_
 _atom_site_type_symbol
 _atom_site_label
 _atom_site_symmetry_multiplicity
 _atom_site_fract_x
 _atom_site_fract_y
 _atom_site_fract_z
 _atom_site_occupancy
  Nd  Nd0  1  0.00000000  0.00000000  0.00000000  1
  Fe  Fe0  1  0.64109100  0.35569500  0.64086300  1
  Fe  Fe1  1  0.35890900  0.64430500  0.35913700  1
  Fe  Fe2  1  0.00000000  0.00000000  0.50000000  1
  Fe  Fe3  1  0.50000000  0.50000000  0.00000000  1
  Fe  Fe4  1  0.00000000  0.50000000  0.00000000  1
  Co  Co0  1  0.72330900  0.77823500  0.22201100  1
  Co  Co1  1  0.27669100  0.22176500  0.77798900  1
  Co  Co2  1  0.49968600  0.77160500  0.77059800  1
  Co  Co3  1  0.50031400  0.22839500  0.22940200  1
  Co  Co4  1  0.50000000  0.00000000  0.50000000  1
  Mo  Mo0  1  0.00204700  0.35767800  0.35971400  1
  Mo  Mo1  1  0.99795300  0.64232200  0.64028600  1
loop_
_geom_bond_atom_site_label_1
_geom_bond_atom_site_label_2
_geom_bond_distance
_geom_bond_site_symmetry_2
Fe0 Fe1 2.454986 1_555
Fe0 Fe2 2.627435 1_655
Fe0 Fe4 2.639580 1_656
Fe0 Fe3 2.655610 1_556
Fe0 Mo0 2.897560 1_555
Fe0 Mo1 2.936746 1_555
Fe0 Mo1 2.939356 1_455
Fe0 Mo0 2.946012 1_655
Fe0 Nd0 3.076764 1_656
Fe1 Fe2 2.627435 1_565
Fe1 Fe4 2.639580 1_555
Fe1 Fe3 2.655610 1_555
Fe1 Mo1 2.897560 1_555
Fe1 Mo0 2.936746 1_555
Fe1 Mo0 2.939356 1_655
Fe1 Mo1 2.946012 1_455
Fe1 Nd0 3.076764 1_565
Fe2 Mo0 2.623332 1_555
Fe2 Mo1 2.623332 1_445
Fe2 Nd0 3.288739 1_556
Fe2 Nd0 3.288739 1_555
Fe3 Fe4 2.362723 1_555
Fe3 Fe4 2.362723 1_655
Fe3 Mo0 2.631494 1_655
Fe3 Mo1 2.631494 1_454
Fe3 Nd0 3.269857 1_565
Fe3 Nd0 3.269857 1_655
Fe4 Mo1 2.646125 1_454
Fe4 Mo0 2.646125 1_555
Fe4 Nd0 3.264997 1_565
Fe4 Nd0 3.264997 1_555
Co0 Fe2 2.463618 1_665
Co0 Fe3 2.471713 1_555
Co0 Fe4 2.482483 1_655
Co0 Co4 2.489908 1_565
Co0 Fe1 2.629127 1_655
Co0 Fe1 2.641092 1_555
Co0 Mo1 2.683859 1_555
Co0 Mo0 2.692844 1_655
Co0 Co3 2.743365 1_565
Co0 Co2 2.760251 1_554
Co0 Nd0 3.034648 1_565
Co0 Nd0 3.041758 1_665
Co1 Fe2 2.463618 1_555
Co1 Fe3 2.471713 1_556
Co1 Fe4 2.482483 1_556
Co1 Co4 2.489908 1_555
Co1 Fe0 2.629127 1_455
Co1 Fe0 2.641092 1_555
Co1 Mo0 2.683859 1_555
Co1 Mo1 2.692844 1_455
Co1 Co2 2.743365 1_545
Co1 Co3 2.760251 1_556
Co1 Nd0 3.034648 1_656
Co1 Nd0 3.041758 1_556
Co2 Fe2 2.452060 1_565
Co2 Fe4 2.459261 1_656
Co2 Co4 2.464961 1_565
Co2 Fe3 2.470751 1_556
Co2 Mo1 2.612216 1_455
Co2 Mo1 2.620080 1_555
Co2 Fe1 2.636425 1_555
Co2 Fe0 2.659284 1_555
Co2 Nd0 3.068933 1_666
Co2 Nd0 3.097604 1_566
Co3 Fe2 2.452060 1_655
Co3 Fe4 2.459261 1_555
Co3 Co4 2.464961 1_555
Co3 Fe3 2.470751 1_555
Co3 Mo0 2.612216 1_655
Co3 Mo0 2.620080 1_555
Co3 Fe0 2.636425 1_555
Co3 Fe1 2.659284 1_555
Co3 Nd0 3.068933 1_555
Co3 Nd0 3.097604 1_655
Co4 Fe2 2.362723 1_555
Co4 Fe2 2.362723 1_655
Co4 Fe0 2.608584 1_555
Co4 Fe1 2.608584 1_545
Co4 Mo0 2.615150 1_555
Co4 Mo1 2.615150 1_545
Co4 Nd0 3.265574 1_555
Co4 Nd0 3.265574 1_656
Mo0 Mo1 2.445881 1_455
Mo0 Nd0 3.104262 1_555
Mo1 Nd0 3.104262 1_666
