# generated using pymatgen
data_YbV2O2
_symmetry_space_group_name_H-M   'P 1'
_cell_length_a   7.71707743
_cell_length_b   7.71707743
_cell_length_c   7.71707743
_cell_angle_alpha   113.58645570
_cell_angle_beta   113.58645570
_cell_angle_gamma   101.52147468
_symmetry_Int_Tables_number   1
_chemical_formula_structural   YbV2O2
_chemical_formula_sum   'Yb4 V8 O8'
_cell_volume   348.77539040
_cell_formula_units_Z   4
loop_
 _symmetry_equiv_pos_site_id
 _symmetry_equiv_pos_as_xyz
  1  'x, y, z'
loop_
 _atom_site_type_symbol
 _atom_site_label
 _atom_site_symmetry_multiplicity
 _atom_site_fract_x
 _atom_site_fract_y
 _atom_site_fract_z
 _atom_site_occupancy
  Yb  Yb0  1  0.87500000  0.12500000  0.25000000  1
  Yb  Yb1  1  0.87500000  0.62500000  0.75000000  1
  Yb  Yb2  1  0.37500000  0.12500000  0.25000000  1
  Yb  Yb3  1  0.87500000  0.12500000  0.75000000  1
  V  V0  1  0.50265800  0.18518100  0.68252300  1
  V  V1  1  0.50265800  0.82013400  0.31747700  1
  V  V2  1  0.57013400  0.75265800  0.81747700  1
  V  V3  1  0.24734200  0.42986600  0.18252300  1
  V  V4  1  0.24734200  0.06481900  0.81747700  1
  V  V5  1  0.93518100  0.75265800  0.18252300  1
  V  V6  1  0.17986600  0.49734200  0.68252300  1
  V  V7  1  0.81481900  0.49734200  0.31747700  1
  O  O0  1  0.66352900  0.50030100  0.83677200  1
  O  O1  1  0.66352900  0.82675700  0.16322800  1
  O  O2  1  0.57675700  0.91352900  0.66322800  1
  O  O3  1  0.08647100  0.42324300  0.33677200  1
  O  O4  1  0.08647100  0.74969900  0.66322800  1
  O  O5  1  0.25030100  0.91352900  0.33677200  1
  O  O6  1  0.17324300  0.33647100  0.83677200  1
  O  O7  1  0.49969900  0.33647100  0.16322800  1
loop_
_geom_bond_atom_site_label_1
_geom_bond_atom_site_label_2
_geom_bond_distance
_geom_bond_site_symmetry_2
O0 V0 2.041249 1_555
O0 Yb1 2.191010 1_555
O0 V5 2.245236 1_556
O0 V2 2.245240 1_555
O1 V1 2.041250 1_555
O1 Yb0 2.191010 1_565
O1 V2 2.245235 1_554
O1 V5 2.245236 1_555
O2 V2 2.041250 1_555
O2 Yb3 2.191010 1_565
O2 V1 2.245235 1_555
O2 V0 2.245236 1_565
O3 V3 2.041250 1_555
O3 Yb0 2.191010 1_455
O3 V6 2.245235 1_555
O3 V7 2.245236 1_455
O4 V4 2.041249 1_565
O4 Yb1 2.191010 1_455
O4 V7 2.245236 1_455
O4 V6 2.245240 1_555
O5 V5 2.041249 1_455
O5 Yb2 2.191010 1_565
O5 V0 2.245236 1_565
O5 V1 2.245240 1_555
O6 V6 2.041250 1_555
O6 Yb3 2.191010 1_455
O6 V3 2.245235 1_556
O6 V4 2.245236 1_555
O7 V7 2.041249 1_555
O7 Yb2 2.191010 1_555
O7 V4 2.245236 1_554
O7 V3 2.245240 1_555
