# generated using pymatgen
data_Mg6CrSi
_symmetry_space_group_name_H-M   'P 1'
_cell_length_a   4.83521700
_cell_length_b   6.21517900
_cell_length_c   10.61796300
_cell_angle_alpha   90.00000000
_cell_angle_beta   90.00000000
_cell_angle_gamma   90.00000000
_symmetry_Int_Tables_number   1
_chemical_formula_structural   Mg6CrSi
_chemical_formula_sum   'Mg12 Cr2 Si2'
_cell_volume   319.08825447
_cell_formula_units_Z   2
loop_
 _symmetry_equiv_pos_site_id
 _symmetry_equiv_pos_as_xyz
  1  'x, y, z'
loop_
 _atom_site_type_symbol
 _atom_site_label
 _atom_site_symmetry_multiplicity
 _atom_site_fract_x
 _atom_site_fract_y
 _atom_site_fract_z
 _atom_site_occupancy
  Mg  Mg0  1  0.00000000  0.25698800  0.08785900  1
  Mg  Mg1  1  0.00000000  0.74301200  0.08785900  1
  Mg  Mg2  1  0.00000000  0.50000000  0.83222000  1
  Mg  Mg3  1  0.50000000  0.24435100  0.91417200  1
  Mg  Mg4  1  0.50000000  0.75564900  0.91417200  1
  Mg  Mg5  1  0.50000000  0.50000000  0.66511700  1
  Mg  Mg6  1  0.00000000  0.75698800  0.58785900  1
  Mg  Mg7  1  0.00000000  0.24301200  0.58785900  1
  Mg  Mg8  1  0.00000000  0.00000000  0.33222000  1
  Mg  Mg9  1  0.50000000  0.74435100  0.41417200  1
  Mg  Mg10  1  0.50000000  0.25564900  0.41417200  1
  Mg  Mg11  1  0.50000000  0.00000000  0.16511700  1
  Cr  Cr0  1  0.50000000  0.50000000  0.17672900  1
  Cr  Cr1  1  0.50000000  0.00000000  0.67672900  1
  Si  Si0  1  0.00000000  0.50000000  0.32187200  1
  Si  Si1  1  0.00000000  0.00000000  0.82187200  1
loop_
_geom_bond_atom_site_label_1
_geom_bond_atom_site_label_2
_geom_bond_distance
_geom_bond_site_symmetry_2
Mg0 Si0 2.907772 1_555
Mg0 Mg11 3.011460 1_555
Mg0 Mg11 3.011460 1_455
Mg0 Mg1 3.020726 1_555
Mg0 Mg3 3.041723 1_554
Mg0 Mg3 3.041723 1_454
Mg0 Mg8 3.046829 1_555
Mg0 Mg2 3.106280 1_554
Mg0 Mg1 3.194453 1_545
Mg0 Si1 3.244605 1_554
Mg1 Si0 2.907772 1_555
Mg1 Mg11 3.011460 1_565
Mg1 Mg11 3.011460 1_465
Mg1 Mg4 3.041723 1_554
Mg1 Mg4 3.041723 1_454
Mg1 Mg8 3.046829 1_565
Mg1 Mg2 3.106280 1_554
Mg1 Si1 3.244605 1_564
Mg2 Mg5 2.998824 1_455
Mg2 Mg5 2.998824 1_555
Mg2 Mg4 3.021032 1_555
Mg2 Mg3 3.021032 1_455
Mg2 Mg4 3.021032 1_455
Mg2 Mg3 3.021032 1_555
Mg2 Mg6 3.046829 1_555
Mg2 Mg7 3.046829 1_555
Mg2 Si1 3.109531 1_565
Mg2 Si1 3.109531 1_555
Mg3 Si1 3.018561 1_655
Mg3 Si1 3.018561 1_555
Mg3 Mg4 3.037370 1_545
Mg3 Mg5 3.085088 1_555
Mg3 Mg4 3.177809 1_555
Mg4 Si1 3.018561 1_565
Mg4 Si1 3.018561 1_665
Mg4 Mg5 3.085088 1_555
Mg5 Mg7 3.011460 1_655
Mg5 Mg6 3.011460 1_555
Mg5 Mg6 3.011460 1_655
Mg5 Mg7 3.011460 1_555
Mg5 Mg9 3.066936 1_555
Mg6 Si1 2.907772 1_565
Mg6 Mg7 3.020726 1_565
Mg6 Mg9 3.041723 1_455
Mg6 Mg9 3.041723 1_555
Mg6 Mg8 3.106280 1_565
Mg6 Mg7 3.194453 1_555
Mg6 Si0 3.244605 1_555
Mg7 Si1 2.907772 1_555
Mg7 Mg8 3.106280 1_555
Mg7 Si0 3.244605 1_555
Mg8 Mg9 3.021032 1_545
Mg8 Mg9 3.021032 1_445
Mg8 Si0 3.109531 1_555
Mg8 Si0 3.109531 1_545
Mg9 Si0 3.018561 1_555
Mg9 Si0 3.018561 1_655
Mg10 Si0 3.018561 1_655
Mg10 Si0 3.018561 1_555
Mg10 Mg8 3.021032 1_555
Mg10 Mg8 3.021032 1_655
Mg10 Mg9 3.037370 1_555
Mg10 Mg7 3.041723 1_655
Mg10 Mg7 3.041723 1_555
Mg10 Mg5 3.066936 1_555
Mg10 Mg11 3.085088 1_555
Mg10 Mg9 3.177809 1_545
Mg11 Mg8 2.998824 1_555
Mg11 Mg8 2.998824 1_655
Mg11 Mg4 3.066936 1_544
Mg11 Mg3 3.066936 1_554
Mg11 Mg9 3.085088 1_545
Cr0 Si0 2.867035 1_555
Cr0 Si0 2.867035 1_655
Cr0 Mg9 2.943239 1_555
Cr0 Mg10 2.943239 1_555
Cr0 Mg1 3.002739 1_555
Cr0 Mg0 3.002739 1_655
Cr0 Mg1 3.002739 1_655
Cr0 Mg0 3.002739 1_555
Cr0 Mg11 3.110034 1_555
Cr0 Mg11 3.110034 1_565
Cr0 Mg3 3.208825 1_554
Cr0 Mg4 3.208825 1_554
Cr1 Si1 2.867035 1_555
Cr1 Si1 2.867035 1_655
Cr1 Mg4 2.943239 1_545
Cr1 Mg3 2.943239 1_555
Cr1 Mg6 3.002739 1_545
Cr1 Mg7 3.002739 1_555
Cr1 Mg7 3.002739 1_655
Cr1 Mg6 3.002739 1_645
Cr1 Mg5 3.110034 1_545
Cr1 Mg5 3.110034 1_555
Cr1 Mg9 3.208825 1_545
Cr1 Mg10 3.208825 1_555
