# generated using pymatgen
data_Y4Al
_symmetry_space_group_name_H-M   'P 1'
_cell_length_a   7.91163534
_cell_length_b   7.91163534
_cell_length_c   7.91163534
_cell_angle_alpha   60.00000000
_cell_angle_beta   60.00000000
_cell_angle_gamma   60.00000000
_symmetry_Int_Tables_number   1
_chemical_formula_structural   Y4Al
_chemical_formula_sum   'Y8 Al2'
_cell_volume   350.17391164
_cell_formula_units_Z   2
loop_
 _symmetry_equiv_pos_site_id
 _symmetry_equiv_pos_as_xyz
  1  'x, y, z'
loop_
 _atom_site_type_symbol
 _atom_site_label
 _atom_site_symmetry_multiplicity
 _atom_site_fract_x
 _atom_site_fract_y
 _atom_site_fract_z
 _atom_site_occupancy
  Y  Y0  1  0.39356800  0.39356800  0.39356800  1
  Y  Y1  1  0.39356800  0.39356800  0.81929500  1
  Y  Y2  1  0.39356800  0.81929500  0.39356800  1
  Y  Y3  1  0.85643200  0.85643200  0.43070500  1
  Y  Y4  1  0.85643200  0.85643200  0.85643200  1
  Y  Y5  1  0.81929500  0.39356800  0.39356800  1
  Y  Y6  1  0.85643200  0.43070500  0.85643200  1
  Y  Y7  1  0.43070500  0.85643200  0.85643200  1
  Al  Al0  1  0.00000000  0.00000000  0.00000000  1
  Al  Al1  1  0.25000000  0.25000000  0.25000000  1
loop_
_geom_bond_atom_site_label_1
_geom_bond_atom_site_label_2
_geom_bond_distance
_geom_bond_site_symmetry_2
Y0 Y5 3.368197 1_555
Y0 Y2 3.368197 1_555
Y0 Y1 3.368197 1_555
Y0 Y6 3.977579 1_554
Y0 Y7 3.977579 1_554
Y0 Y6 3.977579 1_455
Y0 Y7 3.977579 1_545
Y0 Y3 3.977579 1_455
Y0 Y3 3.977579 1_545
Y1 Y5 3.368197 1_555
Y1 Y2 3.368197 1_555
Y1 Y7 3.977573 1_545
Y1 Y6 3.977573 1_455
Y1 Y4 3.977579 1_545
Y1 Y4 3.977579 1_455
Y1 Y6 3.977588 1_555
Y1 Y7 3.977588 1_555
Y2 Y5 3.368197 1_555
Y2 Y3 3.977573 1_455
Y2 Y7 3.977573 1_554
Y2 Y4 3.977579 1_554
Y2 Y4 3.977579 1_455
Y2 Y3 3.977588 1_555
Y2 Y7 3.977588 1_555
Y3 Y7 3.368197 1_555
Y3 Y6 3.368197 1_555
Y3 Y4 3.368197 1_555
Y3 Y5 3.977573 1_565
Y3 Y5 3.977588 1_555
Y4 Y7 3.368197 1_555
Y4 Y6 3.368197 1_555
Y4 Y5 3.977579 1_556
Y4 Y5 3.977579 1_565
Y5 Y6 3.977573 1_554
Y5 Y6 3.977588 1_555
Y6 Y7 3.368197 1_555
Al0 Y4 2.782272 1_444
Al0 Y3 2.782278 1_445
Al0 Y6 2.782278 1_454
Al0 Y7 2.782278 1_544
Al1 Y0 2.782272 1_555
Al1 Y2 2.782278 1_545
Al1 Y5 2.782278 1_455
Al1 Y1 2.782278 1_554
