# generated using pymatgen
data_Nb3Pb2(O2F)4
_symmetry_space_group_name_H-M   'P 1'
_cell_length_a   16.81909463
_cell_length_b   16.81909463
_cell_length_c   16.81909463
_cell_angle_alpha   166.56952156
_cell_angle_beta   166.56952156
_cell_angle_gamma   19.03756399
_symmetry_Int_Tables_number   1
_chemical_formula_structural   Nb3Pb2(O2F)4
_chemical_formula_sum   'Nb3 Pb2 O8 F4'
_cell_volume   256.64624266
_cell_formula_units_Z   1
loop_
 _symmetry_equiv_pos_site_id
 _symmetry_equiv_pos_as_xyz
  1  'x, y, z'
loop_
 _atom_site_type_symbol
 _atom_site_label
 _atom_site_symmetry_multiplicity
 _atom_site_fract_x
 _atom_site_fract_y
 _atom_site_fract_z
 _atom_site_occupancy
  Nb  Nb0  1  0.11737800  0.11737800  0.00000000  1
  Nb  Nb1  1  0.88262200  0.88262200  0.00000000  1
  Nb  Nb2  1  0.00000000  0.00000000  0.00000000  1
  Pb  Pb0  1  0.29746300  0.29746300  0.00000000  1
  Pb  Pb1  1  0.70253700  0.70253700  0.00000000  1
  O  O0  1  0.62852300  0.12852300  0.50000000  1
  O  O1  1  0.37147700  0.87147700  0.50000000  1
  O  O2  1  0.12852300  0.62852300  0.50000000  1
  O  O3  1  0.87147700  0.37147700  0.50000000  1
  O  O4  1  0.50000000  0.00000000  0.50000000  1
  O  O5  1  0.00000000  0.50000000  0.50000000  1
  O  O6  1  0.06142800  0.06142800  0.00000000  1
  O  O7  1  0.93857200  0.93857200  0.00000000  1
  F  F0  1  0.18559000  0.18559000  0.00000000  1
  F  F1  1  0.81441000  0.81441000  0.00000000  1
  F  F2  1  0.75000000  0.25000000  0.50000000  1
  F  F3  1  0.25000000  0.75000000  0.50000000  1
loop_
_geom_bond_atom_site_label_1
_geom_bond_atom_site_label_2
_geom_bond_distance
_geom_bond_site_symmetry_2
Nb0 O6 1.856143 1_555
Nb0 O0 2.001191 1_555
Nb0 O2 2.001191 1_555
Nb0 O0 2.001191 1_454
Nb0 O2 2.001191 1_544
Nb1 O7 1.856143 1_555
Nb1 O3 2.001191 1_565
Nb1 O3 2.001191 1_554
Nb1 O1 2.001191 1_655
Nb1 O1 2.001191 1_554
Nb2 O4 1.966739 1_454
Nb2 O5 1.966739 1_555
Nb2 O5 1.966739 1_544
Nb2 O4 1.966739 1_555
Nb2 O6 2.037876 1_555
Nb2 O7 2.037876 1_445
F0 Nb0 2.262936 1_555
F1 Nb1 2.262936 1_555
F2 Pb0 2.519402 1_656
F2 Pb0 2.519402 1_555
F2 Pb1 2.519402 1_556
F2 Pb1 2.519402 1_545
F3 Pb0 2.519402 1_555
F3 Pb0 2.519402 1_566
F3 Pb1 2.519402 1_455
F3 Pb1 2.519402 1_556
