# generated using pymatgen
data_Sr2Al4Fe3P4(H2O13)2
_symmetry_space_group_name_H-M   'P 1'
_cell_length_a   5.37404466
_cell_length_b   9.26713126
_cell_length_c   9.87883305
_cell_angle_alpha   110.00841260
_cell_angle_beta   91.24399776
_cell_angle_gamma   97.92019833
_symmetry_Int_Tables_number   1
_chemical_formula_structural   Sr2Al4Fe3P4(H2O13)2
_chemical_formula_sum   'Sr2 Al4 Fe3 P4 H4 O26'
_cell_volume   456.62561620
_cell_formula_units_Z   1
loop_
 _symmetry_equiv_pos_site_id
 _symmetry_equiv_pos_as_xyz
  1  'x, y, z'
loop_
 _atom_site_type_symbol
 _atom_site_label
 _atom_site_symmetry_multiplicity
 _atom_site_fract_x
 _atom_site_fract_y
 _atom_site_fract_z
 _atom_site_occupancy
  Sr  Sr0  1  0.12387100  0.26442100  0.41146400  1
  Sr  Sr1  1  0.87612900  0.73558000  0.58853600  1
  Al  Al0  1  0.51242400  0.07167700  0.15888300  1
  Al  Al1  1  0.48757600  0.92832300  0.84111700  1
  Al  Al2  1  0.50000000  0.00000000  0.50000000  1
  Al  Al3  1  0.50000000  0.50000000  0.00000000  1
  Fe  Fe0  1  0.00000000  0.00000000  0.00000000  1
  Fe  Fe1  1  0.24045000  0.63183900  0.28178700  1
  Fe  Fe2  1  0.75955000  0.36816100  0.71821300  1
  P  P0  1  0.69362000  0.42806400  0.26976000  1
  P  P1  1  0.30638000  0.57193600  0.73024000  1
  P  P2  1  0.22319200  0.17766600  0.76185300  1
  P  P3  1  0.77680800  0.82233400  0.23814700  1
  H  H0  1  0.23871600  0.93279600  0.27716400  1
  H  H1  1  0.76128400  0.06720400  0.72283600  1
  H  H2  1  0.05232300  0.40780300  0.03882300  1
  H  H3  1  0.94767700  0.59219700  0.96117700  1
  O  O0  1  0.69032100  0.41916300  0.11261500  1
  O  O1  1  0.30967900  0.58083700  0.88738500  1
  O  O2  1  0.53943600  0.69914400  0.16599200  1
  O  O3  1  0.46056400  0.30085600  0.83400800  1
  O  O4  1  0.21608500  0.46015900  0.08996600  1
  O  O5  1  0.78391500  0.53984100  0.91003400  1
  O  O6  1  0.71756500  0.19056600  0.54532200  1
  O  O7  1  0.28243500  0.80943400  0.45467800  1
  O  O8  1  0.04714000  0.48314900  0.64650400  1
  O  O9  1  0.95286000  0.51685100  0.35349600  1
  O  O10  1  0.21283400  0.03893000  0.82054700  1
  O  O11  1  0.78716600  0.96107000  0.17945300  1
  O  O12  1  0.30519200  0.91038800  0.00643700  1
  O  O13  1  0.69480800  0.08961200  0.99356300  1
  O  O14  1  0.68056900  0.26309400  0.28156100  1
  O  O15  1  0.31943100  0.73690600  0.71843900  1
  O  O16  1  0.01856800  0.75193000  0.19829500  1
  O  O17  1  0.98143200  0.24807000  0.80170500  1
  O  O18  1  0.48403200  0.51196500  0.35415200  1
  O  O19  1  0.51596800  0.48803500  0.64584800  1
  O  O20  1  0.22233400  0.15900300  0.13554400  1
  O  O21  1  0.77766600  0.84099700  0.86445600  1
  O  O22  1  0.37015400  0.02461000  0.32067100  1
  O  O23  1  0.62984600  0.97539000  0.67932900  1
  O  O24  1  0.24249200  0.11614700  0.59712700  1
  O  O25  1  0.75750800  0.88385300  0.40287300  1
loop_
_geom_bond_atom_site_label_1
_geom_bond_atom_site_label_2
_geom_bond_distance
_geom_bond_site_symmetry_2
Al0 O14 1.863197 1_555
Al0 O20 1.896884 1_555
Al0 O12 1.915832 1_545
Al0 O22 1.941007 1_555
Al0 O11 1.954099 1_545
Al0 O13 1.966189 1_554
Al1 O15 1.863197 1_555
Al1 O21 1.896884 1_555
Al1 O13 1.915832 1_565
Al1 O23 1.941007 1_555
Al1 O10 1.954099 1_565
Al1 O12 1.966189 1_556
Al2 O6 1.885048 1_555
Al2 O7 1.885048 1_545
Al2 O25 1.937950 1_545
Al2 O24 1.937950 1_555
Al2 O23 1.985958 1_545
Al2 O22 1.985958 1_555
Al3 O4 1.839123 1_555
Al3 O5 1.839123 1_554
Al3 O0 1.891303 1_555
Al3 O1 1.891303 1_554
Al3 O2 1.986439 1_555
Al3 O3 1.986439 1_554
Fe0 O20 1.867337 1_555
Fe0 O21 1.867337 1_444
Fe0 O12 1.946954 1_545
Fe0 O13 1.946954 1_454
Fe0 O11 2.234535 1_445
Fe0 O10 2.234535 1_554
Fe1 O7 1.906314 1_555
Fe1 O4 2.001991 1_555
Fe1 O9 2.033774 1_455
Fe1 O16 2.071673 1_555
Fe1 O18 2.088596 1_555
Fe1 O2 2.138024 1_555
Fe2 O6 1.906314 1_555
Fe2 O5 2.001991 1_555
Fe2 O8 2.033774 1_655
Fe2 O17 2.071673 1_555
Fe2 O19 2.088596 1_555
Fe2 O3 2.138024 1_555
H0 O22 0.989217 1_565
H1 O23 0.989217 1_545
H2 O4 0.980027 1_555
H3 O5 0.980027 1_555
O0 P0 1.525735 1_555
O1 P1 1.525735 1_555
O2 P3 1.562363 1_555
O3 P2 1.562363 1_555
O6 Sr0 2.705114 1_655
O7 Sr1 2.705111 1_455
O8 P1 1.571778 1_555
O8 Sr0 2.592527 1_555
O8 Sr1 2.851537 1_455
O9 P0 1.571778 1_555
O9 Sr1 2.592532 1_555
O9 Sr0 2.851528 1_655
O10 P2 1.576104 1_555
O11 P3 1.576104 1_555
O14 P0 1.564770 1_555
O14 Sr0 2.677842 1_655
O15 P1 1.564770 1_555
O15 Sr1 2.677845 1_455
O16 P3 1.532551 1_455
O17 P2 1.532551 1_655
O18 P0 1.551371 1_555
O18 Sr0 3.007005 1_555
O18 Sr1 3.065439 1_555
O19 P1 1.551371 1_555
O19 Sr1 3.007012 1_555
O19 Sr0 3.065436 1_555
O20 Sr0 2.654624 1_555
O21 Sr1 2.654623 1_555
O22 Sr0 2.644469 1_555
O23 Sr1 2.644462 1_555
O24 P2 1.540340 1_555
O24 Sr0 2.752048 1_555
O25 P3 1.540340 1_555
O25 Sr1 2.752041 1_555
