# generated using pymatgen
data_SrMgCr(PO4)2
_symmetry_space_group_name_H-M   'P 1'
_cell_length_a   5.65949100
_cell_length_b   6.84778290
_cell_length_c   9.37502089
_cell_angle_alpha   109.69987636
_cell_angle_beta   102.23009381
_cell_angle_gamma   98.62017808
_symmetry_Int_Tables_number   1
_chemical_formula_structural   SrMgCr(PO4)2
_chemical_formula_sum   'Sr2 Mg2 Cr2 P4 O16'
_cell_volume   324.48755172
_cell_formula_units_Z   2
loop_
 _symmetry_equiv_pos_site_id
 _symmetry_equiv_pos_as_xyz
  1  'x, y, z'
loop_
 _atom_site_type_symbol
 _atom_site_label
 _atom_site_symmetry_multiplicity
 _atom_site_fract_x
 _atom_site_fract_y
 _atom_site_fract_z
 _atom_site_occupancy
  Sr  Sr0  1  0.20256200  0.74789300  0.05456900  1
  Sr  Sr1  1  0.79743800  0.25210700  0.94543100  1
  Mg  Mg0  1  0.34429300  0.74356300  0.64843500  1
  Mg  Mg1  1  0.65570700  0.25643700  0.35156500  1
  Cr  Cr0  1  0.09250600  0.29509500  0.54846200  1
  Cr  Cr1  1  0.90749400  0.70490500  0.45153800  1
  P  P0  1  0.15563500  0.18825700  0.23518500  1
  P  P1  1  0.84436500  0.81174300  0.76481500  1
  P  P2  1  0.53944400  0.72456200  0.29825600  1
  P  P3  1  0.46055600  0.27543800  0.70174400  1
  O  O0  1  0.93057900  0.66528600  0.88996200  1
  O  O1  1  0.44053700  0.26494400  0.21276400  1
  O  O2  1  0.90136400  0.04213200  0.76016500  1
  O  O3  1  0.26545500  0.42009200  0.68779100  1
  O  O4  1  0.55946300  0.73505600  0.78723600  1
  O  O5  1  0.45031200  0.15516900  0.58572800  1
  O  O6  1  0.54968800  0.84483100  0.41427200  1
  O  O7  1  0.38892200  0.12936800  0.87277600  1
  O  O8  1  0.09863600  0.95786800  0.23983500  1
  O  O9  1  0.61107800  0.87063200  0.12722400  1
  O  O10  1  0.06942100  0.33471400  0.11003800  1
  O  O11  1  0.97159600  0.18883000  0.39524200  1
  O  O12  1  0.02840400  0.81117000  0.60475800  1
  O  O13  1  0.26815600  0.57573100  0.35319900  1
  O  O14  1  0.73454500  0.57990800  0.31220900  1
  O  O15  1  0.73184400  0.42426900  0.64680100  1
loop_
_geom_bond_atom_site_label_1
_geom_bond_atom_site_label_2
_geom_bond_distance
_geom_bond_site_symmetry_2
Mg0 O4 1.606426 1_555
Mg0 O12 1.908896 1_555
Mg0 O13 2.523711 1_555
Mg0 O7 2.701063 1_565
Mg1 O1 1.606426 1_555
Mg1 O11 1.908896 1_555
Mg1 O15 2.523711 1_555
Mg1 O9 2.701063 1_545
Cr0 O11 1.338174 1_455
Cr0 O3 1.360255 1_555
Cr0 O15 2.566604 1_455
Cr1 O12 1.338174 1_655
Cr1 O14 1.360255 1_555
Cr1 O13 2.566604 1_655
O0 Sr0 1.793009 1_656
O0 P1 1.821500 1_555
O1 P0 1.698227 1_555
O2 P1 1.579468 1_545
O2 Sr1 2.105409 1_555
O3 P3 1.603605 1_555
O4 P1 1.698227 1_555
O5 P3 1.104394 1_555
O6 P2 1.104394 1_555
O7 Sr1 2.209074 1_555
O7 P3 2.229572 1_555
O8 P0 1.579468 1_565
O8 Sr0 2.105409 1_555
O9 Sr0 2.209074 1_555
O9 P2 2.229572 1_555
O10 Sr1 1.793009 1_454
O10 P0 1.821500 1_555
O11 P0 1.998978 1_655
O12 P1 1.998978 1_455
O13 P2 1.970085 1_555
O14 P2 1.603605 1_555
O15 P3 1.970085 1_555
