# generated using pymatgen
data_V9Cr3B8
_symmetry_space_group_name_H-M   'P 1'
_cell_length_a   2.99238071
_cell_length_b   5.64164158
_cell_length_c   11.28555584
_cell_angle_alpha   90.00838597
_cell_angle_beta   90.00000000
_cell_angle_gamma   90.00000000
_symmetry_Int_Tables_number   1
_chemical_formula_structural   V9Cr3B8
_chemical_formula_sum   'V9 Cr3 B8'
_cell_volume   190.52206811
_cell_formula_units_Z   1
loop_
 _symmetry_equiv_pos_site_id
 _symmetry_equiv_pos_as_xyz
  1  'x, y, z'
loop_
 _atom_site_type_symbol
 _atom_site_label
 _atom_site_symmetry_multiplicity
 _atom_site_fract_x
 _atom_site_fract_y
 _atom_site_fract_z
 _atom_site_occupancy
  V  V0  1  0.50000000  0.82308576  0.09074894  1
  V  V1  1  0.50000000  0.82120542  0.58889086  1
  V  V2  1  0.50000000  0.17691424  0.90925106  1
  V  V3  1  0.50000000  0.17879458  0.41110914  1
  V  V4  1  0.50000000  0.68072813  0.83726377  1
  V  V5  1  0.50000000  0.67890617  0.34042185  1
  V  V6  1  0.50000000  0.31927187  0.16273623  1
  V  V7  1  0.50000000  0.32109383  0.65957815  1
  V  V8  1  -0.00000000  0.50000000  -0.00000000  1
  Cr  Cr0  1  -0.00000000  0.50000000  0.50000000  1
  Cr  Cr1  1  -0.00000000  0.00019973  0.74922882  1
  Cr  Cr2  1  -0.00000000  0.99980027  0.25077118  1
  B  B0  1  -0.00000000  0.38706525  0.80456976  1
  B  B1  1  -0.00000000  0.38779376  0.30741437  1
  B  B2  1  -0.00000000  0.61293475  0.19543024  1
  B  B3  1  -0.00000000  0.61220624  0.69258563  1
  B  B4  1  -0.00000000  0.11146488  0.05651902  1
  B  B5  1  -0.00000000  0.11240819  0.55614816  1
  B  B6  1  -0.00000000  0.88853512  0.94348098  1
  B  B7  1  -0.00000000  0.88759181  0.44385184  1
loop_
_geom_bond_atom_site_label_1
_geom_bond_atom_site_label_2
_geom_bond_distance
_geom_bond_site_symmetry_2
B0 B3 1.791923 1_555
B0 V2 2.245063 1_555
B0 V2 2.245063 1_455
B0 V7 2.248209 1_555
B0 V7 2.248209 1_455
B0 V4 2.262595 1_455
B0 V4 2.262595 1_555
B0 Cr1 2.270071 1_555
B0 V8 2.295634 1_556
B1 B2 1.791923 1_555
B1 V3 2.235790 1_455
B1 V3 2.235790 1_555
B1 V6 2.248064 1_555
B1 V6 2.248064 1_455
B1 V5 2.252662 1_455
B1 V5 2.252662 1_555
B1 Cr0 2.263657 1_555
B1 Cr2 2.280264 1_545
B2 V0 2.245063 1_555
B2 V0 2.245063 1_455
B2 V5 2.248209 1_455
B2 V5 2.248209 1_555
B2 V6 2.262595 1_455
B2 V6 2.262595 1_555
B2 Cr2 2.270071 1_555
B2 V8 2.295634 1_555
B3 V1 2.235790 1_555
B3 V1 2.235790 1_455
B3 V4 2.248064 1_555
B3 V4 2.248064 1_455
B3 V7 2.252662 1_455
B3 V7 2.252662 1_555
B3 Cr0 2.263657 1_555
B3 Cr1 2.280264 1_565
B4 B6 1.791289 1_544
B4 V0 2.243860 1_445
B4 V0 2.243860 1_545
B4 V6 2.247123 1_555
B4 V6 2.247123 1_455
B4 V2 2.266573 1_554
B4 V2 2.266573 1_454
B4 Cr2 2.281053 1_545
B4 V8 2.282985 1_555
B5 B7 1.792851 1_545
B5 V7 2.233113 1_555
B5 V7 2.233113 1_455
B5 V3 2.249067 1_455
B5 V3 2.249067 1_555
B5 V1 2.252621 1_445
B5 V1 2.252621 1_545
B5 Cr1 2.269203 1_555
B5 Cr0 2.276706 1_555
B6 V2 2.243860 1_565
B6 V2 2.243860 1_465
B6 V4 2.247123 1_455
B6 V4 2.247123 1_555
B6 V0 2.266573 1_456
B6 V0 2.266573 1_556
B6 Cr1 2.281053 1_565
B6 V8 2.282985 1_556
B7 V5 2.233113 1_455
B7 V5 2.233113 1_555
B7 V1 2.249067 1_555
B7 V1 2.249067 1_455
B7 V3 2.252621 1_465
B7 V3 2.252621 1_565
B7 Cr2 2.269203 1_555
B7 Cr0 2.276706 1_555
