# generated using pymatgen
data_HfVGe
_symmetry_space_group_name_H-M   'P 1'
_cell_length_a   3.68047480
_cell_length_b   3.68047480
_cell_length_c   7.24772331
_cell_angle_alpha   90.00000000
_cell_angle_beta   90.00000000
_cell_angle_gamma   90.00000000
_symmetry_Int_Tables_number   1
_chemical_formula_structural   HfVGe
_chemical_formula_sum   'Hf2 V2 Ge2'
_cell_volume   98.17689716
_cell_formula_units_Z   2
loop_
 _symmetry_equiv_pos_site_id
 _symmetry_equiv_pos_as_xyz
  1  'x, y, z'
loop_
 _atom_site_type_symbol
 _atom_site_label
 _atom_site_symmetry_multiplicity
 _atom_site_fract_x
 _atom_site_fract_y
 _atom_site_fract_z
 _atom_site_occupancy
  Hf  Hf0  1  0.75000000  0.75000000  0.36176613  1
  Hf  Hf1  1  0.25000000  0.25000000  0.63823387  1
  V  V0  1  0.75000000  0.25000000  0.00000000  1
  V  V1  1  0.25000000  0.75000000  0.00000000  1
  Ge  Ge0  1  0.75000000  0.75000000  0.75053717  1
  Ge  Ge1  1  0.25000000  0.25000000  0.24946283  1
loop_
_geom_bond_atom_site_label_1
_geom_bond_atom_site_label_2
_geom_bond_distance
_geom_bond_site_symmetry_2
Ge0 V1 2.579820 1_656
Ge0 V0 2.579820 1_566
Ge0 V0 2.579820 1_556
Ge0 V1 2.579820 1_556
Ge0 Hf1 2.726802 1_655
Ge0 Hf1 2.726802 1_555
Ge0 Hf1 2.726802 1_665
Ge0 Hf1 2.726802 1_565
Ge0 Hf0 2.817705 1_555
Ge1 V0 2.579820 1_555
Ge1 V0 2.579820 1_455
Ge1 V1 2.579820 1_545
Ge1 V1 2.579820 1_555
Ge1 Hf0 2.726802 1_555
Ge1 Hf0 2.726802 1_445
Ge1 Hf0 2.726802 1_545
Ge1 Hf0 2.726802 1_455
Ge1 Hf1 2.817705 1_555
