# generated using pymatgen
data_Sr4LiTb2(RuO6)2
_symmetry_space_group_name_H-M   'P 1'
_cell_length_a   5.84179829
_cell_length_b   5.96307206
_cell_length_c   8.34631515
_cell_angle_alpha   90.76497708
_cell_angle_beta   92.53237388
_cell_angle_gamma   89.97502154
_symmetry_Int_Tables_number   1
_chemical_formula_structural   Sr4LiTb2(RuO6)2
_chemical_formula_sum   'Sr4 Li1 Tb2 Ru2 O12'
_cell_volume   290.43459575
_cell_formula_units_Z   1
loop_
 _symmetry_equiv_pos_site_id
 _symmetry_equiv_pos_as_xyz
  1  'x, y, z'
loop_
 _atom_site_type_symbol
 _atom_site_label
 _atom_site_symmetry_multiplicity
 _atom_site_fract_x
 _atom_site_fract_y
 _atom_site_fract_z
 _atom_site_occupancy
  Sr  Sr0  1  0.94253500  0.43008000  0.79027400  1
  Sr  Sr1  1  0.51308800  0.95271800  0.74296100  1
  Sr  Sr2  1  0.48214100  0.04329800  0.24331900  1
  Sr  Sr3  1  0.00135300  0.54797400  0.23389400  1
  Li  Li0  1  0.15167100  0.58395200  0.56034400  1
  Tb  Tb0  1  0.47677400  0.49981000  0.99679200  1
  Tb  Tb1  1  0.00884700  0.01942700  0.49489500  1
  Ru  Ru0  1  0.98600900  0.99476500  0.00088700  1
  Ru  Ru1  1  0.52950800  0.49996400  0.49228500  1
  O  O0  1  0.70924900  0.19841900  0.96294600  1
  O  O1  1  0.82572700  0.67734300  0.54048700  1
  O  O2  1  0.25200800  0.79093300  0.04175200  1
  O  O3  1  0.23273000  0.31690200  0.44918400  1
  O  O4  1  0.78088200  0.72610500  0.96242600  1
  O  O5  1  0.70074000  0.22216800  0.54567600  1
  O  O6  1  0.18314600  0.27144300  0.04126100  1
  O  O7  1  0.32579600  0.79198600  0.45826700  1
  O  O8  1  0.41839000  0.52600500  0.72330500  1
  O  O9  1  0.06290900  0.01541800  0.77018400  1
  O  O10  1  0.58183600  0.48147500  0.26360200  1
  O  O11  1  0.91799400  0.98273100  0.23213500  1
loop_
_geom_bond_atom_site_label_1
_geom_bond_atom_site_label_2
_geom_bond_distance
_geom_bond_site_symmetry_2
Li0 O7 1.845358 1_555
Li0 O3 1.902518 1_555
Li0 O1 1.984149 1_455
Li0 O8 2.054721 1_555
Li0 Sr0 2.504501 1_455
O0 Ru0 2.037727 1_546
O0 Tb0 2.274283 1_555
O0 Sr0 2.463918 1_555
O0 Sr1 2.564101 1_545
O0 Sr2 2.902586 1_556
O1 Ru1 2.050319 1_555
O1 Tb1 2.347092 1_665
O1 Sr0 2.634674 1_555
O1 Sr3 2.893858 1_655
O1 Sr1 3.013951 1_555
O2 Ru0 1.992716 1_455
O2 Tb0 2.214202 1_554
O2 Sr2 2.576159 1_565
O2 Sr3 2.662001 1_555
O3 Ru1 2.064668 1_555
O3 Tb1 2.250975 1_555
O3 Sr3 2.608490 1_555
O3 Sr2 2.807364 1_555
O4 Ru0 2.014813 1_556
O4 Tb0 2.262018 1_555
O4 Sr0 2.474470 1_555
O4 Sr1 2.727567 1_555
O4 Sr3 2.779559 1_656
O5 Ru1 1.980431 1_555
O5 Tb1 2.220965 1_655
O5 Sr1 2.593520 1_545
O5 Sr0 2.716451 1_555
O5 Sr2 2.963335 1_555
O6 Ru0 2.028384 1_445
O6 Tb0 2.237469 1_554
O6 Sr3 2.551561 1_555
O6 Sr0 2.655254 1_454
O6 Sr2 2.746749 1_555
O7 Ru1 2.123829 1_555
O7 Tb1 2.323331 1_565
O7 Sr2 2.552696 1_565
O7 Sr1 2.733528 1_555
O7 Sr3 2.971942 1_555
O8 Ru1 2.065387 1_555
O8 Tb0 2.300371 1_555
O8 Sr1 2.605685 1_555
O8 Sr0 2.917944 1_455
O8 Sr0 3.141802 1_555
O9 Ru0 2.001855 1_446
O9 Tb1 2.305827 1_555
O9 Sr0 2.575749 1_455
O9 Sr1 2.675300 1_545
O10 Ru1 1.947947 1_555
O10 Tb0 2.287642 1_554
O10 Sr3 2.506390 1_655
O10 Sr2 2.678768 1_555
O11 Ru0 1.989893 1_555
O11 Tb1 2.241337 1_665
O11 Sr2 2.577094 1_565
O11 Sr3 2.637731 1_655
