# generated using pymatgen
data_Sm4(SiS4)3
_symmetry_space_group_name_H-M   'P 1'
_cell_length_a   11.32814575
_cell_length_b   11.32814575
_cell_length_c   11.32814672
_cell_angle_alpha   114.81363799
_cell_angle_beta   114.81363799
_cell_angle_gamma   114.81363581
_symmetry_Int_Tables_number   1
_chemical_formula_structural   Sm4(SiS4)3
_chemical_formula_sum   'Sm8 Si6 S24'
_cell_volume   827.22238451
_cell_formula_units_Z   2
loop_
 _symmetry_equiv_pos_site_id
 _symmetry_equiv_pos_as_xyz
  1  'x, y, z'
loop_
 _atom_site_type_symbol
 _atom_site_label
 _atom_site_symmetry_multiplicity
 _atom_site_fract_x
 _atom_site_fract_y
 _atom_site_fract_z
 _atom_site_occupancy
  Sm  Sm0  1  0.50558941  0.50558941  0.50558941  1
  Sm  Sm1  1  0.00558941  0.00558941  0.00558941  1
  Sm  Sm2  1  0.06556851  0.28918658  0.52720023  1
  Sm  Sm3  1  0.28918658  0.52720023  0.06556851  1
  Sm  Sm4  1  0.52720023  0.06556851  0.28918658  1
  Sm  Sm5  1  0.56556851  0.02720023  0.78918658  1
  Sm  Sm6  1  0.02720023  0.78918658  0.56556851  1
  Sm  Sm7  1  0.78918658  0.56556851  0.02720023  1
  Si  Si0  1  0.35914633  0.14659338  0.53166033  1
  Si  Si1  1  0.14659338  0.53166033  0.35914633  1
  Si  Si2  1  0.53166033  0.35914633  0.14659338  1
  Si  Si3  1  0.85914633  0.03166033  0.64659338  1
  Si  Si4  1  0.03166033  0.64659338  0.85914633  1
  Si  Si5  1  0.64659338  0.85914633  0.03166033  1
  S  S0  1  0.10880405  0.18498137  0.71751733  1
  S  S1  1  0.18498137  0.71751733  0.10880405  1
  S  S2  1  0.71751733  0.10880405  0.18498137  1
  S  S3  1  0.60880405  0.21751733  0.68498137  1
  S  S4  1  0.21751733  0.68498137  0.60880405  1
  S  S5  1  0.68498137  0.60880405  0.21751733  1
  S  S6  1  0.31812058  0.13156448  0.31973808  1
  S  S7  1  0.13156448  0.31973808  0.31812058  1
  S  S8  1  0.31973808  0.31812058  0.13156448  1
  S  S9  1  0.81812058  0.81973808  0.63156448  1
  S  S10  1  0.81973808  0.63156448  0.81812058  1
  S  S11  1  0.63156448  0.81812058  0.81973808  1
  S  S12  1  0.41238820  0.37951137  0.69927513  1
  S  S13  1  0.37951137  0.69927513  0.41238820  1
  S  S14  1  0.69927513  0.41238820  0.37951137  1
  S  S15  1  0.91238820  0.19927513  0.87951137  1
  S  S16  1  0.19927513  0.87951137  0.91238820  1
  S  S17  1  0.87951137  0.91238820  0.19927513  1
  S  S18  1  0.65019499  0.91796065  0.38199901  1
  S  S19  1  0.91796065  0.38199901  0.65019499  1
  S  S20  1  0.38199901  0.65019499  0.91796065  1
  S  S21  1  0.15019499  0.88199901  0.41796065  1
  S  S22  1  0.88199901  0.41796065  0.15019499  1
  S  S23  1  0.41796065  0.15019499  0.88199901  1
loop_
_geom_bond_atom_site_label_1
_geom_bond_atom_site_label_2
_geom_bond_distance
_geom_bond_site_symmetry_2
S0 Si3 2.111709 1_455
S0 Sm2 2.831344 1_555
S0 Sm3 2.917084 1_556
S1 Si4 2.111709 1_554
S1 Sm3 2.831344 1_555
S1 Sm4 2.917084 1_565
S2 Si5 2.111709 1_545
S2 Sm4 2.831344 1_555
S2 Sm2 2.917084 1_655
S3 Si0 2.111709 1_555
S3 Sm5 2.831344 1_555
S3 Sm7 2.917084 1_556
S4 Si1 2.111709 1_555
S4 Sm6 2.831344 1_555
S4 Sm5 2.917084 1_565
S5 Si2 2.111709 1_555
S5 Sm7 2.831344 1_555
S5 Sm6 2.917084 1_655
S6 Si0 2.159248 1_555
S6 Sm0 2.846475 1_555
S6 Sm1 2.856074 1_555
S6 Sm4 2.871495 1_555
S7 Si1 2.159248 1_555
S7 Sm0 2.846475 1_555
S7 Sm1 2.856074 1_555
S7 Sm2 2.871496 1_555
S8 Si2 2.159248 1_555
S8 Sm0 2.846476 1_555
S8 Sm1 2.856074 1_555
S8 Sm3 2.871495 1_555
S9 Si3 2.159248 1_565
S9 Sm1 2.846476 1_666
S9 Sm0 2.856074 1_555
S9 Sm6 2.871495 1_655
S10 Si4 2.159248 1_655
S10 Sm1 2.846475 1_666
S10 Sm0 2.856074 1_555
S10 Sm7 2.871496 1_556
S11 Si5 2.159248 1_556
S11 Sm1 2.846475 1_666
S11 Sm0 2.856074 1_555
S11 Sm5 2.871495 1_565
S12 Si0 2.104511 1_555
S12 Sm2 2.967512 1_555
S12 Sm7 3.004983 1_556
S12 Sm0 3.358203 1_555
S13 Si1 2.104511 1_555
S13 Sm3 2.967512 1_555
S13 Sm5 3.004983 1_565
S13 Sm0 3.358203 1_555
S14 Si2 2.104511 1_555
S14 Sm4 2.967512 1_555
S14 Sm6 3.004983 1_655
S14 Sm0 3.358203 1_555
S15 Si3 2.104511 1_555
S15 Sm5 2.967512 1_555
S15 Sm3 3.004983 1_656
S15 Sm1 3.358203 1_656
S16 Si4 2.104511 1_555
S16 Sm6 2.967512 1_555
S16 Sm4 3.004983 1_566
S16 Sm1 3.358203 1_566
S17 Si5 2.104511 1_555
S17 Sm7 2.967512 1_555
S17 Sm2 3.004983 1_665
S17 Sm1 3.358203 1_665
S18 Si3 2.119370 1_565
S18 Sm4 2.836235 1_565
S18 Sm3 2.889948 1_555
S19 Si4 2.119370 1_655
S19 Sm2 2.836235 1_655
S19 Sm4 2.889948 1_555
S20 Si5 2.119370 1_556
S20 Sm3 2.836235 1_556
S20 Sm2 2.889948 1_555
S21 Si0 2.119370 1_565
S21 Sm6 2.836235 1_555
S21 Sm7 2.889948 1_455
S22 Si1 2.119370 1_655
S22 Sm7 2.836235 1_555
S22 Sm5 2.889948 1_554
S23 Si2 2.119370 1_556
S23 Sm5 2.836235 1_555
S23 Sm6 2.889948 1_545
