# generated using pymatgen
data_LiFe6(OF2)4
_symmetry_space_group_name_H-M   'P 1'
_cell_length_a   7.82871373
_cell_length_b   5.78225579
_cell_length_c   5.85938835
_cell_angle_alpha   70.52924741
_cell_angle_beta   68.24756539
_cell_angle_gamma   69.61384475
_symmetry_Int_Tables_number   1
_chemical_formula_structural   LiFe6(OF2)4
_chemical_formula_sum   'Li1 Fe6 O4 F8'
_cell_volume   224.48024795
_cell_formula_units_Z   1
loop_
 _symmetry_equiv_pos_site_id
 _symmetry_equiv_pos_as_xyz
  1  'x, y, z'
loop_
 _atom_site_type_symbol
 _atom_site_label
 _atom_site_symmetry_multiplicity
 _atom_site_fract_x
 _atom_site_fract_y
 _atom_site_fract_z
 _atom_site_occupancy
  Li  Li0  1  0.17798500  0.32304000  0.82524100  1
  Fe  Fe0  1  0.84145600  0.62916300  0.66872100  1
  Fe  Fe1  1  0.66843900  0.34724800  0.31480700  1
  Fe  Fe2  1  0.34569500  0.71344600  0.63613900  1
  Fe  Fe3  1  0.15342300  0.32572800  0.35220800  1
  Fe  Fe4  1  0.51321500  0.97438200  0.01570000  1
  Fe  Fe5  1  0.98934200  0.95963100  0.01527800  1
  O  O0  1  0.33219500  0.99449400  0.33648300  1
  O  O1  1  0.66860700  0.64124400  0.01176300  1
  O  O2  1  0.99929600  0.27413100  0.70505800  1
  O  O3  1  0.00332100  0.67520700  0.32037300  1
  F  F0  1  0.67791700  0.03601000  0.62980200  1
  F  F1  1  0.34107600  0.38845800  0.95563300  1
  F  F2  1  0.31317400  0.94991200  0.87854200  1
  F  F3  1  0.98511400  0.24426200  0.20037400  1
  F  F4  1  0.64118500  0.56846500  0.56549800  1
  F  F5  1  0.04448600  0.71141600  0.77569900  1
  F  F6  1  0.35680900  0.41681900  0.46708400  1
  F  F7  1  0.68893400  0.09777300  0.09643400  1
loop_
_geom_bond_atom_site_label_1
_geom_bond_atom_site_label_2
_geom_bond_distance
_geom_bond_site_symmetry_2
Li0 O2 1.916077 1_455
Fe0 O3 1.948967 1_655
Fe0 O1 1.971779 1_556
Fe0 O2 1.980631 1_555
Fe1 O1 2.007566 1_555
Fe2 O0 1.962302 1_555
Fe3 O3 1.938041 1_555
Fe3 O0 1.946817 1_545
Fe3 O2 1.951921 1_455
Fe4 O1 1.888719 1_555
Fe4 O0 1.900347 1_555
Fe5 O3 1.993021 1_655
Fe5 O2 2.099340 1_564
F0 Fe1 2.108301 1_555
F0 Fe4 2.127027 1_546
F0 Fe0 2.232890 1_545
F1 Li0 1.899782 1_555
F1 Fe2 2.165426 1_555
F1 Fe3 2.229000 1_556
F1 Fe4 2.283513 1_546
F2 Li0 2.019283 1_565
F2 Fe4 2.069175 1_556
F2 Fe2 2.176189 1_555
F2 Fe5 2.344677 1_456
F3 Fe3 2.080920 1_655
F3 Li0 2.161148 1_654
F3 Fe1 2.226202 1_555
F3 Fe5 2.238619 1_545
F4 Fe0 2.043266 1_555
F4 Fe2 2.096671 1_555
F4 Fe1 2.160903 1_555
F5 Li0 2.091603 1_555
F5 Fe0 2.146948 1_455
F5 Fe5 2.163147 1_456
F5 Fe2 2.193859 1_555
F6 Li0 2.061711 1_555
F6 Fe1 2.202726 1_555
F6 Fe3 2.209245 1_555
F6 Fe2 2.212549 1_555
F7 Fe4 2.004094 1_545
F7 Fe5 2.123840 1_545
F7 Fe1 2.158911 1_555
