# generated using pymatgen
data_CaNb2CuBrO7
_symmetry_space_group_name_H-M   'P 1'
_cell_length_a   3.95759800
_cell_length_b   3.95759800
_cell_length_c   11.56943400
_cell_angle_alpha   90.00000000
_cell_angle_beta   90.00000000
_cell_angle_gamma   90.00000000
_symmetry_Int_Tables_number   1
_chemical_formula_structural   CaNb2CuBrO7
_chemical_formula_sum   'Ca1 Nb2 Cu1 Br1 O7'
_cell_volume   181.20720790
_cell_formula_units_Z   1
loop_
 _symmetry_equiv_pos_site_id
 _symmetry_equiv_pos_as_xyz
  1  'x, y, z'
loop_
 _atom_site_type_symbol
 _atom_site_label
 _atom_site_symmetry_multiplicity
 _atom_site_fract_x
 _atom_site_fract_y
 _atom_site_fract_z
 _atom_site_occupancy
  Ca  Ca0  1  0.00000000  0.00000000  0.00000000  1
  Nb  Nb0  1  0.50000000  0.50000000  0.81580200  1
  Nb  Nb1  1  0.50000000  0.50000000  0.18419800  1
  Cu  Cu0  1  0.50000000  0.50000000  0.50000000  1
  Br  Br0  1  0.00000000  0.00000000  0.50000000  1
  O  O0  1  0.00000000  0.50000000  0.15435200  1
  O  O1  1  0.50000000  0.00000000  0.15435200  1
  O  O2  1  0.50000000  0.50000000  0.34481300  1
  O  O3  1  0.50000000  0.00000000  0.84564800  1
  O  O4  1  0.00000000  0.50000000  0.84564800  1
  O  O5  1  0.50000000  0.50000000  0.65518700  1
  O  O6  1  0.50000000  0.50000000  0.00000000  1
loop_
_geom_bond_atom_site_label_1
_geom_bond_atom_site_label_2
_geom_bond_distance
_geom_bond_site_symmetry_2
Ca0 O0 2.665446 1_555
Ca0 O1 2.665446 1_455
Ca0 O0 2.665446 1_545
Ca0 O1 2.665446 1_555
Ca0 O4 2.665446 1_544
Ca0 O4 2.665446 1_554
Ca0 O3 2.665446 1_554
Ca0 O3 2.665446 1_454
Ca0 O6 2.798444 1_455
Ca0 O6 2.798444 1_445
Ca0 O6 2.798444 1_545
Ca0 O6 2.798444 1_555
Nb0 O5 1.858225 1_555
Nb0 O4 2.008701 1_555
Nb0 O4 2.008701 1_655
Nb0 O3 2.008701 1_565
Nb0 O3 2.008701 1_555
Nb0 O6 2.131067 1_556
Nb1 O2 1.858225 1_555
Nb1 O0 2.008701 1_655
Nb1 O1 2.008701 1_555
Nb1 O1 2.008701 1_565
Nb1 O0 2.008701 1_555
Nb1 O6 2.131067 1_555
Cu0 O5 1.795426 1_555
Cu0 O2 1.795426 1_555
Br0 Cu0 2.798444 1_455
Br0 Cu0 2.798444 1_445
Br0 Cu0 2.798444 1_555
Br0 Cu0 2.798444 1_545
