# generated using pymatgen
data_Sr4SnN4
_symmetry_space_group_name_H-M   'P 1'
_cell_length_a   13.09728000
_cell_length_b   3.83735300
_cell_length_c   17.16561900
_cell_angle_alpha   90.00000000
_cell_angle_beta   90.00000000
_cell_angle_gamma   90.00000000
_symmetry_Int_Tables_number   1
_chemical_formula_structural   Sr4SnN4
_chemical_formula_sum   'Sr16 Sn4 N16'
_cell_volume   862.72490045
_cell_formula_units_Z   4
loop_
 _symmetry_equiv_pos_site_id
 _symmetry_equiv_pos_as_xyz
  1  'x, y, z'
loop_
 _atom_site_type_symbol
 _atom_site_label
 _atom_site_symmetry_multiplicity
 _atom_site_fract_x
 _atom_site_fract_y
 _atom_site_fract_z
 _atom_site_occupancy
  Sr  Sr0  1  0.54906600  0.25000000  0.90281200  1
  Sr  Sr1  1  0.04906600  0.25000000  0.59718800  1
  Sr  Sr2  1  0.45093400  0.75000000  0.09718800  1
  Sr  Sr3  1  0.95093400  0.75000000  0.40281200  1
  Sr  Sr4  1  0.62539300  0.25000000  0.46706900  1
  Sr  Sr5  1  0.12539300  0.25000000  0.03293100  1
  Sr  Sr6  1  0.37460700  0.75000000  0.53293100  1
  Sr  Sr7  1  0.87460700  0.75000000  0.96706900  1
  Sr  Sr8  1  0.82659800  0.25000000  0.75373900  1
  Sr  Sr9  1  0.32659800  0.25000000  0.74626100  1
  Sr  Sr10  1  0.17340200  0.75000000  0.24626100  1
  Sr  Sr11  1  0.67340200  0.75000000  0.25373900  1
  Sr  Sr12  1  0.91629100  0.25000000  0.16561300  1
  Sr  Sr13  1  0.41629100  0.25000000  0.33438700  1
  Sr  Sr14  1  0.08370900  0.75000000  0.83438700  1
  Sr  Sr15  1  0.58370900  0.75000000  0.66561300  1
  Sn  Sn0  1  0.68296800  0.25000000  0.07534000  1
  Sn  Sn1  1  0.18296800  0.25000000  0.42466000  1
  Sn  Sn2  1  0.31703200  0.75000000  0.92466000  1
  Sn  Sn3  1  0.81703200  0.75000000  0.57534000  1
  N  N0  1  0.29334300  0.25000000  0.20547000  1
  N  N1  1  0.79334300  0.25000000  0.29453000  1
  N  N2  1  0.70665700  0.75000000  0.79453000  1
  N  N3  1  0.20665700  0.75000000  0.70547000  1
  N  N4  1  0.00846600  0.25000000  0.92201000  1
  N  N5  1  0.50846600  0.25000000  0.57799000  1
  N  N6  1  0.99153400  0.75000000  0.07799000  1
  N  N7  1  0.49153400  0.75000000  0.42201000  1
  N  N8  1  0.88418100  0.25000000  0.32004100  1
  N  N9  1  0.38418100  0.25000000  0.17995900  1
  N  N10  1  0.11581900  0.75000000  0.67995900  1
  N  N11  1  0.61581900  0.75000000  0.82004100  1
  N  N12  1  0.94488000  0.25000000  0.86207800  1
  N  N13  1  0.44488000  0.25000000  0.63792200  1
  N  N14  1  0.05512000  0.75000000  0.13792200  1
  N  N15  1  0.55512000  0.75000000  0.36207800  1
loop_
_geom_bond_atom_site_label_1
_geom_bond_atom_site_label_2
_geom_bond_distance
_geom_bond_site_symmetry_2
Sn0 Sr12 3.426330 1_555
Sn0 Sr0 3.441863 1_554
Sn0 Sr2 3.613527 1_555
Sn0 Sr2 3.613527 1_545
Sn0 Sr11 3.615920 1_555
Sn0 Sr11 3.615920 1_545
Sn0 Sr7 3.665424 1_544
Sn0 Sr7 3.665424 1_554
Sn1 Sr13 3.426330 1_555
Sn1 Sr1 3.441863 1_555
Sn1 Sr3 3.613527 1_455
Sn1 Sr3 3.613527 1_445
Sn1 Sr10 3.615920 1_555
Sn1 Sr10 3.615920 1_545
Sn1 Sr6 3.665424 1_555
Sn1 Sr6 3.665424 1_545
Sn2 Sr14 3.426330 1_555
Sn2 Sr2 3.441863 1_556
Sn2 Sr0 3.613527 1_555
Sn2 Sr0 3.613527 1_565
Sn2 Sr9 3.615920 1_555
Sn2 Sr9 3.615920 1_565
Sn2 Sr5 3.665424 1_556
Sn2 Sr5 3.665424 1_566
Sn3 Sr15 3.426330 1_555
Sn3 Sr3 3.441863 1_555
Sn3 Sr1 3.613527 1_665
Sn3 Sr1 3.613527 1_655
Sn3 Sr8 3.615920 1_565
Sn3 Sr8 3.615920 1_555
Sn3 Sr4 3.665424 1_555
Sn3 Sr4 3.665424 1_565
N0 N9 1.267764 1_555
N0 Sr10 2.576690 1_555
N0 Sr10 2.576690 1_545
N0 Sr13 2.736808 1_555
N1 N8 1.267764 1_555
N1 Sr11 2.576690 1_545
N1 Sr11 2.576690 1_555
N1 Sr12 2.736808 1_555
N2 Sr8 2.576690 1_555
N2 Sr8 2.576690 1_565
N2 Sr15 2.736808 1_555
N3 Sr9 2.576690 1_555
N3 Sr9 2.576690 1_565
N3 Sr14 2.736808 1_555
N4 Sr5 2.443478 1_556
N4 Sr14 2.629603 1_555
N4 Sr14 2.629603 1_545
N4 Sr7 2.711686 1_445
N4 Sr7 2.711686 1_455
N5 Sr4 2.443478 1_555
N5 Sr15 2.629603 1_545
N5 Sr15 2.629603 1_555
N5 Sr6 2.711686 1_555
N5 Sr6 2.711686 1_545
N6 Sr7 2.443478 1_554
N6 Sr12 2.629603 1_565
N6 Sr12 2.629603 1_555
N6 Sr5 2.711686 1_655
N6 Sr5 2.711686 1_665
N7 Sr6 2.443478 1_555
N7 Sr13 2.629603 1_555
N7 Sr13 2.629603 1_565
N7 Sr4 2.711686 1_555
N7 Sr4 2.711686 1_565
N8 Sr3 2.542520 1_545
N8 Sr3 2.542520 1_555
N8 Sr12 2.684005 1_555
N9 Sr2 2.542520 1_555
N9 Sr2 2.542520 1_545
N9 Sr13 2.684005 1_555
N10 N3 1.267764 1_555
N10 Sr1 2.542520 1_565
N10 Sr1 2.542520 1_555
N10 Sr14 2.684005 1_555
N11 N2 1.267764 1_555
N11 Sr0 2.542520 1_555
N11 Sr0 2.542520 1_565
N11 Sr15 2.684005 1_555
N12 N4 1.323605 1_655
N12 Sr8 2.420422 1_555
N12 Sr14 2.685780 1_655
N12 Sr14 2.685780 1_645
N12 Sr7 2.788634 1_555
N12 Sr7 2.788634 1_545
N13 N5 1.323605 1_555
N13 Sr9 2.420422 1_555
N13 Sr15 2.685780 1_545
N13 Sr15 2.685780 1_555
N13 Sr6 2.788634 1_545
N13 Sr6 2.788634 1_555
N14 N6 1.323605 1_455
N14 Sr10 2.420422 1_555
N14 Sr12 2.685780 1_465
N14 Sr12 2.685780 1_455
N14 Sr5 2.788634 1_565
N14 Sr5 2.788634 1_555
N15 N7 1.323605 1_555
N15 Sr11 2.420422 1_555
N15 Sr13 2.685780 1_555
N15 Sr13 2.685780 1_565
N15 Sr4 2.788634 1_555
N15 Sr4 2.788634 1_565
