# generated using pymatgen
data_Ce4Mg7Ge6
_symmetry_space_group_name_H-M   'P 1'
_cell_length_a   8.73021252
_cell_length_b   8.73021252
_cell_length_c   12.74321957
_cell_angle_alpha   58.46140441
_cell_angle_beta   58.46140441
_cell_angle_gamma   29.90037420
_symmetry_Int_Tables_number   1
_chemical_formula_structural   Ce4Mg7Ge6
_chemical_formula_sum   'Ce4 Mg7 Ge6'
_cell_volume   407.06454928
_cell_formula_units_Z   1
loop_
 _symmetry_equiv_pos_site_id
 _symmetry_equiv_pos_as_xyz
  1  'x, y, z'
loop_
 _atom_site_type_symbol
 _atom_site_label
 _atom_site_symmetry_multiplicity
 _atom_site_fract_x
 _atom_site_fract_y
 _atom_site_fract_z
 _atom_site_occupancy
  Ce  Ce0  1  0.26789500  0.26789500  0.60926900  1
  Ce  Ce1  1  0.73210500  0.73210500  0.39073100  1
  Ce  Ce2  1  0.37216200  0.37216200  0.83548800  1
  Ce  Ce3  1  0.62783800  0.62783800  0.16451200  1
  Mg  Mg0  1  0.03921700  0.03921700  0.86121400  1
  Mg  Mg1  1  0.96078300  0.96078300  0.13878600  1
  Mg  Mg2  1  0.06288700  0.06288700  0.60323100  1
  Mg  Mg3  1  0.93711300  0.93711300  0.39676900  1
  Mg  Mg4  1  0.68918300  0.68918300  0.84613300  1
  Mg  Mg5  1  0.31081700  0.31081700  0.15386700  1
  Mg  Mg6  1  0.50000000  0.50000000  0.50000000  1
  Ge  Ge0  1  0.12199400  0.12199400  0.34472100  1
  Ge  Ge1  1  0.87800600  0.87800600  0.65527900  1
  Ge  Ge2  1  0.15154200  0.15154200  0.97816900  1
  Ge  Ge3  1  0.84845800  0.84845800  0.02183100  1
  Ge  Ge4  1  0.60963400  0.60963400  0.68995300  1
  Ge  Ge5  1  0.39036600  0.39036600  0.31004700  1
loop_
_geom_bond_atom_site_label_1
_geom_bond_atom_site_label_2
_geom_bond_distance
_geom_bond_site_symmetry_2
Ce0 Ge1 3.169514 1_455
Ce0 Ge1 3.169514 1_545
Ce0 Ge5 3.205884 1_555
Ce0 Ge4 3.207024 1_545
Ce0 Ge4 3.207024 1_455
Ce1 Ge0 3.169514 1_565
Ce1 Ge0 3.169514 1_655
Ce1 Ge4 3.205884 1_555
Ce1 Ge5 3.207024 1_565
Ce1 Ge5 3.207024 1_655
Ce2 Ge2 3.135278 1_555
Ce2 Ge3 3.137351 1_456
Ce2 Ge3 3.137351 1_546
Ce2 Ge1 3.179732 1_455
Ce2 Ge1 3.179732 1_545
Ce2 Ge4 3.382746 1_555
Ce3 Ge3 3.135278 1_555
Ce3 Ge2 3.137351 1_564
Ce3 Ge2 3.137351 1_654
Ce3 Ge0 3.179732 1_565
Ce3 Ge0 3.179732 1_655
Ce3 Ge5 3.382746 1_555
Ge0 Mg5 2.770009 1_555
Ge0 Mg3 2.815520 1_445
Ge0 Mg2 2.879171 1_555
Ge0 Mg6 2.968800 1_455
Ge0 Mg6 2.968800 1_545
Ge1 Mg4 2.770009 1_555
Ge1 Mg2 2.815520 1_665
Ge1 Mg3 2.879171 1_555
Ge1 Mg6 2.968800 1_565
Ge1 Mg6 2.968800 1_655
Ge2 Mg4 2.673916 1_455
Ge2 Mg4 2.673916 1_545
Ge2 Mg1 2.722664 1_446
Ge2 Mg0 2.978188 1_555
Ge3 Mg5 2.673916 1_565
Ge3 Mg5 2.673916 1_655
Ge3 Mg0 2.722664 1_664
Ge3 Mg1 2.978188 1_555
Ge4 Mg2 2.803440 1_655
Ge4 Mg2 2.803440 1_565
Ge4 Mg0 2.905059 1_565
Ge4 Mg0 2.905059 1_655
Ge4 Mg4 2.941729 1_555
Ge5 Mg3 2.803440 1_545
Ge5 Mg3 2.803440 1_455
Ge5 Mg1 2.905059 1_455
Ge5 Mg1 2.905059 1_545
Ge5 Mg5 2.941729 1_555
