# generated using pymatgen
data_SmMg2H7
_symmetry_space_group_name_H-M   'P 1'
_cell_length_a   6.21803300
_cell_length_b   6.21803300
_cell_length_c   9.35204600
_cell_angle_alpha   90.00000000
_cell_angle_beta   90.00000000
_cell_angle_gamma   90.00000000
_symmetry_Int_Tables_number   1
_chemical_formula_structural   SmMg2H7
_chemical_formula_sum   'Sm4 Mg8 H28'
_cell_volume   361.58689295
_cell_formula_units_Z   4
loop_
 _symmetry_equiv_pos_site_id
 _symmetry_equiv_pos_as_xyz
  1  'x, y, z'
loop_
 _atom_site_type_symbol
 _atom_site_label
 _atom_site_symmetry_multiplicity
 _atom_site_fract_x
 _atom_site_fract_y
 _atom_site_fract_z
 _atom_site_occupancy
  Sm  Sm0  1  0.77084200  0.22915800  0.75000000  1
  Sm  Sm1  1  0.22915800  0.77084200  0.25000000  1
  Sm  Sm2  1  0.72915800  0.72915800  0.50000000  1
  Sm  Sm3  1  0.27084200  0.27084200  0.00000000  1
  Mg  Mg0  1  0.53204800  0.23961300  0.39983000  1
  Mg  Mg1  1  0.46795200  0.76038700  0.89983000  1
  Mg  Mg2  1  0.73961300  0.96795200  0.14983000  1
  Mg  Mg3  1  0.26038700  0.03204800  0.64983000  1
  Mg  Mg4  1  0.76038700  0.46795200  0.10017000  1
  Mg  Mg5  1  0.23961300  0.53204800  0.60017000  1
  Mg  Mg6  1  0.96795200  0.73961300  0.85017000  1
  Mg  Mg7  1  0.03204800  0.26038700  0.35017000  1
  H  H0  1  0.54032200  0.47662400  0.62303000  1
  H  H1  1  0.45967800  0.52337600  0.12303000  1
  H  H2  1  0.97662400  0.95967800  0.37303000  1
  H  H3  1  0.02337600  0.04032200  0.87303000  1
  H  H4  1  0.52337600  0.45967800  0.87697000  1
  H  H5  1  0.47662400  0.54032200  0.37697000  1
  H  H6  1  0.95967800  0.97662400  0.62697000  1
  H  H7  1  0.04032200  0.02337600  0.12697000  1
  H  H8  1  0.57935600  0.06710400  0.57204800  1
  H  H9  1  0.42064400  0.93289600  0.07204800  1
  H  H10  1  0.56710400  0.92064400  0.32204800  1
  H  H11  1  0.43289600  0.07935600  0.82204800  1
  H  H12  1  0.93289600  0.42064400  0.92795200  1
  H  H13  1  0.06710400  0.57935600  0.42795200  1
  H  H14  1  0.92064400  0.56710400  0.67795200  1
  H  H15  1  0.07935600  0.43289600  0.17795200  1
  H  H16  1  0.81259700  0.34571300  0.49792600  1
  H  H17  1  0.18740300  0.65428700  0.99792600  1
  H  H18  1  0.84571300  0.68740300  0.24792600  1
  H  H19  1  0.15428700  0.31259700  0.74792600  1
  H  H20  1  0.65428700  0.18740300  0.00207400  1
  H  H21  1  0.34571300  0.81259700  0.50207400  1
  H  H22  1  0.68740300  0.84571300  0.75207400  1
  H  H23  1  0.31259700  0.15428700  0.25207400  1
  H  H24  1  0.25162400  0.74837600  0.75000000  1
  H  H25  1  0.74837600  0.25162400  0.25000000  1
  H  H26  1  0.24837600  0.24837600  0.50000000  1
  H  H27  1  0.75162400  0.75162400  0.00000000  1
loop_
_geom_bond_atom_site_label_1
_geom_bond_atom_site_label_2
_geom_bond_distance
_geom_bond_site_symmetry_2
H0 Mg5 1.913294 1_555
H0 Sm2 2.273387 1_555
H0 Sm0 2.415021 1_555
H1 Mg4 1.913294 1_555
H1 Sm3 2.273387 1_555
H1 Sm1 2.415021 1_555
H2 Mg7 1.913294 1_665
H2 Sm1 2.273387 1_655
H2 Sm2 2.415021 1_555
H3 Mg6 1.913294 1_445
H3 Sm0 2.273387 1_455
H3 Sm3 2.415021 1_556
H4 Mg1 1.913294 1_555
H4 Sm3 2.273387 1_556
H4 Sm0 2.415021 1_555
H5 Mg0 1.913294 1_555
H5 Sm2 2.273387 1_555
H5 Sm1 2.415021 1_555
H6 Mg3 1.913294 1_665
H6 Sm0 2.273387 1_565
H6 Sm2 2.415021 1_555
H7 Mg2 1.913294 1_445
H7 Sm1 2.273387 1_545
H7 Sm3 2.415021 1_555
H8 Mg0 1.957332 1_555
H8 Mg3 2.123764 1_555
H8 Sm0 2.280937 1_555
H8 Sm2 2.395278 1_545
H9 Mg1 1.957332 1_554
H9 Mg2 2.123764 1_555
H9 Sm1 2.280937 1_555
H9 Sm3 2.395278 1_565
H10 Mg2 1.957332 1_555
H10 Mg0 2.123764 1_565
H10 Sm2 2.280937 1_555
H10 Sm1 2.395278 1_555
H11 Mg3 1.957332 1_555
H11 Mg1 2.123764 1_545
H11 Sm3 2.280937 1_556
H11 Sm0 2.395278 1_555
H12 Mg4 1.957332 1_556
H12 Mg6 2.123764 1_555
H12 Sm0 2.280937 1_555
H12 Sm3 2.395278 1_656
H13 Mg5 1.957332 1_555
H13 Mg7 2.123764 1_555
H13 Sm1 2.280937 1_555
H13 Sm2 2.395278 1_455
H14 Mg6 1.957332 1_555
H14 Mg5 2.123764 1_655
H14 Sm2 2.280937 1_555
H14 Sm0 2.395278 1_555
H15 Mg7 1.957332 1_555
H15 Mg4 2.123764 1_455
H15 Sm3 2.280937 1_555
H15 Sm1 2.395278 1_555
H16 Mg7 2.013189 1_655
H16 Mg0 2.078465 1_555
H16 Sm2 2.440147 1_555
H16 Sm0 2.479926 1_555
H17 Mg6 2.013189 1_455
H17 Mg1 2.078465 1_555
H17 Sm3 2.440147 1_556
H17 Sm1 2.479926 1_556
H18 Mg4 2.013189 1_555
H18 Mg2 2.078465 1_555
H18 Sm1 2.440147 1_655
H18 Sm2 2.479926 1_555
H19 Mg5 2.013189 1_555
H19 Mg3 2.078465 1_555
H19 Sm0 2.440147 1_455
H19 Sm3 2.479926 1_556
H20 Mg2 2.013189 1_545
H20 Mg4 2.078465 1_555
H20 Sm3 2.440147 1_555
H20 Sm0 2.479926 1_554
H21 Mg3 2.013189 1_565
H21 Mg5 2.078465 1_555
H21 Sm2 2.440147 1_555
H21 Sm1 2.479926 1_555
H22 Mg1 2.013189 1_555
H22 Mg6 2.078465 1_555
H22 Sm0 2.440147 1_565
H22 Sm2 2.479926 1_555
H23 Mg0 2.013189 1_555
H23 Mg7 2.078465 1_555
H23 Sm1 2.440147 1_545
H23 Sm3 2.479926 1_555
H24 Mg5 1.943804 1_555
H24 Mg1 1.943804 1_555
H24 Mg3 1.997957 1_565
H24 Mg6 1.997957 1_455
H25 Mg0 1.943804 1_555
H25 Mg4 1.943804 1_555
H25 Mg2 1.997957 1_545
H25 Mg7 1.997957 1_655
H26 Mg7 1.943804 1_555
H26 Mg3 1.943804 1_555
H26 Mg0 1.997957 1_555
H26 Mg5 1.997957 1_555
H27 Mg6 1.943804 1_554
H27 Mg2 1.943804 1_555
H27 Mg1 1.997957 1_554
H27 Mg4 1.997957 1_555
