# generated using pymatgen
data_La2Zn(SeO)2
_symmetry_space_group_name_H-M   'P 1'
_cell_length_a   14.62648848
_cell_length_b   14.62648848
_cell_length_c   5.77696500
_cell_angle_alpha   90.00000000
_cell_angle_beta   90.00000000
_cell_angle_gamma   104.10740032
_symmetry_Int_Tables_number   1
_chemical_formula_structural   La2Zn(SeO)2
_chemical_formula_sum   'La16 Zn8 Se16 O16'
_cell_volume   1198.61640647
_cell_formula_units_Z   8
loop_
 _symmetry_equiv_pos_site_id
 _symmetry_equiv_pos_as_xyz
  1  'x, y, z'
loop_
 _atom_site_type_symbol
 _atom_site_label
 _atom_site_symmetry_multiplicity
 _atom_site_fract_x
 _atom_site_fract_y
 _atom_site_fract_z
 _atom_site_occupancy
  La  La0  1  0.56851800  0.06851800  0.75000000  1
  La  La1  1  0.93148200  0.43148200  0.25000000  1
  La  La2  1  0.43148200  0.93148200  0.25000000  1
  La  La3  1  0.06851800  0.56851800  0.75000000  1
  La  La4  1  0.68089900  0.68089900  0.27521400  1
  La  La5  1  0.31910100  0.31910100  0.72478600  1
  La  La6  1  0.81910100  0.81910100  0.77521400  1
  La  La7  1  0.18089900  0.18089900  0.22478600  1
  La  La8  1  0.80730400  0.55722800  0.76772500  1
  La  La9  1  0.44277200  0.19269600  0.23227500  1
  La  La10  1  0.94277200  0.69269600  0.26772500  1
  La  La11  1  0.30730400  0.05722800  0.73227500  1
  La  La12  1  0.19269600  0.44277200  0.23227500  1
  La  La13  1  0.55722800  0.80730400  0.76772500  1
  La  La14  1  0.05722800  0.30730400  0.73227500  1
  La  La15  1  0.69269600  0.94277200  0.26772500  1
  Zn  Zn0  1  0.06974700  0.93025300  0.50000000  1
  Zn  Zn1  1  0.56974700  0.43025300  0.00000000  1
  Zn  Zn2  1  0.93025300  0.06974700  0.50000000  1
  Zn  Zn3  1  0.43025300  0.56974700  0.00000000  1
  Zn  Zn4  1  0.31067200  0.68932800  0.50000000  1
  Zn  Zn5  1  0.81067200  0.18932800  0.00000000  1
  Zn  Zn6  1  0.68932800  0.31067200  0.50000000  1
  Zn  Zn7  1  0.18932800  0.81067200  0.00000000  1
  Se  Se0  1  0.33335300  0.83335300  0.75000000  1
  Se  Se1  1  0.16664700  0.66664700  0.25000000  1
  Se  Se2  1  0.66664700  0.16664700  0.25000000  1
  Se  Se3  1  0.83335300  0.33335300  0.75000000  1
  Se  Se4  1  0.91528700  0.91528700  0.28984700  1
  Se  Se5  1  0.08471300  0.08471300  0.71015300  1
  Se  Se6  1  0.58471300  0.58471300  0.78984700  1
  Se  Se7  1  0.41528700  0.41528700  0.21015300  1
  Se  Se8  1  0.04270200  0.78983200  0.76081300  1
  Se  Se9  1  0.21016800  0.95729800  0.23918700  1
  Se  Se10  1  0.71016800  0.45729800  0.26081300  1
  Se  Se11  1  0.54270200  0.28983200  0.73918700  1
  Se  Se12  1  0.95729800  0.21016800  0.23918700  1
  Se  Se13  1  0.78983200  0.04270200  0.76081300  1
  Se  Se14  1  0.28983200  0.54270200  0.73918700  1
  Se  Se15  1  0.45729800  0.71016800  0.26081300  1
  O  O0  1  0.94032900  0.56509900  0.00517400  1
  O  O1  1  0.43490100  0.05967100  0.99482600  1
  O  O2  1  0.93490100  0.55967100  0.50517400  1
  O  O3  1  0.44032900  0.06509900  0.49482600  1
  O  O4  1  0.05967100  0.43490100  0.99482600  1
  O  O5  1  0.56509900  0.94032900  0.00517400  1
  O  O6  1  0.06509900  0.44032900  0.49482600  1
  O  O7  1  0.55967100  0.93490100  0.50517400  1
  O  O8  1  0.68819000  0.81336900  0.02417400  1
  O  O9  1  0.18663100  0.31181000  0.97582600  1
  O  O10  1  0.68663100  0.81181000  0.52417400  1
  O  O11  1  0.18819000  0.31336900  0.47582600  1
  O  O12  1  0.31181000  0.18663100  0.97582600  1
  O  O13  1  0.81336900  0.68819000  0.02417400  1
  O  O14  1  0.31336900  0.18819000  0.47582600  1
  O  O15  1  0.81181000  0.68663100  0.52417400  1
loop_
_geom_bond_atom_site_label_1
_geom_bond_atom_site_label_2
_geom_bond_distance
_geom_bond_site_symmetry_2
La0 O5 2.375987 1_546
La0 O3 2.375987 1_555
La0 O1 2.390257 1_555
La0 O7 2.390257 1_545
La0 Se11 3.349746 1_555
La0 Se13 3.349746 1_555
La0 Se2 3.385141 1_555
La0 Se2 3.385141 1_556
La1 O2 2.375987 1_555
La1 O4 2.375987 1_654
La1 O0 2.390257 1_555
La1 O6 2.390257 1_655
La1 Se10 3.349746 1_555
La1 Se12 3.349746 1_555
La1 Se3 3.385141 1_554
La1 Se3 3.385141 1_555
La2 O7 2.375987 1_555
La2 O1 2.375987 1_564
La2 O5 2.390257 1_555
La2 O3 2.390257 1_565
La2 Se15 3.349746 1_555
La2 Se9 3.349746 1_555
La2 Se0 3.385141 1_554
La2 Se0 3.385141 1_555
La3 O0 2.375987 1_456
La3 O6 2.375987 1_555
La3 O4 2.390257 1_555
La3 O2 2.390257 1_455
La3 Se14 3.349746 1_555
La3 Se8 3.349746 1_555
La3 Se1 3.385141 1_555
La3 Se1 3.385141 1_556
La4 O15 2.379837 1_555
La4 O10 2.379837 1_555
La4 O8 2.401677 1_555
La4 O13 2.401677 1_555
La4 Se6 3.294814 1_554
La4 Se15 3.401305 1_555
La4 Se10 3.401305 1_555
La4 Se6 3.439841 1_555
La5 O11 2.379837 1_555
La5 O14 2.379837 1_555
La5 O9 2.401677 1_555
La5 O12 2.401677 1_555
La5 Se7 3.294814 1_556
La5 Se11 3.401305 1_555
La5 Se14 3.401305 1_555
La5 Se7 3.439841 1_555
La6 O13 2.379837 1_556
La6 O8 2.379837 1_556
La6 O10 2.401677 1_555
La6 O15 2.401677 1_555
La6 Se4 3.294814 1_555
La6 Se13 3.401305 1_565
La6 Se8 3.401305 1_655
La6 Se4 3.439841 1_556
La7 O12 2.379837 1_554
La7 O9 2.379837 1_554
La7 O14 2.401677 1_555
La7 O11 2.401677 1_555
La7 Se5 3.294814 1_555
La7 Se9 3.401305 1_545
La7 Se12 3.401305 1_455
La7 Se5 3.439841 1_554
La8 O15 2.346380 1_555
La8 O0 2.360385 1_556
La8 O2 2.398406 1_555
La8 O13 2.406047 1_556
La8 Se10 3.355122 1_556
La8 Se6 3.378715 1_555
La8 Se3 3.389132 1_555
La8 Se10 3.423185 1_555
La9 O14 2.346380 1_555
La9 O1 2.360385 1_554
La9 O3 2.398406 1_555
La9 O12 2.406047 1_554
La9 Se11 3.355122 1_554
La9 Se7 3.378715 1_555
La9 Se2 3.389132 1_555
La9 Se11 3.423185 1_555
La10 O13 2.346380 1_555
La10 O2 2.360385 1_555
La10 O0 2.398406 1_555
La10 O15 2.406047 1_555
La10 Se8 3.355122 1_655
La10 Se4 3.378715 1_555
La10 Se1 3.389132 1_655
La10 Se8 3.423185 1_654
La11 O12 2.346380 1_555
La11 O3 2.360385 1_555
La11 O1 2.398406 1_555
La11 O14 2.406047 1_555
La11 Se9 3.355122 1_545
La11 Se5 3.378715 1_555
La11 Se0 3.389132 1_545
La11 Se9 3.423185 1_546
La12 O11 2.346380 1_555
La12 O4 2.360385 1_554
La12 O6 2.398406 1_555
La12 O9 2.406047 1_554
La12 Se14 3.355122 1_554
La12 Se7 3.378715 1_555
La12 Se1 3.389132 1_555
La12 Se14 3.423185 1_555
La13 O10 2.346380 1_555
La13 O5 2.360385 1_556
La13 O7 2.398406 1_555
La13 O8 2.406047 1_556
La13 Se15 3.355122 1_556
La13 Se6 3.378715 1_555
La13 Se0 3.389132 1_555
La13 Se15 3.423185 1_555
La14 O9 2.346380 1_555
La14 O6 2.360385 1_555
La14 O4 2.398406 1_555
La14 O11 2.406047 1_555
La14 Se12 3.355122 1_455
La14 Se5 3.378715 1_555
La14 Se3 3.389132 1_455
La14 Se12 3.423185 1_456
La15 O8 2.346380 1_555
La15 O7 2.360385 1_555
La15 O5 2.398406 1_555
La15 O10 2.406047 1_555
La15 Se13 3.355122 1_565
La15 Se4 3.378715 1_555
La15 Se2 3.389132 1_565
La15 Se13 3.423185 1_564
Se0 Zn7 2.508564 1_556
Se0 Zn4 2.508564 1_555
Se1 Zn7 2.508564 1_555
Se1 Zn4 2.508564 1_555
Se2 Zn5 2.508564 1_555
Se2 Zn6 2.508564 1_555
Se3 Zn5 2.508564 1_556
Se3 Zn6 2.508564 1_555
Se4 Zn2 2.526809 1_565
Se4 Zn0 2.526809 1_655
Se5 Zn0 2.526809 1_545
Se5 Zn2 2.526809 1_455
Se6 Zn1 2.526809 1_556
Se6 Zn3 2.526809 1_556
Se7 Zn1 2.526809 1_555
Se7 Zn3 2.526809 1_555
Se8 Zn0 2.499791 1_555
Se8 Zn7 2.506582 1_556
Se9 Zn0 2.499791 1_555
Se9 Zn7 2.506582 1_555
Se10 Zn1 2.499791 1_555
Se10 Zn6 2.506582 1_555
Se11 Zn1 2.499791 1_556
Se11 Zn6 2.506582 1_555
Se12 Zn2 2.499791 1_555
Se12 Zn5 2.506582 1_555
Se13 Zn2 2.499791 1_555
Se13 Zn5 2.506582 1_556
Se14 Zn3 2.499791 1_556
Se14 Zn4 2.506582 1_555
Se15 Zn3 2.499791 1_555
Se15 Zn4 2.506582 1_555
