# generated using pymatgen
data_YMg(NiH)4
_symmetry_space_group_name_H-M   'P 1'
_cell_length_a   5.24145730
_cell_length_b   5.24145730
_cell_length_c   5.24145730
_cell_angle_alpha   60.00000000
_cell_angle_beta   60.00000000
_cell_angle_gamma   60.00000000
_symmetry_Int_Tables_number   1
_chemical_formula_structural   YMg(NiH)4
_chemical_formula_sum   'Y1 Mg1 Ni4 H4'
_cell_volume   101.82189104
_cell_formula_units_Z   1
loop_
 _symmetry_equiv_pos_site_id
 _symmetry_equiv_pos_as_xyz
  1  'x, y, z'
loop_
 _atom_site_type_symbol
 _atom_site_label
 _atom_site_symmetry_multiplicity
 _atom_site_fract_x
 _atom_site_fract_y
 _atom_site_fract_z
 _atom_site_occupancy
  Y  Y0  1  0.00000000  0.00000000  0.00000000  1
  Mg  Mg0  1  0.25000000  0.25000000  0.25000000  1
  Ni  Ni0  1  0.61810400  0.61810400  0.14568700  1
  Ni  Ni1  1  0.61810400  0.14568700  0.61810400  1
  Ni  Ni2  1  0.14568700  0.61810400  0.61810400  1
  Ni  Ni3  1  0.61810400  0.61810400  0.61810400  1
  H  H0  1  0.83941700  0.83941700  0.48175000  1
  H  H1  1  0.83941700  0.48175000  0.83941700  1
  H  H2  1  0.48175000  0.83941700  0.83941700  1
  H  H3  1  0.83941700  0.83941700  0.83941700  1
loop_
_geom_bond_atom_site_label_1
_geom_bond_atom_site_label_2
_geom_bond_distance
_geom_bond_site_symmetry_2
Mg0 Ni2 3.058905 1_555
Mg0 Ni1 3.058905 1_555
Mg0 Ni0 3.058905 1_555
Mg0 Ni3 3.058907 1_455
Mg0 Ni3 3.058907 1_545
Mg0 Ni3 3.058907 1_554
Mg0 Ni0 3.058909 1_455
Mg0 Ni2 3.058909 1_545
Mg0 Ni1 3.058909 1_554
Mg0 Ni1 3.058909 1_455
Mg0 Ni2 3.058909 1_554
Mg0 Ni0 3.058909 1_545
Mg0 Y0 3.209724 1_565
Mg0 Y0 3.209724 1_555
Mg0 Y0 3.209724 1_655
Mg0 Y0 3.209724 1_556
H0 Ni1 1.699848 1_565
H0 Ni2 1.699848 1_655
H0 Ni3 1.699857 1_555
H0 Y0 2.061713 1_665
H1 Ni2 1.699848 1_655
H1 Ni0 1.699848 1_556
H1 Ni3 1.699857 1_555
H1 Y0 2.061713 1_656
H2 Ni0 1.699848 1_556
H2 Ni1 1.699848 1_565
H2 Ni3 1.699857 1_555
H2 Y0 2.061713 1_566
H3 Ni0 1.699854 1_556
H3 Ni2 1.699854 1_655
H3 Ni1 1.699854 1_565
H3 Y0 2.061708 1_666
