# generated using pymatgen
data_Sr6CaY2Ga3(Cu2O7)3
_symmetry_space_group_name_H-M   'P 1'
_cell_length_a   12.20110068
_cell_length_b   12.20110068
_cell_length_c   16.17504430
_cell_angle_alpha   77.21055751
_cell_angle_beta   77.21055751
_cell_angle_gamma   26.12513454
_symmetry_Int_Tables_number   1
_chemical_formula_structural   Sr6CaY2Ga3(Cu2O7)3
_chemical_formula_sum   'Sr12 Ca2 Y4 Ga6 Cu12 O42'
_cell_volume   1032.54960404
_cell_formula_units_Z   2
loop_
 _symmetry_equiv_pos_site_id
 _symmetry_equiv_pos_as_xyz
  1  'x, y, z'
loop_
 _atom_site_type_symbol
 _atom_site_label
 _atom_site_symmetry_multiplicity
 _atom_site_fract_x
 _atom_site_fract_y
 _atom_site_fract_z
 _atom_site_occupancy
  Sr  Sr0  1  0.16634100  0.63635100  0.28386500  1
  Sr  Sr1  1  0.16646100  0.63641500  0.61676400  1
  Sr  Sr2  1  0.16493400  0.63542800  0.95057000  1
  Sr  Sr3  1  0.83353900  0.36359200  0.38478900  1
  Sr  Sr4  1  0.83364700  0.36367600  0.71774100  1
  Sr  Sr5  1  0.83504100  0.36453300  0.05071000  1
  Sr  Sr6  1  0.36367600  0.83364700  0.21774100  1
  Sr  Sr7  1  0.36453300  0.83504100  0.55071000  1
  Sr  Sr8  1  0.36359200  0.83353900  0.88478900  1
  Sr  Sr9  1  0.63542800  0.16493400  0.45057000  1
  Sr  Sr10  1  0.63635100  0.16634100  0.78386500  1
  Sr  Sr11  1  0.63641500  0.16646100  0.11676400  1
  Ca  Ca0  1  0.99997100  0.50009800  0.99993300  1
  Ca  Ca1  1  0.50009800  0.99997100  0.49993300  1
  Y  Y0  1  0.99989900  0.50006300  0.66575400  1
  Y  Y1  1  0.99986600  0.50004700  0.33428100  1
  Y  Y2  1  0.50006300  0.99989900  0.16575400  1
  Y  Y3  1  0.50004700  0.99986600  0.83428100  1
  Ga  Ga0  1  0.18066500  0.81932700  0.09749700  1
  Ga  Ga1  1  0.18090100  0.81892300  0.76439500  1
  Ga  Ga2  1  0.18079300  0.81918800  0.43099900  1
  Ga  Ga3  1  0.81918800  0.18079300  0.93099900  1
  Ga  Ga4  1  0.81932700  0.18066500  0.59749700  1
  Ga  Ga5  1  0.81892300  0.18090100  0.26439500  1
  Cu  Cu0  1  0.07215600  0.57354500  0.47562600  1
  Cu  Cu1  1  0.07248400  0.57339300  0.80947200  1
  Cu  Cu2  1  0.07247400  0.57344700  0.14172400  1
  Cu  Cu3  1  0.92760500  0.42671700  0.19037600  1
  Cu  Cu4  1  0.92756200  0.42637900  0.52423400  1
  Cu  Cu5  1  0.92758200  0.42663000  0.85803100  1
  Cu  Cu6  1  0.42663000  0.92758200  0.35803000  1
  Cu  Cu7  1  0.42671700  0.92760500  0.69037600  1
  Cu  Cu8  1  0.42637900  0.92756200  0.02423400  1
  Cu  Cu9  1  0.57339300  0.07248400  0.30947200  1
  Cu  Cu10  1  0.57344700  0.07247400  0.64172400  1
  Cu  Cu11  1  0.57354500  0.07215600  0.97562500  1
  O  O0  1  0.30818000  0.31856100  0.56408000  1
  O  O1  1  0.31641200  0.31015500  0.89401300  1
  O  O2  1  0.31034100  0.31175700  0.22986100  1
  O  O3  1  0.69026700  0.68798300  0.27039100  1
  O  O4  1  0.69202800  0.68128300  0.60633500  1
  O  O5  1  0.68307000  0.69044500  0.93629900  1
  O  O6  1  0.68128300  0.69202800  0.10633500  1
  O  O7  1  0.69044500  0.68307000  0.43629900  1
  O  O8  1  0.68798300  0.69026700  0.77039100  1
  O  O9  1  0.31015500  0.31641200  0.39401300  1
  O  O10  1  0.31175700  0.31034100  0.72986100  1
  O  O11  1  0.31856100  0.30818000  0.06408000  1
  O  O12  1  0.63148200  0.22073600  0.26762300  1
  O  O13  1  0.63190900  0.22035600  0.60118900  1
  O  O14  1  0.63052300  0.22245100  0.93438500  1
  O  O15  1  0.36808000  0.77961700  0.38502700  1
  O  O16  1  0.36821300  0.77929000  0.71871700  1
  O  O17  1  0.36934000  0.77774400  0.05198800  1
  O  O18  1  0.77929000  0.36821300  0.21871700  1
  O  O19  1  0.77774400  0.36934000  0.55198800  1
  O  O20  1  0.77961700  0.36808000  0.88502700  1
  O  O21  1  0.22245100  0.63052300  0.43438500  1
  O  O22  1  0.22073600  0.63148200  0.76762300  1
  O  O23  1  0.22035600  0.63190900  0.10118900  1
  O  O24  1  0.82222900  0.81202600  0.39196100  1
  O  O25  1  0.81448100  0.81419100  0.72859800  1
  O  O26  1  0.81130900  0.82304100  0.06308900  1
  O  O27  1  0.18892100  0.17684900  0.10792400  1
  O  O28  1  0.17700400  0.18878200  0.43684200  1
  O  O29  1  0.18621600  0.18534000  0.77126400  1
  O  O30  1  0.18534000  0.18621600  0.27126400  1
  O  O31  1  0.17684900  0.18892100  0.60792400  1
  O  O32  1  0.18878200  0.17700400  0.93684200  1
  O  O33  1  0.82304100  0.81130900  0.56308900  1
  O  O34  1  0.81202600  0.82222900  0.89196100  1
  O  O35  1  0.81419100  0.81448100  0.22859800  1
  O  O36  1  0.86570400  0.13314400  0.38179500  1
  O  O37  1  0.86704700  0.13290400  0.71476700  1
  O  O38  1  0.86665300  0.13426700  0.04809200  1
  O  O39  1  0.13290400  0.86704700  0.21476700  1
  O  O40  1  0.13426700  0.86665300  0.54809200  1
  O  O41  1  0.13314400  0.86570400  0.88179500  1
loop_
_geom_bond_atom_site_label_1
_geom_bond_atom_site_label_2
_geom_bond_distance
_geom_bond_site_symmetry_2
Ca0 O1 2.444377 1_655
Ca0 O5 2.445847 1_555
Ca0 O11 2.456645 1_656
Ca0 O6 2.456838 1_556
Ca0 O34 2.511224 1_555
Ca0 O32 2.514288 1_655
Ca0 O26 2.514385 1_556
Ca0 O27 2.515317 1_656
Ca1 O9 2.444377 1_565
Ca1 O7 2.445847 1_555
Ca1 O0 2.456645 1_565
Ca1 O4 2.456838 1_555
Ca1 O24 2.511224 1_555
Ca1 O28 2.514288 1_565
Ca1 O33 2.514385 1_555
Ca1 O31 2.515317 1_565
Ga0 O17 1.848379 1_555
Ga0 O23 1.852281 1_555
Ga0 O38 1.908645 1_465
Ga0 O39 1.914925 1_555
Ga1 O16 1.851742 1_555
Ga1 O22 1.852474 1_555
Ga1 O37 1.908236 1_465
Ga1 O41 1.914184 1_555
Ga2 O21 1.848174 1_555
Ga2 O15 1.852916 1_555
Ga2 O36 1.909860 1_465
Ga2 O40 1.914181 1_555
Ga3 O14 1.848174 1_555
Ga3 O20 1.852916 1_555
Ga3 O41 1.909860 1_645
Ga3 O38 1.914181 1_556
Ga4 O19 1.848379 1_555
Ga4 O13 1.852281 1_555
Ga4 O40 1.908645 1_645
Ga4 O37 1.914925 1_555
Ga5 O18 1.851742 1_555
Ga5 O12 1.852474 1_555
Ga5 O39 1.908236 1_645
Ga5 O36 1.914184 1_555
Cu0 O33 1.932756 1_455
Cu0 O24 1.935862 1_455
Cu0 O0 1.945418 1_555
Cu0 O9 1.948103 1_555
Cu0 O21 2.415209 1_555
Cu1 O34 1.920427 1_455
Cu1 O1 1.932869 1_555
Cu1 O25 1.940786 1_455
Cu1 O10 1.955080 1_555
Cu1 O22 2.404162 1_555
Cu2 O26 1.923548 1_455
Cu2 O11 1.935927 1_555
Cu2 O35 1.944634 1_455
Cu2 O2 1.956238 1_555
Cu2 O23 2.403021 1_555
Cu3 O27 1.924015 1_655
Cu3 O6 1.936492 1_555
Cu3 O30 1.939929 1_655
Cu3 O3 1.952888 1_555
Cu3 O18 2.408673 1_555
Cu4 O28 1.931683 1_655
Cu4 O31 1.934014 1_655
Cu4 O7 1.944518 1_555
Cu4 O4 1.945409 1_555
Cu4 O19 2.410383 1_555
Cu5 O32 1.925621 1_655
Cu5 O5 1.937099 1_555
Cu5 O29 1.944546 1_655
Cu5 O8 1.957781 1_555
Cu5 O20 2.406027 1_555
Cu6 O28 1.925632 1_565
Cu6 O7 1.937110 1_555
Cu6 O30 1.944534 1_565
Cu6 O3 1.957770 1_555
Cu6 O15 2.406026 1_555
Cu7 O31 1.924015 1_565
Cu7 O4 1.936492 1_555
Cu7 O29 1.939929 1_565
Cu7 O8 1.952888 1_555
Cu7 O16 2.408673 1_555
Cu8 O32 1.931683 1_564
Cu8 O27 1.934014 1_565
Cu8 O5 1.944518 1_554
Cu8 O6 1.945409 1_555
Cu8 O17 2.410383 1_555
Cu9 O24 1.920427 1_545
Cu9 O9 1.932869 1_555
Cu9 O35 1.940786 1_545
Cu9 O2 1.955080 1_555
Cu9 O12 2.404162 1_555
Cu10 O33 1.923548 1_545
Cu10 O0 1.935927 1_555
Cu10 O25 1.944634 1_545
Cu10 O10 1.956238 1_555
Cu10 O13 2.403021 1_555
Cu11 O26 1.932767 1_546
Cu11 O34 1.935851 1_545
Cu11 O11 1.945429 1_556
Cu11 O1 1.948091 1_555
Cu11 O14 2.415208 1_555
O0 Y0 2.381825 1_455
O0 Sr1 2.743279 1_555
O0 Sr9 2.768709 1_555
O1 Y3 2.390760 1_545
O1 Sr10 2.737999 1_555
O1 Sr2 2.773257 1_555
O2 Y1 2.395539 1_455
O2 Y2 2.404115 1_545
O2 Sr11 2.804689 1_555
O2 Sr0 2.809297 1_555
O3 Y1 2.391761 1_555
O3 Y2 2.400359 1_555
O3 Sr6 2.806730 1_555
O3 Sr3 2.812600 1_555
O4 Y0 2.380391 1_555
O4 Sr4 2.740976 1_555
O4 Sr7 2.771122 1_555
O5 Y3 2.386893 1_555
O5 Sr8 2.740449 1_555
O5 Sr5 2.774258 1_556
O6 Y2 2.380391 1_555
O6 Sr6 2.740976 1_555
O6 Sr5 2.771122 1_555
O7 Y1 2.386893 1_555
O7 Sr3 2.740449 1_555
O7 Sr7 2.774258 1_555
O8 Y3 2.391761 1_555
O8 Y0 2.400359 1_555
O8 Sr4 2.806730 1_555
O8 Sr8 2.812600 1_555
O9 Y1 2.390760 1_455
O9 Sr0 2.737999 1_555
O9 Sr9 2.773257 1_555
O10 Y3 2.395539 1_545
O10 Y0 2.404115 1_455
O10 Sr1 2.804689 1_555
O10 Sr10 2.809297 1_555
O11 Y2 2.381825 1_545
O11 Sr11 2.743279 1_555
O11 Sr2 2.768709 1_554
O12 Sr0 2.498859 1_555
O12 Sr11 2.641082 1_555
O12 Sr9 2.887006 1_555
O12 Sr0 3.141890 1_645
O13 Sr1 2.499993 1_555
O13 Sr9 2.650555 1_555
O13 Sr10 2.883171 1_555
O13 Sr1 3.139156 1_645
O14 Sr2 2.500984 1_555
O14 Sr10 2.641066 1_555
O14 Sr11 2.878846 1_556
O14 Sr2 3.154158 1_645
O15 Sr3 2.500604 1_555
O15 Sr6 2.640106 1_555
O15 Sr7 2.887844 1_555
O15 Sr3 3.139753 1_465
O16 Sr4 2.499920 1_555
O16 Sr7 2.651491 1_555
O16 Sr8 2.882742 1_555
O16 Sr4 3.141321 1_465
O17 Sr5 2.501633 1_555
O17 Sr8 2.639230 1_554
O17 Sr6 2.881156 1_555
O17 Sr5 3.153004 1_465
O18 Sr6 2.499920 1_555
O18 Sr5 2.651491 1_555
O18 Sr3 2.882742 1_555
O18 Sr6 3.141321 1_645
O19 Sr7 2.501633 1_555
O19 Sr3 2.639230 1_555
O19 Sr4 2.881156 1_555
O19 Sr7 3.153004 1_645
O20 Sr8 2.500604 1_555
O20 Sr4 2.640106 1_555
O20 Sr5 2.887844 1_556
O20 Sr8 3.139753 1_645
O21 Sr9 2.500984 1_555
O21 Sr0 2.641066 1_555
O21 Sr1 2.878846 1_555
O21 Sr9 3.154158 1_465
O22 Sr10 2.498859 1_555
O22 Sr1 2.641082 1_555
O22 Sr2 2.887006 1_555
O22 Sr10 3.141890 1_465
O23 Sr11 2.499993 1_555
O23 Sr2 2.650555 1_554
O23 Sr0 2.883171 1_555
O23 Sr11 3.139156 1_465
O24 Y1 2.433098 1_555
O24 Sr0 2.743822 1_655
O24 Sr9 2.803940 1_565
O25 Y3 2.444810 1_555
O25 Y0 2.444975 1_555
O25 Sr1 2.826832 1_655
O25 Sr10 2.838255 1_565
O26 Y2 2.432092 1_555
O26 Sr11 2.756642 1_565
O26 Sr2 2.793047 1_654
O27 Y2 2.430736 1_545
O27 Sr6 2.754503 1_545
O27 Sr5 2.796326 1_455
O28 Y1 2.430096 1_455
O28 Sr3 2.745314 1_455
O28 Sr7 2.805192 1_545
O29 Y0 2.442745 1_455
O29 Y3 2.443144 1_545
O29 Sr4 2.827729 1_455
O29 Sr8 2.840594 1_545
O30 Y2 2.442745 1_545
O30 Y1 2.443144 1_455
O30 Sr6 2.827729 1_545
O30 Sr3 2.840594 1_455
O31 Y0 2.430736 1_455
O31 Sr4 2.754503 1_455
O31 Sr7 2.796326 1_545
O32 Y3 2.430096 1_545
O32 Sr8 2.745314 1_545
O32 Sr5 2.805192 1_456
O33 Y0 2.432092 1_555
O33 Sr1 2.756642 1_655
O33 Sr9 2.793047 1_565
O34 Y3 2.433098 1_555
O34 Sr10 2.743822 1_565
O34 Sr2 2.803940 1_655
O35 Y1 2.444810 1_555
O35 Y2 2.444975 1_555
O35 Sr11 2.826832 1_565
O35 Sr0 2.838255 1_655
O36 Sr9 2.476348 1_555
O36 Sr3 2.476400 1_555
O37 Sr10 2.466868 1_555
O37 Sr4 2.467240 1_555
O38 Sr11 2.471788 1_555
O38 Sr5 2.478598 1_555
O39 Sr0 2.466868 1_555
O39 Sr6 2.467240 1_555
O40 Sr1 2.471788 1_555
O40 Sr7 2.478598 1_555
O41 Sr2 2.476348 1_555
O41 Sr8 2.476400 1_555
