# generated using pymatgen
data_NaLaCr4O12
_symmetry_space_group_name_H-M   'P 1'
_cell_length_a   5.28196246
_cell_length_b   5.28196246
_cell_length_c   7.53445834
_cell_angle_alpha   90.00000000
_cell_angle_beta   90.00000000
_cell_angle_gamma   92.45448426
_symmetry_Int_Tables_number   1
_chemical_formula_structural   NaLaCr4O12
_chemical_formula_sum   'Na1 La1 Cr4 O12'
_cell_volume   210.01196268
_cell_formula_units_Z   1
loop_
 _symmetry_equiv_pos_site_id
 _symmetry_equiv_pos_as_xyz
  1  'x, y, z'
loop_
 _atom_site_type_symbol
 _atom_site_label
 _atom_site_symmetry_multiplicity
 _atom_site_fract_x
 _atom_site_fract_y
 _atom_site_fract_z
 _atom_site_occupancy
  Na  Na0  1  0.00838013  0.99161987  0.50000000  1
  La  La0  1  0.48068560  0.51931440  -0.00000000  1
  Cr  Cr0  1  0.48835316  0.01895986  0.25984304  1
  Cr  Cr1  1  0.48835316  0.01895986  0.74015696  1
  Cr  Cr2  1  0.98104014  0.51164684  0.74015696  1
  Cr  Cr3  1  0.98104014  0.51164684  0.25984304  1
  O  O0  1  0.29258584  0.28203768  0.25296280  1
  O  O1  1  0.71796232  0.70741416  0.25296280  1
  O  O2  1  0.71796232  0.70741416  0.74703720  1
  O  O3  1  0.29258584  0.28203768  0.74703720  1
  O  O4  1  0.22758569  0.77241431  0.21006310  1
  O  O5  1  0.78902290  0.21097710  0.28940902  1
  O  O6  1  0.78902290  0.21097710  0.71059098  1
  O  O7  1  0.22758569  0.77241431  0.78993690  1
  O  O8  1  0.54008870  0.02817670  -0.00000000  1
  O  O9  1  0.45532357  0.95930140  0.50000000  1
  O  O10  1  0.97182330  0.45991130  0.00000000  1
  O  O11  1  0.04069860  0.54467643  0.50000000  1
loop_
_geom_bond_atom_site_label_1
_geom_bond_atom_site_label_2
_geom_bond_distance
_geom_bond_site_symmetry_2
Na0 O6 2.305958 1_465
Na0 O5 2.305958 1_465
Na0 O9 2.374183 1_555
Na0 O11 2.374183 1_555
Na0 O7 2.751019 1_555
Na0 O4 2.751019 1_555
Na0 O3 2.806020 1_565
Na0 O0 2.806020 1_565
Na0 O1 2.806020 1_455
Na0 O2 2.806020 1_455
La0 O0 2.466534 1_555
La0 O3 2.466534 1_554
La0 O1 2.466534 1_555
La0 O2 2.466534 1_554
La0 O4 2.496491 1_555
La0 O7 2.496491 1_554
La0 O8 2.626383 1_555
La0 O10 2.626383 1_555
La0 O8 2.692664 1_565
La0 O10 2.692664 1_455
Cr0 O0 1.768017 1_555
Cr0 O9 1.843677 1_545
Cr0 O5 1.860770 1_555
Cr0 O4 1.892093 1_545
Cr0 O8 1.977067 1_555
Cr0 O1 2.086237 1_545
Cr1 O3 1.768017 1_555
Cr1 O9 1.843677 1_545
Cr1 O6 1.860770 1_555
Cr1 O7 1.892093 1_545
Cr1 O8 1.977067 1_556
Cr1 O2 2.086237 1_545
Cr2 O2 1.768017 1_555
Cr2 O11 1.843677 1_655
Cr2 O6 1.860770 1_555
Cr2 O7 1.892093 1_655
Cr2 O10 1.977067 1_556
Cr2 O3 2.086237 1_655
Cr3 O1 1.768017 1_555
Cr3 O11 1.843677 1_655
Cr3 O5 1.860770 1_555
Cr3 O4 1.892093 1_655
Cr3 O10 1.977067 1_555
Cr3 O0 2.086237 1_655
