# generated using pymatgen
data_FeCoP
_symmetry_space_group_name_H-M   'P 1'
_cell_length_a   3.52703400
_cell_length_b   5.71155900
_cell_length_c   6.52526600
_cell_angle_alpha   90.00000000
_cell_angle_beta   90.00000000
_cell_angle_gamma   90.00000000
_symmetry_Int_Tables_number   1
_chemical_formula_structural   FeCoP
_chemical_formula_sum   'Fe4 Co4 P4'
_cell_volume   131.45058821
_cell_formula_units_Z   4
loop_
 _symmetry_equiv_pos_site_id
 _symmetry_equiv_pos_as_xyz
  1  'x, y, z'
loop_
 _atom_site_type_symbol
 _atom_site_label
 _atom_site_symmetry_multiplicity
 _atom_site_fract_x
 _atom_site_fract_y
 _atom_site_fract_z
 _atom_site_occupancy
  Fe  Fe0  1  0.25000000  0.03023800  0.16187700  1
  Fe  Fe1  1  0.25000000  0.53023800  0.33812300  1
  Fe  Fe2  1  0.75000000  0.96976200  0.83812300  1
  Fe  Fe3  1  0.75000000  0.46976200  0.66187700  1
  Co  Co0  1  0.25000000  0.13910600  0.56789000  1
  Co  Co1  1  0.25000000  0.63910600  0.93211000  1
  Co  Co2  1  0.75000000  0.86089400  0.43211000  1
  Co  Co3  1  0.75000000  0.36089400  0.06789000  1
  P  P0  1  0.25000000  0.75707200  0.61871900  1
  P  P1  1  0.25000000  0.25707200  0.88128100  1
  P  P2  1  0.75000000  0.24292800  0.38128100  1
  P  P3  1  0.75000000  0.74292800  0.11871900  1
loop_
_geom_bond_atom_site_label_1
_geom_bond_atom_site_label_2
_geom_bond_distance
_geom_bond_site_symmetry_2
Fe0 P1 2.242977 1_554
Fe0 P3 2.425313 1_445
Fe0 P3 2.425313 1_545
Fe0 P2 2.575925 1_455
Fe0 P2 2.575925 1_555
Fe1 P0 2.242977 1_555
Fe1 P2 2.425313 1_455
Fe1 P2 2.425313 1_555
Fe1 P3 2.575925 1_455
Fe1 P3 2.575925 1_555
Fe2 P3 2.242977 1_556
Fe2 P1 2.425313 1_565
Fe2 P1 2.425313 1_665
Fe2 P0 2.575925 1_655
Fe2 P0 2.575925 1_555
Fe3 P2 2.242977 1_555
Fe3 P0 2.425313 1_555
Fe3 P0 2.425313 1_655
Fe3 P1 2.575925 1_555
Fe3 P1 2.575925 1_655
Co0 P1 2.153097 1_555
Co0 P0 2.207073 1_545
Co0 P2 2.223590 1_555
Co0 P2 2.223590 1_455
Co1 P0 2.153097 1_555
Co1 P1 2.207073 1_555
Co1 P3 2.223590 1_556
Co1 P3 2.223590 1_456
Co2 P3 2.153097 1_555
Co2 P2 2.207073 1_565
Co2 P0 2.223590 1_555
Co2 P0 2.223590 1_655
Co3 P2 2.153097 1_555
Co3 P3 2.207073 1_555
Co3 P1 2.223590 1_554
Co3 P1 2.223590 1_654
