# generated using pymatgen
data_TiO2
_symmetry_space_group_name_H-M   'P 1'
_cell_length_a   5.51846783
_cell_length_b   5.51846783
_cell_length_c   5.51846783
_cell_angle_alpha   114.80072089
_cell_angle_beta   106.87444289
_cell_angle_gamma   106.87358975
_symmetry_Int_Tables_number   1
_chemical_formula_structural   TiO2
_chemical_formula_sum   'Ti4 O8'
_cell_volume   128.52261195
_cell_formula_units_Z   4
loop_
 _symmetry_equiv_pos_site_id
 _symmetry_equiv_pos_as_xyz
  1  'x, y, z'
loop_
 _atom_site_type_symbol
 _atom_site_label
 _atom_site_symmetry_multiplicity
 _atom_site_fract_x
 _atom_site_fract_y
 _atom_site_fract_z
 _atom_site_occupancy
  Ti  Ti0  1  0.50475500  0.75475500  0.75000000  1
  Ti  Ti1  1  0.49524500  0.24524500  0.25000000  1
  Ti  Ti2  1  0.00000000  0.00000000  0.50000000  1
  Ti  Ti3  1  0.00000000  0.50000000  0.00000000  1
  O  O0  1  0.30491900  0.30477000  0.49985100  1
  O  O1  1  0.19548400  0.25038300  0.94510100  1
  O  O2  1  0.30491900  0.80506800  0.00014900  1
  O  O3  1  0.80528200  0.25038300  0.55489900  1
  O  O4  1  0.19471800  0.74961700  0.44510100  1
  O  O5  1  0.80451600  0.74961700  0.05489900  1
  O  O6  1  0.69508100  0.19493200  0.99985100  1
  O  O7  1  0.69508100  0.69523000  0.50014900  1
loop_
_geom_bond_atom_site_label_1
_geom_bond_atom_site_label_2
_geom_bond_distance
_geom_bond_site_symmetry_2
O0 Ti1 1.942467 1_555
O0 Ti0 1.984652 1_555
O0 Ti2 2.004783 1_555
O1 Ti3 1.963503 1_556
O1 Ti2 1.963503 1_555
O1 Ti1 2.004916 1_556
O2 Ti1 1.942467 1_565
O2 Ti0 1.984652 1_554
O2 Ti3 2.004783 1_555
O3 Ti3 1.963503 1_656
O3 Ti2 1.963503 1_655
O3 Ti1 2.004916 1_555
O4 Ti2 1.963503 1_565
O4 Ti3 1.963503 1_555
O4 Ti0 2.004916 1_555
O5 Ti3 1.963503 1_655
O5 Ti2 1.963503 1_665
O5 Ti0 2.004916 1_554
O6 Ti0 1.942467 1_545
O6 Ti1 1.984652 1_556
O6 Ti3 2.004783 1_656
O7 Ti0 1.942467 1_555
O7 Ti1 1.984652 1_555
O7 Ti2 2.004783 1_665
