# generated using pymatgen
data_Ba2LuIrO6
_symmetry_space_group_name_H-M   'P 1'
_cell_length_a   5.90118300
_cell_length_b   5.90118300
_cell_length_c   8.35592700
_cell_angle_alpha   90.00000000
_cell_angle_beta   90.00000000
_cell_angle_gamma   90.00000000
_symmetry_Int_Tables_number   1
_chemical_formula_structural   Ba2LuIrO6
_chemical_formula_sum   'Ba4 Lu2 Ir2 O12'
_cell_volume   290.98647429
_cell_formula_units_Z   2
loop_
 _symmetry_equiv_pos_site_id
 _symmetry_equiv_pos_as_xyz
  1  'x, y, z'
loop_
 _atom_site_type_symbol
 _atom_site_label
 _atom_site_symmetry_multiplicity
 _atom_site_fract_x
 _atom_site_fract_y
 _atom_site_fract_z
 _atom_site_occupancy
  Ba  Ba0  1  0.00000000  0.50000000  0.75000000  1
  Ba  Ba1  1  0.50000000  0.00000000  0.25000000  1
  Ba  Ba2  1  0.00000000  0.50000000  0.25000000  1
  Ba  Ba3  1  0.50000000  0.00000000  0.75000000  1
  Lu  Lu0  1  0.50000000  0.50000000  0.00000000  1
  Lu  Lu1  1  0.00000000  0.00000000  0.50000000  1
  Ir  Ir0  1  0.00000000  0.00000000  0.00000000  1
  Ir  Ir1  1  0.50000000  0.50000000  0.50000000  1
  O  O0  1  0.24729600  0.23006900  0.00000000  1
  O  O1  1  0.74729600  0.26993100  0.50000000  1
  O  O2  1  0.75270400  0.76993100  0.00000000  1
  O  O3  1  0.25270400  0.73006900  0.50000000  1
  O  O4  1  0.23006900  0.75270400  0.00000000  1
  O  O5  1  0.73006900  0.74729600  0.50000000  1
  O  O6  1  0.76993100  0.24729600  0.00000000  1
  O  O7  1  0.26993100  0.25270400  0.50000000  1
  O  O8  1  0.00000000  0.00000000  0.76121800  1
  O  O9  1  0.50000000  0.50000000  0.26121800  1
  O  O10  1  0.00000000  0.00000000  0.23878200  1
  O  O11  1  0.50000000  0.50000000  0.73878200  1
loop_
_geom_bond_atom_site_label_1
_geom_bond_atom_site_label_2
_geom_bond_distance
_geom_bond_site_symmetry_2
Ba0 O6 2.903614 1_456
Ba0 O3 2.903614 1_555
Ba0 O1 2.903614 1_455
Ba0 O4 2.903614 1_556
Ba0 O11 2.952080 1_455
Ba0 O8 2.952080 1_555
Ba0 O11 2.952080 1_555
Ba0 O8 2.952080 1_565
Ba0 O0 3.005143 1_556
Ba0 O5 3.005143 1_455
Ba0 O7 3.005143 1_555
Ba0 O2 3.005143 1_456
Ba1 O2 2.903614 1_545
Ba1 O5 2.903614 1_545
Ba1 O7 2.903614 1_555
Ba1 O0 2.903614 1_555
Ba1 O9 2.952080 1_555
Ba1 O10 2.952080 1_655
Ba1 O9 2.952080 1_545
Ba1 O10 2.952080 1_555
Ba1 O1 3.005143 1_555
Ba1 O3 3.005143 1_545
Ba1 O4 3.005143 1_545
Ba1 O6 3.005143 1_555
Ba2 O6 2.903614 1_455
Ba2 O3 2.903614 1_555
Ba2 O1 2.903614 1_455
Ba2 O4 2.903614 1_555
Ba2 O9 2.952080 1_555
Ba2 O9 2.952080 1_455
Ba2 O10 2.952080 1_565
Ba2 O10 2.952080 1_555
Ba2 O5 3.005143 1_455
Ba2 O7 3.005143 1_555
Ba2 O2 3.005143 1_455
Ba2 O0 3.005143 1_555
Ba3 O2 2.903614 1_546
Ba3 O5 2.903614 1_545
Ba3 O7 2.903614 1_555
Ba3 O0 2.903614 1_556
Ba3 O11 2.952080 1_545
Ba3 O8 2.952080 1_655
Ba3 O8 2.952080 1_555
Ba3 O11 2.952080 1_555
Ba3 O1 3.005143 1_555
Ba3 O3 3.005143 1_545
Ba3 O4 3.005143 1_546
Ba3 O6 3.005143 1_556
Lu0 O2 2.182018 1_555
Lu0 O6 2.182018 1_555
Lu0 O0 2.182018 1_555
Lu0 O4 2.182018 1_555
Lu0 O11 2.182719 1_554
Lu0 O9 2.182719 1_555
Lu1 O7 2.182018 1_555
Lu1 O5 2.182018 1_445
Lu1 O1 2.182018 1_455
Lu1 O3 2.182018 1_545
Lu1 O8 2.182719 1_555
Lu1 O10 2.182719 1_555
Ir0 O6 1.993229 1_455
Ir0 O4 1.993229 1_545
Ir0 O2 1.993229 1_445
Ir0 O0 1.993229 1_555
Ir0 O10 1.995245 1_555
Ir0 O8 1.995245 1_554
Ir1 O5 1.993229 1_555
Ir1 O3 1.993229 1_555
Ir1 O1 1.993229 1_555
Ir1 O7 1.993229 1_555
Ir1 O9 1.995245 1_555
Ir1 O11 1.995245 1_555
