# generated using pymatgen
data_LuGa2Ni
_symmetry_space_group_name_H-M   'P 1'
_cell_length_a   5.33445873
_cell_length_b   5.33445873
_cell_length_c   6.58607200
_cell_angle_alpha   90.00000000
_cell_angle_beta   90.00000000
_cell_angle_gamma   134.57209970
_symmetry_Int_Tables_number   1
_chemical_formula_structural   LuGa2Ni
_chemical_formula_sum   'Lu2 Ga4 Ni2'
_cell_volume   133.50930051
_cell_formula_units_Z   2
loop_
 _symmetry_equiv_pos_site_id
 _symmetry_equiv_pos_as_xyz
  1  'x, y, z'
loop_
 _atom_site_type_symbol
 _atom_site_label
 _atom_site_symmetry_multiplicity
 _atom_site_fract_x
 _atom_site_fract_y
 _atom_site_fract_z
 _atom_site_occupancy
  Lu  Lu0  1  0.57514200  0.42485800  0.25000000  1
  Lu  Lu1  1  0.42485800  0.57514200  0.75000000  1
  Ga  Ga0  1  0.86070200  0.13929800  0.05260700  1
  Ga  Ga1  1  0.13929800  0.86070200  0.94739300  1
  Ga  Ga2  1  0.13929800  0.86070200  0.55260700  1
  Ga  Ga3  1  0.86070200  0.13929800  0.44739300  1
  Ni  Ni0  1  0.29205400  0.70794600  0.25000000  1
  Ni  Ni1  1  0.70794600  0.29205400  0.75000000  1
loop_
_geom_bond_atom_site_label_1
_geom_bond_atom_site_label_2
_geom_bond_distance
_geom_bond_site_symmetry_2
Lu0 Ni0 2.786005 1_555
Lu0 Ni0 2.966456 1_545
Lu0 Ni0 2.966456 1_655
Lu1 Ni1 2.786005 1_555
Lu1 Ni1 2.966456 1_455
Lu1 Ni1 2.966456 1_565
Ga0 Ni1 2.496410 1_554
Ga0 Ni0 2.527710 1_655
Ga0 Ni0 2.527710 1_545
Ga0 Ga3 2.600089 1_555
Ga0 Ga1 2.828007 1_644
Ga0 Lu1 2.934866 1_654
Ga0 Lu1 2.934866 1_544
Ga0 Ga1 3.077456 1_544
Ga0 Ga1 3.077456 1_654
Ga0 Lu0 3.096464 1_555
Ga0 Lu0 3.222841 1_655
Ga0 Lu0 3.222841 1_545
Ga1 Ni0 2.496410 1_556
Ga1 Ni1 2.527710 1_565
Ga1 Ni1 2.527710 1_455
Ga1 Ga2 2.600089 1_555
Ga1 Lu0 2.934866 1_566
Ga1 Lu0 2.934866 1_456
Ga1 Lu1 3.096464 1_555
Ga1 Lu1 3.222841 1_565
Ga1 Lu1 3.222841 1_455
Ga2 Ni0 2.496410 1_555
Ga2 Ni1 2.527710 1_455
Ga2 Ni1 2.527710 1_565
Ga2 Ga3 2.828007 1_465
Ga2 Lu0 2.934866 1_565
Ga2 Lu0 2.934866 1_455
Ga2 Ga3 3.077456 1_455
Ga2 Ga3 3.077456 1_565
Ga2 Lu1 3.096464 1_555
Ga2 Lu1 3.222841 1_565
Ga2 Lu1 3.222841 1_455
Ga3 Ni1 2.496410 1_555
Ga3 Ni0 2.527710 1_655
Ga3 Ni0 2.527710 1_545
Ga3 Lu1 2.934866 1_655
Ga3 Lu1 2.934866 1_545
Ga3 Lu0 3.096464 1_555
Ga3 Lu0 3.222841 1_655
Ga3 Lu0 3.222841 1_545
