# generated using pymatgen
data_KCaPrWO6
_symmetry_space_group_name_H-M   'P 1'
_cell_length_a   8.44543464
_cell_length_b   8.50669652
_cell_length_c   8.45819586
_cell_angle_alpha   90.00000000
_cell_angle_beta   90.00000000
_cell_angle_gamma   90.00000000
_symmetry_Int_Tables_number   1
_chemical_formula_structural   KCaPrWO6
_chemical_formula_sum   'K4 Ca4 Pr4 W4 O24'
_cell_volume   607.66004607
_cell_formula_units_Z   4
loop_
 _symmetry_equiv_pos_site_id
 _symmetry_equiv_pos_as_xyz
  1  'x, y, z'
loop_
 _atom_site_type_symbol
 _atom_site_label
 _atom_site_symmetry_multiplicity
 _atom_site_fract_x
 _atom_site_fract_y
 _atom_site_fract_z
 _atom_site_occupancy
  K  K0  1  0.50000000  -0.00000000  0.50000000  1
  K  K1  1  0.50000000  0.50000000  -0.00000000  1
  K  K2  1  0.00000000  0.50000000  -0.00000000  1
  K  K3  1  0.00000000  0.00000000  0.50000000  1
  Ca  Ca0  1  0.00000000  0.50000000  0.50000000  1
  Ca  Ca1  1  0.50000000  -0.00000000  -0.00000000  1
  Ca  Ca2  1  0.00000000  0.00000000  -0.00000000  1
  Ca  Ca3  1  0.50000000  0.50000000  0.50000000  1
  Pr  Pr0  1  0.75000000  0.75000000  0.75000000  1
  Pr  Pr1  1  0.25000000  0.25000000  0.75000000  1
  Pr  Pr2  1  0.25000000  0.75000000  0.25000000  1
  Pr  Pr3  1  0.75000000  0.25000000  0.25000000  1
  W  W0  1  0.25000000  0.25000000  0.25000000  1
  W  W1  1  0.75000000  0.75000000  0.25000000  1
  W  W2  1  0.75000000  0.25000000  0.75000000  1
  W  W3  1  0.25000000  0.75000000  0.75000000  1
  O  O0  1  0.02426698  0.21458678  0.27595047  1
  O  O1  1  0.97573302  0.78541322  0.27595047  1
  O  O2  1  0.97573302  0.21458678  0.72404953  1
  O  O3  1  0.02426698  0.78541322  0.72404953  1
  O  O4  1  0.28371009  0.02333788  0.20088555  1
  O  O5  1  0.28371009  0.97666212  0.79911445  1
  O  O6  1  0.71628991  0.97666212  0.20088555  1
  O  O7  1  0.71628991  0.02333788  0.79911445  1
  O  O8  1  0.21466014  0.27308870  0.02461395  1
  O  O9  1  0.78533986  0.27308870  0.97538605  1
  O  O10  1  0.21466014  0.72691130  0.97538605  1
  O  O11  1  0.78533986  0.72691130  0.02461395  1
  O  O12  1  0.47573302  0.28541322  0.22404953  1
  O  O13  1  0.52426698  0.71458678  0.22404953  1
  O  O14  1  0.52426698  0.28541322  0.77595047  1
  O  O15  1  0.47573302  0.71458678  0.77595047  1
  O  O16  1  0.21628991  0.47666212  0.29911445  1
  O  O17  1  0.21628991  0.52333788  0.70088555  1
  O  O18  1  0.78371009  0.52333788  0.29911445  1
  O  O19  1  0.78371009  0.47666212  0.70088555  1
  O  O20  1  0.28533986  0.22691130  0.47538605  1
  O  O21  1  0.71466014  0.22691130  0.52461395  1
  O  O22  1  0.28533986  0.77308870  0.52461395  1
  O  O23  1  0.71466014  0.77308870  0.47538605  1
loop_
_geom_bond_atom_site_label_1
_geom_bond_atom_site_label_2
_geom_bond_distance
_geom_bond_site_symmetry_2
K0 O20 2.656288 1_555
K0 O21 2.656288 1_555
K0 O22 2.656288 1_545
K0 O23 2.656288 1_545
K0 O5 3.126795 1_545
K0 O4 3.126795 1_555
K0 O6 3.126795 1_545
K0 O7 3.126795 1_555
K1 O14 2.639206 1_554
K1 O15 2.639206 1_554
K1 O13 2.639206 1_555
K1 O12 2.639206 1_555
K1 O11 3.094591 1_555
K1 O10 3.094591 1_554
K1 O9 3.094591 1_554
K1 O8 3.094591 1_555
K2 O11 2.656288 1_455
K2 O10 2.656288 1_554
K2 O9 2.656288 1_454
K2 O8 2.656288 1_555
K2 O16 3.126795 1_555
K2 O19 3.126795 1_454
K2 O17 3.126795 1_554
K2 O18 3.126795 1_455
K3 O1 2.639206 1_445
K3 O0 2.639206 1_555
K3 O2 2.639206 1_455
K3 O3 2.639206 1_545
K3 O20 3.094591 1_555
K3 O21 3.094591 1_455
K3 O23 3.094591 1_445
K3 O22 3.094591 1_545
Ca0 O18 2.502628 1_455
Ca0 O19 2.502628 1_455
Ca0 O16 2.502628 1_555
Ca0 O17 2.502628 1_555
Ca1 O5 2.502628 1_544
Ca1 O7 2.502628 1_554
Ca1 O6 2.502628 1_545
Ca1 O4 2.502628 1_555
Ca2 O6 2.944068 1_445
Ca2 O4 2.944068 1_555
Ca2 O5 2.944068 1_544
Ca2 O7 2.944068 1_454
Ca2 O9 2.954091 1_454
Ca2 O8 2.954091 1_555
Ca2 O10 2.954091 1_544
Ca2 O11 2.954091 1_445
Ca2 O3 2.970174 1_544
Ca2 O0 2.970174 1_555
Ca2 O2 2.970174 1_454
Ca2 O1 2.970174 1_445
Ca3 O17 2.944068 1_555
Ca3 O18 2.944068 1_555
Ca3 O19 2.944068 1_555
Ca3 O16 2.944068 1_555
Ca3 O22 2.954091 1_555
Ca3 O23 2.954091 1_555
Ca3 O21 2.954091 1_555
Ca3 O20 2.954091 1_555
Ca3 O12 2.970174 1_555
Ca3 O13 2.970174 1_555
Ca3 O14 2.970174 1_555
Ca3 O15 2.970174 1_555
O0 W0 1.942509 1_555
O0 Pr3 2.346102 1_455
O1 W1 1.942509 1_555
O1 Pr2 2.346102 1_655
O2 W2 1.942509 1_555
O2 Pr1 2.346102 1_655
O3 W3 1.942509 1_555
O3 Pr0 2.346102 1_455
O4 W0 1.992830 1_555
O4 Pr2 2.379116 1_545
O5 W3 1.992830 1_555
O5 Pr1 2.379116 1_565
O6 W1 1.992830 1_555
O6 Pr3 2.379116 1_565
O7 W2 1.992830 1_555
O7 Pr0 2.379116 1_545
O8 W0 1.939552 1_555
O8 Pr1 2.350057 1_554
O9 W2 1.939552 1_555
O9 Pr3 2.350057 1_556
O10 W3 1.939552 1_555
O10 Pr2 2.350057 1_556
O11 W1 1.939552 1_555
O11 Pr0 2.350057 1_554
O12 W0 1.942509 1_555
O12 Pr3 2.346102 1_555
O13 W1 1.942509 1_555
O13 Pr2 2.346102 1_555
O14 W2 1.942509 1_555
O14 Pr1 2.346102 1_555
O15 W3 1.942509 1_555
O15 Pr0 2.346102 1_555
O16 W0 1.992830 1_555
O16 Pr2 2.379116 1_555
O17 W3 1.992830 1_555
O17 Pr1 2.379116 1_555
O18 W1 1.992830 1_555
O18 Pr3 2.379116 1_555
O19 W2 1.992830 1_555
O19 Pr0 2.379116 1_555
O20 W0 1.939552 1_555
O20 Pr1 2.350057 1_555
O21 W2 1.939552 1_555
O21 Pr3 2.350057 1_555
O22 W3 1.939552 1_555
O22 Pr2 2.350057 1_555
O23 W1 1.939552 1_555
O23 Pr0 2.350057 1_555
