# generated using pymatgen
data_Sr2NiClO3
_symmetry_space_group_name_H-M   'P 1'
_cell_length_a   5.49655539
_cell_length_b   5.49388040
_cell_length_c   14.72308400
_cell_angle_alpha   90.00006707
_cell_angle_beta   89.99996480
_cell_angle_gamma   90.02427806
_symmetry_Int_Tables_number   1
_chemical_formula_structural   Sr2NiClO3
_chemical_formula_sum   'Sr8 Ni4 Cl4 O12'
_cell_volume   444.59908067
_cell_formula_units_Z   4
loop_
 _symmetry_equiv_pos_site_id
 _symmetry_equiv_pos_as_xyz
  1  'x, y, z'
loop_
 _atom_site_type_symbol
 _atom_site_label
 _atom_site_symmetry_multiplicity
 _atom_site_fract_x
 _atom_site_fract_y
 _atom_site_fract_z
 _atom_site_occupancy
  Sr  Sr0  1  0.25000200  0.99999900  0.90580400  1
  Sr  Sr1  1  0.75000000  0.49999800  0.90517400  1
  Sr  Sr2  1  0.75000000  0.00000300  0.09478700  1
  Sr  Sr3  1  0.25000100  0.50000200  0.09443500  1
  Sr  Sr4  1  0.25000100  0.99999800  0.65928500  1
  Sr  Sr5  1  0.75000100  0.49999800  0.65957500  1
  Sr  Sr6  1  0.75000100  0.00000200  0.34029900  1
  Sr  Sr7  1  0.25000100  0.50000200  0.34061800  1
  Ni  Ni0  1  0.25000000  0.49999800  0.79167300  1
  Ni  Ni1  1  0.74999900  0.49999200  0.20272000  1
  Ni  Ni2  1  0.74998600  0.00000100  0.79725900  1
  Ni  Ni3  1  0.25000000  0.00000300  0.20839100  1
  Cl  Cl0  1  0.75000000  0.99999800  0.58054300  1
  Cl  Cl1  1  0.25000000  0.49999900  0.57643600  1
  Cl  Cl2  1  0.25000000  0.00000000  0.42364000  1
  Cl  Cl3  1  0.75000100  0.50000100  0.41967600  1
  O  O0  1  0.74999800  0.99999800  0.92924700  1
  O  O1  1  0.25000000  0.49999800  0.92544500  1
  O  O2  1  0.25000100  0.00000100  0.07433600  1
  O  O3  1  0.75000000  0.50000000  0.07070900  1
  O  O4  1  0.49235700  0.25756900  0.77237300  1
  O  O5  1  0.00764500  0.74242700  0.77237200  1
  O  O6  1  0.49236600  0.74241100  0.77227700  1
  O  O7  1  0.00763500  0.25758500  0.77227700  1
  O  O8  1  0.49231400  0.75756100  0.22763000  1
  O  O9  1  0.00768700  0.24244600  0.22763000  1
  O  O10  1  0.49237000  0.24249400  0.22769500  1
  O  O11  1  0.00763100  0.75751300  0.22769500  1
loop_
_geom_bond_atom_site_label_1
_geom_bond_atom_site_label_2
_geom_bond_distance
_geom_bond_site_symmetry_2
Ni0 O7 1.904833 1_555
Ni0 O6 1.904837 1_555
Ni0 O5 1.905437 1_555
Ni0 O4 1.905441 1_555
Ni0 O1 1.969536 1_555
Ni1 O3 1.943609 1_555
Ni1 O10 2.034710 1_555
Ni1 O11 2.034809 1_655
Ni1 O9 2.035781 1_655
Ni1 O8 2.035856 1_555
Ni2 O0 1.943270 1_545
Ni2 O6 2.035045 1_545
Ni2 O7 2.035134 1_655
Ni2 O4 2.035576 1_555
Ni2 O5 2.035715 1_645
Ni3 O11 1.904942 1_545
Ni3 O10 1.904949 1_555
Ni3 O9 1.905192 1_555
Ni3 O8 1.905193 1_545
Ni3 O2 1.973703 1_555
Cl0 Sr4 2.982789 1_555
Cl0 Sr4 2.982801 1_655
Cl0 Sr5 2.983224 1_565
Cl0 Sr5 2.983227 1_555
Cl0 Sr6 3.537133 1_565
Cl1 Sr4 3.005584 1_555
Cl1 Sr4 3.005597 1_545
Cl1 Sr5 3.008542 1_455
Cl1 Sr5 3.008553 1_555
Cl1 Sr7 3.471968 1_555
Cl2 Sr7 3.006614 1_545
Cl2 Sr7 3.006637 1_555
Cl2 Sr6 3.009755 1_455
Cl2 Sr6 3.009763 1_555
Cl2 Sr4 3.469421 1_545
Cl3 Sr7 2.984606 1_655
Cl3 Sr7 2.984607 1_555
Cl3 Sr6 2.985204 1_555
Cl3 Sr6 2.985217 1_565
Cl3 Sr5 3.532053 1_555
O0 Sr2 2.437259 1_566
O0 Sr1 2.769711 1_555
O0 Sr1 2.769712 1_565
O0 Sr0 2.769845 1_555
O0 Sr0 2.769888 1_655
O1 Sr3 2.488054 1_556
O1 Sr0 2.762114 1_545
O1 Sr0 2.762125 1_555
O1 Sr1 2.764435 1_555
O1 Sr1 2.764436 1_455
O2 Sr0 2.481311 1_544
O2 Sr3 2.762828 1_545
O2 Sr3 2.762839 1_555
O2 Sr2 2.764718 1_555
O2 Sr2 2.764728 1_455
O3 Sr1 2.437186 1_554
O3 Sr2 2.769705 1_555
O3 Sr2 2.769737 1_565
O3 Sr3 2.770383 1_555
O3 Sr3 2.770395 1_655
O4 Sr5 2.556527 1_555
O4 Sr4 2.558827 1_545
O4 Sr1 2.756943 1_555
O4 Sr0 2.763088 1_545
O5 Sr5 2.556516 1_455
O5 Sr4 2.558819 1_555
O5 Sr1 2.756960 1_455
O5 Sr0 2.763109 1_555
O6 Sr5 2.556159 1_555
O6 Sr4 2.558609 1_555
O6 Sr1 2.758459 1_555
O6 Sr0 2.764743 1_555
O7 Sr5 2.556159 1_455
O7 Sr4 2.558609 1_545
O7 Sr1 2.758459 1_455
O7 Sr0 2.764749 1_545
O8 Sr6 2.555458 1_565
O8 Sr7 2.557711 1_555
O8 Sr2 2.757538 1_565
O8 Sr3 2.760475 1_555
O9 Sr6 2.555464 1_455
O9 Sr7 2.557704 1_555
O9 Sr2 2.757543 1_455
O9 Sr3 2.760471 1_555
O10 Sr6 2.555440 1_555
O10 Sr7 2.557717 1_555
O10 Sr2 2.758767 1_555
O10 Sr3 2.761741 1_555
O11 Sr6 2.555425 1_465
O11 Sr7 2.557732 1_555
O11 Sr2 2.758770 1_465
O11 Sr3 2.761749 1_555
