# generated using pymatgen
data_Mg2Ti2O5
_symmetry_space_group_name_H-M   'P 1'
_cell_length_a   7.76880683
_cell_length_b   7.76880683
_cell_length_c   7.76880683
_cell_angle_alpha   139.01534546
_cell_angle_beta   138.02615314
_cell_angle_gamma   60.11006523
_symmetry_Int_Tables_number   1
_chemical_formula_structural   Mg2Ti2O5
_chemical_formula_sum   'Mg4 Ti4 O10'
_cell_volume   203.54154276
_cell_formula_units_Z   2
loop_
 _symmetry_equiv_pos_site_id
 _symmetry_equiv_pos_as_xyz
  1  'x, y, z'
loop_
 _atom_site_type_symbol
 _atom_site_label
 _atom_site_symmetry_multiplicity
 _atom_site_fract_x
 _atom_site_fract_y
 _atom_site_fract_z
 _atom_site_occupancy
  Mg  Mg0  1  0.43323100  0.85541100  0.52809900  1
  Mg  Mg1  1  0.67268800  0.14458900  0.57782000  1
  Mg  Mg2  1  0.93323100  0.40513100  0.57782000  1
  Mg  Mg3  1  0.17268800  0.59486900  0.52809900  1
  Ti  Ti0  1  0.98066600  0.00000000  0.98066600  1
  Ti  Ti1  1  0.48066600  0.50000000  0.98066600  1
  Ti  Ti2  1  0.82363200  0.78747700  0.11110900  1
  Ti  Ti3  1  0.32363200  0.21252300  0.03615500  1
  O  O0  1  0.74929600  0.79402700  0.46592100  1
  O  O1  1  0.67189300  0.20597300  0.95526800  1
  O  O2  1  0.24929600  0.78337500  0.95526800  1
  O  O3  1  0.17189300  0.21662500  0.46592100  1
  O  O4  1  0.77063600  0.72006200  0.77531600  1
  O  O5  1  0.05525500  0.27993800  0.05057400  1
  O  O6  1  0.27063600  0.49532000  0.05057400  1
  O  O7  1  0.55525500  0.50468000  0.77531600  1
  O  O8  1  0.17870400  0.87765100  0.55635500  1
  O  O9  1  0.67870400  0.12234900  0.30105300  1
loop_
_geom_bond_atom_site_label_1
_geom_bond_atom_site_label_2
_geom_bond_distance
_geom_bond_site_symmetry_2
Mg0 O6 2.017355 1_555
Mg0 O1 2.026437 1_565
Mg0 O8 2.058075 1_555
Mg0 O4 2.116974 1_555
Mg0 O0 2.595910 1_555
Mg0 O3 2.672085 1_565
Mg1 O7 2.017353 1_555
Mg1 O0 2.026439 1_545
Mg1 O9 2.058075 1_555
Mg1 O5 2.116977 1_656
Mg1 O1 2.595908 1_555
Mg1 O2 2.672085 1_544
Mg2 O4 2.017358 1_555
Mg2 O3 2.026433 1_655
Mg2 O9 2.058069 1_555
Mg2 O6 2.116971 1_656
Mg2 O2 2.595919 1_655
Mg2 O1 2.672092 1_554
Mg3 O5 2.017358 1_555
Mg3 O2 2.026435 1_555
Mg3 O8 2.058067 1_555
Mg3 O7 2.116981 1_555
Mg3 O3 2.595921 1_555
Mg3 O0 2.672084 1_455
O0 Ti1 1.958807 1_554
O0 Ti0 2.073860 1_565
O1 Ti1 1.958803 1_555
O1 Ti0 2.073864 1_555
O2 Ti0 1.958809 1_465
O2 Ti1 2.073862 1_555
O3 Ti0 1.958809 1_454
O3 Ti1 2.073862 1_555
O4 Ti2 1.950470 1_556
O4 Ti0 2.089319 1_565
O5 Ti3 1.950463 1_555
O5 Ti0 2.089324 1_454
O6 Ti3 1.950470 1_555
O6 Ti1 2.089319 1_554
O7 Ti2 1.950466 1_556
O7 Ti1 2.089326 1_555
O8 Ti3 1.992077 1_566
O8 Ti2 2.035899 1_455
O9 Ti2 1.992077 1_545
O9 Ti3 2.035899 1_555
