# generated using pymatgen
data_Rb2ZnF4
_symmetry_space_group_name_H-M   'P 1'
_cell_length_a   4.12281303
_cell_length_b   4.12281303
_cell_length_c   7.43651439
_cell_angle_alpha   106.09319263
_cell_angle_beta   106.09319263
_cell_angle_gamma   90.00000000
_symmetry_Int_Tables_number   1
_chemical_formula_structural   Rb2ZnF4
_chemical_formula_sum   'Rb2 Zn1 F4'
_cell_volume   116.28506626
_cell_formula_units_Z   1
loop_
 _symmetry_equiv_pos_site_id
 _symmetry_equiv_pos_as_xyz
  1  'x, y, z'
loop_
 _atom_site_type_symbol
 _atom_site_label
 _atom_site_symmetry_multiplicity
 _atom_site_fract_x
 _atom_site_fract_y
 _atom_site_fract_z
 _atom_site_occupancy
  Rb  Rb0  1  0.35298731  0.35298731  0.70597361  1
  Rb  Rb1  1  0.64701269  0.64701269  0.29402639  1
  Zn  Zn0  1  -0.00000000  -0.00000000  -0.00000000  1
  F  F0  1  0.14773839  0.14773839  0.29547678  1
  F  F1  1  0.85226161  0.85226161  0.70452322  1
  F  F2  1  -0.00000000  0.50000000  0.00000000  1
  F  F3  1  0.50000000  -0.00000000  0.00000000  1
loop_
_geom_bond_atom_site_label_1
_geom_bond_atom_site_label_2
_geom_bond_distance
_geom_bond_site_symmetry_2
F0 Zn0 2.021436 1_555
F0 Rb0 2.808319 1_555
F0 Rb1 2.915283 1_555
F0 Rb1 2.915286 1_545
F0 Rb1 2.915286 1_455
F0 Rb1 2.915289 1_445
F1 Zn0 2.021436 1_666
F1 Rb1 2.808319 1_555
F1 Rb0 2.915283 1_555
F1 Rb0 2.915286 1_565
F1 Rb0 2.915286 1_655
F1 Rb0 2.915289 1_665
F2 Zn0 2.061407 1_565
F2 Zn0 2.061407 1_555
F2 Rb0 2.880204 1_454
F2 Rb1 2.880204 1_555
F2 Rb1 2.880207 1_455
F2 Rb0 2.880207 1_554
F3 Zn0 2.061407 1_655
F3 Zn0 2.061407 1_555
F3 Rb0 2.880204 1_544
F3 Rb1 2.880204 1_555
F3 Rb1 2.880207 1_545
F3 Rb0 2.880207 1_554
