# generated using pymatgen
data_Ge
_symmetry_space_group_name_H-M   'P 1'
_cell_length_a   10.78375667
_cell_length_b   10.78375667
_cell_length_c   10.78375667
_cell_angle_alpha   60.00000000
_cell_angle_beta   60.00000000
_cell_angle_gamma   60.00000000
_symmetry_Int_Tables_number   1
_chemical_formula_structural   Ge
_chemical_formula_sum   Ge34
_cell_volume   886.73783976
_cell_formula_units_Z   34
loop_
 _symmetry_equiv_pos_site_id
 _symmetry_equiv_pos_as_xyz
  1  'x, y, z'
loop_
 _atom_site_type_symbol
 _atom_site_label
 _atom_site_symmetry_multiplicity
 _atom_site_fract_x
 _atom_site_fract_y
 _atom_site_fract_z
 _atom_site_occupancy
  Ge  Ge0  1  0.12500000  0.12500000  0.12500000  1
  Ge  Ge1  1  0.87500000  0.87500000  0.87500000  1
  Ge  Ge2  1  0.78311894  0.78311894  0.15064318  1
  Ge  Ge3  1  0.78311894  0.15064318  0.78311894  1
  Ge  Ge4  1  0.15064318  0.78311894  0.78311894  1
  Ge  Ge5  1  0.78311894  0.78311894  0.78311894  1
  Ge  Ge6  1  0.21688106  0.21688106  0.84935682  1
  Ge  Ge7  1  0.21688106  0.84935682  0.21688106  1
  Ge  Ge8  1  0.84935682  0.21688106  0.21688106  1
  Ge  Ge9  1  0.21688106  0.21688106  0.21688106  1
  Ge  Ge10  1  0.62958214  0.62958214  0.23548676  1
  Ge  Ge11  1  0.00534896  0.23548676  0.62958214  1
  Ge  Ge12  1  0.23548676  0.00534896  0.62958214  1
  Ge  Ge13  1  0.62958214  0.62958214  0.00534896  1
  Ge  Ge14  1  0.23548676  0.62958214  0.62958214  1
  Ge  Ge15  1  0.62958214  0.00534896  0.23548676  1
  Ge  Ge16  1  0.62958214  0.23548676  0.00534896  1
  Ge  Ge17  1  0.00534896  0.62958214  0.62958214  1
  Ge  Ge18  1  0.62958214  0.23548676  0.62958214  1
  Ge  Ge19  1  0.23548676  0.62958214  0.00534896  1
  Ge  Ge20  1  0.00534896  0.62958214  0.23548676  1
  Ge  Ge21  1  0.62958214  0.00534896  0.62958214  1
  Ge  Ge22  1  0.37041786  0.37041786  0.76451324  1
  Ge  Ge23  1  0.99465104  0.76451324  0.37041786  1
  Ge  Ge24  1  0.76451324  0.99465104  0.37041786  1
  Ge  Ge25  1  0.37041786  0.37041786  0.99465104  1
  Ge  Ge26  1  0.76451324  0.37041786  0.37041786  1
  Ge  Ge27  1  0.37041786  0.99465104  0.76451324  1
  Ge  Ge28  1  0.37041786  0.76451324  0.99465104  1
  Ge  Ge29  1  0.99465104  0.37041786  0.37041786  1
  Ge  Ge30  1  0.37041786  0.76451324  0.37041786  1
  Ge  Ge31  1  0.76451324  0.37041786  0.99465104  1
  Ge  Ge32  1  0.99465104  0.37041786  0.76451324  1
  Ge  Ge33  1  0.37041786  0.99465104  0.37041786  1
loop_
_geom_bond_atom_site_label_1
_geom_bond_atom_site_label_2
_geom_bond_distance
_geom_bond_site_symmetry_2
Ge0 Ge8 2.427011 1_455
Ge0 Ge7 2.427011 1_545
Ge0 Ge6 2.427011 1_554
Ge0 Ge9 2.427011 1_555
Ge1 Ge5 2.427011 1_555
Ge1 Ge2 2.427011 1_556
Ge1 Ge3 2.427011 1_565
Ge1 Ge4 2.427011 1_655
Ge2 Ge20 2.455901 1_655
Ge10 Ge30 2.455447 1_555
Ge10 Ge26 2.455447 1_555
Ge10 Ge2 2.455901 1_555
Ge10 Ge13 2.481750 1_555
Ge11 Ge32 2.455447 1_455
Ge11 Ge29 2.455447 1_455
Ge11 Ge3 2.455901 1_455
Ge11 Ge12 2.481750 1_555
Ge12 Ge27 2.455447 1_545
Ge12 Ge33 2.455447 1_545
Ge12 Ge4 2.455901 1_545
Ge13 Ge31 2.455447 1_554
Ge13 Ge28 2.455447 1_554
Ge13 Ge5 2.455901 1_554
Ge14 Ge30 2.455447 1_555
Ge14 Ge22 2.455447 1_555
Ge14 Ge4 2.455901 1_555
Ge14 Ge17 2.481750 1_555
Ge15 Ge33 2.455447 1_545
Ge15 Ge24 2.455447 1_545
Ge15 Ge2 2.455901 1_545
Ge15 Ge16 2.481750 1_555
Ge16 Ge25 2.455447 1_554
Ge16 Ge31 2.455447 1_554
Ge16 Ge3 2.455901 1_554
Ge17 Ge23 2.455447 1_455
Ge17 Ge32 2.455447 1_455
Ge17 Ge5 2.455901 1_455
Ge18 Ge22 2.455447 1_555
Ge18 Ge26 2.455447 1_555
Ge18 Ge3 2.455901 1_555
Ge18 Ge21 2.481750 1_555
Ge19 Ge25 2.455447 1_554
Ge19 Ge28 2.455447 1_554
Ge19 Ge4 2.455901 1_554
Ge19 Ge20 2.481750 1_555
Ge20 Ge23 2.455447 1_455
Ge20 Ge29 2.455447 1_455
Ge21 Ge27 2.455447 1_545
Ge21 Ge24 2.455447 1_545
Ge21 Ge5 2.455901 1_545
Ge22 Ge6 2.455901 1_555
Ge22 Ge25 2.481750 1_555
Ge23 Ge7 2.455901 1_655
Ge23 Ge24 2.481750 1_555
Ge24 Ge8 2.455901 1_565
Ge25 Ge9 2.455901 1_556
Ge26 Ge8 2.455901 1_555
Ge26 Ge29 2.481750 1_555
Ge27 Ge6 2.455901 1_565
Ge27 Ge28 2.481750 1_555
Ge28 Ge7 2.455901 1_556
Ge29 Ge9 2.455901 1_655
Ge30 Ge7 2.455901 1_555
Ge30 Ge33 2.481750 1_555
Ge31 Ge8 2.455901 1_556
Ge31 Ge32 2.481750 1_555
Ge32 Ge6 2.455901 1_655
Ge33 Ge9 2.455901 1_565
