# generated using pymatgen
data_Ca3Zn
_symmetry_space_group_name_H-M   'P 1'
_cell_length_a   7.22053548
_cell_length_b   7.22053548
_cell_length_c   5.68286300
_cell_angle_alpha   90.00000000
_cell_angle_beta   90.00000000
_cell_angle_gamma   119.99999520
_symmetry_Int_Tables_number   1
_chemical_formula_structural   Ca3Zn
_chemical_formula_sum   'Ca6 Zn2'
_cell_volume   256.58818298
_cell_formula_units_Z   2
loop_
 _symmetry_equiv_pos_site_id
 _symmetry_equiv_pos_as_xyz
  1  'x, y, z'
loop_
 _atom_site_type_symbol
 _atom_site_label
 _atom_site_symmetry_multiplicity
 _atom_site_fract_x
 _atom_site_fract_y
 _atom_site_fract_z
 _atom_site_occupancy
  Ca  Ca0  1  0.65380600  0.82690300  0.75000000  1
  Ca  Ca1  1  0.17309700  0.34619400  0.75000000  1
  Ca  Ca2  1  0.17309700  0.82690300  0.75000000  1
  Ca  Ca3  1  0.82690300  0.65380600  0.25000000  1
  Ca  Ca4  1  0.82690300  0.17309700  0.25000000  1
  Ca  Ca5  1  0.34619400  0.17309700  0.25000000  1
  Zn  Zn0  1  0.66666700  0.33333300  0.75000000  1
  Zn  Zn1  1  0.33333300  0.66666700  0.25000000  1
loop_
_geom_bond_atom_site_label_1
_geom_bond_atom_site_label_2
_geom_bond_distance
_geom_bond_site_symmetry_2
Ca0 Ca2 3.470976 1_555
Ca0 Ca1 3.470977 1_555
Ca0 Zn1 3.477015 1_556
Ca0 Zn1 3.477015 1_555
Ca0 Ca3 3.572132 1_555
Ca0 Ca3 3.572132 1_556
Ca0 Ca4 3.572133 1_565
Ca0 Ca4 3.572133 1_566
Ca0 Zn0 3.611160 1_565
Ca0 Zn0 3.611167 1_555
Ca0 Ca2 3.749559 1_655
Ca0 Ca1 3.749559 1_665
Ca1 Ca2 3.470976 1_555
Ca1 Zn1 3.477015 1_556
Ca1 Zn1 3.477015 1_555
Ca1 Ca5 3.572132 1_555
Ca1 Ca5 3.572132 1_556
Ca1 Ca4 3.572133 1_455
Ca1 Ca4 3.572133 1_456
Ca1 Zn0 3.611160 1_455
Ca1 Zn0 3.611167 1_555
Ca1 Ca2 3.749559 1_545
Ca2 Zn1 3.477011 1_556
Ca2 Zn1 3.477011 1_555
Ca2 Ca3 3.572133 1_456
Ca2 Ca3 3.572133 1_455
Ca2 Ca5 3.572133 1_565
Ca2 Ca5 3.572133 1_566
Ca2 Zn0 3.611163 1_455
Ca2 Zn0 3.611163 1_565
Ca3 Ca4 3.470976 1_555
Ca3 Ca5 3.470977 1_555
Ca3 Zn0 3.477015 1_555
Ca3 Zn0 3.477015 1_554
Ca3 Zn1 3.611160 1_655
Ca3 Zn1 3.611167 1_555
Ca3 Ca4 3.749559 1_565
Ca3 Ca5 3.749559 1_665
Ca4 Ca5 3.470976 1_555
Ca4 Zn0 3.477011 1_554
Ca4 Zn0 3.477011 1_555
Ca4 Zn1 3.611163 1_545
Ca4 Zn1 3.611163 1_655
Ca4 Ca5 3.749559 1_655
Ca5 Zn0 3.477015 1_555
Ca5 Zn0 3.477015 1_554
Ca5 Zn1 3.611160 1_545
Ca5 Zn1 3.611167 1_555
