# generated using pymatgen
data_PrAlH6
_symmetry_space_group_name_H-M   'P 1'
_cell_length_a   4.27166871
_cell_length_b   4.27166871
_cell_length_c   4.27166823
_cell_angle_alpha   98.37124327
_cell_angle_beta   98.37124327
_cell_angle_gamma   98.37125023
_symmetry_Int_Tables_number   1
_chemical_formula_structural   PrAlH6
_chemical_formula_sum   'Pr1 Al1 H6'
_cell_volume   75.17797905
_cell_formula_units_Z   1
loop_
 _symmetry_equiv_pos_site_id
 _symmetry_equiv_pos_as_xyz
  1  'x, y, z'
loop_
 _atom_site_type_symbol
 _atom_site_label
 _atom_site_symmetry_multiplicity
 _atom_site_fract_x
 _atom_site_fract_y
 _atom_site_fract_z
 _atom_site_occupancy
  Pr  Pr0  1  0.50000000  0.50000000  0.50000000  1
  Al  Al0  1  -0.00000000  0.00000000  0.00000000  1
  H  H0  1  0.29356628  0.93846710  0.29356628  1
  H  H1  1  0.29356628  0.29356628  0.93846710  1
  H  H2  1  0.93846710  0.29356628  0.29356628  1
  H  H3  1  0.70643372  0.06153290  0.70643372  1
  H  H4  1  0.70643372  0.70643372  0.06153290  1
  H  H5  1  0.06153290  0.70643372  0.70643372  1
loop_
_geom_bond_atom_site_label_1
_geom_bond_atom_site_label_2
_geom_bond_distance
_geom_bond_site_symmetry_2
Al0 H4 1.717054 1_445
Al0 H1 1.717054 1_554
Al0 H3 1.717054 1_454
Al0 H5 1.717054 1_544
Al0 H2 1.717054 1_455
Al0 H0 1.717054 1_545
H0 Pr0 2.408045 1_555
H0 Pr0 2.418819 1_565
H1 Pr0 2.408045 1_555
H1 Pr0 2.418819 1_556
H2 Pr0 2.408045 1_555
H2 Pr0 2.418819 1_655
H3 Pr0 2.408045 1_555
H3 Pr0 2.418819 1_545
H4 Pr0 2.408045 1_555
H4 Pr0 2.418819 1_554
H5 Pr0 2.408045 1_555
H5 Pr0 2.418819 1_455
