# generated using pymatgen
data_Rb2WS4
_symmetry_space_group_name_H-M   'P 1'
_cell_length_a   7.09106448
_cell_length_b   9.77580850
_cell_length_c   12.58855994
_cell_angle_alpha   90.00000000
_cell_angle_beta   90.00000000
_cell_angle_gamma   90.00000000
_symmetry_Int_Tables_number   1
_chemical_formula_structural   Rb2WS4
_chemical_formula_sum   'Rb8 W4 S16'
_cell_volume   872.65015894
_cell_formula_units_Z   4
loop_
 _symmetry_equiv_pos_site_id
 _symmetry_equiv_pos_as_xyz
  1  'x, y, z'
loop_
 _atom_site_type_symbol
 _atom_site_label
 _atom_site_symmetry_multiplicity
 _atom_site_fract_x
 _atom_site_fract_y
 _atom_site_fract_z
 _atom_site_occupancy
  Rb  Rb0  1  0.25000000  0.65591076  0.39288403  1
  Rb  Rb1  1  0.75000000  0.34408924  0.60711597  1
  Rb  Rb2  1  0.25000000  0.15591076  0.10711597  1
  Rb  Rb3  1  0.75000000  0.84408924  0.89288403  1
  Rb  Rb4  1  0.25000000  0.45986254  0.83148496  1
  Rb  Rb5  1  0.75000000  0.54013746  0.16851504  1
  Rb  Rb6  1  0.25000000  0.95986254  0.66851504  1
  Rb  Rb7  1  0.75000000  0.04013746  0.33148496  1
  W  W0  1  0.25000000  0.24621521  0.42827120  1
  W  W1  1  0.75000000  0.75378479  0.57172880  1
  W  W2  1  0.25000000  0.74621521  0.07172880  1
  W  W3  1  0.75000000  0.25378479  0.92827120  1
  S  S0  1  0.25000000  0.02505589  0.39453309  1
  S  S1  1  0.75000000  0.97494411  0.60546691  1
  S  S2  1  0.25000000  0.52505589  0.10546691  1
  S  S3  1  0.75000000  0.47494411  0.89453309  1
  S  S4  1  0.49985150  0.65872422  0.64169418  1
  S  S5  1  0.99985150  0.34127578  0.35830582  1
  S  S6  1  0.00014850  0.15872422  0.85830582  1
  S  S7  1  0.50014850  0.84127578  0.14169418  1
  S  S8  1  0.50014850  0.34127578  0.35830582  1
  S  S9  1  0.00014850  0.65872422  0.64169418  1
  S  S10  1  0.99985150  0.84127578  0.14169418  1
  S  S11  1  0.49985150  0.15872422  0.85830582  1
  S  S12  1  0.75000000  0.21550378  0.10009817  1
  S  S13  1  0.25000000  0.78449622  0.89990183  1
  S  S14  1  0.75000000  0.71550378  0.39990183  1
  S  S15  1  0.25000000  0.28449622  0.60009817  1
loop_
_geom_bond_atom_site_label_1
_geom_bond_atom_site_label_2
_geom_bond_distance
_geom_bond_site_symmetry_2
Rb0 S5 3.577223 1_455
Rb0 S8 3.577223 1_555
Rb0 S14 3.594161 1_455
Rb0 S14 3.594161 1_555
Rb0 S9 3.598633 1_555
Rb0 S4 3.598633 1_555
Rb0 S0 3.608752 1_565
Rb0 S2 3.837645 1_555
Rb1 S4 3.577223 1_555
Rb1 S9 3.577223 1_655
Rb1 S15 3.594161 1_555
Rb1 S15 3.594161 1_655
Rb1 S5 3.598633 1_555
Rb1 S8 3.598633 1_555
Rb1 S1 3.608752 1_545
Rb1 S3 3.837645 1_555
Rb2 S10 3.577223 1_445
Rb2 S7 3.577223 1_545
Rb2 S12 3.594161 1_455
Rb2 S12 3.594161 1_555
Rb2 S6 3.598633 1_554
Rb2 S11 3.598633 1_554
Rb2 S2 3.608752 1_555
Rb2 S0 3.837645 1_555
Rb3 S11 3.577223 1_565
Rb3 S6 3.577223 1_665
Rb3 S13 3.594161 1_555
Rb3 S13 3.594161 1_655
Rb3 S10 3.598633 1_556
Rb3 S7 3.598633 1_556
Rb3 S3 3.608752 1_555
Rb3 S1 3.837645 1_555
Rb4 S13 3.288350 1_555
Rb4 S15 3.379874 1_555
Rb4 S6 3.452440 1_555
Rb4 S11 3.452440 1_555
Rb4 S2 3.507426 1_556
Rb4 S9 3.553375 1_555
Rb4 S4 3.553375 1_555
Rb4 S3 3.636272 1_555
Rb4 S3 3.636272 1_455
Rb5 S12 3.288350 1_555
Rb5 S14 3.379874 1_555
Rb5 S10 3.452440 1_555
Rb5 S7 3.452440 1_555
Rb5 S3 3.507426 1_554
Rb5 S5 3.553375 1_555
Rb5 S8 3.553375 1_555
Rb5 S2 3.636272 1_555
Rb5 S2 3.636272 1_655
Rb6 S15 3.288350 1_565
Rb6 S13 3.379874 1_555
Rb6 S4 3.452440 1_555
Rb6 S9 3.452440 1_555
Rb6 S0 3.507426 1_565
Rb6 S6 3.553375 1_565
Rb6 S11 3.553375 1_565
Rb6 S1 3.636272 1_455
Rb6 S1 3.636272 1_555
Rb7 S14 3.288350 1_545
Rb7 S12 3.379874 1_555
Rb7 S5 3.452440 1_555
Rb7 S8 3.452440 1_555
Rb7 S1 3.507426 1_545
Rb7 S7 3.553375 1_545
Rb7 S10 3.553375 1_545
Rb7 S0 3.636272 1_555
Rb7 S0 3.636272 1_655
S0 W0 2.203333 1_555
S1 W1 2.203333 1_555
S2 W2 2.203333 1_555
S3 W3 2.203333 1_555
S4 W1 2.187639 1_555
S5 W0 2.187639 1_655
S6 W3 2.187639 1_455
S7 W2 2.187639 1_555
S8 W0 2.187639 1_555
S9 W1 2.187639 1_455
S10 W2 2.187639 1_655
S11 W3 2.187639 1_555
S12 W3 2.195188 1_554
S13 W2 2.195188 1_556
S14 W1 2.195188 1_555
S15 W0 2.195188 1_555
