# generated using pymatgen
data_Cs7Mo8AsO30
_symmetry_space_group_name_H-M   'P 1'
_cell_length_a   12.47470442
_cell_length_b   18.31748515
_cell_length_c   18.31748515
_cell_angle_alpha   80.17811366
_cell_angle_beta   70.09183203
_cell_angle_gamma   70.09183203
_symmetry_Int_Tables_number   1
_chemical_formula_structural   Cs7Mo8AsO30
_chemical_formula_sum   'Cs28 Mo32 As4 O120'
_cell_volume   3693.24435484
_cell_formula_units_Z   4
loop_
 _symmetry_equiv_pos_site_id
 _symmetry_equiv_pos_as_xyz
  1  'x, y, z'
loop_
 _atom_site_type_symbol
 _atom_site_label
 _atom_site_symmetry_multiplicity
 _atom_site_fract_x
 _atom_site_fract_y
 _atom_site_fract_z
 _atom_site_occupancy
  Cs  Cs0  1  0.12432939  0.12567061  0.62567061  1
  Cs  Cs1  1  0.37567061  0.37432939  0.87432939  1
  Cs  Cs2  1  0.87567061  0.87432939  0.37432939  1
  Cs  Cs3  1  0.62432939  0.62567061  0.12567061  1
  Cs  Cs4  1  0.75000000  0.49585243  0.50414757  1
  Cs  Cs5  1  0.25000000  0.00414757  0.99585243  1
  Cs  Cs6  1  0.25000000  0.50414757  0.49585243  1
  Cs  Cs7  1  0.75000000  0.99585243  0.00414757  1
  Cs  Cs8  1  0.75000000  0.25947131  0.74052869  1
  Cs  Cs9  1  0.25000000  0.24052869  0.75947131  1
  Cs  Cs10  1  0.25000000  0.74052869  0.25947131  1
  Cs  Cs11  1  0.75000000  0.75947131  0.24052869  1
  Cs  Cs12  1  0.00776676  0.25000000  0.25000000  1
  Cs  Cs13  1  0.49223324  0.75000000  0.75000000  1
  Cs  Cs14  1  0.99223324  0.75000000  0.75000000  1
  Cs  Cs15  1  0.50776676  0.25000000  0.25000000  1
  Cs  Cs16  1  -0.00000000  0.00000000  0.50000000  1
  Cs  Cs17  1  -0.00000000  0.50000000  0.00000000  1
  Cs  Cs18  1  0.50000000  0.50000000  0.00000000  1
  Cs  Cs19  1  0.50000000  0.00000000  0.50000000  1
  Cs  Cs20  1  0.12890956  0.33671777  0.41468881  1
  Cs  Cs21  1  0.38031615  0.16328223  0.08531119  1
  Cs  Cs22  1  0.37109044  0.58531119  0.66328223  1
  Cs  Cs23  1  0.11968385  0.91468881  0.83671777  1
  Cs  Cs24  1  0.87109044  0.66328223  0.58531119  1
  Cs  Cs25  1  0.61968385  0.83671777  0.91468881  1
  Cs  Cs26  1  0.62890956  0.41468881  0.33671777  1
  Cs  Cs27  1  0.88031615  0.08531119  0.16328223  1
  Mo  Mo0  1  0.70962745  0.15245241  0.41311240  1
  Mo  Mo1  1  0.77519226  0.34754759  0.08688760  1
  Mo  Mo2  1  0.79037255  0.58688760  0.84754759  1
  Mo  Mo3  1  0.72480774  0.91311240  0.65245241  1
  Mo  Mo4  1  0.29037255  0.84754759  0.58688760  1
  Mo  Mo5  1  0.22480774  0.65245241  0.91311240  1
  Mo  Mo6  1  0.20962745  0.41311240  0.15245241  1
  Mo  Mo7  1  0.27519226  0.08688760  0.34754759  1
  Mo  Mo8  1  0.44181175  0.24345789  0.50295538  1
  Mo  Mo9  1  0.68822502  0.25654211  0.99704462  1
  Mo  Mo10  1  0.05818825  0.49704462  0.75654211  1
  Mo  Mo11  1  0.81177498  0.00295538  0.74345789  1
  Mo  Mo12  1  0.55818825  0.75654211  0.49704462  1
  Mo  Mo13  1  0.31177498  0.74345789  0.00295538  1
  Mo  Mo14  1  0.94181175  0.50295538  0.24345789  1
  Mo  Mo15  1  0.18822502  0.99704462  0.25654211  1
  Mo  Mo16  1  0.53428221  0.33512850  0.59430744  1
  Mo  Mo17  1  0.96371815  0.16487150  0.90569256  1
  Mo  Mo18  1  0.96571779  0.40569256  0.66487150  1
  Mo  Mo19  1  0.53628185  0.09430744  0.83512850  1
  Mo  Mo20  1  0.46571779  0.66487150  0.40569256  1
  Mo  Mo21  1  0.03628185  0.83512850  0.09430744  1
  Mo  Mo22  1  0.03428221  0.59430744  0.33512850  1
  Mo  Mo23  1  0.46371815  0.90569256  0.16487150  1
  Mo  Mo24  1  0.80060996  0.24792075  0.50581048  1
  Mo  Mo25  1  0.05434118  0.25207925  0.99418952  1
  Mo  Mo26  1  0.69939004  0.49418952  0.75207925  1
  Mo  Mo27  1  0.44565882  0.00581048  0.74792075  1
  Mo  Mo28  1  0.19939004  0.75207925  0.49418952  1
  Mo  Mo29  1  0.94565882  0.74792075  0.00581048  1
  Mo  Mo30  1  0.30060996  0.50581048  0.24792075  1
  Mo  Mo31  1  0.55434118  0.99418952  0.25207925  1
  As  As0  1  0.62619914  0.12380086  0.62380086  1
  As  As1  1  0.87380086  0.37619914  0.87619914  1
  As  As2  1  0.37380086  0.87619914  0.37619914  1
  As  As3  1  0.12619914  0.62380086  0.12380086  1
  O  O0  1  0.58483793  0.12758652  0.54150010  1
  O  O1  1  0.75392455  0.37241348  0.95849990  1
  O  O2  1  0.91516207  0.45849990  0.87241348  1
  O  O3  1  0.74607545  0.04150010  0.62758652  1
  O  O4  1  0.41516207  0.87241348  0.45849990  1
  O  O5  1  0.24607545  0.62758652  0.04150010  1
  O  O6  1  0.08483793  0.54150010  0.12758652  1
  O  O7  1  0.25392455  0.95849990  0.37241348  1
  O  O8  1  0.66471131  0.20704004  0.61984448  1
  O  O9  1  0.99159584  0.29295996  0.88015552  1
  O  O10  1  0.83528869  0.38015552  0.79295996  1
  O  O11  1  0.50840416  0.11984448  0.70704004  1
  O  O12  1  0.33528869  0.79295996  0.38015552  1
  O  O13  1  0.00840416  0.70704004  0.11984448  1
  O  O14  1  0.16471131  0.61984448  0.20704004  1
  O  O15  1  0.49159584  0.88015552  0.29295996  1
  O  O16  1  0.81983672  0.15049943  0.46656746  1
  O  O17  1  0.93690362  0.34950057  0.03343254  1
  O  O18  1  0.68016328  0.53343254  0.84950057  1
  O  O19  1  0.56309638  0.96656746  0.65049943  1
  O  O20  1  0.18016328  0.84950057  0.53343254  1
  O  O21  1  0.06309638  0.65049943  0.96656746  1
  O  O22  1  0.31983672  0.46656746  0.15049943  1
  O  O23  1  0.43690362  0.03343254  0.34950057  1
  O  O24  1  0.54545241  0.18557332  0.41124110  1
  O  O25  1  0.64226683  0.31442668  0.08875890  1
  O  O26  1  0.95454759  0.58875890  0.81442668  1
  O  O27  1  0.85773317  0.91124110  0.68557332  1
  O  O28  1  0.45454759  0.81442668  0.58875890  1
  O  O29  1  0.35773317  0.68557332  0.91124110  1
  O  O30  1  0.04545241  0.41124110  0.18557332  1
  O  O31  1  0.14226683  0.08875890  0.31442668  1
  O  O32  1  0.77159599  0.19449545  0.32131933  1
  O  O33  1  0.78741076  0.30550455  0.17868067  1
  O  O34  1  0.72840401  0.67868067  0.80550455  1
  O  O35  1  0.71258924  0.82131933  0.69449545  1
  O  O36  1  0.22840401  0.80550455  0.67868067  1
  O  O37  1  0.21258924  0.69449545  0.82131933  1
  O  O38  1  0.27159599  0.32131933  0.19449545  1
  O  O39  1  0.28741076  0.17868067  0.30550455  1
  O  O40  1  0.75400595  0.05387188  0.39674850  1
  O  O41  1  0.70462634  0.44612812  0.10325150  1
  O  O42  1  0.74599405  0.60325150  0.94612812  1
  O  O43  1  0.79537366  0.89674850  0.55387188  1
  O  O44  1  0.24599405  0.94612812  0.60325150  1
  O  O45  1  0.29537366  0.55387188  0.89674850  1
  O  O46  1  0.25400595  0.39674850  0.05387188  1
  O  O47  1  0.20462634  0.10325150  0.44612812  1
  O  O48  1  0.61921412  0.27085580  0.48200848  1
  O  O49  1  0.87207841  0.22914420  0.01799152  1
  O  O50  1  0.88078588  0.51799152  0.72914420  1
  O  O51  1  0.62792159  0.98200848  0.77085580  1
  O  O52  1  0.38078588  0.72914420  0.51799152  1
  O  O53  1  0.12792159  0.77085580  0.98200848  1
  O  O54  1  0.11921412  0.48200848  0.27085580  1
  O  O55  1  0.37207841  0.01799152  0.22914420  1
  O  O56  1  0.33384957  0.19469148  0.53685499  1
  O  O57  1  0.56539605  0.30530852  0.96314501  1
  O  O58  1  0.16615043  0.46314501  0.80530852  1
  O  O59  1  0.93460395  0.03685499  0.69469148  1
  O  O60  1  0.66615043  0.80530852  0.46314501  1
  O  O61  1  0.43460395  0.69469148  0.03685499  1
  O  O62  1  0.83384957  0.53685499  0.19469148  1
  O  O63  1  0.06539605  0.96314501  0.30530852  1
  O  O64  1  0.37254324  0.32899590  0.45525776  1
  O  O65  1  0.65679690  0.17100410  0.04474224  1
  O  O66  1  0.12745676  0.54474224  0.67100410  1
  O  O67  1  0.84320310  0.95525776  0.82899590  1
  O  O68  1  0.62745676  0.67100410  0.54474224  1
  O  O69  1  0.34320310  0.82899590  0.95525776  1
  O  O70  1  0.87254324  0.45525776  0.32899590  1
  O  O71  1  0.15679690  0.04474224  0.17100410  1
  O  O72  1  0.42125946  0.28089300  0.60087704  1
  O  O73  1  0.80302950  0.21910700  0.89912296  1
  O  O74  1  0.07874054  0.39912296  0.71910700  1
  O  O75  1  0.69697050  0.10087704  0.78089300  1
  O  O76  1  0.57874054  0.71910700  0.39912296  1
  O  O77  1  0.19697050  0.78089300  0.10087704  1
  O  O78  1  0.92125946  0.60087704  0.28089300  1
  O  O79  1  0.30302950  0.89912296  0.21910700  1
  O  O80  1  0.47021299  0.42761343  0.55449661  1
  O  O81  1  0.95232303  0.07238657  0.94550339  1
  O  O82  1  0.02978701  0.44550339  0.57238657  1
  O  O83  1  0.54767697  0.05449661  0.92761343  1
  O  O84  1  0.52978701  0.57238657  0.44550339  1
  O  O85  1  0.04767697  0.92761343  0.05449661  1
  O  O86  1  0.97021299  0.55449661  0.42761343  1
  O  O87  1  0.45232303  0.94550339  0.07238657  1
  O  O88  1  0.49087483  0.34819902  0.69378685  1
  O  O89  1  0.03286070  0.15180098  0.80621315  1
  O  O90  1  0.00912517  0.30621315  0.65180098  1
  O  O91  1  0.46713930  0.19378685  0.84819902  1
  O  O92  1  0.50912517  0.65180098  0.30621315  1
  O  O93  1  0.96713930  0.84819902  0.19378685  1
  O  O94  1  0.99087483  0.69378685  0.34819902  1
  O  O95  1  0.53286070  0.80621315  0.15180098  1
  O  O96  1  0.69840558  0.33891679  0.56422192  1
  O  O97  1  0.10154429  0.16108321  0.93577808  1
  O  O98  1  0.80159442  0.43577808  0.66108321  1
  O  O99  1  0.39845571  0.06422192  0.83891679  1
  O  O100  1  0.30159442  0.66108321  0.43577808  1
  O  O101  1  0.89845571  0.83891679  0.06422192  1
  O  O102  1  0.19840558  0.56422192  0.33891679  1
  O  O103  1  0.60154429  0.93577808  0.16108321  1
  O  O104  1  0.91059402  0.21249597  0.55293767  1
  O  O105  1  0.17602766  0.28750403  0.94706233  1
  O  O106  1  0.58940598  0.44706233  0.78750403  1
  O  O107  1  0.32397234  0.05293767  0.71249597  1
  O  O108  1  0.08940598  0.78750403  0.44706233  1
  O  O109  1  0.82397234  0.71249597  0.05293767  1
  O  O110  1  0.41059402  0.55293767  0.21249597  1
  O  O111  1  0.67602766  0.94706233  0.28750403  1
  O  O112  1  0.86877935  0.29610951  0.42006959  1
  O  O113  1  0.08495845  0.20389049  0.07993041  1
  O  O114  1  0.63122065  0.57993041  0.70389049  1
  O  O115  1  0.41504155  0.92006959  0.79610951  1
  O  O116  1  0.13122065  0.70389049  0.57993041  1
  O  O117  1  0.91504155  0.79610951  0.92006959  1
  O  O118  1  0.36877935  0.42006959  0.29610951  1
  O  O119  1  0.58495845  0.07993041  0.20389049  1
loop_
_geom_bond_atom_site_label_1
_geom_bond_atom_site_label_2
_geom_bond_distance
_geom_bond_site_symmetry_2
Cs0 O56 3.119207 1_555
Cs0 O59 3.119207 1_455
Cs0 O44 3.150417 1_545
Cs0 O47 3.150417 1_555
Cs0 O90 3.172714 1_555
Cs0 O89 3.172714 1_555
Cs0 O104 3.197165 1_455
Cs0 O107 3.197165 1_555
Cs1 O58 3.119207 1_555
Cs1 O57 3.119207 1_555
Cs1 O46 3.150417 1_556
Cs1 O45 3.150417 1_555
Cs1 O88 3.172714 1_555
Cs1 O91 3.172714 1_555
Cs1 O106 3.197165 1_555
Cs1 O105 3.197165 1_555
Cs2 O60 3.119207 1_555
Cs2 O63 3.119207 1_655
Cs2 O40 3.150417 1_565
Cs2 O43 3.150417 1_555
Cs2 O94 3.172714 1_555
Cs2 O93 3.172714 1_555
Cs2 O108 3.197165 1_655
Cs2 O111 3.197165 1_555
Cs3 O62 3.119207 1_555
Cs3 O61 3.119207 1_555
Cs3 O42 3.150417 1_554
Cs3 O41 3.150417 1_555
Cs3 O92 3.172714 1_555
Cs3 O95 3.172714 1_555
Cs3 O110 3.197165 1_555
Cs3 O109 3.197165 1_555
Cs4 O86 3.088519 1_555
Cs4 O84 3.088519 1_555
Cs4 O96 3.096342 1_555
Cs4 O98 3.096342 1_555
Cs4 O68 3.143710 1_555
Cs4 O70 3.143710 1_555
Cs5 O87 3.088519 1_546
Cs5 O85 3.088519 1_546
Cs5 O99 3.096342 1_555
Cs5 O97 3.096342 1_555
Cs5 O69 3.143710 1_545
Cs5 O71 3.143710 1_556
Cs6 O80 3.088519 1_555
Cs6 O82 3.088519 1_555
Cs6 O102 3.096342 1_555
Cs6 O100 3.096342 1_555
Cs6 O64 3.143710 1_555
Cs6 O66 3.143710 1_555
Cs7 O81 3.088519 1_564
Cs7 O83 3.088519 1_564
Cs7 O101 3.096342 1_555
Cs7 O103 3.096342 1_555
Cs7 O65 3.143710 1_565
Cs7 O67 3.143710 1_554
Cs8 O75 3.109094 1_555
Cs8 O73 3.109094 1_555
Cs8 O8 3.156467 1_555
Cs8 O10 3.156467 1_555
Cs8 O90 3.414069 1_655
Cs8 O88 3.414069 1_555
Cs8 O104 3.421686 1_555
Cs8 O106 3.421686 1_555
Cs8 O96 3.483666 1_555
Cs8 O98 3.483666 1_555
Cs9 O74 3.109094 1_555
Cs9 O72 3.109094 1_555
Cs9 O9 3.156467 1_455
Cs9 O11 3.156467 1_555
Cs9 O89 3.414069 1_555
Cs9 O91 3.414069 1_555
Cs9 O105 3.421686 1_555
Cs9 O107 3.421686 1_555
Cs9 O97 3.483666 1_555
Cs9 O99 3.483666 1_555
Cs10 O77 3.109094 1_555
Cs10 O79 3.109094 1_555
Cs10 O14 3.156467 1_555
Cs10 O12 3.156467 1_555
Cs10 O92 3.414069 1_555
Cs10 O94 3.414069 1_455
Cs10 O110 3.421686 1_555
Cs10 O108 3.421686 1_555
Cs10 O102 3.483666 1_555
Cs10 O100 3.483666 1_555
Cs11 O76 3.109094 1_555
Cs11 O78 3.109094 1_555
Cs11 O13 3.156467 1_655
Cs11 O15 3.156467 1_555
Cs11 O95 3.414069 1_555
Cs11 O93 3.414069 1_555
Cs11 O111 3.421686 1_555
Cs11 O109 3.421686 1_555
Cs11 O103 3.483666 1_555
Cs11 O101 3.483666 1_555
Cs12 O112 3.105839 1_455
Cs12 O113 3.105839 1_555
Cs12 O31 3.116998 1_555
Cs12 O30 3.116998 1_555
Cs12 O32 3.222704 1_455
Cs12 O33 3.222705 1_455
Cs13 O114 3.105839 1_555
Cs13 O115 3.105839 1_555
Cs13 O29 3.116998 1_555
Cs13 O28 3.116998 1_555
Cs13 O34 3.222704 1_555
Cs13 O35 3.222705 1_555
Cs14 O116 3.105839 1_655
Cs14 O117 3.105839 1_555
Cs14 O27 3.116998 1_555
Cs14 O26 3.116998 1_555
Cs14 O36 3.222704 1_655
Cs14 O37 3.222705 1_655
Cs15 O118 3.105839 1_555
Cs15 O119 3.105839 1_555
Cs15 O25 3.116998 1_555
Cs15 O24 3.116998 1_555
Cs15 O38 3.222704 1_555
Cs15 O39 3.222705 1_555
Cs16 O20 3.027846 1_545
Cs16 O16 3.027846 1_455
Cs16 O7 3.162002 1_545
Cs16 O3 3.162002 1_455
Cs16 O47 3.464468 1_555
Cs16 O43 3.464468 1_445
Cs16 O63 3.507770 1_545
Cs16 O59 3.507770 1_455
Cs17 O21 3.027846 1_554
Cs17 O17 3.027846 1_455
Cs17 O2 3.162002 1_454
Cs17 O6 3.162002 1_555
Cs17 O46 3.464467 1_555
Cs17 O42 3.464467 1_454
Cs17 O62 3.507770 1_455
Cs17 O58 3.507770 1_554
Cs18 O18 3.027846 1_554
Cs18 O22 3.027846 1_555
Cs18 O1 3.162002 1_554
Cs18 O5 3.162002 1_555
Cs18 O41 3.464468 1_555
Cs18 O45 3.464468 1_554
Cs18 O57 3.507770 1_554
Cs18 O61 3.507770 1_555
Cs19 O23 3.027846 1_555
Cs19 O19 3.027846 1_545
Cs19 O0 3.162002 1_555
Cs19 O4 3.162002 1_545
Cs19 O40 3.464467 1_555
Cs19 O44 3.464467 1_545
Cs19 O56 3.507770 1_555
Cs19 O60 3.507770 1_545
Cs20 O64 3.319461 1_555
Cs20 O54 3.412400 1_555
Cs20 O39 3.416670 1_555
Cs20 O82 3.420112 1_555
Cs20 O112 3.534739 1_455
Cs21 O65 3.319461 1_555
Cs21 O55 3.412400 1_555
Cs21 O38 3.416670 1_555
Cs21 O83 3.420112 1_554
Cs21 O113 3.534739 1_555
Cs22 O66 3.319461 1_555
Cs22 O52 3.412400 1_555
Cs22 O37 3.416670 1_555
Cs22 O80 3.420112 1_555
Cs22 O114 3.534739 1_555
Cs23 O67 3.319461 1_455
Cs23 O53 3.412400 1_555
Cs23 O36 3.416670 1_555
Cs23 O81 3.420112 1_465
Cs23 O115 3.534739 1_555
Cs24 O68 3.319461 1_555
Cs24 O50 3.412400 1_555
Cs24 O35 3.416670 1_555
Cs24 O86 3.420112 1_555
Cs24 O116 3.534739 1_655
Cs25 O69 3.319461 1_555
Cs25 O51 3.412400 1_555
Cs25 O34 3.416670 1_555
Cs25 O87 3.420112 1_556
Cs25 O117 3.534739 1_555
Cs26 O70 3.319461 1_555
Cs26 O48 3.412400 1_555
Cs26 O33 3.416670 1_555
Cs26 O84 3.420112 1_555
Cs26 O118 3.534739 1_555
Cs27 O71 3.319461 1_655
Cs27 O49 3.412400 1_555
Cs27 O32 3.416670 1_555
Cs27 O85 3.420112 1_645
Cs27 O119 3.534739 1_555
Mo0 O40 1.745823 1_555
Mo0 O32 1.759631 1_555
Mo0 O16 1.929127 1_555
Mo0 O24 1.938612 1_555
Mo0 O0 2.405348 1_555
Mo0 O48 2.422232 1_555
Mo1 O41 1.745823 1_555
Mo1 O33 1.759631 1_555
Mo1 O17 1.929127 1_555
Mo1 O25 1.938612 1_555
Mo1 O1 2.405348 1_554
Mo1 O49 2.422232 1_555
Mo2 O42 1.745823 1_555
Mo2 O34 1.759631 1_555
Mo2 O18 1.929127 1_555
Mo2 O26 1.938612 1_555
Mo2 O2 2.405348 1_555
Mo2 O50 2.422232 1_555
Mo3 O43 1.745823 1_555
Mo3 O35 1.759631 1_555
Mo3 O19 1.929127 1_555
Mo3 O27 1.938612 1_555
Mo3 O3 2.405348 1_565
Mo3 O51 2.422232 1_555
Mo4 O44 1.745823 1_555
Mo4 O36 1.759631 1_555
Mo4 O20 1.929127 1_555
Mo4 O28 1.938612 1_555
Mo4 O4 2.405348 1_555
Mo4 O52 2.422232 1_555
Mo5 O45 1.745823 1_555
Mo5 O37 1.759631 1_555
Mo5 O21 1.929127 1_555
Mo5 O29 1.938612 1_555
Mo5 O5 2.405348 1_556
Mo5 O53 2.422232 1_555
Mo6 O46 1.745823 1_555
Mo6 O38 1.759631 1_555
Mo6 O22 1.929127 1_555
Mo6 O30 1.938612 1_555
Mo6 O6 2.405348 1_555
Mo6 O54 2.422232 1_555
Mo7 O47 1.745823 1_555
Mo7 O39 1.759631 1_555
Mo7 O23 1.929127 1_555
Mo7 O31 1.938612 1_555
Mo7 O7 2.405348 1_545
Mo7 O55 2.422232 1_555
Mo8 O56 1.748692 1_555
Mo8 O64 1.757861 1_555
Mo8 O72 1.933892 1_555
Mo8 O24 1.952701 1_555
Mo8 O48 2.325734 1_555
Mo8 O0 2.440169 1_555
Mo9 O57 1.748692 1_555
Mo9 O65 1.757861 1_556
Mo9 O73 1.933891 1_555
Mo9 O25 1.952701 1_556
Mo9 O49 2.325734 1_556
Mo9 O1 2.440169 1_555
Mo10 O58 1.748692 1_555
Mo10 O66 1.757861 1_555
Mo10 O74 1.933892 1_555
Mo10 O26 1.952701 1_455
Mo10 O50 2.325734 1_455
Mo10 O2 2.440169 1_455
Mo11 O59 1.748692 1_555
Mo11 O67 1.757861 1_545
Mo11 O75 1.933891 1_555
Mo11 O27 1.952701 1_545
Mo11 O51 2.325734 1_545
Mo11 O3 2.440169 1_555
Mo12 O60 1.748692 1_555
Mo12 O68 1.757861 1_555
Mo12 O76 1.933892 1_555
Mo12 O28 1.952701 1_555
Mo12 O52 2.325734 1_555
Mo12 O4 2.440169 1_555
Mo13 O61 1.748692 1_555
Mo13 O69 1.757861 1_554
Mo13 O77 1.933891 1_555
Mo13 O29 1.952701 1_554
Mo13 O53 2.325734 1_554
Mo13 O5 2.440169 1_555
Mo14 O62 1.748692 1_555
Mo14 O70 1.757861 1_555
Mo14 O78 1.933892 1_555
Mo14 O30 1.952701 1_655
Mo14 O54 2.325734 1_655
Mo14 O6 2.440169 1_655
Mo15 O63 1.748692 1_555
Mo15 O71 1.757861 1_565
Mo15 O79 1.933891 1_555
Mo15 O31 1.952701 1_565
Mo15 O55 2.325734 1_565
Mo15 O7 2.440169 1_555
Mo16 O88 1.749162 1_555
Mo16 O80 1.758938 1_555
Mo16 O72 1.945998 1_555
Mo16 O96 1.953364 1_555
Mo16 O48 2.287466 1_555
Mo16 O8 2.432105 1_555
Mo17 O89 1.749162 1_655
Mo17 O81 1.758938 1_555
Mo17 O73 1.945998 1_555
Mo17 O97 1.953364 1_655
Mo17 O49 2.287466 1_556
Mo17 O9 2.432105 1_555
Mo18 O90 1.749162 1_655
Mo18 O82 1.758938 1_655
Mo18 O74 1.945998 1_655
Mo18 O98 1.953364 1_555
Mo18 O50 2.287466 1_555
Mo18 O10 2.432105 1_555
Mo19 O91 1.749162 1_555
Mo19 O83 1.758938 1_555
Mo19 O75 1.945998 1_555
Mo19 O99 1.953364 1_555
Mo19 O51 2.287466 1_545
Mo19 O11 2.432105 1_555
Mo20 O92 1.749162 1_555
Mo20 O84 1.758938 1_555
Mo20 O76 1.945998 1_555
Mo20 O100 1.953364 1_555
Mo20 O52 2.287466 1_555
Mo20 O12 2.432105 1_555
Mo21 O93 1.749162 1_455
Mo21 O85 1.758938 1_555
Mo21 O77 1.945998 1_555
Mo21 O101 1.953364 1_455
Mo21 O53 2.287466 1_554
Mo21 O13 2.432105 1_555
Mo22 O94 1.749162 1_455
Mo22 O86 1.758938 1_455
Mo22 O78 1.945998 1_455
Mo22 O102 1.953364 1_555
Mo22 O54 2.287466 1_555
Mo22 O14 2.432105 1_555
Mo23 O95 1.749162 1_555
Mo23 O87 1.758938 1_555
Mo23 O79 1.945998 1_555
Mo23 O103 1.953364 1_555
Mo23 O55 2.287466 1_565
Mo23 O15 2.432105 1_555
Mo24 O104 1.748680 1_555
Mo24 O112 1.760008 1_555
Mo24 O96 1.944420 1_555
Mo24 O16 1.946144 1_555
Mo24 O48 2.334330 1_555
Mo24 O8 2.391069 1_555
Mo25 O105 1.748681 1_555
Mo25 O113 1.760008 1_556
Mo25 O97 1.944420 1_555
Mo25 O17 1.946144 1_456
Mo25 O49 2.334330 1_456
Mo25 O9 2.391068 1_455
Mo26 O106 1.748680 1_555
Mo26 O114 1.760008 1_555
Mo26 O98 1.944420 1_555
Mo26 O18 1.946144 1_555
Mo26 O50 2.334330 1_555
Mo26 O10 2.391069 1_555
Mo27 O107 1.748681 1_555
Mo27 O115 1.760008 1_545
Mo27 O99 1.944420 1_555
Mo27 O19 1.946144 1_545
Mo27 O51 2.334330 1_545
Mo27 O11 2.391068 1_555
Mo28 O108 1.748680 1_555
Mo28 O116 1.760008 1_555
Mo28 O100 1.944420 1_555
Mo28 O20 1.946144 1_555
Mo28 O52 2.334330 1_555
Mo28 O12 2.391069 1_555
Mo29 O109 1.748681 1_555
Mo29 O117 1.760008 1_554
Mo29 O101 1.944420 1_555
Mo29 O21 1.946144 1_654
Mo29 O53 2.334330 1_654
Mo29 O13 2.391068 1_655
Mo30 O110 1.748680 1_555
Mo30 O118 1.760008 1_555
Mo30 O102 1.944420 1_555
Mo30 O22 1.946144 1_555
Mo30 O54 2.334330 1_555
Mo30 O14 2.391069 1_555
Mo31 O111 1.748681 1_555
Mo31 O119 1.760008 1_565
Mo31 O103 1.944420 1_555
Mo31 O23 1.946144 1_565
Mo31 O55 2.334330 1_565
Mo31 O15 2.391068 1_555
As0 O8 1.731569 1_555
As0 O11 1.731569 1_555
As0 O3 1.735920 1_555
As0 O0 1.735920 1_555
As1 O10 1.731569 1_555
As1 O9 1.731569 1_555
As1 O1 1.735920 1_555
As1 O2 1.735920 1_555
As2 O12 1.731569 1_555
As2 O15 1.731569 1_555
As2 O7 1.735920 1_555
As2 O4 1.735920 1_555
As3 O14 1.731569 1_555
As3 O13 1.731569 1_555
As3 O5 1.735920 1_555
As3 O6 1.735920 1_555
