# generated using pymatgen
data_Sc2Fe3Si
_symmetry_space_group_name_H-M   'P 1'
_cell_length_a   4.91962326
_cell_length_b   4.92073296
_cell_length_c   8.07808600
_cell_angle_alpha   90.00000000
_cell_angle_beta   90.00000000
_cell_angle_gamma   60.67777340
_symmetry_Int_Tables_number   1
_chemical_formula_structural   Sc2Fe3Si
_chemical_formula_sum   'Sc4 Fe6 Si2'
_cell_volume   170.50083625
_cell_formula_units_Z   2
loop_
 _symmetry_equiv_pos_site_id
 _symmetry_equiv_pos_as_xyz
  1  'x, y, z'
loop_
 _atom_site_type_symbol
 _atom_site_label
 _atom_site_symmetry_multiplicity
 _atom_site_fract_x
 _atom_site_fract_y
 _atom_site_fract_z
 _atom_site_occupancy
  Sc  Sc0  1  0.33064900  0.33056100  0.55744500  1
  Sc  Sc1  1  0.66825900  0.66829800  0.43452700  1
  Sc  Sc2  1  0.66825900  0.66829800  0.06547300  1
  Sc  Sc3  1  0.33064900  0.33056100  0.94255500  1
  Fe  Fe0  1  0.83186100  0.83183200  0.75000000  1
  Fe  Fe1  1  0.17053100  0.66430400  0.25000000  1
  Fe  Fe2  1  0.66428100  0.17054500  0.25000000  1
  Fe  Fe3  1  0.17072200  0.17074500  0.25000000  1
  Fe  Fe4  1  0.99969100  0.99972400  0.49922200  1
  Fe  Fe5  1  0.99969100  0.99972400  0.00077800  1
  Si  Si0  1  0.83068600  0.33472600  0.75000000  1
  Si  Si1  1  0.33472200  0.83068300  0.75000000  1
loop_
_geom_bond_atom_site_label_1
_geom_bond_atom_site_label_2
_geom_bond_distance
_geom_bond_site_symmetry_2
Sc0 Si0 2.901780 1_455
Sc0 Si1 2.902082 1_545
Sc0 Si0 2.919054 1_555
Sc0 Si1 2.919685 1_555
Sc0 Sc1 3.010436 1_455
Sc0 Sc1 3.010503 1_545
Sc0 Sc1 3.034810 1_555
Sc1 Si1 2.922534 1_555
Sc1 Si0 2.922766 1_555
Sc1 Sc2 2.981250 1_555
Sc2 Si1 2.922534 1_554
Sc2 Si0 2.922766 1_554
Sc2 Sc3 3.010436 1_654
Sc2 Sc3 3.010503 1_564
Sc2 Sc3 3.034810 1_554
Sc3 Si0 2.901780 1_455
Sc3 Si1 2.902082 1_545
Sc3 Si0 2.919054 1_555
Sc3 Si1 2.919685 1_555
Fe0 Si1 2.448510 1_555
Fe0 Si0 2.448962 1_555
Fe0 Si1 2.471123 1_655
Fe0 Si0 2.471781 1_565
Fe0 Fe5 2.477141 1_556
Fe0 Fe4 2.477141 1_555
Fe0 Sc2 2.902439 1_556
Fe0 Sc1 2.902439 1_555
Fe0 Sc3 2.931780 1_565
Fe0 Sc0 2.931780 1_565
Fe0 Sc3 2.932033 1_655
Fe0 Sc0 2.932033 1_655
Fe1 Fe3 2.428212 1_555
Fe1 Fe2 2.454205 1_555
Fe1 Fe5 2.474877 1_455
Fe1 Fe4 2.474877 1_455
Fe1 Fe3 2.492521 1_565
Fe1 Fe2 2.516292 1_465
Fe1 Sc3 2.866807 1_554
Fe1 Sc0 2.866807 1_555
Fe1 Sc2 2.874942 1_555
Fe1 Sc1 2.874942 1_555
Fe1 Sc1 2.877598 1_455
Fe1 Sc2 2.877598 1_455
Fe2 Fe3 2.427643 1_555
Fe2 Fe4 2.474667 1_545
Fe2 Fe5 2.474667 1_545
Fe2 Fe3 2.491981 1_655
Fe2 Sc0 2.866407 1_555
Fe2 Sc3 2.866407 1_554
Fe2 Sc2 2.875485 1_555
Fe2 Sc1 2.875485 1_555
Fe2 Sc2 2.878004 1_545
Fe2 Sc1 2.878004 1_545
Fe3 Fe5 2.482503 1_445
Fe3 Fe4 2.482503 1_445
Fe3 Sc0 2.830475 1_555
Fe3 Sc3 2.830475 1_554
Fe3 Sc2 2.898049 1_545
Fe3 Sc1 2.898049 1_545
Fe3 Sc2 2.898108 1_455
Fe3 Sc1 2.898108 1_455
Fe4 Si1 2.483873 1_655
Fe4 Si0 2.483984 1_565
Fe4 Sc0 2.849315 1_665
Fe4 Sc1 2.862849 1_555
Fe4 Sc0 2.908065 1_565
Fe4 Sc0 2.909214 1_655
Fe4 Sc1 2.915002 1_655
Fe4 Sc1 2.915659 1_565
Fe5 Si1 2.483873 1_654
Fe5 Si0 2.483984 1_564
Fe5 Sc3 2.849315 1_664
Fe5 Sc2 2.862849 1_555
Fe5 Sc3 2.908065 1_564
Fe5 Sc3 2.909214 1_654
Fe5 Sc2 2.915002 1_655
Fe5 Sc2 2.915659 1_565
Si0 Si1 2.465170 1_555
Si0 Si1 2.505327 1_645
