# generated using pymatgen
data_Li9Mn2Co5O16
_symmetry_space_group_name_H-M   'P 1'
_cell_length_a   3.01819800
_cell_length_b   9.90754502
_cell_length_c   10.02273701
_cell_angle_alpha   77.98300871
_cell_angle_beta   87.67556689
_cell_angle_gamma   87.34376346
_symmetry_Int_Tables_number   1
_chemical_formula_structural   Li9Mn2Co5O16
_chemical_formula_sum   'Li9 Mn2 Co5 O16'
_cell_volume   292.67984082
_cell_formula_units_Z   1
loop_
 _symmetry_equiv_pos_site_id
 _symmetry_equiv_pos_as_xyz
  1  'x, y, z'
loop_
 _atom_site_type_symbol
 _atom_site_label
 _atom_site_symmetry_multiplicity
 _atom_site_fract_x
 _atom_site_fract_y
 _atom_site_fract_z
 _atom_site_occupancy
  Li  Li0  1  0.00141500  0.24909400  0.12618900  1
  Li  Li1  1  0.50178100  0.74791400  0.12853100  1
  Li  Li2  1  0.49831000  0.24271900  0.37691500  1
  Li  Li3  1  0.00786100  0.75435700  0.37101600  1
  Li  Li4  1  0.99213900  0.24564300  0.62898400  1
  Li  Li5  1  0.50169000  0.75728100  0.62308500  1
  Li  Li6  1  0.49821900  0.25208600  0.87146900  1
  Li  Li7  1  0.99858500  0.75090600  0.87381100  1
  Li  Li8  1  0.00000000  0.00000000  0.50000000  1
  Mn  Mn0  1  0.00000000  0.00000000  0.00000000  1
  Mn  Mn1  1  0.50000000  0.50000000  0.50000000  1
  Co  Co0  1  0.50000000  0.50000000  0.00000000  1
  Co  Co1  1  0.50997100  0.00118700  0.25985300  1
  Co  Co2  1  0.00063700  0.49767000  0.24779000  1
  Co  Co3  1  0.49002900  0.99881300  0.74014700  1
  Co  Co4  1  0.99936300  0.50233000  0.75221000  1
  O  O0  1  0.52506200  0.11172000  0.07483100  1
  O  O1  1  0.03615100  0.61456600  0.06527300  1
  O  O2  1  0.03207600  0.11533900  0.30762600  1
  O  O3  1  0.48582800  0.61285400  0.31495000  1
  O  O4  1  0.50135700  0.11447600  0.58339500  1
  O  O5  1  0.03815300  0.61930400  0.56883000  1
  O  O6  1  0.02415200  0.11497400  0.81814200  1
  O  O7  1  0.48395900  0.61246600  0.81975200  1
  O  O8  1  0.51604100  0.38753400  0.18024800  1
  O  O9  1  0.97584800  0.88502600  0.18185800  1
  O  O10  1  0.96184700  0.38069600  0.43117000  1
  O  O11  1  0.49864300  0.88552400  0.41660500  1
  O  O12  1  0.51417200  0.38714600  0.68505000  1
  O  O13  1  0.96792400  0.88466100  0.69237400  1
  O  O14  1  0.96384900  0.38543400  0.93472700  1
  O  O15  1  0.47493800  0.88828000  0.92516900  1
loop_
_geom_bond_atom_site_label_1
_geom_bond_atom_site_label_2
_geom_bond_distance
_geom_bond_site_symmetry_2
Li0 O2 2.017528 1_555
Li0 O8 2.092792 1_455
Li0 O14 2.108089 1_454
Li0 O0 2.154446 1_555
Li0 O0 2.172000 1_455
Li0 O8 2.272136 1_555
Li1 O3 2.059487 1_555
Li1 O9 2.164355 1_455
Li1 O1 2.171550 1_555
Li1 O9 2.173208 1_555
Li1 O1 2.194768 1_655
Li1 O15 2.217574 1_554
Li2 O2 2.159625 1_555
Li2 O10 2.161081 1_555
Li2 O2 2.180847 1_655
Li2 O8 2.183512 1_555
Li2 O4 2.191529 1_555
Li2 O10 2.195232 1_455
Li3 O9 2.064206 1_455
Li3 O11 2.065161 1_455
Li3 O3 2.106455 1_555
Li3 O11 2.138307 1_555
Li3 O5 2.151343 1_555
Li3 O3 2.316968 1_455
Li4 O6 2.064206 1_655
Li4 O4 2.065161 1_655
Li4 O12 2.106455 1_555
Li4 O4 2.138307 1_555
Li4 O10 2.151343 1_555
Li4 O12 2.316968 1_655
Li5 O13 2.159625 1_555
Li5 O5 2.161081 1_555
Li5 O13 2.180847 1_455
Li5 O7 2.183512 1_555
Li5 O11 2.191529 1_555
Li5 O5 2.195232 1_655
Li6 O12 2.059487 1_555
Li6 O6 2.164355 1_655
Li6 O14 2.171550 1_555
Li6 O6 2.173208 1_555
Li6 O14 2.194768 1_455
Li6 O0 2.217574 1_556
Li7 O13 2.017528 1_555
Li7 O7 2.092792 1_655
Li7 O1 2.108089 1_656
Li7 O15 2.154446 1_555
Li7 O15 2.172000 1_655
Li7 O7 2.272136 1_555
Li8 O13 2.027429 1_445
Li8 O2 2.027429 1_555
Li8 O11 2.093926 1_545
Li8 O4 2.093926 1_455
Li8 O4 2.220623 1_555
Li8 O11 2.220623 1_445
Mn0 O9 1.938434 1_445
Mn0 O6 1.938434 1_554
Mn0 O0 1.988440 1_455
Mn0 O15 1.988440 1_544
Mn0 O0 2.214444 1_555
Mn0 O15 2.214444 1_444
Mn1 O3 1.957144 1_555
Mn1 O12 1.957144 1_555
Mn1 O5 1.981154 1_555
Mn1 O10 1.981154 1_555
Mn1 O10 2.262663 1_455
Mn1 O5 2.262663 1_655
Co0 O8 1.916122 1_555
Co0 O7 1.916122 1_554
Co0 O14 1.940096 1_554
Co0 O1 1.940096 1_555
Co0 O1 2.213664 1_655
Co0 O14 2.213664 1_454
Co1 O11 1.741333 1_545
Co1 O2 1.899233 1_555
Co1 O0 1.947403 1_555
Co1 O9 2.012016 1_545
Co1 O2 2.107944 1_655
Co1 O9 2.276671 1_445
Co2 O1 1.952591 1_555
Co2 O10 1.960382 1_455
Co2 O8 2.033136 1_555
Co2 O3 2.059217 1_455
Co2 O8 2.079419 1_455
Co2 O3 2.110595 1_555
Co3 O4 1.741333 1_565
Co3 O13 1.899233 1_555
Co3 O15 1.947403 1_555
Co3 O6 2.012016 1_565
Co3 O13 2.107944 1_455
Co3 O6 2.276671 1_665
Co4 O14 1.952591 1_555
Co4 O5 1.960382 1_655
Co4 O7 2.033136 1_555
Co4 O12 2.059217 1_655
Co4 O7 2.079419 1_655
Co4 O12 2.110595 1_555
