# generated using pymatgen
data_Dy5Pt3
_symmetry_space_group_name_H-M   'P 1'
_cell_length_a   8.41347347
_cell_length_b   8.41347347
_cell_length_c   6.14424640
_cell_angle_alpha   90.00000000
_cell_angle_beta   90.00000000
_cell_angle_gamma   119.99999658
_symmetry_Int_Tables_number   1
_chemical_formula_structural   Dy5Pt3
_chemical_formula_sum   'Dy10 Pt6'
_cell_volume   376.66037038
_cell_formula_units_Z   2
loop_
 _symmetry_equiv_pos_site_id
 _symmetry_equiv_pos_as_xyz
  1  'x, y, z'
loop_
 _atom_site_type_symbol
 _atom_site_label
 _atom_site_symmetry_multiplicity
 _atom_site_fract_x
 _atom_site_fract_y
 _atom_site_fract_z
 _atom_site_occupancy
  Dy  Dy0  1  0.66666700  0.33333300  0.50000000  1
  Dy  Dy1  1  0.33333300  0.66666700  0.50000000  1
  Dy  Dy2  1  0.33333300  0.66666700  0.00000000  1
  Dy  Dy3  1  0.66666700  0.33333300  0.00000000  1
  Dy  Dy4  1  0.75278328  0.75278328  0.25000000  1
  Dy  Dy5  1  0.24721672  -0.00000000  0.25000000  1
  Dy  Dy6  1  -0.00000000  0.24721672  0.25000000  1
  Dy  Dy7  1  0.24721672  0.24721672  0.75000000  1
  Dy  Dy8  1  0.75278328  0.00000000  0.75000000  1
  Dy  Dy9  1  0.00000000  0.75278328  0.75000000  1
  Pt  Pt0  1  0.39399349  0.39399349  0.25000000  1
  Pt  Pt1  1  0.60600651  -0.00000000  0.25000000  1
  Pt  Pt2  1  -0.00000000  0.60600651  0.25000000  1
  Pt  Pt3  1  0.60600651  0.60600651  0.75000000  1
  Pt  Pt4  1  0.39399349  0.00000000  0.75000000  1
  Pt  Pt5  1  0.00000000  0.39399349  0.75000000  1
loop_
_geom_bond_atom_site_label_1
_geom_bond_atom_site_label_2
_geom_bond_distance
_geom_bond_site_symmetry_2
Dy0 Pt1 3.008953 1_555
Dy0 Pt5 3.008953 1_655
Dy0 Pt2 3.008956 1_655
Dy0 Pt4 3.008956 1_555
Dy0 Pt0 3.008960 1_555
Dy0 Pt3 3.008960 1_555
Dy0 Dy3 3.072123 1_555
Dy0 Dy3 3.072123 1_556
Dy0 Dy8 3.575129 1_555
Dy0 Dy6 3.575129 1_655
Dy0 Dy5 3.575134 1_555
Dy0 Dy9 3.575134 1_655
Dy0 Dy7 3.575137 1_555
Dy0 Dy4 3.575137 1_555
Dy1 Pt4 3.008953 1_565
Dy1 Pt2 3.008953 1_555
Dy1 Pt1 3.008956 1_565
Dy1 Pt5 3.008956 1_555
Dy1 Pt0 3.008960 1_555
Dy1 Pt3 3.008960 1_555
Dy1 Dy2 3.072123 1_555
Dy1 Dy2 3.072123 1_556
Dy1 Dy9 3.575129 1_555
Dy1 Dy5 3.575129 1_565
Dy1 Dy6 3.575134 1_555
Dy1 Dy8 3.575134 1_565
Dy1 Dy7 3.575137 1_555
Dy1 Dy4 3.575137 1_555
Dy2 Pt2 3.008953 1_555
Dy2 Pt4 3.008953 1_564
Dy2 Pt1 3.008956 1_565
Dy2 Pt5 3.008956 1_554
Dy2 Pt0 3.008960 1_555
Dy2 Pt3 3.008960 1_554
Dy2 Dy9 3.575129 1_554
Dy2 Dy5 3.575129 1_565
Dy2 Dy6 3.575134 1_555
Dy2 Dy8 3.575134 1_564
Dy2 Dy7 3.575137 1_554
Dy2 Dy4 3.575137 1_555
Dy3 Pt1 3.008953 1_555
Dy3 Pt5 3.008953 1_654
Dy3 Pt2 3.008956 1_655
Dy3 Pt4 3.008956 1_554
Dy3 Pt0 3.008960 1_555
Dy3 Pt3 3.008960 1_554
Dy3 Dy8 3.575129 1_554
Dy3 Dy6 3.575129 1_655
Dy3 Dy5 3.575134 1_555
Dy3 Dy9 3.575134 1_654
Dy3 Dy7 3.575137 1_554
Dy3 Dy4 3.575137 1_555
Dy4 Pt2 2.901675 1_655
Dy4 Pt1 2.901675 1_565
Dy4 Pt0 3.018669 1_555
Dy4 Pt3 3.311031 1_555
Dy4 Pt3 3.311031 1_554
Dy4 Dy6 3.602581 1_665
Dy4 Dy5 3.602581 1_665
Dy4 Dy8 3.710005 1_565
Dy4 Dy9 3.710005 1_655
Dy4 Dy9 3.710005 1_654
Dy4 Dy8 3.710005 1_564
Dy5 Pt0 2.901675 1_555
Dy5 Pt2 2.901675 1_545
Dy5 Pt1 3.018668 1_555
Dy5 Pt4 3.311031 1_554
Dy5 Pt4 3.311031 1_555
Dy5 Dy6 3.602581 1_555
Dy5 Dy7 3.710005 1_554
Dy5 Dy7 3.710005 1_555
Dy5 Dy9 3.710005 1_545
Dy5 Dy9 3.710005 1_544
Dy6 Pt0 2.901675 1_555
Dy6 Pt1 2.901675 1_455
Dy6 Pt2 3.018668 1_555
Dy6 Pt5 3.311031 1_554
Dy6 Pt5 3.311031 1_555
Dy6 Dy7 3.710005 1_554
Dy6 Dy7 3.710005 1_555
Dy6 Dy8 3.710005 1_454
Dy6 Dy8 3.710005 1_455
Dy7 Pt4 2.901675 1_555
Dy7 Pt5 2.901675 1_555
Dy7 Pt3 3.018669 1_555
Dy7 Pt0 3.311031 1_556
Dy7 Pt0 3.311031 1_555
Dy7 Dy9 3.602581 1_545
Dy7 Dy8 3.602581 1_455
Dy8 Pt3 2.901675 1_545
Dy8 Pt5 2.901675 1_655
Dy8 Pt4 3.018668 1_555
Dy8 Pt1 3.311031 1_555
Dy8 Pt1 3.311031 1_556
Dy8 Dy9 3.602581 1_645
Dy9 Pt3 2.901675 1_455
Dy9 Pt4 2.901675 1_565
Dy9 Pt5 3.018668 1_555
Dy9 Pt2 3.311031 1_556
Dy9 Pt2 3.311031 1_555
