# generated using pymatgen
data_Sr3(CrN2)2
_symmetry_space_group_name_H-M   'P 1'
_cell_length_a   5.86531900
_cell_length_b   9.92316500
_cell_length_c   9.63374700
_cell_angle_alpha   90.00000000
_cell_angle_beta   90.00000000
_cell_angle_gamma   90.00000000
_symmetry_Int_Tables_number   1
_chemical_formula_structural   Sr3(CrN2)2
_chemical_formula_sum   'Sr12 Cr8 N16'
_cell_volume   560.70843158
_cell_formula_units_Z   4
loop_
 _symmetry_equiv_pos_site_id
 _symmetry_equiv_pos_as_xyz
  1  'x, y, z'
loop_
 _atom_site_type_symbol
 _atom_site_label
 _atom_site_symmetry_multiplicity
 _atom_site_fract_x
 _atom_site_fract_y
 _atom_site_fract_z
 _atom_site_occupancy
  Sr  Sr0  1  0.61973000  0.15711200  0.41778600  1
  Sr  Sr1  1  0.88027000  0.84288800  0.41778600  1
  Sr  Sr2  1  0.61973000  0.34288800  0.08221400  1
  Sr  Sr3  1  0.88027000  0.65711200  0.08221400  1
  Sr  Sr4  1  0.38027000  0.84288800  0.58221400  1
  Sr  Sr5  1  0.11973000  0.15711200  0.58221400  1
  Sr  Sr6  1  0.38027000  0.65711200  0.91778600  1
  Sr  Sr7  1  0.11973000  0.34288800  0.91778600  1
  Sr  Sr8  1  0.75000000  0.50000000  0.40270500  1
  Sr  Sr9  1  0.75000000  0.00000000  0.09729500  1
  Sr  Sr10  1  0.25000000  0.50000000  0.59729500  1
  Sr  Sr11  1  0.25000000  0.00000000  0.90270500  1
  Cr  Cr0  1  0.75000000  0.50000000  0.73602800  1
  Cr  Cr1  1  0.75000000  0.00000000  0.76397200  1
  Cr  Cr2  1  0.25000000  0.50000000  0.26397200  1
  Cr  Cr3  1  0.25000000  0.00000000  0.23602800  1
  Cr  Cr4  1  0.65711900  0.25000000  0.75000000  1
  Cr  Cr5  1  0.84288100  0.75000000  0.75000000  1
  Cr  Cr6  1  0.34288100  0.75000000  0.25000000  1
  Cr  Cr7  1  0.15711900  0.25000000  0.25000000  1
  N  N0  1  0.85618400  0.35314800  0.63245000  1
  N  N1  1  0.64381600  0.64685200  0.63245000  1
  N  N2  1  0.85618400  0.14685200  0.86755000  1
  N  N3  1  0.64381600  0.85314800  0.86755000  1
  N  N4  1  0.14381600  0.64685200  0.36755000  1
  N  N5  1  0.35618400  0.35314800  0.36755000  1
  N  N6  1  0.14381600  0.85314800  0.13245000  1
  N  N7  1  0.35618400  0.14685200  0.13245000  1
  N  N8  1  0.52165800  0.41130300  0.83332900  1
  N  N9  1  0.97834200  0.58869700  0.83332900  1
  N  N10  1  0.52165800  0.08869700  0.66667100  1
  N  N11  1  0.97834200  0.91130300  0.66667100  1
  N  N12  1  0.47834200  0.58869700  0.16667100  1
  N  N13  1  0.02165800  0.41130300  0.16667100  1
  N  N14  1  0.47834200  0.91130300  0.33332900  1
  N  N15  1  0.02165800  0.08869700  0.33332900  1
loop_
_geom_bond_atom_site_label_1
_geom_bond_atom_site_label_2
_geom_bond_distance
_geom_bond_site_symmetry_2
Cr0 N9 1.856627 1_555
Cr0 N8 1.856627 1_555
Cr0 N1 1.872729 1_555
Cr0 N0 1.872729 1_555
Cr1 N10 1.856627 1_555
Cr1 N11 1.856627 1_545
Cr1 N3 1.872729 1_545
Cr1 N2 1.872729 1_555
Cr2 N12 1.856627 1_555
Cr2 N13 1.856627 1_555
Cr2 N4 1.872729 1_555
Cr2 N5 1.872729 1_555
Cr3 N15 1.856627 1_555
Cr3 N14 1.856627 1_545
Cr3 N6 1.872729 1_545
Cr3 N7 1.872729 1_555
Cr4 N2 1.921807 1_555
Cr4 N0 1.921807 1_555
Cr4 N8 1.959016 1_555
Cr4 N10 1.959016 1_555
Cr5 N3 1.921807 1_555
Cr5 N1 1.921807 1_555
Cr5 N11 1.959016 1_555
Cr5 N9 1.959016 1_555
Cr6 N4 1.921807 1_555
Cr6 N6 1.921807 1_555
Cr6 N12 1.959016 1_555
Cr6 N14 1.959016 1_555
Cr7 N7 1.921807 1_555
Cr7 N5 1.921807 1_555
Cr7 N13 1.959016 1_555
Cr7 N15 1.959016 1_555
N0 Sr5 2.531371 1_655
N0 Sr8 2.722158 1_555
N0 Sr10 2.752031 1_655
N0 Sr7 3.155314 1_655
N0 Sr0 3.159797 1_555
N1 Sr4 2.531371 1_555
N1 Sr8 2.722158 1_555
N1 Sr10 2.752031 1_555
N1 Sr6 3.155314 1_555
N1 Sr1 3.159797 1_555
N2 Sr7 2.531371 1_655
N2 Sr9 2.722158 1_556
N2 Sr11 2.752031 1_655
N2 Sr5 3.155314 1_655
N2 Sr2 3.159797 1_556
N3 Sr6 2.531371 1_555
N3 Sr9 2.722158 1_566
N3 Sr11 2.752031 1_565
N3 Sr4 3.155314 1_555
N3 Sr3 3.159797 1_556
N4 Sr1 2.531371 1_455
N4 Sr10 2.722158 1_555
N4 Sr8 2.752031 1_455
N4 Sr3 3.155314 1_455
N4 Sr4 3.159797 1_555
N5 Sr0 2.531371 1_555
N5 Sr10 2.722158 1_555
N5 Sr8 2.752031 1_555
N5 Sr2 3.155314 1_555
N5 Sr5 3.159797 1_555
N6 Sr3 2.531371 1_455
N6 Sr11 2.722158 1_564
N6 Sr9 2.752031 1_465
N6 Sr1 3.155314 1_455
N6 Sr6 3.159797 1_554
N7 Sr2 2.531371 1_555
N7 Sr11 2.722158 1_554
N7 Sr9 2.752031 1_555
N7 Sr0 3.155314 1_555
N7 Sr7 3.159797 1_554
N8 Sr2 2.557483 1_556
N8 Sr7 2.584648 1_555
N8 Sr6 2.701746 1_555
N8 Sr10 2.912740 1_555
N9 Sr3 2.557483 1_556
N9 Sr6 2.584648 1_655
N9 Sr7 2.701746 1_655
N9 Sr10 2.912740 1_655
N10 Sr0 2.557483 1_555
N10 Sr5 2.584648 1_555
N10 Sr4 2.701746 1_545
N10 Sr11 2.912740 1_555
N11 Sr1 2.557483 1_555
N11 Sr4 2.584648 1_655
N11 Sr5 2.701746 1_665
N11 Sr11 2.912740 1_665
N12 Sr6 2.557483 1_554
N12 Sr3 2.584648 1_555
N12 Sr2 2.701746 1_555
N12 Sr8 2.912740 1_555
N13 Sr7 2.557483 1_554
N13 Sr2 2.584648 1_455
N13 Sr3 2.701746 1_455
N13 Sr8 2.912740 1_455
N14 Sr4 2.557483 1_555
N14 Sr1 2.584648 1_555
N14 Sr0 2.701746 1_565
N14 Sr9 2.912740 1_565
N15 Sr5 2.557483 1_555
N15 Sr0 2.584648 1_455
N15 Sr1 2.701746 1_445
N15 Sr9 2.912740 1_455
