# generated using pymatgen
data_Er2ThOF10
_symmetry_space_group_name_H-M   'P 1'
_cell_length_a   8.43437041
_cell_length_b   8.43437041
_cell_length_c   8.43437041
_cell_angle_alpha   121.97073075
_cell_angle_beta   121.97073075
_cell_angle_gamma   86.61919475
_symmetry_Int_Tables_number   1
_chemical_formula_structural   Er2ThOF10
_chemical_formula_sum   'Er4 Th2 O2 F20'
_cell_volume   410.85427475
_cell_formula_units_Z   2
loop_
 _symmetry_equiv_pos_site_id
 _symmetry_equiv_pos_as_xyz
  1  'x, y, z'
loop_
 _atom_site_type_symbol
 _atom_site_label
 _atom_site_symmetry_multiplicity
 _atom_site_fract_x
 _atom_site_fract_y
 _atom_site_fract_z
 _atom_site_occupancy
  Er  Er0  1  0.24094200  0.75905800  0.00000000  1
  Er  Er1  1  0.24094200  0.24094200  0.48188400  1
  Er  Er2  1  0.75905800  0.24094200  0.00000000  1
  Er  Er3  1  0.75905800  0.75905800  0.51811600  1
  Th  Th0  1  0.75911700  0.75911700  0.00000000  1
  Th  Th1  1  0.24088300  0.24088300  0.00000000  1
  O  O0  1  0.25000000  0.75000000  0.50000000  1
  O  O1  1  0.75000000  0.25000000  0.50000000  1
  F  F0  1  0.11690900  0.89522000  0.22168900  1
  F  F1  1  0.10478000  0.32647000  0.22168900  1
  F  F2  1  0.10478000  0.88309100  0.77831100  1
  F  F3  1  0.67353000  0.89522000  0.77831100  1
  F  F4  1  0.88309100  0.10478000  0.77831100  1
  F  F5  1  0.89522000  0.67353000  0.77831100  1
  F  F6  1  0.89522000  0.11690900  0.22168900  1
  F  F7  1  0.32647000  0.10478000  0.22168900  1
  F  F8  1  0.18420100  0.50000000  0.68420100  1
  F  F9  1  0.49375700  0.49375700  0.66490500  1
  F  F10  1  0.49375700  0.82885200  0.00000000  1
  F  F11  1  0.50000000  0.18420100  0.68420100  1
  F  F12  1  0.17114800  0.17114800  0.66490500  1
  F  F13  1  0.50624300  0.17114800  0.00000000  1
  F  F14  1  0.50000000  0.81579900  0.31579900  1
  F  F15  1  0.50624300  0.50624300  0.33509500  1
  F  F16  1  0.17114800  0.50624300  0.00000000  1
  F  F17  1  0.81579900  0.50000000  0.31579900  1
  F  F18  1  0.82885200  0.82885200  0.33509500  1
  F  F19  1  0.82885200  0.49375700  0.00000000  1
loop_
_geom_bond_atom_site_label_1
_geom_bond_atom_site_label_2
_geom_bond_distance
_geom_bond_site_symmetry_2
Er0 F8 2.169832 1_554
Er0 F14 2.169832 1_555
Er0 F10 2.245313 1_555
Er0 F16 2.245313 1_555
Er0 F5 2.359076 1_454
Er0 F7 2.359076 1_565
Er0 F2 2.359076 1_554
Er0 F0 2.359076 1_555
Er1 F8 2.169832 1_555
Er1 F11 2.169832 1_555
Er1 F12 2.245313 1_555
Er1 F9 2.245313 1_555
Er1 F0 2.359076 1_545
Er1 F6 2.359076 1_455
Er1 F7 2.359083 1_555
Er1 F1 2.359083 1_555
Er2 F11 2.169832 1_554
Er2 F17 2.169832 1_555
Er2 F19 2.245313 1_555
Er2 F13 2.245313 1_555
Er2 F3 2.359076 1_544
Er2 F1 2.359076 1_655
Er2 F4 2.359076 1_554
Er2 F6 2.359076 1_555
Er3 F17 2.169832 1_555
Er3 F14 2.169832 1_555
Er3 F18 2.245313 1_555
Er3 F15 2.245313 1_555
Er3 F4 2.359076 1_565
Er3 F2 2.359076 1_655
Er3 F5 2.359083 1_555
Er3 F3 2.359083 1_555
F0 Th0 2.465963 1_455
F1 Th1 2.465962 1_555
F2 Th1 2.465963 1_566
F3 Th0 2.465962 1_556
F4 Th1 2.465963 1_656
F5 Th0 2.465962 1_556
F6 Th0 2.465963 1_545
F7 Th1 2.465962 1_555
F9 Th0 2.280345 1_556
F10 Th0 2.280345 1_555
F12 Th1 2.280345 1_556
F13 Th1 2.280345 1_555
F15 Th1 2.280345 1_555
F16 Th1 2.280345 1_555
F18 Th0 2.280345 1_555
F19 Th0 2.280345 1_555
