# generated using pymatgen
data_Li3MnV(PO4)3
_symmetry_space_group_name_H-M   'P 1'
_cell_length_a   8.76520400
_cell_length_b   8.79612632
_cell_length_c   14.47678899
_cell_angle_alpha   73.40723824
_cell_angle_beta   74.42979936
_cell_angle_gamma   60.99298166
_symmetry_Int_Tables_number   1
_chemical_formula_structural   Li3MnV(PO4)3
_chemical_formula_sum   'Li12 Mn4 V4 P12 O48'
_cell_volume   924.18818424
_cell_formula_units_Z   4
loop_
 _symmetry_equiv_pos_site_id
 _symmetry_equiv_pos_as_xyz
  1  'x, y, z'
loop_
 _atom_site_type_symbol
 _atom_site_label
 _atom_site_symmetry_multiplicity
 _atom_site_fract_x
 _atom_site_fract_y
 _atom_site_fract_z
 _atom_site_occupancy
  Li  Li0  1  0.14143100  0.01266800  0.11244700  1
  Li  Li1  1  0.50309400  0.99644900  0.99848900  1
  Li  Li2  1  0.23349700  0.10779900  0.63714200  1
  Li  Li3  1  0.75107600  0.25101300  0.24977600  1
  Li  Li4  1  0.35867000  0.48737600  0.38783300  1
  Li  Li5  1  0.26488800  0.39062000  0.86214200  1
  Li  Li6  1  0.73572100  0.60709900  0.13593600  1
  Li  Li7  1  0.64022200  0.51442000  0.61189700  1
  Li  Li8  1  0.24660600  0.75214100  0.74861600  1
  Li  Li9  1  0.00052300  0.50145400  0.49972800  1
  Li  Li10  1  0.76637000  0.89193400  0.36343400  1
  Li  Li11  1  0.85650000  0.98558800  0.88689800  1
  Mn  Mn0  1  0.57537400  0.07322200  0.78443000  1
  Mn  Mn1  1  0.67838800  0.17286900  0.46488300  1
  Mn  Mn2  1  0.82312200  0.32532200  0.03520400  1
  Mn  Mn3  1  0.32027200  0.82906000  0.53463900  1
  V  V0  1  0.07725400  0.56829900  0.28682300  1
  V  V1  1  0.18405400  0.67230800  0.96243200  1
  V  V2  1  0.92138400  0.43333400  0.71324800  1
  V  V3  1  0.42515500  0.93022500  0.21282000  1
  P  P0  1  0.13253700  0.33059500  0.11781000  1
  P  P1  1  0.36750300  0.16774100  0.38291600  1
  P  P2  1  0.18031900  0.07258800  0.87351600  1
  P  P3  1  0.91344900  0.11922600  0.63294000  1
  P  P4  1  0.31794900  0.43441700  0.62295500  1
  P  P5  1  0.41880500  0.61742900  0.13355000  1
  P  P6  1  0.58272100  0.38098400  0.86852200  1
  P  P7  1  0.67775900  0.57070300  0.37623300  1
  P  P8  1  0.08422100  0.88066100  0.36784700  1
  P  P9  1  0.82731200  0.92497300  0.12287200  1
  P  P10  1  0.63068900  0.83440700  0.61814800  1
  P  P11  1  0.86706100  0.66672600  0.88328500  1
  O  O0  1  0.28225300  0.14064400  0.11487900  1
  O  O1  1  0.38792600  0.08748900  0.29789400  1
  O  O2  1  0.32917900  0.05747900  0.48235800  1
  O  O3  1  0.16719200  0.44270300  0.01909800  1
  O  O4  1  0.11334200  0.41001100  0.20320000  1
  O  O5  1  0.81658400  0.10646400  0.12561800  1
  O  O6  1  0.10382500  0.19701500  0.78062700  1
  O  O7  1  0.54757000  0.17909000  0.36867800  1
  O  O8  1  0.06830600  0.13751800  0.96855300  1
  O  O9  1  0.89609700  0.02957100  0.35902100  1
  O  O10  1  0.21930100  0.35773300  0.38601500  1
  O  O11  1  0.36482900  0.05996500  0.87469600  1
  O  O12  1  0.13347500  0.45022100  0.62036500  1
  O  O13  1  0.83638200  0.13190700  0.54677800  1
  O  O14  1  0.34208700  0.63010100  0.04707500  1
  O  O15  1  0.43589800  0.36344500  0.53036800  1
  O  O16  1  0.79934300  0.08397000  0.73157600  1
  O  O17  1  0.60650800  0.46788700  0.14243500  1
  O  O18  1  0.38736000  0.31680600  0.71845700  1
  O  O19  1  0.30190800  0.58707200  0.23102600  1
  O  O20  1  0.95371100  0.31648600  0.13312600  1
  O  O21  1  0.57119100  0.20137700  0.88394900  1
  O  O22  1  0.68840000  0.38981200  0.37199100  1
  O  O23  1  0.07458400  0.69997500  0.38579700  1
  O  O24  1  0.92048400  0.30075300  0.61616700  1
  O  O25  1  0.30680500  0.61680300  0.62578500  1
  O  O26  1  0.42778400  0.79851000  0.11470200  1
  O  O27  1  0.04791400  0.67591300  0.86604600  1
  O  O28  1  0.69336100  0.41622800  0.77015900  1
  O  O29  1  0.60443500  0.69453200  0.28213500  1
  O  O30  1  0.39244800  0.53101200  0.86404000  1
  O  O31  1  0.20126800  0.91074800  0.27035700  1
  O  O32  1  0.56279400  0.63871900  0.47014200  1
  O  O33  1  0.66326400  0.36144700  0.95490600  1
  O  O34  1  0.16017700  0.86915700  0.45451600  1
  O  O35  1  0.86291600  0.55380100  0.37767700  1
  O  O36  1  0.64266900  0.94230700  0.12031000  1
  O  O37  1  0.77856500  0.64436300  0.61491800  1
  O  O38  1  0.10193800  0.97185800  0.64180200  1
  O  O39  1  0.94674500  0.85311600  0.03003600  1
  O  O40  1  0.45095100  0.82242400  0.63225800  1
  O  O41  1  0.89757800  0.80430600  0.21807100  1
  O  O42  1  0.19555800  0.89012500  0.86958500  1
  O  O43  1  0.87967200  0.58926100  0.79845900  1
  O  O44  1  0.83274100  0.55193500  0.98248800  1
  O  O45  1  0.66836500  0.94459600  0.51868700  1
  O  O46  1  0.61063100  0.91486500  0.70334100  1
  O  O47  1  0.71975800  0.85482600  0.89042200  1
loop_
_geom_bond_atom_site_label_1
_geom_bond_atom_site_label_2
_geom_bond_distance
_geom_bond_site_symmetry_2
Li0 O0 2.045858 1_555
Li0 O8 2.164211 1_554
Li0 O26 2.296257 1_545
Li0 O31 2.306919 1_545
Li0 O20 2.422135 1_455
Li0 O5 2.518835 1_455
Li1 O47 2.197654 1_555
Li1 O11 2.220372 1_565
Li1 O36 2.224239 1_556
Li1 O26 2.267836 1_556
Li1 O21 2.271587 1_565
Li1 O0 2.298547 1_566
Li2 O38 2.003387 1_545
Li2 O6 2.240755 1_555
Li2 O2 2.262286 1_555
Li2 O40 2.308218 1_545
Li2 O24 2.477313 1_455
Li2 O12 2.652394 1_555
Li3 O17 2.163158 1_555
Li3 O9 2.197632 1_555
Li3 O22 2.232524 1_555
Li3 O20 2.272552 1_555
Li3 O5 2.284769 1_555
Li3 O7 2.317150 1_555
Li4 O10 2.044221 1_555
Li4 O15 2.157284 1_555
Li4 O23 2.278211 1_555
Li4 O19 2.283846 1_555
Li4 O7 2.449560 1_555
Li4 O22 2.548169 1_555
Li5 O30 2.037358 1_555
Li5 O18 2.190295 1_555
Li5 O3 2.296880 1_556
Li5 O27 2.304838 1_555
Li5 O21 2.428852 1_555
Li5 O11 2.563645 1_555
Li6 O17 2.003268 1_555
Li6 O44 2.257142 1_554
Li6 O29 2.271361 1_555
Li6 O20 2.338315 1_555
Li6 O26 2.440700 1_555
Li6 O36 2.606917 1_555
Li7 O37 2.044498 1_555
Li7 O32 2.148005 1_555
Li7 O24 2.260149 1_555
Li7 O28 2.294499 1_555
Li7 O40 2.452283 1_555
Li7 O25 2.574442 1_555
Li8 O38 2.168697 1_555
Li8 O25 2.225689 1_555
Li8 O42 2.237587 1_555
Li8 O30 2.255790 1_555
Li8 O27 2.294513 1_555
Li8 O40 2.299403 1_555
Li9 O12 2.178284 1_555
Li9 O35 2.220267 1_455
Li9 O23 2.251821 1_555
Li9 O10 2.264562 1_555
Li9 O37 2.286863 1_455
Li9 O24 2.305849 1_455
Li10 O9 2.003672 1_565
Li10 O41 2.261119 1_555
Li10 O45 2.275142 1_555
Li10 O7 2.323170 1_565
Li10 O23 2.446958 1_655
Li10 O35 2.628166 1_555
Li11 O47 2.008184 1_555
Li11 O39 2.210065 1_556
Li11 O16 2.264697 1_565
Li11 O21 2.294787 1_565
Li11 O27 2.468067 1_655
Li11 O42 2.626836 1_655
Mn0 O46 1.932740 1_545
Mn0 O16 1.944375 1_555
Mn0 O11 1.988474 1_555
Mn0 O21 2.051063 1_555
Mn0 O18 2.114357 1_555
Mn0 O47 2.155828 1_545
Mn1 O13 1.899141 1_555
Mn1 O45 1.971612 1_545
Mn1 O7 2.002612 1_555
Mn1 O22 2.022622 1_555
Mn1 O15 2.144029 1_555
Mn1 O9 2.186202 1_555
Mn2 O33 1.909775 1_554
Mn2 O44 1.955111 1_554
Mn2 O20 2.011890 1_555
Mn2 O5 2.012493 1_555
Mn2 O8 2.152347 1_654
Mn2 O17 2.192652 1_555
Mn3 O34 1.897135 1_555
Mn3 O2 1.966652 1_565
Mn3 O25 1.990968 1_555
Mn3 O40 2.017328 1_555
Mn3 O32 2.137616 1_555
Mn3 O38 2.198796 1_555
O0 P0 1.549101 1_555
O0 V3 2.052118 1_545
O1 P1 1.516816 1_555
O1 V3 1.963765 1_545
O2 P1 1.544305 1_555
O3 P0 1.536055 1_555
O3 V1 2.012929 1_554
O4 P0 1.520514 1_555
O4 V0 1.958089 1_555
O5 P9 1.564488 1_545
O6 P2 1.545150 1_555
O6 V2 2.070063 1_455
O7 P1 1.584287 1_555
O8 P2 1.537158 1_555
O9 P8 1.540727 1_645
O10 P1 1.545466 1_555
O10 V0 2.060832 1_555
O11 P2 1.570914 1_555
O12 P4 1.564237 1_555
O12 V2 2.024324 1_455
O13 P3 1.524608 1_555
O14 P5 1.526876 1_555
O14 V1 1.926324 1_554
O15 P4 1.537266 1_555
O16 P3 1.554572 1_555
O17 P5 1.540054 1_555
O18 P4 1.541468 1_555
O19 P5 1.544799 1_555
O19 V0 1.985581 1_555
O20 P0 1.583610 1_655
O21 P6 1.580259 1_555
O22 P7 1.566206 1_555
O23 P8 1.575815 1_555
O23 V0 2.073305 1_555
O24 P3 1.574273 1_555
O24 V2 2.070327 1_555
O25 P4 1.571107 1_555
O26 P5 1.574649 1_555
O26 V3 2.063230 1_555
O27 P11 1.575453 1_455
O27 V1 2.050340 1_555
O28 P6 1.537012 1_555
O28 V2 2.008224 1_555
O29 P7 1.548805 1_555
O29 V3 2.067168 1_555
O30 P6 1.549804 1_555
O30 V1 2.079118 1_555
O31 P8 1.545045 1_555
O31 V3 1.985266 1_555
O32 P7 1.538187 1_555
O33 P6 1.524924 1_555
O34 P8 1.529157 1_555
O35 P7 1.561698 1_555
O35 V0 2.021337 1_655
O36 P9 1.560008 1_555
O36 V3 2.045559 1_555
O37 P10 1.545115 1_555
O37 V2 2.057417 1_555
O38 P3 1.538876 1_465
O39 P9 1.545899 1_555
O39 V1 2.098013 1_654
O40 P10 1.584562 1_555
O41 P9 1.546447 1_555
O41 V0 2.066672 1_655
O42 P2 1.561145 1_565
O42 V1 2.032602 1_555
O43 P11 1.522005 1_555
O43 V2 1.942786 1_555
O44 P11 1.551444 1_555
O45 P10 1.542663 1_555
O46 P10 1.521280 1_555
O47 P11 1.539307 1_555
