# generated using pymatgen
data_Y(Co5Mo)2
_symmetry_space_group_name_H-M   'P 1'
_cell_length_a   4.67730100
_cell_length_b   6.41479859
_cell_length_c   6.41479859
_cell_angle_alpha   97.58647177
_cell_angle_beta   111.38118814
_cell_angle_gamma   68.61881186
_symmetry_Int_Tables_number   1
_chemical_formula_structural   Y(Co5Mo)2
_chemical_formula_sum   'Y1 Co10 Mo2'
_cell_volume   166.88768233
_cell_formula_units_Z   1
loop_
 _symmetry_equiv_pos_site_id
 _symmetry_equiv_pos_as_xyz
  1  'x, y, z'
loop_
 _atom_site_type_symbol
 _atom_site_label
 _atom_site_symmetry_multiplicity
 _atom_site_fract_x
 _atom_site_fract_y
 _atom_site_fract_z
 _atom_site_occupancy
  Y  Y0  1  0.00000000  0.00000000  0.00000000  1
  Co  Co0  1  0.71345200  0.78654800  0.21345200  1
  Co  Co1  1  0.28654800  0.21345200  0.78654800  1
  Co  Co2  1  0.50000000  0.77917800  0.77917800  1
  Co  Co3  1  0.50000000  0.22082200  0.22082200  1
  Co  Co4  1  0.50000000  0.00000000  0.50000000  1
  Co  Co5  1  0.00000000  0.00000000  0.50000000  1
  Co  Co6  1  0.50000000  0.50000000  0.00000000  1
  Co  Co7  1  0.00000000  0.50000000  0.00000000  1
  Co  Co8  1  0.64063600  0.35936400  0.64063600  1
  Co  Co9  1  0.35936400  0.64063600  0.35936400  1
  Mo  Mo0  1  0.00000000  0.35813100  0.35813100  1
  Mo  Mo1  1  0.00000000  0.64186900  0.64186900  1
loop_
_geom_bond_atom_site_label_1
_geom_bond_atom_site_label_2
_geom_bond_distance
_geom_bond_site_symmetry_2
Co0 Co6 2.434577 1_555
Co0 Co4 2.434577 1_565
Co0 Co7 2.434577 1_655
Co0 Co5 2.434577 1_665
Co0 Co2 2.594469 1_554
Co0 Co3 2.594469 1_565
Co0 Co9 2.643297 1_555
Co0 Co9 2.643297 1_655
Co0 Mo0 2.700210 1_655
Co0 Mo1 2.700210 1_655
Co0 Y0 2.952502 1_665
Co0 Y0 2.952502 1_565
Co1 Co4 2.434577 1_555
Co1 Co6 2.434577 1_556
Co1 Co5 2.434577 1_555
Co1 Co7 2.434577 1_556
Co1 Co2 2.594469 1_545
Co1 Co3 2.594469 1_556
Co1 Co8 2.643297 1_555
Co1 Co8 2.643297 1_455
Co1 Mo0 2.700210 1_555
Co1 Mo1 2.700210 1_555
Co1 Y0 2.952502 1_556
Co1 Y0 2.952502 1_656
Co2 Co6 2.425614 1_556
Co2 Co4 2.425614 1_565
Co2 Co7 2.425615 1_656
Co2 Co5 2.425615 1_565
Co2 Mo1 2.610763 1_555
Co2 Mo1 2.610763 1_655
Co2 Co8 2.641504 1_555
Co2 Co9 2.641504 1_555
Co2 Y0 2.992085 1_566
Co2 Y0 2.992085 1_666
Co3 Co6 2.425614 1_555
Co3 Co4 2.425614 1_555
Co3 Co7 2.425615 1_555
Co3 Co5 2.425615 1_655
Co3 Mo0 2.610763 1_555
Co3 Mo0 2.610763 1_655
Co3 Co8 2.641504 1_555
Co3 Co9 2.641504 1_555
Co3 Y0 2.992085 1_655
Co3 Y0 2.992085 1_555
Co4 Co5 2.338650 1_655
Co4 Co5 2.338650 1_555
Co4 Mo0 2.580314 1_555
Co4 Mo1 2.580314 1_645
Co4 Co8 2.585455 1_555
Co4 Co9 2.585455 1_545
Co4 Y0 3.207399 1_656
Co4 Y0 3.207399 1_555
Co5 Mo1 2.580313 1_545
Co5 Mo0 2.580313 1_555
Co5 Co8 2.585455 1_455
Co5 Co9 2.585455 1_545
Co5 Y0 3.207399 1_556
Co5 Y0 3.207399 1_555
Co6 Co7 2.338650 1_555
Co6 Co7 2.338650 1_655
Co6 Mo0 2.580314 1_655
Co6 Mo1 2.580314 1_554
Co6 Co9 2.585455 1_555
Co6 Co8 2.585455 1_554
Co6 Y0 3.207399 1_565
Co6 Y0 3.207399 1_655
Co7 Mo0 2.580313 1_555
Co7 Mo1 2.580313 1_554
Co7 Co9 2.585455 1_555
Co7 Co8 2.585455 1_454
Co7 Y0 3.207399 1_565
Co7 Y0 3.207399 1_555
Co8 Co9 2.374834 1_555
Co8 Mo0 2.883918 1_655
Co8 Mo1 2.883918 1_655
Co8 Mo0 2.883918 1_555
Co8 Mo1 2.883918 1_555
Co8 Y0 3.034179 1_656
Co9 Mo0 2.883918 1_555
Co9 Mo1 2.883918 1_555
Co9 Mo0 2.883918 1_655
Co9 Mo1 2.883918 1_655
Co9 Y0 3.034179 1_565
Mo0 Mo1 2.398114 1_555
Mo0 Y0 3.026873 1_555
Mo1 Y0 3.026873 1_566
