# generated using pymatgen
data_Lu3ScV4O12
_symmetry_space_group_name_H-M   'P 1'
_cell_length_a   7.60590500
_cell_length_b   5.22872200
_cell_length_c   5.60819352
_cell_angle_alpha   88.88888216
_cell_angle_beta   90.00000000
_cell_angle_gamma   90.00000000
_symmetry_Int_Tables_number   1
_chemical_formula_structural   Lu3ScV4O12
_chemical_formula_sum   'Lu3 Sc1 V4 O12'
_cell_volume   222.99122375
_cell_formula_units_Z   1
loop_
 _symmetry_equiv_pos_site_id
 _symmetry_equiv_pos_as_xyz
  1  'x, y, z'
loop_
 _atom_site_type_symbol
 _atom_site_label
 _atom_site_symmetry_multiplicity
 _atom_site_fract_x
 _atom_site_fract_y
 _atom_site_fract_z
 _atom_site_occupancy
  Lu  Lu0  1  0.00000000  0.02553100  0.92379400  1
  Lu  Lu1  1  0.50000000  0.51924200  0.56808300  1
  Lu  Lu2  1  0.50000000  0.97275700  0.07649800  1
  Sc  Sc0  1  0.00000000  0.48309400  0.43625100  1
  V  V0  1  0.24804900  0.50041200  0.00167700  1
  V  V1  1  0.75182300  0.99914900  0.49834700  1
  V  V2  1  0.75195100  0.50041200  0.00167700  1
  V  V3  1  0.24817700  0.99914900  0.49834700  1
  O  O0  1  0.18397600  0.18729900  0.18835200  1
  O  O1  1  0.82116000  0.31482600  0.68216000  1
  O  O2  1  0.68666800  0.81364000  0.81160900  1
  O  O3  1  0.31726400  0.69133200  0.30996300  1
  O  O4  1  0.31333200  0.81364000  0.81160900  1
  O  O5  1  0.68273600  0.69133200  0.30996300  1
  O  O6  1  0.81602400  0.18729900  0.18835200  1
  O  O7  1  0.17884000  0.31482600  0.68216000  1
  O  O8  1  0.00000000  0.62929400  0.06473600  1
  O  O9  1  0.00000000  0.85459300  0.55301100  1
  O  O10  1  0.50000000  0.37066100  0.94594800  1
  O  O11  1  0.50000000  0.13151500  0.44746400  1
loop_
_geom_bond_atom_site_label_1
_geom_bond_atom_site_label_2
_geom_bond_distance
_geom_bond_site_symmetry_2
Lu0 O8 2.203106 1_546
Lu0 O6 2.218899 1_456
Lu0 O0 2.218899 1_556
Lu0 O9 2.279240 1_545
Lu0 O1 2.428008 1_455
Lu0 O7 2.428008 1_555
Lu0 O4 2.707373 1_545
Lu0 O2 2.707373 1_445
Lu1 O11 2.149602 1_555
Lu1 O3 2.187783 1_555
Lu1 O5 2.187783 1_555
Lu1 O10 2.242869 1_555
Lu1 O2 2.516362 1_555
Lu1 O4 2.516362 1_555
Lu1 O7 2.737158 1_555
Lu1 O1 2.737158 1_555
Lu2 O10 2.192161 1_564
Lu2 O4 2.227723 1_554
Lu2 O2 2.227723 1_554
Lu2 O11 2.254842 1_565
Lu2 O5 2.395126 1_555
Lu2 O3 2.395126 1_555
Lu2 O0 2.730698 1_565
Lu2 O6 2.730698 1_565
O0 V0 1.986807 1_555
O0 V3 2.040188 1_545
O0 Sc0 2.523162 1_555
O1 V1 2.032540 1_545
O1 Sc0 2.116417 1_655
O1 V2 2.120641 1_556
O2 V2 1.999349 1_556
O2 V1 2.051051 1_555
O3 V3 2.012138 1_555
O3 V0 2.080819 1_555
O3 Sc0 2.734993 1_555
O4 V0 1.999349 1_556
O4 V3 2.051051 1_555
O5 V1 2.012138 1_555
O5 V2 2.080819 1_555
O5 Sc0 2.734993 1_655
O6 V2 1.986807 1_555
O6 V1 2.040188 1_545
O6 Sc0 2.523162 1_655
O7 V3 2.032540 1_545
O7 Sc0 2.116417 1_555
O7 V0 2.120641 1_556
O8 V2 2.036623 1_455
O8 V0 2.036623 1_555
O8 Sc0 2.205377 1_555
O9 V3 2.054110 1_555
O9 V1 2.054110 1_455
O9 Sc0 2.061863 1_555
O10 V0 2.058747 1_556
O10 V2 2.058747 1_556
O11 V1 2.054584 1_545
O11 V3 2.054584 1_545
