# generated using pymatgen
data_TiCrCuS4
_symmetry_space_group_name_H-M   'P 1'
_cell_length_a   3.44633200
_cell_length_b   5.91474100
_cell_length_c   11.51215628
_cell_angle_alpha   89.24582629
_cell_angle_beta   90.00000000
_cell_angle_gamma   90.00000000
_symmetry_Int_Tables_number   1
_chemical_formula_structural   TiCrCuS4
_chemical_formula_sum   'Ti2 Cr2 Cu2 S8'
_cell_volume   234.64532042
_cell_formula_units_Z   2
loop_
 _symmetry_equiv_pos_site_id
 _symmetry_equiv_pos_as_xyz
  1  'x, y, z'
loop_
 _atom_site_type_symbol
 _atom_site_label
 _atom_site_symmetry_multiplicity
 _atom_site_fract_x
 _atom_site_fract_y
 _atom_site_fract_z
 _atom_site_occupancy
  Ti  Ti0  1  0.50000000  0.53074900  0.25531700  1
  Ti  Ti1  1  0.50000000  0.46925100  0.74468300  1
  Cr  Cr0  1  0.00000000  0.01953100  0.75651300  1
  Cr  Cr1  1  0.00000000  0.98046900  0.24348700  1
  Cu  Cu0  1  0.50000000  0.50000000  0.00000000  1
  Cu  Cu1  1  0.00000000  0.00000000  0.50000000  1
  S  S0  1  0.50000000  0.16483400  0.87771300  1
  S  S1  1  0.50000000  0.83516600  0.12228700  1
  S  S2  1  0.00000000  0.66921800  0.38138000  1
  S  S3  1  0.00000000  0.33078200  0.61862000  1
  S  S4  1  0.00000000  0.66609300  0.86445500  1
  S  S5  1  0.00000000  0.33390700  0.13554500  1
  S  S6  1  0.50000000  0.15438300  0.36008500  1
  S  S7  1  0.50000000  0.84561700  0.63991500  1
loop_
_geom_bond_atom_site_label_1
_geom_bond_atom_site_label_2
_geom_bond_distance
_geom_bond_site_symmetry_2
Cr0 S0 2.384591 1_555
Cr0 S0 2.384591 1_455
Cr0 S3 2.414999 1_555
Cr0 S4 2.417840 1_545
Cr0 S7 2.421887 1_545
Cr0 S7 2.421887 1_445
Cr1 S1 2.384591 1_455
Cr1 S1 2.384591 1_555
Cr1 S2 2.414999 1_555
Cr1 S5 2.417840 1_565
Cr1 S6 2.421887 1_565
Cr1 S6 2.421887 1_465
Cu0 S1 2.446492 1_555
Cu0 S0 2.446492 1_554
Cu0 S5 2.515740 1_655
Cu0 S5 2.515740 1_555
Cu0 S4 2.515740 1_654
Cu0 S4 2.515740 1_554
Cu1 S3 2.400619 1_555
Cu1 S2 2.400619 1_545
Cu1 S6 2.521672 1_555
Cu1 S6 2.521672 1_455
Cu1 S7 2.521672 1_445
Cu1 S7 2.521672 1_545
S0 Ti1 2.348352 1_555
S1 Ti0 2.348352 1_555
S2 Ti0 2.403646 1_555
S2 Ti0 2.403646 1_455
S3 Ti1 2.403646 1_555
S3 Ti1 2.403646 1_455
S4 Ti1 2.503651 1_455
S4 Ti1 2.503651 1_555
S5 Ti0 2.503651 1_555
S5 Ti0 2.503651 1_455
S6 Ti0 2.517849 1_555
S7 Ti1 2.517849 1_555
