# generated using pymatgen
data_Ti2As4W3
_symmetry_space_group_name_H-M   'P 1'
_cell_length_a   3.36294609
_cell_length_b   14.10465889
_cell_length_c   10.27788732
_cell_angle_alpha   43.14942011
_cell_angle_beta   70.89204719
_cell_angle_gamma   76.20056798
_symmetry_Int_Tables_number   1
_chemical_formula_structural   Ti2As4W3
_chemical_formula_sum   'Ti4 As8 W6'
_cell_volume   315.04200141
_cell_formula_units_Z   2
loop_
 _symmetry_equiv_pos_site_id
 _symmetry_equiv_pos_as_xyz
  1  'x, y, z'
loop_
 _atom_site_type_symbol
 _atom_site_label
 _atom_site_symmetry_multiplicity
 _atom_site_fract_x
 _atom_site_fract_y
 _atom_site_fract_z
 _atom_site_occupancy
  Ti  Ti0  1  0.31233200  0.37589700  0.31178900  1
  Ti  Ti1  1  0.37688800  0.19024500  0.93303300  1
  Ti  Ti2  1  0.62311200  0.80975500  0.06696700  1
  Ti  Ti3  1  0.68766800  0.62410300  0.68821100  1
  As  As0  1  0.05943800  0.28461700  0.65572400  1
  As  As1  1  0.05458900  0.78543700  0.66017400  1
  As  As2  1  0.28094400  0.44153800  0.77740400  1
  As  As3  1  0.71783800  0.05394300  0.22809600  1
  As  As4  1  0.28216200  0.94605700  0.77190400  1
  As  As5  1  0.71905600  0.55846200  0.22259600  1
  As  As6  1  0.94541100  0.21456300  0.33982600  1
  As  As7  1  0.94056200  0.71538300  0.34427600  1
  W  W0  1  0.00000000  0.00000000  0.00000000  1
  W  W1  1  0.62664800  0.30046500  0.07309500  1
  W  W2  1  0.30208600  0.87249200  0.32489900  1
  W  W3  1  0.69791400  0.12750800  0.67510100  1
  W  W4  1  0.37335200  0.69953500  0.92690500  1
  W  W5  1  0.00000000  0.50000000  0.00000000  1
loop_
_geom_bond_atom_site_label_1
_geom_bond_atom_site_label_2
_geom_bond_distance
_geom_bond_site_symmetry_2
Ti0 W5 2.752380 1_655
Ti0 W5 2.752824 1_555
Ti1 W0 2.762628 1_656
Ti1 W0 2.763498 1_556
Ti2 W0 2.762628 1_565
Ti2 W0 2.763498 1_665
Ti3 W5 2.752380 1_556
Ti3 W5 2.752824 1_656
As0 Ti0 2.605750 1_555
As0 Ti1 2.608181 1_455
As0 Ti1 2.610234 1_555
As0 W3 2.628893 1_455
As0 W3 2.631858 1_555
As0 W0 2.805170 1_556
As1 W2 2.551606 1_555
As1 W4 2.567170 1_555
As1 W4 2.568591 1_455
As1 Ti3 2.632034 1_555
As1 Ti3 2.633195 1_455
As1 W5 2.802885 1_556
As2 Ti1 2.597163 1_555
As2 Ti3 2.598827 1_455
As2 Ti3 2.599390 1_555
As2 W1 2.631319 1_456
As2 W1 2.633030 1_556
As2 W5 2.787934 1_556
As3 W1 2.539830 1_555
As3 W2 2.562395 1_645
As3 W2 2.564289 1_545
As3 Ti1 2.631599 1_554
As3 Ti1 2.632506 1_654
As3 W0 2.788744 1_655
As4 W4 2.539830 1_555
As4 W3 2.562395 1_465
As4 W3 2.564289 1_565
As4 Ti2 2.631599 1_556
As4 Ti2 2.632506 1_456
As4 W0 2.788744 1_566
As5 Ti2 2.597163 1_555
As5 Ti0 2.598827 1_655
As5 Ti0 2.599390 1_555
As5 W4 2.631319 1_654
As5 W4 2.633030 1_554
As5 W5 2.787934 1_655
As6 W3 2.551606 1_555
As6 W1 2.567170 1_555
As6 W1 2.568591 1_655
As6 Ti0 2.632034 1_555
As6 Ti0 2.633195 1_655
As6 W5 2.802885 1_655
As7 Ti3 2.605750 1_555
As7 Ti2 2.608181 1_655
As7 Ti2 2.610234 1_555
As7 W2 2.628893 1_655
As7 W2 2.631858 1_555
As7 W0 2.805170 1_665
W0 W2 2.829078 1_545
W0 W3 2.829078 1_454
W0 W3 2.830790 1_554
W0 W2 2.830790 1_445
