# generated using pymatgen
data_Ho3Sc
_symmetry_space_group_name_H-M   'P 1'
_cell_length_a   7.07458515
_cell_length_b   7.07458515
_cell_length_c   5.46551961
_cell_angle_alpha   90.00000000
_cell_angle_beta   90.00000000
_cell_angle_gamma   120.00000928
_symmetry_Int_Tables_number   1
_chemical_formula_structural   Ho3Sc
_chemical_formula_sum   'Ho6 Sc2'
_cell_volume   236.89942387
_cell_formula_units_Z   2
loop_
 _symmetry_equiv_pos_site_id
 _symmetry_equiv_pos_as_xyz
  1  'x, y, z'
loop_
 _atom_site_type_symbol
 _atom_site_label
 _atom_site_symmetry_multiplicity
 _atom_site_fract_x
 _atom_site_fract_y
 _atom_site_fract_z
 _atom_site_occupancy
  Ho  Ho0  1  0.16914133  0.33828365  0.25000000  1
  Ho  Ho1  1  0.66171635  0.83085867  0.25000000  1
  Ho  Ho2  1  0.16914133  0.83085867  0.25000000  1
  Ho  Ho3  1  0.83085867  0.66171635  0.75000000  1
  Ho  Ho4  1  0.33828365  0.16914133  0.75000000  1
  Ho  Ho5  1  0.83085867  0.16914133  0.75000000  1
  Sc  Sc0  1  0.33333300  0.66666700  0.75000000  1
  Sc  Sc1  1  0.66666700  0.33333300  0.25000000  1
loop_
_geom_bond_atom_site_label_1
_geom_bond_atom_site_label_2
_geom_bond_distance
_geom_bond_site_symmetry_2
Ho0 Sc0 3.393499 1_554
Ho0 Sc0 3.393499 1_555
Ho0 Ho5 3.429805 1_455
Ho0 Ho5 3.429805 1_454
Ho0 Ho4 3.429813 1_555
Ho0 Ho4 3.429813 1_554
Ho0 Ho1 3.484763 1_555
Ho0 Ho2 3.484764 1_555
Ho0 Sc1 3.537416 1_455
Ho0 Sc1 3.537430 1_555
Ho0 Ho1 3.589821 1_445
Ho0 Ho2 3.589821 1_545
Ho1 Sc0 3.393499 1_554
Ho1 Sc0 3.393499 1_555
Ho1 Ho5 3.429805 1_564
Ho1 Ho5 3.429805 1_565
Ho1 Ho3 3.429813 1_554
Ho1 Ho3 3.429813 1_555
Ho1 Ho2 3.484764 1_555
Ho1 Sc1 3.537416 1_565
Ho1 Sc1 3.537430 1_555
Ho1 Ho2 3.589821 1_655
Ho2 Sc0 3.393499 1_555
Ho2 Sc0 3.393499 1_554
Ho2 Ho3 3.429805 1_454
Ho2 Ho4 3.429805 1_564
Ho2 Ho3 3.429805 1_455
Ho2 Ho4 3.429805 1_565
Ho2 Sc1 3.537422 1_455
Ho2 Sc1 3.537422 1_565
Ho3 Sc1 3.393499 1_556
Ho3 Sc1 3.393499 1_555
Ho3 Ho4 3.484763 1_555
Ho3 Ho5 3.484764 1_555
Ho3 Sc0 3.537416 1_655
Ho3 Sc0 3.537430 1_555
Ho3 Ho4 3.589821 1_665
Ho3 Ho5 3.589821 1_565
Ho4 Sc1 3.393499 1_556
Ho4 Sc1 3.393499 1_555
Ho4 Ho5 3.484764 1_555
Ho4 Sc0 3.537416 1_545
Ho4 Sc0 3.537430 1_555
Ho4 Ho5 3.589821 1_455
Ho5 Sc1 3.393499 1_556
Ho5 Sc1 3.393499 1_555
Ho5 Sc0 3.537422 1_545
Ho5 Sc0 3.537422 1_655
