# generated using pymatgen
data_Tb2MgNi2
_symmetry_space_group_name_H-M   'P 1'
_cell_length_a   7.35043761
_cell_length_b   7.35043761
_cell_length_c   3.71145796
_cell_angle_alpha   90.00000000
_cell_angle_beta   90.00000000
_cell_angle_gamma   89.99728224
_symmetry_Int_Tables_number   1
_chemical_formula_structural   Tb2MgNi2
_chemical_formula_sum   'Tb4 Mg2 Ni4'
_cell_volume   200.52611356
_cell_formula_units_Z   2
loop_
 _symmetry_equiv_pos_site_id
 _symmetry_equiv_pos_as_xyz
  1  'x, y, z'
loop_
 _atom_site_type_symbol
 _atom_site_label
 _atom_site_symmetry_multiplicity
 _atom_site_fract_x
 _atom_site_fract_y
 _atom_site_fract_z
 _atom_site_occupancy
  Tb  Tb0  1  0.67309374  0.17309374  0.50000000  1
  Tb  Tb1  1  0.32690626  0.82690626  0.50000000  1
  Tb  Tb2  1  0.17336322  0.32663678  0.50000000  1
  Tb  Tb3  1  0.82663678  0.67336322  0.50000000  1
  Mg  Mg0  1  -0.00000000  0.00000000  0.00000000  1
  Mg  Mg1  1  0.50000000  0.50000000  0.00000000  1
  Ni  Ni0  1  0.11739086  0.61739086  -0.00000000  1
  Ni  Ni1  1  0.88260914  0.38260914  -0.00000000  1
  Ni  Ni2  1  0.61783168  0.88216832  0.00000000  1
  Ni  Ni3  1  0.38216732  0.11783268  0.00000000  1
loop_
_geom_bond_atom_site_label_1
_geom_bond_atom_site_label_2
_geom_bond_distance
_geom_bond_site_symmetry_2
Mg0 Ni3 2.939630 1_555
Mg0 Ni2 2.939635 1_445
Mg0 Ni0 2.941701 1_545
Mg0 Ni1 2.941701 1_455
Mg0 Tb3 3.291243 1_444
Mg0 Tb3 3.291243 1_445
Mg0 Tb2 3.291243 1_555
Mg0 Tb2 3.291243 1_554
Mg0 Tb0 3.291834 1_455
Mg0 Tb1 3.291834 1_544
Mg0 Tb1 3.291834 1_545
Mg0 Tb0 3.291834 1_454
Mg1 Ni3 2.939630 1_555
Mg1 Ni2 2.939635 1_555
Mg1 Ni0 2.941701 1_555
Mg1 Ni1 2.941701 1_555
Mg1 Tb2 3.291243 1_554
Mg1 Tb3 3.291243 1_554
Mg1 Tb2 3.291243 1_555
Mg1 Tb3 3.291243 1_555
Mg1 Tb0 3.291834 1_554
Mg1 Tb1 3.291834 1_554
Mg1 Tb1 3.291834 1_555
Mg1 Tb0 3.291834 1_555
Ni0 Ni1 2.440635 1_455
Ni0 Tb2 2.860141 1_555
Ni0 Tb2 2.860141 1_554
Ni0 Tb3 2.860141 1_454
Ni0 Tb3 2.860141 1_455
Ni0 Tb1 2.861353 1_555
Ni0 Tb1 2.861353 1_554
Ni1 Tb2 2.860141 1_654
Ni1 Tb3 2.860141 1_554
Ni1 Tb2 2.860141 1_655
Ni1 Tb3 2.860141 1_555
Ni1 Tb0 2.861353 1_555
Ni1 Tb0 2.861353 1_554
Ni2 Ni3 2.449694 1_565
Ni2 Tb3 2.855658 1_554
Ni2 Tb3 2.855658 1_555
Ni2 Tb1 2.860365 1_554
Ni2 Tb1 2.860365 1_555
Ni2 Tb0 2.860365 1_564
Ni2 Tb0 2.860365 1_565
Ni3 Tb2 2.855650 1_555
Ni3 Tb2 2.855650 1_554
Ni3 Tb1 2.860370 1_544
Ni3 Tb1 2.860370 1_545
Ni3 Tb0 2.860370 1_555
Ni3 Tb0 2.860370 1_554
