# generated using pymatgen
data_K3Si3N5
_symmetry_space_group_name_H-M   'P 1'
_cell_length_a   5.58249441
_cell_length_b   7.21969027
_cell_length_c   8.23381505
_cell_angle_alpha   105.76625683
_cell_angle_beta   94.69039518
_cell_angle_gamma   100.90571184
_symmetry_Int_Tables_number   1
_chemical_formula_structural   K3Si3N5
_chemical_formula_sum   'K6 Si6 N10'
_cell_volume   310.47200598
_cell_formula_units_Z   2
loop_
 _symmetry_equiv_pos_site_id
 _symmetry_equiv_pos_as_xyz
  1  'x, y, z'
loop_
 _atom_site_type_symbol
 _atom_site_label
 _atom_site_symmetry_multiplicity
 _atom_site_fract_x
 _atom_site_fract_y
 _atom_site_fract_z
 _atom_site_occupancy
  K  K0  1  0.83344700  0.42839200  0.61457100  1
  K  K1  1  0.16655300  0.57160800  0.38542900  1
  K  K2  1  0.62893900  0.82496200  0.91040700  1
  K  K3  1  0.37106100  0.17503800  0.08959300  1
  K  K4  1  0.64758900  0.62022500  0.24381700  1
  K  K5  1  0.35241100  0.37977500  0.75618300  1
  Si  Si0  1  0.93253300  0.32315200  0.98254400  1
  Si  Si1  1  0.06746700  0.67684800  0.01745600  1
  Si  Si2  1  0.68670800  0.97479000  0.59430300  1
  Si  Si3  1  0.31329200  0.02521000  0.40569700  1
  Si  Si4  1  0.07610700  0.90557800  0.71702300  1
  Si  Si5  1  0.92389300  0.09442200  0.28297700  1
  N  N0  1  0.91788900  0.12265000  0.77754100  1
  N  N1  1  0.08211100  0.87735000  0.22245900  1
  N  N2  1  0.81719700  0.77393700  0.56951600  1
  N  N3  1  0.18280300  0.22606300  0.43048400  1
  N  N4  1  0.78136100  0.50222000  0.94524800  1
  N  N5  1  0.21863900  0.49778000  0.05475200  1
  N  N6  1  0.35356900  0.95880600  0.60364800  1
  N  N7  1  0.64643100  0.04119400  0.39635200  1
  N  N8  1  0.15113100  0.79981600  0.86831900  1
  N  N9  1  0.84886900  0.20018400  0.13168100  1
loop_
_geom_bond_atom_site_label_1
_geom_bond_atom_site_label_2
_geom_bond_distance
_geom_bond_site_symmetry_2
K0 N2 2.636774 1_555
K0 N4 2.679812 1_555
K0 N7 2.827063 1_555
K0 N3 2.931392 1_655
K0 N0 2.965664 1_555
K0 N8 3.041568 1_655
K1 N3 2.636774 1_555
K1 N5 2.679812 1_555
K1 N6 2.827063 1_555
K1 N2 2.931392 1_455
K1 N1 2.965664 1_555
K1 N9 3.041568 1_455
K2 N8 2.626646 1_555
K2 N4 2.703557 1_555
K2 N9 2.803384 1_566
K3 N9 2.626646 1_555
K3 N5 2.703557 1_555
K3 N8 2.803384 1_544
K4 N4 2.594200 1_554
K4 N5 2.603949 1_555
K4 N2 2.624819 1_555
K4 N1 2.811477 1_655
K4 N7 2.957870 1_565
K5 N5 2.594200 1_556
K5 N4 2.603949 1_555
K5 N3 2.624819 1_555
K5 N0 2.811477 1_455
K5 N6 2.957870 1_545
N0 Si2 1.834794 1_545
N0 Si0 1.885776 1_555
N0 Si4 1.912040 1_645
N1 Si3 1.834794 1_565
N1 Si1 1.885776 1_555
N1 Si5 1.912040 1_465
N2 Si2 1.714137 1_555
N2 Si4 1.741640 1_655
N3 Si3 1.714137 1_555
N3 Si5 1.741640 1_455
N4 Si0 1.750447 1_555
N4 Si1 1.780285 1_656
N5 Si1 1.750447 1_555
N5 Si0 1.780285 1_454
N6 Si3 1.828231 1_565
N6 Si2 1.850653 1_555
N6 Si4 1.903810 1_555
N7 Si2 1.828231 1_545
N7 Si3 1.850653 1_555
N7 Si5 1.903810 1_555
N8 Si4 1.692016 1_555
N8 Si1 1.744576 1_556
N9 Si5 1.692016 1_555
N9 Si0 1.744576 1_554
