# generated using pymatgen
data_Sr2CrFeAsO3
_symmetry_space_group_name_H-M   'P 1'
_cell_length_a   3.89618702
_cell_length_b   3.89618702
_cell_length_c   15.71667981
_cell_angle_alpha   90.00000000
_cell_angle_beta   90.00000000
_cell_angle_gamma   90.00000000
_symmetry_Int_Tables_number   1
_chemical_formula_structural   Sr2CrFeAsO3
_chemical_formula_sum   'Sr4 Cr2 Fe2 As2 O6'
_cell_volume   238.58349480
_cell_formula_units_Z   2
loop_
 _symmetry_equiv_pos_site_id
 _symmetry_equiv_pos_as_xyz
  1  'x, y, z'
loop_
 _atom_site_type_symbol
 _atom_site_label
 _atom_site_symmetry_multiplicity
 _atom_site_fract_x
 _atom_site_fract_y
 _atom_site_fract_z
 _atom_site_occupancy
  Sr  Sr0  1  0.50000000  -0.00000000  0.80906427  1
  Sr  Sr1  1  0.00000000  0.50000000  0.19093573  1
  Sr  Sr2  1  0.50000000  -0.00000000  0.58642041  1
  Sr  Sr3  1  0.00000000  0.50000000  0.41357959  1
  Cr  Cr0  1  -0.00000000  0.50000000  0.69020180  1
  Cr  Cr1  1  0.50000000  0.00000000  0.30979820  1
  Fe  Fe0  1  0.50000000  0.50000000  -0.00000000  1
  Fe  Fe1  1  0.00000000  -0.00000000  -0.00000000  1
  As  As0  1  -0.00000000  0.50000000  0.91851120  1
  As  As1  1  0.50000000  -0.00000000  0.08148880  1
  O  O0  1  0.50000000  0.50000000  0.70810975  1
  O  O1  1  -0.00000000  -0.00000000  0.70810975  1
  O  O2  1  0.00000000  0.00000000  0.29189025  1
  O  O3  1  0.50000000  0.50000000  0.29189025  1
  O  O4  1  -0.00000000  0.50000000  0.56998875  1
  O  O5  1  0.50000000  0.00000000  0.43001125  1
loop_
_geom_bond_atom_site_label_1
_geom_bond_atom_site_label_2
_geom_bond_distance
_geom_bond_site_symmetry_2
Cr0 O4 1.889350 1_555
Cr0 O0 1.968320 1_555
Cr0 O1 1.968320 1_555
Cr0 O1 1.968320 1_565
Cr0 O0 1.968320 1_455
Cr1 O5 1.889350 1_555
Cr1 O3 1.968320 1_555
Cr1 O3 1.968320 1_545
Cr1 O2 1.968320 1_555
Cr1 O2 1.968320 1_655
As0 Fe1 2.331383 1_556
As0 Fe1 2.331383 1_566
As0 Fe0 2.331383 1_456
As0 Fe0 2.331383 1_556
As0 Sr0 3.247926 1_465
As0 Sr0 3.247926 1_555
As0 Sr0 3.247926 1_565
As0 Sr0 3.247926 1_455
As1 Fe0 2.331383 1_545
As1 Fe1 2.331383 1_655
As1 Fe0 2.331383 1_555
As1 Fe1 2.331383 1_555
As1 Sr1 3.247926 1_645
As1 Sr1 3.247926 1_555
As1 Sr1 3.247926 1_655
As1 Sr1 3.247926 1_545
O0 Sr0 2.512487 1_555
O0 Sr0 2.512487 1_565
O0 Sr2 2.730005 1_555
O0 Sr2 2.730005 1_565
O1 Sr0 2.512487 1_455
O1 Sr0 2.512487 1_555
O1 Sr2 2.730005 1_455
O1 Sr2 2.730005 1_555
O2 Sr1 2.512487 1_555
O2 Sr1 2.512487 1_545
O2 Sr3 2.730005 1_545
O2 Sr3 2.730005 1_555
O3 Sr1 2.512487 1_655
O3 Sr1 2.512487 1_555
O3 Sr3 2.730005 1_655
O3 Sr3 2.730005 1_555
O4 Sr3 2.458233 1_555
O4 Sr2 2.767098 1_555
O4 Sr2 2.767098 1_565
O4 Sr2 2.767098 1_465
O4 Sr2 2.767098 1_455
O5 Sr2 2.458233 1_555
O5 Sr3 2.767098 1_555
O5 Sr3 2.767098 1_655
O5 Sr3 2.767098 1_645
O5 Sr3 2.767098 1_545
