# generated using pymatgen
data_Ca2Al4Si4O17
_symmetry_space_group_name_H-M   'P 1'
_cell_length_a   8.58378125
_cell_length_b   9.40193600
_cell_length_c   11.52477818
_cell_angle_alpha   114.07304398
_cell_angle_beta   99.25600234
_cell_angle_gamma   90.00000000
_symmetry_Int_Tables_number   1
_chemical_formula_structural   Ca2Al4Si4O17
_chemical_formula_sum   'Ca4 Al8 Si8 O34'
_cell_volume   835.92199109
_cell_formula_units_Z   2
loop_
 _symmetry_equiv_pos_site_id
 _symmetry_equiv_pos_as_xyz
  1  'x, y, z'
loop_
 _atom_site_type_symbol
 _atom_site_label
 _atom_site_symmetry_multiplicity
 _atom_site_fract_x
 _atom_site_fract_y
 _atom_site_fract_z
 _atom_site_occupancy
  Ca  Ca0  1  0.55795400  0.48344200  0.33145000  1
  Ca  Ca1  1  0.94204600  0.15199200  0.66855000  1
  Ca  Ca2  1  0.44204600  0.51655800  0.66855000  1
  Ca  Ca3  1  0.05795400  0.84800800  0.33145000  1
  Al  Al0  1  0.14507600  0.78213300  0.81098400  1
  Al  Al1  1  0.35492400  0.97114900  0.18901600  1
  Al  Al2  1  0.85492400  0.21786700  0.18901600  1
  Al  Al3  1  0.64507600  0.02885100  0.81098400  1
  Al  Al4  1  0.78866100  0.48464700  0.59302900  1
  Al  Al5  1  0.71133900  0.89161800  0.40697100  1
  Al  Al6  1  0.21133900  0.51535300  0.40697100  1
  Al  Al7  1  0.28866100  0.10838200  0.59302900  1
  Si  Si0  1  0.80870000  0.74197000  0.87458900  1
  Si  Si1  1  0.69130000  0.86738100  0.12541100  1
  Si  Si2  1  0.19130000  0.25803000  0.12541100  1
  Si  Si3  1  0.30870000  0.13261900  0.87458900  1
  Si  Si4  1  0.94967500  0.70673700  0.51542700  1
  Si  Si5  1  0.55032500  0.19131000  0.48457300  1
  Si  Si6  1  0.05032500  0.29326300  0.48457300  1
  Si  Si7  1  0.44967500  0.80869000  0.51542700  1
  O  O0  1  0.73850400  0.89567500  0.86192000  1
  O  O1  1  0.76149600  0.03375500  0.13808000  1
  O  O2  1  0.26149600  0.10432500  0.13808000  1
  O  O3  1  0.23850400  0.96624500  0.86192000  1
  O  O4  1  0.99930200  0.74518300  0.88625800  1
  O  O5  1  0.50069800  0.85892400  0.11374200  1
  O  O6  1  0.00069800  0.25481700  0.11374200  1
  O  O7  1  0.49930200  0.14107500  0.88625800  1
  O  O8  1  0.72483600  0.58545900  0.74221100  1
  O  O9  1  0.77516400  0.84324900  0.25778900  1
  O  O10  1  0.27516400  0.41454100  0.25778900  1
  O  O11  1  0.22483600  0.15675100  0.74221100  1
  O  O12  1  0.55704000  0.91285400  0.65068100  1
  O  O13  1  0.94296000  0.26217300  0.34931900  1
  O  O14  1  0.44296000  0.08714600  0.34931900  1
  O  O15  1  0.05704000  0.73782700  0.65068100  1
  O  O16  1  0.94851400  0.36960000  0.60447700  1
  O  O17  1  0.55148600  0.76512300  0.39552300  1
  O  O18  1  0.05148600  0.63040000  0.39552300  1
  O  O19  1  0.44851400  0.23487700  0.60447700  1
  O  O20  1  0.79679300  0.58703600  0.49378700  1
  O  O21  1  0.70320700  0.09325000  0.50621300  1
  O  O22  1  0.20320700  0.41296400  0.50621300  1
  O  O23  1  0.29679300  0.90675000  0.49378700  1
  O  O24  1  0.89045300  0.86779000  0.50179900  1
  O  O25  1  0.60954700  0.36599100  0.49820100  1
  O  O26  1  0.10954700  0.13221000  0.49820100  1
  O  O27  1  0.39045300  0.63400900  0.50179900  1
  O  O28  1  0.75000000  0.72933500  0.00000000  1
  O  O29  1  0.25000000  0.27066500  0.00000000  1
  O  O30  1  0.68903300  0.32892000  0.18131000  1
  O  O31  1  0.81096700  0.14761000  0.81869000  1
  O  O32  1  0.31096700  0.67108000  0.81869000  1
  O  O33  1  0.18903300  0.85239000  0.18131000  1
loop_
_geom_bond_atom_site_label_1
_geom_bond_atom_site_label_2
_geom_bond_distance
_geom_bond_site_symmetry_2
Ca0 O30 2.223998 1_555
Ca0 O10 2.433328 1_555
Ca0 O20 2.435473 1_555
Ca0 O17 2.445382 1_555
Ca0 O25 2.562458 1_555
Ca0 O27 2.562478 1_555
Ca1 O31 2.223998 1_555
Ca1 O11 2.433329 1_655
Ca1 O21 2.435474 1_555
Ca1 O16 2.445382 1_555
Ca1 O24 2.562458 1_545
Ca1 O26 2.562478 1_655
Ca2 O32 2.223998 1_555
Ca2 O8 2.433328 1_555
Ca2 O22 2.435473 1_555
Ca2 O19 2.445382 1_555
Ca2 O27 2.562458 1_555
Ca2 O25 2.562478 1_555
Ca3 O33 2.223998 1_555
Ca3 O9 2.433329 1_455
Ca3 O23 2.435474 1_555
Ca3 O18 2.445382 1_555
Ca3 O26 2.562458 1_565
Ca3 O24 2.562478 1_455
Al0 O3 1.733125 1_555
Al0 O4 1.741858 1_455
Al0 O15 1.755203 1_555
Al0 O32 1.777842 1_555
Al1 O2 1.733125 1_565
Al1 O5 1.741862 1_555
Al1 O14 1.755203 1_565
Al1 O33 1.777842 1_555
Al2 O1 1.733125 1_555
Al2 O6 1.741858 1_655
Al2 O13 1.755203 1_555
Al2 O30 1.777842 1_555
Al3 O0 1.733125 1_545
Al3 O7 1.741858 1_555
Al3 O12 1.755203 1_545
Al3 O31 1.777842 1_555
Al4 O8 1.768636 1_555
Al4 O16 1.768719 1_555
Al4 O20 1.778659 1_555
Al4 O25 1.807650 1_555
Al5 O9 1.768637 1_555
Al5 O17 1.768719 1_555
Al5 O21 1.778666 1_565
Al5 O24 1.807650 1_555
Al6 O10 1.768636 1_555
Al6 O18 1.768719 1_555
Al6 O22 1.778659 1_555
Al6 O27 1.807650 1_555
Al7 O11 1.768637 1_555
Al7 O19 1.768719 1_555
Al7 O23 1.778666 1_545
Al7 O26 1.807650 1_555
O0 Si0 1.617590 1_555
O1 Si1 1.617590 1_545
O2 Si2 1.617590 1_555
O3 Si3 1.617590 1_565
O4 Si0 1.619160 1_555
O5 Si1 1.619161 1_555
O6 Si2 1.619160 1_555
O7 Si3 1.619160 1_555
O8 Si0 1.681170 1_555
O9 Si1 1.681165 1_555
O10 Si2 1.681170 1_555
O11 Si3 1.681165 1_555
O12 Si7 1.590822 1_555
O13 Si6 1.590822 1_655
O14 Si5 1.590822 1_555
O15 Si4 1.590822 1_455
O16 Si6 1.663671 1_655
O17 Si7 1.663671 1_555
O18 Si4 1.663671 1_455
O19 Si5 1.663671 1_555
O20 Si4 1.648228 1_555
O21 Si5 1.648223 1_555
O22 Si6 1.648228 1_555
O23 Si7 1.648223 1_555
O24 Si4 1.656577 1_555
O25 Si5 1.656577 1_555
O26 Si6 1.656577 1_555
O27 Si7 1.656577 1_555
O28 Si1 1.652674 1_555
O28 Si0 1.652674 1_554
O29 Si2 1.652674 1_555
O29 Si3 1.652674 1_554
