# generated using pymatgen
data_K2Cu(Cl2O)2
_symmetry_space_group_name_H-M   'P 1'
_cell_length_a   8.21364600
_cell_length_b   8.21364600
_cell_length_c   7.98206500
_cell_angle_alpha   90.00000000
_cell_angle_beta   90.00000000
_cell_angle_gamma   90.00000000
_symmetry_Int_Tables_number   1
_chemical_formula_structural   K2Cu(Cl2O)2
_chemical_formula_sum   'K4 Cu2 Cl8 O4'
_cell_volume   538.50187841
_cell_formula_units_Z   2
loop_
 _symmetry_equiv_pos_site_id
 _symmetry_equiv_pos_as_xyz
  1  'x, y, z'
loop_
 _atom_site_type_symbol
 _atom_site_label
 _atom_site_symmetry_multiplicity
 _atom_site_fract_x
 _atom_site_fract_y
 _atom_site_fract_z
 _atom_site_occupancy
  K  K0  1  0.50000000  0.00000000  0.25000000  1
  K  K1  1  0.50000000  0.00000000  0.75000000  1
  K  K2  1  0.00000000  0.50000000  0.25000000  1
  K  K3  1  0.00000000  0.50000000  0.75000000  1
  Cu  Cu0  1  0.00000000  0.00000000  0.00000000  1
  Cu  Cu1  1  0.50000000  0.50000000  0.50000000  1
  Cl  Cl0  1  0.18228600  0.18228600  0.25716800  1
  Cl  Cl1  1  0.81771400  0.81771400  0.74283200  1
  Cl  Cl2  1  0.81771400  0.81771400  0.25716800  1
  Cl  Cl3  1  0.68228600  0.31771400  0.75716800  1
  Cl  Cl4  1  0.68228600  0.31771400  0.24283200  1
  Cl  Cl5  1  0.18228600  0.18228600  0.74283200  1
  Cl  Cl6  1  0.31771400  0.68228600  0.24283200  1
  Cl  Cl7  1  0.31771400  0.68228600  0.75716800  1
  O  O0  1  0.00000000  0.00000000  0.22248200  1
  O  O1  1  0.00000000  0.00000000  0.77751800  1
  O  O2  1  0.50000000  0.50000000  0.72248200  1
  O  O3  1  0.50000000  0.50000000  0.27751800  1
loop_
_geom_bond_atom_site_label_1
_geom_bond_atom_site_label_2
_geom_bond_distance
_geom_bond_site_symmetry_2
Cu0 O0 1.775866 1_555
Cu0 O1 1.775866 1_554
Cu1 O2 1.775866 1_555
Cu1 O3 1.775866 1_555
Cl0 O0 2.135431 1_555
Cl0 K0 3.009143 1_555
Cl0 K2 3.009143 1_555
Cl1 O1 2.135431 1_665
Cl1 K3 3.009143 1_655
Cl1 K1 3.009143 1_565
Cl2 O0 2.135431 1_665
Cl2 K2 3.009143 1_655
Cl2 K0 3.009143 1_565
Cl3 O2 2.135431 1_555
Cl3 K1 3.009143 1_555
Cl3 K3 3.009143 1_655
Cl4 O3 2.135431 1_555
Cl4 K0 3.009143 1_555
Cl4 K2 3.009143 1_655
Cl5 O1 2.135431 1_555
Cl5 K3 3.009143 1_555
Cl5 K1 3.009143 1_555
Cl6 O3 2.135431 1_555
Cl6 K2 3.009143 1_555
Cl6 K0 3.009143 1_565
Cl7 O2 2.135431 1_555
Cl7 K3 3.009143 1_555
Cl7 K1 3.009143 1_565
