# generated using pymatgen
data_MgSi(OF)6
_symmetry_space_group_name_H-M   'P 1'
_cell_length_a   5.99814005
_cell_length_b   6.35011494
_cell_length_c   9.97788400
_cell_angle_alpha   90.00000000
_cell_angle_beta   90.00000000
_cell_angle_gamma   82.30846101
_symmetry_Int_Tables_number   1
_chemical_formula_structural   MgSi(OF)6
_chemical_formula_sum   'Mg2 Si2 O12 F12'
_cell_volume   376.62712712
_cell_formula_units_Z   2
loop_
 _symmetry_equiv_pos_site_id
 _symmetry_equiv_pos_as_xyz
  1  'x, y, z'
loop_
 _atom_site_type_symbol
 _atom_site_label
 _atom_site_symmetry_multiplicity
 _atom_site_fract_x
 _atom_site_fract_y
 _atom_site_fract_z
 _atom_site_occupancy
  Mg  Mg0  1  0.00000000  0.50000000  0.50000000  1
  Mg  Mg1  1  0.00000000  0.00000000  0.00000000  1
  Si  Si0  1  0.50000000  0.50000000  0.00000000  1
  Si  Si1  1  0.50000000  0.00000000  0.50000000  1
  O  O0  1  0.69504300  0.57292100  0.41327100  1
  O  O1  1  0.30495700  0.92707900  0.91327100  1
  O  O2  1  0.30495700  0.42707900  0.58672900  1
  O  O3  1  0.69504300  0.07292100  0.08672900  1
  O  O4  1  0.90715700  0.33613000  0.72873400  1
  O  O5  1  0.09284300  0.16387000  0.22873400  1
  O  O6  1  0.09284300  0.66387000  0.27126600  1
  O  O7  1  0.90715700  0.83613000  0.77126600  1
  O  O8  1  0.98798300  0.23123300  0.32857600  1
  O  O9  1  0.01201700  0.26876700  0.82857600  1
  O  O10  1  0.01201700  0.76876700  0.67142400  1
  O  O11  1  0.98798300  0.73123300  0.17142400  1
  F  F0  1  0.66013500  0.10101800  0.61364900  1
  F  F1  1  0.33986500  0.39898200  0.11364900  1
  F  F2  1  0.33986500  0.89898200  0.38635100  1
  F  F3  1  0.66013500  0.60101800  0.88635100  1
  F  F4  1  0.74177100  0.91556400  0.40626100  1
  F  F5  1  0.25822900  0.58443600  0.90626100  1
  F  F6  1  0.25822900  0.08443600  0.59373900  1
  F  F7  1  0.74177100  0.41556400  0.09373900  1
  F  F8  1  0.46051800  0.24473000  0.41607200  1
  F  F9  1  0.53948200  0.25527000  0.91607200  1
  F  F10  1  0.53948200  0.75527000  0.58392800  1
  F  F11  1  0.46051800  0.74473000  0.08392800  1
loop_
_geom_bond_atom_site_label_1
_geom_bond_atom_site_label_2
_geom_bond_distance
_geom_bond_site_symmetry_2
Mg0 O2 2.020506 1_555
Mg0 O0 2.020506 1_455
Mg0 O8 2.424168 1_455
Mg0 O10 2.424168 1_555
Mg0 O6 2.599400 1_555
Mg0 O4 2.599400 1_455
Mg1 O1 2.020506 1_544
Mg1 O3 2.020506 1_455
Mg1 O9 2.424168 1_554
Mg1 O11 2.424168 1_445
Mg1 O7 2.599400 1_444
Mg1 O5 2.599400 1_555
O4 O9 1.224336 1_655
O5 O8 1.224336 1_455
O10 O7 1.224336 1_455
O11 O6 1.224336 1_655
F0 Si1 1.668804 1_555
F1 Si0 1.668804 1_555
F2 Si1 1.668804 1_565
F3 Si0 1.668804 1_556
F4 Si1 1.748480 1_565
F5 Si0 1.748480 1_556
F6 Si1 1.748480 1_555
F7 Si0 1.748480 1_555
F8 Si1 1.753272 1_555
F9 Si0 1.753272 1_556
F10 Si1 1.753272 1_565
F11 Si0 1.753272 1_555
