# generated using pymatgen
data_Sr3U
_symmetry_space_group_name_H-M   'P 1'
_cell_length_a   5.61906600
_cell_length_b   5.61906600
_cell_length_c   5.61906600
_cell_angle_alpha   90.00000000
_cell_angle_beta   90.00000000
_cell_angle_gamma   90.00000000
_symmetry_Int_Tables_number   1
_chemical_formula_structural   Sr3U
_chemical_formula_sum   'Sr3 U1'
_cell_volume   177.41584322
_cell_formula_units_Z   1
loop_
 _symmetry_equiv_pos_site_id
 _symmetry_equiv_pos_as_xyz
  1  'x, y, z'
loop_
 _atom_site_type_symbol
 _atom_site_label
 _atom_site_symmetry_multiplicity
 _atom_site_fract_x
 _atom_site_fract_y
 _atom_site_fract_z
 _atom_site_occupancy
  Sr  Sr0  1  0.00000000  0.50000000  0.50000000  1
  Sr  Sr1  1  0.50000000  0.00000000  0.50000000  1
  Sr  Sr2  1  0.50000000  0.50000000  0.00000000  1
  U  U0  1  0.00000000  0.00000000  0.00000000  1
loop_
_geom_bond_atom_site_label_1
_geom_bond_atom_site_label_2
_geom_bond_distance
_geom_bond_site_symmetry_2
Sr0 Sr2 3.973280 1_556
Sr0 Sr2 3.973280 1_555
Sr0 Sr1 3.973280 1_465
Sr0 U0 3.973280 1_566
Sr0 U0 3.973280 1_565
Sr0 Sr2 3.973280 1_456
Sr0 Sr1 3.973280 1_455
Sr0 U0 3.973280 1_555
Sr0 Sr2 3.973280 1_455
Sr0 Sr1 3.973280 1_565
Sr0 Sr1 3.973280 1_555
Sr0 U0 3.973280 1_556
Sr1 Sr2 3.973280 1_556
Sr1 Sr2 3.973280 1_555
Sr1 Sr2 3.973280 1_545
Sr1 U0 3.973280 1_656
Sr1 U0 3.973280 1_655
Sr1 Sr2 3.973280 1_546
Sr1 U0 3.973280 1_555
Sr1 U0 3.973280 1_556
Sr2 U0 3.973280 1_565
Sr2 U0 3.973280 1_655
Sr2 U0 3.973280 1_665
Sr2 U0 3.973280 1_555
