# generated using pymatgen
data_Li2V3SbO8
_symmetry_space_group_name_H-M   'P 1'
_cell_length_a   6.04909753
_cell_length_b   6.16029134
_cell_length_c   8.62450111
_cell_angle_alpha   88.60789413
_cell_angle_beta   89.99534133
_cell_angle_gamma   90.01329733
_symmetry_Int_Tables_number   1
_chemical_formula_structural   Li2V3SbO8
_chemical_formula_sum   'Li4 V6 Sb2 O16'
_cell_volume   321.29029333
_cell_formula_units_Z   2
loop_
 _symmetry_equiv_pos_site_id
 _symmetry_equiv_pos_as_xyz
  1  'x, y, z'
loop_
 _atom_site_type_symbol
 _atom_site_label
 _atom_site_symmetry_multiplicity
 _atom_site_fract_x
 _atom_site_fract_y
 _atom_site_fract_z
 _atom_site_occupancy
  Li  Li0  1  0.99927500  0.26169500  0.13080900  1
  Li  Li1  1  0.50083700  0.76162200  0.63109600  1
  Li  Li2  1  0.99921700  0.73831600  0.86920300  1
  Li  Li3  1  0.50083100  0.23835000  0.36889500  1
  V  V0  1  0.50194400  0.00005400  0.99994800  1
  V  V1  1  0.74945000  0.24981400  0.74965800  1
  V  V2  1  0.74947900  0.75007800  0.25030100  1
  V  V3  1  0.99916900  0.49997700  0.50001300  1
  V  V4  1  0.25049500  0.74909000  0.25010800  1
  V  V5  1  0.25047200  0.25093400  0.75000200  1
  Sb  Sb0  1  0.99683900  0.00007200  0.50000300  1
  Sb  Sb1  1  0.50355500  0.50008200  0.00003000  1
  O  O0  1  0.00028100  0.53347800  0.26624100  1
  O  O1  1  0.49833400  0.03189000  0.76611000  1
  O  O2  1  0.00029000  0.46647600  0.73373400  1
  O  O3  1  0.49854500  0.96801100  0.23379600  1
  O  O4  1  0.22650100  0.75783300  0.48833500  1
  O  O5  1  0.72574900  0.25477400  0.99347700  1
  O  O6  1  0.77453900  0.75529000  0.49431300  1
  O  O7  1  0.27342400  0.25862300  0.98803200  1
  O  O8  1  0.99374800  0.98253400  0.26543800  1
  O  O9  1  0.50649000  0.48323700  0.76536100  1
  O  O10  1  0.99354000  0.01747700  0.73455600  1
  O  O11  1  0.50619100  0.51670700  0.23465900  1
  O  O12  1  0.22637600  0.24238200  0.51167500  1
  O  O13  1  0.72612400  0.74487400  0.00667800  1
  O  O14  1  0.77447900  0.24446100  0.50569000  1
  O  O15  1  0.27382600  0.74186900  0.01184100  1
loop_
_geom_bond_atom_site_label_1
_geom_bond_atom_site_label_2
_geom_bond_distance
_geom_bond_site_symmetry_2
Li0 O5 2.035942 1_554
Li0 O8 2.051743 1_545
Li0 O0 2.064585 1_655
Li0 O7 2.065819 1_654
Li1 O6 2.033791 1_555
Li1 O9 2.046118 1_555
Li1 O1 2.054829 1_565
Li1 O4 2.066907 1_555
Li2 O13 2.034315 1_556
Li2 O10 2.051859 1_565
Li2 O2 2.065064 1_655
Li2 O15 2.067565 1_656
Li3 O14 2.033682 1_555
Li3 O11 2.045794 1_555
Li3 O3 2.055606 1_545
Li3 O12 2.067470 1_555
O0 V4 2.016062 1_555
O0 V3 2.021718 1_455
O0 V2 2.023126 1_455
O1 V5 2.019901 1_555
O1 V0 2.021622 1_555
O1 V1 2.029673 1_555
O2 V5 2.016175 1_555
O2 V3 2.021282 1_455
O2 V1 2.023061 1_455
O3 V4 2.019852 1_555
O3 V0 2.021783 1_564
O3 V2 2.029394 1_555
O4 Sb0 2.043336 1_465
O4 V4 2.061707 1_555
O4 V3 2.101336 1_455
O5 Sb1 2.024460 1_556
O5 V0 2.071935 1_555
O5 V1 2.108650 1_555
O6 Sb0 2.021677 1_565
O6 V3 2.078396 1_555
O6 V2 2.110968 1_555
O7 Sb1 2.041489 1_556
O7 V5 2.059283 1_555
O7 V0 2.109910 1_555
O8 Sb0 2.028596 1_565
O8 V2 2.063762 1_555
O8 V4 2.123178 1_655
O9 Sb1 2.029154 1_556
O9 V1 2.063116 1_555
O9 V5 2.114730 1_555
O10 Sb0 2.028438 1_555
O10 V1 2.062913 1_555
O10 V5 2.123658 1_655
O11 Sb1 2.028695 1_555
O11 V2 2.063803 1_555
O11 V4 2.114170 1_555
O12 Sb0 2.042684 1_455
O12 V5 2.062573 1_555
O12 V3 2.100116 1_455
O13 Sb1 2.023173 1_555
O13 V0 2.076064 1_564
O13 V2 2.106903 1_555
O14 Sb0 2.020571 1_555
O14 V3 2.079096 1_555
O14 V1 2.110587 1_555
O15 Sb1 2.041658 1_555
O15 V4 2.061322 1_555
O15 V0 2.106032 1_564
