# generated using pymatgen
data_K3S3NO11
_symmetry_space_group_name_H-M   'P 1'
_cell_length_a   5.84439300
_cell_length_b   11.50493400
_cell_length_c   18.35931300
_cell_angle_alpha   90.00000000
_cell_angle_beta   90.00000000
_cell_angle_gamma   90.00000000
_symmetry_Int_Tables_number   1
_chemical_formula_structural   K3S3NO11
_chemical_formula_sum   'K12 S12 N4 O44'
_cell_volume   1234.46837786
_cell_formula_units_Z   4
loop_
 _symmetry_equiv_pos_site_id
 _symmetry_equiv_pos_as_xyz
  1  'x, y, z'
loop_
 _atom_site_type_symbol
 _atom_site_label
 _atom_site_symmetry_multiplicity
 _atom_site_fract_x
 _atom_site_fract_y
 _atom_site_fract_z
 _atom_site_occupancy
  K  K0  1  0.25000000  0.38904700  0.99454400  1
  K  K1  1  0.25000000  0.88904700  0.50545600  1
  K  K2  1  0.75000000  0.61095300  0.00545600  1
  K  K3  1  0.75000000  0.11095300  0.49454400  1
  K  K4  1  0.25000000  0.11827800  0.32005700  1
  K  K5  1  0.25000000  0.61827800  0.17994300  1
  K  K6  1  0.75000000  0.88172200  0.67994300  1
  K  K7  1  0.75000000  0.38172200  0.82005700  1
  K  K8  1  0.75000000  0.47478100  0.58718000  1
  K  K9  1  0.75000000  0.97478100  0.91282000  1
  K  K10  1  0.25000000  0.52521900  0.41282000  1
  K  K11  1  0.25000000  0.02521900  0.08718000  1
  S  S0  1  0.25000000  0.36607400  0.66660600  1
  S  S1  1  0.25000000  0.86607400  0.83339400  1
  S  S2  1  0.75000000  0.63392600  0.33339400  1
  S  S3  1  0.75000000  0.13392600  0.16660600  1
  S  S4  1  0.25000000  0.10176100  0.64219500  1
  S  S5  1  0.25000000  0.60176100  0.85780500  1
  S  S6  1  0.75000000  0.89823900  0.35780500  1
  S  S7  1  0.75000000  0.39823900  0.14219500  1
  S  S8  1  0.25000000  0.26703300  0.51523000  1
  S  S9  1  0.25000000  0.76703300  0.98477000  1
  S  S10  1  0.75000000  0.73296700  0.48477000  1
  S  S11  1  0.75000000  0.23296700  0.01523000  1
  N  N0  1  0.25000000  0.24352000  0.60737900  1
  N  N1  1  0.25000000  0.74352000  0.89262100  1
  N  N2  1  0.75000000  0.75648000  0.39262100  1
  N  N3  1  0.75000000  0.25648000  0.10737900  1
  O  O0  1  0.25000000  0.25594900  0.86107300  1
  O  O1  1  0.25000000  0.75594900  0.63892700  1
  O  O2  1  0.75000000  0.74405100  0.13892700  1
  O  O3  1  0.75000000  0.24405100  0.36107300  1
  O  O4  1  0.25000000  0.36908800  0.28303200  1
  O  O5  1  0.25000000  0.86908800  0.21696800  1
  O  O6  1  0.75000000  0.63091200  0.71696800  1
  O  O7  1  0.75000000  0.13091200  0.78303200  1
  O  O8  1  0.25000000  0.46277400  0.61537100  1
  O  O9  1  0.25000000  0.96277400  0.88462900  1
  O  O10  1  0.75000000  0.53722600  0.38462900  1
  O  O11  1  0.75000000  0.03722600  0.11537100  1
  O  O12  1  0.03877700  0.35454800  0.70803300  1
  O  O13  1  0.46122300  0.85454800  0.79196700  1
  O  O14  1  0.53877700  0.64545200  0.29196700  1
  O  O15  1  0.96122300  0.14545200  0.20803300  1
  O  O16  1  0.96122300  0.64545200  0.29196700  1
  O  O17  1  0.53877700  0.14545200  0.20803300  1
  O  O18  1  0.46122300  0.35454800  0.70803300  1
  O  O19  1  0.03877700  0.85454800  0.79196700  1
  O  O20  1  0.25000000  0.11815300  0.72003600  1
  O  O21  1  0.25000000  0.61815300  0.77996400  1
  O  O22  1  0.75000000  0.88184700  0.27996400  1
  O  O23  1  0.75000000  0.38184700  0.22003600  1
  O  O24  1  0.04157000  0.04798600  0.61227300  1
  O  O25  1  0.45843000  0.54798600  0.88772700  1
  O  O26  1  0.54157000  0.95201400  0.38772700  1
  O  O27  1  0.95843000  0.45201400  0.11227300  1
  O  O28  1  0.95843000  0.95201400  0.38772700  1
  O  O29  1  0.54157000  0.45201400  0.11227300  1
  O  O30  1  0.45843000  0.04798600  0.61227300  1
  O  O31  1  0.04157000  0.54798600  0.88772700  1
  O  O32  1  0.25000000  0.15014000  0.48314500  1
  O  O33  1  0.25000000  0.65014000  0.01685500  1
  O  O34  1  0.75000000  0.84986000  0.51685500  1
  O  O35  1  0.75000000  0.34986000  0.98314500  1
  O  O36  1  0.03952300  0.33136100  0.49866700  1
  O  O37  1  0.46047700  0.83136100  0.00133300  1
  O  O38  1  0.53952300  0.66863900  0.50133300  1
  O  O39  1  0.96047700  0.16863900  0.99866700  1
  O  O40  1  0.96047700  0.66863900  0.50133300  1
  O  O41  1  0.53952300  0.16863900  0.99866700  1
  O  O42  1  0.46047700  0.33136100  0.49866700  1
  O  O43  1  0.03952300  0.83136100  0.00133300  1
loop_
_geom_bond_atom_site_label_1
_geom_bond_atom_site_label_2
_geom_bond_distance
_geom_bond_site_symmetry_2
K0 O29 2.846109 1_556
K0 O27 2.846109 1_456
K0 O0 2.889544 1_555
K0 O31 2.945073 1_555
K0 O25 2.945073 1_555
K0 O35 2.964168 1_455
K0 O35 2.964168 1_555
K0 O33 3.031657 1_556
K0 O39 3.049437 1_455
K0 O41 3.049437 1_555
K1 O26 2.846109 1_555
K1 O28 2.846109 1_455
K1 O1 2.889544 1_555
K1 O30 2.945073 1_565
K1 O24 2.945073 1_565
K1 O34 2.964168 1_455
K1 O34 2.964168 1_555
K1 O32 3.031657 1_565
K1 O38 3.049437 1_555
K1 O40 3.049437 1_455
K2 O25 2.846109 1_554
K2 O31 2.846109 1_654
K2 O2 2.889544 1_555
K2 O29 2.945073 1_555
K2 O27 2.945073 1_555
K2 O33 2.964168 1_655
K2 O33 2.964168 1_555
K2 O35 3.031657 1_554
K2 O37 3.049437 1_555
K2 O43 3.049437 1_655
K3 O30 2.846109 1_555
K3 O24 2.846109 1_655
K3 O3 2.889544 1_555
K3 O26 2.945073 1_545
K3 O28 2.945073 1_545
K3 O32 2.964168 1_555
K3 O32 2.964168 1_655
K3 O34 3.031657 1_545
K3 O36 3.049437 1_655
K3 O42 3.049437 1_555
K4 O17 2.678826 1_555
K4 O15 2.678826 1_455
K4 O28 2.847156 1_445
K4 O26 2.847156 1_545
K4 O4 2.964537 1_555
K4 O32 3.016539 1_555
K4 O3 3.346658 1_555
K4 O3 3.346658 1_455
K5 O14 2.678826 1_555
K5 O16 2.678826 1_455
K5 O27 2.847156 1_455
K5 O29 2.847156 1_555
K5 O5 2.964537 1_555
K5 O33 3.016539 1_555
K5 O2 3.346658 1_555
K5 O2 3.346658 1_455
K6 O13 2.678826 1_555
K6 O19 2.678826 1_655
K6 O30 2.847156 1_565
K6 O24 2.847156 1_665
K6 O6 2.964537 1_555
K6 O34 3.016539 1_555
K6 O1 3.346658 1_655
K6 O1 3.346658 1_555
K7 O18 2.678826 1_555
K7 O12 2.678826 1_655
K7 O25 2.847156 1_555
K7 O31 2.847156 1_655
K7 O7 2.964537 1_555
K7 O35 3.016539 1_555
K7 O0 3.346658 1_655
K7 O0 3.346658 1_555
K8 O36 2.868192 1_655
K8 O42 2.868192 1_555
K8 O8 2.970891 1_655
K8 O8 2.970891 1_555
K8 O6 2.984030 1_555
K8 O38 2.995260 1_555
K8 O40 2.995260 1_555
K8 O18 3.112047 1_555
K8 O12 3.112047 1_655
K9 O37 2.868192 1_556
K9 O43 2.868192 1_656
K9 O9 2.970891 1_555
K9 O9 2.970891 1_655
K9 O7 2.984030 1_565
K9 O39 2.995260 1_565
K9 O41 2.995260 1_565
K9 O13 3.112047 1_555
K9 O19 3.112047 1_655
K10 O38 2.868192 1_555
K10 O40 2.868192 1_455
K10 O10 2.970891 1_555
K10 O10 2.970891 1_455
K10 O4 2.984030 1_555
K10 O36 2.995260 1_555
K10 O42 2.995260 1_555
K10 O14 3.112047 1_555
K10 O16 3.112047 1_455
K11 O41 2.868192 1_554
K11 O39 2.868192 1_454
K11 O11 2.970891 1_455
K11 O11 2.970891 1_555
K11 O5 2.984030 1_545
K11 O37 2.995260 1_545
K11 O43 2.995260 1_545
K11 O17 3.112047 1_555
K11 O15 3.112047 1_455
N0 S8 1.713283 1_555
N0 S4 1.751713 1_555
N0 S0 1.780561 1_555
N1 S9 1.713283 1_555
N1 S5 1.751713 1_555
N1 S1 1.780561 1_555
N2 S10 1.713283 1_555
N2 S6 1.751713 1_555
N2 S2 1.780561 1_555
N3 S11 1.713283 1_555
N3 S7 1.751713 1_555
N3 S3 1.780561 1_555
O8 S0 1.456887 1_555
O9 S1 1.456887 1_555
O10 S2 1.456887 1_555
O11 S3 1.456887 1_555
O12 S0 1.456012 1_555
O13 S1 1.456012 1_555
O14 S2 1.456012 1_555
O15 S3 1.456012 1_555
O16 S2 1.456012 1_555
O17 S3 1.456012 1_555
O18 S0 1.456012 1_555
O19 S1 1.456012 1_555
O20 S4 1.441497 1_555
O21 S5 1.441497 1_555
O22 S6 1.441497 1_555
O23 S7 1.441497 1_555
O24 S4 1.472558 1_555
O25 S5 1.472558 1_555
O26 S6 1.472558 1_555
O27 S7 1.472558 1_555
O28 S6 1.472558 1_555
O29 S7 1.472558 1_555
O30 S4 1.472558 1_555
O31 S5 1.472558 1_555
O32 S8 1.468197 1_555
O33 S9 1.468197 1_554
O34 S10 1.468197 1_555
O35 S11 1.468197 1_556
O36 S8 1.467437 1_555
O37 S9 1.467437 1_554
O38 S10 1.467437 1_555
O39 S11 1.467437 1_556
O40 S10 1.467437 1_555
O41 S11 1.467437 1_556
O42 S8 1.467437 1_555
O43 S9 1.467437 1_554
