# generated using pymatgen
data_Ho2Fe5Co12
_symmetry_space_group_name_H-M   'P 1'
_cell_length_a   8.11941400
_cell_length_b   8.35151337
_cell_length_c   8.35151337
_cell_angle_alpha   119.96637178
_cell_angle_beta   90.00000000
_cell_angle_gamma   90.00000000
_symmetry_Int_Tables_number   1
_chemical_formula_structural   Ho2Fe5Co12
_chemical_formula_sum   'Ho4 Fe10 Co24'
_cell_volume   490.60587472
_cell_formula_units_Z   2
loop_
 _symmetry_equiv_pos_site_id
 _symmetry_equiv_pos_as_xyz
  1  'x, y, z'
loop_
 _atom_site_type_symbol
 _atom_site_label
 _atom_site_symmetry_multiplicity
 _atom_site_fract_x
 _atom_site_fract_y
 _atom_site_fract_z
 _atom_site_occupancy
  Ho  Ho0  1  0.75000000  0.99998900  0.00001100  1
  Ho  Ho1  1  0.25000000  0.00001100  0.99998900  1
  Ho  Ho2  1  0.25000000  0.66664700  0.33335300  1
  Ho  Ho3  1  0.75000000  0.33335300  0.66664700  1
  Fe  Fe0  1  0.60625800  0.66678100  0.33321900  1
  Fe  Fe1  1  0.39374200  0.33321900  0.66678100  1
  Fe  Fe2  1  0.10625800  0.33321900  0.66678100  1
  Fe  Fe3  1  0.89374200  0.66678100  0.33321900  1
  Fe  Fe4  1  0.50000000  0.50000000  0.00000000  1
  Fe  Fe5  1  0.50000000  0.50000000  0.50000000  1
  Fe  Fe6  1  0.50000000  0.00000000  0.50000000  1
  Fe  Fe7  1  0.00000000  0.50000000  0.00000000  1
  Fe  Fe8  1  0.00000000  0.50000000  0.50000000  1
  Fe  Fe9  1  0.00000000  0.00000000  0.50000000  1
  Co  Co0  1  0.75000000  0.67328200  0.04576800  1
  Co  Co1  1  0.75000000  0.37249200  0.32667200  1
  Co  Co2  1  0.75000000  0.95424200  0.62748100  1
  Co  Co3  1  0.75000000  0.37251900  0.04575800  1
  Co  Co4  1  0.75000000  0.95423200  0.32671800  1
  Co  Co5  1  0.75000000  0.67332800  0.62750800  1
  Co  Co6  1  0.25000000  0.32671800  0.95423200  1
  Co  Co7  1  0.25000000  0.62750800  0.67332800  1
  Co  Co8  1  0.25000000  0.04575800  0.37251900  1
  Co  Co9  1  0.25000000  0.62748100  0.95424200  1
  Co  Co10  1  0.25000000  0.04576800  0.67328200  1
  Co  Co11  1  0.25000000  0.32667200  0.37249200  1
  Co  Co12  1  0.48245600  0.83605600  0.67208300  1
  Co  Co13  1  0.48260600  0.83615900  0.16384100  1
  Co  Co14  1  0.48245600  0.32791700  0.16394400  1
  Co  Co15  1  0.51754400  0.16394400  0.32791700  1
  Co  Co16  1  0.51739400  0.16384100  0.83615900  1
  Co  Co17  1  0.51754400  0.67208300  0.83605600  1
  Co  Co18  1  0.98245600  0.16394400  0.32791700  1
  Co  Co19  1  0.98260600  0.16384100  0.83615900  1
  Co  Co20  1  0.98245600  0.67208300  0.83605600  1
  Co  Co21  1  0.01754400  0.83605600  0.67208300  1
  Co  Co22  1  0.01739400  0.83615900  0.16384100  1
  Co  Co23  1  0.01754400  0.32791700  0.16394400  1
loop_
_geom_bond_atom_site_label_1
_geom_bond_atom_site_label_2
_geom_bond_distance
_geom_bond_site_symmetry_2
Fe0 Fe3 2.334202 1_555
Fe0 Fe4 2.560588 1_555
Fe0 Fe6 2.560588 1_565
Fe0 Fe5 2.561769 1_555
Fe0 Ho2 2.892607 1_555
Fe1 Fe2 2.334202 1_555
Fe1 Fe6 2.560588 1_555
Fe1 Fe4 2.560588 1_556
Fe1 Fe5 2.561769 1_555
Fe1 Ho3 2.892607 1_555
Fe2 Fe9 2.560588 1_555
Fe2 Fe7 2.560588 1_556
Fe2 Fe8 2.561769 1_555
Fe2 Ho3 2.892607 1_455
Fe3 Fe7 2.560588 1_655
Fe3 Fe9 2.560588 1_665
Fe3 Fe8 2.561769 1_655
Fe3 Ho2 2.892607 1_655
Fe4 Ho2 3.152340 1_555
Fe4 Ho3 3.152340 1_554
Fe5 Ho3 3.151076 1_555
Fe5 Ho2 3.151076 1_555
Fe6 Ho2 3.152340 1_545
Fe6 Ho3 3.152340 1_555
Fe7 Ho2 3.152340 1_555
Fe7 Ho3 3.152340 1_454
Fe8 Ho3 3.151076 1_455
Fe8 Ho2 3.151076 1_555
Fe9 Ho2 3.152340 1_545
Fe9 Ho3 3.152340 1_455
Co0 Co4 2.347550 1_555
Co0 Fe4 2.410002 1_555
Co0 Fe7 2.410002 1_655
Co0 Co22 2.489241 1_655
Co0 Co13 2.489241 1_555
Co0 Co3 2.511785 1_555
Co0 Co20 2.571445 1_554
Co0 Co17 2.571445 1_554
Co0 Fe3 2.694142 1_555
Co0 Fe0 2.694142 1_555
Co0 Ho0 2.938084 1_555
Co0 Ho3 3.017443 1_554
Co1 Co3 2.346170 1_555
Co1 Fe5 2.410349 1_555
Co1 Fe8 2.410349 1_655
Co1 Co14 2.489782 1_555
Co1 Co23 2.489782 1_655
Co1 Co5 2.513713 1_555
Co1 Co15 2.571768 1_555
Co1 Co18 2.571768 1_555
Co1 Fe3 2.696561 1_555
Co1 Fe0 2.696561 1_555
Co1 Ho0 2.939773 1_545
Co1 Ho3 3.015898 1_555
Co2 Co5 2.346170 1_555
Co2 Fe6 2.409624 1_565
Co2 Fe9 2.409624 1_665
Co2 Co21 2.489812 1_655
Co2 Co4 2.511785 1_555
Co2 Fe3 2.696522 1_555
Co2 Fe0 2.696522 1_555
Co2 Ho0 2.939052 1_556
Co2 Ho3 3.016110 1_565
Co3 Fe4 2.409624 1_555
Co3 Fe7 2.409624 1_655
Co3 Fe3 2.696522 1_555
Co3 Fe0 2.696522 1_555
Co3 Ho0 2.939052 1_545
Co3 Ho3 3.016110 1_554
Co4 Fe9 2.410002 1_665
Co4 Fe6 2.410002 1_565
Co4 Fe3 2.694142 1_555
Co4 Fe0 2.694142 1_555
Co4 Ho0 2.938084 1_555
Co4 Ho3 3.017443 1_565
Co5 Fe8 2.410349 1_655
Co5 Fe5 2.410349 1_555
Co5 Fe3 2.696561 1_555
Co5 Fe0 2.696561 1_555
Co5 Ho0 2.939773 1_556
Co5 Ho3 3.015898 1_555
Co6 Fe7 2.410002 1_556
Co6 Fe4 2.410002 1_556
Co6 Co9 2.511785 1_555
Co6 Fe1 2.694142 1_555
Co6 Fe2 2.694142 1_555
Co6 Ho1 2.938084 1_555
Co6 Ho2 3.017443 1_556
Co7 Co9 2.346170 1_555
Co7 Fe8 2.410349 1_555
Co7 Fe5 2.410349 1_555
Co7 Fe1 2.696561 1_555
Co7 Fe2 2.696561 1_555
Co7 Ho1 2.939773 1_565
Co7 Ho2 3.015898 1_555
Co8 Fe9 2.409624 1_555
Co8 Fe6 2.409624 1_555
Co8 Fe1 2.696522 1_555
Co8 Fe2 2.696522 1_555
Co8 Ho1 2.939052 1_554
Co8 Ho2 3.016110 1_545
Co9 Fe4 2.409624 1_556
Co9 Fe7 2.409624 1_556
Co9 Fe1 2.696522 1_555
Co9 Fe2 2.696522 1_555
Co9 Ho1 2.939052 1_565
Co9 Ho2 3.016110 1_556
Co10 Co6 2.347550 1_555
Co10 Fe9 2.410002 1_555
Co10 Fe6 2.410002 1_555
Co10 Co16 2.489241 1_555
Co10 Co19 2.489241 1_455
Co10 Co8 2.511785 1_555
Co10 Co21 2.571445 1_545
Co10 Co12 2.571445 1_545
Co10 Fe1 2.694142 1_555
Co10 Fe2 2.694142 1_555
Co10 Ho1 2.938084 1_555
Co10 Ho2 3.017443 1_545
Co11 Co8 2.346170 1_555
Co11 Fe8 2.410349 1_555
Co11 Fe5 2.410349 1_555
Co11 Co18 2.489782 1_455
Co11 Co15 2.489782 1_555
Co11 Co7 2.513713 1_555
Co11 Co14 2.571768 1_555
Co11 Co23 2.571768 1_555
Co11 Fe1 2.696561 1_555
Co11 Fe2 2.696561 1_555
Co11 Ho1 2.939773 1_554
Co11 Ho2 3.015898 1_555
Co12 Co16 2.388456 1_565
Co12 Co17 2.388559 1_555
Co12 Fe6 2.434354 1_565
Co12 Fe5 2.435814 1_555
Co12 Co5 2.489782 1_555
Co12 Co2 2.489812 1_555
Co12 Co7 2.571768 1_555
Co12 Fe0 2.649771 1_555
Co12 Ho1 3.031617 1_565
Co12 Ho2 3.093285 1_555
Co12 Ho0 3.216837 1_556
Co13 Co15 2.388456 1_565
Co13 Co17 2.388456 1_554
Co13 Fe4 2.436469 1_555
Co13 Fe6 2.436469 1_565
Co13 Co4 2.489241 1_555
Co13 Co8 2.573080 1_565
Co13 Co9 2.573080 1_554
Co13 Fe0 2.647434 1_555
Co13 Ho1 3.030289 1_564
Co13 Ho2 3.094726 1_555
Co13 Ho0 3.213696 1_555
Co14 Co16 2.388456 1_554
Co14 Co15 2.388559 1_555
Co14 Fe4 2.434354 1_555
Co14 Fe5 2.435814 1_555
Co14 Co3 2.489812 1_555
Co14 Co6 2.571445 1_554
Co14 Fe0 2.649771 1_555
Co14 Ho1 3.031617 1_554
Co14 Ho2 3.093285 1_555
Co14 Ho0 3.216837 1_545
Co15 Fe6 2.434354 1_555
Co15 Fe5 2.435814 1_555
Co15 Co8 2.489812 1_555
Co15 Co4 2.571445 1_545
Co15 Fe1 2.649771 1_555
Co15 Ho0 3.031617 1_545
Co15 Ho3 3.093285 1_555
Co15 Ho1 3.216837 1_554
Co16 Fe4 2.436469 1_556
Co16 Fe6 2.436469 1_555
Co16 Co6 2.489241 1_555
Co16 Co3 2.573080 1_556
Co16 Co2 2.573080 1_545
Co16 Fe1 2.647434 1_555
Co16 Ho0 3.030289 1_546
Co16 Ho3 3.094726 1_555
Co16 Ho1 3.213696 1_555
Co17 Fe4 2.434354 1_556
Co17 Fe5 2.435814 1_555
Co17 Co7 2.489782 1_555
Co17 Co9 2.489812 1_555
Co17 Co5 2.571768 1_555
Co17 Fe1 2.649771 1_555
Co17 Ho0 3.031617 1_556
Co17 Ho3 3.093285 1_555
Co17 Ho1 3.216837 1_565
Co18 Co22 2.388456 1_645
Co18 Co23 2.388559 1_655
Co18 Fe9 2.434354 1_655
Co18 Fe8 2.435814 1_655
Co18 Co8 2.489812 1_655
Co18 Co4 2.571445 1_545
Co18 Fe2 2.649771 1_655
Co18 Ho0 3.031617 1_545
Co18 Ho3 3.093285 1_555
Co18 Ho1 3.216837 1_654
Co19 Co23 2.388456 1_656
Co19 Co21 2.388456 1_645
Co19 Fe9 2.436469 1_655
Co19 Fe7 2.436469 1_656
Co19 Co6 2.489241 1_655
Co19 Co3 2.573080 1_556
Co19 Co2 2.573080 1_545
Co19 Fe2 2.647434 1_655
Co19 Ho0 3.030289 1_546
Co19 Ho3 3.094726 1_555
Co19 Ho1 3.213696 1_655
Co20 Co22 2.388456 1_656
Co20 Co21 2.388559 1_655
Co20 Fe7 2.434354 1_656
Co20 Fe8 2.435814 1_655
Co20 Co7 2.489782 1_655
Co20 Co9 2.489812 1_655
Co20 Co5 2.571768 1_555
Co20 Fe2 2.649771 1_655
Co20 Ho0 3.031617 1_556
Co20 Ho3 3.093285 1_555
Co20 Ho1 3.216837 1_665
Co21 Fe9 2.434354 1_565
Co21 Fe8 2.435814 1_555
Co21 Co5 2.489782 1_455
Co21 Co7 2.571768 1_555
Co21 Fe3 2.649771 1_455
Co21 Ho1 3.031617 1_565
Co21 Ho2 3.093285 1_555
Co21 Ho0 3.216837 1_456
Co22 Fe9 2.436469 1_565
Co22 Fe7 2.436469 1_555
Co22 Co4 2.489241 1_455
Co22 Co8 2.573080 1_565
Co22 Co9 2.573080 1_554
Co22 Fe3 2.647434 1_455
Co22 Ho1 3.030289 1_564
Co22 Ho2 3.094726 1_555
Co22 Ho0 3.213696 1_455
Co23 Fe7 2.434354 1_555
Co23 Fe8 2.435814 1_555
Co23 Co3 2.489812 1_455
Co23 Co6 2.571445 1_554
Co23 Fe3 2.649771 1_455
Co23 Ho1 3.031617 1_554
Co23 Ho2 3.093285 1_555
Co23 Ho0 3.216837 1_445
