# generated using pymatgen
data_Dy2B3O8
_symmetry_space_group_name_H-M   'P 1'
_cell_length_a   4.38654200
_cell_length_b   8.94267300
_cell_length_c   12.93673900
_cell_angle_alpha   90.00000000
_cell_angle_beta   90.00000000
_cell_angle_gamma   90.00000000
_symmetry_Int_Tables_number   1
_chemical_formula_structural   Dy2B3O8
_chemical_formula_sum   'Dy8 B12 O32'
_cell_volume   507.47477396
_cell_formula_units_Z   4
loop_
 _symmetry_equiv_pos_site_id
 _symmetry_equiv_pos_as_xyz
  1  'x, y, z'
loop_
 _atom_site_type_symbol
 _atom_site_label
 _atom_site_symmetry_multiplicity
 _atom_site_fract_x
 _atom_site_fract_y
 _atom_site_fract_z
 _atom_site_occupancy
  Dy  Dy0  1  0.94933000  0.03868800  0.13919000  1
  Dy  Dy1  1  0.55067000  0.53868800  0.36081000  1
  Dy  Dy2  1  0.55067000  0.96131200  0.63919000  1
  Dy  Dy3  1  0.94933000  0.46131200  0.86081000  1
  Dy  Dy4  1  0.05067000  0.96131200  0.86081000  1
  Dy  Dy5  1  0.44933000  0.46131200  0.63919000  1
  Dy  Dy6  1  0.44933000  0.03868800  0.36081000  1
  Dy  Dy7  1  0.05067000  0.53868800  0.13919000  1
  B  B0  1  0.56484000  0.75000000  0.00000000  1
  B  B1  1  0.93516000  0.25000000  0.50000000  1
  B  B2  1  0.43516000  0.25000000  0.00000000  1
  B  B3  1  0.06484000  0.75000000  0.50000000  1
  B  B4  1  0.97811400  0.80279700  0.30695900  1
  B  B5  1  0.52188600  0.30279700  0.19304100  1
  B  B6  1  0.52188600  0.19720300  0.80695900  1
  B  B7  1  0.97811400  0.69720300  0.69304100  1
  B  B8  1  0.02188600  0.19720300  0.69304100  1
  B  B9  1  0.47811400  0.69720300  0.80695900  1
  B  B10  1  0.47811400  0.80279700  0.19304100  1
  B  B11  1  0.02188600  0.30279700  0.30695900  1
  O  O0  1  0.96260900  0.96461300  0.31149800  1
  O  O1  1  0.53739100  0.46461300  0.18850200  1
  O  O2  1  0.53739100  0.03538700  0.81149800  1
  O  O3  1  0.96260900  0.53538700  0.68850200  1
  O  O4  1  0.03739100  0.03538700  0.68850200  1
  O  O5  1  0.46260900  0.53538700  0.81149800  1
  O  O6  1  0.46260900  0.96461300  0.18850200  1
  O  O7  1  0.03739100  0.46461300  0.31149800  1
  O  O8  1  0.79282500  0.74608300  0.21674000  1
  O  O9  1  0.70717500  0.24608300  0.28326000  1
  O  O10  1  0.70717500  0.25391700  0.71674000  1
  O  O11  1  0.79282500  0.75391700  0.78326000  1
  O  O12  1  0.20717500  0.25391700  0.78326000  1
  O  O13  1  0.29282500  0.75391700  0.71674000  1
  O  O14  1  0.29282500  0.74608300  0.28326000  1
  O  O15  1  0.20717500  0.24608300  0.21674000  1
  O  O16  1  0.36635600  0.76031600  0.90636800  1
  O  O17  1  0.13364400  0.26031600  0.59363200  1
  O  O18  1  0.13364400  0.23968400  0.40636800  1
  O  O19  1  0.36635600  0.73968400  0.09363200  1
  O  O20  1  0.63364400  0.23968400  0.09363200  1
  O  O21  1  0.86635600  0.73968400  0.40636800  1
  O  O22  1  0.86635600  0.76031600  0.59363200  1
  O  O23  1  0.63364400  0.26031600  0.90636800  1
  O  O24  1  0.77919800  0.62252100  0.99530400  1
  O  O25  1  0.72080200  0.12252100  0.50469600  1
  O  O26  1  0.72080200  0.37747900  0.49530400  1
  O  O27  1  0.77919800  0.87747900  0.00469600  1
  O  O28  1  0.22080200  0.37747900  0.00469600  1
  O  O29  1  0.27919800  0.87747900  0.49530400  1
  O  O30  1  0.27919800  0.62252100  0.50469600  1
  O  O31  1  0.22080200  0.12252100  0.99530400  1
loop_
_geom_bond_atom_site_label_1
_geom_bond_atom_site_label_2
_geom_bond_distance
_geom_bond_site_symmetry_2
Dy0 O6 2.324671 1_545
Dy0 O0 2.326179 1_545
Dy0 O31 2.333445 1_654
Dy0 O20 2.344300 1_555
Dy0 O27 2.379616 1_545
Dy0 O15 2.392813 1_655
Dy0 O6 2.432101 1_645
Dy1 O7 2.324671 1_655
Dy1 O1 2.326179 1_555
Dy1 O30 2.333445 1_555
Dy1 O21 2.344300 1_555
Dy1 O26 2.379616 1_555
Dy1 O14 2.392813 1_555
Dy1 O7 2.432101 1_555
Dy2 O4 2.324671 1_665
Dy2 O2 2.326179 1_565
Dy2 O29 2.333445 1_555
Dy2 O22 2.344300 1_555
Dy2 O25 2.379616 1_565
Dy2 O13 2.392813 1_555
Dy2 O4 2.432101 1_565
Dy3 O5 2.324671 1_555
Dy3 O3 2.326179 1_555
Dy3 O28 2.333445 1_656
Dy3 O23 2.344300 1_555
Dy3 O24 2.379616 1_555
Dy3 O12 2.392813 1_655
Dy3 O5 2.432101 1_655
Dy4 O2 2.324671 1_565
Dy4 O4 2.326179 1_565
Dy4 O27 2.333445 1_456
Dy4 O16 2.344300 1_555
Dy4 O31 2.379616 1_565
Dy4 O11 2.392813 1_455
Dy4 O2 2.432101 1_465
Dy5 O3 2.324671 1_455
Dy5 O5 2.326179 1_555
Dy5 O26 2.333445 1_555
Dy5 O17 2.344300 1_555
Dy5 O30 2.379616 1_555
Dy5 O10 2.392813 1_555
Dy5 O3 2.432101 1_555
Dy6 O0 2.324671 1_445
Dy6 O6 2.326179 1_545
Dy6 O25 2.333445 1_555
Dy6 O18 2.344300 1_555
Dy6 O29 2.379616 1_545
Dy6 O9 2.392813 1_555
Dy6 O0 2.432101 1_545
Dy7 O1 2.324671 1_555
Dy7 O7 2.326179 1_555
Dy7 O24 2.333445 1_454
Dy7 O19 2.344300 1_555
Dy7 O28 2.379616 1_555
Dy7 O8 2.392813 1_455
Dy7 O1 2.432101 1_455
B0 O27 1.479001 1_555
B0 O24 1.479001 1_554
B0 O19 1.494586 1_555
B0 O16 1.494586 1_554
B1 O26 1.479001 1_555
B1 O25 1.479001 1_555
B1 O17 1.494586 1_655
B1 O18 1.494586 1_655
B2 O28 1.479001 1_555
B2 O31 1.479001 1_554
B2 O20 1.494586 1_555
B2 O23 1.494586 1_554
B3 O30 1.479001 1_555
B3 O29 1.479001 1_555
B3 O22 1.494586 1_455
B3 O21 1.494586 1_455
B4 O0 1.449855 1_555
B4 O21 1.487529 1_555
B4 O14 1.502326 1_655
B4 O8 1.509983 1_555
B5 O1 1.449855 1_555
B5 O20 1.487529 1_555
B5 O15 1.502326 1_555
B5 O9 1.509983 1_555
B6 O2 1.449855 1_555
B6 O23 1.487529 1_555
B6 O12 1.502326 1_555
B6 O10 1.509983 1_555
B7 O3 1.449855 1_555
B7 O22 1.487529 1_555
B7 O13 1.502326 1_655
B7 O11 1.509983 1_555
B8 O4 1.449855 1_555
B8 O17 1.487529 1_555
B8 O10 1.502326 1_455
B8 O12 1.509983 1_555
B9 O5 1.449855 1_555
B9 O16 1.487529 1_555
B9 O11 1.502326 1_555
B9 O13 1.509983 1_555
B10 O6 1.449855 1_555
B10 O19 1.487529 1_555
B10 O8 1.502326 1_555
B10 O14 1.509983 1_555
B11 O7 1.449855 1_555
B11 O18 1.487529 1_555
B11 O9 1.502326 1_455
B11 O15 1.509983 1_555
