# generated using pymatgen
data_NdNO5
_symmetry_space_group_name_H-M   'P 1'
_cell_length_a   6.66746800
_cell_length_b   3.75025700
_cell_length_c   8.21956936
_cell_angle_alpha   90.00000000
_cell_angle_beta   91.39391990
_cell_angle_gamma   90.00000000
_symmetry_Int_Tables_number   1
_chemical_formula_structural   NdNO5
_chemical_formula_sum   'Nd2 N2 O10'
_cell_volume   205.46719788
_cell_formula_units_Z   2
loop_
 _symmetry_equiv_pos_site_id
 _symmetry_equiv_pos_as_xyz
  1  'x, y, z'
loop_
 _atom_site_type_symbol
 _atom_site_label
 _atom_site_symmetry_multiplicity
 _atom_site_fract_x
 _atom_site_fract_y
 _atom_site_fract_z
 _atom_site_occupancy
  Nd  Nd0  1  0.74771200  0.27096100  0.88036300  1
  Nd  Nd1  1  0.25228800  0.77096100  0.11963700  1
  N  N0  1  0.77134700  0.65325300  0.56169700  1
  N  N1  1  0.22865300  0.15325300  0.43830300  1
  O  O0  1  0.90876600  0.76386600  0.03907500  1
  O  O1  1  0.09123400  0.26386600  0.96092500  1
  O  O2  1  0.49313800  0.76475400  0.90905400  1
  O  O3  1  0.50686200  0.26475400  0.09094600  1
  O  O4  1  0.86137400  0.77520700  0.69605900  1
  O  O5  1  0.13862600  0.27520700  0.30394100  1
  O  O6  1  0.64913900  0.39856200  0.58439100  1
  O  O7  1  0.35086100  0.89856200  0.41560900  1
  O  O8  1  0.80896900  0.77739700  0.42949900  1
  O  O9  1  0.19103100  0.27739700  0.57050100  1
loop_
_geom_bond_atom_site_label_1
_geom_bond_atom_site_label_2
_geom_bond_distance
_geom_bond_site_symmetry_2
Nd0 O1 2.368848 1_655
Nd0 O3 2.389682 1_556
Nd0 O0 2.490744 1_556
Nd0 O4 2.526210 1_545
Nd0 O2 2.526952 1_555
Nd0 O0 2.530490 1_546
Nd0 O4 2.549740 1_555
Nd0 O6 2.549803 1_555
Nd0 O2 2.561265 1_545
Nd1 O0 2.368848 1_455
Nd1 O2 2.389682 1_554
Nd1 O1 2.490744 1_564
Nd1 O5 2.526210 1_555
Nd1 O3 2.526952 1_565
Nd1 O1 2.530490 1_554
Nd1 O5 2.549740 1_565
Nd1 O7 2.549803 1_555
Nd1 O3 2.561265 1_555
N0 O8 1.213945 1_555
N0 O6 1.272180 1_555
N0 O4 1.325489 1_555
N1 O9 1.213945 1_555
N1 O7 1.272180 1_545
N1 O5 1.325489 1_555
