# generated using pymatgen
data_Zn3Bi3N5
_symmetry_space_group_name_H-M   'P 1'
_cell_length_a   6.40323167
_cell_length_b   6.32081099
_cell_length_c   9.49706766
_cell_angle_alpha   92.95931515
_cell_angle_beta   99.77503044
_cell_angle_gamma   86.86881169
_symmetry_Int_Tables_number   1
_chemical_formula_structural   Zn3Bi3N5
_chemical_formula_sum   'Zn6 Bi6 N10'
_cell_volume   377.88420693
_cell_formula_units_Z   2
loop_
 _symmetry_equiv_pos_site_id
 _symmetry_equiv_pos_as_xyz
  1  'x, y, z'
loop_
 _atom_site_type_symbol
 _atom_site_label
 _atom_site_symmetry_multiplicity
 _atom_site_fract_x
 _atom_site_fract_y
 _atom_site_fract_z
 _atom_site_occupancy
  Zn  Zn0  1  0.89856100  0.29764200  0.95571700  1
  Zn  Zn1  1  0.10143900  0.70235800  0.04428300  1
  Zn  Zn2  1  0.68268700  0.88485000  0.48533000  1
  Zn  Zn3  1  0.31731300  0.11515000  0.51467000  1
  Zn  Zn4  1  0.05235500  0.90442000  0.71860000  1
  Zn  Zn5  1  0.94764500  0.09558000  0.28140000  1
  Bi  Bi0  1  0.80320100  0.38414000  0.57793300  1
  Bi  Bi1  1  0.19679900  0.61586000  0.42206700  1
  Bi  Bi2  1  0.54396800  0.87635400  0.83995800  1
  Bi  Bi3  1  0.45603200  0.12364600  0.16004200  1
  Bi  Bi4  1  0.69204400  0.61331100  0.16536300  1
  Bi  Bi5  1  0.30795600  0.38668900  0.83463700  1
  N  N0  1  0.99561500  0.21348500  0.77007200  1
  N  N1  1  0.00438500  0.78651500  0.22992800  1
  N  N2  1  0.94091000  0.71691800  0.54952900  1
  N  N3  1  0.05909000  0.28308200  0.45047100  1
  N  N4  1  0.76110900  0.61755500  0.94456800  1
  N  N5  1  0.23889100  0.38244500  0.05543200  1
  N  N6  1  0.44866100  0.84841200  0.60388000  1
  N  N7  1  0.55133900  0.15158800  0.39612000  1
  N  N8  1  0.23473900  0.73723400  0.87014500  1
  N  N9  1  0.76526100  0.26276600  0.12985500  1
loop_
_geom_bond_atom_site_label_1
_geom_bond_atom_site_label_2
_geom_bond_distance
_geom_bond_site_symmetry_2
Bi0 N3 2.244422 1_655
Bi0 N0 2.303459 1_555
Bi0 N2 2.369956 1_555
Bi0 N7 2.606598 1_555
Bi1 N2 2.244422 1_455
Bi1 N1 2.303459 1_555
Bi1 N3 2.369956 1_555
Bi1 N6 2.606598 1_555
Bi2 N6 2.221866 1_555
Bi2 N4 2.246426 1_555
Bi2 N8 2.277082 1_555
Bi3 N7 2.221866 1_555
Bi3 N5 2.246426 1_555
Bi3 N9 2.277082 1_555
Bi4 N4 2.217047 1_554
Bi4 N9 2.259651 1_555
Bi4 N1 2.308243 1_655
Bi5 N5 2.217047 1_556
Bi5 N8 2.259651 1_555
Bi5 N0 2.308243 1_455
N0 Zn0 2.004179 1_555
N0 Zn4 2.017783 1_645
N1 Zn1 2.004179 1_555
N1 Zn5 2.017783 1_465
N2 Zn2 1.940401 1_555
N2 Zn4 1.999720 1_655
N3 Zn3 1.940401 1_555
N3 Zn5 1.999720 1_455
N4 Zn0 2.161207 1_555
N4 Zn1 2.303809 1_656
N5 Zn1 2.161207 1_555
N5 Zn0 2.303809 1_454
N6 Zn3 2.004593 1_565
N6 Zn2 2.050265 1_555
N7 Zn2 2.004593 1_545
N7 Zn3 2.050265 1_555
N8 Zn4 2.000866 1_555
N8 Zn1 2.012392 1_556
N9 Zn5 2.000866 1_555
N9 Zn0 2.012392 1_554
