# generated using pymatgen
data_GaBiSe
_symmetry_space_group_name_H-M   'P 1'
_cell_length_a   8.93351800
_cell_length_b   8.81388346
_cell_length_c   8.81388346
_cell_angle_alpha   75.11778749
_cell_angle_beta   59.54996988
_cell_angle_gamma   59.54996988
_symmetry_Int_Tables_number   1
_chemical_formula_structural   GaBiSe
_chemical_formula_sum   'Ga4 Bi4 Se4'
_cell_volume   515.75527259
_cell_formula_units_Z   4
loop_
 _symmetry_equiv_pos_site_id
 _symmetry_equiv_pos_as_xyz
  1  'x, y, z'
loop_
 _atom_site_type_symbol
 _atom_site_label
 _atom_site_symmetry_multiplicity
 _atom_site_fract_x
 _atom_site_fract_y
 _atom_site_fract_z
 _atom_site_occupancy
  Ga  Ga0  1  0.25000000  0.00000000  0.50000000  1
  Ga  Ga1  1  0.75000000  0.00000000  0.50000000  1
  Ga  Ga2  1  0.25000000  0.50000000  0.00000000  1
  Ga  Ga3  1  0.75000000  0.50000000  0.00000000  1
  Bi  Bi0  1  0.88736600  0.50000000  0.22526800  1
  Bi  Bi1  1  0.61263400  0.50000000  0.77473200  1
  Bi  Bi2  1  0.38736600  0.22526800  0.50000000  1
  Bi  Bi3  1  0.11263400  0.77473200  0.50000000  1
  Se  Se0  1  0.88782000  0.22436000  0.50000000  1
  Se  Se1  1  0.61218000  0.77564000  0.50000000  1
  Se  Se2  1  0.11218000  0.50000000  0.77564000  1
  Se  Se3  1  0.38782000  0.50000000  0.22436000  1
loop_
_geom_bond_atom_site_label_1
_geom_bond_atom_site_label_2
_geom_bond_distance
_geom_bond_site_symmetry_2
Ga0 Se0 2.809643 1_455
Ga0 Se1 2.809643 1_545
Ga1 Se1 2.809643 1_545
Ga1 Se0 2.809643 1_555
Ga2 Se2 2.809643 1_554
Ga2 Se3 2.809643 1_555
Ga3 Se2 2.809643 1_654
Ga3 Se3 2.809643 1_555
Bi0 Ga3 2.813834 1_555
Bi0 Ga2 2.813834 1_655
Bi0 Se0 2.957008 1_555
Bi0 Se1 2.957008 1_555
Bi1 Ga3 2.813834 1_556
Bi1 Ga2 2.813834 1_556
Bi1 Se0 2.957008 1_555
Bi1 Se1 2.957008 1_555
Bi2 Ga0 2.813834 1_555
Bi2 Ga1 2.813834 1_555
Bi2 Se3 2.957008 1_555
Bi2 Se2 2.957008 1_555
Bi3 Ga1 2.813834 1_465
Bi3 Ga0 2.813834 1_565
Bi3 Se3 2.957008 1_555
Bi3 Se2 2.957008 1_555
