# generated using pymatgen
data_Tb(TiGa2)2
_symmetry_space_group_name_H-M   'P 1'
_cell_length_a   5.44732200
_cell_length_b   5.51695519
_cell_length_c   5.51695519
_cell_angle_alpha   75.89326648
_cell_angle_beta   60.41665053
_cell_angle_gamma   60.41665053
_symmetry_Int_Tables_number   1
_chemical_formula_structural   Tb(TiGa2)2
_chemical_formula_sum   'Tb1 Ti2 Ga4'
_cell_volume   125.38899255
_cell_formula_units_Z   1
loop_
 _symmetry_equiv_pos_site_id
 _symmetry_equiv_pos_as_xyz
  1  'x, y, z'
loop_
 _atom_site_type_symbol
 _atom_site_label
 _atom_site_symmetry_multiplicity
 _atom_site_fract_x
 _atom_site_fract_y
 _atom_site_fract_z
 _atom_site_occupancy
  Tb  Tb0  1  0.00000000  0.00000000  0.00000000  1
  Ti  Ti0  1  0.25000000  0.50000000  0.50000000  1
  Ti  Ti1  1  0.75000000  0.50000000  0.50000000  1
  Ga  Ga0  1  0.30272200  0.39455500  0.00000000  1
  Ga  Ga1  1  0.69727800  0.60544500  0.00000000  1
  Ga  Ga2  1  0.30272300  0.00000000  0.39455400  1
  Ga  Ga3  1  0.69727700  0.00000000  0.60544600  1
loop_
_geom_bond_atom_site_label_1
_geom_bond_atom_site_label_2
_geom_bond_distance
_geom_bond_site_symmetry_2
Ti0 Ti1 2.723661 1_555
Ti0 Ti1 2.723661 1_455
Ga0 Ga3 2.677073 1_554
Ga0 Ga2 2.677073 1_555
Ga0 Ti1 2.804483 1_455
Ga0 Ti0 2.804483 1_554
Ga0 Ti0 2.804486 1_555
Ga0 Ti1 2.804486 1_554
Ga0 Tb0 2.904778 1_565
Ga0 Ga1 2.905518 1_455
Ga0 Ga1 2.905528 1_555
Ga0 Tb0 3.316878 1_555
Ga0 Tb0 3.316883 1_655
Ga1 Ga3 2.677073 1_564
Ga1 Ga2 2.677073 1_565
Ga1 Ti1 2.804483 1_555
Ga1 Ti0 2.804483 1_654
Ga1 Ti0 2.804486 1_555
Ga1 Ti1 2.804486 1_554
Ga1 Tb0 2.904778 1_655
Ga1 Tb0 3.316878 1_665
Ga1 Tb0 3.316883 1_565
Ga2 Ti1 2.804485 1_545
Ga2 Ti0 2.804485 1_555
Ga2 Ti0 2.804485 1_545
Ga2 Ti1 2.804485 1_455
Ga2 Tb0 2.904782 1_556
Ga2 Ga3 2.905527 1_455
Ga2 Ga3 2.905527 1_555
Ga2 Tb0 3.316878 1_655
Ga2 Tb0 3.316878 1_555
Ga3 Ti1 2.804485 1_555
Ga3 Ti0 2.804485 1_645
Ga3 Ti1 2.804485 1_545
Ga3 Ti0 2.804485 1_555
Ga3 Tb0 2.904782 1_655
Ga3 Tb0 3.316878 1_656
Ga3 Tb0 3.316878 1_556
