# generated using pymatgen
data_Mg14TiFeO16
_symmetry_space_group_name_H-M   'P 1'
_cell_length_a   8.60027571
_cell_length_b   8.60027571
_cell_length_c   4.25334585
_cell_angle_alpha   90.00000000
_cell_angle_beta   90.00000000
_cell_angle_gamma   90.00000000
_symmetry_Int_Tables_number   1
_chemical_formula_structural   Mg14TiFeO16
_chemical_formula_sum   'Mg14 Ti1 Fe1 O16'
_cell_volume   314.59762966
_cell_formula_units_Z   1
loop_
 _symmetry_equiv_pos_site_id
 _symmetry_equiv_pos_as_xyz
  1  'x, y, z'
loop_
 _atom_site_type_symbol
 _atom_site_label
 _atom_site_symmetry_multiplicity
 _atom_site_fract_x
 _atom_site_fract_y
 _atom_site_fract_z
 _atom_site_occupancy
  Mg  Mg0  1  0.00000000  0.50000000  0.00000000  1
  Mg  Mg1  1  0.50000000  0.00000000  0.00000000  1
  Mg  Mg2  1  0.00000000  0.25220013  0.50000000  1
  Mg  Mg3  1  0.00000000  0.74779987  0.50000000  1
  Mg  Mg4  1  0.50000000  0.24731015  0.50000000  1
  Mg  Mg5  1  0.50000000  0.75268985  0.50000000  1
  Mg  Mg6  1  0.25220013  0.00000000  0.50000000  1
  Mg  Mg7  1  0.24731015  0.50000000  0.50000000  1
  Mg  Mg8  1  0.74779987  0.00000000  0.50000000  1
  Mg  Mg9  1  0.75268985  0.50000000  0.50000000  1
  Mg  Mg10  1  0.24885744  0.24885744  0.00000000  1
  Mg  Mg11  1  0.24885744  0.75114256  0.00000000  1
  Mg  Mg12  1  0.75114256  0.24885744  0.00000000  1
  Mg  Mg13  1  0.75114256  0.75114256  0.00000000  1
  Ti  Ti0  1  0.50000000  0.50000000  0.00000000  1
  Fe  Fe0  1  0.00000000  0.00000000  0.00000000  1
  O  O0  1  0.25516932  0.00000000  0.00000000  1
  O  O1  1  0.24422293  0.50000000  0.00000000  1
  O  O2  1  0.74483068  0.00000000  0.00000000  1
  O  O3  1  0.75577707  0.50000000  0.00000000  1
  O  O4  1  0.24986307  0.24986307  0.50000000  1
  O  O5  1  0.24986307  0.75013693  0.50000000  1
  O  O6  1  0.75013693  0.24986307  0.50000000  1
  O  O7  1  0.75013693  0.75013693  0.50000000  1
  O  O8  1  0.00000000  0.00000000  0.50000000  1
  O  O9  1  0.00000000  0.50000000  0.50000000  1
  O  O10  1  0.50000000  0.00000000  0.50000000  1
  O  O11  1  0.50000000  0.50000000  0.50000000  1
  O  O12  1  0.00000000  0.25516932  0.00000000  1
  O  O13  1  0.00000000  0.74483068  0.00000000  1
  O  O14  1  0.50000000  0.24422293  0.00000000  1
  O  O15  1  0.50000000  0.75577707  0.00000000  1
loop_
_geom_bond_atom_site_label_1
_geom_bond_atom_site_label_2
_geom_bond_distance
_geom_bond_site_symmetry_2
Mg0 O3 2.100385 1_455
Mg0 O1 2.100385 1_555
Mg0 O13 2.105611 1_555
Mg0 O12 2.105611 1_555
Mg0 O9 2.126673 1_554
Mg0 O9 2.126673 1_555
Mg1 O15 2.100385 1_545
Mg1 O14 2.100385 1_555
Mg1 O2 2.105611 1_555
Mg1 O0 2.105611 1_555
Mg1 O10 2.126673 1_555
Mg1 O10 2.126673 1_554
Mg2 O12 2.126826 1_556
Mg2 O12 2.126826 1_555
Mg2 O9 2.131147 1_555
Mg2 O4 2.148985 1_555
Mg2 O6 2.148985 1_455
Mg2 O8 2.168991 1_555
Mg3 O13 2.126826 1_555
Mg3 O13 2.126826 1_556
Mg3 O9 2.131147 1_555
Mg3 O5 2.148985 1_555
Mg3 O7 2.148985 1_455
Mg3 O8 2.168991 1_565
Mg4 O14 2.126839 1_556
Mg4 O14 2.126839 1_555
Mg4 O10 2.126935 1_555
Mg4 O4 2.151359 1_555
Mg4 O6 2.151359 1_555
Mg4 O11 2.173202 1_555
Mg5 O15 2.126839 1_556
Mg5 O15 2.126839 1_555
Mg5 O10 2.126935 1_565
Mg5 O5 2.151359 1_555
Mg5 O7 2.151359 1_555
Mg5 O11 2.173202 1_555
Mg6 O0 2.126826 1_555
Mg6 O0 2.126826 1_556
Mg6 O10 2.131147 1_555
Mg6 O4 2.148985 1_555
Mg6 O5 2.148985 1_545
Mg6 O8 2.168991 1_555
Mg7 O1 2.126839 1_555
Mg7 O1 2.126839 1_556
Mg7 O9 2.126935 1_555
Mg7 O4 2.151359 1_555
Mg7 O5 2.151359 1_555
Mg7 O11 2.173202 1_555
Mg8 O2 2.126826 1_556
Mg8 O2 2.126826 1_555
Mg8 O10 2.131147 1_555
Mg8 O6 2.148985 1_555
Mg8 O7 2.148985 1_545
Mg8 O8 2.168991 1_655
Mg9 O3 2.126839 1_556
Mg9 O3 2.126839 1_555
Mg9 O9 2.126935 1_655
Mg9 O6 2.151359 1_555
Mg9 O7 2.151359 1_555
Mg9 O11 2.173202 1_555
Mg10 O4 2.126708 1_555
Mg10 O4 2.126708 1_554
Mg10 O12 2.140931 1_555
Mg10 O0 2.140931 1_555
Mg10 O14 2.160263 1_555
Mg10 O1 2.160263 1_555
Mg11 O5 2.126708 1_554
Mg11 O5 2.126708 1_555
Mg11 O0 2.140931 1_565
Mg11 O13 2.140931 1_555
Mg11 O1 2.160263 1_555
Mg11 O15 2.160263 1_555
Mg12 O6 2.126708 1_555
Mg12 O6 2.126708 1_554
Mg12 O12 2.140931 1_655
Mg12 O2 2.140931 1_555
Mg12 O14 2.160263 1_555
Mg12 O3 2.160263 1_555
Mg13 O7 2.126708 1_555
Mg13 O7 2.126708 1_554
Mg13 O2 2.140931 1_565
Mg13 O13 2.140931 1_655
Mg13 O3 2.160263 1_555
Mg13 O15 2.160263 1_555
Fe0 O8 2.126673 1_554
Fe0 O8 2.126673 1_555
Fe0 O12 2.194527 1_555
Fe0 O0 2.194527 1_555
Fe0 O13 2.194527 1_545
Fe0 O2 2.194527 1_455
O1 Ti0 2.199753 1_555
O3 Ti0 2.199753 1_555
O11 Ti0 2.126673 1_555
O11 Ti0 2.126673 1_556
O14 Ti0 2.199753 1_555
O15 Ti0 2.199753 1_555
