# generated using pymatgen
data_MgTi2O4
_symmetry_space_group_name_H-M   'P 1'
_cell_length_a   6.05796811
_cell_length_b   6.05796811
_cell_length_c   6.05796811
_cell_angle_alpha   121.82208519
_cell_angle_beta   119.40990812
_cell_angle_gamma   88.94926485
_symmetry_Int_Tables_number   1
_chemical_formula_structural   MgTi2O4
_chemical_formula_sum   'Mg2 Ti4 O8'
_cell_volume   155.62451048
_cell_formula_units_Z   2
loop_
 _symmetry_equiv_pos_site_id
 _symmetry_equiv_pos_as_xyz
  1  'x, y, z'
loop_
 _atom_site_type_symbol
 _atom_site_label
 _atom_site_symmetry_multiplicity
 _atom_site_fract_x
 _atom_site_fract_y
 _atom_site_fract_z
 _atom_site_occupancy
  Mg  Mg0  1  0.00000000  0.50000000  0.50000000  1
  Mg  Mg1  1  0.50000000  0.50000000  0.00000000  1
  Ti  Ti0  1  0.12905200  0.87905200  0.25000000  1
  Ti  Ti1  1  0.87094800  0.12094800  0.75000000  1
  Ti  Ti2  1  0.50000000  0.00000000  0.00000000  1
  Ti  Ti3  1  0.50000000  0.50000000  0.50000000  1
  O  O0  1  0.73954700  0.24835200  0.00880500  1
  O  O1  1  0.75014800  0.25260100  0.49754700  1
  O  O2  1  0.73954700  0.73074300  0.49119500  1
  O  O3  1  0.25505400  0.25260100  0.00245300  1
  O  O4  1  0.74494600  0.74739900  0.99754700  1
  O  O5  1  0.24985200  0.74739900  0.50245300  1
  O  O6  1  0.26045300  0.26925700  0.50880500  1
  O  O7  1  0.26045300  0.75164800  0.99119500  1
loop_
_geom_bond_atom_site_label_1
_geom_bond_atom_site_label_2
_geom_bond_distance
_geom_bond_site_symmetry_2
Mg0 O0 2.088386 1_455
Mg0 O7 2.088386 1_555
Mg0 O6 2.088390 1_555
Mg0 O2 2.088390 1_455
Mg0 O5 2.138930 1_555
Mg0 O1 2.138930 1_455
Mg1 O2 2.088386 1_555
Mg1 O6 2.088386 1_554
Mg1 O0 2.088386 1_555
Mg1 O7 2.088386 1_554
Mg1 O3 2.138930 1_555
Mg1 O4 2.138930 1_554
O0 Ti1 1.901187 1_554
O0 Ti2 2.071642 1_555
O1 Ti1 1.917359 1_555
O1 Ti3 2.111436 1_555
O1 Ti2 2.111436 1_555
O2 Ti1 1.901182 1_565
O2 Ti3 2.071647 1_555
O3 Ti1 1.917359 1_454
O3 Ti3 2.111436 1_555
O3 Ti2 2.111436 1_555
O4 Ti0 1.917359 1_656
O4 Ti3 2.111436 1_555
O4 Ti2 2.111436 1_566
O5 Ti0 1.917359 1_555
O5 Ti2 2.111436 1_566
O5 Ti3 2.111436 1_555
O6 Ti0 1.901182 1_545
O6 Ti3 2.071647 1_555
O7 Ti0 1.901187 1_556
O7 Ti2 2.071642 1_566
