# generated using pymatgen
data_HPtN5Cl4
_symmetry_space_group_name_H-M   'P 1'
_cell_length_a   11.25045219
_cell_length_b   11.25045219
_cell_length_c   11.25045263
_cell_angle_alpha   115.02496498
_cell_angle_beta   115.02496498
_cell_angle_gamma   115.02496781
_symmetry_Int_Tables_number   1
_chemical_formula_structural   HPtN5Cl4
_chemical_formula_sum   'H3 Pt3 N15 Cl12'
_cell_volume   795.13739534
_cell_formula_units_Z   3
loop_
 _symmetry_equiv_pos_site_id
 _symmetry_equiv_pos_as_xyz
  1  'x, y, z'
loop_
 _atom_site_type_symbol
 _atom_site_label
 _atom_site_symmetry_multiplicity
 _atom_site_fract_x
 _atom_site_fract_y
 _atom_site_fract_z
 _atom_site_occupancy
  H  H0  1  0.09984700  0.09984700  0.79768100  1
  H  H1  1  0.79768100  0.09984700  0.09984700  1
  H  H2  1  0.09984700  0.79768100  0.09984700  1
  Pt  Pt0  1  0.28226800  0.28226800  0.64731900  1
  Pt  Pt1  1  0.64731900  0.28226800  0.28226800  1
  Pt  Pt2  1  0.28226800  0.64731900  0.28226800  1
  N  N0  1  0.26515200  0.76855500  0.43095100  1
  N  N1  1  0.43095100  0.26515200  0.76855500  1
  N  N2  1  0.76855500  0.26515200  0.43095100  1
  N  N3  1  0.76855500  0.43095100  0.26515200  1
  N  N4  1  0.26515200  0.43095100  0.76855500  1
  N  N5  1  0.43095100  0.76855500  0.26515200  1
  N  N6  1  0.06899500  0.06899500  0.59689000  1
  N  N7  1  0.59689000  0.06899500  0.06899500  1
  N  N8  1  0.06899500  0.59689000  0.06899500  1
  N  N9  1  0.63119000  0.63119000  0.13915500  1
  N  N10  1  0.13915500  0.63119000  0.63119000  1
  N  N11  1  0.63119000  0.13915500  0.63119000  1
  N  N12  1  0.09169600  0.09169600  0.38476600  1
  N  N13  1  0.38476600  0.09169600  0.09169600  1
  N  N14  1  0.09169600  0.38476600  0.09169600  1
  Cl  Cl0  1  0.60590800  0.60590800  0.25816400  1
  Cl  Cl1  1  0.25816400  0.60590800  0.60590800  1
  Cl  Cl2  1  0.60590800  0.25816400  0.60590800  1
  Cl  Cl3  1  0.51665600  0.51665600  0.70313900  1
  Cl  Cl4  1  0.70313900  0.51665600  0.51665600  1
  Cl  Cl5  1  0.51665600  0.70313900  0.51665600  1
  Cl  Cl6  1  0.18229800  0.03621100  0.73872600  1
  Cl  Cl7  1  0.73872600  0.18229800  0.03621100  1
  Cl  Cl8  1  0.03621100  0.18229800  0.73872600  1
  Cl  Cl9  1  0.03621100  0.73872600  0.18229800  1
  Cl  Cl10  1  0.18229800  0.73872600  0.03621100  1
  Cl  Cl11  1  0.73872600  0.03621100  0.18229800  1
loop_
_geom_bond_atom_site_label_1
_geom_bond_atom_site_label_2
_geom_bond_distance
_geom_bond_site_symmetry_2
N0 Pt2 1.805552 1_555
N1 Pt0 1.805552 1_555
N2 Pt1 1.805552 1_555
N3 Pt1 1.805552 1_555
N4 Pt0 1.805552 1_555
N5 Pt2 1.805552 1_555
N6 Pt0 2.159200 1_555
N7 Pt1 2.159200 1_555
N8 Pt2 2.159200 1_555
N12 Pt0 1.820401 1_555
N13 Pt1 1.820400 1_555
N14 Pt2 1.820400 1_555
Cl0 N9 1.590727 1_555
Cl1 N10 1.590726 1_555
Cl2 N11 1.590726 1_555
Cl3 Pt0 2.369938 1_555
Cl4 Pt1 2.369938 1_555
Cl5 Pt2 2.369938 1_555
Cl6 H0 1.579109 1_555
Cl6 N6 1.866028 1_555
Cl7 H1 1.579109 1_555
Cl7 N7 1.866028 1_555
Cl8 H0 1.579109 1_555
Cl8 N6 1.866028 1_555
Cl9 H2 1.579109 1_555
Cl9 N8 1.866028 1_555
Cl10 H2 1.579109 1_555
Cl10 N8 1.866028 1_555
Cl11 H1 1.579109 1_555
Cl11 N7 1.866028 1_555
