# generated using pymatgen
data_HfZrOs2
_symmetry_space_group_name_H-M   'P 1'
_cell_length_a   9.50214333
_cell_length_b   9.50214333
_cell_length_c   9.50214333
_cell_angle_alpha   118.89484979
_cell_angle_beta   111.29972843
_cell_angle_gamma   98.83268159
_symmetry_Int_Tables_number   1
_chemical_formula_structural   HfZrOs2
_chemical_formula_sum   'Hf1 Zr1 Os2'
_cell_volume   640.36233415
_cell_formula_units_Z   1
loop_
 _symmetry_equiv_pos_site_id
 _symmetry_equiv_pos_as_xyz
  1  'x, y, z'
loop_
 _atom_site_type_symbol
 _atom_site_label
 _atom_site_symmetry_multiplicity
 _atom_site_fract_x
 _atom_site_fract_y
 _atom_site_fract_z
 _atom_site_occupancy
  Hf  Hf0  1  0.00000000  0.50000000  0.50000000  1
  Zr  Zr0  1  0.00000000  0.00000000  0.00000000  1
  Os  Os0  1  0.00000000  0.24934700  0.24934700  1
  Os  Os1  1  0.00000000  0.75065300  0.75065300  1
loop_
_geom_bond_atom_site_label_1
_geom_bond_atom_site_label_2
_geom_bond_distance
_geom_bond_site_symmetry_2
Hf0 Os1 2.421415 1_555
Hf0 Os0 2.421415 1_555
Os0 Zr0 2.408798 1_555
Os1 Zr0 2.408798 1_566
