# generated using pymatgen
data_Li2TiCr3O8
_symmetry_space_group_name_H-M   'P 1'
_cell_length_a   5.93936913
_cell_length_b   10.29981566
_cell_length_c   5.93528874
_cell_angle_alpha   73.50726126
_cell_angle_beta   59.94092843
_cell_angle_gamma   89.88407742
_symmetry_Int_Tables_number   1
_chemical_formula_structural   Li2TiCr3O8
_chemical_formula_sum   'Li4 Ti2 Cr6 O16'
_cell_volume   296.99652124
_cell_formula_units_Z   2
loop_
 _symmetry_equiv_pos_site_id
 _symmetry_equiv_pos_as_xyz
  1  'x, y, z'
loop_
 _atom_site_type_symbol
 _atom_site_label
 _atom_site_symmetry_multiplicity
 _atom_site_fract_x
 _atom_site_fract_y
 _atom_site_fract_z
 _atom_site_occupancy
  Li  Li0  1  0.18883400  0.06303700  0.12174800  1
  Li  Li1  1  0.68397800  0.56457300  0.12572400  1
  Li  Li2  1  0.31117800  0.43695400  0.87826700  1
  Li  Li3  1  0.81600800  0.93541700  0.87425300  1
  Ti  Ti0  1  0.75000800  0.25000100  0.50002200  1
  Ti  Ti1  1  0.24994000  0.74997800  0.50003500  1
  Cr  Cr0  1  0.24999000  0.75004300  0.99998200  1
  Cr  Cr1  1  0.24999700  0.24997800  0.50007000  1
  Cr  Cr2  1  0.74997700  0.75003000  0.49995700  1
  Cr  Cr3  1  0.74999300  0.24998400  0.00001600  1
  Cr  Cr4  1  0.50390000  0.99978100  0.49770600  1
  Cr  Cr5  1  0.99611500  0.50022800  0.50225000  1
  O  O0  1  0.41029700  0.13418900  0.24870100  1
  O  O1  1  0.88546800  0.63729100  0.26845600  1
  O  O2  1  0.08970900  0.36579700  0.75131600  1
  O  O3  1  0.61455900  0.86273600  0.73151200  1
  O  O4  1  0.62648500  0.35646300  0.25438700  1
  O  O5  1  0.11854700  0.85730700  0.26795200  1
  O  O6  1  0.84969900  0.13453600  0.25890700  1
  O  O7  1  0.34273200  0.63142300  0.26891000  1
  O  O8  1  0.40066200  0.13315000  0.71134200  1
  O  O9  1  0.88775100  0.63717500  0.71346500  1
  O  O10  1  0.09940900  0.36680900  0.28869500  1
  O  O11  1  0.61224700  0.86282200  0.28648000  1
  O  O12  1  0.65034300  0.36545400  0.74108300  1
  O  O13  1  0.15726900  0.86861100  0.73101900  1
  O  O14  1  0.87349500  0.14349400  0.74569400  1
  O  O15  1  0.38141300  0.64273700  0.73204900  1
loop_
_geom_bond_atom_site_label_1
_geom_bond_atom_site_label_2
_geom_bond_distance
_geom_bond_site_symmetry_2
Li0 O6 1.988454 1_455
Li0 O8 1.993156 1_554
Li0 O5 2.003499 1_545
Li0 O0 2.036004 1_555
Li1 O7 1.976172 1_555
Li1 O9 2.002306 1_554
Li1 O1 2.022450 1_555
Li1 O4 2.026491 1_555
Li2 O12 1.988604 1_555
Li2 O10 1.993259 1_556
Li2 O15 2.004014 1_555
Li2 O2 2.036048 1_555
Li3 O13 1.976037 1_655
Li3 O11 2.002151 1_556
Li3 O3 2.022112 1_555
Li3 O14 2.026173 1_565
Cr0 O3 2.019520 1_555
Cr0 O1 2.019548 1_456
Cr0 O5 2.027313 1_556
Cr0 O15 2.027482 1_555
Cr0 O13 2.028333 1_555
Cr0 O7 2.028463 1_556
Cr1 O8 2.020929 1_555
Cr1 O10 2.021009 1_555
Cr1 O2 2.033801 1_555
Cr1 O0 2.034049 1_555
Cr1 O4 2.040774 1_555
Cr1 O14 2.040828 1_455
Cr2 O3 1.917815 1_555
Cr2 O1 1.917898 1_555
Cr2 O11 1.955232 1_555
Cr2 O9 1.955818 1_555
Cr2 O5 2.008784 1_655
Cr2 O15 2.008808 1_555
Cr3 O0 1.923179 1_555
Cr3 O2 1.923339 1_654
Cr3 O14 1.961423 1_554
Cr3 O4 1.961550 1_555
Cr3 O6 1.999262 1_555
Cr3 O12 1.999307 1_554
Cr4 O0 2.016956 1_565
Cr4 O13 2.018510 1_555
Cr4 O8 2.019270 1_565
Cr4 O6 2.032704 1_565
Cr4 O3 2.036638 1_555
Cr4 O11 2.041579 1_555
Cr5 O2 2.017279 1_655
Cr5 O7 2.018574 1_655
Cr5 O10 2.019387 1_655
Cr5 O12 2.032693 1_555
Cr5 O1 2.036637 1_555
Cr5 O9 2.041430 1_555
O4 Ti0 2.006665 1_555
O5 Ti1 1.984268 1_555
O6 Ti0 1.981814 1_555
O7 Ti1 1.966627 1_555
O8 Ti0 1.967936 1_555
O9 Ti1 2.006661 1_655
O10 Ti0 1.967982 1_455
O11 Ti1 2.007310 1_555
O12 Ti0 1.981486 1_555
O13 Ti1 1.966721 1_555
O14 Ti0 2.006832 1_555
O15 Ti1 1.983994 1_555
