# generated using pymatgen
data_Ru3F
_symmetry_space_group_name_H-M   'P 1'
_cell_length_a   4.21623025
_cell_length_b   4.21623025
_cell_length_c   4.21623025
_cell_angle_alpha   60.00000000
_cell_angle_beta   60.00000000
_cell_angle_gamma   60.00000000
_symmetry_Int_Tables_number   1
_chemical_formula_structural   Ru3F
_chemical_formula_sum   'Ru3 F1'
_cell_volume   52.99781458
_cell_formula_units_Z   1
loop_
 _symmetry_equiv_pos_site_id
 _symmetry_equiv_pos_as_xyz
  1  'x, y, z'
loop_
 _atom_site_type_symbol
 _atom_site_label
 _atom_site_symmetry_multiplicity
 _atom_site_fract_x
 _atom_site_fract_y
 _atom_site_fract_z
 _atom_site_occupancy
  Ru  Ru0  1  0.75000000  0.75000000  0.75000000  1
  Ru  Ru1  1  0.25000000  0.25000000  0.25000000  1
  Ru  Ru2  1  0.50000000  0.50000000  0.50000000  1
  F  F0  1  0.00000000  0.00000000  0.00000000  1
loop_
_geom_bond_atom_site_label_1
_geom_bond_atom_site_label_2
_geom_bond_distance
_geom_bond_site_symmetry_2
Ru0 Ru2 2.581903 1_655
Ru0 Ru2 2.581903 1_556
Ru0 Ru2 2.581903 1_555
Ru0 Ru2 2.581903 1_565
Ru1 Ru2 2.581903 1_455
Ru1 Ru2 2.581903 1_554
Ru1 Ru2 2.581903 1_545
Ru1 Ru2 2.581903 1_555
F0 Ru1 2.581903 1_455
F0 Ru0 2.581903 1_544
F0 Ru0 2.581903 1_445
F0 Ru1 2.581903 1_545
F0 Ru1 2.581903 1_555
F0 Ru0 2.581903 1_454
F0 Ru1 2.581903 1_554
F0 Ru0 2.581903 1_444
