# generated using pymatgen
data_LaMgFeCuO6
_symmetry_space_group_name_H-M   'P 1'
_cell_length_a   5.43057300
_cell_length_b   5.26333660
_cell_length_c   7.81168060
_cell_angle_alpha   91.81105264
_cell_angle_beta   90.00000000
_cell_angle_gamma   90.00000000
_symmetry_Int_Tables_number   1
_chemical_formula_structural   LaMgFeCuO6
_chemical_formula_sum   'La2 Mg2 Fe2 Cu2 O12'
_cell_volume   223.16921520
_cell_formula_units_Z   2
loop_
 _symmetry_equiv_pos_site_id
 _symmetry_equiv_pos_as_xyz
  1  'x, y, z'
loop_
 _atom_site_type_symbol
 _atom_site_label
 _atom_site_symmetry_multiplicity
 _atom_site_fract_x
 _atom_site_fract_y
 _atom_site_fract_z
 _atom_site_occupancy
  La  La0  1  0.03717900  0.98991500  0.25291600  1
  La  La1  1  0.46282100  0.48991500  0.75291600  1
  Mg  Mg0  1  0.55720500  0.53086300  0.24846500  1
  Mg  Mg1  1  0.94279500  0.03086300  0.74846500  1
  Fe  Fe0  1  0.50225100  0.00463200  0.00473400  1
  Fe  Fe1  1  0.99774900  0.50463200  0.50473400  1
  Cu  Cu0  1  0.49958800  0.99486800  0.50097200  1
  Cu  Cu1  1  0.00041200  0.49486800  0.00097200  1
  O  O0  1  0.02122500  0.63805700  0.73933200  1
  O  O1  1  0.19762200  0.19596200  0.93663100  1
  O  O2  1  0.20379100  0.18526300  0.55661500  1
  O  O3  1  0.29620900  0.68526300  0.05661500  1
  O  O4  1  0.30237800  0.69596200  0.43663100  1
  O  O5  1  0.47877500  0.13805700  0.23933100  1
  O  O6  1  0.55134300  0.92837200  0.76089100  1
  O  O7  1  0.73555300  0.25923000  0.55998200  1
  O  O8  1  0.74285500  0.27283700  0.93946200  1
  O  O9  1  0.75714500  0.77283700  0.43946200  1
  O  O10  1  0.76444700  0.75923000  0.05998200  1
  O  O11  1  0.94865700  0.42837200  0.26089100  1
loop_
_geom_bond_atom_site_label_1
_geom_bond_atom_site_label_2
_geom_bond_distance
_geom_bond_site_symmetry_2
La0 O11 2.356180 1_465
La0 O10 2.413224 1_455
La0 O9 2.418032 1_455
La0 O5 2.524962 1_565
La0 O4 2.582207 1_555
La0 O3 2.597295 1_555
La0 O2 2.711074 1_565
La0 O1 2.865152 1_564
La1 O6 2.356180 1_555
La1 O7 2.413224 1_555
La1 O8 2.418032 1_555
La1 O0 2.524962 1_555
La1 O1 2.582207 1_555
La1 O2 2.597295 1_555
La1 O3 2.711074 1_556
La1 O4 2.865152 1_555
Mg0 O5 2.109883 1_555
Mg0 O4 2.179454 1_555
Mg0 O11 2.196086 1_555
Mg0 O9 2.215164 1_555
Mg0 O10 2.234075 1_555
Mg0 O3 2.234348 1_555
Mg1 O0 2.109883 1_645
Mg1 O1 2.179454 1_655
Mg1 O6 2.196086 1_545
Mg1 O8 2.215164 1_555
Mg1 O7 2.234075 1_555
Mg1 O2 2.234348 1_655
Fe0 O5 1.945890 1_555
Fe0 O6 1.952488 1_544
Fe0 O10 1.979200 1_545
Fe0 O8 2.001372 1_554
Fe0 O1 2.016865 1_554
Fe0 O3 2.069997 1_545
Fe1 O0 1.945898 1_655
Fe1 O11 1.952488 1_555
Fe1 O7 1.979200 1_555
Fe1 O9 2.001372 1_555
Fe1 O4 2.016865 1_655
Fe1 O2 2.069997 1_655
Cu0 O9 1.875467 1_555
Cu0 O2 1.935454 1_565
Cu0 O7 1.936509 1_565
Cu0 O4 1.955682 1_555
Cu0 O6 2.090202 1_555
Cu0 O5 2.203514 1_565
Cu1 O8 1.875467 1_454
Cu1 O3 1.935454 1_555
Cu1 O10 1.936509 1_455
Cu1 O1 1.955682 1_554
Cu1 O11 2.090202 1_455
Cu1 O0 2.203507 1_554
