# generated using pymatgen
data_Ca11Si9As16
_symmetry_space_group_name_H-M   'P 1'
_cell_length_a   7.15783000
_cell_length_b   7.27461380
_cell_length_c   17.73458199
_cell_angle_alpha   90.00621149
_cell_angle_beta   90.03724071
_cell_angle_gamma   111.62956720
_symmetry_Int_Tables_number   1
_chemical_formula_structural   Ca11Si9As16
_chemical_formula_sum   'Ca11 Si9 As16'
_cell_volume   858.42412374
_cell_formula_units_Z   1
loop_
 _symmetry_equiv_pos_site_id
 _symmetry_equiv_pos_as_xyz
  1  'x, y, z'
loop_
 _atom_site_type_symbol
 _atom_site_label
 _atom_site_symmetry_multiplicity
 _atom_site_fract_x
 _atom_site_fract_y
 _atom_site_fract_z
 _atom_site_occupancy
  Ca  Ca0  1  0.00202700  0.26033800  0.56266400  1
  Ca  Ca1  1  0.49791200  0.73840900  0.05991100  1
  Ca  Ca2  1  0.99795800  0.73825000  0.43996300  1
  Ca  Ca3  1  0.50218600  0.26171500  0.93799500  1
  Ca  Ca4  1  0.49000300  0.74500200  0.56119300  1
  Ca  Ca5  1  0.01207100  0.25494400  0.05874100  1
  Ca  Ca6  1  0.51153200  0.25509400  0.44179200  1
  Ca  Ca7  1  0.98793400  0.74470200  0.93966800  1
  Ca  Ca8  1  0.51363800  0.21668900  0.18403400  1
  Ca  Ca9  1  0.01336800  0.21709100  0.31587900  1
  Ca  Ca10  1  0.48607300  0.78172600  0.81498700  1
  Si  Si0  1  0.96989800  0.78701000  0.12960600  1
  Si  Si1  1  0.53356500  0.21299000  0.63185100  1
  Si  Si2  1  0.02976700  0.21117100  0.86938100  1
  Si  Si3  1  0.46997100  0.78635100  0.37054100  1
  Si  Si4  1  0.92242800  0.31758200  0.75885500  1
  Si  Si5  1  0.57902900  0.68248500  0.25955500  1
  Si  Si6  1  0.07880900  0.68267000  0.24043200  1
  Si  Si7  1  0.42039000  0.32049300  0.74096200  1
  Si  Si8  1  0.98396100  0.79032600  0.67769400  1
  As  As0  1  0.21187900  0.03096200  0.80702300  1
  As  As1  1  0.27805400  0.96284000  0.31341500  1
  As  As2  1  0.77805700  0.96284800  0.18735200  1
  As  As3  1  0.72867300  0.02933600  0.68781800  1
  As  As4  1  0.23969000  0.99644200  0.56884600  1
  As  As5  1  0.25037400  0.99322300  0.06152200  1
  As  As6  1  0.74846500  0.99431900  0.43919700  1
  As  As7  1  0.74917900  0.00666800  0.93853200  1
  As  As8  1  0.22745200  0.51385700  0.69544700  1
  As  As9  1  0.26964100  0.49258300  0.19667400  1
  As  As10  1  0.76931300  0.49218200  0.30378700  1
  As  As11  1  0.73649400  0.51365900  0.79934300  1
  As  As12  1  0.75354700  0.50972900  0.57258800  1
  As  As13  1  0.75581600  0.49868100  0.06828900  1
  As  As14  1  0.25665000  0.49799600  0.43267900  1
  As  As15  1  0.24419500  0.49963500  0.93178300  1
loop_
_geom_bond_atom_site_label_1
_geom_bond_atom_site_label_2
_geom_bond_distance
_geom_bond_site_symmetry_2
Si0 Si6 2.341241 1_655
Si1 Si7 2.341143 1_555
Si2 Si4 2.338479 1_455
Si3 Si5 2.343275 1_555
As0 Si7 2.391997 1_555
As0 Si2 2.429428 1_555
As0 Si8 2.979151 1_445
As0 Ca10 3.127652 1_545
As0 Ca3 3.154719 1_555
As0 Ca7 3.159893 1_445
As1 Si6 2.391100 1_555
As1 Si3 2.420850 1_555
As1 Ca8 3.037888 1_565
As1 Ca2 3.052457 1_455
As1 Ca9 3.097687 1_565
As1 Ca6 3.141819 1_565
As2 Si5 2.385332 1_555
As2 Si0 2.422198 1_555
As2 Ca9 3.025020 1_665
As2 Ca1 3.061783 1_555
As2 Ca8 3.093861 1_565
As2 Ca5 3.147270 1_665
As3 Si4 2.400147 1_555
As3 Si1 2.468686 1_555
As3 Si8 2.955837 1_545
As3 Ca10 3.007716 1_545
As3 Ca0 3.026749 1_655
As3 Ca4 3.103024 1_545
As4 Si1 2.389254 1_565
As4 Si8 2.703155 1_455
As4 Ca4 2.998431 1_555
As4 Ca0 2.999783 1_565
As4 Ca2 3.056814 1_455
As4 Ca6 3.116281 1_565
As5 Si0 2.349908 1_455
As5 Ca8 2.941062 1_565
As5 Ca5 2.988464 1_565
As5 Ca7 2.992911 1_454
As5 Ca1 2.999611 1_555
As5 Ca3 3.045251 1_564
As6 Si3 2.349085 1_555
As6 Ca9 2.957258 1_665
As6 Ca6 2.974708 1_565
As6 Ca4 2.987548 1_555
As6 Ca2 3.018577 1_555
As6 Ca0 3.039431 1_665
As7 Si2 2.356217 1_655
As7 Ca10 2.957524 1_545
As7 Ca5 2.972581 1_656
As7 Ca7 2.992251 1_545
As7 Ca3 2.997703 1_555
As7 Ca1 3.015822 1_546
As8 Si4 2.403214 1_455
As8 Si7 2.443016 1_555
As8 Ca10 3.008835 1_555
As8 Ca0 3.057856 1_555
As8 Ca4 3.115305 1_555
As9 Si6 2.402873 1_555
As9 Si5 2.407771 1_555
As9 Ca9 3.024285 1_555
As9 Ca1 3.098781 1_555
As9 Ca8 3.116588 1_555
As9 Ca5 3.164643 1_555
As10 Si5 2.403299 1_555
As10 Si6 2.414699 1_655
As10 Ca8 3.027575 1_555
As10 Ca2 3.090192 1_555
As10 Ca9 3.111138 1_655
As10 Ca6 3.167023 1_555
As11 Si4 2.392050 1_555
As11 Si7 2.412209 1_555
As11 Si8 3.036513 1_555
As11 Ca10 3.109690 1_555
As11 Ca3 3.155719 1_555
As11 Ca7 3.165513 1_555
As12 Si1 2.395962 1_555
As12 Si8 2.806170 1_555
As12 Ca0 2.977387 1_655
As12 Ca4 2.984694 1_555
As12 Ca2 3.036194 1_555
As12 Ca6 3.072620 1_555
As13 Si0 2.357530 1_555
As13 Ca8 2.968272 1_555
As13 Ca1 2.973926 1_555
As13 Ca5 2.989124 1_655
As13 Ca7 2.996723 1_554
As13 Ca3 3.048506 1_554
As14 Si3 2.363792 1_555
As14 Ca6 2.975428 1_555
As14 Ca9 2.978243 1_555
As14 Ca2 2.980956 1_455
As14 Ca4 2.999119 1_555
As14 Ca0 3.050930 1_555
As15 Si2 2.367888 1_555
As15 Ca3 2.962071 1_555
As15 Ca5 2.970520 1_556
As15 Ca10 2.980838 1_555
As15 Ca7 2.995561 1_455
As15 Ca1 3.024370 1_556
