# generated using pymatgen
data_Sr3Fe2RuO9
_symmetry_space_group_name_H-M   'P 1'
_cell_length_a   3.90984200
_cell_length_b   3.90984200
_cell_length_c   12.09901800
_cell_angle_alpha   90.00000000
_cell_angle_beta   90.00000000
_cell_angle_gamma   90.00000000
_symmetry_Int_Tables_number   1
_chemical_formula_structural   Sr3Fe2RuO9
_chemical_formula_sum   'Sr3 Fe2 Ru1 O9'
_cell_volume   184.95604833
_cell_formula_units_Z   1
loop_
 _symmetry_equiv_pos_site_id
 _symmetry_equiv_pos_as_xyz
  1  'x, y, z'
loop_
 _atom_site_type_symbol
 _atom_site_label
 _atom_site_symmetry_multiplicity
 _atom_site_fract_x
 _atom_site_fract_y
 _atom_site_fract_z
 _atom_site_occupancy
  Sr  Sr0  1  0.00000000  0.00000000  0.81677400  1
  Sr  Sr1  1  0.00000000  0.00000000  0.18322600  1
  Sr  Sr2  1  0.00000000  0.00000000  0.50000000  1
  Fe  Fe0  1  0.50000000  0.50000000  0.33748500  1
  Fe  Fe1  1  0.50000000  0.50000000  0.66251500  1
  Ru  Ru0  1  0.50000000  0.50000000  0.00000000  1
  O  O0  1  0.00000000  0.50000000  0.00000000  1
  O  O1  1  0.00000000  0.50000000  0.33034000  1
  O  O2  1  0.00000000  0.50000000  0.66966000  1
  O  O3  1  0.50000000  0.50000000  0.83651600  1
  O  O4  1  0.50000000  0.50000000  0.16348400  1
  O  O5  1  0.50000000  0.50000000  0.50000000  1
  O  O6  1  0.50000000  0.00000000  0.00000000  1
  O  O7  1  0.50000000  0.00000000  0.33034000  1
  O  O8  1  0.50000000  0.00000000  0.66966000  1
loop_
_geom_bond_atom_site_label_1
_geom_bond_atom_site_label_2
_geom_bond_distance
_geom_bond_site_symmetry_2
Fe0 O7 1.956831 1_555
Fe0 O1 1.956831 1_555
Fe0 O7 1.956831 1_565
Fe0 O1 1.956831 1_655
Fe0 O5 1.966272 1_555
Fe0 O4 2.105241 1_555
Fe1 O8 1.956831 1_555
Fe1 O2 1.956831 1_555
Fe1 O2 1.956831 1_655
Fe1 O8 1.956831 1_565
Fe1 O5 1.966272 1_555
Fe1 O3 2.105241 1_555
O0 Ru0 1.954921 1_555
O0 Ru0 1.954921 1_455
O0 Sr1 2.955700 1_565
O0 Sr1 2.955700 1_555
O0 Sr0 2.955700 1_564
O0 Sr0 2.955700 1_554
O1 Sr1 2.643839 1_565
O1 Sr1 2.643839 1_555
O1 Sr2 2.834673 1_555
O1 Sr2 2.834673 1_565
O2 Sr0 2.643839 1_555
O2 Sr0 2.643839 1_565
O2 Sr2 2.834673 1_555
O2 Sr2 2.834673 1_565
O3 Ru0 1.977996 1_556
O3 Sr0 2.774975 1_555
O3 Sr0 2.774975 1_665
O3 Sr0 2.774975 1_655
O3 Sr0 2.774975 1_565
O4 Ru0 1.977996 1_555
O4 Sr1 2.774975 1_655
O4 Sr1 2.774975 1_555
O4 Sr1 2.774975 1_565
O4 Sr1 2.774975 1_665
O5 Sr2 2.764676 1_565
O5 Sr2 2.764676 1_555
O5 Sr2 2.764676 1_655
O5 Sr2 2.764676 1_665
O6 Ru0 1.954921 1_555
O6 Ru0 1.954921 1_545
O6 Sr1 2.955700 1_655
O6 Sr1 2.955700 1_555
O6 Sr0 2.955700 1_654
O6 Sr0 2.955700 1_554
O7 Sr1 2.643839 1_655
O7 Sr1 2.643839 1_555
O7 Sr2 2.834673 1_555
O7 Sr2 2.834673 1_655
O8 Sr0 2.643839 1_555
O8 Sr0 2.643839 1_655
O8 Sr2 2.834673 1_555
O8 Sr2 2.834673 1_655
