# generated using pymatgen
data_Ga3Si
_symmetry_space_group_name_H-M   'P 1'
_cell_length_a   6.00772794
_cell_length_b   6.00772794
_cell_length_c   4.67153200
_cell_angle_alpha   90.00000000
_cell_angle_beta   90.00000000
_cell_angle_gamma   119.99999936
_symmetry_Int_Tables_number   1
_chemical_formula_structural   Ga3Si
_chemical_formula_sum   'Ga6 Si2'
_cell_volume   146.01937248
_cell_formula_units_Z   2
loop_
 _symmetry_equiv_pos_site_id
 _symmetry_equiv_pos_as_xyz
  1  'x, y, z'
loop_
 _atom_site_type_symbol
 _atom_site_label
 _atom_site_symmetry_multiplicity
 _atom_site_fract_x
 _atom_site_fract_y
 _atom_site_fract_z
 _atom_site_occupancy
  Ga  Ga0  1  0.16847500  0.33695000  0.25000000  1
  Ga  Ga1  1  0.66305000  0.83152500  0.25000000  1
  Ga  Ga2  1  0.16847500  0.83152500  0.25000000  1
  Ga  Ga3  1  0.83152500  0.66305000  0.75000000  1
  Ga  Ga4  1  0.33695000  0.16847500  0.75000000  1
  Ga  Ga5  1  0.83152500  0.16847500  0.75000000  1
  Si  Si0  1  0.33333300  0.66666700  0.75000000  1
  Si  Si1  1  0.66666700  0.33333300  0.25000000  1
loop_
_geom_bond_atom_site_label_1
_geom_bond_atom_site_label_2
_geom_bond_distance
_geom_bond_site_symmetry_2
Ga0 Si0 2.898039 1_554
Ga0 Si0 2.898039 1_555
Ga0 Ga4 2.920472 1_555
Ga0 Ga4 2.920472 1_554
Ga0 Ga5 2.920472 1_454
Ga0 Ga5 2.920472 1_455
Ga0 Ga2 2.971272 1_555
Ga0 Ga1 2.971272 1_555
Ga0 Si1 3.003920 1_455
Ga0 Si1 3.003926 1_555
Ga0 Ga2 3.036456 1_545
Ga0 Ga1 3.036456 1_445
Ga1 Si0 2.898039 1_554
Ga1 Si0 2.898039 1_555
Ga1 Ga3 2.920472 1_555
Ga1 Ga3 2.920472 1_554
Ga1 Ga5 2.920472 1_564
Ga1 Ga5 2.920472 1_565
Ga1 Ga2 2.971272 1_555
Ga1 Si1 3.003920 1_565
Ga1 Si1 3.003926 1_555
Ga1 Ga2 3.036456 1_655
Ga2 Si0 2.898036 1_554
Ga2 Si0 2.898036 1_555
Ga2 Ga4 2.920472 1_564
Ga2 Ga4 2.920472 1_565
Ga2 Ga3 2.920472 1_455
Ga2 Ga3 2.920472 1_454
Ga2 Si1 3.003923 1_455
Ga2 Si1 3.003923 1_565
Ga3 Si1 2.898039 1_555
Ga3 Si1 2.898039 1_556
Ga3 Ga5 2.971272 1_555
Ga3 Ga4 2.971272 1_555
Ga3 Si0 3.003920 1_655
Ga3 Si0 3.003926 1_555
Ga3 Ga5 3.036456 1_565
Ga3 Ga4 3.036456 1_665
Ga4 Si1 2.898039 1_555
Ga4 Si1 2.898039 1_556
Ga4 Ga5 2.971272 1_555
Ga4 Si0 3.003920 1_545
Ga4 Si0 3.003926 1_555
Ga4 Ga5 3.036456 1_455
Ga5 Si1 2.898036 1_555
Ga5 Si1 2.898036 1_556
Ga5 Si0 3.003923 1_545
Ga5 Si0 3.003923 1_655
