# generated using pymatgen
data_LaMg5
_symmetry_space_group_name_H-M   'P 1'
_cell_length_a   13.42416899
_cell_length_b   13.42416899
_cell_length_c   15.32554772
_cell_angle_alpha   75.69545762
_cell_angle_beta   75.69545762
_cell_angle_gamma   27.81783544
_symmetry_Int_Tables_number   1
_chemical_formula_structural   LaMg5
_chemical_formula_sum   'La8 Mg40'
_cell_volume   1246.37224803
_cell_formula_units_Z   8
loop_
 _symmetry_equiv_pos_site_id
 _symmetry_equiv_pos_as_xyz
  1  'x, y, z'
loop_
 _atom_site_type_symbol
 _atom_site_label
 _atom_site_symmetry_multiplicity
 _atom_site_fract_x
 _atom_site_fract_y
 _atom_site_fract_z
 _atom_site_occupancy
  La  La0_0  1  0.30658250  0.30658250  0.13547850  1
  La  La0_1  1  0.30658250  0.30658250  0.63547850  1
  La  La0_2  1  0.30658250  0.80658250  0.13547850  1
  La  La0_3  1  0.30658250  0.80658250  0.63547850  1
  La  La0_4  1  0.80658250  0.30658250  0.13547850  1
  La  La0_5  1  0.80658250  0.30658250  0.63547850  1
  La  La0_6  1  0.80658250  0.80658250  0.13547850  1
  La  La0_7  1  0.80658250  0.80658250  0.63547850  1
  Mg  Mg0_0  1  0.49506800  0.49506800  0.49595500  1
  Mg  Mg0_1  1  0.49506800  0.49506800  0.99595500  1
  Mg  Mg0_2  1  0.49506800  0.99506800  0.49595500  1
  Mg  Mg0_3  1  0.49506800  0.99506800  0.99595500  1
  Mg  Mg0_4  1  0.99506800  0.49506800  0.49595500  1
  Mg  Mg0_5  1  0.99506800  0.49506800  0.99595500  1
  Mg  Mg0_6  1  0.99506800  0.99506800  0.49595500  1
  Mg  Mg0_7  1  0.99506800  0.99506800  0.99595500  1
  Mg  Mg1_0  1  0.16885200  0.16885200  0.16946650  1
  Mg  Mg1_1  1  0.16885200  0.16885200  0.66946650  1
  Mg  Mg1_2  1  0.16885200  0.66885200  0.16946650  1
  Mg  Mg1_3  1  0.16885200  0.66885200  0.66946650  1
  Mg  Mg1_4  1  0.66885200  0.16885200  0.16946650  1
  Mg  Mg1_5  1  0.66885200  0.16885200  0.66946650  1
  Mg  Mg1_6  1  0.66885200  0.66885200  0.16946650  1
  Mg  Mg1_7  1  0.66885200  0.66885200  0.66946650  1
  Mg  Mg2_0  1  0.46847700  0.46847700  0.31041900  1
  Mg  Mg2_1  1  0.46847700  0.46847700  0.81041900  1
  Mg  Mg2_2  1  0.46847700  0.96847700  0.31041900  1
  Mg  Mg2_3  1  0.46847700  0.96847700  0.81041900  1
  Mg  Mg2_4  1  0.96847700  0.46847700  0.31041900  1
  Mg  Mg2_5  1  0.96847700  0.46847700  0.81041900  1
  Mg  Mg2_6  1  0.96847700  0.96847700  0.31041900  1
  Mg  Mg2_7  1  0.96847700  0.96847700  0.81041900  1
  Mg  Mg3_0  1  0.33363500  0.33363500  0.33877400  1
  Mg  Mg3_1  1  0.33363500  0.33363500  0.83877400  1
  Mg  Mg3_2  1  0.33363500  0.83363500  0.33877400  1
  Mg  Mg3_3  1  0.33363500  0.83363500  0.83877400  1
  Mg  Mg3_4  1  0.83363500  0.33363500  0.33877400  1
  Mg  Mg3_5  1  0.83363500  0.33363500  0.83877400  1
  Mg  Mg3_6  1  0.83363500  0.83363500  0.33877400  1
  Mg  Mg3_7  1  0.83363500  0.83363500  0.83877400  1
  Mg  Mg4_0  1  0.14405200  0.14405200  0.46657350  1
  Mg  Mg4_1  1  0.14405200  0.14405200  0.96657350  1
  Mg  Mg4_2  1  0.14405200  0.64405200  0.46657350  1
  Mg  Mg4_3  1  0.14405200  0.64405200  0.96657350  1
  Mg  Mg4_4  1  0.64405200  0.14405200  0.46657350  1
  Mg  Mg4_5  1  0.64405200  0.14405200  0.96657350  1
  Mg  Mg4_6  1  0.64405200  0.64405200  0.46657350  1
  Mg  Mg4_7  1  0.64405200  0.64405200  0.96657350  1
loop_
_geom_bond_atom_site_label_1
_geom_bond_atom_site_label_2
_geom_bond_distance
_geom_bond_site_symmetry_2
La0_0 La0_6 3.226890 1_455
La0_0 La0_6 3.226890 1_545
La0_0 Mg3_0 3.364867 1_555
La0_0 Mg0_3 3.389773 1_544
La0_0 Mg0_5 3.389773 1_454
La0_0 Mg4_5 3.390615 1_554
La0_0 Mg4_3 3.390615 1_554
La0_0 Mg2_2 3.453921 1_545
La0_0 Mg2_4 3.453921 1_455
La0_0 Mg1_0 3.493334 1_555
La0_0 Mg1_4 3.494437 1_555
La0_0 Mg1_2 3.494437 1_555
La0_1 La0_7 3.226890 1_545
La0_1 La0_7 3.226890 1_455
La0_1 Mg3_1 3.364867 1_555
La0_1 Mg0_2 3.389773 1_545
La0_1 Mg0_4 3.389773 1_455
La0_1 Mg4_4 3.390615 1_555
La0_1 Mg4_2 3.390615 1_555
La0_1 Mg2_5 3.453921 1_455
La0_1 Mg2_3 3.453921 1_545
La0_1 Mg1_1 3.493334 1_555
La0_1 Mg1_5 3.494437 1_555
La0_1 Mg1_3 3.494437 1_555
La0_2 La0_4 3.226890 1_465
La0_2 La0_4 3.226890 1_555
La0_2 Mg3_2 3.364867 1_555
La0_2 Mg0_1 3.389773 1_554
La0_2 Mg0_7 3.389773 1_454
La0_2 Mg4_7 3.390615 1_554
La0_2 Mg4_1 3.390615 1_564
La0_2 Mg2_6 3.453921 1_455
La0_2 Mg2_0 3.453921 1_555
La0_2 Mg1_2 3.493334 1_555
La0_2 Mg1_0 3.494437 1_565
La0_2 Mg1_6 3.494437 1_555
La0_3 La0_5 3.226890 1_555
La0_3 La0_5 3.226890 1_465
La0_3 Mg3_3 3.364867 1_555
La0_3 Mg0_0 3.389773 1_555
La0_3 Mg0_6 3.389773 1_455
La0_3 Mg4_6 3.390615 1_555
La0_3 Mg4_0 3.390615 1_565
La0_3 Mg2_7 3.453921 1_455
La0_3 Mg2_1 3.453921 1_555
La0_3 Mg1_3 3.493334 1_555
La0_3 Mg1_7 3.494437 1_555
La0_3 Mg1_1 3.494437 1_565
La0_4 Mg3_4 3.364867 1_555
La0_4 Mg0_7 3.389773 1_544
La0_4 Mg0_1 3.389773 1_554
La0_4 Mg4_7 3.390615 1_554
La0_4 Mg4_1 3.390615 1_654
La0_4 Mg2_6 3.453921 1_545
La0_4 Mg2_0 3.453921 1_555
La0_4 Mg1_4 3.493334 1_555
La0_4 Mg1_0 3.494437 1_655
La0_4 Mg1_6 3.494437 1_555
La0_5 Mg3_5 3.364867 1_555
La0_5 Mg0_0 3.389773 1_555
La0_5 Mg0_6 3.389773 1_545
La0_5 Mg4_0 3.390615 1_655
La0_5 Mg4_6 3.390615 1_555
La0_5 Mg2_7 3.453921 1_545
La0_5 Mg2_1 3.453921 1_555
La0_5 Mg1_5 3.493334 1_555
La0_5 Mg1_7 3.494437 1_555
La0_5 Mg1_1 3.494437 1_655
La0_6 Mg3_6 3.364867 1_555
La0_6 Mg0_3 3.389773 1_554
La0_6 Mg0_5 3.389773 1_554
La0_6 Mg4_3 3.390615 1_654
La0_6 Mg4_5 3.390615 1_564
La0_6 Mg2_2 3.453921 1_555
La0_6 Mg2_4 3.453921 1_555
La0_6 Mg1_6 3.493334 1_555
La0_6 Mg1_2 3.494437 1_655
La0_6 Mg1_4 3.494437 1_565
La0_7 Mg3_7 3.364867 1_555
La0_7 Mg0_2 3.389773 1_555
La0_7 Mg0_4 3.389773 1_555
La0_7 Mg4_4 3.390615 1_565
La0_7 Mg4_2 3.390615 1_655
La0_7 Mg2_3 3.453921 1_555
La0_7 Mg2_5 3.453921 1_555
La0_7 Mg1_7 3.493334 1_555
La0_7 Mg1_5 3.494437 1_565
La0_7 Mg1_3 3.494437 1_655
Mg0_0 Mg2_0 3.093303 1_555
Mg0_0 Mg4_2 3.215582 1_555
Mg0_0 Mg4_4 3.215582 1_555
Mg0_0 Mg0_6 3.226890 1_545
Mg0_0 Mg0_6 3.226890 1_455
Mg0_0 Mg3_4 3.301968 1_555
Mg0_0 Mg3_2 3.301968 1_555
Mg0_0 Mg1_3 3.306169 1_555
Mg0_0 Mg1_5 3.306169 1_555
Mg0_1 Mg2_1 3.093303 1_555
Mg0_1 Mg4_3 3.215582 1_555
Mg0_1 Mg4_5 3.215582 1_555
Mg0_1 Mg0_7 3.226890 1_545
Mg0_1 Mg0_7 3.226890 1_455
Mg0_1 Mg3_5 3.301968 1_555
Mg0_1 Mg3_3 3.301968 1_555
Mg0_1 Mg1_2 3.306169 1_556
Mg0_1 Mg1_4 3.306169 1_556
Mg0_2 Mg2_2 3.093303 1_555
Mg0_2 Mg4_6 3.215582 1_555
Mg0_2 Mg4_0 3.215582 1_565
Mg0_2 Mg0_4 3.226890 1_555
Mg0_2 Mg0_4 3.226890 1_465
Mg0_2 Mg3_0 3.301968 1_565
Mg0_2 Mg3_6 3.301968 1_555
Mg0_2 Mg1_7 3.306169 1_555
Mg0_2 Mg1_1 3.306169 1_565
Mg0_3 Mg2_3 3.093303 1_555
Mg0_3 Mg4_1 3.215582 1_565
Mg0_3 Mg4_7 3.215582 1_555
Mg0_3 Mg0_5 3.226890 1_555
Mg0_3 Mg0_5 3.226890 1_465
Mg0_3 Mg3_7 3.301968 1_555
Mg0_3 Mg3_1 3.301968 1_565
Mg0_3 Mg1_6 3.306169 1_556
Mg0_3 Mg1_0 3.306169 1_566
Mg0_4 Mg2_4 3.093303 1_555
Mg0_4 Mg4_6 3.215582 1_555
Mg0_4 Mg4_0 3.215582 1_655
Mg0_4 Mg3_0 3.301968 1_655
Mg0_4 Mg3_6 3.301968 1_555
Mg0_4 Mg1_7 3.306169 1_555
Mg0_4 Mg1_1 3.306169 1_655
Mg0_5 Mg2_5 3.093303 1_555
Mg0_5 Mg4_1 3.215582 1_655
Mg0_5 Mg4_7 3.215582 1_555
Mg0_5 Mg3_7 3.301968 1_555
Mg0_5 Mg3_1 3.301968 1_655
Mg0_5 Mg1_6 3.306169 1_556
Mg0_5 Mg1_0 3.306169 1_656
Mg0_6 Mg2_6 3.093303 1_555
Mg0_6 Mg4_2 3.215582 1_655
Mg0_6 Mg4_4 3.215582 1_565
Mg0_6 Mg3_2 3.301968 1_655
Mg0_6 Mg3_4 3.301968 1_565
Mg0_6 Mg1_3 3.306169 1_655
Mg0_6 Mg1_5 3.306169 1_565
Mg0_7 Mg2_7 3.093303 1_555
Mg0_7 Mg4_5 3.215582 1_565
Mg0_7 Mg4_3 3.215582 1_655
Mg0_7 Mg3_5 3.301968 1_565
Mg0_7 Mg3_3 3.301968 1_655
Mg0_7 Mg1_4 3.306169 1_566
Mg0_7 Mg1_2 3.306169 1_656
Mg1_0 Mg2_4 3.219373 1_455
Mg1_0 Mg2_2 3.219373 1_545
Mg1_0 Mg1_6 3.226890 1_455
Mg1_0 Mg1_6 3.226890 1_545
Mg1_0 Mg4_1 3.333087 1_554
Mg1_0 Mg3_2 3.366666 1_545
Mg1_0 Mg3_4 3.366666 1_455
Mg1_1 Mg2_5 3.219373 1_455
Mg1_1 Mg2_3 3.219373 1_545
Mg1_1 Mg1_7 3.226890 1_455
Mg1_1 Mg1_7 3.226890 1_545
Mg1_1 Mg4_0 3.333087 1_555
Mg1_1 Mg3_3 3.366666 1_545
Mg1_1 Mg3_5 3.366666 1_455
Mg1_2 Mg2_0 3.219373 1_555
Mg1_2 Mg2_6 3.219373 1_455
Mg1_2 Mg1_4 3.226890 1_555
Mg1_2 Mg1_4 3.226890 1_465
Mg1_2 Mg4_3 3.333087 1_554
Mg1_2 Mg3_6 3.366666 1_455
Mg1_2 Mg3_0 3.366666 1_555
Mg1_3 Mg2_1 3.219373 1_555
Mg1_3 Mg2_7 3.219373 1_455
Mg1_3 Mg1_5 3.226890 1_555
Mg1_3 Mg1_5 3.226890 1_465
Mg1_3 Mg4_2 3.333087 1_555
Mg1_3 Mg3_7 3.366666 1_455
Mg1_3 Mg3_1 3.366666 1_555
Mg1_4 Mg2_0 3.219373 1_555
Mg1_4 Mg2_6 3.219373 1_545
Mg1_4 Mg4_5 3.333087 1_554
Mg1_4 Mg3_6 3.366666 1_545
Mg1_4 Mg3_0 3.366666 1_555
Mg1_5 Mg2_1 3.219373 1_555
Mg1_5 Mg2_7 3.219373 1_545
Mg1_5 Mg4_4 3.333087 1_555
Mg1_5 Mg3_1 3.366666 1_555
Mg1_5 Mg3_7 3.366666 1_545
Mg1_6 Mg2_2 3.219373 1_555
Mg1_6 Mg2_4 3.219373 1_555
Mg1_6 Mg4_7 3.333087 1_554
Mg1_6 Mg3_2 3.366666 1_555
Mg1_6 Mg3_4 3.366666 1_555
Mg1_7 Mg2_3 3.219373 1_555
Mg1_7 Mg2_5 3.219373 1_555
Mg1_7 Mg4_6 3.333087 1_555
Mg1_7 Mg3_3 3.366666 1_555
Mg1_7 Mg3_5 3.366666 1_555
Mg2_0 Mg4_2 3.119201 1_555
Mg2_0 Mg4_4 3.119201 1_555
Mg2_0 Mg2_6 3.226890 1_545
Mg2_0 Mg2_6 3.226890 1_455
Mg2_0 Mg3_0 3.429368 1_555
Mg2_0 Mg3_4 3.530276 1_555
Mg2_0 Mg3_2 3.530276 1_555
Mg2_1 Mg4_3 3.119201 1_555
Mg2_1 Mg4_5 3.119201 1_555
Mg2_1 Mg2_7 3.226890 1_545
Mg2_1 Mg2_7 3.226890 1_455
Mg2_1 Mg3_1 3.429368 1_555
Mg2_1 Mg3_5 3.530276 1_555
Mg2_1 Mg3_3 3.530276 1_555
Mg2_2 Mg4_6 3.119201 1_555
Mg2_2 Mg4_0 3.119201 1_565
Mg2_2 Mg2_4 3.226890 1_465
Mg2_2 Mg2_4 3.226890 1_555
Mg2_2 Mg3_2 3.429368 1_555
Mg2_2 Mg3_0 3.530276 1_565
Mg2_2 Mg3_6 3.530276 1_555
Mg2_3 Mg4_1 3.119201 1_565
Mg2_3 Mg4_7 3.119201 1_555
Mg2_3 Mg2_5 3.226890 1_465
Mg2_3 Mg2_5 3.226890 1_555
Mg2_3 Mg3_3 3.429368 1_555
Mg2_3 Mg3_7 3.530276 1_555
Mg2_3 Mg3_1 3.530276 1_565
Mg2_4 Mg4_6 3.119201 1_555
Mg2_4 Mg4_0 3.119201 1_655
Mg2_4 Mg3_4 3.429368 1_555
Mg2_4 Mg3_0 3.530276 1_655
Mg2_4 Mg3_6 3.530276 1_555
Mg2_5 Mg4_1 3.119201 1_655
Mg2_5 Mg4_7 3.119201 1_555
Mg2_5 Mg3_5 3.429368 1_555
Mg2_5 Mg3_7 3.530276 1_555
Mg2_5 Mg3_1 3.530276 1_655
Mg2_6 Mg4_2 3.119201 1_655
Mg2_6 Mg4_4 3.119201 1_565
Mg2_6 Mg3_6 3.429368 1_555
Mg2_6 Mg3_4 3.530276 1_565
Mg2_6 Mg3_2 3.530276 1_655
Mg2_7 Mg4_3 3.119201 1_655
Mg2_7 Mg4_5 3.119201 1_565
Mg2_7 Mg3_7 3.429368 1_555
Mg2_7 Mg3_5 3.530276 1_565
Mg2_7 Mg3_3 3.530276 1_655
Mg3_0 Mg3_6 3.226890 1_455
Mg3_0 Mg3_6 3.226890 1_545
Mg3_0 Mg4_4 3.238581 1_555
Mg3_0 Mg4_2 3.238581 1_555
Mg3_1 Mg3_7 3.226890 1_545
Mg3_1 Mg3_7 3.226890 1_455
Mg3_1 Mg4_5 3.238581 1_555
Mg3_1 Mg4_3 3.238581 1_555
Mg3_2 Mg3_4 3.226890 1_555
Mg3_2 Mg3_4 3.226890 1_465
Mg3_2 Mg4_0 3.238581 1_565
Mg3_2 Mg4_6 3.238581 1_555
Mg3_3 Mg3_5 3.226890 1_555
Mg3_3 Mg3_5 3.226890 1_465
Mg3_3 Mg4_7 3.238581 1_555
Mg3_3 Mg4_1 3.238581 1_565
Mg3_4 Mg4_6 3.238581 1_555
Mg3_4 Mg4_0 3.238581 1_655
Mg3_5 Mg4_7 3.238581 1_555
Mg3_5 Mg4_1 3.238581 1_655
Mg3_6 Mg4_4 3.238581 1_565
Mg3_6 Mg4_2 3.238581 1_655
Mg3_7 Mg4_5 3.238581 1_565
Mg3_7 Mg4_3 3.238581 1_655
Mg4_0 Mg4_6 3.226890 1_545
Mg4_0 Mg4_6 3.226890 1_455
Mg4_1 Mg4_7 3.226890 1_455
Mg4_1 Mg4_7 3.226890 1_545
Mg4_2 Mg4_4 3.226890 1_465
Mg4_2 Mg4_4 3.226890 1_555
Mg4_3 Mg4_5 3.226890 1_555
Mg4_3 Mg4_5 3.226890 1_465
