# generated using pymatgen
data_Tb2Si5Ru3
_symmetry_space_group_name_H-M   'P 1'
_cell_length_a   5.59614871
_cell_length_b   8.21788823
_cell_length_c   8.21788933
_cell_angle_alpha   71.55511444
_cell_angle_beta   70.09352631
_cell_angle_gamma   70.09352871
_symmetry_Int_Tables_number   1
_chemical_formula_structural   Tb2Si5Ru3
_chemical_formula_sum   'Tb4 Si10 Ru6'
_cell_volume   325.41252234
_cell_formula_units_Z   2
loop_
 _symmetry_equiv_pos_site_id
 _symmetry_equiv_pos_as_xyz
  1  'x, y, z'
loop_
 _atom_site_type_symbol
 _atom_site_label
 _atom_site_symmetry_multiplicity
 _atom_site_fract_x
 _atom_site_fract_y
 _atom_site_fract_z
 _atom_site_occupancy
  Tb  Tb0  1  0.13511366  0.63275298  0.09701970  1
  Tb  Tb1  1  0.86488634  0.36724702  0.90298030  1
  Tb  Tb2  1  0.36488634  0.90298030  0.36724702  1
  Tb  Tb3  1  0.63511366  0.09701970  0.63275298  1
  Si  Si0  1  0.25000000  0.00000000  0.00000000  1
  Si  Si1  1  0.75000000  0.00000000  0.00000000  1
  Si  Si2  1  0.95841631  0.29158369  0.29158369  1
  Si  Si3  1  0.54158369  0.70841631  0.70841631  1
  Si  Si4  1  0.04158369  0.70841631  0.70841631  1
  Si  Si5  1  0.45841631  0.29158369  0.29158369  1
  Si  Si6  1  0.40351806  0.42907448  0.76389041  1
  Si  Si7  1  0.90351806  0.76389041  0.42907448  1
  Si  Si8  1  0.09648194  0.23610959  0.57092552  1
  Si  Si9  1  0.59648194  0.57092552  0.23610959  1
  Ru  Ru0  1  0.85421961  0.05227666  0.23928311  1
  Ru  Ru1  1  0.75000000  0.50000000  0.50000000  1
  Ru  Ru2  1  0.35421961  0.23928311  0.05227666  1
  Ru  Ru3  1  0.64578039  0.76071689  0.94772334  1
  Ru  Ru4  1  0.14578039  0.94772334  0.76071689  1
  Ru  Ru5  1  0.25000000  0.50000000  0.50000000  1
loop_
_geom_bond_atom_site_label_1
_geom_bond_atom_site_label_2
_geom_bond_distance
_geom_bond_site_symmetry_2
Si0 Tb0 3.099506 1_545
Si0 Tb1 3.099506 1_454
Si0 Tb3 3.099507 1_554
Si0 Tb2 3.099507 1_545
Si1 Tb1 3.099506 1_554
Si1 Tb0 3.099506 1_645
Si1 Tb2 3.099507 1_545
Si1 Tb3 3.099507 1_554
Si2 Si8 2.525927 1_655
Si2 Si9 2.525930 1_555
Si2 Si5 2.798074 1_555
Si2 Si5 2.798074 1_655
Si2 Tb0 3.060971 1_655
Si2 Tb3 3.060971 1_555
Si2 Tb2 3.243320 1_645
Si2 Tb1 3.243320 1_554
Si3 Si6 2.525927 1_555
Si3 Si7 2.525930 1_555
Si3 Si4 2.798074 1_655
Si3 Si4 2.798074 1_555
Si3 Tb1 3.060971 1_555
Si3 Tb2 3.060971 1_555
Si3 Tb3 3.243320 1_565
Si3 Tb0 3.243320 1_556
Si4 Si7 2.525927 1_455
Si4 Si6 2.525930 1_555
Si4 Tb1 3.060971 1_455
Si4 Tb2 3.060971 1_555
Si4 Tb3 3.243320 1_465
Si4 Tb0 3.243320 1_556
Si5 Si9 2.525927 1_555
Si5 Si8 2.525930 1_555
Si5 Tb0 3.060971 1_555
Si5 Tb3 3.060971 1_555
Si5 Tb2 3.243320 1_545
Si5 Tb1 3.243320 1_554
Si6 Tb3 2.964589 1_555
Si6 Tb1 2.996604 1_555
Si6 Tb1 2.996609 1_455
Si6 Tb0 3.307519 1_556
Si7 Tb0 2.964589 1_655
Si7 Tb2 2.996604 1_655
Si7 Tb2 2.996609 1_555
Si7 Tb3 3.307518 1_565
Si8 Tb1 2.964589 1_455
Si8 Tb3 2.996604 1_455
Si8 Tb3 2.996609 1_555
Si8 Tb2 3.307518 1_545
Si9 Tb2 2.964589 1_555
Si9 Tb0 2.996604 1_555
Si9 Tb0 2.996609 1_655
Si9 Tb1 3.307519 1_554
Ru0 Si7 2.373620 1_545
Ru0 Si1 2.424379 1_555
Ru0 Si0 2.424382 1_655
Ru0 Si5 2.424590 1_555
Ru0 Si2 2.424593 1_555
Ru0 Tb2 3.101670 1_545
Ru0 Tb2 3.101675 1_645
Ru0 Tb1 3.131708 1_554
Ru0 Tb3 3.136807 1_555
Ru1 Si8 2.430757 1_655
Ru1 Si6 2.430757 1_555
Ru1 Si7 2.430760 1_555
Ru1 Si9 2.430760 1_555
Ru1 Si2 2.522481 1_555
Ru1 Si3 2.522481 1_555
Ru1 Tb3 3.355089 1_555
Ru1 Tb2 3.355089 1_555
Ru1 Tb0 3.355089 1_655
Ru1 Tb1 3.355089 1_555
Ru2 Si6 2.373620 1_554
Ru2 Si0 2.424379 1_555
Ru2 Si1 2.424382 1_555
Ru2 Si2 2.424590 1_455
Ru2 Si5 2.424593 1_555
Ru2 Tb1 3.101670 1_454
Ru2 Tb1 3.101675 1_554
Ru2 Tb2 3.131708 1_545
Ru2 Tb0 3.136806 1_555
Ru3 Si9 2.373620 1_556
Ru3 Si1 2.424379 1_566
Ru3 Si0 2.424382 1_566
Ru3 Si4 2.424590 1_655
Ru3 Si3 2.424593 1_555
Ru3 Tb0 3.101670 1_656
Ru3 Tb0 3.101675 1_556
Ru3 Tb3 3.131708 1_565
Ru3 Tb1 3.136806 1_555
Ru4 Si8 2.373620 1_565
Ru4 Si0 2.424379 1_566
Ru4 Si1 2.424382 1_466
Ru4 Si3 2.424590 1_555
Ru4 Si4 2.424593 1_555
Ru4 Tb3 3.101670 1_565
Ru4 Tb3 3.101675 1_465
Ru4 Tb0 3.131708 1_556
Ru4 Tb2 3.136807 1_555
Ru5 Si7 2.430757 1_455
Ru5 Si9 2.430757 1_555
Ru5 Si8 2.430760 1_555
Ru5 Si6 2.430760 1_555
Ru5 Si5 2.522481 1_555
Ru5 Si4 2.522481 1_555
Ru5 Tb2 3.355089 1_555
Ru5 Tb3 3.355089 1_555
Ru5 Tb1 3.355089 1_455
Ru5 Tb0 3.355089 1_555
