# generated using pymatgen
data_Tb6InCo2
_symmetry_space_group_name_H-M   'P 1'
_cell_length_a   8.38980740
_cell_length_b   8.38975934
_cell_length_c   8.38976762
_cell_angle_alpha   112.17600731
_cell_angle_beta   108.90204916
_cell_angle_gamma   107.37319875
_symmetry_Int_Tables_number   1
_chemical_formula_structural   Tb6InCo2
_chemical_formula_sum   'Tb12 In2 Co4'
_cell_volume   453.75988891
_cell_formula_units_Z   2
loop_
 _symmetry_equiv_pos_site_id
 _symmetry_equiv_pos_as_xyz
  1  'x, y, z'
loop_
 _atom_site_type_symbol
 _atom_site_label
 _atom_site_symmetry_multiplicity
 _atom_site_fract_x
 _atom_site_fract_y
 _atom_site_fract_z
 _atom_site_occupancy
  Tb  Tb0  1  0.44023820  0.23521929  0.20501908  1
  Tb  Tb1  1  0.55978666  0.76478468  0.79500189  1
  Tb  Tb2  1  0.03021245  0.23521910  0.79499378  1
  Tb  Tb3  1  0.96979841  0.76478696  0.20501125  1
  Tb  Tb4  1  0.18284001  0.28590262  0.46875460  1
  Tb  Tb5  1  0.81716101  0.71408992  0.53126050  1
  Tb  Tb6  1  0.18283963  0.71408695  0.89693834  1
  Tb  Tb7  1  0.81716095  0.28590076  0.10307193  1
  Tb  Tb8  1  0.32548308  0.63875771  0.31326158  1
  Tb  Tb9  1  0.67450294  0.36123339  0.68671557  1
  Tb  Tb10  1  0.32548235  0.01222163  0.68672628  1
  Tb  Tb11  1  0.67450298  0.98778689  0.31326847  1
  In  In0  1  0.49998421  0.50000065  0.99998373  1
  In  In1  1  0.00001078  -0.00000010  0.00001253  1
  Co  Co0  1  0.34007915  0.00000035  0.34007228  1
  Co  Co1  1  0.65991743  0.00000168  0.65991507  1
  Co  Co2  1  0.11174720  0.61175516  0.49999231  1
  Co  Co3  1  0.88825057  0.38825138  0.50000080  1
loop_
_geom_bond_atom_site_label_1
_geom_bond_atom_site_label_2
_geom_bond_distance
_geom_bond_site_symmetry_2
In0 Tb1 3.304796 1_555
In0 Tb2 3.304846 1_555
In0 Tb0 3.305091 1_556
In0 Tb3 3.305106 1_556
In0 Tb10 3.407015 1_555
In0 Tb8 3.407023 1_556
In0 Tb11 3.407078 1_556
In0 Tb9 3.407091 1_555
In0 Tb4 3.686331 1_555
In0 Tb6 3.686344 1_555
In0 Tb5 3.686712 1_556
In0 Tb7 3.686714 1_556
In1 Tb3 3.076100 1_445
In1 Tb1 3.076201 1_444
In1 Tb0 3.076229 1_555
In1 Tb2 3.076277 1_554
In1 Tb4 3.216428 1_555
In1 Tb6 3.216429 1_544
In1 Tb7 3.216470 1_455
In1 Tb5 3.216478 1_444
Co0 Tb0 2.683086 1_555
Co0 Tb3 2.683145 1_445
Co0 Tb11 2.914859 1_545
Co0 Tb9 2.914885 1_555
Co0 Tb8 2.914935 1_545
Co0 Tb10 2.914985 1_555
Co0 Tb6 3.084890 1_544
Co0 Tb4 3.084954 1_555
Co1 Tb2 2.683215 1_655
Co1 Tb1 2.683244 1_545
Co1 Tb9 2.914898 1_555
Co1 Tb11 2.914905 1_545
Co1 Tb8 2.914973 1_545
Co1 Tb10 2.914992 1_555
Co1 Tb5 3.084999 1_545
Co1 Tb7 3.085008 1_556
Co2 Co3 2.220939 1_455
Co2 Tb10 2.750752 1_565
Co2 Tb8 2.750760 1_555
Co2 Tb7 2.903719 1_455
Co2 Tb5 2.903726 1_455
Co2 Tb4 2.903864 1_555
Co2 Tb6 2.903870 1_555
Co2 Tb3 3.254787 1_455
Co2 Tb1 3.255043 1_555
Co3 Tb9 2.750745 1_555
Co3 Tb11 2.750751 1_545
Co3 Tb5 2.903699 1_555
Co3 Tb7 2.903705 1_555
Co3 Tb6 2.903757 1_655
Co3 Tb4 2.903766 1_655
Co3 Tb0 3.254802 1_555
Co3 Tb2 3.254896 1_655
