# generated using pymatgen
data_Mg3Si4
_symmetry_space_group_name_H-M   'P 1'
_cell_length_a   5.16623500
_cell_length_b   7.43683502
_cell_length_c   7.74988877
_cell_angle_alpha   110.77903488
_cell_angle_beta   90.98306570
_cell_angle_gamma   90.04219658
_symmetry_Int_Tables_number   1
_chemical_formula_structural   Mg3Si4
_chemical_formula_sum   'Mg6 Si8'
_cell_volume   278.33847342
_cell_formula_units_Z   2
loop_
 _symmetry_equiv_pos_site_id
 _symmetry_equiv_pos_as_xyz
  1  'x, y, z'
loop_
 _atom_site_type_symbol
 _atom_site_label
 _atom_site_symmetry_multiplicity
 _atom_site_fract_x
 _atom_site_fract_y
 _atom_site_fract_z
 _atom_site_occupancy
  Mg  Mg0  1  0.26894500  0.29578200  0.55859300  1
  Mg  Mg1  1  0.76397500  0.16464800  0.27023900  1
  Mg  Mg2  1  0.50457500  0.41491000  0.97982800  1
  Mg  Mg3  1  0.24826100  0.87295500  0.22040400  1
  Mg  Mg4  1  0.75131900  0.59232600  0.60641500  1
  Mg  Mg5  1  0.99877400  0.03518600  0.84704100  1
  Si  Si0  1  0.07671800  0.52856800  0.31327500  1
  Si  Si1  1  0.77064200  0.72251200  0.22822400  1
  Si  Si2  1  0.77746900  0.24015000  0.65866800  1
  Si  Si3  1  0.26067000  0.66737500  0.84461400  1
  Si  Si4  1  0.26711400  0.22505800  0.17038800  1
  Si  Si5  1  0.27270800  0.75301800  0.57841900  1
  Si  Si6  1  0.60573600  0.92911500  0.50901700  1
  Si  Si7  1  0.68643500  0.81198100  0.96820700  1
loop_
_geom_bond_atom_site_label_1
_geom_bond_atom_site_label_2
_geom_bond_distance
_geom_bond_site_symmetry_2
Mg0 Si2 2.741040 1_455
Mg0 Si2 2.798924 1_555
Mg0 Si4 2.864322 1_555
Mg0 Si3 2.865171 1_555
Mg0 Si0 3.141783 1_555
Mg0 Si6 3.145989 1_545
Mg1 Si4 2.751334 1_555
Mg1 Si4 2.805559 1_655
Mg1 Si7 2.851061 1_544
Mg1 Si2 2.859263 1_555
Mg1 Si0 3.062845 1_655
Mg1 Si6 3.083909 1_545
Mg2 Si4 2.686728 1_556
Mg2 Si3 2.750485 1_555
Mg2 Si1 2.758310 1_556
Mg2 Si2 2.774809 1_555
Mg2 Si7 3.130218 1_555
Mg3 Si1 2.719030 1_455
Mg3 Si3 2.769573 1_554
Mg3 Si4 2.781642 1_565
Mg3 Si6 2.789680 1_555
Mg3 Si1 2.930118 1_555
Mg3 Si7 2.945261 1_554
Mg3 Si0 3.031399 1_555
Mg4 Si7 2.725004 1_555
Mg4 Si0 2.753160 1_655
Mg4 Si5 2.785488 1_555
Mg4 Si2 2.791589 1_555
Mg4 Si6 2.955230 1_555
Mg4 Si5 2.988320 1_655
Mg4 Si3 3.094534 1_555
Mg4 Si3 3.121507 1_655
Mg5 Si2 2.699260 1_555
Mg5 Si7 2.719361 1_545
Mg5 Si4 2.750009 1_656
Mg5 Si5 2.783161 1_645
Mg5 Si3 3.046796 1_645
Mg5 Si6 3.155432 1_545
Si0 Si5 2.350803 1_555
Si0 Si4 2.357055 1_555
Si0 Si1 2.378508 1_455
Si1 Si6 2.348453 1_555
Si1 Si7 2.369446 1_554
Si2 Si6 2.353922 1_545
Si3 Si5 2.366863 1_555
Si3 Si7 2.470943 1_555
Si5 Si6 2.343649 1_555
