# generated using pymatgen
data_O2
_symmetry_space_group_name_H-M   'P 1'
_cell_length_a   4.86309906
_cell_length_b   4.86309906
_cell_length_c   11.40326200
_cell_angle_alpha   90.00000000
_cell_angle_beta   90.00000000
_cell_angle_gamma   143.27038297
_symmetry_Int_Tables_number   1
_chemical_formula_structural   O2
_chemical_formula_sum   O16
_cell_volume   161.28174630
_cell_formula_units_Z   8
loop_
 _symmetry_equiv_pos_site_id
 _symmetry_equiv_pos_as_xyz
  1  'x, y, z'
loop_
 _atom_site_type_symbol
 _atom_site_label
 _atom_site_symmetry_multiplicity
 _atom_site_fract_x
 _atom_site_fract_y
 _atom_site_fract_z
 _atom_site_occupancy
  O  O0_0  1  0.08315100  0.41684900  0.12500000  1
  O  O0_1  1  0.08315100  0.41684900  0.62500000  1
  O  O0_2  1  0.08315100  0.91684900  0.12500000  1
  O  O0_3  1  0.08315100  0.91684900  0.62500000  1
  O  O0_4  1  0.58315100  0.41684900  0.12500000  1
  O  O0_5  1  0.58315100  0.41684900  0.62500000  1
  O  O0_6  1  0.58315100  0.91684900  0.12500000  1
  O  O0_7  1  0.58315100  0.91684900  0.62500000  1
  O  O1_0  1  0.41684900  0.08315100  0.37500000  1
  O  O1_1  1  0.41684900  0.08315100  0.87500000  1
  O  O1_2  1  0.41684900  0.58315100  0.37500000  1
  O  O1_3  1  0.41684900  0.58315100  0.87500000  1
  O  O1_4  1  0.91684900  0.08315100  0.37500000  1
  O  O1_5  1  0.91684900  0.08315100  0.87500000  1
  O  O1_6  1  0.91684900  0.58315100  0.37500000  1
  O  O1_7  1  0.91684900  0.58315100  0.87500000  1
loop_
_geom_bond_atom_site_label_1
_geom_bond_atom_site_label_2
_geom_bond_distance
_geom_bond_site_symmetry_2
O0_0 O0_6 1.532198 1_445
O0_0 O0_6 1.532198 1_555
O0_1 O0_7 1.532198 1_445
O0_1 O0_7 1.532198 1_555
O0_2 O0_4 1.532198 1_565
O0_2 O0_4 1.532198 1_455
O0_3 O0_5 1.532198 1_565
O0_3 O0_5 1.532198 1_455
O1_0 O1_6 1.532198 1_555
O1_0 O1_6 1.532198 1_445
O1_1 O1_7 1.532198 1_555
O1_1 O1_7 1.532198 1_445
O1_2 O1_4 1.532198 1_565
O1_2 O1_4 1.532198 1_455
O1_3 O1_5 1.532198 1_565
O1_3 O1_5 1.532198 1_455
