# generated using pymatgen
data_LiY2(FeO2)4
_symmetry_space_group_name_H-M   'P 1'
_cell_length_a   6.61056329
_cell_length_b   6.12583557
_cell_length_c   6.60887279
_cell_angle_alpha   62.55811515
_cell_angle_beta   57.31319605
_cell_angle_gamma   62.44010105
_symmetry_Int_Tables_number   1
_chemical_formula_structural   LiY2(FeO2)4
_chemical_formula_sum   'Li1 Y2 Fe4 O8'
_cell_volume   191.53637776
_cell_formula_units_Z   1
loop_
 _symmetry_equiv_pos_site_id
 _symmetry_equiv_pos_as_xyz
  1  'x, y, z'
loop_
 _atom_site_type_symbol
 _atom_site_label
 _atom_site_symmetry_multiplicity
 _atom_site_fract_x
 _atom_site_fract_y
 _atom_site_fract_z
 _atom_site_occupancy
  Li  Li0  1  0.85910800  0.41273100  0.86294200  1
  Y  Y0  1  0.59759200  0.65196100  0.59672700  1
  Y  Y1  1  0.37659800  0.35678100  0.37878900  1
  Fe  Fe0  1  0.04035800  0.48262800  0.03951000  1
  Fe  Fe1  1  0.02984600  0.96195600  0.03009200  1
  Fe  Fe2  1  0.51232300  0.99489500  0.99006400  1
  Fe  Fe3  1  0.98925300  0.99547200  0.51238100  1
  O  O0  1  0.19456200  0.78177600  0.76714300  1
  O  O1  1  0.21804900  0.24126300  0.78993700  1
  O  O2  1  0.22908200  0.76378400  0.22891100  1
  O  O3  1  0.24498500  0.20970200  0.24608700  1
  O  O4  1  0.76798700  0.78135100  0.19387000  1
  O  O5  1  0.78786100  0.24084600  0.22038100  1
  O  O6  1  0.75496700  0.25594500  0.75647200  1
  O  O7  1  0.74117800  0.77515700  0.74086100  1
loop_
_geom_bond_atom_site_label_1
_geom_bond_atom_site_label_2
_geom_bond_distance
_geom_bond_site_symmetry_2
Li0 O7 1.901205 1_555
Li0 O6 1.910356 1_555
Li0 O5 1.968618 1_556
Li0 O1 1.972451 1_655
Fe0 O3 2.070515 1_555
Fe0 O4 2.078233 1_455
Fe0 O0 2.084182 1_554
Fe0 O1 2.198740 1_554
Fe0 O5 2.215724 1_455
Fe0 Li0 2.329382 1_454
Fe1 O2 1.963248 1_555
Fe1 O0 2.008939 1_554
Fe1 O4 2.009178 1_455
Fe1 O1 2.080490 1_564
Fe1 O5 2.082723 1_465
Fe2 O7 2.069028 1_555
Fe2 O3 2.094798 1_566
Fe2 O6 2.221930 1_565
Fe2 O4 2.273926 1_556
Fe2 O2 2.280946 1_556
Fe2 O1 2.456363 1_565
Fe3 O7 2.070258 1_555
Fe3 O3 2.094785 1_665
Fe3 O6 2.221290 1_565
Fe3 O0 2.276640 1_655
Fe3 O2 2.279933 1_655
Fe3 O5 2.450607 1_565
O0 Y0 2.150140 1_555
O1 Y1 2.195590 1_555
O2 Y1 2.159985 1_555
O3 Y1 2.148416 1_555
O4 Y0 2.151165 1_555
O5 Y1 2.194556 1_555
O6 Y0 2.138297 1_555
O7 Y0 2.163305 1_555
