# generated using pymatgen
data_NdSmTi4O12
_symmetry_space_group_name_H-M   'P 1'
_cell_length_a   5.46455201
_cell_length_b   5.46455201
_cell_length_c   7.72574618
_cell_angle_alpha   90.00000000
_cell_angle_beta   90.00000000
_cell_angle_gamma   89.57894373
_symmetry_Int_Tables_number   1
_chemical_formula_structural   NdSmTi4O12
_chemical_formula_sum   'Nd1 Sm1 Ti4 O12'
_cell_volume   230.69481607
_cell_formula_units_Z   1
loop_
 _symmetry_equiv_pos_site_id
 _symmetry_equiv_pos_as_xyz
  1  'x, y, z'
loop_
 _atom_site_type_symbol
 _atom_site_label
 _atom_site_symmetry_multiplicity
 _atom_site_fract_x
 _atom_site_fract_y
 _atom_site_fract_z
 _atom_site_occupancy
  Nd  Nd0  1  0.52271716  0.52271716  -0.00000000  1
  Sm  Sm0  1  0.97843490  0.97843490  0.50000000  1
  Ti  Ti0  1  0.49063026  0.00963179  0.74923710  1
  Ti  Ti1  1  0.49063026  0.00963179  0.25076290  1
  Ti  Ti2  1  0.00963179  0.49063026  0.25076290  1
  Ti  Ti3  1  0.00963179  0.49063026  0.74923710  1
  O  O0  1  0.78068317  0.21691739  0.73714982  1
  O  O1  1  0.21691739  0.78068317  0.73714982  1
  O  O2  1  0.21691739  0.78068317  0.26285018  1
  O  O3  1  0.78068317  0.21691739  0.26285018  1
  O  O4  1  0.73464477  0.73464477  0.71948738  1
  O  O5  1  0.29408528  0.29408528  0.79330589  1
  O  O6  1  0.29408528  0.29408528  0.20669411  1
  O  O7  1  0.73464477  0.73464477  0.28051262  1
  O  O8  1  0.51345258  0.95116224  -0.00000000  1
  O  O9  1  0.44796763  0.03068014  0.50000000  1
  O  O10  1  0.95116224  0.51345258  0.00000000  1
  O  O11  1  0.03068014  0.44796763  0.50000000  1
loop_
_geom_bond_atom_site_label_1
_geom_bond_atom_site_label_2
_geom_bond_distance
_geom_bond_site_symmetry_2
Nd0 O10 2.341436 1_555
Nd0 O8 2.341436 1_555
Nd0 O5 2.386373 1_554
Nd0 O6 2.386373 1_555
Nd0 O7 2.720051 1_555
Nd0 O4 2.720051 1_554
O0 Ti0 1.957147 1_555
O0 Ti3 1.959248 1_655
O0 Sm0 2.490420 1_545
O1 Ti3 1.957147 1_555
O1 Ti0 1.959248 1_565
O1 Sm0 2.490420 1_455
O2 Ti2 1.957147 1_555
O2 Ti1 1.959248 1_565
O2 Sm0 2.490420 1_455
O3 Ti1 1.957147 1_555
O3 Ti2 1.959248 1_655
O3 Sm0 2.490420 1_545
O4 Ti0 2.014811 1_565
O4 Ti3 2.014811 1_655
O4 Sm0 2.539888 1_555
O5 Ti0 1.913403 1_555
O5 Ti3 1.913403 1_555
O6 Ti2 1.913403 1_555
O6 Ti1 1.913403 1_555
O7 Ti2 2.014811 1_655
O7 Ti1 2.014811 1_565
O7 Sm0 2.539888 1_555
O8 Ti1 1.967309 1_565
O8 Ti0 1.967309 1_564
O9 Ti1 1.942910 1_555
O9 Ti0 1.942910 1_555
O9 Sm0 2.583705 1_445
O9 Sm0 2.910703 1_545
O10 Ti2 1.967309 1_655
O10 Ti3 1.967309 1_654
O11 Ti3 1.942910 1_555
O11 Ti2 1.942910 1_555
O11 Sm0 2.583705 1_445
O11 Sm0 2.910703 1_455
