# generated using pymatgen
data_CaSn2P2O9
_symmetry_space_group_name_H-M   'P 1'
_cell_length_a   6.72819100
_cell_length_b   8.18147000
_cell_length_c   15.63062600
_cell_angle_alpha   90.00000000
_cell_angle_beta   90.00000000
_cell_angle_gamma   90.00000000
_symmetry_Int_Tables_number   1
_chemical_formula_structural   CaSn2P2O9
_chemical_formula_sum   'Ca4 Sn8 P8 O36'
_cell_volume   860.41114189
_cell_formula_units_Z   4
loop_
 _symmetry_equiv_pos_site_id
 _symmetry_equiv_pos_as_xyz
  1  'x, y, z'
loop_
 _atom_site_type_symbol
 _atom_site_label
 _atom_site_symmetry_multiplicity
 _atom_site_fract_x
 _atom_site_fract_y
 _atom_site_fract_z
 _atom_site_occupancy
  Ca  Ca0  1  0.25000000  0.45484100  0.27755100  1
  Ca  Ca1  1  0.25000000  0.04515900  0.77755100  1
  Ca  Ca2  1  0.75000000  0.95484100  0.22244900  1
  Ca  Ca3  1  0.75000000  0.54515900  0.72244900  1
  Sn  Sn0  1  0.25000000  0.86397600  0.38433900  1
  Sn  Sn1  1  0.75000000  0.13602400  0.61566100  1
  Sn  Sn2  1  0.75000000  0.36397600  0.11566100  1
  Sn  Sn3  1  0.25000000  0.63602400  0.88433900  1
  Sn  Sn4  1  0.00000000  0.50000000  0.50000000  1
  Sn  Sn5  1  0.00000000  0.00000000  0.00000000  1
  Sn  Sn6  1  0.50000000  0.00000000  0.00000000  1
  Sn  Sn7  1  0.50000000  0.50000000  0.50000000  1
  P  P0  1  0.75000000  0.88828000  0.43437700  1
  P  P1  1  0.25000000  0.11172000  0.56562300  1
  P  P2  1  0.25000000  0.38828000  0.06562300  1
  P  P3  1  0.75000000  0.61172000  0.93437700  1
  P  P4  1  0.25000000  0.89248500  0.20525600  1
  P  P5  1  0.25000000  0.60751500  0.70525600  1
  P  P6  1  0.75000000  0.39248500  0.29474400  1
  P  P7  1  0.75000000  0.10751500  0.79474400  1
  O  O0  1  0.55732300  0.09126700  0.84709500  1
  O  O1  1  0.05732300  0.90873300  0.15290500  1
  O  O2  1  0.44267700  0.59126700  0.65290500  1
  O  O3  1  0.94267700  0.40873300  0.34709500  1
  O  O4  1  0.44267700  0.90873300  0.15290500  1
  O  O5  1  0.94267700  0.09126700  0.84709500  1
  O  O6  1  0.55732300  0.40873300  0.34709500  1
  O  O7  1  0.05732300  0.59126700  0.65290500  1
  O  O8  1  0.75000000  0.77226900  0.98522200  1
  O  O9  1  0.25000000  0.22773100  0.01477800  1
  O  O10  1  0.25000000  0.27226900  0.51477800  1
  O  O11  1  0.75000000  0.72773100  0.48522200  1
  O  O12  1  0.25000000  0.63394500  0.42184100  1
  O  O13  1  0.75000000  0.36605500  0.57815900  1
  O  O14  1  0.75000000  0.13394500  0.07815900  1
  O  O15  1  0.25000000  0.86605500  0.92184100  1
  O  O16  1  0.25000000  0.72884900  0.25697900  1
  O  O17  1  0.75000000  0.27115100  0.74302100  1
  O  O18  1  0.75000000  0.22884900  0.24302100  1
  O  O19  1  0.25000000  0.77115100  0.75697900  1
  O  O20  1  0.93106400  0.59919000  0.87109700  1
  O  O21  1  0.43106400  0.40081000  0.12890300  1
  O  O22  1  0.06893600  0.09919000  0.62890300  1
  O  O23  1  0.56893600  0.90081000  0.37109700  1
  O  O24  1  0.06893600  0.40081000  0.12890300  1
  O  O25  1  0.56893600  0.59919000  0.87109700  1
  O  O26  1  0.93106400  0.90081000  0.37109700  1
  O  O27  1  0.43106400  0.09919000  0.62890300  1
  O  O28  1  0.25000000  0.96159600  0.50513800  1
  O  O29  1  0.75000000  0.52446600  0.21913600  1
  O  O30  1  0.75000000  0.97553400  0.71913600  1
  O  O31  1  0.25000000  0.02446600  0.28086400  1
  O  O32  1  0.25000000  0.53840400  0.00513800  1
  O  O33  1  0.75000000  0.46159600  0.99486200  1
  O  O34  1  0.75000000  0.03840400  0.49486200  1
  O  O35  1  0.25000000  0.47553400  0.78086400  1
loop_
_geom_bond_atom_site_label_1
_geom_bond_atom_site_label_2
_geom_bond_distance
_geom_bond_site_symmetry_2
Ca0 O16 2.264732 1_555
Ca0 O3 2.366306 1_455
Ca0 O6 2.366306 1_555
Ca0 O24 2.660446 1_555
Ca0 O21 2.660446 1_555
Ca0 O12 2.689568 1_555
Ca1 O19 2.264732 1_545
Ca1 O5 2.366306 1_455
Ca1 O0 2.366306 1_555
Ca1 O27 2.660446 1_555
Ca1 O22 2.660446 1_555
Ca1 O15 2.689568 1_545
Ca2 O18 2.264732 1_565
Ca2 O1 2.366306 1_655
Ca2 O4 2.366306 1_555
Ca2 O26 2.660446 1_555
Ca2 O23 2.660446 1_555
Ca2 O14 2.689568 1_565
Ca3 O17 2.264732 1_555
Ca3 O2 2.366306 1_555
Ca3 O7 2.366306 1_655
Ca3 O25 2.660446 1_555
Ca3 O20 2.660446 1_555
Ca3 O13 2.689568 1_555
O0 P7 1.538772 1_555
O0 Sn6 2.533458 1_556
O1 P4 1.538772 1_555
O1 Sn5 2.533458 1_565
O2 P5 1.538772 1_555
O2 Sn7 2.533458 1_555
O3 P6 1.538772 1_555
O3 Sn4 2.533458 1_655
O4 P4 1.538772 1_555
O4 Sn6 2.533458 1_565
O5 P7 1.538772 1_555
O5 Sn5 2.533458 1_656
O6 P6 1.538772 1_555
O6 Sn7 2.533458 1_555
O7 P5 1.538772 1_555
O7 Sn4 2.533458 1_555
O8 P3 1.535240 1_555
O8 Sn5 2.520726 1_666
O8 Sn6 2.520726 1_566
O9 P2 1.535240 1_555
O9 Sn6 2.520726 1_555
O9 Sn5 2.520726 1_555
O10 P1 1.535240 1_555
O10 Sn4 2.520726 1_555
O10 Sn7 2.520726 1_555
O11 P0 1.535240 1_555
O11 Sn7 2.520726 1_555
O11 Sn4 2.520726 1_655
O12 Sn0 1.971167 1_555
O12 Sn4 2.350042 1_555
O12 Sn7 2.350042 1_555
O13 Sn1 1.971167 1_555
O13 Sn7 2.350042 1_555
O13 Sn4 2.350042 1_655
O14 Sn2 1.971167 1_555
O14 Sn6 2.350042 1_555
O14 Sn5 2.350042 1_655
O15 Sn3 1.971167 1_555
O15 Sn5 2.350042 1_566
O15 Sn6 2.350042 1_566
O16 P4 1.563954 1_555
O16 Sn0 2.277096 1_555
O17 P7 1.563954 1_555
O17 Sn1 2.277096 1_555
O18 P6 1.563954 1_555
O18 Sn2 2.277096 1_555
O19 P5 1.563954 1_555
O19 Sn3 2.277096 1_555
O20 P3 1.572556 1_555
O20 Sn3 2.176782 1_655
O21 P2 1.572556 1_555
O21 Sn2 2.176782 1_555
O22 P1 1.572556 1_555
O22 Sn1 2.176782 1_455
O23 P0 1.572556 1_555
O23 Sn0 2.176782 1_555
O24 P2 1.572556 1_555
O24 Sn2 2.176782 1_455
O25 P3 1.572556 1_555
O25 Sn3 2.176782 1_555
O26 P0 1.572556 1_555
O26 Sn0 2.176782 1_655
O27 P1 1.572556 1_555
O27 Sn1 2.176782 1_555
O28 P1 1.549960 1_565
O28 Sn0 2.050133 1_555
O29 P6 1.600818 1_555
O29 Sn2 2.083267 1_555
O30 P7 1.600818 1_565
O30 Sn1 2.083267 1_565
O31 P4 1.600818 1_545
O31 Sn0 2.083267 1_545
O32 P2 1.549960 1_555
O32 Sn3 2.050133 1_554
O33 P3 1.549960 1_555
O33 Sn2 2.050133 1_556
O34 P0 1.549960 1_545
O34 Sn1 2.050133 1_555
O35 P5 1.600818 1_555
O35 Sn3 2.083267 1_555
