# generated using pymatgen
data_Nd2(Al3Ir)3
_symmetry_space_group_name_H-M   'P 1'
_cell_length_a   7.56615881
_cell_length_b   7.56615881
_cell_length_c   9.57480976
_cell_angle_alpha   90.00000000
_cell_angle_beta   90.00000000
_cell_angle_gamma   119.39441937
_symmetry_Int_Tables_number   1
_chemical_formula_structural   Nd2(Al3Ir)3
_chemical_formula_sum   'Nd4 Al18 Ir6'
_cell_volume   477.56186902
_cell_formula_units_Z   2
loop_
 _symmetry_equiv_pos_site_id
 _symmetry_equiv_pos_as_xyz
  1  'x, y, z'
loop_
 _atom_site_type_symbol
 _atom_site_label
 _atom_site_symmetry_multiplicity
 _atom_site_fract_x
 _atom_site_fract_y
 _atom_site_fract_z
 _atom_site_occupancy
  Nd  Nd0  1  0.99496211  0.67063191  0.25000000  1
  Nd  Nd1  1  0.00503789  0.32936809  0.75000000  1
  Nd  Nd2  1  0.67063191  0.99496211  0.25000000  1
  Nd  Nd3  1  0.32936809  0.00503789  0.75000000  1
  Al  Al0  1  0.13156592  0.13156592  0.25000000  1
  Al  Al1  1  0.86843408  0.86843408  0.75000000  1
  Al  Al2  1  0.00317726  0.33526178  0.07174683  1
  Al  Al3  1  0.99682274  0.66473822  0.92825317  1
  Al  Al4  1  0.99682274  0.66473822  0.57174683  1
  Al  Al5  1  0.33526178  0.00317726  0.42825317  1
  Al  Al6  1  0.00317726  0.33526178  0.42825317  1
  Al  Al7  1  0.66473822  0.99682274  0.57174683  1
  Al  Al8  1  0.66473822  0.99682274  0.92825317  1
  Al  Al9  1  0.33526178  0.00317726  0.07174683  1
  Al  Al10  1  0.33452538  0.33452538  0.54561998  1
  Al  Al11  1  0.66547462  0.66547462  0.45438002  1
  Al  Al12  1  0.66547462  0.66547462  0.04561998  1
  Al  Al13  1  0.33452538  0.33452538  0.95438002  1
  Al  Al14  1  0.33922428  0.54584417  0.25000000  1
  Al  Al15  1  0.66077572  0.45415583  0.75000000  1
  Al  Al16  1  0.54584417  0.33922428  0.25000000  1
  Al  Al17  1  0.45415583  0.66077572  0.75000000  1
  Ir  Ir0  1  0.67117700  0.32882300  -0.00000000  1
  Ir  Ir1  1  0.32882300  0.67117700  -0.00000000  1
  Ir  Ir2  1  0.32882300  0.67117700  0.50000000  1
  Ir  Ir3  1  0.67117700  0.32882300  0.50000000  1
  Ir  Ir4  1  -0.00000000  0.00000000  -0.00000000  1
  Ir  Ir5  1  -0.00000000  0.00000000  0.50000000  1
loop_
_geom_bond_atom_site_label_1
_geom_bond_atom_site_label_2
_geom_bond_distance
_geom_bond_site_symmetry_2
Al0 Ir4 2.595944 1_555
Al0 Ir5 2.595944 1_555
Al0 Al14 2.731161 1_555
Al0 Al16 2.731161 1_555
Al0 Al6 2.775161 1_555
Al0 Al5 2.775161 1_555
Al0 Al9 2.775161 1_555
Al0 Al2 2.775161 1_555
Al0 Nd0 3.113285 1_445
Al0 Nd2 3.113285 1_445
Al1 Ir5 2.595944 1_665
Al1 Ir4 2.595944 1_666
Al1 Al15 2.731161 1_555
Al1 Al17 2.731161 1_555
Al1 Al7 2.775161 1_555
Al1 Al4 2.775161 1_555
Al1 Al3 2.775161 1_555
Al1 Al8 2.775161 1_555
Al1 Nd1 3.113285 1_665
Al1 Nd3 3.113285 1_665
Al2 Ir0 2.581499 1_455
Al2 Ir4 2.616715 1_555
Al2 Ir1 2.618230 1_555
Al2 Al3 2.867410 1_454
Al2 Al8 2.926631 1_444
Al2 Nd1 3.081120 1_554
Al2 Nd0 3.083889 1_455
Al2 Nd2 3.084428 1_445
Al3 Ir1 2.581499 1_656
Al3 Ir4 2.616715 1_666
Al3 Ir0 2.618230 1_556
Al3 Al9 2.926631 1_666
Al3 Nd0 3.081120 1_556
Al3 Nd1 3.083889 1_655
Al3 Nd3 3.084428 1_665
Al4 Ir2 2.581499 1_655
Al4 Ir5 2.616715 1_665
Al4 Ir3 2.618230 1_555
Al4 Al6 2.867410 1_655
Al4 Al5 2.926631 1_665
Al4 Nd0 3.081120 1_555
Al4 Nd1 3.083889 1_655
Al4 Nd3 3.084428 1_665
Al5 Ir2 2.581499 1_545
Al5 Ir5 2.616715 1_555
Al5 Ir3 2.618230 1_555
Al5 Al7 2.867410 1_545
Al5 Nd3 3.081120 1_555
Al5 Nd2 3.083889 1_545
Al5 Nd0 3.084428 1_445
Al6 Ir3 2.581499 1_455
Al6 Ir5 2.616715 1_555
Al6 Ir2 2.618230 1_555
Al6 Al7 2.926631 1_445
Al6 Nd1 3.081120 1_555
Al6 Nd0 3.083889 1_455
Al6 Nd2 3.084428 1_445
Al7 Ir3 2.581499 1_565
Al7 Ir5 2.616715 1_665
Al7 Ir2 2.618230 1_555
Al7 Nd2 3.081120 1_555
Al7 Nd3 3.083889 1_565
Al7 Nd1 3.084428 1_665
Al8 Ir0 2.581499 1_566
Al8 Ir4 2.616715 1_666
Al8 Ir1 2.618230 1_556
Al8 Al9 2.867410 1_566
Al8 Nd2 3.081120 1_556
Al8 Nd3 3.083889 1_565
Al8 Nd1 3.084428 1_665
Al9 Ir1 2.581499 1_545
Al9 Ir4 2.616715 1_555
Al9 Ir0 2.618230 1_555
Al9 Nd3 3.081120 1_554
Al9 Nd2 3.083889 1_545
Al9 Nd0 3.084428 1_445
Al10 Ir5 2.591285 1_555
Al10 Ir3 2.605486 1_555
Al10 Ir2 2.605486 1_555
Al10 Al11 2.673651 1_555
Al10 Al6 2.749873 1_555
Al10 Al5 2.749873 1_555
Al10 Al17 2.923826 1_555
Al10 Al15 2.923826 1_555
Al10 Nd3 3.154411 1_555
Al10 Nd1 3.154411 1_555
Al11 Ir5 2.591285 1_665
Al11 Ir2 2.605486 1_555
Al11 Ir3 2.605486 1_555
Al11 Al7 2.749873 1_555
Al11 Al4 2.749873 1_555
Al11 Al14 2.923826 1_555
Al11 Al16 2.923826 1_555
Al11 Nd0 3.154411 1_555
Al11 Nd2 3.154411 1_555
Al12 Ir4 2.591285 1_665
Al12 Ir1 2.605486 1_555
Al12 Ir0 2.605486 1_555
Al12 Al13 2.673651 1_554
Al12 Al3 2.749873 1_554
Al12 Al8 2.749873 1_554
Al12 Al14 2.923826 1_555
Al12 Al16 2.923826 1_555
Al12 Nd0 3.154411 1_555
Al12 Nd2 3.154411 1_555
Al13 Ir4 2.591285 1_556
Al13 Ir0 2.605486 1_556
Al13 Ir1 2.605486 1_556
Al13 Al2 2.749873 1_556
Al13 Al9 2.749873 1_556
Al13 Al17 2.923826 1_555
Al13 Al15 2.923826 1_555
Al13 Nd3 3.154411 1_555
Al13 Nd1 3.154411 1_555
Al14 Ir1 2.590080 1_555
Al14 Ir2 2.590080 1_555
Al14 Al16 2.699448 1_555
Al14 Al2 2.817728 1_555
Al14 Al6 2.817728 1_555
Al14 Nd2 3.077389 1_555
Al14 Nd0 3.176519 1_455
Al15 Ir0 2.590080 1_556
Al15 Ir3 2.590080 1_555
Al15 Al17 2.699448 1_555
Al15 Al4 2.817728 1_555
Al15 Al3 2.817728 1_555
Al15 Nd3 3.077389 1_555
Al15 Nd1 3.176519 1_655
Al16 Ir0 2.590080 1_555
Al16 Ir3 2.590080 1_555
Al16 Al5 2.817728 1_555
Al16 Al9 2.817728 1_555
Al16 Nd0 3.077389 1_555
Al16 Nd2 3.176519 1_545
Al17 Ir2 2.590080 1_555
Al17 Ir1 2.590080 1_556
Al17 Al7 2.817728 1_555
Al17 Al8 2.817728 1_555
Al17 Nd1 3.077389 1_555
Al17 Nd3 3.176519 1_565
