# generated using pymatgen
data_Ta3(Bi2O7)2
_symmetry_space_group_name_H-M   'P 1'
_cell_length_a   7.65332979
_cell_length_b   7.65332979
_cell_length_c   12.08565627
_cell_angle_alpha   79.96211708
_cell_angle_beta   79.96211708
_cell_angle_gamma   60.02152790
_symmetry_Int_Tables_number   1
_chemical_formula_structural   Ta3(Bi2O7)2
_chemical_formula_sum   'Ta6 Bi8 O28'
_cell_volume   600.64078089
_cell_formula_units_Z   2
loop_
 _symmetry_equiv_pos_site_id
 _symmetry_equiv_pos_as_xyz
  1  'x, y, z'
loop_
 _atom_site_type_symbol
 _atom_site_label
 _atom_site_symmetry_multiplicity
 _atom_site_fract_x
 _atom_site_fract_y
 _atom_site_fract_z
 _atom_site_occupancy
  Ta  Ta0  1  0.13942900  0.35805600  0.75867100  1
  Ta  Ta1  1  0.64194400  0.86057100  0.74132900  1
  Ta  Ta2  1  0.86057100  0.64194400  0.24132900  1
  Ta  Ta3  1  0.35805600  0.13942900  0.25867100  1
  Ta  Ta4  1  0.15060300  0.84939700  0.75000000  1
  Ta  Ta5  1  0.84939700  0.15060300  0.25000000  1
  Bi  Bi0  1  0.02676500  0.74409300  0.46864900  1
  Bi  Bi1  1  0.25590700  0.97323500  0.03135100  1
  Bi  Bi2  1  0.97323500  0.25590700  0.53135100  1
  Bi  Bi3  1  0.74409300  0.02676500  0.96864900  1
  Bi  Bi4  1  0.49178700  0.27211800  0.50700000  1
  Bi  Bi5  1  0.72788200  0.50821300  0.99300000  1
  Bi  Bi6  1  0.50821300  0.72788200  0.49300000  1
  Bi  Bi7  1  0.27211800  0.49178700  0.00700000  1
  O  O0  1  0.84735500  0.56531700  0.78275100  1
  O  O1  1  0.43468300  0.15264500  0.71724900  1
  O  O2  1  0.15264500  0.43468300  0.21724900  1
  O  O3  1  0.56531700  0.84735500  0.28275100  1
  O  O4  1  0.21162100  0.56624200  0.78143000  1
  O  O5  1  0.43375800  0.78837900  0.71857000  1
  O  O6  1  0.78837900  0.43375800  0.21857000  1
  O  O7  1  0.56624200  0.21162100  0.28143000  1
  O  O8  1  0.13025300  0.86153500  0.91577100  1
  O  O9  1  0.13846500  0.86974700  0.58422900  1
  O  O10  1  0.86974700  0.13846500  0.08422900  1
  O  O11  1  0.86153500  0.13025300  0.41577100  1
  O  O12  1  0.14266000  0.44462100  0.58648200  1
  O  O13  1  0.55537900  0.85734000  0.91351800  1
  O  O14  1  0.85734000  0.55537900  0.41351800  1
  O  O15  1  0.44462100  0.14266000  0.08648200  1
  O  O16  1  0.14665500  0.27216700  0.91829000  1
  O  O17  1  0.72783300  0.85334500  0.58171000  1
  O  O18  1  0.85334500  0.72783300  0.08171000  1
  O  O19  1  0.27216700  0.14665500  0.41829000  1
  O  O20  1  0.63072200  0.41513500  0.58027200  1
  O  O21  1  0.58486500  0.36927800  0.91972800  1
  O  O22  1  0.36927800  0.58486500  0.41972800  1
  O  O23  1  0.41513500  0.63072200  0.08027200  1
  O  O24  1  0.06772600  0.15253000  0.72762800  1
  O  O25  1  0.84747000  0.93227400  0.77237200  1
  O  O26  1  0.93227400  0.84747000  0.27237200  1
  O  O27  1  0.15253000  0.06772600  0.22762800  1
loop_
_geom_bond_atom_site_label_1
_geom_bond_atom_site_label_2
_geom_bond_distance
_geom_bond_site_symmetry_2
Bi0 O17 2.279734 1_455
Bi0 O22 2.285754 1_555
Bi0 O9 2.304990 1_555
Bi0 O12 2.310575 1_555
Bi0 O26 2.479506 1_455
Bi0 O11 2.574960 1_465
Bi0 O14 2.592190 1_455
Bi1 O16 2.279734 1_564
Bi1 O23 2.285754 1_555
Bi1 O8 2.304990 1_554
Bi1 O13 2.310575 1_554
Bi1 O27 2.479506 1_565
Bi1 O10 2.574960 1_465
Bi1 O15 2.592190 1_565
Bi2 O19 2.279734 1_655
Bi2 O20 2.285754 1_555
Bi2 O11 2.304990 1_555
Bi2 O14 2.310575 1_555
Bi2 O24 2.479506 1_655
Bi2 O9 2.574960 1_645
Bi2 O12 2.592190 1_655
Bi3 O18 2.279734 1_546
Bi3 O21 2.285754 1_555
Bi3 O10 2.304990 1_556
Bi3 O15 2.310575 1_556
Bi3 O25 2.479506 1_545
Bi3 O8 2.574960 1_645
Bi3 O13 2.592190 1_545
Bi4 O20 2.223085 1_555
Bi4 O22 2.223199 1_555
Bi4 O12 2.413971 1_555
Bi4 O11 2.580988 1_555
Bi4 O1 2.585735 1_555
Bi4 O19 2.737985 1_555
Bi4 O7 2.757871 1_555
Bi4 O17 2.850358 1_545
Bi5 O21 2.223085 1_555
Bi5 O23 2.223199 1_556
Bi5 O13 2.413971 1_555
Bi5 O10 2.580988 1_556
Bi5 O0 2.585735 1_555
Bi5 O18 2.737985 1_556
Bi5 O6 2.757871 1_556
Bi5 O16 2.850358 1_655
Bi6 O22 2.223085 1_555
Bi6 O20 2.223199 1_555
Bi6 O14 2.413971 1_555
Bi6 O9 2.580988 1_555
Bi6 O3 2.585735 1_555
Bi6 O17 2.737985 1_555
Bi6 O5 2.757871 1_555
Bi6 O19 2.850358 1_565
Bi7 O23 2.223085 1_555
Bi7 O21 2.223199 1_554
Bi7 O15 2.413971 1_555
Bi7 O8 2.580988 1_554
Bi7 O2 2.585735 1_555
Bi7 O16 2.737985 1_554
Bi7 O4 2.757871 1_554
Bi7 O18 2.850358 1_455
O0 Ta0 1.997063 1_655
O0 Ta1 2.039144 1_555
O1 Ta1 1.997063 1_545
O1 Ta0 2.039144 1_555
O2 Ta2 1.997063 1_455
O2 Ta3 2.039144 1_555
O3 Ta3 1.997063 1_565
O3 Ta2 2.039144 1_555
O4 Ta4 1.955027 1_555
O4 Ta0 2.001270 1_555
O5 Ta4 1.955027 1_555
O5 Ta1 2.001270 1_555
O6 Ta5 1.955027 1_555
O6 Ta2 2.001270 1_555
O7 Ta5 1.955027 1_555
O7 Ta3 2.001270 1_555
O8 Ta4 1.997086 1_555
O9 Ta4 1.997086 1_555
O10 Ta5 1.997086 1_555
O11 Ta5 1.997086 1_555
O12 Ta0 2.070745 1_555
O13 Ta1 2.070745 1_555
O14 Ta2 2.070745 1_555
O15 Ta3 2.070745 1_555
O16 Ta0 1.927535 1_555
O17 Ta1 1.927535 1_555
O18 Ta2 1.927535 1_555
O19 Ta3 1.927535 1_555
O24 Ta0 2.014005 1_555
O24 Ta4 2.056274 1_545
O25 Ta1 2.014005 1_555
O25 Ta4 2.056274 1_655
O26 Ta2 2.014005 1_555
O26 Ta5 2.056274 1_565
O27 Ta3 2.014005 1_555
O27 Ta5 2.056274 1_455
