# generated using pymatgen
data_BeO
_symmetry_space_group_name_H-M   'P 1'
_cell_length_a   8.89395177
_cell_length_b   9.89509126
_cell_length_c   9.13312234
_cell_angle_alpha   89.10999290
_cell_angle_beta   92.04449111
_cell_angle_gamma   89.15324441
_symmetry_Int_Tables_number   1
_chemical_formula_structural   BeO
_chemical_formula_sum   'Be50 O50'
_cell_volume   803.07068356
_cell_formula_units_Z   50
loop_
 _symmetry_equiv_pos_site_id
 _symmetry_equiv_pos_as_xyz
  1  'x, y, z'
loop_
 _atom_site_type_symbol
 _atom_site_label
 _atom_site_symmetry_multiplicity
 _atom_site_fract_x
 _atom_site_fract_y
 _atom_site_fract_z
 _atom_site_occupancy
  Be  Be0  1  0.66313400  0.10862300  0.51273600  1
  Be  Be1  1  0.30279000  0.98740100  0.84041700  1
  Be  Be2  1  0.50323500  0.63533500  0.16985700  1
  Be  Be3  1  0.75928900  0.44899400  0.93570700  1
  Be  Be4  1  0.12051200  0.88133200  0.67556000  1
  Be  Be5  1  0.44329700  0.79330100  0.79149400  1
  Be  Be6  1  0.61669800  0.42408300  0.39851700  1
  Be  Be7  1  0.45688600  0.29345800  0.59132000  1
  Be  Be8  1  0.96477100  0.86079800  0.93502000  1
  Be  Be9  1  0.12959900  0.89712900  0.40074700  1
  Be  Be10  1  0.89685400  0.00046800  0.38243700  1
  Be  Be11  1  0.77420900  0.19089800  0.93992300  1
  Be  Be12  1  0.10891700  0.61036000  0.28484200  1
  Be  Be13  1  0.91948200  0.01976200  0.64996600  1
  Be  Be14  1  0.49907100  0.56349100  0.88761700  1
  Be  Be15  1  0.01994800  0.88762000  0.16616700  1
  Be  Be16  1  0.42256800  0.88602900  0.28735600  1
  Be  Be17  1  0.85870500  0.45511000  0.19790800  1
  Be  Be18  1  0.66332100  0.96607400  0.77920700  1
  Be  Be19  1  0.02366400  0.32766500  0.01361700  1
  Be  Be20  1  0.72757900  0.36480300  0.68667300  1
  Be  Be21  1  0.34036700  0.50719100  0.37415800  1
  Be  Be22  1  0.90895700  0.71809300  0.32432000  1
  Be  Be23  1  0.05284000  0.11100600  0.83821400  1
  Be  Be24  1  0.55113400  0.37358100  0.11542600  1
  Be  Be25  1  0.99240000  0.45617600  0.76336900  1
  Be  Be26  1  0.71328800  0.72271700  0.92387900  1
  Be  Be27  1  0.39312600  0.98016100  0.51910800  1
  Be  Be28  1  0.26383600  0.49545600  0.05839400  1
  Be  Be29  1  0.40833400  0.24276300  0.35456800  1
  Be  Be30  1  0.95313500  0.23111600  0.51582800  1
  Be  Be31  1  0.98793000  0.61271300  0.00135400  1
  Be  Be32  1  0.29789700  0.21528800  0.03078000  1
  Be  Be33  1  0.09526300  0.65547200  0.54411800  1
  Be  Be34  1  0.71498500  0.87201200  0.17168800  1
  Be  Be35  1  0.21907400  0.62924700  0.79471800  1
  Be  Be36  1  0.90383200  0.47172300  0.47412500  1
  Be  Be37  1  0.19234500  0.42518400  0.53903400  1
  Be  Be38  1  0.24765200  0.77288600  0.03371100  1
  Be  Be39  1  0.26063400  0.34490100  0.81228600  1
  Be  Be40  1  0.54044000  0.68800000  0.46427300  1
  Be  Be41  1  0.58858700  0.10101600  0.07530100  1
  Be  Be42  1  0.48712900  0.84313000  0.06481700  1
  Be  Be43  1  0.73851000  0.25711500  0.27904700  1
  Be  Be44  1  0.74246600  0.60491800  0.69050200  1
  Be  Be45  1  0.53722400  0.23516600  0.86382100  1
  Be  Be46  1  0.12899600  0.34570300  0.27471500  1
  Be  Be47  1  0.90114600  0.08526100  0.11055800  1
  Be  Be48  1  0.69125700  0.84583500  0.50193400  1
  Be  Be49  1  0.18784600  0.08348600  0.27486100  1
  O  O0  1  0.96784000  0.17531400  0.67147400  1
  O  O1  1  0.94524800  0.60341800  0.18301000  1
  O  O2  1  0.31077700  0.93741000  0.67298500  1
  O  O3  1  0.80875100  0.15063300  0.41920100  1
  O  O4  1  0.88897800  0.72049800  0.90873100  1
  O  O5  1  0.50999500  0.56996200  0.35208800  1
  O  O6  1  0.98752900  0.33749800  0.17684400  1
  O  O7  1  0.95261000  0.17341200  0.96255400  1
  O  O8  1  0.79199500  0.86006600  0.34584800  1
  O  O9  1  0.73099000  0.98552300  0.61622000  1
  O  O10  1  0.94860400  0.62236800  0.45746900  1
  O  O11  1  0.34200900  0.35757000  0.46911500  1
  O  O12  1  0.15905700  0.44686800  0.71471600  1
  O  O13  1  0.78831600  0.41764200  0.35707400  1
  O  O14  1  0.50623000  0.84837700  0.44460400  1
  O  O15  1  0.22363200  0.48940400  0.23148100  1
  O  O16  1  0.61576600  0.82558400  0.81415300  1
  O  O17  1  0.02109700  0.94869000  0.51955500  1
  O  O18  1  0.48539200  0.12573200  0.49598700  1
  O  O19  1  0.00505300  0.95471500  0.79150300  1
  O  O20  1  0.27917700  0.97087500  0.36497900  1
  O  O21  1  0.37476500  0.76107300  0.17810000  1
  O  O22  1  0.85414800  0.47116200  0.65285300  1
  O  O23  1  0.85479800  0.92642300  0.07857800  1
  O  O24  1  0.47876400  0.23342200  0.03051800  1
  O  O25  1  0.26215500  0.21465200  0.23692100  1
  O  O26  1  0.44837600  0.51415800  0.04933100  1
  O  O27  1  0.22325700  0.58296900  0.46954800  1
  O  O28  1  0.17852800  0.62364800  0.97173600  1
  O  O29  1  0.11373000  0.86824800  0.03673200  1
  O  O30  1  0.01935200  0.04126300  0.25304100  1
  O  O31  1  0.63735600  0.08391100  0.88544900  1
  O  O32  1  0.55299800  0.30948100  0.28483400  1
  O  O33  1  0.70375800  0.31421800  0.84459600  1
  O  O34  1  0.36976500  0.86265100  0.93087400  1
  O  O35  1  0.12046100  0.72511400  0.68801800  1
  O  O36  1  0.39375300  0.64089700  0.78011500  1
  O  O37  1  0.61438900  0.35636000  0.56342700  1
  O  O38  1  0.41038600  0.29108800  0.75419000  1
  O  O39  1  0.63351100  0.73688800  0.09037000  1
  O  O40  1  0.54410100  0.96639400  0.16523100  1
  O  O41  1  0.74562800  0.16446600  0.13153800  1
  O  O42  1  0.68082200  0.69339200  0.56534800  1
  O  O43  1  0.21107600  0.35204200  0.97890100  1
  O  O44  1  0.22949400  0.11378400  0.90132600  1
  O  O45  1  0.66841500  0.57042600  0.84500100  1
  O  O46  1  0.94414400  0.45756000  0.92341500  1
  O  O47  1  0.05146700  0.35114300  0.45663900  1
  O  O48  1  0.71390000  0.43265600  0.09432300  1
  O  O49  1  0.07763200  0.78302900  0.30058700  1
loop_
_geom_bond_atom_site_label_1
_geom_bond_atom_site_label_2
_geom_bond_distance
_geom_bond_site_symmetry_2
Be0 O18 1.589060 1_555
Be0 O9 1.625743 1_545
Be0 O3 1.632086 1_555
Be1 O44 1.523726 1_565
Be1 O34 1.572452 1_555
Be1 O2 1.618127 1_555
Be2 O21 1.681146 1_555
Be2 O26 1.705135 1_555
Be2 O39 1.717871 1_555
Be2 O5 1.774921 1_555
Be3 O48 1.524498 1_556
Be3 O45 1.635825 1_555
Be3 O33 1.655152 1_555
Be3 O46 1.655239 1_555
Be4 O35 1.548218 1_555
Be4 O19 1.668087 1_555
Be4 O17 1.766159 1_555
Be4 O2 1.789474 1_555
Be5 O16 1.578513 1_555
Be5 O36 1.581274 1_555
Be5 O34 1.610076 1_555
Be5 O2 2.098906 1_555
Be6 O13 1.586255 1_555
Be6 O37 1.639883 1_555
Be6 O32 1.642725 1_555
Be6 O5 1.753815 1_555
Be7 O38 1.558004 1_555
Be7 O37 1.568732 1_555
Be7 O11 1.602978 1_555
Be7 O18 1.903961 1_555
Be8 O4 1.570302 1_555
Be8 O29 1.593978 1_656
Be8 O19 1.647901 1_655
Be8 O23 1.787902 1_556
Be9 O49 1.530517 1_555
Be9 O17 1.564074 1_555
Be9 O20 1.568856 1_555
Be10 O30 1.684225 1_655
Be10 O17 1.707759 1_645
Be10 O3 1.713036 1_555
Be10 O8 1.715239 1_545
Be11 O33 1.595346 1_555
Be11 O7 1.599256 1_555
Be11 O31 1.691444 1_555
Be11 O41 1.793087 1_556
Be12 O15 1.651808 1_555
Be12 O1 1.702058 1_455
Be12 O49 1.736020 1_555
Be12 O27 1.951573 1_555
Be12 O10 2.166569 1_455
Be13 O19 1.598119 1_645
Be13 O0 1.617294 1_555
Be13 O17 1.677505 1_645
Be13 O9 1.733028 1_545
Be14 O36 1.522451 1_555
Be14 O45 1.571210 1_555
Be14 O26 1.629295 1_556
Be15 O29 1.484113 1_555
Be15 O49 1.655713 1_555
Be15 O23 1.683684 1_455
Be15 O30 1.725817 1_565
Be16 O14 1.629104 1_555
Be16 O21 1.651928 1_555
Be16 O20 1.698597 1_555
Be16 O40 1.768810 1_555
Be17 O48 1.590941 1_555
Be17 O6 1.639336 1_555
Be17 O13 1.642443 1_555
Be17 O1 1.673093 1_555
Be18 O16 1.492156 1_555
Be18 O31 1.548420 1_565
Be18 O9 1.635106 1_555
Be19 O6 1.540429 1_455
Be19 O46 1.652152 1_454
Be19 O7 1.725163 1_454
Be19 O43 1.727502 1_554
Be20 O37 1.487284 1_555
Be20 O33 1.542159 1_555
Be20 O22 1.587434 1_555
Be21 O27 1.571011 1_555
Be21 O15 1.650133 1_555
Be21 O5 1.657708 1_555
Be21 O11 1.703770 1_555
Be22 O10 1.556955 1_555
Be22 O49 1.660656 1_655
Be22 O8 1.753378 1_555
Be22 O1 1.766866 1_555
Be23 O7 1.594789 1_455
Be23 O44 1.654894 1_555
Be23 O19 1.667732 1_545
Be23 O0 1.780186 1_455
Be24 O48 1.586162 1_555
Be24 O32 1.662484 1_555
Be24 O24 1.721420 1_555
Be24 O26 1.741142 1_555
Be25 O46 1.538253 1_555
Be25 O12 1.564352 1_655
Be25 O22 1.566566 1_555
Be26 O4 1.573461 1_555
Be26 O16 1.634890 1_555
Be26 O39 1.707611 1_556
Be26 O45 1.726295 1_555
Be27 O2 1.659695 1_555
Be27 O18 1.682470 1_565
Be27 O20 1.709409 1_555
Be27 O14 1.792491 1_555
Be28 O15 1.633547 1_555
Be28 O28 1.645785 1_554
Be28 O26 1.659254 1_555
Be28 O43 1.669882 1_554
Be29 O32 1.602313 1_555
Be29 O11 1.671571 1_555
Be29 O25 1.685964 1_555
Be29 O18 1.829176 1_555
Be30 O0 1.517553 1_555
Be30 O47 1.584976 1_655
Be30 O3 1.741630 1_555
Be31 O4 1.587061 1_554
Be31 O1 1.716497 1_555
Be31 O28 1.730812 1_654
Be31 O46 1.745622 1_554
Be32 O43 1.604678 1_554
Be32 O24 1.621315 1_555
Be32 O44 1.667461 1_554
Be32 O25 1.920439 1_555
Be33 O35 1.504678 1_555
Be33 O27 1.523413 1_555
Be33 O10 1.543375 1_455
Be34 O23 1.624904 1_555
Be34 O39 1.698674 1_555
Be34 O8 1.710910 1_555
Be34 O40 1.770740 1_555
Be35 O36 1.569811 1_555
Be35 O35 1.582550 1_555
Be35 O28 1.669229 1_555
Be35 O12 2.029088 1_555
Be36 O10 1.555169 1_555
Be36 O13 1.562182 1_555
Be36 O22 1.706195 1_555
Be36 O47 1.774207 1_655
Be37 O47 1.627868 1_555
Be37 O11 1.635495 1_555
Be37 O12 1.658585 1_555
Be37 O27 1.705971 1_555
Be38 O29 1.509906 1_555
Be38 O28 1.705001 1_554
Be38 O21 1.707553 1_555
Be38 O34 1.710560 1_554
Be39 O38 1.541829 1_555
Be39 O12 1.586182 1_555
Be39 O43 1.601612 1_555
Be40 O42 1.528122 1_555
Be40 O5 1.585582 1_555
Be40 O14 1.617471 1_555
Be41 O41 1.610452 1_555
Be41 O40 1.615674 1_545
Be41 O24 1.659794 1_555
Be41 O31 1.812167 1_554
Be42 O34 1.587132 1_554
Be42 O40 1.614113 1_555
Be42 O39 1.668793 1_555
Be42 O21 1.673355 1_555
Be43 O41 1.643840 1_555
Be43 O32 1.724929 1_555
Be43 O3 1.737974 1_555
Be43 O13 1.805716 1_555
Be44 O42 1.511153 1_555
Be44 O45 1.612242 1_555
Be44 O22 1.690043 1_555
Be45 O38 1.570058 1_555
Be45 O24 1.626180 1_556
Be45 O33 1.698538 1_555
Be45 O31 1.735240 1_555
Be46 O6 1.521081 1_455
Be46 O15 1.711110 1_555
Be46 O25 1.789137 1_555
Be46 O47 1.822769 1_555
Be47 O41 1.598643 1_555
Be47 O23 1.658416 1_545
Be47 O7 1.678351 1_554
Be47 O30 1.691002 1_655
Be48 O42 1.612534 1_555
Be48 O14 1.708727 1_555
Be48 O8 1.715633 1_555
Be48 O9 1.777037 1_555
Be49 O25 1.506361 1_555
Be49 O30 1.568372 1_555
Be49 O20 1.573517 1_545
