# generated using pymatgen
data_Hf5Si3N
_symmetry_space_group_name_H-M   'P 1'
_cell_length_a   7.78725235
_cell_length_b   7.78725235
_cell_length_c   5.51860349
_cell_angle_alpha   90.00000000
_cell_angle_beta   90.00000000
_cell_angle_gamma   120.00000606
_symmetry_Int_Tables_number   1
_chemical_formula_structural   Hf5Si3N
_chemical_formula_sum   'Hf10 Si6 N2'
_cell_volume   289.81996106
_cell_formula_units_Z   2
loop_
 _symmetry_equiv_pos_site_id
 _symmetry_equiv_pos_as_xyz
  1  'x, y, z'
loop_
 _atom_site_type_symbol
 _atom_site_label
 _atom_site_symmetry_multiplicity
 _atom_site_fract_x
 _atom_site_fract_y
 _atom_site_fract_z
 _atom_site_occupancy
  Hf  Hf0  1  0.23484487  -0.00000000  0.25000000  1
  Hf  Hf1  1  0.76515513  0.00000000  0.75000000  1
  Hf  Hf2  1  -0.00000000  0.23484487  0.25000000  1
  Hf  Hf3  1  0.00000000  0.76515513  0.75000000  1
  Hf  Hf4  1  0.76515513  0.76515513  0.25000000  1
  Hf  Hf5  1  0.23484487  0.23484487  0.75000000  1
  Hf  Hf6  1  0.33333300  0.66666700  -0.00000000  1
  Hf  Hf7  1  0.66666700  0.33333300  -0.00000000  1
  Hf  Hf8  1  0.66666700  0.33333300  0.50000000  1
  Hf  Hf9  1  0.33333300  0.66666700  0.50000000  1
  Si  Si0  1  0.59495484  0.00000000  0.25000000  1
  Si  Si1  1  0.40504516  -0.00000000  0.75000000  1
  Si  Si2  1  0.00000000  0.59495484  0.25000000  1
  Si  Si3  1  -0.00000000  0.40504516  0.75000000  1
  Si  Si4  1  0.40504516  0.40504516  0.25000000  1
  Si  Si5  1  0.59495484  0.59495484  0.75000000  1
  N  N0  1  -0.00000000  -0.00000000  -0.00000000  1
  N  N1  1  -0.00000000  -0.00000000  0.50000000  1
loop_
_geom_bond_atom_site_label_1
_geom_bond_atom_site_label_2
_geom_bond_distance
_geom_bond_site_symmetry_2
Hf0 N1 2.290837 1_555
Hf0 N0 2.290837 1_555
Hf0 Si2 2.743179 1_545
Hf0 Si4 2.743179 1_555
Hf0 Si0 2.804267 1_555
Hf0 Si1 3.061113 1_554
Hf0 Si1 3.061113 1_555
Hf1 N1 2.290837 1_655
Hf1 N0 2.290837 1_656
Hf1 Si3 2.743179 1_655
Hf1 Si5 2.743179 1_545
Hf1 Si1 2.804267 1_555
Hf1 Si0 3.061113 1_555
Hf1 Si0 3.061113 1_556
Hf2 N1 2.290837 1_555
Hf2 N0 2.290837 1_555
Hf2 Si0 2.743179 1_455
Hf2 Si4 2.743179 1_555
Hf2 Si2 2.804267 1_555
Hf2 Si3 3.061113 1_554
Hf2 Si3 3.061113 1_555
Hf3 N0 2.290837 1_566
Hf3 N1 2.290837 1_565
Hf3 Si1 2.743179 1_565
Hf3 Si5 2.743179 1_455
Hf3 Si3 2.804267 1_555
Hf3 Si2 3.061113 1_556
Hf3 Si2 3.061113 1_555
Hf4 N1 2.290836 1_665
Hf4 N0 2.290836 1_665
Hf4 Si0 2.743180 1_565
Hf4 Si2 2.743180 1_655
Hf4 Si4 2.804267 1_555
Hf4 Si5 3.061113 1_554
Hf4 Si5 3.061113 1_555
Hf5 N0 2.290836 1_556
Hf5 N1 2.290836 1_555
Hf5 Si3 2.743180 1_555
Hf5 Si1 2.743180 1_555
Hf5 Si5 2.804267 1_555
Hf5 Si4 3.061113 1_556
Hf5 Si4 3.061113 1_555
Hf6 Si2 2.739275 1_555
Hf6 Si1 2.739275 1_564
Hf6 Si3 2.739277 1_554
Hf6 Si0 2.739277 1_565
Hf6 Si5 2.739282 1_554
Hf6 Si4 2.739282 1_555
Hf7 Si3 2.739275 1_654
Hf7 Si0 2.739275 1_555
Hf7 Si2 2.739277 1_655
Hf7 Si1 2.739277 1_554
Hf7 Si4 2.739282 1_555
Hf7 Si5 2.739282 1_554
Hf8 Si0 2.739275 1_555
Hf8 Si3 2.739275 1_655
Hf8 Si2 2.739277 1_655
Hf8 Si1 2.739277 1_555
Hf8 Si4 2.739282 1_555
Hf8 Si5 2.739282 1_555
Hf9 Si2 2.739275 1_555
Hf9 Si1 2.739275 1_565
Hf9 Si3 2.739277 1_555
Hf9 Si0 2.739277 1_565
Hf9 Si5 2.739282 1_555
Hf9 Si4 2.739282 1_555
