# generated using pymatgen
data_TlPO4
_symmetry_space_group_name_H-M   'P 1'
_cell_length_a   4.86852904
_cell_length_b   4.86852923
_cell_length_c   7.16352966
_cell_angle_alpha   90.00000000
_cell_angle_beta   90.00000000
_cell_angle_gamma   112.30960161
_symmetry_Int_Tables_number   1
_chemical_formula_structural   TlPO4
_chemical_formula_sum   'Tl2 P2 O8'
_cell_volume   157.08435766
_cell_formula_units_Z   2
loop_
 _symmetry_equiv_pos_site_id
 _symmetry_equiv_pos_as_xyz
  1  'x, y, z'
loop_
 _atom_site_type_symbol
 _atom_site_label
 _atom_site_symmetry_multiplicity
 _atom_site_fract_x
 _atom_site_fract_y
 _atom_site_fract_z
 _atom_site_occupancy
  Tl  Tl0  1  0.00000000  -0.00000000  0.50000000  1
  Tl  Tl1  1  0.00000000  -0.00000000  0.00000000  1
  P  P0  1  0.64505605  0.35494395  0.25000000  1
  P  P1  1  0.35494395  0.64505605  0.75000000  1
  O  O0  1  0.25805250  0.74194750  0.56815721  1
  O  O1  1  0.74194750  0.25805250  0.06815721  1
  O  O2  1  0.74194750  0.25805250  0.43184279  1
  O  O3  1  0.25805250  0.74194750  0.93184279  1
  O  O4  1  0.70084125  0.76659378  0.75000000  1
  O  O5  1  0.29915875  0.23340622  0.25000000  1
  O  O6  1  0.76659378  0.70084125  0.25000000  1
  O  O7  1  0.23340622  0.29915875  0.75000000  1
loop_
_geom_bond_atom_site_label_1
_geom_bond_atom_site_label_2
_geom_bond_distance
_geom_bond_site_symmetry_2
O0 P1 1.520145 1_555
O0 Tl0 2.143242 1_565
O1 P0 1.520145 1_555
O1 Tl1 2.143242 1_655
O2 P0 1.520145 1_555
O2 Tl0 2.143242 1_655
O3 P1 1.520145 1_555
O3 Tl1 2.143242 1_566
O4 P1 1.558682 1_555
O4 Tl1 2.315875 1_666
O4 Tl0 2.315875 1_665
O5 P0 1.558682 1_555
O5 Tl1 2.315875 1_555
O5 Tl0 2.315875 1_555
O6 P0 1.558682 1_555
O6 Tl1 2.315875 1_665
O6 Tl0 2.315875 1_665
O7 P1 1.558682 1_555
O7 Tl1 2.315875 1_556
O7 Tl0 2.315875 1_555
