# generated using pymatgen
data_Sr4Sm2MgTa2O12
_symmetry_space_group_name_H-M   'P 1'
_cell_length_a   5.90768757
_cell_length_b   6.23477446
_cell_length_c   8.77442102
_cell_angle_alpha   98.03407259
_cell_angle_beta   87.95444821
_cell_angle_gamma   90.69341009
_symmetry_Int_Tables_number   1
_chemical_formula_structural   Sr4Sm2MgTa2O12
_chemical_formula_sum   'Sr4 Sm2 Mg1 Ta2 O12'
_cell_volume   319.80487529
_cell_formula_units_Z   1
loop_
 _symmetry_equiv_pos_site_id
 _symmetry_equiv_pos_as_xyz
  1  'x, y, z'
loop_
 _atom_site_type_symbol
 _atom_site_label
 _atom_site_symmetry_multiplicity
 _atom_site_fract_x
 _atom_site_fract_y
 _atom_site_fract_z
 _atom_site_occupancy
  Sr  Sr0  1  0.02597800  0.38569100  0.32277800  1
  Sr  Sr1  1  0.98366200  0.48776500  0.73475300  1
  Sr  Sr2  1  0.50946400  0.06241300  0.21363100  1
  Sr  Sr3  1  0.46933200  0.99561900  0.73086700  1
  Sm  Sm0  1  0.99702000  0.93920300  0.47866100  1
  Sm  Sm1  1  0.46908400  0.53375300  0.99901200  1
  Mg  Mg0  1  0.95837300  0.70645000  0.10606700  1
  Ta  Ta0  1  0.99232700  0.06883000  0.96687000  1
  Ta  Ta1  1  0.50323200  0.45928100  0.51698300  1
  O  O0  1  0.94258100  0.02682500  0.20225700  1
  O  O1  1  0.02048400  0.06949300  0.74709200  1
  O  O2  1  0.52828600  0.45544100  0.29223800  1
  O  O3  1  0.45543200  0.41493200  0.74545400  1
  O  O4  1  0.18496100  0.78257900  0.94319000  1
  O  O5  1  0.82635900  0.35012700  0.99607900  1
  O  O6  1  0.29250200  0.18309800  0.46883900  1
  O  O7  1  0.72429600  0.69684000  0.56538900  1
  O  O8  1  0.27591700  0.21729800  0.02377700  1
  O  O9  1  0.72104300  0.84292300  0.96389300  1
  O  O10  1  0.23729000  0.65687100  0.54191000  1
  O  O11  1  0.75737800  0.23748400  0.51057300  1
loop_
_geom_bond_atom_site_label_1
_geom_bond_atom_site_label_2
_geom_bond_distance
_geom_bond_site_symmetry_2
Mg0 O4 2.024181 1_654
Mg0 O0 2.058780 1_565
Mg0 O9 2.167137 1_554
Mg0 O5 2.426436 1_554
Mg0 Sr0 2.985166 1_655
O0 Ta0 2.127621 1_554
O0 Sr0 2.390890 1_655
O0 Sr2 2.568183 1_555
O0 Sm0 2.591172 1_545
O1 Ta0 1.930238 1_455
O1 Sm0 2.390068 1_445
O1 Sr1 2.637074 1_455
O1 Sr3 2.692203 1_545
O1 Sr3 3.288256 1_445
O2 Ta1 1.969098 1_555
O2 Sr2 2.453405 1_555
O2 Sm1 2.720293 1_554
O2 Sr0 3.001904 1_555
O2 Sr0 3.004250 1_655
O3 Ta1 2.070668 1_555
O3 Sm1 2.248515 1_555
O3 Sr3 2.601676 1_545
O3 Sr1 2.836197 1_455
O3 Sr1 3.148012 1_555
O4 Ta0 2.109995 1_465
O4 Sm1 2.407943 1_555
O4 Sr1 2.701932 1_455
O4 Sr3 2.910610 1_555
O5 Ta0 2.000244 1_555
O5 Sm1 2.410950 1_555
O5 Sr1 2.690052 1_555
O5 Sr0 3.116822 1_656
O6 Ta1 2.115584 1_555
O6 Sm0 2.308368 1_445
O6 Sr0 2.522270 1_555
O6 Sr2 2.563391 1_555
O6 Sr3 2.948880 1_545
O7 Ta1 1.973993 1_555
O7 Sm0 2.373457 1_555
O7 Sr3 2.646289 1_555
O7 Sr1 2.647223 1_555
O7 Sr0 3.182755 1_655
O8 Ta0 1.950898 1_454
O8 Sm1 2.299991 1_554
O8 Sr2 2.501447 1_555
O8 Sr3 2.942280 1_544
O8 Sr0 3.025990 1_555
O9 Ta0 2.119219 1_565
O9 Sm1 2.467808 1_555
O9 Sr2 2.691569 1_566
O9 Sr3 2.844945 1_555
O9 Sr1 3.157329 1_555
O10 Ta1 1.995206 1_555
O10 Sm0 2.410635 1_455
O10 Sr1 2.549372 1_455
O10 Sr0 2.706584 1_555
O10 Sr3 2.863929 1_555
O11 Ta1 2.047482 1_555
O11 Sm0 2.330473 1_545
O11 Sr0 2.508082 1_655
O11 Sr1 2.714883 1_555
O11 Sr3 3.069832 1_545
O11 Sr2 3.092547 1_555
