# generated using pymatgen
data_Pb4Au
_symmetry_space_group_name_H-M   'P 1'
_cell_length_a   7.85877204
_cell_length_b   7.85877204
_cell_length_c   7.85877204
_cell_angle_alpha   60.00000000
_cell_angle_beta   60.00000000
_cell_angle_gamma   60.00000000
_symmetry_Int_Tables_number   1
_chemical_formula_structural   Pb4Au
_chemical_formula_sum   'Pb8 Au2'
_cell_volume   343.20141986
_cell_formula_units_Z   2
loop_
 _symmetry_equiv_pos_site_id
 _symmetry_equiv_pos_as_xyz
  1  'x, y, z'
loop_
 _atom_site_type_symbol
 _atom_site_label
 _atom_site_symmetry_multiplicity
 _atom_site_fract_x
 _atom_site_fract_y
 _atom_site_fract_z
 _atom_site_occupancy
  Pb  Pb0  1  0.60337000  0.60337000  0.60337000  1
  Pb  Pb1  1  0.18989100  0.60337000  0.60337000  1
  Pb  Pb2  1  0.60337000  0.18989100  0.60337000  1
  Pb  Pb3  1  0.56010900  0.14663000  0.14663000  1
  Pb  Pb4  1  0.14663000  0.14663000  0.14663000  1
  Pb  Pb5  1  0.60337000  0.60337000  0.18989100  1
  Pb  Pb6  1  0.14663000  0.56010900  0.14663000  1
  Pb  Pb7  1  0.14663000  0.14663000  0.56010900  1
  Au  Au0  1  0.00000000  0.00000000  0.00000000  1
  Au  Au1  1  0.75000000  0.75000000  0.75000000  1
loop_
_geom_bond_atom_site_label_1
_geom_bond_atom_site_label_2
_geom_bond_distance
_geom_bond_site_symmetry_2
Au0 Pb4 2.822625 1_555
Au0 Pb7 2.822631 1_554
Au0 Pb6 2.822631 1_545
Au0 Pb3 2.822631 1_455
Au1 Pb0 2.822625 1_555
Au1 Pb5 2.822631 1_556
Au1 Pb2 2.822631 1_565
Au1 Pb1 2.822631 1_655
