# generated using pymatgen
data_TmCoGe2
_symmetry_space_group_name_H-M   'P 1'
_cell_length_a   8.49205861
_cell_length_b   8.49205861
_cell_length_c   4.06865867
_cell_angle_alpha   90.00000000
_cell_angle_beta   90.00000000
_cell_angle_gamma   152.32050032
_symmetry_Int_Tables_number   1
_chemical_formula_structural   TmCoGe2
_chemical_formula_sum   'Tm2 Co2 Ge4'
_cell_volume   136.29707144
_cell_formula_units_Z   2
loop_
 _symmetry_equiv_pos_site_id
 _symmetry_equiv_pos_as_xyz
  1  'x, y, z'
loop_
 _atom_site_type_symbol
 _atom_site_label
 _atom_site_symmetry_multiplicity
 _atom_site_fract_x
 _atom_site_fract_y
 _atom_site_fract_z
 _atom_site_occupancy
  Tm  Tm0  1  0.88916856  0.11083144  0.25000000  1
  Tm  Tm1  1  0.11083144  0.88916856  0.75000000  1
  Co  Co0  1  0.67956027  0.32043973  0.25000000  1
  Co  Co1  1  0.32043973  0.67956027  0.75000000  1
  Ge  Ge0  1  0.54474118  0.45525882  0.25000000  1
  Ge  Ge1  1  0.45525882  0.54474118  0.75000000  1
  Ge  Ge2  1  0.25075893  0.74924107  0.25000000  1
  Ge  Ge3  1  0.74924107  0.25075893  0.75000000  1
loop_
_geom_bond_atom_site_label_1
_geom_bond_atom_site_label_2
_geom_bond_distance
_geom_bond_site_symmetry_2
Co0 Ge0 2.223308 1_555
Co0 Ge3 2.336439 1_555
Co0 Ge3 2.336439 1_554
Co0 Ge2 2.346281 1_655
Co0 Ge2 2.346281 1_545
Co0 Tm1 3.090233 1_654
Co0 Tm1 3.090233 1_655
Co0 Tm1 3.090233 1_545
Co0 Tm1 3.090233 1_544
Co1 Ge1 2.223308 1_555
Co1 Ge2 2.336439 1_555
Co1 Ge2 2.336439 1_556
Co1 Ge3 2.346281 1_455
Co1 Ge3 2.346281 1_565
Co1 Tm0 3.090233 1_455
Co1 Tm0 3.090233 1_456
Co1 Tm0 3.090233 1_565
Co1 Tm0 3.090233 1_566
Ge0 Ge1 2.513177 1_555
Ge0 Ge1 2.513177 1_554
Ge0 Tm1 3.074541 1_655
Ge0 Tm1 3.074541 1_544
Ge0 Tm1 3.074541 1_545
Ge0 Tm1 3.074541 1_654
Ge0 Tm0 3.272384 1_455
Ge0 Tm0 3.272384 1_565
Ge1 Tm0 3.074541 1_456
Ge1 Tm0 3.074541 1_455
Ge1 Tm0 3.074541 1_565
Ge1 Tm0 3.074541 1_566
Ge1 Tm1 3.272384 1_545
Ge1 Tm1 3.272384 1_655
Ge2 Tm0 3.055540 1_565
Ge2 Tm0 3.055540 1_455
Ge2 Tm1 3.076245 1_555
Ge2 Tm1 3.076245 1_554
Ge3 Tm1 3.055540 1_655
Ge3 Tm1 3.055540 1_545
Ge3 Tm0 3.076245 1_555
Ge3 Tm0 3.076245 1_556
