# generated using pymatgen
data_Ta(MnB2)2
_symmetry_space_group_name_H-M   'P 1'
_cell_length_a   6.82869680
_cell_length_b   6.82869680
_cell_length_c   6.82869680
_cell_angle_alpha   154.41730745
_cell_angle_beta   153.20039601
_cell_angle_gamma   37.38704419
_symmetry_Int_Tables_number   1
_chemical_formula_structural   Ta(MnB2)2
_chemical_formula_sum   'Ta1 Mn2 B4'
_cell_volume   61.90503999
_cell_formula_units_Z   1
loop_
 _symmetry_equiv_pos_site_id
 _symmetry_equiv_pos_as_xyz
  1  'x, y, z'
loop_
 _atom_site_type_symbol
 _atom_site_label
 _atom_site_symmetry_multiplicity
 _atom_site_fract_x
 _atom_site_fract_y
 _atom_site_fract_z
 _atom_site_occupancy
  Ta  Ta0  1  -0.00000000  0.50000000  0.50000000  1
  Mn  Mn0  1  0.18772409  0.18772409  -0.00000000  1
  Mn  Mn1  1  0.81227591  0.81227591  0.00000000  1
  B  B0  1  0.35497400  0.35497400  -0.00000000  1
  B  B1  1  0.64502600  0.64502600  0.00000000  1
  B  B2  1  0.42886583  0.92886583  0.50000000  1
  B  B3  1  0.57113417  0.07113417  0.50000000  1
loop_
_geom_bond_atom_site_label_1
_geom_bond_atom_site_label_2
_geom_bond_distance
_geom_bond_site_symmetry_2
B0 B2 1.788741 1_555
B0 B2 1.788741 1_544
B0 Mn0 2.163698 1_555
B0 Mn1 2.257268 1_556
B0 Mn1 2.257268 1_545
B0 Mn1 2.257268 1_444
B0 Mn1 2.257268 1_455
B0 Ta0 2.454473 1_655
B0 Ta0 2.454473 1_554
B1 B3 1.788741 1_565
B1 B3 1.788741 1_554
B1 Mn1 2.163698 1_555
B1 Mn0 2.257268 1_554
B1 Mn0 2.257268 1_655
B1 Mn0 2.257268 1_565
B1 Mn0 2.257268 1_666
B1 Ta0 2.454473 1_554
B1 Ta0 2.454473 1_655
B2 B3 1.840514 1_565
B2 Mn1 2.186175 1_455
B2 Mn1 2.186175 1_556
B2 Ta0 2.374238 1_666
B2 Ta0 2.374238 1_554
B2 Ta0 2.374238 1_655
B2 Ta0 2.374238 1_565
B3 Mn0 2.186175 1_555
B3 Mn0 2.186175 1_656
B3 Ta0 2.374238 1_656
B3 Ta0 2.374238 1_544
B3 Ta0 2.374238 1_645
B3 Ta0 2.374238 1_555
