# generated using pymatgen
data_SmSbTe
_symmetry_space_group_name_H-M   'P 1'
_cell_length_a   4.31000974
_cell_length_b   4.31000974
_cell_length_c   9.49618131
_cell_angle_alpha   90.00000000
_cell_angle_beta   90.00000000
_cell_angle_gamma   90.00000000
_symmetry_Int_Tables_number   1
_chemical_formula_structural   SmSbTe
_chemical_formula_sum   'Sm2 Sb2 Te2'
_cell_volume   176.40281092
_cell_formula_units_Z   2
loop_
 _symmetry_equiv_pos_site_id
 _symmetry_equiv_pos_as_xyz
  1  'x, y, z'
loop_
 _atom_site_type_symbol
 _atom_site_label
 _atom_site_symmetry_multiplicity
 _atom_site_fract_x
 _atom_site_fract_y
 _atom_site_fract_z
 _atom_site_occupancy
  Sm  Sm0  1  0.75000000  0.75000000  0.72523585  1
  Sm  Sm1  1  0.25000000  0.25000000  0.27476415  1
  Sb  Sb0  1  0.75000000  0.25000000  -0.00000000  1
  Sb  Sb1  1  0.25000000  0.75000000  -0.00000000  1
  Te  Te0  1  0.75000000  0.75000000  0.37536694  1
  Te  Te1  1  0.25000000  0.25000000  0.62463306  1
loop_
_geom_bond_atom_site_label_1
_geom_bond_atom_site_label_2
_geom_bond_distance
_geom_bond_site_symmetry_2
Sm0 Te1 3.193865 1_565
Sm0 Te1 3.193865 1_655
Sm0 Te1 3.193865 1_665
Sm0 Te1 3.193865 1_555
Sm0 Te0 3.322419 1_555
Sm1 Te0 3.193865 1_455
Sm1 Te0 3.193865 1_445
Sm1 Te0 3.193865 1_555
Sm1 Te0 3.193865 1_545
Sm1 Te1 3.322419 1_555
Sb0 Sb1 3.047637 1_655
Sb0 Sb1 3.047637 1_545
Sb0 Sb1 3.047637 1_645
Sb0 Sb1 3.047637 1_555
Sb0 Sm0 3.384084 1_554
Sb0 Sm1 3.384084 1_555
Sb0 Sm0 3.384084 1_544
Sb0 Sm1 3.384084 1_655
Sb1 Sm0 3.384084 1_554
Sb1 Sm1 3.384084 1_555
Sb1 Sm1 3.384084 1_565
Sb1 Sm0 3.384084 1_454
