# generated using pymatgen
data_CaTi2O4
_symmetry_space_group_name_H-M   'P 1'
_cell_length_a   6.25475189
_cell_length_b   6.25475189
_cell_length_c   15.55414600
_cell_angle_alpha   90.00000000
_cell_angle_beta   90.00000000
_cell_angle_gamma   119.99999884
_symmetry_Int_Tables_number   1
_chemical_formula_structural   CaTi2O4
_chemical_formula_sum   'Ca6 Ti12 O24'
_cell_volume   526.98345693
_cell_formula_units_Z   6
loop_
 _symmetry_equiv_pos_site_id
 _symmetry_equiv_pos_as_xyz
  1  'x, y, z'
loop_
 _atom_site_type_symbol
 _atom_site_label
 _atom_site_symmetry_multiplicity
 _atom_site_fract_x
 _atom_site_fract_y
 _atom_site_fract_z
 _atom_site_occupancy
  Ca  Ca0  1  0.66666700  0.33333300  0.04267800  1
  Ca  Ca1  1  0.33333300  0.66666700  0.37388600  1
  Ca  Ca2  1  0.33333300  0.66666700  0.00157100  1
  Ca  Ca3  1  0.00000000  0.00000000  0.70831700  1
  Ca  Ca4  1  0.66666700  0.33333300  0.28879800  1
  Ca  Ca5  1  0.33333300  0.66666700  0.62754400  1
  Ti  Ti0  1  0.16057900  0.83942100  0.16859100  1
  Ti  Ti1  1  0.67884200  0.83942100  0.16859100  1
  Ti  Ti2  1  0.83211000  0.16789000  0.50021000  1
  Ti  Ti3  1  0.16057900  0.32115800  0.16859100  1
  Ti  Ti4  1  0.00000000  0.00000000  0.34060500  1
  Ti  Ti5  1  0.33577900  0.16789000  0.50021000  1
  Ti  Ti6  1  0.50641700  0.49358300  0.82852100  1
  Ti  Ti7  1  0.83211000  0.66422100  0.50021000  1
  Ti  Ti8  1  0.50641700  0.01283500  0.82852100  1
  Ti  Ti9  1  0.66666700  0.33333300  0.65973900  1
  Ti  Ti10  1  0.98716500  0.49358300  0.82852100  1
  Ti  Ti11  1  0.00000000  0.00000000  0.95116700  1
  O  O0  1  0.02846300  0.51423200  0.10448600  1
  O  O1  1  0.33333300  0.66666700  0.23448800  1
  O  O2  1  0.48576800  0.97153700  0.10448600  1
  O  O3  1  0.48576800  0.51423200  0.10448600  1
  O  O4  1  0.85963700  0.14036300  0.24926100  1
  O  O5  1  0.70990400  0.85495200  0.42367800  1
  O  O6  1  0.85963700  0.71927400  0.24926100  1
  O  O7  1  0.00000000  0.00000000  0.07988100  1
  O  O8  1  0.14504800  0.29009600  0.42367800  1
  O  O9  1  0.00000000  0.00000000  0.56595800  1
  O  O10  1  0.28072600  0.14036300  0.24926100  1
  O  O11  1  0.14504800  0.85495200  0.42367800  1
  O  O12  1  0.52080500  0.47919500  0.57681900  1
  O  O13  1  0.38067900  0.19033900  0.75065600  1
  O  O14  1  0.52080500  0.04161000  0.57681900  1
  O  O15  1  0.66666700  0.33333300  0.43261100  1
  O  O16  1  0.66666700  0.33333300  0.90054100  1
  O  O17  1  0.80966100  0.61932100  0.75065600  1
  O  O18  1  0.95839000  0.47919500  0.57681900  1
  O  O19  1  0.80966100  0.19033900  0.75065600  1
  O  O20  1  0.16248600  0.83751400  0.90543800  1
  O  O21  1  0.33333300  0.66666700  0.76943100  1
  O  O22  1  0.16248600  0.32497100  0.90543800  1
  O  O23  1  0.67502900  0.83751400  0.90543800  1
loop_
_geom_bond_atom_site_label_1
_geom_bond_atom_site_label_2
_geom_bond_distance
_geom_bond_site_symmetry_2
Ca0 O0 2.182870 1_655
Ca0 O2 2.182870 1_545
Ca0 O3 2.182880 1_555
Ca0 O16 2.210820 1_554
Ca1 O1 2.168217 1_555
Ca1 O11 2.181873 1_555
Ca1 O8 2.181878 1_555
Ca1 O5 2.181878 1_555
Ca2 O3 2.299908 1_555
Ca2 O2 2.299908 1_555
Ca2 O0 2.299908 1_555
Ca2 O20 2.379407 1_554
Ca2 O22 2.379415 1_554
Ca2 O23 2.379415 1_554
Ca3 O19 2.164653 1_455
Ca3 O13 2.164658 1_555
Ca3 O17 2.164658 1_445
Ca3 O9 2.214273 1_555
Ca4 O4 2.179124 1_555
Ca4 O10 2.179129 1_555
Ca4 O6 2.179129 1_555
Ca4 O15 2.236888 1_555
Ca5 O14 2.178849 1_565
Ca5 O18 2.178849 1_455
Ca5 O12 2.178854 1_555
Ca5 O21 2.206931 1_555
O0 Ti0 2.033062 1_555
O0 Ti3 2.033067 1_555
O1 Ti0 2.133828 1_555
O1 Ti1 2.133833 1_555
O1 Ti3 2.133833 1_555
O2 Ti0 2.033062 1_555
O2 Ti1 2.033067 1_555
O3 Ti3 2.033063 1_555
O3 Ti1 2.033063 1_555
O4 Ti1 2.065846 1_545
O4 Ti3 2.065846 1_655
O4 Ti4 2.081087 1_655
O5 Ti4 2.034416 1_665
O5 Ti7 2.082390 1_555
O5 Ti2 2.082395 1_565
O6 Ti1 2.065846 1_555
O6 Ti0 2.065846 1_655
O6 Ti4 2.081087 1_665
O7 Ti11 2.002036 1_554
O7 Ti0 2.220410 1_545
O7 Ti3 2.220410 1_555
O7 Ti1 2.220410 1_445
O8 Ti4 2.034416 1_555
O8 Ti5 2.082390 1_555
O8 Ti2 2.082395 1_455
O9 Ti5 2.086623 1_555
O9 Ti7 2.086623 1_445
O9 Ti2 2.086628 1_455
O10 Ti3 2.065846 1_555
O10 Ti0 2.065846 1_545
O10 Ti4 2.081087 1_555
O11 Ti4 2.034416 1_565
O11 Ti7 2.082394 1_455
O11 Ti5 2.082394 1_565
O12 Ti9 2.039729 1_555
O12 Ti7 2.072954 1_555
O12 Ti5 2.072954 1_555
O13 Ti8 2.047228 1_555
O13 Ti6 2.047237 1_555
O13 Ti9 2.097521 1_555
O14 Ti9 2.039725 1_555
O14 Ti2 2.072953 1_555
O14 Ti5 2.072958 1_555
O15 Ti2 2.077980 1_555
O15 Ti7 2.077989 1_555
O15 Ti5 2.077989 1_555
O16 Ti10 2.066106 1_555
O16 Ti8 2.066106 1_555
O16 Ti6 2.066115 1_555
O17 Ti10 2.047228 1_555
O17 Ti6 2.047237 1_555
O17 Ti9 2.097521 1_555
O18 Ti9 2.039725 1_555
O18 Ti2 2.072953 1_555
O18 Ti7 2.072958 1_555
O19 Ti10 2.047236 1_555
O19 Ti8 2.047236 1_555
O19 Ti9 2.097521 1_555
O20 Ti11 1.898570 1_565
O20 Ti8 2.214163 1_565
O20 Ti10 2.214163 1_455
O21 Ti6 2.088250 1_555
O21 Ti8 2.088250 1_565
O21 Ti10 2.088250 1_455
O22 Ti11 1.898565 1_555
O22 Ti6 2.214163 1_555
O22 Ti10 2.214172 1_455
O23 Ti11 1.898565 1_665
O23 Ti6 2.214163 1_555
O23 Ti8 2.214172 1_565
