# generated using pymatgen
data_Rb4Mg(Se2O7)2
_symmetry_space_group_name_H-M   'P 1'
_cell_length_a   8.63756885
_cell_length_b   7.99448629
_cell_length_c   8.17811565
_cell_angle_alpha   87.91351014
_cell_angle_beta   87.54618401
_cell_angle_gamma   56.99320014
_symmetry_Int_Tables_number   1
_chemical_formula_structural   Rb4Mg(Se2O7)2
_chemical_formula_sum   'Rb4 Mg1 Se4 O14'
_cell_volume   473.08793957
_cell_formula_units_Z   1
loop_
 _symmetry_equiv_pos_site_id
 _symmetry_equiv_pos_as_xyz
  1  'x, y, z'
loop_
 _atom_site_type_symbol
 _atom_site_label
 _atom_site_symmetry_multiplicity
 _atom_site_fract_x
 _atom_site_fract_y
 _atom_site_fract_z
 _atom_site_occupancy
  Rb  Rb0  1  0.18097700  0.49894800  0.37076800  1
  Rb  Rb1  1  0.44070100  0.84522600  0.14372400  1
  Rb  Rb2  1  0.67936200  0.54398500  0.57748100  1
  Rb  Rb3  1  0.66023100  0.07605200  0.82447400  1
  Mg  Mg0  1  0.06665000  0.38118600  0.85419200  1
  Se  Se0  1  0.70638700  0.06007700  0.35919400  1
  Se  Se1  1  0.88803800  0.31024300  0.11217400  1
  Se  Se2  1  0.21914200  0.99560800  0.65285200  1
  Se  Se3  1  0.17836000  0.64588000  0.89271200  1
  O  O0  1  0.60417300  0.25149300  0.48800400  1
  O  O1  1  0.80744000  0.41914600  0.92074300  1
  O  O2  1  0.29655600  0.88324800  0.47529800  1
  O  O3  1  0.27157700  0.62775100  0.07278900  1
  O  O4  1  0.56313300  0.10467200  0.20918200  1
  O  O5  1  0.79655400  0.49126000  0.25029600  1
  O  O6  1  0.39130600  0.91425700  0.78173200  1
  O  O7  1  0.28949300  0.41574400  0.80158500  1
  O  O8  1  0.77661900  0.84634700  0.46234400  1
  O  O9  1  0.11567100  0.23594100  0.07677400  1
  O  O10  1  0.10582700  0.24894100  0.63491100  1
  O  O11  1  0.96619800  0.67585300  0.91821100  1
  O  O12  1  0.90727100  0.02702900  0.27499600  1
  O  O13  1  0.05499900  0.95944500  0.73723300  1
loop_
_geom_bond_atom_site_label_1
_geom_bond_atom_site_label_2
_geom_bond_distance
_geom_bond_site_symmetry_2
Mg0 O10 2.035807 1_555
Mg0 O9 2.053658 1_556
Mg0 O11 2.097709 1_455
Mg0 O7 2.113328 1_555
Mg0 O1 2.137433 1_455
O0 Se0 1.672340 1_555
O0 Rb2 2.871376 1_555
O0 Rb3 2.977684 1_555
O0 Rb0 3.237011 1_555
O1 Se1 1.739917 1_556
O1 Rb2 2.993246 1_555
O2 Se2 1.649216 1_555
O2 Rb1 2.890368 1_555
O2 Rb2 3.047732 1_555
O3 Se3 1.672416 1_554
O3 Rb0 2.853618 1_555
O3 Rb1 2.899363 1_555
O4 Se0 1.667567 1_555
O4 Rb1 2.868096 1_545
O4 Rb3 3.204941 1_554
O4 Rb0 3.342425 1_555
O5 Se1 1.670724 1_555
O5 Rb2 2.783406 1_555
O5 Rb1 2.964549 1_555
O5 Rb0 3.536514 1_655
O6 Se2 1.666104 1_555
O6 Rb1 2.997215 1_556
O6 Rb2 3.118219 1_555
O6 Rb3 3.250653 1_565
O7 Se3 1.725182 1_555
O7 Rb3 2.864319 1_555
O7 Rb0 3.628680 1_555
O8 Se0 1.675926 1_565
O8 Rb2 3.068253 1_555
O8 Rb0 3.135652 1_655
O8 Rb3 3.359078 1_565
O9 Se1 1.730297 1_455
O9 Rb1 2.896801 1_545
O9 Rb0 3.506608 1_555
O10 Se2 1.706531 1_545
O10 Rb2 3.155096 1_455
O10 Rb0 3.171985 1_555
O11 Se3 1.718052 1_655
O11 Rb3 2.931064 1_565
O12 Se0 1.722260 1_555
O12 Se1 2.513303 1_555
O12 Rb0 3.615194 1_645
O13 Se2 1.708273 1_555
O13 Se3 2.451527 1_555
O13 Rb3 3.063011 1_465
