# generated using pymatgen
data_Pm(Mg4Al3)4
_symmetry_space_group_name_H-M   'P 1'
_cell_length_a   8.90537339
_cell_length_b   9.28833849
_cell_length_c   9.28833946
_cell_angle_alpha   110.29131468
_cell_angle_beta   108.63812056
_cell_angle_gamma   108.63811250
_symmetry_Int_Tables_number   1
_chemical_formula_structural   Pm(Mg4Al3)4
_chemical_formula_sum   'Pm1 Mg16 Al12'
_cell_volume   597.40478218
_cell_formula_units_Z   1
loop_
 _symmetry_equiv_pos_site_id
 _symmetry_equiv_pos_as_xyz
  1  'x, y, z'
loop_
 _atom_site_type_symbol
 _atom_site_label
 _atom_site_symmetry_multiplicity
 _atom_site_fract_x
 _atom_site_fract_y
 _atom_site_fract_z
 _atom_site_occupancy
  Pm  Pm0  1  0.37465900  0.99999900  0.99999900  1
  Mg  Mg0  1  0.61276900  0.33158500  0.00000000  1
  Mg  Mg1  1  0.99596800  0.00000000  0.00000000  1
  Mg  Mg2  1  0.99551100  0.34074700  0.00000000  1
  Mg  Mg3  1  0.31520700  0.59914500  0.00000000  1
  Mg  Mg4  1  0.68850900  0.68707200  0.29445800  1
  Mg  Mg5  1  0.00143800  0.60738600  0.31292800  1
  Mg  Mg6  1  0.61276900  0.00000000  0.33158600  1
  Mg  Mg7  1  0.99551000  0.00000000  0.34074700  1
  Mg  Mg8  1  0.39405300  0.70554400  0.39261500  1
  Mg  Mg9  1  0.71606200  0.40085500  0.40085600  1
  Mg  Mg10  1  0.31520700  0.00000000  0.59914500  1
  Mg  Mg11  1  0.00143800  0.31292800  0.60738600  1
  Mg  Mg12  1  0.65476300  0.65925200  0.65925200  1
  Mg  Mg13  1  0.28118500  0.66841400  0.66841400  1
  Mg  Mg14  1  0.68850900  0.29445800  0.68707200  1
  Mg  Mg15  1  0.39405300  0.39261500  0.70554300  1
  Al  Al0  1  0.63002900  0.81794800  0.99999900  1
  Al  Al1  1  0.81089400  0.63724900  0.00000000  1
  Al  Al2  1  0.36334600  0.36332700  0.17930100  1
  Al  Al3  1  0.81208000  0.18205100  0.18205200  1
  Al  Al4  1  0.18404400  0.82069800  0.18402500  1
  Al  Al5  1  0.17364500  0.36275200  0.36275200  1
  Al  Al6  1  0.36334700  0.17930100  0.36332700  1
  Al  Al7  1  0.00001900  0.81597500  0.63667300  1
  Al  Al8  1  0.81089300  0.00000000  0.63725000  1
  Al  Al9  1  0.00001900  0.63667300  0.81597500  1
  Al  Al10  1  0.63002800  0.00000000  0.81794800  1
  Al  Al11  1  0.18404400  0.18402500  0.82069700  1
loop_
_geom_bond_atom_site_label_1
_geom_bond_atom_site_label_2
_geom_bond_distance
_geom_bond_site_symmetry_2
Mg0 Mg14 3.119076 1_554
Mg0 Mg5 3.119081 1_655
Mg0 Pm0 3.131719 1_544
Mg0 Mg15 3.157760 1_554
Mg0 Mg4 3.157768 1_555
Mg0 Mg10 3.300599 1_554
Mg0 Mg9 3.300608 1_555
Mg0 Mg2 3.382225 1_555
Mg1 Mg2 3.166276 1_555
Mg1 Mg7 3.166280 1_555
Mg1 Mg12 3.166286 1_544
Mg1 Pm0 3.372391 1_644
Mg2 Mg5 3.067619 1_655
Mg2 Mg3 3.081937 1_655
Mg3 Mg4 3.178474 1_555
Mg3 Mg8 3.191951 1_555
Mg3 Mg6 3.300601 1_565
Mg3 Pm0 3.589300 1_554
Mg4 Mg7 3.067619 1_565
Mg4 Mg8 3.073109 1_555
Mg4 Mg5 3.073125 1_655
Mg4 Mg6 3.119075 1_565
Mg4 Mg9 3.191955 1_555
Mg5 Mg8 3.073120 1_555
Mg5 Mg9 3.178487 1_455
Mg6 Pm0 3.131726 1_544
Mg6 Mg8 3.157747 1_545
Mg6 Mg9 3.300598 1_555
Mg6 Mg7 3.382219 1_555
Mg9 Pm0 3.589317 1_544
Mg10 Mg7 3.081943 1_455
Mg10 Mg8 3.178470 1_545
Mg10 Mg14 3.178475 1_555
Mg10 Mg5 3.191948 1_545
Mg10 Mg15 3.191953 1_555
Mg10 Mg13 3.300603 1_545
Mg10 Pm0 3.589300 1_545
Mg11 Mg7 3.067614 1_455
Mg11 Mg15 3.073121 1_555
Mg11 Mg14 3.073125 1_455
Mg11 Mg6 3.119080 1_455
Mg11 Mg13 3.157765 1_555
Mg11 Mg9 3.178476 1_455
Mg11 Mg3 3.191948 1_556
Mg12 Mg15 3.067610 1_555
Mg12 Mg8 3.067616 1_555
Mg12 Mg9 3.081928 1_555
Mg12 Mg13 3.382207 1_555
Mg13 Mg15 3.119068 1_555
Mg13 Mg8 3.119072 1_555
Mg13 Pm0 3.131720 1_555
Mg13 Mg5 3.157765 1_555
Mg13 Mg3 3.300604 1_556
Mg14 Mg2 3.067624 1_556
Mg14 Mg15 3.073106 1_555
Mg14 Mg6 3.157761 1_555
Mg14 Mg9 3.191941 1_555
Mg15 Mg3 3.178477 1_556
Al0 Al1 2.671925 1_556
Al0 Al10 2.775223 1_565
Al0 Al3 2.775223 1_566
Al0 Mg3 2.889399 1_556
Al0 Mg13 3.037286 1_555
Al0 Mg6 3.037309 1_566
Al0 Mg12 3.107360 1_555
Al0 Mg7 3.107363 1_566
Al0 Mg1 3.155475 1_566
Al0 Pm0 3.238689 1_555
Al0 Mg15 3.321067 1_555
Al0 Mg4 3.321085 1_556
Al1 Al4 2.756415 1_655
Al1 Al9 2.756415 1_654
Al1 Mg0 2.823430 1_555
Al1 Mg14 3.018615 1_554
Al1 Mg5 3.018617 1_655
Al1 Mg7 3.132025 1_565
Al1 Mg12 3.132027 1_554
Al1 Mg15 3.198765 1_554
Al1 Mg4 3.198780 1_555
Al1 Mg1 3.243371 1_565
Al2 Al5 2.756430 1_555
Al2 Al6 2.805322 1_555
Al2 Mg4 2.965683 1_555
Al2 Mg8 2.972217 1_555
Al2 Mg9 2.982231 1_555
Al2 Mg2 3.062592 1_455
Al2 Mg0 3.199492 1_555
Al2 Mg1 3.229240 1_455
Al2 Mg3 3.229391 1_555
Al2 Pm0 3.255587 1_544
Al3 Al5 2.671933 1_655
Al3 Mg9 2.889398 1_555
Al3 Mg6 3.037291 1_555
Al3 Mg0 3.037296 1_555
Al3 Mg7 3.107355 1_555
Al3 Mg2 3.107373 1_555
Al3 Mg1 3.155483 1_555
Al3 Pm0 3.238688 1_544
Al3 Mg11 3.321075 1_655
Al3 Mg5 3.321085 1_655
Al4 Al6 2.733301 1_565
Al4 Al9 2.805307 1_554
Al4 Mg8 2.965686 1_555
Al4 Mg5 2.972201 1_555
Al4 Mg3 2.982225 1_555
Al4 Mg7 3.062602 1_465
Al4 Mg6 3.199497 1_565
Al4 Mg1 3.229238 1_465
Al4 Mg10 3.229398 1_565
Al4 Pm0 3.255582 1_554
Al5 Al6 2.756437 1_555
Al5 Mg13 2.823408 1_555
Al5 Mg15 3.018620 1_555
Al5 Mg8 3.018628 1_555
Al5 Mg2 3.132027 1_455
Al5 Mg7 3.132028 1_455
Al5 Mg5 3.198767 1_555
Al5 Mg11 3.198767 1_555
Al5 Mg1 3.243381 1_455
Al6 Mg14 2.965678 1_555
Al6 Mg15 2.972214 1_555
Al6 Mg9 2.982217 1_555
Al6 Mg7 3.062608 1_455
Al6 Mg6 3.199483 1_555
Al6 Mg1 3.229244 1_455
Al6 Mg10 3.229393 1_555
Al6 Pm0 3.255582 1_544
Al7 Al9 2.733309 1_555
Al7 Al8 2.756421 1_465
Al7 Mg5 2.965691 1_555
Al7 Mg4 2.972205 1_455
Al7 Mg10 2.982225 1_565
Al7 Mg12 3.062599 1_455
Al7 Mg13 3.199513 1_555
Al7 Mg1 3.229238 1_466
Al7 Mg9 3.229398 1_455
Al7 Pm0 3.255575 1_555
Al8 Mg6 2.823428 1_555
Al8 Mg4 3.018624 1_545
Al8 Mg11 3.018626 1_655
Al8 Mg2 3.132017 1_556
Al8 Mg12 3.132021 1_545
Al8 Mg8 3.198757 1_545
Al8 Mg14 3.198774 1_555
Al8 Mg1 3.243365 1_556
Al9 Mg11 2.965691 1_555
Al9 Mg14 2.972205 1_455
Al9 Mg3 2.982225 1_556
Al9 Mg12 3.062598 1_455
Al9 Mg13 3.199513 1_555
Al9 Mg1 3.229238 1_466
Al9 Mg9 3.229392 1_455
Al9 Pm0 3.255575 1_555
Al10 Al8 2.671917 1_555
Al10 Al3 2.775231 1_556
Al10 Mg10 2.889387 1_555
Al10 Mg13 3.037286 1_545
Al10 Mg0 3.037288 1_556
Al10 Mg2 3.107368 1_556
Al10 Mg12 3.107373 1_545
Al10 Mg1 3.155487 1_556
Al10 Pm0 3.238682 1_545
Al10 Mg8 3.321067 1_545
Al10 Mg14 3.321077 1_555
Al11 Al2 2.733309 1_556
Al11 Al8 2.756422 1_455
Al11 Al7 2.805307 1_545
Al11 Mg15 2.965686 1_555
Al11 Mg11 2.972195 1_555
Al11 Mg10 2.982220 1_555
Al11 Mg2 3.062599 1_456
Al11 Mg0 3.199498 1_556
Al11 Mg1 3.229246 1_456
Al11 Mg3 3.229398 1_556
Al11 Pm0 3.255586 1_545
