# generated using pymatgen
data_YMg2W3S8
_symmetry_space_group_name_H-M   'P 1'
_cell_length_a   7.45724831
_cell_length_b   7.45708319
_cell_length_c   7.45334215
_cell_angle_alpha   60.30676407
_cell_angle_beta   60.27582632
_cell_angle_gamma   60.38883028
_symmetry_Int_Tables_number   1
_chemical_formula_structural   YMg2W3S8
_chemical_formula_sum   'Y1 Mg2 W3 S8'
_cell_volume   295.22488578
_cell_formula_units_Z   1
loop_
 _symmetry_equiv_pos_site_id
 _symmetry_equiv_pos_as_xyz
  1  'x, y, z'
loop_
 _atom_site_type_symbol
 _atom_site_label
 _atom_site_symmetry_multiplicity
 _atom_site_fract_x
 _atom_site_fract_y
 _atom_site_fract_z
 _atom_site_occupancy
  Y  Y0  1  0.50000100  0.50001500  0.49998100  1
  Mg  Mg0  1  0.87491500  0.87498700  0.87480800  1
  Mg  Mg1  1  0.12508800  0.12501000  0.12519900  1
  W  W0  1  0.50000900  0.49999900  0.99999200  1
  W  W1  1  0.99999700  0.49998500  0.50001400  1
  W  W2  1  0.49999000  0.00000400  0.50001000  1
  S  S0  1  0.73817400  0.73832900  0.73800700  1
  S  S1  1  0.24469100  0.24472100  0.72476000  1
  S  S2  1  0.24475000  0.72497000  0.24471400  1
  S  S3  1  0.72488400  0.24473600  0.24468300  1
  S  S4  1  0.75524000  0.27502400  0.75526900  1
  S  S5  1  0.27511900  0.75525400  0.75531600  1
  S  S6  1  0.26182900  0.26167400  0.26199400  1
  S  S7  1  0.75531700  0.75528700  0.27525400  1
loop_
_geom_bond_atom_site_label_1
_geom_bond_atom_site_label_2
_geom_bond_distance
_geom_bond_site_symmetry_2
Mg0 S7 2.451123 1_556
Mg0 S4 2.452274 1_565
Mg0 S5 2.452734 1_655
Mg0 S0 2.491050 1_555
Mg1 S1 2.451071 1_554
Mg1 S2 2.452309 1_545
Mg1 S3 2.452741 1_455
Mg1 S6 2.491050 1_555
S0 W0 2.523484 1_555
S0 W1 2.525329 1_555
S0 W2 2.525716 1_565
S1 W2 2.488668 1_555
S1 W1 2.489714 1_455
S1 Y0 2.704608 1_555
S2 W1 2.487197 1_455
S2 W0 2.489487 1_554
S2 Y0 2.707568 1_555
S3 W2 2.486706 1_555
S3 W0 2.490110 1_554
S3 Y0 2.706722 1_555
S4 W1 2.487077 1_555
S4 W0 2.489497 1_555
S4 Y0 2.707598 1_555
S5 W2 2.486675 1_565
S5 W0 2.490103 1_555
S5 Y0 2.706706 1_555
S6 W0 2.523544 1_554
S6 W1 2.525304 1_455
S6 W2 2.525693 1_555
S7 W2 2.488712 1_565
S7 W1 2.489730 1_555
S7 Y0 2.704549 1_555
