# generated using pymatgen
data_SrPb2Cl6O5
_symmetry_space_group_name_H-M   'P 1'
_cell_length_a   8.66703109
_cell_length_b   9.18588620
_cell_length_c   9.18588620
_cell_angle_alpha   76.00759498
_cell_angle_beta   69.72167103
_cell_angle_gamma   69.72167103
_symmetry_Int_Tables_number   1
_chemical_formula_structural   SrPb2Cl6O5
_chemical_formula_sum   'Sr2 Pb4 Cl12 O10'
_cell_volume   637.30019556
_cell_formula_units_Z   2
loop_
 _symmetry_equiv_pos_site_id
 _symmetry_equiv_pos_as_xyz
  1  'x, y, z'
loop_
 _atom_site_type_symbol
 _atom_site_label
 _atom_site_symmetry_multiplicity
 _atom_site_fract_x
 _atom_site_fract_y
 _atom_site_fract_z
 _atom_site_occupancy
  Sr  Sr0  1  0.25000000  0.06244300  0.93755700  1
  Sr  Sr1  1  0.75000000  0.93755700  0.06244300  1
  Pb  Pb0  1  0.50925500  0.58922200  0.71197800  1
  Pb  Pb1  1  0.99074500  0.28802200  0.41077800  1
  Pb  Pb2  1  0.49074500  0.41077800  0.28802200  1
  Pb  Pb3  1  0.00925500  0.71197800  0.58922200  1
  Cl  Cl0  1  0.13972000  0.59875800  0.86178800  1
  Cl  Cl1  1  0.36028000  0.13821200  0.40124200  1
  Cl  Cl2  1  0.86028000  0.40124200  0.13821200  1
  Cl  Cl3  1  0.63972000  0.86178800  0.59875800  1
  Cl  Cl4  1  0.60512700  0.30303300  0.56356900  1
  Cl  Cl5  1  0.89487300  0.43643100  0.69696700  1
  Cl  Cl6  1  0.39487300  0.69696700  0.43643100  1
  Cl  Cl7  1  0.10512700  0.56356900  0.30303300  1
  Cl  Cl8  1  0.48653900  0.30453800  0.99765800  1
  Cl  Cl9  1  0.01346100  0.00234200  0.69546200  1
  Cl  Cl10  1  0.51346100  0.69546200  0.00234200  1
  Cl  Cl11  1  0.98653900  0.99765800  0.30453800  1
  O  O0  1  0.24399000  0.82786900  0.79347600  1
  O  O1  1  0.25601000  0.20652400  0.17213100  1
  O  O2  1  0.75601000  0.17213100  0.20652400  1
  O  O3  1  0.74399000  0.79347600  0.82786900  1
  O  O4  1  0.06547600  0.87241100  0.04056300  1
  O  O5  1  0.43452400  0.95943700  0.12758900  1
  O  O6  1  0.93452400  0.12758900  0.95943700  1
  O  O7  1  0.56547600  0.04056300  0.87241100  1
  O  O8  1  0.25000000  0.30774500  0.69225500  1
  O  O9  1  0.75000000  0.69225500  0.30774500  1
loop_
_geom_bond_atom_site_label_1
_geom_bond_atom_site_label_2
_geom_bond_distance
_geom_bond_site_symmetry_2
Cl0 O0 2.434414 1_555
Cl0 Pb3 2.918401 1_555
Cl0 Pb0 2.994648 1_555
Cl1 O1 2.434414 1_555
Cl1 Pb2 2.918401 1_555
Cl1 Pb1 2.994648 1_455
Cl2 O2 2.434414 1_555
Cl2 Pb1 2.918401 1_555
Cl2 Pb2 2.994648 1_555
Cl3 O3 2.434414 1_555
Cl3 Pb0 2.918401 1_555
Cl3 Pb3 2.994648 1_655
Cl4 Pb2 2.866494 1_555
Cl4 Pb0 2.982251 1_555
Cl4 Pb1 3.111528 1_555
Cl5 Pb3 2.866494 1_655
Cl5 Pb1 2.982251 1_555
Cl5 Pb0 3.111528 1_555
Cl6 Pb0 2.866494 1_555
Cl6 Pb2 2.982251 1_555
Cl6 Pb3 3.111528 1_555
Cl7 Pb1 2.866494 1_455
Cl7 Pb3 2.982251 1_555
Cl7 Pb2 3.111528 1_555
Cl8 O1 2.387622 1_556
Cl8 Pb2 3.069003 1_556
Cl8 Pb0 3.231725 1_555
Cl8 Sr1 3.401218 1_546
Cl9 O0 2.387622 1_545
Cl9 Pb3 3.069003 1_545
Cl9 Pb1 3.231725 1_455
Cl9 Sr1 3.401218 1_446
Cl10 O3 2.387622 1_554
Cl10 Pb0 3.069003 1_554
Cl10 Pb2 3.231725 1_555
Cl10 Sr0 3.401218 1_564
Cl11 O2 2.387622 1_565
Cl11 Pb1 3.069003 1_565
Cl11 Pb3 3.231725 1_655
Cl11 Sr0 3.401218 1_664
O0 Pb0 2.599786 1_555
O0 Sr0 2.811075 1_565
O1 Pb1 2.599786 1_455
O1 Sr0 2.811075 1_554
O2 Pb2 2.599786 1_555
O2 Sr1 2.811075 1_545
O3 Pb3 2.599786 1_655
O3 Sr1 2.811075 1_556
O4 Sr1 2.533306 1_455
O4 Sr0 2.566631 1_564
O5 Sr1 2.533306 1_555
O5 Sr0 2.566631 1_564
O6 Sr0 2.533306 1_655
O6 Sr1 2.566631 1_546
O7 Sr0 2.533306 1_555
O7 Sr1 2.566631 1_546
O8 Sr0 2.774795 1_555
O9 Sr1 2.774795 1_555
