# generated using pymatgen
data_NaMnVO4
_symmetry_space_group_name_H-M   'P 1'
_cell_length_a   5.38300402
_cell_length_b   6.95461102
_cell_length_c   9.71221401
_cell_angle_alpha   89.99896523
_cell_angle_beta   90.00489045
_cell_angle_gamma   90.00757655
_symmetry_Int_Tables_number   1
_chemical_formula_structural   NaMnVO4
_chemical_formula_sum   'Na4 Mn4 V4 O16'
_cell_volume   363.59322822
_cell_formula_units_Z   4
loop_
 _symmetry_equiv_pos_site_id
 _symmetry_equiv_pos_as_xyz
  1  'x, y, z'
loop_
 _atom_site_type_symbol
 _atom_site_label
 _atom_site_symmetry_multiplicity
 _atom_site_fract_x
 _atom_site_fract_y
 _atom_site_fract_z
 _atom_site_occupancy
  Na  Na0  1  0.01442800  0.24987500  0.35191300  1
  Na  Na1  1  0.48560900  0.25008400  0.85195200  1
  Na  Na2  1  0.98571400  0.75002400  0.64805700  1
  Na  Na3  1  0.51426400  0.74989800  0.14807200  1
  Mn  Mn0  1  0.49999000  0.49995500  0.50010100  1
  Mn  Mn1  1  0.99976100  0.50021000  0.99990100  1
  Mn  Mn2  1  0.99989500  0.00010000  0.00009100  1
  Mn  Mn3  1  0.50028500  0.99992400  0.49995400  1
  V  V0  1  0.02058000  0.74995600  0.31991900  1
  V  V1  1  0.47923900  0.75007000  0.81994900  1
  V  V2  1  0.97938400  0.25005000  0.68010900  1
  V  V3  1  0.52070600  0.24994900  0.18004900  1
  O  O0  1  0.06139000  0.75004100  0.13719800  1
  O  O1  1  0.43862200  0.74995900  0.63724000  1
  O  O2  1  0.93853600  0.25013100  0.86277900  1
  O  O3  1  0.56145100  0.24993500  0.36273100  1
  O  O4  1  0.70967300  0.74987600  0.37787800  1
  O  O5  1  0.79027100  0.75003800  0.87785200  1
  O  O6  1  0.29033900  0.25011600  0.62219000  1
  O  O7  1  0.20973100  0.24990700  0.12215100  1
  O  O8  1  0.17486200  0.55270400  0.38511200  1
  O  O9  1  0.32503300  0.94731200  0.88517700  1
  O  O10  1  0.82525800  0.05278400  0.61481200  1
  O  O11  1  0.67483500  0.44725600  0.11478400  1
  O  O12  1  0.82528700  0.44725800  0.61484200  1
  O  O13  1  0.67476600  0.05271000  0.11482200  1
  O  O14  1  0.17490200  0.94703500  0.38519900  1
  O  O15  1  0.32518900  0.55284300  0.88516700  1
loop_
_geom_bond_atom_site_label_1
_geom_bond_atom_site_label_2
_geom_bond_distance
_geom_bond_site_symmetry_2
Na0 O8 2.298864 1_555
Na0 O14 2.299332 1_545
Na0 O3 2.440649 1_455
Na0 O7 2.466830 1_555
Na1 O15 2.298641 1_555
Na1 O9 2.298833 1_545
Na1 O2 2.440365 1_555
Na1 O6 2.466592 1_555
Na2 O12 2.298470 1_555
Na2 O10 2.298730 1_565
Na2 O1 2.440277 1_655
Na2 O5 2.467441 1_555
Na3 O11 2.298301 1_555
Na3 O13 2.298973 1_565
Na3 O0 2.440100 1_555
Na3 O4 2.467297 1_555
Mn0 O12 2.107667 1_555
Mn0 O8 2.108249 1_555
Mn0 O1 2.215055 1_555
Mn0 O3 2.216567 1_555
Mn0 O6 2.387111 1_555
Mn0 O4 2.388254 1_555
Mn1 O11 2.107128 1_556
Mn1 O15 2.108218 1_655
Mn1 O0 2.215141 1_656
Mn1 O2 2.215148 1_555
Mn1 O5 2.386575 1_555
Mn1 O7 2.391170 1_656
Mn2 O13 2.106925 1_555
Mn2 O9 2.108121 1_644
Mn2 O0 2.215199 1_645
Mn2 O2 2.216134 1_554
Mn2 O7 2.387216 1_655
Mn2 O5 2.388831 1_544
Mn3 O10 2.106944 1_565
Mn3 O14 2.108283 1_555
Mn3 O3 2.215316 1_565
Mn3 O1 2.215832 1_555
Mn3 O4 2.387686 1_555
Mn3 O6 2.390607 1_565
O0 V0 1.788190 1_555
O1 V1 1.787909 1_555
O2 V2 1.787723 1_555
O3 V3 1.787733 1_555
O4 V0 1.765789 1_655
O5 V1 1.766163 1_555
O6 V2 1.765910 1_455
O7 V3 1.765856 1_555
O8 V0 1.724146 1_555
O9 V1 1.724089 1_555
O10 V2 1.724034 1_555
O11 V3 1.724188 1_555
O12 V2 1.723687 1_555
O13 V3 1.723690 1_555
O14 V0 1.723447 1_555
O15 V1 1.723373 1_555
