# generated using pymatgen
data_Gd(BOs)2
_symmetry_space_group_name_H-M   'P 1'
_cell_length_a   5.59066305
_cell_length_b   5.59066305
_cell_length_c   5.94959779
_cell_angle_alpha   109.60589832
_cell_angle_beta   109.60589832
_cell_angle_gamma   106.60767693
_symmetry_Int_Tables_number   1
_chemical_formula_structural   Gd(BOs)2
_chemical_formula_sum   'Gd2 B4 Os4'
_cell_volume   147.45419685
_cell_formula_units_Z   2
loop_
 _symmetry_equiv_pos_site_id
 _symmetry_equiv_pos_as_xyz
  1  'x, y, z'
loop_
 _atom_site_type_symbol
 _atom_site_label
 _atom_site_symmetry_multiplicity
 _atom_site_fract_x
 _atom_site_fract_y
 _atom_site_fract_z
 _atom_site_occupancy
  Gd  Gd0  1  -0.00000000  0.00000000  -0.00000000  1
  Gd  Gd1  1  0.25000000  0.75000000  0.50000000  1
  B  B0  1  0.68909838  0.31090162  -0.00000000  1
  B  B1  1  0.31090162  0.68909838  -0.00000000  1
  B  B2  1  0.93910929  0.06089071  0.50000000  1
  B  B3  1  0.56089071  0.43910929  0.50000000  1
  Os  Os0  1  0.36160395  0.36160395  0.72320989  1
  Os  Os1  1  0.63839605  0.63839605  0.27679011  1
  Os  Os2  1  0.88839388  0.38839388  0.77678975  1
  Os  Os3  1  0.61160612  0.11160612  0.22321025  1
loop_
_geom_bond_atom_site_label_1
_geom_bond_atom_site_label_2
_geom_bond_distance
_geom_bond_site_symmetry_2
Gd0 Os3 3.003563 1_455
Gd0 Os2 3.003563 1_454
Gd0 Os2 3.003571 1_444
Gd0 Os3 3.003571 1_555
Gd1 Os1 3.003563 1_455
Gd1 Os0 3.003563 1_565
Gd1 Os0 3.003570 1_555
Gd1 Os1 3.003570 1_555
B0 Os3 2.072657 1_555
B0 Os2 2.072657 1_554
B0 Os0 2.175086 1_554
B0 Os1 2.175086 1_555
B0 Gd0 2.787346 1_655
B0 Gd1 3.024492 1_655
B0 Gd1 3.024492 1_544
B1 Os3 2.072668 1_565
B1 Os2 2.072668 1_454
B1 Os0 2.175086 1_554
B1 Os1 2.175086 1_555
B1 Gd0 2.787346 1_565
B1 Gd1 3.024492 1_554
B1 Gd1 3.024492 1_555
B2 Os1 2.072630 1_545
B2 Os0 2.072630 1_655
B2 Os2 2.175161 1_555
B2 Os3 2.175161 1_555
B2 Gd1 2.787248 1_645
B2 Gd0 3.024474 1_655
B2 Gd0 3.024474 1_656
B3 Os0 2.072641 1_555
B3 Os1 2.072641 1_555
B3 Os2 2.175161 1_555
B3 Os3 2.175161 1_555
B3 Gd1 2.787248 1_555
B3 Gd0 3.024474 1_666
B3 Gd0 3.024474 1_555
