# generated using pymatgen
data_EuMgCd2
_symmetry_space_group_name_H-M   'P 1'
_cell_length_a   5.21925901
_cell_length_b   5.21925901
_cell_length_c   5.21925901
_cell_angle_alpha   60.00000000
_cell_angle_beta   60.00000000
_cell_angle_gamma   60.00000000
_symmetry_Int_Tables_number   1
_chemical_formula_structural   EuMgCd2
_chemical_formula_sum   'Eu1 Mg1 Cd2'
_cell_volume   100.53367338
_cell_formula_units_Z   1
loop_
 _symmetry_equiv_pos_site_id
 _symmetry_equiv_pos_as_xyz
  1  'x, y, z'
loop_
 _atom_site_type_symbol
 _atom_site_label
 _atom_site_symmetry_multiplicity
 _atom_site_fract_x
 _atom_site_fract_y
 _atom_site_fract_z
 _atom_site_occupancy
  Eu  Eu0  1  0.50000000  0.50000000  0.50000000  1
  Mg  Mg0  1  0.00000000  -0.00000000  0.00000000  1
  Cd  Cd0  1  0.75000000  0.75000000  0.75000000  1
  Cd  Cd1  1  0.25000000  0.25000000  0.25000000  1
loop_
_geom_bond_atom_site_label_1
_geom_bond_atom_site_label_2
_geom_bond_distance
_geom_bond_site_symmetry_2
Cd0 Mg0 3.196130 1_666
Cd0 Eu0 3.196130 1_555
Cd0 Eu0 3.196130 1_556
Cd0 Mg0 3.196130 1_665
Cd0 Eu0 3.196130 1_655
Cd0 Mg0 3.196130 1_566
Cd0 Mg0 3.196130 1_656
Cd0 Eu0 3.196130 1_565
Cd1 Eu0 3.196130 1_554
Cd1 Mg0 3.196130 1_556
Cd1 Eu0 3.196130 1_555
Cd1 Mg0 3.196130 1_555
Cd1 Mg0 3.196130 1_565
Cd1 Eu0 3.196130 1_545
Cd1 Eu0 3.196130 1_455
Cd1 Mg0 3.196130 1_655
