# generated using pymatgen
data_PrB4
_symmetry_space_group_name_H-M   'P 1'
_cell_length_a   4.14630985
_cell_length_b   7.27330510
_cell_length_c   7.27330510
_cell_angle_alpha   90.00000000
_cell_angle_beta   90.00000000
_cell_angle_gamma   90.00000000
_symmetry_Int_Tables_number   1
_chemical_formula_structural   PrB4
_chemical_formula_sum   'Pr4 B16'
_cell_volume   219.34380087
_cell_formula_units_Z   4
loop_
 _symmetry_equiv_pos_site_id
 _symmetry_equiv_pos_as_xyz
  1  'x, y, z'
loop_
 _atom_site_type_symbol
 _atom_site_label
 _atom_site_symmetry_multiplicity
 _atom_site_fract_x
 _atom_site_fract_y
 _atom_site_fract_z
 _atom_site_occupancy
  Pr  Pr0  1  -0.00000000  0.68297094  0.18297094  1
  Pr  Pr1  1  -0.00000000  0.81702906  0.68297094  1
  Pr  Pr2  1  -0.00000000  0.18297094  0.31702906  1
  Pr  Pr3  1  -0.00000000  0.31702906  0.81702906  1
  B  B0  1  0.50000000  0.46124739  0.32675885  1
  B  B1  1  0.50000000  0.53875261  0.67324115  1
  B  B2  1  0.50000000  0.32675885  0.53875261  1
  B  B3  1  0.50000000  0.67324115  0.46124739  1
  B  B4  1  0.20556949  0.00000000  0.00000000  1
  B  B5  1  0.79443051  0.50000000  0.50000000  1
  B  B6  1  0.79443051  0.00000000  0.00000000  1
  B  B7  1  0.20556949  0.50000000  0.50000000  1
  B  B8  1  0.50000000  0.08847211  0.58847211  1
  B  B9  1  0.50000000  0.41152789  0.08847211  1
  B  B10  1  0.50000000  0.58847211  0.91152789  1
  B  B11  1  0.50000000  0.91152789  0.41152789  1
  B  B12  1  0.50000000  0.17324115  0.03875261  1
  B  B13  1  0.50000000  0.96124739  0.17324115  1
  B  B14  1  0.50000000  0.03875261  0.82675885  1
  B  B15  1  0.50000000  0.82675885  0.96124739  1
loop_
_geom_bond_atom_site_label_1
_geom_bond_atom_site_label_2
_geom_bond_distance
_geom_bond_site_symmetry_2
B0 B9 1.770458 1_555
B0 B5 1.776932 1_555
B0 B7 1.776932 1_555
B0 B2 1.825998 1_555
B0 B3 1.825998 1_555
B0 Pr0 2.827080 1_555
B0 Pr0 2.827080 1_655
B0 Pr2 2.898191 1_655
B0 Pr2 2.898191 1_555
B1 B10 1.770458 1_555
B1 B7 1.776932 1_555
B1 B5 1.776932 1_555
B1 B2 1.825998 1_555
B1 B3 1.825998 1_555
B1 Pr3 2.827080 1_555
B1 Pr3 2.827080 1_655
B1 Pr1 2.898191 1_655
B1 Pr1 2.898191 1_555
B2 B8 1.770458 1_555
B2 B5 1.776932 1_555
B2 B7 1.776932 1_555
B2 Pr2 2.827080 1_555
B2 Pr2 2.827080 1_655
B2 Pr3 2.898191 1_555
B2 Pr3 2.898191 1_655
B3 B5 1.776932 1_555
B3 B7 1.776932 1_555
B3 Pr1 2.827080 1_655
B3 Pr1 2.827080 1_555
B3 Pr0 2.898191 1_555
B3 Pr0 2.898191 1_655
B4 B6 1.704710 1_455
B4 Pr2 2.795440 1_555
B4 Pr0 2.795440 1_545
B4 Pr3 2.795440 1_554
B4 Pr1 2.795440 1_544
B5 B7 1.704710 1_655
B5 Pr2 2.795440 1_655
B5 Pr3 2.795440 1_655
B5 Pr0 2.795440 1_655
B5 Pr1 2.795440 1_655
B6 Pr2 2.795440 1_655
B6 Pr0 2.795440 1_645
B6 Pr3 2.795440 1_654
B6 Pr1 2.795440 1_644
B7 Pr0 2.795440 1_555
B7 Pr2 2.795440 1_555
B7 Pr1 2.795440 1_555
B7 Pr3 2.795440 1_555
B8 Pr2 2.944179 1_555
B8 Pr1 2.944179 1_545
B8 Pr2 2.944179 1_655
B8 Pr1 2.944179 1_645
B8 Pr3 3.134467 1_555
B8 Pr3 3.134467 1_655
B9 Pr0 2.944179 1_555
B9 Pr0 2.944179 1_655
B9 Pr3 2.944179 1_554
B9 Pr3 2.944179 1_654
B9 Pr2 3.134467 1_555
B9 Pr2 3.134467 1_655
B10 B15 1.770458 1_555
B10 B9 1.820049 1_556
B10 Pr0 2.944179 1_556
B10 Pr0 2.944179 1_656
B10 Pr3 2.944179 1_655
B10 Pr3 2.944179 1_555
B10 Pr1 3.134467 1_555
B10 Pr1 3.134467 1_655
B11 B13 1.770458 1_555
B11 B3 1.770458 1_555
B11 B8 1.820049 1_565
B11 Pr2 2.944179 1_565
B11 Pr2 2.944179 1_665
B11 Pr1 2.944179 1_555
B11 Pr1 2.944179 1_655
B11 Pr0 3.134467 1_655
B11 Pr0 3.134467 1_555
B12 B9 1.770458 1_555
B12 B6 1.776932 1_555
B12 B4 1.776932 1_555
B12 B14 1.825998 1_554
B12 B13 1.825998 1_545
B12 Pr3 2.827080 1_554
B12 Pr3 2.827080 1_654
B12 Pr2 2.898191 1_655
B12 Pr2 2.898191 1_555
B13 B6 1.776932 1_565
B13 B4 1.776932 1_565
B13 B15 1.825998 1_554
B13 Pr2 2.827080 1_565
B13 Pr2 2.827080 1_665
B13 Pr0 2.898191 1_555
B13 Pr0 2.898191 1_655
B14 B8 1.770458 1_555
B14 B6 1.776932 1_556
B14 B4 1.776932 1_556
B14 B15 1.825998 1_545
B14 Pr1 2.827080 1_545
B14 Pr1 2.827080 1_645
B14 Pr3 2.898191 1_555
B14 Pr3 2.898191 1_655
B15 B6 1.776932 1_566
B15 B4 1.776932 1_566
B15 Pr0 2.827080 1_656
B15 Pr0 2.827080 1_556
B15 Pr1 2.898191 1_655
B15 Pr1 2.898191 1_555
