# generated using pymatgen
data_Hf2ScGa3
_symmetry_space_group_name_H-M   'P 1'
_cell_length_a   3.91981600
_cell_length_b   3.86959700
_cell_length_c   30.56012547
_cell_angle_alpha   86.37010626
_cell_angle_beta   86.32293467
_cell_angle_gamma   90.00000000
_symmetry_Int_Tables_number   1
_chemical_formula_structural   Hf2ScGa3
_chemical_formula_sum   'Hf8 Sc4 Ga12'
_cell_volume   461.65317489
_cell_formula_units_Z   4
loop_
 _symmetry_equiv_pos_site_id
 _symmetry_equiv_pos_as_xyz
  1  'x, y, z'
loop_
 _atom_site_type_symbol
 _atom_site_label
 _atom_site_symmetry_multiplicity
 _atom_site_fract_x
 _atom_site_fract_y
 _atom_site_fract_z
 _atom_site_occupancy
  Hf  Hf0  1  0.73251600  0.73251600  0.53496900  1
  Hf  Hf1  1  0.06588700  0.06588700  0.86822600  1
  Hf  Hf2  1  0.98132900  0.48132900  0.03734400  1
  Hf  Hf3  1  0.31457100  0.81457100  0.37085700  1
  Hf  Hf4  1  0.64788300  0.14788300  0.70423200  1
  Hf  Hf5  1  0.93532700  0.93532700  0.12934600  1
  Hf  Hf6  1  0.26787500  0.26787500  0.46424800  1
  Hf  Hf7  1  0.60123900  0.60123900  0.79752400  1
  Sc  Sc0  1  0.85091200  0.35091200  0.29817800  1
  Sc  Sc1  1  0.18471000  0.68471000  0.63058000  1
  Sc  Sc2  1  0.51798200  0.01798200  0.96403500  1
  Sc  Sc3  1  0.39913500  0.39913500  0.20172900  1
  Ga  Ga0  1  0.47237600  0.97237600  0.05524800  1
  Ga  Ga1  1  0.80537600  0.30537600  0.38924800  1
  Ga  Ga2  1  0.13884800  0.63884800  0.72230500  1
  Ga  Ga3  1  0.44444500  0.44444500  0.11111000  1
  Ga  Ga4  1  0.77781300  0.77781300  0.44437500  1
  Ga  Ga5  1  0.11122300  0.11122300  0.77755500  1
  Ga  Ga6  1  0.36120900  0.86120900  0.27758300  1
  Ga  Ga7  1  0.69489000  0.19489000  0.61021900  1
  Ga  Ga8  1  0.02834600  0.52834600  0.94330900  1
  Ga  Ga9  1  0.88864300  0.88864300  0.22271400  1
  Ga  Ga10  1  0.22205800  0.22205800  0.55588300  1
  Ga  Ga11  1  0.55540800  0.55540800  0.88918400  1
loop_
_geom_bond_atom_site_label_1
_geom_bond_atom_site_label_2
_geom_bond_distance
_geom_bond_site_symmetry_2
Ga0 Ga3 2.575682 1_555
Ga0 Ga3 2.575682 1_565
Ga0 Sc2 2.776139 1_564
Ga0 Hf2 2.807418 1_455
Ga0 Hf2 2.807423 1_465
Ga0 Hf2 2.807423 1_555
Ga0 Hf2 2.807429 1_565
Ga0 Hf5 2.987859 1_455
Ga0 Hf5 2.987859 1_555
Ga1 Ga4 2.560969 1_545
Ga1 Ga4 2.560972 1_555
Ga1 Sc0 2.771786 1_555
Ga1 Hf3 2.810335 1_655
Ga1 Hf3 2.810338 1_645
Ga1 Hf3 2.810338 1_555
Ga1 Hf3 2.810340 1_545
Ga1 Hf6 3.008632 1_655
Ga1 Hf6 3.008637 1_555
Ga2 Ga5 2.563425 1_555
Ga2 Ga5 2.563425 1_565
Ga2 Sc1 2.791722 1_555
Ga2 Hf4 2.808418 1_565
Ga2 Hf4 2.808426 1_555
Ga2 Hf4 2.808426 1_465
Ga2 Hf4 2.808434 1_455
Ga2 Hf7 3.013694 1_455
Ga2 Hf7 3.013696 1_555
Ga3 Sc3 2.758060 1_555
Ga3 Hf5 2.809402 1_545
Ga3 Hf5 2.809402 1_445
Ga3 Hf5 2.809402 1_555
Ga3 Hf5 2.809402 1_455
Ga3 Hf2 2.980237 1_455
Ga3 Hf2 2.980242 1_555
Ga4 Hf0 2.757299 1_555
Ga4 Hf6 2.819660 1_665
Ga4 Hf6 2.819668 1_655
Ga4 Hf6 2.819668 1_565
Ga4 Hf6 2.819676 1_555
Ga4 Hf3 2.974555 1_655
Ga4 Hf3 2.974560 1_555
Ga5 Hf1 2.759642 1_555
Ga5 Hf7 2.820294 1_445
Ga5 Hf7 2.820296 1_455
Ga5 Hf7 2.820296 1_545
Ga5 Hf7 2.820299 1_555
Ga5 Hf4 2.970092 1_555
Ga5 Hf4 2.970099 1_455
Ga6 Ga9 2.574892 1_555
Ga6 Ga9 2.574895 1_455
Ga6 Sc0 2.824461 1_455
Ga6 Sc0 2.824463 1_465
Ga6 Sc0 2.824464 1_555
Ga6 Sc0 2.824466 1_565
Ga6 Hf3 2.838867 1_555
Ga6 Sc3 3.012211 1_565
Ga6 Sc3 3.012216 1_555
Ga7 Sc1 2.822889 1_545
Ga7 Sc1 2.822891 1_555
Ga7 Sc1 2.822891 1_645
Ga7 Sc1 2.822894 1_655
Ga7 Hf4 2.861359 1_555
Ga7 Hf0 2.998144 1_545
Ga7 Hf0 2.998149 1_555
Ga8 Sc2 2.825346 1_565
Ga8 Sc2 2.825351 1_555
Ga8 Sc2 2.825351 1_465
Ga8 Sc2 2.825356 1_455
Ga8 Hf2 2.862028 1_456
Ga8 Hf1 2.994265 1_565
Ga8 Hf1 2.994267 1_555
Ga9 Sc3 2.827119 1_665
Ga9 Sc3 2.827121 1_655
Ga9 Sc3 2.827121 1_565
Ga9 Sc3 2.827124 1_555
Ga9 Hf5 2.841728 1_555
Ga9 Sc0 3.003123 1_555
Ga9 Sc0 3.003128 1_565
Ga10 Ga7 2.564402 1_455
Ga10 Ga7 2.564402 1_555
Ga10 Hf6 2.788983 1_555
Ga10 Hf0 2.826629 1_445
Ga10 Hf0 2.826634 1_455
Ga10 Hf0 2.826634 1_545
Ga10 Hf0 2.826639 1_555
Ga10 Sc1 2.985308 1_545
Ga10 Sc1 2.985311 1_555
Ga11 Ga8 2.560263 1_555
Ga11 Ga8 2.560266 1_655
Ga11 Hf7 2.789743 1_555
Ga11 Hf1 2.826936 1_665
Ga11 Hf1 2.826936 1_565
Ga11 Hf1 2.826936 1_655
Ga11 Hf1 2.826936 1_555
Ga11 Sc2 2.988879 1_565
Ga11 Sc2 2.988882 1_555
