# generated using pymatgen
data_Cu3Ni
_symmetry_space_group_name_H-M   'P 1'
_cell_length_a   4.88972421
_cell_length_b   4.88972421
_cell_length_c   16.49172050
_cell_angle_alpha   90.00000000
_cell_angle_beta   90.00000000
_cell_angle_gamma   114.85925188
_symmetry_Int_Tables_number   1
_chemical_formula_structural   Cu3Ni
_chemical_formula_sum   'Cu24 Ni8'
_cell_volume   357.77195476
_cell_formula_units_Z   8
loop_
 _symmetry_equiv_pos_site_id
 _symmetry_equiv_pos_as_xyz
  1  'x, y, z'
loop_
 _atom_site_type_symbol
 _atom_site_label
 _atom_site_symmetry_multiplicity
 _atom_site_fract_x
 _atom_site_fract_y
 _atom_site_fract_z
 _atom_site_occupancy
  Cu  Cu0_0  1  0.25000000  0.25000000  0.37665439  1
  Cu  Cu0_1  1  0.25000000  0.25000000  0.87665439  1
  Cu  Cu0_2  1  0.25000000  0.75000000  0.37665439  1
  Cu  Cu0_3  1  0.25000000  0.75000000  0.87665439  1
  Cu  Cu0_4  1  0.75000000  0.25000000  0.37665439  1
  Cu  Cu0_5  1  0.75000000  0.25000000  0.87665439  1
  Cu  Cu0_6  1  0.75000000  0.75000000  0.37665439  1
  Cu  Cu0_7  1  0.75000000  0.75000000  0.87665439  1
  Cu  Cu1_0  1  0.00000000  0.00000000  0.25000000  1
  Cu  Cu1_1  1  0.00000000  0.00000000  0.75000000  1
  Cu  Cu1_2  1  0.00000000  0.50000000  0.25000000  1
  Cu  Cu1_3  1  0.00000000  0.50000000  0.75000000  1
  Cu  Cu1_4  1  0.50000000  0.00000000  0.25000000  1
  Cu  Cu1_5  1  0.50000000  0.00000000  0.75000000  1
  Cu  Cu1_6  1  0.50000000  0.50000000  0.25000000  1
  Cu  Cu1_7  1  0.50000000  0.50000000  0.75000000  1
  Cu  Cu2_0  1  0.25000000  0.25000000  0.12334561  1
  Cu  Cu2_1  1  0.25000000  0.25000000  0.62334561  1
  Cu  Cu2_2  1  0.25000000  0.75000000  0.12334561  1
  Cu  Cu2_3  1  0.25000000  0.75000000  0.62334561  1
  Cu  Cu2_4  1  0.75000000  0.25000000  0.12334561  1
  Cu  Cu2_5  1  0.75000000  0.25000000  0.62334561  1
  Cu  Cu2_6  1  0.75000000  0.75000000  0.12334561  1
  Cu  Cu2_7  1  0.75000000  0.75000000  0.62334561  1
  Ni  Ni0_0  1  0.00000000  0.00000000  0.00000000  1
  Ni  Ni0_1  1  0.00000000  0.00000000  0.50000000  1
  Ni  Ni0_2  1  0.00000000  0.50000000  0.00000000  1
  Ni  Ni0_3  1  0.00000000  0.50000000  0.50000000  1
  Ni  Ni0_4  1  0.50000000  0.00000000  0.00000000  1
  Ni  Ni0_5  1  0.50000000  0.00000000  0.50000000  1
  Ni  Ni0_6  1  0.50000000  0.50000000  0.00000000  1
  Ni  Ni0_7  1  0.50000000  0.50000000  0.50000000  1
loop_
_geom_bond_atom_site_label_1
_geom_bond_atom_site_label_2
_geom_bond_distance
_geom_bond_site_symmetry_2
Cu0_0 Ni0_7 2.422841 1_555
Cu0_0 Ni0_1 2.422841 1_555
Cu0_0 Cu0_4 2.444862 1_555
Cu0_0 Cu0_2 2.444862 1_545
Cu0_0 Cu0_4 2.444862 1_455
Cu0_0 Cu0_2 2.444862 1_555
Cu0_0 Cu1_6 2.468833 1_555
Cu0_0 Cu1_0 2.468833 1_555
Cu0_0 Cu0_6 2.632310 1_555
Cu0_0 Cu0_6 2.632310 1_445
Cu0_1 Ni0_0 2.422841 1_556
Cu0_1 Ni0_6 2.422841 1_556
Cu0_1 Cu0_5 2.444862 1_555
Cu0_1 Cu0_5 2.444862 1_455
Cu0_1 Cu0_3 2.444862 1_555
Cu0_1 Cu0_3 2.444862 1_545
Cu0_1 Cu1_7 2.468833 1_555
Cu0_1 Cu1_1 2.468833 1_555
Cu0_1 Cu0_7 2.632310 1_445
Cu0_1 Cu0_7 2.632310 1_555
Cu0_2 Ni0_3 2.422841 1_555
Cu0_2 Ni0_5 2.422841 1_565
Cu0_2 Cu0_6 2.444862 1_455
Cu0_2 Cu0_6 2.444862 1_555
Cu0_2 Cu1_2 2.468833 1_555
Cu0_2 Cu1_4 2.468833 1_565
Cu0_2 Cu0_4 2.632310 1_565
Cu0_2 Cu0_4 2.632310 1_455
Cu0_3 Ni0_4 2.422841 1_566
Cu0_3 Ni0_2 2.422841 1_556
Cu0_3 Cu0_7 2.444862 1_455
Cu0_3 Cu0_7 2.444862 1_555
Cu0_3 Cu1_3 2.468833 1_555
Cu0_3 Cu1_5 2.468833 1_565
Cu0_3 Cu0_5 2.632310 1_565
Cu0_3 Cu0_5 2.632310 1_455
Cu0_4 Ni0_3 2.422841 1_655
Cu0_4 Ni0_5 2.422841 1_555
Cu0_4 Cu0_6 2.444862 1_545
Cu0_4 Cu0_6 2.444862 1_555
Cu0_4 Cu1_4 2.468833 1_555
Cu0_4 Cu1_2 2.468833 1_655
Cu0_5 Ni0_2 2.422841 1_656
Cu0_5 Ni0_4 2.422841 1_556
Cu0_5 Cu0_7 2.444862 1_545
Cu0_5 Cu0_7 2.444862 1_555
Cu0_5 Cu1_5 2.468833 1_555
Cu0_5 Cu1_3 2.468833 1_655
Cu0_6 Ni0_7 2.422841 1_555
Cu0_6 Ni0_1 2.422841 1_665
Cu0_6 Cu1_6 2.468833 1_555
Cu0_6 Cu1_0 2.468833 1_665
Cu0_7 Ni0_0 2.422841 1_666
Cu0_7 Ni0_6 2.422841 1_556
Cu0_7 Cu1_7 2.468833 1_555
Cu0_7 Cu1_1 2.468833 1_665
Cu1_0 Cu1_2 2.444862 1_555
Cu1_0 Cu1_2 2.444862 1_545
Cu1_0 Cu1_4 2.444862 1_555
Cu1_0 Cu1_4 2.444862 1_455
Cu1_0 Cu2_6 2.468833 1_445
Cu1_0 Cu2_0 2.468833 1_555
Cu1_0 Cu1_6 2.632310 1_555
Cu1_0 Cu1_6 2.632310 1_445
Cu1_1 Cu1_5 2.444862 1_455
Cu1_1 Cu1_5 2.444862 1_555
Cu1_1 Cu1_3 2.444862 1_555
Cu1_1 Cu1_3 2.444862 1_545
Cu1_1 Cu2_7 2.468833 1_445
Cu1_1 Cu2_1 2.468833 1_555
Cu1_1 Cu1_7 2.632310 1_555
Cu1_1 Cu1_7 2.632310 1_445
Cu1_2 Cu1_6 2.444862 1_555
Cu1_2 Cu1_6 2.444862 1_455
Cu1_2 Cu2_4 2.468833 1_455
Cu1_2 Cu2_2 2.468833 1_555
Cu1_2 Cu1_4 2.632310 1_455
Cu1_2 Cu1_4 2.632310 1_565
Cu1_3 Cu1_7 2.444862 1_455
Cu1_3 Cu1_7 2.444862 1_555
Cu1_3 Cu2_3 2.468833 1_555
Cu1_3 Cu2_5 2.468833 1_455
Cu1_3 Cu1_5 2.632310 1_565
Cu1_3 Cu1_5 2.632310 1_455
Cu1_4 Cu1_6 2.444862 1_555
Cu1_4 Cu1_6 2.444862 1_545
Cu1_4 Cu2_4 2.468833 1_555
Cu1_4 Cu2_2 2.468833 1_545
Cu1_5 Cu1_7 2.444862 1_545
Cu1_5 Cu1_7 2.444862 1_555
Cu1_5 Cu2_5 2.468833 1_555
Cu1_5 Cu2_3 2.468833 1_545
Cu1_6 Cu2_6 2.468833 1_555
Cu1_6 Cu2_0 2.468833 1_555
Cu1_7 Cu2_7 2.468833 1_555
Cu1_7 Cu2_1 2.468833 1_555
Cu2_0 Ni0_0 2.422841 1_555
Cu2_0 Ni0_6 2.422841 1_555
Cu2_0 Cu2_4 2.444862 1_555
Cu2_0 Cu2_4 2.444862 1_455
Cu2_0 Cu2_2 2.444862 1_545
Cu2_0 Cu2_2 2.444862 1_555
Cu2_0 Cu2_6 2.632310 1_555
Cu2_0 Cu2_6 2.632310 1_445
Cu2_1 Ni0_7 2.422841 1_555
Cu2_1 Ni0_1 2.422841 1_555
Cu2_1 Cu2_5 2.444862 1_555
Cu2_1 Cu2_5 2.444862 1_455
Cu2_1 Cu2_3 2.444862 1_545
Cu2_1 Cu2_3 2.444862 1_555
Cu2_1 Cu2_7 2.632310 1_445
Cu2_1 Cu2_7 2.632310 1_555
Cu2_2 Ni0_2 2.422841 1_555
Cu2_2 Ni0_4 2.422841 1_565
Cu2_2 Cu2_6 2.444862 1_555
Cu2_2 Cu2_6 2.444862 1_455
Cu2_2 Cu2_4 2.632310 1_565
Cu2_2 Cu2_4 2.632310 1_455
Cu2_3 Ni0_3 2.422841 1_555
Cu2_3 Ni0_5 2.422841 1_565
Cu2_3 Cu2_7 2.444862 1_555
Cu2_3 Cu2_7 2.444862 1_455
Cu2_3 Cu2_5 2.632310 1_455
Cu2_3 Cu2_5 2.632310 1_565
Cu2_4 Ni0_4 2.422841 1_555
Cu2_4 Ni0_2 2.422841 1_655
Cu2_4 Cu2_6 2.444862 1_555
Cu2_4 Cu2_6 2.444862 1_545
Cu2_5 Ni0_3 2.422841 1_655
Cu2_5 Ni0_5 2.422841 1_555
Cu2_5 Cu2_7 2.444862 1_555
Cu2_5 Cu2_7 2.444862 1_545
Cu2_6 Ni0_0 2.422841 1_665
Cu2_6 Ni0_6 2.422841 1_555
Cu2_7 Ni0_7 2.422841 1_555
Cu2_7 Ni0_1 2.422841 1_665
Ni0_0 Ni0_2 2.444862 1_555
Ni0_0 Ni0_4 2.444862 1_555
Ni0_0 Ni0_2 2.444862 1_545
Ni0_0 Ni0_4 2.444862 1_455
Ni0_0 Ni0_6 2.632310 1_555
Ni0_0 Ni0_6 2.632310 1_445
Ni0_1 Ni0_5 2.444862 1_555
Ni0_1 Ni0_5 2.444862 1_455
Ni0_1 Ni0_3 2.444862 1_555
Ni0_1 Ni0_3 2.444862 1_545
Ni0_1 Ni0_7 2.632310 1_445
Ni0_1 Ni0_7 2.632310 1_555
Ni0_2 Ni0_6 2.444862 1_455
Ni0_2 Ni0_6 2.444862 1_555
Ni0_2 Ni0_4 2.632310 1_455
Ni0_2 Ni0_4 2.632310 1_565
Ni0_3 Ni0_7 2.444862 1_455
Ni0_3 Ni0_7 2.444862 1_555
Ni0_3 Ni0_5 2.632310 1_565
Ni0_3 Ni0_5 2.632310 1_455
Ni0_4 Ni0_6 2.444862 1_545
Ni0_4 Ni0_6 2.444862 1_555
Ni0_5 Ni0_7 2.444862 1_545
Ni0_5 Ni0_7 2.444862 1_555
