# generated using pymatgen
data_SmSi
_symmetry_space_group_name_H-M   'P 1'
_cell_length_a   3.89520274
_cell_length_b   8.13824062
_cell_length_c   5.84551510
_cell_angle_alpha   90.00000000
_cell_angle_beta   90.00000000
_cell_angle_gamma   90.00000000
_symmetry_Int_Tables_number   1
_chemical_formula_structural   SmSi
_chemical_formula_sum   'Sm4 Si4'
_cell_volume   185.30339663
_cell_formula_units_Z   4
loop_
 _symmetry_equiv_pos_site_id
 _symmetry_equiv_pos_as_xyz
  1  'x, y, z'
loop_
 _atom_site_type_symbol
 _atom_site_label
 _atom_site_symmetry_multiplicity
 _atom_site_fract_x
 _atom_site_fract_y
 _atom_site_fract_z
 _atom_site_occupancy
  Sm  Sm0  1  0.75000000  0.82071472  0.38574028  1
  Sm  Sm1  1  0.25000000  0.17928528  0.61425972  1
  Sm  Sm2  1  0.25000000  0.67928528  0.88574028  1
  Sm  Sm3  1  0.75000000  0.32071472  0.11425972  1
  Si  Si0  1  0.75000000  0.96405753  0.87651791  1
  Si  Si1  1  0.25000000  0.03594247  0.12348209  1
  Si  Si2  1  0.25000000  0.53594247  0.37651791  1
  Si  Si3  1  0.75000000  0.46405753  0.62348209  1
loop_
_geom_bond_atom_site_label_1
_geom_bond_atom_site_label_2
_geom_bond_distance
_geom_bond_site_symmetry_2
Si0 Si1 2.493887 1_566
Si0 Si1 2.493887 1_666
Si0 Sm2 3.027717 1_555
Si0 Sm2 3.027717 1_655
Si0 Sm1 3.035022 1_565
Si0 Sm1 3.035022 1_665
Si0 Sm0 3.096958 1_555
Si0 Sm0 3.197093 1_556
Si0 Sm3 3.218105 1_566
Si1 Sm3 3.027717 1_555
Si1 Sm3 3.027717 1_455
Si1 Sm0 3.035022 1_445
Si1 Sm0 3.035022 1_545
Si1 Sm1 3.096958 1_555
Si1 Sm1 3.197093 1_554
Si1 Sm2 3.218105 1_544
Si2 Si3 2.493887 1_555
Si2 Si3 2.493887 1_455
Si2 Sm0 3.027717 1_455
Si2 Sm0 3.027717 1_555
Si2 Sm3 3.035022 1_455
Si2 Sm3 3.035022 1_555
Si2 Sm2 3.096958 1_554
Si2 Sm2 3.197093 1_555
Si2 Sm1 3.218105 1_555
Si3 Sm1 3.027717 1_655
Si3 Sm1 3.027717 1_555
Si3 Sm2 3.035022 1_655
Si3 Sm2 3.035022 1_555
Si3 Sm3 3.096958 1_556
Si3 Sm3 3.197093 1_555
Si3 Sm0 3.218105 1_555
