# generated using pymatgen
data_Cs6MoN4
_symmetry_space_group_name_H-M   'P 1'
_cell_length_a   8.93099200
_cell_length_b   8.93099200
_cell_length_c   7.97125300
_cell_angle_alpha   90.00000000
_cell_angle_beta   90.00000000
_cell_angle_gamma   90.00000000
_symmetry_Int_Tables_number   1
_chemical_formula_structural   Cs6MoN4
_chemical_formula_sum   'Cs12 Mo2 N8'
_cell_volume   635.80800885
_cell_formula_units_Z   2
loop_
 _symmetry_equiv_pos_site_id
 _symmetry_equiv_pos_as_xyz
  1  'x, y, z'
loop_
 _atom_site_type_symbol
 _atom_site_label
 _atom_site_symmetry_multiplicity
 _atom_site_fract_x
 _atom_site_fract_y
 _atom_site_fract_z
 _atom_site_occupancy
  Cs  Cs0  1  0.00000000  0.50000000  0.73670600  1
  Cs  Cs1  1  0.50000000  0.00000000  0.76329400  1
  Cs  Cs2  1  0.50000000  0.00000000  0.26329400  1
  Cs  Cs3  1  0.00000000  0.50000000  0.23670600  1
  Cs  Cs4  1  0.21224900  0.21224900  0.50000000  1
  Cs  Cs5  1  0.78775100  0.78775100  0.50000000  1
  Cs  Cs6  1  0.71224900  0.71224900  0.00000000  1
  Cs  Cs7  1  0.28775100  0.28775100  0.00000000  1
  Cs  Cs8  1  0.78775100  0.21224900  0.50000000  1
  Cs  Cs9  1  0.21224900  0.78775100  0.50000000  1
  Cs  Cs10  1  0.28775100  0.71224900  0.00000000  1
  Cs  Cs11  1  0.71224900  0.28775100  0.00000000  1
  Mo  Mo0  1  0.50000000  0.50000000  0.50000000  1
  Mo  Mo1  1  0.00000000  0.00000000  0.00000000  1
  N  N0  1  0.31801600  0.50000000  0.37251200  1
  N  N1  1  0.68198400  0.50000000  0.37251200  1
  N  N2  1  0.81801600  0.00000000  0.12748800  1
  N  N3  1  0.18198400  0.00000000  0.12748800  1
  N  N4  1  0.50000000  0.31801600  0.62748800  1
  N  N5  1  0.50000000  0.68198400  0.62748800  1
  N  N6  1  0.00000000  0.81801600  0.87251200  1
  N  N7  1  0.00000000  0.18198400  0.87251200  1
loop_
_geom_bond_atom_site_label_1
_geom_bond_atom_site_label_2
_geom_bond_distance
_geom_bond_site_symmetry_2
Cs0 N6 3.039511 1_555
Cs0 N7 3.039511 1_555
Cs1 N5 3.039511 1_545
Cs1 N4 3.039511 1_555
Cs2 N2 3.039511 1_555
Cs2 N3 3.039511 1_555
Cs3 N1 3.039511 1_455
Cs3 N0 3.039511 1_555
Cs4 N0 2.920516 1_555
Cs4 N4 2.920516 1_555
Cs4 N7 3.533214 1_555
Cs4 N3 3.533214 1_555
Cs5 N5 2.920516 1_555
Cs5 N1 2.920516 1_555
Cs5 N6 3.533214 1_655
Cs5 N2 3.533214 1_565
Cs6 N2 2.920516 1_565
Cs6 N6 2.920516 1_654
Cs6 N1 3.533214 1_555
Cs6 N5 3.533214 1_554
Cs7 N3 2.920516 1_555
Cs7 N7 2.920516 1_554
Cs7 N4 3.533214 1_554
Cs7 N0 3.533214 1_555
Cs8 N1 2.920516 1_555
Cs8 N4 2.920516 1_555
Cs8 N2 3.533214 1_555
Cs8 N7 3.533214 1_655
Cs9 N5 2.920516 1_555
Cs9 N0 2.920516 1_555
Cs9 N6 3.533214 1_555
Cs9 N3 3.533214 1_565
Cs10 N3 2.920516 1_565
Cs10 N6 2.920516 1_554
Cs10 N5 3.533214 1_554
Cs10 N0 3.533214 1_555
Cs11 N2 2.920516 1_555
Cs11 N7 2.920516 1_654
Cs11 N1 3.533214 1_555
Cs11 N4 3.533214 1_554
Mo0 N0 1.916855 1_555
Mo0 N4 1.916855 1_555
Mo0 N1 1.916855 1_555
Mo0 N5 1.916855 1_555
Mo1 N3 1.916855 1_555
Mo1 N7 1.916855 1_554
Mo1 N2 1.916855 1_455
Mo1 N6 1.916855 1_544
