# generated using pymatgen
data_SrCaTiMnO6
_symmetry_space_group_name_H-M   'P 1'
_cell_length_a   5.46986636
_cell_length_b   9.45742814
_cell_length_c   9.45324500
_cell_angle_alpha   108.90365019
_cell_angle_beta   89.99734599
_cell_angle_gamma   90.00128209
_symmetry_Int_Tables_number   1
_chemical_formula_structural   SrCaTiMnO6
_chemical_formula_sum   'Sr4 Ca4 Ti4 Mn4 O24'
_cell_volume   462.64889235
_cell_formula_units_Z   4
loop_
 _symmetry_equiv_pos_site_id
 _symmetry_equiv_pos_as_xyz
  1  'x, y, z'
loop_
 _atom_site_type_symbol
 _atom_site_label
 _atom_site_symmetry_multiplicity
 _atom_site_fract_x
 _atom_site_fract_y
 _atom_site_fract_z
 _atom_site_occupancy
  Sr  Sr0  1  0.50004600  0.62358200  0.37211400  1
  Sr  Sr1  1  0.99990800  0.87830000  0.62587500  1
  Sr  Sr2  1  0.49997900  0.12361900  0.87219000  1
  Sr  Sr3  1  0.99996500  0.37828800  0.12577900  1
  Ca  Ca0  1  0.50000900  0.87541900  0.13161100  1
  Ca  Ca1  1  0.99998100  0.11889000  0.37410600  1
  Ca  Ca2  1  0.49993000  0.37544200  0.63166800  1
  Ca  Ca3  1  0.99999000  0.61888800  0.87419500  1
  Ti  Ti0  1  0.99997400  0.99475100  0.00249700  1
  Ti  Ti1  1  0.49999300  0.24768000  0.25520700  1
  Ti  Ti2  1  0.00001900  0.49468700  0.50246600  1
  Ti  Ti3  1  0.49995400  0.74769300  0.75534700  1
  Mn  Mn0  1  0.00004600  0.75002800  0.24844800  1
  Mn  Mn1  1  0.50010700  0.00193700  0.50017000  1
  Mn  Mn2  1  0.00004000  0.24994200  0.74820800  1
  Mn  Mn3  1  0.49992600  0.50194200  0.99994600  1
  O  O0  1  0.00001900  0.65388000  0.39759500  1
  O  O1  1  0.49987900  0.85199800  0.59587100  1
  O  O2  1  0.99996400  0.15387500  0.89745900  1
  O  O3  1  0.49998100  0.35205500  0.09579800  1
  O  O4  1  0.99997900  0.83836000  0.09152600  1
  O  O5  1  0.49999100  0.15838700  0.41185000  1
  O  O6  1  0.00028100  0.33831100  0.59139700  1
  O  O7  1  0.50015500  0.65854800  0.91186300  1
  O  O8  1  0.24974300  0.88690100  0.86140500  1
  O  O9  1  0.74995500  0.10657800  0.14227300  1
  O  O10  1  0.24958300  0.38702700  0.36139400  1
  O  O11  1  0.75009700  0.60656900  0.64230300  1
  O  O12  1  0.25001300  0.10657900  0.14227200  1
  O  O13  1  0.75039800  0.38700900  0.36139400  1
  O  O14  1  0.25009300  0.60616200  0.64278300  1
  O  O15  1  0.75021800  0.88692600  0.86139900  1
  O  O16  1  0.25032600  0.61116200  0.14021600  1
  O  O17  1  0.75020600  0.89879100  0.35265000  1
  O  O18  1  0.25042700  0.11114500  0.64023200  1
  O  O19  1  0.75023400  0.39877200  0.85267300  1
  O  O20  1  0.24977900  0.89879500  0.35265900  1
  O  O21  1  0.74949600  0.11118100  0.64025200  1
  O  O22  1  0.24970500  0.39876600  0.85269300  1
  O  O23  1  0.74961100  0.61113900  0.14021300  1
loop_
_geom_bond_atom_site_label_1
_geom_bond_atom_site_label_2
_geom_bond_distance
_geom_bond_site_symmetry_2
Ca0 O7 2.400279 1_554
Ca0 O17 2.447225 1_555
Ca0 O20 2.447287 1_555
Ca0 O9 2.552598 1_565
Ca0 O12 2.552803 1_565
Ca0 O4 2.767541 1_555
Ca0 O4 2.767884 1_455
Ca0 O16 2.872171 1_555
Ca0 O23 2.872200 1_555
Ca0 O15 2.930799 1_554
Ca0 O8 2.930932 1_554
Ca1 O6 2.400763 1_655
Ca1 O17 2.442746 1_545
Ca1 O20 2.442843 1_645
Ca1 O12 2.553709 1_655
Ca1 O9 2.553787 1_555
Ca1 O5 2.767670 1_555
Ca1 O5 2.767794 1_655
Ca1 O18 2.886304 1_655
Ca1 O21 2.886355 1_555
Ca1 O13 2.916443 1_555
Ca1 O10 2.916584 1_655
Ca2 O5 2.401668 1_555
Ca2 O22 2.447184 1_555
Ca2 O19 2.447362 1_555
Ca2 O14 2.547809 1_555
Ca2 O11 2.553052 1_555
Ca2 O6 2.766050 1_555
Ca2 O6 2.769825 1_655
Ca2 O21 2.871895 1_555
Ca2 O18 2.871915 1_555
Ca2 O10 2.932018 1_555
Ca2 O13 2.932160 1_555
Ca3 O4 2.401263 1_556
Ca3 O22 2.442699 1_655
Ca3 O19 2.442700 1_555
Ca3 O14 2.549645 1_655
Ca3 O11 2.553853 1_555
Ca3 O7 2.766915 1_555
Ca3 O7 2.768715 1_655
Ca3 O16 2.885090 1_656
Ca3 O23 2.885132 1_556
Ca3 O8 2.916174 1_655
Ca3 O15 2.916508 1_555
Mn0 O0 1.909307 1_555
Mn0 O4 1.923901 1_455
Mn0 O16 1.942952 1_555
Mn0 O23 1.943693 1_455
Mn0 O20 1.979375 1_555
Mn0 O17 1.979716 1_455
Mn1 O1 1.913252 1_545
Mn1 O5 1.920100 1_555
Mn1 O21 1.948193 1_555
Mn1 O18 1.949053 1_555
Mn1 O17 1.971348 1_545
Mn1 O20 1.972220 1_545
Mn2 O2 1.909636 1_455
Mn2 O6 1.923185 1_555
Mn2 O18 1.942292 1_555
Mn2 O21 1.942692 1_455
Mn2 O22 1.980109 1_555
Mn2 O19 1.980601 1_455
Mn3 O3 1.913830 1_556
Mn3 O7 1.919913 1_555
Mn3 O16 1.949781 1_556
Mn3 O23 1.950078 1_556
Mn3 O22 1.970566 1_555
Mn3 O19 1.970926 1_555
O0 Ti2 2.053444 1_555
O0 Sr1 2.488751 1_455
O0 Sr0 2.752178 1_455
O0 Sr0 2.752462 1_555
O0 Sr3 3.009372 1_455
O1 Ti3 2.051696 1_555
O1 Sr0 2.485966 1_555
O1 Sr1 2.752373 1_455
O1 Sr1 2.752704 1_555
O1 Sr2 3.012343 1_565
O2 Ti0 2.054001 1_546
O2 Sr3 2.488937 1_556
O2 Sr2 2.752106 1_555
O2 Sr2 2.752260 1_655
O2 Sr1 3.008020 1_545
O3 Ti1 2.051608 1_555
O3 Sr2 2.485277 1_554
O3 Sr3 2.752406 1_555
O3 Sr3 2.752565 1_455
O3 Sr0 3.011818 1_555
O4 Ti0 1.924186 1_555
O5 Ti1 1.927729 1_555
O6 Ti2 1.923422 1_555
O7 Ti3 1.925675 1_555
O8 Ti3 1.938116 1_555
O8 Ti0 1.950445 1_456
O8 Sr1 2.591224 1_455
O8 Sr2 2.597662 1_565
O9 Ti0 1.956810 1_545
O9 Ti1 1.966410 1_555
O9 Sr2 2.946381 1_554
O9 Sr3 2.959241 1_555
O10 Ti1 1.939920 1_555
O10 Ti2 1.949021 1_555
O10 Sr3 2.590958 1_455
O10 Sr0 2.597155 1_555
O11 Ti2 1.956896 1_655
O11 Ti3 1.967539 1_555
O11 Sr0 2.947369 1_555
O11 Sr1 2.958706 1_555
O12 Ti0 1.956938 1_445
O12 Ti1 1.966504 1_555
O12 Sr2 2.946231 1_554
O12 Sr3 2.959386 1_455
O13 Ti1 1.939837 1_555
O13 Ti2 1.949345 1_655
O13 Sr3 2.590747 1_555
O13 Sr0 2.597027 1_555
O14 Ti2 1.958572 1_555
O14 Ti3 1.966972 1_555
O14 Sr0 2.952314 1_555
O14 Sr1 2.964637 1_455
O15 Ti3 1.938449 1_555
O15 Ti0 1.950407 1_556
O15 Sr1 2.590592 1_555
O15 Sr2 2.597504 1_565
O16 Sr0 2.553173 1_555
O16 Sr3 2.559226 1_455
O17 Sr1 2.983104 1_555
O17 Sr0 2.998458 1_555
O18 Sr2 2.553041 1_555
O18 Sr1 2.559628 1_445
O19 Sr3 2.982156 1_556
O19 Sr2 2.998396 1_555
O20 Sr1 2.983352 1_455
O20 Sr0 2.998790 1_555
O21 Sr2 2.552752 1_555
O21 Sr1 2.559605 1_545
O22 Sr3 2.981878 1_456
O22 Sr2 2.998390 1_555
O23 Sr0 2.552587 1_555
O23 Sr3 2.559074 1_555
