# generated using pymatgen
data_Ba10Co7(IrO10)3
_symmetry_space_group_name_H-M   'P 1'
_cell_length_a   5.77551568
_cell_length_b   5.77551568
_cell_length_c   23.95196735
_cell_angle_alpha   89.20678391
_cell_angle_beta   89.20678391
_cell_angle_gamma   60.02873529
_symmetry_Int_Tables_number   1
_chemical_formula_structural   Ba10Co7(IrO10)3
_chemical_formula_sum   'Ba10 Co7 Ir3 O30'
_cell_volume   692.02777473
_cell_formula_units_Z   1
loop_
 _symmetry_equiv_pos_site_id
 _symmetry_equiv_pos_as_xyz
  1  'x, y, z'
loop_
 _atom_site_type_symbol
 _atom_site_label
 _atom_site_symmetry_multiplicity
 _atom_site_fract_x
 _atom_site_fract_y
 _atom_site_fract_z
 _atom_site_occupancy
  Ba  Ba0  1  0.00041600  0.00041600  0.74985900  1
  Ba  Ba1  1  0.99843600  0.99843600  0.25377000  1
  Ba  Ba2  1  0.33375100  0.33375100  0.04304800  1
  Ba  Ba3  1  0.66703900  0.66703900  0.95891800  1
  Ba  Ba4  1  0.66571300  0.66571300  0.54046000  1
  Ba  Ba5  1  0.33524200  0.33524200  0.45390300  1
  Ba  Ba6  1  0.33315600  0.33315600  0.63680600  1
  Ba  Ba7  1  0.66625500  0.66625500  0.35575500  1
  Ba  Ba8  1  0.66575100  0.66575100  0.14304600  1
  Ba  Ba9  1  0.33438000  0.33438000  0.86233000  1
  Co  Co0  1  0.33354100  0.33354100  0.30989400  1
  Co  Co1  1  0.99752600  0.99752600  0.60264800  1
  Co  Co2  1  0.00228700  0.00228700  0.39396200  1
  Co  Co3  1  0.00222000  0.00222000  0.10400300  1
  Co  Co4  1  0.99944300  0.99944300  0.89678000  1
  Co  Co5  1  0.00032500  0.00032500  0.49923200  1
  Co  Co6  1  0.99992500  0.99992500  0.00041400  1
  Ir  Ir0  1  0.33377900  0.33377900  0.19728500  1
  Ir  Ir1  1  0.66661800  0.66661800  0.80340400  1
  Ir  Ir2  1  0.66721200  0.66721200  0.69656200  1
  O  O0  1  0.83468900  0.83468900  0.65003800  1
  O  O1  1  0.34621300  0.82789200  0.65105500  1
  O  O2  1  0.82789200  0.34621300  0.65105500  1
  O  O3  1  0.15654900  0.15654900  0.35225300  1
  O  O4  1  0.66043000  0.16752300  0.35007900  1
  O  O5  1  0.16752300  0.66043000  0.35007900  1
  O  O6  1  0.17224100  0.17224100  0.15188000  1
  O  O7  1  0.66120700  0.16760000  0.15010200  1
  O  O8  1  0.16760000  0.66120700  0.15010200  1
  O  O9  1  0.82659600  0.82659600  0.84897200  1
  O  O10  1  0.33762500  0.83214800  0.84944500  1
  O  O11  1  0.83214800  0.33762500  0.84944500  1
  O  O12  1  0.14684700  0.14684700  0.55125900  1
  O  O13  1  0.69784300  0.14849200  0.54754400  1
  O  O14  1  0.14849200  0.69784300  0.54754400  1
  O  O15  1  0.85646400  0.85646400  0.44725500  1
  O  O16  1  0.29809400  0.85310100  0.45106600  1
  O  O17  1  0.85310100  0.29809400  0.45106600  1
  O  O18  1  0.85070000  0.85070000  0.04767600  1
  O  O19  1  0.29877100  0.85289000  0.05009600  1
  O  O20  1  0.85289000  0.29877100  0.05009600  1
  O  O21  1  0.14991600  0.14991600  0.95240500  1
  O  O22  1  0.70140100  0.14795400  0.95029300  1
  O  O23  1  0.14795400  0.70140100  0.95029300  1
  O  O24  1  0.50896600  0.98233400  0.74946900  1
  O  O25  1  0.50921400  0.50921400  0.75118000  1
  O  O26  1  0.98233400  0.50896600  0.74946900  1
  O  O27  1  0.48275700  0.03374100  0.25021200  1
  O  O28  1  0.48678500  0.48678500  0.24628100  1
  O  O29  1  0.03374100  0.48275700  0.25021200  1
loop_
_geom_bond_atom_site_label_1
_geom_bond_atom_site_label_2
_geom_bond_distance
_geom_bond_site_symmetry_2
Ba0 O24 2.886274 1_545
Ba0 O26 2.886274 1_455
Ba0 O25 2.890540 1_545
Ba0 O25 2.890540 1_455
Ba0 O26 2.892110 1_445
Ba0 O24 2.892110 1_445
Ba0 O9 2.919973 1_445
Ba0 O1 2.920307 1_545
Ba0 O2 2.920307 1_455
Ba0 O0 2.931013 1_445
Ba0 O11 2.932641 1_455
Ba0 O10 2.932641 1_545
Ba1 O5 2.849354 1_655
Ba1 O4 2.849354 1_565
Ba1 O3 2.860857 1_665
Ba1 O29 2.884262 1_655
Ba1 O27 2.884262 1_565
Ba1 O28 2.897036 1_655
Ba1 O28 2.897036 1_565
Ba1 O29 2.904475 1_665
Ba1 O27 2.904475 1_665
Ba1 O6 2.973595 1_665
Ba1 O8 3.013140 1_655
Ba1 O7 3.013140 1_565
Ba2 O21 2.867427 1_554
Ba2 O22 2.873120 1_554
Ba2 O23 2.873120 1_554
Ba2 O19 2.885988 1_545
Ba2 O20 2.885988 1_455
Ba2 O18 2.896207 1_545
Ba2 O18 2.896207 1_455
Ba2 O20 2.909802 1_555
Ba2 O19 2.909802 1_555
Ba2 O6 3.044677 1_555
Ba2 O8 3.053744 1_555
Ba2 O7 3.053744 1_555
Ba3 O18 2.831776 1_556
Ba3 O19 2.846166 1_556
Ba3 O20 2.846166 1_556
Ba3 O23 2.886256 1_655
Ba3 O22 2.886256 1_565
Ba3 O21 2.898433 1_655
Ba3 O21 2.898433 1_565
Ba3 O22 2.914022 1_555
Ba3 O23 2.914022 1_555
Ba3 O9 3.057354 1_555
Ba3 O11 3.108148 1_555
Ba3 O10 3.108148 1_555
Ba4 O16 2.833665 1_555
Ba4 O17 2.833665 1_555
Ba4 O14 2.892882 1_655
Ba4 O13 2.892882 1_565
Ba4 O14 2.901670 1_555
Ba4 O13 2.901670 1_555
Ba4 O12 2.906431 1_655
Ba4 O12 2.906431 1_565
Ba4 O15 2.913364 1_555
Ba4 O1 3.083160 1_555
Ba4 O2 3.083160 1_555
Ba4 O0 3.144338 1_555
Ba5 O17 2.889600 1_555
Ba5 O16 2.889600 1_555
Ba5 O13 2.895832 1_555
Ba5 O14 2.895832 1_555
Ba5 O17 2.899530 1_455
Ba5 O16 2.899530 1_545
Ba5 O15 2.900986 1_455
Ba5 O15 2.900986 1_545
Ba5 O4 2.961331 1_555
Ba5 O5 2.961331 1_555
Ba5 O12 2.974529 1_555
Ba5 O3 3.043257 1_555
Ba6 O12 2.791611 1_555
Ba6 O13 2.799797 1_555
Ba6 O14 2.799797 1_555
Ba6 O2 2.896738 1_455
Ba6 O1 2.896738 1_545
Ba6 O0 2.906411 1_455
Ba6 O0 2.906411 1_545
Ba6 O2 2.920556 1_555
Ba6 O1 2.920556 1_555
Ba6 O26 3.207370 1_455
Ba6 O24 3.207370 1_545
Ba6 O25 3.280232 1_555
Ba7 O4 2.879761 1_565
Ba7 O5 2.879761 1_655
Ba7 O3 2.891904 1_655
Ba7 O3 2.891904 1_565
Ba7 O5 2.902466 1_555
Ba7 O4 2.902466 1_555
Ba7 O16 2.922080 1_555
Ba7 O17 2.922080 1_555
Ba7 O15 2.925043 1_555
Ba7 O29 3.113949 1_655
Ba7 O27 3.113949 1_565
Ba7 O28 3.201291 1_555
Ba8 O7 2.892685 1_565
Ba8 O8 2.892685 1_655
Ba8 O7 2.892869 1_555
Ba8 O8 2.892869 1_555
Ba8 O19 2.896936 1_555
Ba8 O20 2.896936 1_555
Ba8 O6 2.897553 1_655
Ba8 O6 2.897553 1_565
Ba8 O18 2.916318 1_555
Ba8 O28 3.029325 1_555
Ba8 O27 3.170859 1_565
Ba8 O29 3.170859 1_655
Ba9 O23 2.805716 1_555
Ba9 O22 2.805716 1_555
Ba9 O21 2.816291 1_555
Ba9 O10 2.896475 1_555
Ba9 O11 2.896475 1_555
Ba9 O9 2.907854 1_455
Ba9 O9 2.907854 1_545
Ba9 O11 2.911988 1_455
Ba9 O10 2.911988 1_545
Ba9 O25 3.161758 1_555
Ba9 O26 3.238311 1_455
Ba9 O24 3.238311 1_545
Co0 O4 1.904272 1_555
Co0 O5 1.904272 1_555
Co0 O3 2.026287 1_555
Co0 O29 2.080331 1_555
Co0 O27 2.080331 1_555
Co0 O28 2.143871 1_555
Co1 O12 1.920114 1_665
Co1 O0 1.970272 1_555
Co1 O14 2.005382 1_655
Co1 O13 2.005382 1_565
Co1 O2 2.102771 1_565
Co1 O1 2.102771 1_655
Co2 O3 1.824660 1_555
Co2 O15 1.922798 1_445
Co2 O4 2.015161 1_455
Co2 O5 2.015161 1_545
Co2 O17 2.023171 1_455
Co2 O16 2.023171 1_545
Co3 O20 1.959123 1_455
Co3 O19 1.959123 1_545
Co3 O8 2.024833 1_545
Co3 O7 2.024833 1_455
Co3 O18 2.045075 1_445
Co3 O6 2.066224 1_555
Co4 O23 1.958515 1_655
Co4 O22 1.958515 1_565
Co4 O21 2.025920 1_665
Co4 O10 2.029128 1_655
Co4 O11 2.029128 1_565
Co4 O9 2.088868 1_555
Co5 O17 1.876899 1_455
Co5 O16 1.876899 1_545
Co5 O13 1.897650 1_455
Co5 O14 1.897650 1_545
Co5 O15 1.917714 1_445
Co5 O12 1.938821 1_555
Co6 O18 1.858805 1_555
Co6 O21 1.875574 1_664
Co6 O19 1.918512 1_655
Co6 O20 1.918512 1_565
Co6 O22 1.923768 1_564
Co6 O23 1.923768 1_654
Ir0 O28 1.943370 1_555
Ir0 O29 1.957020 1_555
Ir0 O27 1.957020 1_555
Ir0 O6 1.962000 1_555
Ir0 O8 1.982907 1_555
Ir0 O7 1.982907 1_555
Ir1 O9 1.951264 1_555
Ir1 O10 1.974004 1_555
Ir1 O11 1.974004 1_555
Ir1 O25 2.026389 1_555
Ir1 O24 2.032565 1_555
Ir1 O26 2.032565 1_555
Ir2 O2 1.948155 1_555
Ir2 O1 1.948155 1_555
Ir2 O0 1.997015 1_555
Ir2 O24 2.030614 1_555
Ir2 O26 2.030614 1_555
Ir2 O25 2.035352 1_555
