# generated using pymatgen
data_Mg6MnW
_symmetry_space_group_name_H-M   'P 1'
_cell_length_a   4.74582100
_cell_length_b   5.93513300
_cell_length_c   10.93403100
_cell_angle_alpha   90.00000000
_cell_angle_beta   90.00000000
_cell_angle_gamma   90.00000000
_symmetry_Int_Tables_number   1
_chemical_formula_structural   Mg6MnW
_chemical_formula_sum   'Mg12 Mn2 W2'
_cell_volume   307.97971310
_cell_formula_units_Z   2
loop_
 _symmetry_equiv_pos_site_id
 _symmetry_equiv_pos_as_xyz
  1  'x, y, z'
loop_
 _atom_site_type_symbol
 _atom_site_label
 _atom_site_symmetry_multiplicity
 _atom_site_fract_x
 _atom_site_fract_y
 _atom_site_fract_z
 _atom_site_occupancy
  Mg  Mg0  1  0.00000000  0.26124900  0.08039800  1
  Mg  Mg1  1  0.00000000  0.73875100  0.08039800  1
  Mg  Mg2  1  0.00000000  0.00000000  0.32831100  1
  Mg  Mg3  1  0.50000000  0.74367800  0.42280300  1
  Mg  Mg4  1  0.50000000  0.25632200  0.42280300  1
  Mg  Mg5  1  0.50000000  0.00000000  0.17052400  1
  Mg  Mg6  1  0.00000000  0.76124900  0.58039800  1
  Mg  Mg7  1  0.00000000  0.23875100  0.58039800  1
  Mg  Mg8  1  0.00000000  0.50000000  0.82831100  1
  Mg  Mg9  1  0.50000000  0.24367800  0.92280300  1
  Mg  Mg10  1  0.50000000  0.75632200  0.92280300  1
  Mg  Mg11  1  0.50000000  0.50000000  0.67052400  1
  Mn  Mn0  1  0.00000000  0.50000000  0.30338400  1
  Mn  Mn1  1  0.00000000  0.00000000  0.80338400  1
  W  W0  1  0.50000000  0.50000000  0.19137900  1
  W  W1  1  0.50000000  0.00000000  0.69137900  1
loop_
_geom_bond_atom_site_label_1
_geom_bond_atom_site_label_2
_geom_bond_distance
_geom_bond_site_symmetry_2
Mg0 Mn0 2.820009 1_555
Mg0 Mg1 2.834038 1_555
Mg0 Mg9 2.934420 1_454
Mg0 Mg9 2.934420 1_554
Mg0 Mg5 3.000999 1_555
Mg0 Mg5 3.000999 1_455
Mg0 W0 3.018469 1_455
Mg0 W0 3.018469 1_555
Mg0 Mg8 3.099239 1_554
Mg0 Mg1 3.101095 1_545
Mg0 Mg2 3.122824 1_555
Mg0 Mn1 3.402692 1_554
Mg1 Mn0 2.820009 1_555
Mg1 Mg10 2.934420 1_554
Mg1 Mg10 2.934420 1_454
Mg1 Mg5 3.000999 1_565
Mg1 Mg5 3.000999 1_465
Mg1 W0 3.018469 1_455
Mg1 W0 3.018469 1_555
Mg1 Mg8 3.099239 1_554
Mg1 Mg2 3.122824 1_565
Mg1 Mn1 3.402692 1_564
Mg2 Mg5 2.933800 1_455
Mg2 Mg5 2.933800 1_555
Mg2 Mn0 2.980056 1_555
Mg2 Mn0 2.980056 1_545
Mg2 Mg4 3.002088 1_455
Mg2 Mg3 3.002088 1_545
Mg2 Mg3 3.002088 1_445
Mg2 Mg4 3.002088 1_555
Mg2 Mg7 3.099239 1_555
Mg2 Mg6 3.099239 1_545
Mg3 Mg4 2.892523 1_555
Mg3 W0 2.914547 1_555
Mg3 Mg6 2.934420 1_655
Mg3 Mg6 2.934420 1_555
Mg3 Mg4 3.042610 1_565
Mg3 Mn0 3.070392 1_555
Mg3 Mn0 3.070392 1_655
Mg3 Mg5 3.150125 1_565
Mg3 W1 3.307279 1_565
Mg4 W0 2.914547 1_555
Mg4 Mg7 2.934420 1_555
Mg4 Mg7 2.934420 1_655
Mg4 Mn0 3.070392 1_655
Mg4 Mn0 3.070392 1_555
Mg4 Mg5 3.150125 1_555
Mg4 W1 3.307279 1_555
Mg5 W0 2.976315 1_545
Mg5 W0 2.976315 1_555
Mg5 Mg9 3.070525 1_554
Mg6 Mn1 2.820009 1_565
Mg6 Mg7 2.834038 1_565
Mg6 W1 3.018469 1_565
Mg6 W1 3.018469 1_465
Mg6 Mg7 3.101095 1_555
Mg6 Mg8 3.122824 1_555
Mg6 Mn0 3.402692 1_555
Mg7 Mn1 2.820009 1_555
Mg7 W1 3.018469 1_555
Mg7 W1 3.018469 1_455
Mg7 Mg8 3.122824 1_555
Mg7 Mn0 3.402692 1_555
Mg8 Mn1 2.980056 1_565
Mg8 Mn1 2.980056 1_555
Mg8 Mg9 3.002088 1_555
Mg8 Mg9 3.002088 1_455
Mg9 W1 2.914547 1_555
Mg9 Mn1 3.070392 1_555
Mg9 Mn1 3.070392 1_655
Mg9 W0 3.307279 1_556
Mg10 Mg9 2.892523 1_565
Mg10 W1 2.914547 1_565
Mg10 Mg8 3.002088 1_655
Mg10 Mg8 3.002088 1_555
Mg10 Mg9 3.042610 1_555
Mg10 Mn1 3.070392 1_665
Mg10 Mn1 3.070392 1_565
Mg10 Mg5 3.070525 1_566
Mg10 Mg11 3.150125 1_555
Mg10 W0 3.307279 1_556
Mg11 Mg8 2.933800 1_655
Mg11 Mg8 2.933800 1_555
Mg11 W1 2.976315 1_565
Mg11 W1 2.976315 1_555
Mg11 Mg6 3.000999 1_555
Mg11 Mg6 3.000999 1_655
Mg11 Mg7 3.000999 1_655
Mg11 Mg7 3.000999 1_555
Mg11 Mg3 3.070525 1_555
Mg11 Mg4 3.070525 1_555
Mg11 Mg9 3.150125 1_555
Mn0 W0 2.670302 1_455
Mn0 W0 2.670302 1_555
Mn1 W1 2.670302 1_555
Mn1 W1 2.670302 1_455
