# generated using pymatgen
data_Sn2O3
_symmetry_space_group_name_H-M   'P 1'
_cell_length_a   5.36362279
_cell_length_b   5.36362279
_cell_length_c   21.02514600
_cell_angle_alpha   90.00000000
_cell_angle_beta   90.00000000
_cell_angle_gamma   144.06834235
_symmetry_Int_Tables_number   1
_chemical_formula_structural   Sn2O3
_chemical_formula_sum   'Sn8 O12'
_cell_volume   354.94434662
_cell_formula_units_Z   4
loop_
 _symmetry_equiv_pos_site_id
 _symmetry_equiv_pos_as_xyz
  1  'x, y, z'
loop_
 _atom_site_type_symbol
 _atom_site_label
 _atom_site_symmetry_multiplicity
 _atom_site_fract_x
 _atom_site_fract_y
 _atom_site_fract_z
 _atom_site_occupancy
  Sn  Sn0  1  0.63630600  0.36369400  0.04046900  1
  Sn  Sn1  1  0.36369400  0.63630600  0.95953100  1
  Sn  Sn2  1  0.63630600  0.36369400  0.45953100  1
  Sn  Sn3  1  0.36369400  0.63630600  0.54046900  1
  Sn  Sn4  1  0.08120300  0.91879700  0.66299900  1
  Sn  Sn5  1  0.91879700  0.08120300  0.33700100  1
  Sn  Sn6  1  0.91879700  0.08120300  0.16299900  1
  Sn  Sn7  1  0.08120300  0.91879700  0.83700100  1
  O  O0  1  0.00000000  0.00000000  0.50000000  1
  O  O1  1  0.00000000  0.00000000  0.00000000  1
  O  O2  1  0.45363000  0.54637000  0.87608800  1
  O  O3  1  0.54637000  0.45363000  0.12391200  1
  O  O4  1  0.54637000  0.45363000  0.37608800  1
  O  O5  1  0.45363000  0.54637000  0.62391200  1
  O  O6  1  0.73941500  0.26058500  0.95010000  1
  O  O7  1  0.26058500  0.73941500  0.04990000  1
  O  O8  1  0.26058500  0.73941500  0.45010000  1
  O  O9  1  0.73941500  0.26058500  0.54990000  1
  O  O10  1  0.00141400  0.99858600  0.75000000  1
  O  O11  1  0.99858600  0.00141400  0.25000000  1
loop_
_geom_bond_atom_site_label_1
_geom_bond_atom_site_label_2
_geom_bond_distance
_geom_bond_site_symmetry_2
O0 Sn3 2.322848 1_555
O0 Sn3 2.322848 1_445
O0 Sn2 2.322848 1_445
O0 Sn2 2.322848 1_555
O1 Sn1 2.322848 1_554
O1 Sn1 2.322848 1_444
O1 Sn0 2.322848 1_555
O1 Sn0 2.322848 1_445
O2 Sn1 1.979935 1_555
O2 Sn7 2.259882 1_655
O2 Sn7 2.259882 1_545
O3 Sn0 1.979935 1_555
O3 Sn6 2.259882 1_565
O3 Sn6 2.259882 1_455
O4 Sn2 1.979935 1_555
O4 Sn5 2.259882 1_565
O4 Sn5 2.259882 1_455
O5 Sn3 1.979935 1_555
O5 Sn4 2.259882 1_655
O5 Sn4 2.259882 1_545
O6 Sn1 2.093951 1_655
O6 Sn1 2.093951 1_545
O6 Sn0 2.171886 1_556
O7 Sn0 2.093951 1_565
O7 Sn0 2.093951 1_455
O7 Sn1 2.171886 1_554
O8 Sn2 2.093951 1_565
O8 Sn2 2.093951 1_455
O8 Sn3 2.171886 1_555
O9 Sn3 2.093951 1_655
O9 Sn3 2.093951 1_545
O9 Sn2 2.171886 1_555
O10 Sn7 2.002223 1_555
O10 Sn4 2.002223 1_555
O11 Sn5 2.002223 1_555
O11 Sn6 2.002223 1_555
