# generated using pymatgen
data_Li9Mn2Co5O16
_symmetry_space_group_name_H-M   'P 1'
_cell_length_a   5.90378100
_cell_length_b   6.47457635
_cell_length_c   7.86117218
_cell_angle_alpha   87.73184615
_cell_angle_beta   103.79023923
_cell_angle_gamma   103.24723233
_symmetry_Int_Tables_number   1
_chemical_formula_structural   Li9Mn2Co5O16
_chemical_formula_sum   'Li9 Mn2 Co5 O16'
_cell_volume   284.02617355
_cell_formula_units_Z   1
loop_
 _symmetry_equiv_pos_site_id
 _symmetry_equiv_pos_as_xyz
  1  'x, y, z'
loop_
 _atom_site_type_symbol
 _atom_site_label
 _atom_site_symmetry_multiplicity
 _atom_site_fract_x
 _atom_site_fract_y
 _atom_site_fract_z
 _atom_site_occupancy
  Li  Li0  1  0.61697000  0.12615400  0.87872100  1
  Li  Li1  1  0.62977500  0.62433500  0.36295000  1
  Li  Li2  1  0.87749500  0.37874000  0.62754800  1
  Li  Li3  1  0.85829500  0.86374100  0.12269400  1
  Li  Li4  1  0.12250500  0.62126000  0.37245200  1
  Li  Li5  1  0.14170500  0.13625900  0.87730600  1
  Li  Li6  1  0.38303000  0.87384600  0.12127900  1
  Li  Li7  1  0.37022500  0.37566500  0.63705000  1
  Li  Li8  1  0.50000000  0.50000000  0.00000000  1
  Mn  Mn0  1  0.74876900  0.25016300  0.24589600  1
  Mn  Mn1  1  0.25123100  0.74983700  0.75410400  1
  Co  Co0  1  0.74457000  0.75072200  0.75539500  1
  Co  Co1  1  0.00000000  0.50000000  0.00000000  1
  Co  Co2  1  0.00000000  0.00000000  0.50000000  1
  Co  Co3  1  0.25543000  0.24927800  0.24460500  1
  Co  Co4  1  0.50000000  0.00000000  0.50000000  1
  O  O0  1  0.45670300  0.19056400  0.07415700  1
  O  O1  1  0.43232800  0.70436700  0.58348400  1
  O  O2  1  0.70772100  0.46222600  0.81172300  1
  O  O3  1  0.70573900  0.95058500  0.32037900  1
  O  O4  1  0.95582300  0.70983400  0.56607000  1
  O  O5  1  0.93543400  0.19356900  0.08326300  1
  O  O6  1  0.21485600  0.96098200  0.32016200  1
  O  O7  1  0.18392000  0.45763500  0.81292100  1
  O  O8  1  0.78514400  0.03901800  0.67983800  1
  O  O9  1  0.81608000  0.54236500  0.18707900  1
  O  O10  1  0.04417700  0.29016600  0.43393000  1
  O  O11  1  0.06456600  0.80643100  0.91673700  1
  O  O12  1  0.29227900  0.53777400  0.18827700  1
  O  O13  1  0.29426100  0.04941500  0.67962100  1
  O  O14  1  0.54329700  0.80943600  0.92584300  1
  O  O15  1  0.56767200  0.29563300  0.41651600  1
loop_
_geom_bond_atom_site_label_1
_geom_bond_atom_site_label_2
_geom_bond_distance
_geom_bond_site_symmetry_2
Li0 O14 2.034537 1_545
Li0 O0 2.086656 1_556
Li0 O13 2.128967 1_555
Li0 O5 2.132866 1_556
Li0 O2 2.192855 1_555
Li0 O8 2.194315 1_555
Li1 O3 2.087222 1_555
Li1 O12 2.101060 1_555
Li1 O9 2.110326 1_555
Li1 O15 2.118033 1_555
Li1 O4 2.162795 1_555
Li1 O1 2.438084 1_555
Li2 O7 2.008936 1_655
Li2 O2 2.096448 1_555
Li2 O15 2.135494 1_555
Li2 O4 2.147801 1_555
Li2 O10 2.157707 1_655
Li2 O8 2.188593 1_555
Li3 O14 2.085224 1_554
Li3 O9 2.094521 1_555
Li3 O5 2.105473 1_565
Li3 O3 2.123886 1_555
Li3 O6 2.269248 1_655
Li3 O11 2.331661 1_654
Li4 O9 2.008936 1_455
Li4 O12 2.096448 1_555
Li4 O1 2.135494 1_555
Li4 O10 2.147801 1_555
Li4 O4 2.157707 1_455
Li4 O6 2.188593 1_555
Li5 O0 2.085224 1_556
Li5 O7 2.094521 1_555
Li5 O11 2.105473 1_545
Li5 O13 2.123886 1_555
Li5 O8 2.269248 1_455
Li5 O5 2.331661 1_456
Li6 O0 2.034537 1_565
Li6 O14 2.086656 1_554
Li6 O3 2.128967 1_555
Li6 O11 2.132866 1_554
Li6 O12 2.192855 1_555
Li6 O6 2.194315 1_555
Li7 O13 2.087222 1_555
Li7 O2 2.101060 1_555
Li7 O7 2.110326 1_555
Li7 O1 2.118033 1_555
Li7 O10 2.162795 1_555
Li7 O15 2.438084 1_555
Li8 O0 2.040331 1_555
Li8 O14 2.040331 1_554
Li8 O7 2.051658 1_554
Li8 O9 2.051658 1_555
Li8 O12 2.187642 1_555
Li8 O2 2.187642 1_554
Mn0 O0 1.889781 1_555
Mn0 O9 1.903871 1_555
Mn0 O5 1.969034 1_555
Mn0 O15 1.971788 1_555
Mn0 O10 1.971791 1_655
Mn0 O3 1.981103 1_545
Mn1 O14 1.889781 1_555
Mn1 O7 1.903871 1_555
Mn1 O11 1.969034 1_555
Mn1 O1 1.971788 1_555
Mn1 O4 1.971791 1_455
Mn1 O13 1.981103 1_565
Co0 O2 1.877934 1_555
Co0 O8 1.915595 1_565
Co0 O11 1.972156 1_655
Co0 O1 1.976223 1_555
Co0 O14 2.087652 1_555
Co0 O4 2.215420 1_555
Co1 O2 1.961033 1_454
Co1 O12 1.961033 1_555
Co1 O11 2.044402 1_554
Co1 O5 2.044402 1_455
Co1 O9 2.084901 1_455
Co1 O7 2.084901 1_554
Co2 O10 1.905279 1_555
Co2 O4 1.905279 1_445
Co2 O13 1.930234 1_555
Co2 O3 1.930234 1_445
Co2 O6 2.168299 1_545
Co2 O8 2.168299 1_455
Co3 O12 1.877934 1_555
Co3 O6 1.915595 1_545
Co3 O5 1.972156 1_455
Co3 O15 1.976223 1_555
Co3 O0 2.087652 1_555
Co3 O10 2.215420 1_555
Co4 O6 1.896093 1_545
Co4 O8 1.896093 1_555
Co4 O15 1.982218 1_555
Co4 O1 1.982218 1_545
Co4 O3 2.145474 1_545
Co4 O13 2.145474 1_555
