# generated using pymatgen
data_SrTeO3
_symmetry_space_group_name_H-M   'P 1'
_cell_length_a   5.99250500
_cell_length_b   14.60495378
_cell_length_c   26.80127975
_cell_angle_alpha   83.29955334
_cell_angle_beta   83.59040345
_cell_angle_gamma   78.17669560
_symmetry_Int_Tables_number   1
_chemical_formula_structural   SrTeO3
_chemical_formula_sum   'Sr24 Te24 O72'
_cell_volume   2270.90379259
_cell_formula_units_Z   24
loop_
 _symmetry_equiv_pos_site_id
 _symmetry_equiv_pos_as_xyz
  1  'x, y, z'
loop_
 _atom_site_type_symbol
 _atom_site_label
 _atom_site_symmetry_multiplicity
 _atom_site_fract_x
 _atom_site_fract_y
 _atom_site_fract_z
 _atom_site_occupancy
  Sr  Sr0  1  0.72481600  0.56160800  0.55487300  1
  Sr  Sr1  1  0.84464600  0.93783000  0.94491200  1
  Sr  Sr2  1  0.04861700  0.32789000  0.07646500  1
  Sr  Sr3  1  0.86839600  0.34745400  0.36180300  1
  Sr  Sr4  1  0.08468400  0.54031400  0.79021900  1
  Sr  Sr5  1  0.57845700  0.15448600  0.13750600  1
  Sr  Sr6  1  0.42589700  0.84726400  0.86119900  1
  Sr  Sr7  1  0.66762400  0.44323600  0.69770000  1
  Sr  Sr8  1  0.41414900  0.96108500  0.70995000  1
  Sr  Sr9  1  0.95206600  0.67321000  0.92271700  1
  Sr  Sr10  1  0.12972100  0.65134400  0.63773400  1
  Sr  Sr11  1  0.78699600  0.75164700  0.25010800  1
  Sr  Sr12  1  0.50090700  0.49982400  0.99971100  1
  Sr  Sr13  1  0.33420000  0.55737900  0.30177900  1
  Sr  Sr14  1  0.45152800  0.17198000  0.42280300  1
  Sr  Sr15  1  0.19397600  0.94320400  0.19768800  1
  Sr  Sr16  1  0.54652600  0.82615200  0.57686800  1
  Sr  Sr17  1  0.27373300  0.43665300  0.44414600  1
  Sr  Sr18  1  0.00094700  0.99897700  0.49921800  1
  Sr  Sr19  1  0.91596200  0.46161000  0.20988900  1
  Sr  Sr20  1  0.21110500  0.25045000  0.75058200  1
  Sr  Sr21  1  0.58603900  0.03899300  0.28941700  1
  Sr  Sr22  1  0.80329600  0.05743400  0.80287000  1
  Sr  Sr23  1  0.15795900  0.06374900  0.05480200  1
  Te  Te0  1  0.25557600  0.40405800  0.61558300  1
  Te  Te1  1  0.56859800  0.68519300  0.70733100  1
  Te  Te2  1  0.86121700  0.29590500  0.49948500  1
  Te  Te3  1  0.27534500  0.09423600  0.88536500  1
  Te  Te4  1  0.65747300  0.20553800  0.99990900  1
  Te  Te5  1  0.14369900  0.84142000  0.32692100  1
  Te  Te6  1  0.13884600  0.70322500  0.50003900  1
  Te  Te7  1  0.59902400  0.88406000  0.42614400  1
  Te  Te8  1  0.96439600  0.81443700  0.79222300  1
  Te  Te9  1  0.40671400  0.11374100  0.57314400  1
  Te  Te10  1  0.72363800  0.90670500  0.11553200  1
  Te  Te11  1  0.46504500  0.41424500  0.13956700  1
  Te  Te12  1  0.03660900  0.18542600  0.20731500  1
  Te  Te13  1  0.34474400  0.79684500  0.99934700  1
  Te  Te14  1  0.90891900  0.61464500  0.07244000  1
  Te  Te15  1  0.74547400  0.59379400  0.38382700  1
  Te  Te16  1  0.01602000  0.08609000  0.36007900  1
  Te  Te17  1  0.43091700  0.31516100  0.29223100  1
  Te  Te18  1  0.53689700  0.58593700  0.86062200  1
  Te  Te19  1  0.09048100  0.38521400  0.92636000  1
  Te  Te20  1  0.68526500  0.34099800  0.82692700  1
  Te  Te21  1  0.31117200  0.66067700  0.17283200  1
  Te  Te22  1  0.98346600  0.91245500  0.63901600  1
  Te  Te23  1  0.85432900  0.15825300  0.67398000  1
  O  O0  1  0.18040800  0.89509100  0.78642800  1
  O  O1  1  0.91791400  0.69980000  0.55655700  1
  O  O2  1  0.25453600  0.66354800  0.84370500  1
  O  O3  1  0.28332600  0.89891900  0.44357300  1
  O  O4  1  0.56056900  0.67346900  0.63779100  1
  O  O5  1  0.26779700  0.33742900  0.17405600  1
  O  O6  1  0.85915200  0.60435800  0.71365700  1
  O  O7  1  0.39841300  0.69599400  0.53549000  1
  O  O8  1  0.61019600  0.00037700  0.38691900  1
  O  O9  1  0.77323800  0.07791400  0.99051600  1
  O  O10  1  0.08150800  0.29718100  0.44279700  1
  O  O11  1  0.76828700  0.83197500  0.65492200  1
  O  O12  1  0.53777600  0.99763200  0.88901600  1
  O  O13  1  0.31967400  0.36525800  0.68237000  1
  O  O14  1  0.99100300  0.49780700  0.11155200  1
  O  O15  1  0.83709600  0.21975800  0.81247200  1
  O  O16  1  0.40025500  0.99717500  0.61246500  1
  O  O17  1  0.87247800  0.28040600  0.68658500  1
  O  O18  1  0.96665200  0.48381300  0.62426600  1
  O  O19  1  0.08826500  0.87984600  0.57329400  1
  O  O20  1  0.44258200  0.32496200  0.36190300  1
  O  O21  1  0.46428200  0.00430900  0.11060200  1
  O  O22  1  0.77636300  0.16424100  0.32616300  1
  O  O23  1  0.07393200  0.01581500  0.87540900  1
  O  O24  1  0.70297100  0.90117200  0.48787500  1
  O  O25  1  0.81884900  0.10549200  0.21262700  1
  O  O26  1  0.99966000  0.50257500  0.88839300  1
  O  O27  1  0.09312600  0.59705200  0.01092600  1
  O  O28  1  0.82293100  0.20180400  0.05685100  1
  O  O29  1  0.38206900  0.59241600  0.72636700  1
  O  O30  1  0.91236200  0.11947300  0.42575200  1
  O  O31  1  0.36494100  0.13612600  0.81891800  1
  O  O32  1  0.73334800  0.66444000  0.82749800  1
  O  O33  1  0.72153800  0.09946700  0.55481000  1
  O  O34  1  0.62508400  0.60188400  0.05425400  1
  O  O35  1  0.37296600  0.39997700  0.94438500  1
  O  O36  1  0.87366600  0.82545200  0.86179100  1
  O  O37  1  0.23108000  0.92506000  0.00782900  1
  O  O38  1  0.03258900  0.51297500  0.37479600  1
  O  O39  1  0.14073600  0.39648600  0.28681600  1
  O  O40  1  0.57210400  0.49845600  0.38796400  1
  O  O41  1  0.42544500  0.50071500  0.61044200  1
  O  O42  1  0.63253900  0.86855000  0.18252800  1
  O  O43  1  0.11520400  0.59562300  0.21821800  1
  O  O44  1  0.29394300  0.09167300  0.22684000  1
  O  O45  1  0.45839700  0.38039400  0.07407000  1
  O  O46  1  0.56656200  0.63011500  0.21167000  1
  O  O47  1  0.18121000  0.79983600  0.94218000  1
  O  O48  1  0.90630800  0.39958100  0.98808200  1
  O  O49  1  0.36838700  0.19805100  0.03464500  1
  O  O50  1  0.07098900  0.09495300  0.71960000  1
  O  O51  1  0.43239400  0.37197600  0.78726900  1
  O  O52  1  0.40792700  0.87163400  0.28799100  1
  O  O53  1  0.59991200  0.30401200  0.46450200  1
  O  O54  1  0.61744000  0.40795500  0.27294500  1
  O  O55  1  0.74641000  0.33483900  0.15530200  1
  O  O56  1  0.84529100  0.42373400  0.50775900  1
  O  O57  1  0.68354500  0.63438400  0.31709200  1
  O  O58  1  0.92945900  0.90448500  0.28064700  1
  O  O59  1  0.16307900  0.57550700  0.49066500  1
  O  O60  1  0.53648100  0.62035600  0.92621000  1
  O  O61  1  0.22610000  0.83595700  0.67270700  1
  O  O62  1  0.12839500  0.71933700  0.31354600  1
  O  O63  1  0.88400300  0.40548400  0.78191900  1
  O  O64  1  0.15889600  0.78142300  0.18803200  1
  O  O65  1  0.92910700  0.98445000  0.12380400  1
  O  O66  1  0.59179000  0.12853800  0.71389400  1
  O  O67  1  0.12812700  0.17537200  0.13767800  1
  O  O68  1  0.70328500  0.90677800  0.77313500  1
  O  O69  1  0.23701400  0.16420000  0.34440400  1
  O  O70  1  0.29791800  0.09714100  0.51186100  1
  O  O71  1  0.63625000  0.80289800  0.96555200  1
loop_
_geom_bond_atom_site_label_1
_geom_bond_atom_site_label_2
_geom_bond_distance
_geom_bond_site_symmetry_2
O0 Te8 1.903827 1_455
O0 Sr8 2.558014 1_555
O0 Sr6 2.564830 1_555
O0 Sr22 2.957798 1_465
O1 Te6 1.900393 1_655
O1 Sr0 2.530702 1_555
O1 Sr10 2.595081 1_655
O1 Sr16 2.633571 1_555
O2 Te18 1.902325 1_555
O2 Sr9 2.626314 1_455
O2 Sr4 2.829985 1_555
O2 Sr6 3.162885 1_555
O3 Te7 1.871469 1_555
O3 Sr18 2.480899 1_555
O4 Te1 1.898185 1_555
O4 Sr16 2.598049 1_555
O4 Sr10 2.667075 1_555
O4 Sr0 2.876873 1_555
O5 Te11 1.888833 1_555
O5 Sr19 2.654110 1_455
O5 Sr2 3.084273 1_555
O5 Sr5 3.119211 1_555
O6 Te1 1.905513 1_555
O6 Sr4 2.562276 1_655
O6 Sr10 2.575620 1_655
O6 Sr7 2.913562 1_555
O7 Te6 1.890129 1_555
O7 Sr0 2.522628 1_555
O7 Sr16 2.652235 1_555
O7 Sr10 3.091121 1_555
O8 Te7 1.899933 1_545
O8 Sr21 2.621988 1_555
O8 Sr14 2.737168 1_555
O9 Te4 1.886673 1_555
O9 Sr1 2.443519 1_545
O9 Sr23 2.989089 1_656
O10 Te2 1.899205 1_455
O10 Sr17 2.542738 1_555
O10 Sr3 2.597098 1_455
O10 Sr14 2.617108 1_555
O11 Te22 1.899330 1_555
O11 Sr16 2.618775 1_555
O11 Sr8 2.923133 1_555
O11 Sr10 3.095524 1_655
O12 Te3 1.888448 1_565
O12 Sr1 2.457702 1_555
O12 Sr6 2.631588 1_555
O12 Sr22 2.811386 1_565
O13 Te0 1.870905 1_555
O13 Sr20 2.458286 1_555
O13 Sr7 2.662141 1_555
O14 Te14 1.899046 1_555
O14 Sr19 2.633538 1_555
O14 Sr2 2.698700 1_655
O15 Te20 1.880024 1_555
O15 Sr22 2.465445 1_555
O15 Sr20 2.717292 1_655
O16 Te9 1.899904 1_565
O16 Sr8 2.611570 1_555
O16 Sr16 2.718386 1_555
O17 Te23 1.880721 1_555
O17 Sr7 2.477608 1_555
O17 Sr20 2.736650 1_655
O18 Te0 1.885600 1_655
O18 Sr0 2.506786 1_555
O18 Sr7 2.609846 1_555
O18 Sr10 2.887315 1_655
O19 Te22 1.884164 1_455
O19 Sr18 2.509060 1_555
O19 Sr16 2.706307 1_555
O20 Te17 1.899421 1_555
O20 Sr14 2.603548 1_555
O20 Sr3 2.638335 1_555
O20 Sr17 2.864970 1_555
O21 Te10 1.886541 1_545
O21 Sr23 2.452898 1_555
O21 Sr5 2.625434 1_555
O21 Sr15 2.851325 1_545
O22 Te16 1.889229 1_655
O22 Sr21 2.672625 1_555
O22 Sr14 3.059885 1_555
O22 Sr3 3.113738 1_555
O23 Te3 1.884005 1_555
O23 Sr1 2.495951 1_445
O23 Sr22 2.608367 1_455
O23 Sr6 2.926640 1_545
O24 Te7 1.891592 1_555
O24 Sr18 2.566918 1_655
O24 Sr16 2.660838 1_555
O25 Te12 1.905260 1_655
O25 Sr5 2.555328 1_555
O25 Sr21 2.563786 1_555
O25 Sr15 2.944245 1_645
O26 Te19 1.898414 1_655
O26 Sr4 2.638917 1_655
O26 Sr9 2.706177 1_555
O27 Te14 1.891795 1_455
O27 Sr12 2.567441 1_554
O27 Sr9 2.643485 1_454
O28 Te4 1.900359 1_554
O28 Sr23 2.538013 1_655
O28 Sr5 2.579888 1_555
O28 Sr2 2.627096 1_655
O29 Te1 1.917750 1_555
O29 Sr4 2.500873 1_555
O29 Sr7 2.614342 1_555
O29 Sr10 2.908945 1_555
O30 Te16 1.885107 1_655
O30 Sr18 2.509514 1_645
O30 Sr14 2.717950 1_555
O31 Te3 1.871075 1_555
O31 Sr20 2.454522 1_555
O31 Sr22 2.651814 1_555
O32 Te18 1.889652 1_555
O32 Sr4 2.665761 1_655
O32 Sr9 3.023043 1_555
O32 Sr6 3.084673 1_555
O33 Te9 1.870794 1_555
O33 Sr18 2.474607 1_645
O34 Te14 1.871230 1_555
O34 Sr12 2.473534 1_554
O35 Te19 1.871330 1_555
O35 Sr12 2.475808 1_555
O36 Te8 1.898870 1_555
O36 Sr9 2.593631 1_555
O36 Sr6 2.638115 1_555
O36 Sr1 2.887329 1_555
O37 Te13 1.887921 1_554
O37 Sr23 2.447030 1_565
O37 Sr1 2.976948 1_454
O38 Te15 1.885086 1_455
O38 Sr17 2.498295 1_555
O38 Sr13 2.628954 1_555
O38 Sr3 2.860242 1_455
O39 Te17 1.904040 1_555
O39 Sr19 2.570441 1_455
O39 Sr3 2.574117 1_455
O39 Sr13 2.909755 1_555
O40 Te15 1.887194 1_555
O40 Sr17 2.453980 1_555
O40 Sr3 2.643120 1_555
O40 Sr13 2.806624 1_555
O41 Te0 1.886839 1_555
O41 Sr0 2.444494 1_555
O41 Sr10 2.646446 1_555
O41 Sr7 2.842612 1_555
O42 Te10 1.872154 1_555
O42 Sr11 2.461183 1_555
O42 Sr15 2.636566 1_555
O43 Te21 1.905259 1_555
O43 Sr19 2.534818 1_455
O43 Sr13 2.667145 1_555
O43 Sr11 2.834419 1_455
O44 Te12 1.916872 1_555
O44 Sr21 2.504212 1_555
O44 Sr15 2.589083 1_545
O44 Sr5 2.949225 1_555
O45 Te11 1.885115 1_555
O45 Sr12 2.517266 1_554
O45 Sr2 2.710553 1_555
O46 Te21 1.895323 1_555
O46 Sr11 2.765513 1_555
O46 Sr13 2.855945 1_555
O46 Sr19 2.887264 1_555
O47 Te13 1.900479 1_555
O47 Sr1 2.543753 1_455
O47 Sr6 2.587521 1_555
O47 Sr9 2.646407 1_455
O48 Te19 1.891305 1_655
O48 Sr12 2.573388 1_555
O48 Sr2 2.634577 1_656
O49 Te4 1.890365 1_554
O49 Sr23 2.518636 1_555
O49 Sr2 2.655464 1_555
O49 Sr5 3.102708 1_555
O50 Te23 1.906326 1_455
O50 Sr8 2.543594 1_545
O50 Sr22 2.670160 1_455
O50 Sr20 2.815882 1_555
O51 Te20 1.896600 1_555
O51 Sr20 2.745602 1_555
O51 Sr7 2.845265 1_555
O51 Sr4 2.881274 1_555
O52 Te5 1.897496 1_555
O52 Sr11 2.744236 1_555
O52 Sr15 2.854332 1_555
O52 Sr21 2.866202 1_565
O53 Te2 1.889698 1_555
O53 Sr17 2.512132 1_555
O53 Sr14 2.680579 1_555
O53 Sr3 3.096642 1_555
O54 Te17 1.918728 1_555
O54 Sr19 2.502135 1_555
O54 Sr13 2.612173 1_555
O54 Sr3 2.911695 1_555
O55 Te11 1.899738 1_555
O55 Sr2 2.621985 1_655
O55 Sr19 2.887141 1_555
O55 Sr5 3.108919 1_555
O56 Te2 1.887487 1_555
O56 Sr0 2.442233 1_555
O56 Sr17 2.946218 1_655
O57 Te15 1.870508 1_555
O57 Sr11 2.451416 1_555
O57 Sr13 2.660859 1_555
O58 Te5 1.907629 1_655
O58 Sr21 2.548067 1_565
O58 Sr15 2.657622 1_655
O58 Sr11 2.782928 1_555
O59 Te6 1.885158 1_555
O59 Sr17 2.441539 1_555
O59 Sr0 3.004639 1_455
O60 Te18 1.883461 1_555
O60 Sr12 2.505136 1_555
O60 Sr9 2.743278 1_555
O61 Te22 1.889361 1_455
O61 Sr8 2.669573 1_555
O61 Sr16 3.029390 1_555
O61 Sr10 3.135401 1_555
O62 Te5 1.881371 1_555
O62 Sr13 2.471300 1_555
O62 Sr11 2.737270 1_455
O63 Te20 1.906362 1_555
O63 Sr4 2.550638 1_655
O63 Sr7 2.673992 1_555
O63 Sr20 2.816370 1_655
O64 Te21 1.879827 1_555
O64 Sr15 2.460160 1_555
O64 Sr11 2.706338 1_455
O65 Te10 1.883365 1_555
O65 Sr23 2.495380 1_665
O65 Sr15 2.614360 1_655
O65 Sr5 2.935894 1_565
O66 Te23 1.898305 1_555
O66 Sr20 2.753992 1_555
O66 Sr22 2.815862 1_555
O66 Sr8 2.877123 1_545
O67 Te12 1.899488 1_555
O67 Sr2 2.601384 1_555
O67 Sr5 2.652501 1_555
O67 Sr23 2.874064 1_555
O68 Te8 1.918809 1_555
O68 Sr8 2.505477 1_555
O68 Sr22 2.625249 1_565
O68 Sr6 2.885592 1_555
O69 Te16 1.901244 1_555
O69 Sr14 2.607490 1_555
O69 Sr21 2.874662 1_555
O69 Sr3 3.146214 1_455
O70 Te9 1.891638 1_555
O70 Sr18 2.575026 1_545
O70 Sr14 2.655581 1_555
O71 Te13 1.889715 1_555
O71 Sr1 2.519716 1_555
O71 Sr9 2.653415 1_555
O71 Sr6 3.140129 1_555
