# generated using pymatgen
data_K5Zn4Sn5H4S17N
_symmetry_space_group_name_H-M   'P 1'
_cell_length_a   11.08670981
_cell_length_b   11.08670981
_cell_length_c   11.08670981
_cell_angle_alpha   101.23772816
_cell_angle_beta   101.23772816
_cell_angle_gamma   127.60682253
_symmetry_Int_Tables_number   1
_chemical_formula_structural   K5Zn4Sn5H4S17N
_chemical_formula_sum   'K5 Zn4 Sn5 H4 S17 N1'
_cell_volume   968.68467700
_cell_formula_units_Z   1
loop_
 _symmetry_equiv_pos_site_id
 _symmetry_equiv_pos_as_xyz
  1  'x, y, z'
loop_
 _atom_site_type_symbol
 _atom_site_label
 _atom_site_symmetry_multiplicity
 _atom_site_fract_x
 _atom_site_fract_y
 _atom_site_fract_z
 _atom_site_occupancy
  K  K0  1  0.26004100  0.73995900  0.00000000  1
  K  K1  1  0.73995900  0.26004100  0.00000000  1
  K  K2  1  0.26004100  0.26004100  0.52008300  1
  K  K3  1  0.73995900  0.73995900  0.47991700  1
  K  K4  1  0.00000000  0.00000000  0.00000000  1
  Zn  Zn0  1  0.49832400  0.36208300  0.13624100  1
  Zn  Zn1  1  0.22584300  0.36208300  0.86375900  1
  Zn  Zn2  1  0.63791700  0.77415700  0.13624100  1
  Zn  Zn3  1  0.63791700  0.50167600  0.86375900  1
  Sn  Sn0  1  0.25000000  0.75000000  0.50000000  1
  Sn  Sn1  1  0.94383900  0.72102000  0.22281900  1
  Sn  Sn2  1  0.49820100  0.72102000  0.77718100  1
  Sn  Sn3  1  0.27898000  0.50179900  0.22281900  1
  Sn  Sn4  1  0.27898000  0.05616100  0.77718100  1
  H  H0  1  0.62941200  0.18854300  0.44086900  1
  H  H1  1  0.74767300  0.18854300  0.55913100  1
  H  H2  1  0.81145700  0.25232700  0.44086900  1
  H  H3  1  0.81145700  0.37058800  0.55913100  1
  S  S0  1  0.24644600  0.88995800  0.35648800  1
  S  S1  1  0.53347000  0.88995800  0.64351200  1
  S  S2  1  0.11004200  0.46653000  0.35648800  1
  S  S3  1  0.11004200  0.75355400  0.64351200  1
  S  S4  1  0.76820700  0.48954500  0.27866200  1
  S  S5  1  0.21088400  0.48954500  0.72133800  1
  S  S6  1  0.51045500  0.78911600  0.27866200  1
  S  S7  1  0.51045500  0.23179300  0.72133800  1
  S  S8  1  0.50000000  0.50000000  0.00000000  1
  S  S9  1  0.91467100  0.63774800  0.99442200  1
  S  S10  1  0.64332600  0.92024900  0.00557800  1
  S  S11  1  0.36225200  0.35667400  0.27692300  1
  S  S12  1  0.91467100  0.92024900  0.27692300  1
  S  S13  1  0.07975100  0.08532900  0.72307700  1
  S  S14  1  0.64332600  0.63774800  0.72307700  1
  S  S15  1  0.36225200  0.08532900  0.00557800  1
  S  S16  1  0.07975100  0.35667400  0.99442200  1
  N  N0  1  0.75000000  0.25000000  0.50000000  1
loop_
_geom_bond_atom_site_label_1
_geom_bond_atom_site_label_2
_geom_bond_distance
_geom_bond_site_symmetry_2
K0 S9 3.245622 1_454
K0 S15 3.245622 1_565
K0 S16 3.396944 1_554
K0 S10 3.396944 1_555
K0 S6 3.421030 1_555
K0 S5 3.421030 1_554
K1 S10 3.245622 1_545
K1 S16 3.245622 1_654
K1 S15 3.396944 1_555
K1 S9 3.396944 1_554
K1 S4 3.421024 1_555
K1 S7 3.421024 1_554
K2 S12 3.245626 1_445
K2 S11 3.245632 1_555
K2 S13 3.396934 1_555
K2 S14 3.396942 1_555
K2 S5 3.421010 1_555
K2 S7 3.421018 1_555
K3 S13 3.245626 1_665
K3 S14 3.245632 1_555
K3 S12 3.396934 1_555
K3 S11 3.396942 1_555
K3 S6 3.421010 1_555
K3 S4 3.421018 1_555
K4 S15 3.503117 1_555
K4 S11 3.503117 1_555
K4 S9 3.503117 1_444
K4 S12 3.503117 1_445
K4 S14 3.503117 1_444
K4 S13 3.503117 1_554
K4 S10 3.503117 1_445
K4 S16 3.503117 1_554
H0 N0 1.026607 1_555
H1 N0 1.026604 1_555
H2 N0 1.026604 1_555
H3 N0 1.026607 1_555
S0 Sn0 2.439919 1_555
S0 Sn1 2.504182 1_455
S1 Sn0 2.439919 1_555
S1 Sn2 2.504182 1_555
S2 Sn0 2.439919 1_555
S2 Sn3 2.504182 1_555
S3 Sn0 2.439919 1_555
S3 Sn4 2.504182 1_565
S4 Zn0 2.360355 1_555
S4 Sn1 2.398132 1_555
S5 Zn1 2.360355 1_555
S5 Sn2 2.398125 1_555
S6 Zn2 2.360355 1_555
S6 Sn3 2.398125 1_555
S7 Zn3 2.360355 1_555
S7 Sn4 2.398132 1_555
S8 Zn2 2.344404 1_555
S8 Zn1 2.344404 1_554
S8 Zn0 2.344413 1_555
S8 Zn3 2.344413 1_554
S9 Zn3 2.356955 1_555
S9 Sn1 2.402937 1_556
S10 Zn2 2.356964 1_555
S10 Sn2 2.402937 1_554
S11 Zn0 2.356955 1_555
S11 Sn3 2.402937 1_555
S12 Zn2 2.356952 1_555
S12 Sn1 2.402937 1_555
S13 Zn1 2.356952 1_555
S13 Sn4 2.402937 1_555
S14 Zn3 2.356955 1_555
S14 Sn2 2.402937 1_555
S15 Zn0 2.356955 1_555
S15 Sn4 2.402937 1_554
S16 Zn1 2.356964 1_555
S16 Sn3 2.402937 1_556
