# generated using pymatgen
data_V2Ag6As2O13
_symmetry_space_group_name_H-M   'P 1'
_cell_length_a   9.99941786
_cell_length_b   9.99941786
_cell_length_c   13.20577362
_cell_angle_alpha   67.68493369
_cell_angle_beta   67.68493369
_cell_angle_gamma   31.83763508
_symmetry_Int_Tables_number   1
_chemical_formula_structural   V2Ag6As2O13
_chemical_formula_sum   'V4 Ag12 As4 O26'
_cell_volume   639.94743897
_cell_formula_units_Z   2
loop_
 _symmetry_equiv_pos_site_id
 _symmetry_equiv_pos_as_xyz
  1  'x, y, z'
loop_
 _atom_site_type_symbol
 _atom_site_label
 _atom_site_symmetry_multiplicity
 _atom_site_fract_x
 _atom_site_fract_y
 _atom_site_fract_z
 _atom_site_occupancy
  V  V0  1  0.38225100  0.43500300  0.77473200  1
  V  V1  1  0.56499700  0.61774900  0.72526800  1
  V  V2  1  0.61774900  0.56499700  0.22526800  1
  V  V3  1  0.43500300  0.38225100  0.27473200  1
  Ag  Ag0  1  0.22323200  0.18775300  0.29421700  1
  Ag  Ag1  1  0.81224700  0.77676800  0.20578300  1
  Ag  Ag2  1  0.77676800  0.81224700  0.70578300  1
  Ag  Ag3  1  0.18775300  0.22323200  0.79421700  1
  Ag  Ag4  1  0.19441200  0.20163700  0.54209600  1
  Ag  Ag5  1  0.79836300  0.80558800  0.95790400  1
  Ag  Ag6  1  0.80558800  0.79836300  0.45790400  1
  Ag  Ag7  1  0.20163700  0.19441200  0.04209600  1
  Ag  Ag8  1  0.98173700  0.02648600  0.61080500  1
  Ag  Ag9  1  0.97351400  0.01826300  0.88919500  1
  Ag  Ag10  1  0.01826300  0.97351400  0.38919500  1
  Ag  Ag11  1  0.02648600  0.98173700  0.11080500  1
  As  As0  1  0.37803300  0.37763400  0.04445900  1
  As  As1  1  0.62236600  0.62196700  0.45554100  1
  As  As2  1  0.62196700  0.62236600  0.95554100  1
  As  As3  1  0.37763400  0.37803300  0.54445900  1
  O  O0  1  0.36432000  0.63568000  0.25000000  1
  O  O1  1  0.63568000  0.36432000  0.75000000  1
  O  O2  1  0.32982700  0.52600400  0.12115500  1
  O  O3  1  0.47399600  0.67017300  0.37884500  1
  O  O4  1  0.67017300  0.47399600  0.87884500  1
  O  O5  1  0.52600400  0.32982700  0.62115500  1
  O  O6  1  0.18078100  0.39077500  0.11091900  1
  O  O7  1  0.60922500  0.81921900  0.38908100  1
  O  O8  1  0.81921900  0.60922500  0.88908100  1
  O  O9  1  0.39077500  0.18078100  0.61091900  1
  O  O10  1  0.26378200  0.56608300  0.91904200  1
  O  O11  1  0.43391700  0.73621800  0.58095800  1
  O  O12  1  0.73621800  0.43391700  0.08095800  1
  O  O13  1  0.56608300  0.26378200  0.41904200  1
  O  O14  1  0.07529300  0.72374100  0.74403600  1
  O  O15  1  0.27625900  0.92470700  0.75596400  1
  O  O16  1  0.92470700  0.27625900  0.25596400  1
  O  O17  1  0.72374100  0.07529300  0.24403600  1
  O  O18  1  0.69535600  0.06888100  0.02888300  1
  O  O19  1  0.93111900  0.30464400  0.47111700  1
  O  O20  1  0.30464400  0.93111900  0.97111700  1
  O  O21  1  0.06888100  0.69535600  0.52888300  1
  O  O22  1  0.43679700  0.21153100  0.83748800  1
  O  O23  1  0.78846900  0.56320300  0.66251200  1
  O  O24  1  0.56320300  0.78846900  0.16251200  1
  O  O25  1  0.21153100  0.43679700  0.33748800  1
loop_
_geom_bond_atom_site_label_1
_geom_bond_atom_site_label_2
_geom_bond_distance
_geom_bond_site_symmetry_2
Ag0 O6 2.396902 1_555
Ag0 O7 2.458842 1_545
Ag0 O16 2.503206 1_455
Ag0 O19 2.538959 1_455
Ag0 O25 2.660186 1_555
Ag1 O7 2.396902 1_555
Ag1 O6 2.458842 1_655
Ag1 O17 2.503206 1_565
Ag1 O18 2.538959 1_565
Ag1 O24 2.660186 1_555
Ag2 O8 2.396902 1_555
Ag2 O9 2.458842 1_565
Ag2 O14 2.503206 1_655
Ag2 O21 2.538959 1_655
Ag2 O23 2.660186 1_555
Ag3 O9 2.396902 1_555
Ag3 O8 2.458842 1_455
Ag3 O15 2.503206 1_545
Ag3 O20 2.538959 1_545
Ag3 O22 2.660186 1_555
Ag4 O9 2.289195 1_555
Ag4 O19 2.324718 1_455
Ag4 O23 2.570175 1_455
Ag5 O8 2.289195 1_555
Ag5 O18 2.324718 1_566
Ag5 O22 2.570175 1_565
Ag6 O7 2.289195 1_555
Ag6 O21 2.324718 1_655
Ag6 O25 2.570175 1_655
Ag7 O6 2.289195 1_555
Ag7 O20 2.324718 1_544
Ag7 O24 2.570175 1_545
Ag8 O14 2.351258 1_645
Ag8 O19 2.411643 1_555
Ag8 O11 2.498208 1_645
Ag8 O5 2.518315 1_555
Ag8 O1 2.605450 1_555
Ag9 O15 2.351258 1_645
Ag9 O18 2.411643 1_556
Ag9 O10 2.498208 1_645
Ag9 O4 2.518315 1_555
Ag9 O1 2.605450 1_555
Ag10 O16 2.351258 1_465
Ag10 O21 2.411643 1_555
Ag10 O13 2.498208 1_465
Ag10 O3 2.518315 1_555
Ag10 O0 2.605450 1_555
Ag11 O17 2.351258 1_465
Ag11 O20 2.411643 1_554
Ag11 O12 2.498208 1_465
Ag11 O2 2.518315 1_555
Ag11 O0 2.605450 1_555
As0 O18 1.727439 1_555
As0 O10 1.734414 1_554
As0 O6 1.735093 1_555
As0 O2 1.736244 1_555
As1 O19 1.727439 1_555
As1 O11 1.734414 1_555
As1 O7 1.735093 1_555
As1 O3 1.736244 1_555
As2 O20 1.727439 1_555
As2 O12 1.734414 1_556
As2 O8 1.735093 1_555
As2 O4 1.736244 1_555
As3 O21 1.727439 1_555
As3 O13 1.734414 1_555
As3 O9 1.735093 1_555
As3 O5 1.736244 1_555
O0 V2 1.879261 1_555
O0 V3 1.879261 1_555
O1 V1 1.879261 1_555
O1 V0 1.879261 1_555
O2 V3 2.030467 1_555
O3 V2 2.030467 1_555
O4 V1 2.030467 1_555
O5 V0 2.030467 1_555
O10 V0 2.073019 1_555
O11 V1 2.073019 1_555
O12 V2 2.073019 1_555
O13 V3 2.073019 1_555
O14 V0 1.708871 1_555
O15 V1 1.708871 1_555
O16 V2 1.708871 1_555
O17 V3 1.708871 1_555
O22 V0 1.686346 1_555
O23 V1 1.686346 1_555
O24 V2 1.686346 1_555
O25 V3 1.686346 1_555
