# generated using pymatgen
data_ZrInN2
_symmetry_space_group_name_H-M   'P 1'
_cell_length_a   3.91367000
_cell_length_b   3.91367000
_cell_length_c   8.33079400
_cell_angle_alpha   90.00000000
_cell_angle_beta   90.00000000
_cell_angle_gamma   90.00000000
_symmetry_Int_Tables_number   1
_chemical_formula_structural   ZrInN2
_chemical_formula_sum   'Zr2 In2 N4'
_cell_volume   127.60121275
_cell_formula_units_Z   2
loop_
 _symmetry_equiv_pos_site_id
 _symmetry_equiv_pos_as_xyz
  1  'x, y, z'
loop_
 _atom_site_type_symbol
 _atom_site_label
 _atom_site_symmetry_multiplicity
 _atom_site_fract_x
 _atom_site_fract_y
 _atom_site_fract_z
 _atom_site_occupancy
  Zr  Zr0  1  0.75000000  0.75000000  0.60758900  1
  Zr  Zr1  1  0.25000000  0.25000000  0.39241100  1
  In  In0  1  0.75000000  0.75000000  0.12627200  1
  In  In1  1  0.25000000  0.25000000  0.87372800  1
  N  N0  1  0.75000000  0.25000000  0.50000000  1
  N  N1  1  0.25000000  0.75000000  0.50000000  1
  N  N2  1  0.75000000  0.75000000  0.86125400  1
  N  N3  1  0.25000000  0.25000000  0.13874600  1
loop_
_geom_bond_atom_site_label_1
_geom_bond_atom_site_label_2
_geom_bond_distance
_geom_bond_site_symmetry_2
In0 N2 2.207810 1_554
In0 N3 2.769333 1_565
In0 N3 2.769333 1_655
In0 N3 2.769333 1_555
In0 N3 2.769333 1_665
In1 N3 2.207810 1_556
In1 N2 2.769333 1_455
In1 N2 2.769333 1_445
In1 N2 2.769333 1_545
In1 N2 2.769333 1_555
N0 Zr0 2.152338 1_545
N0 Zr1 2.152338 1_655
N0 Zr0 2.152338 1_555
N0 Zr1 2.152338 1_555
N1 Zr1 2.152338 1_555
N1 Zr0 2.152338 1_555
N1 Zr0 2.152338 1_455
N1 Zr1 2.152338 1_565
N2 Zr0 2.113231 1_555
N3 Zr1 2.113231 1_555
