# generated using pymatgen
data_Lu3Sb4Au3
_symmetry_space_group_name_H-M   'P 1'
_cell_length_a   8.46423026
_cell_length_b   8.46423026
_cell_length_c   8.46423026
_cell_angle_alpha   109.47122063
_cell_angle_beta   109.47122063
_cell_angle_gamma   109.47122063
_symmetry_Int_Tables_number   1
_chemical_formula_structural   Lu3Sb4Au3
_chemical_formula_sum   'Lu6 Sb8 Au6'
_cell_volume   466.81039407
_cell_formula_units_Z   2
loop_
 _symmetry_equiv_pos_site_id
 _symmetry_equiv_pos_as_xyz
  1  'x, y, z'
loop_
 _atom_site_type_symbol
 _atom_site_label
 _atom_site_symmetry_multiplicity
 _atom_site_fract_x
 _atom_site_fract_y
 _atom_site_fract_z
 _atom_site_occupancy
  Lu  Lu0  1  0.87500000  0.25000000  0.12500000  1
  Lu  Lu1  1  0.62500000  0.75000000  0.37500000  1
  Lu  Lu2  1  0.25000000  0.12500000  0.87500000  1
  Lu  Lu3  1  0.75000000  0.37500000  0.62500000  1
  Lu  Lu4  1  0.12500000  0.87500000  0.25000000  1
  Lu  Lu5  1  0.37500000  0.62500000  0.75000000  1
  Sb  Sb0  1  0.67849755  0.50000000  0.00000000  1
  Sb  Sb1  1  0.50000000  -0.00000000  0.67849755  1
  Sb  Sb2  1  -0.00000000  0.67849755  0.50000000  1
  Sb  Sb3  1  0.82150245  0.82150245  0.82150245  1
  Sb  Sb4  1  0.50000000  0.00000000  0.17849755  1
  Sb  Sb5  1  0.17849755  0.50000000  0.00000000  1
  Sb  Sb6  1  -0.00000000  0.17849755  0.50000000  1
  Sb  Sb7  1  0.32150245  0.32150245  0.32150245  1
  Au  Au0  1  0.37500000  0.25000000  0.62500000  1
  Au  Au1  1  0.12500000  0.75000000  0.87500000  1
  Au  Au2  1  0.25000000  0.62500000  0.37500000  1
  Au  Au3  1  0.75000000  0.87500000  0.12500000  1
  Au  Au4  1  0.62500000  0.37500000  0.25000000  1
  Au  Au5  1  0.87500000  0.12500000  0.75000000  1
loop_
_geom_bond_atom_site_label_1
_geom_bond_atom_site_label_2
_geom_bond_distance
_geom_bond_site_symmetry_2
Lu0 Sb0 3.321029 1_555
Lu0 Sb6 3.321029 1_655
Lu0 Sb1 3.321029 1_554
Lu0 Sb7 3.321029 1_655
Lu0 Sb5 3.446279 1_655
Lu0 Sb4 3.446279 1_555
Lu0 Sb2 3.446279 1_655
Lu0 Sb3 3.446279 1_544
Lu1 Sb3 3.321029 1_555
Lu1 Sb2 3.321029 1_655
Lu1 Sb4 3.321029 1_565
Lu1 Sb5 3.321029 1_555
Lu1 Sb6 3.446279 1_665
Lu1 Sb0 3.446279 1_555
Lu1 Sb7 3.446279 1_555
Lu1 Sb1 3.446279 1_565
Lu2 Sb2 3.321029 1_545
Lu2 Sb1 3.321029 1_555
Lu2 Sb5 3.321029 1_556
Lu2 Sb7 3.321029 1_556
Lu2 Sb4 3.446279 1_556
Lu2 Sb3 3.446279 1_445
Lu2 Sb6 3.446279 1_555
Lu2 Sb0 3.446279 1_556
Lu3 Sb3 3.321029 1_555
Lu3 Sb0 3.321029 1_556
Lu3 Sb6 3.321029 1_655
Lu3 Sb4 3.321029 1_555
Lu3 Sb5 3.446279 1_656
Lu3 Sb1 3.446279 1_555
Lu3 Sb2 3.446279 1_655
Lu3 Sb7 3.446279 1_555
Lu4 Sb0 3.321029 1_455
Lu4 Sb4 3.321029 1_565
Lu4 Sb2 3.321029 1_555
Lu4 Sb7 3.321029 1_565
Lu4 Sb6 3.446279 1_565
Lu4 Sb3 3.446279 1_454
Lu4 Sb1 3.446279 1_565
Lu4 Sb5 3.446279 1_555
Lu5 Sb3 3.321029 1_555
Lu5 Sb5 3.321029 1_556
Lu5 Sb6 3.321029 1_555
Lu5 Sb1 3.321029 1_565
Lu5 Sb4 3.446279 1_566
Lu5 Sb7 3.446279 1_555
Lu5 Sb2 3.446279 1_555
Lu5 Sb0 3.446279 1_556
Au0 Sb7 2.759371 1_555
Au0 Sb6 2.759371 1_555
Au0 Sb0 2.759371 1_556
Au0 Sb1 2.759371 1_555
Au0 Lu3 2.992557 1_555
Au0 Lu4 2.992557 1_545
Au0 Lu5 2.992557 1_555
Au0 Lu2 2.992557 1_555
Au1 Sb4 2.759371 1_566
Au1 Sb3 2.759371 1_455
Au1 Sb2 2.759371 1_555
Au1 Sb5 2.759371 1_556
Au1 Lu4 2.992557 1_556
Au1 Lu5 2.992557 1_555
Au1 Lu2 2.992557 1_565
Au1 Lu3 2.992557 1_455
Au2 Sb1 2.759371 1_565
Au2 Sb7 2.759371 1_555
Au2 Sb2 2.759371 1_555
Au2 Sb5 2.759371 1_555
Au2 Lu4 2.992557 1_555
Au2 Lu1 2.992557 1_555
Au2 Lu0 2.992557 1_455
Au2 Lu5 2.992557 1_555
Au3 Sb3 2.759371 1_554
Au3 Sb0 2.759371 1_555
Au3 Sb6 2.759371 1_665
Au3 Sb4 2.759371 1_565
Au3 Lu5 2.992557 1_554
Au3 Lu4 2.992557 1_655
Au3 Lu0 2.992557 1_565
Au3 Lu1 2.992557 1_555
Au4 Sb0 2.759371 1_555
Au4 Sb2 2.759371 1_655
Au4 Sb7 2.759371 1_555
Au4 Sb4 2.759371 1_555
Au4 Lu0 2.992557 1_555
Au4 Lu3 2.992557 1_555
Au4 Lu1 2.992557 1_555
Au4 Lu2 2.992557 1_554
Au5 Sb5 2.759371 1_656
Au5 Sb6 2.759371 1_655
Au5 Sb3 2.759371 1_545
Au5 Sb1 2.759371 1_555
Au5 Lu2 2.992557 1_655
Au5 Lu3 2.992557 1_555
Au5 Lu1 2.992557 1_545
Au5 Lu0 2.992557 1_556
