# generated using pymatgen
data_K2MgNb2P2(CO7)2
_symmetry_space_group_name_H-M   'P 1'
_cell_length_a   10.76013451
_cell_length_b   6.73071549
_cell_length_c   5.15834683
_cell_angle_alpha   91.23400383
_cell_angle_beta   87.02631121
_cell_angle_gamma   83.81628418
_symmetry_Int_Tables_number   1
_chemical_formula_structural   K2MgNb2P2(CO7)2
_chemical_formula_sum   'K2 Mg1 Nb2 P2 C2 O14'
_cell_volume   370.77281655
_cell_formula_units_Z   1
loop_
 _symmetry_equiv_pos_site_id
 _symmetry_equiv_pos_as_xyz
  1  'x, y, z'
loop_
 _atom_site_type_symbol
 _atom_site_label
 _atom_site_symmetry_multiplicity
 _atom_site_fract_x
 _atom_site_fract_y
 _atom_site_fract_z
 _atom_site_occupancy
  K  K0  1  0.07524061  0.26393640  0.87952620  1
  K  K1  1  0.81003411  0.86135939  0.78143923  1
  Mg  Mg0  1  0.35458379  0.55920826  0.26714430  1
  Nb  Nb0  1  0.35897778  0.82124123  0.79609370  1
  Nb  Nb1  1  0.65424914  0.27544902  0.24216554  1
  P  P0  1  0.42746520  0.30779781  0.75856672  1
  P  P1  1  0.58225779  0.78382210  0.30711843  1
  C  C0  1  0.13483354  0.73994172  0.67349149  1
  C  C1  1  0.88594075  0.20272629  0.35197497  1
  O  O0  1  0.99722618  0.17470283  0.41153390  1
  O  O1  1  0.15482875  0.84588139  0.88054710  1
  O  O2  1  0.23782161  0.72453933  0.50380060  1
  O  O3  1  0.34641875  0.13252156  0.77992642  1
  O  O4  1  0.34335010  0.49421994  0.89105784  1
  O  O5  1  0.45744142  0.77919342  0.15814619  1
  O  O6  1  0.45395163  0.35556036  0.46567048  1
  O  O7  1  0.54748044  0.80358607  0.60138833  1
  O  O8  1  0.54835901  0.27447836  0.90026924  1
  O  O9  1  0.65387448  0.95711564  0.21351543  1
  O  O10  1  0.66623291  0.58516503  0.23828290  1
  O  O11  1  0.78751500  0.22165665  0.52504097  1
  O  O12  1  0.85012155  0.21739903  0.10997404  1
  O  O13  1  0.04054445  0.65586514  0.63237297  1
loop_
_geom_bond_atom_site_label_1
_geom_bond_atom_site_label_2
_geom_bond_distance
_geom_bond_site_symmetry_2
K0 O0 2.673862 1_455
K0 O12 2.694350 1_456
K0 O1 2.851826 1_545
K0 O0 2.921825 1_456
K0 O13 2.950536 1_555
K0 O3 2.971432 1_555
K1 O9 2.742735 1_556
K1 O13 2.770115 1_655
K1 O11 2.780948 1_565
K1 O12 2.987375 1_566
K1 O7 3.080329 1_555
Mg0 O2 1.946331 1_555
Mg0 O6 1.982187 1_555
Mg0 O4 1.992149 1_554
Mg0 O5 2.014380 1_555
Nb0 O3 2.088666 1_565
Nb0 O2 2.177368 1_555
Nb0 O5 2.203172 1_556
Nb0 O1 2.204941 1_555
Nb0 O7 2.206464 1_555
Nb0 O4 2.287062 1_555
Nb1 O10 2.102871 1_555
Nb1 O11 2.108199 1_555
Nb1 O9 2.144977 1_545
Nb1 O8 2.149002 1_554
Nb1 O12 2.172942 1_555
Nb1 O6 2.393747 1_555
C0 O13 1.239117 1_555
C0 O1 1.311328 1_555
C0 O2 1.369551 1_555
C1 O0 1.247337 1_555
C1 O12 1.328023 1_555
C1 O11 1.342677 1_555
O3 P0 1.543273 1_555
O4 P0 1.585845 1_555
O5 P1 1.584396 1_555
O6 P0 1.569475 1_555
O7 P1 1.543869 1_555
O8 P0 1.523029 1_555
O9 P1 1.538414 1_555
O10 P1 1.554467 1_555
