# generated using pymatgen
data_LiMg14FeO16
_symmetry_space_group_name_H-M   'P 1'
_cell_length_a   8.51578462
_cell_length_b   8.51578462
_cell_length_c   4.24886241
_cell_angle_alpha   90.00000000
_cell_angle_beta   90.00000000
_cell_angle_gamma   90.00000000
_symmetry_Int_Tables_number   1
_chemical_formula_structural   LiMg14FeO16
_chemical_formula_sum   'Li1 Mg14 Fe1 O16'
_cell_volume   308.12150128
_cell_formula_units_Z   1
loop_
 _symmetry_equiv_pos_site_id
 _symmetry_equiv_pos_as_xyz
  1  'x, y, z'
loop_
 _atom_site_type_symbol
 _atom_site_label
 _atom_site_symmetry_multiplicity
 _atom_site_fract_x
 _atom_site_fract_y
 _atom_site_fract_z
 _atom_site_occupancy
  Li  Li0  1  0.50000000  0.50000000  0.00000000  1
  Mg  Mg0  1  0.00000000  0.50000000  0.00000000  1
  Mg  Mg1  1  0.50000000  0.00000000  0.00000000  1
  Mg  Mg2  1  0.00000000  0.25518129  0.50000000  1
  Mg  Mg3  1  0.00000000  0.74481871  0.50000000  1
  Mg  Mg4  1  0.50000000  0.25764474  0.50000000  1
  Mg  Mg5  1  0.50000000  0.74235526  0.50000000  1
  Mg  Mg6  1  0.25518129  0.00000000  0.50000000  1
  Mg  Mg7  1  0.25764474  0.50000000  0.50000000  1
  Mg  Mg8  1  0.74481871  0.00000000  0.50000000  1
  Mg  Mg9  1  0.74235526  0.50000000  0.50000000  1
  Mg  Mg10  1  0.25733003  0.25733003  0.00000000  1
  Mg  Mg11  1  0.25733003  0.74266997  0.00000000  1
  Mg  Mg12  1  0.74266997  0.25733003  0.00000000  1
  Mg  Mg13  1  0.74266997  0.74266997  0.00000000  1
  Fe  Fe0  1  0.00000000  0.00000000  0.00000000  1
  O  O0  1  0.24040018  0.00000000  0.00000000  1
  O  O1  1  0.23998929  0.50000000  0.00000000  1
  O  O2  1  0.75959982  0.00000000  0.00000000  1
  O  O3  1  0.76001071  0.50000000  0.00000000  1
  O  O4  1  0.24798731  0.24798731  0.50000000  1
  O  O5  1  0.24798731  0.75201269  0.50000000  1
  O  O6  1  0.75201269  0.24798731  0.50000000  1
  O  O7  1  0.75201269  0.75201269  0.50000000  1
  O  O8  1  0.00000000  0.00000000  0.50000000  1
  O  O9  1  0.00000000  0.50000000  0.50000000  1
  O  O10  1  0.50000000  0.00000000  0.50000000  1
  O  O11  1  0.50000000  0.50000000  0.50000000  1
  O  O12  1  0.00000000  0.24040018  0.00000000  1
  O  O13  1  0.00000000  0.75959982  0.00000000  1
  O  O14  1  0.50000000  0.23998929  0.00000000  1
  O  O15  1  0.50000000  0.76001071  0.00000000  1
loop_
_geom_bond_atom_site_label_1
_geom_bond_atom_site_label_2
_geom_bond_distance
_geom_bond_site_symmetry_2
Li0 O11 2.124431 1_554
Li0 O11 2.124431 1_555
Li0 O3 2.214195 1_555
Li0 O1 2.214195 1_555
Li0 O14 2.214195 1_555
Li0 O15 2.214195 1_555
Mg0 O1 2.043697 1_555
Mg0 O3 2.043697 1_455
Mg0 O9 2.124431 1_554
Mg0 O9 2.124431 1_555
Mg0 O13 2.210696 1_555
Mg0 O12 2.210696 1_555
Mg1 O14 2.043697 1_555
Mg1 O15 2.043697 1_545
Mg1 O10 2.124431 1_555
Mg1 O10 2.124431 1_554
Mg1 O2 2.210696 1_555
Mg1 O0 2.210696 1_555
Mg2 O9 2.084823 1_555
Mg2 O6 2.112695 1_455
Mg2 O4 2.112695 1_555
Mg2 O12 2.128157 1_556
Mg2 O12 2.128157 1_555
Mg2 O8 2.173069 1_555
Mg3 O9 2.084823 1_555
Mg3 O7 2.112695 1_455
Mg3 O5 2.112695 1_555
Mg3 O13 2.128157 1_555
Mg3 O13 2.128157 1_556
Mg3 O8 2.173069 1_565
Mg4 O11 2.063845 1_555
Mg4 O14 2.129745 1_556
Mg4 O14 2.129745 1_555
Mg4 O4 2.147661 1_555
Mg4 O6 2.147661 1_555
Mg4 O10 2.194047 1_555
Mg5 O11 2.063845 1_555
Mg5 O15 2.129745 1_556
Mg5 O15 2.129745 1_555
Mg5 O7 2.147661 1_555
Mg5 O5 2.147661 1_555
Mg5 O10 2.194047 1_565
Mg6 O10 2.084823 1_555
Mg6 O5 2.112695 1_545
Mg6 O4 2.112695 1_555
Mg6 O0 2.128157 1_555
Mg6 O0 2.128157 1_556
Mg6 O8 2.173069 1_555
Mg7 O11 2.063845 1_555
Mg7 O1 2.129745 1_556
Mg7 O1 2.129745 1_555
Mg7 O4 2.147661 1_555
Mg7 O5 2.147661 1_555
Mg7 O9 2.194047 1_555
Mg8 O10 2.084823 1_555
Mg8 O7 2.112695 1_545
Mg8 O6 2.112695 1_555
Mg8 O2 2.128157 1_556
Mg8 O2 2.128157 1_555
Mg8 O8 2.173069 1_655
Mg9 O11 2.063845 1_555
Mg9 O3 2.129745 1_556
Mg9 O3 2.129745 1_555
Mg9 O7 2.147661 1_555
Mg9 O6 2.147661 1_555
Mg9 O9 2.194047 1_655
Mg10 O1 2.071795 1_555
Mg10 O14 2.071795 1_555
Mg10 O4 2.127409 1_554
Mg10 O4 2.127409 1_555
Mg10 O12 2.196105 1_555
Mg10 O0 2.196105 1_555
Mg11 O1 2.071795 1_555
Mg11 O15 2.071795 1_555
Mg11 O5 2.127409 1_554
Mg11 O5 2.127409 1_555
Mg11 O13 2.196105 1_555
Mg11 O0 2.196105 1_565
Mg12 O3 2.071795 1_555
Mg12 O14 2.071795 1_555
Mg12 O6 2.127409 1_554
Mg12 O6 2.127409 1_555
Mg12 O12 2.196105 1_655
Mg12 O2 2.196105 1_555
Mg13 O3 2.071795 1_555
Mg13 O15 2.071795 1_555
Mg13 O7 2.127409 1_554
Mg13 O7 2.127409 1_555
Mg13 O13 2.196105 1_655
Mg13 O2 2.196105 1_565
Fe0 O13 2.047196 1_545
Fe0 O0 2.047196 1_555
Fe0 O12 2.047196 1_555
Fe0 O2 2.047196 1_455
Fe0 O8 2.124431 1_555
Fe0 O8 2.124431 1_554
