# generated using pymatgen
data_LiLa3MnO7
_symmetry_space_group_name_H-M   'P 1'
_cell_length_a   5.56566228
_cell_length_b   5.44724800
_cell_length_c   10.51059991
_cell_angle_alpha   89.99987799
_cell_angle_beta   74.67212515
_cell_angle_gamma   89.99968781
_symmetry_Int_Tables_number   1
_chemical_formula_structural   LiLa3MnO7
_chemical_formula_sum   'Li2 La6 Mn2 O14'
_cell_volume   307.32064195
_cell_formula_units_Z   2
loop_
 _symmetry_equiv_pos_site_id
 _symmetry_equiv_pos_as_xyz
  1  'x, y, z'
loop_
 _atom_site_type_symbol
 _atom_site_label
 _atom_site_symmetry_multiplicity
 _atom_site_fract_x
 _atom_site_fract_y
 _atom_site_fract_z
 _atom_site_occupancy
  Li  Li0  1  0.84836500  0.25000300  0.81243600  1
  Li  Li1  1  0.15162600  0.74999800  0.18756000  1
  La  La0  1  0.25202300  0.25000200  0.99997200  1
  La  La1  1  0.74796800  0.74999000  0.00002200  1
  La  La2  1  0.07871100  0.25000100  0.35857500  1
  La  La3  1  0.55088400  0.74999200  0.35887200  1
  La  La4  1  0.92122000  0.75001200  0.64142300  1
  La  La5  1  0.44911400  0.25000300  0.64111300  1
  Mn  Mn0  1  0.33890700  0.75001000  0.80790200  1
  Mn  Mn1  1  0.66129600  0.25002300  0.19213200  1
  O  O0  1  0.57360900  0.50539100  0.82658800  1
  O  O1  1  0.57361000  0.99460800  0.82658900  1
  O  O2  1  0.42636100  0.49462000  0.17341700  1
  O  O3  1  0.42635000  0.00536600  0.17341900  1
  O  O4  1  0.88375800  0.00415900  0.21683800  1
  O  O5  1  0.88375500  0.49582600  0.21683400  1
  O  O6  1  0.11622900  0.99585200  0.78316200  1
  O  O7  1  0.11621800  0.50416100  0.78316200  1
  O  O8  1  0.18918800  0.74999700  0.98978300  1
  O  O9  1  0.81081900  0.25000000  0.01021700  1
  O  O10  1  0.89376900  0.24998900  0.58172100  1
  O  O11  1  0.49549700  0.75000200  0.60182600  1
  O  O12  1  0.10622000  0.74999500  0.41826500  1
  O  O13  1  0.50450200  0.25000000  0.39817000  1
loop_
_geom_bond_atom_site_label_1
_geom_bond_atom_site_label_2
_geom_bond_distance
_geom_bond_site_symmetry_2
Li0 O7 1.997835 1_655
Li0 O6 1.997841 1_645
Li0 O9 2.033569 1_556
Li0 O0 2.043435 1_555
Li0 O1 2.043467 1_545
Li0 O10 2.370713 1_555
Li1 O4 1.997893 1_465
Li1 O5 1.997959 1_455
Li1 O8 2.033512 1_554
Li1 O3 2.043257 1_565
Li1 O2 2.043325 1_555
Li1 O12 2.370607 1_555
La0 O9 2.429349 1_456
La0 O0 2.595281 1_555
La0 O1 2.595286 1_545
La0 O2 2.641138 1_556
La0 O3 2.641161 1_556
La0 O8 2.751643 1_555
La0 O8 2.751701 1_545
La0 O6 2.931098 1_545
La0 O7 2.931141 1_555
La0 O5 2.952905 1_456
La0 O4 2.952974 1_456
La0 O9 3.140252 1_556
La1 O8 2.429452 1_654
La1 O2 2.595344 1_555
La1 O3 2.595397 1_565
La1 O0 2.641059 1_554
La1 O1 2.641091 1_554
La1 O9 2.751633 1_555
La1 O9 2.751745 1_565
La1 O5 2.931125 1_555
La1 O4 2.931190 1_565
La1 O7 2.952856 1_654
La1 O6 2.952973 1_654
La1 O8 3.140144 1_554
La2 O10 2.298709 1_455
La2 O5 2.458559 1_455
La2 O4 2.458578 1_455
La2 O13 2.512090 1_555
La2 O3 2.704808 1_555
La2 O2 2.704814 1_555
La2 O12 2.808165 1_555
La2 O12 2.808224 1_545
La2 O13 3.111835 1_455
La3 O12 2.387005 1_555
La3 O5 2.472985 1_555
La3 O4 2.472988 1_565
La3 O11 2.489917 1_555
La3 O2 2.632337 1_555
La3 O3 2.632345 1_565
La3 O13 2.756586 1_555
La3 O13 2.756671 1_565
La4 O12 2.298881 1_655
La4 O7 2.458761 1_655
La4 O6 2.458775 1_655
La4 O11 2.511725 1_555
La4 O1 2.704674 1_555
La4 O0 2.704745 1_555
La4 O10 2.808064 1_565
La4 O10 2.808311 1_555
La4 O11 3.112208 1_655
La5 O10 2.386956 1_555
La5 O6 2.473040 1_545
La5 O7 2.473089 1_555
La5 O13 2.489802 1_555
La5 O0 2.632482 1_555
La5 O1 2.632505 1_545
La5 O11 2.756610 1_555
La5 O11 2.756619 1_545
Mn0 O8 1.872618 1_555
Mn0 O6 1.888736 1_555
Mn0 O7 1.888815 1_555
Mn0 O1 1.912029 1_555
Mn0 O0 1.912091 1_555
Mn0 O11 2.110221 1_555
Mn1 O9 1.872750 1_555
Mn1 O5 1.887627 1_555
Mn1 O4 1.887877 1_555
Mn1 O2 1.913016 1_555
Mn1 O3 1.913291 1_555
Mn1 O13 2.110016 1_555
