# generated using pymatgen
data_Be12Co
_symmetry_space_group_name_H-M   'P 1'
_cell_length_a   4.08197057
_cell_length_b   5.45708036
_cell_length_c   5.45708036
_cell_angle_alpha   81.95902578
_cell_angle_beta   68.03704684
_cell_angle_gamma   68.03704684
_symmetry_Int_Tables_number   1
_chemical_formula_structural   Be12Co
_chemical_formula_sum   'Be12 Co1'
_cell_volume   104.55600657
_cell_formula_units_Z   1
loop_
 _symmetry_equiv_pos_site_id
 _symmetry_equiv_pos_as_xyz
  1  'x, y, z'
loop_
 _atom_site_type_symbol
 _atom_site_label
 _atom_site_symmetry_multiplicity
 _atom_site_fract_x
 _atom_site_fract_y
 _atom_site_fract_z
 _atom_site_occupancy
  Be  Be0  1  -0.00000000  0.00000000  0.50000000  1
  Be  Be1  1  0.50000000  0.00000000  0.50000000  1
  Be  Be2  1  0.50000000  0.50000000  0.00000000  1
  Be  Be3  1  -0.00000000  0.50000000  0.00000000  1
  Be  Be4  1  -0.00000000  0.34548764  0.65451236  1
  Be  Be5  1  0.00000000  0.65451236  0.34548764  1
  Be  Be6  1  0.65451236  0.34548764  0.34548764  1
  Be  Be7  1  0.34548764  0.65451236  0.65451236  1
  Be  Be8  1  0.50000000  0.78718488  0.21281512  1
  Be  Be9  1  0.50000000  0.21281512  0.78718488  1
  Be  Be10  1  0.71281512  0.78718488  0.78718488  1
  Be  Be11  1  0.28718488  0.21281512  0.21281512  1
  Co  Co0  1  -0.00000000  0.00000000  0.00000000  1
loop_
_geom_bond_atom_site_label_1
_geom_bond_atom_site_label_2
_geom_bond_distance
_geom_bond_site_symmetry_2
Be0 Be1 2.040985 1_455
Be0 Be1 2.040985 1_555
Be0 Be8 2.077017 1_545
Be0 Be9 2.077017 1_455
Be0 Be10 2.077018 1_445
Be0 Be11 2.077018 1_555
Be0 Be7 2.170313 1_545
Be0 Be6 2.170313 1_455
Be0 Be5 2.170314 1_545
Be0 Be4 2.170314 1_555
Be0 Co0 2.728540 1_555
Be0 Co0 2.728540 1_556
Be1 Be11 2.077018 1_555
Be1 Be10 2.077018 1_545
Be1 Be8 2.077018 1_545
Be1 Be9 2.077018 1_555
Be1 Be4 2.170313 1_555
Be1 Be5 2.170313 1_645
Be1 Be6 2.170314 1_555
Be1 Be7 2.170314 1_545
Be1 Co0 2.728540 1_655
Be1 Co0 2.728540 1_556
Be2 Be3 2.040985 1_555
Be2 Be3 2.040985 1_655
Be2 Be9 2.077018 1_554
Be2 Be8 2.077018 1_555
Be2 Be4 2.170313 1_654
Be2 Be5 2.170313 1_555
Be2 Be7 2.170314 1_554
Be2 Be6 2.170314 1_555
Be2 Co0 2.728540 1_565
Be2 Co0 2.728540 1_655
Be3 Be9 2.077017 1_554
Be3 Be8 2.077017 1_455
Be3 Be7 2.170313 1_554
Be3 Be6 2.170313 1_455
Be3 Be4 2.170314 1_554
Be3 Be5 2.170314 1_555
Be3 Co0 2.728540 1_565
Be3 Co0 2.728540 1_555
Be4 Be5 2.211810 1_555
Be4 Be9 2.251075 1_455
Be4 Be9 2.251075 1_555
Be4 Co0 2.472789 1_556
Be5 Be8 2.251075 1_555
Be5 Be8 2.251075 1_455
Be5 Co0 2.472789 1_565
Be6 Be7 2.211810 1_555
Be6 Be9 2.334112 1_555
Be6 Be8 2.334112 1_555
Be6 Co0 2.472789 1_655
Be7 Be9 2.334112 1_555
Be7 Be8 2.334112 1_555
Be7 Co0 2.472789 1_566
Be8 Co0 2.546716 1_665
Be8 Co0 2.546716 1_565
Be9 Co0 2.546716 1_556
Be9 Co0 2.546716 1_656
Be10 Be3 2.077018 1_656
Be10 Be2 2.077018 1_556
Be10 Be9 2.154131 1_565
Be10 Be8 2.154131 1_556
Be10 Be7 2.251075 1_655
Be10 Be7 2.251075 1_555
Be10 Be5 2.334112 1_655
Be10 Be4 2.334112 1_655
Be10 Co0 2.546715 1_566
Be10 Co0 2.546716 1_666
Be11 Be3 2.077018 1_555
Be11 Be2 2.077018 1_555
Be11 Be9 2.154131 1_554
Be11 Be8 2.154131 1_545
Be11 Be6 2.251075 1_455
Be11 Be6 2.251075 1_555
Be11 Be4 2.334112 1_555
Be11 Be5 2.334112 1_555
Be11 Co0 2.546715 1_655
Be11 Co0 2.546716 1_555
