# generated using pymatgen
data_Mg14VFe
_symmetry_space_group_name_H-M   'P 1'
_cell_length_a   6.26560799
_cell_length_b   6.17680048
_cell_length_c   9.93339335
_cell_angle_alpha   90.00000000
_cell_angle_beta   90.00000000
_cell_angle_gamma   119.53223659
_symmetry_Int_Tables_number   1
_chemical_formula_structural   Mg14VFe
_chemical_formula_sum   'Mg14 V1 Fe1'
_cell_volume   334.48978918
_cell_formula_units_Z   1
loop_
 _symmetry_equiv_pos_site_id
 _symmetry_equiv_pos_as_xyz
  1  'x, y, z'
loop_
 _atom_site_type_symbol
 _atom_site_label
 _atom_site_symmetry_multiplicity
 _atom_site_fract_x
 _atom_site_fract_y
 _atom_site_fract_z
 _atom_site_occupancy
  Mg  Mg0  1  0.16759670  0.33379785  0.62500000  1
  Mg  Mg1  1  0.16970963  0.83485432  0.62500000  1
  Mg  Mg2  1  0.66643570  0.33590593  0.12500000  1
  Mg  Mg3  1  0.66380849  0.33071319  0.62500000  1
  Mg  Mg4  1  0.66643570  0.83052877  0.12500000  1
  Mg  Mg5  1  0.66380849  0.83309430  0.62500000  1
  Mg  Mg6  1  0.32585250  0.16737066  0.35762891  1
  Mg  Mg7  1  0.32585250  0.16737066  0.89237109  1
  Mg  Mg8  1  0.32585250  0.65848284  0.35762891  1
  Mg  Mg9  1  0.32585250  0.65848284  0.89237109  1
  Mg  Mg10  1  0.84851465  0.17425783  0.36213427  1
  Mg  Mg11  1  0.84851465  0.17425783  0.88786573  1
  Mg  Mg12  1  0.84172828  0.67086464  0.37338539  1
  Mg  Mg13  1  0.84172828  0.67086464  0.87661461  1
  V  V0  1  0.15766649  0.82883275  0.12500000  1
  Fe  Fe0  1  0.16064292  0.33032096  0.12500000  1
loop_
_geom_bond_atom_site_label_1
_geom_bond_atom_site_label_2
_geom_bond_distance
_geom_bond_site_symmetry_2
Mg0 Mg1 3.088422 1_545
Mg0 Mg1 3.088422 1_555
Mg0 Mg5 3.118504 1_555
Mg0 Mg3 3.118504 1_555
Mg0 Mg10 3.137507 1_455
Mg0 Mg11 3.137507 1_455
Mg0 Mg5 3.147191 1_445
Mg0 Mg3 3.147191 1_455
Mg0 Mg6 3.177838 1_555
Mg0 Mg7 3.177838 1_555
Mg0 Mg8 3.177844 1_555
Mg0 Mg9 3.177844 1_555
Mg1 Mg13 3.073097 1_455
Mg1 Mg12 3.073097 1_455
Mg1 Mg3 3.101203 1_565
Mg1 Mg5 3.101203 1_555
Mg1 Mg3 3.164434 1_455
Mg1 Mg5 3.164434 1_455
Mg1 Mg8 3.201322 1_555
Mg1 Mg9 3.201322 1_555
Mg1 Mg7 3.201328 1_565
Mg1 Mg6 3.201328 1_565
Mg2 Mg7 2.964334 1_554
Mg2 Mg6 2.964334 1_555
Mg2 Mg4 3.055187 1_555
Mg2 V0 3.083037 1_655
Mg2 Mg4 3.121614 1_545
Mg2 V0 3.182597 1_545
Mg3 Mg5 3.073693 1_545
Mg3 Mg5 3.103108 1_555
Mg3 Mg6 3.232558 1_555
Mg3 Mg7 3.232558 1_555
Mg4 Mg9 2.964334 1_554
Mg4 Mg8 2.964334 1_555
Mg4 V0 3.083037 1_655
Mg4 V0 3.182598 1_555
Mg5 Mg8 3.232558 1_555
Mg5 Mg9 3.232558 1_555
Mg6 V0 2.941179 1_545
Mg7 V0 2.941179 1_546
Mg8 V0 2.941173 1_555
Mg9 V0 2.941173 1_556
Mg10 Mg2 2.994995 1_555
Mg10 Mg4 2.995001 1_545
Mg10 Mg12 3.090643 1_555
Mg10 Mg12 3.090643 1_545
Mg10 Mg3 3.192789 1_555
Mg10 Mg5 3.192795 1_545
Mg11 Mg2 2.994995 1_556
Mg11 Mg4 2.995001 1_546
Mg11 Mg13 3.090643 1_555
Mg11 Mg13 3.090643 1_545
Mg11 Mg3 3.192789 1_555
Mg11 Mg5 3.192795 1_545
Mg12 V0 3.009010 1_655
Mg12 Mg4 3.055217 1_555
Mg12 Mg2 3.055223 1_555
Mg12 Mg6 3.075736 1_665
Mg12 Mg8 3.075736 1_655
Mg12 Mg5 3.097584 1_555
Mg12 Mg3 3.097590 1_555
Mg12 Mg6 3.199101 1_555
Mg12 Mg8 3.199101 1_555
Mg13 V0 3.009010 1_656
Mg13 Mg4 3.055217 1_556
Mg13 Mg2 3.055223 1_556
Mg13 Mg7 3.075736 1_665
Mg13 Mg9 3.075736 1_655
Mg13 Mg5 3.097584 1_555
Mg13 Mg3 3.097590 1_555
Mg13 Mg7 3.199101 1_555
Mg13 Mg9 3.199101 1_555
Fe0 Mg11 2.905858 1_454
Fe0 Mg10 2.905858 1_455
Fe0 Mg6 2.907139 1_555
Fe0 Mg7 2.907139 1_554
Fe0 Mg9 2.907146 1_554
Fe0 Mg8 2.907146 1_555
Fe0 V0 3.088443 1_545
Fe0 V0 3.088443 1_555
Fe0 Mg4 3.113657 1_445
Fe0 Mg2 3.113658 1_455
Fe0 Mg4 3.152238 1_555
Fe0 Mg2 3.152238 1_555
