# generated using pymatgen
data_NaMg14Sn
_symmetry_space_group_name_H-M   'P 1'
_cell_length_a   6.36852887
_cell_length_b   6.36852836
_cell_length_c   10.67332217
_cell_angle_alpha   90.00000000
_cell_angle_beta   90.00000000
_cell_angle_gamma   120.00000272
_symmetry_Int_Tables_number   1
_chemical_formula_structural   NaMg14Sn
_chemical_formula_sum   'Na1 Mg14 Sn1'
_cell_volume   374.89396322
_cell_formula_units_Z   1
loop_
 _symmetry_equiv_pos_site_id
 _symmetry_equiv_pos_as_xyz
  1  'x, y, z'
loop_
 _atom_site_type_symbol
 _atom_site_label
 _atom_site_symmetry_multiplicity
 _atom_site_fract_x
 _atom_site_fract_y
 _atom_site_fract_z
 _atom_site_occupancy
  Na  Na0  1  0.16666700  0.33333300  0.62500000  1
  Mg  Mg0  1  0.16537466  0.83268683  0.12500000  1
  Mg  Mg1  1  0.16899619  0.83449759  0.62500000  1
  Mg  Mg2  1  0.66731317  0.33462534  0.12500000  1
  Mg  Mg3  1  0.66550241  0.33100381  0.62500000  1
  Mg  Mg4  1  0.66731317  0.83268683  0.12500000  1
  Mg  Mg5  1  0.66550241  0.83449759  0.62500000  1
  Mg  Mg6  1  0.33470352  0.16529648  0.37454916  1
  Mg  Mg7  1  0.33470352  0.16529648  0.87545084  1
  Mg  Mg8  1  0.33470352  0.66940805  0.37454916  1
  Mg  Mg9  1  0.33470352  0.66940805  0.87545084  1
  Mg  Mg10  1  0.83059195  0.16529648  0.37454916  1
  Mg  Mg11  1  0.83059195  0.16529648  0.87545084  1
  Mg  Mg12  1  0.83333300  0.66666700  0.37728153  1
  Mg  Mg13  1  0.83333300  0.66666700  0.87271847  1
  Sn  Sn0  1  0.16666700  0.33333300  0.12500000  1
loop_
_geom_bond_atom_site_label_1
_geom_bond_atom_site_label_2
_geom_bond_distance
_geom_bond_site_symmetry_2
Mg0 Mg2 3.171919 1_455
Mg0 Mg4 3.171919 1_455
Mg0 Sn0 3.184272 1_565
Mg0 Sn0 3.184272 1_555
Mg0 Mg2 3.196610 1_565
Mg0 Mg4 3.196610 1_555
Mg0 Mg8 3.234169 1_555
Mg0 Mg9 3.234169 1_554
Mg0 Mg6 3.234175 1_565
Mg0 Mg7 3.234175 1_564
Mg0 Mg12 3.256415 1_455
Mg0 Mg13 3.256415 1_454
Mg1 Mg3 3.162014 1_565
Mg1 Mg5 3.162014 1_555
Mg1 Na0 3.184290 1_555
Mg1 Na0 3.184290 1_565
Mg1 Mg3 3.206514 1_455
Mg1 Mg5 3.206515 1_455
Mg1 Mg13 3.227675 1_455
Mg1 Mg12 3.227675 1_455
Mg1 Mg9 3.236402 1_555
Mg1 Mg8 3.236402 1_555
Mg1 Mg7 3.236408 1_565
Mg1 Mg6 3.236408 1_565
Mg2 Mg4 3.171919 1_555
Mg2 Sn0 3.184272 1_555
Mg2 Sn0 3.184272 1_655
Mg2 Mg4 3.196610 1_545
Mg2 Mg6 3.234175 1_555
Mg2 Mg7 3.234175 1_554
Mg3 Mg5 3.162014 1_545
Mg3 Na0 3.184290 1_655
Mg3 Na0 3.184290 1_555
Mg3 Mg5 3.206514 1_555
Mg3 Mg7 3.236409 1_555
Mg3 Mg6 3.236409 1_555
Mg4 Sn0 3.184272 1_665
Mg4 Sn0 3.184272 1_555
Mg4 Mg8 3.234175 1_555
Mg4 Mg9 3.234175 1_554
Mg5 Na0 3.184290 1_555
Mg5 Na0 3.184290 1_665
Mg5 Mg9 3.236409 1_555
Mg5 Mg8 3.236409 1_555
Mg6 Mg8 3.158080 1_545
Mg6 Mg8 3.210449 1_555
Mg6 Sn0 3.244991 1_555
Mg6 Na0 3.252895 1_555
Mg7 Mg9 3.158080 1_545
Mg7 Mg9 3.210449 1_555
Mg7 Sn0 3.244991 1_556
Mg7 Na0 3.252895 1_555
Mg8 Sn0 3.244997 1_555
Mg8 Na0 3.252901 1_555
Mg9 Sn0 3.244997 1_556
Mg9 Na0 3.252901 1_555
Mg10 Mg8 3.158080 1_545
Mg10 Mg6 3.158080 1_555
Mg10 Mg12 3.184434 1_555
Mg10 Mg12 3.184434 1_545
Mg10 Mg8 3.210449 1_655
Mg10 Mg6 3.210449 1_655
Mg10 Mg2 3.234169 1_555
Mg10 Mg4 3.234175 1_545
Mg10 Mg3 3.236402 1_555
Mg10 Mg5 3.236408 1_545
Mg10 Sn0 3.244997 1_655
Mg10 Na0 3.252901 1_655
Mg11 Mg9 3.158080 1_545
Mg11 Mg7 3.158080 1_555
Mg11 Mg13 3.184434 1_555
Mg11 Mg13 3.184434 1_545
Mg11 Mg9 3.210449 1_655
Mg11 Mg7 3.210449 1_655
Mg11 Mg2 3.234169 1_556
Mg11 Mg4 3.234175 1_546
Mg11 Mg3 3.236402 1_555
Mg11 Mg5 3.236408 1_545
Mg11 Sn0 3.244997 1_656
Mg11 Na0 3.252901 1_655
Mg12 Mg6 3.184434 1_555
Mg12 Mg6 3.184434 1_665
Mg12 Mg8 3.184434 1_655
Mg12 Mg8 3.184434 1_555
Mg12 Mg5 3.227668 1_555
Mg12 Mg3 3.227675 1_555
Mg12 Mg4 3.256409 1_555
Mg12 Mg2 3.256415 1_555
Mg13 Mg7 3.184434 1_555
Mg13 Mg7 3.184434 1_665
Mg13 Mg9 3.184434 1_655
Mg13 Mg9 3.184434 1_555
Mg13 Mg5 3.227668 1_555
Mg13 Mg3 3.227675 1_555
Mg13 Mg4 3.256409 1_556
Mg13 Mg2 3.256415 1_556
