# generated using pymatgen
data_CaFeSi2Rh
_symmetry_space_group_name_H-M   'P 1'
_cell_length_a   5.68035025
_cell_length_b   5.68035025
_cell_length_c   5.68035025
_cell_angle_alpha   137.96923803
_cell_angle_beta   137.96923803
_cell_angle_gamma   60.95011520
_symmetry_Int_Tables_number   1
_chemical_formula_structural   CaFeSi2Rh
_chemical_formula_sum   'Ca1 Fe1 Si2 Rh1'
_cell_volume   81.26107213
_cell_formula_units_Z   1
loop_
 _symmetry_equiv_pos_site_id
 _symmetry_equiv_pos_as_xyz
  1  'x, y, z'
loop_
 _atom_site_type_symbol
 _atom_site_label
 _atom_site_symmetry_multiplicity
 _atom_site_fract_x
 _atom_site_fract_y
 _atom_site_fract_z
 _atom_site_occupancy
  Ca  Ca0  1  0.00000000  0.00000000  0.00000000  1
  Fe  Fe0  1  0.75000000  0.25000000  0.50000000  1
  Si  Si0  1  0.63191100  0.63191100  0.00000000  1
  Si  Si1  1  0.36808900  0.36808900  0.00000000  1
  Rh  Rh0  1  0.25000000  0.75000000  0.50000000  1
loop_
_geom_bond_atom_site_label_1
_geom_bond_atom_site_label_2
_geom_bond_distance
_geom_bond_site_symmetry_2
Ca0 Si1 3.157140 1_455
Ca0 Si1 3.157140 1_545
Ca0 Si1 3.157140 1_556
Ca0 Si1 3.157140 1_444
Ca0 Si0 3.157140 1_556
Ca0 Si0 3.157140 1_455
Ca0 Si0 3.157140 1_444
Ca0 Si0 3.157140 1_545
Ca0 Rh0 3.184563 1_544
Ca0 Rh0 3.184563 1_555
Ca0 Rh0 3.184563 1_545
Ca0 Fe0 3.184563 1_444
Ca0 Fe0 3.184563 1_455
Ca0 Fe0 3.184563 1_454
Ca0 Rh0 3.184563 1_444
Ca0 Fe0 3.184563 1_555
Fe0 Si1 2.342343 1_656
Fe0 Si0 2.342343 1_545
Fe0 Si0 2.342343 1_556
Fe0 Si1 2.342343 1_555
Fe0 Rh0 2.880865 1_645
Fe0 Rh0 2.880865 1_656
Fe0 Rh0 2.880865 1_555
Fe0 Rh0 2.880865 1_544
Si0 Si1 2.583139 1_555
Rh0 Si1 2.342343 1_566
Rh0 Si0 2.342343 1_556
Rh0 Si1 2.342343 1_555
Rh0 Si0 2.342343 1_455
