# generated using pymatgen
data_Hf6Al16Pt7
_symmetry_space_group_name_H-M   'P 1'
_cell_length_a   8.69292695
_cell_length_b   8.69292713
_cell_length_c   8.69292650
_cell_angle_alpha   60.00003086
_cell_angle_beta   60.00002578
_cell_angle_gamma   60.00003065
_symmetry_Int_Tables_number   1
_chemical_formula_structural   Hf6Al16Pt7
_chemical_formula_sum   'Hf6 Al16 Pt7'
_cell_volume   464.49748326
_cell_formula_units_Z   1
loop_
 _symmetry_equiv_pos_site_id
 _symmetry_equiv_pos_as_xyz
  1  'x, y, z'
loop_
 _atom_site_type_symbol
 _atom_site_label
 _atom_site_symmetry_multiplicity
 _atom_site_fract_x
 _atom_site_fract_y
 _atom_site_fract_z
 _atom_site_occupancy
  Hf  Hf0  1  0.68158090  0.68157978  0.31841914  1
  Hf  Hf1  1  0.31841966  0.68158021  0.31841963  1
  Hf  Hf2  1  0.68158081  0.31841930  0.31842001  1
  Hf  Hf3  1  0.31841981  0.31841916  0.68158078  1
  Hf  Hf4  1  0.68158063  0.31841873  0.68157992  1
  Hf  Hf5  1  0.31841879  0.68158037  0.68158095  1
  Al  Al0  1  0.87982478  0.87982459  0.36052611  1
  Al  Al1  1  0.87982431  0.36052612  0.87982433  1
  Al  Al2  1  0.36052612  0.87982468  0.87982419  1
  Al  Al3  1  0.87982471  0.87982458  0.87982426  1
  Al  Al4  1  0.12017560  0.12017621  0.63947384  1
  Al  Al5  1  0.12017559  0.63947383  0.12017601  1
  Al  Al6  1  0.63947394  0.12017587  0.12017576  1
  Al  Al7  1  0.12017540  0.12017597  0.12017549  1
  Al  Al8  1  0.66516024  0.66516038  0.00451907  1
  Al  Al9  1  0.66516003  0.00451981  0.66516010  1
  Al  Al10  1  0.00451888  0.66516021  0.66516052  1
  Al  Al11  1  0.66516042  0.66516044  0.66515996  1
  Al  Al12  1  0.33483961  0.33483973  0.99548097  1
  Al  Al13  1  0.33483957  0.99548133  0.33483968  1
  Al  Al14  1  0.99548028  0.33483996  0.33483994  1
  Al  Al15  1  0.33483966  0.33483990  0.33484011  1
  Pt  Pt0  1  -0.00000007  0.00000062  0.00000000  1
  Pt  Pt1  1  -0.00000075  0.00000082  0.49999997  1
  Pt  Pt2  1  0.50000015  0.00000084  0.49999982  1
  Pt  Pt3  1  0.00000005  0.49999972  0.50000022  1
  Pt  Pt4  1  0.50000021  0.49999970  0.00000038  1
  Pt  Pt5  1  -0.00000031  0.49999967  0.00000030  1
  Pt  Pt6  1  0.49999999  0.00000050  -0.00000047  1
loop_
_geom_bond_atom_site_label_1
_geom_bond_atom_site_label_2
_geom_bond_distance
_geom_bond_site_symmetry_2
Hf0 Hf2 3.156924 1_555
Hf0 Hf1 3.156930 1_555
Hf0 Hf4 3.156933 1_555
Hf0 Hf5 3.156942 1_555
Hf0 Pt5 3.186429 1_655
Hf0 Pt3 3.186436 1_655
Hf0 Pt6 3.186440 1_565
Hf0 Pt2 3.186447 1_565
Hf1 Hf5 3.156932 1_555
Hf1 Hf2 3.156934 1_555
Hf1 Hf3 3.156934 1_555
Hf1 Pt4 3.186433 1_555
Hf1 Pt3 3.186435 1_555
Hf1 Pt6 3.186440 1_565
Hf1 Pt1 3.186443 1_565
Hf2 Hf4 3.156919 1_555
Hf2 Hf3 3.156932 1_555
Hf2 Pt1 3.186425 1_655
Hf2 Pt2 3.186429 1_555
Hf2 Pt5 3.186432 1_655
Hf2 Pt4 3.186437 1_555
Hf3 Hf4 3.156925 1_555
Hf3 Hf5 3.156930 1_555
Hf3 Pt6 3.186428 1_556
Hf3 Pt2 3.186429 1_555
Hf3 Pt5 3.186437 1_556
Hf3 Pt3 3.186437 1_555
Hf4 Hf5 3.156940 1_555
Hf4 Pt1 3.186422 1_655
Hf4 Pt6 3.186429 1_556
Hf4 Pt3 3.186438 1_655
Hf4 Pt4 3.186445 1_556
Hf5 Pt5 3.186434 1_556
Hf5 Pt4 3.186439 1_556
Hf5 Pt1 3.186440 1_565
Hf5 Pt2 3.186446 1_565
Al0 Pt0 2.558923 1_665
Al0 Pt1 2.697637 1_665
Al0 Pt2 2.697639 1_565
Al0 Pt3 2.697641 1_655
Al0 Al11 2.752462 1_555
Al0 Al10 2.752463 1_655
Al0 Al9 2.752466 1_565
Al0 Al5 2.954786 1_655
Al0 Al6 2.954788 1_565
Al0 Al7 2.954793 1_665
Al0 Hf2 3.210151 1_565
Al0 Hf1 3.210152 1_655
Al0 Hf0 3.210155 1_555
Al1 Pt0 2.558919 1_656
Al1 Pt3 2.697635 1_655
Al1 Pt4 2.697635 1_556
Al1 Pt5 2.697639 1_656
Al1 Al11 2.752463 1_555
Al1 Al10 2.752463 1_655
Al1 Al8 2.752465 1_556
Al1 Al4 2.954783 1_655
Al1 Al6 2.954784 1_556
Al1 Al7 2.954795 1_656
Al1 Hf4 3.210153 1_555
Al1 Hf3 3.210155 1_655
Al1 Hf2 3.210157 1_556
Al2 Pt0 2.558924 1_566
Al2 Pt2 2.697637 1_565
Al2 Pt6 2.697640 1_566
Al2 Pt4 2.697641 1_556
Al2 Al9 2.752465 1_565
Al2 Al8 2.752465 1_556
Al2 Al4 2.954786 1_565
Al2 Al5 2.954789 1_556
Al2 Al7 2.954796 1_566
Al2 Hf5 3.210148 1_555
Al2 Hf3 3.210149 1_565
Al2 Hf1 3.210156 1_556
Al3 Pt0 2.558928 1_666
Al3 Pt1 2.697636 1_665
Al3 Pt6 2.697639 1_566
Al3 Pt5 2.697641 1_656
Al3 Al8 2.752462 1_556
Al3 Al9 2.752462 1_565
Al3 Al4 2.954796 1_665
Al3 Al5 2.954797 1_656
Al3 Al6 2.954798 1_566
Al3 Hf5 3.210146 1_655
Al3 Hf4 3.210148 1_565
Al3 Hf0 3.210152 1_556
Al4 Pt0 2.558924 1_556
Al4 Pt3 2.697631 1_555
Al4 Pt2 2.697638 1_555
Al4 Pt1 2.697644 1_555
Al4 Hf3 3.210143 1_555
Al4 Hf4 3.210153 1_455
Al4 Hf5 3.210158 1_545
Al5 Pt0 2.558928 1_565
Al5 Pt3 2.697636 1_555
Al5 Pt4 2.697639 1_555
Al5 Pt5 2.697645 1_555
Al5 Hf1 3.210144 1_555
Al5 Hf0 3.210151 1_455
Al5 Hf5 3.210153 1_554
Al6 Pt0 2.558922 1_655
Al6 Pt4 2.697633 1_555
Al6 Pt2 2.697635 1_555
Al6 Pt6 2.697644 1_555
Al6 Hf2 3.210147 1_555
Al6 Hf4 3.210158 1_554
Al6 Hf0 3.210160 1_545
Al7 Pt0 2.558923 1_555
Al7 Pt5 2.697632 1_555
Al7 Pt1 2.697637 1_555
Al7 Pt6 2.697638 1_555
Al7 Hf2 3.210149 1_455
Al7 Hf3 3.210149 1_554
Al7 Hf1 3.210157 1_545
Al8 Pt4 2.509635 1_555
Al8 Pt5 2.509637 1_655
Al8 Pt6 2.509640 1_565
Al8 Hf0 2.878535 1_555
Al8 Hf1 2.878540 1_555
Al8 Hf2 2.878544 1_555
Al8 Al9 2.950026 1_564
Al9 Pt2 2.509632 1_555
Al9 Pt1 2.509634 1_655
Al9 Pt6 2.509635 1_556
Al9 Hf4 2.878527 1_555
Al9 Hf2 2.878534 1_555
Al9 Hf3 2.878534 1_555
Al10 Pt3 2.509636 1_555
Al10 Pt5 2.509638 1_556
Al10 Pt1 2.509643 1_565
Al10 Al3 2.752460 1_455
Al10 Hf5 2.878536 1_555
Al10 Hf1 2.878543 1_555
Al10 Hf3 2.878544 1_555
Al10 Al11 2.950020 1_455
Al10 Al8 2.950021 1_456
Al10 Al9 2.950026 1_465
Al11 Pt3 2.509637 1_655
Al11 Pt2 2.509641 1_565
Al11 Pt4 2.509642 1_556
Al11 Al2 2.752463 1_555
Al11 Hf0 2.878542 1_555
Al11 Hf5 2.878545 1_555
Al11 Hf4 2.878549 1_555
Al11 Al8 2.950023 1_556
Al11 Al9 2.950025 1_565
Al12 Pt6 2.509635 1_556
Al12 Pt4 2.509638 1_556
Al12 Pt5 2.509639 1_556
Al12 Al7 2.752458 1_556
Al12 Al5 2.752466 1_556
Al12 Al6 2.752466 1_556
Al12 Hf3 2.878537 1_555
Al12 Hf5 2.878539 1_555
Al12 Hf4 2.878544 1_555
Al12 Al13 2.950020 1_546
Al12 Al15 2.950025 1_556
Al12 Al14 2.950025 1_456
Al13 Pt2 2.509639 1_565
Al13 Pt6 2.509641 1_565
Al13 Pt1 2.509641 1_565
Al13 Al7 2.752461 1_565
Al13 Al4 2.752465 1_565
Al13 Al6 2.752465 1_565
Al13 Hf1 2.878544 1_555
Al13 Hf5 2.878545 1_555
Al13 Hf0 2.878548 1_555
Al13 Al15 2.950022 1_565
Al13 Al14 2.950024 1_465
Al14 Pt1 2.509634 1_655
Al14 Pt3 2.509636 1_655
Al14 Pt5 2.509636 1_655
Al14 Al7 2.752460 1_655
Al14 Al5 2.752465 1_655
Al14 Al4 2.752466 1_655
Al14 Hf0 2.878532 1_555
Al14 Hf2 2.878532 1_555
Al14 Hf4 2.878534 1_555
Al14 Al15 2.950027 1_655
Al15 Pt2 2.509634 1_555
Al15 Pt3 2.509636 1_555
Al15 Pt4 2.509637 1_555
Al15 Al4 2.752459 1_555
Al15 Al5 2.752461 1_555
Al15 Al6 2.752463 1_555
Al15 Hf1 2.878535 1_555
Al15 Hf3 2.878538 1_555
Al15 Hf2 2.878542 1_555
