# generated using pymatgen
data_CoP4(H5O8)2
_symmetry_space_group_name_H-M   'P 1'
_cell_length_a   5.39014400
_cell_length_b   7.51095027
_cell_length_c   7.64032503
_cell_angle_alpha   99.45532224
_cell_angle_beta   98.16232785
_cell_angle_gamma   96.34663362
_symmetry_Int_Tables_number   1
_chemical_formula_structural   CoP4(H5O8)2
_chemical_formula_sum   'Co1 P4 H10 O16'
_cell_volume   299.17407970
_cell_formula_units_Z   1
loop_
 _symmetry_equiv_pos_site_id
 _symmetry_equiv_pos_as_xyz
  1  'x, y, z'
loop_
 _atom_site_type_symbol
 _atom_site_label
 _atom_site_symmetry_multiplicity
 _atom_site_fract_x
 _atom_site_fract_y
 _atom_site_fract_z
 _atom_site_occupancy
  Co  Co0  1  0.50000000  0.50000000  0.50000000  1
  P  P0  1  0.57025900  0.22599700  0.80284300  1
  P  P1  1  0.42974100  0.77400300  0.19715700  1
  P  P2  1  0.93873300  0.25325000  0.32008400  1
  P  P3  1  0.06126700  0.74675000  0.67991600  1
  H  H0  1  0.26591600  0.10378900  0.92330000  1
  H  H1  1  0.73408400  0.89621100  0.07670000  1
  H  H2  1  0.17969300  0.00095200  0.20924700  1
  H  H3  1  0.82030700  0.99904800  0.79075300  1
  H  H4  1  0.13099400  0.22617900  0.57830300  1
  H  H5  1  0.86900600  0.77382100  0.42169700  1
  H  H6  1  0.55900200  0.28218000  0.17528300  1
  H  H7  1  0.44099800  0.71782000  0.82471700  1
  H  H8  1  0.84442500  0.46548300  0.82447200  1
  H  H9  1  0.15557500  0.53451700  0.17552800  1
  O  O0  1  0.42830200  0.28599900  0.64098700  1
  O  O1  1  0.57169800  0.71400100  0.35901300  1
  O  O2  1  0.80437900  0.36633100  0.89763700  1
  O  O3  1  0.19562100  0.63366900  0.10236300  1
  O  O4  1  0.39596700  0.21737400  0.95506500  1
  O  O5  1  0.60403300  0.78262600  0.04493500  1
  O  O6  1  0.35916700  0.96851200  0.24363600  1
  O  O7  1  0.64083300  0.03148800  0.75636400  1
  O  O8  1  0.15353500  0.40667400  0.32194900  1
  O  O9  1  0.84646500  0.59332600  0.67805100  1
  O  O10  1  0.67166400  0.33123800  0.29347500  1
  O  O11  1  0.32833600  0.66876200  0.70652500  1
  O  O12  1  0.93212600  0.08557000  0.17633300  1
  O  O13  1  0.06787400  0.91443000  0.82366700  1
  O  O14  1  0.94975000  0.20738700  0.51406400  1
  O  O15  1  0.05025000  0.79261300  0.48593600  1
loop_
_geom_bond_atom_site_label_1
_geom_bond_atom_site_label_2
_geom_bond_distance
_geom_bond_site_symmetry_2
Co0 O0 2.107843 1_555
Co0 O1 2.107843 1_555
Co0 O9 2.122591 1_555
Co0 O8 2.122591 1_555
Co0 O11 2.229227 1_555
Co0 O10 2.229227 1_555
H0 O4 1.014678 1_555
H0 O13 1.679194 1_545
H1 O5 1.014678 1_555
H1 O12 1.679194 1_565
H2 O6 1.032094 1_545
H2 O12 1.546799 1_455
H3 O7 1.032094 1_565
H3 O13 1.546799 1_655
H4 O14 1.012822 1_455
H4 O0 1.597352 1_555
H5 O15 1.012822 1_655
H5 O1 1.597352 1_555
H6 O10 1.002740 1_555
H7 O11 1.002740 1_555
H8 O2 1.024304 1_555
H8 O9 1.589888 1_555
H9 O3 1.024304 1_555
H9 O8 1.589888 1_555
O0 P0 1.519378 1_555
O1 P1 1.519378 1_555
O2 P0 1.556799 1_555
O3 P1 1.556799 1_555
O4 P0 1.600299 1_555
O5 P1 1.600299 1_555
O6 P1 1.547886 1_555
O7 P0 1.547886 1_555
O8 P2 1.537404 1_455
O9 P3 1.537404 1_655
O10 P2 1.612197 1_555
O11 P3 1.612197 1_555
O12 P2 1.522571 1_555
O13 P3 1.522571 1_555
O14 P2 1.570348 1_555
O15 P3 1.570348 1_555
