# generated using pymatgen
data_Nb6HI11
_symmetry_space_group_name_H-M   'P 1'
_cell_length_a   11.59629900
_cell_length_b   13.73478100
_cell_length_c   15.97126400
_cell_angle_alpha   90.00000000
_cell_angle_beta   90.00000000
_cell_angle_gamma   90.00000000
_symmetry_Int_Tables_number   1
_chemical_formula_structural   Nb6HI11
_chemical_formula_sum   'Nb24 H4 I44'
_cell_volume   2543.78517659
_cell_formula_units_Z   4
loop_
 _symmetry_equiv_pos_site_id
 _symmetry_equiv_pos_as_xyz
  1  'x, y, z'
loop_
 _atom_site_type_symbol
 _atom_site_label
 _atom_site_symmetry_multiplicity
 _atom_site_fract_x
 _atom_site_fract_y
 _atom_site_fract_z
 _atom_site_occupancy
  Nb  Nb0  1  0.91162200  0.27573600  0.60690100  1
  Nb  Nb1  1  0.41162200  0.72426400  0.39309900  1
  Nb  Nb2  1  0.41162200  0.22426400  0.10690100  1
  Nb  Nb3  1  0.91162200  0.77573600  0.89309900  1
  Nb  Nb4  1  0.11610500  0.22651000  0.40097500  1
  Nb  Nb5  1  0.61610500  0.77349000  0.59902500  1
  Nb  Nb6  1  0.61610500  0.27349000  0.90097500  1
  Nb  Nb7  1  0.11610500  0.72651000  0.09902500  1
  Nb  Nb8  1  0.87341000  0.17421500  0.45115200  1
  Nb  Nb9  1  0.37341000  0.82578500  0.54884800  1
  Nb  Nb10  1  0.37341000  0.32578500  0.95115200  1
  Nb  Nb11  1  0.87341000  0.67421500  0.04884800  1
  Nb  Nb12  1  0.14074300  0.33498900  0.54842300  1
  Nb  Nb13  1  0.64074300  0.66501100  0.45157700  1
  Nb  Nb14  1  0.64074300  0.16501100  0.04842300  1
  Nb  Nb15  1  0.14074300  0.83498900  0.95157700  1
  Nb  Nb16  1  0.07836500  0.12781600  0.55120300  1
  Nb  Nb17  1  0.57836500  0.87218400  0.44879700  1
  Nb  Nb18  1  0.57836500  0.37218400  0.05120300  1
  Nb  Nb19  1  0.07836500  0.62781600  0.94879700  1
  Nb  Nb20  1  0.93243900  0.36930400  0.44868700  1
  Nb  Nb21  1  0.43243900  0.63069600  0.55131300  1
  Nb  Nb22  1  0.43243900  0.13069600  0.94868700  1
  Nb  Nb23  1  0.93243900  0.86930400  0.05131300  1
  H  H0  1  0.00966600  0.25263600  0.50169300  1
  H  H1  1  0.50966600  0.74736400  0.49830700  1
  H  H2  1  0.50966600  0.24736400  0.00169300  1
  H  H3  1  0.00966600  0.75263600  0.99830700  1
  I  I0  1  0.85090800  0.07340000  0.61164400  1
  I  I1  1  0.35090800  0.92660000  0.38835600  1
  I  I2  1  0.35090800  0.42660000  0.11164400  1
  I  I3  1  0.85090800  0.57340000  0.88835600  1
  I  I4  1  0.15632400  0.43250100  0.38832300  1
  I  I5  1  0.65632400  0.56749900  0.61167700  1
  I  I6  1  0.65632400  0.06749900  0.88832300  1
  I  I7  1  0.15632400  0.93250100  0.11167700  1
  I  I8  1  0.97718200  0.47885700  0.60188300  1
  I  I9  1  0.47718200  0.52114300  0.39811700  1
  I  I10  1  0.47718200  0.02114300  0.10188300  1
  I  I11  1  0.97718200  0.97885700  0.89811700  1
  I  I12  1  0.03266800  0.02739200  0.39472800  1
  I  I13  1  0.53266800  0.97260800  0.60527200  1
  I  I14  1  0.53266800  0.47260800  0.89472800  1
  I  I15  1  0.03266800  0.52739200  0.10527200  1
  I  I16  1  0.10957400  0.23194800  0.70815700  1
  I  I17  1  0.60957400  0.76805200  0.29184300  1
  I  I18  1  0.60957400  0.26805200  0.20815700  1
  I  I19  1  0.10957400  0.73194800  0.79184300  1
  I  I20  1  0.92518800  0.26472200  0.29070700  1
  I  I21  1  0.42518800  0.73527800  0.70929300  1
  I  I22  1  0.42518800  0.23527800  0.79070700  1
  I  I23  1  0.92518800  0.76472200  0.20929300  1
  I  I24  1  0.70902000  0.31344500  0.51114500  1
  I  I25  1  0.20902000  0.68655500  0.48885500  1
  I  I26  1  0.20902000  0.18655500  0.01114500  1
  I  I27  1  0.70902000  0.81344500  0.98885500  1
  I  I28  1  0.30780000  0.18866500  0.51114800  1
  I  I29  1  0.80780000  0.81133500  0.48885200  1
  I  I30  1  0.80780000  0.31133500  0.01114800  1
  I  I31  1  0.30780000  0.68866500  0.98885200  1
  I  I32  1  0.17214000  0.94111700  0.61863000  1
  I  I33  1  0.67214000  0.05888300  0.38137000  1
  I  I34  1  0.67214000  0.55888300  0.11863000  1
  I  I35  1  0.17214000  0.44111700  0.88137000  1
  I  I36  1  0.82610700  0.54418900  0.37366300  1
  I  I37  1  0.32610700  0.45581100  0.62633700  1
  I  I38  1  0.32610700  0.95581100  0.87366300  1
  I  I39  1  0.82610700  0.04418900  0.12633700  1
  I  I40  1  0.78433600  0.31926700  0.76502900  1
  I  I41  1  0.28433600  0.68073300  0.23497100  1
  I  I42  1  0.28433600  0.18073300  0.26502900  1
  I  I43  1  0.78433600  0.81926700  0.73497100  1
loop_
_geom_bond_atom_site_label_1
_geom_bond_atom_site_label_2
_geom_bond_distance
_geom_bond_site_symmetry_2
H0 Nb20 2.021486 1_455
H0 Nb12 2.036377 1_555
H0 Nb16 2.049148 1_555
H0 Nb0 2.053469 1_455
H0 Nb4 2.059085 1_555
H0 Nb8 2.075649 1_455
H1 Nb21 2.021486 1_555
H1 Nb13 2.036377 1_555
H1 Nb17 2.049148 1_555
H1 Nb1 2.053469 1_555
H1 Nb5 2.059085 1_555
H1 Nb9 2.075649 1_555
H2 Nb22 2.021486 1_554
H2 Nb14 2.036377 1_555
H2 Nb18 2.049148 1_555
H2 Nb2 2.053469 1_555
H2 Nb6 2.059085 1_554
H2 Nb10 2.075649 1_554
H3 Nb23 2.021486 1_456
H3 Nb15 2.036377 1_555
H3 Nb19 2.049148 1_555
H3 Nb3 2.053469 1_455
H3 Nb7 2.059085 1_556
H3 Nb11 2.075649 1_456
I0 Nb0 2.867839 1_555
I0 Nb16 2.906490 1_655
I0 Nb8 2.925014 1_555
I1 Nb1 2.867839 1_555
I1 Nb17 2.906490 1_555
I1 Nb9 2.925014 1_555
I2 Nb2 2.867839 1_555
I2 Nb18 2.906490 1_555
I2 Nb10 2.925014 1_554
I3 Nb3 2.867839 1_555
I3 Nb19 2.906490 1_655
I3 Nb11 2.925014 1_556
I4 Nb4 2.874536 1_555
I4 Nb12 2.892167 1_555
I4 Nb20 2.902298 1_455
I5 Nb5 2.874536 1_555
I5 Nb13 2.892167 1_555
I5 Nb21 2.902298 1_555
I6 Nb6 2.874536 1_555
I6 Nb14 2.892167 1_556
I6 Nb22 2.902298 1_555
I7 Nb7 2.874536 1_555
I7 Nb15 2.892167 1_554
I7 Nb23 2.902298 1_455
I8 Nb12 2.868981 1_655
I8 Nb0 2.892666 1_555
I8 Nb20 2.918869 1_555
I9 Nb13 2.868981 1_555
I9 Nb1 2.892666 1_555
I9 Nb21 2.918869 1_555
I10 Nb14 2.868981 1_555
I10 Nb2 2.892666 1_555
I10 Nb22 2.918869 1_554
I11 Nb15 2.868981 1_655
I11 Nb3 2.892666 1_555
I11 Nb23 2.918869 1_556
I12 Nb8 2.879128 1_455
I12 Nb4 2.902669 1_555
I12 Nb16 2.903240 1_555
I13 Nb9 2.879128 1_555
I13 Nb5 2.902669 1_555
I13 Nb17 2.903240 1_555
I14 Nb10 2.879128 1_555
I14 Nb6 2.902669 1_555
I14 Nb18 2.903240 1_556
I15 Nb11 2.879128 1_455
I15 Nb7 2.902669 1_555
I15 Nb19 2.903240 1_554
I16 Nb0 2.871648 1_455
I16 Nb16 2.908668 1_555
I16 Nb12 2.939719 1_555
I17 Nb1 2.871648 1_555
I17 Nb17 2.908668 1_555
I17 Nb13 2.939719 1_555
I18 Nb2 2.871648 1_555
I18 Nb18 2.908668 1_555
I18 Nb14 2.939719 1_555
I19 Nb3 2.871648 1_455
I19 Nb19 2.908668 1_555
I19 Nb15 2.939719 1_555
I20 Nb4 2.877235 1_655
I20 Nb20 2.904580 1_555
I20 Nb8 2.910714 1_555
I21 Nb5 2.877235 1_555
I21 Nb21 2.904580 1_555
I21 Nb9 2.910714 1_555
I22 Nb6 2.877235 1_555
I22 Nb22 2.904580 1_555
I22 Nb10 2.910714 1_555
I23 Nb7 2.877235 1_655
I23 Nb23 2.904580 1_555
I23 Nb11 2.910714 1_555
I24 Nb0 2.850785 1_555
I24 Nb8 2.865132 1_555
I24 Nb20 2.880296 1_555
I25 Nb1 2.850785 1_555
I25 Nb9 2.865132 1_555
I25 Nb21 2.880296 1_555
I26 Nb2 2.850785 1_555
I26 Nb10 2.865132 1_554
I26 Nb22 2.880296 1_554
I27 Nb3 2.850785 1_555
I27 Nb11 2.865132 1_556
I27 Nb23 2.880296 1_556
I28 Nb12 2.854178 1_555
I28 Nb16 2.861207 1_555
I28 Nb4 2.882343 1_555
I29 Nb13 2.854178 1_555
I29 Nb17 2.861207 1_555
I29 Nb5 2.882343 1_555
I30 Nb14 2.854178 1_555
I30 Nb18 2.861207 1_555
I30 Nb6 2.882343 1_554
I31 Nb15 2.854178 1_555
I31 Nb19 2.861207 1_555
I31 Nb7 2.882343 1_556
I32 Nb16 2.986254 1_565
I32 Nb9 3.032963 1_555
I33 Nb17 2.986254 1_545
I33 Nb8 3.032963 1_555
I34 Nb18 2.986254 1_555
I34 Nb11 3.032963 1_555
I35 Nb19 2.986254 1_555
I35 Nb10 3.032963 1_555
I36 Nb20 2.953950 1_555
I36 Nb13 2.987109 1_555
I37 Nb21 2.953950 1_555
I37 Nb12 2.987109 1_555
I38 Nb22 2.953950 1_565
I38 Nb15 2.987109 1_555
I39 Nb23 2.953950 1_545
I39 Nb14 2.987109 1_555
I40 Nb0 2.985692 1_555
I40 Nb6 2.985865 1_555
I41 Nb1 2.985692 1_555
I41 Nb7 2.985865 1_555
I42 Nb2 2.985692 1_555
I42 Nb4 2.985865 1_555
I43 Nb3 2.985692 1_555
I43 Nb5 2.985865 1_555
