# generated using pymatgen
data_LiMnP3(H5O7)2
_symmetry_space_group_name_H-M   'P 1'
_cell_length_a   7.50718100
_cell_length_b   9.55334999
_cell_length_c   10.24772312
_cell_angle_alpha   113.43303255
_cell_angle_beta   104.08619274
_cell_angle_gamma   88.23470592
_symmetry_Int_Tables_number   1
_chemical_formula_structural   LiMnP3(H5O7)2
_chemical_formula_sum   'Li2 Mn2 P6 H20 O28'
_cell_volume   652.26164708
_cell_formula_units_Z   2
loop_
 _symmetry_equiv_pos_site_id
 _symmetry_equiv_pos_as_xyz
  1  'x, y, z'
loop_
 _atom_site_type_symbol
 _atom_site_label
 _atom_site_symmetry_multiplicity
 _atom_site_fract_x
 _atom_site_fract_y
 _atom_site_fract_z
 _atom_site_occupancy
  Li  Li0  1  0.97167700  0.69865700  0.37562600  1
  Li  Li1  1  0.02832300  0.30134300  0.62437400  1
  Mn  Mn0  1  0.55916600  0.45041700  0.72281900  1
  Mn  Mn1  1  0.44083400  0.54958300  0.27718100  1
  P  P0  1  0.01615600  0.15639800  0.86438400  1
  P  P1  1  0.98384400  0.84360200  0.13561600  1
  P  P2  1  0.14923900  0.66090900  0.88565800  1
  P  P3  1  0.85076100  0.33909100  0.11434200  1
  P  P4  1  0.08393900  0.17539300  0.28642500  1
  P  P5  1  0.91606100  0.82460700  0.71357500  1
  H  H0  1  0.56160700  0.24501100  0.01758600  1
  H  H1  1  0.43839300  0.75498900  0.98241400  1
  H  H2  1  0.48752800  0.12652800  0.59786100  1
  H  H3  1  0.51247200  0.87347200  0.40213900  1
  H  H4  1  0.20840500  0.94948700  0.64179700  1
  H  H5  1  0.79159500  0.05051300  0.35820300  1
  H  H6  1  0.60408300  0.14074100  0.49373000  1
  H  H7  1  0.39591700  0.85925900  0.50627000  1
  H  H8  1  0.29852100  0.40910000  0.46040000  1
  H  H9  1  0.70147900  0.59090000  0.53960000  1
  H  H10  1  0.71555000  0.41312400  0.44585000  1
  H  H11  1  0.28445000  0.58687600  0.55415000  1
  H  H12  1  0.71267900  0.62259300  0.15531800  1
  H  H13  1  0.28732100  0.37740700  0.84468200  1
  H  H14  1  0.35191400  0.21494600  0.76380700  1
  H  H15  1  0.64808600  0.78505400  0.23619300  1
  H  H16  1  0.65560700  0.93859800  0.96743300  1
  H  H17  1  0.34439300  0.06140200  0.03256700  1
  H  H18  1  0.59488100  0.03650200  0.25053600  1
  H  H19  1  0.40511900  0.96349800  0.74946400  1
  O  O0  1  0.89406900  0.99786000  0.81984300  1
  O  O1  1  0.10593100  0.00214000  0.18015700  1
  O  O2  1  0.12062800  0.72536600  0.04707000  1
  O  O3  1  0.87937200  0.27463400  0.95293000  1
  O  O4  1  0.99306900  0.81817900  0.27115600  1
  O  O5  1  0.00693100  0.18182100  0.72884400  1
  O  O6  1  0.80227400  0.83486300  0.03148500  1
  O  O7  1  0.19772600  0.16513700  0.96851500  1
  O  O8  1  0.93497600  0.49578600  0.20986600  1
  O  O9  1  0.06502400  0.50421400  0.79013400  1
  O  O10  1  0.36565600  0.66031600  0.90864400  1
  O  O11  1  0.63434400  0.33968400  0.09135600  1
  O  O12  1  0.74528700  0.73173600  0.68905300  1
  O  O13  1  0.25471300  0.26826400  0.31094700  1
  O  O14  1  0.98928600  0.81698200  0.58638300  1
  O  O15  1  0.01071400  0.18301800  0.41361700  1
  O  O16  1  0.09238500  0.78760600  0.82456800  1
  O  O17  1  0.90761500  0.21239400  0.17543200  1
  O  O18  1  0.38730500  0.32533200  0.80292000  1
  O  O19  1  0.61269500  0.67466800  0.19708000  1
  O  O20  1  0.56336700  0.19920700  0.58511300  1
  O  O21  1  0.43663300  0.80079300  0.41488700  1
  O  O22  1  0.31997200  0.49206400  0.56453400  1
  O  O23  1  0.68002800  0.50793600  0.43546600  1
  O  O24  1  0.66002200  0.01746200  0.33763500  1
  O  O25  1  0.33997800  0.98253800  0.66236500  1
  O  O26  1  0.45105800  0.99945300  0.05441200  1
  O  O27  1  0.54894200  0.00054700  0.94558800  1
loop_
_geom_bond_atom_site_label_1
_geom_bond_atom_site_label_2
_geom_bond_distance
_geom_bond_site_symmetry_2
Li0 O4 1.882277 1_555
Li0 O14 1.971895 1_555
Li0 O8 1.975913 1_555
Li1 O5 1.882277 1_555
Li1 O15 1.971895 1_555
Li1 O9 1.975913 1_555
Mn0 O22 2.250624 1_555
Mn0 O20 2.252845 1_555
Mn0 O18 2.270911 1_555
Mn0 O10 2.808498 1_555
Mn1 O23 2.250624 1_555
Mn1 O21 2.252845 1_555
Mn1 O19 2.270911 1_555
Mn1 O11 2.808498 1_555
H0 O11 0.986594 1_555
H1 O10 0.986594 1_555
H2 O20 0.977755 1_555
H3 O21 0.977755 1_555
H4 O25 0.992321 1_555
H5 O24 0.992321 1_555
H6 O20 0.997582 1_555
H7 O21 0.997582 1_555
H8 O22 1.021964 1_555
H8 O13 1.551520 1_555
H9 O23 1.021964 1_555
H9 O12 1.551520 1_555
H10 O23 0.975103 1_555
H11 O22 0.975103 1_555
H12 O19 0.978809 1_555
H13 O18 0.978809 1_555
H14 O18 0.986192 1_555
H15 O19 0.986192 1_555
H16 O27 1.015131 1_565
H16 O6 1.650343 1_556
H17 O26 1.015131 1_545
H17 O7 1.650343 1_554
H18 O24 0.989995 1_555
H19 O25 0.989995 1_555
O0 P5 1.609281 1_555
O0 P0 1.635340 1_665
O1 P4 1.609281 1_555
O1 P1 1.635340 1_445
O2 P2 1.586207 1_554
O2 P1 1.649420 1_455
O3 P3 1.586207 1_556
O3 P0 1.649420 1_655
O4 P1 1.487781 1_555
O5 P0 1.487781 1_555
O6 P1 1.493922 1_555
O7 P0 1.493922 1_555
O8 P3 1.480004 1_555
O9 P2 1.480004 1_555
O10 P2 1.584083 1_555
O11 P3 1.584083 1_555
O12 P5 1.493272 1_555
O13 P4 1.493272 1_555
O14 P5 1.509041 1_555
O15 P4 1.509041 1_555
O16 P2 1.574766 1_555
O16 P5 1.651950 1_455
O17 P3 1.574766 1_555
O17 P4 1.651950 1_655
