# generated using pymatgen
data_Sr4Ca(FeO2)5
_symmetry_space_group_name_H-M   'P 1'
_cell_length_a   5.72913612
_cell_length_b   6.85852700
_cell_length_c   15.00307088
_cell_angle_alpha   76.78452113
_cell_angle_beta   101.00768441
_cell_angle_gamma   90.00178433
_symmetry_Int_Tables_number   1
_chemical_formula_structural   Sr4Ca(FeO2)5
_chemical_formula_sum   'Sr8 Ca2 Fe10 O20'
_cell_volume   562.76372191
_cell_formula_units_Z   2
loop_
 _symmetry_equiv_pos_site_id
 _symmetry_equiv_pos_as_xyz
  1  'x, y, z'
loop_
 _atom_site_type_symbol
 _atom_site_label
 _atom_site_symmetry_multiplicity
 _atom_site_fract_x
 _atom_site_fract_y
 _atom_site_fract_z
 _atom_site_occupancy
  Sr  Sr0  1  0.09933200  0.15067600  0.19866600  1
  Sr  Sr1  1  0.09933800  0.65066600  0.19865300  1
  Sr  Sr2  1  0.90061100  0.84936300  0.80126300  1
  Sr  Sr3  1  0.90064900  0.34936400  0.80128300  1
  Sr  Sr4  1  0.69976400  0.05024000  0.39952900  1
  Sr  Sr5  1  0.69974800  0.55023700  0.39952700  1
  Sr  Sr6  1  0.30024400  0.94979000  0.60048800  1
  Sr  Sr7  1  0.30025600  0.44972500  0.60048000  1
  Ca  Ca0  1  0.50002900  0.25004300  0.00004600  1
  Ca  Ca1  1  0.50001100  0.74991300  0.00004300  1
  Fe  Fe0  1  0.99975800  0.50024800  0.99952400  1
  Fe  Fe1  1  0.40090500  0.09915200  0.80176300  1
  Fe  Fe2  1  0.59945100  0.40052700  0.19888400  1
  Fe  Fe3  1  0.59911100  0.90087100  0.19820700  1
  Fe  Fe4  1  0.80024600  0.69979000  0.60041400  1
  Fe  Fe5  1  0.00000800  0.00002000  0.99997900  1
  Fe  Fe6  1  0.40085900  0.59914900  0.80176000  1
  Fe  Fe7  1  0.19953300  0.30042500  0.39912000  1
  Fe  Fe8  1  0.19975300  0.80015700  0.39964500  1
  Fe  Fe9  1  0.80046300  0.19957500  0.60085800  1
  O  O0  1  0.50006100  0.24997500  0.50001800  1
  O  O1  1  0.49999400  0.75004900  0.49999800  1
  O  O2  1  0.99994600  0.25000400  0.50001500  1
  O  O3  1  0.00000600  0.75001700  0.50000100  1
  O  O4  1  0.10009000  0.14946000  0.70111000  1
  O  O5  1  0.09999900  0.64946300  0.70105000  1
  O  O6  1  0.89997900  0.35053300  0.29896100  1
  O  O7  1  0.90000000  0.85051900  0.29896400  1
  O  O8  1  0.60100000  0.14943800  0.70110700  1
  O  O9  1  0.60107100  0.64942200  0.70105100  1
  O  O10  1  0.39897900  0.35050400  0.29896000  1
  O  O11  1  0.39896100  0.85053400  0.29896500  1
  O  O12  1  0.69629700  0.04865600  0.90259700  1
  O  O13  1  0.69622200  0.54873400  0.90253500  1
  O  O14  1  0.30368000  0.45131400  0.09732700  1
  O  O15  1  0.30369900  0.95132800  0.09737600  1
  O  O16  1  0.20628400  0.04870000  0.90259600  1
  O  O17  1  0.20633500  0.54878800  0.90253900  1
  O  O18  1  0.79365200  0.45132500  0.09732900  1
  O  O19  1  0.79367400  0.95130300  0.09737300  1
loop_
_geom_bond_atom_site_label_1
_geom_bond_atom_site_label_2
_geom_bond_distance
_geom_bond_site_symmetry_2
Ca0 O18 2.617130 1_555
Ca0 O14 2.617144 1_555
Ca0 O15 2.618029 1_545
Ca0 O19 2.618139 1_545
Ca0 O13 2.618753 1_554
Ca0 O17 2.619004 1_554
Ca0 O16 2.619171 1_554
Ca0 O12 2.619334 1_554
Ca1 O14 2.617193 1_555
Ca1 O18 2.617286 1_555
Ca1 O19 2.618129 1_555
Ca1 O15 2.618271 1_555
Ca1 O17 2.618431 1_554
Ca1 O12 2.618822 1_564
Ca1 O13 2.618898 1_554
Ca1 O16 2.619063 1_564
Fe0 O13 2.016075 1_555
Fe0 O17 2.016155 1_655
Fe0 O18 2.024012 1_556
Fe0 O14 2.024039 1_656
Fe1 O12 2.013795 1_555
Fe1 O16 2.014037 1_555
Fe1 O8 2.033866 1_555
Fe1 O4 2.034097 1_555
Fe2 O18 2.021230 1_555
Fe2 O14 2.021303 1_555
Fe2 O6 2.028263 1_555
Fe2 O10 2.028339 1_555
Fe3 O19 2.013818 1_555
Fe3 O15 2.013850 1_555
Fe3 O7 2.035242 1_555
Fe3 O11 2.035330 1_555
Fe4 O3 2.029555 1_655
Fe4 O5 2.029671 1_655
Fe4 O1 2.029895 1_555
Fe4 O9 2.029920 1_555
Fe5 O16 2.019664 1_555
Fe5 O12 2.019868 1_455
Fe5 O15 2.019903 1_546
Fe5 O19 2.020036 1_446
Fe6 O17 2.012987 1_555
Fe6 O13 2.013191 1_555
Fe6 O5 2.034743 1_555
Fe6 O9 2.034984 1_555
Fe7 O6 2.024985 1_455
Fe7 O10 2.025206 1_555
Fe7 O2 2.034726 1_455
Fe7 O0 2.034933 1_555
Fe8 O3 2.028808 1_555
Fe8 O1 2.029339 1_555
Fe8 O7 2.030038 1_455
Fe8 O11 2.030577 1_555
Fe9 O4 2.026036 1_655
Fe9 O8 2.026358 1_555
Fe9 O2 2.033673 1_555
Fe9 O0 2.033952 1_555
O0 Sr6 2.657308 1_545
O0 Sr4 2.657393 1_555
O0 Sr5 2.657396 1_555
O0 Sr7 2.657463 1_555
O1 Sr4 2.657182 1_565
O1 Sr6 2.657576 1_555
O1 Sr5 2.657684 1_555
O1 Sr7 2.657764 1_555
O2 Sr5 2.657373 1_555
O2 Sr4 2.657405 1_555
O2 Sr7 2.657433 1_655
O2 Sr6 2.657537 1_645
O3 Sr4 2.657400 1_465
O3 Sr5 2.657610 1_455
O3 Sr6 2.657626 1_555
O3 Sr7 2.657758 1_555
O4 Sr2 2.653631 1_445
O4 Sr3 2.653696 1_455
O4 Sr7 2.659875 1_555
O4 Sr6 2.660030 1_545
O5 Sr3 2.653807 1_455
O5 Sr2 2.653975 1_455
O5 Sr6 2.659911 1_555
O5 Sr7 2.660050 1_555
O6 Sr1 2.654516 1_655
O6 Sr0 2.654620 1_655
O6 Sr4 2.659710 1_555
O6 Sr5 2.659773 1_555
O7 Sr0 2.654469 1_665
O7 Sr1 2.654740 1_655
O7 Sr5 2.659740 1_555
O7 Sr4 2.659853 1_565
O8 Sr2 2.653536 1_545
O8 Sr3 2.653867 1_555
O8 Sr6 2.659786 1_545
O8 Sr7 2.659854 1_555
O9 Sr3 2.653661 1_555
O9 Sr2 2.653900 1_555
O9 Sr7 2.659780 1_555
O9 Sr6 2.660213 1_555
O10 Sr0 2.654420 1_555
O10 Sr1 2.654616 1_555
O10 Sr4 2.659647 1_555
O10 Sr5 2.659764 1_555
O11 Sr0 2.654458 1_565
O11 Sr1 2.654675 1_555
O11 Sr4 2.659724 1_565
O11 Sr5 2.659771 1_555
O12 Sr2 2.679494 1_545
O12 Sr3 2.679695 1_555
O13 Sr2 2.679165 1_555
O13 Sr3 2.679241 1_555
O14 Sr0 2.679553 1_555
O14 Sr1 2.679748 1_555
O15 Sr1 2.679258 1_555
O15 Sr0 2.679394 1_565
O16 Sr3 2.679457 1_455
O16 Sr2 2.679696 1_445
O17 Sr2 2.679196 1_455
O17 Sr3 2.679473 1_455
O18 Sr0 2.679628 1_655
O18 Sr1 2.679679 1_655
O19 Sr1 2.679297 1_655
O19 Sr0 2.679471 1_665
