# generated using pymatgen
data_GaBN2
_symmetry_space_group_name_H-M   'P 1'
_cell_length_a   2.83720000
_cell_length_b   2.83720000
_cell_length_c   4.24938700
_cell_angle_alpha   90.00000000
_cell_angle_beta   90.00000000
_cell_angle_gamma   90.00000000
_symmetry_Int_Tables_number   1
_chemical_formula_structural   GaBN2
_chemical_formula_sum   'Ga1 B1 N2'
_cell_volume   34.20630685
_cell_formula_units_Z   1
loop_
 _symmetry_equiv_pos_site_id
 _symmetry_equiv_pos_as_xyz
  1  'x, y, z'
loop_
 _atom_site_type_symbol
 _atom_site_label
 _atom_site_symmetry_multiplicity
 _atom_site_fract_x
 _atom_site_fract_y
 _atom_site_fract_z
 _atom_site_occupancy
  Ga  Ga0  1  0.50000000  0.50000000  0.50000000  1
  B  B0  1  0.00000000  0.00000000  0.00000000  1
  N  N0  1  0.50000000  0.00000000  0.80161700  1
  N  N1  1  0.00000000  0.50000000  0.19838300  1
loop_
_geom_bond_atom_site_label_1
_geom_bond_atom_site_label_2
_geom_bond_distance
_geom_bond_site_symmetry_2
Ga0 N0 1.911844 1_555
Ga0 N0 1.911844 1_565
Ga0 N1 1.911844 1_555
Ga0 N1 1.911844 1_655
B0 N1 1.650177 1_555
B0 N1 1.650177 1_545
B0 N0 1.650177 1_554
B0 N0 1.650177 1_454
