# generated using pymatgen
data_Ba2Tl2Mo3O10
_symmetry_space_group_name_H-M   'P 1'
_cell_length_a   3.92841700
_cell_length_b   3.93585376
_cell_length_c   18.76522612
_cell_angle_alpha   95.54331559
_cell_angle_beta   94.82714289
_cell_angle_gamma   90.05418263
_symmetry_Int_Tables_number   1
_chemical_formula_structural   Ba2Tl2Mo3O10
_chemical_formula_sum   'Ba2 Tl2 Mo3 O10'
_cell_volume   287.74862841
_cell_formula_units_Z   1
loop_
 _symmetry_equiv_pos_site_id
 _symmetry_equiv_pos_as_xyz
  1  'x, y, z'
loop_
 _atom_site_type_symbol
 _atom_site_label
 _atom_site_symmetry_multiplicity
 _atom_site_fract_x
 _atom_site_fract_y
 _atom_site_fract_z
 _atom_site_occupancy
  Ba  Ba0  1  0.15598200  0.19988300  0.28794200  1
  Ba  Ba1  1  0.82762100  0.91735600  0.70304800  1
  Tl  Tl0  1  0.71518100  0.81839300  0.42713500  1
  Tl  Tl1  1  0.26778100  0.33337100  0.55469200  1
  Mo  Mo0  1  0.37298600  0.47153300  0.82878400  1
  Mo  Mo1  1  0.60426400  0.64109900  0.16243100  1
  Mo  Mo2  1  0.54459100  0.57812400  0.00866600  1
  O  O0  1  0.87617200  0.47189400  0.83103000  1
  O  O1  1  0.33672700  0.42707900  0.72234400  1
  O  O2  1  0.37491000  0.97242100  0.83008000  1
  O  O3  1  0.76147500  0.70890100  0.53565000  1
  O  O4  1  0.54025200  0.07801800  0.00586300  1
  O  O5  1  0.60970800  0.14906200  0.18035000  1
  O  O6  1  0.66711900  0.69898700  0.31173800  1
  O  O7  1  0.10604700  0.64472800  0.16893500  1
  O  O8  1  0.21636600  0.15314600  0.42882300  1
  O  O9  1  0.04152200  0.57859100  0.00554200  1
loop_
_geom_bond_atom_site_label_1
_geom_bond_atom_site_label_2
_geom_bond_distance
_geom_bond_site_symmetry_2
Ba0 O8 2.658488 1_555
Ba0 O6 2.780003 1_455
Ba0 O6 2.786097 1_555
Ba0 O5 2.796726 1_555
Ba0 O5 2.813107 1_455
Ba0 O6 2.842785 1_445
Ba0 O6 2.853872 1_545
Ba0 O7 2.961994 1_555
Ba0 O7 2.963553 1_545
Ba1 O1 2.796253 1_555
Ba1 O1 2.803443 1_565
Ba1 O1 2.806248 1_655
Ba1 O1 2.808210 1_665
Ba1 O2 3.064077 1_655
Ba1 O0 3.078508 1_565
Ba1 O2 3.083285 1_555
Ba1 O0 3.100824 1_555
Ba1 O3 3.157924 1_555
Mo0 O0 1.955689 1_455
Mo0 O2 1.966944 1_545
Mo0 O2 1.969221 1_555
Mo0 O0 1.973621 1_555
Mo0 O1 1.981148 1_555
Mo1 O7 1.964663 1_655
Mo1 O7 1.971209 1_555
Mo1 O5 1.994850 1_565
Mo1 O5 1.997139 1_555
Mo1 O6 2.779025 1_555
Mo2 O9 1.957961 1_655
Mo2 O4 1.963980 1_555
Mo2 O9 1.972205 1_555
Mo2 O4 1.973337 1_565
O3 Tl0 2.114876 1_555
O3 Tl1 2.501257 1_655
O3 Tl1 2.507373 1_555
O6 Tl0 2.163354 1_555
O8 Tl0 2.363055 1_545
O8 Tl0 2.364291 1_445
O8 Tl1 2.391352 1_555
