# generated using pymatgen
data_Mg14CdC
_symmetry_space_group_name_H-M   'P 1'
_cell_length_a   6.25683436
_cell_length_b   6.25683387
_cell_length_c   9.97925282
_cell_angle_alpha   90.00000000
_cell_angle_beta   90.00000000
_cell_angle_gamma   120.00000258
_symmetry_Int_Tables_number   1
_chemical_formula_structural   Mg14CdC
_chemical_formula_sum   'Mg14 Cd1 C1'
_cell_volume   338.32798929
_cell_formula_units_Z   1
loop_
 _symmetry_equiv_pos_site_id
 _symmetry_equiv_pos_as_xyz
  1  'x, y, z'
loop_
 _atom_site_type_symbol
 _atom_site_label
 _atom_site_symmetry_multiplicity
 _atom_site_fract_x
 _atom_site_fract_y
 _atom_site_fract_z
 _atom_site_occupancy
  Mg  Mg0  1  0.16941496  0.83470698  0.12500000  1
  Mg  Mg1  1  0.16040227  0.83020063  0.62500000  1
  Mg  Mg2  1  0.66529302  0.33058504  0.12500000  1
  Mg  Mg3  1  0.66979937  0.33959773  0.62500000  1
  Mg  Mg4  1  0.66529302  0.83470698  0.12500000  1
  Mg  Mg5  1  0.66979937  0.83020063  0.62500000  1
  Mg  Mg6  1  0.32667691  0.17332309  0.38984646  1
  Mg  Mg7  1  0.32667691  0.17332309  0.86015354  1
  Mg  Mg8  1  0.32667691  0.65335482  0.38984646  1
  Mg  Mg9  1  0.32667691  0.65335482  0.86015354  1
  Mg  Mg10  1  0.84664518  0.17332309  0.38984646  1
  Mg  Mg11  1  0.84664518  0.17332309  0.86015354  1
  Mg  Mg12  1  0.83333300  0.66666700  0.37249974  1
  Mg  Mg13  1  0.83333300  0.66666700  0.87750026  1
  Cd  Cd0  1  0.16666700  0.33333300  0.12500000  1
  C  C0  1  0.16666700  0.33333300  0.62500000  1
loop_
_geom_bond_atom_site_label_1
_geom_bond_atom_site_label_2
_geom_bond_distance
_geom_bond_site_symmetry_2
Mg0 Mg13 3.068644 1_454
Mg0 Mg12 3.068644 1_455
Mg0 Mg2 3.102627 1_565
Mg0 Mg4 3.102627 1_555
Mg0 Mg2 3.154207 1_455
Mg0 Mg4 3.154207 1_455
Mg0 Mg9 3.218305 1_554
Mg0 Mg8 3.218305 1_555
Mg0 Mg6 3.218311 1_565
Mg0 Mg7 3.218311 1_564
Mg1 Mg13 3.080597 1_455
Mg1 Mg12 3.080597 1_455
Mg2 Mg4 3.102627 1_545
Mg2 Mg4 3.154207 1_555
Mg2 Mg7 3.218311 1_554
Mg2 Mg6 3.218311 1_555
Mg4 Mg8 3.218311 1_555
Mg4 Mg9 3.218311 1_554
Mg10 Mg12 3.134033 1_545
Mg10 Mg12 3.134033 1_555
Mg10 Mg2 3.218305 1_555
Mg10 Mg4 3.218311 1_545
Mg11 Mg13 3.134033 1_545
Mg11 Mg13 3.134033 1_555
Mg11 Mg2 3.218305 1_556
Mg11 Mg4 3.218311 1_546
Mg12 Mg4 3.068637 1_555
Mg12 Mg2 3.068644 1_555
Mg12 Mg5 3.080591 1_555
Mg12 Mg3 3.080597 1_555
Mg12 Mg6 3.134033 1_665
Mg12 Mg6 3.134033 1_555
Mg12 Mg8 3.134033 1_655
Mg12 Mg8 3.134033 1_555
Mg13 Mg4 3.068637 1_556
Mg13 Mg2 3.068644 1_556
Mg13 Mg5 3.080591 1_555
Mg13 Mg3 3.080597 1_555
Mg13 Mg7 3.134033 1_665
Mg13 Mg7 3.134033 1_555
Mg13 Mg9 3.134033 1_555
Mg13 Mg9 3.134033 1_655
Cd0 Mg4 3.128452 1_555
Cd0 Mg0 3.128452 1_555
Cd0 Mg0 3.128452 1_545
Cd0 Mg4 3.128452 1_445
Cd0 Mg2 3.128453 1_555
Cd0 Mg2 3.128453 1_455
Cd0 Mg7 3.161048 1_554
Cd0 Mg6 3.161048 1_555
Cd0 Mg9 3.161054 1_554
Cd0 Mg8 3.161054 1_555
Cd0 Mg10 3.161054 1_455
Cd0 Mg11 3.161054 1_454
C0 Mg6 2.917830 1_555
C0 Mg7 2.917830 1_555
C0 Mg8 2.917837 1_555
C0 Mg9 2.917837 1_555
C0 Mg10 2.917837 1_455
C0 Mg11 2.917837 1_455
