# generated using pymatgen
data_CoH12PdC4(NO3)4
_symmetry_space_group_name_H-M   'P 1'
_cell_length_a   9.00791763
_cell_length_b   9.00791763
_cell_length_c   7.18277408
_cell_angle_alpha   66.78658556
_cell_angle_beta   66.78658556
_cell_angle_gamma   111.20863718
_symmetry_Int_Tables_number   1
_chemical_formula_structural   CoH12PdC4(NO3)4
_chemical_formula_sum   'Co1 H12 Pd1 C4 N4 O12'
_cell_volume   389.23142154
_cell_formula_units_Z   1
loop_
 _symmetry_equiv_pos_site_id
 _symmetry_equiv_pos_as_xyz
  1  'x, y, z'
loop_
 _atom_site_type_symbol
 _atom_site_label
 _atom_site_symmetry_multiplicity
 _atom_site_fract_x
 _atom_site_fract_y
 _atom_site_fract_z
 _atom_site_occupancy
  Co  Co0  1  0.50000000  0.50000000  0.50000000  1
  H  H0  1  0.80418700  0.99513400  0.31235800  1
  H  H1  1  0.99513400  0.80418700  0.31235800  1
  H  H2  1  0.19581300  0.00486600  0.68764200  1
  H  H3  1  0.00486600  0.19581300  0.68764200  1
  H  H4  1  0.86928400  0.18704400  0.32551100  1
  H  H5  1  0.18704400  0.86928400  0.32551100  1
  H  H6  1  0.13071600  0.81295600  0.67448900  1
  H  H7  1  0.81295600  0.13071600  0.67448900  1
  H  H8  1  0.04223000  0.21362000  0.08499000  1
  H  H9  1  0.21362000  0.04223000  0.08499000  1
  H  H10  1  0.95777000  0.78638000  0.91501000  1
  H  H11  1  0.78638000  0.95777000  0.91501000  1
  Pd  Pd0  1  0.00000000  0.00000000  0.50000000  1
  C  C0  1  0.42942200  0.78076500  0.40494000  1
  C  C1  1  0.78076500  0.42942200  0.40494000  1
  C  C2  1  0.57057800  0.21923500  0.59506000  1
  C  C3  1  0.21923500  0.57057800  0.59506000  1
  N  N0  1  0.91944800  0.11165100  0.27940900  1
  N  N1  1  0.11165100  0.91944800  0.27940900  1
  N  N2  1  0.08055200  0.88834900  0.72059100  1
  N  N3  1  0.88834900  0.08055200  0.72059100  1
  O  O0  1  0.58421100  0.77648700  0.34624000  1
  O  O1  1  0.77648700  0.58421100  0.34624000  1
  O  O2  1  0.41578900  0.22351300  0.65376000  1
  O  O3  1  0.22351300  0.41578900  0.65376000  1
  O  O4  1  0.44164600  0.93734000  0.31948100  1
  O  O5  1  0.93734000  0.44164600  0.31948100  1
  O  O6  1  0.55835400  0.06266000  0.68051900  1
  O  O7  1  0.06266000  0.55835400  0.68051900  1
  O  O8  1  0.45914400  0.45914400  0.78022100  1
  O  O9  1  0.54085600  0.54085600  0.21977900  1
  O  O10  1  0.64322900  0.35677100  0.00000000  1
  O  O11  1  0.35677100  0.64322900  0.00000000  1
loop_
_geom_bond_atom_site_label_1
_geom_bond_atom_site_label_2
_geom_bond_distance
_geom_bond_site_symmetry_2
Co0 O9 1.748204 1_555
Co0 O8 1.748204 1_555
Co0 O1 1.949969 1_555
Co0 O3 1.949969 1_555
Co0 O0 1.949969 1_555
Co0 O2 1.949969 1_555
H0 N0 1.028412 1_565
H1 N1 1.028412 1_655
H2 N2 1.028412 1_545
H3 N3 1.028412 1_455
H4 N0 1.027828 1_555
H5 N1 1.027828 1_555
H6 N2 1.027828 1_555
H7 N3 1.027828 1_555
H8 N0 1.026312 1_455
H9 N1 1.026312 1_545
H10 N2 1.026312 1_655
H11 N3 1.026312 1_565
C0 O4 1.236950 1_555
C0 O0 1.308299 1_555
C1 O5 1.236950 1_555
C1 O1 1.308299 1_555
C2 O6 1.236950 1_555
C2 O2 1.308299 1_555
C3 O7 1.236950 1_555
C3 O3 1.308299 1_555
N0 Pd0 2.055877 1_655
N1 Pd0 2.055877 1_565
N2 Pd0 2.055877 1_565
N3 Pd0 2.055877 1_655
