# generated using pymatgen
data_Zr14Cu51
_symmetry_space_group_name_H-M   'P 1'
_cell_length_a   11.26740478
_cell_length_b   11.26740478
_cell_length_c   8.33736500
_cell_angle_alpha   90.00000000
_cell_angle_beta   90.00000000
_cell_angle_gamma   120.00000458
_symmetry_Int_Tables_number   1
_chemical_formula_structural   Zr14Cu51
_chemical_formula_sum   'Zr14 Cu51'
_cell_volume   916.65776064
_cell_formula_units_Z   1
loop_
 _symmetry_equiv_pos_site_id
 _symmetry_equiv_pos_as_xyz
  1  'x, y, z'
loop_
 _atom_site_type_symbol
 _atom_site_label
 _atom_site_symmetry_multiplicity
 _atom_site_fract_x
 _atom_site_fract_y
 _atom_site_fract_z
 _atom_site_occupancy
  Zr  Zr0  1  0.33333300  0.66666700  0.68864900  1
  Zr  Zr1  1  0.33333300  0.66666700  0.31135100  1
  Zr  Zr2  1  0.44748100  0.39635100  0.00000000  1
  Zr  Zr3  1  0.94887000  0.55251900  0.00000000  1
  Zr  Zr4  1  0.60364900  0.05113000  0.00000000  1
  Zr  Zr5  1  0.21847100  0.94413300  0.00000000  1
  Zr  Zr6  1  0.72566100  0.78152900  0.00000000  1
  Zr  Zr7  1  0.05586700  0.27433900  0.00000000  1
  Zr  Zr8  1  0.80291200  0.99336100  0.50000000  1
  Zr  Zr9  1  0.19044900  0.19708800  0.50000000  1
  Zr  Zr10  1  0.00663900  0.80955100  0.50000000  1
  Zr  Zr11  1  0.86041800  0.33779700  0.50000000  1
  Zr  Zr12  1  0.47737900  0.13958200  0.50000000  1
  Zr  Zr13  1  0.66220300  0.52262100  0.50000000  1
  Cu  Cu0  1  0.39095900  0.48504200  0.50000000  1
  Cu  Cu1  1  0.09408300  0.60904100  0.50000000  1
  Cu  Cu2  1  0.51495800  0.90591700  0.50000000  1
  Cu  Cu3  1  0.27357100  0.84769400  0.50000000  1
  Cu  Cu4  1  0.57412300  0.72642900  0.50000000  1
  Cu  Cu5  1  0.15230600  0.42587700  0.50000000  1
  Cu  Cu6  1  0.52881900  0.59108300  0.75395100  1
  Cu  Cu7  1  0.06226400  0.47118100  0.75395100  1
  Cu  Cu8  1  0.40891700  0.93773600  0.75395100  1
  Cu  Cu9  1  0.14479500  0.73892200  0.76802900  1
  Cu  Cu10  1  0.59412700  0.85520500  0.76802900  1
  Cu  Cu11  1  0.26107800  0.40587300  0.76802900  1
  Cu  Cu12  1  0.14479500  0.73892200  0.23197100  1
  Cu  Cu13  1  0.59412700  0.85520500  0.23197100  1
  Cu  Cu14  1  0.26107800  0.40587300  0.23197100  1
  Cu  Cu15  1  0.52881900  0.59108300  0.24604900  1
  Cu  Cu16  1  0.06226400  0.47118100  0.24604900  1
  Cu  Cu17  1  0.40891700  0.93773600  0.24604900  1
  Cu  Cu18  1  0.00000000  0.00000000  0.00000000  1
  Cu  Cu19  1  0.66666700  0.33333300  0.00000000  1
  Cu  Cu20  1  0.43681000  0.33375400  0.67104200  1
  Cu  Cu21  1  0.89694400  0.56319000  0.67104200  1
  Cu  Cu22  1  0.66624600  0.10305600  0.67104200  1
  Cu  Cu23  1  0.22863300  0.00094400  0.67055800  1
  Cu  Cu24  1  0.77231100  0.77136700  0.67055800  1
  Cu  Cu25  1  0.99905600  0.22768900  0.67055800  1
  Cu  Cu26  1  0.22863300  0.00094400  0.32944200  1
  Cu  Cu27  1  0.77231100  0.77136700  0.32944200  1
  Cu  Cu28  1  0.99905600  0.22768900  0.32944200  1
  Cu  Cu29  1  0.43681000  0.33375400  0.32895800  1
  Cu  Cu30  1  0.89694400  0.56319000  0.32895800  1
  Cu  Cu31  1  0.66624600  0.10305600  0.32895800  1
  Cu  Cu32  1  0.00000000  0.00000000  0.70719300  1
  Cu  Cu33  1  0.66666700  0.33333300  0.70760000  1
  Cu  Cu34  1  0.66666700  0.33333300  0.29240000  1
  Cu  Cu35  1  0.00000000  0.00000000  0.29280700  1
  Cu  Cu36  1  0.82640200  0.04456400  0.84710100  1
  Cu  Cu37  1  0.21816300  0.17359800  0.84710100  1
  Cu  Cu38  1  0.95543600  0.78183700  0.84710100  1
  Cu  Cu39  1  0.83612900  0.28525300  0.84778600  1
  Cu  Cu40  1  0.44912400  0.16387100  0.84778600  1
  Cu  Cu41  1  0.71474700  0.55087600  0.84778600  1
  Cu  Cu42  1  0.83612900  0.28525300  0.15221400  1
  Cu  Cu43  1  0.44912400  0.16387100  0.15221400  1
  Cu  Cu44  1  0.71474700  0.55087600  0.15221400  1
  Cu  Cu45  1  0.82640200  0.04456400  0.15289900  1
  Cu  Cu46  1  0.21816300  0.17359800  0.15289900  1
  Cu  Cu47  1  0.95543600  0.78183700  0.15289900  1
  Cu  Cu48  1  0.44909700  0.64905200  0.00000000  1
  Cu  Cu49  1  0.19995500  0.55090300  0.00000000  1
  Cu  Cu50  1  0.35094800  0.80004500  0.00000000  1
loop_
_geom_bond_atom_site_label_1
_geom_bond_atom_site_label_2
_geom_bond_distance
_geom_bond_site_symmetry_2
Cu0 Cu5 2.425395 1_555
Cu0 Cu4 2.458343 1_555
Cu0 Cu20 2.467159 1_555
Cu0 Cu29 2.467159 1_555
Cu0 Cu6 2.543097 1_555
Cu0 Cu15 2.543097 1_555
Cu0 Cu11 2.574022 1_555
Cu0 Cu14 2.574022 1_555
Cu0 Zr13 2.868045 1_555
Cu0 Zr9 2.881111 1_555
Cu0 Zr0 2.900357 1_555
Cu0 Zr1 2.900357 1_555
Cu1 Cu3 2.425395 1_555
Cu1 Cu5 2.458343 1_555
Cu1 Cu21 2.467159 1_455
Cu1 Cu30 2.467159 1_455
Cu1 Cu7 2.543097 1_555
Cu1 Cu16 2.543097 1_555
Cu1 Cu9 2.574022 1_555
Cu1 Cu12 2.574022 1_555
Cu1 Zr11 2.868045 1_455
Cu1 Zr10 2.881111 1_555
Cu1 Zr0 2.900347 1_555
Cu1 Zr1 2.900347 1_555
Cu2 Cu4 2.425395 1_555
Cu2 Cu3 2.458343 1_555
Cu2 Cu22 2.467159 1_565
Cu2 Cu31 2.467159 1_565
Cu2 Cu8 2.543097 1_555
Cu2 Zr12 2.868045 1_565
Cu2 Zr8 2.881111 1_555
Cu2 Zr0 2.900350 1_555
Cu2 Zr1 2.900350 1_555
Cu3 Cu8 2.508111 1_555
Cu3 Cu9 2.612043 1_555
Cu3 Zr10 2.817437 1_555
Cu3 Zr0 2.908794 1_555
Cu3 Zr1 2.908794 1_555
Cu3 Zr12 2.921870 1_565
Cu4 Cu6 2.508111 1_555
Cu4 Zr8 2.817437 1_555
Cu4 Zr0 2.908803 1_555
Cu4 Zr1 2.908803 1_555
Cu4 Zr13 2.921871 1_555
Cu5 Cu7 2.508111 1_555
Cu5 Zr9 2.817437 1_555
Cu5 Zr0 2.908801 1_555
Cu5 Zr1 2.908801 1_555
Cu5 Zr11 2.921871 1_455
Cu6 Zr0 2.783715 1_555
Cu6 Zr2 2.802052 1_556
Cu6 Zr13 2.914777 1_555
Cu6 Zr6 2.995442 1_556
Cu7 Cu9 2.678426 1_555
Cu7 Zr0 2.783707 1_555
Cu7 Zr3 2.802052 1_456
Cu7 Zr11 2.914776 1_455
Cu7 Zr7 2.995438 1_556
Cu8 Cu9 2.687336 1_555
Cu8 Zr0 2.783704 1_555
Cu8 Zr4 2.802052 1_566
Cu8 Zr12 2.914776 1_565
Cu8 Zr5 2.995447 1_556
Cu9 Zr0 2.709812 1_555
Cu9 Zr5 2.802926 1_556
Cu9 Zr3 2.896286 1_456
Cu9 Zr10 3.047783 1_555
Cu10 Cu36 2.500463 1_565
Cu10 Cu2 2.574022 1_555
Cu10 Cu4 2.612043 1_555
Cu10 Cu22 2.616049 1_565
Cu10 Cu8 2.678426 1_555
Cu10 Cu6 2.687336 1_555
Cu10 Zr0 2.709819 1_555
Cu10 Cu24 2.734960 1_555
Cu10 Zr6 2.802919 1_556
Cu10 Cu48 2.830282 1_556
Cu10 Zr4 2.896286 1_566
Cu10 Zr8 3.047783 1_555
Cu11 Cu37 2.500467 1_555
Cu11 Cu5 2.612043 1_555
Cu11 Cu20 2.616049 1_555
Cu11 Cu6 2.678426 1_555
Cu11 Cu7 2.687336 1_555
Cu11 Zr0 2.709822 1_555
Cu11 Cu25 2.734960 1_455
Cu11 Zr7 2.802925 1_556
Cu11 Cu49 2.830282 1_556
Cu11 Zr2 2.896286 1_556
Cu11 Zr9 3.047783 1_555
Cu12 Cu47 2.500457 1_455
Cu12 Cu3 2.612043 1_555
Cu12 Cu30 2.616049 1_455
Cu12 Cu16 2.678426 1_555
Cu12 Cu17 2.687336 1_555
Cu12 Zr1 2.709812 1_555
Cu12 Cu26 2.734960 1_565
Cu12 Zr5 2.802926 1_555
Cu12 Cu50 2.830282 1_555
Cu12 Zr3 2.896286 1_455
Cu12 Zr10 3.047783 1_555
Cu13 Cu45 2.500463 1_565
Cu13 Cu2 2.574022 1_555
Cu13 Cu4 2.612043 1_555
Cu13 Cu31 2.616049 1_565
Cu13 Cu17 2.678426 1_555
Cu13 Cu15 2.687336 1_555
Cu13 Zr1 2.709819 1_555
Cu13 Cu27 2.734960 1_555
Cu13 Zr6 2.802919 1_555
Cu13 Cu48 2.830282 1_555
Cu13 Zr4 2.896286 1_565
Cu13 Zr8 3.047783 1_555
Cu14 Cu46 2.500467 1_555
Cu14 Cu5 2.612043 1_555
Cu14 Cu29 2.616049 1_555
Cu14 Cu15 2.678426 1_555
Cu14 Cu16 2.687336 1_555
Cu14 Zr1 2.709822 1_555
Cu14 Cu28 2.734960 1_455
Cu14 Zr7 2.802925 1_555
Cu14 Cu49 2.830282 1_555
Cu14 Zr2 2.896286 1_555
Cu14 Zr9 3.047783 1_555
Cu15 Cu48 2.455288 1_555
Cu15 Cu44 2.480940 1_555
Cu15 Cu4 2.508111 1_555
Cu15 Cu27 2.561959 1_555
Cu15 Cu29 2.636933 1_555
Cu15 Zr1 2.783715 1_555
Cu15 Zr2 2.802052 1_555
Cu15 Zr13 2.914777 1_555
Cu15 Zr6 2.995442 1_555
Cu16 Cu49 2.455288 1_555
Cu16 Cu42 2.480940 1_455
Cu16 Cu5 2.508111 1_555
Cu16 Cu28 2.561959 1_455
Cu16 Cu30 2.636933 1_455
Cu16 Zr1 2.783707 1_555
Cu16 Zr3 2.802052 1_455
Cu16 Zr11 2.914776 1_455
Cu16 Zr7 2.995438 1_555
Cu17 Cu50 2.455288 1_555
Cu17 Cu43 2.480940 1_565
Cu17 Cu3 2.508111 1_555
Cu17 Cu2 2.543097 1_555
Cu17 Cu26 2.561959 1_565
Cu17 Cu31 2.636933 1_565
Cu17 Zr1 2.783704 1_555
Cu17 Zr4 2.802052 1_565
Cu17 Zr12 2.914776 1_565
Cu17 Zr5 2.995447 1_555
Cu18 Cu35 2.441239 1_555
Cu18 Cu32 2.441239 1_554
Cu18 Cu45 2.585586 1_455
Cu18 Cu36 2.585586 1_454
Cu18 Cu46 2.585592 1_555
Cu18 Cu37 2.585592 1_554
Cu18 Cu47 2.585596 1_445
Cu18 Cu38 2.585596 1_444
Cu18 Zr5 2.829353 1_545
Cu18 Zr6 2.829360 1_445
Cu18 Zr7 2.829364 1_555
Cu19 Cu33 2.437846 1_554
Cu19 Cu34 2.437846 1_555
Cu19 Cu42 2.565967 1_555
Cu19 Cu39 2.565967 1_554
Cu19 Cu43 2.565974 1_555
Cu19 Cu40 2.565974 1_554
Cu19 Cu44 2.565977 1_555
Cu19 Cu41 2.565977 1_554
Cu19 Zr4 2.890829 1_555
Cu19 Zr3 2.890832 1_555
Cu19 Zr2 2.890840 1_555
Cu20 Cu40 2.473904 1_555
Cu20 Cu33 2.610124 1_555
Cu20 Cu6 2.636933 1_555
Cu20 Cu37 2.652285 1_555
Cu20 Zr13 2.758138 1_555
Cu20 Zr9 2.799228 1_555
Cu20 Zr2 2.819433 1_556
Cu20 Zr12 2.833573 1_555
Cu20 Cu29 2.852079 1_555
Cu21 Cu41 2.473904 1_555
Cu21 Cu33 2.610119 1_555
Cu21 Cu9 2.616049 1_655
Cu21 Cu7 2.636933 1_655
Cu21 Cu38 2.652282 1_555
Cu21 Zr11 2.758138 1_555
Cu21 Zr10 2.799228 1_655
Cu21 Zr3 2.819433 1_556
Cu21 Zr13 2.833573 1_555
Cu21 Cu30 2.852079 1_555
Cu22 Cu39 2.473904 1_555
Cu22 Cu33 2.610113 1_555
Cu22 Cu8 2.636933 1_545
Cu22 Cu36 2.652292 1_555
Cu22 Zr12 2.758138 1_555
Cu22 Zr8 2.799229 1_545
Cu22 Zr4 2.819433 1_556
Cu22 Zr11 2.833573 1_555
Cu22 Cu31 2.852079 1_555
Cu23 Cu3 2.476766 1_545
Cu23 Cu37 2.488844 1_555
Cu23 Cu8 2.561959 1_545
Cu23 Cu32 2.588880 1_555
Cu23 Cu40 2.676700 1_555
Cu23 Cu9 2.734960 1_545
Cu23 Zr10 2.745001 1_545
Cu23 Zr5 2.809591 1_546
Cu23 Zr12 2.817688 1_555
Cu23 Zr9 2.835892 1_555
Cu23 Cu26 2.844009 1_555
Cu24 Cu4 2.476766 1_555
Cu24 Cu38 2.488853 1_555
Cu24 Cu6 2.561959 1_555
Cu24 Cu32 2.588880 1_665
Cu24 Cu41 2.676700 1_555
Cu24 Zr8 2.745001 1_555
Cu24 Zr6 2.809594 1_556
Cu24 Zr13 2.817688 1_555
Cu24 Zr10 2.835891 1_655
Cu24 Cu27 2.844009 1_555
Cu25 Cu5 2.476766 1_655
Cu25 Cu36 2.488849 1_555
Cu25 Cu7 2.561959 1_655
Cu25 Cu32 2.588880 1_655
Cu25 Cu39 2.676700 1_555
Cu25 Zr9 2.745001 1_655
Cu25 Zr7 2.809592 1_656
Cu25 Zr11 2.817688 1_555
Cu25 Zr8 2.835891 1_545
Cu25 Cu28 2.844009 1_555
Cu26 Cu3 2.476766 1_545
Cu26 Cu46 2.488844 1_555
Cu26 Cu35 2.588880 1_555
Cu26 Cu43 2.676700 1_555
Cu26 Zr10 2.745001 1_545
Cu26 Zr5 2.809591 1_545
Cu26 Zr12 2.817688 1_555
Cu26 Zr9 2.835892 1_555
Cu27 Cu4 2.476766 1_555
Cu27 Cu47 2.488853 1_555
Cu27 Cu35 2.588880 1_665
Cu27 Cu44 2.676700 1_555
Cu27 Zr8 2.745001 1_555
Cu27 Zr6 2.809594 1_555
Cu27 Zr13 2.817688 1_555
Cu27 Zr10 2.835891 1_655
Cu28 Cu5 2.476766 1_655
Cu28 Cu45 2.488849 1_555
Cu28 Cu35 2.588880 1_655
Cu28 Cu42 2.676700 1_555
Cu28 Zr9 2.745001 1_655
Cu28 Zr7 2.809592 1_655
Cu28 Zr11 2.817688 1_555
Cu28 Zr8 2.835891 1_545
Cu29 Cu43 2.473904 1_555
Cu29 Cu34 2.610124 1_555
Cu29 Cu46 2.652285 1_555
Cu29 Zr13 2.758138 1_555
Cu29 Zr9 2.799228 1_555
Cu29 Zr2 2.819433 1_555
Cu29 Zr12 2.833573 1_555
Cu30 Cu44 2.473904 1_555
Cu30 Cu34 2.610119 1_555
Cu30 Cu47 2.652282 1_555
Cu30 Zr11 2.758138 1_555
Cu30 Zr10 2.799228 1_655
Cu30 Zr3 2.819433 1_555
Cu30 Zr13 2.833573 1_555
Cu31 Cu42 2.473904 1_555
Cu31 Cu34 2.610113 1_555
Cu31 Cu45 2.652292 1_555
Cu31 Zr12 2.758138 1_555
Cu31 Zr8 2.799229 1_545
Cu31 Zr4 2.819433 1_555
Cu31 Zr11 2.833573 1_555
Cu32 Cu36 2.533938 1_455
Cu32 Cu37 2.533945 1_555
Cu32 Cu38 2.533948 1_445
Cu32 Zr9 2.784765 1_555
Cu32 Zr8 2.784765 1_445
Cu32 Zr10 2.784765 1_545
Cu33 Cu39 2.517880 1_555
Cu33 Cu40 2.517886 1_555
Cu33 Cu41 2.517889 1_555
Cu33 Zr11 2.766644 1_555
Cu33 Zr12 2.766649 1_555
Cu33 Zr13 2.766653 1_555
Cu34 Cu42 2.517880 1_555
Cu34 Cu43 2.517886 1_555
Cu34 Cu44 2.517889 1_555
Cu34 Zr11 2.766644 1_555
Cu34 Zr12 2.766649 1_555
Cu34 Zr13 2.766653 1_555
Cu35 Cu45 2.533938 1_455
Cu35 Cu46 2.533945 1_555
Cu35 Cu47 2.533948 1_445
Cu35 Zr9 2.784765 1_555
Cu35 Zr8 2.784765 1_445
Cu35 Zr10 2.784765 1_545
Cu36 Cu45 2.549550 1_556
Cu36 Cu39 2.658842 1_555
Cu36 Zr4 2.848780 1_556
Cu36 Zr7 2.884228 1_656
Cu36 Zr6 2.886700 1_546
Cu36 Zr8 2.936818 1_545
Cu37 Cu46 2.549550 1_556
Cu37 Cu40 2.658831 1_555
Cu37 Zr2 2.848774 1_556
Cu37 Zr5 2.884219 1_546
Cu37 Zr7 2.886719 1_556
Cu37 Zr9 2.936820 1_555
Cu38 Cu9 2.500457 1_655
Cu38 Cu47 2.549550 1_556
Cu38 Cu41 2.658837 1_555
Cu38 Zr3 2.848770 1_556
Cu38 Zr6 2.884239 1_556
Cu38 Zr5 2.886702 1_656
Cu38 Zr10 2.936818 1_655
Cu39 Cu7 2.480940 1_655
Cu39 Cu42 2.538127 1_556
Cu39 Zr7 2.839027 1_656
Cu39 Zr3 2.909864 1_556
Cu39 Zr4 2.919050 1_556
Cu39 Zr11 2.944685 1_555
Cu40 Cu8 2.480940 1_545
Cu40 Cu43 2.538127 1_556
Cu40 Zr5 2.839033 1_546
Cu40 Zr4 2.909864 1_556
Cu40 Zr2 2.919051 1_556
Cu40 Zr12 2.944685 1_555
Cu41 Cu6 2.480940 1_555
Cu41 Cu44 2.538127 1_556
Cu41 Zr6 2.839037 1_556
Cu41 Zr2 2.909864 1_556
Cu41 Zr3 2.919051 1_556
Cu41 Zr13 2.944685 1_555
Cu42 Cu45 2.658842 1_555
Cu42 Zr7 2.839027 1_655
Cu42 Zr3 2.909864 1_555
Cu42 Zr4 2.919050 1_555
Cu42 Zr11 2.944685 1_555
Cu43 Cu46 2.658831 1_555
Cu43 Zr5 2.839033 1_545
Cu43 Zr4 2.909864 1_555
Cu43 Zr2 2.919051 1_555
Cu43 Zr12 2.944685 1_555
Cu44 Cu47 2.658837 1_555
Cu44 Zr6 2.839037 1_555
Cu44 Zr2 2.909864 1_555
Cu44 Zr3 2.919051 1_555
Cu44 Zr13 2.944685 1_555
Cu45 Zr4 2.848780 1_555
Cu45 Zr7 2.884228 1_655
Cu45 Zr6 2.886700 1_545
Cu45 Zr8 2.936818 1_545
Cu46 Zr2 2.848774 1_555
Cu46 Zr5 2.884219 1_545
Cu46 Zr7 2.886719 1_555
Cu46 Zr9 2.936820 1_555
Cu47 Zr3 2.848770 1_555
Cu47 Zr6 2.884239 1_555
Cu47 Zr5 2.886702 1_655
Cu47 Zr10 2.936818 1_655
Cu48 Cu49 2.449253 1_555
Cu48 Cu50 2.449253 1_555
Cu48 Cu6 2.455288 1_554
Cu48 Zr6 2.699465 1_555
Cu48 Zr2 2.838224 1_555
Cu48 Zr1 2.956020 1_555
Cu48 Zr0 2.956020 1_554
Cu49 Cu50 2.449253 1_555
Cu49 Cu7 2.455288 1_554
Cu49 Zr7 2.699465 1_555
Cu49 Zr3 2.838224 1_455
Cu49 Zr1 2.956016 1_555
Cu49 Zr0 2.956016 1_554
Cu50 Cu8 2.455288 1_554
Cu50 Zr5 2.699475 1_555
Cu50 Cu9 2.830282 1_554
Cu50 Zr4 2.838224 1_565
Cu50 Zr1 2.956014 1_555
Cu50 Zr0 2.956014 1_554
