# generated using pymatgen
data_Yb2MgS4
_symmetry_space_group_name_H-M   'P 1'
_cell_length_a   7.27923029
_cell_length_b   7.27923029
_cell_length_c   7.27923029
_cell_angle_alpha   113.80599326
_cell_angle_beta   113.80599326
_cell_angle_gamma   101.11144614
_symmetry_Int_Tables_number   1
_chemical_formula_structural   Yb2MgS4
_chemical_formula_sum   'Yb4 Mg2 S8'
_cell_volume   292.27507935
_cell_formula_units_Z   2
loop_
 _symmetry_equiv_pos_site_id
 _symmetry_equiv_pos_as_xyz
  1  'x, y, z'
loop_
 _atom_site_type_symbol
 _atom_site_label
 _atom_site_symmetry_multiplicity
 _atom_site_fract_x
 _atom_site_fract_y
 _atom_site_fract_z
 _atom_site_occupancy
  Yb  Yb0  1  0.25540400  0.62500000  0.13040400  1
  Yb  Yb1  1  0.37500000  0.50540400  0.63040400  1
  Yb  Yb2  1  0.49459600  0.12500000  0.86959600  1
  Yb  Yb3  1  0.87500000  0.74459600  0.36959600  1
  Mg  Mg0  1  0.75000000  0.25000000  0.50000000  1
  Mg  Mg1  1  0.00000000  0.00000000  0.00000000  1
  S  S0  1  0.15699900  0.77136000  0.79656300  1
  S  S1  1  0.11043500  0.22479700  0.70343700  1
  S  S2  1  0.59300100  0.88956500  0.11436100  1
  S  S3  1  0.22864000  0.02520300  0.38563900  1
  S  S4  1  0.52136000  0.40699900  0.29656300  1
  S  S5  1  0.77520300  0.47864000  0.88563900  1
  S  S6  1  0.63956500  0.84300100  0.61436100  1
  S  S7  1  0.97479700  0.36043500  0.20343700  1
loop_
_geom_bond_atom_site_label_1
_geom_bond_atom_site_label_2
_geom_bond_distance
_geom_bond_site_symmetry_2
Mg0 S1 2.525599 1_655
Mg0 S2 2.525602 1_545
Mg0 S5 2.525605 1_555
Mg0 S4 2.525605 1_555
Mg1 S7 2.525599 1_455
Mg1 S6 2.525602 1_444
Mg1 S0 2.525605 1_544
Mg1 S3 2.525605 1_555
S0 Yb3 2.849205 1_455
S0 Yb2 2.889738 1_565
S0 Yb0 2.921048 1_556
S0 Yb1 2.927847 1_555
S1 Yb0 2.849203 1_556
S1 Yb1 2.889743 1_555
S1 Yb3 2.921048 1_445
S1 Yb2 2.927853 1_555
S2 Yb3 2.849210 1_555
S2 Yb0 2.889742 1_555
S2 Yb2 2.921042 1_564
S2 Yb1 2.927850 1_554
S3 Yb0 2.849205 1_545
S3 Yb3 2.889738 1_445
S3 Yb1 2.921048 1_555
S3 Yb2 2.927847 1_555
S4 Yb2 2.849205 1_554
S4 Yb3 2.889738 1_555
S4 Yb1 2.921048 1_555
S4 Yb0 2.927847 1_555
S5 Yb1 2.849205 1_555
S5 Yb2 2.889738 1_555
S5 Yb0 2.921048 1_656
S5 Yb3 2.927847 1_556
S6 Yb2 2.849210 1_565
S6 Yb1 2.889742 1_555
S6 Yb3 2.921042 1_555
S6 Yb0 2.927850 1_555
S7 Yb1 2.849203 1_655
S7 Yb0 2.889743 1_655
S7 Yb2 2.921048 1_554
S7 Yb3 2.927853 1_555
