# generated using pymatgen
data_Sb2Te3
_symmetry_space_group_name_H-M   'P 1'
_cell_length_a   11.98024529
_cell_length_b   11.98024529
_cell_length_c   11.98024529
_cell_angle_alpha   158.09307354
_cell_angle_beta   149.81870334
_cell_angle_gamma   37.60558958
_symmetry_Int_Tables_number   1
_chemical_formula_structural   Sb2Te3
_chemical_formula_sum   'Sb4 Te6'
_cell_volume   322.08585656
_cell_formula_units_Z   2
loop_
 _symmetry_equiv_pos_site_id
 _symmetry_equiv_pos_as_xyz
  1  'x, y, z'
loop_
 _atom_site_type_symbol
 _atom_site_label
 _atom_site_symmetry_multiplicity
 _atom_site_fract_x
 _atom_site_fract_y
 _atom_site_fract_z
 _atom_site_occupancy
  Sb  Sb0  1  0.59964000  0.09964000  0.50000000  1
  Sb  Sb1  1  0.40036000  0.90036000  0.50000000  1
  Sb  Sb2  1  0.79924900  0.29924900  0.50000000  1
  Sb  Sb3  1  0.20075100  0.70075100  0.50000000  1
  Te  Te0  1  0.89025000  0.89025000  0.00000000  1
  Te  Te1  1  0.10975000  0.10975000  0.00000000  1
  Te  Te2  1  0.30303600  0.30303600  0.00000000  1
  Te  Te3  1  0.69696400  0.69696400  0.00000000  1
  Te  Te4  1  0.50000000  0.50000000  0.00000000  1
  Te  Te5  1  0.00000000  0.50000000  0.50000000  1
loop_
_geom_bond_atom_site_label_1
_geom_bond_atom_site_label_2
_geom_bond_distance
_geom_bond_site_symmetry_2
Sb0 Te1 3.127438 1_656
Sb0 Te1 3.127438 1_555
Sb0 Te3 3.170949 1_545
Sb0 Te3 3.170949 1_556
Sb0 Te4 3.207741 1_545
Sb0 Te4 3.207741 1_556
Sb1 Te0 3.127438 1_556
Sb1 Te0 3.127438 1_455
Sb1 Te2 3.170949 1_566
Sb1 Te2 3.170949 1_555
Sb1 Te4 3.207741 1_566
Sb1 Te4 3.207741 1_555
Sb2 Te0 3.072833 1_545
Sb2 Te0 3.072833 1_556
Sb2 Te2 3.120203 1_555
Sb2 Te2 3.120203 1_656
Sb2 Te3 3.250288 1_545
Sb2 Te3 3.250288 1_556
Sb3 Te1 3.072833 1_566
Sb3 Te1 3.072833 1_555
Sb3 Te3 3.120203 1_455
Sb3 Te3 3.120203 1_556
Sb3 Te2 3.250288 1_566
Sb3 Te2 3.250288 1_555
Te0 Te5 3.373231 1_665
Te0 Te5 3.373231 1_654
Te1 Te5 3.373231 1_544
Te1 Te5 3.373231 1_555
Te4 Te5 3.119020 1_655
Te4 Te5 3.119020 1_554
