# generated using pymatgen
data_Mg6ZrCd
_symmetry_space_group_name_H-M   'P 1'
_cell_length_a   5.03822000
_cell_length_b   6.29360000
_cell_length_c   11.29793700
_cell_angle_alpha   90.00000000
_cell_angle_beta   90.00000000
_cell_angle_gamma   90.00000000
_symmetry_Int_Tables_number   1
_chemical_formula_structural   Mg6ZrCd
_chemical_formula_sum   'Mg12 Zr2 Cd2'
_cell_volume   358.24110301
_cell_formula_units_Z   2
loop_
 _symmetry_equiv_pos_site_id
 _symmetry_equiv_pos_as_xyz
  1  'x, y, z'
loop_
 _atom_site_type_symbol
 _atom_site_label
 _atom_site_symmetry_multiplicity
 _atom_site_fract_x
 _atom_site_fract_y
 _atom_site_fract_z
 _atom_site_occupancy
  Mg  Mg0  1  0.50000000  0.24857800  0.42155200  1
  Mg  Mg1  1  0.50000000  0.75142200  0.42155200  1
  Mg  Mg2  1  0.00000000  0.75666200  0.08196200  1
  Mg  Mg3  1  0.00000000  0.24333800  0.08196200  1
  Mg  Mg4  1  0.00000000  0.00000000  0.32915900  1
  Mg  Mg5  1  0.00000000  0.50000000  0.32707400  1
  Mg  Mg6  1  0.50000000  0.74857800  0.92155200  1
  Mg  Mg7  1  0.50000000  0.25142200  0.92155200  1
  Mg  Mg8  1  0.00000000  0.25666200  0.58196200  1
  Mg  Mg9  1  0.00000000  0.74333800  0.58196200  1
  Mg  Mg10  1  0.00000000  0.50000000  0.82915900  1
  Mg  Mg11  1  0.00000000  0.00000000  0.82707400  1
  Zr  Zr0  1  0.50000000  0.00000000  0.17229900  1
  Zr  Zr1  1  0.50000000  0.50000000  0.67229900  1
  Cd  Cd0  1  0.50000000  0.50000000  0.16443800  1
  Cd  Cd1  1  0.50000000  0.00000000  0.66443800  1
loop_
_geom_bond_atom_site_label_1
_geom_bond_atom_site_label_2
_geom_bond_distance
_geom_bond_site_symmetry_2
Mg0 Mg8 3.103698 1_655
Mg0 Mg8 3.103698 1_555
Mg0 Mg1 3.128901 1_545
Mg0 Mg4 3.143731 1_655
Mg0 Mg4 3.143731 1_555
Mg0 Mg5 3.160554 1_555
Mg0 Mg5 3.160554 1_655
Mg0 Mg1 3.164699 1_555
Mg0 Zr0 3.221430 1_555
Mg0 Zr1 3.244886 1_555
Mg1 Mg9 3.103698 1_555
Mg1 Mg9 3.103698 1_655
Mg1 Mg4 3.143731 1_565
Mg1 Mg4 3.143731 1_665
Mg1 Mg5 3.160554 1_555
Mg1 Mg5 3.160554 1_655
Mg1 Zr0 3.221430 1_565
Mg1 Zr1 3.244886 1_555
Mg2 Mg3 3.062944 1_565
Mg2 Mg6 3.103698 1_554
Mg2 Mg6 3.103698 1_454
Mg2 Zr0 3.119774 1_465
Mg2 Zr0 3.119774 1_565
Mg2 Mg4 3.185158 1_565
Mg2 Mg5 3.205945 1_555
Mg2 Mg3 3.230656 1_555
Mg3 Mg7 3.103698 1_454
Mg3 Mg7 3.103698 1_554
Mg3 Zr0 3.119774 1_455
Mg3 Zr0 3.119774 1_555
Mg3 Mg4 3.185158 1_555
Mg3 Mg5 3.205945 1_555
Mg4 Zr0 3.080031 1_455
Mg4 Zr0 3.080031 1_555
Mg4 Mg5 3.146888 1_555
Mg4 Mg5 3.146888 1_545
Mg4 Mg9 3.281294 1_545
Mg4 Mg8 3.281294 1_555
Mg5 Mg8 3.261614 1_555
Mg5 Mg9 3.261614 1_555
Mg6 Mg7 3.128901 1_555
Mg6 Mg7 3.164699 1_565
Mg6 Zr1 3.221430 1_555
Mg6 Zr0 3.244886 1_566
Mg7 Zr1 3.221430 1_555
Mg7 Zr0 3.244886 1_556
Mg8 Mg9 3.062944 1_555
Mg8 Zr1 3.119774 1_455
Mg8 Zr1 3.119774 1_555
Mg8 Mg9 3.230656 1_545
Mg9 Zr1 3.119774 1_455
Mg9 Zr1 3.119774 1_555
Mg10 Zr1 3.080031 1_555
Mg10 Zr1 3.080031 1_455
Mg10 Mg6 3.143731 1_455
Mg10 Mg6 3.143731 1_555
Mg10 Mg7 3.143731 1_555
Mg10 Mg7 3.143731 1_455
Mg10 Mg11 3.146888 1_555
Mg10 Mg11 3.146888 1_565
Mg10 Mg9 3.185158 1_555
Mg10 Mg8 3.185158 1_555
Mg10 Mg2 3.281294 1_556
Mg10 Mg3 3.281294 1_556
Mg11 Mg6 3.160554 1_445
Mg11 Mg7 3.160554 1_455
Mg11 Mg6 3.160554 1_545
Mg11 Mg7 3.160554 1_555
Mg11 Mg9 3.205945 1_545
Mg11 Mg8 3.205945 1_555
Mg11 Mg2 3.261614 1_546
Mg11 Mg3 3.261614 1_556
Cd0 Mg5 3.118035 1_555
Cd0 Mg5 3.118035 1_655
Cd0 Mg2 3.134241 1_555
Cd0 Mg2 3.134241 1_655
Cd0 Mg3 3.134241 1_555
Cd0 Mg3 3.134241 1_655
Cd0 Zr0 3.148053 1_565
Cd0 Zr0 3.148053 1_555
Cd0 Mg6 3.158742 1_554
Cd0 Mg7 3.158742 1_554
Cd0 Mg1 3.307874 1_555
Cd0 Mg0 3.307874 1_555
Cd1 Mg11 3.118035 1_655
Cd1 Mg11 3.118035 1_555
Cd1 Mg9 3.134241 1_545
Cd1 Mg9 3.134241 1_645
Cd1 Mg8 3.134241 1_555
Cd1 Mg8 3.134241 1_655
Cd1 Zr1 3.148053 1_545
Cd1 Zr1 3.148053 1_555
Cd1 Mg1 3.158742 1_545
Cd1 Mg0 3.158742 1_555
Cd1 Mg7 3.307874 1_555
Cd1 Mg6 3.307874 1_545
