# generated using pymatgen
data_Er2MgS4
_symmetry_space_group_name_H-M   'P 1'
_cell_length_a   7.51001900
_cell_length_b   12.57906800
_cell_length_c   12.72624600
_cell_angle_alpha   90.00000000
_cell_angle_beta   90.00000000
_cell_angle_gamma   90.00000000
_symmetry_Int_Tables_number   1
_chemical_formula_structural   Er2MgS4
_chemical_formula_sum   'Er16 Mg8 S32'
_cell_volume   1202.23623838
_cell_formula_units_Z   8
loop_
 _symmetry_equiv_pos_site_id
 _symmetry_equiv_pos_as_xyz
  1  'x, y, z'
loop_
 _atom_site_type_symbol
 _atom_site_label
 _atom_site_symmetry_multiplicity
 _atom_site_fract_x
 _atom_site_fract_y
 _atom_site_fract_z
 _atom_site_occupancy
  Er  Er0  1  0.88540300  0.10850700  0.68570200  1
  Er  Er1  1  0.11459700  0.89149300  0.18570200  1
  Er  Er2  1  0.88540300  0.39149300  0.18570200  1
  Er  Er3  1  0.11459700  0.60850700  0.68570200  1
  Er  Er4  1  0.38384100  0.12657300  0.32625200  1
  Er  Er5  1  0.61615900  0.87342700  0.82625200  1
  Er  Er6  1  0.38384100  0.37342700  0.82625200  1
  Er  Er7  1  0.61615900  0.62657300  0.32625200  1
  Er  Er8  1  0.63115000  0.13433200  0.99239000  1
  Er  Er9  1  0.36885000  0.86566800  0.49239000  1
  Er  Er10  1  0.63115000  0.36566800  0.49239000  1
  Er  Er11  1  0.36885000  0.63433200  0.99239000  1
  Er  Er12  1  0.13090500  0.13464600  0.99192400  1
  Er  Er13  1  0.86909500  0.86535400  0.49192400  1
  Er  Er14  1  0.13090500  0.36535400  0.49192400  1
  Er  Er15  1  0.86909500  0.63464600  0.99192400  1
  Mg  Mg0  1  0.38375900  0.11164700  0.69176600  1
  Mg  Mg1  1  0.61624100  0.88835300  0.19176600  1
  Mg  Mg2  1  0.38375900  0.38835300  0.19176600  1
  Mg  Mg3  1  0.61624100  0.61164700  0.69176600  1
  Mg  Mg4  1  0.88017200  0.12622900  0.32136800  1
  Mg  Mg5  1  0.11982800  0.87377100  0.82136800  1
  Mg  Mg6  1  0.88017200  0.37377100  0.82136800  1
  Mg  Mg7  1  0.11982800  0.62622900  0.32136800  1
  S  S0  1  0.87840500  0.01302400  0.87786700  1
  S  S1  1  0.12159500  0.98697600  0.37786700  1
  S  S2  1  0.87840500  0.48697600  0.37786700  1
  S  S3  1  0.12159500  0.51302400  0.87786700  1
  S  S4  1  0.37915400  0.03094300  0.13077900  1
  S  S5  1  0.62084600  0.96905700  0.63077900  1
  S  S6  1  0.37915400  0.46905700  0.63077900  1
  S  S7  1  0.62084600  0.53094300  0.13077900  1
  S  S8  1  0.37585000  0.02361300  0.87080100  1
  S  S9  1  0.62415000  0.97638700  0.37080100  1
  S  S10  1  0.37585000  0.47638700  0.37080100  1
  S  S11  1  0.62415000  0.52361300  0.87080100  1
  S  S12  1  0.87685400  0.04489200  0.13657700  1
  S  S13  1  0.12314600  0.95510800  0.63657700  1
  S  S14  1  0.87685400  0.45510800  0.63657700  1
  S  S15  1  0.12314600  0.54489200  0.13657700  1
  S  S16  1  0.88161700  0.21136600  0.50211300  1
  S  S17  1  0.11838300  0.78863400  0.00211300  1
  S  S18  1  0.88161700  0.28863400  0.00211300  1
  S  S19  1  0.11838300  0.71136600  0.50211300  1
  S  S20  1  0.38141000  0.21285400  0.51876100  1
  S  S21  1  0.61859000  0.78714600  0.01876100  1
  S  S22  1  0.38141000  0.28714600  0.01876100  1
  S  S23  1  0.61859000  0.71285400  0.51876100  1
  S  S24  1  0.13398000  0.23188400  0.77400400  1
  S  S25  1  0.86602000  0.76811600  0.27400400  1
  S  S26  1  0.13398000  0.26811600  0.27400400  1
  S  S27  1  0.86602000  0.73188400  0.77400400  1
  S  S28  1  0.63661100  0.23382900  0.77669500  1
  S  S29  1  0.36338900  0.76617100  0.27669500  1
  S  S30  1  0.63661100  0.26617100  0.27669500  1
  S  S31  1  0.36338900  0.73382900  0.77669500  1
loop_
_geom_bond_atom_site_label_1
_geom_bond_atom_site_label_2
_geom_bond_distance
_geom_bond_site_symmetry_2
Er0 S16 2.670893 1_555
Er0 S24 2.675151 1_655
Er0 S13 2.702242 1_645
Er0 S28 2.705023 1_555
Er0 S0 2.725075 1_555
Er0 S5 2.741000 1_545
Er1 S17 2.670893 1_555
Er1 S25 2.675151 1_455
Er1 S12 2.702242 1_465
Er1 S29 2.705023 1_555
Er1 S1 2.725075 1_555
Er1 S4 2.741000 1_565
Er2 S18 2.670893 1_555
Er2 S26 2.675151 1_655
Er2 S15 2.702242 1_655
Er2 S30 2.705023 1_555
Er2 S2 2.725075 1_555
Er2 S7 2.741000 1_555
Er3 S19 2.670893 1_555
Er3 S27 2.675151 1_455
Er3 S14 2.702242 1_455
Er3 S31 2.705023 1_555
Er3 S3 2.725075 1_555
Er3 S6 2.741000 1_555
Er4 S30 2.661748 1_555
Er4 S26 2.670830 1_555
Er4 S9 2.673487 1_545
Er4 S20 2.679623 1_555
Er4 S1 2.719160 1_545
Er4 S4 2.763446 1_555
Er5 S31 2.661748 1_555
Er5 S27 2.670830 1_555
Er5 S8 2.673487 1_565
Er5 S21 2.679623 1_556
Er5 S0 2.719160 1_565
Er5 S5 2.763446 1_555
Er6 S28 2.661748 1_555
Er6 S24 2.670830 1_555
Er6 S11 2.673487 1_555
Er6 S22 2.679623 1_556
Er6 S3 2.719160 1_555
Er6 S6 2.763446 1_555
Er7 S29 2.661748 1_555
Er7 S25 2.670830 1_555
Er7 S10 2.673487 1_555
Er7 S23 2.679623 1_555
Er7 S2 2.719160 1_555
Er7 S7 2.763446 1_555
Er8 S18 2.705717 1_556
Er8 S22 2.706548 1_556
Er8 S0 2.810817 1_555
Er8 S8 2.830222 1_555
Er8 S12 2.835098 1_556
Er8 S4 2.893901 1_556
Er8 S28 3.017133 1_555
Er9 S19 2.705717 1_555
Er9 S23 2.706548 1_555
Er9 S1 2.810817 1_555
Er9 S9 2.830222 1_555
Er9 S13 2.835098 1_555
Er9 S5 2.893901 1_555
Er9 S29 3.017133 1_555
Er10 S16 2.705717 1_555
Er10 S20 2.706548 1_555
Er10 S2 2.810817 1_555
Er10 S10 2.830222 1_555
Er10 S14 2.835098 1_555
Er10 S6 2.893901 1_555
Er10 S30 3.017133 1_555
Er11 S17 2.705717 1_556
Er11 S21 2.706548 1_556
Er11 S3 2.810817 1_555
Er11 S11 2.830222 1_555
Er11 S15 2.835098 1_556
Er11 S7 2.893901 1_556
Er11 S31 3.017133 1_555
Er12 S18 2.697009 1_456
Er12 S22 2.708474 1_556
Er12 S8 2.776815 1_555
Er12 S0 2.836080 1_455
Er12 S4 2.880999 1_556
Er12 S12 2.881623 1_456
Er12 S24 3.031151 1_555
Er13 S19 2.697009 1_655
Er13 S23 2.708474 1_555
Er13 S9 2.776815 1_555
Er13 S1 2.836080 1_655
Er13 S5 2.880999 1_555
Er13 S13 2.881623 1_655
Er13 S25 3.031151 1_555
Er14 S16 2.697009 1_455
Er14 S20 2.708474 1_555
Er14 S10 2.776815 1_555
Er14 S2 2.836080 1_455
Er14 S6 2.880999 1_555
Er14 S14 2.881623 1_455
Er14 S26 3.031151 1_555
Er15 S17 2.697009 1_656
Er15 S21 2.708474 1_556
Er15 S11 2.776815 1_555
Er15 S3 2.836080 1_655
Er15 S7 2.880999 1_556
Er15 S15 2.881623 1_656
Er15 S27 3.031151 1_555
Mg0 S8 2.533996 1_555
Mg0 S20 2.543338 1_555
Mg0 S24 2.627107 1_555
Mg0 S5 2.643831 1_545
Mg0 S28 2.671380 1_555
Mg0 S13 2.863804 1_545
Mg1 S9 2.533996 1_555
Mg1 S21 2.543338 1_555
Mg1 S25 2.627107 1_555
Mg1 S4 2.643831 1_565
Mg1 S29 2.671380 1_555
Mg1 S12 2.863804 1_565
Mg2 S10 2.533996 1_555
Mg2 S22 2.543338 1_555
Mg2 S26 2.627107 1_555
Mg2 S7 2.643831 1_555
Mg2 S30 2.671380 1_555
Mg2 S15 2.863804 1_555
Mg3 S11 2.533996 1_555
Mg3 S23 2.543338 1_555
Mg3 S27 2.627107 1_555
Mg3 S6 2.643831 1_555
Mg3 S31 2.671380 1_555
Mg3 S14 2.863804 1_555
Mg4 S16 2.537318 1_555
Mg4 S12 2.564745 1_555
Mg4 S30 2.601498 1_555
Mg4 S1 2.621574 1_645
Mg4 S26 2.679942 1_655
Mg4 S9 2.765031 1_545
Mg5 S17 2.537318 1_556
Mg5 S13 2.564745 1_555
Mg5 S31 2.601498 1_555
Mg5 S0 2.621574 1_465
Mg5 S27 2.679942 1_455
Mg5 S8 2.765031 1_565
Mg6 S18 2.537318 1_556
Mg6 S14 2.564745 1_555
Mg6 S28 2.601498 1_555
Mg6 S3 2.621574 1_655
Mg6 S24 2.679942 1_655
Mg6 S11 2.765031 1_555
Mg7 S19 2.537318 1_555
Mg7 S15 2.564745 1_555
Mg7 S29 2.601498 1_555
Mg7 S2 2.621574 1_455
Mg7 S25 2.679942 1_455
Mg7 S10 2.765031 1_555
