# generated using pymatgen
data_Ca3Sn3(AsO4)4
_symmetry_space_group_name_H-M   'P 1'
_cell_length_a   5.53972100
_cell_length_b   9.81768600
_cell_length_c   18.08773745
_cell_angle_alpha   60.55672052
_cell_angle_beta   90.00000000
_cell_angle_gamma   90.00000000
_symmetry_Int_Tables_number   1
_chemical_formula_structural   Ca3Sn3(AsO4)4
_chemical_formula_sum   'Ca6 Sn6 As8 O32'
_cell_volume   856.68471047
_cell_formula_units_Z   2
loop_
 _symmetry_equiv_pos_site_id
 _symmetry_equiv_pos_as_xyz
  1  'x, y, z'
loop_
 _atom_site_type_symbol
 _atom_site_label
 _atom_site_symmetry_multiplicity
 _atom_site_fract_x
 _atom_site_fract_y
 _atom_site_fract_z
 _atom_site_occupancy
  Ca  Ca0  1  0.93329900  0.18492000  0.74404400  1
  Ca  Ca1  1  0.43329900  0.81508000  0.75595600  1
  Ca  Ca2  1  0.06670100  0.81508000  0.25595600  1
  Ca  Ca3  1  0.56670100  0.18492000  0.24404400  1
  Ca  Ca4  1  0.00000000  0.00000000  0.00000000  1
  Ca  Ca5  1  0.50000000  0.00000000  0.50000000  1
  Sn  Sn0  1  0.98068200  0.55163800  0.13459500  1
  Sn  Sn1  1  0.01931800  0.44836200  0.86540500  1
  Sn  Sn2  1  0.48068200  0.44836200  0.36540500  1
  Sn  Sn3  1  0.51931800  0.55163800  0.63459500  1
  Sn  Sn4  1  0.50000000  0.50000000  0.00000000  1
  Sn  Sn5  1  0.00000000  0.50000000  0.50000000  1
  As  As0  1  0.47010900  0.25353800  0.85724700  1
  As  As1  1  0.97248600  0.77381600  0.88781200  1
  As  As2  1  0.47248600  0.22618400  0.61218800  1
  As  As3  1  0.52751400  0.77381600  0.38781200  1
  As  As4  1  0.52989100  0.74646200  0.14275300  1
  As  As5  1  0.02751400  0.22618400  0.11218800  1
  As  As6  1  0.02989100  0.25353800  0.35724700  1
  As  As7  1  0.97010900  0.74646200  0.64275300  1
  O  O0  1  0.11076100  0.67121700  0.74113900  1
  O  O1  1  0.46566500  0.21376500  0.52183000  1
  O  O2  1  0.08666600  0.93291200  0.80027700  1
  O  O3  1  0.91532600  0.58779400  0.62479000  1
  O  O4  1  0.91333400  0.06708800  0.19972300  1
  O  O5  1  0.38923900  0.67121700  0.24113900  1
  O  O6  1  0.58666600  0.06708800  0.69972300  1
  O  O7  1  0.80814400  0.71558000  0.37135600  1
  O  O8  1  0.84543700  0.11256200  0.42557300  1
  O  O9  1  0.88923900  0.32878300  0.25886100  1
  O  O10  1  0.58467400  0.58779400  0.12479000  1
  O  O11  1  0.19185600  0.28442000  0.62864400  1
  O  O12  1  0.16897800  0.61988000  0.90508800  1
  O  O13  1  0.15456300  0.88743800  0.57442700  1
  O  O14  1  0.82372300  0.80566000  0.14619600  1
  O  O15  1  0.32372300  0.19434000  0.35380400  1
  O  O16  1  0.66897800  0.38012000  0.59491200  1
  O  O17  1  0.41333400  0.93291200  0.30027700  1
  O  O18  1  0.34543700  0.88743800  0.07442700  1
  O  O19  1  0.30814400  0.28442000  0.12864400  1
  O  O20  1  0.67627700  0.80566000  0.64619600  1
  O  O21  1  0.17627700  0.19434000  0.85380400  1
  O  O22  1  0.53433500  0.78623500  0.47817000  1
  O  O23  1  0.96566500  0.78623500  0.97817000  1
  O  O24  1  0.83102200  0.38012000  0.09491200  1
  O  O25  1  0.61076100  0.32878300  0.75886100  1
  O  O26  1  0.08467400  0.41220600  0.37521000  1
  O  O27  1  0.65456300  0.11256200  0.92557300  1
  O  O28  1  0.03433500  0.21376500  0.02183000  1
  O  O29  1  0.69185600  0.71558000  0.87135600  1
  O  O30  1  0.33102200  0.61988000  0.40508800  1
  O  O31  1  0.41532600  0.41220600  0.87521000  1
loop_
_geom_bond_atom_site_label_1
_geom_bond_atom_site_label_2
_geom_bond_distance
_geom_bond_site_symmetry_2
Ca0 O11 2.314767 1_655
Ca0 O2 2.324584 1_645
Ca0 O25 2.373057 1_555
Ca0 O21 2.437686 1_655
Ca0 O6 2.565161 1_555
Ca0 O16 2.830335 1_555
Ca1 O29 2.314767 1_555
Ca1 O6 2.324584 1_565
Ca1 O0 2.373057 1_555
Ca1 O20 2.437686 1_555
Ca1 O2 2.565161 1_555
Ca1 O12 2.830335 1_555
Ca2 O7 2.314767 1_455
Ca2 O4 2.324584 1_465
Ca2 O5 2.373057 1_555
Ca2 O14 2.437686 1_455
Ca2 O17 2.565161 1_555
Ca2 O30 2.830335 1_555
Ca3 O19 2.314767 1_555
Ca3 O17 2.324584 1_545
Ca3 O9 2.373057 1_555
Ca3 O15 2.437686 1_555
Ca3 O4 2.565161 1_555
Ca3 O24 2.830335 1_555
Ca4 O18 2.287554 1_545
Ca4 O27 2.287554 1_454
Ca4 O23 2.326204 1_444
Ca4 O28 2.326204 1_555
Ca4 O21 2.574172 1_554
Ca4 O14 2.574172 1_445
Ca5 O8 2.287554 1_555
Ca5 O13 2.287554 1_545
Ca5 O22 2.326204 1_545
Ca5 O1 2.326204 1_555
Ca5 O20 2.574172 1_545
Ca5 O15 2.574172 1_555
As0 O27 1.674950 1_555
As0 O21 1.739771 1_555
As0 O25 1.739912 1_555
As0 O31 1.766876 1_555
As1 O23 1.698050 1_555
As1 O2 1.707437 1_655
As1 O29 1.731939 1_555
As1 O12 1.761315 1_655
As2 O1 1.698050 1_555
As2 O6 1.707437 1_555
As2 O11 1.731939 1_555
As2 O16 1.761315 1_555
As3 O22 1.698050 1_555
As3 O17 1.707437 1_555
As3 O7 1.731939 1_555
As3 O30 1.761315 1_555
As4 O18 1.674950 1_555
As4 O14 1.739771 1_555
As4 O5 1.739912 1_555
As4 O10 1.766876 1_555
As5 O28 1.698050 1_555
As5 O4 1.707437 1_455
As5 O19 1.731939 1_555
As5 O24 1.761315 1_455
As6 O8 1.674950 1_455
As6 O15 1.739771 1_555
As6 O9 1.739912 1_455
As6 O26 1.766876 1_555
As7 O13 1.674950 1_655
As7 O20 1.739771 1_555
As7 O0 1.739912 1_655
As7 O3 1.766876 1_555
O0 Sn1 2.293676 1_555
O1 Sn2 2.628759 1_555
O3 Sn3 2.215448 1_555
O5 Sn2 2.293676 1_555
O7 Sn5 2.486325 1_655
O9 Sn0 2.293676 1_555
O10 Sn0 2.215448 1_555
O11 Sn5 2.486325 1_555
O12 Sn1 2.286130 1_555
O12 Sn4 2.389289 1_556
O14 Sn0 2.744838 1_555
O15 Sn2 2.744838 1_555
O16 Sn3 2.286130 1_555
O16 Sn5 2.389289 1_655
O19 Sn4 2.486325 1_555
O20 Sn3 2.744838 1_555
O21 Sn1 2.744838 1_555
O22 Sn3 2.628759 1_555
O23 Sn0 2.628759 1_556
O24 Sn0 2.286130 1_555
O24 Sn4 2.389289 1_555
O25 Sn3 2.293676 1_555
O26 Sn2 2.215448 1_555
O28 Sn1 2.628759 1_554
O29 Sn4 2.486325 1_556
O30 Sn2 2.286130 1_555
O30 Sn5 2.389289 1_555
O31 Sn1 2.215448 1_555
