# generated using pymatgen
data_YbAl2Ni
_symmetry_space_group_name_H-M   'P 1'
_cell_length_a   5.32071381
_cell_length_b   5.32071381
_cell_length_c   6.81770327
_cell_angle_alpha   90.00000000
_cell_angle_beta   90.00000000
_cell_angle_gamma   135.65009201
_symmetry_Int_Tables_number   1
_chemical_formula_structural   YbAl2Ni
_chemical_formula_sum   'Yb2 Al4 Ni2'
_cell_volume   134.92081258
_cell_formula_units_Z   2
loop_
 _symmetry_equiv_pos_site_id
 _symmetry_equiv_pos_as_xyz
  1  'x, y, z'
loop_
 _atom_site_type_symbol
 _atom_site_label
 _atom_site_symmetry_multiplicity
 _atom_site_fract_x
 _atom_site_fract_y
 _atom_site_fract_z
 _atom_site_occupancy
  Yb  Yb0  1  0.43700215  0.56299785  0.25000000  1
  Yb  Yb1  1  0.56299785  0.43700215  0.75000000  1
  Al  Al0  1  0.84557376  0.15442624  0.94604311  1
  Al  Al1  1  0.15442624  0.84557376  0.05395689  1
  Al  Al2  1  0.15442624  0.84557376  0.44604311  1
  Al  Al3  1  0.84557376  0.15442624  0.55395689  1
  Ni  Ni0  1  0.71417390  0.28582610  0.25000000  1
  Ni  Ni1  1  0.28582610  0.71417390  0.75000000  1
loop_
_geom_bond_atom_site_label_1
_geom_bond_atom_site_label_2
_geom_bond_distance
_geom_bond_site_symmetry_2
Al0 Ni0 2.443571 1_556
Al0 Ni1 2.483151 1_655
Al0 Ni1 2.483151 1_545
Al0 Al3 2.673127 1_555
Al0 Al1 2.849973 1_546
Al0 Al1 2.849973 1_656
Al0 Yb0 3.023095 1_546
Al0 Yb0 3.023095 1_656
Al0 Yb1 3.088753 1_555
Al0 Al1 3.131200 1_646
Al0 Yb1 3.226453 1_545
Al0 Yb1 3.226453 1_655
Al1 Ni1 2.443571 1_554
Al1 Ni0 2.483151 1_565
Al1 Ni0 2.483151 1_455
Al1 Al2 2.673127 1_555
Al1 Yb1 3.023095 1_564
Al1 Yb1 3.023095 1_454
Al1 Yb0 3.088753 1_555
Al1 Yb0 3.226453 1_565
Al1 Yb0 3.226453 1_455
Al2 Ni1 2.443571 1_555
Al2 Ni0 2.483151 1_565
Al2 Ni0 2.483151 1_455
Al2 Al3 2.849973 1_565
Al2 Al3 2.849973 1_455
Al2 Yb1 3.023095 1_565
Al2 Yb1 3.023095 1_455
Al2 Yb0 3.088753 1_555
Al2 Al3 3.131200 1_465
Al2 Yb0 3.226453 1_565
Al2 Yb0 3.226453 1_455
Al3 Ni0 2.443571 1_555
Al3 Ni1 2.483151 1_655
Al3 Ni1 2.483151 1_545
Al3 Yb0 3.023095 1_655
Al3 Yb0 3.023095 1_545
Al3 Yb1 3.088753 1_555
Al3 Yb1 3.226453 1_655
Al3 Yb1 3.226453 1_545
Ni0 Yb0 2.731345 1_555
Ni0 Yb0 2.975674 1_545
Ni0 Yb0 2.975674 1_655
Ni1 Yb1 2.731345 1_555
Ni1 Yb1 2.975674 1_455
Ni1 Yb1 2.975674 1_565
