# generated using pymatgen
data_Sr2LaMn2O7
_symmetry_space_group_name_H-M   'P 1'
_cell_length_a   5.58360622
_cell_length_b   5.58098835
_cell_length_c   10.40756112
_cell_angle_alpha   89.38371488
_cell_angle_beta   74.43842455
_cell_angle_gamma   87.70405572
_symmetry_Int_Tables_number   1
_chemical_formula_structural   Sr2LaMn2O7
_chemical_formula_sum   'Sr4 La2 Mn4 O14'
_cell_volume   312.18131152
_cell_formula_units_Z   2
loop_
 _symmetry_equiv_pos_site_id
 _symmetry_equiv_pos_as_xyz
  1  'x, y, z'
loop_
 _atom_site_type_symbol
 _atom_site_label
 _atom_site_symmetry_multiplicity
 _atom_site_fract_x
 _atom_site_fract_y
 _atom_site_fract_z
 _atom_site_occupancy
  Sr  Sr0  1  0.18094900  0.50002100  0.63819500  1
  Sr  Sr1  1  0.68103800  0.00004400  0.63786600  1
  Sr  Sr2  1  0.00513800  0.50000500  0.98984200  1
  Sr  Sr3  1  0.50484800  0.00003000  0.99029500  1
  La  La0  1  0.31729800  0.99999200  0.36540500  1
  La  La1  1  0.81765400  0.50000200  0.36472700  1
  Mn  Mn0  1  0.09857200  0.00005500  0.80297600  1
  Mn  Mn1  1  0.40323700  0.49998700  0.19351100  1
  Mn  Mn2  1  0.59873200  0.50003500  0.80260500  1
  Mn  Mn3  1  0.90494600  0.00000400  0.19009100  1
  O  O0  1  0.19934300  0.00002000  0.60146700  1
  O  O1  1  0.70166200  0.50001300  0.59664800  1
  O  O2  1  0.30321500  0.49994100  0.39338100  1
  O  O3  1  0.80547300  0.99996300  0.38900600  1
  O  O4  1  0.49766800  0.49995300  0.00468000  1
  O  O5  1  0.00006600  0.00004800  0.99979500  1
  O  O6  1  0.86247900  0.76533300  0.80529900  1
  O  O7  1  0.33219500  0.23467700  0.80531300  1
  O  O8  1  0.34791700  0.75027000  0.80395700  1
  O  O9  1  0.84812300  0.24971400  0.80391700  1
  O  O10  1  0.63199800  0.73706300  0.20593200  1
  O  O11  1  0.16205400  0.26288300  0.20592900  1
  O  O12  1  0.15155800  0.74679100  0.20456200  1
  O  O13  1  0.64383500  0.25315600  0.20460200  1
loop_
_geom_bond_atom_site_label_1
_geom_bond_atom_site_label_2
_geom_bond_distance
_geom_bond_site_symmetry_2
La0 O0 2.366769 1_565
La0 O11 2.505289 1_565
La0 O10 2.505311 1_555
La0 O13 2.576767 1_565
La0 O12 2.577281 1_555
La0 O3 2.801677 1_555
La0 O3 2.801949 1_455
La0 O2 2.804254 1_565
La0 O2 2.804857 1_555
La1 O1 2.325251 1_555
La1 O11 2.513670 1_655
La1 O10 2.513688 1_555
La1 O12 2.576915 1_655
La1 O13 2.577099 1_555
La1 O3 2.800868 1_555
La1 O3 2.801315 1_545
La1 O2 2.805918 1_655
La1 O2 2.807173 1_555
Mn0 O7 1.889803 1_555
Mn0 O6 1.890766 1_445
Mn0 O8 1.932261 1_545
Mn0 O9 1.932325 1_455
Mn0 O5 1.973317 1_555
Mn0 O0 2.020339 1_555
Mn1 O4 1.893229 1_555
Mn1 O10 1.904353 1_555
Mn1 O11 1.904468 1_555
Mn1 O12 1.909683 1_555
Mn1 O13 1.909775 1_555
Mn1 O2 2.003906 1_555
Mn2 O9 1.935171 1_555
Mn2 O8 1.935197 1_555
Mn2 O4 2.026014 1_556
Mn2 O1 2.064935 1_555
Mn2 O6 2.135301 1_555
Mn2 O7 2.135902 1_555
Mn3 O5 1.907917 1_654
Mn3 O13 1.966196 1_555
Mn3 O12 1.966373 1_645
Mn3 O3 1.994331 1_545
Mn3 O11 2.131071 1_655
Mn3 O10 2.131315 1_545
O0 Sr0 2.814683 1_545
O0 Sr0 2.814688 1_555
O0 Sr1 2.814985 1_555
O0 Sr1 2.816123 1_455
O1 Sr1 2.820756 1_555
O1 Sr1 2.821100 1_565
O1 Sr0 2.822361 1_555
O1 Sr0 2.823055 1_655
O2 Sr0 2.454517 1_555
O3 Sr1 2.495082 1_565
O4 Sr3 2.793794 1_554
O4 Sr3 2.794644 1_564
O4 Sr2 2.795472 1_554
O4 Sr2 2.796056 1_654
O5 Sr2 2.792058 1_555
O5 Sr2 2.792497 1_545
O5 Sr3 2.793255 1_455
O5 Sr3 2.793599 1_555
O6 Sr0 2.562083 1_655
O6 Sr1 2.563314 1_565
O6 Sr2 2.679791 1_655
O6 Sr3 2.681791 1_565
O7 Sr0 2.561993 1_555
O7 Sr1 2.563040 1_555
O7 Sr2 2.679305 1_555
O7 Sr3 2.681634 1_555
O8 Sr0 2.610575 1_555
O8 Sr1 2.611840 1_565
O8 Sr2 2.743374 1_555
O8 Sr3 2.745821 1_565
O9 Sr0 2.610794 1_655
O9 Sr1 2.611437 1_555
O9 Sr2 2.744211 1_655
O9 Sr3 2.745757 1_555
O10 Sr3 2.897442 1_564
O10 Sr2 2.911727 1_654
O11 Sr3 2.897098 1_554
O11 Sr2 2.911529 1_554
O12 Sr3 2.942273 1_564
O12 Sr2 2.948899 1_554
O13 Sr3 2.942284 1_554
O13 Sr2 2.949685 1_654
