# generated using pymatgen
data_LaSnIr
_symmetry_space_group_name_H-M   'P 1'
_cell_length_a   7.51471949
_cell_length_b   7.51471949
_cell_length_c   4.24347767
_cell_angle_alpha   90.00000000
_cell_angle_beta   90.00000000
_cell_angle_gamma   120.00000574
_symmetry_Int_Tables_number   1
_chemical_formula_structural   LaSnIr
_chemical_formula_sum   'La3 Sn3 Ir3'
_cell_volume   207.52865702
_cell_formula_units_Z   3
loop_
 _symmetry_equiv_pos_site_id
 _symmetry_equiv_pos_as_xyz
  1  'x, y, z'
loop_
 _atom_site_type_symbol
 _atom_site_label
 _atom_site_symmetry_multiplicity
 _atom_site_fract_x
 _atom_site_fract_y
 _atom_site_fract_z
 _atom_site_occupancy
  La  La0  1  0.58382625  0.00000000  -0.00000000  1
  La  La1  1  0.00000000  0.58382625  -0.00000000  1
  La  La2  1  0.41617375  0.41617375  0.00000000  1
  Sn  Sn0  1  0.24608708  0.00000000  0.50000000  1
  Sn  Sn1  1  0.00000000  0.24608708  0.50000000  1
  Sn  Sn2  1  0.75391292  0.75391292  0.50000000  1
  Ir  Ir0  1  0.33333300  0.66666700  0.50000000  1
  Ir  Ir1  1  0.66666700  0.33333300  0.50000000  1
  Ir  Ir2  1  0.00000000  0.00000000  0.00000000  1
loop_
_geom_bond_atom_site_label_1
_geom_bond_atom_site_label_2
_geom_bond_distance
_geom_bond_site_symmetry_2
La0 Sn0 3.308065 1_554
La0 Sn0 3.308065 1_555
La0 Sn1 3.452380 1_655
La0 Sn1 3.452380 1_654
La0 Sn2 3.452380 1_544
La0 Sn2 3.452380 1_545
La1 Sn1 3.308065 1_555
La1 Sn1 3.308065 1_554
La1 Sn0 3.452380 1_565
La1 Sn0 3.452380 1_564
La1 Sn2 3.452380 1_455
La1 Sn2 3.452380 1_454
La2 Sn2 3.308065 1_555
La2 Sn2 3.308065 1_554
La2 Sn0 3.452380 1_555
La2 Sn1 3.452380 1_555
La2 Sn0 3.452380 1_554
La2 Sn1 3.452380 1_554
Sn0 Sn2 3.203039 1_445
Sn0 Sn1 3.203039 1_555
Sn1 Sn2 3.203039 1_445
Ir0 Sn0 2.889062 1_565
Ir0 Sn1 2.889067 1_555
Ir0 Sn2 2.889069 1_555
Ir0 La1 3.099111 1_555
Ir0 La1 3.099111 1_556
Ir0 La0 3.099113 1_565
Ir0 La0 3.099113 1_566
Ir0 La2 3.099117 1_556
Ir0 La2 3.099117 1_555
Ir1 Sn1 2.889062 1_655
Ir1 Sn0 2.889067 1_555
Ir1 Sn2 2.889069 1_555
Ir1 La0 3.099111 1_555
Ir1 La0 3.099111 1_556
Ir1 La1 3.099113 1_655
Ir1 La1 3.099113 1_656
Ir1 La2 3.099117 1_556
Ir1 La2 3.099117 1_555
Ir2 Sn2 2.814533 1_444
Ir2 Sn2 2.814533 1_445
Ir2 Sn0 2.814533 1_555
Ir2 Sn1 2.814533 1_554
Ir2 Sn1 2.814533 1_555
Ir2 Sn0 2.814533 1_554
Ir2 La2 3.127429 1_555
Ir2 La1 3.127429 1_545
Ir2 La0 3.127429 1_455
