# generated using pymatgen
data_Li2UN2
_symmetry_space_group_name_H-M   'P 1'
_cell_length_a   6.04268636
_cell_length_b   6.04268636
_cell_length_c   5.53854300
_cell_angle_alpha   90.00000000
_cell_angle_beta   90.00000000
_cell_angle_gamma   120.00000395
_symmetry_Int_Tables_number   1
_chemical_formula_structural   Li2UN2
_chemical_formula_sum   'Li6 U3 N6'
_cell_volume   175.14036592
_cell_formula_units_Z   3
loop_
 _symmetry_equiv_pos_site_id
 _symmetry_equiv_pos_as_xyz
  1  'x, y, z'
loop_
 _atom_site_type_symbol
 _atom_site_label
 _atom_site_symmetry_multiplicity
 _atom_site_fract_x
 _atom_site_fract_y
 _atom_site_fract_z
 _atom_site_occupancy
  Li  Li0  1  0.98429600  0.65823300  0.60600600  1
  Li  Li1  1  0.34176700  0.32606300  0.60600600  1
  Li  Li2  1  0.67393700  0.01570400  0.60600600  1
  Li  Li3  1  0.01570400  0.34176700  0.39399400  1
  Li  Li4  1  0.65823300  0.67393700  0.39399400  1
  Li  Li5  1  0.32606300  0.98429600  0.39399400  1
  U  U0  1  0.00000000  0.00000000  0.00000000  1
  U  U1  1  0.33333300  0.66666700  0.99295100  1
  U  U2  1  0.66666700  0.33333300  0.00704900  1
  N  N0  1  0.00013900  0.66645000  0.22513800  1
  N  N1  1  0.33355000  0.33368900  0.22513800  1
  N  N2  1  0.66631100  0.99986100  0.22513800  1
  N  N3  1  0.99986100  0.33355000  0.77486200  1
  N  N4  1  0.66645000  0.66631100  0.77486200  1
  N  N5  1  0.33368900  0.00013900  0.77486200  1
loop_
_geom_bond_atom_site_label_1
_geom_bond_atom_site_label_2
_geom_bond_distance
_geom_bond_site_symmetry_2
Li0 N0 2.111083 1_655
Li0 N4 2.158619 1_555
Li0 N3 2.217495 1_555
Li0 N5 2.288805 1_665
Li1 N1 2.111083 1_555
Li1 N5 2.158619 1_555
Li1 N4 2.217495 1_555
Li1 N3 2.288805 1_455
Li2 N2 2.111083 1_545
Li2 N3 2.158619 1_555
Li2 N5 2.217495 1_555
Li2 N4 2.288805 1_545
Li3 N3 2.111083 1_455
Li3 N1 2.158619 1_555
Li3 N0 2.217495 1_555
Li3 N2 2.288805 1_445
Li4 N4 2.111083 1_555
Li4 N2 2.158619 1_555
Li4 N1 2.217495 1_555
Li4 N0 2.288805 1_655
Li5 N5 2.111083 1_565
Li5 N0 2.158619 1_555
Li5 N2 2.217495 1_555
Li5 N1 2.288805 1_565
N0 U2 2.348443 1_455
N0 U0 2.370430 1_565
N0 U1 2.388478 1_554
N1 U2 2.348446 1_555
N1 U0 2.370430 1_555
N1 U1 2.388483 1_554
N2 U2 2.348441 1_565
N2 U0 2.370430 1_665
N2 U1 2.388480 1_554
N3 U1 2.348443 1_655
N3 U0 2.370430 1_656
N3 U2 2.388478 1_556
N4 U1 2.348446 1_555
N4 U0 2.370430 1_666
N4 U2 2.388483 1_556
N5 U1 2.348441 1_545
N5 U0 2.370430 1_556
N5 U2 2.388480 1_556
