# generated using pymatgen
data_PrMg(BO2)5
_symmetry_space_group_name_H-M   'P 1'
_cell_length_a   7.69537800
_cell_length_b   8.77201400
_cell_length_c   12.66482675
_cell_angle_alpha   48.85712468
_cell_angle_beta   90.00000000
_cell_angle_gamma   90.00000000
_symmetry_Int_Tables_number   1
_chemical_formula_structural   PrMg(BO2)5
_chemical_formula_sum   'Pr4 Mg4 B20 O40'
_cell_volume   643.82019994
_cell_formula_units_Z   4
loop_
 _symmetry_equiv_pos_site_id
 _symmetry_equiv_pos_as_xyz
  1  'x, y, z'
loop_
 _atom_site_type_symbol
 _atom_site_label
 _atom_site_symmetry_multiplicity
 _atom_site_fract_x
 _atom_site_fract_y
 _atom_site_fract_z
 _atom_site_occupancy
  Pr  Pr0  1  0.18301500  0.94862500  0.23515600  1
  Pr  Pr1  1  0.81698500  0.05137500  0.76484400  1
  Pr  Pr2  1  0.68301500  0.05137500  0.26484400  1
  Pr  Pr3  1  0.31698500  0.94862500  0.73515600  1
  Mg  Mg0  1  0.90967000  0.51848600  0.37581000  1
  Mg  Mg1  1  0.09033000  0.48151400  0.62419000  1
  Mg  Mg2  1  0.40967000  0.48151400  0.12419000  1
  Mg  Mg3  1  0.59033000  0.51848600  0.87581000  1
  B  B0  1  0.82612200  0.90809200  0.10673300  1
  B  B1  1  0.17387800  0.09190800  0.89326700  1
  B  B2  1  0.32612200  0.09190800  0.39326700  1
  B  B3  1  0.67387800  0.90809200  0.60673300  1
  B  B4  1  0.57923000  0.65193100  0.26147600  1
  B  B5  1  0.42077000  0.34806900  0.73852400  1
  B  B6  1  0.07923000  0.34806900  0.23852400  1
  B  B7  1  0.92077000  0.65193100  0.76147600  1
  B  B8  1  0.81544900  0.48275600  0.08695000  1
  B  B9  1  0.18455100  0.51724400  0.91305000  1
  B  B10  1  0.31544900  0.51724400  0.41305000  1
  B  B11  1  0.68455100  0.48275600  0.58695000  1
  B  B12  1  0.46624600  0.72523400  0.55586300  1
  B  B13  1  0.53375400  0.27476600  0.44413700  1
  B  B14  1  0.96624600  0.27476600  0.94413700  1
  B  B15  1  0.03375400  0.72523400  0.05586300  1
  B  B16  1  0.59791800  0.84239100  0.00220700  1
  B  B17  1  0.40208200  0.15760900  0.99779300  1
  B  B18  1  0.09791800  0.15760900  0.49779300  1
  B  B19  1  0.90208200  0.84239100  0.50220700  1
  O  O0  1  0.91641200  0.31953100  0.19177200  1
  O  O1  1  0.08358800  0.68046900  0.80822800  1
  O  O2  1  0.41641200  0.68046900  0.30822800  1
  O  O3  1  0.58358800  0.31953100  0.69177200  1
  O  O4  1  0.87747300  0.67664200  0.01009300  1
  O  O5  1  0.12252700  0.32335800  0.98990700  1
  O  O6  1  0.37747300  0.32335800  0.48990700  1
  O  O7  1  0.62252700  0.67664200  0.51009300  1
  O  O8  1  0.39182700  0.91075600  0.41913300  1
  O  O9  1  0.60817300  0.08924400  0.58086700  1
  O  O10  1  0.89182700  0.08924400  0.08086700  1
  O  O11  1  0.10817300  0.91075600  0.91913300  1
  O  O12  1  0.71424200  0.79510100  0.23404700  1
  O  O13  1  0.28575800  0.20489900  0.76595300  1
  O  O14  1  0.21424200  0.20489900  0.26595300  1
  O  O15  1  0.78575800  0.79510100  0.73404700  1
  O  O16  1  0.65410200  0.43384900  0.06928900  1
  O  O17  1  0.34589800  0.56615100  0.93071100  1
  O  O18  1  0.15410200  0.56615100  0.43071100  1
  O  O19  1  0.84589800  0.43384900  0.56928900  1
  O  O20  1  0.77500200  0.96964700  0.48622100  1
  O  O21  1  0.22499800  0.03035300  0.51377900  1
  O  O22  1  0.27500200  0.03035300  0.01377900  1
  O  O23  1  0.72499800  0.96964700  0.98622100  1
  O  O24  1  0.65263500  0.44727400  0.36699200  1
  O  O25  1  0.34736500  0.55272600  0.63300800  1
  O  O26  1  0.15263500  0.55272600  0.13300800  1
  O  O27  1  0.84736500  0.44727400  0.86699200  1
  O  O28  1  0.53348700  0.68382200  0.13307000  1
  O  O29  1  0.46651300  0.31617800  0.86693000  1
  O  O30  1  0.03348700  0.31617800  0.36693000  1
  O  O31  1  0.96651300  0.68382200  0.63307000  1
  O  O32  1  0.95355700  0.87549400  0.38674700  1
  O  O33  1  0.04644300  0.12450600  0.61325300  1
  O  O34  1  0.45355700  0.12450600  0.11325300  1
  O  O35  1  0.54644300  0.87549400  0.88674700  1
  O  O36  1  0.97308600  0.76604200  0.14780300  1
  O  O37  1  0.02691400  0.23395800  0.85219700  1
  O  O38  1  0.47308600  0.23395800  0.35219700  1
  O  O39  1  0.52691400  0.76604200  0.64780300  1
loop_
_geom_bond_atom_site_label_1
_geom_bond_atom_site_label_2
_geom_bond_distance
_geom_bond_site_symmetry_2
Mg0 O30 2.081470 1_655
Mg0 O19 2.098211 1_555
Mg0 O24 2.099261 1_555
Mg0 O18 2.139856 1_655
Mg0 O36 2.245200 1_555
Mg0 O12 2.374934 1_555
Mg1 O31 2.081470 1_455
Mg1 O18 2.098211 1_555
Mg1 O25 2.099261 1_555
Mg1 O19 2.139856 1_455
Mg1 O37 2.245200 1_555
Mg1 O13 2.374934 1_555
Mg2 O28 2.081470 1_555
Mg2 O17 2.098211 1_554
Mg2 O26 2.099261 1_555
Mg2 O16 2.139856 1_555
Mg2 O38 2.245200 1_555
Mg2 O14 2.374934 1_555
Mg3 O29 2.081470 1_555
Mg3 O16 2.098211 1_556
Mg3 O27 2.099261 1_555
Mg3 O17 2.139856 1_555
Mg3 O39 2.245200 1_555
Mg3 O15 2.374934 1_555
B0 O23 1.463615 1_554
B0 O10 1.484289 1_565
B0 O12 1.490146 1_555
B0 O36 1.499799 1_555
B1 O22 1.463615 1_556
B1 O11 1.484289 1_545
B1 O13 1.490146 1_555
B1 O37 1.499799 1_555
B2 O21 1.463615 1_555
B2 O8 1.484289 1_545
B2 O14 1.490146 1_555
B2 O38 1.499799 1_555
B3 O20 1.463615 1_555
B3 O9 1.484289 1_565
B3 O15 1.490146 1_555
B3 O39 1.499799 1_555
B4 O24 1.473414 1_555
B4 O2 1.475865 1_555
B4 O12 1.484353 1_555
B4 O28 1.499394 1_555
B5 O25 1.473414 1_555
B5 O3 1.475865 1_555
B5 O13 1.484353 1_555
B5 O29 1.499394 1_555
B6 O26 1.473414 1_555
B6 O0 1.475865 1_455
B6 O14 1.484353 1_555
B6 O30 1.499394 1_555
B7 O27 1.473414 1_555
B7 O1 1.475865 1_655
B7 O15 1.484353 1_555
B7 O31 1.499394 1_555
B8 O4 1.374581 1_555
B8 O16 1.379126 1_555
B8 O0 1.383800 1_555
B9 O5 1.374581 1_555
B9 O17 1.379126 1_555
B9 O1 1.383800 1_555
B10 O6 1.374581 1_555
B10 O18 1.379126 1_555
B10 O2 1.383800 1_555
B11 O7 1.374581 1_555
B11 O19 1.379126 1_555
B11 O3 1.383800 1_555
B12 O25 1.461475 1_555
B12 O39 1.500141 1_555
B12 O8 1.505578 1_555
B12 O7 1.513005 1_555
B13 O24 1.461475 1_555
B13 O38 1.500141 1_555
B13 O9 1.505578 1_555
B13 O6 1.513005 1_555
B14 O27 1.461475 1_555
B14 O37 1.500141 1_655
B14 O10 1.505578 1_556
B14 O5 1.513005 1_655
B15 O26 1.461475 1_555
B15 O36 1.500141 1_455
B15 O11 1.505578 1_554
B15 O4 1.513005 1_455
B16 O35 1.349353 1_554
B16 O28 1.376201 1_555
B16 O23 1.395008 1_554
B17 O34 1.349353 1_556
B17 O29 1.376201 1_555
B17 O22 1.395008 1_556
B18 O33 1.349353 1_555
B18 O30 1.376201 1_555
B18 O21 1.395008 1_555
B19 O32 1.349353 1_555
B19 O31 1.376201 1_555
B19 O20 1.395008 1_555
O0 Pr2 2.598266 1_555
O1 Pr3 2.598266 1_555
O2 Pr0 2.598266 1_555
O3 Pr1 2.598266 1_555
O4 Pr1 2.689683 1_564
O5 Pr0 2.689683 1_546
O6 Pr3 2.689683 1_545
O7 Pr2 2.689683 1_565
O8 Pr0 2.665146 1_555
O8 Pr2 2.681291 1_565
O9 Pr1 2.665146 1_555
O9 Pr3 2.681291 1_545
O10 Pr2 2.665146 1_555
O10 Pr0 2.681291 1_645
O11 Pr3 2.665146 1_555
O11 Pr1 2.681291 1_465
O12 Pr2 2.533248 1_565
O13 Pr3 2.533248 1_545
O14 Pr0 2.533248 1_545
O15 Pr1 2.533248 1_565
O16 Pr2 2.550633 1_555
O17 Pr3 2.550633 1_555
O18 Pr0 2.550633 1_555
O19 Pr1 2.550633 1_555
O20 Pr2 2.496167 1_565
O21 Pr3 2.496167 1_545
O22 Pr0 2.496167 1_545
O23 Pr1 2.496167 1_565
O32 Pr0 2.365317 1_655
O32 Pr2 2.442119 1_565
O33 Pr1 2.365317 1_455
O33 Pr3 2.442119 1_545
O34 Pr2 2.365317 1_555
O34 Pr0 2.442119 1_545
O35 Pr3 2.365317 1_555
O35 Pr1 2.442119 1_565
O36 Pr0 2.954740 1_655
O37 Pr1 2.954740 1_455
O38 Pr2 2.954740 1_555
O39 Pr3 2.954740 1_555
