# generated using pymatgen
data_Rb4MgH12(SeO3)8
_symmetry_space_group_name_H-M   'P 1'
_cell_length_a   6.15928342
_cell_length_b   6.36722689
_cell_length_c   22.60894316
_cell_angle_alpha   90.00000000
_cell_angle_beta   89.04925883
_cell_angle_gamma   90.00000000
_symmetry_Int_Tables_number   1
_chemical_formula_structural   Rb4MgH12(SeO3)8
_chemical_formula_sum   'Rb4 Mg1 H12 Se8 O24'
_cell_volume   886.54540439
_cell_formula_units_Z   1
loop_
 _symmetry_equiv_pos_site_id
 _symmetry_equiv_pos_as_xyz
  1  'x, y, z'
loop_
 _atom_site_type_symbol
 _atom_site_label
 _atom_site_symmetry_multiplicity
 _atom_site_fract_x
 _atom_site_fract_y
 _atom_site_fract_z
 _atom_site_occupancy
  Rb  Rb0  1  0.27816583  0.24885753  0.37988688  1
  Rb  Rb1  1  0.22183417  0.24885753  0.62011312  1
  Rb  Rb2  1  0.79677240  0.75267805  0.12475303  1
  Rb  Rb3  1  0.70322760  0.75267805  0.87524697  1
  Mg  Mg0  1  0.75000000  0.19491900  -0.00000000  1
  H  H0  1  0.29635277  0.02682079  0.06476852  1
  H  H1  1  0.20364723  0.02682079  0.93523148  1
  H  H2  1  0.79387468  0.93799378  0.44716564  1
  H  H3  1  0.70612532  0.93799378  0.55283436  1
  H  H4  1  0.98606313  0.45939545  0.26315321  1
  H  H5  1  0.51393687  0.45939545  0.73684679  1
  H  H6  1  0.48546250  0.54043880  0.24056344  1
  H  H7  1  0.01453750  0.54043880  0.75943656  1
  H  H8  1  0.61667012  0.27920405  0.13969032  1
  H  H9  1  0.88332988  0.27920405  0.86030968  1
  H  H10  1  0.10966535  0.72640722  0.36327412  1
  H  H11  1  0.39033465  0.72640722  0.63672588  1
  Se  Se0  1  0.23737009  0.30177002  0.13046200  1
  Se  Se1  1  0.26262991  0.30177002  0.86953800  1
  Se  Se2  1  0.73025089  0.69066133  0.37525016  1
  Se  Se3  1  0.76974911  0.69066133  0.62474984  1
  Se  Se4  1  0.73989291  0.16786991  0.25593068  1
  Se  Se5  1  0.76010709  0.16786991  0.74406932  1
  Se  Se6  1  0.24179542  0.83434752  0.24758811  1
  Se  Se7  1  0.25820458  0.83434752  0.75241189  1
  O  O0  1  0.22121684  0.02719505  0.10353184  1
  O  O1  1  0.27878316  0.02719505  0.89646816  1
  O  O2  1  0.69288729  0.94664805  0.41419745  1
  O  O3  1  0.80711271  0.94664805  0.58580255  1
  O  O4  1  0.52153111  0.32387526  0.27005765  1
  O  O5  1  0.97846889  0.32387526  0.72994235  1
  O  O6  1  0.02116644  0.68031083  0.23576351  1
  O  O7  1  0.47883356  0.68031083  0.76423649  1
  O  O8  1  0.51667372  0.34373483  0.10739701  1
  O  O9  1  0.98332628  0.34373483  0.89260299  1
  O  O10  1  0.00890452  0.66003021  0.39583114  1
  O  O11  1  0.49109548  0.66003021  0.60416886  1
  O  O12  1  0.78365816  0.18263944  0.18103458  1
  O  O13  1  0.71634184  0.18263944  0.81896542  1
  O  O14  1  0.28167247  0.82506809  0.32228883  1
  O  O15  1  0.21832753  0.82506809  0.67771117  1
  O  O16  1  0.11108689  0.44153803  0.08037588  1
  O  O17  1  0.38891311  0.44153803  0.91962412  1
  O  O18  1  0.61219093  0.51872394  0.41908952  1
  O  O19  1  0.88780907  0.51872394  0.58091048  1
  O  O20  1  0.96484417  0.31653198  0.28451906  1
  O  O21  1  0.53515583  0.31653198  0.71548094  1
  O  O22  1  0.46463460  0.68021685  0.21794103  1
  O  O23  1  0.03536540  0.68021685  0.78205897  1
loop_
_geom_bond_atom_site_label_1
_geom_bond_atom_site_label_2
_geom_bond_distance
_geom_bond_site_symmetry_2
H0 O0 0.984270 1_555
H1 O1 0.984270 1_555
H2 O2 0.980257 1_555
H3 O3 0.980257 1_555
H4 O20 1.037200 1_555
H4 O6 1.550597 1_655
H5 O21 1.037200 1_555
H5 O7 1.550597 1_555
H6 O22 1.035535 1_555
H6 O4 1.549299 1_555
H7 O23 1.035535 1_555
H7 O5 1.549299 1_455
H8 O8 1.046976 1_555
H8 O12 1.530219 1_555
H9 O9 1.046976 1_555
H9 O13 1.530219 1_555
H10 O10 1.044241 1_555
H10 O14 1.530724 1_555
H11 O11 1.044241 1_555
H11 O15 1.530724 1_555
O0 Se0 1.854484 1_555
O0 Rb2 3.174617 1_445
O1 Se1 1.854484 1_555
O1 Rb3 3.174617 1_545
O2 Se2 1.865013 1_555
O2 Rb0 3.300771 1_565
O3 Se3 1.865013 1_555
O3 Rb1 3.300771 1_665
O4 Se4 1.698041 1_555
O4 Rb0 2.918459 1_555
O5 Se5 1.698041 1_555
O5 Rb1 2.918459 1_655
O6 Se6 1.700625 1_555
O6 Rb2 2.921797 1_455
O7 Se7 1.700625 1_555
O7 Rb3 2.921797 1_555
O8 Se0 1.809151 1_555
O8 Rb2 3.151625 1_555
O9 Se1 1.809151 1_655
O9 Rb3 3.151625 1_555
O10 Se2 1.796321 1_455
O10 Rb0 3.116836 1_555
O11 Se3 1.796321 1_555
O11 Rb1 3.116836 1_555
O12 Se4 1.712804 1_555
O12 Rb2 3.019450 1_545
O13 Se5 1.712804 1_555
O13 Rb3 3.019450 1_545
O14 Se6 1.711719 1_555
O14 Rb0 2.996082 1_565
O15 Se7 1.711719 1_555
O15 Rb1 2.996082 1_565
O16 Se0 1.645760 1_555
O16 Rb2 2.935108 1_455
O17 Se1 1.645760 1_555
O17 Rb3 2.935108 1_555
O18 Se2 1.638829 1_555
O18 Rb0 2.833966 1_555
O19 Se3 1.638829 1_555
O19 Rb1 2.833966 1_655
O20 Se4 1.806431 1_555
O20 Rb0 2.949081 1_655
O21 Se5 1.806431 1_555
O21 Rb1 2.949081 1_555
O22 Se6 1.807128 1_555
O22 Rb2 2.948525 1_555
O23 Se7 1.807128 1_555
O23 Rb3 2.948525 1_455
