# generated using pymatgen
data_MgSb2
_symmetry_space_group_name_H-M   'P 1'
_cell_length_a   5.54234007
_cell_length_b   5.54234007
_cell_length_c   5.60695100
_cell_angle_alpha   90.00000000
_cell_angle_beta   90.00000000
_cell_angle_gamma   115.90061778
_symmetry_Int_Tables_number   1
_chemical_formula_structural   MgSb2
_chemical_formula_sum   'Mg2 Sb4'
_cell_volume   154.93155868
_cell_formula_units_Z   2
loop_
 _symmetry_equiv_pos_site_id
 _symmetry_equiv_pos_as_xyz
  1  'x, y, z'
loop_
 _atom_site_type_symbol
 _atom_site_label
 _atom_site_symmetry_multiplicity
 _atom_site_fract_x
 _atom_site_fract_y
 _atom_site_fract_z
 _atom_site_occupancy
  Mg  Mg0  1  0.68411700  0.68411700  0.75000000  1
  Mg  Mg1  1  0.31588300  0.31588300  0.25000000  1
  Sb  Sb0  1  0.03378200  0.36543400  0.75000000  1
  Sb  Sb1  1  0.36543400  0.03378200  0.75000000  1
  Sb  Sb2  1  0.63456600  0.96621800  0.25000000  1
  Sb  Sb3  1  0.96621800  0.63456600  0.25000000  1
loop_
_geom_bond_atom_site_label_1
_geom_bond_atom_site_label_2
_geom_bond_distance
_geom_bond_site_symmetry_2
Mg0 Sb1 3.140968 1_565
Mg0 Sb0 3.140968 1_655
Mg0 Sb0 3.247998 1_555
Mg0 Sb1 3.247998 1_555
Mg0 Sb3 3.279412 1_555
Mg0 Sb2 3.279412 1_555
Mg0 Sb2 3.279412 1_556
Mg0 Sb3 3.279412 1_556
Mg0 Sb0 3.409025 1_665
Mg0 Sb1 3.409025 1_665
Mg1 Sb2 3.140968 1_545
Mg1 Sb3 3.140968 1_455
Mg1 Sb3 3.247998 1_555
Mg1 Sb2 3.247998 1_555
Mg1 Sb1 3.279412 1_554
Mg1 Sb1 3.279412 1_555
Mg1 Sb0 3.279412 1_554
Mg1 Sb0 3.279412 1_555
Mg1 Sb3 3.409025 1_445
Mg1 Sb2 3.409025 1_445
Sb0 Sb1 3.115951 1_555
Sb0 Sb3 3.273011 1_456
Sb0 Sb3 3.273011 1_455
Sb0 Sb1 3.339396 1_455
Sb0 Sb1 3.339396 1_565
Sb1 Sb2 3.273011 1_546
Sb1 Sb2 3.273011 1_545
Sb2 Sb3 3.115951 1_555
Sb2 Sb3 3.339396 1_565
Sb2 Sb3 3.339396 1_455
