# generated using pymatgen
data_PrSI
_symmetry_space_group_name_H-M   'P 1'
_cell_length_a   7.12053635
_cell_length_b   7.35293454
_cell_length_c   14.48859775
_cell_angle_alpha   90.00000000
_cell_angle_beta   90.00000000
_cell_angle_gamma   90.00000000
_symmetry_Int_Tables_number   1
_chemical_formula_structural   PrSI
_chemical_formula_sum   'Pr8 S8 I8'
_cell_volume   758.57716048
_cell_formula_units_Z   8
loop_
 _symmetry_equiv_pos_site_id
 _symmetry_equiv_pos_as_xyz
  1  'x, y, z'
loop_
 _atom_site_type_symbol
 _atom_site_label
 _atom_site_symmetry_multiplicity
 _atom_site_fract_x
 _atom_site_fract_y
 _atom_site_fract_z
 _atom_site_occupancy
  Pr  Pr0  1  0.25782562  0.97085099  0.91618465  1
  Pr  Pr1  1  0.74217438  0.02914901  0.08381535  1
  Pr  Pr2  1  0.24217438  0.47085099  0.08381535  1
  Pr  Pr3  1  0.74217438  0.52914901  0.41618465  1
  Pr  Pr4  1  0.75782562  0.52914901  0.91618465  1
  Pr  Pr5  1  0.25782562  0.47085099  0.58381535  1
  Pr  Pr6  1  0.75782562  0.02914901  0.58381535  1
  Pr  Pr7  1  0.24217438  0.97085099  0.41618465  1
  S  S0  1  0.99862458  0.74207298  0.52331578  1
  S  S1  1  0.00137542  0.25792702  0.47668422  1
  S  S2  1  0.50137542  0.24207298  0.47668422  1
  S  S3  1  0.00137542  0.75792702  0.02331578  1
  S  S4  1  0.49862458  0.75792702  0.52331578  1
  S  S5  1  0.99862458  0.24207298  0.97668422  1
  S  S6  1  0.49862458  0.25792702  0.97668422  1
  S  S7  1  0.50137542  0.74207298  0.02331578  1
  I  I0  1  0.17873889  0.59614839  0.79922488  1
  I  I1  1  0.82126111  0.40385161  0.20077512  1
  I  I2  1  0.32126111  0.09614839  0.20077512  1
  I  I3  1  0.82126111  0.90385161  0.29922488  1
  I  I4  1  0.67873889  0.90385161  0.79922488  1
  I  I5  1  0.17873889  0.09614839  0.70077512  1
  I  I6  1  0.67873889  0.40385161  0.70077512  1
  I  I7  1  0.32126111  0.59614839  0.29922488  1
loop_
_geom_bond_atom_site_label_1
_geom_bond_atom_site_label_2
_geom_bond_distance
_geom_bond_site_symmetry_2
Pr0 S5 2.855156 1_465
Pr0 S6 2.857263 1_565
Pr0 S3 2.862677 1_556
Pr0 S7 2.871671 1_556
Pr1 S3 2.855156 1_645
Pr1 S7 2.857263 1_545
Pr1 S5 2.862677 1_554
Pr1 S6 2.871671 1_554
Pr2 S7 2.855156 1_555
Pr2 S3 2.857263 1_555
Pr2 S6 2.862677 1_554
Pr2 S5 2.871671 1_454
Pr3 S1 2.855156 1_655
Pr3 S2 2.857263 1_555
Pr3 S0 2.862677 1_555
Pr3 S4 2.871671 1_555
Pr4 S6 2.855156 1_555
Pr4 S5 2.857263 1_555
Pr4 S7 2.862677 1_556
Pr4 S3 2.871671 1_656
Pr5 S0 2.855156 1_455
Pr5 S4 2.857263 1_555
Pr5 S1 2.862677 1_555
Pr5 S2 2.871671 1_555
Pr6 S4 2.855156 1_545
Pr6 S0 2.857263 1_545
Pr6 S2 2.862677 1_555
Pr6 S1 2.871671 1_655
Pr7 S2 2.855156 1_565
Pr7 S1 2.857263 1_565
Pr7 S4 2.862677 1_555
Pr7 S0 2.871671 1_455
I0 Pr0 3.283240 1_555
I0 Pr5 3.302492 1_555
I0 Pr4 3.478086 1_455
I1 Pr1 3.283240 1_555
I1 Pr3 3.302492 1_555
I1 Pr2 3.478086 1_655
I2 Pr2 3.283240 1_555
I2 Pr7 3.302492 1_545
I2 Pr1 3.478086 1_555
I3 Pr3 3.283240 1_555
I3 Pr1 3.302492 1_565
I3 Pr7 3.478086 1_655
I4 Pr4 3.283240 1_555
I4 Pr6 3.302492 1_565
I4 Pr0 3.478086 1_555
I5 Pr5 3.283240 1_555
I5 Pr0 3.302492 1_545
I5 Pr6 3.478086 1_455
I6 Pr6 3.283240 1_555
I6 Pr4 3.302492 1_555
I6 Pr5 3.478086 1_555
I7 Pr7 3.283240 1_555
I7 Pr2 3.302492 1_555
I7 Pr3 3.478086 1_555
