# generated using pymatgen
data_Mo2N2O7
_symmetry_space_group_name_H-M   'P 1'
_cell_length_a   7.92650900
_cell_length_b   8.42459522
_cell_length_c   8.52512426
_cell_angle_alpha   82.59575740
_cell_angle_beta   117.02560805
_cell_angle_gamma   107.89129454
_symmetry_Int_Tables_number   1
_chemical_formula_structural   Mo2N2O7
_chemical_formula_sum   'Mo4 N4 O14'
_cell_volume   482.56083957
_cell_formula_units_Z   2
loop_
 _symmetry_equiv_pos_site_id
 _symmetry_equiv_pos_as_xyz
  1  'x, y, z'
loop_
 _atom_site_type_symbol
 _atom_site_label
 _atom_site_symmetry_multiplicity
 _atom_site_fract_x
 _atom_site_fract_y
 _atom_site_fract_z
 _atom_site_occupancy
  Mo  Mo0  1  0.20166400  0.26177900  0.06668300  1
  Mo  Mo1  1  0.79833600  0.73822100  0.93331700  1
  Mo  Mo2  1  0.24752600  0.88614700  0.31281400  1
  Mo  Mo3  1  0.75247400  0.11385300  0.68718600  1
  N  N0  1  0.76030300  0.61431200  0.44797500  1
  N  N1  1  0.23969700  0.38568800  0.55202500  1
  N  N2  1  0.77026800  0.27254400  0.14951200  1
  N  N3  1  0.22973200  0.72745600  0.85048800  1
  O  O0  1  0.19645400  0.10044800  0.24621500  1
  O  O1  1  0.80354600  0.89955200  0.75378500  1
  O  O2  1  0.32032000  0.21095300  0.96335700  1
  O  O3  1  0.67968000  0.78904700  0.03664300  1
  O  O4  1  0.32811200  0.45943000  0.15459400  1
  O  O5  1  0.67188800  0.54057000  0.84540600  1
  O  O6  1  0.19398600  0.78836700  0.48104400  1
  O  O7  1  0.80601400  0.21163300  0.51895600  1
  O  O8  1  0.93290900  0.24437400  0.89593100  1
  O  O9  1  0.06709100  0.75562600  0.10406900  1
  O  O10  1  0.88235100  0.40352000  0.19414800  1
  O  O11  1  0.11764900  0.59648000  0.80585200  1
  O  O12  1  0.48665100  0.89284000  0.36273300  1
  O  O13  1  0.51334900  0.10716000  0.63726700  1
loop_
_geom_bond_atom_site_label_1
_geom_bond_atom_site_label_2
_geom_bond_distance
_geom_bond_site_symmetry_2
Mo0 O2 1.715058 1_554
Mo0 O4 1.718278 1_555
Mo0 O0 1.917895 1_555
Mo0 O8 1.929661 1_454
Mo1 O3 1.715058 1_556
Mo1 O5 1.718278 1_555
Mo1 O1 1.917895 1_555
Mo1 O9 1.929661 1_656
Mo2 O6 1.717378 1_555
Mo2 O12 1.727541 1_555
Mo2 O9 1.909600 1_555
Mo2 O0 1.929170 1_565
Mo3 O7 1.717378 1_555
Mo3 O13 1.727541 1_555
Mo3 O8 1.909600 1_555
Mo3 O1 1.929170 1_545
N2 O10 1.162025 1_555
N3 O11 1.162025 1_555
