# generated using pymatgen
data_MgBi
_symmetry_space_group_name_H-M   'P 1'
_cell_length_a   13.31738473
_cell_length_b   13.31738473
_cell_length_c   15.67260866
_cell_angle_alpha   77.77744110
_cell_angle_beta   77.77744110
_cell_angle_gamma   29.30302674
_symmetry_Int_Tables_number   1
_chemical_formula_structural   MgBi
_chemical_formula_sum   'Mg24 Bi24'
_cell_volume   1327.43500271
_cell_formula_units_Z   24
loop_
 _symmetry_equiv_pos_site_id
 _symmetry_equiv_pos_as_xyz
  1  'x, y, z'
loop_
 _atom_site_type_symbol
 _atom_site_label
 _atom_site_symmetry_multiplicity
 _atom_site_fract_x
 _atom_site_fract_y
 _atom_site_fract_z
 _atom_site_occupancy
  Mg  Mg0_0  1  0.00127350  0.00127350  0.49815150  1
  Mg  Mg0_1  1  0.00127350  0.00127350  0.99815150  1
  Mg  Mg0_2  1  0.00127350  0.50127350  0.49815150  1
  Mg  Mg0_3  1  0.00127350  0.50127350  0.99815150  1
  Mg  Mg0_4  1  0.50127350  0.00127350  0.49815150  1
  Mg  Mg0_5  1  0.50127350  0.00127350  0.99815150  1
  Mg  Mg0_6  1  0.50127350  0.50127350  0.49815150  1
  Mg  Mg0_7  1  0.50127350  0.50127350  0.99815150  1
  Mg  Mg1_0  1  0.47440800  0.47440800  0.30915750  1
  Mg  Mg1_1  1  0.47440800  0.47440800  0.80915750  1
  Mg  Mg1_2  1  0.47440800  0.97440800  0.30915750  1
  Mg  Mg1_3  1  0.47440800  0.97440800  0.80915750  1
  Mg  Mg1_4  1  0.97440800  0.47440800  0.30915750  1
  Mg  Mg1_5  1  0.97440800  0.47440800  0.80915750  1
  Mg  Mg1_6  1  0.97440800  0.97440800  0.30915750  1
  Mg  Mg1_7  1  0.97440800  0.97440800  0.80915750  1
  Mg  Mg2_0  1  0.33073500  0.33073500  0.33451900  1
  Mg  Mg2_1  1  0.33073500  0.33073500  0.83451900  1
  Mg  Mg2_2  1  0.33073500  0.83073500  0.33451900  1
  Mg  Mg2_3  1  0.33073500  0.83073500  0.83451900  1
  Mg  Mg2_4  1  0.83073500  0.33073500  0.33451900  1
  Mg  Mg2_5  1  0.83073500  0.33073500  0.83451900  1
  Mg  Mg2_6  1  0.83073500  0.83073500  0.33451900  1
  Mg  Mg2_7  1  0.83073500  0.83073500  0.83451900  1
  Bi  Bi0_0  1  0.29692950  0.29692950  0.15037550  1
  Bi  Bi0_1  1  0.29692950  0.29692950  0.65037550  1
  Bi  Bi0_2  1  0.29692950  0.79692950  0.15037550  1
  Bi  Bi0_3  1  0.29692950  0.79692950  0.65037550  1
  Bi  Bi0_4  1  0.79692950  0.29692950  0.15037550  1
  Bi  Bi0_5  1  0.79692950  0.29692950  0.65037550  1
  Bi  Bi0_6  1  0.79692950  0.79692950  0.15037550  1
  Bi  Bi0_7  1  0.79692950  0.79692950  0.65037550  1
  Bi  Bi1_0  1  0.16798950  0.16798950  0.17243900  1
  Bi  Bi1_1  1  0.16798950  0.16798950  0.67243900  1
  Bi  Bi1_2  1  0.16798950  0.66798950  0.17243900  1
  Bi  Bi1_3  1  0.16798950  0.66798950  0.67243900  1
  Bi  Bi1_4  1  0.66798950  0.16798950  0.17243900  1
  Bi  Bi1_5  1  0.66798950  0.16798950  0.67243900  1
  Bi  Bi1_6  1  0.66798950  0.66798950  0.17243900  1
  Bi  Bi1_7  1  0.66798950  0.66798950  0.67243900  1
  Bi  Bi2_0  1  0.14533100  0.14533100  0.45202400  1
  Bi  Bi2_1  1  0.14533100  0.14533100  0.95202400  1
  Bi  Bi2_2  1  0.14533100  0.64533100  0.45202400  1
  Bi  Bi2_3  1  0.14533100  0.64533100  0.95202400  1
  Bi  Bi2_4  1  0.64533100  0.14533100  0.45202400  1
  Bi  Bi2_5  1  0.64533100  0.14533100  0.95202400  1
  Bi  Bi2_6  1  0.64533100  0.64533100  0.45202400  1
  Bi  Bi2_7  1  0.64533100  0.64533100  0.95202400  1
loop_
_geom_bond_atom_site_label_1
_geom_bond_atom_site_label_2
_geom_bond_distance
_geom_bond_site_symmetry_2
Mg0_0 Mg1_6 3.185956 1_445
Mg0_0 Mg2_4 3.362756 1_455
Mg0_0 Mg2_2 3.362756 1_545
Mg0_0 Mg0_6 3.368490 1_545
Mg0_0 Mg0_6 3.368490 1_455
Mg0_1 Mg1_7 3.185956 1_445
Mg0_1 Mg2_3 3.362756 1_545
Mg0_1 Mg2_5 3.362756 1_455
Mg0_1 Mg0_7 3.368490 1_455
Mg0_1 Mg0_7 3.368490 1_545
Mg0_2 Mg1_4 3.185956 1_455
Mg0_2 Mg2_0 3.362756 1_555
Mg0_2 Mg2_6 3.362756 1_455
Mg0_2 Mg0_4 3.368490 1_465
Mg0_2 Mg0_4 3.368490 1_555
Mg0_3 Mg1_5 3.185956 1_455
Mg0_3 Mg2_1 3.362756 1_555
Mg0_3 Mg2_7 3.362756 1_455
Mg0_3 Mg0_5 3.368490 1_555
Mg0_3 Mg0_5 3.368490 1_465
Mg0_4 Mg1_2 3.185956 1_545
Mg0_4 Mg2_0 3.362756 1_555
Mg0_4 Mg2_6 3.362756 1_545
Mg0_5 Mg1_3 3.185956 1_545
Mg0_5 Mg2_1 3.362756 1_555
Mg0_5 Mg2_7 3.362756 1_545
Mg0_6 Mg1_0 3.185956 1_555
Mg0_6 Mg2_4 3.362756 1_555
Mg0_6 Mg2_2 3.362756 1_555
Mg0_7 Mg1_1 3.185956 1_555
Mg0_7 Mg2_3 3.362756 1_555
Mg0_7 Mg2_5 3.362756 1_555
Bi0_0 Mg2_0 3.191894 1_555
Bi0_0 Mg1_2 3.238286 1_545
Bi0_0 Mg1_4 3.238286 1_455
Bi0_0 Bi1_0 3.264428 1_555
Bi0_0 Mg0_3 3.337816 1_554
Bi0_0 Mg0_5 3.337816 1_554
Bi0_0 Bi1_4 3.627668 1_555
Bi0_0 Bi1_2 3.627668 1_555
Bi0_1 Mg2_1 3.191894 1_555
Bi0_1 Mg1_3 3.238286 1_545
Bi0_1 Mg1_5 3.238286 1_455
Bi0_1 Bi1_1 3.264428 1_555
Bi0_1 Mg0_2 3.337816 1_555
Bi0_1 Mg0_4 3.337816 1_555
Bi0_1 Bi1_5 3.627668 1_555
Bi0_1 Bi1_3 3.627668 1_555
Bi0_2 Mg2_2 3.191894 1_555
Bi0_2 Mg1_0 3.238286 1_555
Bi0_2 Mg1_6 3.238286 1_455
Bi0_2 Bi1_2 3.264428 1_555
Bi0_2 Mg0_7 3.337816 1_554
Bi0_2 Mg0_1 3.337816 1_564
Bi0_2 Bi1_6 3.627668 1_555
Bi0_2 Bi1_0 3.627668 1_565
Bi0_3 Mg2_3 3.191894 1_555
Bi0_3 Mg1_1 3.238286 1_555
Bi0_3 Mg1_7 3.238286 1_455
Bi0_3 Bi1_3 3.264428 1_555
Bi0_3 Mg0_6 3.337816 1_555
Bi0_3 Mg0_0 3.337816 1_565
Bi0_3 Bi1_7 3.627668 1_555
Bi0_3 Bi1_1 3.627668 1_565
Bi0_4 Mg2_4 3.191894 1_555
Bi0_4 Mg1_0 3.238286 1_555
Bi0_4 Mg1_6 3.238286 1_545
Bi0_4 Bi1_4 3.264428 1_555
Bi0_4 Mg0_7 3.337816 1_554
Bi0_4 Mg0_1 3.337816 1_654
Bi0_4 Bi1_6 3.627668 1_555
Bi0_4 Bi1_0 3.627668 1_655
Bi0_5 Mg2_5 3.191894 1_555
Bi0_5 Mg1_1 3.238286 1_555
Bi0_5 Mg1_7 3.238286 1_545
Bi0_5 Bi1_5 3.264428 1_555
Bi0_5 Mg0_6 3.337816 1_555
Bi0_5 Mg0_0 3.337816 1_655
Bi0_5 Bi1_7 3.627668 1_555
Bi0_5 Bi1_1 3.627668 1_655
Bi0_6 Mg2_6 3.191894 1_555
Bi0_6 Mg1_4 3.238286 1_555
Bi0_6 Mg1_2 3.238286 1_555
Bi0_6 Bi1_6 3.264428 1_555
Bi0_6 Mg0_3 3.337816 1_654
Bi0_6 Mg0_5 3.337816 1_564
Bi0_6 Bi1_4 3.627668 1_565
Bi0_6 Bi1_2 3.627668 1_655
Bi0_7 Mg2_7 3.191894 1_555
Bi0_7 Mg1_5 3.238286 1_555
Bi0_7 Mg1_3 3.238286 1_555
Bi0_7 Bi1_7 3.264428 1_555
Bi0_7 Mg0_2 3.337816 1_655
Bi0_7 Mg0_4 3.337816 1_565
Bi0_7 Bi1_5 3.627668 1_565
Bi0_7 Bi1_3 3.627668 1_655
Bi1_0 Mg1_4 3.302268 1_455
Bi1_0 Mg1_2 3.302268 1_545
Bi1_0 Bi1_6 3.368490 1_545
Bi1_0 Bi1_6 3.368490 1_455
Bi1_0 Mg2_2 3.441683 1_545
Bi1_0 Mg2_4 3.441683 1_455
Bi1_0 Mg0_5 3.512579 1_554
Bi1_0 Mg0_3 3.512579 1_554
Bi1_0 Bi2_1 3.627268 1_554
Bi1_1 Mg1_5 3.302268 1_455
Bi1_1 Mg1_3 3.302268 1_545
Bi1_1 Bi1_7 3.368490 1_455
Bi1_1 Bi1_7 3.368490 1_545
Bi1_1 Mg2_3 3.441683 1_545
Bi1_1 Mg2_5 3.441683 1_455
Bi1_1 Mg0_4 3.512579 1_555
Bi1_1 Mg0_2 3.512579 1_555
Bi1_1 Bi2_0 3.627268 1_555
Bi1_2 Mg1_6 3.302268 1_455
Bi1_2 Mg1_0 3.302268 1_555
Bi1_2 Bi1_4 3.368490 1_555
Bi1_2 Bi1_4 3.368490 1_465
Bi1_2 Mg2_6 3.441683 1_455
Bi1_2 Mg2_0 3.441683 1_555
Bi1_2 Mg0_1 3.512579 1_564
Bi1_2 Mg0_7 3.512579 1_554
Bi1_2 Bi2_3 3.627268 1_554
Bi1_3 Mg1_7 3.302268 1_455
Bi1_3 Mg1_1 3.302268 1_555
Bi1_3 Bi1_5 3.368490 1_555
Bi1_3 Bi1_5 3.368490 1_465
Bi1_3 Mg2_1 3.441683 1_555
Bi1_3 Mg2_7 3.441683 1_455
Bi1_3 Mg0_0 3.512579 1_565
Bi1_3 Mg0_6 3.512579 1_555
Bi1_3 Bi2_2 3.627268 1_555
Bi1_4 Mg1_0 3.302268 1_555
Bi1_4 Mg1_6 3.302268 1_545
Bi1_4 Mg2_6 3.441683 1_545
Bi1_4 Mg2_0 3.441683 1_555
Bi1_4 Mg0_1 3.512579 1_654
Bi1_4 Mg0_7 3.512579 1_554
Bi1_4 Bi2_5 3.627268 1_554
Bi1_5 Mg1_7 3.302268 1_545
Bi1_5 Mg1_1 3.302268 1_555
Bi1_5 Mg2_1 3.441683 1_555
Bi1_5 Mg2_7 3.441683 1_545
Bi1_5 Mg0_0 3.512579 1_655
Bi1_5 Mg0_6 3.512579 1_555
Bi1_5 Bi2_4 3.627268 1_555
Bi1_6 Mg1_2 3.302268 1_555
Bi1_6 Mg1_4 3.302268 1_555
Bi1_6 Mg2_2 3.441683 1_555
Bi1_6 Mg2_4 3.441683 1_555
Bi1_6 Mg0_5 3.512579 1_564
Bi1_6 Mg0_3 3.512579 1_654
Bi1_6 Bi2_7 3.627268 1_554
Bi1_7 Mg1_3 3.302268 1_555
Bi1_7 Mg1_5 3.302268 1_555
Bi1_7 Mg2_3 3.441683 1_555
Bi1_7 Mg2_5 3.441683 1_555
Bi1_7 Mg0_4 3.512579 1_565
Bi1_7 Mg0_2 3.512579 1_655
Bi1_7 Bi2_6 3.627268 1_555
Bi2_0 Mg1_2 3.163168 1_545
Bi2_0 Mg1_4 3.163168 1_455
Bi2_0 Mg2_2 3.215671 1_545
Bi2_0 Mg2_4 3.215671 1_455
Bi2_0 Mg0_2 3.417010 1_555
Bi2_0 Mg0_4 3.417010 1_555
Bi2_0 Mg0_0 3.623304 1_555
Bi2_1 Mg1_3 3.163168 1_545
Bi2_1 Mg1_5 3.163168 1_455
Bi2_1 Mg2_3 3.215671 1_545
Bi2_1 Mg2_5 3.215671 1_455
Bi2_1 Mg0_5 3.417010 1_555
Bi2_1 Mg0_3 3.417010 1_555
Bi2_1 Mg0_1 3.623304 1_555
Bi2_2 Mg1_6 3.163168 1_455
Bi2_2 Mg1_0 3.163168 1_555
Bi2_2 Mg2_6 3.215671 1_455
Bi2_2 Mg2_0 3.215671 1_555
Bi2_2 Mg0_0 3.417010 1_565
Bi2_2 Mg0_6 3.417010 1_555
Bi2_2 Mg0_2 3.623304 1_555
Bi2_3 Mg1_7 3.163168 1_455
Bi2_3 Mg1_1 3.163168 1_555
Bi2_3 Mg2_1 3.215671 1_555
Bi2_3 Mg2_7 3.215671 1_455
Bi2_3 Mg0_1 3.417010 1_565
Bi2_3 Mg0_7 3.417010 1_555
Bi2_3 Mg0_3 3.623304 1_555
Bi2_4 Mg1_0 3.163168 1_555
Bi2_4 Mg1_6 3.163168 1_545
Bi2_4 Mg2_6 3.215671 1_545
Bi2_4 Mg2_0 3.215671 1_555
Bi2_4 Mg0_0 3.417010 1_655
Bi2_4 Mg0_6 3.417010 1_555
Bi2_4 Mg0_4 3.623304 1_555
Bi2_5 Mg1_1 3.163168 1_555
Bi2_5 Mg1_7 3.163168 1_545
Bi2_5 Mg2_1 3.215671 1_555
Bi2_5 Mg2_7 3.215671 1_545
Bi2_5 Mg0_1 3.417010 1_655
Bi2_5 Mg0_7 3.417010 1_555
Bi2_5 Mg0_5 3.623304 1_555
Bi2_6 Mg1_4 3.163168 1_555
Bi2_6 Mg1_2 3.163168 1_555
Bi2_6 Mg2_2 3.215671 1_555
Bi2_6 Mg2_4 3.215671 1_555
Bi2_6 Mg0_4 3.417010 1_565
Bi2_6 Mg0_2 3.417010 1_655
Bi2_6 Mg0_6 3.623304 1_555
Bi2_7 Mg1_5 3.163168 1_555
Bi2_7 Mg1_3 3.163168 1_555
Bi2_7 Mg2_3 3.215671 1_555
Bi2_7 Mg2_5 3.215671 1_555
Bi2_7 Mg0_5 3.417010 1_565
Bi2_7 Mg0_3 3.417010 1_655
Bi2_7 Mg0_7 3.623304 1_555
