# generated using pymatgen
data_P2W2O11
_symmetry_space_group_name_H-M   'P 1'
_cell_length_a   6.26183130
_cell_length_b   8.00549920
_cell_length_c   15.76982846
_cell_angle_alpha   90.00000000
_cell_angle_beta   90.00000000
_cell_angle_gamma   90.00000000
_symmetry_Int_Tables_number   1
_chemical_formula_structural   P2W2O11
_chemical_formula_sum   'P8 W8 O44'
_cell_volume   790.52707860
_cell_formula_units_Z   4
loop_
 _symmetry_equiv_pos_site_id
 _symmetry_equiv_pos_as_xyz
  1  'x, y, z'
loop_
 _atom_site_type_symbol
 _atom_site_label
 _atom_site_symmetry_multiplicity
 _atom_site_fract_x
 _atom_site_fract_y
 _atom_site_fract_z
 _atom_site_occupancy
  P  P0  1  0.75000000  0.59313835  0.58461983  1
  P  P1  1  0.25000000  0.40686165  0.41538017  1
  P  P2  1  0.25000000  0.09313835  0.91538017  1
  P  P3  1  0.75000000  0.90686165  0.08461983  1
  P  P4  1  0.75000000  0.00632132  0.75464871  1
  P  P5  1  0.25000000  -0.00632132  0.24535129  1
  P  P6  1  0.25000000  0.50632132  0.74535129  1
  P  P7  1  0.75000000  0.49367868  0.25464871  1
  W  W0  1  0.25000000  0.73646682  0.55992402  1
  W  W1  1  0.75000000  0.26353318  0.44007598  1
  W  W2  1  0.75000000  0.23646682  0.94007598  1
  W  W3  1  0.25000000  0.76353318  0.05992402  1
  W  W4  1  0.25000000  0.10031985  0.69736739  1
  W  W5  1  0.75000000  0.89968015  0.30263261  1
  W  W6  1  0.75000000  0.60031985  0.80263261  1
  W  W7  1  0.25000000  0.39968015  0.19736739  1
  O  O0  1  0.25000000  0.54659926  0.48072784  1
  O  O1  1  0.75000000  0.45340074  0.51927216  1
  O  O2  1  0.75000000  0.04659926  0.01927216  1
  O  O3  1  0.25000000  0.95340074  0.98072784  1
  O  O4  1  0.25000000  0.54215709  0.65263738  1
  O  O5  1  0.75000000  0.45784291  0.34736262  1
  O  O6  1  0.75000000  0.04215709  0.84736262  1
  O  O7  1  0.25000000  0.95784291  0.15263738  1
  O  O8  1  0.44368541  0.29299678  0.43208843  1
  O  O9  1  0.94368541  0.70700322  0.56791157  1
  O  O10  1  0.55631459  0.79299678  0.06791157  1
  O  O11  1  0.05631459  0.20700322  0.93208843  1
  O  O12  1  0.55631459  0.70700322  0.56791157  1
  O  O13  1  0.05631459  0.29299678  0.43208843  1
  O  O14  1  0.25000000  0.31822332  0.76220145  1
  O  O15  1  0.44368541  0.20700322  0.93208843  1
  O  O16  1  0.25000000  0.62200232  0.15691943  1
  O  O17  1  0.75000000  0.37799768  0.84308057  1
  O  O18  1  0.75000000  0.12200232  0.34308057  1
  O  O19  1  0.25000000  0.87799768  0.65691943  1
  O  O20  1  0.25000000  0.29766299  0.10285821  1
  O  O21  1  0.75000000  0.70233701  0.89714179  1
  O  O22  1  0.75000000  0.79766299  0.39714179  1
  O  O23  1  0.25000000  0.20233701  0.60285821  1
  O  O24  1  0.25000000  0.60785015  0.98637756  1
  O  O25  1  0.75000000  0.39214985  0.01362244  1
  O  O26  1  0.75000000  0.10785015  0.51362244  1
  O  O27  1  0.25000000  0.89214985  0.48637756  1
  O  O28  1  0.94326428  0.41486253  0.20923957  1
  O  O29  1  0.44326428  0.58513747  0.79076043  1
  O  O30  1  0.05673572  0.91486253  0.29076043  1
  O  O31  1  0.55673572  0.08513747  0.70923957  1
  O  O32  1  0.05673572  0.58513747  0.79076043  1
  O  O33  1  0.55673572  0.41486253  0.20923957  1
  O  O34  1  0.94326428  0.08513747  0.70923957  1
  O  O35  1  0.44326428  0.91486253  0.29076043  1
  O  O36  1  0.25000000  0.48014182  0.32744945  1
  O  O37  1  0.75000000  0.51985818  0.67255055  1
  O  O38  1  0.75000000  0.98014182  0.17255055  1
  O  O39  1  0.25000000  0.01985818  0.82744945  1
  O  O40  1  0.25000000  0.18177668  0.26220145  1
  O  O41  1  0.75000000  0.81822332  0.73779855  1
  O  O42  1  0.75000000  0.68177668  0.23779855  1
  O  O43  1  0.94368541  0.79299678  0.06791157  1
loop_
_geom_bond_atom_site_label_1
_geom_bond_atom_site_label_2
_geom_bond_distance
_geom_bond_site_symmetry_2
O0 P1 1.520985 1_555
O0 W0 1.967265 1_555
O1 P0 1.520985 1_555
O1 W1 1.967265 1_555
O2 P3 1.520985 1_545
O2 W2 1.967265 1_554
O3 P2 1.520985 1_565
O3 W3 1.967265 1_556
O4 P6 1.489962 1_555
O4 W0 2.134803 1_555
O5 P7 1.489962 1_555
O5 W1 2.134803 1_555
O6 P4 1.489962 1_555
O6 W2 2.134803 1_555
O7 P5 1.489962 1_565
O7 W3 2.134803 1_555
O8 P1 1.539898 1_555
O8 W1 1.936639 1_555
O9 P0 1.539898 1_555
O9 W0 1.936639 1_655
O10 P3 1.539898 1_555
O10 W3 1.936639 1_555
O11 P2 1.539898 1_555
O11 W2 1.936639 1_455
O12 P0 1.539898 1_555
O12 W0 1.936639 1_555
O13 P1 1.539898 1_555
O13 W1 1.936639 1_455
O14 P6 1.529084 1_555
O14 W4 2.021972 1_555
O15 P2 1.539898 1_555
O15 W2 1.936639 1_555
O16 W7 1.890648 1_555
O16 W3 1.903530 1_555
O17 W6 1.890648 1_555
O17 W2 1.903530 1_555
O18 W5 1.890648 1_545
O18 W1 1.903530 1_555
O19 W4 1.890648 1_565
O19 W0 1.903530 1_555
O20 W7 1.699491 1_555
O21 W6 1.699491 1_555
O22 W5 1.699491 1_555
O23 W4 1.699491 1_555
O24 W3 1.702494 1_556
O25 W2 1.702494 1_554
O26 W1 1.702494 1_555
O27 W0 1.702494 1_555
O28 P7 1.541253 1_555
O28 W7 1.933654 1_655
O29 P6 1.541253 1_555
O29 W6 1.933654 1_555
O30 P5 1.541253 1_565
O30 W5 1.933654 1_455
O31 P4 1.541253 1_555
O31 W4 1.933654 1_555
O32 P6 1.541253 1_555
O32 W6 1.933654 1_455
O33 P7 1.541253 1_555
O33 W7 1.933654 1_555
O34 P4 1.541253 1_555
O34 W4 1.933654 1_655
O35 P5 1.541253 1_565
O35 W5 1.933654 1_555
O36 P1 1.505642 1_555
O36 W7 2.150125 1_555
O37 P0 1.505642 1_555
O37 W6 2.150125 1_555
O38 P3 1.505642 1_555
O38 W5 2.150125 1_555
O39 P2 1.505642 1_555
O39 W4 2.150125 1_555
O40 P5 1.529084 1_555
O40 W7 2.021972 1_555
O41 P4 1.529084 1_565
O41 W6 2.021972 1_555
O42 P7 1.529084 1_555
O42 W5 2.021972 1_555
O43 P3 1.539898 1_555
O43 W3 1.936639 1_655
