# generated using pymatgen
data_ZnFe4CuO8
_symmetry_space_group_name_H-M   'P 1'
_cell_length_a   6.03793672
_cell_length_b   6.03793672
_cell_length_c   6.01153130
_cell_angle_alpha   90.00000000
_cell_angle_beta   59.85459186
_cell_angle_gamma   120.00000000
_symmetry_Int_Tables_number   1
_chemical_formula_structural   ZnFe4CuO8
_chemical_formula_sum   'Zn1 Fe4 Cu1 O8'
_cell_volume   154.62838270
_cell_formula_units_Z   1
loop_
 _symmetry_equiv_pos_site_id
 _symmetry_equiv_pos_as_xyz
  1  'x, y, z'
loop_
 _atom_site_type_symbol
 _atom_site_label
 _atom_site_symmetry_multiplicity
 _atom_site_fract_x
 _atom_site_fract_y
 _atom_site_fract_z
 _atom_site_occupancy
  Zn  Zn0  1  0.99712900  0.99856400  0.00430700  1
  Fe  Fe0  1  0.25232300  0.37387700  0.37380100  1
  Fe  Fe1  1  0.25232300  0.87844600  0.37380100  1
  Fe  Fe2  1  0.74775300  0.37387700  0.37380100  1
  Fe  Fe3  1  0.50344800  0.75172400  0.74482800  1
  Cu  Cu0  1  0.74758000  0.37379000  0.87863000  1
  O  O0  1  0.26928300  0.13464200  0.59607500  1
  O  O1  1  0.72531900  0.13043300  0.14424700  1
  O  O2  1  0.72531900  0.59488600  0.14424700  1
  O  O3  1  0.26086700  0.13043300  0.14424700  1
  O  O4  1  0.23690200  0.61845100  0.14464800  1
  O  O5  1  0.76759300  0.62328500  0.60912200  1
  O  O6  1  0.76759300  0.14430800  0.60912200  1
  O  O7  1  0.24656900  0.62328500  0.60912200  1
loop_
_geom_bond_atom_site_label_1
_geom_bond_atom_site_label_2
_geom_bond_distance
_geom_bond_site_symmetry_2
Fe0 O2 2.017889 1_555
Fe0 O3 2.017898 1_555
Fe0 O0 2.041526 1_555
Fe0 O7 2.067155 1_555
Fe0 O6 2.067159 1_455
Fe0 O4 2.086475 1_555
Fe1 O1 2.017889 1_565
Fe1 O3 2.017894 1_565
Fe1 O0 2.041530 1_565
Fe1 O7 2.067151 1_555
Fe1 O5 2.067159 1_455
Fe1 O4 2.086475 1_555
Fe2 O2 2.017894 1_555
Fe2 O1 2.017898 1_555
Fe2 O0 2.041530 1_555
Fe2 O5 2.067155 1_555
Fe2 O6 2.067159 1_555
Fe2 O4 2.086480 1_655
Fe3 O5 1.934073 1_555
Fe3 O6 1.934073 1_565
Fe3 O7 1.934078 1_555
Fe3 O4 1.958150 1_556
Cu0 O2 2.076950 1_556
Cu0 O3 2.076950 1_556
Cu0 O1 2.076950 1_556
Cu0 O7 2.128419 1_655
Cu0 O6 2.128423 1_555
Cu0 O5 2.128423 1_555
O0 Zn0 1.999349 1_446
O1 Zn0 1.988752 1_545
O2 Zn0 1.988747 1_555
O3 Zn0 1.988747 1_445
