# generated using pymatgen
data_Li2MnCo3O8
_symmetry_space_group_name_H-M   'P 1'
_cell_length_a   5.74691487
_cell_length_b   5.65786219
_cell_length_c   10.27110622
_cell_angle_alpha   104.86531280
_cell_angle_beta   75.87932643
_cell_angle_gamma   118.44475097
_symmetry_Int_Tables_number   1
_chemical_formula_structural   Li2MnCo3O8
_chemical_formula_sum   'Li4 Mn2 Co6 O16'
_cell_volume   280.89345319
_cell_formula_units_Z   2
loop_
 _symmetry_equiv_pos_site_id
 _symmetry_equiv_pos_as_xyz
  1  'x, y, z'
loop_
 _atom_site_type_symbol
 _atom_site_label
 _atom_site_symmetry_multiplicity
 _atom_site_fract_x
 _atom_site_fract_y
 _atom_site_fract_z
 _atom_site_occupancy
  Li  Li0  1  0.25582400  0.75447900  0.24933100  1
  Li  Li1  1  0.74407500  0.24557300  0.75069900  1
  Li  Li2  1  0.75025200  0.24539800  0.24926400  1
  Li  Li3  1  0.24983100  0.75442200  0.75073900  1
  Mn  Mn0  1  0.99995200  0.99989500  0.99997000  1
  Mn  Mn1  1  0.50001900  0.50011000  0.49997000  1
  Co  Co0  1  0.99990800  0.99993600  0.50003200  1
  Co  Co1  1  0.50005200  0.00004900  0.99999700  1
  Co  Co2  1  0.00005400  0.50007300  0.99999300  1
  Co  Co3  1  0.50009100  0.50008900  0.00000100  1
  Co  Co4  1  0.99995400  0.49995600  0.50002500  1
  Co  Co5  1  0.49994300  0.99990000  0.50002500  1
  O  O0  1  0.64631400  0.36856400  0.09437400  1
  O  O1  1  0.12384100  0.85576200  0.59690900  1
  O  O2  1  0.87605600  0.14417300  0.40313500  1
  O  O3  1  0.35377600  0.63153900  0.90562200  1
  O  O4  1  0.34648400  0.61843300  0.39626500  1
  O  O5  1  0.85847500  0.13695900  0.89904700  1
  O  O6  1  0.14164100  0.86318300  0.10091200  1
  O  O7  1  0.65338700  0.38147600  0.60376300  1
  O  O8  1  0.86182300  0.62844200  0.39706600  1
  O  O9  1  0.35949200  0.12988600  0.89701700  1
  O  O10  1  0.39617500  0.14164000  0.39034400  1
  O  O11  1  0.89541900  0.63955100  0.89057300  1
  O  O12  1  0.10470300  0.36057900  0.10941000  1
  O  O13  1  0.60371200  0.85820200  0.60961800  1
  O  O14  1  0.64063600  0.87026300  0.10295500  1
  O  O15  1  0.13811100  0.37146700  0.60294500  1
loop_
_geom_bond_atom_site_label_1
_geom_bond_atom_site_label_2
_geom_bond_distance
_geom_bond_site_symmetry_2
Li0 O6 2.118103 1_555
Li0 O4 2.122096 1_555
Li0 O10 2.192181 1_565
Li0 O12 2.215455 1_555
Li0 O14 2.254575 1_555
Li0 O8 2.297524 1_455
Li1 O5 2.117930 1_555
Li1 O7 2.121673 1_555
Li1 O13 2.193308 1_545
Li1 O11 2.215600 1_555
Li1 O9 2.253385 1_555
Li1 O15 2.297749 1_655
Li2 O12 2.103683 1_655
Li2 O10 2.108265 1_555
Li2 O14 2.170627 1_545
Li2 O2 2.182853 1_555
Li2 O0 2.191430 1_555
Li2 O8 2.208079 1_555
Li3 O11 2.103387 1_455
Li3 O13 2.107737 1_555
Li3 O9 2.171695 1_565
Li3 O1 2.183557 1_555
Li3 O3 2.190376 1_555
Li3 O15 2.207694 1_555
Mn0 O6 1.938986 1_656
Mn0 O5 1.939407 1_565
Mn0 O11 1.940937 1_555
Mn0 O12 1.942496 1_666
Mn0 O14 1.952025 1_556
Mn0 O9 1.952884 1_665
Mn1 O13 1.932575 1_555
Mn1 O10 1.934053 1_555
Mn1 O4 1.936095 1_555
Mn1 O7 1.937288 1_555
Mn1 O8 1.962372 1_555
Mn1 O15 1.963101 1_555
Co0 O1 1.865066 1_655
Co0 O2 1.865152 1_565
Co0 O15 1.961108 1_665
Co0 O8 1.961133 1_555
Co0 O13 2.137181 1_555
Co0 O10 2.137870 1_665
Co1 O3 1.919467 1_545
Co1 O0 1.919491 1_556
Co1 O14 1.921123 1_546
Co1 O9 1.921400 1_555
Co1 O6 1.940947 1_546
Co1 O5 1.941142 1_555
Co2 O11 1.866624 1_455
Co2 O12 1.866720 1_556
Co2 O3 1.895581 1_555
Co2 O0 1.895699 1_456
Co2 O6 1.919275 1_556
Co2 O5 1.919392 1_455
Co3 O0 1.887522 1_555
Co3 O3 1.887654 1_554
Co3 O14 1.956004 1_555
Co3 O9 1.956249 1_554
Co3 O11 2.132801 1_554
Co3 O12 2.132992 1_555
Co4 O2 1.871335 1_555
Co4 O1 1.871412 1_655
Co4 O4 1.900102 1_655
Co4 O7 1.900170 1_555
Co4 O15 1.905266 1_655
Co4 O8 1.905447 1_555
Co5 O13 1.873889 1_555
Co5 O10 1.874772 1_565
Co5 O1 2.003703 1_555
Co5 O2 2.003788 1_565
Co5 O4 2.009207 1_555
Co5 O7 2.009570 1_565
