# generated using pymatgen
data_Tc3C
_symmetry_space_group_name_H-M   'P 1'
_cell_length_a   5.33721408
_cell_length_b   5.33721408
_cell_length_c   4.09702500
_cell_angle_alpha   90.00000000
_cell_angle_beta   90.00000000
_cell_angle_gamma   120.00000097
_symmetry_Int_Tables_number   1
_chemical_formula_structural   Tc3C
_chemical_formula_sum   'Tc6 C2'
_cell_volume   101.07144792
_cell_formula_units_Z   2
loop_
 _symmetry_equiv_pos_site_id
 _symmetry_equiv_pos_as_xyz
  1  'x, y, z'
loop_
 _atom_site_type_symbol
 _atom_site_label
 _atom_site_symmetry_multiplicity
 _atom_site_fract_x
 _atom_site_fract_y
 _atom_site_fract_z
 _atom_site_occupancy
  Tc  Tc0  1  0.17435300  0.34870600  0.25000000  1
  Tc  Tc1  1  0.65129400  0.82564700  0.25000000  1
  Tc  Tc2  1  0.17435300  0.82564700  0.25000000  1
  Tc  Tc3  1  0.82564700  0.65129400  0.75000000  1
  Tc  Tc4  1  0.34870600  0.17435300  0.75000000  1
  Tc  Tc5  1  0.82564700  0.17435300  0.75000000  1
  C  C0  1  0.33333300  0.66666700  0.75000000  1
  C  C1  1  0.66666700  0.33333300  0.25000000  1
loop_
_geom_bond_atom_site_label_1
_geom_bond_atom_site_label_2
_geom_bond_distance
_geom_bond_site_symmetry_2
C0 Tc2 2.521173 1_555
C0 Tc2 2.521173 1_556
C0 Tc1 2.521176 1_556
C0 Tc1 2.521176 1_555
C0 Tc0 2.521176 1_555
C0 Tc0 2.521176 1_556
C0 Tc4 2.669550 1_565
C0 Tc3 2.669550 1_455
C0 Tc5 2.669553 1_565
C0 Tc5 2.669553 1_455
C0 Tc3 2.669556 1_555
C0 Tc4 2.669556 1_555
C1 Tc5 2.521173 1_554
C1 Tc5 2.521173 1_555
C1 Tc3 2.521176 1_555
C1 Tc3 2.521176 1_554
C1 Tc4 2.521176 1_554
C1 Tc4 2.521176 1_555
C1 Tc0 2.669550 1_655
C1 Tc1 2.669550 1_545
C1 Tc2 2.669553 1_655
C1 Tc2 2.669553 1_545
C1 Tc1 2.669556 1_555
C1 Tc0 2.669556 1_555
