# generated using pymatgen
data_NaCuN
_symmetry_space_group_name_H-M   'P 1'
_cell_length_a   3.35337300
_cell_length_b   3.27635279
_cell_length_c   4.22986300
_cell_angle_alpha   90.00000000
_cell_angle_beta   90.00000000
_cell_angle_gamma   120.78072049
_symmetry_Int_Tables_number   1
_chemical_formula_structural   NaCuN
_chemical_formula_sum   'Na1 Cu1 N1'
_cell_volume   39.92627491
_cell_formula_units_Z   1
loop_
 _symmetry_equiv_pos_site_id
 _symmetry_equiv_pos_as_xyz
  1  'x, y, z'
loop_
 _atom_site_type_symbol
 _atom_site_label
 _atom_site_symmetry_multiplicity
 _atom_site_fract_x
 _atom_site_fract_y
 _atom_site_fract_z
 _atom_site_occupancy
  Na  Na0  1  0.45512900  0.91025800  0.00000000  1
  Cu  Cu0  1  0.10802000  0.21603900  0.50000000  1
  N  N0  1  0.77025100  0.54050300  0.50000000  1
loop_
_geom_bond_atom_site_label_1
_geom_bond_atom_site_label_2
_geom_bond_distance
_geom_bond_site_symmetry_2
Cu0 N0 1.901512 1_445
Cu0 N0 1.909293 1_555
Cu0 N0 1.909298 1_455
Cu0 Na0 2.832851 1_545
Cu0 Na0 2.832851 1_546
Cu0 Na0 2.832853 1_446
Cu0 Na0 2.832853 1_445
Cu0 Na0 2.879487 1_556
Cu0 Na0 2.879487 1_555
N0 Na0 2.760454 1_545
N0 Na0 2.760454 1_546
N0 Na0 2.892656 1_555
N0 Na0 2.892656 1_556
N0 Na0 2.892658 1_656
N0 Na0 2.892658 1_655
