# generated using pymatgen
data_Ru(N2Cl)3
_symmetry_space_group_name_H-M   'P 1'
_cell_length_a   12.23379318
_cell_length_b   12.23379318
_cell_length_c   13.05621176
_cell_angle_alpha   79.48905723
_cell_angle_beta   79.48905723
_cell_angle_gamma   122.04349373
_symmetry_Int_Tables_number   1
_chemical_formula_structural   Ru(N2Cl)3
_chemical_formula_sum   'Ru6 N36 Cl18'
_cell_volume   1534.45168289
_cell_formula_units_Z   6
loop_
 _symmetry_equiv_pos_site_id
 _symmetry_equiv_pos_as_xyz
  1  'x, y, z'
loop_
 _atom_site_type_symbol
 _atom_site_label
 _atom_site_symmetry_multiplicity
 _atom_site_fract_x
 _atom_site_fract_y
 _atom_site_fract_z
 _atom_site_occupancy
  Ru  Ru0  1  0.62354000  0.37646000  0.00000000  1
  Ru  Ru1  1  0.37646000  0.62354000  0.00000000  1
  Ru  Ru2  1  0.87680300  0.12319700  0.50000000  1
  Ru  Ru3  1  0.12319700  0.87680300  0.50000000  1
  Ru  Ru4  1  0.00000000  0.00000000  0.00000000  1
  Ru  Ru5  1  0.50000000  0.50000000  0.50000000  1
  N  N0  1  0.23346700  0.81762900  0.35249900  1
  N  N1  1  0.76653300  0.18237100  0.64750100  1
  N  N2  1  0.18237100  0.76653300  0.64750100  1
  N  N3  1  0.81762900  0.23346700  0.35249900  1
  N  N4  1  0.38054400  0.38054400  0.42354300  1
  N  N5  1  0.61945600  0.61945600  0.57645700  1
  N  N6  1  0.59844500  0.40155500  0.50000000  1
  N  N7  1  0.40155500  0.59844500  0.50000000  1
  N  N8  1  0.59041100  0.45477100  0.10902400  1
  N  N9  1  0.40958900  0.54522900  0.89097600  1
  N  N10  1  0.54522900  0.40958900  0.89097600  1
  N  N11  1  0.45477100  0.59041100  0.10902400  1
  N  N12  1  0.70059500  0.91536900  0.05620600  1
  N  N13  1  0.29940500  0.08463100  0.94379400  1
  N  N14  1  0.08463100  0.29940500  0.94379400  1
  N  N15  1  0.91536900  0.70059500  0.05620600  1
  N  N16  1  0.80613000  0.94092500  0.03830900  1
  N  N17  1  0.19387000  0.05907500  0.96169100  1
  N  N18  1  0.05907500  0.19387000  0.96169100  1
  N  N19  1  0.94092500  0.80613000  0.03830900  1
  N  N20  1  0.98574100  0.98574100  0.15858200  1
  N  N21  1  0.01425900  0.01425900  0.84141800  1
  N  N22  1  0.80500800  0.96504500  0.59034900  1
  N  N23  1  0.19499200  0.03495500  0.40965100  1
  N  N24  1  0.03495500  0.19499200  0.40965100  1
  N  N25  1  0.96504500  0.80500800  0.59034900  1
  N  N26  1  0.61709500  0.61709500  0.36341500  1
  N  N27  1  0.38290500  0.38290500  0.63658500  1
  N  N28  1  0.54082700  0.20404400  0.05735500  1
  N  N29  1  0.45917300  0.79595600  0.94264500  1
  N  N30  1  0.79595600  0.45917300  0.94264500  1
  N  N31  1  0.20404400  0.54082700  0.05735500  1
  N  N32  1  0.76363200  0.10708000  0.39252500  1
  N  N33  1  0.23636800  0.89292000  0.60747500  1
  N  N34  1  0.89292000  0.23636800  0.60747500  1
  N  N35  1  0.10708000  0.76363200  0.39252500  1
  Cl  Cl0  1  0.74157300  0.00188900  0.30899300  1
  Cl  Cl1  1  0.25842700  0.99811100  0.69100700  1
  Cl  Cl2  1  0.99811100  0.25842700  0.69100700  1
  Cl  Cl3  1  0.00188900  0.74157300  0.30899300  1
  Cl  Cl4  1  0.52848500  0.52848500  0.15165700  1
  Cl  Cl5  1  0.47151500  0.47151500  0.84834300  1
  Cl  Cl6  1  0.32391100  0.91187500  0.21217800  1
  Cl  Cl7  1  0.67608900  0.08812500  0.78782200  1
  Cl  Cl8  1  0.08812500  0.67608900  0.78782200  1
  Cl  Cl9  1  0.91187500  0.32391100  0.21217800  1
  Cl  Cl10  1  0.62143100  0.33891500  0.39994700  1
  Cl  Cl11  1  0.37856900  0.66108500  0.60005300  1
  Cl  Cl12  1  0.66108500  0.37856900  0.60005300  1
  Cl  Cl13  1  0.33891500  0.62143100  0.39994700  1
  Cl  Cl14  1  0.88963000  0.88963000  0.81007900  1
  Cl  Cl15  1  0.11037000  0.11037000  0.18992100  1
  Cl  Cl16  1  0.76349200  0.76349200  0.50787100  1
  Cl  Cl17  1  0.23650800  0.23650800  0.49212900  1
loop_
_geom_bond_atom_site_label_1
_geom_bond_atom_site_label_2
_geom_bond_distance
_geom_bond_site_symmetry_2
N0 N35 1.263171 1_555
N1 N34 1.263171 1_555
N2 N33 1.263171 1_555
N3 N32 1.263171 1_555
N4 Ru5 2.016462 1_555
N5 Ru5 2.016462 1_555
N6 Ru5 2.107150 1_555
N7 Ru5 2.107150 1_555
N8 Ru0 1.951249 1_555
N9 Ru1 1.951249 1_556
N10 Ru0 1.951249 1_556
N11 Ru1 1.951249 1_555
N12 N16 1.119918 1_555
N13 N17 1.119918 1_555
N14 N18 1.119918 1_555
N15 N19 1.119918 1_555
N16 Ru4 2.003542 1_665
N17 Ru4 2.003542 1_556
N18 Ru4 2.003542 1_556
N19 Ru4 2.003542 1_665
N20 Ru4 2.012935 1_665
N21 Ru4 2.012935 1_556
N22 Ru2 1.700714 1_565
N23 Ru3 1.700714 1_545
N24 Ru2 1.700714 1_455
N25 Ru3 1.700714 1_655
N26 Ru5 1.800751 1_555
N27 Ru5 1.800751 1_555
N28 Ru0 1.707700 1_555
N29 Ru1 1.707700 1_556
N30 Ru0 1.707700 1_556
N31 Ru1 1.707700 1_555
N32 Ru2 2.108280 1_555
N33 Ru3 2.108280 1_555
N34 Ru2 2.108280 1_555
N35 Ru3 2.108280 1_555
Cl0 N32 1.780242 1_555
Cl1 N33 1.780242 1_555
Cl2 N34 1.780242 1_555
Cl3 N35 1.780242 1_555
Cl4 N11 1.565652 1_555
Cl4 N8 1.565652 1_555
Cl5 N10 1.565652 1_555
Cl5 N9 1.565652 1_555
Cl6 N0 1.745310 1_555
Cl7 N1 1.745310 1_555
Cl8 N2 1.745310 1_555
Cl9 N3 1.745310 1_555
Cl10 N6 1.683051 1_555
Cl11 N7 1.683051 1_555
Cl12 N6 1.683051 1_555
Cl13 N7 1.683051 1_555
Cl14 N21 1.674876 1_665
Cl15 N20 1.674876 1_445
Cl16 N5 1.601780 1_555
Cl17 N4 1.601780 1_555
