# generated using pymatgen
data_Ba3Nb3N5
_symmetry_space_group_name_H-M   'P 1'
_cell_length_a   6.09391642
_cell_length_b   8.46260950
_cell_length_c   9.29746285
_cell_angle_alpha   111.02902431
_cell_angle_beta   101.02347158
_cell_angle_gamma   102.37277632
_symmetry_Int_Tables_number   1
_chemical_formula_structural   Ba3Nb3N5
_chemical_formula_sum   'Ba6 Nb6 N10'
_cell_volume   417.81857469
_cell_formula_units_Z   2
loop_
 _symmetry_equiv_pos_site_id
 _symmetry_equiv_pos_as_xyz
  1  'x, y, z'
loop_
 _atom_site_type_symbol
 _atom_site_label
 _atom_site_symmetry_multiplicity
 _atom_site_fract_x
 _atom_site_fract_y
 _atom_site_fract_z
 _atom_site_occupancy
  Ba  Ba0  1  0.76017500  0.43825000  0.60614800  1
  Ba  Ba1  1  0.23982500  0.56175000  0.39385200  1
  Ba  Ba2  1  0.64032300  0.82349900  0.90976000  1
  Ba  Ba3  1  0.35967700  0.17650100  0.09024000  1
  Ba  Ba4  1  0.69904200  0.69252300  0.25625600  1
  Ba  Ba5  1  0.30095800  0.30747700  0.74374400  1
  Nb  Nb0  1  0.89315400  0.31053200  0.96815900  1
  Nb  Nb1  1  0.10684600  0.68946800  0.03184100  1
  Nb  Nb2  1  0.66379700  0.99832300  0.63293300  1
  Nb  Nb3  1  0.33620300  0.00167700  0.36706700  1
  Nb  Nb4  1  0.07828100  0.87805600  0.69611500  1
  Nb  Nb5  1  0.92171900  0.12194400  0.30388500  1
  N  N0  1  0.99398100  0.09846500  0.81921500  1
  N  N1  1  0.00601900  0.90153500  0.18078500  1
  N  N2  1  0.72370400  0.75420000  0.57361800  1
  N  N3  1  0.27629600  0.24580000  0.42638200  1
  N  N4  1  0.77079000  0.50730300  0.93640200  1
  N  N5  1  0.22921000  0.49269700  0.06359800  1
  N  N6  1  0.27406500  0.92993700  0.54846300  1
  N  N7  1  0.72593500  0.07006300  0.45153700  1
  N  N8  1  0.15356400  0.76025200  0.84960800  1
  N  N9  1  0.84643600  0.23974800  0.15039200  1
loop_
_geom_bond_atom_site_label_1
_geom_bond_atom_site_label_2
_geom_bond_distance
_geom_bond_site_symmetry_2
Ba0 N2 2.845908 1_555
Ba0 N7 2.865394 1_555
Ba0 N3 2.871331 1_555
Ba0 N4 2.897220 1_555
Ba0 N8 2.999125 1_655
Ba1 N3 2.845908 1_555
Ba1 N6 2.865394 1_555
Ba1 N2 2.871331 1_555
Ba1 N5 2.897220 1_555
Ba1 N9 2.999125 1_455
Ba2 N1 2.789189 1_656
Ba2 N8 2.805065 1_555
Ba2 N4 3.027488 1_555
Ba2 N2 3.128740 1_555
Ba2 N0 3.273929 1_565
Ba3 N0 2.789189 1_454
Ba3 N9 2.805065 1_555
Ba3 N5 3.027488 1_555
Ba3 N3 3.128740 1_555
Ba3 N1 3.273929 1_545
Ba4 N1 2.663682 1_655
Ba4 N2 2.773612 1_555
Ba4 N5 2.838235 1_555
Ba4 N4 2.989533 1_554
Ba4 N7 3.004969 1_565
Ba5 N0 2.663682 1_455
Ba5 N3 2.773612 1_555
Ba5 N4 2.838235 1_555
Ba5 N5 2.989533 1_556
Ba5 N6 3.004969 1_545
N0 Nb4 2.038702 1_645
N0 Nb0 2.128444 1_555
N0 Nb2 2.156297 1_545
N1 Nb5 2.038702 1_465
N1 Nb1 2.128444 1_555
N1 Nb3 2.156297 1_565
N2 Nb2 2.070738 1_555
N2 Nb4 2.072734 1_655
N3 Nb3 2.070738 1_555
N3 Nb5 2.072734 1_455
N4 Nb0 2.053502 1_555
N4 Nb1 2.080429 1_656
N5 Nb1 2.053502 1_555
N5 Nb0 2.080429 1_454
N6 Nb3 2.058365 1_565
N6 Nb4 2.082118 1_555
N6 Nb2 2.227958 1_555
N7 Nb2 2.058365 1_545
N7 Nb5 2.082118 1_555
N7 Nb3 2.227958 1_555
N8 Nb1 2.037231 1_556
N8 Nb4 2.051248 1_555
N9 Nb0 2.037231 1_554
N9 Nb5 2.051248 1_555
