# generated using pymatgen
data_K3Ta4F15
_symmetry_space_group_name_H-M   'P 1'
_cell_length_a   4.17230000
_cell_length_b   19.03628100
_cell_length_c   20.82751100
_cell_angle_alpha   90.00000000
_cell_angle_beta   90.00000000
_cell_angle_gamma   90.00000000
_symmetry_Int_Tables_number   1
_chemical_formula_structural   K3Ta4F15
_chemical_formula_sum   'K12 Ta16 F60'
_cell_volume   1654.22662774
_cell_formula_units_Z   4
loop_
 _symmetry_equiv_pos_site_id
 _symmetry_equiv_pos_as_xyz
  1  'x, y, z'
loop_
 _atom_site_type_symbol
 _atom_site_label
 _atom_site_symmetry_multiplicity
 _atom_site_fract_x
 _atom_site_fract_y
 _atom_site_fract_z
 _atom_site_occupancy
  K  K0  1  0.50000000  0.65783400  0.84854700  1
  K  K1  1  0.00000000  0.34216600  0.34854700  1
  K  K2  1  0.50000000  0.14824300  0.69623600  1
  K  K3  1  0.00000000  0.85175700  0.19623600  1
  K  K4  1  0.00000000  0.85370500  0.51785300  1
  K  K5  1  0.50000000  0.14629500  0.01785300  1
  K  K6  1  0.50000000  0.65354200  0.52861500  1
  K  K7  1  0.00000000  0.34645800  0.02861500  1
  K  K8  1  0.50000000  0.45150300  0.86156300  1
  K  K9  1  0.00000000  0.54849700  0.36156300  1
  K  K10  1  0.50000000  0.93550700  0.68712100  1
  K  K11  1  0.00000000  0.06449300  0.18712100  1
  Ta  Ta0  1  0.50000000  0.02703100  0.51125800  1
  Ta  Ta1  1  0.00000000  0.97296900  0.01125800  1
  Ta  Ta2  1  0.00000000  0.03816800  0.82610500  1
  Ta  Ta3  1  0.50000000  0.96183200  0.32610500  1
  Ta  Ta4  1  0.00000000  0.82866300  0.86414200  1
  Ta  Ta5  1  0.50000000  0.17133700  0.36414200  1
  Ta  Ta6  1  0.00000000  0.46706400  0.53324900  1
  Ta  Ta7  1  0.50000000  0.53293600  0.03324900  1
  Ta  Ta8  1  0.00000000  0.54068500  0.71833300  1
  Ta  Ta9  1  0.50000000  0.45931500  0.21833300  1
  Ta  Ta10  1  0.00000000  0.32551200  0.67970100  1
  Ta  Ta11  1  0.50000000  0.67448800  0.17970100  1
  Ta  Ta12  1  0.00000000  0.74425700  0.67749300  1
  Ta  Ta13  1  0.50000000  0.25574300  0.17749300  1
  Ta  Ta14  1  0.00000000  0.25395400  0.87159100  1
  Ta  Ta15  1  0.50000000  0.74604600  0.37159100  1
  F  F0  1  0.50000000  0.07355000  0.59678400  1
  F  F1  1  0.00000000  0.92645000  0.09678400  1
  F  F2  1  0.50000000  0.93451800  0.56044200  1
  F  F3  1  0.00000000  0.06548200  0.06044200  1
  F  F4  1  0.00000000  0.14507800  0.85258900  1
  F  F5  1  0.50000000  0.85492200  0.35258900  1
  F  F6  1  0.00000000  0.02320700  0.72808900  1
  F  F7  1  0.50000000  0.97679300  0.22808900  1
  F  F8  1  0.00000000  0.92554600  0.81466200  1
  F  F9  1  0.50000000  0.07445400  0.31466200  1
  F  F10  1  0.00000000  0.03711200  0.92902600  1
  F  F11  1  0.50000000  0.96288800  0.42902600  1
  F  F12  1  0.00000000  0.77616700  0.77556500  1
  F  F13  1  0.50000000  0.22383300  0.27556500  1
  F  F14  1  0.00000000  0.84813300  0.64758300  1
  F  F15  1  0.50000000  0.15186700  0.14758300  1
  F  F16  1  0.00000000  0.72891000  0.57865800  1
  F  F17  1  0.50000000  0.27109000  0.07865800  1
  F  F18  1  0.00000000  0.72878900  0.89754200  1
  F  F19  1  0.50000000  0.27121100  0.39754200  1
  F  F20  1  0.00000000  0.65059700  0.73474800  1
  F  F21  1  0.50000000  0.34940300  0.23474800  1
  F  F22  1  0.00000000  0.52328400  0.61850900  1
  F  F23  1  0.50000000  0.47671600  0.11850900  1
  F  F24  1  0.00000000  0.54514200  0.81767300  1
  F  F25  1  0.50000000  0.45485800  0.31767300  1
  F  F26  1  0.00000000  0.43040200  0.71165800  1
  F  F27  1  0.50000000  0.56959800  0.21165800  1
  F  F28  1  0.00000000  0.37655500  0.59040200  1
  F  F29  1  0.50000000  0.62344500  0.09040200  1
  F  F30  1  0.00000000  0.22077500  0.66041700  1
  F  F31  1  0.50000000  0.77922500  0.16041700  1
  F  F32  1  0.00000000  0.28495600  0.77417100  1
  F  F33  1  0.50000000  0.71504400  0.27417100  1
  F  F34  1  0.50000000  0.43594900  0.99013200  1
  F  F35  1  0.00000000  0.56405100  0.49013200  1
  F  F36  1  0.50000000  0.57637700  0.94539900  1
  F  F37  1  0.00000000  0.42362300  0.44539900  1
  F  F38  1  0.00000000  0.88931000  0.94693800  1
  F  F39  1  0.50000000  0.11069000  0.44693800  1
  F  F40  1  0.00000000  0.22054600  0.96531600  1
  F  F41  1  0.50000000  0.77945400  0.46531600  1
  F  F42  1  0.00000000  0.36077500  0.88776200  1
  F  F43  1  0.50000000  0.63922500  0.38776200  1
  F  F44  1  0.00000000  0.02450600  0.50841400  1
  F  F45  1  0.50000000  0.97549400  0.00841400  1
  F  F46  1  0.50000000  0.74412600  0.67909500  1
  F  F47  1  0.00000000  0.25587400  0.17909500  1
  F  F48  1  0.50000000  0.03619300  0.82663300  1
  F  F49  1  0.00000000  0.96380700  0.32663300  1
  F  F50  1  0.50000000  0.82793600  0.86251900  1
  F  F51  1  0.00000000  0.17206400  0.36251900  1
  F  F52  1  0.50000000  0.53966900  0.72192800  1
  F  F53  1  0.00000000  0.46033100  0.22192800  1
  F  F54  1  0.50000000  0.32400700  0.68095000  1
  F  F55  1  0.00000000  0.67599300  0.18095000  1
  F  F56  1  0.50000000  0.25370100  0.87240800  1
  F  F57  1  0.00000000  0.74629900  0.37240800  1
  F  F58  1  0.50000000  0.46929900  0.53488000  1
  F  F59  1  0.00000000  0.53070100  0.03488000  1
loop_
_geom_bond_atom_site_label_1
_geom_bond_atom_site_label_2
_geom_bond_distance
_geom_bond_site_symmetry_2
F0 Ta0 1.989272 1_555
F0 K2 2.512404 1_555
F1 Ta1 1.989272 1_555
F1 K3 2.512404 1_555
F2 Ta0 2.037361 1_565
F2 K10 2.638475 1_555
F2 K4 2.739606 1_555
F2 K4 2.739606 1_655
F3 Ta1 2.037361 1_545
F3 K11 2.638475 1_555
F3 K5 2.739606 1_455
F3 K5 2.739606 1_555
F4 Ta2 2.108594 1_555
F4 Ta14 2.110042 1_555
F5 Ta3 2.108594 1_555
F5 Ta15 2.110042 1_555
F6 Ta2 2.061200 1_555
F6 K10 2.804861 1_545
F6 K10 2.804861 1_445
F6 K2 3.233821 1_455
F6 K2 3.233821 1_555
F7 Ta3 2.061200 1_555
F7 K11 2.804861 1_565
F7 K11 2.804861 1_665
F7 K3 3.233821 1_655
F7 K3 3.233821 1_555
F8 Ta4 2.112685 1_555
F8 Ta2 2.157110 1_565
F9 Ta5 2.112685 1_555
F9 Ta3 2.157110 1_545
F10 Ta1 2.103390 1_546
F10 Ta2 2.143683 1_555
F11 Ta0 2.103390 1_565
F11 Ta3 2.143683 1_555
F12 Ta4 2.098115 1_555
F12 Ta12 2.131007 1_555
F13 Ta5 2.098115 1_555
F13 Ta13 2.131007 1_555
F14 Ta12 2.073217 1_555
F14 K4 2.704034 1_555
F14 K10 2.792244 1_555
F14 K10 2.792244 1_455
F15 Ta13 2.073217 1_555
F15 K5 2.704034 1_555
F15 K11 2.792244 1_555
F15 K11 2.792244 1_655
F16 Ta12 2.079115 1_555
F16 K4 2.692107 1_555
F16 K6 2.738027 1_555
F16 K6 2.738027 1_455
F17 Ta13 2.079115 1_555
F17 K5 2.692107 1_555
F17 K7 2.738027 1_655
F17 K7 2.738027 1_555
F18 Ta4 2.024497 1_555
F18 K0 2.686591 1_555
F18 K0 2.686591 1_455
F19 Ta5 2.024497 1_555
F19 K1 2.686591 1_555
F19 K1 2.686591 1_655
F20 Ta8 2.120064 1_555
F20 Ta12 2.144965 1_555
F21 Ta9 2.120064 1_555
F21 Ta13 2.144965 1_555
F22 Ta6 2.073324 1_555
F22 Ta8 2.105308 1_555
F23 Ta7 2.073324 1_555
F23 Ta9 2.105308 1_555
F24 Ta8 2.070744 1_555
F24 K8 2.892245 1_455
F24 K8 2.892245 1_555
F24 K0 3.060645 1_455
F24 K0 3.060645 1_555
F25 Ta9 2.070744 1_555
F25 K9 2.892245 1_655
F25 K9 2.892245 1_555
F25 K1 3.060645 1_555
F25 K1 3.060645 1_655
F26 Ta8 2.103976 1_555
F26 Ta10 2.104727 1_555
F27 Ta9 2.103976 1_555
F27 Ta11 2.104727 1_555
F28 Ta6 2.094163 1_555
F28 Ta10 2.098399 1_555
F29 Ta7 2.094163 1_555
F29 Ta11 2.098399 1_555
F30 Ta10 2.033854 1_555
F30 K2 2.610557 1_555
F30 K2 2.610557 1_455
F31 Ta11 2.033854 1_555
F31 K3 2.610557 1_555
F31 K3 2.610557 1_655
F32 Ta14 2.113102 1_555
F32 Ta10 2.113620 1_555
F33 Ta15 2.113102 1_555
F33 Ta11 2.113620 1_555
F34 Ta7 2.053085 1_556
F34 K8 2.694092 1_555
F34 K7 2.810089 1_556
F34 K7 2.810089 1_656
F35 Ta6 2.053085 1_555
F35 K9 2.694092 1_555
F35 K6 2.810089 1_555
F35 K6 2.810089 1_455
F36 Ta7 2.007896 1_556
F36 K0 2.544311 1_555
F36 K8 2.949513 1_555
F37 Ta6 2.007896 1_555
F37 K1 2.544311 1_555
F37 K9 2.949513 1_555
F38 Ta4 2.075218 1_555
F38 Ta1 2.081065 1_556
F39 Ta5 2.075218 1_555
F39 Ta0 2.081065 1_555
F40 Ta14 2.053042 1_555
F40 K7 2.735541 1_556
F40 K5 2.747218 1_556
F40 K5 2.747218 1_456
F41 Ta15 2.053042 1_555
F41 K6 2.735541 1_555
F41 K4 2.747218 1_655
F41 K4 2.747218 1_555
F42 Ta14 2.061178 1_555
F42 K8 2.762738 1_555
F42 K8 2.762738 1_455
F42 K7 2.946250 1_556
F43 Ta15 2.061178 1_555
F43 K9 2.762738 1_655
F43 K9 2.762738 1_555
F43 K6 2.946250 1_555
F44 Ta0 2.087544 1_455
F44 Ta0 2.087544 1_555
F45 Ta1 2.087544 1_555
F45 Ta1 2.087544 1_655
F46 Ta12 2.086418 1_655
F46 Ta12 2.086418 1_555
F47 Ta13 2.086418 1_455
F47 Ta13 2.086418 1_555
F48 Ta2 2.086518 1_655
F48 Ta2 2.086518 1_555
F49 Ta3 2.086518 1_455
F49 Ta3 2.086518 1_555
F50 Ta4 2.086470 1_555
F50 Ta4 2.086470 1_655
F51 Ta5 2.086470 1_455
F51 Ta5 2.086470 1_555
F52 Ta8 2.087583 1_555
F52 Ta8 2.087583 1_655
F53 Ta9 2.087583 1_555
F53 Ta9 2.087583 1_455
F54 Ta10 2.086509 1_655
F54 Ta10 2.086509 1_555
F55 Ta11 2.086509 1_455
F55 Ta11 2.086509 1_555
F56 Ta14 2.086225 1_555
F56 Ta14 2.086225 1_655
F57 Ta15 2.086225 1_555
F57 Ta15 2.086225 1_455
F58 Ta6 2.086860 1_555
F58 Ta6 2.086860 1_655
F59 Ta7 2.086860 1_555
F59 Ta7 2.086860 1_455
