# generated using pymatgen
data_KZrN3O11
_symmetry_space_group_name_H-M   'P 1'
_cell_length_a   5.96831700
_cell_length_b   9.94777300
_cell_length_c   19.87906886
_cell_angle_alpha   60.02470615
_cell_angle_beta   90.00000000
_cell_angle_gamma   90.00000000
_symmetry_Int_Tables_number   1
_chemical_formula_structural   KZrN3O11
_chemical_formula_sum   'K4 Zr4 N12 O44'
_cell_volume   1022.38032823
_cell_formula_units_Z   4
loop_
 _symmetry_equiv_pos_site_id
 _symmetry_equiv_pos_as_xyz
  1  'x, y, z'
loop_
 _atom_site_type_symbol
 _atom_site_label
 _atom_site_symmetry_multiplicity
 _atom_site_fract_x
 _atom_site_fract_y
 _atom_site_fract_z
 _atom_site_occupancy
  K  K0  1  0.26065100  0.67707600  0.82337400  1
  K  K1  1  0.23934900  0.67707600  0.32337400  1
  K  K2  1  0.73934900  0.32292400  0.17662600  1
  K  K3  1  0.76065100  0.32292400  0.67662600  1
  Zr  Zr0  1  0.24847100  0.06694000  0.93869700  1
  Zr  Zr1  1  0.25152900  0.06694000  0.43869700  1
  Zr  Zr2  1  0.75152900  0.93306000  0.06130300  1
  Zr  Zr3  1  0.74847100  0.93306000  0.56130300  1
  N  N0  1  0.24222800  0.35016900  0.07675300  1
  N  N1  1  0.25777200  0.35016900  0.57675300  1
  N  N2  1  0.75777200  0.64983100  0.92324700  1
  N  N3  1  0.74222800  0.64983100  0.42324700  1
  N  N4  1  0.07505200  0.35004200  0.82467900  1
  N  N5  1  0.42494800  0.35004200  0.32467900  1
  N  N6  1  0.92494800  0.64995800  0.17532100  1
  N  N7  1  0.57505200  0.64995800  0.67532100  1
  N  N8  1  0.43532600  0.03727700  0.81835200  1
  N  N9  1  0.06467400  0.03727700  0.31835200  1
  N  N10  1  0.56467400  0.96272300  0.18164800  1
  N  N11  1  0.93532600  0.96272300  0.68164800  1
  O  O0  1  0.98488600  0.90690900  0.98889000  1
  O  O1  1  0.51511400  0.90690900  0.48889000  1
  O  O2  1  0.01511400  0.09309100  0.01111000  1
  O  O3  1  0.48488600  0.09309100  0.51111000  1
  O  O4  1  0.51574200  0.10972500  0.99461800  1
  O  O5  1  0.98425800  0.10972500  0.49461800  1
  O  O6  1  0.48425800  0.89027500  0.00538200  1
  O  O7  1  0.01574200  0.89027500  0.50538200  1
  O  O8  1  0.22219800  0.33852100  0.87492600  1
  O  O9  1  0.27780200  0.33852100  0.37492600  1
  O  O10  1  0.77780200  0.66147900  0.12507400  1
  O  O11  1  0.72219800  0.66147900  0.62507400  1
  O  O12  1  0.28562600  0.94364400  0.86486000  1
  O  O13  1  0.21437400  0.94364400  0.36486000  1
  O  O14  1  0.71437400  0.05635600  0.13514000  1
  O  O15  1  0.78562600  0.05635600  0.63514000  1
  O  O16  1  0.01552500  0.22001700  0.83020500  1
  O  O17  1  0.48447500  0.22001700  0.33020500  1
  O  O18  1  0.98447500  0.77998300  0.16979500  1
  O  O19  1  0.51552500  0.77998300  0.66979500  1
  O  O20  1  0.48401100  0.15265200  0.82838800  1
  O  O21  1  0.01598900  0.15265200  0.32838800  1
  O  O22  1  0.51598900  0.84734800  0.17161200  1
  O  O23  1  0.98401100  0.84734800  0.67161200  1
  O  O24  1  0.99838800  0.47557900  0.77517300  1
  O  O25  1  0.50161200  0.47557900  0.27517300  1
  O  O26  1  0.00161200  0.52442100  0.22482700  1
  O  O27  1  0.49838800  0.52442100  0.72482700  1
  O  O28  1  0.52588300  0.01837400  0.76817200  1
  O  O29  1  0.97411700  0.01837400  0.26817200  1
  O  O30  1  0.47411700  0.98162600  0.23182800  1
  O  O31  1  0.02588300  0.98162600  0.73182800  1
  O  O32  1  0.27363400  0.38063200  0.13066400  1
  O  O33  1  0.22636600  0.38063200  0.63066400  1
  O  O34  1  0.72636600  0.61936800  0.86933600  1
  O  O35  1  0.77363400  0.61936800  0.36933600  1
  O  O36  1  0.04654200  0.33479500  0.05863300  1
  O  O37  1  0.45345800  0.33479500  0.55863300  1
  O  O38  1  0.95345800  0.66520500  0.94136700  1
  O  O39  1  0.54654200  0.66520500  0.44136700  1
  O  O40  1  0.40739800  0.33470600  0.04217900  1
  O  O41  1  0.09260200  0.33470600  0.54217900  1
  O  O42  1  0.59260200  0.66529400  0.95782100  1
  O  O43  1  0.90739800  0.66529400  0.45782100  1
loop_
_geom_bond_atom_site_label_1
_geom_bond_atom_site_label_2
_geom_bond_distance
_geom_bond_site_symmetry_2
K0 O34 2.892414 1_555
K0 O38 2.932645 1_455
K0 O31 2.990699 1_555
K0 O8 2.999433 1_555
K0 O24 3.050444 1_455
K0 O19 3.091884 1_555
K0 O23 3.096844 1_455
K0 O12 3.149516 1_555
K0 O42 3.281624 1_555
K0 O34 3.287640 1_455
K0 O27 3.336135 1_555
K0 O28 3.393258 1_565
K1 O35 2.892414 1_455
K1 O39 2.932645 1_555
K1 O30 2.990699 1_555
K1 O9 2.999433 1_555
K1 O25 3.050444 1_555
K1 O18 3.091884 1_455
K1 O22 3.096844 1_555
K1 O13 3.149516 1_555
K1 O43 3.281624 1_455
K1 O35 3.287640 1_555
K1 O26 3.336135 1_555
K1 O29 3.393258 1_465
K2 O32 2.892414 1_555
K2 O36 2.932645 1_655
K2 O29 2.990699 1_555
K2 O10 2.999433 1_555
K2 O26 3.050444 1_655
K2 O17 3.091884 1_555
K2 O21 3.096844 1_655
K2 O14 3.149516 1_555
K2 O40 3.281624 1_555
K2 O32 3.287640 1_655
K2 O25 3.336135 1_555
K2 O30 3.393258 1_545
K3 O33 2.892414 1_655
K3 O37 2.932645 1_555
K3 O28 2.990699 1_555
K3 O11 2.999433 1_555
K3 O27 3.050444 1_555
K3 O16 3.091884 1_655
K3 O20 3.096844 1_555
K3 O15 3.149516 1_555
K3 O41 3.281624 1_655
K3 O33 3.287640 1_555
K3 O24 3.336135 1_555
K3 O31 3.393258 1_645
N0 O36 1.253880 1_555
N0 O40 1.254376 1_555
N0 O32 1.264924 1_555
N1 O37 1.253880 1_555
N1 O41 1.254376 1_555
N1 O33 1.264924 1_555
N2 O38 1.253880 1_555
N2 O42 1.254376 1_555
N2 O34 1.264924 1_555
N3 O39 1.253880 1_555
N3 O43 1.254376 1_555
N3 O35 1.264924 1_555
N4 O24 1.228548 1_455
N4 O8 1.291406 1_555
N4 O16 1.292030 1_555
N5 O25 1.228548 1_555
N5 O9 1.291406 1_555
N5 O17 1.292030 1_555
N6 O26 1.228548 1_655
N6 O10 1.291406 1_555
N6 O18 1.292030 1_555
N7 O27 1.228548 1_555
N7 O11 1.291406 1_555
N7 O19 1.292030 1_555
N8 O28 1.228812 1_555
N8 O12 1.288451 1_545
N8 O20 1.292405 1_555
N9 O29 1.228812 1_455
N9 O13 1.288451 1_545
N9 O21 1.292405 1_555
N10 O30 1.228812 1_555
N10 O14 1.288451 1_565
N10 O22 1.292405 1_555
N11 O31 1.228812 1_655
N11 O15 1.288451 1_565
N11 O23 1.292405 1_555
O0 Zr0 2.101780 1_665
O0 Zr2 2.110401 1_556
O1 Zr1 2.101780 1_565
O1 Zr3 2.110401 1_555
O2 Zr2 2.101780 1_445
O2 Zr0 2.110401 1_554
O3 Zr3 2.101780 1_545
O3 Zr1 2.110401 1_555
O4 Zr0 2.105765 1_555
O4 Zr2 2.120906 1_546
O5 Zr1 2.105765 1_655
O5 Zr3 2.120906 1_545
O6 Zr2 2.105765 1_555
O6 Zr0 2.120906 1_564
O7 Zr3 2.105765 1_455
O7 Zr1 2.120906 1_565
O8 Zr0 2.346943 1_555
O9 Zr1 2.346943 1_555
O10 Zr2 2.346943 1_555
O11 Zr3 2.346943 1_555
O12 Zr0 2.346689 1_565
O13 Zr1 2.346689 1_565
O14 Zr2 2.346689 1_545
O15 Zr3 2.346689 1_545
O16 Zr0 2.370962 1_555
O17 Zr1 2.370962 1_555
O18 Zr2 2.370962 1_555
O19 Zr3 2.370962 1_555
O20 Zr0 2.375594 1_555
O21 Zr1 2.375594 1_555
O22 Zr2 2.375594 1_555
O23 Zr3 2.375594 1_555
