# generated using pymatgen
data_Fe3SnSb
_symmetry_space_group_name_H-M   'P 1'
_cell_length_a   4.20940843
_cell_length_b   4.21120400
_cell_length_c   5.39964513
_cell_angle_alpha   90.00000000
_cell_angle_beta   89.97470684
_cell_angle_gamma   59.98588848
_symmetry_Int_Tables_number   1
_chemical_formula_structural   Fe3SnSb
_chemical_formula_sum   'Fe3 Sn1 Sb1'
_cell_volume   82.88221856
_cell_formula_units_Z   1
loop_
 _symmetry_equiv_pos_site_id
 _symmetry_equiv_pos_as_xyz
  1  'x, y, z'
loop_
 _atom_site_type_symbol
 _atom_site_label
 _atom_site_symmetry_multiplicity
 _atom_site_fract_x
 _atom_site_fract_y
 _atom_site_fract_z
 _atom_site_occupancy
  Fe  Fe0  1  0.33347700  0.33326200  0.33858500  1
  Fe  Fe1  1  0.66655500  0.66672200  0.65812900  1
  Fe  Fe2  1  0.99998300  0.00000900  0.50244200  1
  Sn  Sn0  1  0.33323200  0.33338400  0.82132000  1
  Sb  Sb0  1  0.66675300  0.66662400  0.17952500  1
loop_
_geom_bond_atom_site_label_1
_geom_bond_atom_site_label_2
_geom_bond_distance
_geom_bond_site_symmetry_2
Fe0 Sb0 2.577885 1_455
Fe0 Sb0 2.577948 1_555
Fe0 Sb0 2.577948 1_545
Fe0 Fe2 2.585896 1_555
Fe0 Fe2 2.587060 1_465
Fe0 Fe2 2.587060 1_455
Fe0 Sn0 2.606597 1_555
Fe0 Sn0 2.793048 1_554
Fe1 Fe2 2.571342 1_465
Fe1 Fe2 2.572200 1_555
Fe1 Fe2 2.572207 1_565
Fe1 Sb0 2.584291 1_555
Fe1 Sn0 2.585252 1_655
Fe1 Sn0 2.585538 1_555
Fe1 Sn0 2.585542 1_565
Fe1 Sb0 2.815354 1_556
Fe2 Sn0 2.977686 1_555
Fe2 Sn0 2.979228 1_655
Fe2 Sn0 2.979231 1_645
Fe2 Sb0 2.990397 1_645
Fe2 Sb0 2.991864 1_545
Fe2 Sb0 2.991864 1_555
Sb0 Sn0 3.104453 1_654
Sb0 Sn0 3.107223 1_564
Sb0 Sn0 3.107226 1_554
