# generated using pymatgen
data_Na3AlP8O23
_symmetry_space_group_name_H-M   'P 1'
_cell_length_a   12.09100700
_cell_length_b   12.09100700
_cell_length_c   12.09100700
_cell_angle_alpha   90.00000000
_cell_angle_beta   90.00000000
_cell_angle_gamma   90.00000000
_symmetry_Int_Tables_number   1
_chemical_formula_structural   Na3AlP8O23
_chemical_formula_sum   'Na12 Al4 P32 O92'
_cell_volume   1767.61393961
_cell_formula_units_Z   4
loop_
 _symmetry_equiv_pos_site_id
 _symmetry_equiv_pos_as_xyz
  1  'x, y, z'
loop_
 _atom_site_type_symbol
 _atom_site_label
 _atom_site_symmetry_multiplicity
 _atom_site_fract_x
 _atom_site_fract_y
 _atom_site_fract_z
 _atom_site_occupancy
  Na  Na0  1  0.37500000  0.95607600  0.79392400  1
  Na  Na1  1  0.29392400  0.12500000  0.04392400  1
  Na  Na2  1  0.45607600  0.70607600  0.62500000  1
  Na  Na3  1  0.54392400  0.20607600  0.87500000  1
  Na  Na4  1  0.87500000  0.54392400  0.20607600  1
  Na  Na5  1  0.12500000  0.04392400  0.29392400  1
  Na  Na6  1  0.62500000  0.45607600  0.70607600  1
  Na  Na7  1  0.95607600  0.79392400  0.37500000  1
  Na  Na8  1  0.04392400  0.29392400  0.12500000  1
  Na  Na9  1  0.70607600  0.62500000  0.45607600  1
  Na  Na10  1  0.79392400  0.37500000  0.95607600  1
  Na  Na11  1  0.20607600  0.87500000  0.54392400  1
  Al  Al0  1  0.12500000  0.62500000  0.87500000  1
  Al  Al1  1  0.37500000  0.37500000  0.37500000  1
  Al  Al2  1  0.87500000  0.12500000  0.62500000  1
  Al  Al3  1  0.62500000  0.87500000  0.12500000  1
  P  P0  1  0.63537400  0.35449200  0.43084400  1
  P  P1  1  0.64550800  0.93084400  0.86462600  1
  P  P2  1  0.43084400  0.63537400  0.35449200  1
  P  P3  1  0.93084400  0.86462600  0.64550800  1
  P  P4  1  0.85449200  0.06915600  0.36462600  1
  P  P5  1  0.06915600  0.36462600  0.85449200  1
  P  P6  1  0.35449200  0.43084400  0.63537400  1
  P  P7  1  0.14550800  0.56915600  0.13537400  1
  P  P8  1  0.56915600  0.13537400  0.14550800  1
  P  P9  1  0.39550800  0.11462600  0.31915600  1
  P  P10  1  0.10449200  0.88537400  0.81915600  1
  P  P11  1  0.68084400  0.89550800  0.38537400  1
  P  P12  1  0.31915600  0.39550800  0.11462600  1
  P  P13  1  0.88537400  0.81915600  0.10449200  1
  P  P14  1  0.38537400  0.68084400  0.89550800  1
  P  P15  1  0.13537400  0.14550800  0.56915600  1
  P  P16  1  0.86462600  0.64550800  0.93084400  1
  P  P17  1  0.36462600  0.85449200  0.06915600  1
  P  P18  1  0.89550800  0.38537400  0.68084400  1
  P  P19  1  0.60449200  0.61462600  0.18084400  1
  P  P20  1  0.81915600  0.10449200  0.88537400  1
  P  P21  1  0.18084400  0.60449200  0.61462600  1
  P  P22  1  0.11462600  0.31915600  0.39550800  1
  P  P23  1  0.61462600  0.18084400  0.60449200  1
  P  P24  1  0.01774900  0.01774900  0.01774900  1
  P  P25  1  0.26774900  0.23225100  0.76774900  1
  P  P26  1  0.76774900  0.26774900  0.23225100  1
  P  P27  1  0.23225100  0.76774900  0.26774900  1
  P  P28  1  0.48225100  0.98225100  0.51774900  1
  P  P29  1  0.51774900  0.48225100  0.98225100  1
  P  P30  1  0.98225100  0.51774900  0.48225100  1
  P  P31  1  0.73225100  0.73225100  0.73225100  1
  O  O0  1  0.66146700  0.66146700  0.66146700  1
  O  O1  1  0.91146700  0.58853300  0.41146700  1
  O  O2  1  0.58853300  0.41146700  0.91146700  1
  O  O3  1  0.41146700  0.91146700  0.58853300  1
  O  O4  1  0.16146700  0.83853300  0.33853300  1
  O  O5  1  0.83853300  0.33853300  0.16146700  1
  O  O6  1  0.33853300  0.16146700  0.83853300  1
  O  O7  1  0.08853300  0.08853300  0.08853300  1
  O  O8  1  0.43738800  0.51107800  0.67748800  1
  O  O9  1  0.93738800  0.98892200  0.32251200  1
  O  O10  1  0.51107800  0.67748800  0.43738800  1
  O  O11  1  0.48892200  0.17748800  0.06261200  1
  O  O12  1  0.67748800  0.43738800  0.51107800  1
  O  O13  1  0.82251200  0.56261200  0.01107800  1
  O  O14  1  0.18738800  0.92748800  0.73892200  1
  O  O15  1  0.68738800  0.57251200  0.26107800  1
  O  O16  1  0.81261200  0.42748800  0.76107800  1
  O  O17  1  0.57251200  0.26107800  0.68738800  1
  O  O18  1  0.76107800  0.81261200  0.42748800  1
  O  O19  1  0.26107800  0.68738800  0.57251200  1
  O  O20  1  0.92748800  0.73892200  0.18738800  1
  O  O21  1  0.73892200  0.18738800  0.92748800  1
  O  O22  1  0.42748800  0.76107800  0.81261200  1
  O  O23  1  0.07251200  0.23892200  0.31261200  1
  O  O24  1  0.23892200  0.31261200  0.07251200  1
  O  O25  1  0.32251200  0.93738800  0.98892200  1
  O  O26  1  0.17748800  0.06261200  0.48892200  1
  O  O27  1  0.01107800  0.82251200  0.56261200  1
  O  O28  1  0.98892200  0.32251200  0.93738800  1
  O  O29  1  0.06261200  0.48892200  0.17748800  1
  O  O30  1  0.56261200  0.01107800  0.82251200  1
  O  O31  1  0.31261200  0.07251200  0.23892200  1
  O  O32  1  0.37500000  0.73242000  0.01758000  1
  O  O33  1  0.51758000  0.12500000  0.26758000  1
  O  O34  1  0.73434300  0.32978100  0.34188400  1
  O  O35  1  0.23242000  0.48242000  0.62500000  1
  O  O36  1  0.98242000  0.87500000  0.76758000  1
  O  O37  1  0.01758000  0.37500000  0.73242000  1
  O  O38  1  0.48242000  0.62500000  0.23242000  1
  O  O39  1  0.26758000  0.51758000  0.12500000  1
  O  O40  1  0.73242000  0.01758000  0.37500000  1
  O  O41  1  0.62500000  0.23242000  0.48242000  1
  O  O42  1  0.12500000  0.26758000  0.51758000  1
  O  O43  1  0.87500000  0.76758000  0.98242000  1
  O  O44  1  0.32978100  0.34188400  0.73434300  1
  O  O45  1  0.82978100  0.15811600  0.26565700  1
  O  O46  1  0.34188400  0.73434300  0.32978100  1
  O  O47  1  0.65811600  0.23434300  0.17021900  1
  O  O48  1  0.03185900  0.12246000  0.63345500  1
  O  O49  1  0.28185900  0.61654500  0.87246000  1
  O  O50  1  0.78185900  0.88345500  0.12754000  1
  O  O51  1  0.38345500  0.37246000  0.21814100  1
  O  O52  1  0.61654500  0.87246000  0.28185900  1
  O  O53  1  0.12754000  0.78185900  0.88345500  1
  O  O54  1  0.37246000  0.21814100  0.38345500  1
  O  O55  1  0.63345500  0.03185900  0.12246000  1
  O  O56  1  0.12246000  0.63345500  0.03185900  1
  O  O57  1  0.37754000  0.36654500  0.53185900  1
  O  O58  1  0.13345500  0.46814100  0.87754000  1
  O  O59  1  0.87754000  0.13345500  0.46814100  1
  O  O60  1  0.86654500  0.96814100  0.62246000  1
  O  O61  1  0.36654500  0.53185900  0.37754000  1
  O  O62  1  0.62246000  0.86654500  0.96814100  1
  O  O63  1  0.53185900  0.37754000  0.36654500  1
  O  O64  1  0.96814100  0.62246000  0.86654500  1
  O  O65  1  0.46814100  0.87754000  0.13345500  1
  O  O66  1  0.87246000  0.28185900  0.61654500  1
  O  O67  1  0.62754000  0.71814100  0.11654500  1
  O  O68  1  0.88345500  0.12754000  0.78185900  1
  O  O69  1  0.11654500  0.62754000  0.71814100  1
  O  O70  1  0.21814100  0.38345500  0.37246000  1
  O  O71  1  0.71814100  0.11654500  0.62754000  1
  O  O72  1  0.42021900  0.01565700  0.40811600  1
  O  O73  1  0.67021900  0.84188400  0.76565700  1
  O  O74  1  0.17021900  0.65811600  0.23434300  1
  O  O75  1  0.15811600  0.26565700  0.82978100  1
  O  O76  1  0.84188400  0.76565700  0.67021900  1
  O  O77  1  0.23434300  0.17021900  0.65811600  1
  O  O78  1  0.26565700  0.82978100  0.15811600  1
  O  O79  1  0.40811600  0.42021900  0.01565700  1
  O  O80  1  0.01565700  0.40811600  0.42021900  1
  O  O81  1  0.48434300  0.59188400  0.92021900  1
  O  O82  1  0.90811600  0.07978100  0.98434300  1
  O  O83  1  0.98434300  0.90811600  0.07978100  1
  O  O84  1  0.09188400  0.57978100  0.51565700  1
  O  O85  1  0.59188400  0.92021900  0.48434300  1
  O  O86  1  0.51565700  0.09188400  0.57978100  1
  O  O87  1  0.92021900  0.48434300  0.59188400  1
  O  O88  1  0.57978100  0.51565700  0.09188400  1
  O  O89  1  0.07978100  0.98434300  0.90811600  1
  O  O90  1  0.76565700  0.67021900  0.84188400  1
  O  O91  1  0.76758000  0.98242000  0.87500000  1
loop_
_geom_bond_atom_site_label_1
_geom_bond_atom_site_label_2
_geom_bond_distance
_geom_bond_site_symmetry_2
Na0 O14 2.389030 1_555
Na0 O30 2.389030 1_565
Na0 O22 2.452074 1_555
Na0 O25 2.452074 1_555
Na0 O3 2.579249 1_555
Na0 O6 2.579249 1_565
Na1 O24 2.389030 1_555
Na1 O25 2.389030 1_544
Na1 O11 2.452074 1_555
Na1 O31 2.452074 1_555
Na1 O7 2.579249 1_555
Na1 O6 2.579249 1_554
Na2 O10 2.389030 1_555
Na2 O22 2.389030 1_555
Na2 O8 2.452074 1_555
Na2 O19 2.452074 1_555
Na2 O0 2.579249 1_555
Na2 O3 2.579249 1_555
Na3 O17 2.389030 1_555
Na3 O11 2.389030 1_556
Na3 O30 2.452074 1_555
Na3 O21 2.452074 1_555
Na3 O6 2.579249 1_555
Na3 O2 2.579249 1_555
Na4 O15 2.389030 1_555
Na4 O29 2.389030 1_655
Na4 O13 2.452074 1_555
Na4 O20 2.452074 1_555
Na4 O5 2.579249 1_555
Na4 O1 2.579249 1_555
Na5 O31 2.389030 1_555
Na5 O9 2.389030 1_445
Na5 O26 2.452074 1_555
Na5 O23 2.452074 1_555
Na5 O7 2.579249 1_555
Na5 O4 2.579249 1_545
Na6 O8 2.389030 1_555
Na6 O16 2.389030 1_555
Na6 O12 2.452074 1_555
Na6 O17 2.452074 1_555
Na6 O0 2.579249 1_555
Na6 O2 2.579249 1_555
Na7 O20 2.389030 1_555
Na7 O27 2.389030 1_655
Na7 O18 2.452074 1_555
Na7 O9 2.452074 1_555
Na7 O1 2.579249 1_555
Na7 O4 2.579249 1_655
Na8 O23 2.389030 1_555
Na8 O28 2.389030 1_454
Na8 O29 2.452074 1_555
Na8 O24 2.452074 1_555
Na8 O7 2.579249 1_555
Na8 O5 2.579249 1_455
Na9 O12 2.389030 1_555
Na9 O18 2.389030 1_555
Na9 O10 2.452074 1_555
Na9 O15 2.452074 1_555
Na9 O0 2.579249 1_555
Na9 O1 2.579249 1_555
Na10 O21 2.389030 1_555
Na10 O13 2.389030 1_556
Na10 O16 2.452074 1_555
Na10 O28 2.452074 1_555
Na10 O2 2.579249 1_555
Na10 O5 2.579249 1_556
Na11 O19 2.389030 1_555
Na11 O26 2.389030 1_565
Na11 O27 2.452074 1_555
Na11 O14 2.452074 1_555
Na11 O4 2.579249 1_555
Na11 O3 2.579249 1_555
Al0 O49 1.899585 1_555
Al0 O53 1.899585 1_555
Al0 O58 1.899585 1_555
Al0 O56 1.899585 1_556
Al0 O69 1.899585 1_555
Al0 O64 1.899585 1_455
Al1 O57 1.899585 1_555
Al1 O63 1.899585 1_555
Al1 O61 1.899585 1_555
Al1 O54 1.899585 1_555
Al1 O70 1.899585 1_555
Al1 O51 1.899585 1_555
Al2 O66 1.899585 1_555
Al2 O68 1.899585 1_555
Al2 O59 1.899585 1_555
Al2 O48 1.899585 1_655
Al2 O71 1.899585 1_555
Al2 O60 1.899585 1_545
Al3 O52 1.899585 1_555
Al3 O50 1.899585 1_555
Al3 O65 1.899585 1_555
Al3 O55 1.899585 1_565
Al3 O67 1.899585 1_555
Al3 O62 1.899585 1_554
O0 P31 1.482375 1_555
O1 P30 1.482375 1_555
O2 P29 1.482375 1_555
O3 P28 1.482375 1_555
O4 P27 1.482375 1_555
O5 P26 1.482375 1_555
O6 P25 1.482375 1_555
O7 P24 1.482375 1_555
O8 P6 1.484923 1_555
O9 P4 1.484923 1_565
O10 P2 1.484923 1_555
O11 P8 1.484923 1_555
O12 P0 1.484923 1_555
O13 P16 1.484923 1_554
O14 P10 1.484923 1_555
O15 P19 1.484923 1_555
O16 P18 1.484923 1_555
O17 P23 1.484923 1_555
O18 P11 1.484923 1_555
O19 P21 1.484923 1_555
O20 P13 1.484923 1_555
O21 P20 1.484923 1_555
O22 P14 1.484923 1_555
O23 P22 1.484923 1_555
O24 P12 1.484923 1_555
O25 P17 1.484923 1_556
O26 P15 1.484923 1_555
O27 P3 1.484923 1_455
O28 P5 1.484923 1_655
O29 P7 1.484923 1_555
O30 P1 1.484923 1_545
O31 P9 1.484923 1_555
O32 P17 1.607207 1_555
O32 P14 1.607207 1_554
O33 P8 1.607207 1_555
O33 P9 1.607207 1_555
O34 P26 1.575701 1_555
O34 P0 1.636507 1_555
O35 P21 1.607207 1_555
O35 P6 1.607207 1_555
O36 P10 1.607207 1_655
O36 P3 1.607207 1_555
O37 P5 1.607207 1_555
O37 P18 1.607207 1_455
O38 P19 1.607207 1_555
O38 P2 1.607207 1_555
O39 P7 1.607207 1_555
O39 P12 1.607207 1_555
O40 P4 1.607207 1_555
O40 P11 1.607207 1_545
O41 P23 1.607207 1_555
O41 P0 1.607207 1_555
O42 P15 1.607207 1_555
O42 P22 1.607207 1_555
O43 P13 1.607207 1_556
O43 P16 1.607207 1_555
O44 P25 1.575701 1_555
O44 P6 1.636507 1_555
O45 P26 1.575701 1_555
O45 P4 1.636507 1_555
O46 P27 1.575701 1_555
O46 P2 1.636507 1_555
O47 P26 1.575701 1_555
O47 P8 1.636507 1_555
O48 P15 1.499525 1_555
O49 P14 1.499525 1_555
O50 P13 1.499525 1_555
O51 P12 1.499525 1_555
O52 P11 1.499525 1_555
O53 P10 1.499525 1_555
O54 P9 1.499525 1_555
O55 P8 1.499525 1_555
O56 P7 1.499525 1_555
O57 P6 1.499525 1_555
O58 P5 1.499525 1_555
O59 P4 1.499525 1_555
O60 P3 1.499525 1_555
O61 P2 1.499525 1_555
O62 P1 1.499525 1_555
O63 P0 1.499525 1_555
O64 P16 1.499525 1_555
O65 P17 1.499525 1_555
O66 P18 1.499525 1_555
O67 P19 1.499525 1_555
O68 P20 1.499525 1_555
O69 P21 1.499525 1_555
O70 P22 1.499525 1_555
O71 P23 1.499525 1_555
O72 P28 1.575701 1_545
O72 P9 1.636507 1_555
O73 P31 1.575701 1_555
O73 P1 1.636507 1_555
O74 P27 1.575701 1_555
O74 P7 1.636507 1_555
O75 P25 1.575701 1_555
O75 P5 1.636507 1_555
O76 P31 1.575701 1_555
O76 P3 1.636507 1_555
O77 P25 1.575701 1_555
O77 P15 1.636507 1_555
O78 P27 1.575701 1_555
O78 P17 1.636507 1_555
O79 P29 1.575701 1_554
O79 P12 1.636507 1_555
O80 P30 1.575701 1_455
O80 P22 1.636507 1_555
O81 P29 1.575701 1_555
O81 P14 1.636507 1_555
O82 P24 1.575701 1_656
O82 P20 1.636507 1_555
O83 P24 1.575701 1_665
O83 P13 1.636507 1_555
O84 P30 1.575701 1_455
O84 P21 1.636507 1_555
O85 P28 1.575701 1_555
O85 P11 1.636507 1_555
O86 P28 1.575701 1_545
O86 P23 1.636507 1_555
O87 P30 1.575701 1_555
O87 P18 1.636507 1_555
O88 P29 1.575701 1_554
O88 P19 1.636507 1_555
O89 P24 1.575701 1_566
O89 P10 1.636507 1_555
O90 P31 1.575701 1_555
O90 P16 1.636507 1_555
O91 P20 1.607207 1_565
O91 P1 1.607207 1_555
