# generated using pymatgen
data_LiAlAs2
_symmetry_space_group_name_H-M   'P 1'
_cell_length_a   9.92715047
_cell_length_b   9.92715047
_cell_length_c   9.92715047
_cell_angle_alpha   133.05233262
_cell_angle_beta   110.45458248
_cell_angle_gamma   88.15872031
_symmetry_Int_Tables_number   1
_chemical_formula_structural   LiAlAs2
_chemical_formula_sum   'Li8 Al8 As16'
_cell_volume   638.63078582
_cell_formula_units_Z   8
loop_
 _symmetry_equiv_pos_site_id
 _symmetry_equiv_pos_as_xyz
  1  'x, y, z'
loop_
 _atom_site_type_symbol
 _atom_site_label
 _atom_site_symmetry_multiplicity
 _atom_site_fract_x
 _atom_site_fract_y
 _atom_site_fract_z
 _atom_site_occupancy
  Li  Li0  1  0.76531800  0.14888300  0.11205000  1
  Li  Li1  1  0.73468200  0.84673300  0.38356600  1
  Li  Li2  1  0.96316700  0.35111700  0.11643400  1
  Li  Li3  1  0.53683300  0.65326700  0.38795000  1
  Li  Li4  1  0.23468200  0.85111700  0.88795000  1
  Li  Li5  1  0.26531800  0.15326700  0.61643400  1
  Li  Li6  1  0.03683300  0.64888300  0.88356600  1
  Li  Li7  1  0.46316700  0.34673300  0.61205000  1
  Al  Al0  1  0.44869100  0.97957600  0.72454700  1
  Al  Al1  1  0.05130900  0.77585700  0.53088500  1
  Al  Al2  1  0.74497200  0.52042400  0.96911500  1
  Al  Al3  1  0.75502800  0.72414300  0.77545300  1
  Al  Al4  1  0.55130900  0.02042400  0.27545300  1
  Al  Al5  1  0.94869100  0.22414300  0.46911500  1
  Al  Al6  1  0.25502800  0.47957600  0.03088500  1
  Al  Al7  1  0.24497200  0.27585700  0.22454700  1
  As  As0  1  0.50000000  0.00000000  0.50000000  1
  As  As1  1  0.00000000  0.50000000  0.50000000  1
  As  As2  1  0.50000000  0.50000000  0.00000000  1
  As  As3  1  0.00000000  0.00000000  0.00000000  1
  As  As4  1  0.25000000  0.09834800  0.84834800  1
  As  As5  1  0.75000000  0.40165200  0.65165200  1
  As  As6  1  0.75000000  0.90165200  0.15165200  1
  As  As7  1  0.25000000  0.59834800  0.34834800  1
  As  As8  1  0.67355400  0.25000000  0.92355400  1
  As  As9  1  0.82644600  0.75000000  0.57644600  1
  As  As10  1  0.32644600  0.75000000  0.07644600  1
  As  As11  1  0.17355400  0.25000000  0.42355400  1
  As  As12  1  0.50216300  0.75216300  0.75000000  1
  As  As13  1  0.99783700  0.74783700  0.25000000  1
  As  As14  1  0.49783700  0.24783700  0.25000000  1
  As  As15  1  0.00216300  0.25216300  0.75000000  1
loop_
_geom_bond_atom_site_label_1
_geom_bond_atom_site_label_2
_geom_bond_distance
_geom_bond_site_symmetry_2
Al0 As12 2.459733 1_555
Al0 As8 2.480800 1_565
Al0 As4 2.521408 1_565
Al0 As0 2.585878 1_565
Al0 As7 2.862574 1_555
Al0 Li5 2.897949 1_565
Al0 Li3 3.083354 1_555
Al1 As13 2.459726 1_455
Al1 As9 2.480802 1_455
Al1 As4 2.521404 1_565
Al1 As1 2.585887 1_555
Al1 As7 2.862576 1_555
Al1 Li4 2.897957 1_555
Al1 Li2 3.083359 1_455
Al2 As13 2.459726 1_556
Al2 As8 2.480802 1_555
Al2 As5 2.521404 1_555
Al2 As2 2.585887 1_556
Al2 As6 2.862576 1_556
Al2 Li7 2.897959 1_555
Al2 Li1 3.083363 1_556
Al3 As12 2.459724 1_555
Al3 As9 2.480812 1_555
Al3 As5 2.521400 1_555
Al3 As3 2.585889 1_666
Al3 As6 2.862567 1_556
Al3 Li6 2.897957 1_655
Al3 Li0 3.083354 1_566
Al4 As14 2.459733 1_555
Al4 As10 2.480800 1_545
Al4 As6 2.521408 1_545
Al4 As0 2.585878 1_555
Al4 As5 2.862574 1_555
Al4 Li1 2.897949 1_545
Al4 Li7 3.083354 1_555
Al5 As15 2.459726 1_655
Al5 As11 2.480802 1_655
Al5 As6 2.521404 1_545
Al5 As1 2.585887 1_655
Al5 As5 2.862576 1_555
Al5 Li0 2.897957 1_555
Al5 Li6 3.083359 1_655
Al6 As15 2.459726 1_554
Al6 As10 2.480802 1_555
Al6 As7 2.521404 1_555
Al6 As2 2.585887 1_555
Al6 As4 2.862576 1_554
Al6 Li3 2.897959 1_555
Al6 Li5 3.083363 1_554
Al7 As14 2.459724 1_555
Al7 As11 2.480812 1_555
Al7 As7 2.521400 1_555
Al7 As3 2.585889 1_555
Al7 As4 2.862567 1_554
Al7 Li2 2.897957 1_455
Al7 Li4 3.083354 1_544
As0 Li7 2.862643 1_555
As0 Li3 2.862643 1_545
As0 Li5 2.886481 1_555
As0 Li1 2.886481 1_545
As1 Li2 2.862643 1_455
As1 Li6 2.862643 1_555
As1 Li4 2.886487 1_555
As1 Li0 2.886487 1_455
As2 Li1 2.862640 1_555
As2 Li5 2.862640 1_554
As2 Li7 2.886490 1_554
As2 Li3 2.886490 1_555
As3 Li4 2.862634 1_544
As3 Li0 2.862634 1_455
As3 Li2 2.886490 1_455
As3 Li6 2.886490 1_544
As4 Li4 2.753979 1_545
As4 Li5 2.753981 1_555
As5 Li6 2.753978 1_655
As5 Li7 2.753978 1_555
As6 Li0 2.753979 1_565
As6 Li1 2.753981 1_555
As7 Li3 2.753978 1_555
As7 Li2 2.753978 1_455
As8 Li2 2.579410 1_556
As8 Li0 2.579411 1_556
As9 Li3 2.579410 1_555
As9 Li1 2.579411 1_555
As10 Li6 2.579410 1_554
As10 Li4 2.579411 1_554
As11 Li7 2.579410 1_555
As11 Li5 2.579411 1_555
