# generated using pymatgen
data_CsRbMg30O31
_symmetry_space_group_name_H-M   'P 1'
_cell_length_a   8.69355200
_cell_length_b   8.80335200
_cell_length_c   8.90272700
_cell_angle_alpha   90.00000000
_cell_angle_beta   90.00000000
_cell_angle_gamma   90.00000000
_symmetry_Int_Tables_number   1
_chemical_formula_structural   CsRbMg30O31
_chemical_formula_sum   'Cs1 Rb1 Mg30 O31'
_cell_volume   681.34704949
_cell_formula_units_Z   1
loop_
 _symmetry_equiv_pos_site_id
 _symmetry_equiv_pos_as_xyz
  1  'x, y, z'
loop_
 _atom_site_type_symbol
 _atom_site_label
 _atom_site_symmetry_multiplicity
 _atom_site_fract_x
 _atom_site_fract_y
 _atom_site_fract_z
 _atom_site_occupancy
  Cs  Cs0  1  0.50000000  0.50000000  0.97006800  1
  Rb  Rb0  1  0.00000000  0.00000000  0.99506200  1
  Mg  Mg0  1  0.00000000  0.50000000  0.98071700  1
  Mg  Mg1  1  0.50000000  0.00000000  0.00026100  1
  Mg  Mg2  1  0.00000000  0.00000000  0.50052600  1
  Mg  Mg3  1  0.00000000  0.50000000  0.51724100  1
  Mg  Mg4  1  0.50000000  0.00000000  0.49956000  1
  Mg  Mg5  1  0.50000000  0.50000000  0.48626200  1
  Mg  Mg6  1  0.24941300  0.25008700  0.00970100  1
  Mg  Mg7  1  0.24941300  0.74991300  0.00970100  1
  Mg  Mg8  1  0.75058700  0.25008700  0.00970100  1
  Mg  Mg9  1  0.75058700  0.74991300  0.00970100  1
  Mg  Mg10  1  0.24862400  0.24448800  0.49545700  1
  Mg  Mg11  1  0.24862400  0.75551200  0.49545700  1
  Mg  Mg12  1  0.75137600  0.24448800  0.49545700  1
  Mg  Mg13  1  0.75137600  0.75551200  0.49545700  1
  Mg  Mg14  1  0.00000000  0.22798400  0.24995300  1
  Mg  Mg15  1  0.00000000  0.77201600  0.24995300  1
  Mg  Mg16  1  0.50000000  0.23914600  0.25244300  1
  Mg  Mg17  1  0.50000000  0.76085400  0.25244300  1
  Mg  Mg18  1  0.00000000  0.25086000  0.74881700  1
  Mg  Mg19  1  0.00000000  0.74914000  0.74881700  1
  Mg  Mg20  1  0.50000000  0.24373400  0.73510900  1
  Mg  Mg21  1  0.50000000  0.75626600  0.73510900  1
  Mg  Mg22  1  0.25763900  0.00000000  0.25246700  1
  Mg  Mg23  1  0.27084300  0.50000000  0.25649000  1
  Mg  Mg24  1  0.74236100  0.00000000  0.25246700  1
  Mg  Mg25  1  0.72915700  0.50000000  0.25649000  1
  Mg  Mg26  1  0.25397800  0.00000000  0.75009400  1
  Mg  Mg27  1  0.25380700  0.50000000  0.72333100  1
  Mg  Mg28  1  0.74602200  0.00000000  0.75009400  1
  Mg  Mg29  1  0.74619300  0.50000000  0.72333100  1
  O  O0  1  0.00000000  0.00000000  0.27928000  1
  O  O1  1  0.50000000  0.00000000  0.26770100  1
  O  O2  1  0.50000000  0.50000000  0.27290500  1
  O  O3  1  0.00000000  0.00000000  0.71912400  1
  O  O4  1  0.00000000  0.50000000  0.74376600  1
  O  O5  1  0.50000000  0.00000000  0.73815900  1
  O  O6  1  0.50000000  0.50000000  0.69479100  1
  O  O7  1  0.24416600  0.24712200  0.25653600  1
  O  O8  1  0.24416600  0.75287800  0.25653600  1
  O  O9  1  0.75583400  0.24712200  0.25653600  1
  O  O10  1  0.75583400  0.75287800  0.25653600  1
  O  O11  1  0.25159600  0.25739400  0.74958800  1
  O  O12  1  0.25159600  0.74260600  0.74958800  1
  O  O13  1  0.74840400  0.25739400  0.74958800  1
  O  O14  1  0.74840400  0.74260600  0.74958800  1
  O  O15  1  0.00000000  0.27601300  0.00633200  1
  O  O16  1  0.00000000  0.72398700  0.00633200  1
  O  O17  1  0.50000000  0.22082200  0.02088100  1
  O  O18  1  0.50000000  0.77917800  0.02088100  1
  O  O19  1  0.00000000  0.26061900  0.49491500  1
  O  O20  1  0.00000000  0.73938100  0.49491500  1
  O  O21  1  0.50000000  0.24526900  0.49553100  1
  O  O22  1  0.50000000  0.75473100  0.49553100  1
  O  O23  1  0.27539300  0.00000000  0.99956600  1
  O  O24  1  0.21491500  0.50000000  0.04320700  1
  O  O25  1  0.72460700  0.00000000  0.99956600  1
  O  O26  1  0.78508500  0.50000000  0.04320700  1
  O  O27  1  0.25144400  0.00000000  0.50301000  1
  O  O28  1  0.23712800  0.50000000  0.48758100  1
  O  O29  1  0.74855600  0.00000000  0.50301000  1
  O  O30  1  0.76287200  0.50000000  0.48758100  1
loop_
_geom_bond_atom_site_label_1
_geom_bond_atom_site_label_2
_geom_bond_distance
_geom_bond_site_symmetry_2
Cs0 O6 2.450716 1_555
Cs0 O18 2.498988 1_556
Cs0 O17 2.498988 1_556
Cs0 O26 2.562509 1_556
Cs0 O24 2.562509 1_556
Cs0 O2 2.696075 1_556
Mg0 O24 1.949443 1_556
Mg0 O26 1.949443 1_456
Mg0 O16 1.984979 1_556
Mg0 O15 1.984979 1_556
Mg0 O4 2.109510 1_555
Mg1 O17 1.952622 1_555
Mg1 O18 1.952622 1_545
Mg1 O23 1.952642 1_554
Mg1 O25 1.952642 1_554
Mg1 O5 2.333423 1_554
Mg1 O1 2.380945 1_555
Mg2 O3 1.946118 1_555
Mg2 O0 1.969693 1_555
Mg2 O27 2.186053 1_555
Mg2 O29 2.186053 1_455
Mg2 O19 2.294865 1_555
Mg2 O20 2.294865 1_545
Mg3 O4 2.016690 1_555
Mg3 O28 2.078327 1_555
Mg3 O30 2.078327 1_455
Mg3 O20 2.116708 1_555
Mg3 O19 2.116708 1_555
Mg4 O1 2.064177 1_555
Mg4 O5 2.124182 1_555
Mg4 O21 2.159487 1_555
Mg4 O22 2.159487 1_545
Mg4 O27 2.161053 1_555
Mg4 O29 2.161053 1_555
Mg5 O6 1.856477 1_555
Mg5 O2 1.899459 1_555
Mg5 O22 2.244004 1_555
Mg5 O21 2.244004 1_555
Mg5 O30 2.285322 1_555
Mg5 O28 2.285322 1_555
Mg6 O15 2.180470 1_555
Mg6 O17 2.195929 1_555
Mg6 O7 2.198133 1_555
Mg6 O23 2.214997 1_554
Mg6 O24 2.240367 1_555
Mg6 O11 2.316686 1_554
Mg7 O16 2.180470 1_555
Mg7 O18 2.195929 1_555
Mg7 O8 2.198133 1_555
Mg7 O23 2.214997 1_564
Mg7 O24 2.240367 1_555
Mg7 O12 2.316686 1_554
Mg8 O15 2.180470 1_655
Mg8 O17 2.195929 1_555
Mg8 O9 2.198133 1_555
Mg8 O25 2.214997 1_554
Mg8 O26 2.240367 1_555
Mg8 O13 2.316686 1_554
Mg9 O16 2.180470 1_655
Mg9 O18 2.195929 1_555
Mg9 O10 2.198133 1_555
Mg9 O25 2.214997 1_564
Mg9 O26 2.240367 1_555
Mg9 O14 2.316686 1_554
Mg10 O7 2.127528 1_555
Mg10 O27 2.153504 1_555
Mg10 O19 2.166091 1_555
Mg10 O21 2.185361 1_555
Mg10 O28 2.252673 1_555
Mg10 O11 2.265457 1_555
Mg11 O8 2.127528 1_555
Mg11 O27 2.153504 1_565
Mg11 O20 2.166091 1_555
Mg11 O22 2.185361 1_555
Mg11 O28 2.252673 1_555
Mg11 O12 2.265457 1_555
Mg12 O9 2.127528 1_555
Mg12 O29 2.153504 1_555
Mg12 O19 2.166091 1_655
Mg12 O21 2.185361 1_555
Mg12 O30 2.252673 1_555
Mg12 O13 2.265457 1_555
Mg13 O10 2.127528 1_555
Mg13 O29 2.153504 1_565
Mg13 O20 2.166091 1_655
Mg13 O22 2.185361 1_555
Mg13 O30 2.252673 1_555
Mg13 O14 2.265457 1_555
Mg14 O0 2.023935 1_555
Mg14 O9 2.130152 1_455
Mg14 O7 2.130152 1_555
Mg14 O19 2.199672 1_555
Mg14 O15 2.209720 1_555
Mg15 O0 2.023935 1_565
Mg15 O10 2.130152 1_455
Mg15 O8 2.130152 1_555
Mg15 O20 2.199672 1_555
Mg15 O16 2.209720 1_555
Mg16 O17 2.067835 1_555
Mg16 O1 2.109664 1_555
Mg16 O21 2.164817 1_555
Mg16 O9 2.225513 1_555
Mg16 O7 2.225513 1_555
Mg16 O2 2.303604 1_555
Mg17 O18 2.067835 1_555
Mg17 O1 2.109664 1_565
Mg17 O22 2.164817 1_555
Mg17 O8 2.225513 1_555
Mg17 O10 2.225513 1_555
Mg17 O2 2.303604 1_555
Mg18 O11 2.188030 1_555
Mg18 O13 2.188030 1_455
Mg18 O4 2.193728 1_555
Mg18 O3 2.224174 1_555
Mg18 O19 2.262052 1_555
Mg18 O15 2.303254 1_556
Mg19 O12 2.188030 1_555
Mg19 O14 2.188030 1_455
Mg19 O4 2.193728 1_555
Mg19 O3 2.224174 1_565
Mg19 O20 2.262052 1_555
Mg19 O16 2.303254 1_556
Mg20 O21 2.132940 1_555
Mg20 O5 2.145848 1_555
Mg20 O13 2.166696 1_555
Mg20 O11 2.166696 1_555
Mg20 O6 2.284376 1_555
Mg20 O17 2.552133 1_556
Mg21 O22 2.132940 1_555
Mg21 O5 2.145848 1_565
Mg21 O14 2.166696 1_555
Mg21 O12 2.166696 1_555
Mg21 O6 2.284376 1_555
Mg21 O18 2.552133 1_556
Mg22 O1 2.111338 1_555
Mg22 O7 2.178954 1_555
Mg22 O8 2.178954 1_545
Mg22 O27 2.231166 1_555
Mg22 O0 2.252482 1_555
Mg22 O23 2.256793 1_554
Mg23 O24 1.960063 1_555
Mg23 O2 1.997541 1_555
Mg23 O28 2.078114 1_555
Mg23 O8 2.238222 1_555
Mg23 O7 2.238222 1_555
Mg24 O1 2.111338 1_555
Mg24 O9 2.178954 1_555
Mg24 O10 2.178954 1_545
Mg24 O29 2.231166 1_555
Mg24 O0 2.252482 1_655
Mg24 O25 2.256793 1_554
Mg25 O26 1.960063 1_555
Mg25 O2 1.997541 1_555
Mg25 O30 2.078114 1_555
Mg25 O10 2.238222 1_555
Mg25 O9 2.238222 1_555
Mg26 O5 2.141443 1_555
Mg26 O27 2.199832 1_555
Mg26 O3 2.225119 1_555
Mg26 O23 2.228770 1_555
Mg26 O12 2.266029 1_545
Mg26 O11 2.266029 1_555
Mg27 O28 2.103821 1_555
Mg27 O12 2.148586 1_555
Mg27 O11 2.148586 1_555
Mg27 O6 2.155321 1_555
Mg27 O4 2.213972 1_555
Mg28 O5 2.141443 1_555
Mg28 O29 2.199832 1_555
Mg28 O3 2.225119 1_655
Mg28 O25 2.228770 1_555
Mg28 O14 2.266029 1_545
Mg28 O13 2.266029 1_555
Mg29 O30 2.103821 1_555
Mg29 O13 2.148586 1_555
Mg29 O14 2.148586 1_555
Mg29 O6 2.155321 1_555
Mg29 O4 2.213972 1_655
O0 Rb0 2.530315 1_554
O3 Rb0 2.456601 1_555
O15 Rb0 2.431910 1_554
O16 Rb0 2.431910 1_564
O23 Rb0 2.394479 1_555
O25 Rb0 2.394479 1_655
