# generated using pymatgen
data_HoH12C2O4F
_symmetry_space_group_name_H-M   'P 1'
_cell_length_a   8.45735753
_cell_length_b   8.45735753
_cell_length_c   8.39150287
_cell_angle_alpha   61.92900070
_cell_angle_beta   61.92900070
_cell_angle_gamma   85.22194165
_symmetry_Int_Tables_number   1
_chemical_formula_structural   HoH12C2O4F
_chemical_formula_sum   'Ho2 H24 C4 O8 F2'
_cell_volume   459.89682640
_cell_formula_units_Z   2
loop_
 _symmetry_equiv_pos_site_id
 _symmetry_equiv_pos_as_xyz
  1  'x, y, z'
loop_
 _atom_site_type_symbol
 _atom_site_label
 _atom_site_symmetry_multiplicity
 _atom_site_fract_x
 _atom_site_fract_y
 _atom_site_fract_z
 _atom_site_occupancy
  Ho  Ho0  1  0.08130700  0.91869300  0.25000000  1
  Ho  Ho1  1  0.91869300  0.08130700  0.75000000  1
  H  H0  1  0.71796600  0.90911800  0.40796000  1
  H  H1  1  0.28203400  0.09088200  0.59204000  1
  H  H2  1  0.09088200  0.28203400  0.09204000  1
  H  H3  1  0.90911800  0.71796600  0.90796000  1
  H  H4  1  0.25416100  0.05251100  0.70687900  1
  H  H5  1  0.74583900  0.94748900  0.29312100  1
  H  H6  1  0.94748900  0.74583900  0.79312100  1
  H  H7  1  0.05251100  0.25416100  0.20687900  1
  H  H8  1  0.52805100  0.31668600  0.06395400  1
  H  H9  1  0.47194900  0.68331400  0.93604600  1
  H  H10  1  0.68331400  0.47194900  0.43604600  1
  H  H11  1  0.31668600  0.52805100  0.56395400  1
  H  H12  1  0.63899800  0.79460300  0.65205700  1
  H  H13  1  0.36100200  0.20539700  0.34794300  1
  H  H14  1  0.20539700  0.36100200  0.84794300  1
  H  H15  1  0.79460300  0.63899800  0.15205700  1
  H  H16  1  0.54946000  0.37286500  0.28093300  1
  H  H17  1  0.45054000  0.62713500  0.71906700  1
  H  H18  1  0.62713500  0.45054000  0.21906700  1
  H  H19  1  0.37286500  0.54946000  0.78093300  1
  H  H20  1  0.62696800  0.32048200  0.99483800  1
  H  H21  1  0.37303200  0.67951800  0.00516200  1
  H  H22  1  0.67951800  0.37303200  0.50516200  1
  H  H23  1  0.32048200  0.62696800  0.49483800  1
  C  C0  1  0.49879200  0.04841700  0.89758600  1
  C  C1  1  0.50120800  0.95158300  0.10241400  1
  C  C2  1  0.95158300  0.50120800  0.60241400  1
  C  C3  1  0.04841700  0.49879200  0.39758600  1
  O  O0  1  0.34394400  0.06796900  0.91222200  1
  O  O1  1  0.65605600  0.93203100  0.08777800  1
  O  O2  1  0.93203100  0.65605600  0.58777800  1
  O  O3  1  0.06796900  0.34394400  0.41222200  1
  O  O4  1  0.34678000  0.90144500  0.26537500  1
  O  O5  1  0.65322000  0.09855500  0.73462500  1
  O  O6  1  0.09855500  0.65322000  0.23462500  1
  O  O7  1  0.90144500  0.34678000  0.76537500  1
  F  F0  1  0.00000000  0.00000000  0.00000000  1
  F  F1  1  0.00000000  0.00000000  0.50000000  1
loop_
_geom_bond_atom_site_label_1
_geom_bond_atom_site_label_2
_geom_bond_distance
_geom_bond_site_symmetry_2
Ho0 O6 2.297650 1_555
Ho0 O4 2.297650 1_555
Ho0 O0 2.394973 1_564
Ho0 O2 2.394973 1_455
Ho1 O7 2.297650 1_555
Ho1 O5 2.297650 1_555
Ho1 O1 2.394973 1_546
Ho1 O3 2.394973 1_655
H0 H5 0.770828 1_555
H1 H4 0.770828 1_555
H2 H7 0.770828 1_555
H3 H6 0.770828 1_555
H10 H22 0.753383 1_555
H11 H23 0.753383 1_555
H16 H18 0.750053 1_555
H17 H19 0.750053 1_555
H20 H8 0.753383 1_556
H21 H9 0.753383 1_554
C0 O0 1.260617 1_555
C0 O5 1.273290 1_555
C1 O1 1.260617 1_555
C1 O4 1.273290 1_555
C2 O2 1.260617 1_555
C2 O7 1.273290 1_555
C3 O3 1.260617 1_555
C3 O6 1.273290 1_555
F0 Ho1 2.295215 1_454
F0 Ho0 2.295215 1_545
F1 Ho1 2.295215 1_455
F1 Ho0 2.295215 1_545
