# generated using pymatgen
data_CsCoPO4
_symmetry_space_group_name_H-M   'P 1'
_cell_length_a   5.51902400
_cell_length_b   9.34741500
_cell_length_c   9.63819200
_cell_angle_alpha   90.00000000
_cell_angle_beta   90.00000000
_cell_angle_gamma   90.00000000
_symmetry_Int_Tables_number   1
_chemical_formula_structural   CsCoPO4
_chemical_formula_sum   'Cs4 Co4 P4 O16'
_cell_volume   497.22090625
_cell_formula_units_Z   4
loop_
 _symmetry_equiv_pos_site_id
 _symmetry_equiv_pos_as_xyz
  1  'x, y, z'
loop_
 _atom_site_type_symbol
 _atom_site_label
 _atom_site_symmetry_multiplicity
 _atom_site_fract_x
 _atom_site_fract_y
 _atom_site_fract_z
 _atom_site_occupancy
  Cs  Cs0  1  0.50023100  0.00313200  0.30002100  1
  Cs  Cs1  1  0.00023100  0.99686800  0.69997900  1
  Cs  Cs2  1  0.50023100  0.50313200  0.19997900  1
  Cs  Cs3  1  0.00023100  0.49686800  0.80002100  1
  Co  Co0  1  0.99401100  0.32615500  0.41840700  1
  Co  Co1  1  0.49401100  0.67384500  0.58159300  1
  Co  Co2  1  0.99401100  0.82615500  0.08159300  1
  Co  Co3  1  0.49401100  0.17384500  0.91840700  1
  P  P0  1  0.99479900  0.19797100  0.08880100  1
  P  P1  1  0.49479900  0.80202900  0.91119900  1
  P  P2  1  0.99479900  0.69797100  0.41119900  1
  P  P3  1  0.49479900  0.30202900  0.58880100  1
  O  O0  1  0.31345800  0.25327500  0.47368900  1
  O  O1  1  0.81345800  0.74672500  0.52631100  1
  O  O2  1  0.31345800  0.75327500  0.02631100  1
  O  O3  1  0.81345800  0.24672500  0.97368900  1
  O  O4  1  0.25261900  0.25349400  0.04860700  1
  O  O5  1  0.75261900  0.74650600  0.95139300  1
  O  O6  1  0.25261900  0.75349400  0.45139300  1
  O  O7  1  0.75261900  0.24650600  0.54860700  1
  O  O8  1  0.99672600  0.03418800  0.10322700  1
  O  O9  1  0.49672600  0.96581200  0.89677300  1
  O  O10  1  0.99672600  0.53418800  0.39677300  1
  O  O11  1  0.49672600  0.46581200  0.60322700  1
  O  O12  1  0.41515500  0.23295800  0.72744600  1
  O  O13  1  0.91515500  0.76704200  0.27255400  1
  O  O14  1  0.41515500  0.73295800  0.77255400  1
  O  O15  1  0.91515500  0.26704200  0.22744600  1
loop_
_geom_bond_atom_site_label_1
_geom_bond_atom_site_label_2
_geom_bond_distance
_geom_bond_site_symmetry_2
Cs0 O0 3.054742 1_555
Cs0 O6 3.072646 1_545
Cs0 O13 3.191265 1_545
Cs0 O8 3.345206 1_555
Cs0 O8 3.376970 1_455
Cs0 O15 3.437842 1_555
Cs0 O7 3.585520 1_555
Cs0 O4 3.635385 1_555
Cs0 O2 3.671050 1_545
Cs0 O1 3.672830 1_545
Cs1 O1 3.054742 1_455
Cs1 O7 3.072646 1_465
Cs1 O12 3.191265 1_565
Cs1 O9 3.345206 1_555
Cs1 O9 3.376970 1_455
Cs1 O14 3.437842 1_555
Cs1 O6 3.585520 1_555
Cs1 O5 3.635385 1_455
Cs1 O3 3.671050 1_465
Cs1 O0 3.672830 1_565
Cs2 O2 3.054742 1_555
Cs2 O4 3.072646 1_555
Cs2 O15 3.191265 1_555
Cs2 O10 3.345206 1_555
Cs2 O10 3.376970 1_455
Cs2 O13 3.437842 1_555
Cs2 O5 3.585520 1_554
Cs2 O6 3.635385 1_555
Cs2 O0 3.671050 1_555
Cs2 O3 3.672830 1_554
Cs3 O3 3.054742 1_455
Cs3 O5 3.072646 1_455
Cs3 O14 3.191265 1_555
Cs3 O11 3.345206 1_555
Cs3 O11 3.376970 1_455
Cs3 O12 3.437842 1_555
Cs3 O4 3.585520 1_556
Cs3 O7 3.635385 1_455
Cs3 O1 3.671050 1_455
Cs3 O2 3.672830 1_556
Co0 O10 1.955775 1_555
Co0 O0 1.963741 1_655
Co0 O15 1.970338 1_555
Co0 O7 1.975839 1_555
Co1 O11 1.955775 1_555
Co1 O1 1.963741 1_555
Co1 O14 1.970338 1_555
Co1 O6 1.975839 1_555
Co2 O8 1.955775 1_565
Co2 O2 1.963741 1_655
Co2 O13 1.970338 1_555
Co2 O5 1.975839 1_554
Co3 O9 1.955775 1_545
Co3 O3 1.963741 1_555
Co3 O12 1.970338 1_555
Co3 O4 1.975839 1_556
O0 P3 1.562134 1_555
O1 P2 1.562134 1_555
O2 P1 1.562134 1_554
O3 P0 1.562134 1_556
O4 P0 1.563368 1_455
O5 P1 1.563368 1_555
O6 P2 1.563368 1_455
O7 P3 1.563368 1_555
O8 P0 1.537285 1_555
O9 P1 1.537285 1_555
O10 P2 1.537285 1_555
O11 P3 1.537285 1_555
O12 P3 1.547811 1_555
O13 P2 1.547811 1_555
O14 P1 1.547811 1_555
O15 P0 1.547811 1_555
