# generated using pymatgen
data_Ca3Al3N5
_symmetry_space_group_name_H-M   'P 1'
_cell_length_a   5.62764339
_cell_length_b   6.92223962
_cell_length_c   8.29285434
_cell_angle_alpha   108.31481624
_cell_angle_beta   104.48192421
_cell_angle_gamma   95.81672979
_symmetry_Int_Tables_number   1
_chemical_formula_structural   Ca3Al3N5
_chemical_formula_sum   'Ca6 Al6 N10'
_cell_volume   291.20154590
_cell_formula_units_Z   2
loop_
 _symmetry_equiv_pos_site_id
 _symmetry_equiv_pos_as_xyz
  1  'x, y, z'
loop_
 _atom_site_type_symbol
 _atom_site_label
 _atom_site_symmetry_multiplicity
 _atom_site_fract_x
 _atom_site_fract_y
 _atom_site_fract_z
 _atom_site_occupancy
  Ca  Ca0  1  0.81073899  0.42346331  0.60635383  1
  Ca  Ca1  1  0.18926101  0.57653669  0.39364617  1
  Ca  Ca2  1  0.66729199  0.86229362  0.88328976  1
  Ca  Ca3  1  0.33270801  0.13770638  0.11671024  1
  Ca  Ca4  1  0.66295947  0.64198465  0.20105891  1
  Ca  Ca5  1  0.33704053  0.35801535  0.79894109  1
  Al  Al0  1  0.90641353  0.31461093  0.96962163  1
  Al  Al1  1  0.09358647  0.68538907  0.03037837  1
  Al  Al2  1  0.70583191  0.95394087  0.57136725  1
  Al  Al3  1  0.29416809  0.04605913  0.42863275  1
  Al  Al4  1  0.12537792  0.87762420  0.71030053  1
  Al  Al5  1  0.87462208  0.12237580  0.28969947  1
  N  N0  1  0.96401451  0.10389402  0.78538667  1
  N  N1  1  0.03598549  0.89610598  0.21461333  1
  N  N2  1  0.83699857  0.71073797  0.51758234  1
  N  N3  1  0.16300143  0.28926203  0.48241766  1
  N  N4  1  0.76342957  0.52206975  0.89834495  1
  N  N5  1  0.23657043  0.47793025  0.10165505  1
  N  N6  1  0.38684977  0.93766016  0.61419348  1
  N  N7  1  0.61315023  0.06233984  0.38580652  1
  N  N8  1  0.25146178  0.77584206  0.88945471  1
  N  N9  1  0.74853822  0.22415794  0.11054529  1
loop_
_geom_bond_atom_site_label_1
_geom_bond_atom_site_label_2
_geom_bond_distance
_geom_bond_site_symmetry_2
Ca0 N2 2.330910 1_555
Ca0 N4 2.391795 1_555
Ca0 N7 2.525172 1_555
Ca0 N3 2.577119 1_655
Ca1 N3 2.330910 1_555
Ca1 N5 2.391795 1_555
Ca1 N6 2.525172 1_555
Ca1 N2 2.577119 1_455
Ca2 N8 2.373231 1_555
Ca2 N4 2.502824 1_555
Ca2 N9 2.530879 1_566
Ca2 N6 2.622975 1_555
Ca2 N0 2.685130 1_565
Ca2 N1 2.924954 1_656
Ca3 N9 2.373231 1_555
Ca3 N5 2.502824 1_555
Ca3 N8 2.530879 1_544
Ca3 N7 2.622975 1_555
Ca3 N1 2.685130 1_545
Ca3 N0 2.924954 1_454
Ca4 N5 2.365816 1_555
Ca4 N2 2.431124 1_555
Ca4 N1 2.554040 1_655
Ca4 N4 2.608842 1_554
Ca4 N9 2.873930 1_555
Ca4 N7 2.910520 1_565
Ca5 N4 2.365816 1_555
Ca5 N3 2.431124 1_555
Ca5 N0 2.554040 1_455
Ca5 N5 2.608842 1_556
Ca5 N8 2.873930 1_555
Ca5 N6 2.910520 1_545
Al0 N9 1.847598 1_556
Al0 N0 1.873477 1_555
Al0 N4 1.894469 1_555
Al0 N5 1.925602 1_656
Al1 N8 1.847598 1_554
Al1 N1 1.873477 1_555
Al1 N5 1.894469 1_555
Al1 N4 1.925602 1_454
Al2 N2 1.876875 1_555
Al2 N0 1.893485 1_565
Al2 N7 1.899124 1_565
Al2 N6 1.914235 1_555
Al3 N3 1.876875 1_555
Al3 N1 1.893485 1_545
Al3 N6 1.899124 1_545
Al3 N7 1.914235 1_555
Al4 N8 1.854488 1_555
Al4 N0 1.903629 1_465
Al4 N6 1.908905 1_555
Al4 N2 1.919624 1_455
Al5 N9 1.854488 1_555
Al5 N1 1.903629 1_645
Al5 N7 1.908905 1_555
Al5 N3 1.919624 1_655
