# generated using pymatgen
data_Tb2Mn12P7
_symmetry_space_group_name_H-M   'P 1'
_cell_length_a   9.31468762
_cell_length_b   9.31468762
_cell_length_c   3.60483700
_cell_angle_alpha   90.00000000
_cell_angle_beta   90.00000000
_cell_angle_gamma   119.99999732
_symmetry_Int_Tables_number   1
_chemical_formula_structural   Tb2Mn12P7
_chemical_formula_sum   'Tb2 Mn12 P7'
_cell_volume   270.86498399
_cell_formula_units_Z   1
loop_
 _symmetry_equiv_pos_site_id
 _symmetry_equiv_pos_as_xyz
  1  'x, y, z'
loop_
 _atom_site_type_symbol
 _atom_site_label
 _atom_site_symmetry_multiplicity
 _atom_site_fract_x
 _atom_site_fract_y
 _atom_site_fract_z
 _atom_site_occupancy
  Tb  Tb0  1  0.66666700  0.33333300  0.00000000  1
  Tb  Tb1  1  0.33333300  0.66666700  0.50000000  1
  Mn  Mn0  1  0.04888200  0.62305500  0.00000000  1
  Mn  Mn1  1  0.57417300  0.95111800  0.00000000  1
  Mn  Mn2  1  0.37694500  0.42582700  0.00000000  1
  Mn  Mn3  1  0.27607900  0.12109100  0.00000000  1
  Mn  Mn4  1  0.84501200  0.72392100  0.00000000  1
  Mn  Mn5  1  0.87890900  0.15498800  0.00000000  1
  Mn  Mn6  1  0.43521200  0.04578200  0.50000000  1
  Mn  Mn7  1  0.61057000  0.56478800  0.50000000  1
  Mn  Mn8  1  0.95421800  0.38943000  0.50000000  1
  Mn  Mn9  1  0.10345500  0.87604900  0.50000000  1
  Mn  Mn10  1  0.77259300  0.89654500  0.50000000  1
  Mn  Mn11  1  0.12395100  0.22740700  0.50000000  1
  P  P0  1  0.29030600  0.88120300  0.00000000  1
  P  P1  1  0.59089700  0.70969400  0.00000000  1
  P  P2  1  0.11879700  0.40910300  0.00000000  1
  P  P3  1  0.40791700  0.28311500  0.50000000  1
  P  P4  1  0.87519800  0.59208300  0.50000000  1
  P  P5  1  0.71688500  0.12480200  0.50000000  1
  P  P6  1  0.00000000  0.00000000  0.00000000  1
loop_
_geom_bond_atom_site_label_1
_geom_bond_atom_site_label_2
_geom_bond_distance
_geom_bond_site_symmetry_2
Mn0 P0 2.330587 1_555
Mn0 P4 2.341480 1_455
Mn0 P4 2.341480 1_454
Mn0 P2 2.386124 1_555
Mn1 P1 2.330586 1_555
Mn1 P5 2.341480 1_564
Mn1 P5 2.341480 1_565
Mn1 P0 2.386124 1_555
Mn2 P2 2.330587 1_555
Mn2 P3 2.341480 1_555
Mn2 P3 2.341480 1_554
Mn2 P1 2.386125 1_555
Mn3 P6 2.232650 1_555
Mn3 P3 2.276207 1_554
Mn3 P3 2.276207 1_555
Mn3 P0 2.303602 1_545
Mn4 P6 2.232650 1_665
Mn4 P4 2.276207 1_554
Mn4 P4 2.276207 1_555
Mn4 P1 2.303602 1_555
Mn5 P6 2.232650 1_655
Mn5 P5 2.276207 1_555
Mn5 P5 2.276207 1_554
Mn5 P2 2.303603 1_655
Mn6 P0 2.313324 1_546
Mn6 P0 2.313324 1_545
Mn6 P5 2.344010 1_555
Mn6 P3 2.348151 1_555
Mn7 P1 2.313324 1_556
Mn7 P1 2.313324 1_555
Mn7 P3 2.344010 1_555
Mn7 P4 2.348151 1_555
Mn8 P2 2.313324 1_655
Mn8 P2 2.313324 1_656
Mn8 P4 2.344010 1_555
Mn8 P5 2.348151 1_555
Mn9 P4 2.427557 1_455
Mn9 P0 2.489309 1_555
Mn9 P0 2.489309 1_556
Mn9 P6 2.573510 1_566
Mn9 P6 2.573510 1_565
Mn10 P5 2.427551 1_565
Mn10 P1 2.489306 1_556
Mn10 P1 2.489306 1_555
Mn10 P6 2.573516 1_666
Mn10 P6 2.573516 1_665
Mn11 P3 2.427560 1_555
Mn11 P2 2.489302 1_556
Mn11 P2 2.489302 1_555
Mn11 P6 2.573516 1_555
Mn11 P6 2.573516 1_556
P0 Tb1 2.864190 1_554
P0 Tb1 2.864190 1_555
P1 Tb1 2.864197 1_554
P1 Tb1 2.864197 1_555
P2 Tb1 2.864195 1_554
P2 Tb1 2.864195 1_555
P3 Tb0 2.854657 1_556
P3 Tb0 2.854657 1_555
P4 Tb0 2.854655 1_555
P4 Tb0 2.854655 1_556
P5 Tb0 2.854650 1_555
P5 Tb0 2.854650 1_556
