# generated using pymatgen
data_SrCuH4(CO2)4
_symmetry_space_group_name_H-M   'P 1'
_cell_length_a   8.82184500
_cell_length_b   7.05607300
_cell_length_c   7.55027479
_cell_angle_alpha   79.60723805
_cell_angle_beta   90.00000000
_cell_angle_gamma   90.00000000
_symmetry_Int_Tables_number   1
_chemical_formula_structural   SrCuH4(CO2)4
_chemical_formula_sum   'Sr2 Cu2 H8 C8 O16'
_cell_volume   462.27588103
_cell_formula_units_Z   2
loop_
 _symmetry_equiv_pos_site_id
 _symmetry_equiv_pos_as_xyz
  1  'x, y, z'
loop_
 _atom_site_type_symbol
 _atom_site_label
 _atom_site_symmetry_multiplicity
 _atom_site_fract_x
 _atom_site_fract_y
 _atom_site_fract_z
 _atom_site_occupancy
  Sr  Sr0  1  0.13764300  0.25000000  0.00000000  1
  Sr  Sr1  1  0.86235700  0.75000000  0.00000000  1
  Cu  Cu0  1  0.40245700  0.25000000  0.50000000  1
  Cu  Cu1  1  0.59754300  0.75000000  0.50000000  1
  H  H0  1  0.16166100  0.57138100  0.42803200  1
  H  H1  1  0.16166100  0.92861900  0.57196800  1
  H  H2  1  0.83833900  0.42861900  0.57196800  1
  H  H3  1  0.83833900  0.07138100  0.42803200  1
  H  H4  1  0.55949900  0.24092700  0.16355300  1
  H  H5  1  0.55949900  0.25907300  0.83644700  1
  H  H6  1  0.44050100  0.75907300  0.83644700  1
  H  H7  1  0.44050100  0.74092700  0.16355300  1
  C  C0  1  0.15168900  0.48619700  0.31888300  1
  C  C1  1  0.15168900  0.01380300  0.68111700  1
  C  C2  1  0.84831100  0.51380300  0.68111700  1
  C  C3  1  0.84831100  0.98619700  0.31888300  1
  C  C4  1  0.60033300  0.37557200  0.20352200  1
  C  C5  1  0.60033300  0.12442800  0.79647800  1
  C  C6  1  0.39966700  0.62442800  0.79647800  1
  C  C7  1  0.39966700  0.87557200  0.20352200  1
  O  O0  1  0.24381700  0.34572000  0.31966500  1
  O  O1  1  0.24381700  0.15428000  0.68033500  1
  O  O2  1  0.75618300  0.65428000  0.68033500  1
  O  O3  1  0.75618300  0.84572000  0.31966500  1
  O  O4  1  0.05154900  0.52800100  0.19934900  1
  O  O5  1  0.05154900  0.97199900  0.80065100  1
  O  O6  1  0.94845100  0.47199900  0.80065100  1
  O  O7  1  0.94845100  0.02800100  0.19934900  1
  O  O8  1  0.31501900  0.98499800  0.09886300  1
  O  O9  1  0.31501900  0.51500200  0.90113700  1
  O  O10  1  0.68498100  0.01500200  0.90113700  1
  O  O11  1  0.68498100  0.48499800  0.09886300  1
  O  O12  1  0.55710100  0.40869800  0.35775000  1
  O  O13  1  0.55710100  0.09130200  0.64225000  1
  O  O14  1  0.44289900  0.59130200  0.64225000  1
  O  O15  1  0.44289900  0.90869800  0.35775000  1
loop_
_geom_bond_atom_site_label_1
_geom_bond_atom_site_label_2
_geom_bond_distance
_geom_bond_site_symmetry_2
Cu0 O13 1.958240 1_555
Cu0 O12 1.958240 1_555
Cu0 O1 1.984156 1_555
Cu0 O0 1.984156 1_555
Cu1 O15 1.958240 1_555
Cu1 O14 1.958240 1_555
Cu1 O2 1.984156 1_555
Cu1 O3 1.984156 1_555
C0 H0 1.107646 1_555
C0 O4 1.259334 1_555
C0 O0 1.281006 1_555
C1 H1 1.107646 1_545
C1 O5 1.259334 1_545
C1 O1 1.281006 1_555
C2 H2 1.107646 1_555
C2 O6 1.259334 1_555
C2 O2 1.281006 1_555
C3 H3 1.107646 1_565
C3 O7 1.259334 1_565
C3 O3 1.281006 1_555
C4 H4 1.107655 1_555
C4 O11 1.248238 1_555
C4 O12 1.286183 1_555
C5 H5 1.107655 1_555
C5 O10 1.248238 1_555
C5 O13 1.286183 1_555
C6 H6 1.107655 1_555
C6 O9 1.248238 1_555
C6 O14 1.286183 1_555
C7 H7 1.107655 1_555
C7 O8 1.248238 1_555
C7 O15 1.286183 1_555
O0 Sr0 2.783324 1_555
O1 Sr0 2.783324 1_556
O2 Sr1 2.783324 1_556
O3 Sr1 2.783324 1_555
O4 Sr1 2.579570 1_455
O4 Sr0 2.784848 1_555
O5 Sr1 2.579570 1_456
O5 Sr0 2.784848 1_566
O6 Sr0 2.579570 1_656
O6 Sr1 2.784848 1_556
O7 Sr0 2.579570 1_655
O7 Sr1 2.784848 1_545
O8 Sr0 2.449199 1_565
O9 Sr0 2.449199 1_556
O10 Sr1 2.449199 1_546
O11 Sr1 2.449199 1_555
