# generated using pymatgen
data_Na4B3Cl
_symmetry_space_group_name_H-M   'P 1'
_cell_length_a   6.75145699
_cell_length_b   6.75145699
_cell_length_c   6.75145699
_cell_angle_alpha   131.48526858
_cell_angle_beta   131.48526858
_cell_angle_gamma   71.04321428
_symmetry_Int_Tables_number   1
_chemical_formula_structural   Na4B3Cl
_chemical_formula_sum   'Na4 B3 Cl1'
_cell_volume   169.10591005
_cell_formula_units_Z   1
loop_
 _symmetry_equiv_pos_site_id
 _symmetry_equiv_pos_as_xyz
  1  'x, y, z'
loop_
 _atom_site_type_symbol
 _atom_site_label
 _atom_site_symmetry_multiplicity
 _atom_site_fract_x
 _atom_site_fract_y
 _atom_site_fract_z
 _atom_site_occupancy
  Na  Na0  1  0.00000000  0.50000000  0.50000000  1
  Na  Na1  1  0.24788200  0.24788200  0.00000000  1
  Na  Na2  1  0.50000000  0.00000000  0.50000000  1
  Na  Na3  1  0.75211800  0.75211800  0.00000000  1
  B  B0  1  0.25000000  0.75000000  0.50000000  1
  B  B1  1  0.50000000  0.50000000  0.00000000  1
  B  B2  1  0.75000000  0.25000000  0.50000000  1
  Cl  Cl0  1  0.00000000  0.00000000  0.00000000  1
loop_
_geom_bond_atom_site_label_1
_geom_bond_atom_site_label_2
_geom_bond_distance
_geom_bond_site_symmetry_2
B0 Na2 2.747494 1_565
B0 Na0 2.747494 1_555
B0 Na1 2.773840 1_566
B0 Na3 2.773840 1_455
B0 Na3 2.773840 1_556
B0 Na1 2.773840 1_555
B1 Na3 2.770770 1_555
B1 Na1 2.770770 1_555
B1 Na2 2.773742 1_565
B1 Na2 2.773742 1_554
B1 Na0 2.773742 1_554
B1 Na0 2.773742 1_655
B2 Na2 2.747494 1_555
B2 Na0 2.747494 1_655
B2 Na1 2.773840 1_656
B2 Na3 2.773840 1_545
B2 Na3 2.773840 1_556
B2 Na1 2.773840 1_555
Cl0 Na1 2.724217 1_555
Cl0 Na3 2.724217 1_445
Cl0 Na0 2.773742 1_544
Cl0 Na2 2.773742 1_454
Cl0 Na2 2.773742 1_555
Cl0 Na0 2.773742 1_555
