# generated using pymatgen
data_CoSb(PO4)2
_symmetry_space_group_name_H-M   'P 1'
_cell_length_a   6.06706975
_cell_length_b   10.19927949
_cell_length_c   11.24570417
_cell_angle_alpha   115.61916967
_cell_angle_beta   89.94083678
_cell_angle_gamma   89.97810625
_symmetry_Int_Tables_number   1
_chemical_formula_structural   CoSb(PO4)2
_chemical_formula_sum   'Co4 Sb4 P8 O32'
_cell_volume   627.46711232
_cell_formula_units_Z   4
loop_
 _symmetry_equiv_pos_site_id
 _symmetry_equiv_pos_as_xyz
  1  'x, y, z'
loop_
 _atom_site_type_symbol
 _atom_site_label
 _atom_site_symmetry_multiplicity
 _atom_site_fract_x
 _atom_site_fract_y
 _atom_site_fract_z
 _atom_site_occupancy
  Co  Co0  1  0.74996200  0.83988700  0.23987900  1
  Co  Co1  1  0.25252000  0.16726300  0.76285200  1
  Co  Co2  1  0.75040500  0.31831100  0.20605200  1
  Co  Co3  1  0.25008100  0.69832200  0.80207700  1
  Sb  Sb0  1  0.24973000  0.61064800  0.27257400  1
  Sb  Sb1  1  0.25044200  0.12067500  0.28290700  1
  Sb  Sb2  1  0.74992400  0.38703700  0.72441100  1
  Sb  Sb3  1  0.74695500  0.88210700  0.71824400  1
  P  P0  1  0.25031900  0.25164600  0.08660300  1
  P  P1  1  0.24946400  0.73954100  0.09609800  1
  P  P2  1  0.75031000  0.74290800  0.91221900  1
  P  P3  1  0.75111300  0.26297300  0.90430400  1
  P  P4  1  0.74994400  0.64313400  0.39995000  1
  P  P5  1  0.75012100  0.14680500  0.40518800  1
  P  P6  1  0.25009900  0.35673600  0.59934400  1
  P  P7  1  0.24904800  0.85317100  0.59648200  1
  O  O0  1  0.75245500  0.36531700  0.04874800  1
  O  O1  1  0.75453200  0.82802300  0.05983700  1
  O  O2  1  0.24804600  0.64037000  0.95022300  1
  O  O3  1  0.24838900  0.16564300  0.93861000  1
  O  O4  1  0.25106400  0.41929000  0.11723900  1
  O  O5  1  0.25086900  0.89933400  0.12535900  1
  O  O6  1  0.75076900  0.57633000  0.88126000  1
  O  O7  1  0.74964700  0.10352000  0.87687600  1
  O  O8  1  0.74979100  0.27322900  0.36912500  1
  O  O9  1  0.74842300  0.78436300  0.38737500  1
  O  O10  1  0.25726300  0.72912400  0.63622500  1
  O  O11  1  0.25009200  0.21268200  0.60824900  1
  O  O12  1  0.25106200  0.34118400  0.45866400  1
  O  O13  1  0.24553300  0.79273900  0.44007600  1
  O  O14  1  0.75302700  0.66211300  0.54148500  1
  O  O15  1  0.74937000  0.20163000  0.56084000  1
  O  O16  1  0.04987100  0.21735400  0.15586000  1
  O  O17  1  0.05526100  0.70092600  0.17547900  1
  O  O18  1  0.45155200  0.21642700  0.15442300  1
  O  O19  1  0.44429500  0.70030200  0.17469100  1
  O  O20  1  0.54906200  0.77924300  0.84532500  1
  O  O21  1  0.55578300  0.29998400  0.82491500  1
  O  O22  1  0.94790600  0.77819600  0.84087400  1
  O  O23  1  0.94521700  0.29849500  0.82302100  1
  O  O24  1  0.95581100  0.54125400  0.32244700  1
  O  O25  1  0.95011700  0.04003000  0.34920000  1
  O  O26  1  0.54243200  0.54204200  0.32453400  1
  O  O27  1  0.55115800  0.03948700  0.34879200  1
  O  O28  1  0.04061700  0.45499300  0.67456300  1
  O  O29  1  0.04605400  0.95705100  0.65281700  1
  O  O30  1  0.45827000  0.45546200  0.67577200  1
  O  O31  1  0.44582200  0.96269500  0.64791000  1
loop_
_geom_bond_atom_site_label_1
_geom_bond_atom_site_label_2
_geom_bond_distance
_geom_bond_site_symmetry_2
Co0 O9 1.970873 1_555
Co0 O1 1.975558 1_555
Co0 O27 2.222198 1_565
Co0 O25 2.233335 1_565
Co0 O17 2.252050 1_655
Co0 O19 2.259581 1_555
Co1 O11 1.983468 1_555
Co1 O3 1.983855 1_555
Co1 O21 2.211866 1_555
Co1 O23 2.222102 1_455
Co1 O31 2.249941 1_545
Co1 O29 2.325527 1_545
Co2 O0 2.023048 1_555
Co2 O16 2.042977 1_655
Co2 O18 2.046056 1_555
Co2 O8 2.074536 1_555
Co2 O24 2.422492 1_555
Co2 O26 2.437113 1_555
Co3 O20 1.965689 1_555
Co3 O22 1.976085 1_455
Co3 O2 1.994146 1_555
Co3 O10 2.021343 1_555
Co3 O30 2.588397 1_555
Co3 O28 2.599836 1_555
O0 P3 1.503991 1_554
O1 P2 1.504645 1_554
O2 P1 1.509771 1_556
O3 P0 1.508975 1_556
O4 P0 1.591503 1_555
O4 Sb0 1.977973 1_555
O5 P1 1.516825 1_555
O5 Sb1 2.185537 1_565
O6 P2 1.579940 1_555
O6 Sb2 1.973271 1_555
O7 P3 1.518654 1_555
O7 Sb3 2.190585 1_545
O8 P5 1.509748 1_555
O9 P4 1.507010 1_555
O10 P7 1.513915 1_555
O11 P6 1.515241 1_555
O12 P6 1.520208 1_555
O12 Sb1 2.262885 1_555
O13 P7 1.592684 1_555
O13 Sb0 1.993149 1_555
O14 P4 1.518167 1_555
O14 Sb3 2.264938 1_555
O15 P5 1.590661 1_555
O15 Sb2 1.987847 1_555
O16 P0 1.562638 1_555
O16 Sb1 2.390681 1_555
O17 P1 1.625577 1_555
O17 Sb0 2.074463 1_555
O18 P0 1.561987 1_555
O18 Sb1 2.397450 1_555
O19 P1 1.626734 1_555
O19 Sb0 2.076013 1_555
O20 P2 1.560990 1_555
O20 Sb3 2.424580 1_555
O21 P3 1.623965 1_555
O21 Sb2 2.078220 1_555
O22 P2 1.567965 1_555
O22 Sb3 2.403711 1_555
O23 P3 1.624237 1_555
O23 Sb2 2.077757 1_555
O24 P4 1.616470 1_555
O24 Sb0 2.082684 1_655
O25 P5 1.568177 1_555
O25 Sb1 2.254100 1_655
O26 P4 1.616919 1_555
O26 Sb0 2.083137 1_555
O27 P5 1.568350 1_555
O27 Sb1 2.257326 1_555
O28 P6 1.612097 1_555
O28 Sb2 2.059127 1_455
O29 P7 1.567680 1_555
O29 Sb3 2.214330 1_455
O30 P6 1.613248 1_555
O30 Sb2 2.061183 1_555
O31 P7 1.565674 1_555
O31 Sb3 2.281041 1_555
