# generated using pymatgen
data_BaYMg6
_symmetry_space_group_name_H-M   'P 1'
_cell_length_a   6.85624608
_cell_length_b   6.85624608
_cell_length_c   5.45287800
_cell_angle_alpha   90.00000000
_cell_angle_beta   90.00000000
_cell_angle_gamma   117.93425509
_symmetry_Int_Tables_number   1
_chemical_formula_structural   BaYMg6
_chemical_formula_sum   'Ba1 Y1 Mg6'
_cell_volume   226.46344307
_cell_formula_units_Z   1
loop_
 _symmetry_equiv_pos_site_id
 _symmetry_equiv_pos_as_xyz
  1  'x, y, z'
loop_
 _atom_site_type_symbol
 _atom_site_label
 _atom_site_symmetry_multiplicity
 _atom_site_fract_x
 _atom_site_fract_y
 _atom_site_fract_z
 _atom_site_occupancy
  Ba  Ba0  1  0.15627200  0.84372800  0.00000000  1
  Y  Y0  1  0.34784800  0.65215200  0.50000000  1
  Mg  Mg0  1  0.82433900  0.65790500  0.50000000  1
  Mg  Mg1  1  0.34209500  0.17566100  0.50000000  1
  Mg  Mg2  1  0.83908000  0.16092000  0.50000000  1
  Mg  Mg3  1  0.65443400  0.82849700  0.00000000  1
  Mg  Mg4  1  0.17150300  0.34556600  0.00000000  1
  Mg  Mg5  1  0.66442800  0.33557200  0.00000000  1
loop_
_geom_bond_atom_site_label_1
_geom_bond_atom_site_label_2
_geom_bond_distance
_geom_bond_site_symmetry_2
Ba0 Mg4 3.393059 1_565
Ba0 Mg3 3.393059 1_455
Ba0 Mg0 3.394026 1_455
Ba0 Mg0 3.394026 1_454
Ba0 Mg1 3.394026 1_564
Ba0 Mg1 3.394026 1_565
Ba0 Mg3 3.465669 1_555
Ba0 Mg4 3.465669 1_555
Ba0 Y0 3.535593 1_555
Ba0 Y0 3.535593 1_554
Ba0 Mg5 3.535898 1_455
Ba0 Mg5 3.535898 1_565
Mg0 Y0 3.248649 1_555
Mg0 Mg5 3.354020 1_555
Mg0 Mg5 3.354020 1_556
Mg0 Mg3 3.381575 1_556
Mg0 Mg3 3.381575 1_555
Mg0 Mg2 3.402620 1_565
Mg0 Mg1 3.409078 1_555
Mg0 Mg2 3.455951 1_555
Mg0 Y0 3.607953 1_655
Mg1 Y0 3.248649 1_555
Mg1 Mg5 3.354020 1_555
Mg1 Mg5 3.354020 1_556
Mg1 Mg4 3.381575 1_555
Mg1 Mg4 3.381575 1_556
Mg1 Mg2 3.402620 1_455
Mg1 Mg2 3.455951 1_555
Mg1 Y0 3.607953 1_545
Mg2 Mg4 3.395208 1_656
Mg2 Mg4 3.395208 1_655
Mg2 Mg3 3.395208 1_546
Mg2 Mg3 3.395208 1_545
Mg2 Mg5 3.412437 1_556
Mg2 Mg5 3.412437 1_555
Mg2 Y0 3.536100 1_655
Mg2 Y0 3.536100 1_545
Mg3 Y0 3.306459 1_555
Mg3 Y0 3.306459 1_554
Mg3 Mg5 3.412252 1_555
Mg3 Mg4 3.413935 1_555
Mg3 Mg5 3.445064 1_565
Mg4 Y0 3.306459 1_555
Mg4 Y0 3.306459 1_554
Mg4 Mg5 3.412252 1_555
Mg4 Mg5 3.445064 1_455
