# generated using pymatgen
data_Au
_symmetry_space_group_name_H-M   'P 1'
_cell_length_a   5.64523986
_cell_length_b   5.83937941
_cell_length_c   9.78633922
_cell_angle_alpha   90.00000000
_cell_angle_beta   90.00000000
_cell_angle_gamma   118.90616090
_symmetry_Int_Tables_number   1
_chemical_formula_structural   Au
_chemical_formula_sum   Au16
_cell_volume   282.41133902
_cell_formula_units_Z   16
loop_
 _symmetry_equiv_pos_site_id
 _symmetry_equiv_pos_as_xyz
  1  'x, y, z'
loop_
 _atom_site_type_symbol
 _atom_site_label
 _atom_site_symmetry_multiplicity
 _atom_site_fract_x
 _atom_site_fract_y
 _atom_site_fract_z
 _atom_site_occupancy
  Au  Au0_0  1  0.16733551  0.33467153  0.12500000  1
  Au  Au0_1  1  0.16733551  0.33467153  0.62500000  1
  Au  Au0_2  1  0.16733551  0.83467153  0.12500000  1
  Au  Au0_3  1  0.16733551  0.83467153  0.62500000  1
  Au  Au0_4  1  0.66733551  0.33467153  0.12500000  1
  Au  Au0_5  1  0.66733551  0.33467153  0.62500000  1
  Au  Au0_6  1  0.66733551  0.83467153  0.12500000  1
  Au  Au0_7  1  0.66733551  0.83467153  0.62500000  1
  Au  Au1_0  1  0.33266448  0.16532847  0.37500000  1
  Au  Au1_1  1  0.33266448  0.16532847  0.87500000  1
  Au  Au1_2  1  0.33266448  0.66532847  0.37500000  1
  Au  Au1_3  1  0.33266448  0.66532847  0.87500000  1
  Au  Au1_4  1  0.83266448  0.16532847  0.37500000  1
  Au  Au1_5  1  0.83266448  0.16532847  0.87500000  1
  Au  Au1_6  1  0.83266448  0.66532847  0.37500000  1
  Au  Au1_7  1  0.83266448  0.66532847  0.87500000  1
loop_
_geom_bond_atom_site_label_1
_geom_bond_atom_site_label_2
_geom_bond_distance
_geom_bond_site_symmetry_2
Au0_0 Au0_4 2.822620 1_555
Au0_0 Au0_4 2.822620 1_455
Au0_0 Au0_2 2.919690 1_555
Au0_0 Au0_2 2.919690 1_545
Au0_0 Au0_6 2.919690 1_555
Au0_0 Au0_6 2.919690 1_445
Au0_0 Au1_4 2.954138 1_455
Au0_0 Au1_5 2.954138 1_454
Au0_0 Au1_0 2.954140 1_555
Au0_0 Au1_1 2.954140 1_554
Au0_0 Au1_3 2.973685 1_554
Au0_0 Au1_2 2.973685 1_555
Au0_1 Au0_5 2.822620 1_555
Au0_1 Au0_5 2.822620 1_455
Au0_1 Au0_3 2.919690 1_555
Au0_1 Au0_3 2.919690 1_545
Au0_1 Au0_7 2.919690 1_555
Au0_1 Au0_7 2.919690 1_445
Au0_1 Au1_5 2.954138 1_455
Au0_1 Au1_4 2.954138 1_455
Au0_1 Au1_1 2.954140 1_555
Au0_1 Au1_0 2.954140 1_555
Au0_1 Au1_3 2.973685 1_555
Au0_1 Au1_2 2.973685 1_555
Au0_2 Au0_6 2.822620 1_555
Au0_2 Au0_6 2.822620 1_455
Au0_2 Au0_4 2.919690 1_565
Au0_2 Au0_4 2.919690 1_455
Au0_2 Au1_6 2.954138 1_455
Au0_2 Au1_7 2.954138 1_454
Au0_2 Au1_2 2.954140 1_555
Au0_2 Au1_3 2.954140 1_554
Au0_2 Au1_0 2.973685 1_565
Au0_2 Au1_1 2.973685 1_564
Au0_3 Au0_7 2.822620 1_555
Au0_3 Au0_7 2.822620 1_455
Au0_3 Au0_5 2.919690 1_565
Au0_3 Au0_5 2.919690 1_455
Au0_3 Au1_7 2.954138 1_455
Au0_3 Au1_6 2.954138 1_455
Au0_3 Au1_3 2.954140 1_555
Au0_3 Au1_2 2.954140 1_555
Au0_3 Au1_1 2.973685 1_565
Au0_3 Au1_0 2.973685 1_565
Au0_4 Au0_6 2.919690 1_555
Au0_4 Au0_6 2.919690 1_545
Au0_4 Au1_0 2.954138 1_555
Au0_4 Au1_1 2.954138 1_554
Au0_4 Au1_4 2.954140 1_555
Au0_4 Au1_5 2.954140 1_554
Au0_4 Au1_6 2.973685 1_555
Au0_4 Au1_7 2.973685 1_554
Au0_5 Au0_7 2.919690 1_555
Au0_5 Au0_7 2.919690 1_545
Au0_5 Au1_1 2.954138 1_555
Au0_5 Au1_0 2.954138 1_555
Au0_5 Au1_5 2.954140 1_555
Au0_5 Au1_4 2.954140 1_555
Au0_5 Au1_7 2.973685 1_555
Au0_5 Au1_6 2.973685 1_555
Au0_6 Au1_2 2.954138 1_555
Au0_6 Au1_3 2.954138 1_554
Au0_6 Au1_6 2.954140 1_555
Au0_6 Au1_7 2.954140 1_554
Au0_6 Au1_4 2.973685 1_565
Au0_6 Au1_5 2.973685 1_564
Au0_7 Au1_3 2.954138 1_555
Au0_7 Au1_2 2.954138 1_555
Au0_7 Au1_7 2.954140 1_555
Au0_7 Au1_6 2.954140 1_555
Au0_7 Au1_5 2.973685 1_565
Au0_7 Au1_4 2.973685 1_565
Au1_0 Au1_4 2.822620 1_555
Au1_0 Au1_4 2.822620 1_455
Au1_0 Au1_2 2.919690 1_555
Au1_0 Au1_2 2.919690 1_545
Au1_0 Au1_6 2.919690 1_555
Au1_0 Au1_6 2.919690 1_445
Au1_1 Au1_5 2.822620 1_555
Au1_1 Au1_5 2.822620 1_455
Au1_1 Au1_3 2.919690 1_555
Au1_1 Au1_3 2.919690 1_545
Au1_1 Au1_7 2.919690 1_555
Au1_1 Au1_7 2.919690 1_445
Au1_2 Au1_6 2.822620 1_555
Au1_2 Au1_6 2.822620 1_455
Au1_2 Au1_4 2.919690 1_455
Au1_2 Au1_4 2.919690 1_565
Au1_3 Au1_7 2.822620 1_555
Au1_3 Au1_7 2.822620 1_455
Au1_3 Au1_5 2.919690 1_565
Au1_3 Au1_5 2.919690 1_455
Au1_4 Au1_6 2.919690 1_555
Au1_4 Au1_6 2.919690 1_545
Au1_5 Au1_7 2.919690 1_555
Au1_5 Au1_7 2.919690 1_545
