# generated using pymatgen
data_Tb2NiGe4
_symmetry_space_group_name_H-M   'P 1'
_cell_length_a   4.02342215
_cell_length_b   4.07901485
_cell_length_c   8.46714843
_cell_angle_alpha   76.10672474
_cell_angle_beta   89.99999296
_cell_angle_gamma   90.00000000
_symmetry_Int_Tables_number   1
_chemical_formula_structural   Tb2NiGe4
_chemical_formula_sum   'Tb2 Ni1 Ge4'
_cell_volume   134.89413774
_cell_formula_units_Z   1
loop_
 _symmetry_equiv_pos_site_id
 _symmetry_equiv_pos_as_xyz
  1  'x, y, z'
loop_
 _atom_site_type_symbol
 _atom_site_label
 _atom_site_symmetry_multiplicity
 _atom_site_fract_x
 _atom_site_fract_y
 _atom_site_fract_z
 _atom_site_occupancy
  Tb  Tb0  1  0.25000000  0.89044883  0.21796738  1
  Tb  Tb1  1  0.75000000  0.10444931  0.79128008  1
  Ni  Ni0  1  0.25000000  0.68538092  0.63034912  1
  Ge  Ge0  1  0.25000000  0.54507623  0.91104640  1
  Ge  Ge1  1  0.75000000  0.44899361  0.09883926  1
  Ge  Ge2  1  0.25000000  0.25705921  0.48574793  1
  Ge  Ge3  1  0.75000000  0.75689189  0.48816883  1
loop_
_geom_bond_atom_site_label_1
_geom_bond_atom_site_label_2
_geom_bond_distance
_geom_bond_site_symmetry_2
Ni0 Tb1 3.153459 1_465
Ni0 Tb1 3.153460 1_565
Ni0 Tb1 3.157254 1_455
Ni0 Tb1 3.157254 1_555
Ge0 Ni0 2.307175 1_555
Ge0 Ge1 2.535673 1_456
Ge0 Ge1 2.535673 1_556
Ge0 Tb1 3.028249 1_565
Ge0 Tb1 3.028249 1_465
Ge0 Tb1 3.030015 1_555
Ge0 Tb1 3.030015 1_455
Ge0 Tb0 3.239797 1_556
Ge0 Tb0 3.248262 1_546
Ge1 Tb0 3.025147 1_545
Ge1 Tb0 3.025147 1_645
Ge1 Tb0 3.029717 1_555
Ge1 Tb0 3.029717 1_655
Ge1 Tb1 3.242579 1_554
Ge1 Tb1 3.253647 1_564
Ge2 Ni0 2.359165 1_545
Ge2 Ni0 2.361945 1_555
Ge2 Ge3 2.861764 1_445
Ge2 Ge3 2.861764 1_545
Ge2 Ge3 2.867800 1_455
Ge2 Ge3 2.867800 1_555
Ge2 Tb0 3.000451 1_555
Ge2 Tb0 3.000888 1_545
Ge2 Tb1 3.217705 1_455
Ge2 Tb1 3.217705 1_555
Ge3 Ni0 2.326524 1_555
Ge3 Ni0 2.326524 1_655
Ge3 Tb0 2.996568 1_655
Ge3 Tb0 2.996568 1_555
Ge3 Tb1 3.216211 1_565
Ge3 Tb1 3.223262 1_555
