# generated using pymatgen
data_LiFeS2
_symmetry_space_group_name_H-M   'P 1'
_cell_length_a   6.88828637
_cell_length_b   6.88828637
_cell_length_c   6.88828637
_cell_angle_alpha   60.00000000
_cell_angle_beta   60.00000000
_cell_angle_gamma   60.00000000
_symmetry_Int_Tables_number   1
_chemical_formula_structural   LiFeS2
_chemical_formula_sum   'Li4 Fe4 S8'
_cell_volume   231.10991787
_cell_formula_units_Z   4
loop_
 _symmetry_equiv_pos_site_id
 _symmetry_equiv_pos_as_xyz
  1  'x, y, z'
loop_
 _atom_site_type_symbol
 _atom_site_label
 _atom_site_symmetry_multiplicity
 _atom_site_fract_x
 _atom_site_fract_y
 _atom_site_fract_z
 _atom_site_occupancy
  Li  Li0  1  0.12500000  0.12500000  0.12500000  1
  Li  Li1  1  0.62500000  0.12500000  0.12500000  1
  Li  Li2  1  0.12500000  0.62500000  0.12500000  1
  Li  Li3  1  0.12500000  0.12500000  0.62500000  1
  Fe  Fe0  1  0.62500000  0.62500000  0.12500000  1
  Fe  Fe1  1  0.62500000  0.62500000  0.62500000  1
  Fe  Fe2  1  0.62500000  0.12500000  0.62500000  1
  Fe  Fe3  1  0.12500000  0.62500000  0.62500000  1
  S  S0  1  0.86172100  0.41483800  0.86172100  1
  S  S1  1  0.86172100  0.86172100  0.41483800  1
  S  S2  1  0.86172100  0.86172100  0.86172100  1
  S  S3  1  0.41483800  0.86172100  0.86172100  1
  S  S4  1  0.38827900  0.38827900  0.38827900  1
  S  S5  1  0.83516200  0.38827900  0.38827900  1
  S  S6  1  0.38827900  0.83516200  0.38827900  1
  S  S7  1  0.38827900  0.38827900  0.83516200  1
loop_
_geom_bond_atom_site_label_1
_geom_bond_atom_site_label_2
_geom_bond_distance
_geom_bond_site_symmetry_2
Li0 S5 2.571251 1_455
Li0 S3 2.571251 1_544
Li0 S1 2.571251 1_445
Li0 S0 2.571251 1_454
Li0 S6 2.571251 1_545
Li0 S7 2.571251 1_554
Li1 S4 2.571251 1_555
Li1 S2 2.571251 1_544
Li1 S1 2.571256 1_545
Li1 S0 2.571256 1_554
Li1 S6 2.571256 1_545
Li1 S7 2.571256 1_554
Li2 S4 2.571251 1_555
Li2 S2 2.571251 1_454
Li2 S3 2.571256 1_554
Li2 S1 2.571256 1_455
Li2 S7 2.571256 1_554
Li2 S5 2.571256 1_455
Li3 S2 2.571251 1_445
Li3 S4 2.571251 1_555
Li3 S0 2.571256 1_455
Li3 S3 2.571256 1_545
Li3 S6 2.571256 1_545
Li3 S5 2.571256 1_455
Fe0 S6 2.313260 1_555
Fe0 S5 2.313260 1_555
Fe0 S3 2.313260 1_554
Fe0 S0 2.313260 1_554
Fe0 S2 2.313265 1_554
Fe0 S4 2.313265 1_555
Fe1 S3 2.313265 1_555
Fe1 S1 2.313265 1_555
Fe1 S0 2.313265 1_555
Fe1 S6 2.313265 1_555
Fe1 S7 2.313265 1_555
Fe1 S5 2.313265 1_555
Fe2 S7 2.313260 1_555
Fe2 S5 2.313260 1_555
Fe2 S3 2.313260 1_545
Fe2 S1 2.313260 1_545
Fe2 S2 2.313265 1_545
Fe2 S4 2.313265 1_555
Fe3 S6 2.313260 1_555
Fe3 S7 2.313260 1_555
Fe3 S0 2.313260 1_455
Fe3 S1 2.313260 1_455
Fe3 S2 2.313265 1_455
Fe3 S4 2.313265 1_555
