# generated using pymatgen
data_Fe(BO)6
_symmetry_space_group_name_H-M   'P 1'
_cell_length_a   6.26994252
_cell_length_b   5.70021674
_cell_length_c   3.90367626
_cell_angle_alpha   74.56656312
_cell_angle_beta   61.06119531
_cell_angle_gamma   56.63477038
_symmetry_Int_Tables_number   1
_chemical_formula_structural   Fe(BO)6
_chemical_formula_sum   'Fe1 B6 O6'
_cell_volume   101.97313751
_cell_formula_units_Z   1
loop_
 _symmetry_equiv_pos_site_id
 _symmetry_equiv_pos_as_xyz
  1  'x, y, z'
loop_
 _atom_site_type_symbol
 _atom_site_label
 _atom_site_symmetry_multiplicity
 _atom_site_fract_x
 _atom_site_fract_y
 _atom_site_fract_z
 _atom_site_occupancy
  Fe  Fe0  1  0.00000000  0.00000000  0.00000000  1
  B  B0  1  0.62680500  0.00000000  0.71819700  1
  B  B1  1  0.37319500  0.00000000  0.28180300  1
  B  B2  1  0.41787500  0.50500200  0.85727600  1
  B  B3  1  0.58212500  0.49499800  0.14272400  1
  B  B4  1  0.92287600  0.49499800  0.85727600  1
  B  B5  1  0.07712400  0.50500200  0.14272400  1
  O  O0  1  0.60322900  0.27142600  0.52936500  1
  O  O1  1  0.39677100  0.72857400  0.47063500  1
  O  O2  1  0.35651600  0.00000000  0.92244900  1
  O  O3  1  0.12534500  0.27142600  0.47063500  1
  O  O4  1  0.64348400  0.00000000  0.07755100  1
  O  O5  1  0.87465500  0.72857400  0.52936500  1
loop_
_geom_bond_atom_site_label_1
_geom_bond_atom_site_label_2
_geom_bond_distance
_geom_bond_site_symmetry_2
Fe0 O4 2.105583 1_455
Fe0 O2 2.105583 1_554
Fe0 O1 2.312110 1_544
Fe0 O0 2.312110 1_455
Fe0 O5 2.312110 1_445
Fe0 O3 2.312110 1_554
B0 O4 1.456282 1_556
B0 O2 1.483265 1_555
B0 O5 1.485222 1_545
B0 O0 1.485222 1_555
B1 O2 1.456282 1_554
B1 O4 1.483265 1_555
B1 O3 1.485222 1_555
B1 O1 1.485222 1_545
B2 O0 1.589758 1_555
B2 O1 1.704028 1_555
B3 O1 1.589758 1_555
B3 O0 1.704028 1_555
B4 O5 1.589758 1_555
B4 O3 1.704027 1_655
B5 O3 1.589758 1_555
B5 O5 1.704027 1_455
