# generated using pymatgen
data_Hf9FeRe4
_symmetry_space_group_name_H-M   'P 1'
_cell_length_a   8.41606656
_cell_length_b   8.53338682
_cell_length_c   8.53338682
_cell_angle_alpha   120.00010591
_cell_angle_beta   90.00000000
_cell_angle_gamma   90.00000000
_symmetry_Int_Tables_number   1
_chemical_formula_structural   Hf9FeRe4
_chemical_formula_sum   'Hf18 Fe2 Re8'
_cell_volume   530.74045841
_cell_formula_units_Z   2
loop_
 _symmetry_equiv_pos_site_id
 _symmetry_equiv_pos_as_xyz
  1  'x, y, z'
loop_
 _atom_site_type_symbol
 _atom_site_label
 _atom_site_symmetry_multiplicity
 _atom_site_fract_x
 _atom_site_fract_y
 _atom_site_fract_z
 _atom_site_occupancy
  Hf  Hf0  1  0.55945717  0.79966573  0.59933893  1
  Hf  Hf1  1  0.55946841  0.79965776  0.20034224  1
  Hf  Hf2  1  0.55945717  0.40066107  0.20033427  1
  Hf  Hf3  1  0.44054283  0.20033427  0.40066107  1
  Hf  Hf4  1  0.44053159  0.20034224  0.79965776  1
  Hf  Hf5  1  0.44054283  0.59933893  0.79966573  1
  Hf  Hf6  1  0.05945717  0.20033427  0.40066107  1
  Hf  Hf7  1  0.05946841  0.20034224  0.79965776  1
  Hf  Hf8  1  0.05945717  0.59933893  0.79966573  1
  Hf  Hf9  1  0.94054283  0.79966573  0.59933893  1
  Hf  Hf10  1  0.94053159  0.79965776  0.20034224  1
  Hf  Hf11  1  0.94054283  0.40066107  0.20033427  1
  Hf  Hf12  1  0.75000000  0.45984203  0.91970558  1
  Hf  Hf13  1  0.75000000  0.45984799  0.54015201  1
  Hf  Hf14  1  0.75000000  0.08029442  0.54015697  1
  Hf  Hf15  1  0.25000000  0.54015697  0.08029442  1
  Hf  Hf16  1  0.25000000  0.54015201  0.45984799  1
  Hf  Hf17  1  0.25000000  0.91970558  0.45984203  1
  Fe  Fe0  1  0.75000000  0.66664976  0.33335024  1
  Fe  Fe1  1  0.25000000  0.33335024  0.66664976  1
  Re  Re0  1  0.75000000  0.11090719  0.22184111  1
  Re  Re1  1  0.75000000  0.11091345  0.88908655  1
  Re  Re2  1  0.75000000  0.77815889  0.88909281  1
  Re  Re3  1  0.25000000  0.88909281  0.77815889  1
  Re  Re4  1  0.25000000  0.88908655  0.11091345  1
  Re  Re5  1  0.25000000  0.22184111  0.11090719  1
  Re  Re6  1  0.50000000  0.00000000  -0.00000000  1
  Re  Re7  1  -0.00000000  0.00000000  -0.00000000  1
loop_
_geom_bond_atom_site_label_1
_geom_bond_atom_site_label_2
_geom_bond_distance
_geom_bond_site_symmetry_2
Hf0 Re3 2.920501 1_555
Hf0 Re6 3.002920 1_566
Hf0 Re1 3.028575 1_565
Hf0 Re2 3.028651 1_555
Hf1 Re4 2.920712 1_555
Hf1 Re6 3.003111 1_565
Hf1 Re2 3.028545 1_554
Hf1 Re0 3.028545 1_565
Hf2 Re5 2.920501 1_555
Hf2 Re6 3.002920 1_555
Hf2 Re1 3.028575 1_554
Hf2 Re0 3.028651 1_555
Hf3 Re0 2.920501 1_555
Hf3 Re6 3.002920 1_555
Hf3 Re4 3.028575 1_545
Hf3 Re5 3.028651 1_555
Hf4 Re1 2.920712 1_555
Hf4 Re6 3.003111 1_556
Hf4 Re3 3.028545 1_545
Hf4 Re5 3.028545 1_556
Hf5 Re2 2.920501 1_555
Hf5 Re6 3.002920 1_566
Hf5 Re4 3.028575 1_556
Hf5 Re3 3.028651 1_555
Hf6 Re0 2.920501 1_455
Hf6 Re7 3.002920 1_555
Hf6 Re4 3.028575 1_545
Hf6 Re5 3.028651 1_555
Hf7 Re1 2.920712 1_455
Hf7 Re7 3.003111 1_556
Hf7 Re3 3.028545 1_545
Hf7 Re5 3.028545 1_556
Hf8 Re2 2.920501 1_455
Hf8 Re7 3.002920 1_566
Hf8 Re4 3.028575 1_556
Hf8 Re3 3.028651 1_555
Hf9 Re3 2.920501 1_655
Hf9 Re7 3.002920 1_666
Hf9 Re1 3.028575 1_565
Hf9 Re2 3.028651 1_555
Hf10 Re4 2.920712 1_655
Hf10 Re7 3.003111 1_665
Hf10 Re2 3.028545 1_554
Hf10 Re0 3.028545 1_565
Hf11 Re5 2.920501 1_655
Hf11 Re7 3.002920 1_655
Hf11 Re1 3.028575 1_554
Hf11 Re0 3.028651 1_555
Hf12 Re1 2.855879 1_555
Hf12 Re2 2.855911 1_555
Hf13 Re0 2.855939 1_555
Hf13 Re2 2.855939 1_555
Hf14 Re1 2.855887 1_555
Hf14 Re0 2.855903 1_555
Hf15 Re4 2.855887 1_555
Hf15 Re5 2.855903 1_555
Hf16 Re5 2.855939 1_555
Hf16 Re3 2.855939 1_555
Hf17 Re4 2.855879 1_555
Hf17 Re3 2.855911 1_555
Fe0 Hf2 2.536835 1_555
Fe0 Hf0 2.536835 1_555
Fe0 Hf11 2.536835 1_555
Fe0 Hf9 2.536835 1_555
Fe0 Hf1 2.536934 1_555
Fe0 Hf10 2.536934 1_555
Fe0 Hf13 3.056585 1_555
Fe0 Hf12 3.056884 1_554
Fe0 Hf14 3.056884 1_565
Fe1 Hf5 2.536835 1_555
Fe1 Hf3 2.536835 1_555
Fe1 Hf6 2.536835 1_555
Fe1 Hf8 2.536835 1_555
Fe1 Hf7 2.536934 1_555
Fe1 Hf4 2.536934 1_555
Fe1 Hf16 3.056585 1_555
Fe1 Hf17 3.056884 1_545
Fe1 Hf15 3.056884 1_556
Re0 Re6 2.667326 1_555
Re0 Re7 2.667326 1_655
Re0 Re2 2.839465 1_544
Re0 Re1 2.839550 1_554
Re1 Re6 2.667263 1_556
Re1 Re7 2.667263 1_656
Re1 Re2 2.839550 1_545
Re2 Re7 2.667326 1_666
Re2 Re6 2.667326 1_566
Re3 Re6 2.667326 1_566
Re3 Re7 2.667326 1_566
Re3 Re5 2.839465 1_566
Re3 Re4 2.839550 1_556
Re4 Re7 2.667263 1_565
Re4 Re6 2.667263 1_565
Re4 Re5 2.839550 1_565
Re5 Re6 2.667326 1_555
Re5 Re7 2.667326 1_555
