# generated using pymatgen
data_Pr2(MoO4)3
_symmetry_space_group_name_H-M   'P 1'
_cell_length_a   10.73889400
_cell_length_b   10.76847100
_cell_length_c   11.07115700
_cell_angle_alpha   90.00000000
_cell_angle_beta   90.00000000
_cell_angle_gamma   90.00000000
_symmetry_Int_Tables_number   1
_chemical_formula_structural   Pr2(MoO4)3
_chemical_formula_sum   'Pr8 Mo12 O48'
_cell_volume   1280.28485470
_cell_formula_units_Z   4
loop_
 _symmetry_equiv_pos_site_id
 _symmetry_equiv_pos_as_xyz
  1  'x, y, z'
loop_
 _atom_site_type_symbol
 _atom_site_label
 _atom_site_symmetry_multiplicity
 _atom_site_fract_x
 _atom_site_fract_y
 _atom_site_fract_z
 _atom_site_occupancy
  Pr  Pr0  1  0.00739200  0.18903100  0.47457600  1
  Pr  Pr1  1  0.99260800  0.81096900  0.47457600  1
  Pr  Pr2  1  0.50739200  0.31096900  0.47457600  1
  Pr  Pr3  1  0.49260800  0.68903100  0.47457600  1
  Pr  Pr4  1  0.31051800  0.00499800  0.99977100  1
  Pr  Pr5  1  0.68948200  0.99500200  0.99977100  1
  Pr  Pr6  1  0.81051800  0.49500200  0.99977100  1
  Pr  Pr7  1  0.18948200  0.50499800  0.99977100  1
  Mo  Mo0  1  0.49662000  0.29310700  0.09465700  1
  Mo  Mo1  1  0.50338000  0.70689300  0.09465700  1
  Mo  Mo2  1  0.99662000  0.20689300  0.09465700  1
  Mo  Mo3  1  0.00338000  0.79310700  0.09465700  1
  Mo  Mo4  1  0.29393900  0.01146800  0.38016200  1
  Mo  Mo5  1  0.70606100  0.98853200  0.38016200  1
  Mo  Mo6  1  0.79393900  0.48853200  0.38016200  1
  Mo  Mo7  1  0.20606100  0.51146800  0.38016200  1
  Mo  Mo8  1  0.25737600  0.25668900  0.73749800  1
  Mo  Mo9  1  0.74262400  0.74331100  0.73749800  1
  Mo  Mo10  1  0.75737600  0.24331100  0.73749800  1
  Mo  Mo11  1  0.24262400  0.75668900  0.73749800  1
  O  O0  1  0.00632900  0.37000100  0.04823600  1
  O  O1  1  0.99367100  0.62999900  0.04823600  1
  O  O2  1  0.50632900  0.12999900  0.04823600  1
  O  O3  1  0.49367100  0.87000100  0.04823600  1
  O  O4  1  0.30709400  0.01095000  0.22040400  1
  O  O5  1  0.69290600  0.98905000  0.22040400  1
  O  O6  1  0.80709400  0.48905000  0.22040400  1
  O  O7  1  0.19290600  0.51095000  0.22040400  1
  O  O8  1  0.18312400  0.37216000  0.82923200  1
  O  O9  1  0.81687600  0.62784000  0.82923200  1
  O  O10  1  0.68312400  0.12784000  0.82923200  1
  O  O11  1  0.31687600  0.87216000  0.82923200  1
  O  O12  1  0.11586200  0.38801900  0.44330000  1
  O  O13  1  0.88413800  0.61198100  0.44330000  1
  O  O14  1  0.61586200  0.11198100  0.44330000  1
  O  O15  1  0.38413800  0.88801900  0.44330000  1
  O  O16  1  0.34232800  0.16159800  0.43096400  1
  O  O17  1  0.65767200  0.83840200  0.43096400  1
  O  O18  1  0.84232800  0.33840200  0.43096400  1
  O  O19  1  0.15767200  0.66159800  0.43096400  1
  O  O20  1  0.37392300  0.32846000  0.64520500  1
  O  O21  1  0.62607700  0.67154000  0.64520500  1
  O  O22  1  0.87392300  0.17154000  0.64520500  1
  O  O23  1  0.12607700  0.82846000  0.64520500  1
  O  O24  1  0.36936300  0.49398400  0.42542900  1
  O  O25  1  0.63063700  0.50601600  0.42542900  1
  O  O26  1  0.86936300  0.00601600  0.42542900  1
  O  O27  1  0.13063700  0.99398400  0.42542900  1
  O  O28  1  0.11407900  0.11788800  0.01973200  1
  O  O29  1  0.88592100  0.88211200  0.01973200  1
  O  O30  1  0.61407900  0.38211200  0.01973200  1
  O  O31  1  0.38592100  0.61788800  0.01973200  1
  O  O32  1  0.14640200  0.18153200  0.64105900  1
  O  O33  1  0.85359800  0.81846800  0.64105900  1
  O  O34  1  0.64640200  0.31846800  0.64105900  1
  O  O35  1  0.35359800  0.68153200  0.64105900  1
  O  O36  1  0.32929200  0.14441700  0.83424200  1
  O  O37  1  0.67070800  0.85558300  0.83424200  1
  O  O38  1  0.82929200  0.35558300  0.83424200  1
  O  O39  1  0.17070800  0.64441700  0.83424200  1
  O  O40  1  0.34338700  0.34428600  0.05663500  1
  O  O41  1  0.65661300  0.65571400  0.05663500  1
  O  O42  1  0.84338700  0.15571400  0.05663500  1
  O  O43  1  0.15661300  0.84428600  0.05663500  1
  O  O44  1  0.02007500  0.19477900  0.25323600  1
  O  O45  1  0.97992400  0.80522100  0.25323600  1
  O  O46  1  0.52007600  0.30522100  0.25323600  1
  O  O47  1  0.47992500  0.69477900  0.25323600  1
loop_
_geom_bond_atom_site_label_1
_geom_bond_atom_site_label_2
_geom_bond_distance
_geom_bond_site_symmetry_2
Mo0 O46 1.778422 1_555
Mo0 O40 1.785714 1_555
Mo0 O30 1.788234 1_555
Mo0 O2 1.833037 1_555
Mo1 O47 1.778420 1_555
Mo1 O41 1.785714 1_555
Mo1 O31 1.788234 1_555
Mo1 O3 1.833037 1_555
Mo2 O44 1.778420 1_655
Mo2 O42 1.785714 1_555
Mo2 O28 1.788234 1_655
Mo2 O0 1.833037 1_655
Mo3 O45 1.778422 1_455
Mo3 O43 1.785714 1_555
Mo3 O29 1.788234 1_455
Mo3 O1 1.833037 1_455
Mo4 O4 1.774347 1_555
Mo4 O15 1.787195 1_545
Mo4 O16 1.788851 1_555
Mo4 O27 1.833579 1_545
Mo5 O5 1.774347 1_555
Mo5 O14 1.787195 1_565
Mo5 O17 1.788851 1_555
Mo5 O26 1.833579 1_565
Mo6 O6 1.774347 1_555
Mo6 O13 1.787195 1_555
Mo6 O18 1.788851 1_555
Mo6 O25 1.833579 1_555
Mo7 O7 1.774347 1_555
Mo7 O12 1.787195 1_555
Mo7 O19 1.788851 1_555
Mo7 O24 1.833579 1_555
Mo8 O36 1.790337 1_555
Mo8 O20 1.791045 1_555
Mo8 O8 1.792603 1_555
Mo8 O32 1.793101 1_555
Mo9 O37 1.790337 1_555
Mo9 O21 1.791045 1_555
Mo9 O9 1.792603 1_555
Mo9 O33 1.793101 1_555
Mo10 O38 1.790337 1_555
Mo10 O22 1.791045 1_555
Mo10 O10 1.792603 1_555
Mo10 O34 1.793101 1_555
Mo11 O39 1.790337 1_555
Mo11 O23 1.791045 1_555
Mo11 O11 1.792603 1_555
Mo11 O35 1.793101 1_555
O0 Pr7 2.503940 1_554
O0 Pr6 2.553732 1_454
O1 Pr6 2.503940 1_554
O1 Pr7 2.553732 1_654
O2 Pr5 2.503940 1_544
O2 Pr4 2.553732 1_554
O3 Pr4 2.503940 1_564
O3 Pr5 2.553732 1_554
O4 Pr4 2.443780 1_554
O5 Pr5 2.443780 1_554
O6 Pr6 2.443780 1_554
O7 Pr7 2.443780 1_554
O8 Pr7 2.369740 1_555
O9 Pr6 2.369740 1_555
O10 Pr5 2.369740 1_545
O11 Pr4 2.369740 1_565
O12 Pr0 2.463401 1_555
O13 Pr1 2.463401 1_555
O14 Pr2 2.463401 1_555
O15 Pr3 2.463401 1_555
O16 Pr2 2.441827 1_555
O17 Pr3 2.441827 1_555
O18 Pr0 2.441827 1_655
O19 Pr1 2.441827 1_455
O20 Pr2 2.378739 1_555
O21 Pr3 2.378739 1_555
O22 Pr0 2.378739 1_655
O23 Pr1 2.378739 1_455
O24 Pr2 2.525318 1_555
O24 Pr3 2.541507 1_555
O25 Pr3 2.525318 1_555
O25 Pr2 2.541507 1_555
O26 Pr0 2.525318 1_655
O26 Pr1 2.541507 1_545
O27 Pr1 2.525318 1_455
O27 Pr0 2.541507 1_565
O28 Pr4 2.444749 1_554
O29 Pr5 2.444749 1_554
O30 Pr6 2.444749 1_554
O31 Pr7 2.444749 1_554
O32 Pr0 2.373236 1_555
O33 Pr1 2.373236 1_555
O34 Pr2 2.373236 1_555
O35 Pr3 2.373236 1_555
O36 Pr4 2.377615 1_555
O37 Pr5 2.377615 1_555
O38 Pr6 2.377615 1_555
O39 Pr7 2.377615 1_555
O40 Pr7 2.474477 1_554
O41 Pr6 2.474477 1_554
O42 Pr5 2.474477 1_544
O43 Pr4 2.474477 1_564
O44 Pr0 2.455053 1_555
O45 Pr1 2.455053 1_555
O46 Pr2 2.455053 1_555
O47 Pr3 2.455053 1_555
