# generated using pymatgen
data_Li2VOF3
_symmetry_space_group_name_H-M   'P 1'
_cell_length_a   5.05453053
_cell_length_b   9.82560386
_cell_length_c   6.00609024
_cell_angle_alpha   95.67912540
_cell_angle_beta   89.79492760
_cell_angle_gamma   90.18314850
_symmetry_Int_Tables_number   1
_chemical_formula_structural   Li2VOF3
_chemical_formula_sum   'Li8 V4 O4 F12'
_cell_volume   296.81816392
_cell_formula_units_Z   4
loop_
 _symmetry_equiv_pos_site_id
 _symmetry_equiv_pos_as_xyz
  1  'x, y, z'
loop_
 _atom_site_type_symbol
 _atom_site_label
 _atom_site_symmetry_multiplicity
 _atom_site_fract_x
 _atom_site_fract_y
 _atom_site_fract_z
 _atom_site_occupancy
  Li  Li0  1  0.01151700  0.22688500  0.64669400  1
  Li  Li1  1  0.00797100  0.72716700  0.13364500  1
  Li  Li2  1  0.47707100  0.47487500  0.89388100  1
  Li  Li3  1  0.47620600  0.97770100  0.39708100  1
  Li  Li4  1  0.47798100  0.11874300  0.81003400  1
  Li  Li5  1  0.48306300  0.61305600  0.30987200  1
  Li  Li6  1  0.01474400  0.36677600  0.05986800  1
  Li  Li7  1  0.00494800  0.87999800  0.56525900  1
  V  V0  1  0.02158900  0.50949500  0.49973800  1
  V  V1  1  0.47118600  0.26054700  0.24916700  1
  V  V2  1  0.02237500  0.00956700  0.00058100  1
  V  V3  1  0.46774300  0.75800700  0.74907600  1
  O  O0  1  0.20256900  0.17921900  0.04737000  1
  O  O1  1  0.20863100  0.66856000  0.57358000  1
  O  O2  1  0.29566600  0.43047400  0.28864600  1
  O  O3  1  0.28575900  0.93089700  0.79446400  1
  F  F0  1  0.34474500  0.16473400  0.52114000  1
  F  F1  1  0.34931300  0.66728500  0.02669600  1
  F  F2  1  0.14368700  0.41287800  0.76808400  1
  F  F3  1  0.14389500  0.91047900  0.27324500  1
  F  F4  1  0.83241800  0.06570500  0.71580100  1
  F  F5  1  0.83905900  0.56723900  0.22015800  1
  F  F6  1  0.66129900  0.31596300  0.96416300  1
  F  F7  1  0.65677400  0.81619100  0.46964900  1
  F  F8  1  0.68744800  0.07413100  0.18769600  1
  F  F9  1  0.68843900  0.57366200  0.68985100  1
  F  F10  1  0.80725200  0.32450800  0.43383300  1
  F  F11  1  0.80032900  0.82557600  0.93448400  1
loop_
_geom_bond_atom_site_label_1
_geom_bond_atom_site_label_2
_geom_bond_distance
_geom_bond_site_symmetry_2
Li4 O0 2.036260 1_556
Li4 O3 2.077107 1_545
Li5 O2 2.019045 1_555
Li5 O1 2.132671 1_555
Li6 O2 2.033234 1_555
Li6 O0 2.070354 1_555
Li7 O3 2.008235 1_555
Li7 O1 2.326593 1_555
O0 V2 1.893833 1_555
O0 V1 1.940135 1_555
O1 V0 1.841073 1_555
O1 V3 1.848754 1_555
O2 V1 1.886952 1_555
O2 V0 1.982139 1_555
O3 V2 1.925550 1_566
O3 V3 1.929434 1_555
F0 Li0 1.919588 1_555
F0 Li4 1.958029 1_555
F0 Li3 2.026613 1_545
F0 V1 2.063022 1_555
F1 Li1 1.912928 1_555
F1 Li5 1.955375 1_555
F1 V3 2.053483 1_554
F1 Li2 2.081617 1_554
F2 Li2 1.921705 1_555
F2 Li6 1.961684 1_556
F2 Li0 2.012355 1_555
F2 V0 2.047772 1_555
F3 Li3 1.927533 1_555
F3 Li7 1.937206 1_555
F3 Li1 2.028912 1_555
F3 V2 2.081737 1_565
F4 Li0 1.902128 1_655
F4 Li4 1.934362 1_555
F4 V2 2.086506 1_656
F4 Li7 2.141374 1_645
F5 Li1 1.902110 1_655
F5 Li5 1.918605 1_555
F5 V0 2.048354 1_655
F5 Li6 2.285770 1_655
F6 Li2 1.904163 1_555
F6 Li6 1.927720 1_656
F6 V1 2.078300 1_556
F6 Li4 2.260582 1_555
F7 Li3 1.921020 1_555
F7 Li7 1.936190 1_655
F7 V3 2.056995 1_555
F7 Li5 2.300282 1_555
F8 Li3 1.959345 1_545
F8 V2 2.093677 1_655
F8 V1 2.135930 1_555
F9 Li2 1.950543 1_555
F9 V0 2.094615 1_655
F9 V3 2.129384 1_555
F10 Li0 1.969519 1_655
F10 V1 2.092665 1_555
F10 V0 2.117114 1_655
F11 Li1 1.926577 1_656
F11 V3 2.089678 1_555
F11 V2 2.129235 1_666
