# generated using pymatgen
data_NaCd(RhO2)4
_symmetry_space_group_name_H-M   'P 1'
_cell_length_a   3.10569500
_cell_length_b   9.19034800
_cell_length_c   10.96046134
_cell_angle_alpha   89.51582346
_cell_angle_beta   90.00000000
_cell_angle_gamma   90.00000000
_symmetry_Int_Tables_number   1
_chemical_formula_structural   NaCd(RhO2)4
_chemical_formula_sum   'Na2 Cd2 Rh8 O16'
_cell_volume   312.82689741
_cell_formula_units_Z   2
loop_
 _symmetry_equiv_pos_site_id
 _symmetry_equiv_pos_as_xyz
  1  'x, y, z'
loop_
 _atom_site_type_symbol
 _atom_site_label
 _atom_site_symmetry_multiplicity
 _atom_site_fract_x
 _atom_site_fract_y
 _atom_site_fract_z
 _atom_site_occupancy
  Na  Na0  1  0.25000000  0.73621800  0.84127500  1
  Na  Na1  1  0.75000000  0.26378200  0.15872500  1
  Cd  Cd0  1  0.25000000  0.23721500  0.66157000  1
  Cd  Cd1  1  0.75000000  0.76278500  0.33843000  1
  Rh  Rh0  1  0.25000000  0.05155000  0.88402700  1
  Rh  Rh1  1  0.25000000  0.55780200  0.61723900  1
  Rh  Rh2  1  0.75000000  0.94845000  0.11597300  1
  Rh  Rh3  1  0.75000000  0.44219800  0.38276100  1
  Rh  Rh4  1  0.25000000  0.09206200  0.39939200  1
  Rh  Rh5  1  0.25000000  0.58778600  0.09896900  1
  Rh  Rh6  1  0.75000000  0.90793800  0.60060800  1
  Rh  Rh7  1  0.75000000  0.41221400  0.90103100  1
  O  O0  1  0.25000000  0.08334800  0.06839500  1
  O  O1  1  0.25000000  0.58560600  0.43013600  1
  O  O2  1  0.75000000  0.91665200  0.93160500  1
  O  O3  1  0.75000000  0.41439400  0.56986400  1
  O  O4  1  0.25000000  0.96578000  0.70908700  1
  O  O5  1  0.25000000  0.45475600  0.78596200  1
  O  O6  1  0.75000000  0.03422000  0.29091300  1
  O  O7  1  0.75000000  0.54524400  0.21403800  1
  O  O8  1  0.25000000  0.38597100  0.02361400  1
  O  O9  1  0.25000000  0.88340000  0.47151500  1
  O  O10  1  0.75000000  0.61402900  0.97638600  1
  O  O11  1  0.75000000  0.11660000  0.52848500  1
  O  O12  1  0.25000000  0.30600900  0.33848000  1
  O  O13  1  0.25000000  0.80287200  0.16417200  1
  O  O14  1  0.75000000  0.69399100  0.66152000  1
  O  O15  1  0.75000000  0.19712800  0.83582800  1
loop_
_geom_bond_atom_site_label_1
_geom_bond_atom_site_label_2
_geom_bond_distance
_geom_bond_site_symmetry_2
Na0 O10 2.416044 1_555
Na0 O10 2.416044 1_455
Na0 O2 2.483766 1_455
Na0 O2 2.483766 1_555
Na0 O14 2.540973 1_555
Na0 O14 2.540973 1_455
Na0 O4 2.549225 1_555
Na0 O5 2.661812 1_555
Na1 O8 2.416044 1_555
Na1 O8 2.416044 1_655
Na1 O0 2.483766 1_655
Na1 O0 2.483766 1_555
Na1 O12 2.540973 1_555
Na1 O12 2.540973 1_655
Na1 O6 2.549225 1_555
Na1 O7 2.661812 1_555
Cd0 O11 2.407311 1_455
Cd0 O11 2.407311 1_555
Cd0 O5 2.429408 1_555
Cd0 O3 2.458752 1_555
Cd0 O3 2.458752 1_455
Cd0 O15 2.486579 1_455
Cd0 O15 2.486579 1_555
Cd0 O4 2.544057 1_545
Cd1 O9 2.407311 1_555
Cd1 O9 2.407311 1_655
Cd1 O7 2.429408 1_555
Cd1 O1 2.458752 1_555
Cd1 O1 2.458752 1_655
Cd1 O13 2.486579 1_655
Cd1 O13 2.486579 1_555
Cd1 O6 2.544057 1_565
O0 Rh0 2.044223 1_554
O0 Rh2 2.051670 1_445
O0 Rh2 2.051670 1_545
O1 Rh1 2.064450 1_555
O1 Rh3 2.104654 1_455
O1 Rh3 2.104654 1_555
O2 Rh2 2.044223 1_556
O2 Rh0 2.051670 1_565
O2 Rh0 2.051670 1_665
O3 Rh3 2.064450 1_555
O3 Rh1 2.104654 1_555
O3 Rh1 2.104654 1_655
O4 Rh6 2.029354 1_455
O4 Rh6 2.029354 1_555
O4 Rh0 2.079280 1_565
O5 Rh7 2.036299 1_455
O5 Rh7 2.036299 1_555
O5 Rh1 2.070533 1_555
O6 Rh4 2.029354 1_655
O6 Rh4 2.029354 1_555
O6 Rh2 2.079280 1_545
O7 Rh5 2.036299 1_555
O7 Rh5 2.036299 1_655
O7 Rh3 2.070533 1_555
O8 Rh5 2.036699 1_555
O8 Rh7 2.066204 1_554
O8 Rh7 2.066204 1_454
O9 Rh4 2.068032 1_565
O9 Rh6 2.114138 1_455
O9 Rh6 2.114138 1_555
O10 Rh7 2.036699 1_555
O10 Rh5 2.066204 1_556
O10 Rh5 2.066204 1_656
O11 Rh6 2.068032 1_545
O11 Rh4 2.114138 1_555
O11 Rh4 2.114138 1_655
O12 Rh3 2.055169 1_555
O12 Rh3 2.055169 1_455
O12 Rh4 2.071150 1_555
O13 Rh5 2.107608 1_555
O13 Rh2 2.113879 1_455
O13 Rh2 2.113879 1_555
O14 Rh1 2.055169 1_555
O14 Rh1 2.055169 1_655
O14 Rh6 2.071150 1_555
O15 Rh7 2.107608 1_555
O15 Rh0 2.113879 1_555
O15 Rh0 2.113879 1_655
