# generated using pymatgen
data_La6InCo13
_symmetry_space_group_name_H-M   'P 1'
_cell_length_a   8.06230600
_cell_length_b   8.06230600
_cell_length_c   12.94320678
_cell_angle_alpha   108.14659520
_cell_angle_beta   108.14659520
_cell_angle_gamma   90.00000000
_symmetry_Int_Tables_number   1
_chemical_formula_structural   La6InCo13
_chemical_formula_sum   'La12 In2 Co26'
_cell_volume   755.31411086
_cell_formula_units_Z   2
loop_
 _symmetry_equiv_pos_site_id
 _symmetry_equiv_pos_as_xyz
  1  'x, y, z'
loop_
 _atom_site_type_symbol
 _atom_site_label
 _atom_site_symmetry_multiplicity
 _atom_site_fract_x
 _atom_site_fract_y
 _atom_site_fract_z
 _atom_site_occupancy
  La  La0  1  0.34200700  0.51719300  0.35920000  1
  La  La1  1  0.01719200  0.84200700  0.35920000  1
  La  La2  1  0.51719300  0.01719200  0.35920000  1
  La  La3  1  0.84200700  0.34200700  0.35920000  1
  La  La4  1  0.65799300  0.48280800  0.64080000  1
  La  La5  1  0.98280700  0.15799300  0.64080000  1
  La  La6  1  0.48280800  0.98280700  0.64080000  1
  La  La7  1  0.15799300  0.65799300  0.64080000  1
  La  La8  1  0.10049800  0.10049800  0.20099700  1
  La  La9  1  0.60049800  0.60049800  0.20099700  1
  La  La10  1  0.89950200  0.89950200  0.79900300  1
  La  La11  1  0.39950200  0.39950200  0.79900300  1
  In  In0  1  0.25000000  0.25000000  0.50000000  1
  In  In1  1  0.75000000  0.75000000  0.50000000  1
  Co  Co0  1  0.23253800  0.37851400  0.11105200  1
  Co  Co1  1  0.87851400  0.73253800  0.11105200  1
  Co  Co2  1  0.37851400  0.87851400  0.11105200  1
  Co  Co3  1  0.73253800  0.23253800  0.11105200  1
  Co  Co4  1  0.76746200  0.62148600  0.88894800  1
  Co  Co5  1  0.12148600  0.26746200  0.88894800  1
  Co  Co6  1  0.62148600  0.12148600  0.88894800  1
  Co  Co7  1  0.26746200  0.76746200  0.88894800  1
  Co  Co8  1  0.21355600  0.06450600  0.00000000  1
  Co  Co9  1  0.78644400  0.93549400  0.00000000  1
  Co  Co10  1  0.28644400  0.56450600  0.00000000  1
  Co  Co11  1  0.71355600  0.43549400  0.00000000  1
  Co  Co12  1  0.06450600  0.78644400  0.00000000  1
  Co  Co13  1  0.93549400  0.21355600  0.00000000  1
  Co  Co14  1  0.56450600  0.71355600  0.00000000  1
  Co  Co15  1  0.43549400  0.28644400  0.00000000  1
  Co  Co16  1  0.47462000  0.20089300  0.17551300  1
  Co  Co17  1  0.70089300  0.97462000  0.17551300  1
  Co  Co18  1  0.20089300  0.70089300  0.17551300  1
  Co  Co19  1  0.97462000  0.47462000  0.17551300  1
  Co  Co20  1  0.52538000  0.79910700  0.82448700  1
  Co  Co21  1  0.29910700  0.02538000  0.82448700  1
  Co  Co22  1  0.79910700  0.29910700  0.82448700  1
  Co  Co23  1  0.02538000  0.52538000  0.82448700  1
  Co  Co24  1  0.50000000  0.00000000  0.00000000  1
  Co  Co25  1  0.00000000  0.50000000  0.00000000  1
loop_
_geom_bond_atom_site_label_1
_geom_bond_atom_site_label_2
_geom_bond_distance
_geom_bond_site_symmetry_2
La0 La9 3.535812 1_555
La0 La8 3.535821 1_555
La0 La1 3.703477 1_555
La0 La4 3.833683 1_555
La0 La7 4.191090 1_555
La0 La6 4.191090 1_555
La1 La9 3.535815 1_455
La1 La8 3.535815 1_565
La1 La5 3.833683 1_465
La1 La7 4.191090 1_555
La1 La6 4.191100 1_555
La2 La9 3.535812 1_545
La2 La8 3.535821 1_555
La2 La3 3.703477 1_555
La2 La6 3.833680 1_545
La2 La5 4.191090 1_555
La2 La4 4.191100 1_555
La3 La8 3.535815 1_655
La3 La9 3.535815 1_555
La3 La7 3.833686 1_655
La3 La5 4.191090 1_555
La3 La4 4.191090 1_555
La4 La5 3.703477 1_555
La6 La7 3.703477 1_555
La10 La6 3.535812 1_555
La10 La5 3.535812 1_565
La10 La4 3.535815 1_555
La10 La7 3.535815 1_655
La11 La7 3.535815 1_555
La11 La4 3.535815 1_555
La11 La5 3.535821 1_455
La11 La6 3.535821 1_545
In0 La7 3.435023 1_555
In0 La0 3.435023 1_555
In0 La3 3.435023 1_455
In0 La5 3.435023 1_455
In0 La4 3.435026 1_555
In0 La6 3.435026 1_545
In0 La2 3.435026 1_555
In0 La1 3.435026 1_545
In0 La11 3.474438 1_555
In0 La8 3.474438 1_555
In1 La1 3.435017 1_655
In1 La2 3.435017 1_565
In1 La6 3.435017 1_555
In1 La4 3.435017 1_555
In1 La5 3.435023 1_565
In1 La3 3.435023 1_555
In1 La0 3.435023 1_555
In1 La7 3.435023 1_655
In1 La10 3.474438 1_555
In1 La9 3.474438 1_555
Co0 Co25 2.395535 1_555
Co0 Co8 2.468788 1_555
Co0 Co15 2.468788 1_555
Co0 Co13 2.497035 1_455
Co0 Co10 2.497035 1_555
Co0 Co16 2.507195 1_555
Co0 Co19 2.509669 1_455
Co0 Co18 2.509669 1_555
Co0 Co5 2.580866 1_554
Co0 La0 2.888304 1_555
Co0 La9 3.148014 1_555
Co0 La8 3.148024 1_555
Co1 Co25 2.395535 1_655
Co1 Co14 2.468788 1_555
Co1 Co9 2.468788 1_555
Co1 Co11 2.497035 1_555
Co1 Co12 2.497035 1_655
Co1 Co17 2.507195 1_555
Co1 Co19 2.509669 1_555
Co1 Co18 2.509669 1_655
Co1 Co4 2.580866 1_554
Co1 La1 2.888303 1_655
Co1 La8 3.148014 1_665
Co1 La9 3.148024 1_555
Co2 Co24 2.395535 1_565
Co2 Co8 2.497035 1_565
Co2 Co7 2.580866 1_554
Co2 La2 2.888303 1_565
Co2 La9 3.148021 1_555
Co2 La8 3.148021 1_565
Co3 Co9 2.497035 1_545
Co3 Co6 2.580866 1_554
Co3 La3 2.888304 1_555
Co3 La9 3.148018 1_555
Co3 La8 3.148018 1_655
Co4 Co9 2.468788 1_556
Co4 La4 2.888303 1_555
Co4 La11 3.148014 1_555
Co4 La10 3.148024 1_555
Co5 Co8 2.468788 1_556
Co5 La5 2.888304 1_455
Co5 La10 3.148014 1_445
Co5 La11 3.148024 1_555
Co6 Co9 2.497035 1_546
Co6 La6 2.888303 1_545
Co6 La10 3.148021 1_545
Co6 La11 3.148021 1_555
Co7 Co8 2.497035 1_566
Co7 La7 2.888304 1_555
Co7 La11 3.148018 1_555
Co7 La10 3.148018 1_455
Co8 La10 2.947867 1_444
Co8 La8 2.947873 1_555
Co9 La8 2.947867 1_665
Co9 La10 2.947873 1_554
Co10 Co25 2.367233 1_555
Co10 Co2 2.468788 1_555
Co10 Co7 2.468788 1_554
Co10 Co5 2.497035 1_554
Co10 Co18 2.503100 1_555
Co10 Co23 2.503100 1_554
Co10 Co12 2.530498 1_555
Co10 Co15 2.543583 1_555
Co10 Co14 2.543583 1_555
Co10 La9 2.947868 1_555
Co10 La11 2.947872 1_554
Co11 Co25 2.367233 1_655
Co11 Co6 2.468788 1_554
Co11 Co3 2.468788 1_555
Co11 Co4 2.497035 1_554
Co11 Co19 2.503100 1_555
Co11 Co22 2.503100 1_554
Co11 Co13 2.530498 1_555
Co11 Co15 2.543583 1_555
Co11 Co14 2.543583 1_555
Co11 La11 2.947868 1_554
Co11 La9 2.947872 1_555
Co12 Co25 2.367233 1_555
Co12 Co2 2.468788 1_555
Co12 Co7 2.468788 1_554
Co12 Co4 2.497035 1_454
Co12 Co23 2.503100 1_554
Co12 Co18 2.503100 1_555
Co12 Co8 2.543583 1_565
Co12 Co9 2.543583 1_455
Co12 La8 2.947868 1_565
Co12 La10 2.947872 1_454
Co13 Co25 2.367233 1_655
Co13 Co6 2.468788 1_554
Co13 Co3 2.468788 1_555
Co13 Co5 2.497035 1_654
Co13 Co19 2.503100 1_555
Co13 Co22 2.503100 1_554
Co13 Co9 2.543583 1_545
Co13 Co8 2.543583 1_655
Co13 La10 2.947868 1_544
Co13 La8 2.947872 1_655
Co14 Co24 2.367233 1_565
Co14 Co4 2.468788 1_554
Co14 Co7 2.497035 1_554
Co14 Co2 2.497035 1_555
Co14 Co17 2.503100 1_555
Co14 Co20 2.503100 1_554
Co14 Co9 2.530498 1_555
Co14 La11 2.947867 1_554
Co14 La9 2.947873 1_555
Co15 Co24 2.367233 1_555
Co15 Co5 2.468788 1_554
Co15 Co3 2.497035 1_555
Co15 Co6 2.497035 1_554
Co15 Co21 2.503100 1_554
Co15 Co16 2.503100 1_555
Co15 Co8 2.530498 1_555
Co15 La9 2.947867 1_555
Co15 La11 2.947873 1_554
Co16 Co24 2.413185 1_555
Co16 Co8 2.503100 1_555
Co16 Co3 2.509669 1_555
Co16 Co2 2.509669 1_545
Co16 Co17 2.579925 1_545
Co16 La3 3.106258 1_555
Co16 La2 3.106263 1_555
Co16 La9 3.263111 1_555
Co16 La8 3.263121 1_555
Co16 La0 3.332489 1_555
Co17 Co24 2.413185 1_565
Co17 Co9 2.503100 1_555
Co17 Co3 2.509669 1_565
Co17 Co2 2.509669 1_555
Co17 La3 3.106258 1_565
Co17 La2 3.106259 1_565
Co17 La8 3.263111 1_665
Co17 La9 3.263121 1_555
Co17 La1 3.332484 1_655
Co18 Co25 2.413185 1_555
Co18 Co2 2.507195 1_555
Co18 Co19 2.579925 1_455
Co18 La0 3.106258 1_555
Co18 La1 3.106263 1_555
Co18 La8 3.263113 1_565
Co18 La9 3.263113 1_555
Co18 La2 3.332484 1_565
Co19 Co25 2.413185 1_655
Co19 Co3 2.507195 1_555
Co19 La0 3.106258 1_655
Co19 La1 3.106259 1_655
Co19 La9 3.263119 1_555
Co19 La8 3.263119 1_655
Co19 La3 3.332489 1_555
Co20 Co24 2.413185 1_566
Co20 Co9 2.503100 1_556
Co20 Co4 2.507195 1_555
Co20 Co6 2.509669 1_565
Co20 Co7 2.509669 1_555
Co20 Co21 2.579925 1_565
Co20 La7 3.106258 1_555
Co20 La6 3.106259 1_555
Co20 La11 3.263111 1_555
Co20 La10 3.263121 1_555
Co20 La4 3.332484 1_555
Co21 Co24 2.413185 1_556
Co21 Co8 2.503100 1_556
Co21 Co5 2.507195 1_555
Co21 Co6 2.509669 1_555
Co21 Co7 2.509669 1_545
Co21 La7 3.106258 1_545
Co21 La6 3.106263 1_545
Co21 La10 3.263111 1_445
Co21 La11 3.263121 1_555
Co21 La5 3.332489 1_455
Co22 Co25 2.413185 1_656
Co22 Co6 2.507195 1_555
Co22 Co4 2.509669 1_555
Co22 Co5 2.509669 1_655
Co22 Co23 2.579925 1_655
Co22 La5 3.106258 1_555
Co22 La4 3.106263 1_555
Co22 La11 3.263113 1_555
Co22 La10 3.263113 1_545
Co22 La6 3.332484 1_545
Co23 Co25 2.413185 1_556
Co23 Co7 2.507195 1_555
Co23 Co4 2.509669 1_455
Co23 Co5 2.509669 1_555
Co23 La5 3.106258 1_455
Co23 La4 3.106259 1_455
Co23 La10 3.263119 1_455
Co23 La11 3.263119 1_555
Co23 La7 3.332489 1_555
Co24 Co9 2.367233 1_545
Co24 Co8 2.367233 1_555
Co24 Co3 2.395535 1_555
Co24 Co6 2.395535 1_554
Co24 Co7 2.395535 1_544
Co25 Co4 2.395535 1_454
Co25 Co5 2.395535 1_554
