# generated using pymatgen
data_NaMg6BO7
_symmetry_space_group_name_H-M   'P 1'
_cell_length_a   8.57328446
_cell_length_b   4.26191655
_cell_length_c   4.26191655
_cell_angle_alpha   90.00000000
_cell_angle_beta   90.00000000
_cell_angle_gamma   90.00000000
_symmetry_Int_Tables_number   1
_chemical_formula_structural   NaMg6BO7
_chemical_formula_sum   'Na1 Mg6 B1 O7'
_cell_volume   155.72456177
_cell_formula_units_Z   1
loop_
 _symmetry_equiv_pos_site_id
 _symmetry_equiv_pos_as_xyz
  1  'x, y, z'
loop_
 _atom_site_type_symbol
 _atom_site_label
 _atom_site_symmetry_multiplicity
 _atom_site_fract_x
 _atom_site_fract_y
 _atom_site_fract_z
 _atom_site_occupancy
  Na  Na0  1  0.99786792  -0.00000000  0.00000000  1
  Mg  Mg0  1  0.50042671  -0.00000000  -0.00000000  1
  Mg  Mg1  1  0.48841170  0.50000000  0.50000000  1
  Mg  Mg2  1  0.22728161  0.00000000  0.50000000  1
  Mg  Mg3  1  0.76249240  0.00000000  0.50000000  1
  Mg  Mg4  1  0.22728161  0.50000000  0.00000000  1
  Mg  Mg5  1  0.76249240  0.50000000  -0.00000000  1
  B  B0  1  0.97171443  0.50000000  0.50000000  1
  O  O0  1  0.26316116  -0.00000000  0.00000000  1
  O  O1  1  0.73591234  -0.00000000  0.00000000  1
  O  O2  1  0.80562172  0.50000000  0.50000000  1
  O  O3  1  0.99698707  -0.00000000  0.50000000  1
  O  O4  1  0.50668093  -0.00000000  0.50000000  1
  O  O5  1  0.99698707  0.50000000  -0.00000000  1
  O  O6  1  0.50668093  0.50000000  -0.00000000  1
loop_
_geom_bond_atom_site_label_1
_geom_bond_atom_site_label_2
_geom_bond_distance
_geom_bond_site_symmetry_2
Na0 O5 2.130972 1_555
Na0 O3 2.130972 1_555
Na0 O3 2.130972 1_554
Na0 O5 2.130972 1_545
Na0 O1 2.245820 1_555
Na0 O0 2.274434 1_655
Mg0 O1 2.018885 1_555
Mg0 O0 2.034145 1_555
Mg0 O6 2.131633 1_555
Mg0 O4 2.131633 1_555
Mg0 O4 2.131633 1_554
Mg0 O6 2.131633 1_545
Mg1 O4 2.136707 1_565
Mg1 O6 2.136707 1_556
Mg1 O4 2.136707 1_555
Mg1 O6 2.136707 1_555
Mg2 O3 1.974381 1_455
Mg2 O0 2.153045 1_555
Mg2 O0 2.153045 1_556
Mg2 O4 2.395370 1_555
Mg3 O3 2.010390 1_555
Mg3 O1 2.143108 1_556
Mg3 O1 2.143108 1_555
Mg3 O2 2.162800 1_555
Mg3 O2 2.162800 1_545
Mg3 O4 2.193145 1_555
Mg4 O5 1.974381 1_455
Mg4 O0 2.153045 1_555
Mg4 O0 2.153045 1_565
Mg4 O6 2.395370 1_555
Mg5 O5 2.010390 1_555
Mg5 O1 2.143108 1_565
Mg5 O1 2.143108 1_555
Mg5 O2 2.162800 1_555
Mg5 O2 2.162800 1_554
Mg5 O6 2.193145 1_555
B0 O2 1.423960 1_555
B0 O5 2.141945 1_556
B0 O5 2.141945 1_555
B0 O3 2.141945 1_555
B0 O3 2.141945 1_565
