# generated using pymatgen
data_MgCoN
_symmetry_space_group_name_H-M   'P 1'
_cell_length_a   7.66463800
_cell_length_b   3.47614700
_cell_length_c   5.43798200
_cell_angle_alpha   90.00000000
_cell_angle_beta   90.00000000
_cell_angle_gamma   90.00000000
_symmetry_Int_Tables_number   1
_chemical_formula_structural   MgCoN
_chemical_formula_sum   'Mg4 Co4 N4'
_cell_volume   144.88637524
_cell_formula_units_Z   4
loop_
 _symmetry_equiv_pos_site_id
 _symmetry_equiv_pos_as_xyz
  1  'x, y, z'
loop_
 _atom_site_type_symbol
 _atom_site_label
 _atom_site_symmetry_multiplicity
 _atom_site_fract_x
 _atom_site_fract_y
 _atom_site_fract_z
 _atom_site_occupancy
  Mg  Mg0  1  0.67592400  0.25000000  0.42205100  1
  Mg  Mg1  1  0.17592400  0.25000000  0.07794900  1
  Mg  Mg2  1  0.32407600  0.75000000  0.57794900  1
  Mg  Mg3  1  0.82407600  0.75000000  0.92205100  1
  Co  Co0  1  0.55413700  0.25000000  0.87072100  1
  Co  Co1  1  0.05413700  0.25000000  0.62927900  1
  Co  Co2  1  0.44586300  0.75000000  0.12927900  1
  Co  Co3  1  0.94586300  0.75000000  0.37072100  1
  N  N0  1  0.94058700  0.25000000  0.27736900  1
  N  N1  1  0.44058700  0.25000000  0.22263100  1
  N  N2  1  0.05941300  0.75000000  0.72263100  1
  N  N3  1  0.55941300  0.75000000  0.77736900  1
loop_
_geom_bond_atom_site_label_1
_geom_bond_atom_site_label_2
_geom_bond_distance
_geom_bond_site_symmetry_2
Mg0 N1 2.104664 1_555
Mg0 N0 2.175780 1_555
Mg1 N0 2.104664 1_455
Mg1 N1 2.175780 1_555
Mg2 N3 2.104664 1_555
Mg2 N2 2.175780 1_555
Mg3 N2 2.104664 1_655
Mg3 N3 2.175780 1_555
Co0 N3 1.811143 1_555
Co0 N3 1.811143 1_545
Co0 N1 2.102291 1_556
Co1 N2 1.811143 1_545
Co1 N2 1.811143 1_555
Co1 N0 2.102291 1_455
Co2 N1 1.811143 1_555
Co2 N1 1.811143 1_565
Co2 N3 2.102291 1_554
Co3 N0 1.811143 1_565
Co3 N0 1.811143 1_555
Co3 N2 2.102291 1_655
