# generated using pymatgen
data_H6PbCNCl3
_symmetry_space_group_name_H-M   'P 1'
_cell_length_a   8.21848184
_cell_length_b   8.21792641
_cell_length_c   12.34989255
_cell_angle_alpha   91.31147587
_cell_angle_beta   90.88824957
_cell_angle_gamma   89.96553345
_symmetry_Int_Tables_number   1
_chemical_formula_structural   H6PbCNCl3
_chemical_formula_sum   'H24 Pb4 C4 N4 Cl12'
_cell_volume   833.77917165
_cell_formula_units_Z   4
loop_
 _symmetry_equiv_pos_site_id
 _symmetry_equiv_pos_as_xyz
  1  'x, y, z'
loop_
 _atom_site_type_symbol
 _atom_site_label
 _atom_site_symmetry_multiplicity
 _atom_site_fract_x
 _atom_site_fract_y
 _atom_site_fract_z
 _atom_site_occupancy
  H  H0  1  0.41256200  0.91423700  0.70544500  1
  H  H1  1  0.62574000  0.96183800  0.70827800  1
  H  H2  1  0.39396100  0.03828000  0.88733200  1
  H  H3  1  0.58815000  0.08959900  0.88767100  1
  H  H4  1  0.54004000  0.89474300  0.88885000  1
  H  H5  1  0.91722600  0.41106500  0.70223300  1
  H  H6  1  0.12780200  0.46884200  0.70814500  1
  H  H7  1  0.88715000  0.52355200  0.88423800  1
  H  H8  1  0.07984900  0.58659900  0.89089700  1
  H  H9  1  0.03701200  0.38902000  0.88507600  1
  H  H10  1  0.87753400  0.48936800  0.20295600  1
  H  H11  1  0.07251800  0.39148700  0.20719600  1
  H  H12  1  0.92646900  0.59368800  0.38702300  1
  H  H13  1  0.11189900  0.51026700  0.38982100  1
  H  H14  1  0.94846300  0.39346800  0.38419400  1
  H  H15  1  0.41811900  0.91101300  0.20297000  1
  H  H16  1  0.62722600  0.97410900  0.20826200  1
  H  H17  1  0.38802700  0.01998800  0.38612700  1
  H  H18  1  0.57968800  0.08702600  0.39175000  1
  H  H19  1  0.54054200  0.88877400  0.38506400  1
  H  H20  1  0.05990200  0.60952800  0.20807100  1
  H  H21  1  0.97260300  0.62235300  0.70723600  1
  H  H22  1  0.47819700  0.12248300  0.70658500  1
  H  H23  1  0.46809200  0.12360300  0.20924400  1
  Pb  Pb0  1  0.99616100  0.99790100  0.02417100  1
  Pb  Pb1  1  0.49803800  0.49917100  0.52440000  1
  Pb  Pb2  1  0.00446500  0.99858100  0.52438500  1
  Pb  Pb3  1  0.49680300  0.49763400  0.02405400  1
  C  C0  1  0.50400000  0.00239100  0.23516400  1
  C  C1  1  0.00498500  0.50080000  0.73412600  1
  C  C2  1  0.00214200  0.49749300  0.23436300  1
  C  C3  1  0.50505600  0.00006700  0.73510300  1
  N  N0  1  0.50245300  0.99937100  0.35588800  1
  N  N1  1  0.00164500  0.49989900  0.85504600  1
  N  N2  1  0.99723500  0.49927500  0.35522100  1
  N  N3  1  0.50548600  0.00463600  0.85618300  1
  Cl  Cl0  1  0.00164500  0.00116200  0.23874300  1
  Cl  Cl1  1  0.50163500  0.49876900  0.73879300  1
  Cl  Cl2  1  0.99933500  0.99976200  0.73869300  1
  Cl  Cl3  1  0.50106300  0.50102700  0.23860400  1
  Cl  Cl4  1  0.22911500  0.73265200  0.99912000  1
  Cl  Cl5  1  0.73703500  0.23514300  0.49496900  1
  Cl  Cl6  1  0.25677000  0.22560700  0.99639900  1
  Cl  Cl7  1  0.76747000  0.73521800  0.49436800  1
  Cl  Cl8  1  0.76086700  0.26422500  0.99474700  1
  Cl  Cl9  1  0.26857700  0.76657900  0.49944200  1
  Cl  Cl10  1  0.72395300  0.75837300  0.99665500  1
  Cl  Cl11  1  0.23462700  0.26811300  0.49886200  1
loop_
_geom_bond_atom_site_label_1
_geom_bond_atom_site_label_2
_geom_bond_distance
_geom_bond_site_symmetry_2
H2 N3 1.034543 1_555
H3 N3 1.039342 1_555
H4 N3 1.035277 1_565
H7 N1 1.029699 1_655
H8 N1 1.045971 1_555
H9 N1 1.031558 1_555
H12 N2 1.042630 1_555
H13 N2 1.031819 1_455
H14 N2 1.031436 1_555
H17 N0 1.029727 1_545
H18 N0 1.046513 1_545
H19 N0 1.032004 1_555
C0 H23 1.092296 1_555
C0 H16 1.093909 1_545
C0 H15 1.094727 1_545
C0 N0 1.491954 1_545
C1 H21 1.091358 1_455
C1 H6 1.093900 1_555
C1 H5 1.094386 1_455
C1 N1 1.494214 1_555
C2 H10 1.090982 1_455
C2 H20 1.094277 1_555
C2 H11 1.094544 1_555
C2 N2 1.493489 1_455
C3 H0 1.090732 1_545
C3 H1 1.094186 1_545
C3 H22 1.094694 1_555
C3 N3 1.494886 1_555
Cl0 Pb0 2.649148 1_445
Cl1 Pb1 2.647515 1_555
Cl2 Pb2 2.647466 1_655
Cl3 Pb3 2.648867 1_555
Cl4 H8 2.146939 1_555
Cl4 Pb0 2.914639 1_456
Cl4 Pb3 2.943813 1_556
Cl5 Pb1 2.946004 1_555
Cl5 Pb2 2.957087 1_645
Cl6 Pb0 2.874651 1_446
Cl6 Pb3 2.992513 1_556
Cl7 Pb2 2.925962 1_655
Cl7 Pb1 2.977791 1_555
Cl8 Pb3 2.916781 1_556
Cl8 Pb0 2.944674 1_546
Cl9 Pb2 2.903496 1_555
Cl9 Pb1 2.913503 1_555
Cl10 Pb3 2.872010 1_556
Cl10 Pb0 2.990996 1_556
Cl11 Pb1 2.889268 1_555
Cl11 Pb2 2.939239 1_545
