# generated using pymatgen
data_Cu(IN3)2
_symmetry_space_group_name_H-M   'P 1'
_cell_length_a   5.31272235
_cell_length_b   5.31272235
_cell_length_c   5.31272235
_cell_angle_alpha   60.00000000
_cell_angle_beta   60.00000000
_cell_angle_gamma   60.00000000
_symmetry_Int_Tables_number   1
_chemical_formula_structural   Cu(IN3)2
_chemical_formula_sum   'Cu1 I2 N6'
_cell_volume   106.03185544
_cell_formula_units_Z   1
loop_
 _symmetry_equiv_pos_site_id
 _symmetry_equiv_pos_as_xyz
  1  'x, y, z'
loop_
 _atom_site_type_symbol
 _atom_site_label
 _atom_site_symmetry_multiplicity
 _atom_site_fract_x
 _atom_site_fract_y
 _atom_site_fract_z
 _atom_site_occupancy
  Cu  Cu0  1  0.00000000  0.00000000  0.00000000  1
  I  I0  1  0.25000000  0.25000000  0.25000000  1
  I  I1  1  0.75000000  0.75000000  0.75000000  1
  N  N0  1  0.75182800  0.24817200  0.24817200  1
  N  N1  1  0.24817200  0.75182800  0.75182800  1
  N  N2  1  0.24817200  0.75182800  0.24817200  1
  N  N3  1  0.75182800  0.24817200  0.75182800  1
  N  N4  1  0.24817200  0.24817200  0.75182800  1
  N  N5  1  0.75182800  0.75182800  0.24817200  1
loop_
_geom_bond_atom_site_label_1
_geom_bond_atom_site_label_2
_geom_bond_distance
_geom_bond_site_symmetry_2
Cu0 N0 1.864597 1_455
Cu0 N2 1.864597 1_545
Cu0 N4 1.864597 1_554
Cu0 N1 1.864597 1_544
Cu0 N3 1.864597 1_454
Cu0 N5 1.864597 1_445
I0 N0 2.656397 1_555
I0 N2 2.656397 1_555
I0 N4 2.656397 1_555
I0 N3 2.656397 1_554
I0 N5 2.656397 1_545
I0 N5 2.656397 1_455
I0 N1 2.656397 1_545
I0 N3 2.656397 1_455
I0 N1 2.656397 1_554
I0 N4 2.656397 1_554
I0 N0 2.656397 1_455
I0 N2 2.656397 1_545
I1 N5 2.656397 1_556
I1 N1 2.656397 1_655
I1 N3 2.656397 1_565
I1 N0 2.656397 1_565
I1 N4 2.656397 1_565
I1 N2 2.656397 1_556
I1 N4 2.656397 1_655
I1 N0 2.656397 1_556
I1 N2 2.656397 1_655
I1 N3 2.656397 1_555
I1 N1 2.656397 1_555
I1 N5 2.656397 1_555
