# generated using pymatgen
data_Tb7RhI12
_symmetry_space_group_name_H-M   'P 1'
_cell_length_a   9.73967470
_cell_length_b   9.73967470
_cell_length_c   9.73967386
_cell_angle_alpha   106.87788178
_cell_angle_beta   106.87788181
_cell_angle_gamma   106.87787519
_symmetry_Int_Tables_number   1
_chemical_formula_structural   Tb7RhI12
_chemical_formula_sum   'Tb7 Rh1 I12'
_cell_volume   771.99648133
_cell_formula_units_Z   1
loop_
 _symmetry_equiv_pos_site_id
 _symmetry_equiv_pos_as_xyz
  1  'x, y, z'
loop_
 _atom_site_type_symbol
 _atom_site_label
 _atom_site_symmetry_multiplicity
 _atom_site_fract_x
 _atom_site_fract_y
 _atom_site_fract_z
 _atom_site_occupancy
  Tb  Tb0  1  0.50000000  0.50000000  0.50000000  1
  Tb  Tb1  1  0.90522696  0.97725818  0.70335719  1
  Tb  Tb2  1  0.97725818  0.70335719  0.90522696  1
  Tb  Tb3  1  0.70335719  0.90522696  0.97725818  1
  Tb  Tb4  1  0.09477304  0.02274182  0.29664281  1
  Tb  Tb5  1  0.02274182  0.29664281  0.09477304  1
  Tb  Tb6  1  0.29664281  0.09477304  0.02274182  1
  Rh  Rh0  1  0.00000000  0.00000000  0.00000000  1
  I  I0  1  0.53369897  0.83888624  0.61201798  1
  I  I1  1  0.83888624  0.61201798  0.53369897  1
  I  I2  1  0.61201798  0.53369897  0.83888624  1
  I  I3  1  0.46630103  0.16111376  0.38798202  1
  I  I4  1  0.16111376  0.38798202  0.46630103  1
  I  I5  1  0.38798202  0.46630103  0.16111376  1
  I  I6  1  0.67592047  0.22746817  0.07176435  1
  I  I7  1  0.22746817  0.07176435  0.67592047  1
  I  I8  1  0.07176435  0.67592047  0.22746817  1
  I  I9  1  0.32407953  0.77253183  0.92823565  1
  I  I10  1  0.77253183  0.92823565  0.32407953  1
  I  I11  1  0.92823565  0.32407953  0.77253183  1
loop_
_geom_bond_atom_site_label_1
_geom_bond_atom_site_label_2
_geom_bond_distance
_geom_bond_site_symmetry_2
Rh0 Tb4 2.685089 1_555
Rh0 Tb1 2.685089 1_444
Rh0 Tb5 2.685089 1_555
Rh0 Tb2 2.685089 1_444
Rh0 Tb6 2.685089 1_555
Rh0 Tb3 2.685089 1_444
I0 Tb0 3.043730 1_555
I0 Tb1 3.210067 1_555
I0 Tb3 3.230264 1_555
I1 Tb0 3.043730 1_555
I1 Tb2 3.210067 1_555
I1 Tb1 3.230265 1_555
I2 Tb0 3.043729 1_555
I2 Tb3 3.210067 1_555
I2 Tb2 3.230265 1_555
I3 Tb0 3.043730 1_555
I3 Tb4 3.210067 1_555
I3 Tb6 3.230264 1_555
I4 Tb0 3.043730 1_555
I4 Tb5 3.210067 1_555
I4 Tb4 3.230265 1_555
I5 Tb0 3.043729 1_555
I5 Tb6 3.210067 1_555
I5 Tb5 3.230265 1_555
I6 Tb3 3.117906 1_544
I6 Tb5 3.172666 1_655
I6 Tb6 3.374839 1_555
I7 Tb1 3.117907 1_445
I7 Tb6 3.172665 1_556
I7 Tb4 3.374838 1_555
I8 Tb2 3.117906 1_454
I8 Tb4 3.172666 1_565
I8 Tb5 3.374838 1_555
I9 Tb6 3.117906 1_566
I9 Tb2 3.172666 1_455
I9 Tb3 3.374839 1_555
I10 Tb4 3.117907 1_665
I10 Tb3 3.172665 1_554
I10 Tb1 3.374838 1_555
I11 Tb5 3.117906 1_656
I11 Tb1 3.172666 1_545
I11 Tb2 3.374838 1_555
