# generated using pymatgen
data_PuPa3
_symmetry_space_group_name_H-M   'P 1'
_cell_length_a   5.59186667
_cell_length_b   5.59186667
_cell_length_c   5.59186667
_cell_angle_alpha   132.32176583
_cell_angle_beta   132.32176583
_cell_angle_gamma   69.72130505
_symmetry_Int_Tables_number   1
_chemical_formula_structural   PuPa3
_chemical_formula_sum   'Pu1 Pa3'
_cell_volume   93.74766641
_cell_formula_units_Z   1
loop_
 _symmetry_equiv_pos_site_id
 _symmetry_equiv_pos_as_xyz
  1  'x, y, z'
loop_
 _atom_site_type_symbol
 _atom_site_label
 _atom_site_symmetry_multiplicity
 _atom_site_fract_x
 _atom_site_fract_y
 _atom_site_fract_z
 _atom_site_occupancy
  Pu  Pu0  1  0.00000000  0.00000000  0.00000000  1
  Pa  Pa0  1  0.75000000  0.25000000  0.50000000  1
  Pa  Pa1  1  0.25000000  0.75000000  0.50000000  1
  Pa  Pa2  1  0.50000000  0.50000000  0.00000000  1
loop_
_geom_bond_atom_site_label_1
_geom_bond_atom_site_label_2
_geom_bond_distance
_geom_bond_site_symmetry_2
Pa0 Pa1 3.196213 1_645
Pa0 Pa1 3.196213 1_544
Pa0 Pa1 3.196213 1_555
Pa0 Pa1 3.196213 1_656
Pa0 Pa2 3.220433 1_555
Pa0 Pa2 3.220433 1_545
Pa0 Pu0 3.220433 1_555
Pa0 Pu0 3.220433 1_655
Pa0 Pa2 3.220433 1_656
Pa0 Pu0 3.220433 1_656
Pa0 Pa2 3.220433 1_556
Pa0 Pu0 3.220433 1_666
Pa1 Pa2 3.220433 1_555
Pa1 Pu0 3.220433 1_555
Pa1 Pa2 3.220433 1_455
Pa1 Pu0 3.220433 1_565
Pa1 Pa2 3.220433 1_566
Pa1 Pu0 3.220433 1_566
Pa1 Pa2 3.220433 1_556
Pa1 Pu0 3.220433 1_666
Pa2 Pu0 3.196213 1_554
Pa2 Pu0 3.196213 1_565
Pa2 Pu0 3.196213 1_655
Pa2 Pu0 3.196213 1_666
