# generated using pymatgen
data_CaLa2CoO6
_symmetry_space_group_name_H-M   'P 1'
_cell_length_a   5.82620470
_cell_length_b   5.81415035
_cell_length_c   9.56940527
_cell_angle_alpha   107.61225957
_cell_angle_beta   89.95366546
_cell_angle_gamma   119.89492600
_symmetry_Int_Tables_number   1
_chemical_formula_structural   CaLa2CoO6
_chemical_formula_sum   'Ca2 La4 Co2 O12'
_cell_volume   263.40294964
_cell_formula_units_Z   2
loop_
 _symmetry_equiv_pos_site_id
 _symmetry_equiv_pos_as_xyz
  1  'x, y, z'
loop_
 _atom_site_type_symbol
 _atom_site_label
 _atom_site_symmetry_multiplicity
 _atom_site_fract_x
 _atom_site_fract_y
 _atom_site_fract_z
 _atom_site_occupancy
  Ca  Ca0  1  0.25072100  0.50033600  0.75012400  1
  Ca  Ca1  1  0.74928000  0.49966400  0.24987600  1
  La  La0  1  0.38063800  0.75991500  0.14082600  1
  La  La1  1  0.88003900  0.76040700  0.64122600  1
  La  La2  1  0.11996100  0.23959300  0.35877400  1
  La  La3  1  0.61936100  0.24008400  0.85917400  1
  Co  Co0  1  0.50000000  0.00000000  0.50000000  1
  Co  Co1  1  0.00000000  0.00000000  0.00000000  1
  O  O0  1  0.30557400  0.13838400  0.62273100  1
  O  O1  1  0.80609700  0.13783900  0.12213500  1
  O  O2  1  0.83236100  0.31643400  0.62244100  1
  O  O3  1  0.33410400  0.31834900  0.12304500  1
  O  O4  1  0.48413200  0.79008200  0.62258000  1
  O  O5  1  0.98412800  0.79056200  0.12215300  1
  O  O6  1  0.19390300  0.86216100  0.87786500  1
  O  O7  1  0.69442600  0.86161600  0.37726900  1
  O  O8  1  0.01587300  0.20943800  0.87784700  1
  O  O9  1  0.51586800  0.20991800  0.37742000  1
  O  O10  1  0.66589600  0.68165100  0.87695500  1
  O  O11  1  0.16763900  0.68356600  0.37756000  1
loop_
_geom_bond_atom_site_label_1
_geom_bond_atom_site_label_2
_geom_bond_distance
_geom_bond_site_symmetry_2
Ca0 O10 2.263634 1_555
Ca0 O0 2.265888 1_555
Ca0 O4 2.266031 1_555
Ca0 O6 2.273054 1_555
Ca0 O8 2.273327 1_555
Ca0 O2 2.278958 1_455
Ca1 O3 2.263638 1_555
Ca1 O7 2.265892 1_555
Ca1 O9 2.266032 1_555
Ca1 O1 2.273051 1_555
Ca1 O5 2.273327 1_555
Ca1 O11 2.278957 1_655
La0 O3 2.394897 1_555
La0 O1 2.410886 1_565
La0 O5 2.414690 1_455
La0 O11 2.631350 1_555
La0 O7 2.632652 1_555
La0 O9 2.637340 1_565
La0 O10 3.065457 1_554
La0 O6 3.069789 1_554
La0 O8 3.073667 1_554
La1 O2 2.403587 1_555
La1 O4 2.407941 1_555
La1 O0 2.410616 1_665
La1 O10 2.627906 1_555
La1 O8 2.633510 1_665
La1 O6 2.634278 1_655
La1 O11 3.070944 1_655
La1 O7 3.071511 1_555
La1 O9 3.077100 1_555
La2 O11 2.403585 1_555
La2 O9 2.407941 1_555
La2 O7 2.410616 1_445
La2 O3 2.627906 1_555
La2 O5 2.633512 1_445
La2 O1 2.634278 1_455
La2 O2 3.070952 1_455
La2 O0 3.071511 1_555
La2 O4 3.077100 1_555
La3 O10 2.394901 1_555
La3 O6 2.410880 1_545
La3 O8 2.414699 1_655
La3 O2 2.631345 1_555
La3 O0 2.632651 1_555
La3 O4 2.637338 1_545
La3 O3 3.065455 1_556
La3 O1 3.069788 1_556
La3 O5 3.073672 1_556
Co0 O9 1.904689 1_555
Co0 O4 1.904689 1_545
Co0 O7 1.909031 1_545
Co0 O0 1.909031 1_555
Co0 O11 1.911872 1_545
Co0 O2 1.911875 1_555
Co1 O8 1.899132 1_554
Co1 O5 1.899133 1_445
Co1 O1 1.902124 1_455
Co1 O6 1.902124 1_544
Co1 O10 1.922189 1_444
Co1 O3 1.922189 1_555
