# generated using pymatgen
data_RbAl(H2N)4
_symmetry_space_group_name_H-M   'P 1'
_cell_length_a   5.26676612
_cell_length_b   7.24689368
_cell_length_c   7.24689368
_cell_angle_alpha   90.00000000
_cell_angle_beta   90.00000000
_cell_angle_gamma   90.00000000
_symmetry_Int_Tables_number   1
_chemical_formula_structural   RbAl(H2N)4
_chemical_formula_sum   'Rb2 Al2 H16 N8'
_cell_volume   276.59722122
_cell_formula_units_Z   2
loop_
 _symmetry_equiv_pos_site_id
 _symmetry_equiv_pos_as_xyz
  1  'x, y, z'
loop_
 _atom_site_type_symbol
 _atom_site_label
 _atom_site_symmetry_multiplicity
 _atom_site_fract_x
 _atom_site_fract_y
 _atom_site_fract_z
 _atom_site_occupancy
  Rb  Rb0  1  0.23013224  0.75000000  0.75000000  1
  Rb  Rb1  1  0.76986776  0.25000000  0.25000000  1
  Al  Al0  1  -0.00000000  0.25000000  0.75000000  1
  Al  Al1  1  -0.00000000  0.75000000  0.25000000  1
  H  H0  1  0.39905287  0.56830861  0.21494761  1
  H  H1  1  0.39905287  0.93169139  0.28505239  1
  H  H2  1  0.39905287  0.21494761  0.93169139  1
  H  H3  1  0.39905287  0.28505239  0.56830861  1
  H  H4  1  0.60094713  0.43169139  0.78505239  1
  H  H5  1  0.60094713  0.06830861  0.71494761  1
  H  H6  1  0.60094713  0.78505239  0.06830861  1
  H  H7  1  0.60094713  0.71494761  0.43169139  1
  H  H8  1  0.19609940  0.46512063  0.07757962  1
  H  H9  1  0.19609940  0.03487937  0.42242038  1
  H  H10  1  0.19609940  0.07757962  0.03487937  1
  H  H11  1  0.19609940  0.42242038  0.46512063  1
  H  H12  1  0.80390060  0.53487937  0.92242038  1
  H  H13  1  0.80390060  0.96512063  0.57757962  1
  H  H14  1  0.80390060  0.92242038  0.96512063  1
  H  H15  1  0.80390060  0.57757962  0.53487937  1
  N  N0  1  0.22690012  0.58088237  0.15311970  1
  N  N1  1  0.22690012  0.91911763  0.34688030  1
  N  N2  1  0.22690012  0.15311970  0.91911763  1
  N  N3  1  0.22690012  0.34688030  0.58088237  1
  N  N4  1  0.77309988  0.41911763  0.84688030  1
  N  N5  1  0.77309988  0.08088237  0.65311970  1
  N  N6  1  0.77309988  0.84688030  0.08088237  1
  N  N7  1  0.77309988  0.65311970  0.41911763  1
loop_
_geom_bond_atom_site_label_1
_geom_bond_atom_site_label_2
_geom_bond_distance
_geom_bond_site_symmetry_2
Al0 N4 1.850150 1_455
Al0 N3 1.850150 1_555
Al0 N5 1.850150 1_455
Al0 N2 1.850150 1_555
Al1 N6 1.850150 1_455
Al1 N1 1.850150 1_555
Al1 N7 1.850150 1_455
Al1 N0 1.850150 1_555
H0 N0 1.015453 1_555
H0 Rb1 3.033118 1_555
H1 N1 1.015453 1_555
H1 Rb1 3.033118 1_565
H2 N2 1.015453 1_555
H2 Rb1 3.033118 1_556
H3 N3 1.015453 1_555
H3 Rb1 3.033118 1_555
H4 N4 1.015453 1_555
H4 Rb0 3.033118 1_555
H5 N5 1.015453 1_555
H5 Rb0 3.033118 1_545
H6 N6 1.015453 1_555
H6 Rb0 3.033118 1_554
H7 N7 1.015453 1_555
H7 Rb0 3.033118 1_555
H8 N0 1.014776 1_555
H8 Rb1 3.005168 1_455
H8 Rb0 3.151161 1_554
H9 N1 1.014776 1_545
H9 Rb1 3.005168 1_455
H9 Rb0 3.151161 1_545
H10 N2 1.014776 1_554
H10 Rb1 3.005168 1_455
H10 Rb0 3.151161 1_544
H11 N3 1.014776 1_555
H11 Rb1 3.005168 1_455
H11 Rb0 3.151161 1_555
H12 N4 1.014776 1_555
H12 Rb0 3.005168 1_655
H12 Rb1 3.151161 1_556
H13 N5 1.014776 1_565
H13 Rb0 3.005168 1_655
H13 Rb1 3.151161 1_565
H14 N6 1.014776 1_556
H14 Rb0 3.005168 1_655
H14 Rb1 3.151161 1_566
H15 N7 1.014776 1_555
H15 Rb0 3.005168 1_655
H15 Rb1 3.151161 1_555
N0 Rb0 3.168076 1_554
N1 Rb0 3.168076 1_555
N2 Rb0 3.168076 1_545
N3 Rb0 3.168076 1_555
N4 Rb1 3.168076 1_556
N5 Rb1 3.168076 1_555
N6 Rb1 3.168076 1_565
N7 Rb1 3.168076 1_555
