# generated using pymatgen
data_U8MnS17
_symmetry_space_group_name_H-M   'P 1'
_cell_length_a   7.94017886
_cell_length_b   7.94017886
_cell_length_c   10.53407115
_cell_angle_alpha   80.29740309
_cell_angle_beta   80.29740309
_cell_angle_gamma   64.15577510
_symmetry_Int_Tables_number   1
_chemical_formula_structural   U8MnS17
_chemical_formula_sum   'U8 Mn1 S17'
_cell_volume   585.76805242
_cell_formula_units_Z   1
loop_
 _symmetry_equiv_pos_site_id
 _symmetry_equiv_pos_as_xyz
  1  'x, y, z'
loop_
 _atom_site_type_symbol
 _atom_site_label
 _atom_site_symmetry_multiplicity
 _atom_site_fract_x
 _atom_site_fract_y
 _atom_site_fract_z
 _atom_site_occupancy
  U  U0  1  0.81328134  0.30118788  0.29617771  1
  U  U1  1  0.30118788  0.81328134  0.29617771  1
  U  U2  1  0.18671866  0.69881212  0.70382229  1
  U  U3  1  0.69881212  0.18671866  0.70382229  1
  U  U4  1  0.79445395  0.79445395  0.45735496  1
  U  U5  1  0.20554605  0.20554605  0.54264504  1
  U  U6  1  0.31603094  0.31603094  0.01874419  1
  U  U7  1  0.68396906  0.68396906  0.98125581  1
  Mn  Mn0  1  0.00000000  -0.00000000  0.00000000  1
  S  S0  1  0.17516467  0.56948557  0.46743025  1
  S  S1  1  0.56948557  0.17516467  0.46743025  1
  S  S2  1  0.82483533  0.43051443  0.53256975  1
  S  S3  1  0.43051443  0.82483533  0.53256975  1
  S  S4  1  0.94042173  0.32993133  0.03427241  1
  S  S5  1  0.32993133  0.94042173  0.03427241  1
  S  S6  1  0.05957827  0.67006867  0.96572759  1
  S  S7  1  0.67006867  0.05957827  0.96572759  1
  S  S8  1  0.94079914  0.94079914  0.23155072  1
  S  S9  1  0.05920086  0.05920086  0.76844928  1
  S  S10  1  0.79227214  0.79227214  0.72036954  1
  S  S11  1  0.20772786  0.20772786  0.27963046  1
  S  S12  1  0.69581740  0.69581740  0.24760505  1
  S  S13  1  0.30418260  0.30418260  0.75239495  1
  S  S14  1  0.47918712  0.47918712  0.17047266  1
  S  S15  1  0.52081288  0.52081288  0.82952734  1
  S  S16  1  0.00000000  -0.00000000  0.50000000  1
loop_
_geom_bond_atom_site_label_1
_geom_bond_atom_site_label_2
_geom_bond_distance
_geom_bond_site_symmetry_2
Mn0 S9 2.410640 1_554
Mn0 S8 2.410640 1_445
Mn0 S7 2.529384 1_454
Mn0 S6 2.529384 1_544
Mn0 S5 2.529384 1_545
Mn0 S4 2.529384 1_455
S0 U4 2.770651 1_455
S0 U5 2.778757 1_555
S0 U1 2.811792 1_555
S0 U2 2.878349 1_555
S1 U4 2.770651 1_545
S1 U5 2.778757 1_555
S1 U0 2.811792 1_555
S1 U3 2.878349 1_555
S2 U5 2.770651 1_655
S2 U4 2.778757 1_555
S2 U3 2.811792 1_555
S2 U0 2.878349 1_555
S3 U5 2.770651 1_565
S3 U4 2.778757 1_555
S3 U2 2.811792 1_555
S3 U1 2.878349 1_555
S4 U7 2.687788 1_554
S4 U0 2.780781 1_555
S4 U6 2.913474 1_655
S5 U7 2.687788 1_554
S5 U1 2.780781 1_555
S5 U6 2.913474 1_565
S6 U6 2.687788 1_556
S6 U2 2.780781 1_555
S6 U7 2.913474 1_455
S7 U6 2.687788 1_556
S7 U3 2.780781 1_555
S7 U7 2.913474 1_545
S8 U1 2.752337 1_655
S8 U0 2.752337 1_565
S8 U4 2.769902 1_555
S9 U3 2.752337 1_455
S9 U2 2.752337 1_545
S9 U5 2.769902 1_555
S10 U4 2.764925 1_555
S10 U7 2.843087 1_555
S10 U2 2.867678 1_655
S10 U3 2.867678 1_565
S11 U5 2.764925 1_555
S11 U6 2.843087 1_555
S11 U1 2.867678 1_545
S11 U0 2.867678 1_455
S12 U4 2.794660 1_555
S12 U0 2.832409 1_555
S12 U1 2.832409 1_555
S12 U7 2.841751 1_554
S13 U5 2.794660 1_555
S13 U2 2.832409 1_555
S13 U3 2.832409 1_555
S13 U6 2.841751 1_556
S14 U0 2.841229 1_555
S14 U1 2.841229 1_555
S14 U6 2.961469 1_555
S14 U7 3.062832 1_554
S15 U2 2.841229 1_555
S15 U3 2.841229 1_555
S15 U7 2.961469 1_555
S15 U6 3.062832 1_556
S16 U4 2.888892 1_445
S16 U5 2.888892 1_555
S16 U2 2.962802 1_545
S16 U3 2.962802 1_455
S16 U0 2.962802 1_455
S16 U1 2.962802 1_545
