# generated using pymatgen
data_Na5Gd4Si4O16F
_symmetry_space_group_name_H-M   'P 1'
_cell_length_a   8.78735706
_cell_length_b   8.78735706
_cell_length_c   8.78735706
_cell_angle_alpha   95.56819875
_cell_angle_beta   95.56819875
_cell_angle_gamma   143.70103784
_symmetry_Int_Tables_number   1
_chemical_formula_structural   Na5Gd4Si4O16F
_chemical_formula_sum   'Na5 Gd4 Si4 O16 F1'
_cell_volume   381.70867243
_cell_formula_units_Z   1
loop_
 _symmetry_equiv_pos_site_id
 _symmetry_equiv_pos_as_xyz
  1  'x, y, z'
loop_
 _atom_site_type_symbol
 _atom_site_label
 _atom_site_symmetry_multiplicity
 _atom_site_fract_x
 _atom_site_fract_y
 _atom_site_fract_z
 _atom_site_occupancy
  Na  Na0  1  0.09727300  0.40283900  0.48459900  1
  Na  Na1  1  0.91824100  0.61267500  0.51540100  1
  Na  Na2  1  0.38732500  0.90272700  0.30556600  1
  Na  Na3  1  0.59716100  0.08175900  0.69443400  1
  Na  Na4  1  0.50000000  0.50000000  0.00000000  1
  Gd  Gd0  1  0.13765300  0.83819000  0.93268000  1
  Gd  Gd1  1  0.90550900  0.20497300  0.06732000  1
  Gd  Gd2  1  0.79502700  0.86234700  0.70053600  1
  Gd  Gd3  1  0.16181000  0.09449100  0.29946400  1
  Si  Si0  1  0.24318100  0.59334000  0.85631100  1
  Si  Si1  1  0.73702900  0.38687000  0.14368900  1
  Si  Si2  1  0.61313000  0.75681900  0.35015900  1
  Si  Si3  1  0.40666000  0.26297100  0.64984100  1
  O  O0  1  0.12781900  0.62215200  0.72210500  1
  O  O1  1  0.90004700  0.40571400  0.27789500  1
  O  O2  1  0.59428600  0.87218100  0.49433300  1
  O  O3  1  0.37784800  0.09995300  0.50566700  1
  O  O4  1  0.54570900  0.78200100  0.85966700  1
  O  O5  1  0.92233400  0.68604200  0.14033300  1
  O  O6  1  0.31395800  0.45429100  0.23629200  1
  O  O7  1  0.21799900  0.07766600  0.76370800  1
  O  O8  1  0.03765700  0.27874700  0.82810300  1
  O  O9  1  0.45064500  0.20955500  0.17189700  1
  O  O10  1  0.79044500  0.96234300  0.24109000  1
  O  O11  1  0.72125300  0.54935500  0.75891000  1
  O  O12  1  0.23781300  0.67486600  0.03168400  1
  O  O13  1  0.64318200  0.20612900  0.96831600  1
  O  O14  1  0.79387100  0.76218700  0.43705300  1
  O  O15  1  0.32513400  0.35681800  0.56294700  1
  F  F0  1  0.00000000  0.00000000  0.00000000  1
loop_
_geom_bond_atom_site_label_1
_geom_bond_atom_site_label_2
_geom_bond_distance
_geom_bond_site_symmetry_2
Na0 O15 2.395502 1_555
Na0 O1 2.402516 1_455
Na0 O0 2.533534 1_555
Na0 O2 2.629929 1_555
Na0 O10 2.698530 1_445
Na0 O6 2.863736 1_555
Na0 O2 2.866460 1_445
Na1 O14 2.395501 1_555
Na1 O0 2.402516 1_655
Na1 O1 2.533534 1_555
Na1 O3 2.629924 1_665
Na1 O11 2.698533 1_555
Na1 O7 2.863733 1_665
Na1 O3 2.866465 1_555
Na2 O12 2.395504 1_555
Na2 O3 2.402510 1_565
Na2 O2 2.533540 1_555
Na2 O1 2.629927 1_455
Na2 O9 2.698530 1_565
Na2 O5 2.863728 1_455
Na2 O1 2.866463 1_565
Na3 O13 2.395504 1_555
Na3 O2 2.402510 1_545
Na3 O3 2.533540 1_555
Na3 O0 2.629927 1_545
Na3 O8 2.698528 1_655
Na3 O4 2.863728 1_545
Na3 O0 2.866463 1_655
Na4 O5 2.628209 1_555
Na4 O4 2.628209 1_554
Na4 O6 2.628209 1_555
Na4 O7 2.628209 1_554
Na4 O9 2.841618 1_555
Na4 O8 2.841621 1_554
Na4 O10 2.841624 1_555
Na4 O11 2.841624 1_554
Gd0 O11 2.314375 1_455
Gd0 O7 2.355093 1_565
Gd0 O9 2.390025 1_566
Gd0 O12 2.391874 1_556
Gd0 O5 2.400627 1_456
Gd0 O0 2.461344 1_555
Gd0 O13 2.582236 1_565
Gd1 O10 2.314377 1_545
Gd1 O6 2.355099 1_655
Gd1 O8 2.390025 1_654
Gd1 O13 2.391866 1_554
Gd1 O4 2.400627 1_544
Gd1 O1 2.461338 1_555
Gd1 O12 2.582235 1_655
Gd2 O8 2.314380 1_665
Gd2 O4 2.355099 1_555
Gd2 O11 2.390034 1_555
Gd2 O14 2.391866 1_555
Gd2 O7 2.400627 1_665
Gd2 O2 2.461338 1_555
Gd2 O15 2.582235 1_555
Gd3 O9 2.314390 1_555
Gd3 O5 2.355103 1_445
Gd3 O10 2.390025 1_445
Gd3 O15 2.391863 1_555
Gd3 O6 2.400622 1_555
Gd3 O3 2.461344 1_555
Gd3 O14 2.582232 1_445
O0 Si0 1.649900 1_555
O1 Si1 1.649900 1_555
O2 Si2 1.649900 1_555
O3 Si3 1.649900 1_555
O4 Si0 1.639477 1_555
O5 Si1 1.639477 1_555
O6 Si2 1.639477 1_555
O7 Si3 1.639477 1_555
O8 Si0 1.642534 1_555
O9 Si1 1.642530 1_555
O10 Si2 1.642533 1_555
O11 Si3 1.642533 1_555
O12 Si0 1.656703 1_554
O13 Si1 1.656703 1_556
O14 Si2 1.656703 1_555
O15 Si3 1.656703 1_555
F0 Gd0 2.565691 1_544
F0 Gd3 2.565698 1_555
F0 Gd2 2.565699 1_444
F0 Gd1 2.565699 1_455
F0 Na4 2.737237 1_555
F0 Na4 2.737237 1_445
