# generated using pymatgen
data_Zn4(MoO4)3
_symmetry_space_group_name_H-M   'P 1'
_cell_length_a   5.25305400
_cell_length_b   10.88097200
_cell_length_c   17.47194500
_cell_angle_alpha   90.00000000
_cell_angle_beta   90.00000000
_cell_angle_gamma   90.00000000
_symmetry_Int_Tables_number   1
_chemical_formula_structural   Zn4(MoO4)3
_chemical_formula_sum   'Zn16 Mo12 O48'
_cell_volume   998.66725900
_cell_formula_units_Z   4
loop_
 _symmetry_equiv_pos_site_id
 _symmetry_equiv_pos_as_xyz
  1  'x, y, z'
loop_
 _atom_site_type_symbol
 _atom_site_label
 _atom_site_symmetry_multiplicity
 _atom_site_fract_x
 _atom_site_fract_y
 _atom_site_fract_z
 _atom_site_occupancy
  Zn  Zn0  1  0.24453500  0.25000000  0.69874200  1
  Zn  Zn1  1  0.75546500  0.75000000  0.30125800  1
  Zn  Zn2  1  0.25546500  0.75000000  0.19874200  1
  Zn  Zn3  1  0.74453500  0.25000000  0.80125800  1
  Zn  Zn4  1  0.22864100  0.07499300  0.52801200  1
  Zn  Zn5  1  0.77135900  0.92500700  0.47198800  1
  Zn  Zn6  1  0.27135900  0.92500700  0.02801200  1
  Zn  Zn7  1  0.77135900  0.57499300  0.47198800  1
  Zn  Zn8  1  0.72864100  0.07499300  0.97198800  1
  Zn  Zn9  1  0.22864100  0.42500700  0.52801200  1
  Zn  Zn10  1  0.72864100  0.42500700  0.97198800  1
  Zn  Zn11  1  0.27135900  0.57499300  0.02801200  1
  Zn  Zn12  1  0.09449500  0.25000000  0.25049100  1
  Zn  Zn13  1  0.90550500  0.75000000  0.74950900  1
  Zn  Zn14  1  0.40550500  0.75000000  0.75049100  1
  Zn  Zn15  1  0.59449500  0.25000000  0.24950900  1
  Mo  Mo0  1  0.27210600  0.25000000  0.05529900  1
  Mo  Mo1  1  0.72789400  0.75000000  0.94470100  1
  Mo  Mo2  1  0.22789400  0.75000000  0.55529900  1
  Mo  Mo3  1  0.77210600  0.25000000  0.44470100  1
  Mo  Mo4  1  0.30216800  0.53136000  0.33753900  1
  Mo  Mo5  1  0.69783200  0.46864000  0.66246100  1
  Mo  Mo6  1  0.19783200  0.46864000  0.83753900  1
  Mo  Mo7  1  0.69783200  0.03136000  0.66246100  1
  Mo  Mo8  1  0.80216800  0.53136000  0.16246100  1
  Mo  Mo9  1  0.30216800  0.96864000  0.33753900  1
  Mo  Mo10  1  0.80216800  0.96864000  0.16246100  1
  Mo  Mo11  1  0.19783200  0.03136000  0.83753900  1
  O  O0  1  0.09742300  0.00377300  0.42554000  1
  O  O1  1  0.90257700  0.99622700  0.57446000  1
  O  O2  1  0.40257700  0.99622700  0.92554000  1
  O  O3  1  0.90257700  0.50377300  0.57446000  1
  O  O4  1  0.59742300  0.00377300  0.07446000  1
  O  O5  1  0.09742300  0.49622700  0.42554000  1
  O  O6  1  0.59742300  0.49622700  0.07446000  1
  O  O7  1  0.40257700  0.50377300  0.92554000  1
  O  O8  1  0.06330600  0.62630100  0.27917000  1
  O  O9  1  0.93669400  0.37369900  0.72083000  1
  O  O10  1  0.43669400  0.37369900  0.77917000  1
  O  O11  1  0.93669400  0.12630100  0.72083000  1
  O  O12  1  0.56330600  0.62630100  0.22083000  1
  O  O13  1  0.06330600  0.87369900  0.27917000  1
  O  O14  1  0.56330600  0.87369900  0.22083000  1
  O  O15  1  0.43669400  0.12630100  0.77917000  1
  O  O16  1  0.07968300  0.11676800  0.03804500  1
  O  O17  1  0.92031700  0.88323200  0.96195500  1
  O  O18  1  0.42031700  0.88323200  0.53804500  1
  O  O19  1  0.92031700  0.61676800  0.96195500  1
  O  O20  1  0.57968300  0.11676800  0.46195500  1
  O  O21  1  0.07968300  0.38323200  0.03804500  1
  O  O22  1  0.57968300  0.38323200  0.46195500  1
  O  O23  1  0.42031700  0.61676800  0.53804500  1
  O  O24  1  0.34990500  0.25000000  0.15530000  1
  O  O25  1  0.65009500  0.75000000  0.84470000  1
  O  O26  1  0.15009500  0.75000000  0.65530000  1
  O  O27  1  0.84990500  0.25000000  0.34470000  1
  O  O28  1  0.34148600  0.12048100  0.29209000  1
  O  O29  1  0.65851400  0.87951900  0.70791000  1
  O  O30  1  0.15851400  0.87951900  0.79209000  1
  O  O31  1  0.65851400  0.62048100  0.70791000  1
  O  O32  1  0.84148600  0.12048100  0.20791000  1
  O  O33  1  0.34148600  0.37951900  0.29209000  1
  O  O34  1  0.84148600  0.37951900  0.20791000  1
  O  O35  1  0.15851400  0.62048100  0.79209000  1
  O  O36  1  0.05502500  0.25000000  0.50552100  1
  O  O37  1  0.94497500  0.75000000  0.49447900  1
  O  O38  1  0.44497500  0.75000000  0.00552100  1
  O  O39  1  0.55502500  0.25000000  0.99447900  1
  O  O40  1  0.06862700  0.62334000  0.12092500  1
  O  O41  1  0.93137300  0.37666000  0.87907500  1
  O  O42  1  0.43137300  0.37666000  0.62092500  1
  O  O43  1  0.93137300  0.12334000  0.87907500  1
  O  O44  1  0.56862700  0.62334000  0.37907500  1
  O  O45  1  0.06862700  0.87666000  0.12092500  1
  O  O46  1  0.56862700  0.87666000  0.37907500  1
  O  O47  1  0.43137300  0.12334000  0.62092500  1
loop_
_geom_bond_atom_site_label_1
_geom_bond_atom_site_label_2
_geom_bond_distance
_geom_bond_site_symmetry_2
Mo0 O21 1.792826 1_555
Mo0 O16 1.792826 1_555
Mo0 O24 1.794372 1_555
Mo0 O39 1.827011 1_554
Mo1 O17 1.792826 1_555
Mo1 O19 1.792826 1_555
Mo1 O25 1.794372 1_555
Mo1 O38 1.827011 1_556
Mo2 O18 1.792826 1_555
Mo2 O23 1.792826 1_555
Mo2 O26 1.794372 1_555
Mo2 O37 1.827011 1_455
Mo3 O22 1.792826 1_555
Mo3 O20 1.792826 1_555
Mo3 O27 1.794372 1_555
Mo3 O36 1.827011 1_655
Mo4 O33 1.844700 1_555
Mo4 O44 1.867499 1_555
Mo4 O5 1.914934 1_555
Mo4 O8 1.918759 1_555
Mo5 O31 1.844700 1_555
Mo5 O42 1.867499 1_555
Mo5 O3 1.914934 1_555
Mo5 O9 1.918759 1_555
Mo6 O35 1.844700 1_555
Mo6 O41 1.867499 1_455
Mo6 O7 1.914934 1_555
Mo6 O10 1.918759 1_555
Mo7 O29 1.844700 1_545
Mo7 O47 1.867499 1_555
Mo7 O1 1.914934 1_545
Mo7 O11 1.918759 1_555
Mo8 O34 1.844700 1_555
Mo8 O40 1.867499 1_655
Mo8 O6 1.914934 1_555
Mo8 O12 1.918759 1_555
Mo9 O28 1.844700 1_565
Mo9 O46 1.867499 1_555
Mo9 O0 1.914934 1_565
Mo9 O13 1.918759 1_555
Mo10 O32 1.844700 1_565
Mo10 O45 1.867499 1_655
Mo10 O4 1.914934 1_565
Mo10 O14 1.918759 1_555
Mo11 O30 1.844700 1_545
Mo11 O43 1.867499 1_455
Mo11 O2 1.914934 1_545
Mo11 O15 1.918759 1_555
O0 Zn4 2.069092 1_555
O0 Zn5 2.080125 1_445
O1 Zn5 2.069092 1_555
O1 Zn4 2.080125 1_665
O2 Zn6 2.069092 1_556
O2 Zn8 2.080125 1_565
O3 Zn7 2.069092 1_555
O3 Zn9 2.080125 1_655
O4 Zn8 2.069092 1_554
O4 Zn6 2.080125 1_545
O5 Zn9 2.069092 1_555
O5 Zn7 2.080125 1_455
O6 Zn10 2.069092 1_554
O6 Zn11 2.080125 1_555
O7 Zn11 2.069092 1_556
O7 Zn10 2.080125 1_555
O8 Zn1 2.139062 1_455
O8 Zn2 2.192085 1_555
O9 Zn0 2.139062 1_655
O9 Zn3 2.192085 1_555
O10 Zn3 2.139062 1_555
O10 Zn0 2.192085 1_555
O11 Zn0 2.139062 1_655
O11 Zn3 2.192085 1_555
O12 Zn2 2.139062 1_555
O12 Zn1 2.192085 1_555
O13 Zn1 2.139062 1_455
O13 Zn2 2.192085 1_555
O14 Zn2 2.139062 1_555
O14 Zn1 2.192085 1_555
O15 Zn3 2.139062 1_555
O15 Zn0 2.192085 1_555
O16 Zn8 2.222422 1_454
O16 Zn6 2.323407 1_545
O17 Zn6 2.222422 1_656
O17 Zn8 2.323407 1_565
O18 Zn5 2.222422 1_555
O18 Zn4 2.323407 1_565
O19 Zn11 2.222422 1_656
O19 Zn10 2.323407 1_555
O20 Zn4 2.222422 1_555
O20 Zn5 2.323407 1_545
O21 Zn10 2.222422 1_454
O21 Zn11 2.323407 1_555
O22 Zn9 2.222422 1_555
O22 Zn7 2.323407 1_555
O23 Zn7 2.222422 1_555
O23 Zn9 2.323407 1_555
O24 Zn15 2.088107 1_555
O24 Zn12 2.136879 1_555
O25 Zn14 2.088107 1_555
O25 Zn13 2.136879 1_555
O26 Zn13 2.088107 1_455
O26 Zn14 2.136879 1_555
O27 Zn12 2.088107 1_655
O27 Zn15 2.136879 1_555
O28 Zn12 2.048844 1_555
O28 Zn15 2.075097 1_555
O29 Zn13 2.048844 1_555
O29 Zn14 2.075097 1_555
O30 Zn14 2.048844 1_555
O30 Zn13 2.075097 1_455
O31 Zn13 2.048844 1_555
O31 Zn14 2.075097 1_555
O32 Zn15 2.048844 1_555
O32 Zn12 2.075097 1_655
O33 Zn12 2.048844 1_555
O33 Zn15 2.075097 1_555
O34 Zn15 2.048844 1_555
O34 Zn12 2.075097 1_655
O35 Zn14 2.048844 1_555
O35 Zn13 2.075097 1_455
O36 Zn9 2.147637 1_555
O36 Zn4 2.147637 1_555
O37 Zn5 2.147637 1_555
O37 Zn7 2.147637 1_555
O38 Zn6 2.147637 1_555
O38 Zn11 2.147637 1_555
O39 Zn10 2.147637 1_555
O39 Zn8 2.147637 1_555
O40 Zn11 2.011522 1_555
O40 Zn2 2.170536 1_555
O41 Zn10 2.011522 1_555
O41 Zn3 2.170536 1_555
O42 Zn9 2.011522 1_555
O42 Zn0 2.170536 1_555
O43 Zn8 2.011522 1_555
O43 Zn3 2.170536 1_555
O44 Zn7 2.011522 1_555
O44 Zn1 2.170536 1_555
O45 Zn6 2.011522 1_555
O45 Zn2 2.170536 1_555
O46 Zn5 2.011522 1_555
O46 Zn1 2.170536 1_555
O47 Zn4 2.011522 1_555
O47 Zn0 2.170536 1_555
