# generated using pymatgen
data_Dy(PO)2
_symmetry_space_group_name_H-M   'P 1'
_cell_length_a   8.88689172
_cell_length_b   8.88689172
_cell_length_c   8.88689172
_cell_angle_alpha   134.03562328
_cell_angle_beta   134.03562328
_cell_angle_gamma   67.03237329
_symmetry_Int_Tables_number   1
_chemical_formula_structural   Dy(PO)2
_chemical_formula_sum   'Dy4 P8 O8'
_cell_volume   356.82447518
_cell_formula_units_Z   4
loop_
 _symmetry_equiv_pos_site_id
 _symmetry_equiv_pos_as_xyz
  1  'x, y, z'
loop_
 _atom_site_type_symbol
 _atom_site_label
 _atom_site_symmetry_multiplicity
 _atom_site_fract_x
 _atom_site_fract_y
 _atom_site_fract_z
 _atom_site_occupancy
  Dy  Dy0  1  0.87500000  0.12500000  0.25000000  1
  Dy  Dy1  1  0.87500000  0.62500000  0.75000000  1
  Dy  Dy2  1  0.37500000  0.12500000  0.25000000  1
  Dy  Dy3  1  0.87500000  0.12500000  0.75000000  1
  P  P0  1  0.62271100  0.46264500  0.83993400  1
  P  P1  1  0.62271100  0.78277600  0.16006600  1
  P  P2  1  0.53277600  0.87271100  0.66006600  1
  P  P3  1  0.12728900  0.46722400  0.33993400  1
  P  P4  1  0.12728900  0.78735500  0.66006600  1
  P  P5  1  0.21264500  0.87271100  0.33993400  1
  P  P6  1  0.21722400  0.37728900  0.83993400  1
  P  P7  1  0.53735500  0.37728900  0.16006600  1
  O  O0  1  0.72723700  0.51449200  0.78725500  1
  O  O1  1  0.72723700  0.93998200  0.21274500  1
  O  O2  1  0.68998200  0.97723700  0.71274500  1
  O  O3  1  0.02276300  0.31001800  0.28725500  1
  O  O4  1  0.02276300  0.73550800  0.71274500  1
  O  O5  1  0.26449200  0.97723700  0.28725500  1
  O  O6  1  0.06001800  0.27276300  0.78725500  1
  O  O7  1  0.48550800  0.27276300  0.21274500  1
loop_
_geom_bond_atom_site_label_1
_geom_bond_atom_site_label_2
_geom_bond_distance
_geom_bond_site_symmetry_2
Dy0 O3 2.204841 1_655
Dy0 O1 2.204841 1_545
Dy1 O0 2.204841 1_555
Dy1 O4 2.204841 1_655
Dy2 O7 2.204841 1_555
Dy2 O5 2.204841 1_545
Dy3 O6 2.204841 1_655
Dy3 O2 2.204841 1_545
O0 P0 1.591479 1_555
O1 P1 1.591487 1_555
O2 P2 1.591487 1_555
O3 P3 1.591487 1_555
O4 P4 1.591479 1_555
O5 P5 1.591479 1_555
O6 P6 1.591487 1_555
O7 P7 1.591479 1_555
