# generated using pymatgen
data_PuReB4
_symmetry_space_group_name_H-M   'P 1'
_cell_length_a   3.61399156
_cell_length_b   5.98853096
_cell_length_c   11.59584161
_cell_angle_alpha   90.00000000
_cell_angle_beta   90.00000000
_cell_angle_gamma   90.00000000
_symmetry_Int_Tables_number   1
_chemical_formula_structural   PuReB4
_chemical_formula_sum   'Pu4 Re4 B16'
_cell_volume   250.96300606
_cell_formula_units_Z   4
loop_
 _symmetry_equiv_pos_site_id
 _symmetry_equiv_pos_as_xyz
  1  'x, y, z'
loop_
 _atom_site_type_symbol
 _atom_site_label
 _atom_site_symmetry_multiplicity
 _atom_site_fract_x
 _atom_site_fract_y
 _atom_site_fract_z
 _atom_site_occupancy
  Pu  Pu0  1  0.00000000  0.62538236  0.34977917  1
  Pu  Pu1  1  -0.00000000  0.37461764  0.65022083  1
  Pu  Pu2  1  -0.00000000  0.12538236  0.15022083  1
  Pu  Pu3  1  0.00000000  0.87461764  0.84977917  1
  Re  Re0  1  -0.00000000  0.63260962  0.09105457  1
  Re  Re1  1  -0.00000000  0.36739038  0.90894543  1
  Re  Re2  1  -0.00000000  0.13260962  0.40894543  1
  Re  Re3  1  0.00000000  0.86739038  0.59105457  1
  B  B0  1  0.50000000  0.78750566  0.18534529  1
  B  B1  1  0.50000000  0.21249434  0.81465471  1
  B  B2  1  0.50000000  0.28750566  0.31465471  1
  B  B3  1  0.50000000  0.71249434  0.68534529  1
  B  B4  1  0.50000000  0.86302303  0.03115742  1
  B  B5  1  0.50000000  0.13697697  0.96884258  1
  B  B6  1  0.50000000  0.36302303  0.46884258  1
  B  B7  1  0.50000000  0.63697697  0.53115742  1
  B  B8  1  0.50000000  0.88677728  0.45317462  1
  B  B9  1  0.50000000  0.11322272  0.54682538  1
  B  B10  1  0.50000000  0.38677728  0.04682538  1
  B  B11  1  0.50000000  0.61322272  0.95317462  1
  B  B12  1  0.50000000  0.97581023  0.30851282  1
  B  B13  1  0.50000000  0.02418977  0.69148718  1
  B  B14  1  0.50000000  0.47581023  0.19148718  1
  B  B15  1  0.50000000  0.52418977  0.80851282  1
loop_
_geom_bond_atom_site_label_1
_geom_bond_atom_site_label_2
_geom_bond_distance
_geom_bond_site_symmetry_2
Pu0 Re0 3.000442 1_555
Pu0 Re2 3.029690 1_555
Pu0 Re2 3.114064 1_565
Pu0 Re3 3.150877 1_555
Pu1 Re1 3.000442 1_555
Pu1 Re3 3.029690 1_555
Pu1 Re3 3.114064 1_545
Pu1 Re2 3.150877 1_555
Pu2 Re2 3.000442 1_555
Pu2 Re0 3.029690 1_545
Pu2 Re0 3.114064 1_555
Pu2 Re1 3.150877 1_554
Pu3 Re3 3.000442 1_555
Pu3 Re1 3.029690 1_565
Pu3 Re1 3.114064 1_555
Pu3 Re0 3.150877 1_556
Re0 Re1 2.642334 1_554
Re2 Re3 2.642334 1_545
B0 B12 1.819747 1_555
B0 B4 1.844246 1_555
B0 B14 1.867956 1_555
B0 Re0 2.306763 1_555
B0 Re0 2.306763 1_655
B0 Pu2 2.743212 1_565
B0 Pu2 2.743212 1_665
B0 Pu0 2.800631 1_555
B0 Pu0 2.800631 1_655
B1 B13 1.819747 1_555
B1 B5 1.844246 1_555
B1 B15 1.867956 1_555
B1 Re1 2.306763 1_655
B1 Re1 2.306763 1_555
B1 Pu3 2.743212 1_645
B1 Pu3 2.743212 1_545
B1 Pu1 2.800631 1_655
B1 Pu1 2.800631 1_555
B2 B6 1.844246 1_555
B2 Re2 2.306763 1_655
B2 Re2 2.306763 1_555
B2 Pu0 2.743212 1_555
B2 Pu0 2.743212 1_655
B2 Pu2 2.800631 1_555
B2 Pu2 2.800631 1_655
B3 B7 1.844246 1_555
B3 Re3 2.306763 1_555
B3 Re3 2.306763 1_655
B3 Pu1 2.743212 1_555
B3 Pu1 2.743212 1_655
B3 Pu3 2.800631 1_555
B3 Pu3 2.800631 1_655
B4 B5 1.792665 1_564
B4 Re0 2.377309 1_655
B4 Re0 2.377309 1_555
B4 Pu2 2.764038 1_565
B4 Pu2 2.764038 1_665
B4 Pu3 2.773742 1_554
B4 Pu3 2.773742 1_654
B5 Re1 2.377309 1_655
B5 Re1 2.377309 1_555
B5 Pu3 2.764038 1_545
B5 Pu3 2.764038 1_645
B5 Pu2 2.773742 1_556
B5 Pu2 2.773742 1_656
B6 B9 1.748011 1_555
B6 B7 1.792665 1_555
B6 Re2 2.377309 1_555
B6 Re2 2.377309 1_655
B6 Pu0 2.764038 1_555
B6 Pu0 2.764038 1_655
B6 Pu1 2.773742 1_655
B6 Pu1 2.773742 1_555
B7 B8 1.748011 1_555
B7 Re3 2.377309 1_555
B7 Re3 2.377309 1_655
B7 Pu1 2.764038 1_655
B7 Pu1 2.764038 1_555
B7 Pu0 2.773742 1_555
B7 Pu0 2.773742 1_655
B8 B9 1.737311 1_565
B8 Re2 2.386540 1_565
B8 Re2 2.386540 1_665
B8 Re3 2.415571 1_555
B8 Re3 2.415571 1_655
B8 Pu0 2.674532 1_655
B8 Pu0 2.674532 1_555
B9 Re3 2.386540 1_645
B9 Re3 2.386540 1_545
B9 Re2 2.415571 1_655
B9 Re2 2.415571 1_555
B9 Pu1 2.674532 1_555
B9 Pu1 2.674532 1_655
B10 B11 1.737311 1_554
B10 B5 1.748011 1_554
B10 B14 1.760171 1_555
B10 Re0 2.386540 1_555
B10 Re0 2.386540 1_655
B10 Re1 2.415571 1_554
B10 Re1 2.415571 1_654
B10 Pu2 2.674532 1_655
B10 Pu2 2.674532 1_555
B11 B4 1.748011 1_556
B11 B15 1.760171 1_555
B11 Re1 2.386540 1_655
B11 Re1 2.386540 1_555
B11 Re0 2.415571 1_556
B11 Re0 2.415571 1_656
B11 Pu3 2.674532 1_555
B11 Pu3 2.674532 1_655
B12 B8 1.760171 1_555
B12 B2 1.867956 1_565
B12 Re2 2.345900 1_665
B12 Re2 2.345900 1_565
B12 Pu2 2.727033 1_565
B12 Pu2 2.727033 1_665
B12 Pu0 2.810359 1_655
B12 Pu0 2.810359 1_555
B13 B9 1.760171 1_555
B13 B3 1.867956 1_545
B13 Re3 2.345900 1_645
B13 Re3 2.345900 1_545
B13 Pu3 2.727033 1_645
B13 Pu3 2.727033 1_545
B13 Pu1 2.810359 1_655
B13 Pu1 2.810359 1_555
B14 B2 1.819747 1_555
B14 Re0 2.345900 1_655
B14 Re0 2.345900 1_555
B14 Pu0 2.727033 1_555
B14 Pu0 2.727033 1_655
B14 Pu2 2.810359 1_555
B14 Pu2 2.810359 1_655
B15 B3 1.819747 1_555
B15 Re1 2.345900 1_555
B15 Re1 2.345900 1_655
B15 Pu1 2.727033 1_555
B15 Pu1 2.727033 1_655
B15 Pu3 2.810359 1_555
B15 Pu3 2.810359 1_655
