# generated using pymatgen
data_CaRe3H9(S2O3)2
_symmetry_space_group_name_H-M   'P 1'
_cell_length_a   8.97424822
_cell_length_b   8.97424822
_cell_length_c   9.09907400
_cell_angle_alpha   90.00000000
_cell_angle_beta   90.00000000
_cell_angle_gamma   120.00000161
_symmetry_Int_Tables_number   1
_chemical_formula_structural   CaRe3H9(S2O3)2
_chemical_formula_sum   'Ca2 Re6 H18 S8 O12'
_cell_volume   634.63493715
_cell_formula_units_Z   2
loop_
 _symmetry_equiv_pos_site_id
 _symmetry_equiv_pos_as_xyz
  1  'x, y, z'
loop_
 _atom_site_type_symbol
 _atom_site_label
 _atom_site_symmetry_multiplicity
 _atom_site_fract_x
 _atom_site_fract_y
 _atom_site_fract_z
 _atom_site_occupancy
  Ca  Ca0  1  0.33333300  0.66666700  0.66870700  1
  Ca  Ca1  1  0.66666700  0.33333300  0.33129300  1
  Re  Re0  1  0.05657200  0.18958600  0.88349700  1
  Re  Re1  1  0.81041400  0.86698600  0.88349700  1
  Re  Re2  1  0.13301400  0.94342800  0.88349700  1
  Re  Re3  1  0.94342800  0.81041400  0.11650300  1
  Re  Re4  1  0.18958600  0.13301400  0.11650300  1
  Re  Re5  1  0.86698600  0.05657200  0.11650300  1
  H  H0  1  0.02394700  0.37157300  0.68509000  1
  H  H1  1  0.62842700  0.65237400  0.68509000  1
  H  H2  1  0.34762600  0.97605300  0.68509000  1
  H  H3  1  0.97605300  0.62842700  0.31491000  1
  H  H4  1  0.37157300  0.34762600  0.31491000  1
  H  H5  1  0.65237400  0.02394700  0.31491000  1
  H  H6  1  0.66231500  0.82880700  0.48256800  1
  H  H7  1  0.17119300  0.83350900  0.48256800  1
  H  H8  1  0.16649100  0.33768500  0.48256800  1
  H  H9  1  0.33768500  0.17119300  0.51743200  1
  H  H10  1  0.82880700  0.16649100  0.51743200  1
  H  H11  1  0.83350900  0.66231500  0.51743200  1
  H  H12  1  0.53385000  0.77079600  0.35354600  1
  H  H13  1  0.22920400  0.76305400  0.35354600  1
  H  H14  1  0.23694600  0.46615000  0.35354600  1
  H  H15  1  0.46615000  0.22920400  0.64645400  1
  H  H16  1  0.77079600  0.23694600  0.64645400  1
  H  H17  1  0.76305400  0.53385000  0.64645400  1
  S  S0  1  0.00000000  0.00000000  0.67484700  1
  S  S1  1  0.00000000  0.00000000  0.32515300  1
  S  S2  1  0.75179500  0.10334400  0.88976700  1
  S  S3  1  0.89665600  0.64845100  0.88976700  1
  S  S4  1  0.35154900  0.24820500  0.88976700  1
  S  S5  1  0.24820500  0.89665600  0.11023300  1
  S  S6  1  0.10334400  0.35154900  0.11023300  1
  S  S7  1  0.64845100  0.75179500  0.11023300  1
  O  O0  1  0.12248800  0.40537900  0.75018900  1
  O  O1  1  0.59462100  0.71710900  0.75018900  1
  O  O2  1  0.28289100  0.87751200  0.75018900  1
  O  O3  1  0.87751200  0.59462100  0.24981100  1
  O  O4  1  0.40537900  0.28289100  0.24981100  1
  O  O5  1  0.71710900  0.12248800  0.24981100  1
  O  O6  1  0.55337100  0.82028500  0.45302200  1
  O  O7  1  0.17971500  0.73308600  0.45302200  1
  O  O8  1  0.26691400  0.44662900  0.45302200  1
  O  O9  1  0.44662900  0.17971500  0.54697800  1
  O  O10  1  0.82028500  0.26691400  0.54697800  1
  O  O11  1  0.73308600  0.55337100  0.54697800  1
loop_
_geom_bond_atom_site_label_1
_geom_bond_atom_site_label_2
_geom_bond_distance
_geom_bond_site_symmetry_2
Ca0 O2 2.278483 1_555
Ca0 O0 2.278488 1_555
Ca0 O1 2.278491 1_555
Ca0 O7 2.632321 1_555
Ca0 O6 2.632325 1_555
Ca0 O8 2.632327 1_555
Ca1 O5 2.278483 1_555
Ca1 O3 2.278488 1_555
Ca1 O4 2.278491 1_555
Ca1 O10 2.632321 1_555
Ca1 O9 2.632325 1_555
Ca1 O11 2.632327 1_555
Re0 S0 2.427568 1_555
Re0 S4 2.427974 1_555
Re0 S6 2.436200 1_556
Re0 S2 2.442621 1_455
Re1 S0 2.427568 1_665
Re1 S2 2.427974 1_565
Re1 S7 2.436200 1_556
Re1 S3 2.442621 1_555
Re2 S0 2.427568 1_565
Re2 S3 2.427974 1_455
Re2 S5 2.436200 1_556
Re2 S4 2.442620 1_565
Re3 S1 2.427568 1_665
Re3 S7 2.427974 1_555
Re3 S3 2.436200 1_554
Re3 S5 2.442621 1_655
Re4 S1 2.427568 1_555
Re4 S5 2.427974 1_545
Re4 S4 2.436200 1_554
Re4 S6 2.442621 1_555
Re5 S1 2.427568 1_655
Re5 S6 2.427974 1_655
Re5 S2 2.436200 1_554
Re5 S7 2.442620 1_545
H0 O0 0.978090 1_555
H1 O1 0.978090 1_555
H2 O2 0.978090 1_555
H3 O3 0.978090 1_555
H4 O4 0.978090 1_555
H5 O5 0.978090 1_555
H6 O6 0.979403 1_555
H7 O7 0.979412 1_555
H8 O8 0.979407 1_555
H9 O9 0.979403 1_555
H10 O10 0.979412 1_555
H11 O11 0.979407 1_555
H12 O6 0.984587 1_555
H13 O7 0.984587 1_555
H14 O8 0.984587 1_555
H15 O9 0.984587 1_555
H16 O10 0.984587 1_555
H17 O11 0.984587 1_555
O0 Re0 2.103809 1_555
O1 Re1 2.103809 1_555
O2 Re2 2.103809 1_555
O3 Re3 2.103809 1_555
O4 Re4 2.103809 1_555
O5 Re5 2.103809 1_555
