# generated using pymatgen
data_NaNiN
_symmetry_space_group_name_H-M   'P 1'
_cell_length_a   3.44177700
_cell_length_b   5.74261700
_cell_length_c   8.87062300
_cell_angle_alpha   90.00000000
_cell_angle_beta   90.00000000
_cell_angle_gamma   90.00000000
_symmetry_Int_Tables_number   1
_chemical_formula_structural   NaNiN
_chemical_formula_sum   'Na4 Ni4 N4'
_cell_volume   175.32615254
_cell_formula_units_Z   4
loop_
 _symmetry_equiv_pos_site_id
 _symmetry_equiv_pos_as_xyz
  1  'x, y, z'
loop_
 _atom_site_type_symbol
 _atom_site_label
 _atom_site_symmetry_multiplicity
 _atom_site_fract_x
 _atom_site_fract_y
 _atom_site_fract_z
 _atom_site_occupancy
  Na  Na0  1  0.25000000  0.06720400  0.66295600  1
  Na  Na1  1  0.25000000  0.43279600  0.16295600  1
  Na  Na2  1  0.75000000  0.93279600  0.33704400  1
  Na  Na3  1  0.75000000  0.56720400  0.83704400  1
  Ni  Ni0  1  0.25000000  0.61168900  0.55085100  1
  Ni  Ni1  1  0.25000000  0.88831100  0.05085100  1
  Ni  Ni2  1  0.75000000  0.38831100  0.44914900  1
  Ni  Ni3  1  0.75000000  0.11168900  0.94914900  1
  N  N0  1  0.25000000  0.19443600  0.93055800  1
  N  N1  1  0.25000000  0.30556400  0.43055800  1
  N  N2  1  0.75000000  0.80556400  0.06944200  1
  N  N3  1  0.75000000  0.69443600  0.56944200  1
loop_
_geom_bond_atom_site_label_1
_geom_bond_atom_site_label_2
_geom_bond_distance
_geom_bond_site_symmetry_2
N0 Ni3 1.792890 1_555
N0 Ni3 1.792890 1_455
N0 Ni1 2.056469 1_546
N0 Na1 2.474568 1_556
N0 Na0 2.483697 1_555
N0 Na3 2.869149 1_555
N0 Na3 2.869149 1_455
N1 Ni2 1.792890 1_555
N1 Ni2 1.792890 1_455
N1 Ni0 2.056469 1_555
N1 Na0 2.474568 1_555
N1 Na1 2.483697 1_555
N1 Na2 2.869149 1_445
N1 Na2 2.869149 1_545
N2 Ni1 1.792890 1_655
N2 Ni1 1.792890 1_555
N2 Ni3 2.056469 1_564
N2 Na3 2.474568 1_554
N2 Na2 2.483697 1_555
N2 Na1 2.869149 1_555
N2 Na1 2.869149 1_655
N3 Ni0 1.792890 1_655
N3 Ni0 1.792890 1_555
N3 Ni2 2.056469 1_555
N3 Na2 2.474568 1_555
N3 Na3 2.483697 1_555
N3 Na0 2.869149 1_565
N3 Na0 2.869149 1_665
