# generated using pymatgen
data_Nd4Re2O11
_symmetry_space_group_name_H-M   'P 1'
_cell_length_a   12.73128885
_cell_length_b   12.73128885
_cell_length_c   5.62189370
_cell_angle_alpha   90.00000000
_cell_angle_beta   90.00000000
_cell_angle_gamma   90.00000000
_symmetry_Int_Tables_number   1
_chemical_formula_structural   Nd4Re2O11
_chemical_formula_sum   'Nd16 Re8 O44'
_cell_volume   911.22866442
_cell_formula_units_Z   4
loop_
 _symmetry_equiv_pos_site_id
 _symmetry_equiv_pos_as_xyz
  1  'x, y, z'
loop_
 _atom_site_type_symbol
 _atom_site_label
 _atom_site_symmetry_multiplicity
 _atom_site_fract_x
 _atom_site_fract_y
 _atom_site_fract_z
 _atom_site_occupancy
  Nd  Nd0  1  0.86787382  0.93460876  0.75148514  1
  Nd  Nd1  1  0.43460876  0.63212618  0.25148514  1
  Nd  Nd2  1  0.56539124  0.36787382  0.25148514  1
  Nd  Nd3  1  0.13212618  0.06539124  0.75148514  1
  Nd  Nd4  1  0.63212618  0.56539124  0.74851486  1
  Nd  Nd5  1  0.06539124  0.86787382  0.24851486  1
  Nd  Nd6  1  0.93460876  0.13212618  0.24851486  1
  Nd  Nd7  1  0.36787382  0.43460876  0.74851486  1
  Nd  Nd8  1  0.05642735  0.36148706  0.67975357  1
  Nd  Nd9  1  0.86148706  0.44357265  0.17975357  1
  Nd  Nd10  1  0.13851294  0.55642735  0.17975357  1
  Nd  Nd11  1  0.94357265  0.63851294  0.67975357  1
  Nd  Nd12  1  0.44357265  0.13851294  0.82024643  1
  Nd  Nd13  1  0.63851294  0.05642735  0.32024643  1
  Nd  Nd14  1  0.36148706  0.94357265  0.32024643  1
  Nd  Nd15  1  0.55642735  0.86148706  0.82024643  1
  Re  Re0  1  0.66400743  0.77356253  0.31959137  1
  Re  Re1  1  0.27356253  0.83599257  0.81959137  1
  Re  Re2  1  0.72643747  0.16400743  0.81959137  1
  Re  Re3  1  0.33599257  0.22643747  0.31959137  1
  Re  Re4  1  0.83599257  0.72643747  0.18040863  1
  Re  Re5  1  0.22643747  0.66400743  0.68040863  1
  Re  Re6  1  0.77356253  0.33599257  0.68040863  1
  Re  Re7  1  0.16400743  0.27356253  0.18040863  1
  O  O0  1  0.50000000  0.50000000  -0.00000000  1
  O  O1  1  -0.00000000  -0.00000000  0.50000000  1
  O  O2  1  0.50000000  0.50000000  0.50000000  1
  O  O3  1  -0.00000000  -0.00000000  -0.00000000  1
  O  O4  1  0.59222510  0.70527555  0.05785508  1
  O  O5  1  0.20527555  0.90777490  0.55785508  1
  O  O6  1  0.79472445  0.09222510  0.55785508  1
  O  O7  1  0.40777490  0.29472445  0.05785508  1
  O  O8  1  0.90777490  0.79472445  0.44214492  1
  O  O9  1  0.29472445  0.59222510  0.94214492  1
  O  O10  1  0.70527555  0.40777490  0.94214492  1
  O  O11  1  0.09222510  0.20527555  0.44214492  1
  O  O12  1  0.05339449  0.39803004  0.26076936  1
  O  O13  1  0.89803004  0.44660551  0.76076936  1
  O  O14  1  0.10196996  0.55339449  0.76076936  1
  O  O15  1  0.94660551  0.60196996  0.26076936  1
  O  O16  1  0.62080046  0.20637871  0.03611418  1
  O  O17  1  0.44660551  0.10196996  0.23923064  1
  O  O18  1  0.39803004  0.94660551  0.73923064  1
  O  O19  1  0.55339449  0.89803004  0.23923064  1
  O  O20  1  0.87919954  0.29362129  0.46388582  1
  O  O21  1  0.79362129  0.62080046  0.96388582  1
  O  O22  1  0.20637871  0.37919954  0.96388582  1
  O  O23  1  0.12080046  0.70637871  0.46388582  1
  O  O24  1  0.94106397  0.78029063  0.95668022  1
  O  O25  1  0.28029063  0.55893603  0.45668022  1
  O  O26  1  0.71970937  0.44106397  0.45668022  1
  O  O27  1  0.05893603  0.21970937  0.95668022  1
  O  O28  1  0.55893603  0.71970937  0.54331978  1
  O  O29  1  0.21970937  0.94106397  0.04331978  1
  O  O30  1  0.78029063  0.05893603  0.04331978  1
  O  O31  1  0.44106397  0.28029063  0.54331978  1
  O  O32  1  0.15840488  0.75117400  0.94618674  1
  O  O33  1  0.25117400  0.34159512  0.44618674  1
  O  O34  1  0.74882600  0.65840488  0.44618674  1
  O  O35  1  0.84159512  0.24882600  0.94618674  1
  O  O36  1  0.34159512  0.74882600  0.55381326  1
  O  O37  1  0.24882600  0.15840488  0.05381326  1
  O  O38  1  0.75117400  0.84159512  0.05381326  1
  O  O39  1  0.65840488  0.25117400  0.55381326  1
  O  O40  1  0.37919954  0.79362129  0.03611418  1
  O  O41  1  0.29362129  0.12080046  0.53611418  1
  O  O42  1  0.70637871  0.87919954  0.53611418  1
  O  O43  1  0.60196996  0.05339449  0.73923064  1
loop_
_geom_bond_atom_site_label_1
_geom_bond_atom_site_label_2
_geom_bond_distance
_geom_bond_site_symmetry_2
Nd0 O3 2.339791 1_666
Nd0 O1 2.349800 1_665
Nd0 O24 2.461492 1_555
Nd0 O6 2.465553 1_565
Nd0 O42 2.488163 1_555
Nd0 O30 2.537816 1_566
Nd0 O8 2.540488 1_555
Nd0 O38 2.549224 1_556
Nd1 O2 2.339791 1_555
Nd1 O0 2.349800 1_555
Nd1 O25 2.461492 1_555
Nd1 O4 2.465553 1_555
Nd1 O40 2.488163 1_555
Nd1 O28 2.537816 1_555
Nd1 O9 2.540488 1_554
Nd1 O36 2.549224 1_555
Nd2 O2 2.339791 1_555
Nd2 O0 2.349800 1_555
Nd2 O26 2.461492 1_555
Nd2 O7 2.465553 1_555
Nd2 O16 2.488163 1_555
Nd2 O31 2.537816 1_555
Nd2 O10 2.540488 1_554
Nd2 O39 2.549224 1_555
Nd3 O3 2.339791 1_556
Nd3 O1 2.349800 1_555
Nd3 O27 2.461492 1_555
Nd3 O5 2.465553 1_545
Nd3 O41 2.488163 1_555
Nd3 O29 2.537816 1_546
Nd3 O11 2.540488 1_555
Nd3 O37 2.549224 1_556
Nd4 O2 2.339791 1_555
Nd4 O0 2.349800 1_556
Nd4 O28 2.461492 1_555
Nd4 O10 2.465553 1_555
Nd4 O21 2.488163 1_555
Nd4 O26 2.537816 1_555
Nd4 O4 2.540488 1_556
Nd4 O34 2.549224 1_555
Nd5 O3 2.339791 1_565
Nd5 O1 2.349800 1_565
Nd5 O29 2.461492 1_555
Nd5 O8 2.465553 1_455
Nd5 O23 2.488163 1_555
Nd5 O24 2.537816 1_454
Nd5 O5 2.540488 1_555
Nd5 O32 2.549224 1_554
Nd6 O3 2.339791 1_655
Nd6 O1 2.349800 1_655
Nd6 O30 2.461492 1_555
Nd6 O11 2.465553 1_655
Nd6 O20 2.488163 1_555
Nd6 O27 2.537816 1_654
Nd6 O6 2.540488 1_555
Nd6 O35 2.549224 1_554
Nd7 O2 2.339791 1_555
Nd7 O0 2.349800 1_556
Nd7 O31 2.461492 1_555
Nd7 O9 2.465553 1_555
Nd7 O22 2.488163 1_555
Nd7 O25 2.537816 1_555
Nd7 O7 2.540488 1_556
Nd7 O33 2.549224 1_555
Nd8 O13 2.334195 1_455
Nd8 O27 2.383879 1_555
Nd8 O12 2.401301 1_555
Nd8 O11 2.438713 1_555
Nd8 O22 2.499396 1_555
Nd8 O14 2.552058 1_555
Nd8 O20 2.703772 1_455
Nd8 O33 2.817027 1_555
Nd9 O15 2.334195 1_555
Nd9 O26 2.383879 1_555
Nd9 O13 2.401301 1_554
Nd9 O10 2.438713 1_554
Nd9 O20 2.499396 1_555
Nd9 O12 2.552058 1_655
Nd9 O21 2.703772 1_554
Nd9 O35 2.817027 1_554
Nd10 O12 2.334195 1_555
Nd10 O25 2.383879 1_555
Nd10 O14 2.401301 1_554
Nd10 O9 2.438713 1_554
Nd10 O23 2.499396 1_555
Nd10 O15 2.552058 1_455
Nd10 O22 2.703772 1_554
Nd10 O32 2.817027 1_554
Nd11 O14 2.334195 1_655
Nd11 O24 2.383879 1_555
Nd11 O15 2.401301 1_555
Nd11 O8 2.438713 1_555
Nd11 O21 2.499396 1_555
Nd11 O13 2.552058 1_555
Nd11 O23 2.703772 1_655
Nd11 O34 2.817027 1_555
Nd12 O43 2.334195 1_555
Nd12 O31 2.383879 1_555
Nd12 O17 2.401301 1_556
Nd12 O7 2.438713 1_556
Nd12 O41 2.499396 1_555
Nd12 O18 2.552058 1_545
Nd12 O16 2.703772 1_556
Nd12 O37 2.817027 1_556
Nd13 O19 2.334195 1_545
Nd13 O30 2.383879 1_555
Nd13 O43 2.401301 1_555
Nd13 O6 2.438713 1_555
Nd13 O16 2.499396 1_555
Nd13 O17 2.552058 1_555
Nd13 O42 2.703772 1_545
Nd13 O39 2.817027 1_555
Nd14 O17 2.334195 1_565
Nd14 O29 2.383879 1_555
Nd14 O18 2.401301 1_555
Nd14 O5 2.438713 1_555
Nd14 O40 2.499396 1_555
Nd14 O19 2.552058 1_555
Nd14 O41 2.703772 1_565
Nd14 O36 2.817027 1_555
Nd15 O18 2.334195 1_555
Nd15 O28 2.383879 1_555
Nd15 O19 2.401301 1_556
Nd15 O4 2.438713 1_556
Nd15 O42 2.499396 1_555
Nd15 O43 2.552058 1_565
Nd15 O40 2.703772 1_556
Nd15 O38 2.817027 1_556
O4 Re0 1.938086 1_555
O5 Re1 1.938086 1_555
O6 Re2 1.938086 1_555
O7 Re3 1.938086 1_555
O8 Re4 1.938086 1_555
O9 Re5 1.938086 1_555
O10 Re6 1.938086 1_555
O11 Re7 1.938086 1_555
O12 Re7 2.167560 1_555
O13 Re6 2.167560 1_555
O14 Re5 2.167560 1_555
O15 Re4 2.167560 1_555
O16 Re2 1.892480 1_554
O17 Re3 2.167560 1_555
O18 Re1 2.167560 1_555
O19 Re0 2.167560 1_555
O20 Re6 1.892480 1_555
O21 Re4 1.892480 1_556
O22 Re7 1.892480 1_556
O23 Re5 1.892480 1_555
O24 Re4 1.959976 1_556
O25 Re5 1.959976 1_555
O26 Re6 1.959976 1_555
O27 Re7 1.959976 1_556
O28 Re0 1.959976 1_555
O29 Re1 1.959976 1_554
O30 Re2 1.959976 1_554
O31 Re3 1.959976 1_555
O32 Re1 1.955010 1_555
O32 Re5 2.052875 1_555
O33 Re3 1.955010 1_555
O33 Re7 2.052875 1_555
O34 Re0 1.955010 1_555
O34 Re4 2.052875 1_555
O35 Re2 1.955010 1_555
O35 Re6 2.052875 1_555
O36 Re5 1.955010 1_555
O36 Re1 2.052875 1_555
O37 Re7 1.955010 1_555
O37 Re3 2.052875 1_555
O38 Re4 1.955010 1_555
O38 Re0 2.052875 1_555
O39 Re6 1.955010 1_555
O39 Re2 2.052875 1_555
O40 Re1 1.892480 1_554
O41 Re3 1.892480 1_555
O42 Re0 1.892480 1_555
O43 Re2 2.167560 1_555
