# generated using pymatgen
data_Fe4Se3N2
_symmetry_space_group_name_H-M   'P 1'
_cell_length_a   6.57565400
_cell_length_b   11.82320200
_cell_length_c   3.11338200
_cell_angle_alpha   90.00000000
_cell_angle_beta   90.00000000
_cell_angle_gamma   90.00000000
_symmetry_Int_Tables_number   1
_chemical_formula_structural   Fe4Se3N2
_chemical_formula_sum   'Fe8 Se6 N4'
_cell_volume   242.05077254
_cell_formula_units_Z   2
loop_
 _symmetry_equiv_pos_site_id
 _symmetry_equiv_pos_as_xyz
  1  'x, y, z'
loop_
 _atom_site_type_symbol
 _atom_site_label
 _atom_site_symmetry_multiplicity
 _atom_site_fract_x
 _atom_site_fract_y
 _atom_site_fract_z
 _atom_site_occupancy
  Fe  Fe0  1  0.69076800  0.93452300  0.50000000  1
  Fe  Fe1  1  0.30923200  0.06547700  0.50000000  1
  Fe  Fe2  1  0.19076800  0.56547700  0.00000000  1
  Fe  Fe3  1  0.80923200  0.43452300  0.00000000  1
  Fe  Fe4  1  0.79688300  0.63668700  0.50000000  1
  Fe  Fe5  1  0.20311700  0.36331300  0.50000000  1
  Fe  Fe6  1  0.29688300  0.86331300  0.00000000  1
  Fe  Fe7  1  0.70311700  0.13668700  0.00000000  1
  Se  Se0  1  0.50000000  0.50000000  0.50000000  1
  Se  Se1  1  0.00000000  0.00000000  0.00000000  1
  Se  Se2  1  0.86269100  0.27778800  0.50000000  1
  Se  Se3  1  0.13730900  0.72221200  0.50000000  1
  Se  Se4  1  0.36269100  0.22221200  0.00000000  1
  Se  Se5  1  0.63730900  0.77778800  0.00000000  1
  N  N0  1  0.59824000  0.07880500  0.50000000  1
  N  N1  1  0.40176000  0.92119500  0.50000000  1
  N  N2  1  0.09824000  0.42119500  0.00000000  1
  N  N3  1  0.90176000  0.57880500  0.00000000  1
loop_
_geom_bond_atom_site_label_1
_geom_bond_atom_site_label_2
_geom_bond_distance
_geom_bond_site_symmetry_2
Fe0 N0 1.811132 1_565
Fe0 N1 1.906939 1_555
Fe0 Se5 2.445583 1_556
Fe0 Se5 2.445583 1_555
Fe0 Se1 2.675316 1_666
Fe0 Se1 2.675316 1_665
Fe1 N1 1.811132 1_545
Fe1 N0 1.906939 1_555
Fe1 Se4 2.445583 1_555
Fe1 Se4 2.445583 1_556
Fe1 Se1 2.675316 1_555
Fe1 Se1 2.675316 1_556
Fe2 N2 1.811132 1_555
Fe2 N3 1.906939 1_455
Fe2 Se3 2.445583 1_554
Fe2 Se3 2.445583 1_555
Fe2 Se0 2.675316 1_555
Fe2 Se0 2.675316 1_554
Fe3 N3 1.811132 1_555
Fe3 N2 1.906939 1_655
Fe3 Se2 2.445583 1_554
Fe3 Se2 2.445583 1_555
Fe3 Se0 2.675316 1_555
Fe3 Se0 2.675316 1_554
Fe4 N3 1.834998 1_555
Fe4 N3 1.834998 1_556
Fe4 Se3 2.456313 1_655
Fe4 Se5 2.511461 1_556
Fe4 Se5 2.511461 1_555
Fe4 Se0 2.534323 1_555
Fe5 N2 1.834998 1_555
Fe5 N2 1.834998 1_556
Fe5 Se2 2.456313 1_455
Fe5 Se4 2.511461 1_555
Fe5 Se4 2.511461 1_556
Fe5 Se0 2.534323 1_555
Fe6 N1 1.834998 1_554
Fe6 N1 1.834998 1_555
Fe6 Se5 2.456313 1_555
Fe6 Se3 2.511461 1_554
Fe6 Se3 2.511461 1_555
Fe6 Se1 2.534323 1_565
Fe7 N0 1.834998 1_555
Fe7 N0 1.834998 1_554
Fe7 Se4 2.456313 1_555
Fe7 Se2 2.511461 1_554
Fe7 Se2 2.511461 1_555
Fe7 Se1 2.534323 1_655
