# generated using pymatgen
data_KZrS2
_symmetry_space_group_name_H-M   'P 1'
_cell_length_a   3.74322960
_cell_length_b   3.74323138
_cell_length_c   7.72395024
_cell_angle_alpha   75.97689571
_cell_angle_beta   75.97689314
_cell_angle_gamma   60.00000281
_symmetry_Int_Tables_number   1
_chemical_formula_structural   KZrS2
_chemical_formula_sum   'K1 Zr1 S2'
_cell_volume   89.98310496
_cell_formula_units_Z   1
loop_
 _symmetry_equiv_pos_site_id
 _symmetry_equiv_pos_as_xyz
  1  'x, y, z'
loop_
 _atom_site_type_symbol
 _atom_site_label
 _atom_site_symmetry_multiplicity
 _atom_site_fract_x
 _atom_site_fract_y
 _atom_site_fract_z
 _atom_site_occupancy
  K  K0  1  0.50000000  0.50000000  0.50000000  1
  Zr  Zr0  1  -0.00000000  -0.00000000  0.00000000  1
  S  S0  1  0.73394235  0.73394235  0.79817094  1
  S  S1  1  0.26605765  0.26605765  0.20182906  1
loop_
_geom_bond_atom_site_label_1
_geom_bond_atom_site_label_2
_geom_bond_distance
_geom_bond_site_symmetry_2
K0 S0 3.091828 1_555
K0 S1 3.091828 1_555
K0 S0 3.091833 1_455
K0 S1 3.091833 1_655
K0 S1 3.091834 1_565
K0 S0 3.091834 1_545
S0 Zr0 2.628792 1_566
S0 Zr0 2.628793 1_656
S0 Zr0 2.628798 1_666
S1 Zr0 2.628792 1_655
S1 Zr0 2.628793 1_565
S1 Zr0 2.628798 1_555
