# generated using pymatgen
data_Pr(Al5Ru)2
_symmetry_space_group_name_H-M   'P 1'
_cell_length_a   6.84984399
_cell_length_b   6.84984399
_cell_length_c   9.14819525
_cell_angle_alpha   90.00000000
_cell_angle_beta   90.00000000
_cell_angle_gamma   97.00066927
_symmetry_Int_Tables_number   1
_chemical_formula_structural   Pr(Al5Ru)2
_chemical_formula_sum   'Pr2 Al20 Ru4'
_cell_volume   426.03656286
_cell_formula_units_Z   2
loop_
 _symmetry_equiv_pos_site_id
 _symmetry_equiv_pos_as_xyz
  1  'x, y, z'
loop_
 _atom_site_type_symbol
 _atom_site_label
 _atom_site_symmetry_multiplicity
 _atom_site_fract_x
 _atom_site_fract_y
 _atom_site_fract_z
 _atom_site_occupancy
  Pr  Pr0  1  0.87692802  0.12307198  0.75000000  1
  Pr  Pr1  1  0.12307198  0.87692802  0.25000000  1
  Al  Al0  1  0.40798543  0.13797858  0.75000000  1
  Al  Al1  1  0.13797858  0.40798543  0.25000000  1
  Al  Al2  1  0.59201457  0.86202142  0.25000000  1
  Al  Al3  1  0.86202142  0.59201457  0.75000000  1
  Al  Al4  1  0.51766499  0.77944634  0.75000000  1
  Al  Al5  1  0.77944634  0.51766499  0.25000000  1
  Al  Al6  1  0.48233501  0.22055366  0.25000000  1
  Al  Al7  1  0.22055366  0.48233501  0.75000000  1
  Al  Al8  1  0.83758748  0.16241252  0.39829835  1
  Al  Al9  1  0.16241252  0.83758748  0.60170165  1
  Al  Al10  1  0.83758748  0.16241252  0.10170165  1
  Al  Al11  1  0.16241252  0.83758748  0.89829835  1
  Al  Al12  1  0.62239705  0.37760295  0.55118084  1
  Al  Al13  1  0.37760295  0.62239705  0.44881916  1
  Al  Al14  1  0.62239705  0.37760295  0.94881916  1
  Al  Al15  1  0.37760295  0.62239705  0.05118084  1
  Al  Al16  1  0.77089762  0.77089762  -0.00000000  1
  Al  Al17  1  0.77089762  0.77089762  0.50000000  1
  Al  Al18  1  0.22910238  0.22910238  -0.00000000  1
  Al  Al19  1  0.22910238  0.22910238  0.50000000  1
  Ru  Ru0  1  0.50000000  0.00000000  -0.00000000  1
  Ru  Ru1  1  0.00000000  0.50000000  -0.00000000  1
  Ru  Ru2  1  0.50000000  0.00000000  0.50000000  1
  Ru  Ru3  1  0.00000000  0.50000000  0.50000000  1
loop_
_geom_bond_atom_site_label_1
_geom_bond_atom_site_label_2
_geom_bond_distance
_geom_bond_site_symmetry_2
Pr0 Ru2 3.475184 1_555
Pr0 Ru1 3.475184 1_656
Pr0 Ru3 3.475184 1_655
Pr0 Ru0 3.475184 1_556
Pr1 Ru3 3.475184 1_555
Pr1 Ru2 3.475184 1_565
Pr1 Ru1 3.475184 1_555
Pr1 Ru0 3.475184 1_565
Al0 Ru2 2.581925 1_555
Al0 Ru0 2.581925 1_556
Al0 Al4 2.654353 1_545
Al0 Al19 2.703340 1_555
Al0 Al18 2.703340 1_556
Al0 Al14 2.751678 1_555
Al0 Al12 2.751678 1_555
Al0 Al7 2.819651 1_555
Al0 Al9 2.839058 1_545
Al0 Al11 2.839058 1_545
Al0 Pr0 3.226221 1_555
Al0 Pr0 3.626632 1_455
Al1 Ru3 2.581925 1_555
Al1 Ru1 2.581925 1_555
Al1 Al5 2.654353 1_455
Al1 Al19 2.703340 1_555
Al1 Al18 2.703340 1_555
Al1 Al15 2.751678 1_555
Al1 Al13 2.751678 1_555
Al1 Al6 2.819651 1_555
Al1 Al10 2.839058 1_455
Al1 Al8 2.839058 1_455
Al1 Pr1 3.226221 1_555
Al1 Pr1 3.626632 1_545
Al2 Ru0 2.581925 1_565
Al2 Ru2 2.581925 1_565
Al2 Al6 2.654353 1_565
Al2 Al5 2.819651 1_555
Al2 Al8 2.839058 1_565
Al2 Pr1 3.226221 1_555
Al2 Pr1 3.626632 1_655
Al3 Ru3 2.581925 1_655
Al3 Ru1 2.581925 1_656
Al3 Al7 2.654353 1_655
Al3 Al4 2.819651 1_555
Al3 Al9 2.839058 1_655
Al3 Pr0 3.226221 1_555
Al3 Pr0 3.626632 1_565
Al4 Al7 2.697066 1_555
Al4 Ru0 2.751760 1_566
Al4 Ru2 2.751760 1_565
Al4 Al9 2.856034 1_555
Al4 Pr0 3.191289 1_565
Al5 Al6 2.697066 1_555
Al5 Ru3 2.751760 1_655
Al5 Ru1 2.751760 1_655
Al5 Al8 2.856034 1_555
Al5 Pr1 3.191289 1_655
Al6 Ru2 2.751760 1_555
Al6 Ru0 2.751760 1_555
Al6 Al8 2.856034 1_555
Al6 Pr1 3.191289 1_545
Al7 Ru1 2.751760 1_556
Al7 Ru3 2.751760 1_555
Al7 Al9 2.856034 1_555
Al7 Pr0 3.191289 1_455
Al8 Ru3 2.612178 1_655
Al8 Ru2 2.612178 1_555
Al8 Pr1 3.228134 1_645
Al8 Pr0 3.242657 1_555
Al9 Ru2 2.612178 1_565
Al9 Ru3 2.612178 1_555
Al9 Pr0 3.228134 1_465
Al9 Pr1 3.242657 1_555
Al10 Ru1 2.612178 1_655
Al10 Ru0 2.612178 1_555
Al10 Al14 2.613653 1_554
Al10 Al8 2.713325 1_555
Al10 Al16 2.822730 1_545
Al10 Al18 2.822730 1_655
Al10 Al2 2.839058 1_545
Al10 Al5 2.856034 1_555
Al10 Al6 2.856034 1_555
Al10 Pr1 3.228134 1_645
Al10 Pr0 3.242657 1_554
Al11 Ru0 2.612178 1_566
Al11 Ru1 2.612178 1_556
Al11 Al15 2.613653 1_556
Al11 Al9 2.713325 1_555
Al11 Al16 2.822730 1_456
Al11 Al18 2.822730 1_566
Al11 Al3 2.839058 1_455
Al11 Al4 2.856034 1_555
Al11 Al7 2.856034 1_555
Al11 Pr0 3.228134 1_465
Al11 Pr1 3.242657 1_556
Al12 Al8 2.613653 1_555
Al12 Ru2 2.661508 1_555
Al12 Ru3 2.661508 1_655
Al12 Al13 2.680596 1_555
Al12 Al3 2.751678 1_555
Al12 Al19 2.800644 1_555
Al12 Al17 2.800644 1_555
Al12 Al5 3.068811 1_555
Al12 Al6 3.068811 1_555
Al12 Pr0 3.182564 1_555
Al13 Al9 2.613653 1_555
Al13 Ru2 2.661508 1_565
Al13 Ru3 2.661508 1_555
Al13 Al2 2.751678 1_555
Al13 Al19 2.800644 1_555
Al13 Al17 2.800644 1_555
Al13 Al7 3.068811 1_555
Al13 Al4 3.068811 1_555
Al13 Pr1 3.182564 1_555
Al14 Ru0 2.661508 1_556
Al14 Ru1 2.661508 1_656
Al14 Al15 2.680596 1_556
Al14 Al3 2.751678 1_555
Al14 Al18 2.800644 1_556
Al14 Al16 2.800644 1_556
Al14 Al6 3.068811 1_556
Al14 Al5 3.068811 1_556
Al14 Pr0 3.182564 1_555
Al15 Ru1 2.661508 1_555
Al15 Ru0 2.661508 1_565
Al15 Al2 2.751678 1_555
Al15 Al18 2.800644 1_555
Al15 Al16 2.800644 1_555
Al15 Al7 3.068811 1_554
Al15 Al4 3.068811 1_554
Al15 Pr1 3.182564 1_555
Al16 Ru1 2.572133 1_655
Al16 Ru0 2.572133 1_565
Al16 Al3 2.703340 1_554
Al16 Al2 2.703340 1_555
Al16 Al5 2.875349 1_555
Al16 Al4 2.875349 1_554
Al16 Pr0 3.339220 1_564
Al16 Pr1 3.339220 1_655
Al17 Ru3 2.572133 1_655
Al17 Ru2 2.572133 1_565
Al17 Al3 2.703340 1_555
Al17 Al2 2.703340 1_555
Al17 Al8 2.822730 1_565
Al17 Al9 2.822730 1_655
Al17 Al4 2.875349 1_555
Al17 Al5 2.875349 1_555
Al17 Pr0 3.339220 1_565
Al17 Pr1 3.339220 1_655
Al18 Ru1 2.572133 1_555
Al18 Ru0 2.572133 1_555
Al18 Al6 2.875349 1_555
Al18 Al7 2.875349 1_554
Al18 Pr1 3.339220 1_545
Al18 Pr0 3.339220 1_454
Al19 Ru2 2.572133 1_555
Al19 Ru3 2.572133 1_555
Al19 Al9 2.822730 1_545
Al19 Al8 2.822730 1_455
Al19 Al6 2.875349 1_555
Al19 Al7 2.875349 1_555
Al19 Pr1 3.339220 1_545
Al19 Pr0 3.339220 1_455
