# generated using pymatgen
data_Nd12InCo6
_symmetry_space_group_name_H-M   'P 1'
_cell_length_a   8.68432016
_cell_length_b   8.68432016
_cell_length_c   8.68432016
_cell_angle_alpha   109.47122063
_cell_angle_beta   109.47122063
_cell_angle_gamma   109.47122063
_symmetry_Int_Tables_number   1
_chemical_formula_structural   Nd12InCo6
_chemical_formula_sum   'Nd12 In1 Co6'
_cell_volume   504.17996829
_cell_formula_units_Z   1
loop_
 _symmetry_equiv_pos_site_id
 _symmetry_equiv_pos_as_xyz
  1  'x, y, z'
loop_
 _atom_site_type_symbol
 _atom_site_label
 _atom_site_symmetry_multiplicity
 _atom_site_fract_x
 _atom_site_fract_y
 _atom_site_fract_z
 _atom_site_occupancy
  Nd  Nd0  1  0.80871006  0.69529565  0.50400571  1
  Nd  Nd1  1  0.19128994  0.30470435  0.49599429  1
  Nd  Nd2  1  0.19128994  0.69529565  0.88658558  1
  Nd  Nd3  1  0.80871006  0.30470435  0.11341442  1
  Nd  Nd4  1  0.69529565  0.50400571  0.80871006  1
  Nd  Nd5  1  0.30470435  0.49599429  0.19128994  1
  Nd  Nd6  1  0.69529565  0.88658558  0.19128994  1
  Nd  Nd7  1  0.30470435  0.11341442  0.80871006  1
  Nd  Nd8  1  0.50400571  0.80871006  0.69529565  1
  Nd  Nd9  1  0.49599429  0.19128994  0.30470435  1
  Nd  Nd10  1  0.11341442  0.80871006  0.30470435  1
  Nd  Nd11  1  0.88658558  0.19128994  0.69529565  1
  In  In0  1  0.00000000  -0.00000000  0.00000000  1
  Co  Co0  1  0.89086805  0.39086805  0.50000000  1
  Co  Co1  1  0.10913195  0.60913195  0.50000000  1
  Co  Co2  1  0.39086805  0.50000000  0.89086805  1
  Co  Co3  1  0.60913195  0.50000000  0.10913195  1
  Co  Co4  1  0.50000000  0.89086805  0.39086805  1
  Co  Co5  1  0.50000000  0.10913195  0.60913195  1
loop_
_geom_bond_atom_site_label_1
_geom_bond_atom_site_label_2
_geom_bond_distance
_geom_bond_site_symmetry_2
In0 Nd8 3.607727 1_444
In0 Nd0 3.607727 1_444
In0 Nd9 3.607727 1_555
In0 Nd4 3.607727 1_444
In0 Nd5 3.607727 1_555
In0 Nd1 3.607727 1_555
In0 Nd11 3.607727 1_454
In0 Nd3 3.607727 1_455
In0 Nd10 3.607727 1_545
In0 Nd6 3.607727 1_445
In0 Nd7 3.607727 1_554
In0 Nd2 3.607727 1_544
Co0 Co1 2.188704 1_655
Co0 Nd9 2.800103 1_555
Co0 Nd11 2.800103 1_555
Co0 Nd3 2.951681 1_555
Co0 Nd2 2.951681 1_655
Co0 Nd1 2.951681 1_655
Co0 Nd0 2.951681 1_555
Co1 Nd8 2.800103 1_555
Co1 Nd10 2.800103 1_555
Co1 Nd2 2.951681 1_555
Co1 Nd3 2.951681 1_455
Co1 Nd1 2.951681 1_555
Co1 Nd0 2.951681 1_455
Co2 Co3 2.188704 1_556
Co2 Nd1 2.800103 1_555
Co2 Nd2 2.800103 1_555
Co2 Nd7 2.951681 1_555
Co2 Nd6 2.951681 1_556
Co2 Nd5 2.951681 1_556
Co2 Nd4 2.951681 1_555
Co3 Nd0 2.800103 1_555
Co3 Nd3 2.800103 1_555
Co3 Nd6 2.951681 1_555
Co3 Nd7 2.951681 1_554
Co3 Nd5 2.951681 1_555
Co3 Nd4 2.951681 1_554
Co4 Co5 2.188704 1_565
Co4 Nd5 2.800103 1_555
Co4 Nd6 2.800103 1_555
Co4 Nd10 2.951681 1_555
Co4 Nd11 2.951681 1_565
Co4 Nd9 2.951681 1_565
Co4 Nd8 2.951681 1_555
Co5 Nd4 2.800103 1_555
Co5 Nd7 2.800103 1_555
Co5 Nd11 2.951681 1_555
Co5 Nd10 2.951681 1_545
Co5 Nd9 2.951681 1_555
Co5 Nd8 2.951681 1_545
