# generated using pymatgen
data_RbMg6Bi
_symmetry_space_group_name_H-M   'P 1'
_cell_length_a   5.35364800
_cell_length_b   6.84122600
_cell_length_c   12.35775500
_cell_angle_alpha   90.00000000
_cell_angle_beta   90.00000000
_cell_angle_gamma   90.00000000
_symmetry_Int_Tables_number   1
_chemical_formula_structural   RbMg6Bi
_chemical_formula_sum   'Rb2 Mg12 Bi2'
_cell_volume   452.60915215
_cell_formula_units_Z   2
loop_
 _symmetry_equiv_pos_site_id
 _symmetry_equiv_pos_as_xyz
  1  'x, y, z'
loop_
 _atom_site_type_symbol
 _atom_site_label
 _atom_site_symmetry_multiplicity
 _atom_site_fract_x
 _atom_site_fract_y
 _atom_site_fract_z
 _atom_site_occupancy
  Rb  Rb0  1  0.50000000  0.00000000  0.16722900  1
  Rb  Rb1  1  0.50000000  0.50000000  0.66722900  1
  Mg  Mg0  1  0.50000000  0.24490400  0.41654300  1
  Mg  Mg1  1  0.50000000  0.75509600  0.41654300  1
  Mg  Mg2  1  0.00000000  0.73595700  0.07582100  1
  Mg  Mg3  1  0.00000000  0.26404300  0.07582100  1
  Mg  Mg4  1  0.00000000  0.00000000  0.34678700  1
  Mg  Mg5  1  0.00000000  0.50000000  0.33844700  1
  Mg  Mg6  1  0.50000000  0.74490400  0.91654300  1
  Mg  Mg7  1  0.50000000  0.25509600  0.91654300  1
  Mg  Mg8  1  0.00000000  0.23595700  0.57582100  1
  Mg  Mg9  1  0.00000000  0.76404300  0.57582100  1
  Mg  Mg10  1  0.00000000  0.50000000  0.84678700  1
  Mg  Mg11  1  0.00000000  0.00000000  0.83844700  1
  Bi  Bi0  1  0.50000000  0.50000000  0.16280600  1
  Bi  Bi1  1  0.50000000  0.00000000  0.66280600  1
loop_
_geom_bond_atom_site_label_1
_geom_bond_atom_site_label_2
_geom_bond_distance
_geom_bond_site_symmetry_2
Mg0 Mg4 3.273468 1_555
Mg0 Mg4 3.273468 1_655
Mg0 Mg8 3.323163 1_555
Mg0 Mg8 3.323163 1_655
Mg0 Mg5 3.338024 1_555
Mg0 Mg5 3.338024 1_655
Mg0 Mg1 3.350887 1_545
Mg0 Mg1 3.490339 1_555
Mg0 Rb0 3.507055 1_555
Mg0 Rb1 3.555658 1_555
Mg1 Mg4 3.273468 1_665
Mg1 Mg4 3.273468 1_565
Mg1 Mg9 3.323163 1_555
Mg1 Mg9 3.323163 1_655
Mg1 Mg5 3.338024 1_555
Mg1 Mg5 3.338024 1_655
Mg1 Rb0 3.507055 1_565
Mg1 Rb1 3.555658 1_555
Mg2 Mg6 3.323163 1_554
Mg2 Mg6 3.323163 1_454
Mg2 Rb0 3.421166 1_465
Mg2 Rb0 3.421166 1_565
Mg3 Mg7 3.323163 1_554
Mg3 Mg7 3.323163 1_454
Mg3 Rb0 3.421166 1_455
Mg3 Rb0 3.421166 1_555
Mg4 Mg8 3.258315 1_555
Mg4 Mg9 3.258315 1_545
Mg4 Mg5 3.422165 1_545
Mg4 Mg5 3.422165 1_555
Mg4 Rb0 3.476932 1_455
Mg4 Rb0 3.476932 1_555
Mg6 Mg7 3.350887 1_555
Mg6 Mg7 3.490339 1_565
Mg6 Rb1 3.507055 1_555
Mg6 Rb0 3.555658 1_566
Mg7 Rb1 3.507055 1_555
Mg7 Rb0 3.555658 1_556
Mg8 Rb1 3.421166 1_555
Mg8 Rb1 3.421166 1_455
Mg9 Rb1 3.421166 1_555
Mg9 Rb1 3.421166 1_455
Mg10 Mg2 3.258315 1_556
Mg10 Mg3 3.258315 1_556
Mg10 Mg6 3.273468 1_555
Mg10 Mg6 3.273468 1_455
Mg10 Mg7 3.273468 1_455
Mg10 Mg7 3.273468 1_555
Mg10 Mg11 3.422165 1_565
Mg10 Mg11 3.422165 1_555
Mg10 Rb1 3.476932 1_555
Mg10 Rb1 3.476932 1_455
Mg11 Mg7 3.338024 1_455
Mg11 Mg6 3.338024 1_545
Mg11 Mg7 3.338024 1_555
Mg11 Mg6 3.338024 1_445
Bi0 Mg2 3.305546 1_655
Bi0 Mg2 3.305546 1_555
Bi0 Mg3 3.305546 1_555
Bi0 Mg3 3.305546 1_655
Bi0 Rb0 3.421050 1_555
Bi0 Rb0 3.421050 1_565
Bi0 Mg5 3.446241 1_555
Bi0 Mg5 3.446241 1_655
Bi0 Mg6 3.473979 1_554
Bi0 Mg7 3.473979 1_554
Bi0 Mg1 3.588555 1_555
Bi0 Mg0 3.588555 1_555
Bi1 Mg8 3.305546 1_555
Bi1 Mg8 3.305546 1_655
Bi1 Mg9 3.305546 1_545
Bi1 Mg9 3.305546 1_645
Bi1 Rb1 3.421050 1_545
Bi1 Rb1 3.421050 1_555
Bi1 Mg11 3.446241 1_555
Bi1 Mg11 3.446241 1_655
Bi1 Mg0 3.473979 1_555
Bi1 Mg1 3.473979 1_545
Bi1 Mg7 3.588555 1_555
Bi1 Mg6 3.588555 1_545
