# generated using pymatgen
data_ZnCdAg2
_symmetry_space_group_name_H-M   'P 1'
_cell_length_a   5.91930666
_cell_length_b   5.91930666
_cell_length_c   19.17405000
_cell_angle_alpha   90.00000000
_cell_angle_beta   90.00000000
_cell_angle_gamma   117.60241550
_symmetry_Int_Tables_number   1
_chemical_formula_structural   ZnCdAg2
_chemical_formula_sum   'Zn8 Cd8 Ag16'
_cell_volume   595.35974042
_cell_formula_units_Z   8
loop_
 _symmetry_equiv_pos_site_id
 _symmetry_equiv_pos_as_xyz
  1  'x, y, z'
loop_
 _atom_site_type_symbol
 _atom_site_label
 _atom_site_symmetry_multiplicity
 _atom_site_fract_x
 _atom_site_fract_y
 _atom_site_fract_z
 _atom_site_occupancy
  Zn  Zn0_0  1  0.25000000  0.25000000  0.36967000  1
  Zn  Zn0_1  1  0.25000000  0.25000000  0.86967000  1
  Zn  Zn0_2  1  0.25000000  0.75000000  0.36967000  1
  Zn  Zn0_3  1  0.25000000  0.75000000  0.86967000  1
  Zn  Zn0_4  1  0.75000000  0.25000000  0.36967000  1
  Zn  Zn0_5  1  0.75000000  0.25000000  0.86967000  1
  Zn  Zn0_6  1  0.75000000  0.75000000  0.36967000  1
  Zn  Zn0_7  1  0.75000000  0.75000000  0.86967000  1
  Cd  Cd0_0  1  0.00000000  0.00000000  0.49636650  1
  Cd  Cd0_1  1  0.00000000  0.00000000  0.99636650  1
  Cd  Cd0_2  1  0.00000000  0.50000000  0.49636650  1
  Cd  Cd0_3  1  0.00000000  0.50000000  0.99636650  1
  Cd  Cd0_4  1  0.50000000  0.00000000  0.49636650  1
  Cd  Cd0_5  1  0.50000000  0.00000000  0.99636650  1
  Cd  Cd0_6  1  0.50000000  0.50000000  0.49636650  1
  Cd  Cd0_7  1  0.50000000  0.50000000  0.99636650  1
  Ag  Ag0_0  1  0.00000000  0.00000000  0.25475100  1
  Ag  Ag0_1  1  0.00000000  0.00000000  0.75475100  1
  Ag  Ag0_2  1  0.00000000  0.50000000  0.25475100  1
  Ag  Ag0_3  1  0.00000000  0.50000000  0.75475100  1
  Ag  Ag0_4  1  0.50000000  0.00000000  0.25475100  1
  Ag  Ag0_5  1  0.50000000  0.00000000  0.75475100  1
  Ag  Ag0_6  1  0.50000000  0.50000000  0.25475100  1
  Ag  Ag0_7  1  0.50000000  0.50000000  0.75475100  1
  Ag  Ag1_0  1  0.25000000  0.25000000  0.12921250  1
  Ag  Ag1_1  1  0.25000000  0.25000000  0.62921250  1
  Ag  Ag1_2  1  0.25000000  0.75000000  0.12921250  1
  Ag  Ag1_3  1  0.25000000  0.75000000  0.62921250  1
  Ag  Ag1_4  1  0.75000000  0.25000000  0.12921250  1
  Ag  Ag1_5  1  0.75000000  0.25000000  0.62921250  1
  Ag  Ag1_6  1  0.75000000  0.75000000  0.12921250  1
  Ag  Ag1_7  1  0.75000000  0.75000000  0.62921250  1
loop_
_geom_bond_atom_site_label_1
_geom_bond_atom_site_label_2
_geom_bond_distance
_geom_bond_site_symmetry_2
Zn0_0 Zn0_4 2.959653 1_455
Zn0_0 Zn0_4 2.959653 1_555
Zn0_0 Zn0_2 2.959653 1_545
Zn0_0 Zn0_2 2.959653 1_555
Zn0_0 Zn0_6 3.066254 1_555
Zn0_0 Zn0_6 3.066254 1_445
Zn0_1 Zn0_3 2.959653 1_545
Zn0_1 Zn0_5 2.959653 1_555
Zn0_1 Zn0_5 2.959653 1_455
Zn0_1 Zn0_3 2.959653 1_555
Zn0_1 Zn0_7 3.066254 1_555
Zn0_1 Zn0_7 3.066254 1_445
Zn0_2 Zn0_6 2.959653 1_555
Zn0_2 Zn0_6 2.959653 1_455
Zn0_2 Zn0_4 3.066254 1_565
Zn0_2 Zn0_4 3.066254 1_455
Zn0_3 Zn0_7 2.959653 1_555
Zn0_3 Zn0_7 2.959653 1_455
Zn0_3 Zn0_5 3.066254 1_455
Zn0_3 Zn0_5 3.066254 1_565
Zn0_4 Zn0_6 2.959653 1_555
Zn0_4 Zn0_6 2.959653 1_545
Zn0_5 Zn0_7 2.959653 1_555
Zn0_5 Zn0_7 2.959653 1_545
Cd0_0 Zn0_6 2.872613 1_445
Cd0_0 Zn0_0 2.872613 1_555
Cd0_0 Cd0_4 2.959653 1_555
Cd0_0 Cd0_2 2.959653 1_555
Cd0_0 Cd0_4 2.959653 1_455
Cd0_0 Cd0_2 2.959653 1_545
Cd0_0 Cd0_6 3.066254 1_555
Cd0_0 Cd0_6 3.066254 1_445
Cd0_1 Zn0_7 2.872613 1_445
Cd0_1 Zn0_1 2.872613 1_555
Cd0_1 Cd0_5 2.959653 1_455
Cd0_1 Cd0_3 2.959653 1_555
Cd0_1 Cd0_5 2.959653 1_555
Cd0_1 Cd0_3 2.959653 1_545
Cd0_1 Cd0_7 3.066254 1_445
Cd0_1 Cd0_7 3.066254 1_555
Cd0_2 Zn0_2 2.872613 1_555
Cd0_2 Zn0_4 2.872613 1_455
Cd0_2 Cd0_6 2.959653 1_455
Cd0_2 Cd0_6 2.959653 1_555
Cd0_2 Cd0_4 3.066254 1_455
Cd0_2 Cd0_4 3.066254 1_565
Cd0_3 Zn0_5 2.872613 1_455
Cd0_3 Zn0_3 2.872613 1_555
Cd0_3 Cd0_7 2.959653 1_555
Cd0_3 Cd0_7 2.959653 1_455
Cd0_3 Cd0_5 3.066254 1_565
Cd0_3 Cd0_5 3.066254 1_455
Cd0_4 Zn0_2 2.872613 1_545
Cd0_4 Zn0_4 2.872613 1_555
Cd0_4 Cd0_6 2.959653 1_545
Cd0_4 Cd0_6 2.959653 1_555
Cd0_5 Zn0_5 2.872613 1_555
Cd0_5 Zn0_3 2.872613 1_545
Cd0_5 Cd0_7 2.959653 1_555
Cd0_5 Cd0_7 2.959653 1_545
Cd0_6 Zn0_6 2.872613 1_555
Cd0_6 Zn0_0 2.872613 1_555
Cd0_7 Zn0_7 2.872613 1_555
Cd0_7 Zn0_1 2.872613 1_555
Ag0_0 Zn0_0 2.684348 1_555
Ag0_0 Zn0_6 2.684348 1_445
Ag0_0 Ag1_0 2.853860 1_555
Ag0_0 Ag1_6 2.853860 1_445
Ag0_0 Ag0_2 2.959653 1_555
Ag0_0 Ag0_4 2.959653 1_455
Ag0_0 Ag0_4 2.959653 1_555
Ag0_0 Ag0_2 2.959653 1_545
Ag0_0 Ag0_6 3.066254 1_445
Ag0_0 Ag0_6 3.066254 1_555
Ag0_1 Zn0_7 2.684348 1_445
Ag0_1 Zn0_1 2.684348 1_555
Ag0_1 Ag1_1 2.853860 1_555
Ag0_1 Ag1_7 2.853860 1_445
Ag0_1 Ag0_5 2.959653 1_455
Ag0_1 Ag0_3 2.959653 1_545
Ag0_1 Ag0_3 2.959653 1_555
Ag0_1 Ag0_5 2.959653 1_555
Ag0_1 Ag0_7 3.066254 1_555
Ag0_1 Ag0_7 3.066254 1_445
Ag0_2 Zn0_2 2.684348 1_555
Ag0_2 Zn0_4 2.684348 1_455
Ag0_2 Ag1_2 2.853860 1_555
Ag0_2 Ag1_4 2.853860 1_455
Ag0_2 Ag0_6 2.959653 1_455
Ag0_2 Ag0_6 2.959653 1_555
Ag0_2 Ag0_4 3.066254 1_455
Ag0_2 Ag0_4 3.066254 1_565
Ag0_3 Zn0_3 2.684348 1_555
Ag0_3 Zn0_5 2.684348 1_455
Ag0_3 Ag1_3 2.853860 1_555
Ag0_3 Ag1_5 2.853860 1_455
Ag0_3 Ag0_7 2.959653 1_455
Ag0_3 Ag0_7 2.959653 1_555
Ag0_3 Ag0_5 3.066254 1_455
Ag0_3 Ag0_5 3.066254 1_565
Ag0_4 Zn0_2 2.684348 1_545
Ag0_4 Zn0_4 2.684348 1_555
Ag0_4 Ag1_2 2.853860 1_545
Ag0_4 Ag1_4 2.853860 1_555
Ag0_4 Ag0_6 2.959653 1_545
Ag0_4 Ag0_6 2.959653 1_555
Ag0_5 Zn0_3 2.684348 1_545
Ag0_5 Zn0_5 2.684348 1_555
Ag0_5 Ag1_3 2.853860 1_545
Ag0_5 Ag1_5 2.853860 1_555
Ag0_5 Ag0_7 2.959653 1_545
Ag0_5 Ag0_7 2.959653 1_555
Ag0_6 Zn0_6 2.684348 1_555
Ag0_6 Zn0_0 2.684348 1_555
Ag0_6 Ag1_6 2.853860 1_555
Ag0_6 Ag1_0 2.853860 1_555
Ag0_7 Zn0_7 2.684348 1_555
Ag0_7 Zn0_1 2.684348 1_555
Ag0_7 Ag1_7 2.853860 1_555
Ag0_7 Ag1_1 2.853860 1_555
Ag1_0 Ag1_4 2.959653 1_555
Ag1_0 Ag1_4 2.959653 1_455
Ag1_0 Ag1_2 2.959653 1_545
Ag1_0 Ag1_2 2.959653 1_555
Ag1_0 Cd0_7 2.972993 1_554
Ag1_0 Cd0_1 2.972993 1_554
Ag1_0 Ag1_6 3.066254 1_555
Ag1_0 Ag1_6 3.066254 1_445
Ag1_1 Ag1_5 2.959653 1_555
Ag1_1 Ag1_3 2.959653 1_555
Ag1_1 Ag1_5 2.959653 1_455
Ag1_1 Ag1_3 2.959653 1_545
Ag1_1 Cd0_6 2.972993 1_555
Ag1_1 Cd0_0 2.972993 1_555
Ag1_1 Ag1_7 3.066254 1_555
Ag1_1 Ag1_7 3.066254 1_445
Ag1_2 Ag1_6 2.959653 1_555
Ag1_2 Ag1_6 2.959653 1_455
Ag1_2 Cd0_5 2.972993 1_564
Ag1_2 Cd0_3 2.972993 1_554
Ag1_2 Ag1_4 3.066254 1_565
Ag1_2 Ag1_4 3.066254 1_455
Ag1_3 Ag1_7 2.959653 1_555
Ag1_3 Ag1_7 2.959653 1_455
Ag1_3 Cd0_4 2.972993 1_565
Ag1_3 Cd0_2 2.972993 1_555
Ag1_3 Ag1_5 3.066254 1_455
Ag1_3 Ag1_5 3.066254 1_565
Ag1_4 Ag1_6 2.959653 1_555
Ag1_4 Ag1_6 2.959653 1_545
Ag1_4 Cd0_3 2.972993 1_654
Ag1_4 Cd0_5 2.972993 1_554
Ag1_5 Ag1_7 2.959653 1_555
Ag1_5 Ag1_7 2.959653 1_545
Ag1_5 Cd0_2 2.972993 1_655
Ag1_5 Cd0_4 2.972993 1_555
Ag1_6 Cd0_7 2.972993 1_554
Ag1_6 Cd0_1 2.972993 1_664
Ag1_7 Cd0_6 2.972993 1_555
Ag1_7 Cd0_0 2.972993 1_665
