# generated using pymatgen
data_Al2CuSi2O8F
_symmetry_space_group_name_H-M   'P 1'
_cell_length_a   4.88336737
_cell_length_b   8.99819200
_cell_length_c   14.10333821
_cell_angle_alpha   90.00000000
_cell_angle_beta   89.64969974
_cell_angle_gamma   90.00000000
_symmetry_Int_Tables_number   1
_chemical_formula_structural   Al2CuSi2O8F
_chemical_formula_sum   'Al8 Cu4 Si8 O32 F4'
_cell_volume   619.70993162
_cell_formula_units_Z   4
loop_
 _symmetry_equiv_pos_site_id
 _symmetry_equiv_pos_as_xyz
  1  'x, y, z'
loop_
 _atom_site_type_symbol
 _atom_site_label
 _atom_site_symmetry_multiplicity
 _atom_site_fract_x
 _atom_site_fract_y
 _atom_site_fract_z
 _atom_site_occupancy
  Al  Al0  1  0.39970100  0.36711400  0.54683500  1
  Al  Al1  1  0.10029900  0.86711400  0.95316500  1
  Al  Al2  1  0.60010300  0.63257700  0.04789600  1
  Al  Al3  1  0.89989700  0.13257700  0.45210400  1
  Al  Al4  1  0.60029900  0.63288600  0.45316500  1
  Al  Al5  1  0.89970100  0.13288600  0.04683500  1
  Al  Al6  1  0.39989700  0.36742300  0.95210400  1
  Al  Al7  1  0.10010300  0.86742300  0.54789600  1
  Cu  Cu0  1  0.35741100  0.35297100  0.74945100  1
  Cu  Cu1  1  0.14258900  0.85297100  0.75054900  1
  Cu  Cu2  1  0.64258900  0.64702900  0.25054900  1
  Cu  Cu3  1  0.85741100  0.14702900  0.24945100  1
  Si  Si0  1  0.59448300  0.05926600  0.64525600  1
  Si  Si1  1  0.90551700  0.55926600  0.85474400  1
  Si  Si2  1  0.40892300  0.93918900  0.14706000  1
  Si  Si3  1  0.09107700  0.43918900  0.35294000  1
  Si  Si4  1  0.40551700  0.94073400  0.35474400  1
  Si  Si5  1  0.09448300  0.44073400  0.14525600  1
  Si  Si6  1  0.59107700  0.06081100  0.85294000  1
  Si  Si7  1  0.90892300  0.56081100  0.64706000  1
  O  O0  1  0.80656000  0.00896700  0.56046700  1
  O  O1  1  0.69344000  0.50896700  0.93953300  1
  O  O2  1  0.19886100  0.98206000  0.06052500  1
  O  O3  1  0.30113900  0.48206000  0.43947500  1
  O  O4  1  0.19344000  0.99103300  0.43953300  1
  O  O5  1  0.30656000  0.49103300  0.06046700  1
  O  O6  1  0.80113900  0.01794000  0.93947500  1
  O  O7  1  0.69886100  0.51794000  0.56052500  1
  O  O8  1  0.19722400  0.46670600  0.85447400  1
  O  O9  1  0.30277600  0.96670600  0.64552600  1
  O  O10  1  0.80379200  0.53656200  0.35613700  1
  O  O11  1  0.69620800  0.03656200  0.14386300  1
  O  O12  1  0.80277600  0.53329400  0.14552600  1
  O  O13  1  0.69722400  0.03329400  0.35447400  1
  O  O14  1  0.19620800  0.46343800  0.64386300  1
  O  O15  1  0.30379200  0.96343800  0.85613700  1
  O  O16  1  0.73821500  0.02455200  0.74942400  1
  O  O17  1  0.76178500  0.52455200  0.75057600  1
  O  O18  1  0.26178500  0.97544800  0.25057600  1
  O  O19  1  0.23821500  0.47544800  0.24942400  1
  O  O20  1  0.53068500  0.24249900  0.64659400  1
  O  O21  1  0.96931500  0.74249900  0.85340600  1
  O  O22  1  0.47929800  0.75865200  0.14864000  1
  O  O23  1  0.02070200  0.25865200  0.35136000  1
  O  O24  1  0.46931500  0.75750100  0.35340600  1
  O  O25  1  0.03068500  0.25750100  0.14659400  1
  O  O26  1  0.52070200  0.24134800  0.85136000  1
  O  O27  1  0.97929800  0.74134800  0.64864000  1
  O  O28  1  0.60494700  0.24473000  0.47794000  1
  O  O29  1  0.89505300  0.74473000  0.02206000  1
  O  O30  1  0.39505300  0.75527000  0.52206000  1
  O  O31  1  0.10494700  0.25527000  0.97794000  1
  F  F0  1  0.39838800  0.74568600  0.96633700  1
  F  F1  1  0.10161200  0.24568600  0.53366300  1
  F  F2  1  0.60161200  0.25431400  0.03366300  1
  F  F3  1  0.89838800  0.75431400  0.46633700  1
loop_
_geom_bond_atom_site_label_1
_geom_bond_atom_site_label_2
_geom_bond_distance
_geom_bond_site_symmetry_2
Al0 O28 1.774683 1_555
Al0 F1 1.830481 1_555
Al0 O14 1.895965 1_555
Al0 O3 1.898148 1_555
Al0 O20 1.912315 1_555
Al0 O7 2.004212 1_555
Al1 O29 1.774683 1_456
Al1 F0 1.830481 1_555
Al1 O15 1.895965 1_555
Al1 O2 1.898148 1_556
Al1 O21 1.912315 1_455
Al1 O6 2.004212 1_465
Al2 O29 1.794266 1_555
Al2 F0 1.828422 1_554
Al2 O22 1.908794 1_555
Al2 O12 1.920991 1_555
Al2 O5 1.924927 1_555
Al2 O1 1.942167 1_554
Al3 O28 1.794266 1_555
Al3 F1 1.828422 1_655
Al3 O23 1.908794 1_655
Al3 O13 1.920991 1_555
Al3 O4 1.924927 1_645
Al3 O0 1.942167 1_555
Al4 O30 1.774683 1_555
Al4 F3 1.830481 1_555
Al4 O10 1.895965 1_555
Al4 O7 1.898148 1_555
Al4 O24 1.912315 1_555
Al4 O3 2.004212 1_555
Al5 O31 1.774683 1_654
Al5 F2 1.830481 1_555
Al5 O11 1.895965 1_555
Al5 O6 1.898148 1_554
Al5 O25 1.912315 1_655
Al5 O2 2.004212 1_645
Al6 O31 1.794266 1_555
Al6 F2 1.828422 1_556
Al6 O26 1.908794 1_555
Al6 O8 1.920991 1_555
Al6 O1 1.924927 1_555
Al6 O5 1.942167 1_556
Al7 O30 1.794266 1_555
Al7 F3 1.828422 1_455
Al7 O27 1.908794 1_455
Al7 O9 1.920991 1_555
Al7 O0 1.924927 1_465
Al7 O4 1.942167 1_555
Cu0 O26 1.929874 1_555
Cu0 O20 1.947673 1_555
Cu0 O8 1.959336 1_555
Cu0 O14 1.959497 1_555
Cu0 O17 2.506748 1_555
Cu1 O27 1.929874 1_455
Cu1 O21 1.947673 1_455
Cu1 O9 1.959336 1_555
Cu1 O15 1.959497 1_555
Cu1 O16 2.506748 1_465
Cu2 O22 1.929874 1_555
Cu2 O24 1.947673 1_555
Cu2 O12 1.959336 1_555
Cu2 O10 1.959497 1_555
Cu2 O19 2.506748 1_555
Cu3 O23 1.929874 1_655
Cu3 O25 1.947673 1_655
Cu3 O13 1.959336 1_555
Cu3 O11 1.959497 1_555
Cu3 O18 2.506748 1_645
O0 Si0 1.640802 1_555
O1 Si1 1.640802 1_555
O2 Si2 1.644950 1_555
O3 Si3 1.644950 1_555
O4 Si4 1.640802 1_555
O5 Si5 1.640802 1_555
O6 Si6 1.644950 1_555
O7 Si7 1.644950 1_555
O8 Si1 1.650109 1_455
O9 Si0 1.650109 1_565
O10 Si3 1.654428 1_655
O11 Si2 1.654428 1_545
O12 Si5 1.650109 1_655
O13 Si4 1.650109 1_545
O14 Si7 1.654428 1_455
O15 Si6 1.654428 1_565
O16 Si6 1.655680 1_555
O16 Si0 1.661668 1_555
O17 Si7 1.655680 1_555
O17 Si1 1.661668 1_555
O18 Si2 1.655680 1_555
O18 Si4 1.661668 1_555
O19 Si3 1.655680 1_555
O19 Si5 1.661668 1_555
O20 Si0 1.678027 1_555
O21 Si1 1.678027 1_555
O22 Si2 1.660638 1_555
O23 Si3 1.660638 1_555
O24 Si4 1.678027 1_555
O25 Si5 1.678027 1_555
O26 Si6 1.660638 1_555
O27 Si7 1.660638 1_555
