# generated using pymatgen
data_Cr(OF)3
_symmetry_space_group_name_H-M   'P 1'
_cell_length_a   4.98405500
_cell_length_b   5.38484366
_cell_length_c   5.56441729
_cell_angle_alpha   116.78734667
_cell_angle_beta   105.31367788
_cell_angle_gamma   102.97516617
_symmetry_Int_Tables_number   1
_chemical_formula_structural   Cr(OF)3
_chemical_formula_sum   'Cr1 O3 F3'
_cell_volume   117.90034606
_cell_formula_units_Z   1
loop_
 _symmetry_equiv_pos_site_id
 _symmetry_equiv_pos_as_xyz
  1  'x, y, z'
loop_
 _atom_site_type_symbol
 _atom_site_label
 _atom_site_symmetry_multiplicity
 _atom_site_fract_x
 _atom_site_fract_y
 _atom_site_fract_z
 _atom_site_occupancy
  Cr  Cr0  1  0.09884300  0.04075300  0.01150600  1
  O  O0  1  0.39727100  0.48937100  0.28829700  1
  O  O1  1  0.12112500  0.33094700  0.50059400  1
  O  O2  1  0.12285700  0.81761700  0.88506200  1
  F  F0  1  0.74703700  0.10141500  0.13443500  1
  F  F1  1  0.45006600  0.35386400  0.82560600  1
  F  F2  1  0.06280200  0.86603300  0.35449900  1
loop_
_geom_bond_atom_site_label_1
_geom_bond_atom_site_label_2
_geom_bond_distance
_geom_bond_site_symmetry_2
Cr0 O2 1.140237 1_544
Cr0 O0 2.059861 1_555
Cr0 F0 2.082885 1_455
Cr0 O1 2.406220 1_555
Cr0 F2 2.506742 1_545
F0 O1 1.960591 1_655
F1 O1 2.028696 1_555
