# generated using pymatgen
data_Mg16Al12Zn
_symmetry_space_group_name_H-M   'P 1'
_cell_length_a   9.06335280
_cell_length_b   9.06335280
_cell_length_c   9.06304517
_cell_angle_alpha   70.69389792
_cell_angle_beta   70.69389792
_cell_angle_gamma   109.26889475
_symmetry_Int_Tables_number   1
_chemical_formula_structural   Mg16Al12Zn
_chemical_formula_sum   'Mg16 Al12 Zn1'
_cell_volume   576.83540467
_cell_formula_units_Z   1
loop_
 _symmetry_equiv_pos_site_id
 _symmetry_equiv_pos_as_xyz
  1  'x, y, z'
loop_
 _atom_site_type_symbol
 _atom_site_label
 _atom_site_symmetry_multiplicity
 _atom_site_fract_x
 _atom_site_fract_y
 _atom_site_fract_z
 _atom_site_occupancy
  Mg  Mg0  1  0.68891700  0.68891700  0.70878300  1
  Mg  Mg1  1  0.00290300  0.00290300  0.65345400  1
  Mg  Mg2  1  0.99746800  0.99746800  0.00314500  1
  Mg  Mg3  1  0.64088800  0.64088800  0.33680600  1
  Mg  Mg4  1  0.32304700  0.59517700  0.00463400  1
  Mg  Mg5  1  0.40203800  0.71366300  0.59976700  1
  Mg  Mg6  1  0.99953400  0.31636500  0.39913500  1
  Mg  Mg7  1  0.99954600  0.34742800  0.00417000  1
  Mg  Mg8  1  0.29378600  0.68032000  0.31260400  1
  Mg  Mg9  1  0.60063500  0.00287100  0.68139100  1
  Mg  Mg10  1  0.00287100  0.60063500  0.68139100  1
  Mg  Mg11  1  0.68032000  0.29378600  0.31260400  1
  Mg  Mg12  1  0.34742800  0.99954600  0.00417000  1
  Mg  Mg13  1  0.31636500  0.99953400  0.39913500  1
  Mg  Mg14  1  0.71366300  0.40203800  0.59976700  1
  Mg  Mg15  1  0.59517700  0.32304700  0.00463400  1
  Al  Al0  1  0.36422100  0.36422100  0.82305900  1
  Al  Al1  1  0.18517600  0.18517600  0.18695300  1
  Al  Al2  1  0.64080500  0.82355400  0.99109600  1
  Al  Al3  1  0.18251700  0.36662800  0.63396200  1
  Al  Al4  1  0.81587700  0.00128200  0.36423800  1
  Al  Al5  1  0.81974200  0.19012200  0.81361100  1
  Al  Al6  1  0.63451800  0.00466000  0.18130300  1
  Al  Al7  1  0.00466000  0.63451800  0.18130300  1
  Al  Al8  1  0.19012200  0.81974200  0.81361100  1
  Al  Al9  1  0.00128200  0.81587700  0.36423800  1
  Al  Al10  1  0.36662800  0.18251700  0.63396200  1
  Al  Al11  1  0.82355400  0.64080500  0.99109600  1
  Zn  Zn0  1  0.36632900  0.36632900  0.31597900  1
loop_
_geom_bond_atom_site_label_1
_geom_bond_atom_site_label_2
_geom_bond_distance
_geom_bond_site_symmetry_2
Mg0 Mg1 3.035802 1_665
Mg0 Mg4 3.108421 1_556
Mg0 Mg15 3.108421 1_556
Mg0 Mg5 3.118322 1_555
Mg0 Mg14 3.118322 1_555
Mg0 Mg9 3.156816 1_565
Mg0 Mg10 3.156816 1_655
Mg1 Mg13 3.026346 1_545
Mg1 Mg6 3.026346 1_455
Mg1 Mg2 3.137043 1_446
Mg1 Zn0 3.251152 1_555
Mg2 Mg7 3.168753 1_565
Mg2 Mg3 3.196229 1_555
Mg3 Zn0 2.992390 1_555
Mg3 Mg5 3.061294 1_555
Mg3 Mg8 3.349486 1_555
Mg4 Mg7 3.050873 1_455
Mg4 Mg8 3.086445 1_555
Mg4 Zn0 3.133220 1_555
Mg4 Mg6 3.157518 1_455
Mg4 Mg5 3.206207 1_554
Mg4 Mg9 3.224687 1_564
Mg5 Mg9 3.115516 1_565
Mg5 Mg8 3.136892 1_555
Mg6 Zn0 2.991442 1_655
Mg6 Mg8 3.115903 1_655
Mg6 Mg9 3.160150 1_555
Mg8 Zn0 3.118095 1_555
Mg10 Mg7 3.046666 1_456
Mg10 Mg14 3.115516 1_455
Mg10 Mg8 3.156690 1_555
Mg10 Mg5 3.157260 1_555
Mg10 Mg13 3.160150 1_555
Mg10 Mg15 3.224687 1_456
Mg11 Mg7 3.040801 1_555
Mg11 Mg15 3.086445 1_555
Mg11 Mg13 3.115903 1_545
Mg11 Zn0 3.118095 1_555
Mg11 Mg14 3.136892 1_555
Mg11 Mg9 3.156690 1_555
Mg11 Mg6 3.200444 1_555
Mg11 Mg3 3.349486 1_555
Mg12 Mg8 3.040801 1_555
Mg12 Mg9 3.046666 1_564
Mg12 Mg15 3.050873 1_565
Mg12 Mg2 3.168753 1_455
Mg13 Zn0 2.991442 1_565
Mg13 Mg5 3.125462 1_555
Mg13 Mg15 3.157518 1_565
Mg13 Mg8 3.200444 1_555
Mg14 Mg3 3.061294 1_555
Mg14 Mg6 3.125462 1_555
Mg14 Mg9 3.157260 1_555
Mg14 Mg15 3.206207 1_556
Mg15 Zn0 3.133220 1_555
Al0 Al1 2.706992 1_556
Al0 Al3 2.741330 1_555
Al0 Al10 2.741330 1_555
Al0 Mg0 2.940529 1_555
Al0 Mg14 2.971593 1_555
Al0 Mg5 2.971593 1_555
Al0 Mg12 3.091460 1_546
Al0 Mg7 3.091460 1_456
Al0 Mg4 3.100997 1_556
Al0 Mg15 3.100997 1_556
Al0 Mg2 3.208568 1_446
Al1 Zn0 2.742017 1_555
Al1 Al4 2.748424 1_455
Al1 Al9 2.748424 1_545
Al1 Mg6 2.938623 1_455
Al1 Mg13 2.938623 1_545
Al1 Mg12 3.098759 1_545
Al1 Mg7 3.098759 1_455
Al1 Mg15 3.100046 1_555
Al1 Mg4 3.100046 1_555
Al1 Mg2 3.225117 1_445
Al2 Al5 2.727762 1_565
Al2 Al6 2.745358 1_566
Al2 Mg4 2.873600 1_556
Al2 Mg9 2.949959 1_565
Al2 Mg8 2.968486 1_556
Al2 Mg3 3.021623 1_556
Al2 Mg1 3.053889 1_665
Al2 Mg0 3.147004 1_555
Al2 Mg2 3.151228 1_556
Al3 Al5 2.699475 1_455
Al3 Zn0 2.813225 1_555
Al3 Mg8 2.876283 1_555
Al3 Mg5 2.960570 1_555
Al3 Mg1 3.071075 1_555
Al3 Mg10 3.123001 1_555
Al3 Mg7 3.127642 1_456
Al3 Mg6 3.156531 1_455
Al3 Mg2 3.222738 1_446
Al4 Al6 2.693173 1_555
Al4 Al9 2.740637 1_645
Al4 Mg9 2.899320 1_555
Al4 Mg0 2.952685 1_545
Al4 Mg6 2.972176 1_555
Al4 Mg7 3.074772 1_555
Al4 Mg2 3.157648 1_545
Al4 Mg5 3.161254 1_545
Al4 Mg11 3.235143 1_555
Al4 Mg3 3.259598 1_545
Al5 Al6 2.735548 1_556
Al5 Mg14 2.891184 1_555
Al5 Mg9 2.992264 1_555
Al5 Mg15 3.042810 1_556
Al5 Mg7 3.102696 1_556
Al5 Mg1 3.104241 1_655
Al5 Mg10 3.113655 1_655
Al5 Mg6 3.155172 1_555
Al5 Mg2 3.208866 1_546
Al6 Mg13 2.881180 1_545
Al6 Mg8 2.976519 1_545
Al6 Mg15 3.003214 1_555
Al6 Mg7 3.095257 1_555
Al6 Mg3 3.157009 1_545
Al6 Mg11 3.182099 1_555
Al6 Mg2 3.182996 1_545
Al6 Mg5 3.195843 1_545
Al7 Al9 2.693173 1_555
Al7 Al8 2.735548 1_554
Al7 Mg6 2.881180 1_455
Al7 Mg11 2.976519 1_455
Al7 Mg4 3.003214 1_555
Al7 Mg12 3.095257 1_555
Al7 Mg3 3.157009 1_455
Al7 Mg8 3.182099 1_555
Al7 Mg2 3.182996 1_455
Al7 Mg14 3.195843 1_455
Al8 Mg5 2.891184 1_555
Al8 Mg10 2.992264 1_555
Al8 Mg4 3.042810 1_556
Al8 Mg12 3.102696 1_556
Al8 Mg1 3.104241 1_565
Al8 Mg9 3.113655 1_565
Al8 Mg13 3.155172 1_555
Al8 Mg2 3.208866 1_456
Al9 Mg10 2.899320 1_555
Al9 Mg0 2.952685 1_455
Al9 Mg13 2.972176 1_555
Al9 Mg12 3.074772 1_555
Al9 Mg2 3.157648 1_455
Al9 Mg14 3.161254 1_455
Al9 Mg8 3.235143 1_555
Al9 Mg3 3.259598 1_455
Al10 Al8 2.699475 1_545
Al10 Al3 2.721509 1_555
Al10 Zn0 2.813225 1_555
Al10 Mg11 2.876283 1_555
Al10 Mg14 2.960570 1_555
Al10 Mg1 3.071075 1_555
Al10 Mg9 3.123001 1_555
Al10 Mg12 3.127642 1_546
Al10 Mg13 3.156531 1_545
Al10 Mg2 3.222738 1_446
Al11 Al2 2.701376 1_555
Al11 Al8 2.727762 1_655
Al11 Al7 2.745358 1_656
Al11 Mg15 2.873600 1_556
Al11 Mg10 2.949959 1_655
Al11 Mg11 2.968486 1_556
Al11 Mg3 3.021623 1_556
Al11 Mg1 3.053889 1_665
Al11 Mg0 3.147004 1_555
Al11 Mg2 3.151228 1_556
