# generated using pymatgen
data_KBa3Ga5(Se5Cl)2
_symmetry_space_group_name_H-M   'P 1'
_cell_length_a   8.78110900
_cell_length_b   8.78687457
_cell_length_c   10.04864037
_cell_angle_alpha   115.77863342
_cell_angle_beta   115.67080591
_cell_angle_gamma   89.97941443
_symmetry_Int_Tables_number   1
_chemical_formula_structural   KBa3Ga5(Se5Cl)2
_chemical_formula_sum   'K1 Ba3 Ga5 Se10 Cl2'
_cell_volume   612.14358240
_cell_formula_units_Z   1
loop_
 _symmetry_equiv_pos_site_id
 _symmetry_equiv_pos_as_xyz
  1  'x, y, z'
loop_
 _atom_site_type_symbol
 _atom_site_label
 _atom_site_symmetry_multiplicity
 _atom_site_fract_x
 _atom_site_fract_y
 _atom_site_fract_z
 _atom_site_occupancy
  K  K0  1  0.48456400  0.35283700  0.22823900  1
  Ba  Ba0  1  0.74386000  0.87670400  0.22900300  1
  Ba  Ba1  1  0.12529600  0.51647100  0.77143500  1
  Ba  Ba2  1  0.64691600  0.25426500  0.77080800  1
  Ga  Ga0  1  0.07113800  0.47160000  0.33189200  1
  Ga  Ga1  1  0.26149800  0.85767900  0.32980800  1
  Ga  Ga2  1  0.14105500  0.92953000  0.66918100  1
  Ga  Ga3  1  0.52567400  0.73573500  0.66642500  1
  Ga  Ga4  1  0.00223200  0.00145700  0.00133400  1
  Se  Se0  1  0.34816500  0.44414700  0.51829100  1
  Se  Se1  1  0.16700200  0.07169300  0.51632900  1
  Se  Se2  1  0.92896700  0.65202700  0.48414800  1
  Se  Se3  1  0.55527600  0.83673400  0.48553400  1
  Se  Se4  1  0.06700100  0.57239800  0.14183500  1
  Se  Se5  1  0.43012500  0.92937400  0.85749000  1
  Se  Se6  1  0.86099100  0.19272600  0.14595800  1
  Se  Se7  1  0.28612100  0.95064300  0.14512700  1
  Se  Se8  1  0.04324400  0.13814400  0.85060400  1
  Se  Se9  1  0.80637800  0.71457700  0.85393700  1
  Cl  Cl0  1  0.50050300  0.50165800  0.99849600  1
  Cl  Cl1  1  0.75399300  0.24960000  0.50412400  1
loop_
_geom_bond_atom_site_label_1
_geom_bond_atom_site_label_2
_geom_bond_distance
_geom_bond_site_symmetry_2
K0 Se0 3.400475 1_555
K0 Se7 3.521320 1_545
K0 Se8 3.743565 1_554
K0 Se2 3.766345 1_555
K0 Se3 3.768071 1_555
K0 Se5 3.788692 1_544
K0 Se6 3.865443 1_555
Ba0 Cl0 3.141518 1_554
Ba0 Cl1 3.208593 1_565
Ba0 Se1 3.388943 1_665
Ba0 Se6 3.496620 1_565
Ba0 Se9 3.695604 1_554
Ba0 Se2 3.728609 1_555
Ba0 Se3 3.741247 1_555
Ba0 Se5 3.785740 1_554
Ba0 Se7 3.850684 1_555
Ba0 Se4 4.009909 1_655
Ba1 Cl0 3.134174 1_555
Ba1 Cl1 3.206797 1_455
Ba1 Se2 3.376704 1_455
Ba1 Se9 3.508954 1_455
Ba1 Se7 3.687599 1_556
Ba1 Se0 3.689268 1_555
Ba1 Se1 3.752050 1_555
Ba1 Se4 3.796916 1_556
Ba1 Se8 3.873199 1_555
Ba2 Cl0 3.135875 1_555
Ba2 Cl1 3.186636 1_555
Ba2 Se3 3.343800 1_545
Ba2 Se8 3.476658 1_655
Ba2 Se6 3.697255 1_556
Ba2 Se1 3.737921 1_555
Ba2 Se0 3.743851 1_555
Ba2 Se4 3.787956 1_656
Ba2 Se9 3.882015 1_555
Ba2 Se5 4.016935 1_545
Ga0 Se4 2.417501 1_555
Ga0 Se0 2.434954 1_555
Ga0 Se6 2.436101 1_455
Ga0 Se2 2.440591 1_455
Ga1 Se7 2.413358 1_555
Ga1 Se4 2.420362 1_555
Ga1 Se3 2.426950 1_555
Ga1 Se1 2.453256 1_565
Ga2 Se5 2.421697 1_555
Ga2 Se8 2.422845 1_565
Ga2 Se2 2.435354 1_455
Ga2 Se1 2.437978 1_565
Ga3 Se5 2.416287 1_555
Ga3 Se0 2.425972 1_555
Ga3 Se9 2.437423 1_555
Ga3 Se3 2.443740 1_555
Ga4 Se6 2.431160 1_455
Ga4 Se8 2.433415 1_554
Ga4 Se7 2.437437 1_545
Ga4 Se9 2.460597 1_444
Cl0 K0 3.156761 1_556
Cl1 K0 3.257144 1_555
