# generated using pymatgen
data_CaTiMo(PO4)3
_symmetry_space_group_name_H-M   'P 1'
_cell_length_a   8.97833777
_cell_length_b   8.97833800
_cell_length_c   8.97833853
_cell_angle_alpha   58.57371819
_cell_angle_beta   58.57372201
_cell_angle_gamma   58.57372416
_symmetry_Int_Tables_number   1
_chemical_formula_structural   CaTiMo(PO4)3
_chemical_formula_sum   'Ca2 Ti2 Mo2 P6 O24'
_cell_volume   495.07700241
_cell_formula_units_Z   2
loop_
 _symmetry_equiv_pos_site_id
 _symmetry_equiv_pos_as_xyz
  1  'x, y, z'
loop_
 _atom_site_type_symbol
 _atom_site_label
 _atom_site_symmetry_multiplicity
 _atom_site_fract_x
 _atom_site_fract_y
 _atom_site_fract_z
 _atom_site_occupancy
  Ca  Ca0  1  0.99916100  0.99916100  0.99916100  1
  Ca  Ca1  1  0.49916100  0.49916100  0.49916100  1
  Ti  Ti0  1  0.14832100  0.14832100  0.14832100  1
  Ti  Ti1  1  0.64832100  0.64832100  0.64832100  1
  Mo  Mo0  1  0.35500300  0.35500300  0.35500300  1
  Mo  Mo1  1  0.85500300  0.85500300  0.85500300  1
  P  P0  1  0.03841300  0.45391300  0.75790600  1
  P  P1  1  0.45391300  0.75790600  0.03841300  1
  P  P2  1  0.75790600  0.03841300  0.45391300  1
  P  P3  1  0.25790600  0.95391300  0.53841300  1
  P  P4  1  0.53841300  0.25790600  0.95391300  1
  P  P5  1  0.95391300  0.53841300  0.25790600  1
  O  O0  1  0.10724800  0.51109200  0.30430100  1
  O  O1  1  0.30430100  0.10724800  0.51109200  1
  O  O2  1  0.05143700  0.26806400  0.92633400  1
  O  O3  1  0.51109200  0.30430100  0.10724800  1
  O  O4  1  0.01109200  0.60724800  0.80430100  1
  O  O5  1  0.22525000  0.42975200  0.59547400  1
  O  O6  1  0.26806400  0.92633400  0.05143700  1
  O  O7  1  0.42975200  0.59547400  0.22525000  1
  O  O8  1  0.20693900  0.99957200  0.37181700  1
  O  O9  1  0.59547400  0.22525000  0.42975200  1
  O  O10  1  0.09547400  0.92975200  0.72525000  1
  O  O11  1  0.37181700  0.20693900  0.99957200  1
  O  O12  1  0.60724800  0.80430100  0.01109200  1
  O  O13  1  0.92633400  0.05143700  0.26806400  1
  O  O14  1  0.42633400  0.76806400  0.55143700  1
  O  O15  1  0.80430100  0.01109200  0.60724800  1
  O  O16  1  0.55143700  0.42633400  0.76806400  1
  O  O17  1  0.72525000  0.09547400  0.92975200  1
  O  O18  1  0.76806400  0.55143700  0.42633400  1
  O  O19  1  0.99957200  0.37181700  0.20693900  1
  O  O20  1  0.49957200  0.70693900  0.87181700  1
  O  O21  1  0.92975200  0.72525000  0.09547400  1
  O  O22  1  0.70693900  0.87181700  0.49957200  1
  O  O23  1  0.87181700  0.49957200  0.70693900  1
loop_
_geom_bond_atom_site_label_1
_geom_bond_atom_site_label_2
_geom_bond_distance
_geom_bond_site_symmetry_2
Ca0 O2 2.385816 1_665
Ca0 O6 2.385816 1_656
Ca0 O13 2.385816 1_566
Ca0 O21 2.450037 1_556
Ca0 O17 2.450037 1_565
Ca0 O10 2.450037 1_655
Ca1 O18 2.385816 1_555
Ca1 O14 2.385816 1_555
Ca1 O16 2.385816 1_555
Ca1 O5 2.450037 1_555
Ca1 O7 2.450037 1_555
Ca1 O9 2.450037 1_555
Mo0 O1 2.063778 1_555
Mo0 O0 2.063778 1_555
Mo0 O3 2.063779 1_555
Mo0 O7 2.131150 1_555
Mo0 O9 2.131150 1_555
Mo0 O5 2.131150 1_555
Mo1 O12 2.063778 1_556
Mo1 O15 2.063778 1_565
Mo1 O4 2.063778 1_655
Mo1 O10 2.131150 1_655
Mo1 O21 2.131150 1_556
Mo1 O17 2.131150 1_565
O0 P5 1.506078 1_455
O1 P3 1.506078 1_545
O2 P0 1.560240 1_555
O2 Ti0 2.117323 1_556
O3 P4 1.506078 1_554
O4 P0 1.506078 1_555
O5 P0 1.545052 1_555
O6 P1 1.560240 1_555
O6 Ti0 2.117324 1_565
O7 P1 1.545052 1_555
O8 P3 1.579066 1_555
O8 Ti0 1.913336 1_565
O9 P2 1.545052 1_555
O10 P3 1.545052 1_555
O11 P4 1.579066 1_555
O11 Ti0 1.913336 1_556
O12 P1 1.506078 1_555
O13 P2 1.560240 1_555
O13 Ti0 2.117323 1_655
O14 P3 1.560240 1_555
O14 Ti1 2.117323 1_555
O15 P2 1.506078 1_555
O16 P4 1.560240 1_555
O16 Ti1 2.117323 1_555
O17 P4 1.545052 1_555
O18 P5 1.560240 1_555
O18 Ti1 2.117324 1_555
O19 P5 1.579066 1_555
O19 Ti0 1.913336 1_655
O20 P1 1.579066 1_556
O20 Ti1 1.913336 1_555
O21 P5 1.545052 1_555
O22 P2 1.579066 1_565
O22 Ti1 1.913336 1_555
O23 P0 1.579066 1_655
O23 Ti1 1.913336 1_555
