# generated using pymatgen
data_Cs3Hf2CuTe10
_symmetry_space_group_name_H-M   'P 1'
_cell_length_a   10.21424300
_cell_length_b   11.26824704
_cell_length_c   11.48303144
_cell_angle_alpha   89.54039934
_cell_angle_beta   89.33461137
_cell_angle_gamma   78.12013890
_symmetry_Int_Tables_number   1
_chemical_formula_structural   Cs3Hf2CuTe10
_chemical_formula_sum   'Cs6 Hf4 Cu2 Te20'
_cell_volume   1293.24134419
_cell_formula_units_Z   2
loop_
 _symmetry_equiv_pos_site_id
 _symmetry_equiv_pos_as_xyz
  1  'x, y, z'
loop_
 _atom_site_type_symbol
 _atom_site_label
 _atom_site_symmetry_multiplicity
 _atom_site_fract_x
 _atom_site_fract_y
 _atom_site_fract_z
 _atom_site_occupancy
  Cs  Cs0  1  0.88457400  0.89109100  0.26148000  1
  Cs  Cs1  1  0.11542600  0.10890900  0.73852000  1
  Cs  Cs2  1  0.44547700  0.76434900  0.38999900  1
  Cs  Cs3  1  0.55452300  0.23565100  0.61000100  1
  Cs  Cs4  1  0.30053400  0.62495500  0.89599600  1
  Cs  Cs5  1  0.69946600  0.37504500  0.10400400  1
  Hf  Hf0  1  0.10756400  0.37729400  0.36426400  1
  Hf  Hf1  1  0.89243600  0.62270600  0.63573600  1
  Hf  Hf2  1  0.30784100  0.15942700  0.14292600  1
  Hf  Hf3  1  0.69215900  0.84057300  0.85707400  1
  Cu  Cu0  1  0.92121800  0.37810200  0.55604500  1
  Cu  Cu1  1  0.07878200  0.62189800  0.44395500  1
  Te  Te0  1  0.84351600  0.55950100  0.39890200  1
  Te  Te1  1  0.15648400  0.44049900  0.60109800  1
  Te  Te2  1  0.92831700  0.20722700  0.40637000  1
  Te  Te3  1  0.07168300  0.79277300  0.59363000  1
  Te  Te4  1  0.19291100  0.58882700  0.24180900  1
  Te  Te5  1  0.80708900  0.41117300  0.75819100  1
  Te  Te6  1  0.21453700  0.11752700  0.39079000  1
  Te  Te7  1  0.78546300  0.88247300  0.60921000  1
  Te  Te8  1  0.07998200  0.36306700  0.10975200  1
  Te  Te9  1  0.92001800  0.63693300  0.89024800  1
  Te  Te10  1  0.39032700  0.35746600  0.29021400  1
  Te  Te11  1  0.60967300  0.64253400  0.70978600  1
  Te  Te12  1  0.04436200  0.12226800  0.06808300  1
  Te  Te13  1  0.95563800  0.87773200  0.93191700  1
  Te  Te14  1  0.52381200  0.09091900  0.30349600  1
  Te  Te15  1  0.47618800  0.90908100  0.69650400  1
  Te  Te16  1  0.33175400  0.91281200  0.07046900  1
  Te  Te17  1  0.66824600  0.08718800  0.92953100  1
  Te  Te18  1  0.40885400  0.24504100  0.93074900  1
  Te  Te19  1  0.59114600  0.75495900  0.06925100  1
loop_
_geom_bond_atom_site_label_1
_geom_bond_atom_site_label_2
_geom_bond_distance
_geom_bond_site_symmetry_2
Cs0 Te13 3.843363 1_554
Cs0 Cu1 3.878642 1_655
Cs0 Te14 3.929567 1_565
Cs0 Te12 3.994366 1_665
Cs0 Te2 4.052828 1_565
Cs0 Te7 4.113228 1_555
Cs0 Te4 4.141255 1_655
Cs0 Te0 4.142727 1_555
Cs0 Te19 4.278937 1_555
Cs0 Te3 4.319376 1_655
Cs1 Te12 3.843363 1_556
Cs1 Cu0 3.878642 1_455
Cs1 Te15 3.929567 1_545
Cs1 Te13 3.994366 1_445
Cs1 Te3 4.052828 1_545
Cs1 Te6 4.113228 1_555
Cs1 Te5 4.141255 1_455
Cs1 Te1 4.142727 1_555
Cs1 Te18 4.278937 1_555
Cs1 Te2 4.319376 1_455
Cs2 Te15 3.933720 1_555
Cs2 Te19 3.950298 1_555
Cs2 Te4 3.964767 1_555
Cs2 Te14 4.037760 1_565
Cs2 Te16 4.100149 1_555
Cs2 Te11 4.158820 1_555
Cs2 Te6 4.187766 1_565
Cs2 Te0 4.243848 1_555
Cs2 Cu1 4.403953 1_555
Cs2 Te3 4.410070 1_555
Cs3 Te14 3.933720 1_555
Cs3 Te18 3.950298 1_555
Cs3 Te5 3.964767 1_555
Cs3 Te15 4.037760 1_545
Cs3 Te17 4.100149 1_555
Cs3 Te10 4.158820 1_555
Cs3 Te7 4.187766 1_545
Cs3 Te1 4.243848 1_555
Cs3 Cu0 4.403953 1_555
Cs3 Te2 4.410070 1_555
Cs4 Te11 3.830907 1_555
Cs4 Te9 3.862474 1_455
Cs4 Te16 3.896384 1_556
Cs4 Te13 4.067862 1_455
Cs4 Te19 4.109697 1_556
Cs4 Te4 4.147263 1_556
Cs4 Te18 4.212219 1_555
Cs4 Te3 4.399840 1_555
Cs4 Te1 4.409082 1_555
Cs5 Te10 3.830907 1_555
Cs5 Te8 3.862474 1_655
Cs5 Te17 3.896384 1_554
Cs5 Te12 4.067862 1_655
Cs5 Te18 4.109697 1_554
Cs5 Te5 4.147263 1_554
Cs5 Te19 4.212219 1_555
Cs5 Te2 4.399840 1_555
Cs5 Te0 4.409082 1_555
Hf0 Te1 2.891739 1_555
Hf0 Te6 2.920839 1_555
Hf0 Te2 2.944051 1_455
Hf0 Te8 2.948172 1_555
Hf0 Te10 2.965643 1_555
Hf0 Te4 3.031845 1_555
Hf0 Te0 3.058762 1_455
Hf1 Te0 2.891739 1_555
Hf1 Te7 2.920839 1_555
Hf1 Te3 2.944051 1_655
Hf1 Te9 2.948172 1_555
Hf1 Te11 2.965643 1_555
Hf1 Te5 3.031845 1_555
Hf1 Te1 3.058762 1_655
Hf2 Te16 2.868315 1_545
Hf2 Te14 2.869232 1_555
Hf2 Te18 2.871441 1_554
Hf2 Te8 2.938563 1_555
Hf2 Te12 2.946209 1_555
Hf2 Te6 3.054981 1_555
Hf2 Te10 3.068871 1_555
Hf3 Te17 2.868315 1_565
Hf3 Te15 2.869232 1_555
Hf3 Te19 2.871441 1_556
Hf3 Te9 2.938563 1_555
Hf3 Te13 2.946209 1_555
Hf3 Te7 3.054981 1_555
Hf3 Te11 3.068871 1_555
Cu0 Te5 2.580347 1_555
Cu0 Te2 2.580578 1_555
Cu0 Te1 2.695751 1_655
Cu0 Te0 2.714837 1_555
Cu0 Hf1 2.867295 1_555
Cu0 Hf0 2.892851 1_655
Cu1 Te4 2.580347 1_555
Cu1 Te3 2.580578 1_555
Cu1 Te0 2.695751 1_455
Cu1 Te1 2.714837 1_555
Cu1 Hf0 2.867295 1_555
Cu1 Hf1 2.892851 1_455
Te2 Te6 2.893915 1_655
Te3 Te7 2.893915 1_455
Te4 Te8 3.378198 1_555
Te5 Te9 3.378198 1_555
Te10 Te4 3.001674 1_555
Te10 Te14 3.035588 1_555
Te11 Te5 3.001674 1_555
Te11 Te15 3.035588 1_555
Te12 Te8 2.855713 1_555
Te12 Te16 3.367002 1_545
Te12 Te13 3.462517 1_444
Te13 Te9 2.855713 1_555
Te13 Te17 3.367002 1_565
Te16 Te19 2.871078 1_555
Te17 Te18 2.871078 1_555
