# generated using pymatgen
data_Ca(SnO2)2
_symmetry_space_group_name_H-M   'P 1'
_cell_length_a   6.90943178
_cell_length_b   6.90943178
_cell_length_c   6.90943178
_cell_angle_alpha   122.54641815
_cell_angle_beta   121.47167803
_cell_angle_gamma   86.55675842
_symmetry_Int_Tables_number   1
_chemical_formula_structural   Ca(SnO2)2
_chemical_formula_sum   'Ca2 Sn4 O8'
_cell_volume   225.69151706
_cell_formula_units_Z   2
loop_
 _symmetry_equiv_pos_site_id
 _symmetry_equiv_pos_as_xyz
  1  'x, y, z'
loop_
 _atom_site_type_symbol
 _atom_site_label
 _atom_site_symmetry_multiplicity
 _atom_site_fract_x
 _atom_site_fract_y
 _atom_site_fract_z
 _atom_site_occupancy
  Ca  Ca0  1  0.35905200  0.60905200  0.75000000  1
  Ca  Ca1  1  0.64094800  0.39094800  0.25000000  1
  Sn  Sn0  1  0.00000000  0.50000000  0.00000000  1
  Sn  Sn1  1  0.00000000  0.00000000  0.50000000  1
  Sn  Sn2  1  0.50000000  0.00000000  0.50000000  1
  Sn  Sn3  1  0.00000000  0.00000000  0.00000000  1
  O  O0  1  0.79452100  0.30124000  0.00671900  1
  O  O1  1  0.21176700  0.24884800  0.96291900  1
  O  O2  1  0.78593000  0.24884800  0.53708100  1
  O  O3  1  0.20547900  0.21219800  0.50671900  1
  O  O4  1  0.21407000  0.75115200  0.46291900  1
  O  O5  1  0.78823300  0.75115200  0.03708100  1
  O  O6  1  0.79452100  0.78780200  0.49328100  1
  O  O7  1  0.20547900  0.69876000  0.99328100  1
loop_
_geom_bond_atom_site_label_1
_geom_bond_atom_site_label_2
_geom_bond_distance
_geom_bond_site_symmetry_2
Ca0 O3 2.235625 1_555
Ca0 O7 2.235625 1_555
Ca0 O4 2.409271 1_555
Ca0 O5 2.409271 1_556
Ca1 O0 2.235625 1_555
Ca1 O6 2.235625 1_555
Ca1 O2 2.409271 1_555
Ca1 O1 2.409271 1_554
O0 Sn0 2.067717 1_655
O0 Sn2 2.441298 1_554
O0 Sn3 2.441298 1_655
O1 Sn1 2.196806 1_555
O1 Sn0 2.196806 1_556
O1 Sn3 2.516052 1_556
O2 Sn1 2.196801 1_655
O2 Sn0 2.196806 1_656
O2 Sn2 2.516057 1_555
O3 Sn1 2.067717 1_555
O3 Sn2 2.441298 1_555
O3 Sn3 2.441298 1_555
O4 Sn1 2.196801 1_565
O4 Sn0 2.196806 1_555
O4 Sn2 2.516057 1_565
O5 Sn0 2.196806 1_655
O5 Sn1 2.196806 1_665
O5 Sn3 2.516052 1_665
O6 Sn1 2.067717 1_665
O6 Sn2 2.441298 1_565
O6 Sn3 2.441298 1_666
O7 Sn0 2.067717 1_556
O7 Sn3 2.441298 1_566
O7 Sn2 2.441298 1_566
