# generated using pymatgen
data_Cs2Nb3Cl7O5
_symmetry_space_group_name_H-M   'P 1'
_cell_length_a   9.95552611
_cell_length_b   9.95552611
_cell_length_c   11.33892109
_cell_angle_alpha   72.92701391
_cell_angle_beta   72.92701391
_cell_angle_gamma   54.24369150
_symmetry_Int_Tables_number   1
_chemical_formula_structural   Cs2Nb3Cl7O5
_chemical_formula_sum   'Cs4 Nb6 Cl14 O10'
_cell_volume   860.95278826
_cell_formula_units_Z   2
loop_
 _symmetry_equiv_pos_site_id
 _symmetry_equiv_pos_as_xyz
  1  'x, y, z'
loop_
 _atom_site_type_symbol
 _atom_site_label
 _atom_site_symmetry_multiplicity
 _atom_site_fract_x
 _atom_site_fract_y
 _atom_site_fract_z
 _atom_site_occupancy
  Cs  Cs0  1  0.75284500  0.84135500  0.85458800  1
  Cs  Cs1  1  0.15864500  0.24715500  0.64541200  1
  Cs  Cs2  1  0.24715500  0.15864500  0.14541200  1
  Cs  Cs3  1  0.84135500  0.75284500  0.35458800  1
  Nb  Nb0  1  0.21335400  0.79109300  0.52584100  1
  Nb  Nb1  1  0.20890700  0.78664600  0.97415900  1
  Nb  Nb2  1  0.78664600  0.20890700  0.47415900  1
  Nb  Nb3  1  0.79109300  0.21335400  0.02584100  1
  Nb  Nb4  1  0.46731400  0.53268600  0.25000000  1
  Nb  Nb5  1  0.53268600  0.46731400  0.75000000  1
  Cl  Cl0  1  0.06523100  0.64653000  0.61612700  1
  Cl  Cl1  1  0.35347000  0.93476900  0.88387300  1
  Cl  Cl2  1  0.93476900  0.35347000  0.38387300  1
  Cl  Cl3  1  0.64653000  0.06523100  0.11612700  1
  Cl  Cl4  1  0.36326200  0.93141500  0.46423200  1
  Cl  Cl5  1  0.06858500  0.63673800  0.03576800  1
  Cl  Cl6  1  0.63673800  0.06858500  0.53576800  1
  Cl  Cl7  1  0.93141500  0.36326200  0.96423200  1
  Cl  Cl8  1  0.29131800  0.42131400  0.32303100  1
  Cl  Cl9  1  0.57868600  0.70868200  0.17696900  1
  Cl  Cl10  1  0.70868200  0.57868600  0.67696900  1
  Cl  Cl11  1  0.42131400  0.29131800  0.82303100  1
  Cl  Cl12  1  0.09656400  0.90343600  0.75000000  1
  Cl  Cl13  1  0.90343600  0.09656400  0.25000000  1
  O  O0  1  0.28886300  0.71223800  0.37910400  1
  O  O1  1  0.28776200  0.71113700  0.12089600  1
  O  O2  1  0.71113700  0.28776200  0.62089600  1
  O  O3  1  0.71223800  0.28886300  0.87910400  1
  O  O4  1  0.39740800  0.60354000  0.62581100  1
  O  O5  1  0.39646000  0.60259200  0.87418900  1
  O  O6  1  0.60259200  0.39646000  0.37418900  1
  O  O7  1  0.60354000  0.39740800  0.12581100  1
  O  O8  1  0.00000000  0.00000000  0.50000000  1
  O  O9  1  0.00000000  0.00000000  0.00000000  1
loop_
_geom_bond_atom_site_label_1
_geom_bond_atom_site_label_2
_geom_bond_distance
_geom_bond_site_symmetry_2
Nb0 O0 1.814556 1_555
Nb0 O8 1.941093 1_565
Nb0 O4 2.026626 1_555
Nb1 O1 1.814556 1_556
Nb1 O9 1.941093 1_566
Nb1 O5 2.026626 1_555
Nb2 O2 1.814556 1_555
Nb2 O8 1.941093 1_655
Nb2 O6 2.026626 1_555
Nb3 O3 1.814556 1_554
Nb3 O9 1.941093 1_655
Nb3 O7 2.026626 1_555
Nb4 O7 1.869123 1_555
Nb4 O6 1.869123 1_555
Nb4 O1 2.189192 1_555
Nb4 O0 2.189192 1_555
Nb5 O4 1.869123 1_555
Nb5 O5 1.869123 1_555
Nb5 O2 2.189192 1_555
Nb5 O3 2.189192 1_555
Cl0 Nb0 2.454107 1_555
Cl0 Cs0 3.440525 1_455
Cl0 Cs1 3.445054 1_555
Cl0 Cs3 3.763444 1_455
Cl1 Nb1 2.454107 1_555
Cl1 Cs1 3.440525 1_565
Cl1 Cs0 3.445054 1_555
Cl1 Cs2 3.763444 1_566
Cl2 Nb2 2.454107 1_555
Cl2 Cs2 3.440525 1_655
Cl2 Cs3 3.445054 1_555
Cl2 Cs1 3.763444 1_655
Cl3 Nb3 2.454107 1_555
Cl3 Cs3 3.440525 1_545
Cl3 Cs2 3.445054 1_555
Cl3 Cs0 3.763444 1_544
Cl4 Nb0 2.432735 1_555
Cl4 Cs1 3.478798 1_565
Cl4 Cs2 3.757411 1_565
Cl4 Cs3 3.910868 1_555
Cl5 Nb1 2.432735 1_554
Cl5 Cs0 3.478798 1_454
Cl5 Cs3 3.757411 1_455
Cl5 Cs2 3.910868 1_555
Cl6 Nb2 2.432735 1_555
Cl6 Cs3 3.478798 1_545
Cl6 Cs0 3.757411 1_545
Cl6 Cs1 3.910868 1_555
Cl7 Nb3 2.432735 1_556
Cl7 Cs2 3.478798 1_656
Cl7 Cs1 3.757411 1_655
Cl7 Cs0 3.910868 1_555
Cl8 Nb4 2.421650 1_555
Cl8 Cs3 3.682635 1_455
Cl8 Cs1 3.772662 1_555
Cl8 Cs2 4.005480 1_555
Cl9 Nb4 2.421650 1_555
Cl9 Cs2 3.682635 1_565
Cl9 Cs0 3.772662 1_554
Cl9 Cs3 4.005480 1_555
Cl10 Nb5 2.421650 1_555
Cl10 Cs1 3.682635 1_655
Cl10 Cs3 3.772662 1_555
Cl10 Cs0 4.005480 1_555
Cl11 Nb5 2.421650 1_555
Cl11 Cs0 3.682635 1_545
Cl11 Cs2 3.772662 1_556
Cl11 Cs1 4.005480 1_555
Cl12 Nb1 2.734464 1_555
Cl12 Nb0 2.734464 1_555
Cl12 Cs0 3.627154 1_455
Cl12 Cs1 3.627154 1_565
Cl13 Nb3 2.734464 1_555
Cl13 Nb2 2.734464 1_555
Cl13 Cs3 3.627154 1_545
Cl13 Cs2 3.627154 1_655
