# generated using pymatgen
data_Ta2FeO6
_symmetry_space_group_name_H-M   'P 1'
_cell_length_a   9.32685900
_cell_length_b   4.82003700
_cell_length_c   14.43860241
_cell_angle_alpha   89.96686920
_cell_angle_beta   90.00000000
_cell_angle_gamma   90.00000000
_symmetry_Int_Tables_number   1
_chemical_formula_structural   Ta2FeO6
_chemical_formula_sum   'Ta12 Fe6 O36'
_cell_volume   649.09889291
_cell_formula_units_Z   6
loop_
 _symmetry_equiv_pos_site_id
 _symmetry_equiv_pos_as_xyz
  1  'x, y, z'
loop_
 _atom_site_type_symbol
 _atom_site_label
 _atom_site_symmetry_multiplicity
 _atom_site_fract_x
 _atom_site_fract_y
 _atom_site_fract_z
 _atom_site_occupancy
  Ta  Ta0  1  0.67083600  0.00000000  0.00000000  1
  Ta  Ta1  1  0.99608700  0.00429600  0.33320300  1
  Ta  Ta2  1  0.99608700  0.99570400  0.66679700  1
  Ta  Ta3  1  0.49600000  0.50487000  0.16861700  1
  Ta  Ta4  1  0.49937300  0.50000000  0.50000000  1
  Ta  Ta5  1  0.49600000  0.49513000  0.83138300  1
  Ta  Ta6  1  0.84433700  0.49580900  0.16496200  1
  Ta  Ta7  1  0.83515000  0.50000000  0.50000000  1
  Ta  Ta8  1  0.84433700  0.50419100  0.83503800  1
  Ta  Ta9  1  0.33467400  0.00302600  0.33435100  1
  Ta  Ta10  1  0.33467400  0.99697400  0.66564900  1
  Ta  Ta11  1  0.31631800  0.00000000  0.00000000  1
  Fe  Fe0  1  0.00117500  0.00000000  0.00000000  1
  Fe  Fe1  1  0.66588300  0.99336700  0.33095500  1
  Fe  Fe2  1  0.16805800  0.49493700  0.16512000  1
  Fe  Fe3  1  0.16701000  0.50000000  0.50000000  1
  Fe  Fe4  1  0.16805800  0.50506300  0.83488000  1
  Fe  Fe5  1  0.66588300  0.00663300  0.66904500  1
  O  O0  1  0.16628600  0.18962200  0.27131600  1
  O  O1  1  0.16611200  0.18826200  0.60514300  1
  O  O2  1  0.18266800  0.19881100  0.93072800  1
  O  O3  1  0.84492600  0.20645500  0.26552300  1
  O  O4  1  0.84790200  0.20737200  0.59784100  1
  O  O5  1  0.81425800  0.20549500  0.93088100  1
  O  O6  1  0.48528400  0.20479100  0.26400100  1
  O  O7  1  0.48461900  0.20861600  0.59798800  1
  O  O8  1  0.50652600  0.19662900  0.93463000  1
  O  O9  1  0.98372900  0.30588100  0.09734000  1
  O  O10  1  0.98621800  0.29415300  0.43141800  1
  O  O11  1  0.98420500  0.28643000  0.76607900  1
  O  O12  1  0.66682100  0.29721200  0.10186600  1
  O  O13  1  0.35457900  0.29517600  0.09539300  1
  O  O14  1  0.66648600  0.31083800  0.43785300  1
  O  O15  1  0.66320300  0.32475800  0.77009500  1
  O  O16  1  0.34726600  0.29303600  0.43129600  1
  O  O17  1  0.34894400  0.29069400  0.76558800  1
  O  O18  1  0.66320300  0.67524200  0.22990500  1
  O  O19  1  0.34894400  0.70930600  0.23441200  1
  O  O20  1  0.66648600  0.68916200  0.56214700  1
  O  O21  1  0.34726600  0.70696400  0.56870400  1
  O  O22  1  0.66682100  0.70278800  0.89813400  1
  O  O23  1  0.35457900  0.70482400  0.90460700  1
  O  O24  1  0.98420500  0.71357000  0.23392100  1
  O  O25  1  0.98621800  0.70584700  0.56858200  1
  O  O26  1  0.98372900  0.69411900  0.90266000  1
  O  O27  1  0.50652600  0.80337100  0.06537000  1
  O  O28  1  0.48461900  0.79138400  0.40201200  1
  O  O29  1  0.48528400  0.79520900  0.73599900  1
  O  O30  1  0.81425800  0.79450500  0.06911900  1
  O  O31  1  0.84790200  0.79262800  0.40215900  1
  O  O32  1  0.84492600  0.79354500  0.73447700  1
  O  O33  1  0.18266800  0.80118900  0.06927200  1
  O  O34  1  0.16611200  0.81173800  0.39485700  1
  O  O35  1  0.16628600  0.81037800  0.72868400  1
loop_
_geom_bond_atom_site_label_1
_geom_bond_atom_site_label_2
_geom_bond_distance
_geom_bond_site_symmetry_2
Fe0 O9 2.043992 1_455
Fe0 O26 2.043992 1_444
Fe0 O2 2.187008 1_554
Fe0 O33 2.187008 1_545
Fe0 O5 2.239457 1_454
Fe0 O30 2.239457 1_445
Fe1 O18 2.117355 1_555
Fe1 O14 2.174075 1_565
Fe1 O3 2.175991 1_565
Fe1 O6 2.192988 1_565
Fe1 O28 2.203970 1_555
Fe1 O31 2.207730 1_555
Fe2 O33 2.027418 1_555
Fe2 O0 2.124720 1_555
Fe2 O9 2.178270 1_455
Fe2 O19 2.217227 1_555
Fe2 O13 2.228941 1_555
Fe2 O24 2.244774 1_455
Fe3 O1 2.135389 1_555
Fe3 O34 2.135389 1_555
Fe3 O21 2.192453 1_555
Fe3 O16 2.192453 1_555
Fe3 O25 2.193051 1_455
Fe3 O10 2.193051 1_455
Fe4 O2 2.027418 1_555
Fe4 O35 2.124720 1_555
Fe4 O26 2.178270 1_455
Fe4 O17 2.217227 1_555
Fe4 O23 2.228941 1_555
Fe4 O11 2.244774 1_455
Fe5 O15 2.117355 1_555
Fe5 O20 2.174075 1_545
Fe5 O32 2.175991 1_545
Fe5 O29 2.192988 1_545
Fe5 O7 2.203970 1_555
Fe5 O4 2.207730 1_555
O0 Ta9 2.025559 1_555
O0 Ta1 2.028641 1_455
O1 Ta10 2.020907 1_545
O1 Ta2 2.041493 1_445
O2 Ta11 1.863174 1_556
O3 Ta1 1.972564 1_555
O3 Ta6 2.012724 1_555
O4 Ta2 1.985248 1_545
O4 Ta7 1.999243 1_555
O5 Ta0 1.940433 1_556
O5 Ta8 2.015991 1_555
O6 Ta9 1.987369 1_555
O6 Ta3 1.999112 1_555
O7 Ta10 1.987394 1_545
O7 Ta4 1.997722 1_555
O8 Ta0 2.033866 1_556
O8 Ta5 2.073542 1_555
O8 Ta11 2.221553 1_556
O9 Ta6 1.866180 1_555
O10 Ta7 1.987808 1_555
O10 Ta1 1.993410 1_555
O11 Ta8 1.948348 1_555
O11 Ta2 2.008277 1_545
O12 Ta0 2.054109 1_555
O12 Ta3 2.114287 1_555
O12 Ta6 2.118611 1_555
O13 Ta3 1.969872 1_555
O13 Ta11 2.012691 1_555
O14 Ta4 2.016631 1_555
O14 Ta7 2.027832 1_555
O15 Ta5 1.972373 1_555
O15 Ta8 2.117147 1_555
O16 Ta9 1.982263 1_555
O16 Ta4 1.998248 1_555
O17 Ta5 1.937978 1_555
O17 Ta10 2.026472 1_545
O18 Ta3 1.972373 1_555
O18 Ta6 2.117147 1_555
O19 Ta3 1.937978 1_555
O19 Ta9 2.026472 1_565
O20 Ta4 2.016631 1_555
O20 Ta7 2.027832 1_555
O21 Ta10 1.982263 1_555
O21 Ta4 1.998248 1_555
O22 Ta0 2.054109 1_566
O22 Ta5 2.114287 1_555
O22 Ta8 2.118611 1_555
O23 Ta5 1.969872 1_555
O23 Ta11 2.012691 1_566
O24 Ta6 1.948348 1_555
O24 Ta1 2.008277 1_565
O25 Ta7 1.987808 1_555
O25 Ta2 1.993410 1_555
O26 Ta8 1.866180 1_555
O27 Ta0 2.033866 1_565
O27 Ta3 2.073542 1_555
O27 Ta11 2.221553 1_565
O28 Ta9 1.987394 1_565
O28 Ta4 1.997722 1_555
O29 Ta10 1.987369 1_555
O29 Ta5 1.999112 1_555
O30 Ta0 1.940433 1_565
O30 Ta6 2.015991 1_555
O31 Ta1 1.985248 1_565
O31 Ta7 1.999243 1_555
O32 Ta2 1.972564 1_555
O32 Ta8 2.012724 1_555
O33 Ta11 1.863174 1_565
O34 Ta9 2.020907 1_565
O34 Ta1 2.041493 1_465
O35 Ta10 2.025559 1_555
O35 Ta2 2.028641 1_455
