# generated using pymatgen
data_Li2Mn3SbO8
_symmetry_space_group_name_H-M   'P 1'
_cell_length_a   5.96178874
_cell_length_b   10.86683510
_cell_length_c   6.16630569
_cell_angle_alpha   73.54698602
_cell_angle_beta   58.87758559
_cell_angle_gamma   71.63193267
_symmetry_Int_Tables_number   1
_chemical_formula_structural   Li2Mn3SbO8
_chemical_formula_sum   'Li4 Mn6 Sb2 O16'
_cell_volume   320.98379968
_cell_formula_units_Z   2
loop_
 _symmetry_equiv_pos_site_id
 _symmetry_equiv_pos_as_xyz
  1  'x, y, z'
loop_
 _atom_site_type_symbol
 _atom_site_label
 _atom_site_symmetry_multiplicity
 _atom_site_fract_x
 _atom_site_fract_y
 _atom_site_fract_z
 _atom_site_occupancy
  Li  Li0  1  0.44071900  0.69774100  0.43077900  1
  Li  Li1  1  0.94050100  0.19786000  0.93090600  1
  Li  Li2  1  0.05929400  0.80215200  0.06924300  1
  Li  Li3  1  0.55937000  0.30226800  0.56914000  1
  Mn  Mn0  1  0.49941600  0.99989000  0.50041600  1
  Mn  Mn1  1  0.50015800  0.00006400  0.00004400  1
  Mn  Mn2  1  0.50024900  0.49996500  0.99991900  1
  Mn  Mn3  1  0.00035500  0.49999000  0.99980600  1
  Mn  Mn4  1  0.00017300  0.50005300  0.49989600  1
  Mn  Mn5  1  0.99980800  0.00003900  0.49961400  1
  Sb  Sb0  1  0.24996600  0.24997900  0.25019100  1
  Sb  Sb1  1  0.74999300  0.74998700  0.75010600  1
  O  O0  1  0.36990000  0.90674300  0.36149500  1
  O  O1  1  0.87045800  0.40675100  0.86134300  1
  O  O2  1  0.13008900  0.59329700  0.13831200  1
  O  O3  1  0.62948300  0.09324100  0.63856200  1
  O  O4  1  0.60702800  0.13424500  0.12952800  1
  O  O5  1  0.10717100  0.63433400  0.62938600  1
  O  O6  1  0.14991600  0.12357700  0.58965800  1
  O  O7  1  0.65043000  0.62354000  0.08944700  1
  O  O8  1  0.15024600  0.12365400  0.13646100  1
  O  O9  1  0.65061200  0.62361900  0.63626100  1
  O  O10  1  0.34982300  0.37636300  0.36359700  1
  O  O11  1  0.84978700  0.87645400  0.86341500  1
  O  O12  1  0.35000400  0.37641800  0.91050900  1
  O  O13  1  0.84936000  0.87635900  0.41055300  1
  O  O14  1  0.89295400  0.36577300  0.37053000  1
  O  O15  1  0.39273700  0.86564400  0.87088300  1
loop_
_geom_bond_atom_site_label_1
_geom_bond_atom_site_label_2
_geom_bond_distance
_geom_bond_site_symmetry_2
Li0 O5 1.948578 1_555
Li0 O9 2.060522 1_555
Li0 O7 2.061321 1_555
Li0 O0 2.133439 1_555
Li1 O4 1.949342 1_556
Li1 O8 2.060206 1_656
Li1 O6 2.061413 1_655
Li1 O1 2.132462 1_555
Li2 O15 1.948532 1_554
Li2 O11 2.060474 1_454
Li2 O13 2.061183 1_455
Li2 O2 2.131933 1_555
Li3 O14 1.949281 1_555
Li3 O10 2.059169 1_555
Li3 O12 2.061329 1_555
Li3 O3 2.133844 1_555
Mn0 O6 1.979797 1_565
Mn0 O13 1.980635 1_555
Mn0 O0 2.005520 1_555
Mn0 O3 2.006018 1_565
Mn0 O15 2.224029 1_555
Mn0 O4 2.226161 1_565
Mn1 O11 1.979897 1_544
Mn1 O8 1.980746 1_555
Mn1 O3 2.006277 1_554
Mn1 O0 2.006455 1_545
Mn1 O4 2.222709 1_555
Mn1 O15 2.225763 1_544
Mn2 O1 1.938875 1_555
Mn2 O2 1.939028 1_556
Mn2 O12 2.143940 1_555
Mn2 O7 2.144380 1_556
Mn2 O10 2.147399 1_556
Mn2 O9 2.147551 1_555
Mn3 O12 1.979857 1_555
Mn3 O7 1.980743 1_456
Mn3 O1 2.005834 1_455
Mn3 O2 2.005847 1_556
Mn3 O5 2.224282 1_555
Mn3 O14 2.224823 1_456
Mn4 O9 1.979304 1_455
Mn4 O10 1.980232 1_555
Mn4 O1 2.006464 1_455
Mn4 O2 2.006881 1_555
Mn4 O5 2.224174 1_555
Mn4 O14 2.224530 1_455
Mn5 O0 1.938613 1_645
Mn5 O3 1.939355 1_555
Mn5 O13 2.144647 1_545
Mn5 O8 2.145363 1_655
Mn5 O6 2.145793 1_655
Mn5 O11 2.147629 1_545
O4 Sb0 1.967809 1_555
O5 Sb1 1.967926 1_455
O6 Sb0 2.054556 1_555
O7 Sb1 2.054334 1_554
O8 Sb0 2.054355 1_555
O9 Sb1 2.053871 1_555
O10 Sb0 2.054099 1_555
O11 Sb1 2.054211 1_555
O12 Sb0 2.055648 1_556
O13 Sb1 2.054871 1_555
O14 Sb0 1.967870 1_655
O15 Sb1 1.968262 1_555
