# generated using pymatgen
data_SrTl2Pt
_symmetry_space_group_name_H-M   'P 1'
_cell_length_a   6.01796207
_cell_length_b   6.01796207
_cell_length_c   8.36382692
_cell_angle_alpha   90.00000000
_cell_angle_beta   90.00000000
_cell_angle_gamma   136.91256053
_symmetry_Int_Tables_number   1
_chemical_formula_structural   SrTl2Pt
_chemical_formula_sum   'Sr2 Tl4 Pt2'
_cell_volume   206.91735472
_cell_formula_units_Z   2
loop_
 _symmetry_equiv_pos_site_id
 _symmetry_equiv_pos_as_xyz
  1  'x, y, z'
loop_
 _atom_site_type_symbol
 _atom_site_label
 _atom_site_symmetry_multiplicity
 _atom_site_fract_x
 _atom_site_fract_y
 _atom_site_fract_z
 _atom_site_occupancy
  Sr  Sr0  1  0.56503618  0.43496382  0.25000000  1
  Sr  Sr1  1  0.43496382  0.56503618  0.75000000  1
  Tl  Tl0  1  0.85389666  0.14610334  0.05112401  1
  Tl  Tl1  1  0.14610334  0.85389666  0.94887599  1
  Tl  Tl2  1  0.14610334  0.85389666  0.55112401  1
  Tl  Tl3  1  0.85389666  0.14610334  0.44887599  1
  Pt  Pt0  1  0.27872435  0.72127565  0.25000000  1
  Pt  Pt1  1  0.72127565  0.27872435  0.75000000  1
loop_
_geom_bond_atom_site_label_1
_geom_bond_atom_site_label_2
_geom_bond_distance
_geom_bond_site_symmetry_2
Sr0 Tl1 3.471344 1_544
Sr0 Tl2 3.471344 1_545
Sr0 Tl1 3.471344 1_654
Sr0 Tl2 3.471344 1_655
Sr0 Tl0 3.636526 1_555
Sr0 Tl3 3.636526 1_555
Sr0 Tl3 3.638331 1_455
Sr0 Tl0 3.638331 1_455
Sr0 Tl3 3.638331 1_565
Sr0 Tl0 3.638331 1_565
Sr1 Tl3 3.471344 1_455
Sr1 Tl3 3.471344 1_565
Sr1 Tl0 3.471344 1_456
Sr1 Tl0 3.471344 1_566
Sr1 Tl2 3.636526 1_555
Sr1 Tl1 3.636526 1_555
Sr1 Tl1 3.638331 1_655
Sr1 Tl2 3.638331 1_545
Sr1 Tl1 3.638331 1_545
Sr1 Tl2 3.638331 1_655
Pt0 Tl0 2.891106 1_565
Pt0 Tl3 2.891106 1_565
Pt0 Tl3 2.891106 1_455
Pt0 Tl0 2.891106 1_455
Pt0 Tl2 2.923598 1_555
Pt0 Tl1 2.923598 1_554
Pt0 Sr0 3.205280 1_555
Pt0 Sr0 3.256742 1_455
Pt0 Sr0 3.256742 1_565
Pt1 Tl1 2.891106 1_655
Pt1 Tl2 2.891106 1_655
Pt1 Tl1 2.891106 1_545
Pt1 Tl2 2.891106 1_545
Pt1 Tl3 2.923598 1_555
Pt1 Tl0 2.923598 1_556
Pt1 Sr1 3.205280 1_555
Pt1 Sr1 3.256742 1_545
Pt1 Sr1 3.256742 1_655
