# generated using pymatgen
data_Mg6FeB
_symmetry_space_group_name_H-M   'P 1'
_cell_length_a   4.54041300
_cell_length_b   6.20774400
_cell_length_c   10.37586700
_cell_angle_alpha   90.00000000
_cell_angle_beta   90.00000000
_cell_angle_gamma   90.00000000
_symmetry_Int_Tables_number   1
_chemical_formula_structural   Mg6FeB
_chemical_formula_sum   'Mg12 Fe2 B2'
_cell_volume   292.45129819
_cell_formula_units_Z   2
loop_
 _symmetry_equiv_pos_site_id
 _symmetry_equiv_pos_as_xyz
  1  'x, y, z'
loop_
 _atom_site_type_symbol
 _atom_site_label
 _atom_site_symmetry_multiplicity
 _atom_site_fract_x
 _atom_site_fract_y
 _atom_site_fract_z
 _atom_site_occupancy
  Mg  Mg0  1  0.50000000  0.25142000  0.58843600  1
  Mg  Mg1  1  0.50000000  0.74858000  0.58843600  1
  Mg  Mg2  1  0.00000000  0.24654700  0.40984600  1
  Mg  Mg3  1  0.00000000  0.75345300  0.40984600  1
  Mg  Mg4  1  0.00000000  0.00000000  0.67567900  1
  Mg  Mg5  1  0.00000000  0.00000000  0.17870000  1
  Mg  Mg6  1  0.50000000  0.75142000  0.08843600  1
  Mg  Mg7  1  0.50000000  0.24858000  0.08843600  1
  Mg  Mg8  1  0.00000000  0.74654700  0.90984600  1
  Mg  Mg9  1  0.00000000  0.25345300  0.90984600  1
  Mg  Mg10  1  0.00000000  0.50000000  0.17567900  1
  Mg  Mg11  1  0.00000000  0.50000000  0.67870000  1
  Fe  Fe0  1  0.50000000  0.00000000  0.83366700  1
  Fe  Fe1  1  0.50000000  0.50000000  0.33366700  1
  B  B0  1  0.50000000  0.00000000  0.31539300  1
  B  B1  1  0.50000000  0.50000000  0.81539300  1
loop_
_geom_bond_atom_site_label_1
_geom_bond_atom_site_label_2
_geom_bond_distance
_geom_bond_site_symmetry_2
Mg0 Mg4 2.899863 1_655
Mg0 Mg4 2.899863 1_555
Mg0 Mg11 2.900382 1_555
Mg0 Mg11 2.900382 1_655
Mg0 Mg2 2.930607 1_655
Mg0 Mg2 2.930607 1_555
Mg0 Mg1 3.086242 1_555
Mg0 Mg1 3.121502 1_545
Mg1 Mg4 2.899863 1_565
Mg1 Mg4 2.899863 1_665
Mg1 Mg11 2.900382 1_555
Mg1 Mg11 2.900382 1_655
Mg1 Mg3 2.930607 1_555
Mg1 Mg3 2.930607 1_655
Mg2 Mg5 2.845078 1_555
Mg2 Mg3 3.061001 1_545
Mg2 Mg3 3.146743 1_555
Mg2 Mg4 3.154420 1_555
Mg3 Mg5 2.845078 1_565
Mg3 Mg4 3.154420 1_565
Mg4 Mg9 2.894628 1_555
Mg4 Mg8 2.894628 1_545
Mg5 Mg7 2.900382 1_455
Mg5 Mg6 2.900382 1_545
Mg5 Mg7 2.900382 1_555
Mg5 Mg6 2.900382 1_445
Mg5 Mg9 3.202706 1_554
Mg5 Mg8 3.202706 1_544
Mg6 Mg8 2.930607 1_554
Mg6 Mg8 2.930607 1_654
Mg6 Mg7 3.086242 1_565
Mg6 Mg7 3.121502 1_555
Mg7 Mg9 2.930607 1_654
Mg7 Mg9 2.930607 1_554
Mg8 Mg9 3.061001 1_555
Mg8 Mg9 3.146743 1_565
Mg10 Mg2 2.894628 1_555
Mg10 Mg3 2.894628 1_555
Mg10 Mg6 2.899863 1_455
Mg10 Mg7 2.899863 1_455
Mg10 Mg6 2.899863 1_555
Mg10 Mg7 2.899863 1_555
Mg10 Mg8 3.154420 1_554
Mg10 Mg9 3.154420 1_554
Mg11 Mg8 2.845078 1_555
Mg11 Mg9 2.845078 1_555
Mg11 Mg3 3.202706 1_555
Mg11 Mg2 3.202706 1_555
Fe0 Mg4 2.800182 1_555
Fe0 Mg4 2.800182 1_655
Fe0 Mg9 2.872996 1_555
Fe0 Mg9 2.872996 1_655
Fe0 Mg8 2.872996 1_545
Fe0 Mg8 2.872996 1_645
Fe0 Mg1 2.985020 1_545
Fe0 Mg0 2.985020 1_555
Fe0 Mg6 3.060890 1_546
Fe0 Mg7 3.060890 1_556
Fe1 Mg10 2.800182 1_555
Fe1 Mg10 2.800182 1_655
Fe1 Mg2 2.872996 1_655
Fe1 Mg3 2.872996 1_555
Fe1 Mg3 2.872996 1_655
Fe1 Mg2 2.872996 1_555
Fe1 Mg6 2.985020 1_555
Fe1 Mg7 2.985020 1_555
Fe1 Mg0 3.060890 1_555
Fe1 Mg1 3.060890 1_555
B0 Mg5 2.676833 1_655
B0 Mg5 2.676833 1_555
B0 Mg6 2.815433 1_545
B0 Mg7 2.815433 1_555
B0 Mg2 2.908046 1_555
B0 Mg3 2.908046 1_645
B0 Mg2 2.908046 1_655
B0 Mg3 2.908046 1_545
B1 Mg11 2.676833 1_555
B1 Mg11 2.676833 1_655
B1 Mg1 2.815433 1_555
B1 Mg0 2.815433 1_555
B1 Mg8 2.908046 1_655
B1 Mg9 2.908046 1_555
B1 Mg9 2.908046 1_655
B1 Mg8 2.908046 1_555
