# generated using pymatgen
data_Ba2NaMg
_symmetry_space_group_name_H-M   'P 1'
_cell_length_a   15.02447470
_cell_length_b   14.75358912
_cell_length_c   14.75358915
_cell_angle_alpha   59.51826543
_cell_angle_beta   59.39075220
_cell_angle_gamma   59.39075090
_symmetry_Int_Tables_number   1
_chemical_formula_structural   Ba2NaMg
_chemical_formula_sum   'Ba2 Na1 Mg1'
_cell_volume   2282.66294080
_cell_formula_units_Z   1
loop_
 _symmetry_equiv_pos_site_id
 _symmetry_equiv_pos_as_xyz
  1  'x, y, z'
loop_
 _atom_site_type_symbol
 _atom_site_label
 _atom_site_symmetry_multiplicity
 _atom_site_fract_x
 _atom_site_fract_y
 _atom_site_fract_z
 _atom_site_occupancy
  Ba  Ba0  1  0.74094797  1.00000000  0.00000000  1
  Ba  Ba1  1  0.25905203  0.00000000  1.00000000  1
  Na  Na0  1  0.00000000  0.00000000  0.00000000  1
  Mg  Mg0  1  0.50000000  0.00000000  0.00000000  1
loop_
_geom_bond_atom_site_label_1
_geom_bond_atom_site_label_2
_geom_bond_distance
_geom_bond_site_symmetry_2
Ba0 Mg0 3.620117 1_565
Ba0 Na0 3.892121 1_665
Ba1 Mg0 3.620117 1_556
Ba1 Na0 3.892121 1_556
