# generated using pymatgen
data_KUPO7F
_symmetry_space_group_name_H-M   'P 1'
_cell_length_a   6.89662285
_cell_length_b   8.69522900
_cell_length_c   12.46507200
_cell_angle_alpha   90.00000000
_cell_angle_beta   93.38744931
_cell_angle_gamma   90.00000000
_symmetry_Int_Tables_number   1
_chemical_formula_structural   KUPO7F
_chemical_formula_sum   'K4 U4 P4 O28 F4'
_cell_volume   746.19584565
_cell_formula_units_Z   4
loop_
 _symmetry_equiv_pos_site_id
 _symmetry_equiv_pos_as_xyz
  1  'x, y, z'
loop_
 _atom_site_type_symbol
 _atom_site_label
 _atom_site_symmetry_multiplicity
 _atom_site_fract_x
 _atom_site_fract_y
 _atom_site_fract_z
 _atom_site_occupancy
  K  K0  1  0.36578700  0.80323900  0.54923300  1
  K  K1  1  0.86578700  0.69676100  0.04923300  1
  K  K2  1  0.63421300  0.19676100  0.45076700  1
  K  K3  1  0.13421300  0.30323900  0.95076700  1
  U  U0  1  0.35316200  0.53036000  0.25404200  1
  U  U1  1  0.85316200  0.96964000  0.75404200  1
  U  U2  1  0.64683800  0.46964000  0.74595800  1
  U  U3  1  0.14683800  0.03036000  0.24595800  1
  P  P0  1  0.84996600  0.37337500  0.23569900  1
  P  P1  1  0.34996600  0.12662500  0.73569900  1
  P  P2  1  0.15003400  0.62662500  0.76430100  1
  P  P3  1  0.65003400  0.87337500  0.26430100  1
  O  O0  1  0.65681000  0.41482100  0.28347200  1
  O  O1  1  0.15681000  0.08517900  0.78347200  1
  O  O2  1  0.34319000  0.58517900  0.71652800  1
  O  O3  1  0.84319000  0.91482100  0.21652800  1
  O  O4  1  0.91539800  0.21609800  0.28127800  1
  O  O5  1  0.41539800  0.28390200  0.78127800  1
  O  O6  1  0.08460200  0.78390200  0.71872200  1
  O  O7  1  0.58460200  0.71609800  0.21872200  1
  O  O8  1  0.49308400  0.99868300  0.23775500  1
  O  O9  1  0.99308400  0.50131700  0.73775500  1
  O  O10  1  0.50691600  0.00131700  0.76224500  1
  O  O11  1  0.00691600  0.49868300  0.26224500  1
  O  O12  1  0.36029700  0.57998100  0.39565300  1
  O  O13  1  0.86029700  0.92001900  0.89565300  1
  O  O14  1  0.63970300  0.42001900  0.60434700  1
  O  O15  1  0.13970300  0.07998100  0.10434700  1
  O  O16  1  0.33363700  0.47807400  0.11274300  1
  O  O17  1  0.83363700  0.02192600  0.61274300  1
  O  O18  1  0.66636300  0.52192600  0.88725700  1
  O  O19  1  0.16636300  0.97807400  0.38725700  1
  O  O20  1  0.84149100  0.37926500  0.11047200  1
  O  O21  1  0.34149100  0.12073500  0.61047200  1
  O  O22  1  0.15850900  0.62073500  0.88952800  1
  O  O23  1  0.65850900  0.87926500  0.38952800  1
  O  O24  1  0.58444200  0.17864700  0.03661800  1
  O  O25  1  0.08444200  0.32135300  0.53661800  1
  O  O26  1  0.41555800  0.82135300  0.96338200  1
  O  O27  1  0.91555800  0.67864700  0.46338200  1
  F  F0  1  0.30247300  0.26883200  0.29133900  1
  F  F1  1  0.80247300  0.23116800  0.79133800  1
  F  F2  1  0.69752700  0.73116800  0.70866200  1
  F  F3  1  0.19752700  0.76883200  0.20866100  1
loop_
_geom_bond_atom_site_label_1
_geom_bond_atom_site_label_2
_geom_bond_distance
_geom_bond_site_symmetry_2
K0 O12 2.725125 1_555
K0 O19 2.819763 1_555
K0 O2 2.829572 1_555
K0 O21 2.871822 1_565
K0 O6 2.955758 1_555
K0 O23 2.991736 1_555
K0 O27 3.401114 1_455
K1 O13 2.725125 1_554
K1 O18 2.819763 1_554
K1 O3 2.829572 1_555
K1 O20 2.871822 1_555
K1 O7 2.955758 1_555
K1 O22 2.991736 1_654
K1 O26 3.401114 1_554
K2 O14 2.725125 1_555
K2 O17 2.819763 1_555
K2 O0 2.829572 1_555
K2 O23 2.871822 1_545
K2 O4 2.955758 1_555
K2 O21 2.991736 1_555
K2 O25 3.401114 1_655
K3 O15 2.725125 1_556
K3 O16 2.819763 1_556
K3 O1 2.829572 1_555
K3 O22 2.871822 1_555
K3 O5 2.955758 1_555
K3 O20 2.991736 1_456
K3 O24 3.401114 1_556
O0 P0 1.533880 1_555
O0 U0 2.332067 1_555
O1 P1 1.533880 1_555
O1 U1 2.332067 1_445
O2 P2 1.533880 1_555
O2 U2 2.332067 1_555
O3 P3 1.533880 1_555
O3 U3 2.332067 1_665
O4 P0 1.538293 1_555
O4 U3 2.330864 1_655
O5 P1 1.538293 1_555
O5 U2 2.330864 1_555
O6 P2 1.538293 1_555
O6 U1 2.330864 1_455
O7 P3 1.538293 1_555
O7 U0 2.330864 1_555
O8 P3 1.557562 1_555
O8 U3 2.411924 1_565
O9 P2 1.557562 1_655
O9 U2 2.411924 1_555
O10 P1 1.557562 1_555
O10 U1 2.411924 1_545
O11 P0 1.557562 1_455
O11 U0 2.411924 1_555
O12 U0 1.814999 1_555
O13 U1 1.814999 1_555
O14 U2 1.814999 1_555
O15 U3 1.814999 1_555
O16 U0 1.816311 1_555
O17 U1 1.816311 1_545
O18 U2 1.816311 1_555
O19 U3 1.816311 1_565
O20 P0 1.559444 1_555
O21 P1 1.559444 1_555
O22 P2 1.559444 1_555
O23 P3 1.559444 1_555
F0 U0 2.351349 1_555
F0 U3 2.387471 1_555
F0 K2 3.006514 1_555
F1 U1 2.351346 1_545
F1 U2 2.387468 1_555
F1 K3 3.006521 1_655
F2 U2 2.351346 1_555
F2 U1 2.387468 1_555
F2 K0 3.006521 1_555
F3 U3 2.351349 1_565
F3 U0 2.387471 1_555
F3 K1 3.006514 1_455
