# generated using pymatgen
data_Nb5H50C12(NO7)3
_symmetry_space_group_name_H-M   'P 1'
_cell_length_a   11.16811700
_cell_length_b   12.37556458
_cell_length_c   13.53271399
_cell_angle_alpha   85.86872508
_cell_angle_beta   68.43723166
_cell_angle_gamma   87.20808150
_symmetry_Int_Tables_number   1
_chemical_formula_structural   Nb5H50C12(NO7)3
_chemical_formula_sum   'Nb10 H100 C24 N6 O42'
_cell_volume   1734.46427387
_cell_formula_units_Z   2
loop_
 _symmetry_equiv_pos_site_id
 _symmetry_equiv_pos_as_xyz
  1  'x, y, z'
loop_
 _atom_site_type_symbol
 _atom_site_label
 _atom_site_symmetry_multiplicity
 _atom_site_fract_x
 _atom_site_fract_y
 _atom_site_fract_z
 _atom_site_occupancy
  Nb  Nb0  1  0.64467600  0.46540900  0.01748200  1
  Nb  Nb1  1  0.35532400  0.53459100  0.98251800  1
  Nb  Nb2  1  0.52190500  0.72678900  0.04604500  1
  Nb  Nb3  1  0.47809500  0.27321100  0.95395500  1
  Nb  Nb4  1  0.64801600  0.63127300  0.80222400  1
  Nb  Nb5  1  0.35198400  0.36872700  0.19777600  1
  Nb  Nb6  1  0.52050100  0.55850100  0.26134500  1
  Nb  Nb7  1  0.47949900  0.44149900  0.73865500  1
  Nb  Nb8  1  0.76370500  0.36964900  0.77443500  1
  Nb  Nb9  1  0.23629500  0.63035100  0.22556500  1
  H  H0  1  0.98651300  0.04863300  0.31214900  1
  H  H1  1  0.01348700  0.95136700  0.68785100  1
  H  H2  1  0.90343600  0.95116100  0.38865500  1
  H  H3  1  0.09656400  0.04883900  0.61134500  1
  H  H4  1  0.71018000  0.11562600  0.25324900  1
  H  H5  1  0.28982000  0.88437400  0.74675100  1
  H  H6  1  0.77739400  0.06411300  0.33290100  1
  H  H7  1  0.22260600  0.93588700  0.66709900  1
  H  H8  1  0.71679800  0.12854000  0.06634600  1
  H  H9  1  0.28320200  0.87146000  0.93365400  1
  H  H10  1  0.65398100  0.23102800  0.12654100  1
  H  H11  1  0.34601900  0.76897200  0.87345900  1
  H  H12  1  0.60166300  0.67245800  0.57464700  1
  H  H13  1  0.39833700  0.32754200  0.42535300  1
  H  H14  1  0.61002000  0.65824800  0.45750800  1
  H  H15  1  0.38998000  0.34175200  0.54249200  1
  H  H16  1  0.17475200  0.05593500  0.15712700  1
  H  H17  1  0.82524800  0.94406500  0.84287300  1
  H  H18  1  0.17278900  0.15261800  0.22856200  1
  H  H19  1  0.82721100  0.84738200  0.77143800  1
  H  H20  1  0.34239100  0.01480200  0.03157700  1
  H  H21  1  0.65760900  0.98519800  0.96842300  1
  H  H22  1  0.29963700  0.89693400  0.08924700  1
  H  H23  1  0.70036300  0.10306600  0.91075300  1
  H  H24  1  0.94132900  0.76057300  0.38543400  1
  H  H25  1  0.05867100  0.23942700  0.61456600  1
  H  H26  1  0.78790400  0.77274200  0.44770900  1
  H  H27  1  0.21209600  0.22725800  0.55229100  1
  H  H28  1  0.31925200  0.12602000  0.38261100  1
  H  H29  1  0.68074800  0.87398000  0.61738900  1
  H  H30  1  0.32724900  0.04138000  0.49419700  1
  H  H31  1  0.67275100  0.95862000  0.50580300  1
  H  H32  1  0.47258900  0.09408700  0.39504900  1
  H  H33  1  0.52741100  0.90591300  0.60495100  1
  H  H34  1  0.39806800  0.05913100  0.20783100  1
  H  H35  1  0.60193200  0.94086900  0.79216900  1
  H  H36  1  0.55075900  0.02835200  0.21890600  1
  H  H37  1  0.44924100  0.97164800  0.78109400  1
  H  H38  1  0.46702000  0.92412100  0.18641400  1
  H  H39  1  0.53298000  0.07587900  0.81358600  1
  H  H40  1  0.21016300  0.90779400  0.45366200  1
  H  H41  1  0.78983700  0.09220600  0.54633800  1
  H  H42  1  0.20611400  0.98274400  0.33685800  1
  H  H43  1  0.79388600  0.01725600  0.66314200  1
  H  H44  1  0.27365100  0.84734200  0.32597100  1
  H  H45  1  0.72634900  0.15265800  0.67402900  1
  H  H46  1  0.56626600  0.91509800  0.36433200  1
  H  H47  1  0.43373400  0.08490200  0.63566800  1
  H  H48  1  0.42486000  0.86509500  0.46892900  1
  H  H49  1  0.57514000  0.13490500  0.53107100  1
  H  H50  1  0.47751600  0.80848700  0.34010000  1
  H  H51  1  0.52248400  0.19151300  0.65990000  1
  H  H52  1  0.66506800  0.39302200  0.40217000  1
  H  H53  1  0.33493200  0.60697800  0.59783000  1
  H  H54  1  0.72865300  0.25586300  0.39569000  1
  H  H55  1  0.27134700  0.74413700  0.60431000  1
  H  H56  1  0.69619500  0.33012700  0.51401000  1
  H  H57  1  0.30380500  0.66987300  0.48599000  1
  H  H58  1  0.95143200  0.22403300  0.39379100  1
  H  H59  1  0.04856800  0.77596700  0.60620900  1
  H  H60  1  0.04704800  0.33867300  0.38837600  1
  H  H61  1  0.95295200  0.66132700  0.61162400  1
  H  H62  1  0.91333200  0.30279800  0.50846300  1
  H  H63  1  0.08666800  0.69720200  0.49153700  1
  H  H64  1  0.82276500  0.48501400  0.50720200  1
  H  H65  1  0.17723500  0.51498600  0.49279800  1
  H  H66  1  0.95856600  0.52046000  0.38758100  1
  H  H67  1  0.04143400  0.47954000  0.61241900  1
  H  H68  1  0.79591200  0.54159800  0.39155900  1
  H  H69  1  0.20408800  0.45840200  0.60844100  1
  H  H70  1  0.84406400  0.43308300  0.23652300  1
  H  H71  1  0.15593600  0.56691700  0.76347700  1
  H  H72  1  0.00790700  0.41581200  0.23272600  1
  H  H73  1  0.99209300  0.58418800  0.76727400  1
  H  H74  1  0.91390200  0.29981800  0.23861200  1
  H  H75  1  0.08609800  0.70018200  0.76138800  1
  H  H76  1  0.02983100  0.36516200  0.85153700  1
  H  H77  1  0.97016900  0.63483800  0.14846300  1
  H  H78  1  0.19905700  0.35136500  0.83168900  1
  H  H79  1  0.80094300  0.64863500  0.16831100  1
  H  H80  1  0.13733300  0.29104300  0.74316400  1
  H  H81  1  0.86266700  0.70895700  0.25683600  1
  H  H82  1  0.28726900  0.17192100  0.86249600  1
  H  H83  1  0.71273100  0.82807900  0.13750400  1
  H  H84  1  0.18019100  0.06005000  0.91260100  1
  H  H85  1  0.81980900  0.93995000  0.08739900  1
  H  H86  1  0.21835500  0.11334000  0.77783800  1
  H  H87  1  0.78164500  0.88666000  0.22216200  1
  H  H88  1  0.95523700  0.08488400  0.94424900  1
  H  H89  1  0.04476300  0.91511600  0.05575100  1
  H  H90  1  0.89106700  0.21560900  0.92116100  1
  H  H91  1  0.10893300  0.78439100  0.07883900  1
  H  H92  1  0.99147100  0.14055000  0.81024700  1
  H  H93  1  0.00852900  0.85945000  0.18975300  1
  H  H94  1  0.14885100  0.28493700  0.00666900  1
  H  H95  1  0.85114900  0.71506300  0.99333100  1
  H  H96  1  0.97762000  0.29051700  0.03422400  1
  H  H97  1  0.02238000  0.70948300  0.96577600  1
  H  H98  1  0.05500100  0.16671300  0.05945800  1
  H  H99  1  0.94499900  0.83328700  0.94054200  1
  C  C0  1  0.37621200  0.06485900  0.40984300  1
  C  C1  1  0.62378800  0.93514100  0.59015700  1
  C  C2  1  0.45632800  0.99622700  0.23151000  1
  C  C3  1  0.54367200  0.00377300  0.76849000  1
  C  C4  1  0.26053000  0.92221100  0.36766200  1
  C  C5  1  0.73947000  0.07778900  0.63233800  1
  C  C6  1  0.47083100  0.88177800  0.38284000  1
  C  C7  1  0.52916900  0.11822200  0.61716000  1
  C  C8  1  0.72784400  0.33542600  0.42696200  1
  C  C9  1  0.27215600  0.66457400  0.57303800  1
  C  C10  1  0.95017400  0.30534300  0.42127200  1
  C  C11  1  0.04982600  0.69465700  0.57872800  1
  C  C12  1  0.86037000  0.48986100  0.41997700  1
  C  C13  1  0.13963000  0.51013900  0.58002300  1
  C  C14  1  0.91088400  0.38254000  0.26349300  1
  C  C15  1  0.08911600  0.61746000  0.73650700  1
  C  C16  1  0.11650300  0.31287200  0.82486000  1
  C  C17  1  0.88349700  0.68712800  0.17514000  1
  C  C18  1  0.20266700  0.13331200  0.85931000  1
  C  C19  1  0.79733300  0.86668800  0.14069000  1
  C  C20  1  0.97320900  0.15904900  0.89249000  1
  C  C21  1  0.02679100  0.84095100  0.10751000  1
  C  C22  1  0.06603500  0.24038800  0.00733800  1
  C  C23  1  0.93396500  0.75961200  0.99266200  1
  N  N0  1  0.39081700  0.96591900  0.34785100  1
  N  N1  1  0.60918300  0.03408100  0.65214900  1
  N  N2  1  0.86236100  0.37804500  0.38288700  1
  N  N3  1  0.13763900  0.62195500  0.61711300  1
  N  N4  1  0.08980900  0.21103500  0.89593200  1
  N  N5  1  0.91019100  0.78896500  0.10406800  1
  O  O0  1  0.53767900  0.32781400  0.07699600  1
  O  O1  1  0.46232100  0.67218600  0.92300400  1
  O  O2  1  0.91294400  0.31010000  0.69216200  1
  O  O3  1  0.08705600  0.68990000  0.30783800  1
  O  O4  1  0.71603100  0.76050200  0.75010400  1
  O  O5  1  0.28396900  0.23949800  0.24989600  1
  O  O6  1  0.58159400  0.85919700  0.99616800  1
  O  O7  1  0.41840600  0.14080300  0.00383200  1
  O  O8  1  0.58127400  0.57361400  0.36436500  1
  O  O9  1  0.41872600  0.42638600  0.63563500  1
  O  O10  1  0.78915800  0.39923300  0.91815000  1
  O  O11  1  0.21084200  0.60076700  0.08185000  1
  O  O12  1  0.67625200  0.48673500  0.14178300  1
  O  O13  1  0.32374800  0.51326500  0.85821700  1
  O  O14  1  0.79158500  0.52982100  0.74470400  1
  O  O15  1  0.20841500  0.47017900  0.25529600  1
  O  O16  1  0.34153600  0.75617300  0.13477600  1
  O  O17  1  0.65846400  0.24382700  0.86522400  1
  O  O18  1  0.34370600  0.62365600  0.31322300  1
  O  O19  1  0.65629400  0.37634400  0.68677700  1
  O  O20  1  0.55673100  0.59033800  0.71212500  1
  O  O21  1  0.44326900  0.40966200  0.28787500  1
  O  O22  1  0.57724200  0.69449700  0.16528900  1
  O  O23  1  0.42275800  0.30550300  0.83471100  1
  O  O24  1  0.67454100  0.62010600  0.95276600  1
  O  O25  1  0.32545900  0.37989400  0.04723400  1
  O  O26  1  0.44844200  0.53983100  0.10053800  1
  O  O27  1  0.55155800  0.46016900  0.89946200  1
  O  O28  1  0.90463300  0.03070800  0.37206400  1
  O  O29  1  0.09536700  0.96929200  0.62793600  1
  O  O30  1  0.69291000  0.08504400  0.32648800  1
  O  O31  1  0.30709000  0.91495600  0.67351200  1
  O  O32  1  0.71863200  0.17305500  0.12336500  1
  O  O33  1  0.28136800  0.82694500  0.87663500  1
  O  O34  1  0.63095700  0.70823800  0.50256200  1
  O  O35  1  0.36904300  0.29176200  0.49743800  1
  O  O36  1  0.11659800  0.10291100  0.21165100  1
  O  O37  1  0.88340200  0.89708900  0.78834900  1
  O  O38  1  0.27276900  0.96046800  0.05292200  1
  O  O39  1  0.72723100  0.03953200  0.94707800  1
  O  O40  1  0.86939600  0.81272500  0.41574800  1
  O  O41  1  0.13060400  0.18727500  0.58425200  1
loop_
_geom_bond_atom_site_label_1
_geom_bond_atom_site_label_2
_geom_bond_distance
_geom_bond_site_symmetry_2
Nb0 O10 1.875338 1_554
Nb0 O12 1.879529 1_555
Nb0 O24 2.036990 1_554
Nb0 O0 2.066245 1_555
Nb0 O27 2.208820 1_554
Nb0 O26 2.248658 1_555
Nb1 O11 1.875338 1_556
Nb1 O13 1.879529 1_555
Nb1 O25 2.036990 1_556
Nb1 O1 2.066245 1_555
Nb1 O26 2.208820 1_556
Nb1 O27 2.248658 1_555
Nb2 O6 1.789238 1_554
Nb2 O22 1.939515 1_555
Nb2 O16 1.960983 1_555
Nb2 O24 2.163701 1_554
Nb2 O1 2.166168 1_554
Nb2 O26 2.462634 1_555
Nb3 O7 1.789238 1_556
Nb3 O23 1.939515 1_555
Nb3 O17 1.960983 1_555
Nb3 O25 2.163701 1_556
Nb3 O0 2.166168 1_556
Nb3 O27 2.462634 1_555
Nb4 O4 1.787228 1_555
Nb4 O14 1.944335 1_555
Nb4 O20 1.958476 1_555
Nb4 O24 2.157835 1_555
Nb4 O1 2.180410 1_555
Nb4 O27 2.480863 1_555
Nb5 O5 1.787228 1_555
Nb5 O15 1.944335 1_555
Nb5 O21 1.958476 1_555
Nb5 O25 2.157835 1_555
Nb5 O0 2.180410 1_555
Nb5 O26 2.480863 1_555
Nb6 O8 1.784579 1_555
Nb6 O18 1.987243 1_555
Nb6 O21 2.024247 1_555
Nb6 O22 2.026593 1_555
Nb6 O12 2.102434 1_555
Nb6 O26 2.610462 1_555
Nb7 O9 1.784579 1_555
Nb7 O19 1.987243 1_555
Nb7 O20 2.024247 1_555
Nb7 O23 2.026593 1_555
Nb7 O13 2.102434 1_555
Nb7 O27 2.610462 1_555
Nb8 O2 1.787517 1_555
Nb8 O19 1.968544 1_555
Nb8 O14 2.010262 1_555
Nb8 O17 2.038815 1_555
Nb8 O10 2.125183 1_555
Nb8 O27 2.607509 1_555
Nb9 O3 1.787517 1_555
Nb9 O18 1.968544 1_555
Nb9 O15 2.010262 1_555
Nb9 O16 2.038815 1_555
Nb9 O11 2.125183 1_555
Nb9 O26 2.607509 1_555
H0 O28 0.995837 1_555
H1 O29 0.995837 1_555
H2 O28 0.993448 1_565
H3 O29 0.993448 1_545
H4 O30 0.987581 1_555
H5 O31 0.987581 1_555
H6 O30 0.999006 1_555
H7 O31 0.999006 1_555
H8 O32 0.986546 1_555
H9 O33 0.986546 1_555
H10 O32 0.984416 1_555
H11 O33 0.984416 1_555
H12 O34 0.985903 1_555
H13 O35 0.985903 1_555
H14 O34 0.991149 1_555
H15 O35 0.991149 1_555
H16 O36 0.988432 1_555
H17 O37 0.988432 1_555
H18 O36 0.994010 1_555
H19 O37 0.994010 1_555
H20 O38 0.999007 1_545
H21 O39 0.999007 1_565
H22 O38 0.989774 1_555
H23 O39 0.989774 1_555
H24 O40 0.987736 1_555
H25 O41 0.987736 1_555
H26 O40 0.991922 1_555
H27 O41 0.991922 1_555
C0 H30 1.093350 1_555
C0 H32 1.094782 1_555
C0 H28 1.094805 1_555
C0 N0 1.502534 1_545
C1 H31 1.093350 1_555
C1 H33 1.094782 1_555
C1 H29 1.094805 1_555
C1 N1 1.502534 1_565
C2 H38 1.094305 1_555
C2 H36 1.094633 1_565
C2 H34 1.095454 1_565
C2 N0 1.499900 1_555
C3 H39 1.094305 1_555
C3 H37 1.094633 1_545
C3 H35 1.095454 1_545
C3 N1 1.499900 1_555
C4 H44 1.095261 1_555
C4 H42 1.095977 1_555
C4 H40 1.096070 1_555
C4 N0 1.500235 1_555
C5 H45 1.095261 1_555
C5 H43 1.095977 1_555
C5 H41 1.096070 1_555
C5 N1 1.500235 1_555
C6 H48 1.095217 1_555
C6 H50 1.095462 1_555
C6 H46 1.095661 1_555
C6 N0 1.502112 1_555
C7 H49 1.095217 1_555
C7 H51 1.095462 1_555
C7 H47 1.095661 1_555
C7 N1 1.502112 1_555
C8 H52 1.096314 1_555
C8 H56 1.096350 1_555
C8 H54 1.097747 1_555
C8 N2 1.504687 1_555
C9 H53 1.096314 1_555
C9 H57 1.096350 1_555
C9 H55 1.097747 1_555
C9 N3 1.504687 1_555
C10 H58 1.095334 1_555
C10 H62 1.096165 1_555
C10 H60 1.096276 1_655
C10 N2 1.504088 1_555
C11 H59 1.095334 1_555
C11 H63 1.096165 1_555
C11 H61 1.096276 1_455
C11 N3 1.504088 1_555
C12 H68 1.095070 1_555
C12 H64 1.095978 1_555
C12 H66 1.096089 1_555
C12 N2 1.502053 1_555
C13 H69 1.095070 1_555
C13 H65 1.095978 1_555
C13 H67 1.096089 1_555
C13 N3 1.502053 1_555
C14 H74 1.095672 1_555
C14 H70 1.096898 1_555
C14 H72 1.097342 1_655
C14 N2 1.501243 1_555
C15 H75 1.095672 1_555
C15 H71 1.096898 1_555
C15 H73 1.097342 1_455
C15 N3 1.501243 1_555
C16 H80 1.094186 1_555
C16 H78 1.094195 1_555
C16 H76 1.096278 1_555
C16 N4 1.501151 1_555
C17 H81 1.094186 1_555
C17 H79 1.094195 1_555
C17 H77 1.096278 1_555
C17 N5 1.501151 1_555
C18 H82 1.095346 1_555
C18 H84 1.095458 1_555
C18 H86 1.095643 1_555
C18 N4 1.500291 1_555
C19 H83 1.095346 1_555
C19 H85 1.095458 1_555
C19 H87 1.095643 1_555
C19 N5 1.500291 1_555
C20 H88 1.093298 1_555
C20 H90 1.094078 1_555
C20 H92 1.094544 1_555
C20 N4 1.497440 1_655
C21 H89 1.093298 1_555
C21 H91 1.094078 1_555
C21 H93 1.094544 1_555
C21 N5 1.497440 1_455
C22 H98 1.094711 1_555
C22 H96 1.095916 1_455
C22 H94 1.096482 1_555
C22 N4 1.500224 1_554
C23 H99 1.094711 1_555
C23 H97 1.095916 1_655
C23 H95 1.096482 1_555
C23 N5 1.500224 1_556
