# generated using pymatgen
data_KHg6
_symmetry_space_group_name_H-M   'P 1'
_cell_length_a   5.44235176
_cell_length_b   10.78334963
_cell_length_c   13.80324086
_cell_angle_alpha   90.00000000
_cell_angle_beta   90.00000000
_cell_angle_gamma   90.00000000
_symmetry_Int_Tables_number   1
_chemical_formula_structural   KHg6
_chemical_formula_sum   'K4 Hg24'
_cell_volume   810.06778500
_cell_formula_units_Z   4
loop_
 _symmetry_equiv_pos_site_id
 _symmetry_equiv_pos_as_xyz
  1  'x, y, z'
loop_
 _atom_site_type_symbol
 _atom_site_label
 _atom_site_symmetry_multiplicity
 _atom_site_fract_x
 _atom_site_fract_y
 _atom_site_fract_z
 _atom_site_occupancy
  K  K0  1  0.25000000  0.12984778  0.81875840  1
  K  K1  1  0.25000000  0.37015222  0.31875840  1
  K  K2  1  0.75000000  0.87015222  0.18124160  1
  K  K3  1  0.75000000  0.62984778  0.68124160  1
  Hg  Hg0  1  0.25000000  0.13936364  0.54741614  1
  Hg  Hg1  1  0.25000000  0.36063636  0.04741614  1
  Hg  Hg2  1  0.75000000  0.86063636  0.45258386  1
  Hg  Hg3  1  0.75000000  0.63936364  0.95258386  1
  Hg  Hg4  1  0.25000000  0.85627581  0.59196235  1
  Hg  Hg5  1  0.25000000  0.64372419  0.09196235  1
  Hg  Hg6  1  0.75000000  0.14372419  0.40803765  1
  Hg  Hg7  1  0.75000000  0.35627581  0.90803765  1
  Hg  Hg8  1  0.25000000  0.39593427  0.64113122  1
  Hg  Hg9  1  0.25000000  0.10406573  0.14113122  1
  Hg  Hg10  1  0.75000000  0.60406573  0.35886878  1
  Hg  Hg11  1  0.75000000  0.89593427  0.85886878  1
  Hg  Hg12  1  0.25000000  0.76617145  0.80495937  1
  Hg  Hg13  1  0.25000000  0.73382855  0.30495937  1
  Hg  Hg14  1  0.75000000  0.23382855  0.19504063  1
  Hg  Hg15  1  0.75000000  0.26617145  0.69504063  1
  Hg  Hg16  1  0.25000000  0.49374083  0.84873183  1
  Hg  Hg17  1  0.25000000  0.00625917  0.34873183  1
  Hg  Hg18  1  0.75000000  0.50625917  0.15126817  1
  Hg  Hg19  1  0.75000000  0.99374083  0.65126817  1
  Hg  Hg20  1  0.25000000  0.89548423  0.00195494  1
  Hg  Hg21  1  0.25000000  0.60451577  0.50195494  1
  Hg  Hg22  1  0.75000000  0.10451577  0.99804506  1
  Hg  Hg23  1  0.75000000  0.39548423  0.49804506  1
loop_
_geom_bond_atom_site_label_1
_geom_bond_atom_site_label_2
_geom_bond_distance
_geom_bond_site_symmetry_2
Hg0 Hg8 3.054162 1_555
Hg0 Hg17 3.095377 1_555
Hg0 Hg4 3.113946 1_545
Hg0 Hg6 3.332912 1_455
Hg0 Hg6 3.332912 1_555
Hg0 K0 3.746808 1_555
Hg0 K1 4.019354 1_555
Hg1 Hg9 3.054162 1_555
Hg1 Hg16 3.095377 1_554
Hg1 Hg5 3.113946 1_555
Hg1 Hg7 3.332912 1_454
Hg1 Hg7 3.332912 1_554
Hg1 K1 3.746808 1_555
Hg1 K0 4.019354 1_554
Hg2 Hg6 3.113946 1_565
Hg2 Hg4 3.332912 1_655
Hg2 Hg4 3.332912 1_555
Hg2 K2 3.746808 1_555
Hg2 K3 4.019354 1_555
Hg3 Hg7 3.113946 1_555
Hg3 Hg5 3.332912 1_556
Hg3 Hg5 3.332912 1_656
Hg3 K3 3.746808 1_555
Hg3 K2 4.019354 1_556
Hg4 K3 3.858126 1_455
Hg4 K3 3.858126 1_555
Hg5 K2 3.858126 1_455
Hg5 K2 3.858126 1_555
Hg6 K1 3.858126 1_555
Hg6 K1 3.858126 1_655
Hg7 K0 3.858126 1_555
Hg7 K0 3.858126 1_655
Hg8 K3 3.751491 1_555
Hg8 K3 3.751491 1_455
Hg8 K0 3.774172 1_555
Hg9 K2 3.751491 1_545
Hg9 K2 3.751491 1_445
Hg9 K1 3.774172 1_555
Hg10 Hg23 2.957955 1_555
Hg10 Hg18 3.053489 1_555
Hg10 Hg2 3.054162 1_555
Hg10 Hg13 3.149047 1_555
Hg10 Hg13 3.149047 1_655
Hg10 Hg21 3.362388 1_655
Hg10 Hg21 3.362388 1_555
Hg10 K1 3.751491 1_555
Hg10 K1 3.751491 1_655
Hg10 K2 3.774172 1_555
Hg11 Hg22 2.957955 1_565
Hg11 Hg19 3.053489 1_555
Hg11 Hg3 3.054162 1_555
Hg11 Hg12 3.149047 1_555
Hg11 Hg12 3.149047 1_655
Hg11 Hg20 3.362388 1_556
Hg11 Hg20 3.362388 1_656
Hg11 K0 3.751491 1_665
Hg11 K0 3.751491 1_565
Hg11 K3 3.774172 1_555
Hg12 Hg16 2.999204 1_555
Hg12 Hg20 3.055871 1_556
Hg12 Hg4 3.096441 1_555
Hg12 K3 3.532992 1_555
Hg12 K3 3.532992 1_455
Hg12 K0 3.926272 1_565
Hg13 Hg17 2.999204 1_565
Hg13 Hg21 3.055871 1_555
Hg13 Hg5 3.096441 1_555
Hg13 K2 3.532992 1_555
Hg13 K2 3.532992 1_455
Hg13 K1 3.926272 1_555
Hg14 Hg18 2.999204 1_555
Hg14 Hg22 3.055871 1_554
Hg14 Hg6 3.096441 1_555
Hg14 Hg9 3.149047 1_555
Hg14 Hg9 3.149047 1_655
Hg14 K1 3.532992 1_555
Hg14 K1 3.532992 1_655
Hg14 K2 3.926272 1_545
Hg15 Hg19 2.999204 1_545
Hg15 Hg23 3.055871 1_555
Hg15 Hg7 3.096441 1_555
Hg15 Hg8 3.149047 1_555
Hg15 Hg8 3.149047 1_655
Hg15 K0 3.532992 1_555
Hg15 K0 3.532992 1_655
Hg15 K3 3.926272 1_555
Hg16 Hg8 3.053489 1_555
Hg16 Hg7 3.205033 1_455
Hg16 Hg7 3.205033 1_555
Hg16 K3 3.860548 1_555
Hg16 K3 3.860548 1_455
Hg16 K0 3.945737 1_555
Hg17 Hg9 3.053489 1_555
Hg17 Hg6 3.205033 1_455
Hg17 Hg6 3.205033 1_555
Hg17 K2 3.860548 1_545
Hg17 K2 3.860548 1_445
Hg17 K1 3.945737 1_555
Hg18 Hg3 3.095377 1_554
Hg18 Hg5 3.205033 1_655
Hg18 Hg5 3.205033 1_555
Hg18 K1 3.860548 1_555
Hg18 K1 3.860548 1_655
Hg18 K2 3.945737 1_555
Hg19 Hg2 3.095377 1_555
Hg19 Hg4 3.205033 1_655
Hg19 Hg4 3.205033 1_555
Hg19 K0 3.860548 1_565
Hg19 K0 3.860548 1_665
Hg19 K3 3.945737 1_555
Hg20 Hg9 2.957955 1_565
Hg20 Hg5 2.985594 1_555
Hg20 K0 3.575083 1_564
Hg20 K2 3.688325 1_455
Hg20 K2 3.688325 1_555
Hg21 Hg8 2.957955 1_555
Hg21 Hg4 2.985594 1_555
Hg21 K1 3.575083 1_555
Hg21 K3 3.688325 1_455
Hg21 K3 3.688325 1_555
Hg22 Hg7 2.985594 1_555
Hg22 Hg9 3.362388 1_656
Hg22 Hg9 3.362388 1_556
Hg22 K2 3.575083 1_546
Hg22 K0 3.688325 1_555
Hg22 K0 3.688325 1_655
Hg23 Hg6 2.985594 1_555
Hg23 Hg8 3.362388 1_555
Hg23 Hg8 3.362388 1_655
Hg23 K3 3.575083 1_555
Hg23 K1 3.688325 1_555
Hg23 K1 3.688325 1_655
