# generated using pymatgen
data_AlNi3
_symmetry_space_group_name_H-M   'P 1'
_cell_length_a   5.00904805
_cell_length_b   5.00905276
_cell_length_c   4.04025638
_cell_angle_alpha   90.00000000
_cell_angle_beta   90.00000000
_cell_angle_gamma   119.99824497
_symmetry_Int_Tables_number   1
_chemical_formula_structural   AlNi3
_chemical_formula_sum   'Al2 Ni6'
_cell_volume   87.79262614
_cell_formula_units_Z   2
loop_
 _symmetry_equiv_pos_site_id
 _symmetry_equiv_pos_as_xyz
  1  'x, y, z'
loop_
 _atom_site_type_symbol
 _atom_site_label
 _atom_site_symmetry_multiplicity
 _atom_site_fract_x
 _atom_site_fract_y
 _atom_site_fract_z
 _atom_site_occupancy
  Al  Al0  1  0.33333283  0.66666776  0.75000000  1
  Al  Al1  1  0.66666864  0.33333326  0.25000000  1
  Ni  Ni0  1  0.16428564  0.32852357  0.25000000  1
  Ni  Ni1  1  0.67147385  0.83571658  0.25000000  1
  Ni  Ni2  1  0.16425479  0.83575104  0.25000000  1
  Ni  Ni3  1  0.83571212  0.67147423  0.75000000  1
  Ni  Ni4  1  0.32853152  0.16428527  0.75000000  1
  Ni  Ni5  1  0.83574161  0.16424829  0.75000000  1
loop_
_geom_bond_atom_site_label_1
_geom_bond_atom_site_label_2
_geom_bond_distance
_geom_bond_site_symmetry_2
Al0 Ni1 2.496522 1_556
Al0 Ni1 2.496522 1_555
Al0 Ni0 2.496531 1_556
Al0 Ni0 2.496531 1_555
Al0 Ni2 2.496551 1_555
Al0 Ni2 2.496551 1_556
Al0 Ni3 2.504492 1_555
Al0 Ni4 2.504523 1_555
Al0 Ni5 2.504652 1_565
Al0 Ni4 2.504703 1_565
Al0 Ni5 2.504706 1_455
Al0 Ni3 2.504730 1_455
Al1 Ni4 2.496512 1_555
Al1 Ni4 2.496512 1_554
Al1 Ni3 2.496523 1_555
Al1 Ni3 2.496523 1_554
Al1 Ni5 2.496543 1_554
Al1 Ni5 2.496543 1_555
Al1 Ni0 2.504502 1_555
Al1 Ni1 2.504517 1_555
Al1 Ni2 2.504669 1_545
Al1 Ni2 2.504689 1_655
Al1 Ni1 2.504709 1_545
Al1 Ni0 2.504720 1_655
Ni0 Ni2 2.468246 1_545
Ni0 Ni1 2.468573 1_445
Ni0 Ni4 2.472119 1_555
Ni0 Ni4 2.472119 1_554
Ni0 Ni5 2.472290 1_455
Ni0 Ni5 2.472290 1_454
Ni0 Ni1 2.540611 1_555
Ni0 Ni2 2.540806 1_555
Ni1 Ni2 2.468277 1_655
Ni1 Ni3 2.472110 1_554
Ni1 Ni3 2.472110 1_555
Ni1 Ni5 2.472260 1_565
Ni1 Ni5 2.472260 1_564
Ni1 Ni2 2.540771 1_555
Ni2 Ni4 2.472266 1_565
Ni2 Ni4 2.472266 1_564
Ni2 Ni3 2.472287 1_454
Ni2 Ni3 2.472287 1_455
Ni3 Ni5 2.468257 1_565
Ni3 Ni4 2.468602 1_665
Ni3 Ni4 2.540582 1_555
Ni3 Ni5 2.540795 1_555
Ni4 Ni5 2.468316 1_455
Ni4 Ni5 2.540732 1_555
