# generated using pymatgen
data_NaYbSe2
_symmetry_space_group_name_H-M   'P 1'
_cell_length_a   7.28688803
_cell_length_b   7.28688803
_cell_length_c   7.28688867
_cell_angle_alpha   32.31134281
_cell_angle_beta   32.31134281
_cell_angle_gamma   32.31134708
_symmetry_Int_Tables_number   1
_chemical_formula_structural   NaYbSe2
_chemical_formula_sum   'Na1 Yb1 Se2'
_cell_volume   98.27023296
_cell_formula_units_Z   1
loop_
 _symmetry_equiv_pos_site_id
 _symmetry_equiv_pos_as_xyz
  1  'x, y, z'
loop_
 _atom_site_type_symbol
 _atom_site_label
 _atom_site_symmetry_multiplicity
 _atom_site_fract_x
 _atom_site_fract_y
 _atom_site_fract_z
 _atom_site_occupancy
  Na  Na0  1  0.00000000  0.00000000  0.00000000  1
  Yb  Yb0  1  0.50000000  0.50000000  0.50000000  1
  Se  Se0  1  0.75745401  0.75745401  0.75745401  1
  Se  Se1  1  0.24254599  0.24254599  0.24254599  1
loop_
_geom_bond_atom_site_label_1
_geom_bond_atom_site_label_2
_geom_bond_distance
_geom_bond_site_symmetry_2
Na0 Se0 3.002275 1_454
Na0 Se0 3.002275 1_544
Na0 Se1 3.002275 1_455
Na0 Se1 3.002275 1_545
Na0 Se0 3.002275 1_445
Na0 Se1 3.002275 1_554
Se0 Yb0 2.819368 1_565
Se0 Yb0 2.819368 1_655
Se0 Yb0 2.819368 1_556
Se1 Yb0 2.819368 1_545
Se1 Yb0 2.819368 1_455
Se1 Yb0 2.819368 1_554
