# generated using pymatgen
data_Pr3Dy
_symmetry_space_group_name_H-M   'P 1'
_cell_length_a   7.49787647
_cell_length_b   7.49787647
_cell_length_c   5.87398359
_cell_angle_alpha   90.00000000
_cell_angle_beta   90.00000000
_cell_angle_gamma   119.99998913
_symmetry_Int_Tables_number   1
_chemical_formula_structural   Pr3Dy
_chemical_formula_sum   'Pr6 Dy2'
_cell_volume   285.98283688
_cell_formula_units_Z   2
loop_
 _symmetry_equiv_pos_site_id
 _symmetry_equiv_pos_as_xyz
  1  'x, y, z'
loop_
 _atom_site_type_symbol
 _atom_site_label
 _atom_site_symmetry_multiplicity
 _atom_site_fract_x
 _atom_site_fract_y
 _atom_site_fract_z
 _atom_site_occupancy
  Pr  Pr0  1  0.16798718  0.33597235  0.25000000  1
  Pr  Pr1  1  0.66402765  0.83201282  0.25000000  1
  Pr  Pr2  1  0.16798718  0.83201282  0.25000000  1
  Pr  Pr3  1  0.83201282  0.66402765  0.75000000  1
  Pr  Pr4  1  0.33597235  0.16798718  0.75000000  1
  Pr  Pr5  1  0.83201282  0.16798718  0.75000000  1
  Dy  Dy0  1  0.33333300  0.66666700  0.75000000  1
  Dy  Dy1  1  0.66666700  0.33333300  0.25000000  1
loop_
_geom_bond_atom_site_label_1
_geom_bond_atom_site_label_2
_geom_bond_distance
_geom_bond_site_symmetry_2
Pr0 Pr4 3.658577 1_555
Pr0 Pr4 3.658577 1_554
Pr0 Pr5 3.658592 1_455
Pr0 Pr5 3.658592 1_454
Pr0 Pr2 3.719250 1_555
Pr0 Pr1 3.719251 1_555
Pr0 Pr2 3.778626 1_545
Pr0 Pr1 3.778627 1_445
Pr1 Pr3 3.658577 1_554
Pr1 Pr3 3.658577 1_555
Pr1 Pr5 3.658592 1_565
Pr1 Pr5 3.658592 1_564
Pr1 Pr2 3.719250 1_555
Pr1 Pr2 3.778626 1_655
Pr2 Pr4 3.658592 1_565
Pr2 Pr4 3.658592 1_564
Pr2 Pr3 3.658592 1_455
Pr2 Pr3 3.658592 1_454
Pr3 Pr5 3.719250 1_555
Pr3 Pr4 3.719251 1_555
Pr3 Pr5 3.778626 1_565
Pr3 Pr4 3.778627 1_665
Pr4 Pr5 3.719250 1_555
Pr4 Pr5 3.778626 1_455
Dy0 Pr2 3.638242 1_556
Dy0 Pr2 3.638242 1_555
Dy0 Pr0 3.638254 1_555
Dy0 Pr0 3.638254 1_556
Dy0 Pr1 3.638254 1_556
Dy0 Pr1 3.638254 1_555
Dy0 Pr4 3.748974 1_555
Dy0 Pr3 3.748974 1_555
Dy0 Pr5 3.748978 1_565
Dy0 Pr5 3.748978 1_455
Dy0 Pr4 3.748981 1_565
Dy0 Pr3 3.748981 1_455
Dy1 Pr5 3.638242 1_554
Dy1 Pr5 3.638242 1_555
Dy1 Pr4 3.638254 1_554
Dy1 Pr3 3.638254 1_555
Dy1 Pr4 3.638254 1_555
Dy1 Pr3 3.638254 1_554
Dy1 Pr1 3.748974 1_555
Dy1 Pr0 3.748974 1_555
Dy1 Pr2 3.748978 1_655
Dy1 Pr2 3.748978 1_545
Dy1 Pr0 3.748981 1_655
Dy1 Pr1 3.748981 1_545
