# generated using pymatgen
data_Rb8Zr(MoO4)6
_symmetry_space_group_name_H-M   'P 1'
_cell_length_a   10.89952871
_cell_length_b   10.89952871
_cell_length_c   8.07569733
_cell_angle_alpha   81.77835574
_cell_angle_beta   81.77835574
_cell_angle_gamma   124.24556290
_symmetry_Int_Tables_number   1
_chemical_formula_structural   Rb8Zr(MoO4)6
_chemical_formula_sum   'Rb8 Zr1 Mo6 O24'
_cell_volume   755.06368620
_cell_formula_units_Z   1
loop_
 _symmetry_equiv_pos_site_id
 _symmetry_equiv_pos_as_xyz
  1  'x, y, z'
loop_
 _atom_site_type_symbol
 _atom_site_label
 _atom_site_symmetry_multiplicity
 _atom_site_fract_x
 _atom_site_fract_y
 _atom_site_fract_z
 _atom_site_occupancy
  Rb  Rb0  1  0.20803300  0.20803300  0.34986900  1
  Rb  Rb1  1  0.79196700  0.79196700  0.65013100  1
  Rb  Rb2  1  0.66351100  0.33648900  0.50000000  1
  Rb  Rb3  1  0.33648900  0.66351100  0.50000000  1
  Rb  Rb4  1  0.86343300  0.51744600  0.89430000  1
  Rb  Rb5  1  0.51744600  0.86343300  0.89430000  1
  Rb  Rb6  1  0.13656700  0.48255400  0.10570000  1
  Rb  Rb7  1  0.48255400  0.13656700  0.10570000  1
  Zr  Zr0  1  0.00000000  0.00000000  0.00000000  1
  Mo  Mo0  1  0.94352100  0.25812700  0.70833900  1
  Mo  Mo1  1  0.25812700  0.94352100  0.70833900  1
  Mo  Mo2  1  0.05647900  0.74187300  0.29166100  1
  Mo  Mo3  1  0.74187300  0.05647900  0.29166100  1
  Mo  Mo4  1  0.38858100  0.38858100  0.79377400  1
  Mo  Mo5  1  0.61141900  0.61141900  0.20622600  1
  O  O0  1  0.93596500  0.08660400  0.80536700  1
  O  O1  1  0.08660400  0.93596500  0.80536700  1
  O  O2  1  0.06403500  0.91339600  0.19463300  1
  O  O3  1  0.91339600  0.06403500  0.19463300  1
  O  O4  1  0.76041700  0.22222400  0.77202600  1
  O  O5  1  0.22222400  0.76041700  0.77202600  1
  O  O6  1  0.23958300  0.77777600  0.22797400  1
  O  O7  1  0.77777600  0.23958300  0.22797400  1
  O  O8  1  0.06809400  0.41215800  0.79100700  1
  O  O9  1  0.41215800  0.06809400  0.79100700  1
  O  O10  1  0.93190600  0.58784200  0.20899300  1
  O  O11  1  0.58784200  0.93190600  0.20899300  1
  O  O12  1  0.01812600  0.31903300  0.47714900  1
  O  O13  1  0.31903300  0.01812600  0.47714900  1
  O  O14  1  0.98187400  0.68096700  0.52285100  1
  O  O15  1  0.68096700  0.98187400  0.52285100  1
  O  O16  1  0.41560900  0.56438400  0.80483800  1
  O  O17  1  0.56438400  0.41560900  0.80483800  1
  O  O18  1  0.58439100  0.43561600  0.19516200  1
  O  O19  1  0.43561600  0.58439100  0.19516200  1
  O  O20  1  0.21738900  0.21738900  0.96987500  1
  O  O21  1  0.78261100  0.78261100  0.03012500  1
  O  O22  1  0.35014700  0.35014700  0.59475200  1
  O  O23  1  0.64985300  0.64985300  0.40524800  1
loop_
_geom_bond_atom_site_label_1
_geom_bond_atom_site_label_2
_geom_bond_distance
_geom_bond_site_symmetry_2
Mo0 O8 1.766945 1_655
Mo0 O4 1.780603 1_555
Mo0 O12 1.786462 1_655
Mo0 O0 1.872206 1_555
Mo1 O9 1.766945 1_565
Mo1 O5 1.780603 1_555
Mo1 O13 1.786462 1_565
Mo1 O1 1.872206 1_555
Mo2 O10 1.766945 1_455
Mo2 O6 1.780603 1_555
Mo2 O14 1.786462 1_455
Mo2 O2 1.872206 1_555
Mo3 O11 1.766945 1_545
Mo3 O7 1.780603 1_555
Mo3 O15 1.786462 1_545
Mo3 O3 1.872206 1_555
Mo4 O22 1.766868 1_555
Mo4 O16 1.785398 1_555
Mo4 O17 1.785398 1_555
Mo4 O20 1.883970 1_555
Mo5 O23 1.766868 1_555
Mo5 O18 1.785398 1_555
Mo5 O19 1.785398 1_555
Mo5 O21 1.883970 1_555
O0 Zr0 2.116512 1_656
O0 Rb1 3.223271 1_545
O1 Zr0 2.116512 1_566
O1 Rb1 3.223271 1_455
O2 Zr0 2.116512 1_565
O2 Rb0 3.223271 1_565
O3 Zr0 2.116512 1_655
O3 Rb0 3.223271 1_655
O4 Rb2 2.975620 1_555
O4 Rb4 3.122400 1_555
O4 Rb5 3.126218 1_545
O4 Rb7 3.327027 1_556
O5 Rb3 2.975620 1_555
O5 Rb5 3.122400 1_555
O5 Rb4 3.126218 1_455
O5 Rb6 3.327027 1_556
O6 Rb3 2.975620 1_555
O6 Rb6 3.122400 1_555
O6 Rb7 3.126218 1_565
O6 Rb5 3.327027 1_554
O7 Rb2 2.975620 1_555
O7 Rb7 3.122400 1_555
O7 Rb6 3.126218 1_655
O7 Rb4 3.327027 1_554
O8 Rb6 2.839000 1_556
O8 Rb3 2.959480 1_555
O8 Rb4 3.100259 1_455
O9 Rb7 2.839000 1_556
O9 Rb2 2.959480 1_555
O9 Rb5 3.100259 1_545
O10 Rb4 2.839000 1_554
O10 Rb2 2.959480 1_555
O10 Rb6 3.100259 1_655
O11 Rb5 2.839000 1_554
O11 Rb3 2.959480 1_555
O11 Rb7 3.100259 1_565
O12 Rb6 2.935163 1_555
O12 Rb0 3.061110 1_555
O12 Rb3 3.448214 1_555
O13 Rb7 2.935163 1_555
O13 Rb0 3.061110 1_555
O13 Rb2 3.448214 1_555
O14 Rb4 2.935163 1_555
O14 Rb1 3.061110 1_555
O14 Rb2 3.448214 1_555
O15 Rb5 2.935163 1_555
O15 Rb1 3.061110 1_555
O15 Rb3 3.448214 1_555
O16 Rb3 2.977667 1_555
O16 Rb5 3.034670 1_555
O16 Rb6 3.187905 1_556
O16 Rb1 3.276728 1_555
O17 Rb2 2.977667 1_555
O17 Rb4 3.034670 1_555
O17 Rb7 3.187905 1_556
O17 Rb1 3.276728 1_555
O18 Rb2 2.977667 1_555
O18 Rb7 3.034670 1_555
O18 Rb4 3.187905 1_554
O18 Rb0 3.276728 1_555
O19 Rb3 2.977667 1_555
O19 Rb6 3.034670 1_555
O19 Rb5 3.187905 1_554
O19 Rb0 3.276728 1_555
O20 Zr0 2.153882 1_556
O20 Rb0 3.040907 1_556
O21 Zr0 2.153882 1_665
O21 Rb1 3.040907 1_554
O22 Rb0 2.785925 1_555
O22 Rb3 3.482931 1_555
O22 Rb2 3.482931 1_555
O23 Rb1 2.785925 1_555
O23 Rb3 3.482931 1_555
O23 Rb2 3.482931 1_555
