# generated using pymatgen
data_BaSrYCu3PbO7
_symmetry_space_group_name_H-M   'P 1'
_cell_length_a   3.84960300
_cell_length_b   3.86558835
_cell_length_c   14.34743105
_cell_angle_alpha   81.63532428
_cell_angle_beta   82.29014930
_cell_angle_gamma   90.00000000
_symmetry_Int_Tables_number   1
_chemical_formula_structural   BaSrYCu3PbO7
_chemical_formula_sum   'Ba1 Sr1 Y1 Cu3 Pb1 O7'
_cell_volume   209.28164539
_cell_formula_units_Z   1
loop_
 _symmetry_equiv_pos_site_id
 _symmetry_equiv_pos_as_xyz
  1  'x, y, z'
loop_
 _atom_site_type_symbol
 _atom_site_label
 _atom_site_symmetry_multiplicity
 _atom_site_fract_x
 _atom_site_fract_y
 _atom_site_fract_z
 _atom_site_occupancy
  Ba  Ba0  1  0.68867900  0.69866700  0.62264300  1
  Sr  Sr0  1  0.43145000  0.43419800  0.13710000  1
  Y  Y0  1  0.55724500  0.55630300  0.88551000  1
  Cu  Cu0  1  0.99730900  0.99585600  0.00538200  1
  Cu  Cu1  1  0.84963100  0.88382500  0.30073800  1
  Cu  Cu2  1  0.11535100  0.11717800  0.76929800  1
  Pb  Pb0  1  0.28735800  0.28986600  0.42528400  1
  O  O0  1  0.20861300  0.22514400  0.58277300  1
  O  O1  1  0.91344400  0.89091200  0.17311200  1
  O  O2  1  0.50452100  0.00202200  0.99095800  1
  O  O3  1  0.00429500  0.50311000  0.99141000  1
  O  O4  1  0.10803500  0.60912600  0.78392900  1
  O  O5  1  0.60785400  0.10936500  0.78429100  1
  O  O6  1  0.78421500  0.88542800  0.43157000  1
loop_
_geom_bond_atom_site_label_1
_geom_bond_atom_site_label_2
_geom_bond_distance
_geom_bond_site_symmetry_2
Ba0 O6 2.706553 1_555
Ba0 O0 2.771525 1_655
Ba0 O0 2.771530 1_555
Ba0 O0 2.798084 1_665
Ba0 O0 2.798090 1_565
Ba0 O4 2.974899 1_655
Ba0 O4 2.974903 1_555
Ba0 O5 2.978882 1_565
Ba0 O5 2.989011 1_555
Cu0 O2 1.935472 1_664
Cu0 O2 1.935472 1_564
Cu0 O3 1.941642 1_664
Cu0 O3 1.943872 1_654
Cu0 O1 2.359559 1_555
Cu1 O1 1.810733 1_555
Cu1 O6 1.861054 1_555
Cu2 O5 1.936315 1_555
Cu2 O5 1.936319 1_455
Cu2 O4 1.943131 1_555
Cu2 O4 1.944301 1_545
Cu2 O0 2.623382 1_555
O0 Pb0 2.216269 1_555
O1 Sr0 2.710957 1_655
O1 Sr0 2.710957 1_555
O1 Sr0 2.839334 1_665
O1 Sr0 2.839334 1_565
O2 Y0 2.428044 1_555
O2 Y0 2.444323 1_545
O2 Sr0 2.792161 1_546
O2 Sr0 2.850857 1_556
O3 Y0 2.433773 1_555
O3 Y0 2.433773 1_455
O3 Sr0 2.811483 1_456
O3 Sr0 2.811483 1_556
O4 Y0 2.397045 1_455
O4 Y0 2.397048 1_555
O5 Y0 2.395489 1_545
O5 Y0 2.405385 1_555
O6 Pb0 2.473058 1_665
O6 Pb0 2.473058 1_565
