# generated using pymatgen
data_LiMo2P2O9
_symmetry_space_group_name_H-M   'P 1'
_cell_length_a   6.66750400
_cell_length_b   7.88582600
_cell_length_c   14.53296500
_cell_angle_alpha   90.00000000
_cell_angle_beta   90.00000000
_cell_angle_gamma   90.00000000
_symmetry_Int_Tables_number   1
_chemical_formula_structural   LiMo2P2O9
_chemical_formula_sum   'Li4 Mo8 P8 O36'
_cell_volume   764.12551714
_cell_formula_units_Z   4
loop_
 _symmetry_equiv_pos_site_id
 _symmetry_equiv_pos_as_xyz
  1  'x, y, z'
loop_
 _atom_site_type_symbol
 _atom_site_label
 _atom_site_symmetry_multiplicity
 _atom_site_fract_x
 _atom_site_fract_y
 _atom_site_fract_z
 _atom_site_occupancy
  Li  Li0  1  0.75000000  0.96640400  0.75062100  1
  Li  Li1  1  0.75000000  0.53359600  0.25062100  1
  Li  Li2  1  0.25000000  0.46640400  0.74937900  1
  Li  Li3  1  0.25000000  0.03359600  0.24937900  1
  Mo  Mo0  1  0.75000000  0.35775600  0.88075100  1
  Mo  Mo1  1  0.25000000  0.64224400  0.11924900  1
  Mo  Mo2  1  0.25000000  0.85775600  0.61924900  1
  Mo  Mo3  1  0.75000000  0.14224400  0.38075100  1
  Mo  Mo4  1  0.50000000  0.00000000  0.00000000  1
  Mo  Mo5  1  0.50000000  0.50000000  0.50000000  1
  Mo  Mo6  1  0.00000000  0.50000000  0.50000000  1
  Mo  Mo7  1  0.00000000  0.00000000  0.00000000  1
  P  P0  1  0.25000000  0.35348200  0.93340300  1
  P  P1  1  0.75000000  0.64651800  0.06659700  1
  P  P2  1  0.75000000  0.85348200  0.56659700  1
  P  P3  1  0.25000000  0.14651800  0.43340300  1
  P  P4  1  0.75000000  0.38595500  0.69159000  1
  P  P5  1  0.75000000  0.11404500  0.19159000  1
  P  P6  1  0.25000000  0.88595500  0.80841000  1
  P  P7  1  0.25000000  0.61404500  0.30841000  1
  O  O0  1  0.05619900  0.60263200  0.36597800  1
  O  O1  1  0.55619900  0.39736800  0.63402200  1
  O  O2  1  0.94380100  0.10263200  0.13402200  1
  O  O3  1  0.44380100  0.89736800  0.86597800  1
  O  O4  1  0.94380100  0.39736800  0.63402200  1
  O  O5  1  0.44380100  0.60263200  0.36597800  1
  O  O6  1  0.05619900  0.89736800  0.86597800  1
  O  O7  1  0.55619900  0.10263200  0.13402200  1
  O  O8  1  0.25000000  0.32757000  0.47872900  1
  O  O9  1  0.75000000  0.67243000  0.52127100  1
  O  O10  1  0.75000000  0.82757000  0.02127100  1
  O  O11  1  0.25000000  0.17243000  0.97872900  1
  O  O12  1  0.75000000  0.14174800  0.94685300  1
  O  O13  1  0.25000000  0.85825200  0.05314700  1
  O  O14  1  0.25000000  0.64174800  0.55314700  1
  O  O15  1  0.75000000  0.35825200  0.44685300  1
  O  O16  1  0.75000000  0.21997700  0.75248100  1
  O  O17  1  0.25000000  0.78002300  0.24751900  1
  O  O18  1  0.25000000  0.71997700  0.74751900  1
  O  O19  1  0.75000000  0.28002300  0.25248100  1
  O  O20  1  0.43233800  0.12688300  0.36989700  1
  O  O21  1  0.93233800  0.87311700  0.63010300  1
  O  O22  1  0.56766200  0.62688300  0.13010300  1
  O  O23  1  0.06766200  0.37311700  0.86989700  1
  O  O24  1  0.56766200  0.87311700  0.63010300  1
  O  O25  1  0.06766200  0.12688300  0.36989700  1
  O  O26  1  0.43233800  0.37311700  0.86989700  1
  O  O27  1  0.93233800  0.62688300  0.13010300  1
  O  O28  1  0.75000000  0.51834800  0.98747700  1
  O  O29  1  0.25000000  0.02379100  0.73059300  1
  O  O30  1  0.25000000  0.47620900  0.23059300  1
  O  O31  1  0.75000000  0.52379100  0.76940700  1
  O  O32  1  0.75000000  0.98165200  0.48747700  1
  O  O33  1  0.25000000  0.01834800  0.51252300  1
  O  O34  1  0.25000000  0.48165200  0.01252300  1
  O  O35  1  0.75000000  0.97620900  0.26940700  1
loop_
_geom_bond_atom_site_label_1
_geom_bond_atom_site_label_2
_geom_bond_distance
_geom_bond_site_symmetry_2
Li0 O16 1.999815 1_565
Li0 O24 2.255414 1_555
Li0 O21 2.255414 1_555
Li1 O19 1.999815 1_555
Li1 O27 2.255414 1_555
Li1 O22 2.255414 1_555
Li2 O18 1.999815 1_555
Li2 O26 2.255414 1_555
Li2 O23 2.255414 1_555
Li3 O17 1.999815 1_545
Li3 O20 2.255414 1_555
Li3 O25 2.255414 1_555
Mo0 O12 1.955618 1_555
Mo0 O28 2.002377 1_555
Mo0 O31 2.081529 1_555
Mo0 O23 2.127330 1_655
Mo0 O26 2.127330 1_555
Mo0 O16 2.157664 1_555
Mo1 O13 1.955618 1_555
Mo1 O34 2.002377 1_555
Mo1 O30 2.081529 1_555
Mo1 O27 2.127330 1_455
Mo1 O22 2.127330 1_555
Mo1 O17 2.157664 1_555
Mo2 O14 1.955618 1_555
Mo2 O33 2.002377 1_565
Mo2 O29 2.081529 1_565
Mo2 O21 2.127330 1_455
Mo2 O24 2.127330 1_555
Mo2 O18 2.157664 1_555
Mo3 O15 1.955618 1_555
Mo3 O32 2.002377 1_545
Mo3 O35 2.081529 1_545
Mo3 O25 2.127330 1_655
Mo3 O20 2.127330 1_555
Mo3 O19 2.157664 1_555
Mo4 O3 2.142222 1_544
Mo4 O7 2.142222 1_555
Mo4 O13 2.150472 1_545
Mo4 O12 2.150472 1_554
Mo4 O10 2.173238 1_545
Mo4 O11 2.173238 1_554
Mo5 O1 2.142222 1_555
Mo5 O5 2.142222 1_555
Mo5 O15 2.150472 1_555
Mo5 O14 2.150472 1_555
Mo5 O9 2.173238 1_555
Mo5 O8 2.173238 1_555
Mo6 O4 2.142222 1_455
Mo6 O0 2.142222 1_555
Mo6 O15 2.150472 1_455
Mo6 O14 2.150472 1_555
Mo6 O9 2.173238 1_455
Mo6 O8 2.173238 1_555
Mo7 O6 2.142222 1_544
Mo7 O2 2.142222 1_455
Mo7 O13 2.150472 1_545
Mo7 O12 2.150472 1_454
Mo7 O10 2.173238 1_445
Mo7 O11 2.173238 1_554
O0 P7 1.541998 1_555
O1 P4 1.541998 1_555
O2 P5 1.541998 1_555
O3 P6 1.541998 1_555
O4 P4 1.541998 1_555
O5 P7 1.541998 1_555
O6 P6 1.541998 1_555
O7 P5 1.541998 1_555
O8 P3 1.572377 1_555
O9 P2 1.572377 1_555
O10 P1 1.572377 1_555
O11 P0 1.572377 1_555
O16 P4 1.579951 1_555
O17 P7 1.579951 1_555
O18 P6 1.579951 1_555
O19 P5 1.579951 1_555
O20 P3 1.534209 1_555
O21 P2 1.534209 1_555
O22 P1 1.534209 1_555
O23 P0 1.534209 1_555
O24 P2 1.534209 1_555
O25 P3 1.534209 1_555
O26 P0 1.534209 1_555
O27 P1 1.534209 1_555
O28 P1 1.530921 1_556
O29 P6 1.568574 1_545
O30 P7 1.568574 1_555
O31 P4 1.568574 1_555
O32 P2 1.530921 1_555
O33 P3 1.530921 1_555
O34 P0 1.530921 1_554
O35 P5 1.568574 1_565
