# generated using pymatgen
data_LaCl3O7
_symmetry_space_group_name_H-M   'P 1'
_cell_length_a   7.55993153
_cell_length_b   7.38760346
_cell_length_c   8.20900427
_cell_angle_alpha   91.29101193
_cell_angle_beta   82.63722464
_cell_angle_gamma   80.39460949
_symmetry_Int_Tables_number   1
_chemical_formula_structural   LaCl3O7
_chemical_formula_sum   'La2 Cl6 O14'
_cell_volume   447.86387182
_cell_formula_units_Z   2
loop_
 _symmetry_equiv_pos_site_id
 _symmetry_equiv_pos_as_xyz
  1  'x, y, z'
loop_
 _atom_site_type_symbol
 _atom_site_label
 _atom_site_symmetry_multiplicity
 _atom_site_fract_x
 _atom_site_fract_y
 _atom_site_fract_z
 _atom_site_occupancy
  La  La0  1  0.37818900  0.73978400  0.28348700  1
  La  La1  1  0.62181100  0.26021600  0.71651300  1
  Cl  Cl0  1  0.73517800  0.31264600  0.28378400  1
  Cl  Cl1  1  0.26482200  0.68735400  0.71621600  1
  Cl  Cl2  1  0.79838400  0.79119500  0.49932900  1
  Cl  Cl3  1  0.20161600  0.20880500  0.50067100  1
  Cl  Cl4  1  0.18916100  0.39683400  0.07439400  1
  Cl  Cl5  1  0.81083900  0.60316600  0.92560600  1
  O  O0  1  0.55370600  0.43125900  0.24686400  1
  O  O1  1  0.44629400  0.56874100  0.75313600  1
  O  O2  1  0.21473600  0.03803900  0.38003200  1
  O  O3  1  0.78526400  0.96196100  0.61996800  1
  O  O4  1  0.02007200  0.00794000  0.07010300  1
  O  O5  1  0.97992800  0.99206000  0.92989700  1
  O  O6  1  0.47819300  0.92278800  0.01759700  1
  O  O7  1  0.52180700  0.07721200  0.98240300  1
  O  O8  1  0.20019700  0.60834600  0.13582300  1
  O  O9  1  0.79980300  0.39165400  0.86417700  1
  O  O10  1  0.22186100  0.64016500  0.53796500  1
  O  O11  1  0.77813900  0.35983500  0.46203500  1
  O  O12  1  0.62923700  0.81177900  0.40291000  1
  O  O13  1  0.37076300  0.18822100  0.59709000  1
loop_
_geom_bond_atom_site_label_1
_geom_bond_atom_site_label_2
_geom_bond_distance
_geom_bond_site_symmetry_2
La0 O8 2.241417 1_555
La0 O12 2.374081 1_555
La0 O2 2.402427 1_565
La0 O0 2.429743 1_555
La0 O10 2.455416 1_555
La0 O6 2.686010 1_555
La1 O9 2.241417 1_555
La1 O13 2.374081 1_555
La1 O3 2.402427 1_545
La1 O1 2.429743 1_555
La1 O11 2.455416 1_555
La1 O7 2.686010 1_555
Cl0 O0 1.568183 1_555
Cl0 O11 1.582643 1_555
Cl1 O1 1.568183 1_555
Cl1 O10 1.582643 1_555
Cl2 O3 1.568077 1_555
Cl2 O12 1.576299 1_555
Cl3 O2 1.568077 1_555
Cl3 O13 1.576299 1_555
Cl4 O8 1.649742 1_555
Cl5 O9 1.649742 1_555
O4 O5 1.235265 1_444
O6 O7 1.268711 1_564
