# generated using pymatgen
data_Tb4Si7
_symmetry_space_group_name_H-M   'P 1'
_cell_length_a   4.10291925
_cell_length_b   3.99524700
_cell_length_c   13.62149007
_cell_angle_alpha   90.00000000
_cell_angle_beta   89.76625101
_cell_angle_gamma   90.00000000
_symmetry_Int_Tables_number   1
_chemical_formula_structural   Tb4Si7
_chemical_formula_sum   'Tb4 Si7'
_cell_volume   223.28400196
_cell_formula_units_Z   1
loop_
 _symmetry_equiv_pos_site_id
 _symmetry_equiv_pos_as_xyz
  1  'x, y, z'
loop_
 _atom_site_type_symbol
 _atom_site_label
 _atom_site_symmetry_multiplicity
 _atom_site_fract_x
 _atom_site_fract_y
 _atom_site_fract_z
 _atom_site_occupancy
  Tb  Tb0  1  0.01074700  0.75000000  0.37637800  1
  Tb  Tb1  1  0.51780200  0.25000000  0.87299300  1
  Tb  Tb2  1  0.51620100  0.75000000  0.12125800  1
  Tb  Tb3  1  0.00795800  0.25000000  0.62252800  1
  Si  Si0  1  0.51315700  0.25000000  0.29122700  1
  Si  Si1  1  0.02739500  0.75000000  0.77929800  1
  Si  Si2  1  0.01448500  0.25000000  0.20788500  1
  Si  Si3  1  0.50931500  0.25000000  0.46257200  1
  Si  Si4  1  0.01299600  0.75000000  0.94879100  1
  Si  Si5  1  0.01964000  0.25000000  0.03825700  1
  Si  Si6  1  0.50830600  0.75000000  0.56101300  1
loop_
_geom_bond_atom_site_label_1
_geom_bond_atom_site_label_2
_geom_bond_distance
_geom_bond_site_symmetry_2
Si0 Si3 2.333963 1_555
Si0 Si2 2.343904 1_555
Si0 Si2 2.345334 1_655
Si0 Tb2 3.057894 1_555
Si0 Tb2 3.057894 1_545
Si0 Tb0 3.085963 1_645
Si0 Tb0 3.085963 1_655
Si0 Tb0 3.092810 1_555
Si0 Tb0 3.092810 1_545
Si1 Si4 2.309262 1_555
Si1 Tb3 2.925467 1_565
Si1 Tb3 2.925467 1_555
Si1 Tb1 3.112692 1_565
Si1 Tb1 3.112692 1_555
Si1 Tb1 3.157389 1_455
Si1 Tb1 3.157389 1_465
Si2 Si5 2.310597 1_555
Si2 Tb0 3.042704 1_555
Si2 Tb0 3.042704 1_545
Si2 Tb2 3.095514 1_455
Si2 Tb2 3.095514 1_445
Si2 Tb2 3.098464 1_555
Si2 Tb2 3.098464 1_545
Si3 Si6 2.405934 1_545
Si3 Si6 2.405934 1_555
Si3 Tb3 2.990340 1_555
Si3 Tb3 2.994893 1_655
Si3 Tb0 3.094026 1_555
Si3 Tb0 3.094026 1_545
Si3 Tb0 3.095466 1_655
Si3 Tb0 3.095466 1_645
Si4 Si5 2.340224 1_566
Si4 Si5 2.340224 1_556
Si4 Tb1 3.033415 1_455
Si4 Tb1 3.033415 1_465
Si4 Tb1 3.054316 1_555
Si4 Tb1 3.054316 1_565
Si4 Tb2 3.103973 1_456
Si4 Tb2 3.133879 1_556
Si5 Tb1 3.034419 1_554
Si5 Tb1 3.056950 1_454
Si5 Tb2 3.072188 1_555
Si5 Tb2 3.072188 1_545
Si5 Tb2 3.084846 1_455
Si5 Tb2 3.084846 1_445
Si6 Tb3 2.982102 1_565
Si6 Tb3 2.982102 1_555
Si6 Tb3 2.984839 1_665
Si6 Tb3 2.984839 1_655
Si6 Tb0 3.245400 1_655
Si6 Tb0 3.245710 1_555
