# generated using pymatgen
data_Na4Sr2SiAs4
_symmetry_space_group_name_H-M   'P 1'
_cell_length_a   9.60763936
_cell_length_b   9.60763936
_cell_length_c   7.49374232
_cell_angle_alpha   89.59446067
_cell_angle_beta   89.59446067
_cell_angle_gamma   119.79879091
_symmetry_Int_Tables_number   1
_chemical_formula_structural   Na4Sr2SiAs4
_chemical_formula_sum   'Na8 Sr4 Si2 As8'
_cell_volume   600.20069093
_cell_formula_units_Z   2
loop_
 _symmetry_equiv_pos_site_id
 _symmetry_equiv_pos_as_xyz
  1  'x, y, z'
loop_
 _atom_site_type_symbol
 _atom_site_label
 _atom_site_symmetry_multiplicity
 _atom_site_fract_x
 _atom_site_fract_y
 _atom_site_fract_z
 _atom_site_occupancy
  Na  Na0  1  0.05177400  0.52540500  0.61724300  1
  Na  Na1  1  0.52540500  0.05177400  0.11724300  1
  Na  Na2  1  0.28341200  0.13845400  0.81321700  1
  Na  Na3  1  0.86392300  0.70884500  0.78728900  1
  Na  Na4  1  0.85926100  0.15305000  0.79663500  1
  Na  Na5  1  0.70884500  0.86392300  0.28728900  1
  Na  Na6  1  0.13845400  0.28341200  0.31321700  1
  Na  Na7  1  0.15305000  0.85926100  0.29663500  1
  Sr  Sr0  1  0.47217400  0.95121200  0.62034000  1
  Sr  Sr1  1  0.46910300  0.52033400  0.62051000  1
  Sr  Sr2  1  0.95121200  0.47217400  0.12034000  1
  Sr  Sr3  1  0.52033400  0.46910300  0.12051000  1
  Si  Si0  1  0.67251300  0.33757700  0.50310300  1
  Si  Si1  1  0.33757700  0.67251300  0.00310300  1
  As  As0  1  0.66170100  0.33500300  0.82800400  1
  As  As1  1  0.33500300  0.66170100  0.32800400  1
  As  As2  1  0.61395700  0.80480100  0.89770300  1
  As  As3  1  0.19372900  0.38963600  0.91123400  1
  As  As4  1  0.19192100  0.80213400  0.90571200  1
  As  As5  1  0.38963600  0.19372900  0.41123400  1
  As  As6  1  0.80480100  0.61395700  0.39770300  1
  As  As7  1  0.80213400  0.19192100  0.40571200  1
loop_
_geom_bond_atom_site_label_1
_geom_bond_atom_site_label_2
_geom_bond_distance
_geom_bond_site_symmetry_2
Na0 Si0 3.285708 1_455
Na1 Si1 3.285708 1_545
Si0 Sr1 3.329337 1_555
Si1 Sr3 3.329337 1_555
As0 Si0 2.435631 1_555
As0 Na3 3.131889 1_555
As0 Na2 3.158289 1_555
As0 Na4 3.164078 1_555
As0 Sr3 3.169610 1_556
As0 Na1 3.186245 1_556
As0 Sr2 3.279712 1_556
As0 Sr1 3.505507 1_555
As1 Si1 2.435631 1_555
As1 Na5 3.131889 1_555
As1 Na6 3.158289 1_555
As1 Na7 3.164078 1_555
As1 Sr1 3.169610 1_555
As1 Na0 3.186245 1_555
As1 Sr0 3.279712 1_555
As1 Sr3 3.505507 1_555
As2 Si1 2.427326 1_556
As2 Na5 3.037014 1_556
As2 Na4 3.069887 1_565
As2 Na3 3.079833 1_555
As2 Sr0 3.171369 1_555
As2 Sr1 3.172080 1_555
As2 Sr3 3.319375 1_556
As2 Na1 3.332061 1_566
As3 Si1 2.465169 1_556
As3 Na4 3.006214 1_455
As3 Na2 3.031276 1_555
As3 Na6 3.129380 1_556
As3 Sr1 3.146512 1_555
As3 Na0 3.191438 1_555
As3 Sr2 3.211792 1_456
As3 Sr3 3.254878 1_556
As4 Si1 2.403254 1_556
As4 Na3 2.960584 1_455
As4 Na2 2.971646 1_565
As4 Na7 3.038675 1_556
As4 Sr0 3.149073 1_555
As4 Na0 3.181072 1_555
As4 Sr2 3.251668 1_456
As4 Na1 3.319451 1_566
As5 Si0 2.465169 1_555
As5 Na7 3.006214 1_545
As5 Na6 3.031276 1_555
As5 Na2 3.129380 1_555
As5 Sr3 3.146512 1_555
As5 Na1 3.191438 1_555
As5 Sr0 3.211792 1_545
As5 Sr1 3.254878 1_555
As6 Si0 2.427326 1_555
As6 Na3 3.037014 1_555
As6 Na7 3.069887 1_655
As6 Na5 3.079833 1_555
As6 Sr2 3.171369 1_555
As6 Sr3 3.172080 1_555
As6 Sr1 3.319375 1_555
As6 Na0 3.332061 1_655
As7 Si0 2.403254 1_555
As7 Na5 2.960584 1_545
As7 Na6 2.971646 1_655
As7 Na4 3.038675 1_555
As7 Sr2 3.149073 1_555
As7 Na1 3.181072 1_555
As7 Sr0 3.251668 1_545
As7 Na0 3.319451 1_655
