# generated using pymatgen
data_TeAsRh
_symmetry_space_group_name_H-M   'P 1'
_cell_length_a   6.23680300
_cell_length_b   6.23680300
_cell_length_c   6.23680300
_cell_angle_alpha   90.00000000
_cell_angle_beta   90.00000000
_cell_angle_gamma   90.00000000
_symmetry_Int_Tables_number   1
_chemical_formula_structural   TeAsRh
_chemical_formula_sum   'Te4 As4 Rh4'
_cell_volume   242.59736478
_cell_formula_units_Z   4
loop_
 _symmetry_equiv_pos_site_id
 _symmetry_equiv_pos_as_xyz
  1  'x, y, z'
loop_
 _atom_site_type_symbol
 _atom_site_label
 _atom_site_symmetry_multiplicity
 _atom_site_fract_x
 _atom_site_fract_y
 _atom_site_fract_z
 _atom_site_occupancy
  Te  Te0  1  0.12187500  0.62187500  0.87812500  1
  Te  Te1  1  0.62187500  0.87812500  0.12187500  1
  Te  Te2  1  0.87812500  0.12187500  0.62187500  1
  Te  Te3  1  0.37812500  0.37812500  0.37812500  1
  As  As0  1  0.87684200  0.37684200  0.12315800  1
  As  As1  1  0.37684200  0.12315800  0.87684200  1
  As  As2  1  0.12315800  0.87684200  0.37684200  1
  As  As3  1  0.62315800  0.62315800  0.62315800  1
  Rh  Rh0  1  0.48963700  0.98963700  0.51036300  1
  Rh  Rh1  1  0.98963700  0.51036300  0.48963700  1
  Rh  Rh2  1  0.51036300  0.48963700  0.98963700  1
  Rh  Rh3  1  0.01036300  0.01036300  0.01036300  1
loop_
_geom_bond_atom_site_label_1
_geom_bond_atom_site_label_2
_geom_bond_distance
_geom_bond_site_symmetry_2
As0 Rh2 2.532307 1_554
As0 Rh3 2.532307 1_655
As0 Rh1 2.532307 1_555
As0 Te0 2.646959 1_654
As1 Rh0 2.532307 1_545
As1 Rh3 2.532307 1_556
As1 Rh2 2.532307 1_555
As1 Te1 2.646959 1_546
As2 Rh1 2.532307 1_455
As2 Rh3 2.532307 1_565
As2 Rh0 2.532307 1_555
As2 Te2 2.646959 1_465
As3 Rh1 2.532307 1_555
As3 Rh0 2.532307 1_555
As3 Rh2 2.532307 1_555
As3 Te3 2.646959 1_555
Rh0 Te2 2.652253 1_565
Rh0 Te3 2.652253 1_565
Rh0 Te1 2.652253 1_555
Rh1 Te0 2.652253 1_655
Rh1 Te3 2.652253 1_655
Rh1 Te2 2.652253 1_555
Rh2 Te1 2.652253 1_556
Rh2 Te3 2.652253 1_556
Rh2 Te0 2.652253 1_555
Rh3 Te0 2.652253 1_544
Rh3 Te2 2.652253 1_454
Rh3 Te1 2.652253 1_445
