# generated using pymatgen
data_V9GaGe2
_symmetry_space_group_name_H-M   'P 1'
_cell_length_a   4.78508600
_cell_length_b   4.80381200
_cell_length_c   14.12084100
_cell_angle_alpha   90.00000000
_cell_angle_beta   90.00000000
_cell_angle_gamma   90.00000000
_symmetry_Int_Tables_number   1
_chemical_formula_structural   V9GaGe2
_chemical_formula_sum   'V18 Ga2 Ge4'
_cell_volume   324.59087987
_cell_formula_units_Z   2
loop_
 _symmetry_equiv_pos_site_id
 _symmetry_equiv_pos_as_xyz
  1  'x, y, z'
loop_
 _atom_site_type_symbol
 _atom_site_label
 _atom_site_symmetry_multiplicity
 _atom_site_fract_x
 _atom_site_fract_y
 _atom_site_fract_z
 _atom_site_occupancy
  V  V0  1  0.00000000  0.50000000  0.91756700  1
  V  V1  1  0.00000000  0.50000000  0.25042100  1
  V  V2  1  0.00000000  0.50000000  0.58452700  1
  V  V3  1  0.50000000  0.24369900  0.66552900  1
  V  V4  1  0.50000000  0.24154000  0.00000000  1
  V  V5  1  0.50000000  0.24369900  0.33447100  1
  V  V6  1  0.74462300  0.00000000  0.83325200  1
  V  V7  1  0.74462300  0.00000000  0.16674800  1
  V  V8  1  0.74244200  0.00000000  0.50000000  1
  V  V9  1  0.00000000  0.50000000  0.74957900  1
  V  V10  1  0.00000000  0.50000000  0.08243300  1
  V  V11  1  0.00000000  0.50000000  0.41547300  1
  V  V12  1  0.50000000  0.75630100  0.66552900  1
  V  V13  1  0.50000000  0.75846000  0.00000000  1
  V  V14  1  0.50000000  0.75630100  0.33447100  1
  V  V15  1  0.25537700  0.00000000  0.83325200  1
  V  V16  1  0.25537700  0.00000000  0.16674800  1
  V  V17  1  0.25755800  0.00000000  0.50000000  1
  Ga  Ga0  1  0.50000000  0.50000000  0.83300900  1
  Ga  Ga1  1  0.50000000  0.50000000  0.16699100  1
  Ge  Ge0  1  0.50000000  0.50000000  0.50000000  1
  Ge  Ge1  1  0.00000000  0.00000000  0.66623600  1
  Ge  Ge2  1  0.00000000  0.00000000  0.00000000  1
  Ge  Ge3  1  0.00000000  0.00000000  0.33376400  1
loop_
_geom_bond_atom_site_label_1
_geom_bond_atom_site_label_2
_geom_bond_distance
_geom_bond_site_symmetry_2
V0 V10 2.328047 1_556
V0 V9 2.372132 1_555
V1 V11 2.330673 1_555
V1 V10 2.372132 1_555
V2 V9 2.330673 1_555
V11 V2 2.387185 1_555
V12 V3 2.341368 1_565
V12 V3 2.462444 1_555
V13 V4 2.320626 1_565
V13 V4 2.483186 1_555
V14 V5 2.341368 1_565
V14 V5 2.462444 1_555
V15 V6 2.341084 1_555
V15 V6 2.444002 1_455
V16 V7 2.341084 1_555
V16 V7 2.444002 1_455
V17 V8 2.320212 1_555
V17 V8 2.464874 1_455
Ga0 V4 2.664952 1_556
Ga0 V13 2.664952 1_556
Ga0 V12 2.666259 1_555
Ga0 V3 2.666259 1_555
Ga0 V9 2.666868 1_655
Ga0 V9 2.666868 1_555
Ga0 V6 2.671953 1_565
Ga0 V6 2.671953 1_555
Ga0 V15 2.671953 1_565
Ga0 V15 2.671953 1_555
Ga0 V0 2.673943 1_655
Ga0 V0 2.673943 1_555
Ga1 V4 2.664952 1_555
Ga1 V13 2.664952 1_555
Ga1 V5 2.666259 1_555
Ga1 V14 2.666259 1_555
Ga1 V1 2.666868 1_655
Ga1 V1 2.666868 1_555
Ga1 V7 2.671953 1_555
Ga1 V7 2.671953 1_565
Ga1 V16 2.671953 1_555
Ga1 V16 2.671953 1_565
Ga1 V10 2.673943 1_655
Ga1 V10 2.673943 1_555
Ge0 V5 2.641853 1_555
Ge0 V14 2.641853 1_555
Ge0 V12 2.641853 1_555
Ge0 V3 2.641853 1_555
Ge0 V8 2.667395 1_555
Ge0 V17 2.667395 1_555
Ge0 V8 2.667395 1_565
Ge0 V17 2.667395 1_565
Ge0 V2 2.673747 1_655
Ge0 V11 2.673747 1_555
Ge0 V2 2.673747 1_555
Ge0 V11 2.673747 1_655
Ge1 V8 2.651255 1_455
Ge1 V17 2.651255 1_555
Ge1 V6 2.656194 1_455
Ge1 V15 2.656194 1_555
Ge1 V12 2.663618 1_445
Ge1 V3 2.663618 1_455
Ge1 V12 2.663618 1_545
Ge1 V3 2.663618 1_555
Ge1 V2 2.664659 1_555
Ge1 V2 2.664659 1_545
Ge1 V9 2.674730 1_555
Ge1 V9 2.674730 1_545
Ge2 V6 2.652835 1_454
Ge2 V16 2.652835 1_555
Ge2 V15 2.652835 1_554
Ge2 V7 2.652835 1_455
Ge2 V4 2.659058 1_455
Ge2 V13 2.659058 1_445
Ge2 V13 2.659058 1_545
Ge2 V4 2.659058 1_555
Ge2 V0 2.669101 1_554
Ge2 V0 2.669101 1_544
Ge2 V10 2.669101 1_555
Ge2 V10 2.669101 1_545
Ge3 V8 2.651255 1_455
Ge3 V17 2.651255 1_555
Ge3 V16 2.656194 1_555
Ge3 V7 2.656194 1_455
Ge3 V14 2.663618 1_445
Ge3 V5 2.663618 1_555
Ge3 V14 2.663618 1_545
Ge3 V5 2.663618 1_455
Ge3 V11 2.664659 1_545
Ge3 V11 2.664659 1_555
Ge3 V1 2.674730 1_555
Ge3 V1 2.674730 1_545
