# generated using pymatgen
data_Al2ZnS4
_symmetry_space_group_name_H-M   'P 1'
_cell_length_a   3.69613045
_cell_length_b   3.69613045
_cell_length_c   23.80581800
_cell_angle_alpha   90.00000000
_cell_angle_beta   90.00000000
_cell_angle_gamma   120.00000813
_symmetry_Int_Tables_number   1
_chemical_formula_structural   Al2ZnS4
_chemical_formula_sum   'Al4 Zn2 S8'
_cell_volume   281.64904787
_cell_formula_units_Z   2
loop_
 _symmetry_equiv_pos_site_id
 _symmetry_equiv_pos_as_xyz
  1  'x, y, z'
loop_
 _atom_site_type_symbol
 _atom_site_label
 _atom_site_symmetry_multiplicity
 _atom_site_fract_x
 _atom_site_fract_y
 _atom_site_fract_z
 _atom_site_occupancy
  Al  Al0  1  0.66666700  0.33333300  0.24810900  1
  Al  Al1  1  0.33333300  0.66666700  0.74810900  1
  Al  Al2  1  0.33333300  0.66666700  0.40195600  1
  Al  Al3  1  0.66666700  0.33333300  0.90195600  1
  Zn  Zn0  1  0.00000000  0.00000000  0.09208300  1
  Zn  Zn1  1  0.00000000  0.00000000  0.59208300  1
  S  S0  1  0.00000000  0.00000000  0.43879100  1
  S  S1  1  0.00000000  0.00000000  0.93879100  1
  S  S2  1  0.33333300  0.66666700  0.30690600  1
  S  S3  1  0.66666700  0.33333300  0.80690600  1
  S  S4  1  0.00000000  0.00000000  0.20024200  1
  S  S5  1  0.00000000  0.00000000  0.70024200  1
  S  S6  1  0.66666700  0.33333300  0.06141400  1
  S  S7  1  0.33333300  0.66666700  0.56141400  1
loop_
_geom_bond_atom_site_label_1
_geom_bond_atom_site_label_2
_geom_bond_distance
_geom_bond_site_symmetry_2
Al0 S4 2.419148 1_655
Al0 S4 2.419150 1_665
Al0 S4 2.419150 1_555
Al0 S2 2.552053 1_545
Al0 S2 2.552053 1_655
Al0 S2 2.552058 1_555
Al1 S5 2.419148 1_565
Al1 S5 2.419150 1_665
Al1 S5 2.419150 1_555
Al1 S3 2.552053 1_455
Al1 S3 2.552053 1_565
Al1 S3 2.552058 1_555
Al2 S2 2.262743 1_555
Al2 S0 2.307101 1_565
Al2 S0 2.307104 1_555
Al2 S0 2.307104 1_665
Al3 S3 2.262743 1_555
Al3 S1 2.307101 1_655
Al3 S1 2.307104 1_665
Al3 S1 2.307104 1_555
S4 Zn0 2.574813 1_555
S5 Zn1 2.574813 1_555
S6 Zn0 2.255401 1_655
S6 Zn0 2.255403 1_555
S6 Zn0 2.255403 1_665
S7 Zn1 2.255401 1_565
S7 Zn1 2.255403 1_555
S7 Zn1 2.255403 1_665
