# generated using pymatgen
data_MgCr(SiO3)2
_symmetry_space_group_name_H-M   'P 1'
_cell_length_a   5.39098953
_cell_length_b   6.73559496
_cell_length_c   6.73560058
_cell_angle_alpha   84.36213120
_cell_angle_beta   74.69804627
_cell_angle_gamma   74.69754142
_symmetry_Int_Tables_number   1
_chemical_formula_structural   MgCr(SiO3)2
_chemical_formula_sum   'Mg2 Cr2 Si4 O12'
_cell_volume   227.43778017
_cell_formula_units_Z   2
loop_
 _symmetry_equiv_pos_site_id
 _symmetry_equiv_pos_as_xyz
  1  'x, y, z'
loop_
 _atom_site_type_symbol
 _atom_site_label
 _atom_site_symmetry_multiplicity
 _atom_site_fract_x
 _atom_site_fract_y
 _atom_site_fract_z
 _atom_site_occupancy
  Mg  Mg0  1  0.24998000  0.59678600  0.40322200  1
  Mg  Mg1  1  0.75001100  0.40320000  0.59683200  1
  Cr  Cr0  1  0.75008500  0.76729000  0.23254000  1
  Cr  Cr1  1  0.24986300  0.23268400  0.76745500  1
  Si  Si0  1  0.27391500  0.11681900  0.29410300  1
  Si  Si1  1  0.72605900  0.88317700  0.70587800  1
  Si  Si2  1  0.22609600  0.70591800  0.88316400  1
  Si  Si3  1  0.77395000  0.29409500  0.11684700  1
  O  O0  1  0.93478300  0.85308300  0.85515500  1
  O  O1  1  0.06519500  0.14695800  0.14487300  1
  O  O2  1  0.56520100  0.14486700  0.14691500  1
  O  O3  1  0.43476200  0.85518400  0.85301200  1
  O  O4  1  0.15246900  0.29371200  0.46680400  1
  O  O5  1  0.84755500  0.70625700  0.53322200  1
  O  O6  1  0.34755500  0.53321500  0.70626100  1
  O  O7  1  0.65244500  0.46675900  0.29375200  1
  O  O8  1  0.35004200  0.87775400  0.37178400  1
  O  O9  1  0.65000900  0.12223800  0.62817700  1
  O  O10  1  0.14994600  0.62818300  0.12223700  1
  O  O11  1  0.85007900  0.37182100  0.87776700  1
loop_
_geom_bond_atom_site_label_1
_geom_bond_atom_site_label_2
_geom_bond_distance
_geom_bond_site_symmetry_2
Mg0 O5 2.072887 1_455
Mg0 O7 2.073099 1_555
Mg0 O8 2.077775 1_555
Mg0 O10 2.077827 1_555
Mg0 O6 2.214145 1_555
Mg0 O4 2.214231 1_555
Mg1 O6 2.073010 1_555
Mg1 O4 2.073085 1_655
Mg1 O11 2.077594 1_555
Mg1 O9 2.077618 1_555
Mg1 O5 2.214204 1_555
Mg1 O7 2.214388 1_555
Cr0 O10 2.074143 1_655
Cr0 O8 2.075290 1_555
Cr0 O7 2.197397 1_555
Cr0 O5 2.197938 1_555
Cr0 O0 2.542812 1_554
Cr0 O2 2.543856 1_565
Cr1 O11 2.073851 1_455
Cr1 O9 2.075782 1_555
Cr1 O6 2.197514 1_555
Cr1 O4 2.197558 1_555
Cr1 O1 2.542871 1_556
Cr1 O3 2.543312 1_545
O0 Si1 1.659796 1_555
O0 Si2 1.668075 1_655
O1 Si0 1.659498 1_555
O1 Si3 1.667748 1_455
O2 Si3 1.659676 1_555
O2 Si0 1.668098 1_555
O3 Si2 1.659447 1_555
O3 Si1 1.667912 1_555
O4 Si0 1.630953 1_555
O5 Si1 1.630879 1_555
O6 Si2 1.631010 1_555
O7 Si3 1.630846 1_555
O8 Si0 1.622982 1_565
O9 Si1 1.622965 1_545
O10 Si2 1.623151 1_554
O11 Si3 1.623167 1_556
