# generated using pymatgen
data_LaTaO4
_symmetry_space_group_name_H-M   'P 1'
_cell_length_a   7.56932500
_cell_length_b   8.00348600
_cell_length_c   11.21635900
_cell_angle_alpha   90.00000000
_cell_angle_beta   90.00000000
_cell_angle_gamma   90.00000000
_symmetry_Int_Tables_number   1
_chemical_formula_structural   LaTaO4
_chemical_formula_sum   'La8 Ta8 O32'
_cell_volume   679.49809503
_cell_formula_units_Z   8
loop_
 _symmetry_equiv_pos_site_id
 _symmetry_equiv_pos_as_xyz
  1  'x, y, z'
loop_
 _atom_site_type_symbol
 _atom_site_label
 _atom_site_symmetry_multiplicity
 _atom_site_fract_x
 _atom_site_fract_y
 _atom_site_fract_z
 _atom_site_occupancy
  La  La0  1  0.74625500  0.37408300  0.02522600  1
  La  La1  1  0.25374500  0.87408300  0.47477400  1
  La  La2  1  0.75374500  0.62591700  0.52522600  1
  La  La3  1  0.24625500  0.12591700  0.97477400  1
  La  La4  1  0.25374500  0.62591700  0.97477400  1
  La  La5  1  0.74625500  0.12591700  0.52522600  1
  La  La6  1  0.24625500  0.37408300  0.47477400  1
  La  La7  1  0.75374500  0.87408300  0.02522600  1
  Ta  Ta0  1  0.99609800  0.12054100  0.25127800  1
  Ta  Ta1  1  0.00390200  0.62054100  0.24872200  1
  Ta  Ta2  1  0.50390200  0.87945900  0.75127800  1
  Ta  Ta3  1  0.49609800  0.37945900  0.74872200  1
  Ta  Ta4  1  0.00390200  0.87945900  0.74872200  1
  Ta  Ta5  1  0.99609800  0.37945900  0.75127800  1
  Ta  Ta6  1  0.49609800  0.12054100  0.24872200  1
  Ta  Ta7  1  0.50390200  0.62054100  0.25127800  1
  O  O0  1  0.74643400  0.13291400  0.30851400  1
  O  O1  1  0.25356600  0.63291400  0.19148600  1
  O  O2  1  0.75356600  0.86708600  0.80851400  1
  O  O3  1  0.24643400  0.36708600  0.69148600  1
  O  O4  1  0.25356600  0.86708600  0.69148600  1
  O  O5  1  0.74643400  0.36708600  0.80851400  1
  O  O6  1  0.24643400  0.13291400  0.19148600  1
  O  O7  1  0.75356600  0.63291400  0.30851400  1
  O  O8  1  0.06633500  0.12585000  0.42110000  1
  O  O9  1  0.93366500  0.62585000  0.07890000  1
  O  O10  1  0.43366500  0.87415000  0.92110000  1
  O  O11  1  0.56633500  0.37415000  0.57890000  1
  O  O12  1  0.93366500  0.87415000  0.57890000  1
  O  O13  1  0.06633500  0.37415000  0.92110000  1
  O  O14  1  0.56633500  0.12585000  0.07890000  1
  O  O15  1  0.43366500  0.62585000  0.42110000  1
  O  O16  1  0.00039600  0.37776200  0.25148300  1
  O  O17  1  0.99960400  0.87776200  0.24851700  1
  O  O18  1  0.49960400  0.62223800  0.75148300  1
  O  O19  1  0.50039600  0.12223800  0.74851700  1
  O  O20  1  0.99960400  0.62223800  0.74851700  1
  O  O21  1  0.00039600  0.12223800  0.75148300  1
  O  O22  1  0.50039600  0.37776200  0.24851700  1
  O  O23  1  0.49960400  0.87776200  0.25148300  1
  O  O24  1  0.57518200  0.87422100  0.58026800  1
  O  O25  1  0.42481800  0.37422100  0.91973200  1
  O  O26  1  0.92481800  0.12577900  0.08026800  1
  O  O27  1  0.07518200  0.62577900  0.41973200  1
  O  O28  1  0.42481800  0.12577900  0.41973200  1
  O  O29  1  0.57518200  0.62577900  0.08026800  1
  O  O30  1  0.07518200  0.87422100  0.91973200  1
  O  O31  1  0.92481800  0.37422100  0.58026800  1
loop_
_geom_bond_atom_site_label_1
_geom_bond_atom_site_label_2
_geom_bond_distance
_geom_bond_site_symmetry_2
La0 O5 2.431365 1_554
La0 O29 2.473039 1_555
La0 O26 2.481396 1_555
La0 O14 2.482786 1_555
La0 O9 2.536740 1_555
La0 O13 2.689597 1_654
La0 O25 2.705529 1_554
La0 O22 3.120372 1_555
La0 O16 3.184607 1_655
La1 O4 2.431365 1_555
La1 O28 2.473039 1_565
La1 O27 2.481396 1_555
La1 O15 2.482786 1_555
La1 O8 2.536740 1_565
La1 O12 2.689597 1_455
La1 O24 2.705529 1_555
La1 O23 3.120372 1_555
La1 O17 3.184607 1_455
La2 O7 2.431365 1_555
La2 O31 2.473039 1_555
La2 O24 2.481396 1_555
La2 O12 2.482786 1_555
La2 O11 2.536740 1_555
La2 O15 2.689597 1_555
La2 O27 2.705529 1_655
La2 O20 3.120372 1_555
La2 O18 3.184607 1_555
La3 O6 2.431365 1_556
La3 O30 2.473039 1_545
La3 O25 2.481396 1_555
La3 O13 2.482786 1_555
La3 O10 2.536740 1_545
La3 O14 2.689597 1_556
La3 O26 2.705529 1_456
La3 O21 3.120372 1_555
La3 O19 3.184607 1_555
La4 O1 2.431365 1_556
La4 O25 2.473039 1_555
La4 O30 2.481396 1_555
La4 O10 2.482786 1_555
La4 O13 2.536740 1_555
La4 O9 2.689597 1_456
La4 O29 2.705529 1_556
La4 O18 3.120372 1_555
La4 O20 3.184607 1_455
La5 O0 2.431365 1_555
La5 O24 2.473039 1_545
La5 O31 2.481396 1_555
La5 O11 2.482786 1_555
La5 O12 2.536740 1_545
La5 O8 2.689597 1_655
La5 O28 2.705529 1_555
La5 O19 3.120372 1_555
La5 O21 3.184607 1_655
La6 O3 2.431365 1_555
La6 O27 2.473039 1_555
La6 O28 2.481396 1_555
La6 O8 2.482786 1_555
La6 O15 2.536740 1_555
La6 O11 2.689597 1_555
La6 O31 2.705529 1_455
La6 O16 3.120372 1_555
La6 O22 3.184607 1_555
La7 O2 2.431365 1_554
La7 O26 2.473039 1_565
La7 O29 2.481396 1_555
La7 O9 2.482786 1_555
La7 O14 2.536740 1_565
La7 O10 2.689597 1_554
La7 O30 2.705529 1_654
La7 O17 3.120372 1_555
La7 O23 3.184607 1_555
O0 Ta0 1.998310 1_555
O0 Ta6 2.012492 1_555
O1 Ta1 1.998310 1_555
O1 Ta7 2.012492 1_555
O2 Ta2 1.998310 1_555
O2 Ta4 2.012492 1_655
O3 Ta3 1.998310 1_555
O3 Ta5 2.012492 1_455
O4 Ta4 1.998310 1_555
O4 Ta2 2.012492 1_555
O5 Ta5 1.998310 1_555
O5 Ta3 2.012492 1_555
O6 Ta6 1.998310 1_555
O6 Ta0 2.012492 1_455
O7 Ta7 1.998310 1_555
O7 Ta1 2.012492 1_655
O8 Ta0 1.978044 1_455
O9 Ta1 1.978044 1_655
O10 Ta2 1.978044 1_555
O11 Ta3 1.978044 1_555
O12 Ta4 1.978044 1_655
O13 Ta5 1.978044 1_455
O14 Ta6 1.978044 1_555
O15 Ta7 1.978044 1_555
O16 Ta1 1.943506 1_555
O16 Ta0 2.058923 1_455
O17 Ta0 1.943506 1_565
O17 Ta1 2.058923 1_655
O18 Ta3 1.943506 1_555
O18 Ta2 2.058923 1_555
O19 Ta2 1.943506 1_545
O19 Ta3 2.058923 1_555
O20 Ta5 1.943506 1_555
O20 Ta4 2.058923 1_655
O21 Ta4 1.943506 1_545
O21 Ta5 2.058923 1_455
O22 Ta7 1.943506 1_555
O22 Ta6 2.058923 1_555
O23 Ta6 1.943506 1_565
O23 Ta7 2.058923 1_555
O24 Ta2 1.992989 1_555
O25 Ta3 1.992989 1_555
O26 Ta0 1.992989 1_555
O27 Ta1 1.992989 1_555
O28 Ta6 1.992989 1_555
O29 Ta7 1.992989 1_555
O30 Ta4 1.992989 1_555
O31 Ta5 1.992989 1_555
