# generated using pymatgen
data_Na2PrO3
_symmetry_space_group_name_H-M   'P 1'
_cell_length_a   6.20879479
_cell_length_b   6.20879479
_cell_length_c   11.47525190
_cell_angle_alpha   95.11764636
_cell_angle_beta   95.11764636
_cell_angle_gamma   120.23855318
_symmetry_Int_Tables_number   1
_chemical_formula_structural   Na2PrO3
_chemical_formula_sum   'Na8 Pr4 O12'
_cell_volume   375.99588828
_cell_formula_units_Z   4
loop_
 _symmetry_equiv_pos_site_id
 _symmetry_equiv_pos_as_xyz
  1  'x, y, z'
loop_
 _atom_site_type_symbol
 _atom_site_label
 _atom_site_symmetry_multiplicity
 _atom_site_fract_x
 _atom_site_fract_y
 _atom_site_fract_z
 _atom_site_occupancy
  Na  Na0  1  0.18313800  0.83530900  0.50093000  1
  Na  Na1  1  0.66469100  0.31686200  0.99907000  1
  Na  Na2  1  0.81686200  0.16469100  0.49907000  1
  Na  Na3  1  0.33530900  0.68313800  0.00093000  1
  Na  Na4  1  0.50000000  0.50000000  0.50000000  1
  Na  Na5  1  0.00000000  0.00000000  0.00000000  1
  Na  Na6  1  0.41766100  0.08233900  0.25000000  1
  Na  Na7  1  0.58233900  0.91766100  0.75000000  1
  Pr  Pr0  1  0.75172200  0.74827800  0.25000000  1
  Pr  Pr1  1  0.24827800  0.25172200  0.75000000  1
  Pr  Pr2  1  0.08504100  0.41495900  0.25000000  1
  Pr  Pr3  1  0.91495900  0.58504100  0.75000000  1
  O  O0  1  0.45393800  0.76060200  0.36716300  1
  O  O1  1  0.73939800  0.04606200  0.13283700  1
  O  O2  1  0.54606200  0.23939800  0.63283700  1
  O  O3  1  0.26060200  0.95393800  0.86716300  1
  O  O4  1  0.81229000  0.47222600  0.36431400  1
  O  O5  1  0.02777400  0.68771000  0.13568600  1
  O  O6  1  0.18771000  0.52777400  0.63568600  1
  O  O7  1  0.97222600  0.31229000  0.86431400  1
  O  O8  1  0.09849300  0.12204500  0.36663900  1
  O  O9  1  0.37795500  0.40150700  0.13336100  1
  O  O10  1  0.90150700  0.87795500  0.63336100  1
  O  O11  1  0.62204500  0.59849300  0.86663900  1
loop_
_geom_bond_atom_site_label_1
_geom_bond_atom_site_label_2
_geom_bond_distance
_geom_bond_site_symmetry_2
Na0 O10 2.511116 1_455
Na0 O4 2.517689 1_455
Na0 O0 2.552884 1_555
Na0 O6 2.571273 1_555
Na0 O2 2.585181 1_565
Na0 O8 2.666022 1_565
Na1 O11 2.511116 1_555
Na1 O5 2.517689 1_656
Na1 O1 2.552884 1_556
Na1 O7 2.571273 1_555
Na1 O3 2.585181 1_545
Na1 O9 2.666022 1_556
Na2 O8 2.511116 1_655
Na2 O6 2.517689 1_655
Na2 O2 2.552884 1_555
Na2 O4 2.571273 1_555
Na2 O0 2.585181 1_545
Na2 O10 2.666022 1_545
Na3 O9 2.511116 1_555
Na3 O7 2.517689 1_454
Na3 O3 2.552884 1_554
Na3 O5 2.571273 1_555
Na3 O1 2.585181 1_565
Na3 O11 2.666022 1_554
Na4 O2 2.419031 1_555
Na4 O0 2.419031 1_555
Na4 O10 2.617220 1_555
Na4 O8 2.617220 1_555
Na4 O6 2.653497 1_555
Na4 O4 2.653497 1_555
Na5 O1 2.419031 1_455
Na5 O3 2.419031 1_544
Na5 O9 2.617220 1_555
Na5 O11 2.617220 1_444
Na5 O5 2.653497 1_545
Na5 O7 2.653497 1_454
Na6 O4 2.543660 1_555
Na6 O5 2.543660 1_545
Na6 O9 2.585644 1_555
Na6 O8 2.585644 1_555
Na6 O0 2.593652 1_545
Na6 O1 2.593652 1_555
Na7 O7 2.543660 1_565
Na7 O6 2.543660 1_555
Na7 O11 2.585644 1_555
Na7 O10 2.585644 1_555
Na7 O3 2.593652 1_555
Na7 O2 2.593652 1_565
O0 Pr2 2.375756 1_555
O0 Pr0 2.408200 1_555
O1 Pr2 2.375756 1_655
O1 Pr0 2.408200 1_545
O2 Pr3 2.375756 1_555
O2 Pr1 2.408200 1_555
O3 Pr3 2.375756 1_455
O3 Pr1 2.408200 1_565
O4 Pr2 2.373720 1_655
O4 Pr0 2.400437 1_555
O5 Pr2 2.373720 1_555
O5 Pr0 2.400437 1_455
O6 Pr3 2.373720 1_455
O6 Pr1 2.400437 1_555
O7 Pr3 2.373720 1_555
O7 Pr1 2.400437 1_655
O8 Pr2 2.381854 1_555
O8 Pr0 2.389928 1_445
O9 Pr2 2.381854 1_555
O9 Pr0 2.389928 1_555
O10 Pr3 2.381854 1_555
O10 Pr1 2.389928 1_665
O11 Pr3 2.381854 1_555
O11 Pr1 2.389928 1_555
