# generated using pymatgen
data_Y6InCo2
_symmetry_space_group_name_H-M   'P 1'
_cell_length_a   8.45536749
_cell_length_b   8.45534980
_cell_length_c   8.45534469
_cell_angle_alpha   111.20089206
_cell_angle_beta   109.83750640
_cell_angle_gamma   107.39795054
_symmetry_Int_Tables_number   1
_chemical_formula_structural   Y6InCo2
_chemical_formula_sum   'Y12 In2 Co4'
_cell_volume   464.82016057
_cell_formula_units_Z   2
loop_
 _symmetry_equiv_pos_site_id
 _symmetry_equiv_pos_as_xyz
  1  'x, y, z'
loop_
 _atom_site_type_symbol
 _atom_site_label
 _atom_site_symmetry_multiplicity
 _atom_site_fract_x
 _atom_site_fract_y
 _atom_site_fract_z
 _atom_site_occupancy
  Y  Y0  1  0.44063572  0.22809173  0.21254505  1
  Y  Y1  1  0.55933747  0.77189770  0.78744063  1
  Y  Y2  1  0.01555766  0.22810785  0.78745057  1
  Y  Y3  1  0.98446575  0.77191080  0.21255591  1
  Y  Y4  1  0.18526733  0.28958226  0.47484753  1
  Y  Y5  1  0.81472579  0.71042540  0.52514807  1
  Y  Y6  1  0.18526772  0.71042111  0.89568668  1
  Y  Y7  1  0.81472639  0.28957904  0.10430213  1
  Y  Y8  1  0.31752114  0.61673105  0.29921323  1
  Y  Y9  1  0.68246906  0.38326932  0.70080320  1
  Y  Y10  1  0.31752186  0.01830948  0.70079055  1
  Y  Y11  1  0.68247053  0.98166708  0.29919934  1
  In  In0  1  0.50000059  0.49999911  0.00000184  1
  In  In1  1  -0.00002246  -0.00000466  0.99998253  1
  Co  Co0  1  0.38482510  -0.00000141  0.38482228  1
  Co  Co1  1  0.61522491  0.00000035  0.61521923  1
  Co  Co2  1  0.10795551  0.60796361  0.49999369  1
  Co  Co3  1  0.89204991  0.39205019  0.49999953  1
loop_
_geom_bond_atom_site_label_1
_geom_bond_atom_site_label_2
_geom_bond_distance
_geom_bond_site_symmetry_2
In0 Y9 3.392384 1_554
In0 Y11 3.392386 1_555
In0 Y10 3.392538 1_554
In0 Y8 3.392547 1_555
In0 Y2 3.417218 1_554
In0 Y0 3.417288 1_555
In0 Y1 3.417322 1_554
In0 Y3 3.417390 1_555
In0 Y5 3.660348 1_555
In0 Y7 3.660352 1_555
In0 Y4 3.660427 1_554
In0 Y6 3.660433 1_554
In1 Y1 3.079331 1_445
In1 Y2 3.079364 1_555
In1 Y3 3.079427 1_446
In1 Y0 3.079447 1_556
In1 Y5 3.300904 1_445
In1 Y7 3.300912 1_456
In1 Y6 3.301076 1_545
In1 Y4 3.301078 1_556
Co0 Co1 2.239284 1_555
Co0 Y3 2.831604 1_445
Co0 Y0 2.831660 1_555
Co0 Y8 2.875870 1_545
Co0 Y11 2.875879 1_545
Co0 Y9 2.875892 1_555
Co0 Y10 2.875893 1_555
Co0 Y6 3.378735 1_544
Co0 Y4 3.378784 1_555
Co1 Y1 2.831429 1_545
Co1 Y2 2.831484 1_655
Co1 Y11 2.876019 1_545
Co1 Y9 2.876042 1_555
Co1 Y8 2.876046 1_545
Co1 Y10 2.876081 1_555
Co1 Y5 3.378395 1_545
Co1 Y7 3.378446 1_556
Co2 Co3 2.161631 1_455
Co2 Y10 2.842805 1_565
Co2 Y8 2.842806 1_555
Co2 Y7 2.907266 1_455
Co2 Y5 2.907269 1_455
Co2 Y6 2.907271 1_555
Co2 Y4 2.907275 1_555
Co2 Y3 3.240166 1_455
Co2 Y1 3.240192 1_555
Co3 Y11 2.843067 1_545
Co3 Y9 2.843078 1_555
Co3 Y4 2.907191 1_655
Co3 Y6 2.907199 1_655
Co3 Y7 2.907261 1_555
Co3 Y5 2.907276 1_555
Co3 Y2 3.240252 1_655
Co3 Y0 3.240381 1_555
