# generated using pymatgen
data_GdAl3Cu
_symmetry_space_group_name_H-M   'P 1'
_cell_length_a   6.05630175
_cell_length_b   6.05630175
_cell_length_c   6.05630175
_cell_angle_alpha   139.95145582
_cell_angle_beta   139.95145582
_cell_angle_gamma   57.92701340
_symmetry_Int_Tables_number   1
_chemical_formula_structural   GdAl3Cu
_chemical_formula_sum   'Gd1 Al3 Cu1'
_cell_volume   91.15251225
_cell_formula_units_Z   1
loop_
 _symmetry_equiv_pos_site_id
 _symmetry_equiv_pos_as_xyz
  1  'x, y, z'
loop_
 _atom_site_type_symbol
 _atom_site_label
 _atom_site_symmetry_multiplicity
 _atom_site_fract_x
 _atom_site_fract_y
 _atom_site_fract_z
 _atom_site_occupancy
  Gd  Gd0  1  0.00078957  0.00078957  0.00000000  1
  Al  Al0  1  0.40805839  0.40805839  -0.00000000  1
  Al  Al1  1  0.24896763  0.74896763  0.50000000  1
  Al  Al2  1  0.74896763  0.24896763  0.50000000  1
  Cu  Cu0  1  0.62921679  0.62921679  0.00000000  1
loop_
_geom_bond_atom_site_label_1
_geom_bond_atom_site_label_2
_geom_bond_distance
_geom_bond_site_symmetry_2
Al0 Cu0 2.343761 1_555
Al0 Gd0 3.093050 1_666
Al0 Gd0 3.093050 1_554
Al0 Gd0 3.093050 1_565
Al0 Gd0 3.093050 1_655
Al1 Cu0 2.431287 1_455
Al1 Cu0 2.431287 1_556
Al1 Gd0 3.349337 1_555
Al1 Gd0 3.349337 1_566
Al1 Gd0 3.379746 1_565
Al1 Gd0 3.379746 1_666
Al2 Cu0 2.431287 1_545
Al2 Cu0 2.431287 1_556
Al2 Gd0 3.349337 1_555
Al2 Gd0 3.349337 1_656
Al2 Gd0 3.379746 1_655
Al2 Gd0 3.379746 1_666
Cu0 Gd0 3.233201 1_565
Cu0 Gd0 3.233201 1_655
Cu0 Gd0 3.233201 1_666
Cu0 Gd0 3.233201 1_554
