# generated using pymatgen
data_Ca3Cu2(GeO4)3
_symmetry_space_group_name_H-M   'P 1'
_cell_length_a   10.77890205
_cell_length_b   10.77890205
_cell_length_c   10.77890205
_cell_angle_alpha   109.47122063
_cell_angle_beta   109.47122063
_cell_angle_gamma   109.47122063
_symmetry_Int_Tables_number   1
_chemical_formula_structural   Ca3Cu2(GeO4)3
_chemical_formula_sum   'Ca12 Cu8 Ge12 O48'
_cell_volume   964.05472048
_cell_formula_units_Z   4
loop_
 _symmetry_equiv_pos_site_id
 _symmetry_equiv_pos_as_xyz
  1  'x, y, z'
loop_
 _atom_site_type_symbol
 _atom_site_label
 _atom_site_symmetry_multiplicity
 _atom_site_fract_x
 _atom_site_fract_y
 _atom_site_fract_z
 _atom_site_occupancy
  Ca  Ca0  1  0.25000000  0.87500000  0.62500000  1
  Ca  Ca1  1  0.75000000  0.62500000  0.87500000  1
  Ca  Ca2  1  0.62500000  0.87500000  0.75000000  1
  Ca  Ca3  1  0.87500000  0.62500000  0.25000000  1
  Ca  Ca4  1  0.62500000  0.25000000  0.87500000  1
  Ca  Ca5  1  0.87500000  0.75000000  0.62500000  1
  Ca  Ca6  1  0.75000000  0.12500000  0.37500000  1
  Ca  Ca7  1  0.25000000  0.37500000  0.12500000  1
  Ca  Ca8  1  0.37500000  0.12500000  0.25000000  1
  Ca  Ca9  1  0.12500000  0.37500000  0.75000000  1
  Ca  Ca10  1  0.37500000  0.75000000  0.12500000  1
  Ca  Ca11  1  0.12500000  0.25000000  0.37500000  1
  Cu  Cu0  1  0.50000000  0.50000000  0.50000000  1
  Cu  Cu1  1  0.50000000  0.00000000  0.50000000  1
  Cu  Cu2  1  0.00000000  0.50000000  0.50000000  1
  Cu  Cu3  1  0.50000000  0.50000000  0.00000000  1
  Cu  Cu4  1  0.00000000  0.00000000  0.50000000  1
  Cu  Cu5  1  0.00000000  0.50000000  0.00000000  1
  Cu  Cu6  1  0.50000000  0.00000000  0.00000000  1
  Cu  Cu7  1  0.00000000  0.00000000  0.00000000  1
  Ge  Ge0  1  0.12500000  0.75000000  0.87500000  1
  Ge  Ge1  1  0.87500000  0.25000000  0.12500000  1
  Ge  Ge2  1  0.62500000  0.37500000  0.25000000  1
  Ge  Ge3  1  0.75000000  0.87500000  0.12500000  1
  Ge  Ge4  1  0.87500000  0.12500000  0.75000000  1
  Ge  Ge5  1  0.25000000  0.62500000  0.37500000  1
  Ge  Ge6  1  0.75000000  0.37500000  0.62500000  1
  Ge  Ge7  1  0.25000000  0.12500000  0.87500000  1
  Ge  Ge8  1  0.12500000  0.87500000  0.25000000  1
  Ge  Ge9  1  0.37500000  0.62500000  0.75000000  1
  Ge  Ge10  1  0.62500000  0.75000000  0.37500000  1
  Ge  Ge11  1  0.37500000  0.25000000  0.62500000  1
  O  O0  1  0.41574000  0.81488100  0.79668000  1
  O  O1  1  0.88094000  0.39914000  0.08426000  1
  O  O2  1  0.10086000  0.98179900  0.68511900  1
  O  O3  1  0.51820100  0.61906000  0.70332000  1
  O  O4  1  0.68511900  0.08426000  0.70332000  1
  O  O5  1  0.61906000  0.70332000  0.51820100  1
  O  O6  1  0.61906000  0.41574000  0.10086000  1
  O  O7  1  0.70332000  0.51820100  0.61906000  1
  O  O8  1  0.81488100  0.51820100  0.39914000  1
  O  O9  1  0.98179900  0.79668000  0.88094000  1
  O  O10  1  0.79668000  0.88094000  0.98179900  1
  O  O11  1  0.70332000  0.68511900  0.08426000  1
  O  O12  1  0.41574000  0.10086000  0.61906000  1
  O  O13  1  0.39914000  0.81488100  0.51820100  1
  O  O14  1  0.08426000  0.70332000  0.68511900  1
  O  O15  1  0.10086000  0.61906000  0.41574000  1
  O  O16  1  0.51820100  0.39914000  0.81488100  1
  O  O17  1  0.08426000  0.88094000  0.39914000  1
  O  O18  1  0.98179900  0.68511900  0.10086000  1
  O  O19  1  0.18511900  0.48179900  0.60086000  1
  O  O20  1  0.68511900  0.10086000  0.98179900  1
  O  O21  1  0.79668000  0.41574000  0.81488100  1
  O  O22  1  0.39914000  0.08426000  0.88094000  1
  O  O23  1  0.88094000  0.98179900  0.79668000  1
  O  O24  1  0.58426000  0.18511900  0.20332000  1
  O  O25  1  0.11906000  0.60086000  0.91574000  1
  O  O26  1  0.89914000  0.01820100  0.31488100  1
  O  O27  1  0.48179900  0.38094000  0.29668000  1
  O  O28  1  0.31488100  0.91574000  0.29668000  1
  O  O29  1  0.38094000  0.29668000  0.48179900  1
  O  O30  1  0.38094000  0.58426000  0.89914000  1
  O  O31  1  0.29668000  0.48179900  0.38094000  1
  O  O32  1  0.11906000  0.01820100  0.20332000  1
  O  O33  1  0.60086000  0.91574000  0.11906000  1
  O  O34  1  0.20332000  0.58426000  0.18511900  1
  O  O35  1  0.18511900  0.20332000  0.58426000  1
  O  O36  1  0.31488100  0.89914000  0.01820100  1
  O  O37  1  0.01820100  0.31488100  0.89914000  1
  O  O38  1  0.91574000  0.11906000  0.60086000  1
  O  O39  1  0.48179900  0.60086000  0.18511900  1
  O  O40  1  0.89914000  0.38094000  0.58426000  1
  O  O41  1  0.91574000  0.29668000  0.31488100  1
  O  O42  1  0.60086000  0.18511900  0.48179900  1
  O  O43  1  0.58426000  0.89914000  0.38094000  1
  O  O44  1  0.29668000  0.31488100  0.91574000  1
  O  O45  1  0.20332000  0.11906000  0.01820100  1
  O  O46  1  0.01820100  0.20332000  0.11906000  1
  O  O47  1  0.81488100  0.79668000  0.41574000  1
loop_
_geom_bond_atom_site_label_1
_geom_bond_atom_site_label_2
_geom_bond_distance
_geom_bond_site_symmetry_2
Ca0 O2 2.400061 1_555
Ca0 O13 2.400061 1_555
Ca0 O15 2.400071 1_555
Ca0 O22 2.400071 1_565
Ca0 O14 2.530452 1_555
Ca0 O0 2.530452 1_555
Ca0 O12 2.530460 1_565
Ca0 O17 2.530460 1_555
Ca1 O11 2.400071 1_556
Ca1 O7 2.400071 1_555
Ca1 O21 2.400071 1_555
Ca1 O10 2.400071 1_555
Ca1 O9 2.530452 1_555
Ca1 O3 2.530452 1_555
Ca1 O16 2.530458 1_555
Ca1 O18 2.530458 1_556
Ca2 O4 2.400071 1_565
Ca2 O3 2.400071 1_555
Ca2 O0 2.400071 1_555
Ca2 O23 2.400071 1_555
Ca2 O10 2.530452 1_555
Ca2 O5 2.530452 1_555
Ca2 O13 2.530458 1_555
Ca2 O20 2.530458 1_565
Ca3 O18 2.400061 1_555
Ca3 O8 2.400061 1_555
Ca3 O6 2.400071 1_555
Ca3 O17 2.400071 1_655
Ca3 O11 2.530452 1_555
Ca3 O47 2.530452 1_555
Ca3 O15 2.530460 1_655
Ca3 O1 2.530460 1_555
Ca4 O20 2.400061 1_555
Ca4 O16 2.400061 1_555
Ca4 O12 2.400071 1_555
Ca4 O1 2.400071 1_556
Ca4 O4 2.530452 1_555
Ca4 O21 2.530452 1_555
Ca4 O6 2.530460 1_556
Ca4 O22 2.530460 1_555
Ca5 O14 2.400071 1_655
Ca5 O5 2.400071 1_555
Ca5 O47 2.400071 1_555
Ca5 O9 2.400071 1_555
Ca5 O23 2.530452 1_555
Ca5 O7 2.530452 1_555
Ca5 O8 2.530458 1_555
Ca5 O2 2.530458 1_655
Ca6 O42 2.400061 1_555
Ca6 O26 2.400061 1_555
Ca6 O33 2.400071 1_545
Ca6 O40 2.400071 1_555
Ca6 O24 2.530452 1_555
Ca6 O41 2.530452 1_555
Ca6 O43 2.530460 1_545
Ca6 O38 2.530460 1_555
Ca7 O44 2.400071 1_554
Ca7 O34 2.400071 1_555
Ca7 O45 2.400071 1_555
Ca7 O31 2.400071 1_555
Ca7 O27 2.530452 1_555
Ca7 O46 2.530452 1_555
Ca7 O37 2.530458 1_554
Ca7 O39 2.530458 1_555
Ca8 O28 2.400071 1_545
Ca8 O24 2.400071 1_555
Ca8 O32 2.400071 1_555
Ca8 O27 2.400071 1_555
Ca8 O29 2.530452 1_555
Ca8 O45 2.530452 1_555
Ca8 O36 2.530458 1_545
Ca8 O42 2.530458 1_555
Ca9 O19 2.400061 1_555
Ca9 O37 2.400061 1_555
Ca9 O38 2.400071 1_455
Ca9 O30 2.400071 1_555
Ca9 O35 2.530452 1_555
Ca9 O44 2.530452 1_555
Ca9 O40 2.530460 1_455
Ca9 O25 2.530460 1_555
Ca10 O39 2.400061 1_555
Ca10 O36 2.400061 1_555
Ca10 O25 2.400071 1_554
Ca10 O43 2.400071 1_555
Ca10 O34 2.530452 1_555
Ca10 O28 2.530452 1_555
Ca10 O30 2.530460 1_554
Ca10 O33 2.530460 1_555
Ca11 O41 2.400071 1_455
Ca11 O46 2.400071 1_555
Ca11 O35 2.400071 1_555
Ca11 O29 2.400071 1_555
Ca11 O32 2.530452 1_555
Ca11 O31 2.530452 1_555
Ca11 O26 2.530458 1_455
Ca11 O19 2.530458 1_555
Cu0 O29 2.039340 1_555
Cu0 O27 2.039340 1_555
Cu0 O31 2.039340 1_555
Cu0 O5 2.039340 1_555
Cu0 O7 2.039340 1_555
Cu0 O3 2.039340 1_555
Cu1 O4 2.039340 1_555
Cu1 O28 2.039340 1_545
Cu1 O42 2.039342 1_555
Cu1 O13 2.039342 1_545
Cu1 O43 2.039345 1_545
Cu1 O12 2.039345 1_555
Cu2 O14 2.039340 1_555
Cu2 O41 2.039340 1_455
Cu2 O19 2.039342 1_555
Cu2 O8 2.039342 1_455
Cu2 O40 2.039345 1_455
Cu2 O15 2.039345 1_555
Cu3 O11 2.039340 1_555
Cu3 O44 2.039340 1_554
Cu3 O39 2.039342 1_555
Cu3 O16 2.039342 1_554
Cu3 O30 2.039345 1_554
Cu3 O6 2.039345 1_555
Cu4 O35 2.039340 1_555
Cu4 O47 2.039340 1_445
Cu4 O2 2.039342 1_545
Cu4 O26 2.039342 1_455
Cu4 O38 2.039345 1_455
Cu4 O17 2.039345 1_545
Cu5 O34 2.039340 1_555
Cu5 O21 2.039340 1_454
Cu5 O18 2.039342 1_455
Cu5 O37 2.039342 1_554
Cu5 O25 2.039345 1_554
Cu5 O1 2.039345 1_455
Cu6 O24 2.039340 1_555
Cu6 O0 2.039340 1_544
Cu6 O20 2.039342 1_554
Cu6 O36 2.039342 1_545
Cu6 O33 2.039345 1_545
Cu6 O22 2.039345 1_554
Cu7 O23 2.039340 1_444
Cu7 O10 2.039340 1_444
Cu7 O9 2.039340 1_444
Cu7 O46 2.039340 1_555
Cu7 O32 2.039340 1_555
Cu7 O45 2.039340 1_555
Ge0 O25 1.789400 1_555
Ge0 O36 1.789408 1_556
Ge0 O9 1.789410 1_455
Ge0 O14 1.789410 1_555
Ge1 O1 1.789400 1_555
Ge1 O20 1.789408 1_554
Ge1 O41 1.789410 1_555
Ge1 O46 1.789410 1_655
Ge2 O6 1.789400 1_555
Ge2 O8 1.789408 1_555
Ge2 O27 1.789410 1_555
Ge2 O24 1.789410 1_555
Ge3 O33 1.789400 1_555
Ge3 O26 1.789408 1_565
Ge3 O10 1.789410 1_554
Ge3 O11 1.789410 1_555
Ge4 O38 1.789400 1_555
Ge4 O37 1.789408 1_655
Ge4 O23 1.789410 1_545
Ge4 O4 1.789410 1_555
Ge5 O15 1.789400 1_555
Ge5 O13 1.789408 1_555
Ge5 O31 1.789410 1_555
Ge5 O34 1.789410 1_555
Ge6 O40 1.789400 1_555
Ge6 O42 1.789408 1_555
Ge6 O21 1.789410 1_555
Ge6 O7 1.789410 1_555
Ge7 O22 1.789400 1_555
Ge7 O2 1.789408 1_545
Ge7 O44 1.789410 1_555
Ge7 O45 1.789410 1_556
Ge8 O17 1.789400 1_555
Ge8 O18 1.789408 1_455
Ge8 O28 1.789410 1_555
Ge8 O32 1.789410 1_565
Ge9 O30 1.789400 1_555
Ge9 O19 1.789408 1_555
Ge9 O0 1.789410 1_555
Ge9 O3 1.789410 1_555
Ge10 O43 1.789400 1_555
Ge10 O39 1.789408 1_555
Ge10 O47 1.789410 1_555
Ge10 O5 1.789410 1_555
Ge11 O12 1.789400 1_555
Ge11 O16 1.789408 1_555
Ge11 O29 1.789410 1_555
Ge11 O35 1.789410 1_555
