# generated using pymatgen
data_MgAl4Tl4O12
_symmetry_space_group_name_H-M   'P 1'
_cell_length_a   5.74898868
_cell_length_b   5.92388915
_cell_length_c   8.44897557
_cell_angle_alpha   85.36383228
_cell_angle_beta   81.97143297
_cell_angle_gamma   84.31586802
_symmetry_Int_Tables_number   1
_chemical_formula_structural   MgAl4Tl4O12
_chemical_formula_sum   'Mg1 Al4 Tl4 O12'
_cell_volume   282.86411224
_cell_formula_units_Z   1
loop_
 _symmetry_equiv_pos_site_id
 _symmetry_equiv_pos_as_xyz
  1  'x, y, z'
loop_
 _atom_site_type_symbol
 _atom_site_label
 _atom_site_symmetry_multiplicity
 _atom_site_fract_x
 _atom_site_fract_y
 _atom_site_fract_z
 _atom_site_occupancy
  Mg  Mg0  1  0.30901000  0.25798000  0.17229300  1
  Al  Al0  1  0.82862700  0.42155700  0.94208500  1
  Al  Al1  1  0.95008200  0.52934800  0.51617300  1
  Al  Al2  1  0.59488300  0.93149700  0.91375700  1
  Al  Al3  1  0.62492900  0.08211100  0.49586100  1
  Tl  Tl0  1  0.09889800  0.98201600  0.71094400  1
  Tl  Tl1  1  0.39723900  0.46431800  0.78308900  1
  Tl  Tl2  1  0.48059900  0.65949400  0.36131200  1
  Tl  Tl3  1  0.00046700  0.88018900  0.16747200  1
  O  O0  1  0.18042900  0.50725600  0.31186200  1
  O  O1  1  0.35252700  0.20694100  0.61364900  1
  O  O2  1  0.11829200  0.32746100  0.97987200  1
  O  O3  1  0.32171500  0.82221400  0.89418400  1
  O  O4  1  0.19804400  0.65988200  0.59228700  1
  O  O5  1  0.45242100  0.03799900  0.32921600  1
  O  O6  1  0.73150000  0.99968000  0.71573200  1
  O  O7  1  0.60857300  0.20838500  0.99997400  1
  O  O8  1  0.77820000  0.32989200  0.43611800  1
  O  O9  1  0.72613400  0.69101800  0.02498400  1
  O  O10  1  0.77744600  0.79074900  0.45628700  1
  O  O11  1  0.80748700  0.47251300  0.73284900  1
loop_
_geom_bond_atom_site_label_1
_geom_bond_atom_site_label_2
_geom_bond_distance
_geom_bond_site_symmetry_2
Mg0 O0 1.984780 1_555
Mg0 O5 1.987207 1_555
Mg0 O2 2.077266 1_554
Mg0 O7 2.107241 1_554
Al0 O2 1.766823 1_655
Al0 O11 1.788182 1_555
Al0 O9 1.806916 1_556
Al0 O7 1.864973 1_555
Al1 O10 1.829780 1_555
Al1 O8 1.837708 1_555
Al1 O4 1.896961 1_655
Al1 O11 1.916413 1_555
Al1 O0 2.028367 1_655
Al2 O6 1.779279 1_555
Al2 O3 1.789964 1_555
Al2 O9 1.802951 1_556
Al2 O7 1.860645 1_565
Al3 O8 1.788275 1_555
Al3 O1 1.855782 1_555
Al3 O5 1.880191 1_555
Al3 O10 1.889784 1_545
Al3 O6 2.043730 1_545
O0 Tl2 2.129886 1_555
O0 Tl3 2.627434 1_555
O1 Tl0 2.109545 1_545
O1 Tl1 2.230121 1_555
O2 Tl1 2.299600 1_555
O3 Tl0 2.238475 1_555
O3 Tl1 2.364329 1_555
O3 Tl3 2.769778 1_556
O4 Tl0 2.214881 1_555
O4 Tl1 2.281077 1_555
O4 Tl2 2.358294 1_555
O5 Tl2 2.229207 1_545
O6 Tl0 2.099255 1_655
O7 Tl1 2.634488 1_555
O8 Tl2 2.565122 1_555
O9 Tl3 2.508195 1_655
O10 Tl2 2.215197 1_555
O10 Tl3 2.632635 1_655
O11 Tl1 2.341967 1_555
