# generated using pymatgen
data_HoCdAu
_symmetry_space_group_name_H-M   'P 1'
_cell_length_a   7.66524177
_cell_length_b   7.66524177
_cell_length_c   3.93632110
_cell_angle_alpha   90.00000000
_cell_angle_beta   90.00000000
_cell_angle_gamma   119.99999974
_symmetry_Int_Tables_number   1
_chemical_formula_structural   HoCdAu
_chemical_formula_sum   'Ho3 Cd3 Au3'
_cell_volume   200.29627197
_cell_formula_units_Z   3
loop_
 _symmetry_equiv_pos_site_id
 _symmetry_equiv_pos_as_xyz
  1  'x, y, z'
loop_
 _atom_site_type_symbol
 _atom_site_label
 _atom_site_symmetry_multiplicity
 _atom_site_fract_x
 _atom_site_fract_y
 _atom_site_fract_z
 _atom_site_occupancy
  Ho  Ho0  1  0.59426132  -0.00000000  0.00000000  1
  Ho  Ho1  1  -0.00000000  0.59426132  -0.00000000  1
  Ho  Ho2  1  0.40573868  0.40573868  0.00000000  1
  Cd  Cd0  1  0.25961580  0.00000000  0.50000000  1
  Cd  Cd1  1  0.00000000  0.25961580  0.50000000  1
  Cd  Cd2  1  0.74038420  0.74038420  0.50000000  1
  Au  Au0  1  0.33333300  0.66666700  0.50000000  1
  Au  Au1  1  0.66666700  0.33333300  0.50000000  1
  Au  Au2  1  0.00000000  0.00000000  0.00000000  1
loop_
_geom_bond_atom_site_label_1
_geom_bond_atom_site_label_2
_geom_bond_distance
_geom_bond_site_symmetry_2
Cd0 Ho0 3.233202 1_556
Cd0 Ho0 3.233202 1_555
Cd0 Ho2 3.364124 1_556
Cd0 Ho2 3.364124 1_555
Cd0 Ho1 3.364124 1_545
Cd0 Ho1 3.364124 1_546
Cd0 Cd1 3.446812 1_555
Cd0 Cd2 3.446812 1_445
Cd1 Ho1 3.233202 1_556
Cd1 Ho1 3.233202 1_555
Cd1 Ho2 3.364124 1_556
Cd1 Ho2 3.364124 1_555
Cd1 Ho0 3.364124 1_456
Cd1 Ho0 3.364124 1_455
Cd1 Cd2 3.446812 1_445
Cd2 Ho2 3.233202 1_556
Cd2 Ho2 3.233202 1_555
Cd2 Ho0 3.364124 1_566
Cd2 Ho1 3.364124 1_655
Cd2 Ho1 3.364124 1_656
Cd2 Ho0 3.364124 1_565
Au0 Cd0 2.879495 1_565
Au0 Cd1 2.879500 1_555
Au0 Cd2 2.879502 1_555
Au0 Ho1 3.048283 1_555
Au0 Ho1 3.048283 1_556
Au0 Ho0 3.048284 1_566
Au0 Ho0 3.048284 1_565
Au0 Ho2 3.048288 1_556
Au0 Ho2 3.048288 1_555
Au1 Cd1 2.879495 1_655
Au1 Cd0 2.879500 1_555
Au1 Cd2 2.879502 1_555
Au1 Ho0 3.048283 1_556
Au1 Ho0 3.048283 1_555
Au1 Ho1 3.048284 1_655
Au1 Ho1 3.048284 1_656
Au1 Ho2 3.048288 1_556
Au1 Ho2 3.048288 1_555
Au2 Cd1 2.798897 1_555
Au2 Cd0 2.798897 1_555
Au2 Cd0 2.798897 1_554
Au2 Cd1 2.798897 1_554
Au2 Cd2 2.798897 1_444
Au2 Cd2 2.798897 1_445
Au2 Ho1 3.110085 1_545
Au2 Ho0 3.110085 1_455
Au2 Ho2 3.110085 1_555
