# generated using pymatgen
data_Fe5SiAs
_symmetry_space_group_name_H-M   'P 1'
_cell_length_a   6.84037050
_cell_length_b   6.84037050
_cell_length_c   12.46564508
_cell_angle_alpha   89.77697916
_cell_angle_beta   89.77697916
_cell_angle_gamma   120.02963732
_symmetry_Int_Tables_number   1
_chemical_formula_structural   Fe5SiAs
_chemical_formula_sum   'Fe30 Si6 As6'
_cell_volume   504.96547932
_cell_formula_units_Z   6
loop_
 _symmetry_equiv_pos_site_id
 _symmetry_equiv_pos_as_xyz
  1  'x, y, z'
loop_
 _atom_site_type_symbol
 _atom_site_label
 _atom_site_symmetry_multiplicity
 _atom_site_fract_x
 _atom_site_fract_y
 _atom_site_fract_z
 _atom_site_occupancy
  Fe  Fe0  1  0.99993900  0.99993900  0.44817600  1
  Fe  Fe1  1  0.99721400  0.99721400  0.95215800  1
  Fe  Fe2  1  0.62834200  0.62834200  0.71610800  1
  Fe  Fe3  1  0.99886000  0.36911300  0.71521800  1
  Fe  Fe4  1  0.36911300  0.99886000  0.71521800  1
  Fe  Fe5  1  0.37161000  0.37161000  0.21050100  1
  Fe  Fe6  1  0.00147900  0.63500300  0.20902500  1
  Fe  Fe7  1  0.63500300  0.00147900  0.20902500  1
  Fe  Fe8  1  0.31506600  0.31506600  0.82443600  1
  Fe  Fe9  1  0.99624600  0.68122900  0.82648700  1
  Fe  Fe10  1  0.68122900  0.99624600  0.82648700  1
  Fe  Fe11  1  0.68489600  0.68489600  0.32224200  1
  Fe  Fe12  1  0.00031200  0.31696800  0.32198000  1
  Fe  Fe13  1  0.31696800  0.00031200  0.32198000  1
  Fe  Fe14  1  0.27942700  0.27942700  0.61856600  1
  Fe  Fe15  1  0.99908200  0.72136700  0.61917600  1
  Fe  Fe16  1  0.72136700  0.99908200  0.61917600  1
  Fe  Fe17  1  0.72671600  0.72671600  0.11640900  1
  Fe  Fe18  1  0.99539600  0.28981700  0.11577800  1
  Fe  Fe19  1  0.28981700  0.99539600  0.11577800  1
  Fe  Fe20  1  0.66758100  0.33335200  0.59936600  1
  Fe  Fe21  1  0.33335200  0.66758100  0.59936600  1
  Fe  Fe22  1  0.33659700  0.66871800  0.08864000  1
  Fe  Fe23  1  0.66871800  0.33659700  0.08864000  1
  Fe  Fe24  1  0.64446800  0.64446800  0.91736600  1
  Fe  Fe25  1  0.98774400  0.35574500  0.91576800  1
  Fe  Fe26  1  0.35574500  0.98774400  0.91576800  1
  Fe  Fe27  1  0.36190900  0.36190900  0.40854700  1
  Fe  Fe28  1  0.99917000  0.63768100  0.40851200  1
  Fe  Fe29  1  0.63768100  0.99917000  0.40851200  1
  Si  Si0  1  0.00143000  0.66709900  0.01539200  1
  Si  Si1  1  0.66709900  0.00143000  0.01539200  1
  Si  Si2  1  0.66470000  0.33060500  0.79665500  1
  Si  Si3  1  0.33060500  0.66470000  0.79665500  1
  Si  Si4  1  0.33360400  0.66787400  0.28727600  1
  Si  Si5  1  0.66787400  0.33360400  0.28727600  1
  As  As0  1  0.99967700  0.99967700  0.75326200  1
  As  As1  1  0.00269900  0.00269900  0.24856400  1
  As  As2  1  0.66501700  0.66501700  0.51592100  1
  As  As3  1  0.00048300  0.33481100  0.51532800  1
  As  As4  1  0.33481100  0.00048300  0.51532800  1
  As  As5  1  0.33095600  0.33095600  0.01454400  1
loop_
_geom_bond_atom_site_label_1
_geom_bond_atom_site_label_2
_geom_bond_distance
_geom_bond_site_symmetry_2
Fe0 Fe27 2.519945 1_665
Fe1 Si1 2.402651 1_566
Fe1 Si0 2.402651 1_656
Fe1 Fe26 2.524922 1_655
Fe1 Fe25 2.524922 1_565
Fe1 Fe17 2.748421 1_556
Fe1 Fe19 2.867541 1_656
Fe1 Fe18 2.867541 1_566
Fe2 Si2 2.389743 1_555
Fe2 Si3 2.389743 1_555
Fe2 Fe24 2.512090 1_555
Fe2 Fe8 2.523188 1_555
Fe2 Fe20 2.612170 1_555
Fe2 Fe21 2.612170 1_555
Fe2 Fe9 2.734405 1_555
Fe3 Si2 2.387875 1_555
Fe3 Si3 2.389520 1_655
Fe3 Fe9 2.558016 1_555
Fe3 Fe8 2.736437 1_655
Fe4 Si3 2.387875 1_555
Fe4 Si2 2.389520 1_565
Fe4 Fe8 2.736437 1_565
Fe4 Fe9 2.748142 1_455
Fe5 Si5 2.372962 1_555
Fe5 Si4 2.372962 1_555
Fe6 Si5 2.380662 1_455
Fe6 Si4 2.381401 1_555
Fe6 Si0 2.422890 1_555
Fe7 Si4 2.380662 1_545
Fe7 Si5 2.381401 1_555
Fe7 Si1 2.422890 1_555
Fe8 Si3 2.364303 1_555
Fe8 Si2 2.364303 1_555
Fe9 Si0 2.357562 1_656
Fe9 Si2 2.367125 1_555
Fe9 Si3 2.373734 1_655
Fe10 Si1 2.357562 1_566
Fe10 Si3 2.367125 1_555
Fe10 Si2 2.373734 1_565
Fe10 Fe26 2.459600 1_555
Fe10 Fe4 2.558016 1_555
Fe10 Fe25 2.561407 1_565
Fe10 Fe2 2.734405 1_555
Fe10 Fe3 2.748142 1_565
Fe11 Si4 2.388786 1_555
Fe11 Si5 2.388786 1_555
Fe11 Fe27 2.448938 1_555
Fe11 Fe17 2.579510 1_555
Fe11 Fe6 2.741821 1_655
Fe11 Fe7 2.741821 1_565
Fe12 Si5 2.374332 1_455
Fe12 Si4 2.377681 1_555
Fe12 Fe27 2.576682 1_555
Fe12 Fe18 2.577000 1_455
Fe12 Fe6 2.583423 1_555
Fe12 Fe7 2.745477 1_455
Fe13 Si4 2.374332 1_545
Fe13 Si5 2.377681 1_555
Fe13 Fe27 2.576682 1_555
Fe13 Fe19 2.577000 1_545
Fe13 Fe7 2.583423 1_555
Fe13 Fe6 2.745477 1_545
Fe14 Fe20 2.501419 1_555
Fe14 Fe21 2.501419 1_555
Fe14 Fe4 2.584074 1_545
Fe14 Fe3 2.584074 1_455
Fe14 Fe27 2.673778 1_555
Fe14 Fe2 2.686062 1_555
Fe15 Fe20 2.496608 1_555
Fe15 Fe21 2.502575 1_655
Fe15 Fe2 2.578998 1_555
Fe15 Fe4 2.583703 1_655
Fe15 Fe3 2.685729 1_555
Fe16 Fe21 2.496608 1_555
Fe16 Fe20 2.502575 1_565
Fe16 Fe2 2.578998 1_555
Fe16 Fe3 2.583703 1_565
Fe16 Fe4 2.685729 1_555
Fe17 Si1 2.456779 1_565
Fe17 Si0 2.456779 1_655
Fe17 Fe22 2.519334 1_555
Fe17 Fe23 2.519334 1_555
Fe17 Fe7 2.539751 1_565
Fe17 Fe6 2.539751 1_655
Fe17 Fe24 2.548397 1_554
Fe17 Fe5 2.688198 1_555
Fe18 Fe23 2.435366 1_555
Fe18 Si1 2.471351 1_555
Fe18 Fe22 2.492332 1_655
Fe18 Fe7 2.532155 1_555
Fe18 Fe25 2.537384 1_554
Fe18 Fe6 2.617545 1_655
Fe18 Fe5 2.630128 1_655
Fe18 Si0 2.845303 1_655
Fe19 Fe22 2.435366 1_555
Fe19 Si0 2.471351 1_555
Fe19 Fe23 2.492332 1_565
Fe19 Fe6 2.532155 1_555
Fe19 Fe26 2.537384 1_554
Fe19 Fe7 2.617545 1_565
Fe19 Fe5 2.630128 1_565
Fe19 Si1 2.845303 1_565
Fe20 Si2 2.459260 1_555
Fe20 Fe3 2.598836 1_555
Fe20 Fe4 2.600931 1_545
Fe21 Si3 2.459260 1_555
Fe21 Fe4 2.598836 1_555
Fe21 Fe3 2.600931 1_455
Fe22 Si1 2.437681 1_565
Fe22 Si0 2.465994 1_555
Fe22 Si4 2.476091 1_555
Fe22 Fe5 2.638426 1_555
Fe22 Fe7 2.645703 1_565
Fe22 Fe6 2.646014 1_555
Fe23 Si0 2.437681 1_655
Fe23 Si1 2.465994 1_555
Fe23 Si5 2.476091 1_555
Fe23 Fe5 2.638426 1_555
Fe23 Fe6 2.645703 1_655
Fe23 Fe7 2.646014 1_555
Fe24 Si0 2.669394 1_656
Fe24 Si1 2.669394 1_566
Fe24 Si3 2.685826 1_555
Fe24 Si2 2.685826 1_555
Fe25 Si0 2.430824 1_656
Fe25 Fe9 2.459600 1_555
Fe25 Fe3 2.500770 1_555
Fe25 Si2 2.600847 1_555
Fe25 Si1 2.619497 1_556
Fe25 Fe8 2.644424 1_655
Fe25 Si3 2.675626 1_655
Fe26 Si1 2.430824 1_566
Fe26 Fe4 2.500770 1_555
Fe26 Fe9 2.561407 1_455
Fe26 Si3 2.600847 1_555
Fe26 Si0 2.619497 1_556
Fe26 Fe8 2.644424 1_565
Fe26 Si2 2.675626 1_565
Fe27 Fe5 2.469146 1_555
Fe27 Si4 2.662013 1_555
Fe27 Si5 2.662013 1_555
Fe28 Fe6 2.486920 1_655
Fe28 Si4 2.656643 1_655
Fe28 Si5 2.660682 1_555
Fe29 Fe7 2.486920 1_565
Fe29 Si5 2.656643 1_565
Fe29 Si4 2.660682 1_555
As0 Fe8 2.338180 1_665
As0 Fe9 2.347751 1_555
As0 Fe10 2.347751 1_555
As0 Fe1 2.479293 1_555
As0 Fe14 2.535314 1_665
As0 Fe16 2.536756 1_555
As0 Fe15 2.536756 1_555
As0 Fe3 2.572138 1_565
As0 Fe4 2.572138 1_655
As0 Fe2 2.584375 1_555
As1 Fe12 2.347217 1_555
As1 Fe13 2.347217 1_555
As1 Fe11 2.352449 1_445
As1 Fe0 2.488217 1_445
As1 Fe17 2.514564 1_445
As1 Fe7 2.560818 1_455
As1 Fe6 2.560818 1_545
As1 Fe5 2.562962 1_555
As1 Fe19 2.583253 1_545
As1 Fe18 2.583253 1_455
As2 Fe11 2.417099 1_555
As2 Fe0 2.434537 1_555
As2 Fe27 2.475837 1_555
As2 Fe15 2.484406 1_555
As2 Fe16 2.484406 1_555
As2 Fe20 2.500193 1_555
As2 Fe21 2.500193 1_555
As2 Fe2 2.506083 1_555
As2 Fe29 2.730962 1_555
As2 Fe28 2.730962 1_555
As2 Fe14 2.921516 1_555
As3 Fe12 2.413746 1_555
As3 Fe0 2.440129 1_445
As3 Fe28 2.462197 1_455
As3 Fe16 2.482760 1_445
As3 Fe14 2.485824 1_555
As3 Fe20 2.498331 1_455
As3 Fe3 2.504192 1_455
As3 Fe21 2.512544 1_555
As3 Fe27 2.726199 1_555
As3 Fe29 2.747666 1_445
As3 Fe15 2.952887 1_455
As4 Fe13 2.413746 1_555
As4 Fe0 2.440129 1_445
As4 Fe29 2.462197 1_545
As4 Fe15 2.482760 1_445
As4 Fe14 2.485824 1_555
As4 Fe21 2.498331 1_545
As4 Fe4 2.504192 1_545
As4 Fe20 2.512544 1_555
As4 Fe27 2.726199 1_555
As4 Fe28 2.747666 1_445
As4 Fe16 2.952887 1_545
As5 Fe8 2.373153 1_554
As5 Fe1 2.416502 1_444
As5 Fe24 2.453963 1_554
As5 Fe5 2.460645 1_555
As5 Fe22 2.473927 1_555
As5 Fe23 2.473927 1_555
As5 Fe19 2.503704 1_545
As5 Fe18 2.503704 1_455
As5 Fe25 2.734205 1_454
As5 Fe26 2.734205 1_544
As5 Fe17 2.998002 1_555
