# generated using pymatgen
data_YThFe14B
_symmetry_space_group_name_H-M   'P 1'
_cell_length_a   8.76467300
_cell_length_b   8.76467300
_cell_length_c   11.97602600
_cell_angle_alpha   90.00000000
_cell_angle_beta   90.00000000
_cell_angle_gamma   90.00000000
_symmetry_Int_Tables_number   1
_chemical_formula_structural   YThFe14B
_chemical_formula_sum   'Y4 Th4 Fe56 B4'
_cell_volume   919.99224304
_cell_formula_units_Z   4
loop_
 _symmetry_equiv_pos_site_id
 _symmetry_equiv_pos_as_xyz
  1  'x, y, z'
loop_
 _atom_site_type_symbol
 _atom_site_label
 _atom_site_symmetry_multiplicity
 _atom_site_fract_x
 _atom_site_fract_y
 _atom_site_fract_z
 _atom_site_occupancy
  Y  Y0  1  0.22936900  0.77063100  0.50000000  1
  Y  Y1  1  0.77063100  0.22936900  0.50000000  1
  Y  Y2  1  0.27063100  0.27063100  0.00000000  1
  Y  Y3  1  0.72936900  0.72936900  0.00000000  1
  Th  Th0  1  0.64377900  0.64377900  0.50000000  1
  Th  Th1  1  0.35622100  0.35622100  0.50000000  1
  Th  Th2  1  0.85622100  0.14377900  0.00000000  1
  Th  Th3  1  0.14377900  0.85622100  0.00000000  1
  Fe  Fe0  1  0.93424000  0.72454700  0.37293000  1
  Fe  Fe1  1  0.06576000  0.27545300  0.37293000  1
  Fe  Fe2  1  0.56576000  0.22454700  0.87293000  1
  Fe  Fe3  1  0.43424000  0.77545300  0.87293000  1
  Fe  Fe4  1  0.06576000  0.27545300  0.62707000  1
  Fe  Fe5  1  0.93424000  0.72454700  0.62707000  1
  Fe  Fe6  1  0.43424000  0.77545300  0.12707000  1
  Fe  Fe7  1  0.56576000  0.22454700  0.12707000  1
  Fe  Fe8  1  0.72454700  0.93424000  0.37293000  1
  Fe  Fe9  1  0.27545300  0.06576000  0.37293000  1
  Fe  Fe10  1  0.22454700  0.56576000  0.87293000  1
  Fe  Fe11  1  0.77545300  0.43424000  0.87293000  1
  Fe  Fe12  1  0.27545300  0.06576000  0.62707000  1
  Fe  Fe13  1  0.72454700  0.93424000  0.62707000  1
  Fe  Fe14  1  0.77545300  0.43424000  0.12707000  1
  Fe  Fe15  1  0.22454700  0.56576000  0.12707000  1
  Fe  Fe16  1  0.14049300  0.53763900  0.32492400  1
  Fe  Fe17  1  0.85950700  0.46236100  0.32492400  1
  Fe  Fe18  1  0.35950700  0.03763900  0.82492400  1
  Fe  Fe19  1  0.64049300  0.96236100  0.82492400  1
  Fe  Fe20  1  0.85950700  0.46236100  0.67507600  1
  Fe  Fe21  1  0.14049300  0.53763900  0.67507600  1
  Fe  Fe22  1  0.64049300  0.96236100  0.17507600  1
  Fe  Fe23  1  0.35950700  0.03763900  0.17507600  1
  Fe  Fe24  1  0.53763900  0.14049300  0.32492400  1
  Fe  Fe25  1  0.46236100  0.85950700  0.32492400  1
  Fe  Fe26  1  0.03763900  0.35950700  0.82492400  1
  Fe  Fe27  1  0.96236100  0.64049300  0.82492400  1
  Fe  Fe28  1  0.46236100  0.85950700  0.67507600  1
  Fe  Fe29  1  0.53763900  0.14049300  0.67507600  1
  Fe  Fe30  1  0.96236100  0.64049300  0.17507600  1
  Fe  Fe31  1  0.03763900  0.35950700  0.17507600  1
  Fe  Fe32  1  0.18284500  0.81715500  0.25522600  1
  Fe  Fe33  1  0.81715500  0.18284500  0.25522600  1
  Fe  Fe34  1  0.31715500  0.31715500  0.75522600  1
  Fe  Fe35  1  0.68284500  0.68284500  0.75522600  1
  Fe  Fe36  1  0.81715500  0.18284500  0.74477400  1
  Fe  Fe37  1  0.18284500  0.81715500  0.74477400  1
  Fe  Fe38  1  0.68284500  0.68284500  0.24477400  1
  Fe  Fe39  1  0.31715500  0.31715500  0.24477400  1
  Fe  Fe40  1  0.40212100  0.59787900  0.29771100  1
  Fe  Fe41  1  0.59787900  0.40212100  0.29771100  1
  Fe  Fe42  1  0.09787900  0.09787900  0.79771100  1
  Fe  Fe43  1  0.90212100  0.90212100  0.79771100  1
  Fe  Fe44  1  0.59787900  0.40212100  0.70228900  1
  Fe  Fe45  1  0.40212100  0.59787900  0.70228900  1
  Fe  Fe46  1  0.90212100  0.90212100  0.20228900  1
  Fe  Fe47  1  0.09787900  0.09787900  0.20228900  1
  Fe  Fe48  1  0.50000000  0.50000000  0.11477200  1
  Fe  Fe49  1  0.00000000  0.00000000  0.61477200  1
  Fe  Fe50  1  0.50000000  0.50000000  0.88522800  1
  Fe  Fe51  1  0.00000000  0.00000000  0.38522800  1
  Fe  Fe52  1  0.00000000  0.50000000  0.50000000  1
  Fe  Fe53  1  0.50000000  0.00000000  0.00000000  1
  Fe  Fe54  1  0.50000000  0.00000000  0.50000000  1
  Fe  Fe55  1  0.00000000  0.50000000  0.00000000  1
  B  B0  1  0.87679000  0.87679000  0.50000000  1
  B  B1  1  0.12321000  0.12321000  0.50000000  1
  B  B2  1  0.62321000  0.37679000  0.00000000  1
  B  B3  1  0.37679000  0.62321000  0.00000000  1
loop_
_geom_bond_atom_site_label_1
_geom_bond_atom_site_label_2
_geom_bond_distance
_geom_bond_site_symmetry_2
Th0 Th1 3.564316 1_555
Th0 Y1 3.798524 1_555
Th0 Y0 3.798524 1_555
Th1 Y1 3.798524 1_555
Th1 Y0 3.798524 1_555
Th2 Th3 3.564316 1_645
Th2 Y3 3.798524 1_545
Th2 Y2 3.798524 1_655
Th3 Y3 3.798524 1_455
Th3 Y2 3.798524 1_565
Fe0 Fe17 2.457694 1_555
Fe0 Fe30 2.493599 1_555
Fe0 Fe16 2.506415 1_655
Fe0 Fe52 2.553702 1_655
Fe0 Fe46 2.584157 1_555
Fe0 Fe38 2.710010 1_555
Fe0 Fe32 2.719128 1_655
Fe0 Y0 3.028211 1_655
Fe0 Th0 3.049272 1_555
Fe1 Fe16 2.457694 1_555
Fe1 Fe31 2.493599 1_555
Fe1 Fe17 2.506415 1_455
Fe1 Fe52 2.553702 1_555
Fe1 Fe47 2.584157 1_555
Fe1 Fe39 2.710010 1_555
Fe1 Fe33 2.719128 1_455
Fe1 Y1 3.028211 1_455
Fe1 Th1 3.049272 1_555
Fe2 Fe29 2.493599 1_555
Fe2 Fe53 2.553702 1_556
Fe2 Fe44 2.584157 1_555
Fe2 Fe36 2.710010 1_555
Fe2 Fe34 2.719128 1_555
Fe2 Y2 3.028211 1_556
Fe2 Th2 3.049272 1_556
Fe3 Fe53 2.553702 1_566
Fe3 Fe45 2.584157 1_555
Fe3 Fe37 2.710010 1_555
Fe3 Fe35 2.719128 1_555
Fe3 Y3 3.028211 1_556
Fe3 Th3 3.049272 1_556
Fe4 Fe52 2.553702 1_555
Fe4 Fe42 2.584157 1_555
Fe4 Y1 3.028211 1_455
Fe4 Th1 3.049272 1_555
Fe5 Fe52 2.553702 1_655
Fe5 Y0 3.028211 1_655
Fe5 Th0 3.049272 1_555
Fe6 Y3 3.028211 1_555
Fe6 Th3 3.049272 1_555
Fe7 Y2 3.028211 1_555
Fe7 Th2 3.049272 1_555
Fe8 Y1 3.028211 1_565
Fe8 Th0 3.049272 1_555
Fe9 Y0 3.028211 1_545
Fe9 Th1 3.049272 1_555
Fe10 Fe27 2.457694 1_455
Fe10 Fe21 2.493599 1_555
Fe10 Fe26 2.506415 1_555
Fe10 Fe55 2.553702 1_556
Fe10 Fe45 2.584157 1_555
Fe10 Fe37 2.710010 1_555
Fe10 Fe34 2.719128 1_555
Fe10 Y2 3.028211 1_556
Fe10 Th3 3.049272 1_556
Fe11 Fe26 2.457694 1_655
Fe11 Fe20 2.493599 1_555
Fe11 Fe27 2.506415 1_555
Fe11 Fe55 2.553702 1_656
Fe11 Fe44 2.584157 1_555
Fe11 Fe36 2.710010 1_555
Fe11 Fe35 2.719128 1_555
Fe11 Y3 3.028211 1_556
Fe11 Th2 3.049272 1_556
Fe12 Fe29 2.457694 1_555
Fe12 Fe18 2.493599 1_555
Fe12 Fe28 2.506415 1_545
Fe12 Fe54 2.553702 1_555
Fe12 Fe42 2.584157 1_555
Fe12 Fe34 2.710010 1_555
Fe12 Fe37 2.719128 1_545
Fe12 Y0 3.028211 1_545
Fe12 Th1 3.049272 1_555
Fe13 Fe28 2.457694 1_555
Fe13 Fe19 2.493599 1_555
Fe13 Fe29 2.506415 1_565
Fe13 Fe54 2.553702 1_565
Fe13 Fe43 2.584157 1_555
Fe13 Fe35 2.710010 1_555
Fe13 Fe36 2.719128 1_565
Fe13 Y1 3.028211 1_565
Fe13 Th0 3.049272 1_555
Fe14 Fe31 2.457694 1_655
Fe14 Fe17 2.493599 1_555
Fe14 Fe30 2.506415 1_555
Fe14 Fe55 2.553702 1_655
Fe14 Fe41 2.584157 1_555
Fe14 Fe33 2.710010 1_555
Fe14 Fe38 2.719128 1_555
Fe14 Y3 3.028211 1_555
Fe14 Th2 3.049272 1_555
Fe15 Fe30 2.457694 1_455
Fe15 Fe16 2.493599 1_555
Fe15 Fe31 2.506415 1_555
Fe15 Fe55 2.553702 1_555
Fe15 Fe40 2.584157 1_555
Fe15 Fe32 2.710010 1_555
Fe15 Fe39 2.719128 1_555
Fe15 Y2 3.028211 1_555
Fe15 Th3 3.049272 1_555
Fe16 Fe40 2.375545 1_555
Fe16 Fe52 2.453839 1_555
Fe16 Fe30 2.543769 1_455
Fe16 Fe31 2.543769 1_555
Fe16 Fe17 2.549600 1_455
Fe16 Fe32 2.614645 1_555
Fe16 Fe39 2.655805 1_555
Fe16 Y0 3.028725 1_555
Fe16 Th1 3.240309 1_555
Fe17 Fe41 2.375545 1_555
Fe17 Fe52 2.453839 1_655
Fe17 Fe31 2.543769 1_655
Fe17 Fe30 2.543769 1_555
Fe17 Fe33 2.614645 1_555
Fe17 Fe38 2.655805 1_555
Fe17 Y1 3.028725 1_555
Fe17 Th0 3.240309 1_555
Fe18 Fe42 2.375545 1_555
Fe18 Fe53 2.453839 1_556
Fe18 Fe3 2.457694 1_545
Fe18 Fe2 2.506415 1_555
Fe18 Fe29 2.543769 1_555
Fe18 Fe28 2.543769 1_545
Fe18 Fe19 2.549600 1_545
Fe18 Fe34 2.614645 1_555
Fe18 Fe37 2.655805 1_545
Fe18 Y2 3.028725 1_556
Fe18 Th3 3.240309 1_546
Fe19 Fe43 2.375545 1_555
Fe19 Fe53 2.453839 1_566
Fe19 Fe2 2.457694 1_565
Fe19 Fe3 2.506415 1_555
Fe19 Fe28 2.543769 1_555
Fe19 Fe29 2.543769 1_565
Fe19 Fe35 2.614645 1_555
Fe19 Fe36 2.655805 1_565
Fe19 Y3 3.028725 1_556
Fe19 Th2 3.240309 1_566
Fe20 Fe44 2.375545 1_555
Fe20 Fe52 2.453839 1_655
Fe20 Fe5 2.457694 1_555
Fe20 Fe4 2.506415 1_655
Fe20 Fe26 2.543769 1_655
Fe20 Fe27 2.543769 1_555
Fe20 Fe21 2.549600 1_655
Fe20 Fe36 2.614645 1_555
Fe20 Fe35 2.655805 1_555
Fe20 Y1 3.028725 1_555
Fe20 Th0 3.240309 1_555
Fe21 Fe45 2.375545 1_555
Fe21 Fe52 2.453839 1_555
Fe21 Fe4 2.457694 1_555
Fe21 Fe5 2.506415 1_455
Fe21 Fe26 2.543769 1_555
Fe21 Fe27 2.543769 1_455
Fe21 Fe37 2.614645 1_555
Fe21 Fe34 2.655805 1_555
Fe21 Y0 3.028725 1_555
Fe21 Th1 3.240309 1_555
Fe22 Fe46 2.375545 1_555
Fe22 Fe53 2.453839 1_565
Fe22 Fe7 2.457694 1_565
Fe22 Fe8 2.493599 1_555
Fe22 Fe6 2.506415 1_555
Fe22 Fe24 2.543769 1_565
Fe22 Fe25 2.543769 1_555
Fe22 Fe23 2.549600 1_565
Fe22 Fe38 2.614645 1_555
Fe22 Fe33 2.655805 1_565
Fe22 Y3 3.028725 1_555
Fe22 Th2 3.240309 1_565
Fe23 Fe47 2.375545 1_555
Fe23 Fe53 2.453839 1_555
Fe23 Fe6 2.457694 1_545
Fe23 Fe9 2.493599 1_555
Fe23 Fe7 2.506415 1_555
Fe23 Fe25 2.543769 1_545
Fe23 Fe24 2.543769 1_555
Fe23 Fe39 2.614645 1_555
Fe23 Fe32 2.655805 1_545
Fe23 Y2 3.028725 1_555
Fe23 Th3 3.240309 1_545
Fe24 Fe41 2.375545 1_555
Fe24 Fe54 2.453839 1_555
Fe24 Fe9 2.457694 1_555
Fe24 Fe7 2.493599 1_555
Fe24 Fe8 2.506415 1_545
Fe24 Fe25 2.549600 1_545
Fe24 Fe33 2.614645 1_555
Fe24 Fe39 2.655805 1_555
Fe24 Y1 3.028725 1_555
Fe24 Th1 3.240309 1_555
Fe25 Fe40 2.375545 1_555
Fe25 Fe54 2.453839 1_565
Fe25 Fe8 2.457694 1_555
Fe25 Fe6 2.493599 1_555
Fe25 Fe9 2.506415 1_565
Fe25 Fe32 2.614645 1_555
Fe25 Fe38 2.655805 1_555
Fe25 Y0 3.028725 1_555
Fe25 Th0 3.240309 1_555
Fe26 Fe42 2.375545 1_555
Fe26 Fe55 2.453839 1_556
Fe26 Fe4 2.493599 1_555
Fe26 Fe27 2.549600 1_455
Fe26 Fe34 2.614645 1_555
Fe26 Fe36 2.655805 1_455
Fe26 Y2 3.028725 1_556
Fe26 Th2 3.240309 1_456
Fe27 Fe43 2.375545 1_555
Fe27 Fe55 2.453839 1_656
Fe27 Fe5 2.493599 1_555
Fe27 Fe35 2.614645 1_555
Fe27 Fe37 2.655805 1_655
Fe27 Y3 3.028725 1_556
Fe27 Th3 3.240309 1_656
Fe28 Fe45 2.375545 1_555
Fe28 Fe54 2.453839 1_565
Fe28 Fe3 2.493599 1_555
Fe28 Fe29 2.549600 1_565
Fe28 Fe37 2.614645 1_555
Fe28 Fe35 2.655805 1_555
Fe28 Y0 3.028725 1_555
Fe28 Th0 3.240309 1_555
Fe29 Fe44 2.375545 1_555
Fe29 Fe54 2.453839 1_555
Fe29 Fe36 2.614645 1_555
Fe29 Fe34 2.655805 1_555
Fe29 Y1 3.028725 1_555
Fe29 Th1 3.240309 1_555
Fe30 Fe46 2.375545 1_555
Fe30 Fe55 2.453839 1_655
Fe30 Fe31 2.549600 1_655
Fe30 Fe38 2.614645 1_555
Fe30 Fe32 2.655805 1_655
Fe30 Y3 3.028725 1_555
Fe30 Th3 3.240309 1_655
Fe31 Fe47 2.375545 1_555
Fe31 Fe55 2.453839 1_555
Fe31 Fe39 2.614645 1_555
Fe31 Fe33 2.655805 1_455
Fe31 Y2 3.028725 1_555
Fe31 Th2 3.240309 1_455
Fe32 Fe46 2.647704 1_455
Fe32 Fe47 2.647704 1_565
Fe32 Fe6 2.710010 1_555
Fe32 Fe9 2.719128 1_565
Fe32 Fe51 2.749630 1_565
Fe32 Fe40 2.765166 1_555
Fe32 Y0 2.987603 1_555
Fe32 Th3 3.094711 1_555
Fe33 Fe47 2.647704 1_655
Fe33 Fe46 2.647704 1_545
Fe33 Fe7 2.710010 1_555
Fe33 Fe8 2.719128 1_545
Fe33 Fe51 2.749630 1_655
Fe33 Fe41 2.765166 1_555
Fe33 Y1 2.987603 1_555
Fe33 Th2 3.094711 1_555
Fe34 Fe44 2.647704 1_555
Fe34 Fe45 2.647704 1_555
Fe34 Fe4 2.710010 1_555
Fe34 Fe50 2.749630 1_555
Fe34 Fe42 2.765166 1_555
Fe34 Y2 2.987603 1_556
Fe34 Th1 3.094711 1_555
Fe35 Fe44 2.647704 1_555
Fe35 Fe45 2.647704 1_555
Fe35 Fe5 2.710010 1_555
Fe35 Fe50 2.749630 1_555
Fe35 Fe43 2.765166 1_555
Fe35 Y3 2.987603 1_556
Fe35 Th0 3.094711 1_555
Fe36 Fe42 2.647704 1_655
Fe36 Fe43 2.647704 1_545
Fe36 Fe4 2.719128 1_655
Fe36 Fe49 2.749630 1_655
Fe36 Fe44 2.765166 1_555
Fe36 Y1 2.987603 1_555
Fe36 Th2 3.094711 1_556
Fe37 Fe42 2.647704 1_565
Fe37 Fe43 2.647704 1_455
Fe37 Fe5 2.719128 1_455
Fe37 Fe49 2.749630 1_565
Fe37 Fe45 2.765166 1_555
Fe37 Y0 2.987603 1_555
Fe37 Th3 3.094711 1_556
Fe38 Fe40 2.647704 1_555
Fe38 Fe41 2.647704 1_555
Fe38 Fe8 2.710010 1_555
Fe38 Fe6 2.719128 1_555
Fe38 Fe48 2.749630 1_555
Fe38 Fe46 2.765166 1_555
Fe38 Y3 2.987603 1_555
Fe38 Th0 3.094711 1_555
Fe39 Fe40 2.647704 1_555
Fe39 Fe41 2.647704 1_555
Fe39 Fe9 2.710010 1_555
Fe39 Fe7 2.719128 1_555
Fe39 Fe48 2.749630 1_555
Fe39 Fe47 2.765166 1_555
Fe39 Y2 2.987603 1_555
Fe39 Th1 3.094711 1_555
Fe40 Fe41 2.426444 1_555
Fe40 Fe48 2.504371 1_555
Fe40 Fe6 2.584157 1_555
Fe40 Y0 3.233290 1_555
Fe40 Th0 3.243004 1_555
Fe40 Th1 3.243004 1_555
Fe41 Fe48 2.504371 1_555
Fe41 Fe7 2.584157 1_555
Fe41 Y1 3.233290 1_555
Fe41 Th0 3.243004 1_555
Fe41 Th1 3.243004 1_555
Fe42 Fe43 2.426444 1_445
Fe42 Fe49 2.504371 1_555
Fe42 Y2 3.233290 1_556
Fe42 Th3 3.243004 1_546
Fe42 Th2 3.243004 1_456
Fe43 Fe49 2.504371 1_665
Fe43 Fe5 2.584157 1_555
Fe43 Y3 3.233290 1_556
Fe43 Th3 3.243004 1_656
Fe43 Th2 3.243004 1_566
Fe44 Fe45 2.426444 1_555
Fe44 Fe50 2.504371 1_555
Fe44 Y1 3.233290 1_555
Fe44 Th0 3.243004 1_555
Fe44 Th1 3.243004 1_555
Fe45 Fe50 2.504371 1_555
Fe45 Y0 3.233290 1_555
Fe45 Th0 3.243004 1_555
Fe45 Th1 3.243004 1_555
Fe46 Fe47 2.426444 1_665
Fe46 Fe51 2.504371 1_665
Fe46 Fe8 2.584157 1_555
Fe46 Y3 3.233290 1_555
Fe46 Th2 3.243004 1_565
Fe46 Th3 3.243004 1_655
Fe47 Fe51 2.504371 1_555
Fe47 Fe9 2.584157 1_555
Fe47 Y2 3.233290 1_555
Fe47 Th3 3.243004 1_545
Fe47 Th2 3.243004 1_455
Fe48 Y2 3.157887 1_555
Fe48 Y3 3.157887 1_555
Fe49 Y1 3.157887 1_455
Fe49 Y0 3.157887 1_545
Fe50 Y2 3.157887 1_556
Fe50 Y3 3.157887 1_556
Fe51 Y1 3.157887 1_455
Fe51 Y0 3.157887 1_545
Fe52 Y0 3.109314 1_555
Fe52 Y1 3.109314 1_455
Fe52 Th0 3.366887 1_455
Fe52 Th1 3.366887 1_555
Fe53 Fe6 2.553702 1_545
Fe53 Fe7 2.553702 1_555
Fe53 Y2 3.109314 1_555
Fe53 Y3 3.109314 1_545
Fe53 Th2 3.366887 1_555
Fe53 Th3 3.366887 1_545
Fe54 Fe9 2.553702 1_555
Fe54 Fe8 2.553702 1_545
Fe54 Y1 3.109314 1_555
Fe54 Y0 3.109314 1_545
Fe54 Th1 3.366887 1_555
Fe54 Th0 3.366887 1_545
Fe55 Y3 3.109314 1_455
Fe55 Y2 3.109314 1_555
Fe55 Th2 3.366887 1_455
Fe55 Th3 3.366887 1_555
B0 Fe51 2.054661 1_665
B0 Fe49 2.054661 1_665
B0 Fe8 2.085645 1_555
B0 Fe5 2.085645 1_555
B0 Fe0 2.085645 1_555
B0 Fe13 2.085645 1_555
B0 Th0 2.888199 1_555
B0 Y0 3.227277 1_655
B0 Y1 3.227277 1_565
B1 Fe51 2.054661 1_555
B1 Fe49 2.054661 1_555
B1 Fe9 2.085645 1_555
B1 Fe4 2.085645 1_555
B1 Fe1 2.085645 1_555
B1 Fe12 2.085645 1_555
B1 Th1 2.888199 1_555
B1 Y1 3.227277 1_455
B1 Y0 3.227277 1_545
B2 Fe50 2.054661 1_554
B2 Fe48 2.054661 1_555
B2 Fe14 2.085645 1_555
B2 Fe11 2.085645 1_554
B2 Fe7 2.085645 1_555
B2 Fe2 2.085645 1_554
B2 Th2 2.888199 1_555
B2 Y2 3.227277 1_555
B2 Y3 3.227277 1_555
B3 Fe48 2.054661 1_555
B3 Fe50 2.054661 1_554
B3 Fe6 2.085645 1_555
B3 Fe3 2.085645 1_554
B3 Fe10 2.085645 1_554
B3 Fe15 2.085645 1_555
B3 Th3 2.888199 1_555
B3 Y2 3.227277 1_555
B3 Y3 3.227277 1_555
