# generated using pymatgen
data_K4MgCu3F12
_symmetry_space_group_name_H-M   'P 1'
_cell_length_a   5.86411024
_cell_length_b   5.86411024
_cell_length_c   8.02611734
_cell_angle_alpha   90.00000000
_cell_angle_beta   90.00000000
_cell_angle_gamma   87.27808972
_symmetry_Int_Tables_number   1
_chemical_formula_structural   K4MgCu3F12
_chemical_formula_sum   'K4 Mg1 Cu3 F12'
_cell_volume   275.68904213
_cell_formula_units_Z   1
loop_
 _symmetry_equiv_pos_site_id
 _symmetry_equiv_pos_as_xyz
  1  'x, y, z'
loop_
 _atom_site_type_symbol
 _atom_site_label
 _atom_site_symmetry_multiplicity
 _atom_site_fract_x
 _atom_site_fract_y
 _atom_site_fract_z
 _atom_site_occupancy
  K  K0  1  0.25000000  0.75000000  0.99802500  1
  K  K1  1  0.75000000  0.25000000  0.50197500  1
  K  K2  1  0.75000000  0.25000000  0.99802500  1
  K  K3  1  0.25000000  0.75000000  0.50197500  1
  Mg  Mg0  1  0.75000000  0.75000000  0.75000000  1
  Cu  Cu0  1  0.25000000  0.25000000  0.25000000  1
  Cu  Cu1  1  0.75000000  0.75000000  0.25000000  1
  Cu  Cu2  1  0.25000000  0.25000000  0.75000000  1
  F  F0  1  0.99144300  0.50855700  0.25000000  1
  F  F1  1  0.49521600  0.00478400  0.75000000  1
  F  F2  1  0.00478400  0.49521600  0.75000000  1
  F  F3  1  0.50855700  0.99144300  0.25000000  1
  F  F4  1  0.51939600  0.51939600  0.75000000  1
  F  F5  1  0.02085600  0.02085600  0.25000000  1
  F  F6  1  0.47914400  0.47914400  0.25000000  1
  F  F7  1  0.98060400  0.98060400  0.75000000  1
  F  F8  1  0.75000000  0.75000000  0.00517900  1
  F  F9  1  0.25000000  0.25000000  0.50420100  1
  F  F10  1  0.25000000  0.25000000  0.99579900  1
  F  F11  1  0.75000000  0.75000000  0.49482100  1
loop_
_geom_bond_atom_site_label_1
_geom_bond_atom_site_label_2
_geom_bond_distance
_geom_bond_site_symmetry_2
Cu0 F5 1.944913 1_555
Cu0 F6 1.944913 1_555
Cu0 F10 2.040247 1_554
Cu0 F9 2.040247 1_555
Cu0 F0 2.092708 1_455
Cu0 F3 2.092708 1_545
Cu1 F3 1.954190 1_555
Cu1 F0 1.954190 1_555
Cu1 F11 1.964962 1_555
Cu1 F8 1.964962 1_555
Cu1 F5 2.298954 1_665
Cu1 F6 2.298954 1_555
Cu2 F9 1.972812 1_555
Cu2 F10 1.972812 1_555
Cu2 F2 1.984728 1_555
Cu2 F1 1.984728 1_555
Cu2 F4 2.286561 1_555
Cu2 F7 2.286561 1_445
F0 K3 2.932136 1_655
F0 K2 2.932136 1_554
F0 K0 2.932136 1_654
F0 K1 2.932136 1_555
F1 Mg0 2.062170 1_545
F1 K0 2.909794 1_545
F1 K3 2.909794 1_545
F1 K2 2.909794 1_555
F1 K1 2.909794 1_555
F2 Mg0 2.062170 1_455
F2 K0 2.909794 1_555
F2 K2 2.909794 1_455
F2 K1 2.909794 1_455
F2 K3 2.909794 1_555
F3 K2 2.932136 1_564
F3 K1 2.932136 1_565
F3 K0 2.932136 1_554
F3 K3 2.932136 1_555
F4 Mg0 1.957305 1_555
F4 K2 2.843281 1_555
F4 K3 2.843281 1_555
F4 K0 2.843281 1_555
F4 K1 2.843281 1_555
F5 K2 2.866305 1_454
F5 K3 2.866305 1_545
F5 K0 2.866305 1_544
F5 K1 2.866305 1_455
F6 K3 2.866305 1_555
F6 K2 2.866305 1_554
F6 K0 2.866305 1_554
F6 K1 2.866305 1_555
F7 Mg0 1.957305 1_555
F7 K1 2.843281 1_565
F7 K2 2.843281 1_565
F7 K0 2.843281 1_655
F7 K3 2.843281 1_655
F8 Mg0 2.048097 1_554
F8 K2 2.932617 1_554
F8 K2 2.932617 1_564
F8 K0 2.932617 1_654
F8 K0 2.932617 1_554
F9 K1 2.932110 1_455
F9 K3 2.932110 1_555
F9 K1 2.932110 1_555
F9 K3 2.932110 1_545
F10 K0 2.932110 1_555
F10 K2 2.932110 1_455
F10 K0 2.932110 1_545
F10 K2 2.932110 1_555
F11 Mg0 2.048097 1_555
F11 K1 2.932617 1_555
F11 K3 2.932617 1_555
F11 K3 2.932617 1_655
F11 K1 2.932617 1_565
