# generated using pymatgen
data_Li5Mn2CoO8
_symmetry_space_group_name_H-M   'P 1'
_cell_length_a   5.11219170
_cell_length_b   7.71497836
_cell_length_c   7.64092898
_cell_angle_alpha   83.31960722
_cell_angle_beta   76.29313628
_cell_angle_gamma   103.40285379
_symmetry_Int_Tables_number   1
_chemical_formula_structural   Li5Mn2CoO8
_chemical_formula_sum   'Li10 Mn4 Co2 O16'
_cell_volume   280.08987320
_cell_formula_units_Z   2
loop_
 _symmetry_equiv_pos_site_id
 _symmetry_equiv_pos_as_xyz
  1  'x, y, z'
loop_
 _atom_site_type_symbol
 _atom_site_label
 _atom_site_symmetry_multiplicity
 _atom_site_fract_x
 _atom_site_fract_y
 _atom_site_fract_z
 _atom_site_occupancy
  Li  Li0  1  0.50002400  0.12488200  0.12500000  1
  Li  Li1  1  0.49906400  0.62436700  0.62580500  1
  Li  Li2  1  0.49705700  0.37410400  0.37412200  1
  Li  Li3  1  0.50232100  0.87542000  0.87594900  1
  Li  Li4  1  0.99978400  0.37367900  0.87536100  1
  Li  Li5  1  0.00029900  0.87674700  0.37448100  1
  Li  Li6  1  0.49819300  0.25602300  0.74925900  1
  Li  Li7  1  0.49516300  0.76122900  0.24956900  1
  Li  Li8  1  0.50464700  0.48966800  0.99963600  1
  Li  Li9  1  0.50337300  0.99327600  0.50158500  1
  Mn  Mn0  1  0.00261600  0.74998200  0.74850900  1
  Mn  Mn1  1  0.00815400  0.00033800  0.00113400  1
  Mn  Mn2  1  0.99704600  0.50117700  0.50127200  1
  Mn  Mn3  1  0.99203200  0.24901300  0.24828600  1
  Co  Co0  1  0.99945600  0.62472300  0.12540800  1
  Co  Co1  1  0.00077600  0.12570500  0.62486700  1
  O  O0  1  0.23208700  0.23485800  0.01497200  1
  O  O1  1  0.23327000  0.73344300  0.51486200  1
  O  O2  1  0.76656000  0.51697100  0.73570700  1
  O  O3  1  0.76815800  0.01452500  0.23464800  1
  O  O4  1  0.22495600  0.48990900  0.25683500  1
  O  O5  1  0.23880100  0.98489500  0.76108200  1
  O  O6  1  0.77402400  0.75939600  0.99329800  1
  O  O7  1  0.76288900  0.26575700  0.48811400  1
  O  O8  1  0.22703300  0.88042700  0.11763100  1
  O  O9  1  0.21111000  0.37170800  0.61534400  1
  O  O10  1  0.21842300  0.63131100  0.87799400  1
  O  O11  1  0.20678500  0.13385700  0.38236500  1
  O  O12  1  0.78082900  0.61873900  0.37207300  1
  O  O13  1  0.79354500  0.11597300  0.86755200  1
  O  O14  1  0.77304200  0.36916400  0.13239300  1
  O  O15  1  0.78848300  0.87873600  0.63488700  1
loop_
_geom_bond_atom_site_label_1
_geom_bond_atom_site_label_2
_geom_bond_distance
_geom_bond_site_symmetry_2
Li0 O0 2.054616 1_555
Li0 O3 2.055507 1_555
Li0 O14 2.084646 1_555
Li0 O8 2.085532 1_545
Li0 O11 2.191337 1_555
Li0 O13 2.192346 1_554
Li1 O2 2.041894 1_555
Li1 O1 2.045255 1_555
Li1 O10 2.126937 1_555
Li1 O12 2.135558 1_555
Li1 O9 2.175950 1_555
Li1 O15 2.186187 1_555
Li2 O14 2.051807 1_555
Li2 O7 2.054847 1_555
Li2 O9 2.058434 1_555
Li2 O11 2.072419 1_555
Li2 O12 2.092827 1_555
Li2 O4 2.125319 1_555
Li3 O8 2.049984 1_556
Li3 O5 2.052778 1_555
Li3 O15 2.056259 1_555
Li3 O13 2.076286 1_565
Li3 O10 2.090144 1_555
Li3 O6 2.124721 1_555
Li4 O14 2.022001 1_556
Li4 O9 2.027826 1_655
Li4 O13 2.038069 1_555
Li4 O10 2.047047 1_655
Li4 O0 2.149315 1_656
Li4 O2 2.172985 1_555
Li5 O8 2.022312 1_555
Li5 O15 2.031157 1_455
Li5 O11 2.034651 1_565
Li5 O12 2.050442 1_455
Li5 O3 2.145068 1_465
Li5 O1 2.175153 1_555
Li6 O7 2.111096 1_555
Li6 O0 2.123762 1_556
Li6 O2 2.132999 1_555
Li6 O5 2.180679 1_545
Li6 O9 2.259191 1_555
Li6 O13 2.332395 1_555
Li7 O3 2.094737 1_565
Li7 O1 2.104095 1_555
Li7 O6 2.135350 1_554
Li7 O8 2.182768 1_555
Li7 O4 2.211099 1_555
Li7 O12 2.317333 1_555
Li8 O2 2.096389 1_555
Li8 O0 2.102137 1_556
Li8 O4 2.139394 1_556
Li8 O14 2.192594 1_556
Li8 O6 2.201259 1_555
Li8 O10 2.312699 1_555
Li9 O5 2.103267 1_555
Li9 O3 2.128439 1_565
Li9 O1 2.130369 1_555
Li9 O7 2.186755 1_565
Li9 O15 2.243654 1_555
Li9 O11 2.343523 1_565
Mn0 O15 1.921626 1_455
Mn0 O1 1.928475 1_555
Mn0 O2 1.946441 1_455
Mn0 O10 1.951681 1_555
Mn0 O5 1.957734 1_555
Mn0 O6 1.975971 1_455
Mn1 O8 1.913260 1_545
Mn1 O0 1.933129 1_555
Mn1 O3 1.941937 1_455
Mn1 O13 1.952935 1_454
Mn1 O5 1.964660 1_544
Mn1 O6 1.979892 1_444
Mn2 O9 1.926449 1_655
Mn2 O2 1.931075 1_555
Mn2 O1 1.944134 1_655
Mn2 O12 1.947447 1_555
Mn2 O7 1.957919 1_555
Mn2 O4 1.976590 1_655
Mn3 O14 1.912244 1_555
Mn3 O3 1.932350 1_555
Mn3 O0 1.940805 1_655
Mn3 O11 1.953869 1_655
Mn3 O7 1.963396 1_555
Mn3 O4 1.978730 1_655
Co0 O12 1.939361 1_555
Co0 O10 1.943685 1_654
Co0 O14 2.029334 1_555
Co0 O8 2.030954 1_655
Co0 O4 2.068977 1_655
Co0 O6 2.071000 1_554
Co1 O11 1.887819 1_555
Co1 O13 1.888462 1_455
Co1 O9 1.936042 1_555
Co1 O15 1.944772 1_445
Co1 O7 2.164948 1_455
Co1 O5 2.166578 1_545
