# generated using pymatgen
data_AlB2P2H7O13
_symmetry_space_group_name_H-M   'P 1'
_cell_length_a   10.44914899
_cell_length_b   10.44914899
_cell_length_c   7.26816973
_cell_angle_alpha   85.23316800
_cell_angle_beta   85.23316800
_cell_angle_gamma   43.99072585
_symmetry_Int_Tables_number   1
_chemical_formula_structural   AlB2P2H7O13
_chemical_formula_sum   'Al2 B4 P4 H14 O26'
_cell_volume   548.95164050
_cell_formula_units_Z   2
loop_
 _symmetry_equiv_pos_site_id
 _symmetry_equiv_pos_as_xyz
  1  'x, y, z'
loop_
 _atom_site_type_symbol
 _atom_site_label
 _atom_site_symmetry_multiplicity
 _atom_site_fract_x
 _atom_site_fract_y
 _atom_site_fract_z
 _atom_site_occupancy
  Al  Al0  1  0.00000000  0.50000000  0.50000000  1
  Al  Al1  1  0.50000000  0.00000000  0.00000000  1
  B  B0  1  0.82664500  0.39073800  0.29512800  1
  B  B1  1  0.60926200  0.17335500  0.20487200  1
  B  B2  1  0.17335500  0.60926200  0.70487200  1
  B  B3  1  0.39073800  0.82664500  0.79512800  1
  P  P0  1  0.75225700  0.58204500  0.93021600  1
  P  P1  1  0.41795500  0.24774300  0.56978400  1
  P  P2  1  0.24774300  0.41795500  0.06978400  1
  P  P3  1  0.58204500  0.75225700  0.43021600  1
  H  H0  1  0.80969000  0.19031000  0.25000000  1
  H  H1  1  0.19031000  0.80969000  0.75000000  1
  H  H2  1  0.91170100  0.73406300  0.68481300  1
  H  H3  1  0.26593700  0.08829900  0.81518700  1
  H  H4  1  0.08829900  0.26593700  0.31518700  1
  H  H5  1  0.73406300  0.91170100  0.18481300  1
  H  H6  1  0.33714500  0.59643700  0.20279500  1
  H  H7  1  0.40356300  0.66285500  0.29720500  1
  H  H8  1  0.66285500  0.40356300  0.79720500  1
  H  H9  1  0.59643700  0.33714500  0.70279500  1
  H  H10  1  0.66095000  0.98801600  0.68268700  1
  H  H11  1  0.01198400  0.33905000  0.81731300  1
  H  H12  1  0.33905000  0.01198400  0.31731300  1
  H  H13  1  0.98801600  0.66095000  0.18268700  1
  O  O0  1  0.86110900  0.24480200  0.32286300  1
  O  O1  1  0.75519800  0.13889100  0.17713700  1
  O  O2  1  0.13889100  0.75519800  0.67713700  1
  O  O3  1  0.24480200  0.86110900  0.82286300  1
  O  O4  1  0.84669800  0.43250300  0.07985600  1
  O  O5  1  0.56749700  0.15330200  0.42014400  1
  O  O6  1  0.15330200  0.56749700  0.92014400  1
  O  O7  1  0.43250300  0.84669800  0.57985600  1
  O  O8  1  0.91888300  0.46492300  0.76531900  1
  O  O9  1  0.53507700  0.08111700  0.73468100  1
  O  O10  1  0.08111700  0.53507700  0.23468100  1
  O  O11  1  0.46492300  0.91888300  0.26531900  1
  O  O12  1  0.58308000  0.64060900  0.85632700  1
  O  O13  1  0.35939100  0.41692000  0.64367300  1
  O  O14  1  0.41692000  0.35939100  0.14367300  1
  O  O15  1  0.64060900  0.58308000  0.35632700  1
  O  O16  1  0.29229600  0.70770400  0.25000000  1
  O  O17  1  0.70770400  0.29229600  0.75000000  1
  O  O18  1  0.02326100  0.63019500  0.61926000  1
  O  O19  1  0.36980500  0.97673900  0.88074000  1
  O  O20  1  0.97673900  0.36980500  0.38074000  1
  O  O21  1  0.63019500  0.02326100  0.11926000  1
  O  O22  1  0.71599900  0.74928100  0.96732000  1
  O  O23  1  0.25071900  0.28400100  0.53268000  1
  O  O24  1  0.28400100  0.25071900  0.03268000  1
  O  O25  1  0.74928100  0.71599900  0.46732000  1
loop_
_geom_bond_atom_site_label_1
_geom_bond_atom_site_label_2
_geom_bond_distance
_geom_bond_site_symmetry_2
Al0 O18 1.835206 1_555
Al0 O20 1.835206 1_455
Al0 O23 1.876183 1_555
Al0 O25 1.876183 1_455
Al0 O10 2.151587 1_555
Al0 O8 2.151587 1_455
Al1 O21 1.835206 1_555
Al1 O19 1.835206 1_544
Al1 O24 1.876183 1_555
Al1 O22 1.876183 1_544
Al1 O11 2.151587 1_545
Al1 O9 2.151587 1_554
B0 O0 1.290917 1_555
B0 O15 1.548939 1_555
B0 O20 1.593965 1_555
B0 O4 1.626665 1_555
B1 O1 1.290917 1_555
B1 O14 1.548939 1_555
B1 O21 1.593965 1_555
B1 O5 1.626665 1_555
B2 O2 1.290917 1_555
B2 O13 1.548939 1_555
B2 O18 1.593965 1_555
B2 O6 1.626665 1_555
B3 O3 1.290917 1_555
B3 O12 1.548939 1_555
B3 O19 1.593965 1_555
B3 O7 1.626665 1_555
H0 O0 1.196223 1_555
H0 O1 1.196223 1_555
H1 O3 1.196223 1_555
H1 O2 1.196223 1_555
H2 O18 0.967981 1_655
H3 O19 0.967981 1_545
H4 O20 0.967981 1_455
H5 O21 0.967981 1_565
H6 O16 0.971934 1_555
H7 O16 0.971934 1_555
H8 O17 0.971934 1_555
H9 O17 0.971934 1_555
H10 O9 0.978009 1_565
H11 O8 0.978009 1_455
H12 O11 0.978009 1_545
H13 O10 0.978009 1_655
O4 P0 1.508485 1_554
O5 P1 1.508485 1_555
O6 P2 1.508485 1_556
O7 P3 1.508485 1_555
O8 P0 1.672280 1_555
O9 P1 1.672280 1_555
O10 P2 1.672280 1_555
O11 P3 1.672280 1_555
O12 P0 1.527890 1_555
O13 P1 1.527890 1_555
O14 P2 1.527890 1_555
O15 P3 1.527890 1_555
O22 P0 1.542283 1_555
O23 P1 1.542283 1_555
O24 P2 1.542283 1_555
O25 P3 1.542283 1_555
