# generated using pymatgen
data_KLiNi2H3(SeO5)2
_symmetry_space_group_name_H-M   'P 1'
_cell_length_a   5.60304952
_cell_length_b   5.83764553
_cell_length_c   8.31503041
_cell_angle_alpha   70.17082801
_cell_angle_beta   69.04099308
_cell_angle_gamma   70.45162706
_symmetry_Int_Tables_number   1
_chemical_formula_structural   KLiNi2H3(SeO5)2
_chemical_formula_sum   'K1 Li1 Ni2 H3 Se2 O10'
_cell_volume   231.77213855
_cell_formula_units_Z   1
loop_
 _symmetry_equiv_pos_site_id
 _symmetry_equiv_pos_as_xyz
  1  'x, y, z'
loop_
 _atom_site_type_symbol
 _atom_site_label
 _atom_site_symmetry_multiplicity
 _atom_site_fract_x
 _atom_site_fract_y
 _atom_site_fract_z
 _atom_site_occupancy
  K  K0  1  0.59130000  0.40036100  0.52627500  1
  Li  Li0  1  0.13491000  0.85827100  0.49661600  1
  Ni  Ni0  1  0.00419300  0.48503900  0.97502200  1
  Ni  Ni1  1  0.50195400  0.00380100  0.00046600  1
  H  H0  1  0.66869700  0.69048000  0.80670300  1
  H  H1  1  0.29623400  0.33840900  0.20522600  1
  H  H2  1  0.47082800  0.49124400  0.01467900  1
  Se  Se0  1  0.90391000  0.94218900  0.25712200  1
  Se  Se1  1  0.11194400  0.03438300  0.74851400  1
  O  O0  1  0.78784800  0.83795900  0.47631300  1
  O  O1  1  0.19071200  0.16702000  0.52389300  1
  O  O2  1  0.23479300  0.84990200  0.23139100  1
  O  O3  1  0.80724100  0.25619500  0.20532400  1
  O  O4  1  0.77782600  0.15903600  0.80282000  1
  O  O5  1  0.15306400  0.70915900  0.73894500  1
  O  O6  1  0.63362000  0.65742300  0.93518700  1
  O  O7  1  0.33862400  0.36276400  0.07661900  1
  O  O8  1  0.80685400  0.81071400  0.14675900  1
  O  O9  1  0.21892500  0.19817500  0.86312700  1
loop_
_geom_bond_atom_site_label_1
_geom_bond_atom_site_label_2
_geom_bond_distance
_geom_bond_site_symmetry_2
K0 O4 2.626925 1_555
K0 O3 2.797601 1_555
K0 O5 2.915493 1_555
K0 O0 2.957433 1_555
K0 O9 2.969158 1_555
K0 O1 2.998308 1_555
K0 Li0 3.029025 1_555
K0 O1 3.169357 1_655
K0 O0 3.215993 1_545
K0 O8 3.352072 1_555
Li0 O5 1.930181 1_555
Li0 O1 2.025566 1_565
Li0 O0 2.055917 1_455
Li0 O2 2.085909 1_555
Ni0 O9 2.006353 1_555
Ni0 O5 2.019252 1_555
Ni0 O6 2.073926 1_455
Ni0 O3 2.099692 1_456
Ni0 O7 2.136047 1_556
Ni0 O8 2.486313 1_456
Ni1 O4 2.005249 1_554
Ni1 O9 2.078163 1_554
Ni1 O6 2.094605 1_544
Ni1 O2 2.099575 1_545
Ni1 O7 2.198157 1_555
Ni1 O8 2.221840 1_545
H0 O6 0.975978 1_555
H1 O7 0.978737 1_555
H2 O7 1.101493 1_555
H2 O6 1.391321 1_554
O0 Se0 1.667163 1_555
O1 Se1 1.714810 1_555
O2 Se0 1.702701 1_455
O3 Se0 1.675057 1_545
O4 Se1 1.715991 1_655
O5 Se1 1.860248 1_565
O8 Se0 1.685547 1_555
O9 Se1 1.895312 1_555
