# generated using pymatgen
data_Rb2Li3B(P2O7)2
_symmetry_space_group_name_H-M   'P 1'
_cell_length_a   14.10266723
_cell_length_b   14.10266723
_cell_length_c   7.17903400
_cell_angle_alpha   90.00000000
_cell_angle_beta   90.00000000
_cell_angle_gamma   118.72769100
_symmetry_Int_Tables_number   1
_chemical_formula_structural   Rb2Li3B(P2O7)2
_chemical_formula_sum   'Rb8 Li12 B4 P16 O56'
_cell_volume   1252.06107809
_cell_formula_units_Z   4
loop_
 _symmetry_equiv_pos_site_id
 _symmetry_equiv_pos_as_xyz
  1  'x, y, z'
loop_
 _atom_site_type_symbol
 _atom_site_label
 _atom_site_symmetry_multiplicity
 _atom_site_fract_x
 _atom_site_fract_y
 _atom_site_fract_z
 _atom_site_occupancy
  Rb  Rb0  1  0.38590100  0.38590100  0.79918400  1
  Rb  Rb1  1  0.61409900  0.61409900  0.20081600  1
  Rb  Rb2  1  0.11409900  0.11409900  0.29918400  1
  Rb  Rb3  1  0.88590100  0.88590100  0.70081600  1
  Rb  Rb4  1  0.40400900  0.90400900  0.75000000  1
  Rb  Rb5  1  0.09599100  0.59599100  0.25000000  1
  Rb  Rb6  1  0.59599100  0.09599100  0.25000000  1
  Rb  Rb7  1  0.90400900  0.40400900  0.75000000  1
  Li  Li0  1  0.88142300  0.11857700  0.50000000  1
  Li  Li1  1  0.38142300  0.61857700  0.00000000  1
  Li  Li2  1  0.11857700  0.88142300  0.50000000  1
  Li  Li3  1  0.61857700  0.38142300  0.00000000  1
  Li  Li4  1  0.60242100  0.86819400  0.97637400  1
  Li  Li5  1  0.13180600  0.39757900  0.02362600  1
  Li  Li6  1  0.63180600  0.89757900  0.47637400  1
  Li  Li7  1  0.10242100  0.36819400  0.52362600  1
  Li  Li8  1  0.39757900  0.13180600  0.02362600  1
  Li  Li9  1  0.86819400  0.60242100  0.97637400  1
  Li  Li10  1  0.36819400  0.10242100  0.52362600  1
  Li  Li11  1  0.89757900  0.63180600  0.47637400  1
  B  B0  1  0.88001400  0.11998600  0.00000000  1
  B  B1  1  0.38001400  0.61998600  0.50000000  1
  B  B2  1  0.11998600  0.88001400  0.00000000  1
  B  B3  1  0.61998600  0.38001400  0.50000000  1
  P  P0  1  0.71401100  0.09185900  0.76003500  1
  P  P1  1  0.90814100  0.28598900  0.23996500  1
  P  P2  1  0.40814100  0.78598900  0.26003500  1
  P  P3  1  0.21401100  0.59185900  0.73996500  1
  P  P4  1  0.28598900  0.90814100  0.23996500  1
  P  P5  1  0.09185900  0.71401100  0.76003500  1
  P  P6  1  0.59185900  0.21401100  0.73996500  1
  P  P7  1  0.78598900  0.40814100  0.26003500  1
  P  P8  1  0.07195700  0.19713000  0.80223700  1
  P  P9  1  0.80287000  0.92804300  0.19776300  1
  P  P10  1  0.30287000  0.42804300  0.30223700  1
  P  P11  1  0.57195700  0.69713000  0.69776300  1
  P  P12  1  0.92804300  0.80287000  0.19776300  1
  P  P13  1  0.19713000  0.07195700  0.80223700  1
  P  P14  1  0.69713000  0.57195700  0.69776300  1
  P  P15  1  0.42804300  0.30287000  0.30223700  1
  O  O0  1  0.63160200  0.01414800  0.89540500  1
  O  O1  1  0.98585200  0.36839800  0.10459500  1
  O  O2  1  0.48585200  0.86839800  0.39540500  1
  O  O3  1  0.13160200  0.51414800  0.60459500  1
  O  O4  1  0.36839800  0.98585200  0.10459500  1
  O  O5  1  0.01414800  0.63160200  0.89540500  1
  O  O6  1  0.51414800  0.13160200  0.60459500  1
  O  O7  1  0.86839800  0.48585200  0.39540500  1
  O  O8  1  0.83527100  0.14444500  0.83167500  1
  O  O9  1  0.85555500  0.16472900  0.16832500  1
  O  O10  1  0.35555500  0.66472900  0.33167500  1
  O  O11  1  0.33527100  0.64444500  0.66832500  1
  O  O12  1  0.16472900  0.85555500  0.16832500  1
  O  O13  1  0.14444500  0.83527100  0.83167500  1
  O  O14  1  0.64444500  0.33527100  0.66832500  1
  O  O15  1  0.66472900  0.35555500  0.33167500  1
  O  O16  1  0.71375900  0.05350400  0.56245900  1
  O  O17  1  0.94649600  0.28624100  0.43754100  1
  O  O18  1  0.44649600  0.78624100  0.06245900  1
  O  O19  1  0.21375900  0.55350400  0.93754100  1
  O  O20  1  0.28624100  0.94649600  0.43754100  1
  O  O21  1  0.05350400  0.71375900  0.56245900  1
  O  O22  1  0.55350400  0.21375900  0.93754100  1
  O  O23  1  0.78624100  0.44649600  0.06245900  1
  O  O24  1  0.70110400  0.20110400  0.75000000  1
  O  O25  1  0.79889600  0.29889600  0.25000000  1
  O  O26  1  0.29889600  0.79889600  0.25000000  1
  O  O27  1  0.20110400  0.70110400  0.75000000  1
  O  O28  1  0.16322500  0.16322500  0.86755100  1
  O  O29  1  0.83677500  0.83677500  0.13244900  1
  O  O30  1  0.33677500  0.33677500  0.36755100  1
  O  O31  1  0.66322500  0.66322500  0.63244900  1
  O  O32  1  0.13380800  0.31935700  0.78149300  1
  O  O33  1  0.68064300  0.86619200  0.21850700  1
  O  O34  1  0.18064300  0.36619200  0.28149300  1
  O  O35  1  0.63380800  0.81935700  0.71850700  1
  O  O36  1  0.86619200  0.68064300  0.21850700  1
  O  O37  1  0.31935700  0.13380800  0.78149300  1
  O  O38  1  0.81935700  0.63380800  0.71850700  1
  O  O39  1  0.36619200  0.18064300  0.28149300  1
  O  O40  1  0.01144900  0.13293900  0.63477800  1
  O  O41  1  0.86706100  0.98855100  0.36522200  1
  O  O42  1  0.36706100  0.48855100  0.13477800  1
  O  O43  1  0.51144900  0.63293900  0.86522200  1
  O  O44  1  0.98855100  0.86706100  0.36522200  1
  O  O45  1  0.13293900  0.01144900  0.63477800  1
  O  O46  1  0.63293900  0.51144900  0.86522200  1
  O  O47  1  0.48855100  0.36706100  0.13477800  1
  O  O48  1  0.99911700  0.16741900  0.98314600  1
  O  O49  1  0.83258100  0.00088300  0.01685400  1
  O  O50  1  0.33258100  0.50088300  0.48314600  1
  O  O51  1  0.49911700  0.66741900  0.51685400  1
  O  O52  1  0.00088300  0.83258100  0.01685400  1
  O  O53  1  0.16741900  0.99911700  0.98314600  1
  O  O54  1  0.66741900  0.49911700  0.51685400  1
  O  O55  1  0.50088300  0.33258100  0.48314600  1
loop_
_geom_bond_atom_site_label_1
_geom_bond_atom_site_label_2
_geom_bond_distance
_geom_bond_site_symmetry_2
Li0 O41 1.995671 1_545
Li0 O40 1.995671 1_655
Li0 O16 2.132654 1_555
Li0 O17 2.132654 1_555
Li0 O9 2.540596 1_555
Li0 O8 2.540596 1_555
Li1 O43 1.995671 1_554
Li1 O42 1.995671 1_555
Li1 O18 2.132654 1_555
Li1 O19 2.132654 1_554
Li1 O10 2.540596 1_555
Li1 O11 2.540596 1_554
Li2 O44 1.995671 1_455
Li2 O45 1.995671 1_565
Li2 O21 2.132654 1_555
Li2 O20 2.132654 1_555
Li2 O12 2.540596 1_555
Li2 O13 2.540596 1_555
Li3 O46 1.995671 1_554
Li3 O47 1.995671 1_555
Li3 O23 2.132654 1_555
Li3 O22 2.132654 1_554
Li3 O15 2.540596 1_555
Li3 O14 2.540596 1_554
Li4 O0 1.982354 1_565
Li4 O18 2.027321 1_556
Li4 O33 2.066222 1_556
Li4 O35 2.095332 1_555
Li5 O1 1.982354 1_455
Li5 O19 2.027321 1_554
Li5 O32 2.066222 1_554
Li5 O34 2.095332 1_555
Li6 O2 1.982354 1_555
Li6 O16 2.027321 1_565
Li6 O35 2.066222 1_555
Li6 O33 2.095332 1_555
Li7 O3 1.982354 1_555
Li7 O17 2.027321 1_455
Li7 O34 2.066222 1_555
Li7 O32 2.095332 1_555
Li8 O4 1.982354 1_545
Li8 O22 2.027321 1_554
Li8 O37 2.066222 1_554
Li8 O39 2.095332 1_555
Li9 O5 1.982354 1_655
Li9 O23 2.027321 1_556
Li9 O36 2.066222 1_556
Li9 O38 2.095332 1_555
Li10 O6 1.982354 1_555
Li10 O20 2.027321 1_545
Li10 O39 2.066222 1_555
Li10 O37 2.095332 1_555
Li11 O7 1.982354 1_555
Li11 O21 2.027321 1_655
Li11 O38 2.066222 1_555
Li11 O36 2.095332 1_555
B0 O8 1.478724 1_554
B0 O9 1.478724 1_555
B0 O49 1.484353 1_555
B0 O48 1.484353 1_554
B1 O10 1.478724 1_555
B1 O11 1.478724 1_555
B1 O51 1.484353 1_555
B1 O50 1.484353 1_555
B2 O13 1.478724 1_554
B2 O12 1.478724 1_555
B2 O52 1.484353 1_555
B2 O53 1.484353 1_554
B3 O15 1.478724 1_555
B3 O14 1.478724 1_555
B3 O54 1.484353 1_555
B3 O55 1.484353 1_555
O0 P0 1.507253 1_555
O0 Rb6 2.936316 1_556
O0 Rb4 3.001959 1_545
O1 P1 1.507253 1_555
O1 Rb7 2.936316 1_554
O1 Rb5 3.001959 1_655
O2 P2 1.507253 1_555
O2 Rb4 2.936316 1_555
O2 Rb6 3.001959 1_565
O3 P3 1.507253 1_555
O3 Rb5 2.936316 1_555
O3 Rb7 3.001959 1_455
O4 P4 1.507253 1_555
O4 Rb4 2.936316 1_554
O4 Rb6 3.001959 1_565
O5 P5 1.507253 1_555
O5 Rb5 2.936316 1_556
O5 Rb7 3.001959 1_455
O6 P6 1.507253 1_555
O6 Rb6 2.936316 1_555
O6 Rb4 3.001959 1_545
O7 P7 1.507253 1_555
O7 Rb7 2.936316 1_555
O7 Rb5 3.001959 1_655
O8 P0 1.587378 1_555
O8 Rb7 3.357374 1_555
O9 P1 1.587378 1_555
O9 Rb6 3.357374 1_555
O10 P2 1.587378 1_555
O10 Rb5 3.357374 1_555
O11 P3 1.587378 1_555
O11 Rb4 3.357374 1_555
O12 P4 1.587378 1_555
O12 Rb5 3.357374 1_555
O13 P5 1.587378 1_555
O13 Rb4 3.357374 1_555
O14 P6 1.587378 1_555
O14 Rb7 3.357374 1_555
O15 P7 1.587378 1_555
O15 Rb6 3.357374 1_555
O16 P0 1.517438 1_555
O16 Rb6 3.017579 1_555
O17 P1 1.517438 1_555
O17 Rb7 3.017579 1_555
O18 P2 1.517438 1_555
O18 Rb4 3.017579 1_554
O19 P3 1.517438 1_555
O19 Rb5 3.017579 1_556
O20 P4 1.517438 1_555
O20 Rb4 3.017579 1_555
O21 P5 1.517438 1_555
O21 Rb5 3.017579 1_555
O22 P6 1.517438 1_555
O22 Rb6 3.017579 1_556
O23 P7 1.517438 1_555
O23 Rb7 3.017579 1_554
O24 P6 1.637526 1_555
O24 P0 1.637526 1_555
O24 Rb7 2.916354 1_555
O25 P1 1.637526 1_555
O25 P7 1.637526 1_555
O25 Rb6 2.916354 1_555
O26 P4 1.637526 1_555
O26 P2 1.637526 1_555
O26 Rb5 2.916354 1_555
O27 P3 1.637526 1_555
O27 P5 1.637526 1_555
O27 Rb4 2.916354 1_555
O28 P13 1.642190 1_555
O28 P8 1.642190 1_555
O28 Rb2 3.178136 1_556
O28 Rb0 3.237937 1_555
O29 P12 1.642190 1_555
O29 P9 1.642190 1_555
O29 Rb3 3.178136 1_554
O29 Rb1 3.237937 1_555
O30 P10 1.642190 1_555
O30 P15 1.642190 1_555
O30 Rb0 3.178136 1_555
O30 Rb2 3.237937 1_555
O31 P11 1.642190 1_555
O31 P14 1.642190 1_555
O31 Rb1 3.178136 1_555
O31 Rb3 3.237937 1_555
O32 P8 1.519509 1_555
O32 Rb0 3.213865 1_555
O33 P9 1.519509 1_555
O33 Rb1 3.213865 1_555
O34 P10 1.519509 1_555
O34 Rb2 3.213865 1_555
O35 P11 1.519509 1_555
O35 Rb3 3.213865 1_555
O36 P12 1.519509 1_555
O36 Rb1 3.213865 1_555
O37 P13 1.519509 1_555
O37 Rb0 3.213865 1_555
O38 P14 1.519509 1_555
O38 Rb3 3.213865 1_555
O39 P15 1.519509 1_555
O39 Rb2 3.213865 1_555
O40 P8 1.500117 1_555
O40 Rb2 2.887981 1_555
O40 Rb3 3.093133 1_445
O41 P9 1.500117 1_555
O41 Rb3 2.887981 1_555
O41 Rb2 3.093133 1_665
O42 P10 1.500117 1_555
O42 Rb0 2.887981 1_554
O42 Rb1 3.093133 1_555
O43 P11 1.500117 1_555
O43 Rb1 2.887981 1_556
O43 Rb0 3.093133 1_555
O44 P12 1.500117 1_555
O44 Rb3 2.887981 1_555
O44 Rb2 3.093133 1_665
O45 P13 1.500117 1_555
O45 Rb2 2.887981 1_555
O45 Rb3 3.093133 1_445
O46 P14 1.500117 1_555
O46 Rb1 2.887981 1_556
O46 Rb0 3.093133 1_555
O47 P15 1.500117 1_555
O47 Rb0 2.887981 1_554
O47 Rb1 3.093133 1_555
O48 P8 1.582334 1_655
O48 Rb2 3.084587 1_656
O49 P9 1.582334 1_545
O49 Rb3 3.084587 1_544
O50 P10 1.582334 1_555
O50 Rb0 3.084587 1_555
O51 P11 1.582334 1_555
O51 Rb1 3.084587 1_555
O52 P12 1.582334 1_455
O52 Rb3 3.084587 1_454
O53 P13 1.582334 1_565
O53 Rb2 3.084587 1_566
O54 P14 1.582334 1_555
O54 Rb1 3.084587 1_555
O55 P15 1.582334 1_555
O55 Rb0 3.084587 1_555
