# generated using pymatgen
data_LaMnO3
_symmetry_space_group_name_H-M   'P 1'
_cell_length_a   6.84726183
_cell_length_b   6.84731895
_cell_length_c   6.87467870
_cell_angle_alpha   70.42832012
_cell_angle_beta   69.53676264
_cell_angle_gamma   108.22004504
_symmetry_Int_Tables_number   1
_chemical_formula_structural   LaMnO3
_chemical_formula_sum   'La4 Mn4 O12'
_cell_volume   248.53597537
_cell_formula_units_Z   4
loop_
 _symmetry_equiv_pos_site_id
 _symmetry_equiv_pos_as_xyz
  1  'x, y, z'
loop_
 _atom_site_type_symbol
 _atom_site_label
 _atom_site_symmetry_multiplicity
 _atom_site_fract_x
 _atom_site_fract_y
 _atom_site_fract_z
 _atom_site_occupancy
  La  La0  1  0.99987200  0.49981800  0.00009600  1
  La  La1  1  0.50000800  0.00006200  0.00006500  1
  La  La2  1  0.00015400  0.99998400  0.49993600  1
  La  La3  1  0.49999500  0.49992100  0.49998300  1
  Mn  Mn0  1  0.50010100  0.00011500  0.50007100  1
  Mn  Mn1  1  0.50004200  0.49997200  0.99992400  1
  Mn  Mn2  1  0.99980100  0.50001100  0.49997200  1
  Mn  Mn3  1  0.99997700  0.00001400  0.99996400  1
  O  O0  1  0.26067800  0.76075500  0.50002400  1
  O  O1  1  0.73929400  0.23937200  0.50000800  1
  O  O2  1  0.73861300  0.73853900  0.00000200  1
  O  O3  1  0.26144700  0.26138700  0.00000100  1
  O  O4  1  0.43564100  0.73724100  0.82714300  1
  O  O5  1  0.94906300  0.24269700  0.80818600  1
  O  O6  1  0.74365900  0.94241100  0.31404000  1
  O  O7  1  0.26315700  0.43769000  0.29909000  1
  O  O8  1  0.56436100  0.26279800  0.17284900  1
  O  O9  1  0.05086900  0.75724700  0.19183800  1
  O  O10  1  0.25647600  0.05771000  0.68592600  1
  O  O11  1  0.73679400  0.56225700  0.70088300  1
loop_
_geom_bond_atom_site_label_1
_geom_bond_atom_site_label_2
_geom_bond_distance
_geom_bond_site_symmetry_2
La0 O8 2.478506 1_555
La0 O4 2.480079 1_654
La0 O5 2.540752 1_554
La0 O9 2.541699 1_655
La0 O2 2.775028 1_555
La0 O3 2.775216 1_655
La0 O1 2.791325 1_555
La0 O0 2.792302 1_654
La1 O8 2.478630 1_555
La1 O4 2.479869 1_544
La1 O5 2.540844 1_554
La1 O9 2.541533 1_545
La1 O3 2.774515 1_555
La1 O2 2.775886 1_545
La1 O0 2.791619 1_545
La1 O1 2.792186 1_554
La2 O7 2.499187 1_565
La2 O11 2.499604 1_455
La2 O10 2.519007 1_565
La2 O6 2.519352 1_455
La2 O0 2.773609 1_555
La2 O1 2.776346 1_465
La2 O3 2.791677 1_565
La2 O2 2.792416 1_456
La3 O11 2.499338 1_555
La3 O7 2.499398 1_555
La3 O10 2.518350 1_555
La3 O6 2.520035 1_555
La3 O1 2.774114 1_555
La3 O0 2.775831 1_555
La3 O2 2.791924 1_555
La3 O3 2.792155 1_556
Mn0 O1 1.920289 1_555
Mn0 O0 1.922067 1_545
Mn0 O10 1.956906 1_555
Mn0 O6 1.957615 1_545
Mn0 O4 2.142024 1_545
Mn0 O8 2.142768 1_555
Mn1 O3 1.915135 1_556
Mn1 O2 1.915589 1_556
Mn1 O11 1.919952 1_555
Mn1 O7 1.920927 1_556
Mn1 O8 1.940227 1_556
Mn1 O4 1.940672 1_555
Mn2 O9 2.075852 1_655
Mn2 O5 2.077493 1_555
Mn2 O1 2.091783 1_555
Mn2 O0 2.094043 1_655
Mn2 O11 2.113699 1_555
Mn2 O7 2.115609 1_655
Mn3 O5 1.958807 1_555
Mn3 O9 1.959393 1_646
Mn3 O6 2.060281 1_546
Mn3 O10 2.060358 1_655
Mn3 O2 2.098571 1_546
Mn3 O3 2.098888 1_656
