# generated using pymatgen
data_ZnH12S2(NO2)4
_symmetry_space_group_name_H-M   'P 1'
_cell_length_a   10.77836300
_cell_length_b   13.44796800
_cell_length_c   8.36505200
_cell_angle_alpha   90.00000000
_cell_angle_beta   90.00000000
_cell_angle_gamma   90.00000000
_symmetry_Int_Tables_number   1
_chemical_formula_structural   ZnH12S2(NO2)4
_chemical_formula_sum   'Zn4 H48 S8 N16 O32'
_cell_volume   1212.48986744
_cell_formula_units_Z   4
loop_
 _symmetry_equiv_pos_site_id
 _symmetry_equiv_pos_as_xyz
  1  'x, y, z'
loop_
 _atom_site_type_symbol
 _atom_site_label
 _atom_site_symmetry_multiplicity
 _atom_site_fract_x
 _atom_site_fract_y
 _atom_site_fract_z
 _atom_site_occupancy
  Zn  Zn0  1  0.78190400  0.39922900  0.49606200  1
  Zn  Zn1  1  0.21809600  0.60077100  0.99606200  1
  Zn  Zn2  1  0.71809600  0.89922900  0.99606200  1
  Zn  Zn3  1  0.28190400  0.10077100  0.49606200  1
  H  H0  1  0.75982800  0.58126600  0.59355000  1
  H  H1  1  0.24017200  0.41873400  0.09355000  1
  H  H2  1  0.74017200  0.08126600  0.09355000  1
  H  H3  1  0.25982800  0.91873400  0.59355000  1
  H  H4  1  0.89304200  0.56674600  0.50215600  1
  H  H5  1  0.10695800  0.43325400  0.00215600  1
  H  H6  1  0.60695800  0.06674600  0.00215600  1
  H  H7  1  0.39304200  0.93325400  0.50215600  1
  H  H8  1  0.76431200  0.58132800  0.39606200  1
  H  H9  1  0.23568800  0.41867200  0.89606200  1
  H  H10  1  0.73568800  0.08132800  0.89606200  1
  H  H11  1  0.26431200  0.91867200  0.39606200  1
  H  H12  1  0.83466600  0.36911000  0.19988300  1
  H  H13  1  0.16533400  0.63089000  0.69988300  1
  H  H14  1  0.66533400  0.86911000  0.69988300  1
  H  H15  1  0.33466600  0.13089000  0.19988300  1
  H  H16  1  0.96231600  0.35369600  0.30388100  1
  H  H17  1  0.03768400  0.64630400  0.80388100  1
  H  H18  1  0.53768400  0.85369600  0.80388100  1
  H  H19  1  0.46231600  0.14630400  0.30388100  1
  H  H20  1  0.85917500  0.26375200  0.29363000  1
  H  H21  1  0.14082500  0.73624800  0.79363000  1
  H  H22  1  0.64082500  0.76375200  0.79363000  1
  H  H23  1  0.35917500  0.23624800  0.29363000  1
  H  H24  1  0.55014900  0.39125400  0.58125400  1
  H  H25  1  0.44985100  0.60874600  0.08125400  1
  H  H26  1  0.94985100  0.89125400  0.08125400  1
  H  H27  1  0.05014900  0.10874600  0.58125400  1
  H  H28  1  0.55948000  0.38931200  0.38181200  1
  H  H29  1  0.44052000  0.61068800  0.88181200  1
  H  H30  1  0.94052000  0.88931200  0.88181200  1
  H  H31  1  0.05948000  0.11068800  0.38181200  1
  H  H32  1  0.59284300  0.28858700  0.48489400  1
  H  H33  1  0.40715700  0.71141300  0.98489400  1
  H  H34  1  0.90715700  0.78858700  0.98489400  1
  H  H35  1  0.09284300  0.21141300  0.48489400  1
  H  H36  1  0.80626500  0.36233200  0.79838100  1
  H  H37  1  0.19373500  0.63766800  0.29838100  1
  H  H38  1  0.69373500  0.86233200  0.29838100  1
  H  H39  1  0.30626500  0.13766800  0.79838100  1
  H  H40  1  0.84184200  0.26235700  0.69914800  1
  H  H41  1  0.15815800  0.73764300  0.19914800  1
  H  H42  1  0.65815800  0.76235700  0.19914800  1
  H  H43  1  0.34184200  0.23764300  0.69914800  1
  H  H44  1  0.94501500  0.35338100  0.71457200  1
  H  H45  1  0.05498500  0.64661900  0.21457200  1
  H  H46  1  0.55498500  0.85338100  0.21457200  1
  H  H47  1  0.44501500  0.14661900  0.71457200  1
  S  S0  1  0.82732000  0.56989100  0.98441700  1
  S  S1  1  0.17268000  0.43010900  0.48441700  1
  S  S2  1  0.67268000  0.06989100  0.48441700  1
  S  S3  1  0.32732000  0.93010900  0.98441700  1
  S  S4  1  0.56908700  0.36682300  0.00117800  1
  S  S5  1  0.43091300  0.63317700  0.50117800  1
  S  S6  1  0.93091300  0.86682300  0.50117800  1
  S  S7  1  0.06908700  0.13317700  0.00117800  1
  N  N0  1  0.80082300  0.54876400  0.49636300  1
  N  N1  1  0.19917700  0.45123600  0.99636300  1
  N  N2  1  0.69917700  0.04876400  0.99636300  1
  N  N3  1  0.30082300  0.95123600  0.49636300  1
  N  N4  1  0.86841500  0.33922100  0.30393200  1
  N  N5  1  0.13158500  0.66077900  0.80393200  1
  N  N6  1  0.63158500  0.83922100  0.80393200  1
  N  N7  1  0.36841500  0.16077900  0.30393200  1
  N  N8  1  0.59952500  0.36443700  0.48578200  1
  N  N9  1  0.40047500  0.63556300  0.98578200  1
  N  N10  1  0.90047500  0.86443700  0.98578200  1
  N  N11  1  0.09952500  0.13556300  0.48578200  1
  N  N12  1  0.85292300  0.33810900  0.69853300  1
  N  N13  1  0.14707700  0.66189100  0.19853300  1
  N  N14  1  0.64707700  0.83810900  0.19853300  1
  N  N15  1  0.35292300  0.16189100  0.69853300  1
  O  O0  1  0.68983100  0.52716400  0.92288300  1
  O  O1  1  0.31016900  0.47283600  0.42288300  1
  O  O2  1  0.81016900  0.02716400  0.42288300  1
  O  O3  1  0.18983100  0.97283600  0.92288300  1
  O  O4  1  0.62644200  0.47852900  0.06281700  1
  O  O5  1  0.37355800  0.52147100  0.56281700  1
  O  O6  1  0.87355800  0.97852900  0.56281700  1
  O  O7  1  0.12644200  0.02147100  0.06281700  1
  O  O8  1  0.86024500  0.62184800  0.83592700  1
  O  O9  1  0.13975500  0.37815200  0.33592700  1
  O  O10  1  0.63975500  0.12184800  0.33592700  1
  O  O11  1  0.36024500  0.87815200  0.83592700  1
  O  O12  1  0.90472600  0.48370700  0.02107400  1
  O  O13  1  0.09527400  0.51629300  0.52107400  1
  O  O14  1  0.59527400  0.98370700  0.52107400  1
  O  O15  1  0.40472600  0.01629300  0.02107400  1
  O  O16  1  0.80380500  0.63528100  0.12001300  1
  O  O17  1  0.19619500  0.36471900  0.62001300  1
  O  O18  1  0.69619500  0.13528100  0.62001300  1
  O  O19  1  0.30380500  0.86471900  0.12001300  1
  O  O20  1  0.48834000  0.38860200  0.86640400  1
  O  O21  1  0.51166000  0.61139800  0.36640400  1
  O  O22  1  0.01166000  0.88860200  0.36640400  1
  O  O23  1  0.98834000  0.11139800  0.86640400  1
  O  O24  1  0.67707500  0.30572100  0.96336800  1
  O  O25  1  0.32292500  0.69427900  0.46336800  1
  O  O26  1  0.82292500  0.80572100  0.46336800  1
  O  O27  1  0.17707500  0.19427900  0.96336800  1
  O  O28  1  0.50677900  0.34328900  0.15142200  1
  O  O29  1  0.49322100  0.65671100  0.65142200  1
  O  O30  1  0.99322100  0.84328900  0.65142200  1
  O  O31  1  0.00677900  0.15671100  0.15142200  1
loop_
_geom_bond_atom_site_label_1
_geom_bond_atom_site_label_2
_geom_bond_distance
_geom_bond_site_symmetry_2
H0 N0 1.023333 1_555
H1 N1 1.023333 1_554
H2 N2 1.023333 1_554
H3 N3 1.023333 1_555
H4 N0 1.024110 1_555
H5 N1 1.024110 1_554
H6 N2 1.024110 1_554
H7 N3 1.024110 1_555
H8 N0 1.024987 1_555
H9 N1 1.024987 1_555
H10 N2 1.024987 1_555
H11 N3 1.024987 1_555
H12 N4 1.025395 1_555
H13 N5 1.025395 1_555
H14 N6 1.025395 1_555
H15 N7 1.025395 1_555
H16 N4 1.030649 1_555
H17 N5 1.030649 1_555
H18 N6 1.030649 1_555
H19 N7 1.030649 1_555
H20 N4 1.023414 1_555
H21 N5 1.023414 1_555
H22 N6 1.023414 1_555
H23 N7 1.023414 1_555
H24 N8 1.025228 1_555
H25 N9 1.025228 1_554
H26 N10 1.025228 1_554
H27 N11 1.025228 1_555
H28 N8 1.026938 1_555
H29 N9 1.026938 1_555
H30 N10 1.026938 1_555
H31 N11 1.026938 1_555
H32 N8 1.022595 1_555
H33 N9 1.022595 1_555
H34 N10 1.022595 1_555
H35 N11 1.022595 1_555
H36 N12 1.027927 1_555
H37 N13 1.027927 1_555
H38 N14 1.027927 1_555
H39 N15 1.027927 1_555
H40 N12 1.025701 1_555
H41 N13 1.025701 1_555
H42 N14 1.025701 1_555
H43 N15 1.025701 1_555
H44 N12 1.022466 1_555
H45 N13 1.022466 1_555
H46 N14 1.022466 1_555
H47 N15 1.022466 1_555
N0 Zn0 2.021256 1_555
N1 Zn1 2.021256 1_555
N2 Zn2 2.021256 1_545
N3 Zn3 2.021256 1_565
N4 Zn0 2.025760 1_555
N5 Zn1 2.025760 1_555
N6 Zn2 2.025760 1_555
N7 Zn3 2.025760 1_555
N8 Zn0 2.022491 1_555
N9 Zn1 2.022491 1_555
N10 Zn2 2.022491 1_555
N11 Zn3 2.022491 1_555
N12 Zn0 2.032260 1_555
N13 Zn1 2.032260 1_554
N14 Zn2 2.032260 1_554
N15 Zn3 2.032260 1_555
O0 O4 1.504916 1_556
O0 S0 1.670675 1_555
O1 O5 1.504916 1_555
O1 S1 1.670675 1_555
O2 O6 1.504916 1_545
O2 S2 1.670675 1_555
O3 O7 1.504916 1_566
O3 S3 1.670675 1_555
O4 S4 1.704312 1_555
O5 S5 1.704312 1_555
O6 S6 1.704312 1_555
O7 S7 1.704312 1_555
O8 S0 1.468680 1_555
O9 S1 1.468680 1_555
O10 S2 1.468680 1_555
O11 S3 1.468680 1_555
O12 S0 1.460609 1_554
O13 S1 1.460609 1_555
O14 S2 1.460609 1_565
O15 S3 1.460609 1_544
O16 S0 1.457422 1_554
O17 S1 1.457422 1_555
O18 S2 1.457422 1_555
O19 S3 1.457422 1_554
O20 S4 1.454046 1_556
O21 S5 1.454046 1_555
O22 S6 1.454046 1_455
O23 S7 1.454046 1_656
O24 S4 1.459440 1_556
O25 S5 1.459440 1_555
O26 S6 1.459440 1_555
O27 S7 1.459440 1_556
O28 S4 1.459700 1_555
O29 S5 1.459700 1_555
O30 S6 1.459700 1_555
O31 S7 1.459700 1_555
