# generated using pymatgen
data_CsCoPO4
_symmetry_space_group_name_H-M   'P 1'
_cell_length_a   5.56354200
_cell_length_b   9.51591201
_cell_length_c   18.72744148
_cell_angle_alpha   90.37260354
_cell_angle_beta   90.00000000
_cell_angle_gamma   90.00000000
_symmetry_Int_Tables_number   1
_chemical_formula_structural   CsCoPO4
_chemical_formula_sum   'Cs8 Co8 P8 O32'
_cell_volume   991.45054008
_cell_formula_units_Z   8
loop_
 _symmetry_equiv_pos_site_id
 _symmetry_equiv_pos_as_xyz
  1  'x, y, z'
loop_
 _atom_site_type_symbol
 _atom_site_label
 _atom_site_symmetry_multiplicity
 _atom_site_fract_x
 _atom_site_fract_y
 _atom_site_fract_z
 _atom_site_occupancy
  Cs  Cs0  1  0.25704500  0.20662700  0.50399800  1
  Cs  Cs1  1  0.75704500  0.79337300  0.99600200  1
  Cs  Cs2  1  0.74295500  0.79337300  0.49600200  1
  Cs  Cs3  1  0.24295500  0.20662700  0.00399800  1
  Cs  Cs4  1  0.76707400  0.69014100  0.74959300  1
  Cs  Cs5  1  0.26707400  0.30985900  0.75040700  1
  Cs  Cs6  1  0.23292600  0.30985900  0.25040700  1
  Cs  Cs7  1  0.73292600  0.69014100  0.24959300  1
  Co  Co0  1  0.24294100  0.58380100  0.58799500  1
  Co  Co1  1  0.74294100  0.41619900  0.91200500  1
  Co  Co2  1  0.75705900  0.41619900  0.41200500  1
  Co  Co3  1  0.25705900  0.58380100  0.08799500  1
  Co  Co4  1  0.77518300  0.08909100  0.66744900  1
  Co  Co5  1  0.27518300  0.91090900  0.83255100  1
  Co  Co6  1  0.22481700  0.91090900  0.33255100  1
  Co  Co7  1  0.72481700  0.08909100  0.16744900  1
  P  P0  1  0.74527100  0.41728400  0.59661700  1
  P  P1  1  0.24527100  0.58271600  0.90338300  1
  P  P2  1  0.25472900  0.58271600  0.40338300  1
  P  P3  1  0.75472900  0.41728400  0.09661700  1
  P  P4  1  0.77304300  0.09352700  0.84577000  1
  P  P5  1  0.27304300  0.90647300  0.65423000  1
  P  P6  1  0.22695700  0.90647300  0.15423000  1
  P  P7  1  0.72695700  0.09352700  0.34577000  1
  O  O0  1  0.24999700  0.56089900  0.48444100  1
  O  O1  1  0.74999700  0.43910100  0.01555900  1
  O  O2  1  0.75000300  0.43910100  0.51555900  1
  O  O3  1  0.25000300  0.56089900  0.98444100  1
  O  O4  1  0.29300300  0.74122400  0.38773500  1
  O  O5  1  0.79300300  0.25877600  0.11226500  1
  O  O6  1  0.70699700  0.25877600  0.61226500  1
  O  O7  1  0.20699700  0.74122400  0.88773500  1
  O  O8  1  0.46340400  0.49531600  0.36905100  1
  O  O9  1  0.96340400  0.50468400  0.13094900  1
  O  O10  1  0.53659600  0.50468400  0.63094900  1
  O  O11  1  0.03659600  0.49531600  0.86905100  1
  O  O12  1  0.48520700  0.53024700  0.86871500  1
  O  O13  1  0.98520700  0.46975300  0.63128500  1
  O  O14  1  0.51479300  0.46975300  0.13128500  1
  O  O15  1  0.01479300  0.53024700  0.36871500  1
  O  O16  1  0.75202100  0.14741400  0.76773700  1
  O  O17  1  0.25202100  0.85258600  0.73226300  1
  O  O18  1  0.24797900  0.85258600  0.23226300  1
  O  O19  1  0.74797900  0.14741400  0.26773700  1
  O  O20  1  0.30367800  0.78649300  0.10267900  1
  O  O21  1  0.80367800  0.21350700  0.39732100  1
  O  O22  1  0.69632200  0.21350700  0.89732100  1
  O  O23  1  0.19632200  0.78649300  0.60267900  1
  O  O24  1  0.60570100  0.96447500  0.85878500  1
  O  O25  1  0.10570100  0.03552500  0.64121500  1
  O  O26  1  0.39429900  0.03552500  0.14121500  1
  O  O27  1  0.89429900  0.96447500  0.35878500  1
  O  O28  1  0.03651900  0.05153800  0.86334400  1
  O  O29  1  0.53651900  0.94846200  0.63665600  1
  O  O30  1  0.96348100  0.94846200  0.13665600  1
  O  O31  1  0.46348100  0.05153800  0.36334400  1
loop_
_geom_bond_atom_site_label_1
_geom_bond_atom_site_label_2
_geom_bond_distance
_geom_bond_site_symmetry_2
Cs0 O25 3.165104 1_555
Cs0 O21 3.218582 1_455
Cs0 O31 3.222573 1_555
Cs0 O6 3.257427 1_555
Cs0 O0 3.393651 1_555
Cs1 O24 3.165104 1_555
Cs1 O20 3.218582 1_556
Cs1 O30 3.222573 1_556
Cs1 O7 3.257427 1_655
Cs1 O1 3.393651 1_556
Cs2 O27 3.165104 1_555
Cs2 O23 3.218582 1_655
Cs2 O29 3.222573 1_555
Cs2 O4 3.257427 1_555
Cs2 O2 3.393651 1_555
Cs3 O26 3.165104 1_555
Cs3 O22 3.218582 1_554
Cs3 O28 3.222573 1_554
Cs3 O5 3.257427 1_455
Cs3 O3 3.393651 1_554
Cs4 O10 3.105568 1_555
Cs4 O17 3.127414 1_655
Cs4 O12 3.129713 1_555
Cs4 O17 3.273009 1_555
Cs4 O13 3.274065 1_555
Cs4 O11 3.277854 1_655
Cs4 O24 3.425361 1_555
Cs4 O29 3.496972 1_555
Cs4 O7 3.592095 1_655
Cs5 O11 3.105568 1_555
Cs5 O16 3.127414 1_555
Cs5 O13 3.129713 1_455
Cs5 O16 3.273009 1_455
Cs5 O12 3.274065 1_555
Cs5 O10 3.277854 1_555
Cs5 O25 3.425361 1_555
Cs5 O28 3.496972 1_555
Cs5 O6 3.592095 1_555
Cs6 O8 3.105568 1_555
Cs6 O19 3.127414 1_455
Cs6 O14 3.129713 1_555
Cs6 O19 3.273009 1_555
Cs6 O15 3.274065 1_555
Cs6 O9 3.277854 1_455
Cs6 O26 3.425361 1_555
Cs6 O31 3.496972 1_555
Cs6 O5 3.592095 1_455
Cs7 O9 3.105568 1_555
Cs7 O18 3.127414 1_555
Cs7 O15 3.129713 1_655
Cs7 O18 3.273009 1_655
Cs7 O14 3.274065 1_555
Cs7 O8 3.277854 1_555
Cs7 O27 3.425361 1_555
Cs7 O30 3.496972 1_555
Cs7 O4 3.592095 1_555
Co0 O0 1.950495 1_555
Co0 O23 1.963736 1_555
Co0 O10 1.972551 1_555
Co0 O13 1.975504 1_455
Co1 O1 1.950495 1_556
Co1 O22 1.963736 1_555
Co1 O11 1.972551 1_655
Co1 O12 1.975504 1_555
Co2 O2 1.950495 1_555
Co2 O21 1.963736 1_555
Co2 O8 1.972551 1_555
Co2 O15 1.975504 1_655
Co3 O3 1.950495 1_554
Co3 O20 1.963736 1_555
Co3 O9 1.972551 1_455
Co3 O14 1.975504 1_555
Co4 O16 1.959202 1_555
Co4 O6 1.959828 1_555
Co4 O29 1.968865 1_545
Co4 O25 1.969597 1_655
Co5 O17 1.959202 1_555
Co5 O7 1.959828 1_555
Co5 O28 1.968865 1_565
Co5 O24 1.969597 1_555
Co6 O18 1.959202 1_555
Co6 O4 1.959828 1_555
Co6 O31 1.968865 1_565
Co6 O27 1.969597 1_455
Co7 O19 1.959202 1_555
Co7 O5 1.959828 1_555
Co7 O30 1.968865 1_545
Co7 O26 1.969597 1_555
O0 P2 1.533703 1_555
O1 P3 1.533703 1_555
O2 P0 1.533703 1_555
O3 P1 1.533703 1_555
O4 P2 1.553088 1_555
O5 P3 1.553088 1_555
O6 P0 1.553088 1_555
O7 P1 1.553088 1_555
O8 P2 1.563968 1_555
O9 P3 1.563968 1_555
O10 P0 1.563968 1_555
O11 P1 1.563968 1_555
O12 P1 1.564779 1_555
O13 P0 1.564779 1_555
O14 P3 1.564779 1_555
O15 P2 1.564779 1_555
O16 P4 1.556259 1_555
O17 P5 1.556259 1_555
O18 P6 1.556259 1_555
O19 P7 1.556259 1_555
O20 P6 1.550294 1_555
O21 P7 1.550294 1_555
O22 P4 1.550294 1_555
O23 P5 1.550294 1_555
O24 P4 1.561470 1_565
O25 P5 1.561470 1_545
O26 P6 1.561470 1_545
O27 P7 1.561470 1_565
O28 P4 1.555128 1_455
O29 P5 1.555128 1_555
O30 P6 1.555128 1_655
O31 P7 1.555128 1_555
