# generated using pymatgen
data_Li9Mn2Co5O16
_symmetry_space_group_name_H-M   'P 1'
_cell_length_a   5.93586000
_cell_length_b   6.45420337
_cell_length_c   7.86669307
_cell_angle_alpha   87.79933821
_cell_angle_beta   104.49794894
_cell_angle_gamma   103.32310890
_symmetry_Int_Tables_number   1
_chemical_formula_structural   Li9Mn2Co5O16
_chemical_formula_sum   'Li9 Mn2 Co5 O16'
_cell_volume   283.87312313
_cell_formula_units_Z   1
loop_
 _symmetry_equiv_pos_site_id
 _symmetry_equiv_pos_as_xyz
  1  'x, y, z'
loop_
 _atom_site_type_symbol
 _atom_site_label
 _atom_site_symmetry_multiplicity
 _atom_site_fract_x
 _atom_site_fract_y
 _atom_site_fract_z
 _atom_site_occupancy
  Li  Li0  1  0.87683000  0.87341100  0.61723000  1
  Li  Li1  1  0.87573800  0.38297000  0.12936200  1
  Li  Li2  1  0.11532200  0.13142900  0.38654600  1
  Li  Li3  1  0.10911200  0.60561400  0.86676400  1
  Li  Li4  1  0.38140100  0.37866800  0.12231400  1
  Li  Li5  1  0.38071100  0.88199800  0.62689300  1
  Li  Li6  1  0.62433900  0.61601900  0.86760700  1
  Li  Li7  1  0.63020800  0.12964600  0.37794900  1
  Li  Li8  1  0.74802200  0.25546500  0.74887400  1
  Mn  Mn0  1  0.00249900  0.99706500  0.99471000  1
  Mn  Mn1  1  0.50609000  0.99770600  0.99614800  1
  Co  Co0  1  0.99145400  0.50127500  0.50737500  1
  Co  Co1  1  0.24951600  0.24941400  0.74783100  1
  Co  Co2  1  0.25387100  0.74677500  0.25095600  1
  Co  Co3  1  0.49651500  0.50448300  0.50515300  1
  Co  Co4  1  0.75148400  0.74966900  0.25155900  1
  O  O0  1  0.68385100  0.94287100  0.83740500  1
  O  O1  1  0.70525900  0.45631500  0.31834000  1
  O  O2  1  0.95787300  0.20664200  0.57135600  1
  O  O3  1  0.96171400  0.69767700  0.06830600  1
  O  O4  1  0.20540800  0.45548200  0.32067100  1
  O  O5  1  0.21397800  0.95048300  0.81138900  1
  O  O6  1  0.46112300  0.70312800  0.07004800  1
  O  O7  1  0.41701600  0.21487800  0.57893800  1
  O  O8  1  0.04470700  0.79634900  0.42797200  1
  O  O9  1  0.08078100  0.28848200  0.92139400  1
  O  O10  1  0.31931700  0.03974900  0.16880700  1
  O  O11  1  0.28477100  0.54254500  0.68602200  1
  O  O12  1  0.53970100  0.29152900  0.93183400  1
  O  O13  1  0.54362000  0.80026400  0.43187600  1
  O  O14  1  0.79042200  0.56217700  0.67345500  1
  O  O15  1  0.79734600  0.04982000  0.18491600  1
loop_
_geom_bond_atom_site_label_1
_geom_bond_atom_site_label_2
_geom_bond_distance
_geom_bond_site_symmetry_2
Li0 O14 2.016024 1_555
Li0 O13 2.107026 1_555
Li0 O8 2.117815 1_655
Li0 O2 2.130212 1_565
Li0 O5 2.157427 1_655
Li0 O0 2.408911 1_555
Li1 O3 2.046192 1_555
Li1 O4 2.114420 1_655
Li1 O1 2.118076 1_555
Li1 O15 2.144638 1_555
Li1 O12 2.171998 1_554
Li1 O9 2.438343 1_654
Li2 O7 2.012152 1_555
Li2 O2 2.041175 1_455
Li2 O15 2.112544 1_455
Li2 O4 2.113986 1_555
Li2 O8 2.134369 1_545
Li2 O10 2.489359 1_555
Li3 O9 2.052435 1_555
Li3 O11 2.063222 1_555
Li3 O14 2.077891 1_455
Li3 O3 2.153785 1_456
Li3 O5 2.225847 1_555
Li3 O6 2.262210 1_556
Li4 O9 2.049642 1_554
Li4 O6 2.086370 1_555
Li4 O1 2.110863 1_555
Li4 O12 2.111363 1_554
Li4 O10 2.165419 1_555
Li4 O4 2.210501 1_555
Li5 O5 2.061910 1_555
Li5 O0 2.089686 1_555
Li5 O7 2.137702 1_565
Li5 O13 2.146395 1_555
Li5 O8 2.174367 1_555
Li5 O11 2.195460 1_555
Li6 O0 2.071616 1_555
Li6 O14 2.092356 1_555
Li6 O12 2.110634 1_555
Li6 O11 2.120858 1_555
Li6 O3 2.185252 1_556
Li6 O6 2.209801 1_556
Li7 O1 2.111735 1_555
Li7 O2 2.115586 1_555
Li7 O13 2.121298 1_545
Li7 O10 2.123367 1_555
Li7 O15 2.146075 1_555
Li7 O7 2.406957 1_555
Li8 O14 2.022135 1_555
Li8 O7 2.047135 1_555
Li8 O9 2.067555 1_655
Li8 O0 2.090775 1_545
Li8 O2 2.164890 1_555
Li8 O12 2.168946 1_555
Mn0 O9 1.932430 1_565
Mn0 O0 1.946192 1_455
Mn0 O3 1.973901 1_456
Mn0 O10 1.997209 1_566
Mn0 O5 2.204446 1_555
Mn0 O15 2.231661 1_466
Mn1 O0 1.914128 1_555
Mn1 O12 1.922125 1_565
Mn1 O5 1.934049 1_555
Mn1 O6 1.944979 1_556
Mn1 O15 1.947347 1_566
Mn1 O10 2.017060 1_566
Co0 O11 1.915011 1_655
Co0 O2 1.926462 1_555
Co0 O1 1.929415 1_555
Co0 O8 1.961412 1_655
Co0 O14 2.078853 1_555
Co0 O4 2.235562 1_655
Co1 O7 1.894673 1_555
Co1 O2 1.899016 1_455
Co1 O11 1.912440 1_555
Co1 O12 1.924104 1_555
Co1 O9 1.938694 1_555
Co1 O5 1.951428 1_545
Co2 O13 1.908233 1_555
Co2 O4 1.915388 1_555
Co2 O3 1.925225 1_455
Co2 O10 1.958927 1_565
Co2 O8 2.160085 1_555
Co2 O6 2.164546 1_555
Co3 O14 1.875404 1_555
Co3 O7 1.923718 1_555
Co3 O4 1.928690 1_555
Co3 O13 1.950653 1_555
Co3 O11 2.174658 1_555
Co3 O1 2.217214 1_555
Co4 O8 1.904517 1_655
Co4 O6 1.913587 1_555
Co4 O1 1.921578 1_555
Co4 O15 1.962713 1_565
Co4 O13 2.176867 1_555
Co4 O3 2.208827 1_555
