# generated using pymatgen
data_Ca3CoO6
_symmetry_space_group_name_H-M   'P 1'
_cell_length_a   8.81330215
_cell_length_b   8.85479463
_cell_length_c   9.21146830
_cell_angle_alpha   61.24000624
_cell_angle_beta   90.45491812
_cell_angle_gamma   120.17593393
_symmetry_Int_Tables_number   1
_chemical_formula_structural   Ca3CoO6
_chemical_formula_sum   'Ca12 Co4 O24'
_cell_volume   518.18797533
_cell_formula_units_Z   4
loop_
 _symmetry_equiv_pos_site_id
 _symmetry_equiv_pos_as_xyz
  1  'x, y, z'
loop_
 _atom_site_type_symbol
 _atom_site_label
 _atom_site_symmetry_multiplicity
 _atom_site_fract_x
 _atom_site_fract_y
 _atom_site_fract_z
 _atom_site_occupancy
  Ca  Ca0  1  0.77820000  0.25311400  0.62632300  1
  Ca  Ca1  1  0.27036500  0.25131300  0.12410200  1
  Ca  Ca2  1  0.47296500  0.60178900  0.62311200  1
  Ca  Ca3  1  0.97841300  0.60417300  0.12690600  1
  Ca  Ca4  1  0.37288200  0.10045400  0.87400700  1
  Ca  Ca5  1  0.87741100  0.10244500  0.37603000  1
  Ca  Ca6  1  0.72414900  0.74705100  0.87672800  1
  Ca  Ca7  1  0.22459800  0.75060600  0.37518400  1
  Ca  Ca8  1  0.02647300  0.40187700  0.87448400  1
  Ca  Ca9  1  0.52472100  0.39900800  0.37316500  1
  Ca  Ca10  1  0.12462800  0.88851300  0.62495800  1
  Ca  Ca11  1  0.62552900  0.90100900  0.12475700  1
  Co  Co0  1  0.50543100  0.99892100  0.50780200  1
  Co  Co1  1  0.25652300  0.50510700  0.24213600  1
  Co  Co2  1  0.99357400  0.99000500  0.00768100  1
  Co  Co3  1  0.74435500  0.50069300  0.74236600  1
  O  O0  1  0.52600300  0.41888300  0.89181200  1
  O  O1  1  0.03615300  0.41890100  0.39719100  1
  O  O2  1  0.06108800  0.91942300  0.85674300  1
  O  O3  1  0.56292200  0.93901900  0.35998100  1
  O  O4  1  0.88193100  0.56717900  0.89849300  1
  O  O5  1  0.37670600  0.56487100  0.38886500  1
  O  O6  1  0.81313900  0.76533900  0.61595700  1
  O  O7  1  0.31828700  0.78055200  0.11171300  1
  O  O8  1  0.64472600  0.92993900  0.63877900  1
  O  O9  1  0.13514100  0.93371100  0.13313700  1
  O  O10  1  0.60637500  0.42380200  0.61038000  1
  O  O11  1  0.11450800  0.43205800  0.11670800  1
  O  O12  1  0.68722600  0.23623800  0.88972800  1
  O  O13  1  0.18823600  0.21594000  0.39400800  1
  O  O14  1  0.21471500  0.27971600  0.85205000  1
  O  O15  1  0.72198800  0.28399200  0.35780000  1
  O  O16  1  0.29255200  0.72392300  0.63822300  1
  O  O17  1  0.78752400  0.72257200  0.14096700  1
  O  O18  1  0.43627600  0.06781900  0.63475000  1
  O  O19  1  0.93295500  0.07433400  0.13838800  1
  O  O20  1  0.87482200  0.07751400  0.86068400  1
  O  O21  1  0.36633200  0.08218700  0.35279200  1
  O  O22  1  0.95846200  0.57024700  0.61249800  1
  O  O23  1  0.46171600  0.57576200  0.10861100  1
loop_
_geom_bond_atom_site_label_1
_geom_bond_atom_site_label_2
_geom_bond_distance
_geom_bond_site_symmetry_2
Ca0 O1 2.348994 1_655
Ca0 O22 2.366423 1_555
Ca0 O20 2.423867 1_555
Ca0 O8 2.426519 1_545
Ca0 O15 2.429872 1_555
Ca0 O12 2.472627 1_555
Ca0 O10 2.585149 1_555
Ca0 O18 2.586438 1_555
Ca1 O0 2.348781 1_554
Ca1 O21 2.367495 1_555
Ca1 O9 2.396497 1_545
Ca1 O13 2.419641 1_555
Ca1 O23 2.420067 1_555
Ca1 O14 2.466136 1_554
Ca1 O19 2.537502 1_455
Ca1 O11 2.560595 1_555
Ca2 O14 2.350366 1_555
Ca2 O16 2.365217 1_555
Ca2 O0 2.419303 1_555
Ca2 O5 2.419380 1_555
Ca2 O10 2.433742 1_555
Ca2 O3 2.471029 1_555
Ca2 O6 2.576121 1_555
Ca2 O8 2.594907 1_555
Ca3 O15 2.345513 1_555
Ca3 O4 2.368976 1_554
Ca3 O11 2.397390 1_655
Ca3 O2 2.411540 1_654
Ca3 O17 2.419411 1_555
Ca3 O1 2.457188 1_655
Ca3 O7 2.554317 1_655
Ca3 O9 2.556135 1_655
Ca4 O7 2.393312 1_546
Ca4 O10 2.407279 1_555
Ca4 O9 2.417805 1_546
Ca4 O12 2.440135 1_555
Ca4 O2 2.440504 1_545
Ca4 O18 2.459186 1_555
Ca4 O0 2.532689 1_555
Ca4 O14 2.532729 1_555
Ca5 O19 2.399439 1_555
Ca5 O8 2.401812 1_545
Ca5 O11 2.414568 1_655
Ca5 O13 2.434538 1_655
Ca5 O3 2.442404 1_545
Ca5 O6 2.467252 1_545
Ca5 O1 2.535249 1_655
Ca5 O15 2.537534 1_555
Ca6 O8 2.369879 1_555
Ca6 O23 2.376268 1_556
Ca6 O17 2.424022 1_556
Ca6 O6 2.437062 1_555
Ca6 O0 2.454946 1_555
Ca6 O20 2.455268 1_565
Ca6 O2 2.522593 1_655
Ca6 O4 2.534873 1_555
Ca7 O22 2.405586 1_455
Ca7 O7 2.415503 1_555
Ca7 O16 2.419429 1_555
Ca7 O1 2.440242 1_555
Ca7 O21 2.440846 1_565
Ca7 O9 2.449505 1_555
Ca7 O3 2.544526 1_555
Ca7 O5 2.555824 1_555
Ca8 O16 2.398689 1_555
Ca8 O22 2.412285 1_455
Ca8 O19 2.417589 1_456
Ca8 O11 2.447385 1_556
Ca8 O14 2.447422 1_555
Ca8 O4 2.450444 1_455
Ca8 O12 2.551521 1_455
Ca8 O20 2.557600 1_455
Ca9 O10 2.370352 1_555
Ca9 O17 2.378782 1_555
Ca9 O23 2.424572 1_555
Ca9 O18 2.438398 1_555
Ca9 O15 2.450012 1_555
Ca9 O5 2.452169 1_555
Ca9 O13 2.517106 1_555
Ca9 O21 2.533683 1_555
Ca10 O2 2.383796 1_555
Ca10 O13 2.386556 1_565
Ca10 O6 2.409595 1_455
Ca10 O18 2.413060 1_565
Ca10 O21 2.457445 1_565
Ca10 O4 2.467405 1_455
Ca10 O22 2.501900 1_455
Ca10 O16 2.514640 1_555
Ca11 O7 2.387255 1_555
Ca11 O19 2.389960 1_565
Ca11 O12 2.450719 1_564
Ca11 O3 2.453573 1_555
Ca11 O5 2.478236 1_555
Ca11 O20 2.482203 1_564
Ca11 O17 2.567979 1_555
Ca11 O23 2.574799 1_555
Co0 O18 1.784023 1_565
Co0 O8 1.832219 1_555
Co0 O3 1.835295 1_555
Co0 O16 1.876342 1_555
Co0 O15 1.940606 1_565
Co0 O21 1.988248 1_565
Co1 O11 1.789451 1_555
Co1 O5 1.825050 1_555
Co1 O23 1.825389 1_555
Co1 O7 1.882657 1_555
Co1 O13 1.973006 1_555
Co1 O1 1.974654 1_555
Co2 O9 1.785684 1_655
Co2 O20 1.820001 1_564
Co2 O17 1.824102 1_555
Co2 O19 1.889192 1_565
Co2 O2 1.975081 1_654
Co2 O14 1.978314 1_664
Co3 O6 1.781046 1_555
Co3 O12 1.829320 1_555
Co3 O10 1.833361 1_555
Co3 O22 1.878733 1_555
Co3 O0 1.950422 1_555
Co3 O4 1.988587 1_555
