# generated using pymatgen
data_AlPO4
_symmetry_space_group_name_H-M   'P 1'
_cell_length_a   16.59316362
_cell_length_b   16.59316362
_cell_length_c   16.59316362
_cell_angle_alpha   149.84104817
_cell_angle_beta   126.03653120
_cell_angle_gamma   63.06779450
_symmetry_Int_Tables_number   1
_chemical_formula_structural   AlPO4
_chemical_formula_sum   'Al16 P16 O64'
_cell_volume   1838.52274639
_cell_formula_units_Z   16
loop_
 _symmetry_equiv_pos_site_id
 _symmetry_equiv_pos_as_xyz
  1  'x, y, z'
loop_
 _atom_site_type_symbol
 _atom_site_label
 _atom_site_symmetry_multiplicity
 _atom_site_fract_x
 _atom_site_fract_y
 _atom_site_fract_z
 _atom_site_occupancy
  Al  Al0  1  0.12956400  0.38204200  0.06713800  1
  Al  Al1  1  0.87043600  0.93757400  0.25247800  1
  Al  Al2  1  0.31490400  0.88204200  0.75247800  1
  Al  Al3  1  0.68509600  0.43757400  0.56713800  1
  Al  Al4  1  0.22456600  0.98422700  0.55537500  1
  Al  Al5  1  0.77543400  0.33080900  0.75966100  1
  Al  Al6  1  0.42885200  0.48422700  0.25966100  1
  Al  Al7  1  0.57114800  0.83080900  0.05537500  1
  Al  Al8  1  0.04010000  0.10041000  0.24970700  1
  Al  Al9  1  0.95990000  0.20960600  0.06031000  1
  Al  Al10  1  0.85070300  0.60041000  0.56031000  1
  Al  Al11  1  0.14929700  0.70960600  0.74970700  1
  Al  Al12  1  0.63971500  0.01837500  0.93295700  1
  Al  Al13  1  0.36028500  0.29324200  0.37866000  1
  Al  Al14  1  0.08541800  0.51837500  0.87866000  1
  Al  Al15  1  0.91458200  0.79324200  0.43295700  1
  P  P0  1  0.12158000  0.75399000  0.43355500  1
  P  P1  1  0.87842000  0.31197500  0.63241000  1
  P  P2  1  0.32043500  0.25399000  0.13241000  1
  P  P3  1  0.67956500  0.81197500  0.93355500  1
  P  P4  1  0.23268700  0.36027700  0.93584000  1
  P  P5  1  0.76731300  0.70315300  0.12759000  1
  P  P6  1  0.42443700  0.86027700  0.62759000  1
  P  P7  1  0.57556300  0.20315300  0.43584000  1
  P  P8  1  0.07849000  0.89016300  0.24641800  1
  P  P9  1  0.92151000  0.16792900  0.81167300  1
  P  P10  1  0.64374400  0.39016300  0.31167300  1
  P  P11  1  0.35625600  0.66792900  0.74641800  1
  P  P12  1  0.84533600  0.98003700  0.93222700  1
  P  P13  1  0.15466400  0.08689100  0.13470100  1
  P  P14  1  0.04781000  0.48003700  0.63470100  1
  P  P15  1  0.95219000  0.58689100  0.43222700  1
  O  O0  1  0.14224700  0.88570100  0.49441700  1
  O  O1  1  0.85775300  0.35217000  0.74345300  1
  O  O2  1  0.39128300  0.38570100  0.24345300  1
  O  O3  1  0.60871700  0.85217000  0.99441700  1
  O  O4  1  0.19006400  0.79815800  0.58567200  1
  O  O5  1  0.80993600  0.39560800  0.60809400  1
  O  O6  1  0.21248600  0.29815800  0.10809400  1
  O  O7  1  0.78751400  0.89560800  0.08567200  1
  O  O8  1  0.01150700  0.73954000  0.38277600  1
  O  O9  1  0.98849300  0.37126900  0.72803300  1
  O  O10  1  0.35676400  0.23954000  0.22803300  1
  O  O11  1  0.64323600  0.87126900  0.88277600  1
  O  O12  1  0.14222000  0.59140100  0.26981700  1
  O  O13  1  0.85778000  0.12759600  0.44918100  1
  O  O14  1  0.32158500  0.09140100  0.94918100  1
  O  O15  1  0.67841500  0.62759600  0.76981700  1
  O  O16  1  0.16104400  0.34683100  0.95509900  1
  O  O17  1  0.83895600  0.79405500  0.18578700  1
  O  O18  1  0.39173200  0.84683100  0.68578700  1
  O  O19  1  0.60826800  0.29405500  0.45509900  1
  O  O20  1  0.19765900  0.47501600  0.95102900  1
  O  O21  1  0.80234100  0.75337000  0.27735600  1
  O  O22  1  0.52398600  0.97501600  0.77735600  1
  O  O23  1  0.47601400  0.25337000  0.45102900  1
  O  O24  1  0.23194200  0.19237500  0.75282700  1
  O  O25  1  0.76805800  0.52088500  0.96043300  1
  O  O26  1  0.43954800  0.69237500  0.46043300  1
  O  O27  1  0.56045200  0.02088500  0.25282700  1
  O  O28  1  0.34452600  0.92710800  0.58672900  1
  O  O29  1  0.65547400  0.24220300  0.58258100  1
  O  O30  1  0.34037800  0.42710800  0.08258100  1
  O  O31  1  0.65962200  0.74220300  0.08672900  1
  O  O32  1  0.17888200  0.93286700  0.38729200  1
  O  O33  1  0.82111800  0.20841000  0.75398400  1
  O  O34  1  0.54557400  0.43286700  0.25398400  1
  O  O35  1  0.45442600  0.70841000  0.88729200  1
  O  O36  1  0.99276000  0.93359400  0.28724900  1
  O  O37  1  0.00724000  0.29448800  0.94083400  1
  O  O38  1  0.64634600  0.43359400  0.44083400  1
  O  O39  1  0.35365400  0.79448800  0.78724900  1
  O  O40  1  0.06056900  0.70856100  0.05980100  1
  O  O41  1  0.93943100  0.99923100  0.64799200  1
  O  O42  1  0.64876100  0.20856100  0.14799200  1
  O  O43  1  0.35123900  0.49923100  0.55980100  1
  O  O44  1  0.08309900  0.98676900  0.25398100  1
  O  O45  1  0.91690100  0.17088300  0.90367000  1
  O  O46  1  0.73278700  0.48676900  0.40367000  1
  O  O47  1  0.26721300  0.67088300  0.75398100  1
  O  O48  1  0.91513300  0.02489500  0.08496200  1
  O  O49  1  0.08486700  0.16982900  0.10976200  1
  O  O50  1  0.93993300  0.52489500  0.60976200  1
  O  O51  1  0.06006700  0.66982900  0.58496200  1
  O  O52  1  0.88196300  0.08318200  0.96954700  1
  O  O53  1  0.11803700  0.08758400  0.20121900  1
  O  O54  1  0.11363500  0.58318200  0.70121900  1
  O  O55  1  0.88636500  0.58758400  0.46954700  1
  O  O56  1  0.73837600  0.01178200  0.91718200  1
  O  O57  1  0.26162400  0.17880500  0.27340500  1
  O  O58  1  0.09460000  0.51178200  0.77340500  1
  O  O59  1  0.90540000  0.67880500  0.41718200  1
  O  O60  1  0.84444100  0.80061200  0.75636200  1
  O  O61  1  0.15555900  0.91192100  0.95617100  1
  O  O62  1  0.04425000  0.30061200  0.45617100  1
  O  O63  1  0.95575000  0.41192100  0.25636200  1
loop_
_geom_bond_atom_site_label_1
_geom_bond_atom_site_label_2
_geom_bond_distance
_geom_bond_site_symmetry_2
Al0 O37 1.738874 1_554
Al0 O12 1.746207 1_555
Al0 O16 1.748774 1_554
Al0 O6 1.758716 1_555
Al1 O36 1.738868 1_555
Al1 O13 1.746205 1_565
Al1 O17 1.748774 1_555
Al1 O7 1.758716 1_555
Al2 O39 1.738888 1_555
Al2 O14 1.746205 1_565
Al2 O18 1.748774 1_555
Al2 O4 1.758716 1_555
Al3 O38 1.738874 1_555
Al3 O15 1.746212 1_555
Al3 O19 1.748774 1_555
Al3 O5 1.758716 1_555
Al4 O24 1.738152 1_565
Al4 O28 1.748240 1_555
Al4 O32 1.751277 1_555
Al4 O0 1.760495 1_555
Al5 O25 1.738152 1_555
Al5 O29 1.748244 1_555
Al5 O33 1.751265 1_555
Al5 O1 1.760508 1_555
Al6 O26 1.738152 1_555
Al6 O30 1.748253 1_555
Al6 O34 1.751266 1_555
Al6 O2 1.760492 1_555
Al7 O27 1.738152 1_565
Al7 O31 1.748244 1_555
Al7 O35 1.751265 1_554
Al7 O3 1.760508 1_554
Al8 O44 1.738615 1_545
Al8 O62 1.739627 1_555
Al8 O53 1.744666 1_555
Al8 O48 1.761684 1_455
Al9 O45 1.738639 1_554
Al9 O63 1.739632 1_555
Al9 O52 1.744652 1_554
Al9 O49 1.761680 1_655
Al10 O46 1.738627 1_555
Al10 O60 1.739627 1_555
Al10 O55 1.744666 1_555
Al10 O50 1.761684 1_555
Al11 O47 1.738634 1_555
Al11 O61 1.739631 1_555
Al11 O54 1.744650 1_555
Al11 O51 1.761694 1_555
Al12 O42 1.743546 1_556
Al12 O56 1.747289 1_555
Al12 O11 1.751663 1_545
Al12 O22 1.754162 1_545
Al13 O43 1.743548 1_555
Al13 O57 1.747291 1_555
Al13 O10 1.751663 1_555
Al13 O23 1.754156 1_555
Al14 O40 1.743551 1_556
Al14 O58 1.747305 1_555
Al14 O9 1.751663 1_455
Al14 O20 1.754147 1_555
Al15 O41 1.743546 1_555
Al15 O59 1.747305 1_555
Al15 O8 1.751663 1_655
Al15 O21 1.754156 1_555
O0 P0 1.539038 1_555
O1 P1 1.539022 1_555
O2 P2 1.539034 1_555
O3 P3 1.539022 1_555
O4 P0 1.542784 1_555
O5 P1 1.542784 1_555
O6 P2 1.542784 1_555
O7 P3 1.542784 1_554
O8 P0 1.529711 1_555
O9 P1 1.529711 1_555
O10 P2 1.529711 1_555
O11 P3 1.529711 1_555
O12 P0 1.536202 1_555
O13 P1 1.536208 1_555
O14 P2 1.536208 1_556
O15 P3 1.536208 1_555
O16 P4 1.541317 1_555
O17 P5 1.541317 1_555
O18 P6 1.541317 1_555
O19 P7 1.541317 1_555
O20 P4 1.538269 1_555
O21 P5 1.538254 1_555
O22 P6 1.538259 1_555
O23 P7 1.538254 1_555
O24 P4 1.529890 1_555
O25 P5 1.529890 1_556
O26 P6 1.529890 1_555
O27 P7 1.529890 1_555
O28 P6 1.535590 1_555
O29 P7 1.535578 1_555
O30 P4 1.535576 1_554
O31 P5 1.535578 1_555
O32 P8 1.537708 1_555
O33 P9 1.537706 1_555
O34 P10 1.537714 1_555
O35 P11 1.537714 1_555
O36 P8 1.537197 1_655
O37 P9 1.537178 1_455
O38 P10 1.537178 1_555
O39 P11 1.537154 1_555
O40 P8 1.532918 1_555
O41 P9 1.532925 1_565
O42 P10 1.532925 1_555
O43 P11 1.532911 1_555
O44 P8 1.530717 1_555
O45 P9 1.530717 1_555
O46 P10 1.530717 1_555
O47 P11 1.530717 1_555
O48 P12 1.543886 1_544
O49 P13 1.543886 1_555
O50 P14 1.543886 1_655
O51 P15 1.543886 1_455
O52 P12 1.532563 1_545
O53 P13 1.532563 1_555
O54 P14 1.532563 1_555
O55 P15 1.532563 1_555
O56 P12 1.532619 1_545
O57 P13 1.532616 1_555
O58 P14 1.532604 1_555
O59 P15 1.532604 1_555
O60 P12 1.531300 1_555
O61 P13 1.531300 1_566
O62 P14 1.531300 1_555
O63 P15 1.531300 1_555
