# generated using pymatgen
data_Ca3CoN3
_symmetry_space_group_name_H-M   'P 1'
_cell_length_a   7.16589019
_cell_length_b   7.16589019
_cell_length_c   4.97176100
_cell_angle_alpha   90.00000000
_cell_angle_beta   90.00000000
_cell_angle_gamma   120.00000175
_symmetry_Int_Tables_number   1
_chemical_formula_structural   Ca3CoN3
_chemical_formula_sum   'Ca6 Co2 N6'
_cell_volume   221.09614218
_cell_formula_units_Z   2
loop_
 _symmetry_equiv_pos_site_id
 _symmetry_equiv_pos_as_xyz
  1  'x, y, z'
loop_
 _atom_site_type_symbol
 _atom_site_label
 _atom_site_symmetry_multiplicity
 _atom_site_fract_x
 _atom_site_fract_y
 _atom_site_fract_z
 _atom_site_occupancy
  Ca  Ca0  1  0.91514800  0.63836500  0.25000000  1
  Ca  Ca1  1  0.72321700  0.08485200  0.25000000  1
  Ca  Ca2  1  0.36163500  0.27678300  0.25000000  1
  Ca  Ca3  1  0.08485200  0.36163500  0.75000000  1
  Ca  Ca4  1  0.27678300  0.91514800  0.75000000  1
  Ca  Ca5  1  0.63836500  0.72321700  0.75000000  1
  Co  Co0  1  0.66666700  0.33333300  0.75000000  1
  Co  Co1  1  0.33333300  0.66666700  0.25000000  1
  N  N0  1  0.89604200  0.59502000  0.75000000  1
  N  N1  1  0.69897800  0.10395800  0.75000000  1
  N  N2  1  0.40498000  0.30102200  0.75000000  1
  N  N3  1  0.10395800  0.40498000  0.25000000  1
  N  N4  1  0.30102200  0.89604200  0.25000000  1
  N  N5  1  0.59502000  0.69897800  0.25000000  1
loop_
_geom_bond_atom_site_label_1
_geom_bond_atom_site_label_2
_geom_bond_distance
_geom_bond_site_symmetry_2
Ca0 N4 2.439197 1_655
Ca0 N0 2.500459 1_555
Ca0 N0 2.500459 1_554
Ca0 N5 2.539191 1_555
Ca0 N3 2.624939 1_655
Ca1 N5 2.439197 1_545
Ca1 N1 2.500459 1_554
Ca1 N1 2.500459 1_555
Ca1 N3 2.539191 1_655
Ca1 N4 2.624939 1_545
Ca2 N3 2.439197 1_555
Ca2 N2 2.500459 1_555
Ca2 N2 2.500459 1_554
Ca2 N4 2.539191 1_545
Ca2 N5 2.624939 1_555
Ca3 N1 2.439197 1_455
Ca3 N3 2.500459 1_555
Ca3 N3 2.500459 1_556
Ca3 N2 2.539191 1_555
Ca3 N0 2.624939 1_455
Ca4 N2 2.439197 1_565
Ca4 N4 2.500459 1_555
Ca4 N4 2.500459 1_556
Ca4 N0 2.539191 1_455
Ca4 N1 2.624939 1_565
Ca5 N0 2.439197 1_555
Ca5 N5 2.500459 1_556
Ca5 N5 2.500459 1_555
Ca5 N1 2.539191 1_565
Ca5 N2 2.624939 1_555
Co0 N1 1.770834 1_555
Co0 N0 1.770838 1_555
Co0 N2 1.770841 1_555
Co1 N4 1.770834 1_555
Co1 N3 1.770838 1_555
Co1 N5 1.770841 1_555
