# generated using pymatgen
data_Hf9Re4P
_symmetry_space_group_name_H-M   'P 1'
_cell_length_a   8.53318390
_cell_length_b   8.53318390
_cell_length_c   8.65054600
_cell_angle_alpha   90.00000000
_cell_angle_beta   90.00000000
_cell_angle_gamma   119.99999920
_symmetry_Int_Tables_number   1
_chemical_formula_structural   Hf9Re4P
_chemical_formula_sum   'Hf18 Re8 P2'
_cell_volume   545.50202274
_cell_formula_units_Z   2
loop_
 _symmetry_equiv_pos_site_id
 _symmetry_equiv_pos_as_xyz
  1  'x, y, z'
loop_
 _atom_site_type_symbol
 _atom_site_label
 _atom_site_symmetry_multiplicity
 _atom_site_fract_x
 _atom_site_fract_y
 _atom_site_fract_z
 _atom_site_occupancy
  Hf  Hf0  1  0.19697000  0.80303000  0.45163300  1
  Hf  Hf1  1  0.19697000  0.39393900  0.45163300  1
  Hf  Hf2  1  0.60606100  0.80303000  0.45163300  1
  Hf  Hf3  1  0.80303000  0.19697000  0.54836700  1
  Hf  Hf4  1  0.80303000  0.60606100  0.54836700  1
  Hf  Hf5  1  0.39393900  0.19697000  0.54836700  1
  Hf  Hf6  1  0.80303000  0.19697000  0.95163300  1
  Hf  Hf7  1  0.80303000  0.60606100  0.95163300  1
  Hf  Hf8  1  0.39393900  0.19697000  0.95163300  1
  Hf  Hf9  1  0.19697000  0.80303000  0.04836700  1
  Hf  Hf10  1  0.19697000  0.39393900  0.04836700  1
  Hf  Hf11  1  0.60606100  0.80303000  0.04836700  1
  Hf  Hf12  1  0.53940700  0.46059300  0.25000000  1
  Hf  Hf13  1  0.53940700  0.07881400  0.25000000  1
  Hf  Hf14  1  0.92118600  0.46059300  0.25000000  1
  Hf  Hf15  1  0.46059300  0.53940700  0.75000000  1
  Hf  Hf16  1  0.46059300  0.92118600  0.75000000  1
  Hf  Hf17  1  0.07881400  0.53940700  0.75000000  1
  Re  Re0  1  0.89098600  0.10901400  0.25000000  1
  Re  Re1  1  0.89098600  0.78197100  0.25000000  1
  Re  Re2  1  0.21802900  0.10901400  0.25000000  1
  Re  Re3  1  0.10901400  0.89098600  0.75000000  1
  Re  Re4  1  0.10901400  0.21802900  0.75000000  1
  Re  Re5  1  0.78197100  0.89098600  0.75000000  1
  Re  Re6  1  0.00000000  0.00000000  0.50000000  1
  Re  Re7  1  0.00000000  0.00000000  0.00000000  1
  P  P0  1  0.33333300  0.66666700  0.25000000  1
  P  P1  1  0.66666700  0.33333300  0.75000000  1
loop_
_geom_bond_atom_site_label_1
_geom_bond_atom_site_label_2
_geom_bond_distance
_geom_bond_site_symmetry_2
Hf0 P0 2.665394 1_555
Hf0 Re3 2.889932 1_555
Hf0 Re6 2.941111 1_565
Hf0 Re2 3.069668 1_565
Hf0 Re1 3.069668 1_455
Hf1 P0 2.665405 1_555
Hf1 Re4 2.889925 1_555
Hf1 Re6 2.941104 1_555
Hf1 Re2 3.069668 1_555
Hf1 Re0 3.069668 1_455
Hf2 P0 2.665405 1_555
Hf2 Re5 2.889925 1_555
Hf2 Re6 2.941104 1_665
Hf2 Re1 3.069668 1_555
Hf2 Re0 3.069668 1_565
Hf3 P1 2.665394 1_555
Hf3 Re0 2.889932 1_555
Hf3 Re6 2.941111 1_655
Hf3 Re4 3.069668 1_655
Hf3 Re5 3.069668 1_545
Hf4 P1 2.665405 1_555
Hf4 Re1 2.889925 1_555
Hf4 Re6 2.941104 1_665
Hf4 Re5 3.069668 1_555
Hf4 Re3 3.069668 1_655
Hf5 P1 2.665405 1_555
Hf5 Re2 2.889925 1_555
Hf5 Re6 2.941104 1_555
Hf5 Re4 3.069668 1_555
Hf5 Re3 3.069668 1_545
Hf6 P1 2.665394 1_555
Hf6 Re0 2.889932 1_556
Hf6 Re7 2.941111 1_656
Hf6 Re4 3.069668 1_655
Hf6 Re5 3.069668 1_545
Hf7 P1 2.665405 1_555
Hf7 Re1 2.889925 1_556
Hf7 Re7 2.941104 1_666
Hf7 Re5 3.069668 1_555
Hf7 Re3 3.069668 1_655
Hf8 P1 2.665405 1_555
Hf8 Re2 2.889925 1_556
Hf8 Re7 2.941104 1_556
Hf8 Re4 3.069668 1_555
Hf8 Re3 3.069668 1_545
Hf9 P0 2.665394 1_555
Hf9 Re3 2.889932 1_554
Hf9 Re7 2.941111 1_565
Hf9 Re2 3.069668 1_565
Hf9 Re1 3.069668 1_455
Hf10 P0 2.665405 1_555
Hf10 Re4 2.889925 1_554
Hf10 Re7 2.941104 1_555
Hf10 Re2 3.069668 1_555
Hf10 Re0 3.069668 1_455
Hf11 P0 2.665405 1_555
Hf11 Re5 2.889925 1_554
Hf11 Re7 2.941104 1_665
Hf11 Re1 3.069668 1_555
Hf11 Re0 3.069668 1_565
Hf12 Re2 2.879894 1_555
Hf12 Re1 2.879894 1_555
Hf12 P0 3.045755 1_555
Hf13 Re2 2.879889 1_555
Hf13 Re0 2.879898 1_555
Hf13 P0 3.045747 1_545
Hf14 Re1 2.879889 1_555
Hf14 Re0 2.879898 1_555
Hf14 P0 3.045747 1_655
Hf15 Re4 2.879894 1_555
Hf15 Re5 2.879894 1_555
Hf15 P1 3.045755 1_555
Hf16 Re5 2.879889 1_555
Hf16 Re3 2.879898 1_555
Hf16 P1 3.045747 1_565
Hf17 Re4 2.879889 1_555
Hf17 Re3 2.879898 1_555
Hf17 P1 3.045747 1_455
Re0 Re6 2.696853 1_655
Re0 Re7 2.696853 1_655
Re0 Re1 2.790718 1_545
Re0 Re2 2.790718 1_655
Re1 Re6 2.696858 1_665
Re1 Re7 2.696858 1_665
Re1 Re2 2.790718 1_665
Re2 Re6 2.696858 1_555
Re2 Re7 2.696858 1_555
Re3 Re6 2.696853 1_565
Re3 Re7 2.696853 1_566
Re3 Re5 2.790718 1_455
Re3 Re4 2.790718 1_565
Re4 Re6 2.696858 1_555
Re4 Re7 2.696858 1_556
Re4 Re5 2.790718 1_445
Re5 Re7 2.696858 1_666
Re5 Re6 2.696858 1_665
