# generated using pymatgen
data_U
_symmetry_space_group_name_H-M   'P 1'
_cell_length_a   5.06115600
_cell_length_b   5.86895500
_cell_length_c   11.38096200
_cell_angle_alpha   90.00000000
_cell_angle_beta   90.00000000
_cell_angle_gamma   90.00000000
_symmetry_Int_Tables_number   1
_chemical_formula_structural   U
_chemical_formula_sum   U16
_cell_volume   338.05664468
_cell_formula_units_Z   16
loop_
 _symmetry_equiv_pos_site_id
 _symmetry_equiv_pos_as_xyz
  1  'x, y, z'
loop_
 _atom_site_type_symbol
 _atom_site_label
 _atom_site_symmetry_multiplicity
 _atom_site_fract_x
 _atom_site_fract_y
 _atom_site_fract_z
 _atom_site_occupancy
  U  U0  1  0.00000000  0.21570400  0.00000000  1
  U  U1  1  0.00000000  0.78429600  0.00000000  1
  U  U2  1  0.00000000  0.28192000  0.50000000  1
  U  U3  1  0.00000000  0.71808000  0.50000000  1
  U  U4  1  0.50000000  0.28308900  0.12260500  1
  U  U5  1  0.50000000  0.28308900  0.87739500  1
  U  U6  1  0.50000000  0.71691100  0.87739500  1
  U  U7  1  0.50000000  0.71691100  0.12260500  1
  U  U8  1  0.00000000  0.22275300  0.24862700  1
  U  U9  1  0.00000000  0.22275300  0.75137300  1
  U  U10  1  0.00000000  0.77724700  0.75137300  1
  U  U11  1  0.00000000  0.77724700  0.24862700  1
  U  U12  1  0.50000000  0.22307200  0.37610700  1
  U  U13  1  0.50000000  0.22307200  0.62389300  1
  U  U14  1  0.50000000  0.77692800  0.62389300  1
  U  U15  1  0.50000000  0.77692800  0.37610700  1
loop_
_geom_bond_atom_site_label_1
_geom_bond_atom_site_label_2
_geom_bond_distance
_geom_bond_site_symmetry_2
U0 U1 2.531914 1_545
U0 U8 2.829917 1_555
U0 U9 2.829917 1_554
U0 U4 2.916722 1_455
U0 U5 2.916722 1_454
U0 U5 2.916722 1_554
U0 U4 2.916722 1_555
U0 U1 3.337041 1_555
U1 U11 2.829917 1_555
U1 U10 2.829917 1_554
U1 U7 2.916722 1_455
U1 U7 2.916722 1_555
U1 U6 2.916722 1_554
U1 U6 2.916722 1_454
U2 U3 2.559803 1_555
U2 U8 2.881864 1_555
U2 U9 2.881864 1_555
U2 U3 3.309152 1_545
U4 U7 2.546082 1_555
U4 U5 2.790726 1_554
U4 U8 2.930238 1_555
U4 U8 2.930238 1_655
U4 U7 3.322873 1_545
U5 U6 2.546082 1_555
U5 U9 2.930238 1_555
U5 U9 2.930238 1_655
U5 U6 3.322873 1_545
U6 U7 2.790726 1_556
U10 U9 2.614655 1_565
U10 U3 2.881864 1_555
U10 U14 2.916981 1_555
U10 U14 2.916981 1_455
U10 U6 2.930238 1_555
U10 U6 2.930238 1_455
U10 U9 3.254300 1_555
U11 U8 2.614655 1_565
U11 U3 2.881864 1_555
U11 U15 2.916981 1_455
U11 U15 2.916981 1_555
U11 U7 2.930238 1_455
U11 U7 2.930238 1_555
U11 U8 3.254300 1_555
U12 U15 2.618399 1_545
U12 U13 2.820043 1_555
U12 U4 2.906519 1_555
U12 U8 2.916981 1_555
U12 U8 2.916981 1_655
U12 U2 2.917408 1_555
U12 U2 2.917408 1_655
U12 U15 3.250556 1_555
U13 U14 2.618399 1_545
U13 U5 2.906519 1_555
U13 U9 2.916981 1_655
U13 U9 2.916981 1_555
U13 U2 2.917408 1_555
U13 U2 2.917408 1_655
U13 U14 3.250556 1_555
U14 U15 2.820043 1_555
U14 U6 2.906519 1_555
U14 U3 2.917408 1_655
U14 U3 2.917408 1_555
U15 U7 2.906519 1_555
U15 U3 2.917408 1_655
U15 U3 2.917408 1_555
