# generated using pymatgen
data_YbSiPd2
_symmetry_space_group_name_H-M   'P 1'
_cell_length_a   5.57160000
_cell_length_b   6.91883200
_cell_length_c   7.33918600
_cell_angle_alpha   90.00000000
_cell_angle_beta   90.00000000
_cell_angle_gamma   90.00000000
_symmetry_Int_Tables_number   1
_chemical_formula_structural   YbSiPd2
_chemical_formula_sum   'Yb4 Si4 Pd8'
_cell_volume   282.91801963
_cell_formula_units_Z   4
loop_
 _symmetry_equiv_pos_site_id
 _symmetry_equiv_pos_as_xyz
  1  'x, y, z'
loop_
 _atom_site_type_symbol
 _atom_site_label
 _atom_site_symmetry_multiplicity
 _atom_site_fract_x
 _atom_site_fract_y
 _atom_site_fract_z
 _atom_site_occupancy
  Yb  Yb0  1  0.36597100  0.75000000  0.02242900  1
  Yb  Yb1  1  0.13402900  0.75000000  0.52242900  1
  Yb  Yb2  1  0.63402900  0.25000000  0.97757100  1
  Yb  Yb3  1  0.86597100  0.25000000  0.47757100  1
  Si  Si0  1  0.63170900  0.75000000  0.37660800  1
  Si  Si1  1  0.86829100  0.75000000  0.87660800  1
  Si  Si2  1  0.36829100  0.25000000  0.62339200  1
  Si  Si3  1  0.13170900  0.25000000  0.12339200  1
  Pd  Pd0  1  0.89523400  0.55174600  0.17114100  1
  Pd  Pd1  1  0.60476600  0.94825400  0.67114100  1
  Pd  Pd2  1  0.10476600  0.05174600  0.82885900  1
  Pd  Pd3  1  0.39523400  0.44825400  0.32885900  1
  Pd  Pd4  1  0.10476600  0.44825400  0.82885900  1
  Pd  Pd5  1  0.39523400  0.05174600  0.32885900  1
  Pd  Pd6  1  0.89523400  0.94825400  0.17114100  1
  Pd  Pd7  1  0.60476600  0.55174600  0.67114100  1
loop_
_geom_bond_atom_site_label_1
_geom_bond_atom_site_label_2
_geom_bond_distance
_geom_bond_site_symmetry_2
Si0 Yb1 2.972234 1_555
Si0 Yb0 2.991478 1_555
Si0 Yb1 2.996366 1_655
Si1 Yb0 2.972234 1_656
Si1 Yb1 2.991478 1_655
Si1 Yb0 2.996366 1_556
Si2 Yb3 2.972234 1_555
Si2 Yb2 2.991478 1_555
Si2 Yb3 2.996366 1_455
Si3 Yb2 2.972234 1_454
Si3 Yb3 2.991478 1_455
Si3 Yb2 2.996366 1_554
Pd0 Si3 2.493461 1_655
Pd0 Si0 2.512219 1_555
Pd0 Si1 2.564510 1_554
Pd0 Pd6 2.743372 1_555
Pd0 Pd4 2.861138 1_654
Pd0 Yb2 2.914590 1_554
Pd0 Yb3 3.072940 1_555
Pd0 Pd3 3.100525 1_655
Pd0 Pd3 3.100525 1_555
Pd0 Yb0 3.154614 1_655
Pd0 Yb1 3.209147 1_655
Pd0 Yb0 3.430510 1_555
Pd1 Si2 2.493461 1_565
Pd1 Si1 2.512219 1_555
Pd1 Si0 2.564510 1_555
Pd1 Pd7 2.743372 1_555
Pd1 Pd5 2.861138 1_565
Pd1 Yb3 2.914590 1_565
Pd1 Yb2 3.072940 1_565
Pd1 Pd2 3.100525 1_665
Pd1 Pd2 3.100525 1_565
Pd1 Yb1 3.154614 1_555
Pd1 Yb0 3.209147 1_556
Pd1 Yb1 3.430510 1_655
Pd2 Si1 2.493461 1_445
Pd2 Si2 2.512219 1_555
Pd2 Si3 2.564510 1_556
Pd2 Pd4 2.743372 1_555
Pd2 Pd6 2.861138 1_446
Pd2 Yb0 2.914590 1_546
Pd2 Yb1 3.072940 1_545
Pd2 Yb2 3.154614 1_455
Pd2 Yb3 3.209147 1_455
Pd2 Yb2 3.430510 1_555
Pd3 Si0 2.493461 1_555
Pd3 Si3 2.512219 1_555
Pd3 Si2 2.564510 1_555
Pd3 Pd5 2.743372 1_555
Pd3 Pd7 2.861138 1_555
Pd3 Yb1 2.914590 1_555
Pd3 Yb0 3.072940 1_555
Pd3 Yb3 3.154614 1_555
Pd3 Yb2 3.209147 1_554
Pd3 Yb3 3.430510 1_455
Pd4 Si1 2.493461 1_455
Pd4 Si2 2.512219 1_555
Pd4 Si3 2.564510 1_556
Pd4 Yb0 2.914590 1_556
Pd4 Yb1 3.072940 1_555
Pd4 Pd7 3.100525 1_555
Pd4 Pd7 3.100525 1_455
Pd4 Yb2 3.154614 1_455
Pd4 Yb3 3.209147 1_455
Pd4 Yb2 3.430510 1_555
Pd5 Si0 2.493461 1_545
Pd5 Si3 2.512219 1_555
Pd5 Si2 2.564510 1_555
Pd5 Yb1 2.914590 1_545
Pd5 Yb0 3.072940 1_545
Pd5 Pd6 3.100525 1_545
Pd5 Pd6 3.100525 1_445
Pd5 Yb3 3.154614 1_555
Pd5 Yb2 3.209147 1_554
Pd5 Yb3 3.430510 1_455
Pd6 Si3 2.493461 1_665
Pd6 Si0 2.512219 1_555
Pd6 Si1 2.564510 1_554
Pd6 Yb2 2.914590 1_564
Pd6 Yb3 3.072940 1_565
Pd6 Yb0 3.154614 1_655
Pd6 Yb1 3.209147 1_655
Pd6 Yb0 3.430510 1_555
Pd7 Si2 2.493461 1_555
Pd7 Si1 2.512219 1_555
Pd7 Si0 2.564510 1_555
Pd7 Yb3 2.914590 1_555
Pd7 Yb2 3.072940 1_555
Pd7 Yb1 3.154614 1_555
Pd7 Yb0 3.209147 1_556
Pd7 Yb1 3.430510 1_655
