# generated using pymatgen
data_NiO2
_symmetry_space_group_name_H-M   'P 1'
_cell_length_a   5.61183516
_cell_length_b   5.61006705
_cell_length_c   17.21522367
_cell_angle_alpha   60.56748260
_cell_angle_beta   60.50890272
_cell_angle_gamma   60.01894805
_symmetry_Int_Tables_number   1
_chemical_formula_structural   NiO2
_chemical_formula_sum   'Ni12 O24'
_cell_volume   386.38383230
_cell_formula_units_Z   12
loop_
 _symmetry_equiv_pos_site_id
 _symmetry_equiv_pos_as_xyz
  1  'x, y, z'
loop_
 _atom_site_type_symbol
 _atom_site_label
 _atom_site_symmetry_multiplicity
 _atom_site_fract_x
 _atom_site_fract_y
 _atom_site_fract_z
 _atom_site_occupancy
  Ni  Ni0  1  0.49841100  0.49734800  0.16730100  1
  Ni  Ni1  1  0.49843600  0.00246500  0.16719900  1
  Ni  Ni2  1  0.49367400  0.49376300  0.50514100  1
  Ni  Ni3  1  0.00370800  0.49739300  0.16714800  1
  Ni  Ni4  1  0.49375900  0.99828600  0.50491600  1
  Ni  Ni5  1  0.49939100  0.49991700  0.66713800  1
  Ni  Ni6  1  0.87544400  0.87501800  0.29075400  1
  Ni  Ni7  1  0.50346100  0.50425600  0.82928800  1
  Ni  Ni8  1  0.99808300  0.49387300  0.50496400  1
  Ni  Ni9  1  0.50351400  0.00397400  0.82927600  1
  Ni  Ni10  1  0.00323200  0.50427500  0.82925000  1
  Ni  Ni11  1  0.88037900  0.88128200  0.95117300  1
  O  O0  1  0.25739000  0.25582700  0.09563700  1
  O  O1  1  0.26397500  0.26321100  0.23610600  1
  O  O2  1  0.25823300  0.70025700  0.09543000  1
  O  O3  1  0.70057900  0.25761200  0.09520300  1
  O  O4  1  0.25453000  0.25436300  0.43177400  1
  O  O5  1  0.28634500  0.75122000  0.23668800  1
  O  O6  1  0.26019100  0.26064300  0.57267300  1
  O  O7  1  0.75238800  0.28555800  0.23650900  1
  O  O8  1  0.73785900  0.73622000  0.09703600  1
  O  O9  1  0.25498800  0.69736000  0.43170400  1
  O  O10  1  0.69659700  0.25544000  0.43158100  1
  O  O11  1  0.75268300  0.75172100  0.23634300  1
  O  O12  1  0.26490400  0.26534600  0.75312300  1
  O  O13  1  0.28839800  0.73424000  0.58105900  1
  O  O14  1  0.73400300  0.28866300  0.58097300  1
  O  O15  1  0.26815900  0.26907300  0.89742000  1
  O  O16  1  0.73229300  0.73221700  0.43509600  1
  O  O17  1  0.26545400  0.71045200  0.75295600  1
  O  O18  1  0.70985500  0.26618600  0.75287700  1
  O  O19  1  0.73459200  0.73505700  0.58067400  1
  O  O20  1  0.29230000  0.75064700  0.90170900  1
  O  O21  1  0.75023700  0.29279200  0.90145100  1
  O  O22  1  0.73787800  0.73842300  0.76192300  1
  O  O23  1  0.75091600  0.75187300  0.90092200  1
loop_
_geom_bond_atom_site_label_1
_geom_bond_atom_site_label_2
_geom_bond_distance
_geom_bond_site_symmetry_2
Ni0 O3 1.834584 1_555
Ni0 O2 1.835113 1_555
Ni0 O5 1.857413 1_555
Ni0 O7 1.857642 1_555
Ni0 O1 1.876945 1_555
Ni0 O8 1.915960 1_555
Ni1 O0 1.834686 1_555
Ni1 O3 1.834896 1_555
Ni1 O11 1.857965 1_545
Ni1 O5 1.857965 1_545
Ni1 O1 1.877034 1_555
Ni1 O8 1.914348 1_545
Ni2 O10 1.846758 1_555
Ni2 O9 1.848279 1_555
Ni2 O6 1.870110 1_555
Ni2 O13 1.884803 1_555
Ni2 O14 1.885056 1_555
Ni2 O16 1.911001 1_555
Ni3 O0 1.834320 1_555
Ni3 O2 1.834981 1_555
Ni3 O11 1.857036 1_455
Ni3 O7 1.857324 1_455
Ni3 O1 1.877538 1_555
Ni3 O8 1.914052 1_455
Ni4 O10 1.845843 1_565
Ni4 O4 1.846799 1_565
Ni4 O6 1.870516 1_565
Ni4 O13 1.884454 1_555
Ni4 O19 1.885790 1_555
Ni4 O16 1.909664 1_555
Ni5 O12 1.884917 1_555
Ni5 O17 1.885944 1_555
Ni5 O18 1.886649 1_555
Ni5 O19 1.890491 1_555
Ni5 O13 1.892997 1_555
Ni5 O14 1.893081 1_555
Ni6 O11 1.891781 1_555
Ni6 O7 1.893424 1_565
Ni6 O5 1.894062 1_655
Ni6 O16 2.045269 1_555
Ni7 O20 1.863142 1_555
Ni7 O21 1.863342 1_555
Ni7 O22 1.878589 1_555
Ni7 O18 1.880477 1_555
Ni7 O17 1.881188 1_555
Ni7 O15 1.885625 1_555
Ni8 O4 1.846632 1_655
Ni8 O9 1.847159 1_655
Ni8 O6 1.870814 1_655
Ni8 O14 1.883924 1_555
Ni8 O19 1.884696 1_555
Ni8 O16 1.910991 1_555
Ni9 O23 1.859648 1_545
Ni9 O20 1.861791 1_545
Ni9 O22 1.879245 1_545
Ni9 O18 1.880443 1_555
Ni9 O12 1.881121 1_555
Ni9 O15 1.886388 1_555
Ni10 O23 1.858846 1_455
Ni10 O21 1.861449 1_455
Ni10 O17 1.879764 1_555
Ni10 O22 1.880013 1_455
Ni10 O12 1.880167 1_555
Ni10 O15 1.887870 1_555
Ni11 O23 1.888510 1_555
Ni11 O21 1.893152 1_565
Ni11 O20 1.894189 1_655
Ni11 O8 2.066924 1_556
