# generated using pymatgen
data_Fe2P2H4NO8
_symmetry_space_group_name_H-M   'P 1'
_cell_length_a   10.11886773
_cell_length_b   12.63030676
_cell_length_c   12.63030676
_cell_angle_alpha   73.29031037
_cell_angle_beta   66.52312732
_cell_angle_gamma   66.52312732
_symmetry_Int_Tables_number   1
_chemical_formula_structural   Fe2P2H4NO8
_chemical_formula_sum   'Fe16 P16 H32 N8 O64'
_cell_volume   1342.01083024
_cell_formula_units_Z   8
loop_
 _symmetry_equiv_pos_site_id
 _symmetry_equiv_pos_as_xyz
  1  'x, y, z'
loop_
 _atom_site_type_symbol
 _atom_site_label
 _atom_site_symmetry_multiplicity
 _atom_site_fract_x
 _atom_site_fract_y
 _atom_site_fract_z
 _atom_site_occupancy
  Fe  Fe0  1  0.91001900  0.14186100  0.01074700  1
  Fe  Fe1  1  0.58998100  0.98925300  0.85813900  1
  Fe  Fe2  1  0.08998100  0.85813900  0.98925300  1
  Fe  Fe3  1  0.41001900  0.01074700  0.14186100  1
  Fe  Fe4  1  0.59966600  0.36002200  0.98290700  1
  Fe  Fe5  1  0.90033400  0.01709300  0.63997800  1
  Fe  Fe6  1  0.40033400  0.63997800  0.01709300  1
  Fe  Fe7  1  0.09966600  0.98290700  0.36002200  1
  Fe  Fe8  1  0.75000000  0.31712400  0.68287600  1
  Fe  Fe9  1  0.25000000  0.68287600  0.31712400  1
  Fe  Fe10  1  0.25000000  0.19356200  0.80643800  1
  Fe  Fe11  1  0.75000000  0.80643800  0.19356200  1
  Fe  Fe12  1  0.75059200  0.18750300  0.31254300  1
  Fe  Fe13  1  0.74940800  0.68745700  0.81249700  1
  Fe  Fe14  1  0.24940800  0.81249700  0.68745700  1
  Fe  Fe15  1  0.25059200  0.31254300  0.18750300  1
  P  P0  1  0.08765700  0.18318900  0.10743400  1
  P  P1  1  0.41234300  0.89256600  0.81681100  1
  P  P2  1  0.91234300  0.81681100  0.89256600  1
  P  P3  1  0.58765700  0.10743400  0.18318900  1
  P  P4  1  0.45911800  0.24799200  0.91761700  1
  P  P5  1  0.04088200  0.08238300  0.75200800  1
  P  P6  1  0.54088200  0.75200800  0.08238300  1
  P  P7  1  0.95911800  0.91761700  0.24799200  1
  P  P8  1  0.53499500  0.57830600  0.75510900  1
  P  P9  1  0.96500500  0.24489100  0.42169400  1
  P  P10  1  0.46500500  0.42169400  0.24489100  1
  P  P11  1  0.03499500  0.75510900  0.57830600  1
  P  P12  1  0.91777400  0.39489300  0.81580200  1
  P  P13  1  0.58222600  0.18419800  0.60510700  1
  P  P14  1  0.08222600  0.60510700  0.18419800  1
  P  P15  1  0.41777400  0.81580200  0.39489300  1
  H  H0  1  0.19807300  0.44327200  0.87567900  1
  H  H1  1  0.30192700  0.12432100  0.55672800  1
  H  H2  1  0.80192700  0.55672800  0.12432100  1
  H  H3  1  0.69807300  0.87567900  0.44327200  1
  H  H4  1  0.24109700  0.56798100  0.85015600  1
  H  H5  1  0.25890300  0.14984400  0.43201900  1
  H  H6  1  0.75890300  0.43201900  0.14984400  1
  H  H7  1  0.74109700  0.85015600  0.56798100  1
  H  H8  1  0.05737500  0.57874500  0.89349000  1
  H  H9  1  0.44262500  0.10651000  0.42125500  1
  H  H10  1  0.94262500  0.42125500  0.10651000  1
  H  H11  1  0.55737500  0.89349000  0.57874500  1
  H  H12  1  0.16144300  0.50794200  0.98720000  1
  H  H13  1  0.33855700  0.01280000  0.49205800  1
  H  H14  1  0.83855700  0.49205800  0.01280000  1
  H  H15  1  0.66144300  0.98720000  0.50794200  1
  H  H16  1  0.56031600  0.53305600  0.35609100  1
  H  H17  1  0.93968400  0.64390900  0.46694400  1
  H  H18  1  0.43968400  0.46694400  0.64390900  1
  H  H19  1  0.06031600  0.35609100  0.53305600  1
  H  H20  1  0.63277600  0.50928900  0.46398300  1
  H  H21  1  0.86722400  0.53601700  0.49071100  1
  H  H22  1  0.36722400  0.49071100  0.53601700  1
  H  H23  1  0.13277600  0.46398300  0.50928900  1
  H  H24  1  0.72159400  0.56159000  0.32696200  1
  H  H25  1  0.77840600  0.67303800  0.43841000  1
  H  H26  1  0.27840600  0.43841000  0.67303800  1
  H  H27  1  0.22159400  0.32696200  0.56159000  1
  H  H28  1  0.72610600  0.41821100  0.36393600  1
  H  H29  1  0.77389400  0.63606400  0.58178900  1
  H  H30  1  0.27389400  0.58178900  0.63606400  1
  H  H31  1  0.22610600  0.36393600  0.41821100  1
  N  N0  1  0.16348500  0.52392800  0.90121000  1
  N  N1  1  0.33651500  0.09879000  0.47607200  1
  N  N2  1  0.83651500  0.47607200  0.09879000  1
  N  N3  1  0.66348500  0.90121000  0.52392800  1
  N  N4  1  0.66013800  0.50588600  0.37732900  1
  N  N5  1  0.83986200  0.62267100  0.49411400  1
  N  N6  1  0.33986200  0.49411400  0.62267100  1
  N  N7  1  0.16013800  0.37732900  0.50588600  1
  O  O0  1  0.91205400  0.20282000  0.15165700  1
  O  O1  1  0.58794600  0.84834300  0.79718000  1
  O  O2  1  0.08794600  0.79718000  0.84834300  1
  O  O3  1  0.41205400  0.15165700  0.20282000  1
  O  O4  1  0.13255500  0.16433500  0.97934700  1
  O  O5  1  0.36744500  0.02065300  0.83566500  1
  O  O6  1  0.86744500  0.83566500  0.02065300  1
  O  O7  1  0.63255500  0.97934700  0.16433500  1
  O  O8  1  0.17221700  0.07518900  0.17940700  1
  O  O9  1  0.32778300  0.82059300  0.92481100  1
  O  O10  1  0.82778300  0.92481100  0.82059300  1
  O  O11  1  0.67221700  0.17940700  0.07518900  1
  O  O12  1  0.11485600  0.29271300  0.11291700  1
  O  O13  1  0.38514400  0.88708300  0.70728700  1
  O  O14  1  0.88514400  0.70728700  0.88708300  1
  O  O15  1  0.61485600  0.11291700  0.29271300  1
  O  O16  1  0.39351400  0.32168200  0.01880800  1
  O  O17  1  0.10648600  0.98119200  0.67831800  1
  O  O18  1  0.60648600  0.67831800  0.98119200  1
  O  O19  1  0.89351400  0.01880800  0.32168200  1
  O  O20  1  0.60753100  0.27968200  0.84432500  1
  O  O21  1  0.89246900  0.15567500  0.72031800  1
  O  O22  1  0.39246900  0.72031800  0.15567500  1
  O  O23  1  0.10753100  0.84432500  0.27968200  1
  O  O24  1  0.49574400  0.11501200  0.96359700  1
  O  O25  1  0.00425600  0.03640300  0.88498800  1
  O  O26  1  0.50425600  0.88498800  0.03640300  1
  O  O27  1  0.99574400  0.96359700  0.11501200  1
  O  O28  1  0.34718100  0.28625400  0.84907000  1
  O  O29  1  0.15281900  0.15093000  0.71374600  1
  O  O30  1  0.65281900  0.71374600  0.15093000  1
  O  O31  1  0.84718100  0.84907000  0.28625400  1
  O  O32  1  0.50234300  0.52681100  0.88748200  1
  O  O33  1  0.99765700  0.11251800  0.47318900  1
  O  O34  1  0.49765700  0.47318900  0.11251800  1
  O  O35  1  0.00234300  0.88748200  0.52681100  1
  O  O36  1  0.37861000  0.65594200  0.73923100  1
  O  O37  1  0.12139000  0.26076900  0.34405800  1
  O  O38  1  0.62139000  0.34405800  0.26076900  1
  O  O39  1  0.87861000  0.73923100  0.65594200  1
  O  O40  1  0.59922900  0.48342200  0.67480700  1
  O  O41  1  0.90077100  0.32519300  0.51657800  1
  O  O42  1  0.40077100  0.51657800  0.32519300  1
  O  O43  1  0.09922900  0.67480700  0.48342200  1
  O  O44  1  0.64750600  0.64691300  0.71904000  1
  O  O45  1  0.85249400  0.28096000  0.35308700  1
  O  O46  1  0.35249400  0.35308700  0.28096000  1
  O  O47  1  0.14750600  0.71904000  0.64691300  1
  O  O48  1  0.83857400  0.32055800  0.92785000  1
  O  O49  1  0.66142600  0.07215000  0.67944200  1
  O  O50  1  0.16142600  0.67944200  0.07215000  1
  O  O51  1  0.33857400  0.92785000  0.32055800  1
  O  O52  1  0.85993000  0.51997200  0.84505700  1
  O  O53  1  0.64007000  0.15494300  0.48002800  1
  O  O54  1  0.14007000  0.48002800  0.15494300  1
  O  O55  1  0.35993000  0.84505700  0.51997200  1
  O  O56  1  0.87652800  0.39162000  0.71205000  1
  O  O57  1  0.62347200  0.28795000  0.60838000  1
  O  O58  1  0.12347200  0.60838000  0.28795000  1
  O  O59  1  0.37652800  0.71205000  0.39162000  1
  O  O60  1  0.09362600  0.35232000  0.78781400  1
  O  O61  1  0.40637400  0.21218600  0.64768000  1
  O  O62  1  0.90637400  0.64768000  0.21218600  1
  O  O63  1  0.59362600  0.78781400  0.35232000  1
loop_
_geom_bond_atom_site_label_1
_geom_bond_atom_site_label_2
_geom_bond_distance
_geom_bond_site_symmetry_2
Fe0 O25 2.050413 1_654
Fe0 O11 2.104724 1_555
Fe0 O0 2.142541 1_555
Fe0 O48 2.158024 1_554
Fe0 O4 2.245331 1_654
Fe0 O27 2.281462 1_545
Fe1 O24 2.050413 1_565
Fe1 O10 2.104724 1_555
Fe1 O1 2.142541 1_555
Fe1 O49 2.158024 1_565
Fe1 O5 2.245331 1_565
Fe1 O26 2.281462 1_556
Fe2 O27 2.050413 1_456
Fe2 O9 2.104724 1_555
Fe2 O2 2.142541 1_555
Fe2 O50 2.158024 1_556
Fe2 O6 2.245331 1_456
Fe2 O25 2.281462 1_565
Fe3 O26 2.050413 1_545
Fe3 O8 2.104724 1_555
Fe3 O3 2.142541 1_555
Fe3 O51 2.158024 1_545
Fe3 O7 2.245331 1_545
Fe3 O24 2.281462 1_554
Fe4 O48 2.115665 1_555
Fe4 O34 2.147555 1_556
Fe4 O32 2.166318 1_555
Fe4 O16 2.171759 1_556
Fe4 O11 2.218079 1_556
Fe4 O20 2.223884 1_555
Fe5 O49 2.115665 1_555
Fe5 O35 2.147555 1_645
Fe5 O33 2.166318 1_555
Fe5 O17 2.171759 1_645
Fe5 O10 2.218079 1_545
Fe5 O21 2.223884 1_555
Fe6 O50 2.115665 1_555
Fe6 O32 2.147555 1_554
Fe6 O34 2.166318 1_555
Fe6 O18 2.171759 1_554
Fe6 O9 2.218079 1_554
Fe6 O22 2.223884 1_555
Fe7 O51 2.115665 1_555
Fe7 O33 2.147555 1_465
Fe7 O35 2.166318 1_555
Fe7 O19 2.171759 1_465
Fe7 O8 2.218079 1_565
Fe7 O23 2.223884 1_555
Fe8 O21 2.026449 1_555
Fe8 O20 2.026449 1_555
Fe8 O57 2.048263 1_555
Fe8 O56 2.048263 1_555
Fe8 O41 2.048715 1_555
Fe8 O40 2.048715 1_555
Fe9 O22 2.026449 1_555
Fe9 O23 2.026449 1_555
Fe9 O58 2.048263 1_555
Fe9 O59 2.048263 1_555
Fe9 O42 2.048715 1_555
Fe9 O43 2.048715 1_555
Fe10 O61 2.019189 1_555
Fe10 O60 2.019189 1_555
Fe10 O5 2.033729 1_555
Fe10 O4 2.033729 1_555
Fe10 O29 2.080670 1_555
Fe10 O28 2.080670 1_555
Fe11 O62 2.019189 1_555
Fe11 O63 2.019189 1_555
Fe11 O6 2.033729 1_555
Fe11 O7 2.033729 1_555
Fe11 O30 2.080670 1_555
Fe11 O31 2.080670 1_555
Fe12 O53 1.968745 1_555
Fe12 O38 1.981064 1_555
Fe12 O19 2.044762 1_555
Fe12 O0 2.053416 1_555
Fe12 O15 2.068175 1_555
Fe12 O45 2.111125 1_555
Fe13 O52 1.968745 1_555
Fe13 O39 1.981064 1_555
Fe13 O18 2.044762 1_555
Fe13 O1 2.053416 1_555
Fe13 O14 2.068175 1_555
Fe13 O44 2.111125 1_555
Fe14 O55 1.968745 1_555
Fe14 O36 1.981064 1_555
Fe14 O17 2.044762 1_555
Fe14 O2 2.053416 1_555
Fe14 O13 2.068175 1_555
Fe14 O47 2.111125 1_555
Fe15 O54 1.968745 1_555
Fe15 O37 1.981064 1_555
Fe15 O16 2.044762 1_555
Fe15 O3 2.053416 1_555
Fe15 O12 2.068175 1_555
Fe15 O46 2.111125 1_555
H0 N0 1.038822 1_555
H1 N1 1.038822 1_555
H2 N2 1.038822 1_555
H3 N3 1.038822 1_555
H4 N0 1.039475 1_555
H5 N1 1.039475 1_555
H6 N2 1.039475 1_555
H7 N3 1.039475 1_555
H8 N0 1.045952 1_555
H9 N1 1.045952 1_555
H10 N2 1.045952 1_555
H11 N3 1.045952 1_555
H12 N0 1.039282 1_555
H13 N1 1.039282 1_555
H14 N2 1.039282 1_555
H15 N3 1.039282 1_555
H16 N4 1.047262 1_555
H17 N5 1.047262 1_555
H18 N6 1.047262 1_555
H19 N7 1.047262 1_555
H20 N4 1.025911 1_555
H21 N5 1.025911 1_555
H22 N6 1.025911 1_555
H23 N7 1.025911 1_555
H24 N4 1.030740 1_555
H25 N5 1.030740 1_555
H26 N6 1.030740 1_555
H27 N7 1.030740 1_555
H28 N4 1.062660 1_555
H28 O45 1.700006 1_555
H29 N5 1.062660 1_555
H29 O44 1.700006 1_555
H30 N6 1.062660 1_555
H30 O47 1.700006 1_555
H31 N7 1.062660 1_555
H31 O46 1.700006 1_555
O0 P0 1.571201 1_655
O1 P1 1.571201 1_555
O2 P2 1.571201 1_455
O3 P3 1.571201 1_555
O4 P0 1.558861 1_556
O5 P1 1.558861 1_545
O6 P2 1.558861 1_554
O7 P3 1.558861 1_565
O8 P0 1.547876 1_555
O9 P1 1.547876 1_555
O10 P2 1.547876 1_555
O11 P3 1.547876 1_555
O12 P0 1.538746 1_555
O13 P1 1.538746 1_555
O14 P2 1.538746 1_555
O15 P3 1.538746 1_555
O16 P4 1.567217 1_554
O17 P5 1.567217 1_565
O18 P6 1.567217 1_556
O19 P7 1.567217 1_545
O20 P4 1.559057 1_555
O21 P5 1.559057 1_655
O22 P6 1.559057 1_555
O23 P7 1.559057 1_455
O24 P4 1.552490 1_555
O25 P5 1.552490 1_555
O26 P6 1.552490 1_555
O27 P7 1.552490 1_555
O28 P4 1.539695 1_555
O29 P5 1.539695 1_555
O30 P6 1.539695 1_555
O31 P7 1.539695 1_555
O32 P8 1.559887 1_555
O33 P9 1.559887 1_555
O34 P10 1.559887 1_555
O35 P11 1.559887 1_555
O36 P8 1.552190 1_555
O37 P9 1.552190 1_455
O38 P10 1.552190 1_555
O39 P11 1.552190 1_655
O40 P8 1.562186 1_555
O41 P9 1.562186 1_555
O42 P10 1.562186 1_555
O43 P11 1.562186 1_555
O44 P8 1.549301 1_555
O45 P9 1.549301 1_555
O46 P10 1.549301 1_555
O47 P11 1.549301 1_555
O48 P12 1.567907 1_555
O49 P13 1.567907 1_555
O50 P14 1.567907 1_555
O51 P15 1.567907 1_555
O52 P12 1.549665 1_555
O53 P13 1.549665 1_555
O54 P14 1.549665 1_555
O55 P15 1.549665 1_555
O56 P12 1.540701 1_555
O57 P13 1.540701 1_555
O58 P14 1.540701 1_555
O59 P15 1.540701 1_555
O60 P12 1.557632 1_455
O61 P13 1.557632 1_555
O62 P14 1.557632 1_655
O63 P15 1.557632 1_555
