# generated using pymatgen
data_YGeIr
_symmetry_space_group_name_H-M   'P 1'
_cell_length_a   4.29022002
_cell_length_b   6.87558957
_cell_length_c   7.59743678
_cell_angle_alpha   90.00000000
_cell_angle_beta   90.00000000
_cell_angle_gamma   90.00000000
_symmetry_Int_Tables_number   1
_chemical_formula_structural   YGeIr
_chemical_formula_sum   'Y4 Ge4 Ir4'
_cell_volume   224.10761004
_cell_formula_units_Z   4
loop_
 _symmetry_equiv_pos_site_id
 _symmetry_equiv_pos_as_xyz
  1  'x, y, z'
loop_
 _atom_site_type_symbol
 _atom_site_label
 _atom_site_symmetry_multiplicity
 _atom_site_fract_x
 _atom_site_fract_y
 _atom_site_fract_z
 _atom_site_occupancy
  Y  Y0  1  0.25000000  0.00472261  0.30808195  1
  Y  Y1  1  0.25000000  0.50472261  0.19191805  1
  Y  Y2  1  0.75000000  0.99527739  0.69191805  1
  Y  Y3  1  0.75000000  0.49527739  0.80808195  1
  Ge  Ge0  1  0.25000000  0.29368293  0.60987195  1
  Ge  Ge1  1  0.25000000  0.79368293  0.89012805  1
  Ge  Ge2  1  0.75000000  0.70631707  0.39012805  1
  Ge  Ge3  1  0.75000000  0.20631707  0.10987195  1
  Ir  Ir0  1  0.25000000  0.15987098  0.93462691  1
  Ir  Ir1  1  0.25000000  0.65987098  0.56537309  1
  Ir  Ir2  1  0.75000000  0.84012902  0.06537309  1
  Ir  Ir3  1  0.75000000  0.34012902  0.43462691  1
loop_
_geom_bond_atom_site_label_1
_geom_bond_atom_site_label_2
_geom_bond_distance
_geom_bond_site_symmetry_2
Ge0 Ir1 2.540355 1_555
Ge0 Ir3 2.544826 1_455
Ge0 Ir3 2.544826 1_555
Ge0 Ir0 2.633261 1_555
Ge0 Y3 2.964863 1_555
Ge0 Y3 2.964863 1_455
Ge0 Y2 3.033081 1_545
Ge0 Y2 3.033081 1_445
Ge0 Y0 3.033865 1_555
Ge1 Ir0 2.540355 1_565
Ge1 Ir2 2.544826 1_456
Ge1 Ir2 2.544826 1_556
Ge1 Ir1 2.633261 1_555
Ge1 Y2 2.964863 1_555
Ge1 Y2 2.964863 1_455
Ge1 Y3 3.033081 1_455
Ge1 Y3 3.033081 1_555
Ge1 Y1 3.033865 1_556
Ge2 Ir3 2.540355 1_555
Ge2 Ir1 2.544826 1_555
Ge2 Ir1 2.544826 1_655
Ge2 Ir2 2.633261 1_555
Ge2 Y1 2.964863 1_555
Ge2 Y1 2.964863 1_655
Ge2 Y0 3.033081 1_565
Ge2 Y0 3.033081 1_665
Ge2 Y2 3.033865 1_555
Ge3 Ir2 2.540355 1_545
Ge3 Ir0 2.544826 1_654
Ge3 Ir0 2.544826 1_554
Ge3 Ir3 2.633261 1_555
Ge3 Y0 2.964863 1_655
Ge3 Y0 2.964863 1_555
Ge3 Y1 3.033081 1_555
Ge3 Y1 3.033081 1_655
Ge3 Y3 3.033865 1_554
Ir0 Y0 3.031205 1_556
Ir0 Y2 3.046703 1_545
Ir0 Y2 3.046703 1_445
Ir0 Y1 3.072943 1_556
Ir0 Y3 3.293022 1_455
Ir0 Y3 3.293022 1_555
Ir1 Y1 3.031205 1_555
Ir1 Y3 3.046703 1_455
Ir1 Y3 3.046703 1_555
Ir1 Y0 3.072943 1_565
Ir1 Y2 3.293022 1_455
Ir1 Y2 3.293022 1_555
Ir2 Y2 3.031205 1_554
Ir2 Y0 3.046703 1_565
Ir2 Y0 3.046703 1_665
Ir2 Y3 3.072943 1_554
Ir2 Y1 3.293022 1_555
Ir2 Y1 3.293022 1_655
Ir3 Y3 3.031205 1_555
Ir3 Y1 3.046703 1_655
Ir3 Y1 3.046703 1_555
Ir3 Y2 3.072943 1_545
Ir3 Y0 3.293022 1_655
Ir3 Y0 3.293022 1_555
