# generated using pymatgen
data_Mg3Ni
_symmetry_space_group_name_H-M   'P 1'
_cell_length_a   6.20117200
_cell_length_b   9.31158800
_cell_length_c   10.00474400
_cell_angle_alpha   90.00000000
_cell_angle_beta   90.00000000
_cell_angle_gamma   90.00000000
_symmetry_Int_Tables_number   1
_chemical_formula_structural   Mg3Ni
_chemical_formula_sum   'Mg24 Ni8'
_cell_volume   577.70151946
_cell_formula_units_Z   8
loop_
 _symmetry_equiv_pos_site_id
 _symmetry_equiv_pos_as_xyz
  1  'x, y, z'
loop_
 _atom_site_type_symbol
 _atom_site_label
 _atom_site_symmetry_multiplicity
 _atom_site_fract_x
 _atom_site_fract_y
 _atom_site_fract_z
 _atom_site_occupancy
  Mg  Mg0_0  1  0.00000000  0.00000000  0.33670600  1
  Mg  Mg0_1  1  0.00000000  0.00000000  0.83670600  1
  Mg  Mg0_2  1  0.00000000  0.50000000  0.33670600  1
  Mg  Mg0_3  1  0.00000000  0.50000000  0.83670600  1
  Mg  Mg0_4  1  0.50000000  0.00000000  0.33670600  1
  Mg  Mg0_5  1  0.50000000  0.00000000  0.83670600  1
  Mg  Mg0_6  1  0.50000000  0.50000000  0.33670600  1
  Mg  Mg0_7  1  0.50000000  0.50000000  0.83670600  1
  Mg  Mg1_0  1  0.00000000  0.25000000  0.15740250  1
  Mg  Mg1_1  1  0.00000000  0.25000000  0.65740250  1
  Mg  Mg1_2  1  0.00000000  0.75000000  0.15740250  1
  Mg  Mg1_3  1  0.00000000  0.75000000  0.65740250  1
  Mg  Mg1_4  1  0.50000000  0.25000000  0.15740250  1
  Mg  Mg1_5  1  0.50000000  0.25000000  0.65740250  1
  Mg  Mg1_6  1  0.50000000  0.75000000  0.15740250  1
  Mg  Mg1_7  1  0.50000000  0.75000000  0.65740250  1
  Mg  Mg2_0  1  0.25000000  0.25000000  0.42199150  1
  Mg  Mg2_1  1  0.25000000  0.25000000  0.92199150  1
  Mg  Mg2_2  1  0.25000000  0.75000000  0.42199150  1
  Mg  Mg2_3  1  0.25000000  0.75000000  0.92199150  1
  Mg  Mg2_4  1  0.75000000  0.25000000  0.42199150  1
  Mg  Mg2_5  1  0.75000000  0.25000000  0.92199150  1
  Mg  Mg2_6  1  0.75000000  0.75000000  0.42199150  1
  Mg  Mg2_7  1  0.75000000  0.75000000  0.92199150  1
  Ni  Ni0_0  1  0.25000000  0.00000000  0.08390000  1
  Ni  Ni0_1  1  0.25000000  0.00000000  0.58390000  1
  Ni  Ni0_2  1  0.25000000  0.50000000  0.08390000  1
  Ni  Ni0_3  1  0.25000000  0.50000000  0.58390000  1
  Ni  Ni0_4  1  0.75000000  0.00000000  0.08390000  1
  Ni  Ni0_5  1  0.75000000  0.00000000  0.58390000  1
  Ni  Ni0_6  1  0.75000000  0.50000000  0.08390000  1
  Ni  Ni0_7  1  0.75000000  0.50000000  0.58390000  1
loop_
_geom_bond_atom_site_label_1
_geom_bond_atom_site_label_2
_geom_bond_distance
_geom_bond_site_symmetry_2
Mg0_0 Ni0_5 2.918852 1_455
Mg0_0 Ni0_1 2.918852 1_555
Mg0_0 Mg2_0 2.924135 1_555
Mg0_0 Mg2_4 2.924135 1_455
Mg0_0 Mg2_6 2.924135 1_445
Mg0_0 Mg2_2 2.924135 1_545
Mg0_0 Mg1_0 2.938899 1_555
Mg0_0 Mg1_2 2.938899 1_545
Mg0_0 Ni0_4 2.966574 1_455
Mg0_0 Ni0_0 2.966574 1_555
Mg0_0 Mg0_4 3.100586 1_455
Mg0_0 Mg0_4 3.100586 1_555
Mg0_1 Ni0_0 2.918852 1_556
Mg0_1 Ni0_4 2.918852 1_456
Mg0_1 Mg2_5 2.924135 1_455
Mg0_1 Mg2_1 2.924135 1_555
Mg0_1 Mg2_7 2.924135 1_445
Mg0_1 Mg2_3 2.924135 1_545
Mg0_1 Mg1_1 2.938899 1_555
Mg0_1 Mg1_3 2.938899 1_545
Mg0_1 Ni0_5 2.966574 1_455
Mg0_1 Ni0_1 2.966574 1_555
Mg0_1 Mg0_5 3.100586 1_455
Mg0_1 Mg0_5 3.100586 1_555
Mg0_2 Ni0_3 2.918852 1_555
Mg0_2 Ni0_7 2.918852 1_455
Mg0_2 Mg2_0 2.924135 1_555
Mg0_2 Mg2_4 2.924135 1_455
Mg0_2 Mg2_6 2.924135 1_455
Mg0_2 Mg2_2 2.924135 1_555
Mg0_2 Mg1_0 2.938899 1_555
Mg0_2 Mg1_2 2.938899 1_555
Mg0_2 Ni0_6 2.966574 1_455
Mg0_2 Ni0_2 2.966574 1_555
Mg0_2 Mg0_6 3.100586 1_455
Mg0_2 Mg0_6 3.100586 1_555
Mg0_3 Ni0_2 2.918852 1_556
Mg0_3 Ni0_6 2.918852 1_456
Mg0_3 Mg2_5 2.924135 1_455
Mg0_3 Mg2_1 2.924135 1_555
Mg0_3 Mg2_7 2.924135 1_455
Mg0_3 Mg2_3 2.924135 1_555
Mg0_3 Mg1_1 2.938899 1_555
Mg0_3 Mg1_3 2.938899 1_555
Mg0_3 Ni0_3 2.966574 1_555
Mg0_3 Ni0_7 2.966574 1_455
Mg0_3 Mg0_7 3.100586 1_455
Mg0_3 Mg0_7 3.100586 1_555
Mg0_4 Ni0_1 2.918852 1_555
Mg0_4 Ni0_5 2.918852 1_555
Mg0_4 Mg2_0 2.924135 1_555
Mg0_4 Mg2_4 2.924135 1_555
Mg0_4 Mg2_2 2.924135 1_545
Mg0_4 Mg2_6 2.924135 1_545
Mg0_4 Mg1_4 2.938899 1_555
Mg0_4 Mg1_6 2.938899 1_545
Mg0_4 Ni0_0 2.966574 1_555
Mg0_4 Ni0_4 2.966574 1_555
Mg0_5 Ni0_0 2.918852 1_556
Mg0_5 Ni0_4 2.918852 1_556
Mg0_5 Mg2_5 2.924135 1_555
Mg0_5 Mg2_1 2.924135 1_555
Mg0_5 Mg2_3 2.924135 1_545
Mg0_5 Mg2_7 2.924135 1_545
Mg0_5 Mg1_5 2.938899 1_555
Mg0_5 Mg1_7 2.938899 1_545
Mg0_5 Ni0_1 2.966574 1_555
Mg0_5 Ni0_5 2.966574 1_555
Mg0_6 Ni0_7 2.918852 1_555
Mg0_6 Ni0_3 2.918852 1_555
Mg0_6 Mg2_0 2.924135 1_555
Mg0_6 Mg2_4 2.924135 1_555
Mg0_6 Mg2_6 2.924135 1_555
Mg0_6 Mg2_2 2.924135 1_555
Mg0_6 Mg1_4 2.938899 1_555
Mg0_6 Mg1_6 2.938899 1_555
Mg0_6 Ni0_6 2.966574 1_555
Mg0_6 Ni0_2 2.966574 1_555
Mg0_7 Ni0_2 2.918852 1_556
Mg0_7 Ni0_6 2.918852 1_556
Mg0_7 Mg2_5 2.924135 1_555
Mg0_7 Mg2_1 2.924135 1_555
Mg0_7 Mg2_7 2.924135 1_555
Mg0_7 Mg2_3 2.924135 1_555
Mg0_7 Mg1_5 2.938899 1_555
Mg0_7 Mg1_7 2.938899 1_555
Mg0_7 Ni0_3 2.966574 1_555
Mg0_7 Ni0_7 2.966574 1_555
Mg1_0 Mg2_1 2.819663 1_554
Mg1_0 Mg2_5 2.819663 1_454
Mg1_0 Ni0_2 2.891935 1_555
Mg1_0 Ni0_6 2.891935 1_455
Mg1_0 Ni0_4 2.891935 1_455
Mg1_0 Ni0_0 2.891935 1_555
Mg1_0 Mg2_0 3.067700 1_555
Mg1_0 Mg2_4 3.067700 1_455
Mg1_0 Mg1_4 3.100586 1_455
Mg1_0 Mg1_4 3.100586 1_555
Mg1_1 Mg2_4 2.819663 1_455
Mg1_1 Mg2_0 2.819663 1_555
Mg1_1 Ni0_1 2.891935 1_555
Mg1_1 Ni0_7 2.891935 1_455
Mg1_1 Ni0_5 2.891935 1_455
Mg1_1 Ni0_3 2.891935 1_555
Mg1_1 Mg2_1 3.067700 1_555
Mg1_1 Mg2_5 3.067700 1_455
Mg1_1 Mg1_5 3.100586 1_455
Mg1_1 Mg1_5 3.100586 1_555
Mg1_2 Mg2_3 2.819663 1_554
Mg1_2 Mg2_7 2.819663 1_454
Mg1_2 Ni0_4 2.891935 1_465
Mg1_2 Ni0_0 2.891935 1_565
Mg1_2 Ni0_6 2.891935 1_455
Mg1_2 Ni0_2 2.891935 1_555
Mg1_2 Mg2_2 3.067700 1_555
Mg1_2 Mg2_6 3.067700 1_455
Mg1_2 Mg1_6 3.100586 1_555
Mg1_2 Mg1_6 3.100586 1_455
Mg1_3 Mg2_2 2.819663 1_555
Mg1_3 Mg2_6 2.819663 1_455
Mg1_3 Ni0_7 2.891935 1_455
Mg1_3 Ni0_5 2.891935 1_465
Mg1_3 Ni0_1 2.891935 1_565
Mg1_3 Ni0_3 2.891935 1_555
Mg1_3 Mg2_3 3.067700 1_555
Mg1_3 Mg2_7 3.067700 1_455
Mg1_3 Mg1_7 3.100586 1_555
Mg1_3 Mg1_7 3.100586 1_455
Mg1_4 Mg2_1 2.819663 1_554
Mg1_4 Mg2_5 2.819663 1_554
Mg1_4 Ni0_2 2.891935 1_555
Mg1_4 Ni0_4 2.891935 1_555
Mg1_4 Ni0_6 2.891935 1_555
Mg1_4 Ni0_0 2.891935 1_555
Mg1_4 Mg2_0 3.067700 1_555
Mg1_4 Mg2_4 3.067700 1_555
Mg1_5 Mg2_4 2.819663 1_555
Mg1_5 Mg2_0 2.819663 1_555
Mg1_5 Ni0_1 2.891935 1_555
Mg1_5 Ni0_5 2.891935 1_555
Mg1_5 Ni0_3 2.891935 1_555
Mg1_5 Ni0_7 2.891935 1_555
Mg1_5 Mg2_5 3.067700 1_555
Mg1_5 Mg2_1 3.067700 1_555
Mg1_6 Mg2_3 2.819663 1_554
Mg1_6 Mg2_7 2.819663 1_554
Mg1_6 Ni0_4 2.891935 1_565
Mg1_6 Ni0_0 2.891935 1_565
Mg1_6 Ni0_2 2.891935 1_555
Mg1_6 Ni0_6 2.891935 1_555
Mg1_6 Mg2_2 3.067700 1_555
Mg1_6 Mg2_6 3.067700 1_555
Mg1_7 Mg2_6 2.819663 1_555
Mg1_7 Mg2_2 2.819663 1_555
Mg1_7 Ni0_5 2.891935 1_565
Mg1_7 Ni0_1 2.891935 1_565
Mg1_7 Ni0_3 2.891935 1_555
Mg1_7 Ni0_7 2.891935 1_555
Mg1_7 Mg2_3 3.067700 1_555
Mg1_7 Mg2_7 3.067700 1_555
Mg2_0 Ni0_1 2.836023 1_555
Mg2_0 Ni0_3 2.836023 1_555
Mg2_0 Mg2_4 3.100586 1_455
Mg2_0 Mg2_4 3.100586 1_555
Mg2_1 Ni0_2 2.836023 1_556
Mg2_1 Ni0_0 2.836023 1_556
Mg2_1 Mg2_5 3.100586 1_555
Mg2_1 Mg2_5 3.100586 1_455
Mg2_2 Ni0_1 2.836023 1_565
Mg2_2 Ni0_3 2.836023 1_555
Mg2_2 Mg2_6 3.100586 1_455
Mg2_2 Mg2_6 3.100586 1_555
Mg2_3 Ni0_0 2.836023 1_566
Mg2_3 Ni0_2 2.836023 1_556
Mg2_3 Mg2_7 3.100586 1_455
Mg2_3 Mg2_7 3.100586 1_555
Mg2_4 Ni0_5 2.836023 1_555
Mg2_4 Ni0_7 2.836023 1_555
Mg2_5 Ni0_4 2.836023 1_556
Mg2_5 Ni0_6 2.836023 1_556
Mg2_6 Ni0_7 2.836023 1_555
Mg2_6 Ni0_5 2.836023 1_565
Mg2_7 Ni0_4 2.836023 1_566
Mg2_7 Ni0_6 2.836023 1_556
Ni0_0 Ni0_4 3.100586 1_455
Ni0_0 Ni0_4 3.100586 1_555
Ni0_1 Ni0_5 3.100586 1_455
Ni0_1 Ni0_5 3.100586 1_555
Ni0_2 Ni0_6 3.100586 1_555
Ni0_2 Ni0_6 3.100586 1_455
Ni0_3 Ni0_7 3.100586 1_555
Ni0_3 Ni0_7 3.100586 1_455
