# generated using pymatgen
data_NaSi2H7O8
_symmetry_space_group_name_H-M   'P 1'
_cell_length_a   5.00640900
_cell_length_b   7.41333900
_cell_length_c   20.44137600
_cell_angle_alpha   90.00000000
_cell_angle_beta   90.00000000
_cell_angle_gamma   90.00000000
_symmetry_Int_Tables_number   1
_chemical_formula_structural   NaSi2H7O8
_chemical_formula_sum   'Na4 Si8 H28 O32'
_cell_volume   758.66546206
_cell_formula_units_Z   4
loop_
 _symmetry_equiv_pos_site_id
 _symmetry_equiv_pos_as_xyz
  1  'x, y, z'
loop_
 _atom_site_type_symbol
 _atom_site_label
 _atom_site_symmetry_multiplicity
 _atom_site_fract_x
 _atom_site_fract_y
 _atom_site_fract_z
 _atom_site_occupancy
  Na  Na0  1  0.50074100  0.75274800  0.51953700  1
  Na  Na1  1  0.99925900  0.25274800  0.98046300  1
  Na  Na2  1  0.50074100  0.25274800  0.48046300  1
  Na  Na3  1  0.99925900  0.75274800  0.01953700  1
  Si  Si0  1  0.95474900  0.45750700  0.29059500  1
  Si  Si1  1  0.54525100  0.95750700  0.20940500  1
  Si  Si2  1  0.45633000  0.53845300  0.20318900  1
  Si  Si3  1  0.04367000  0.03845300  0.29681100  1
  Si  Si4  1  0.04367000  0.53845300  0.70318900  1
  Si  Si5  1  0.45633000  0.03845300  0.79681100  1
  Si  Si6  1  0.54525100  0.45750700  0.79059500  1
  Si  Si7  1  0.95474900  0.95750700  0.70940500  1
  H  H0  1  0.32504600  0.54921700  0.39459500  1
  H  H1  1  0.17495400  0.04921700  0.10540500  1
  H  H2  1  0.82379100  0.44869300  0.10343800  1
  H  H3  1  0.67620900  0.94869300  0.39656200  1
  H  H4  1  0.67620900  0.44869300  0.60343800  1
  H  H5  1  0.82379100  0.94869300  0.89656200  1
  H  H6  1  0.17495400  0.54921700  0.89459500  1
  H  H7  1  0.32504600  0.04921700  0.60540500  1
  H  H8  1  0.64051600  0.55815300  0.39544600  1
  H  H9  1  0.85948400  0.05815300  0.10455400  1
  H  H10  1  0.14070600  0.43895800  0.10307000  1
  H  H11  1  0.35929400  0.93895800  0.39693000  1
  H  H12  1  0.35929400  0.43895800  0.60307000  1
  H  H13  1  0.14070600  0.93895800  0.89693000  1
  H  H14  1  0.85948400  0.55815300  0.89544600  1
  H  H15  1  0.64051600  0.05815300  0.60455400  1
  H  H16  1  0.00227200  0.83255400  0.45165800  1
  H  H17  1  0.49772800  0.33255400  0.04834200  1
  H  H18  1  0.49819600  0.13809900  0.02334700  1
  H  H19  1  0.00180400  0.63809900  0.47665300  1
  H  H20  1  0.00180400  0.13809900  0.52334700  1
  H  H21  1  0.49819600  0.63809900  0.97665300  1
  H  H22  1  0.49772800  0.83255400  0.95165800  1
  H  H23  1  0.00227200  0.33255400  0.54834200  1
  H  H24  1  0.99764300  0.72977900  0.35247400  1
  H  H25  1  0.50235700  0.22977900  0.14752600  1
  H  H26  1  0.50235700  0.72977900  0.85247400  1
  H  H27  1  0.99764300  0.22977900  0.64752600  1
  O  O0  1  0.00121000  0.76230000  0.49270800  1
  O  O1  1  0.49879000  0.26230000  0.00729200  1
  O  O2  1  0.00121000  0.26230000  0.50729200  1
  O  O3  1  0.49879000  0.76230000  0.99270800  1
  O  O4  1  0.51553600  0.46751900  0.57553100  1
  O  O5  1  0.98446400  0.96751900  0.92446900  1
  O  O6  1  0.01627400  0.53104500  0.92291200  1
  O  O7  1  0.48372600  0.03104500  0.57708800  1
  O  O8  1  0.48372600  0.53104500  0.42291200  1
  O  O9  1  0.01627400  0.03104500  0.07708800  1
  O  O10  1  0.98446400  0.46751900  0.07553100  1
  O  O11  1  0.51553600  0.96751900  0.42446900  1
  O  O12  1  0.00104100  0.25102700  0.31503900  1
  O  O13  1  0.49895900  0.75102700  0.18496100  1
  O  O14  1  0.00104100  0.75102700  0.68496100  1
  O  O15  1  0.49895900  0.25102700  0.81503900  1
  O  O16  1  0.15052100  0.51262400  0.23030000  1
  O  O17  1  0.34947900  0.01262400  0.26970000  1
  O  O18  1  0.64861000  0.48026900  0.26461300  1
  O  O19  1  0.85139000  0.98026900  0.23538700  1
  O  O20  1  0.85139000  0.48026900  0.76461300  1
  O  O21  1  0.64861000  0.98026900  0.73538700  1
  O  O22  1  0.34947900  0.51262400  0.73030000  1
  O  O23  1  0.15052100  0.01262400  0.76970000  1
  O  O24  1  0.99919100  0.58396600  0.35563300  1
  O  O25  1  0.50080900  0.08396600  0.14436700  1
  O  O26  1  0.50118200  0.41598900  0.13841800  1
  O  O27  1  0.99881800  0.91598900  0.36158200  1
  O  O28  1  0.99881800  0.41598900  0.63841800  1
  O  O29  1  0.50118200  0.91598900  0.86158200  1
  O  O30  1  0.50080900  0.58396600  0.85563300  1
  O  O31  1  0.99919100  0.08396600  0.64436700  1
loop_
_geom_bond_atom_site_label_1
_geom_bond_atom_site_label_2
_geom_bond_distance
_geom_bond_site_symmetry_2
Na0 O7 2.376478 1_565
Na0 O4 2.405554 1_555
Na0 O11 2.513362 1_555
Na0 O0 2.561262 1_555
Na0 O0 2.565848 1_655
Na0 O8 2.570944 1_555
Na1 O6 2.376478 1_655
Na1 O5 2.405554 1_545
Na1 O10 2.513362 1_556
Na1 O1 2.561262 1_656
Na1 O1 2.565848 1_556
Na1 O9 2.570944 1_656
Na2 O8 2.376478 1_555
Na2 O11 2.405554 1_545
Na2 O4 2.513362 1_555
Na2 O2 2.561262 1_555
Na2 O2 2.565848 1_655
Na2 O7 2.570944 1_555
Na3 O9 2.376478 1_665
Na3 O10 2.405554 1_555
Na3 O5 2.513362 1_554
Na3 O3 2.561262 1_654
Na3 O3 2.565848 1_554
Na3 O6 2.570944 1_654
H0 O8 0.992119 1_555
H1 O9 0.992119 1_555
H2 O10 0.995967 1_555
H3 O11 0.995967 1_555
H4 O4 0.995967 1_555
H5 O5 0.995967 1_555
H6 O6 0.992119 1_555
H7 O7 0.992119 1_555
H8 O8 0.985778 1_555
H9 O9 0.985778 1_655
H10 O10 0.986702 1_455
H11 O11 0.986702 1_555
H12 O4 0.986702 1_555
H13 O5 0.986702 1_455
H14 O6 0.985778 1_655
H15 O7 0.985778 1_555
H16 O0 0.987622 1_555
H17 O1 0.987622 1_555
H18 O1 0.977489 1_555
H19 O0 0.977489 1_555
H20 O2 0.977489 1_555
H21 O3 0.977489 1_555
H22 O3 0.987622 1_555
H23 O2 0.987622 1_555
H24 O24 1.082916 1_555
H24 O27 1.392949 1_555
H25 O25 1.082916 1_555
H25 O26 1.392949 1_555
H26 O30 1.082916 1_555
H26 O29 1.392949 1_555
H27 O31 1.082916 1_555
H27 O28 1.392949 1_555
O12 Si0 1.626789 1_455
O12 Si3 1.633337 1_555
O13 Si1 1.626789 1_555
O13 Si2 1.633337 1_555
O14 Si7 1.626789 1_455
O14 Si4 1.633337 1_555
O15 Si6 1.626789 1_555
O15 Si5 1.633337 1_555
O16 Si0 1.626858 1_455
O16 Si2 1.639440 1_555
O17 Si1 1.626858 1_545
O17 Si3 1.639440 1_555
O18 Si0 1.630824 1_555
O18 Si2 1.639885 1_555
O19 Si1 1.630824 1_555
O19 Si3 1.639885 1_665
O20 Si6 1.630824 1_555
O20 Si4 1.639885 1_655
O21 Si7 1.630824 1_555
O21 Si5 1.639885 1_565
O22 Si6 1.626858 1_555
O22 Si4 1.639440 1_555
O23 Si7 1.626858 1_445
O23 Si5 1.639440 1_555
O24 Si0 1.641907 1_555
O25 Si1 1.641907 1_545
O26 Si2 1.621000 1_555
O27 Si3 1.621000 1_665
O28 Si4 1.621000 1_655
O29 Si5 1.621000 1_565
O30 Si6 1.641907 1_555
O31 Si7 1.641907 1_545
