# generated using pymatgen
data_Sb3O7
_symmetry_space_group_name_H-M   'P 1'
_cell_length_a   7.61274607
_cell_length_b   7.61274607
_cell_length_c   7.61274607
_cell_angle_alpha   128.55388094
_cell_angle_beta   119.80600064
_cell_angle_gamma   83.08970795
_symmetry_Int_Tables_number   1
_chemical_formula_structural   Sb3O7
_chemical_formula_sum   'Sb6 O14'
_cell_volume   287.46937077
_cell_formula_units_Z   2
loop_
 _symmetry_equiv_pos_site_id
 _symmetry_equiv_pos_as_xyz
  1  'x, y, z'
loop_
 _atom_site_type_symbol
 _atom_site_label
 _atom_site_symmetry_multiplicity
 _atom_site_fract_x
 _atom_site_fract_y
 _atom_site_fract_z
 _atom_site_occupancy
  Sb  Sb0  1  0.78544000  0.28544000  0.00000000  1
  Sb  Sb1  1  0.71456000  0.71456000  0.50000000  1
  Sb  Sb2  1  0.50000000  0.00000000  0.00000000  1
  Sb  Sb3  1  0.00000000  0.00000000  0.50000000  1
  Sb  Sb4  1  0.28544000  0.28544000  0.50000000  1
  Sb  Sb5  1  0.21456000  0.71456000  0.00000000  1
  O  O0  1  0.33584300  0.66375900  0.78262200  1
  O  O1  1  0.16415700  0.94677900  0.32791500  1
  O  O2  1  0.38113600  0.05322100  0.21737800  1
  O  O3  1  0.11886400  0.33624100  0.67208500  1
  O  O4  1  0.66415700  0.33624100  0.21737800  1
  O  O5  1  0.83584300  0.05322100  0.67208500  1
  O  O6  1  0.61886400  0.94677900  0.78262200  1
  O  O7  1  0.88113600  0.66375900  0.32791500  1
  O  O8  1  0.75000000  0.94442000  0.19442000  1
  O  O9  1  0.25000000  0.05558000  0.80558000  1
  O  O10  1  0.92595000  0.70888900  0.78293900  1
  O  O11  1  0.57405000  0.35698800  0.78293900  1
  O  O12  1  0.42595000  0.64301200  0.21706100  1
  O  O13  1  0.07405000  0.29111100  0.21706100  1
loop_
_geom_bond_atom_site_label_1
_geom_bond_atom_site_label_2
_geom_bond_distance
_geom_bond_site_symmetry_2
O0 Sb2 2.070296 1_566
O0 Sb5 2.091847 1_556
O0 Sb4 2.189119 1_555
O1 Sb3 2.070302 1_565
O1 Sb4 2.091844 1_565
O1 Sb5 2.189113 1_555
O2 Sb2 2.070302 1_555
O2 Sb5 2.091844 1_545
O2 Sb4 2.189113 1_555
O3 Sb3 2.070296 1_555
O3 Sb4 2.091847 1_555
O3 Sb5 2.189118 1_556
O4 Sb2 2.070296 1_555
O4 Sb0 2.091847 1_555
O4 Sb1 2.189119 1_555
O5 Sb3 2.070302 1_655
O5 Sb1 2.091844 1_545
O5 Sb0 2.189113 1_556
O6 Sb2 2.070302 1_566
O6 Sb0 2.091844 1_566
O6 Sb1 2.189113 1_555
O7 Sb3 2.070296 1_665
O7 Sb1 2.091847 1_555
O7 Sb0 2.189118 1_555
O8 Sb3 1.943780 1_665
O8 Sb2 1.943780 1_565
O9 Sb2 1.943780 1_556
O9 Sb3 1.943780 1_555
O10 Sb1 1.970872 1_555
O10 Sb5 1.970872 1_656
O11 Sb0 1.970867 1_556
O11 Sb4 1.970874 1_555
O12 Sb5 1.970867 1_555
O12 Sb1 1.970874 1_555
O13 Sb0 1.970872 1_455
O13 Sb4 1.970872 1_555
