# generated using pymatgen
data_Mn3P3O13
_symmetry_space_group_name_H-M   'P 1'
_cell_length_a   6.21814300
_cell_length_b   7.43618400
_cell_length_c   10.47021091
_cell_angle_alpha   80.55048769
_cell_angle_beta   90.00000000
_cell_angle_gamma   90.00000000
_symmetry_Int_Tables_number   1
_chemical_formula_structural   Mn3P3O13
_chemical_formula_sum   'Mn6 P6 O26'
_cell_volume   477.56536544
_cell_formula_units_Z   2
loop_
 _symmetry_equiv_pos_site_id
 _symmetry_equiv_pos_as_xyz
  1  'x, y, z'
loop_
 _atom_site_type_symbol
 _atom_site_label
 _atom_site_symmetry_multiplicity
 _atom_site_fract_x
 _atom_site_fract_y
 _atom_site_fract_z
 _atom_site_occupancy
  Mn  Mn0  1  0.25000000  0.63186300  0.19681100  1
  Mn  Mn1  1  0.75000000  0.36813700  0.80318900  1
  Mn  Mn2  1  0.25000000  0.23431900  0.44743400  1
  Mn  Mn3  1  0.50000000  0.00000000  0.00000000  1
  Mn  Mn4  1  0.75000000  0.76568100  0.55256600  1
  Mn  Mn5  1  0.00000000  0.00000000  0.00000000  1
  P  P0  1  0.25000000  0.78677700  0.47371700  1
  P  P1  1  0.75000000  0.21322300  0.52628300  1
  P  P2  1  0.25000000  0.26060900  0.76822200  1
  P  P3  1  0.75000000  0.73939100  0.23177800  1
  P  P4  1  0.75000000  0.69335800  0.88328100  1
  P  P5  1  0.25000000  0.30664200  0.11671900  1
  O  O0  1  0.75000000  0.64841900  0.74122000  1
  O  O1  1  0.55359900  0.25931000  0.43524100  1
  O  O2  1  0.25000000  0.19733300  0.63752400  1
  O  O3  1  0.54499500  0.79734800  0.91099800  1
  O  O4  1  0.75000000  0.35160700  0.62306200  1
  O  O5  1  0.75000000  0.12538000  0.89984000  1
  O  O6  1  0.25000000  0.64839300  0.37693800  1
  O  O7  1  0.04499500  0.20265200  0.08900200  1
  O  O8  1  0.25000000  0.98110000  0.40014900  1
  O  O9  1  0.75000000  0.01890000  0.59985100  1
  O  O10  1  0.05446900  0.37226400  0.79729900  1
  O  O11  1  0.25000000  0.87462000  0.10016000  1
  O  O12  1  0.55446900  0.62773600  0.20270100  1
  O  O13  1  0.75000000  0.49135800  0.95349000  1
  O  O14  1  0.75000000  0.80266700  0.36247600  1
  O  O15  1  0.45500500  0.20265200  0.08900200  1
  O  O16  1  0.94640100  0.25931000  0.43524100  1
  O  O17  1  0.44640100  0.74069000  0.56475900  1
  O  O18  1  0.44553100  0.37226400  0.79729900  1
  O  O19  1  0.25000000  0.35158100  0.25878000  1
  O  O20  1  0.75000000  0.92017100  0.12179800  1
  O  O21  1  0.25000000  0.07982900  0.87820200  1
  O  O22  1  0.94553100  0.62773600  0.20270100  1
  O  O23  1  0.95500500  0.79734800  0.91099800  1
  O  O24  1  0.05359900  0.74069000  0.56475900  1
  O  O25  1  0.25000000  0.50864200  0.04651000  1
loop_
_geom_bond_atom_site_label_1
_geom_bond_atom_site_label_2
_geom_bond_distance
_geom_bond_site_symmetry_2
Mn0 O22 1.894320 1_455
Mn0 O12 1.894320 1_555
Mn0 O6 1.910001 1_555
Mn0 O11 1.919093 1_555
Mn0 O25 1.946677 1_555
Mn0 O19 2.078689 1_555
Mn1 O18 1.894320 1_555
Mn1 O10 1.894320 1_655
Mn1 O4 1.910001 1_555
Mn1 O5 1.919093 1_555
Mn1 O13 1.946677 1_555
Mn1 O0 2.078689 1_555
Mn2 O16 1.899188 1_455
Mn2 O1 1.899188 1_555
Mn2 O2 1.963957 1_555
Mn2 O19 2.023956 1_555
Mn2 O8 2.024065 1_545
Mn3 O15 1.917991 1_555
Mn3 O3 1.917991 1_544
Mn3 O5 2.016077 1_554
Mn3 O11 2.016077 1_545
Mn3 O21 2.036335 1_554
Mn3 O20 2.036335 1_545
Mn4 O24 1.899188 1_655
Mn4 O17 1.899188 1_555
Mn4 O14 1.963957 1_555
Mn4 O0 2.023956 1_555
Mn4 O9 2.024065 1_565
Mn5 O7 1.917991 1_555
Mn5 O23 1.917991 1_444
Mn5 O5 2.016077 1_454
Mn5 O11 2.016077 1_545
Mn5 O21 2.036335 1_554
Mn5 O20 2.036335 1_445
O0 P4 1.577108 1_555
O1 P1 1.552507 1_555
O2 P2 1.518369 1_555
O3 P4 1.543006 1_555
O4 P1 1.558236 1_555
O6 P0 1.558236 1_555
O7 P5 1.543006 1_555
O8 P0 1.521817 1_555
O9 P1 1.521817 1_555
O10 P2 1.530793 1_555
O12 P3 1.530793 1_555
O13 P4 1.560171 1_555
O14 P3 1.518369 1_555
O15 P5 1.543006 1_555
O16 P1 1.552507 1_555
O17 P0 1.552507 1_555
O18 P2 1.530793 1_555
O19 P5 1.577108 1_555
O20 P3 1.620144 1_555
O21 P2 1.620144 1_555
O22 P3 1.530793 1_555
O23 P4 1.543006 1_555
O24 P0 1.552507 1_555
O25 P5 1.560171 1_555
