# generated using pymatgen
data_NaHfMg14O15
_symmetry_space_group_name_H-M   'P 1'
_cell_length_a   8.61343925
_cell_length_b   8.66965001
_cell_length_c   4.33153758
_cell_angle_alpha   90.00000000
_cell_angle_beta   90.00000000
_cell_angle_gamma   90.00000000
_symmetry_Int_Tables_number   1
_chemical_formula_structural   NaHfMg14O15
_chemical_formula_sum   'Na1 Hf1 Mg14 O15'
_cell_volume   323.45975049
_cell_formula_units_Z   1
loop_
 _symmetry_equiv_pos_site_id
 _symmetry_equiv_pos_as_xyz
  1  'x, y, z'
loop_
 _atom_site_type_symbol
 _atom_site_label
 _atom_site_symmetry_multiplicity
 _atom_site_fract_x
 _atom_site_fract_y
 _atom_site_fract_z
 _atom_site_occupancy
  Na  Na0  1  0.00231534  0.00000000  -0.00000000  1
  Hf  Hf0  1  0.50085262  0.50000000  -0.00000000  1
  Mg  Mg0  1  0.99951573  0.50000000  -0.00000000  1
  Mg  Mg1  1  0.49900789  0.00000000  -0.00000000  1
  Mg  Mg2  1  0.00041554  0.24473714  0.50000000  1
  Mg  Mg3  1  0.00041554  0.75526286  0.50000000  1
  Mg  Mg4  1  0.50002215  0.24021119  0.50000000  1
  Mg  Mg5  1  0.50002215  0.75978881  0.50000000  1
  Mg  Mg6  1  0.24630645  0.00000000  0.50000000  1
  Mg  Mg7  1  0.24029816  0.50000000  0.50000000  1
  Mg  Mg8  1  0.75560625  0.00000000  0.50000000  1
  Mg  Mg9  1  0.75975432  0.50000000  0.50000000  1
  Mg  Mg10  1  0.24181393  0.24544459  0.00000000  1
  Mg  Mg11  1  0.24181393  0.75455541  0.00000000  1
  Mg  Mg12  1  0.75882958  0.24102150  0.00000000  1
  Mg  Mg13  1  0.75882958  0.75897850  -0.00000000  1
  O  O0  1  0.25114221  0.50000000  -0.00000000  1
  O  O1  1  0.73552214  0.00000000  -0.00000000  1
  O  O2  1  0.74949642  0.50000000  -0.00000000  1
  O  O3  1  0.25259142  0.25457698  0.50000000  1
  O  O4  1  0.25259142  0.74542302  0.50000000  1
  O  O5  1  0.74809134  0.25211677  0.50000000  1
  O  O6  1  0.74809134  0.74788323  0.50000000  1
  O  O7  1  0.00106682  0.00000000  0.50000000  1
  O  O8  1  0.99995975  0.50000000  0.50000000  1
  O  O9  1  0.50209282  0.00000000  0.50000000  1
  O  O10  1  0.50028163  0.50000000  0.50000000  1
  O  O11  1  0.99995512  0.26525618  -0.00000000  1
  O  O12  1  0.99995512  0.73474382  -0.00000000  1
  O  O13  1  0.50167164  0.25202485  -0.00000000  1
  O  O14  1  0.50167164  0.74797515  -0.00000000  1
loop_
_geom_bond_atom_site_label_1
_geom_bond_atom_site_label_2
_geom_bond_distance
_geom_bond_site_symmetry_2
Na0 O7 2.165795 1_555
Na0 O7 2.165795 1_554
Na0 O1 2.298007 1_455
Na0 O12 2.299768 1_445
Na0 O11 2.299768 1_455
Hf0 O2 2.141678 1_555
Hf0 O14 2.149869 1_555
Hf0 O13 2.149869 1_555
Hf0 O0 2.150865 1_555
Hf0 O10 2.165774 1_555
Hf0 O10 2.165774 1_554
Mg0 O11 2.035150 1_555
Mg0 O12 2.035150 1_555
Mg0 O2 2.153526 1_555
Mg0 O8 2.165772 1_555
Mg0 O8 2.165772 1_554
Mg0 O0 2.167369 1_655
Mg1 O1 2.037201 1_555
Mg1 O9 2.165932 1_555
Mg1 O9 2.165932 1_554
Mg1 O14 2.185088 1_545
Mg1 O13 2.185088 1_555
Mg2 O7 2.121793 1_555
Mg2 O11 2.173066 1_455
Mg2 O11 2.173066 1_456
Mg2 O3 2.173776 1_555
Mg2 O5 2.174321 1_455
Mg2 O8 2.213043 1_455
Mg3 O7 2.121793 1_565
Mg3 O12 2.173066 1_455
Mg3 O12 2.173066 1_456
Mg3 O4 2.173776 1_555
Mg3 O6 2.174321 1_455
Mg3 O8 2.213043 1_455
Mg4 O9 2.082623 1_555
Mg4 O3 2.134866 1_555
Mg4 O5 2.139220 1_555
Mg4 O13 2.168236 1_555
Mg4 O13 2.168236 1_556
Mg4 O10 2.252279 1_555
Mg5 O9 2.082623 1_565
Mg5 O4 2.134866 1_555
Mg5 O6 2.139220 1_555
Mg5 O14 2.168236 1_556
Mg5 O14 2.168236 1_555
Mg5 O10 2.252279 1_555
Mg6 O7 2.112357 1_555
Mg6 O9 2.203200 1_555
Mg6 O4 2.207757 1_545
Mg6 O3 2.207757 1_555
Mg7 O8 2.070140 1_455
Mg7 O3 2.130365 1_555
Mg7 O4 2.130365 1_555
Mg7 O0 2.167782 1_555
Mg7 O0 2.167782 1_556
Mg7 O10 2.239352 1_555
Mg8 O7 2.114260 1_655
Mg8 O1 2.172667 1_556
Mg8 O1 2.172667 1_555
Mg8 O9 2.183623 1_555
Mg8 O6 2.186722 1_545
Mg8 O5 2.186722 1_555
Mg9 O8 2.068995 1_555
Mg9 O5 2.151408 1_555
Mg9 O6 2.151408 1_555
Mg9 O2 2.167570 1_555
Mg9 O2 2.167570 1_556
Mg9 O10 2.234952 1_555
Mg10 O11 2.090305 1_455
Mg10 O3 2.169203 1_554
Mg10 O3 2.169203 1_555
Mg10 O0 2.208368 1_555
Mg10 O13 2.238996 1_555
Mg11 O12 2.090305 1_455
Mg11 O4 2.169203 1_554
Mg11 O4 2.169203 1_555
Mg11 O0 2.208368 1_555
Mg11 O14 2.238996 1_555
Mg12 O11 2.087521 1_555
Mg12 O1 2.099194 1_555
Mg12 O5 2.169876 1_555
Mg12 O5 2.169876 1_554
Mg12 O13 2.217068 1_555
Mg12 O2 2.246692 1_555
Mg13 O12 2.087521 1_555
Mg13 O1 2.099194 1_565
Mg13 O6 2.169876 1_555
Mg13 O6 2.169876 1_554
Mg13 O14 2.217068 1_555
Mg13 O2 2.246692 1_555
