# generated using pymatgen
data_Ag2Te3Mo3O16
_symmetry_space_group_name_H-M   'P 1'
_cell_length_a   7.80689407
_cell_length_b   7.80689407
_cell_length_c   7.54646473
_cell_angle_alpha   65.72124428
_cell_angle_beta   65.72124428
_cell_angle_gamma   95.41935565
_symmetry_Int_Tables_number   1
_chemical_formula_structural   Ag2Te3Mo3O16
_chemical_formula_sum   'Ag2 Te3 Mo3 O16'
_cell_volume   362.45208575
_cell_formula_units_Z   1
loop_
 _symmetry_equiv_pos_site_id
 _symmetry_equiv_pos_as_xyz
  1  'x, y, z'
loop_
 _atom_site_type_symbol
 _atom_site_label
 _atom_site_symmetry_multiplicity
 _atom_site_fract_x
 _atom_site_fract_y
 _atom_site_fract_z
 _atom_site_occupancy
  Ag  Ag0  1  0.09603700  0.90396300  0.50000000  1
  Ag  Ag1  1  0.53218900  0.46781100  0.00000000  1
  Te  Te0  1  0.59398700  0.40601300  0.50000000  1
  Te  Te1  1  0.97746300  0.46984300  0.99853500  1
  Te  Te2  1  0.53015700  0.02253700  0.00146500  1
  Mo  Mo0  1  0.61557700  0.93757700  0.46696600  1
  Mo  Mo1  1  0.06242300  0.38442300  0.53303400  1
  Mo  Mo2  1  0.99949800  0.00050200  0.00000000  1
  O  O0  1  0.86512000  0.45762000  0.43787800  1
  O  O1  1  0.54238000  0.13488000  0.56212200  1
  O  O2  1  0.71823000  0.48999800  0.16208300  1
  O  O3  1  0.51000200  0.28177000  0.83791700  1
  O  O4  1  0.93853400  0.52193100  0.75354600  1
  O  O5  1  0.47806900  0.06146600  0.24645400  1
  O  O6  1  0.87888100  0.18334400  0.15933000  1
  O  O7  1  0.81665600  0.12111900  0.84067000  1
  O  O8  1  0.74968400  0.86580000  0.60915300  1
  O  O9  1  0.13420000  0.25031600  0.39084700  1
  O  O10  1  0.39435700  0.73880300  0.65026600  1
  O  O11  1  0.26119700  0.60564300  0.34973400  1
  O  O12  1  0.73729400  0.83264800  0.25966400  1
  O  O13  1  0.16735200  0.26270600  0.74033600  1
  O  O14  1  0.14963700  0.96155700  0.12730600  1
  O  O15  1  0.03844300  0.85036300  0.87269400  1
loop_
_geom_bond_atom_site_label_1
_geom_bond_atom_site_label_2
_geom_bond_distance
_geom_bond_site_symmetry_2
Ag0 O9 2.427545 1_565
Ag0 O8 2.427545 1_455
Ag0 O14 2.498848 1_555
Ag0 O15 2.498848 1_555
Ag0 O5 2.597661 1_565
Ag0 O4 2.597661 1_455
Ag1 O2 2.285434 1_555
Ag1 O3 2.285434 1_554
Mo0 O10 1.751621 1_555
Mo0 O8 1.761153 1_555
Mo0 O1 1.988267 1_565
Mo0 O12 1.999935 1_555
Mo0 O6 2.228002 1_565
Mo0 O5 2.280061 1_565
Mo1 O11 1.751621 1_555
Mo1 O9 1.761153 1_555
Mo1 O0 1.988267 1_455
Mo1 O13 1.999935 1_555
Mo1 O7 2.228002 1_455
Mo1 O4 2.280061 1_455
Mo2 O14 1.772682 1_645
Mo2 O15 1.772682 1_644
Mo2 O13 1.957107 1_654
Mo2 O12 1.957107 1_545
Mo2 O6 2.259244 1_555
Mo2 O7 2.259244 1_554
O0 Te0 1.931347 1_555
O1 Te0 1.931347 1_555
O2 Te1 1.951819 1_554
O2 Te0 2.084336 1_555
O3 Te2 1.951819 1_556
O3 Te0 2.084336 1_555
O4 Te1 1.882271 1_555
O5 Te2 1.882271 1_555
O6 Te1 1.934523 1_554
O7 Te2 1.934523 1_556
O14 Te2 2.644720 1_565
O15 Te1 2.644720 1_455
