# generated using pymatgen
data_Na5Dy4Si4O16F
_symmetry_space_group_name_H-M   'P 1'
_cell_length_a   8.69637464
_cell_length_b   8.69637464
_cell_length_c   8.69637464
_cell_angle_alpha   95.60702401
_cell_angle_beta   95.60702401
_cell_angle_gamma   143.57069608
_symmetry_Int_Tables_number   1
_chemical_formula_structural   Na5Dy4Si4O16F
_chemical_formula_sum   'Na5 Dy4 Si4 O16 F1'
_cell_volume   370.98085701
_cell_formula_units_Z   1
loop_
 _symmetry_equiv_pos_site_id
 _symmetry_equiv_pos_as_xyz
  1  'x, y, z'
loop_
 _atom_site_type_symbol
 _atom_site_label
 _atom_site_symmetry_multiplicity
 _atom_site_fract_x
 _atom_site_fract_y
 _atom_site_fract_z
 _atom_site_occupancy
  Na  Na0  1  0.59786300  0.90377300  0.51548500  1
  Na  Na1  1  0.38828800  0.08237800  0.48451500  1
  Na  Na2  1  0.09622700  0.61171200  0.69409000  1
  Na  Na3  1  0.91762200  0.40213700  0.30591000  1
  Na  Na4  1  0.50000000  0.50000000  0.00000000  1
  Dy  Dy0  1  0.16025900  0.86185800  0.06720800  1
  Dy  Dy1  1  0.79465000  0.09305100  0.93279200  1
  Dy  Dy2  1  0.13814200  0.20535000  0.29840100  1
  Dy  Dy3  1  0.90694900  0.83974100  0.70159900  1
  Si  Si0  1  0.40734000  0.75755500  0.14340800  1
  Si  Si1  1  0.61414700  0.26393200  0.85659200  1
  Si  Si2  1  0.24244500  0.38585300  0.64978500  1
  Si  Si3  1  0.73606800  0.59266000  0.35021500  1
  O  O0  1  0.37805600  0.87422100  0.27837900  1
  O  O1  1  0.59584200  0.09967700  0.72162100  1
  O  O2  1  0.12577900  0.40415800  0.50383500  1
  O  O3  1  0.90032300  0.62194400  0.49616500  1
  O  O4  1  0.21611600  0.45176500  0.13884800  1
  O  O5  1  0.31291700  0.07726800  0.86115200  1
  O  O6  1  0.54823500  0.68708300  0.76435100  1
  O  O7  1  0.92273200  0.78388400  0.23564900  1
  O  O8  1  0.72432100  0.96385000  0.17162600  1
  O  O9  1  0.79222500  0.55269600  0.82837400  1
  O  O10  1  0.03615000  0.20777500  0.76047100  1
  O  O11  1  0.44730400  0.27567900  0.23952900  1
  O  O12  1  0.32895200  0.76781000  0.96743900  1
  O  O13  1  0.80037100  0.36151300  0.03256100  1
  O  O14  1  0.23219000  0.19962900  0.56114200  1
  O  O15  1  0.63848700  0.67104800  0.43885800  1
  F  F0  1  0.00000000  0.00000000  0.00000000  1
loop_
_geom_bond_atom_site_label_1
_geom_bond_atom_site_label_2
_geom_bond_distance
_geom_bond_site_symmetry_2
Na0 O1 2.360899 1_565
Na0 O15 2.365990 1_555
Na0 O0 2.511452 1_555
Na0 O2 2.621353 1_555
Na0 O10 2.674586 1_665
Na0 O2 2.837658 1_665
Na0 O6 2.844633 1_555
Na1 O0 2.360899 1_545
Na1 O14 2.365990 1_555
Na1 O1 2.511452 1_555
Na1 O3 2.621353 1_445
Na1 O11 2.674586 1_555
Na1 O3 2.837658 1_555
Na1 O7 2.844633 1_445
Na2 O3 2.360899 1_455
Na2 O12 2.365990 1_555
Na2 O2 2.511452 1_555
Na2 O1 2.621353 1_565
Na2 O9 2.674581 1_455
Na2 O1 2.837658 1_455
Na2 O5 2.844633 1_565
Na3 O2 2.360899 1_655
Na3 O13 2.365990 1_555
Na3 O3 2.511452 1_555
Na3 O0 2.621353 1_655
Na3 O8 2.674584 1_545
Na3 O0 2.837658 1_545
Na3 O4 2.844633 1_655
Na4 O7 2.596882 1_555
Na4 O5 2.596882 1_554
Na4 O6 2.596882 1_554
Na4 O4 2.596882 1_555
Na4 O11 2.810090 1_555
Na4 O10 2.810090 1_554
Na4 O8 2.810092 1_555
Na4 O9 2.810095 1_554
Dy0 O11 2.277552 1_565
Dy0 O7 2.324595 1_455
Dy0 O9 2.355591 1_454
Dy0 O5 2.366773 1_564
Dy0 O12 2.369527 1_554
Dy0 O0 2.434226 1_555
Dy0 F0 2.529695 1_565
Dy0 O13 2.542536 1_455
Dy1 O10 2.277552 1_655
Dy1 O6 2.324595 1_545
Dy1 O8 2.355594 1_546
Dy1 O4 2.366773 1_656
Dy1 O13 2.369527 1_556
Dy1 O1 2.434226 1_555
Dy1 F0 2.529695 1_656
Dy1 O12 2.542536 1_545
Dy2 O8 2.277550 1_445
Dy2 O4 2.324595 1_555
Dy2 O11 2.355585 1_555
Dy2 O7 2.366773 1_445
Dy2 O14 2.369527 1_555
Dy2 O2 2.434226 1_555
Dy2 F0 2.529695 1_555
Dy2 O15 2.542536 1_555
Dy3 O9 2.277546 1_555
Dy3 O5 2.324595 1_665
Dy3 O10 2.355585 1_665
Dy3 O6 2.366773 1_555
Dy3 O15 2.369527 1_555
Dy3 O3 2.434226 1_555
Dy3 F0 2.529695 1_666
Dy3 O14 2.542536 1_665
O0 Si0 1.647239 1_555
O1 Si1 1.647239 1_555
O2 Si2 1.647239 1_555
O3 Si3 1.647239 1_555
O4 Si0 1.639820 1_555
O5 Si1 1.639820 1_555
O6 Si2 1.639820 1_555
O7 Si3 1.639820 1_555
O8 Si0 1.643559 1_555
O9 Si1 1.643564 1_555
O10 Si2 1.643560 1_555
O11 Si3 1.643560 1_555
O12 Si0 1.653814 1_556
O13 Si1 1.653814 1_554
O14 Si2 1.653814 1_555
O15 Si3 1.653814 1_555
F0 Na4 2.718294 1_555
F0 Na4 2.718294 1_445
