# generated using pymatgen
data_Sr2MgSi2O7
_symmetry_space_group_name_H-M   'P 1'
_cell_length_a   7.97008000
_cell_length_b   9.49358016
_cell_length_c   9.62706503
_cell_angle_alpha   113.99347791
_cell_angle_beta   90.00000000
_cell_angle_gamma   90.00000000
_symmetry_Int_Tables_number   1
_chemical_formula_structural   Sr2MgSi2O7
_chemical_formula_sum   'Sr8 Mg4 Si8 O28'
_cell_volume   665.48577611
_cell_formula_units_Z   4
loop_
 _symmetry_equiv_pos_site_id
 _symmetry_equiv_pos_as_xyz
  1  'x, y, z'
loop_
 _atom_site_type_symbol
 _atom_site_label
 _atom_site_symmetry_multiplicity
 _atom_site_fract_x
 _atom_site_fract_y
 _atom_site_fract_z
 _atom_site_occupancy
  Sr  Sr0  1  0.44918300  0.72415800  0.79927900  1
  Sr  Sr1  1  0.26732400  0.45186200  0.02351500  1
  Sr  Sr2  1  0.23267600  0.95186200  0.52351500  1
  Sr  Sr3  1  0.94918300  0.77584200  0.70072100  1
  Sr  Sr4  1  0.55081700  0.27584200  0.20072100  1
  Sr  Sr5  1  0.05081700  0.22415800  0.29927900  1
  Sr  Sr6  1  0.76732400  0.04813800  0.47648500  1
  Sr  Sr7  1  0.73267600  0.54813800  0.97648500  1
  Mg  Mg0  1  0.10865700  0.83429900  0.11584200  1
  Mg  Mg1  1  0.39134300  0.33429900  0.61584200  1
  Mg  Mg2  1  0.89134300  0.16570100  0.88415800  1
  Mg  Mg3  1  0.60865700  0.66570100  0.38415800  1
  Si  Si0  1  0.72627100  0.46413700  0.58053500  1
  Si  Si1  1  0.03989000  0.36672200  0.70841200  1
  Si  Si2  1  0.27372900  0.53586400  0.41946500  1
  Si  Si3  1  0.53989000  0.13327800  0.79158800  1
  Si  Si4  1  0.22627100  0.03586300  0.91946500  1
  Si  Si5  1  0.96011000  0.63327800  0.29158800  1
  Si  Si6  1  0.77372900  0.96413600  0.08053500  1
  Si  Si7  1  0.46011000  0.86672200  0.20841200  1
  O  O0  1  0.27872000  0.95250500  0.26532100  1
  O  O1  1  0.45146600  0.14735200  0.64334300  1
  O  O2  1  0.91935600  0.48999700  0.66273400  1
  O  O3  1  0.58064400  0.98999700  0.16273400  1
  O  O4  1  0.41935600  0.01000300  0.83726600  1
  O  O5  1  0.94649700  0.79747900  0.44038300  1
  O  O6  1  0.95146600  0.35264800  0.85665700  1
  O  O7  1  0.90784400  0.96145400  0.20919800  1
  O  O8  1  0.55350300  0.29747900  0.94038300  1
  O  O9  1  0.68616600  0.62490600  0.56056400  1
  O  O10  1  0.40784400  0.53854600  0.29080200  1
  O  O11  1  0.44649700  0.70252100  0.05961700  1
  O  O12  1  0.09215600  0.03854600  0.79080200  1
  O  O13  1  0.22128000  0.45250500  0.76532100  1
  O  O14  1  0.04853400  0.64735200  0.14334300  1
  O  O15  1  0.72915300  0.30380700  0.42933000  1
  O  O16  1  0.05350300  0.20252100  0.55961700  1
  O  O17  1  0.22915300  0.19619300  0.07067000  1
  O  O18  1  0.72128000  0.04749500  0.73467900  1
  O  O19  1  0.08064400  0.51000300  0.33726600  1
  O  O20  1  0.77084700  0.80380700  0.92933000  1
  O  O21  1  0.31383400  0.37509400  0.43943600  1
  O  O22  1  0.77872000  0.54749500  0.23467900  1
  O  O23  1  0.54853400  0.85264800  0.35665700  1
  O  O24  1  0.18616600  0.87509400  0.93943600  1
  O  O25  1  0.81383400  0.12490600  0.06056400  1
  O  O26  1  0.27084700  0.69619300  0.57067000  1
  O  O27  1  0.59215600  0.46145400  0.70919800  1
loop_
_geom_bond_atom_site_label_1
_geom_bond_atom_site_label_2
_geom_bond_distance
_geom_bond_site_symmetry_2
Mg0 O14 1.957487 1_555
Mg0 O0 1.963159 1_555
Mg0 O7 1.986007 1_455
Mg0 O24 1.987623 1_554
Mg1 O1 1.957487 1_555
Mg1 O13 1.963159 1_555
Mg1 O27 1.986007 1_555
Mg1 O21 1.987623 1_555
Mg2 O6 1.957487 1_555
Mg2 O18 1.963159 1_555
Mg2 O12 1.986007 1_655
Mg2 O25 1.987623 1_556
Mg3 O23 1.957487 1_555
Mg3 O22 1.963159 1_555
Mg3 O10 1.986007 1_555
Mg3 O9 1.987623 1_555
O0 Si7 1.640291 1_555
O0 Sr2 2.515056 1_555
O0 Sr5 3.061302 1_565
O1 Si3 1.645113 1_555
O1 Sr2 2.464696 1_545
O1 Sr6 2.928212 1_555
O2 Si0 1.701972 1_555
O2 Si1 1.704244 1_655
O2 Sr3 2.597554 1_555
O3 Si6 1.701971 1_555
O3 Si7 1.704244 1_555
O3 Sr4 2.597554 1_565
O4 Si4 1.701972 1_555
O4 Si3 1.704244 1_555
O4 Sr0 2.597554 1_545
O5 Si5 1.636375 1_555
O5 Sr3 2.596697 1_555
O5 Sr2 2.652744 1_655
O5 Sr6 2.673979 1_565
O6 Si1 1.645113 1_655
O6 Sr7 2.464696 1_555
O6 Sr1 2.928212 1_656
O7 Si6 1.644113 1_555
O7 Sr5 2.551788 1_665
O7 Sr6 2.613557 1_565
O8 Si3 1.636375 1_555
O8 Sr4 2.596697 1_556
O8 Sr1 2.652744 1_556
O8 Sr7 2.673979 1_555
O9 Si0 1.645385 1_555
O9 Sr3 2.587627 1_555
O9 Sr0 2.824115 1_555
O10 Si2 1.644113 1_555
O10 Sr4 2.551788 1_555
O10 Sr1 2.613557 1_555
O11 Si7 1.636375 1_555
O11 Sr0 2.596697 1_554
O11 Sr7 2.652744 1_554
O11 Sr1 2.673979 1_555
O12 Si4 1.644116 1_555
O12 Sr3 2.551788 1_445
O12 Sr2 2.613557 1_545
O13 Si1 1.640291 1_555
O13 Sr1 2.515056 1_556
O13 Sr0 3.061302 1_555
O14 Si5 1.645113 1_455
O14 Sr1 2.464696 1_555
O14 Sr7 2.928212 1_454
O15 Si0 1.623069 1_555
O15 Sr4 2.541497 1_555
O15 Sr6 2.661976 1_555
O15 Sr5 2.818131 1_655
O16 Si1 1.636375 1_555
O16 Sr5 2.596697 1_555
O16 Sr6 2.652744 1_455
O16 Sr2 2.673979 1_545
O17 Si4 1.623069 1_554
O17 Sr5 2.541497 1_555
O17 Sr1 2.661976 1_555
O17 Sr4 2.818131 1_555
O18 Si3 1.640291 1_555
O18 Sr6 2.515056 1_555
O18 Sr3 3.061302 1_545
O19 Si2 1.701971 1_555
O19 Si5 1.704244 1_455
O19 Sr5 2.597554 1_555
O20 Si6 1.623064 1_556
O20 Sr3 2.541497 1_555
O20 Sr7 2.661976 1_555
O20 Sr0 2.818131 1_555
O21 Si2 1.645395 1_555
O21 Sr5 2.587627 1_555
O21 Sr4 2.824115 1_555
O22 Si5 1.640291 1_555
O22 Sr7 2.515056 1_554
O22 Sr4 3.061302 1_555
O23 Si7 1.645113 1_555
O23 Sr6 2.464696 1_565
O23 Sr2 2.928212 1_555
O24 Si4 1.645385 1_565
O24 Sr0 2.587627 1_555
O24 Sr3 2.824115 1_455
O25 Si6 1.645395 1_545
O25 Sr4 2.587627 1_555
O25 Sr5 2.824115 1_655
O26 Si2 1.623064 1_555
O26 Sr0 2.541497 1_555
O26 Sr2 2.661976 1_555
O26 Sr3 2.818131 1_455
O27 Si0 1.644116 1_555
O27 Sr0 2.551788 1_555
O27 Sr7 2.613557 1_555
