# generated using pymatgen
data_HfH8(SO6)2
_symmetry_space_group_name_H-M   'P 1'
_cell_length_a   5.62897300
_cell_length_b   6.45074509
_cell_length_c   13.35795522
_cell_angle_alpha   84.72546053
_cell_angle_beta   77.83677711
_cell_angle_gamma   64.13170038
_symmetry_Int_Tables_number   1
_chemical_formula_structural   HfH8(SO6)2
_chemical_formula_sum   'Hf2 H16 S4 O24'
_cell_volume   426.64264293
_cell_formula_units_Z   2
loop_
 _symmetry_equiv_pos_site_id
 _symmetry_equiv_pos_as_xyz
  1  'x, y, z'
loop_
 _atom_site_type_symbol
 _atom_site_label
 _atom_site_symmetry_multiplicity
 _atom_site_fract_x
 _atom_site_fract_y
 _atom_site_fract_z
 _atom_site_occupancy
  Hf  Hf0  1  0.62500000  0.75000000  0.75000000  1
  Hf  Hf1  1  0.37500000  0.25000000  0.25000000  1
  H  H0  1  0.46212100  0.78470100  0.55289600  1
  H  H1  1  0.29971800  0.71529900  0.94710400  1
  H  H2  1  0.75317800  0.78470100  0.94710400  1
  H  H3  1  0.98498300  0.71529900  0.55289600  1
  H  H4  1  0.53787900  0.21529900  0.44710400  1
  H  H5  1  0.70028200  0.28470100  0.05289600  1
  H  H6  1  0.24682200  0.21529900  0.05289600  1
  H  H7  1  0.01501700  0.28470100  0.44710400  1
  H  H8  1  0.25371700  0.00798300  0.61909100  1
  H  H9  1  0.38079100  0.49201700  0.88090900  1
  H  H10  1  0.73830000  0.00798300  0.88090900  1
  H  H11  1  0.12719200  0.49201700  0.61909100  1
  H  H12  1  0.74628300  0.99201700  0.38090900  1
  H  H13  1  0.61920900  0.50798300  0.11909100  1
  H  H14  1  0.26170000  0.99201700  0.11909100  1
  H  H15  1  0.87280800  0.50798300  0.38090900  1
  S  S0  1  0.68163900  0.25000000  0.63672200  1
  S  S1  1  0.06836100  0.25000000  0.86327800  1
  S  S2  1  0.31836100  0.75000000  0.36327800  1
  S  S3  1  0.93163900  0.75000000  0.13672200  1
  O  O0  1  0.42141900  0.86388400  0.61902700  1
  O  O1  1  0.40433000  0.63611600  0.88097300  1
  O  O2  1  0.71469700  0.86388400  0.88097300  1
  O  O3  1  0.95955400  0.63611600  0.61902700  1
  O  O4  1  0.57858100  0.13611600  0.38097300  1
  O  O5  1  0.59567000  0.36388400  0.11902700  1
  O  O6  1  0.28530300  0.13611600  0.11902700  1
  O  O7  1  0.04044600  0.36388400  0.38097300  1
  O  O8  1  0.94898100  0.20242500  0.57275300  1
  O  O9  1  0.22415900  0.29757500  0.92724700  1
  O  O10  1  0.84859400  0.20242500  0.92724700  1
  O  O11  1  0.47826600  0.29757500  0.57275300  1
  O  O12  1  0.05101900  0.79757500  0.42724700  1
  O  O13  1  0.77584100  0.70242500  0.07275300  1
  O  O14  1  0.15140600  0.79757500  0.07275300  1
  O  O15  1  0.52173400  0.70242500  0.42724700  1
  O  O16  1  0.58199100  0.45295400  0.70568400  1
  O  O17  1  0.24062900  0.04704600  0.79431600  1
  O  O18  1  0.96505500  0.45295400  0.79431600  1
  O  O19  1  0.71232500  0.04704600  0.70568400  1
  O  O20  1  0.41800900  0.54704600  0.29431600  1
  O  O21  1  0.75937100  0.95295400  0.20568400  1
  O  O22  1  0.03494500  0.54704600  0.20568400  1
  O  O23  1  0.28767500  0.95295400  0.29431600  1
loop_
_geom_bond_atom_site_label_1
_geom_bond_atom_site_label_2
_geom_bond_distance
_geom_bond_site_symmetry_2
Hf0 O16 2.180478 1_555
Hf0 O19 2.180478 1_565
Hf0 O18 2.180478 1_555
Hf0 O17 2.180478 1_565
Hf0 O2 2.188078 1_555
Hf0 O0 2.188078 1_555
Hf0 O1 2.188078 1_555
Hf0 O3 2.188078 1_555
Hf1 O20 2.180478 1_555
Hf1 O23 2.180478 1_545
Hf1 O22 2.180478 1_555
Hf1 O21 2.180478 1_545
Hf1 O6 2.188078 1_555
Hf1 O4 2.188078 1_555
Hf1 O5 2.188078 1_555
Hf1 O7 2.188078 1_555
H0 O0 0.994637 1_555
H1 O1 0.994637 1_555
H2 O2 0.994637 1_555
H3 O3 0.994637 1_555
H4 O4 0.994637 1_555
H5 O5 0.994637 1_555
H6 O6 0.994637 1_555
H7 O7 0.994637 1_555
H8 O0 0.994626 1_545
H9 O1 0.994626 1_555
H10 O2 0.994626 1_545
H11 O3 0.994626 1_455
H12 O4 0.994626 1_565
H13 O5 0.994626 1_555
H14 O6 0.994626 1_565
H15 O7 0.994626 1_655
O8 S0 1.480641 1_555
O9 S1 1.480641 1_555
O10 S1 1.480641 1_655
O11 S0 1.480641 1_555
O12 S2 1.480641 1_555
O13 S3 1.480641 1_555
O14 S3 1.480641 1_455
O15 S2 1.480641 1_555
O16 S0 1.496807 1_555
O17 S1 1.496807 1_555
O18 S1 1.496807 1_655
O19 S0 1.496807 1_555
O20 S2 1.496807 1_555
O21 S3 1.496807 1_555
O22 S3 1.496807 1_455
O23 S2 1.496807 1_555
