# generated using pymatgen
data_Li9Mn2Co5O16
_symmetry_space_group_name_H-M   'P 1'
_cell_length_a   8.95976876
_cell_length_b   8.95976876
_cell_length_c   5.84502417
_cell_angle_alpha   89.73237376
_cell_angle_beta   89.73237376
_cell_angle_gamma   37.64166704
_symmetry_Int_Tables_number   1
_chemical_formula_structural   Li9Mn2Co5O16
_chemical_formula_sum   'Li9 Mn2 Co5 O16'
_cell_volume   286.56134400
_cell_formula_units_Z   1
loop_
 _symmetry_equiv_pos_site_id
 _symmetry_equiv_pos_as_xyz
  1  'x, y, z'
loop_
 _atom_site_type_symbol
 _atom_site_label
 _atom_site_symmetry_multiplicity
 _atom_site_fract_x
 _atom_site_fract_y
 _atom_site_fract_z
 _atom_site_occupancy
  Li  Li0  1  0.87466100  0.12533900  0.00000000  1
  Li  Li1  1  0.12519100  0.37591500  0.49828700  1
  Li  Li2  1  0.74428900  0.49242100  0.74666300  1
  Li  Li3  1  0.00031100  0.75275600  0.25352700  1
  Li  Li4  1  0.62408500  0.87480900  0.50171300  1
  Li  Li5  1  0.50757900  0.25571100  0.25333700  1
  Li  Li6  1  0.37401900  0.62598100  0.00000000  1
  Li  Li7  1  0.24724400  0.99968900  0.74647300  1
  Li  Li8  1  0.87244200  0.12755800  0.50000000  1
  Mn  Mn0  1  0.00315400  0.74835300  0.74430900  1
  Mn  Mn1  1  0.25164700  0.99684600  0.25569100  1
  Co  Co0  1  0.50889200  0.24989900  0.74334700  1
  Co  Co1  1  0.75010100  0.49110800  0.25665300  1
  Co  Co2  1  0.12616100  0.37185400  0.99879100  1
  Co  Co3  1  0.37283100  0.62716900  0.50000000  1
  Co  Co4  1  0.62814600  0.87383900  0.00120900  1
  O  O0  1  0.76319100  0.98686800  0.98554900  1
  O  O1  1  0.00325800  0.25088800  0.47513100  1
  O  O2  1  0.59952400  0.39114700  0.73126200  1
  O  O3  1  0.87538500  0.62158100  0.22309900  1
  O  O4  1  0.49127300  0.76558600  0.48580800  1
  O  O5  1  0.36610700  0.11596200  0.24358300  1
  O  O6  1  0.24578900  0.49734300  0.97678300  1
  O  O7  1  0.12557600  0.85148200  0.73425800  1
  O  O8  1  0.01313200  0.23680900  0.01445100  1
  O  O9  1  0.23441400  0.50872700  0.51419200  1
  O  O10  1  0.88403800  0.63389300  0.75641700  1
  O  O11  1  0.14851800  0.87442400  0.26574200  1
  O  O12  1  0.74911200  0.99674200  0.52486900  1
  O  O13  1  0.60885300  0.40047600  0.26873800  1
  O  O14  1  0.50265700  0.75421100  0.02321700  1
  O  O15  1  0.37841900  0.12461500  0.77690100  1
loop_
_geom_bond_atom_site_label_1
_geom_bond_atom_site_label_2
_geom_bond_distance
_geom_bond_site_symmetry_2
Li0 O0 2.123210 1_544
Li0 O8 2.123210 1_655
Li0 O11 2.180445 1_645
Li0 O7 2.180445 1_644
Li0 O2 2.218040 1_554
Li0 O13 2.218040 1_555
Li1 O9 2.056321 1_555
Li1 O5 2.083470 1_555
Li1 O10 2.092940 1_455
Li1 O1 2.099450 1_555
Li1 O3 2.154089 1_455
Li1 O15 2.186167 1_555
Li2 O2 2.092749 1_555
Li2 O1 2.152076 1_655
Li2 O4 2.159764 1_555
Li2 O8 2.182279 1_656
Li2 O14 2.182284 1_556
Li2 O10 2.385921 1_555
Li3 O9 2.058447 1_555
Li3 O0 2.076001 1_454
Li3 O12 2.137033 1_455
Li3 O6 2.172834 1_554
Li3 O3 2.180137 1_455
Li3 O11 2.291481 1_555
Li4 O4 2.056321 1_555
Li4 O10 2.083470 1_555
Li4 O5 2.092940 1_565
Li4 O12 2.099450 1_555
Li4 O15 2.154089 1_565
Li4 O3 2.186167 1_555
Li5 O13 2.092749 1_555
Li5 O12 2.152076 1_545
Li5 O9 2.159764 1_555
Li5 O0 2.182279 1_544
Li5 O6 2.182284 1_554
Li5 O5 2.385921 1_555
Li6 O13 2.060430 1_555
Li6 O2 2.060430 1_554
Li6 O7 2.080917 1_554
Li6 O11 2.080917 1_555
Li6 O14 2.183314 1_555
Li6 O6 2.183314 1_554
Li7 O4 2.058447 1_555
Li7 O8 2.076001 1_566
Li7 O1 2.137033 1_565
Li7 O14 2.172834 1_556
Li7 O15 2.180137 1_565
Li7 O7 2.291481 1_555
Li8 O2 2.058470 1_555
Li8 O13 2.058470 1_555
Li8 O11 2.061552 1_645
Li8 O7 2.061552 1_645
Li8 O12 2.159627 1_545
Li8 O1 2.159627 1_655
Mn0 O7 1.914257 1_555
Mn0 O9 1.915125 1_555
Mn0 O12 1.938343 1_455
Mn0 O6 1.971415 1_555
Mn0 O0 1.975107 1_455
Mn0 O10 1.981850 1_455
Mn1 O11 1.914257 1_555
Mn1 O4 1.915125 1_555
Mn1 O1 1.938343 1_565
Mn1 O14 1.971415 1_555
Mn1 O8 1.975107 1_565
Mn1 O5 1.981850 1_565
Co0 O12 1.917802 1_545
Co0 O2 1.972859 1_555
Co0 O6 2.013791 1_555
Co0 O9 2.046878 1_555
Co0 O0 2.060256 1_545
Co0 O15 2.176937 1_555
Co1 O1 1.917802 1_655
Co1 O13 1.972859 1_555
Co1 O14 2.013791 1_555
Co1 O4 2.046878 1_555
Co1 O8 2.060256 1_655
Co1 O3 2.176937 1_555
Co2 O15 1.941112 1_555
Co2 O3 1.952403 1_456
Co2 O5 2.029222 1_556
Co2 O10 2.038832 1_455
Co2 O6 2.082177 1_555
Co2 O8 2.106344 1_556
Co3 O13 1.902956 1_555
Co3 O2 1.902956 1_555
Co3 O7 1.941139 1_555
Co3 O11 1.941139 1_555
Co3 O4 2.180281 1_555
Co3 O9 2.180281 1_555
Co4 O3 1.941112 1_555
Co4 O15 1.952403 1_564
Co4 O10 2.029222 1_554
Co4 O5 2.038832 1_565
Co4 O14 2.082177 1_555
Co4 O0 2.106344 1_554
