# generated using pymatgen
data_CrCdInS4
_symmetry_space_group_name_H-M   'P 1'
_cell_length_a   7.55548586
_cell_length_b   7.55548586
_cell_length_c   7.55548586
_cell_angle_alpha   120.67649636
_cell_angle_beta   119.76857001
_cell_angle_gamma   89.61680197
_symmetry_Int_Tables_number   1
_chemical_formula_structural   CrCdInS4
_chemical_formula_sum   'Cr2 Cd2 In2 S8'
_cell_volume   303.92334000
_cell_formula_units_Z   2
loop_
 _symmetry_equiv_pos_site_id
 _symmetry_equiv_pos_as_xyz
  1  'x, y, z'
loop_
 _atom_site_type_symbol
 _atom_site_label
 _atom_site_symmetry_multiplicity
 _atom_site_fract_x
 _atom_site_fract_y
 _atom_site_fract_z
 _atom_site_occupancy
  Cr  Cr0  1  0.00000000  0.00000000  0.50000000  1
  Cr  Cr1  1  0.00000000  0.50000000  0.00000000  1
  Cd  Cd0  1  0.37648000  0.62648000  0.75000000  1
  Cd  Cd1  1  0.62352000  0.37352000  0.25000000  1
  In  In0  1  0.00000000  0.00000000  0.00000000  1
  In  In1  1  0.50000000  0.00000000  0.50000000  1
  S  S0  1  0.22696500  0.73987700  0.01291200  1
  S  S1  1  0.22696500  0.21405300  0.48708800  1
  S  S2  1  0.21537600  0.75364100  0.46173500  1
  S  S3  1  0.79190600  0.75364100  0.03826500  1
  S  S4  1  0.77303500  0.26012300  0.98708800  1
  S  S5  1  0.77303500  0.78594700  0.51291200  1
  S  S6  1  0.78462400  0.24635900  0.53826500  1
  S  S7  1  0.20809400  0.24635900  0.96173500  1
loop_
_geom_bond_atom_site_label_1
_geom_bond_atom_site_label_2
_geom_bond_distance
_geom_bond_site_symmetry_2
Cr0 S5 2.435148 1_445
Cr0 S1 2.435148 1_555
Cr0 S2 2.464509 1_545
Cr0 S6 2.464509 1_455
Cr0 S3 2.464509 1_445
Cr0 S7 2.464509 1_555
Cr1 S0 2.435148 1_555
Cr1 S4 2.435148 1_454
Cr1 S3 2.464509 1_455
Cr1 S6 2.464509 1_454
Cr1 S7 2.464509 1_554
Cr1 S2 2.464509 1_555
Cd0 S1 2.536691 1_555
Cd0 S0 2.536691 1_556
Cd0 S3 2.575910 1_556
Cd0 S2 2.575910 1_555
Cd1 S4 2.536691 1_554
Cd1 S5 2.536691 1_555
Cd1 S6 2.575910 1_555
Cd1 S7 2.575910 1_554
In0 S1 2.607149 1_555
In0 S0 2.607149 1_545
In0 S4 2.607149 1_454
In0 S5 2.607149 1_444
In0 S3 2.657038 1_445
In0 S7 2.657038 1_554
In1 S5 2.607149 1_545
In1 S4 2.607149 1_555
In1 S1 2.607149 1_555
In1 S0 2.607149 1_545
In1 S6 2.657038 1_555
In1 S2 2.657038 1_545
