# generated using pymatgen
data_Mn3Al4FeP4(H4O7)4
_symmetry_space_group_name_H-M   'P 1'
_cell_length_a   6.59370512
_cell_length_b   6.59370512
_cell_length_c   13.05188623
_cell_angle_alpha   89.84864509
_cell_angle_beta   89.84864509
_cell_angle_gamma   108.13018094
_symmetry_Int_Tables_number   1
_chemical_formula_structural   Mn3Al4FeP4(H4O7)4
_chemical_formula_sum   'Mn3 Al4 Fe1 P4 H16 O28'
_cell_volume   539.27761280
_cell_formula_units_Z   1
loop_
 _symmetry_equiv_pos_site_id
 _symmetry_equiv_pos_as_xyz
  1  'x, y, z'
loop_
 _atom_site_type_symbol
 _atom_site_label
 _atom_site_symmetry_multiplicity
 _atom_site_fract_x
 _atom_site_fract_y
 _atom_site_fract_z
 _atom_site_occupancy
  Mn  Mn0  1  0.35938200  0.64061800  0.00000000  1
  Mn  Mn1  1  0.87481000  0.12519000  0.00000000  1
  Mn  Mn2  1  0.62412700  0.37587300  0.50000000  1
  Al  Al0  1  0.01218900  0.03580900  0.25900800  1
  Al  Al1  1  0.53368900  0.50685700  0.24212100  1
  Al  Al2  1  0.96419100  0.98781100  0.74099200  1
  Al  Al3  1  0.49314300  0.46631100  0.75787900  1
  Fe  Fe0  1  0.13755000  0.86245000  0.50000000  1
  P  P0  1  0.13730400  0.37453500  0.58275700  1
  P  P1  1  0.86953700  0.63954600  0.91824300  1
  P  P2  1  0.36045400  0.13046300  0.08175700  1
  P  P3  1  0.62546500  0.86269600  0.41724300  1
  H  H0  1  0.14753300  0.75495000  0.67729400  1
  H  H1  1  0.26446400  0.66404800  0.81613600  1
  H  H2  1  0.74039500  0.16201100  0.17619700  1
  H  H3  1  0.68472600  0.24912700  0.32533800  1
  H  H4  1  0.83798900  0.25960500  0.82380300  1
  H  H5  1  0.75087300  0.31527400  0.67466200  1
  H  H6  1  0.24505000  0.85246700  0.32270600  1
  H  H7  1  0.33595200  0.73553600  0.18386400  1
  H  H8  1  0.21211200  0.29247900  0.39801000  1
  H  H9  1  0.90018600  0.58930100  0.17212600  1
  H  H10  1  0.28307700  0.21457000  0.89610100  1
  H  H11  1  0.56731500  0.85459200  0.69161600  1
  H  H12  1  0.78543000  0.71692300  0.10389900  1
  H  H13  1  0.14540800  0.43268500  0.30838400  1
  H  H14  1  0.70752100  0.78788800  0.60199000  1
  H  H15  1  0.41069900  0.09981400  0.82787400  1
  O  O0  1  0.12845300  0.88811900  0.65335200  1
  O  O1  1  0.39403200  0.63930600  0.84126100  1
  O  O2  1  0.87525300  0.13636600  0.15961000  1
  O  O3  1  0.64704500  0.37894600  0.33997000  1
  O  O4  1  0.86363400  0.12474700  0.84039000  1
  O  O5  1  0.62105400  0.35295500  0.66003000  1
  O  O6  1  0.11188100  0.87154700  0.34664800  1
  O  O7  1  0.36069400  0.60596800  0.15873900  1
  O  O8  1  0.00901200  0.79903400  0.83904200  1
  O  O9  1  0.30437500  0.51199700  0.65880700  1
  O  O10  1  0.79728900  0.03012400  0.35300600  1
  O  O11  1  0.53250400  0.30189800  0.14269300  1
  O  O12  1  0.96987600  0.20271100  0.64699400  1
  O  O13  1  0.69810200  0.46749600  0.85730700  1
  O  O14  1  0.20096600  0.99098800  0.16095800  1
  O  O15  1  0.48800300  0.69562500  0.34119300  1
  O  O16  1  0.48850200  0.97717000  0.47424900  1
  O  O17  1  0.47023900  0.99469100  0.02052600  1
  O  O18  1  0.00530900  0.52976100  0.97947400  1
  O  O19  1  0.02283000  0.51149800  0.52575100  1
  O  O20  1  0.19151500  0.30618200  0.31663400  1
  O  O21  1  0.80597800  0.67781800  0.18076600  1
  O  O22  1  0.32218200  0.19402200  0.81923400  1
  O  O23  1  0.69381800  0.80848500  0.68336600  1
  O  O24  1  0.25209500  0.26585500  0.50438300  1
  O  O25  1  0.76113500  0.76049300  0.99351300  1
  O  O26  1  0.23950700  0.23886500  0.00648700  1
  O  O27  1  0.73414500  0.74790500  0.49561700  1
loop_
_geom_bond_atom_site_label_1
_geom_bond_atom_site_label_2
_geom_bond_distance
_geom_bond_site_symmetry_2
Mn0 O7 2.084138 1_555
Mn0 O1 2.084138 1_554
Mn0 O17 2.235833 1_555
Mn0 O18 2.235833 1_554
Mn0 O26 2.518867 1_555
Mn0 O25 2.518867 1_554
Mn1 O4 2.084687 1_554
Mn1 O2 2.084687 1_555
Mn1 O26 2.287192 1_655
Mn1 O25 2.287192 1_544
Mn1 O18 2.548497 1_654
Mn1 O17 2.548497 1_545
Mn2 O3 2.093344 1_555
Mn2 O5 2.093344 1_555
Mn2 O24 2.332083 1_555
Mn2 O27 2.332083 1_555
Mn2 O16 2.523306 1_545
Mn2 O19 2.523306 1_655
Al0 O2 1.819940 1_455
Al0 O6 1.831432 1_545
Al0 O10 1.863314 1_455
Al0 O14 1.870019 1_545
Al0 O20 1.960084 1_555
Al1 O3 1.814579 1_555
Al1 O7 1.838296 1_555
Al1 O11 1.874375 1_555
Al1 O15 1.884627 1_555
Al1 O21 1.965580 1_555
Al1 O20 2.431197 1_555
Al2 O4 1.819940 1_565
Al2 O0 1.831432 1_655
Al2 O12 1.863314 1_565
Al2 O8 1.870019 1_655
Al2 O23 1.960084 1_555
Al3 O5 1.814579 1_555
Al3 O1 1.838296 1_555
Al3 O13 1.874375 1_555
Al3 O9 1.884627 1_555
Al3 O22 1.965580 1_555
Al3 O23 2.431197 1_555
Fe0 O0 2.011430 1_555
Fe0 O6 2.011430 1_555
Fe0 O16 2.223791 1_555
Fe0 O19 2.223791 1_555
Fe0 O24 2.529762 1_565
Fe0 O27 2.529762 1_455
H0 O0 0.975707 1_555
H1 O1 0.975693 1_555
H2 O2 0.979244 1_555
H3 O3 0.981780 1_555
H4 O4 0.979244 1_555
H5 O5 0.981780 1_555
H6 O6 0.975707 1_555
H7 O7 0.975693 1_555
H8 O20 1.078229 1_555
H8 O24 1.434342 1_555
H9 O21 0.982267 1_555
H10 O22 1.054734 1_555
H10 O26 1.487151 1_556
H11 O23 0.978418 1_555
H12 O21 1.054734 1_555
H12 O25 1.487151 1_554
H13 O20 0.978418 1_555
H14 O23 1.078229 1_555
H14 O27 1.434342 1_555
H15 O22 0.982267 1_555
O8 P1 1.551640 1_455
O9 P0 1.552242 1_555
O10 P3 1.554658 1_545
O11 P2 1.552010 1_555
O12 P0 1.554658 1_655
O13 P1 1.552010 1_555
O14 P2 1.551640 1_565
O15 P3 1.552242 1_555
O16 P3 1.537060 1_555
O17 P2 1.538897 1_565
O18 P1 1.538897 1_455
O19 P0 1.537060 1_555
O24 P0 1.571669 1_555
O25 P1 1.570736 1_555
O26 P2 1.570736 1_555
O27 P3 1.571669 1_555
