# generated using pymatgen
data_Ca3BCBr2N
_symmetry_space_group_name_H-M   'P 1'
_cell_length_a   3.92379300
_cell_length_b   11.43886200
_cell_length_c   14.54723000
_cell_angle_alpha   90.00000000
_cell_angle_beta   90.00000000
_cell_angle_gamma   90.00000000
_symmetry_Int_Tables_number   1
_chemical_formula_structural   Ca3BCBr2N
_chemical_formula_sum   'Ca12 B4 C4 Br8 N4'
_cell_volume   652.93389474
_cell_formula_units_Z   4
loop_
 _symmetry_equiv_pos_site_id
 _symmetry_equiv_pos_as_xyz
  1  'x, y, z'
loop_
 _atom_site_type_symbol
 _atom_site_label
 _atom_site_symmetry_multiplicity
 _atom_site_fract_x
 _atom_site_fract_y
 _atom_site_fract_z
 _atom_site_occupancy
  Ca  Ca0  1  0.25000000  0.35747800  0.39135800  1
  Ca  Ca1  1  0.75000000  0.64252200  0.60864200  1
  Ca  Ca2  1  0.75000000  0.85747800  0.10864200  1
  Ca  Ca3  1  0.25000000  0.14252200  0.89135800  1
  Ca  Ca4  1  0.25000000  0.56929800  0.14318000  1
  Ca  Ca5  1  0.75000000  0.43070200  0.85682000  1
  Ca  Ca6  1  0.75000000  0.06929800  0.35682000  1
  Ca  Ca7  1  0.25000000  0.93070200  0.64318000  1
  Ca  Ca8  1  0.25000000  0.19971700  0.19268100  1
  Ca  Ca9  1  0.75000000  0.80028300  0.80731900  1
  Ca  Ca10  1  0.75000000  0.69971700  0.30731900  1
  Ca  Ca11  1  0.25000000  0.30028300  0.69268100  1
  B  B0  1  0.25000000  0.89864000  0.24372600  1
  B  B1  1  0.75000000  0.10136000  0.75627400  1
  B  B2  1  0.75000000  0.39864000  0.25627400  1
  B  B3  1  0.25000000  0.60136000  0.74372600  1
  C  C0  1  0.25000000  0.78034800  0.20681800  1
  C  C1  1  0.75000000  0.21965200  0.79318200  1
  C  C2  1  0.75000000  0.28034800  0.29318200  1
  C  C3  1  0.25000000  0.71965200  0.70681800  1
  Br  Br0  1  0.25000000  0.60627900  0.44436200  1
  Br  Br1  1  0.75000000  0.39372100  0.55563800  1
  Br  Br2  1  0.75000000  0.10627900  0.05563800  1
  Br  Br3  1  0.25000000  0.89372100  0.94436200  1
  Br  Br4  1  0.25000000  0.36095400  0.01139600  1
  Br  Br5  1  0.75000000  0.63904600  0.98860400  1
  Br  Br6  1  0.75000000  0.86095400  0.48860400  1
  Br  Br7  1  0.25000000  0.13904600  0.51139600  1
  N  N0  1  0.25000000  0.01328800  0.27012100  1
  N  N1  1  0.75000000  0.98671200  0.72987900  1
  N  N2  1  0.75000000  0.51328800  0.22987900  1
  N  N3  1  0.25000000  0.48671200  0.77012100  1
loop_
_geom_bond_atom_site_label_1
_geom_bond_atom_site_label_2
_geom_bond_distance
_geom_bond_site_symmetry_2
Ca4 N2 2.418724 1_555
Ca4 N2 2.418724 1_455
Ca5 N3 2.418724 1_655
Ca5 N3 2.418724 1_555
Ca6 N0 2.418724 1_555
Ca6 N0 2.418724 1_655
Ca7 N1 2.418724 1_555
Ca7 N1 2.418724 1_455
Ca8 N0 2.411803 1_555
Ca9 N1 2.411803 1_555
Ca10 N2 2.411803 1_555
Ca11 N3 2.411803 1_555
B0 N0 1.366498 1_565
B0 C0 1.455754 1_555
B0 Ca2 2.816442 1_555
B0 Ca2 2.816442 1_455
B1 N1 1.366498 1_545
B1 C1 1.455754 1_555
B1 Ca3 2.816442 1_655
B1 Ca3 2.816442 1_555
B2 N2 1.366498 1_555
B2 C2 1.455754 1_555
B2 Ca0 2.816442 1_555
B2 Ca0 2.816442 1_655
B3 N3 1.366498 1_555
B3 C3 1.455754 1_555
B3 Ca1 2.816442 1_455
B3 Ca1 2.816442 1_555
C0 Ca2 2.582088 1_455
C0 Ca2 2.582088 1_555
C0 Ca4 2.585585 1_555
C0 Ca10 2.614804 1_455
C0 Ca10 2.614804 1_555
C1 Ca3 2.582088 1_655
C1 Ca3 2.582088 1_555
C1 Ca5 2.585585 1_555
C1 Ca11 2.614804 1_555
C1 Ca11 2.614804 1_655
C2 Ca0 2.582088 1_555
C2 Ca0 2.582088 1_655
C2 Ca6 2.585585 1_555
C2 Ca8 2.614804 1_655
C2 Ca8 2.614804 1_555
C3 Ca1 2.582088 1_555
C3 Ca1 2.582088 1_455
C3 Ca7 2.585585 1_555
C3 Ca9 2.614804 1_455
C3 Ca9 2.614804 1_555
Br0 Ca0 2.948602 1_555
Br0 Ca10 2.994303 1_455
Br0 Ca10 2.994303 1_555
Br0 Ca1 3.119639 1_455
Br0 Ca1 3.119639 1_555
Br1 Ca1 2.948602 1_555
Br1 Ca11 2.994303 1_555
Br1 Ca11 2.994303 1_655
Br1 Ca0 3.119639 1_655
Br1 Ca0 3.119639 1_555
Br2 Ca2 2.948602 1_545
Br2 Ca8 2.994303 1_555
Br2 Ca8 2.994303 1_655
Br2 Ca3 3.119639 1_654
Br2 Ca3 3.119639 1_554
Br3 Ca3 2.948602 1_565
Br3 Ca9 2.994303 1_455
Br3 Ca9 2.994303 1_555
Br3 Ca2 3.119639 1_556
Br3 Ca2 3.119639 1_456
Br4 Ca3 3.048336 1_554
Br4 Ca4 3.058590 1_555
Br4 Ca5 3.089016 1_454
Br4 Ca5 3.089016 1_554
Br4 Ca8 3.218150 1_555
Br5 Ca2 3.048336 1_556
Br5 Ca5 3.058590 1_555
Br5 Ca4 3.089016 1_556
Br5 Ca4 3.089016 1_656
Br5 Ca9 3.218150 1_555
Br6 Ca1 3.048336 1_555
Br6 Ca6 3.058590 1_565
Br6 Ca7 3.089016 1_555
Br6 Ca7 3.089016 1_655
Br6 Ca10 3.218150 1_555
Br7 Ca0 3.048336 1_555
Br7 Ca7 3.058590 1_545
Br7 Ca6 3.089016 1_455
Br7 Ca6 3.089016 1_555
Br7 Ca11 3.218150 1_555
