# generated using pymatgen
data_Li2Fe3TeO8
_symmetry_space_group_name_H-M   'P 1'
_cell_length_a   6.03571849
_cell_length_b   10.80179417
_cell_length_c   6.07411375
_cell_angle_alpha   72.53238676
_cell_angle_beta   60.40286799
_cell_angle_gamma   73.85720803
_symmetry_Int_Tables_number   1
_chemical_formula_structural   Li2Fe3TeO8
_chemical_formula_sum   'Li4 Fe6 Te2 O16'
_cell_volume   324.41538131
_cell_formula_units_Z   2
loop_
 _symmetry_equiv_pos_site_id
 _symmetry_equiv_pos_as_xyz
  1  'x, y, z'
loop_
 _atom_site_type_symbol
 _atom_site_label
 _atom_site_symmetry_multiplicity
 _atom_site_fract_x
 _atom_site_fract_y
 _atom_site_fract_z
 _atom_site_occupancy
  Li  Li0  1  0.42590300  0.70897600  0.43909700  1
  Li  Li1  1  0.92596000  0.20900200  0.93902900  1
  Li  Li2  1  0.07406300  0.79102700  0.06099000  1
  Li  Li3  1  0.57409200  0.29104700  0.56093700  1
  Fe  Fe0  1  0.50005900  0.99997600  0.49986800  1
  Fe  Fe1  1  0.50009700  0.00003500  0.99978600  1
  Fe  Fe2  1  0.49984800  0.49993600  0.00007700  1
  Fe  Fe3  1  0.99981000  0.49998400  0.00002900  1
  Fe  Fe4  1  0.99999800  0.50001700  0.49998000  1
  Fe  Fe5  1  0.00019900  0.99995600  0.49990100  1
  Te  Te0  1  0.24995700  0.25004100  0.24999900  1
  Te  Te1  1  0.75002300  0.74995500  0.75006400  1
  O  O0  1  0.35604200  0.90511900  0.38063100  1
  O  O1  1  0.85604100  0.40515700  0.88062200  1
  O  O2  1  0.14393400  0.59486900  0.11944100  1
  O  O3  1  0.64393200  0.09482200  0.61945100  1
  O  O4  1  0.58483300  0.13415100  0.14729900  1
  O  O5  1  0.08478900  0.63415200  0.64734900  1
  O  O6  1  0.13971600  0.12872900  0.59262900  1
  O  O7  1  0.63968000  0.62871700  0.09268500  1
  O  O8  1  0.13331400  0.13496800  0.14661500  1
  O  O9  1  0.63329400  0.63495400  0.64664700  1
  O  O10  1  0.36670500  0.36505700  0.35339000  1
  O  O11  1  0.86669700  0.86504700  0.85340200  1
  O  O12  1  0.36032400  0.37127900  0.90735700  1
  O  O13  1  0.86032000  0.87126900  0.40735800  1
  O  O14  1  0.91519900  0.36587700  0.35268300  1
  O  O15  1  0.41517000  0.86588400  0.85268400  1
loop_
_geom_bond_atom_site_label_1
_geom_bond_atom_site_label_2
_geom_bond_distance
_geom_bond_site_symmetry_2
Li0 O0 1.998058 1_555
Li0 O9 2.047594 1_555
Li0 O5 2.056999 1_555
Li0 O7 2.152936 1_555
Li1 O1 1.998195 1_555
Li1 O8 2.047594 1_656
Li1 O4 2.057205 1_556
Li1 O6 2.152957 1_655
Li2 O2 1.998215 1_555
Li2 O11 2.047656 1_454
Li2 O15 2.057139 1_554
Li2 O13 2.152623 1_455
Li3 O3 1.998887 1_555
Li3 O10 2.047556 1_555
Li3 O14 2.056997 1_555
Li3 O12 2.152820 1_555
Fe0 O0 1.972977 1_555
Fe0 O3 1.973779 1_565
Fe0 O4 2.101245 1_565
Fe0 O15 2.101832 1_555
Fe0 O13 2.134900 1_555
Fe0 O6 2.135405 1_565
Fe1 O3 2.057222 1_555
Fe1 O0 2.059987 1_546
Fe1 O15 2.191730 1_545
Fe1 O4 2.192498 1_556
Fe1 O11 2.203077 1_545
Fe1 O8 2.203752 1_556
Fe2 O2 1.968467 1_555
Fe2 O1 1.969202 1_554
Fe2 O10 2.108194 1_555
Fe2 O9 2.109504 1_554
Fe2 O12 2.132333 1_554
Fe2 O7 2.134327 1_555
Fe3 O1 1.972351 1_554
Fe3 O2 1.974487 1_655
Fe3 O14 2.101339 1_555
Fe3 O5 2.101594 1_654
Fe3 O7 2.134427 1_555
Fe3 O12 2.135927 1_654
Fe4 O2 2.058369 1_655
Fe4 O1 2.058872 1_555
Fe4 O14 2.192006 1_555
Fe4 O5 2.192246 1_655
Fe4 O9 2.203372 1_555
Fe4 O10 2.203459 1_655
Fe5 O0 1.967807 1_555
Fe5 O3 1.969843 1_465
Fe5 O8 2.108787 1_565
Fe5 O11 2.109218 1_455
Fe5 O6 2.133388 1_565
Fe5 O13 2.133416 1_455
O4 Te0 1.964151 1_555
O5 Te1 1.963270 1_455
O6 Te0 1.992711 1_555
O7 Te1 1.992325 1_554
O8 Te0 1.956257 1_555
O9 Te1 1.956110 1_555
O10 Te0 1.956215 1_555
O11 Te1 1.956365 1_555
O12 Te0 1.992412 1_556
O13 Te1 1.993036 1_555
O14 Te0 1.963395 1_655
O15 Te1 1.964242 1_555
