# generated using pymatgen
data_W3O8
_symmetry_space_group_name_H-M   'P 1'
_cell_length_a   5.85316700
_cell_length_b   5.07225600
_cell_length_c   10.84266188
_cell_angle_alpha   62.75643741
_cell_angle_beta   90.00000000
_cell_angle_gamma   90.00000000
_symmetry_Int_Tables_number   1
_chemical_formula_structural   W3O8
_chemical_formula_sum   'W6 O16'
_cell_volume   286.19580069
_cell_formula_units_Z   2
loop_
 _symmetry_equiv_pos_site_id
 _symmetry_equiv_pos_as_xyz
  1  'x, y, z'
loop_
 _atom_site_type_symbol
 _atom_site_label
 _atom_site_symmetry_multiplicity
 _atom_site_fract_x
 _atom_site_fract_y
 _atom_site_fract_z
 _atom_site_occupancy
  W  W0  1  0.65527100  0.50000000  0.75000000  1
  W  W1  1  0.34472900  0.50000000  0.25000000  1
  W  W2  1  0.83057200  0.75956900  0.00601100  1
  W  W3  1  0.83057200  0.24043100  0.49398900  1
  W  W4  1  0.16942800  0.24043100  0.99398900  1
  W  W5  1  0.16942800  0.75956900  0.50601100  1
  O  O0  1  0.65562100  0.95429500  0.63159900  1
  O  O1  1  0.65562100  0.04570500  0.86840100  1
  O  O2  1  0.34437900  0.04570500  0.36840100  1
  O  O3  1  0.34437900  0.95429500  0.13159900  1
  O  O4  1  0.10967000  0.47698600  0.10505300  1
  O  O5  1  0.10967000  0.52301400  0.39494700  1
  O  O6  1  0.89033000  0.52301400  0.89494700  1
  O  O7  1  0.89033000  0.47698600  0.60505300  1
  O  O8  1  0.39745100  0.51629700  0.61803700  1
  O  O9  1  0.39745100  0.48370300  0.88196300  1
  O  O10  1  0.60254900  0.48370300  0.38196300  1
  O  O11  1  0.60254900  0.51629700  0.11803700  1
  O  O12  1  0.10630100  0.95793100  0.60875300  1
  O  O13  1  0.89369900  0.04206900  0.39124700  1
  O  O14  1  0.10630100  0.04206900  0.89124700  1
  O  O15  1  0.89369900  0.95793100  0.10875300  1
loop_
_geom_bond_atom_site_label_1
_geom_bond_atom_site_label_2
_geom_bond_distance
_geom_bond_site_symmetry_2
O0 W3 1.843545 1_565
O0 W0 2.061434 1_555
O1 W2 1.843545 1_546
O1 W0 2.061434 1_555
O2 W5 1.843545 1_545
O2 W1 2.061434 1_555
O3 W4 1.843545 1_564
O3 W1 2.061434 1_555
O4 W4 2.082086 1_554
O4 W2 2.113551 1_455
O4 W1 2.131781 1_555
O5 W5 2.082086 1_555
O5 W3 2.113551 1_455
O5 W1 2.131781 1_555
O6 W2 2.082086 1_556
O6 W4 2.113551 1_655
O6 W0 2.131781 1_555
O7 W3 2.082086 1_555
O7 W5 2.113551 1_655
O7 W0 2.131781 1_555
O8 W5 1.845826 1_555
O8 W0 2.055017 1_555
O9 W4 1.845826 1_555
O9 W0 2.055017 1_555
O10 W3 1.845826 1_555
O10 W1 2.055017 1_555
O11 W2 1.845826 1_555
O11 W1 2.055017 1_555
O12 W5 1.848248 1_555
O12 W3 2.138647 1_465
O13 W3 1.848248 1_555
O13 W5 2.138647 1_645
O14 W4 1.848248 1_555
O14 W2 2.138647 1_446
O15 W2 1.848248 1_555
O15 W4 2.138647 1_664
