# generated using pymatgen
data_YMg14B
_symmetry_space_group_name_H-M   'P 1'
_cell_length_a   6.38455614
_cell_length_b   6.38455562
_cell_length_c   10.10634331
_cell_angle_alpha   90.00000000
_cell_angle_beta   90.00000000
_cell_angle_gamma   120.00000269
_symmetry_Int_Tables_number   1
_chemical_formula_structural   YMg14B
_chemical_formula_sum   'Y1 Mg14 B1'
_cell_volume   356.76812989
_cell_formula_units_Z   1
loop_
 _symmetry_equiv_pos_site_id
 _symmetry_equiv_pos_as_xyz
  1  'x, y, z'
loop_
 _atom_site_type_symbol
 _atom_site_label
 _atom_site_symmetry_multiplicity
 _atom_site_fract_x
 _atom_site_fract_y
 _atom_site_fract_z
 _atom_site_occupancy
  Y  Y0  1  0.16666700  0.33333300  0.12500000  1
  Mg  Mg0  1  0.18400258  0.84200079  0.12500000  1
  Mg  Mg1  1  0.15647588  0.82823744  0.62500000  1
  Mg  Mg2  1  0.65799921  0.31599742  0.12500000  1
  Mg  Mg3  1  0.67176256  0.34352412  0.62500000  1
  Mg  Mg4  1  0.65799921  0.84200079  0.12500000  1
  Mg  Mg5  1  0.67176256  0.82823744  0.62500000  1
  Mg  Mg6  1  0.32536257  0.17463743  0.39576728  1
  Mg  Mg7  1  0.32536257  0.17463743  0.85423272  1
  Mg  Mg8  1  0.32536257  0.65072614  0.39576728  1
  Mg  Mg9  1  0.32536257  0.65072614  0.85423272  1
  Mg  Mg10  1  0.84927386  0.17463743  0.39576728  1
  Mg  Mg11  1  0.84927386  0.17463743  0.85423272  1
  Mg  Mg12  1  0.83333300  0.66666700  0.36253363  1
  Mg  Mg13  1  0.83333300  0.66666700  0.88746637  1
  B  B0  1  0.16666700  0.33333300  0.62500000  1
loop_
_geom_bond_atom_site_label_1
_geom_bond_atom_site_label_2
_geom_bond_distance
_geom_bond_site_symmetry_2
Mg0 Mg2 3.026258 1_565
Mg0 Mg4 3.026258 1_555
Mg0 Mg13 3.085817 1_454
Mg0 Mg12 3.085817 1_455
Mg0 Y0 3.193717 1_555
Mg0 Y0 3.193717 1_565
Mg0 Mg9 3.300954 1_554
Mg0 Mg8 3.300954 1_555
Mg0 Mg7 3.300960 1_564
Mg0 Mg6 3.300960 1_565
Mg0 Mg2 3.358298 1_455
Mg0 Mg4 3.358298 1_455
Mg1 Mg8 3.006036 1_555
Mg1 Mg9 3.006036 1_555
Mg1 Mg6 3.006043 1_565
Mg1 Mg7 3.006043 1_565
Mg1 Mg3 3.094679 1_455
Mg1 Mg5 3.094679 1_455
Mg1 Mg12 3.198205 1_455
Mg1 Mg13 3.198205 1_455
Mg1 Mg3 3.289876 1_565
Mg1 Mg5 3.289877 1_555
Mg2 Mg4 3.026258 1_545
Mg2 Y0 3.193717 1_655
Mg2 Y0 3.193717 1_555
Mg2 Mg7 3.300960 1_554
Mg2 Mg6 3.300960 1_555
Mg2 Mg4 3.358298 1_555
Mg3 Mg6 3.006043 1_555
Mg3 Mg7 3.006043 1_555
Mg3 Mg5 3.094679 1_555
Mg3 Mg5 3.289876 1_545
Mg4 Y0 3.193717 1_555
Mg4 Y0 3.193717 1_665
Mg4 Mg9 3.300960 1_554
Mg4 Mg8 3.300960 1_555
Mg5 Mg8 3.006043 1_555
Mg5 Mg9 3.006043 1_555
Mg6 Y0 3.250843 1_555
Mg7 Y0 3.250843 1_556
Mg8 Y0 3.250849 1_555
Mg9 Y0 3.250849 1_556
Mg10 Mg3 3.006036 1_555
Mg10 Mg5 3.006043 1_545
Mg10 Mg12 3.211108 1_545
Mg10 Mg12 3.211108 1_555
Mg10 Y0 3.250849 1_655
Mg10 Mg2 3.300954 1_555
Mg10 Mg4 3.300960 1_545
Mg11 Mg3 3.006036 1_555
Mg11 Mg5 3.006043 1_545
Mg11 Mg13 3.211108 1_545
Mg11 Mg13 3.211108 1_555
Mg11 Y0 3.250849 1_656
Mg11 Mg2 3.300954 1_556
Mg11 Mg4 3.300960 1_546
Mg12 Mg4 3.085810 1_555
Mg12 Mg2 3.085817 1_555
Mg12 Mg5 3.198199 1_555
Mg12 Mg3 3.198205 1_555
Mg12 Mg6 3.211108 1_665
Mg12 Mg6 3.211108 1_555
Mg12 Mg8 3.211108 1_655
Mg12 Mg8 3.211108 1_555
Mg13 Mg4 3.085810 1_556
Mg13 Mg2 3.085817 1_556
Mg13 Mg5 3.198199 1_555
Mg13 Mg3 3.198205 1_555
Mg13 Mg7 3.211108 1_665
Mg13 Mg7 3.211108 1_555
Mg13 Mg9 3.211108 1_655
Mg13 Mg9 3.211108 1_555
B0 Mg6 2.906346 1_555
B0 Mg7 2.906346 1_555
B0 Mg8 2.906353 1_555
B0 Mg9 2.906353 1_555
B0 Mg10 2.906353 1_455
B0 Mg11 2.906353 1_455
