# generated using pymatgen
data_V(BrO2)3
_symmetry_space_group_name_H-M   'P 1'
_cell_length_a   4.62117700
_cell_length_b   6.02357100
_cell_length_c   12.34540301
_cell_angle_alpha   85.30792528
_cell_angle_beta   90.00000000
_cell_angle_gamma   90.00000000
_symmetry_Int_Tables_number   1
_chemical_formula_structural   V(BrO2)3
_chemical_formula_sum   'V2 Br6 O12'
_cell_volume   342.49482852
_cell_formula_units_Z   2
loop_
 _symmetry_equiv_pos_site_id
 _symmetry_equiv_pos_as_xyz
  1  'x, y, z'
loop_
 _atom_site_type_symbol
 _atom_site_label
 _atom_site_symmetry_multiplicity
 _atom_site_fract_x
 _atom_site_fract_y
 _atom_site_fract_z
 _atom_site_occupancy
  V  V0  1  0.50000000  0.00000000  0.50000000  1
  V  V1  1  0.00000000  0.00000000  0.00000000  1
  Br  Br0  1  0.50000000  0.50000000  0.00000000  1
  Br  Br1  1  0.00000000  0.50000000  0.50000000  1
  Br  Br2  1  0.62416300  0.18300000  0.68932700  1
  Br  Br3  1  0.12416300  0.81700000  0.81067300  1
  Br  Br4  1  0.37583700  0.81700000  0.31067300  1
  Br  Br5  1  0.87583700  0.18300000  0.18932700  1
  O  O0  1  0.44605100  0.64624300  0.85348800  1
  O  O1  1  0.94605100  0.35375700  0.64651200  1
  O  O2  1  0.55394900  0.35375700  0.14651200  1
  O  O3  1  0.05394900  0.64624300  0.35348800  1
  O  O4  1  0.39420100  0.27244000  0.45292600  1
  O  O5  1  0.89420100  0.72756000  0.04707400  1
  O  O6  1  0.60579900  0.72756000  0.54707400  1
  O  O7  1  0.10579900  0.27244000  0.95292600  1
  O  O8  1  0.10304800  0.93238400  0.52605900  1
  O  O9  1  0.60304800  0.06761600  0.97394100  1
  O  O10  1  0.89695200  0.06761600  0.47394100  1
  O  O11  1  0.39695200  0.93238400  0.02605900  1
loop_
_geom_bond_atom_site_label_1
_geom_bond_atom_site_label_2
_geom_bond_distance
_geom_bond_site_symmetry_2
Br0 O0 1.961900 1_554
Br0 O2 1.961900 1_555
Br0 O7 2.380217 1_554
Br0 O5 2.380217 1_555
Br1 O1 1.961900 1_455
Br1 O3 1.961900 1_555
Br1 O6 2.380217 1_455
Br1 O4 2.380217 1_555
Br2 O1 1.860390 1_555
Br2 V0 2.725598 1_555
Br3 O0 1.860390 1_555
Br3 V1 2.725598 1_566
Br4 O3 1.860390 1_555
Br4 V0 2.725598 1_565
Br5 O2 1.860390 1_555
Br5 V1 2.725598 1_655
O4 V0 1.764604 1_555
O5 V1 1.764604 1_665
O6 V0 1.764604 1_565
O7 V1 1.764604 1_556
O8 V0 1.900767 1_565
O9 V1 1.900767 1_656
O10 O8 1.377990 1_645
O10 V0 1.900767 1_555
O11 O9 1.377990 1_564
O11 V1 1.900767 1_565
