# generated using pymatgen
data_Eu(MgGa)2
_symmetry_space_group_name_H-M   'P 1'
_cell_length_a   6.60813796
_cell_length_b   6.60813796
_cell_length_c   6.60813796
_cell_angle_alpha   140.67159750
_cell_angle_beta   140.67159750
_cell_angle_gamma   56.83497928
_symmetry_Int_Tables_number   1
_chemical_formula_structural   Eu(MgGa)2
_chemical_formula_sum   'Eu1 Mg2 Ga2'
_cell_volume   114.95368128
_cell_formula_units_Z   1
loop_
 _symmetry_equiv_pos_site_id
 _symmetry_equiv_pos_as_xyz
  1  'x, y, z'
loop_
 _atom_site_type_symbol
 _atom_site_label
 _atom_site_symmetry_multiplicity
 _atom_site_fract_x
 _atom_site_fract_y
 _atom_site_fract_z
 _atom_site_occupancy
  Eu  Eu0  1  0.00000000  0.00000000  0.00000000  1
  Mg  Mg0  1  0.75000000  0.25000000  0.50000000  1
  Mg  Mg1  1  0.25000000  0.75000000  0.50000000  1
  Ga  Ga0  1  0.39444032  0.39444032  0.00000000  1
  Ga  Ga1  1  0.60555968  0.60555968  -0.00000000  1
loop_
_geom_bond_atom_site_label_1
_geom_bond_atom_site_label_2
_geom_bond_distance
_geom_bond_site_symmetry_2
Eu0 Ga1 3.375659 1_545
Eu0 Ga1 3.375659 1_444
Eu0 Ga0 3.375659 1_455
Eu0 Ga0 3.375659 1_545
Eu0 Ga0 3.375659 1_556
Eu0 Ga0 3.375659 1_444
Eu0 Ga1 3.375659 1_455
Eu0 Ga1 3.375659 1_556
Ga0 Ga1 2.454001 1_555
Ga0 Mg1 2.786326 1_544
Ga0 Mg0 2.786326 1_454
Ga0 Mg1 2.786326 1_555
Ga0 Mg0 2.786326 1_555
Ga1 Mg0 2.786326 1_554
Ga1 Mg0 2.786326 1_565
Ga1 Mg1 2.786326 1_655
Ga1 Mg1 2.786326 1_554
