# generated using pymatgen
data_Pa
_symmetry_space_group_name_H-M   'P 1'
_cell_length_a   6.58295344
_cell_length_b   6.58295485
_cell_length_c   6.58295218
_cell_angle_alpha   59.99999235
_cell_angle_beta   59.99998518
_cell_angle_gamma   59.99999723
_symmetry_Int_Tables_number   1
_chemical_formula_structural   Pa
_chemical_formula_sum   Pa8
_cell_volume   201.71921976
_cell_formula_units_Z   8
loop_
 _symmetry_equiv_pos_site_id
 _symmetry_equiv_pos_as_xyz
  1  'x, y, z'
loop_
 _atom_site_type_symbol
 _atom_site_label
 _atom_site_symmetry_multiplicity
 _atom_site_fract_x
 _atom_site_fract_y
 _atom_site_fract_z
 _atom_site_occupancy
  Pa  Pa0_0  1  0.00000000  0.00000000  0.00000000  1
  Pa  Pa0_1  1  0.00000000  0.00000000  0.50000000  1
  Pa  Pa0_2  1  0.00000000  0.50000000  0.00000000  1
  Pa  Pa0_3  1  0.00000000  0.50000000  0.50000000  1
  Pa  Pa0_4  1  0.50000000  0.00000000  0.00000000  1
  Pa  Pa0_5  1  0.50000000  0.00000000  0.50000000  1
  Pa  Pa0_6  1  0.50000000  0.50000000  0.00000000  1
  Pa  Pa0_7  1  0.50000000  0.50000000  0.50000000  1
loop_
_geom_bond_atom_site_label_1
_geom_bond_atom_site_label_2
_geom_bond_distance
_geom_bond_site_symmetry_2
Pa0_0 Pa0_5 3.291476 1_455
Pa0_0 Pa0_5 3.291476 1_554
Pa0_0 Pa0_1 3.291476 1_554
Pa0_0 Pa0_1 3.291476 1_555
Pa0_0 Pa0_3 3.291476 1_554
Pa0_0 Pa0_3 3.291476 1_545
Pa0_0 Pa0_4 3.291477 1_555
Pa0_0 Pa0_4 3.291477 1_455
Pa0_0 Pa0_6 3.291477 1_455
Pa0_0 Pa0_6 3.291477 1_545
Pa0_0 Pa0_2 3.291477 1_555
Pa0_0 Pa0_2 3.291477 1_545
Pa0_1 Pa0_4 3.291476 1_456
Pa0_1 Pa0_4 3.291476 1_555
Pa0_1 Pa0_2 3.291476 1_546
Pa0_1 Pa0_2 3.291476 1_555
Pa0_1 Pa0_5 3.291477 1_555
Pa0_1 Pa0_5 3.291477 1_455
Pa0_1 Pa0_7 3.291477 1_455
Pa0_1 Pa0_7 3.291477 1_545
Pa0_1 Pa0_3 3.291477 1_555
Pa0_1 Pa0_3 3.291477 1_545
Pa0_2 Pa0_7 3.291476 1_455
Pa0_2 Pa0_7 3.291476 1_554
Pa0_2 Pa0_3 3.291476 1_555
Pa0_2 Pa0_3 3.291476 1_554
Pa0_2 Pa0_6 3.291477 1_455
Pa0_2 Pa0_6 3.291477 1_555
Pa0_2 Pa0_4 3.291477 1_555
Pa0_2 Pa0_4 3.291477 1_465
Pa0_3 Pa0_6 3.291476 1_555
Pa0_3 Pa0_6 3.291476 1_456
Pa0_3 Pa0_7 3.291477 1_555
Pa0_3 Pa0_7 3.291477 1_455
Pa0_3 Pa0_5 3.291477 1_465
Pa0_3 Pa0_5 3.291477 1_555
Pa0_4 Pa0_5 3.291476 1_554
Pa0_4 Pa0_5 3.291476 1_555
Pa0_4 Pa0_7 3.291476 1_554
Pa0_4 Pa0_7 3.291476 1_545
Pa0_4 Pa0_6 3.291477 1_555
Pa0_4 Pa0_6 3.291477 1_545
Pa0_5 Pa0_6 3.291476 1_555
Pa0_5 Pa0_6 3.291476 1_546
Pa0_5 Pa0_7 3.291477 1_555
Pa0_5 Pa0_7 3.291477 1_545
Pa0_6 Pa0_7 3.291476 1_555
Pa0_6 Pa0_7 3.291476 1_554
