# generated using pymatgen
data_LiCoSnO4
_symmetry_space_group_name_H-M   'P 1'
_cell_length_a   6.14267370
_cell_length_b   10.46862600
_cell_length_c   6.18305100
_cell_angle_alpha   106.02675423
_cell_angle_beta   118.86605443
_cell_angle_gamma   92.26509489
_symmetry_Int_Tables_number   1
_chemical_formula_structural   LiCoSnO4
_chemical_formula_sum   'Li4 Co4 Sn4 O16'
_cell_volume   327.53872435
_cell_formula_units_Z   4
loop_
 _symmetry_equiv_pos_site_id
 _symmetry_equiv_pos_as_xyz
  1  'x, y, z'
loop_
 _atom_site_type_symbol
 _atom_site_label
 _atom_site_symmetry_multiplicity
 _atom_site_fract_x
 _atom_site_fract_y
 _atom_site_fract_z
 _atom_site_occupancy
  Li  Li0  1  0.31498000  0.43556600  0.62115600  1
  Li  Li1  1  0.81026200  0.93495400  0.62378300  1
  Li  Li2  1  0.68990100  0.56494700  0.37599000  1
  Li  Li3  1  0.18517700  0.06411100  0.37862600  1
  Co  Co0  1  0.75003500  0.25096100  0.99952000  1
  Co  Co1  1  0.00106400  0.50133500  0.99747700  1
  Co  Co2  1  0.24933200  0.75004500  0.00073100  1
  Co  Co3  1  0.50038200  0.99927000  0.00300700  1
  Sn  Sn0  1  0.25010300  0.24988000  0.99959300  1
  Sn  Sn1  1  0.74947800  0.74990600  0.00050600  1
  Sn  Sn2  1  0.24967600  0.75002000  0.50070000  1
  Sn  Sn3  1  0.74975000  0.25002600  0.49958100  1
  O  O0  1  0.91317400  0.63650900  0.79766800  1
  O  O1  1  0.40537300  0.13177000  0.79654000  1
  O  O2  1  0.83302400  0.12826700  0.22872400  1
  O  O3  1  0.33551900  0.63511700  0.22050100  1
  O  O4  1  0.16504800  0.86499200  0.78081300  1
  O  O5  1  0.66479000  0.37146300  0.76885500  1
  O  O6  1  0.09656000  0.36830400  0.20443800  1
  O  O7  1  0.58659600  0.86328400  0.20316400  1
  O  O8  1  0.38451800  0.12800900  0.23738200  1
  O  O9  1  0.88702300  0.62561200  0.23451400  1
  O  O10  1  0.62499200  0.36252300  0.24224300  1
  O  O11  1  0.11618600  0.86532200  0.25453500  1
  O  O12  1  0.38370500  0.63417100  0.74525100  1
  O  O13  1  0.87506000  0.13758500  0.75692800  1
  O  O14  1  0.61316900  0.87412600  0.76577600  1
  O  O15  1  0.11512500  0.37192700  0.76199600  1
loop_
_geom_bond_atom_site_label_1
_geom_bond_atom_site_label_2
_geom_bond_distance
_geom_bond_site_symmetry_2
Li0 O12 1.956193 1_555
Li0 O15 1.999294 1_555
Li0 O5 2.111690 1_555
Li0 O6 2.126139 1_555
Li1 O14 1.978906 1_555
Li1 O13 1.997134 1_565
Li1 O7 2.146009 1_555
Li1 O4 2.168966 1_655
Li2 O9 1.975689 1_555
Li2 O10 1.995157 1_555
Li2 O0 2.151210 1_555
Li2 O3 2.167550 1_555
Li3 O11 1.957991 1_545
Li3 O8 1.999960 1_555
Li3 O2 2.124183 1_455
Li3 O1 2.132426 1_555
Co0 O6 1.993777 1_656
Co0 O1 1.993824 1_555
Co0 O5 2.055292 1_555
Co0 O2 2.068182 1_556
Co0 O10 2.102942 1_556
Co0 O13 2.109421 1_555
Co1 O5 2.002748 1_455
Co1 O3 2.013595 1_556
Co1 O0 2.049866 1_455
Co1 O6 2.060321 1_556
Co1 O9 2.083706 1_456
Co1 O15 2.101649 1_555
Co2 O0 1.931764 1_454
Co2 O7 1.935665 1_555
Co2 O3 1.957750 1_555
Co2 O4 1.959092 1_554
Co2 O11 2.204417 1_555
Co2 O12 2.219920 1_554
Co3 O2 1.983520 1_565
Co3 O4 2.019610 1_554
Co3 O1 2.053467 1_564
Co3 O7 2.058705 1_555
Co3 O14 2.083197 1_554
Co3 O8 2.101466 1_565
O0 Sn1 2.117339 1_556
O1 Sn0 2.099277 1_555
O2 Sn3 2.095481 1_555
O3 Sn2 2.123194 1_555
O4 Sn2 2.118080 1_555
O5 Sn3 2.093605 1_555
O6 Sn0 2.099881 1_554
O7 Sn1 2.112601 1_555
O8 Sn3 2.100343 1_555
O8 Sn0 2.101915 1_554
O9 Sn2 2.101083 1_655
O9 Sn1 2.108682 1_555
O10 Sn0 2.101684 1_554
O10 Sn3 2.105862 1_555
O11 Sn1 2.078900 1_455
O11 Sn2 2.081741 1_555
O12 Sn1 2.076581 1_556
O12 Sn2 2.079555 1_555
O13 Sn0 2.101211 1_655
O13 Sn3 2.105519 1_555
O14 Sn2 2.102669 1_555
O14 Sn1 2.110319 1_556
O15 Sn3 2.100623 1_455
O15 Sn0 2.102892 1_555
