# generated using pymatgen
data_CsKMg14O15
_symmetry_space_group_name_H-M   'P 1'
_cell_length_a   4.20886800
_cell_length_b   8.53628200
_cell_length_c   9.98953300
_cell_angle_alpha   90.00000000
_cell_angle_beta   90.00000000
_cell_angle_gamma   90.00000000
_symmetry_Int_Tables_number   1
_chemical_formula_structural   CsKMg14O15
_chemical_formula_sum   'Cs1 K1 Mg14 O15'
_cell_volume   358.90478223
_cell_formula_units_Z   1
loop_
 _symmetry_equiv_pos_site_id
 _symmetry_equiv_pos_as_xyz
  1  'x, y, z'
loop_
 _atom_site_type_symbol
 _atom_site_label
 _atom_site_symmetry_multiplicity
 _atom_site_fract_x
 _atom_site_fract_y
 _atom_site_fract_z
 _atom_site_occupancy
  Cs  Cs0  1  0.00000000  0.50000000  0.60512700  1
  K  K0  1  0.00000000  0.00000000  0.04164500  1
  Mg  Mg0  1  0.00000000  0.50000000  0.03295200  1
  Mg  Mg1  1  0.00000000  0.00000000  0.49808700  1
  Mg  Mg2  1  0.50000000  0.75732600  0.00262600  1
  Mg  Mg3  1  0.50000000  0.24267400  0.00262600  1
  Mg  Mg4  1  0.50000000  0.74165400  0.50417100  1
  Mg  Mg5  1  0.50000000  0.25834600  0.50417100  1
  Mg  Mg6  1  0.50000000  0.00000000  0.72639300  1
  Mg  Mg7  1  0.50000000  0.50000000  0.81155300  1
  Mg  Mg8  1  0.50000000  0.00000000  0.28973400  1
  Mg  Mg9  1  0.50000000  0.50000000  0.25039800  1
  Mg  Mg10  1  0.00000000  0.78575900  0.76879700  1
  Mg  Mg11  1  0.00000000  0.21424100  0.76879700  1
  Mg  Mg12  1  0.00000000  0.74544700  0.28086100  1
  Mg  Mg13  1  0.00000000  0.25455300  0.28086100  1
  O  O0  1  0.00000000  0.00000000  0.70921200  1
  O  O1  1  0.00000000  0.00000000  0.28685700  1
  O  O2  1  0.00000000  0.50000000  0.22883000  1
  O  O3  1  0.50000000  0.72229300  0.72849400  1
  O  O4  1  0.50000000  0.27770700  0.72849400  1
  O  O5  1  0.50000000  0.76519700  0.21996200  1
  O  O6  1  0.50000000  0.23480300  0.21996200  1
  O  O7  1  0.50000000  0.00000000  0.92818500  1
  O  O8  1  0.50000000  0.50000000  0.00651900  1
  O  O9  1  0.50000000  0.00000000  0.50432300  1
  O  O10  1  0.50000000  0.50000000  0.45031200  1
  O  O11  1  0.00000000  0.71248000  0.95336700  1
  O  O12  1  0.00000000  0.28752000  0.95336700  1
  O  O13  1  0.00000000  0.76515500  0.48165700  1
  O  O14  1  0.00000000  0.23484500  0.48165700  1
loop_
_geom_bond_atom_site_label_1
_geom_bond_atom_site_label_2
_geom_bond_distance
_geom_bond_site_symmetry_2
Cs0 O13 2.577682 1_555
Cs0 O14 2.577682 1_555
Cs0 O10 2.611589 1_555
Cs0 O10 2.611589 1_455
K0 O7 2.390244 1_554
K0 O7 2.390244 1_454
K0 O1 2.449553 1_555
K0 O12 2.607971 1_554
K0 O11 2.607971 1_544
Mg0 O2 1.956730 1_555
Mg0 O12 1.980375 1_554
Mg0 O11 1.980375 1_554
Mg0 O8 2.120935 1_455
Mg0 O8 2.120935 1_555
Mg1 O14 2.011411 1_555
Mg1 O13 2.011411 1_545
Mg1 O9 2.105356 1_455
Mg1 O9 2.105356 1_555
Mg1 O0 2.109040 1_555
Mg1 O1 2.110089 1_555
Mg2 O5 2.172125 1_555
Mg2 O11 2.194842 1_654
Mg2 O11 2.194842 1_554
Mg2 O8 2.196952 1_555
Mg2 O7 2.200963 1_564
Mg3 O6 2.172125 1_555
Mg3 O12 2.194842 1_554
Mg3 O12 2.194842 1_654
Mg3 O8 2.196952 1_555
Mg3 O7 2.200963 1_554
Mg4 O13 2.125904 1_655
Mg4 O13 2.125904 1_555
Mg4 O10 2.131836 1_555
Mg4 O9 2.205315 1_565
Mg4 O3 2.246968 1_555
Mg5 O14 2.125904 1_555
Mg5 O14 2.125904 1_655
Mg5 O10 2.131836 1_555
Mg5 O9 2.205315 1_555
Mg5 O4 2.246968 1_555
Mg6 O7 2.015808 1_555
Mg6 O0 2.111421 1_555
Mg6 O0 2.111421 1_655
Mg6 O9 2.218376 1_555
Mg6 O4 2.370678 1_555
Mg6 O3 2.370678 1_545
Mg7 O8 1.947619 1_556
Mg7 O3 2.071027 1_555
Mg7 O4 2.071027 1_555
Mg8 O1 2.104630 1_555
Mg8 O1 2.104630 1_655
Mg8 O5 2.122073 1_545
Mg8 O6 2.122073 1_555
Mg8 O9 2.143644 1_555
Mg9 O10 1.997048 1_555
Mg9 O2 2.115434 1_655
Mg9 O2 2.115434 1_555
Mg9 O6 2.284122 1_555
Mg9 O5 2.284122 1_555
Mg9 O8 2.436237 1_555
Mg10 O0 1.923248 1_565
Mg10 O11 1.946990 1_555
Mg10 O3 2.210033 1_555
Mg10 O3 2.210033 1_455
Mg11 O0 1.923248 1_555
Mg11 O12 1.946990 1_555
Mg11 O4 2.210033 1_455
Mg11 O4 2.210033 1_555
Mg12 O13 2.012901 1_555
Mg12 O2 2.158712 1_555
Mg12 O1 2.173762 1_565
Mg12 O5 2.197080 1_455
Mg12 O5 2.197080 1_555
Mg13 O14 2.012901 1_555
Mg13 O2 2.158712 1_555
Mg13 O1 2.173762 1_555
Mg13 O6 2.197080 1_555
Mg13 O6 2.197080 1_455
