# generated using pymatgen
data_Ba2YMn2TlO7
_symmetry_space_group_name_H-M   'P 1'
_cell_length_a   3.91924000
_cell_length_b   3.91924000
_cell_length_c   13.39818100
_cell_angle_alpha   90.00000000
_cell_angle_beta   90.00000000
_cell_angle_gamma   90.00000000
_symmetry_Int_Tables_number   1
_chemical_formula_structural   Ba2YMn2TlO7
_chemical_formula_sum   'Ba2 Y1 Mn2 Tl1 O7'
_cell_volume   205.80198454
_cell_formula_units_Z   1
loop_
 _symmetry_equiv_pos_site_id
 _symmetry_equiv_pos_as_xyz
  1  'x, y, z'
loop_
 _atom_site_type_symbol
 _atom_site_label
 _atom_site_symmetry_multiplicity
 _atom_site_fract_x
 _atom_site_fract_y
 _atom_site_fract_z
 _atom_site_occupancy
  Ba  Ba0  1  0.50000000  0.50000000  0.19775100  1
  Ba  Ba1  1  0.50000000  0.50000000  0.80224900  1
  Y  Y0  1  0.50000000  0.50000000  0.50000000  1
  Mn  Mn0  1  0.00000000  0.00000000  0.35910600  1
  Mn  Mn1  1  0.00000000  0.00000000  0.64089400  1
  Tl  Tl0  1  0.00000000  0.00000000  0.00000000  1
  O  O0  1  0.00000000  0.00000000  0.20735100  1
  O  O1  1  0.00000000  0.50000000  0.39450000  1
  O  O2  1  0.50000000  0.00000000  0.39450000  1
  O  O3  1  0.50000000  0.00000000  0.60550000  1
  O  O4  1  0.50000000  0.50000000  0.00000000  1
  O  O5  1  0.00000000  0.50000000  0.60550000  1
  O  O6  1  0.00000000  0.00000000  0.79264900  1
loop_
_geom_bond_atom_site_label_1
_geom_bond_atom_site_label_2
_geom_bond_distance
_geom_bond_site_symmetry_2
Ba0 O4 2.649504 1_555
Ba0 O0 2.774304 1_655
Ba0 O0 2.774304 1_555
Ba0 O0 2.774304 1_565
Ba0 O0 2.774304 1_665
Ba1 O4 2.649504 1_556
Ba1 O6 2.774304 1_565
Ba1 O6 2.774304 1_665
Ba1 O6 2.774304 1_555
Ba1 O6 2.774304 1_655
Mn0 O1 2.016182 1_555
Mn0 O2 2.016182 1_455
Mn0 O1 2.016182 1_545
Mn0 O2 2.016182 1_555
Mn0 O0 2.033241 1_555
Mn1 O5 2.016182 1_555
Mn1 O3 2.016182 1_455
Mn1 O3 2.016182 1_555
Mn1 O5 2.016182 1_545
Mn1 O6 2.033241 1_555
O0 Tl0 2.778126 1_555
O1 Y0 2.416219 1_555
O1 Y0 2.416219 1_455
O2 Y0 2.416219 1_555
O2 Y0 2.416219 1_545
O3 Y0 2.416219 1_555
O3 Y0 2.416219 1_545
O4 Tl0 2.771321 1_555
O4 Tl0 2.771321 1_565
O4 Tl0 2.771321 1_655
O4 Tl0 2.771321 1_665
O5 Y0 2.416219 1_555
O5 Y0 2.416219 1_455
O6 Tl0 2.778126 1_556
