# generated using pymatgen
data_TiFeO3
_symmetry_space_group_name_H-M   'P 1'
_cell_length_a   5.13076939
_cell_length_b   5.55420694
_cell_length_c   8.95446172
_cell_angle_alpha   106.22217531
_cell_angle_beta   89.46683158
_cell_angle_gamma   115.58158959
_symmetry_Int_Tables_number   1
_chemical_formula_structural   TiFeO3
_chemical_formula_sum   'Ti4 Fe4 O12'
_cell_volume   219.16653633
_cell_formula_units_Z   4
loop_
 _symmetry_equiv_pos_site_id
 _symmetry_equiv_pos_as_xyz
  1  'x, y, z'
loop_
 _atom_site_type_symbol
 _atom_site_label
 _atom_site_symmetry_multiplicity
 _atom_site_fract_x
 _atom_site_fract_y
 _atom_site_fract_z
 _atom_site_occupancy
  Ti  Ti0  1  0.28348600  0.56347700  0.42777200  1
  Ti  Ti1  1  0.78371400  0.56387600  0.92783100  1
  Ti  Ti2  1  0.21625000  0.43609100  0.07217300  1
  Ti  Ti3  1  0.71652300  0.43654500  0.57223800  1
  Fe  Fe0  1  0.96769000  0.93523600  0.32370500  1
  Fe  Fe1  1  0.03233300  0.06480200  0.67629000  1
  Fe  Fe2  1  0.46784800  0.93546000  0.82375300  1
  Fe  Fe3  1  0.53220200  0.06453300  0.17625800  1
  O  O0  1  0.77351200  0.26577400  0.71695200  1
  O  O1  1  0.27342400  0.26534900  0.21684600  1
  O  O2  1  0.31251600  0.27039800  0.52562500  1
  O  O3  1  0.81234700  0.27070900  0.02561100  1
  O  O4  1  0.33382100  0.26076800  0.89027300  1
  O  O5  1  0.83373200  0.26074300  0.39034900  1
  O  O6  1  0.72661300  0.73465700  0.78314400  1
  O  O7  1  0.22645400  0.73421500  0.28304400  1
  O  O8  1  0.18760700  0.72927200  0.97439400  1
  O  O9  1  0.68750100  0.72960500  0.47437000  1
  O  O10  1  0.16629300  0.73926400  0.60965400  1
  O  O11  1  0.66613700  0.73922400  0.10971700  1
loop_
_geom_bond_atom_site_label_1
_geom_bond_atom_site_label_2
_geom_bond_distance
_geom_bond_site_symmetry_2
Fe0 O7 2.045937 1_655
Fe0 O5 2.135368 1_565
Fe0 O9 2.144322 1_555
Fe0 O11 2.164639 1_555
Fe0 O2 2.280223 1_665
Fe0 O1 2.281782 1_665
Fe1 O0 2.045984 1_455
Fe1 O10 2.135529 1_545
Fe1 O2 2.144227 1_555
Fe1 O4 2.164450 1_555
Fe1 O9 2.280286 1_445
Fe1 O6 2.281840 1_445
Fe2 O6 2.044992 1_555
Fe2 O4 2.134564 1_565
Fe2 O8 2.145569 1_555
Fe2 O10 2.165337 1_555
Fe2 O3 2.279309 1_566
Fe2 O0 2.282027 1_565
Fe3 O1 2.045104 1_555
Fe3 O11 2.134253 1_545
Fe3 O3 2.145369 1_555
Fe3 O5 2.165214 1_555
Fe3 O8 2.279569 1_544
Fe3 O7 2.282100 1_545
O0 Ti3 1.896740 1_555
O0 Ti1 2.118960 1_555
O1 Ti2 1.896673 1_555
O1 Ti0 2.119537 1_555
O2 Ti3 1.863205 1_555
O2 Ti0 2.109145 1_555
O3 Ti2 1.862888 1_655
O3 Ti1 2.108351 1_554
O4 Ti2 1.888909 1_556
O4 Ti1 2.148887 1_555
O5 Ti3 1.888946 1_555
O5 Ti0 2.147852 1_655
O6 Ti1 1.896799 1_555
O6 Ti3 2.119326 1_555
O7 Ti0 1.896787 1_555
O7 Ti2 2.118972 1_555
O8 Ti1 1.862838 1_455
O8 Ti2 2.108438 1_556
O9 Ti0 1.863235 1_555
O9 Ti3 2.109116 1_555
O10 Ti0 1.888823 1_555
O10 Ti3 2.147893 1_455
O11 Ti1 1.888893 1_554
O11 Ti2 2.148910 1_555
