# generated using pymatgen
data_CaCo2(PO4)2
_symmetry_space_group_name_H-M   'P 1'
_cell_length_a   9.00429122
_cell_length_b   9.00429122
_cell_length_c   16.93220913
_cell_angle_alpha   62.46668249
_cell_angle_beta   62.46668249
_cell_angle_gamma   32.51275326
_symmetry_Int_Tables_number   1
_chemical_formula_structural   CaCo2(PO4)2
_chemical_formula_sum   'Ca4 Co8 P8 O32'
_cell_volume   646.69838550
_cell_formula_units_Z   4
loop_
 _symmetry_equiv_pos_site_id
 _symmetry_equiv_pos_as_xyz
  1  'x, y, z'
loop_
 _atom_site_type_symbol
 _atom_site_label
 _atom_site_symmetry_multiplicity
 _atom_site_fract_x
 _atom_site_fract_y
 _atom_site_fract_z
 _atom_site_occupancy
  Ca  Ca0  1  0.16756200  0.52085900  0.64027500  1
  Ca  Ca1  1  0.47914100  0.83243800  0.85972500  1
  Ca  Ca2  1  0.52085900  0.16756200  0.14027500  1
  Ca  Ca3  1  0.83243800  0.47914100  0.35972500  1
  Co  Co0  1  0.38965500  0.79480500  0.54171100  1
  Co  Co1  1  0.20519500  0.61034500  0.95828900  1
  Co  Co2  1  0.61034500  0.20519500  0.45828900  1
  Co  Co3  1  0.00000000  0.50000000  0.50000000  1
  Co  Co4  1  0.79480500  0.38965500  0.04171100  1
  Co  Co5  1  0.63394900  0.36605100  0.25000000  1
  Co  Co6  1  0.36605100  0.63394900  0.75000000  1
  Co  Co7  1  0.50000000  0.00000000  0.00000000  1
  P  P0  1  0.48245000  0.94809700  0.63203200  1
  P  P1  1  0.80638500  0.22844900  0.89079900  1
  P  P2  1  0.51755000  0.05190300  0.36796800  1
  P  P3  1  0.22844900  0.80638500  0.39079900  1
  P  P4  1  0.94809700  0.48245000  0.13203200  1
  P  P5  1  0.05190300  0.51755000  0.86796800  1
  P  P6  1  0.19361500  0.77155100  0.10920100  1
  P  P7  1  0.77155100  0.19361500  0.60920100  1
  O  O0  1  0.19535200  0.30350400  0.39589300  1
  O  O1  1  0.65090900  0.18718300  0.57045200  1
  O  O2  1  0.30350400  0.19535200  0.89589300  1
  O  O3  1  0.63303900  0.20720600  0.96048600  1
  O  O4  1  0.64562400  0.80396500  0.44891500  1
  O  O5  1  0.66466600  0.43834400  0.80615600  1
  O  O6  1  0.79279400  0.36696100  0.53951400  1
  O  O7  1  0.92959300  0.11560100  0.37124300  1
  O  O8  1  0.36696100  0.79279400  0.03951400  1
  O  O9  1  0.81281700  0.34909100  0.92954800  1
  O  O10  1  0.63181900  0.13019200  0.35474800  1
  O  O11  1  0.05034900  0.39331000  0.21404000  1
  O  O12  1  0.34909100  0.81281700  0.42954800  1
  O  O13  1  0.11560100  0.92959300  0.87124300  1
  O  O14  1  0.80464800  0.69649600  0.60410700  1
  O  O15  1  0.36818100  0.86980800  0.64525200  1
  O  O16  1  0.39331000  0.05034900  0.71404000  1
  O  O17  1  0.20720600  0.63303900  0.46048600  1
  O  O18  1  0.13019200  0.63181900  0.85474800  1
  O  O19  1  0.94965100  0.60669000  0.78596000  1
  O  O20  1  0.88439900  0.07040700  0.12875700  1
  O  O21  1  0.80396500  0.64562400  0.94891500  1
  O  O22  1  0.07040700  0.88439900  0.62875700  1
  O  O23  1  0.43834400  0.66466600  0.30615600  1
  O  O24  1  0.18718300  0.65090900  0.07045200  1
  O  O25  1  0.69649600  0.80464800  0.10410700  1
  O  O26  1  0.60669000  0.94965100  0.28596000  1
  O  O27  1  0.19603500  0.35437600  0.05108500  1
  O  O28  1  0.35437600  0.19603500  0.55108500  1
  O  O29  1  0.56165600  0.33533400  0.69384400  1
  O  O30  1  0.33533400  0.56165600  0.19384400  1
  O  O31  1  0.86980800  0.36818100  0.14525200  1
loop_
_geom_bond_atom_site_label_1
_geom_bond_atom_site_label_2
_geom_bond_distance
_geom_bond_site_symmetry_2
Ca0 O19 2.293992 1_455
Ca0 O14 2.406932 1_455
Ca0 O1 2.416558 1_555
Ca0 O22 2.501298 1_555
Ca0 O16 2.563531 1_555
Ca0 O28 2.664983 1_555
Ca0 O17 2.678727 1_555
Ca0 O29 2.789747 1_555
Ca1 O16 2.293992 1_565
Ca1 O2 2.406932 1_565
Ca1 O9 2.416558 1_555
Ca1 O13 2.501298 1_555
Ca1 O19 2.563531 1_555
Ca1 O21 2.664983 1_555
Ca1 O8 2.678727 1_556
Ca1 O5 2.789747 1_555
Ca2 O26 2.293992 1_545
Ca2 O25 2.406932 1_545
Ca2 O24 2.416558 1_555
Ca2 O20 2.501298 1_555
Ca2 O11 2.563531 1_555
Ca2 O27 2.664983 1_555
Ca2 O3 2.678727 1_554
Ca2 O30 2.789747 1_555
Ca3 O11 2.293992 1_655
Ca3 O0 2.406932 1_655
Ca3 O12 2.416558 1_555
Ca3 O7 2.501298 1_555
Ca3 O26 2.563531 1_555
Ca3 O4 2.664983 1_555
Ca3 O6 2.678727 1_555
Ca3 O23 2.789747 1_555
Co0 O12 2.005789 1_555
Co0 O15 2.031778 1_555
Co0 O22 2.087476 1_555
Co0 O6 2.107599 1_555
Co0 O4 2.154177 1_555
Co1 O24 2.005789 1_556
Co1 O18 2.031778 1_555
Co1 O13 2.087476 1_555
Co1 O3 2.107599 1_555
Co1 O27 2.154177 1_556
Co2 O1 2.005789 1_555
Co2 O10 2.031778 1_555
Co2 O7 2.087476 1_555
Co2 O17 2.107599 1_555
Co2 O28 2.154177 1_555
Co3 O4 2.013651 1_455
Co3 O28 2.013651 1_555
Co3 O14 2.024788 1_455
Co3 O0 2.024788 1_555
Co4 O9 2.005789 1_554
Co4 O31 2.031778 1_555
Co4 O20 2.087476 1_555
Co4 O8 2.107599 1_555
Co4 O21 2.154177 1_554
Co5 O23 2.016000 1_555
Co5 O30 2.016000 1_555
Co5 O10 2.052117 1_555
Co5 O31 2.052117 1_555
Co5 O7 2.652202 1_555
Co5 O20 2.652202 1_555
Co6 O29 2.016000 1_555
Co6 O5 2.016000 1_555
Co6 O15 2.052117 1_555
Co6 O18 2.052117 1_555
Co6 O22 2.652202 1_555
Co6 O13 2.652202 1_555
Co7 O27 2.013651 1_555
Co7 O21 2.013651 1_544
Co7 O2 2.024788 1_554
Co7 O25 2.024788 1_545
O0 P2 1.552411 1_555
O1 P7 1.553718 1_555
O2 P5 1.552411 1_555
O3 P1 1.567571 1_555
O4 P2 1.575694 1_565
O5 P1 1.540602 1_555
O6 P7 1.567571 1_555
O7 P3 1.561519 1_645
O8 P6 1.567571 1_555
O9 P1 1.553718 1_555
O10 P2 1.571674 1_555
O11 P4 1.524892 1_455
O12 P3 1.553718 1_555
O13 P1 1.561519 1_465
O14 P0 1.552411 1_555
O15 P0 1.571674 1_555
O16 P0 1.524892 1_545
O17 P3 1.567571 1_555
O18 P5 1.571674 1_555
O19 P5 1.524892 1_655
O20 P6 1.561519 1_645
O21 P5 1.575694 1_655
O22 P7 1.561519 1_465
O23 P3 1.540602 1_555
O24 P6 1.553718 1_555
O25 P4 1.552411 1_555
O26 P2 1.524892 1_565
O27 P4 1.575694 1_455
O28 P0 1.575694 1_545
O29 P7 1.540602 1_555
O30 P6 1.540602 1_555
O31 P4 1.571674 1_555
