# generated using pymatgen
data_RbMo6Se7
_symmetry_space_group_name_H-M   'P 1'
_cell_length_a   10.02450197
_cell_length_b   10.02450197
_cell_length_c   10.02450182
_cell_angle_alpha   58.24037647
_cell_angle_beta   58.24037647
_cell_angle_gamma   58.24037692
_symmetry_Int_Tables_number   1
_chemical_formula_structural   RbMo6Se7
_chemical_formula_sum   'Rb2 Mo12 Se14'
_cell_volume   683.60296504
_cell_formula_units_Z   2
loop_
 _symmetry_equiv_pos_site_id
 _symmetry_equiv_pos_as_xyz
  1  'x, y, z'
loop_
 _atom_site_type_symbol
 _atom_site_label
 _atom_site_symmetry_multiplicity
 _atom_site_fract_x
 _atom_site_fract_y
 _atom_site_fract_z
 _atom_site_occupancy
  Rb  Rb0  1  0.13143600  0.13143600  0.13143600  1
  Rb  Rb1  1  0.86856400  0.86856400  0.86856400  1
  Mo  Mo0  1  0.62184000  0.30468200  0.43950200  1
  Mo  Mo1  1  0.30468200  0.43950200  0.62184000  1
  Mo  Mo2  1  0.43950200  0.62184000  0.30468200  1
  Mo  Mo3  1  0.37816000  0.69531800  0.56049800  1
  Mo  Mo4  1  0.69531800  0.56049800  0.37816000  1
  Mo  Mo5  1  0.56049800  0.37816000  0.69531800  1
  Mo  Mo6  1  0.38366100  0.19405800  0.50755300  1
  Mo  Mo7  1  0.19405800  0.50755300  0.38366100  1
  Mo  Mo8  1  0.50755300  0.38366100  0.19405800  1
  Mo  Mo9  1  0.61633900  0.80594200  0.49244700  1
  Mo  Mo10  1  0.80594200  0.49244700  0.61633900  1
  Mo  Mo11  1  0.49244700  0.61633900  0.80594200  1
  Se  Se0  1  0.66878900  0.30245900  0.91978700  1
  Se  Se1  1  0.08021300  0.33121100  0.69754100  1
  Se  Se2  1  0.28042800  0.28042800  0.28042800  1
  Se  Se3  1  0.71957200  0.71957200  0.71957200  1
  Se  Se4  1  0.87087400  0.25506500  0.51602500  1
  Se  Se5  1  0.25506500  0.51602500  0.87087400  1
  Se  Se6  1  0.51602500  0.87087400  0.25506500  1
  Se  Se7  1  0.12912600  0.74493500  0.48397500  1
  Se  Se8  1  0.74493500  0.48397500  0.12912600  1
  Se  Se9  1  0.48397500  0.12912600  0.74493500  1
  Se  Se10  1  0.33121100  0.69754100  0.08021300  1
  Se  Se11  1  0.69754100  0.08021300  0.33121100  1
  Se  Se12  1  0.91978700  0.66878900  0.30245900  1
  Se  Se13  1  0.30245900  0.91978700  0.66878900  1
loop_
_geom_bond_atom_site_label_1
_geom_bond_atom_site_label_2
_geom_bond_distance
_geom_bond_site_symmetry_2
Rb0 Se9 3.618768 1_554
Rb0 Se7 3.618768 1_545
Rb0 Se8 3.618768 1_455
Rb0 Se2 3.706385 1_555
Rb0 Se4 3.774000 1_455
Rb0 Se5 3.774000 1_554
Rb0 Se6 3.774000 1_545
Rb0 Se1 3.910488 1_554
Rb0 Se11 3.910488 1_455
Rb0 Se10 3.910488 1_545
Rb1 Se6 3.618768 1_556
Rb1 Se4 3.618768 1_565
Rb1 Se5 3.618768 1_655
Rb1 Se3 3.706385 1_555
Rb1 Se7 3.774000 1_655
Rb1 Se8 3.774000 1_556
Rb1 Se9 3.774000 1_565
Rb1 Se12 3.910488 1_556
Rb1 Se13 3.910488 1_655
Rb1 Se0 3.910488 1_565
Mo0 Se11 2.593134 1_555
Mo0 Se9 2.610599 1_555
Mo0 Se8 2.615295 1_555
Mo0 Se4 2.715739 1_555
Mo1 Se1 2.593134 1_555
Mo1 Se7 2.610599 1_555
Mo1 Se9 2.615295 1_555
Mo1 Se5 2.715739 1_555
Mo2 Se10 2.593134 1_555
Mo2 Se8 2.610599 1_555
Mo2 Se7 2.615295 1_555
Mo2 Se6 2.715739 1_555
Mo3 Se13 2.593134 1_555
Mo3 Se6 2.610599 1_555
Mo3 Se5 2.615295 1_555
Mo3 Se7 2.715739 1_555
Mo4 Se12 2.593134 1_555
Mo4 Se4 2.610599 1_555
Mo4 Se6 2.615295 1_555
Mo4 Se8 2.715739 1_555
Mo5 Se0 2.593134 1_555
Mo5 Se5 2.610599 1_555
Mo5 Se4 2.615295 1_555
Mo5 Se9 2.715739 1_555
Mo6 Se2 2.542911 1_555
Mo6 Se11 2.610733 1_555
Mo6 Se1 2.650621 1_555
Mo6 Se13 2.669689 1_545
Mo6 Se9 2.701303 1_555
Mo7 Se2 2.542911 1_555
Mo7 Se1 2.610733 1_555
Mo7 Se10 2.650621 1_555
Mo7 Se12 2.669689 1_455
Mo7 Se7 2.701303 1_555
Mo8 Se2 2.542911 1_555
Mo8 Se10 2.610733 1_555
Mo8 Se11 2.650621 1_555
Mo8 Se0 2.669689 1_554
Mo8 Se8 2.701303 1_555
Mo9 Se3 2.542911 1_555
Mo9 Se13 2.610733 1_555
Mo9 Se12 2.650621 1_555
Mo9 Se11 2.669689 1_565
Mo9 Se6 2.701303 1_555
Mo10 Se3 2.542911 1_555
Mo10 Se12 2.610733 1_555
Mo10 Se0 2.650621 1_555
Mo10 Se1 2.669689 1_655
Mo10 Se4 2.701303 1_555
Mo11 Se3 2.542911 1_555
Mo11 Se0 2.610733 1_555
Mo11 Se13 2.650621 1_555
Mo11 Se10 2.669689 1_556
Mo11 Se5 2.701303 1_555
