# generated using pymatgen
data_Cs2CdBr4
_symmetry_space_group_name_H-M   'P 1'
_cell_length_a   7.96809333
_cell_length_b   10.35631303
_cell_length_c   14.16778374
_cell_angle_alpha   89.98958424
_cell_angle_beta   90.00263965
_cell_angle_gamma   90.00191859
_symmetry_Int_Tables_number   1
_chemical_formula_structural   Cs2CdBr4
_chemical_formula_sum   'Cs8 Cd4 Br16'
_cell_volume   1169.12646858
_cell_formula_units_Z   4
loop_
 _symmetry_equiv_pos_site_id
 _symmetry_equiv_pos_as_xyz
  1  'x, y, z'
loop_
 _atom_site_type_symbol
 _atom_site_label
 _atom_site_symmetry_multiplicity
 _atom_site_fract_x
 _atom_site_fract_y
 _atom_site_fract_z
 _atom_site_occupancy
  Cs  Cs0  1  0.75001188  0.38168052  0.57841066  1
  Cs  Cs1  1  0.75000817  0.88166840  0.92158860  1
  Cs  Cs2  1  0.25001107  0.61832612  0.42151751  1
  Cs  Cs3  1  0.25000564  0.11828548  0.07850084  1
  Cs  Cs4  1  0.75000882  0.51828977  0.17329373  1
  Cs  Cs5  1  0.75001326  0.01833706  0.32668921  1
  Cs  Cs6  1  0.25000520  0.48172597  0.82671183  1
  Cs  Cs7  1  0.25001587  0.98169567  0.67327984  1
  Cd  Cd0  1  0.75002669  0.27812672  0.92462581  1
  Cd  Cd1  1  0.75001674  0.77804429  0.57532888  1
  Cd  Cd2  1  0.25001279  0.72200752  0.07538622  1
  Cd  Cd3  1  0.24999116  0.22194017  0.42463574  1
  Br  Br0  1  0.74998727  0.52731294  0.90869123  1
  Br  Br1  1  0.75000423  0.02721127  0.59131603  1
  Br  Br2  1  0.24994772  0.47292072  0.09126893  1
  Br  Br3  1  0.24994956  0.97288504  0.40858975  1
  Br  Br4  1  0.75008931  0.18073108  0.09566502  1
  Br  Br5  1  0.74999949  0.68056066  0.40433108  1
  Br  Br6  1  0.24997920  0.81931339  0.90445287  1
  Br  Br7  1  0.25000447  0.31923726  0.59553367  1
  Br  Br8  1  0.01314235  0.17416592  0.84676833  1
  Br  Br9  1  0.48689604  0.67416691  0.65324039  1
  Br  Br10  1  0.51318501  0.82571383  0.15330155  1
  Br  Br11  1  0.98692604  0.32579935  0.34673292  1
  Br  Br12  1  0.98687758  0.82571763  0.15332772  1
  Br  Br13  1  0.51304770  0.32570966  0.34668759  1
  Br  Br14  1  0.48672736  0.17425688  0.84688757  1
  Br  Br15  1  0.01310839  0.67416977  0.65323749  1
loop_
_geom_bond_atom_site_label_1
_geom_bond_atom_site_label_2
_geom_bond_distance
_geom_bond_site_symmetry_2
Br0 Cd0 2.590466 1_555
Br0 Cs1 3.674396 1_555
Br0 Cs4 3.749979 1_556
Br0 Cs6 4.176486 1_555
Br0 Cs6 4.176890 1_655
Br1 Cd1 2.590414 1_545
Br1 Cs0 3.675512 1_555
Br1 Cs5 3.750319 1_555
Br1 Cs7 4.176443 1_545
Br1 Cs7 4.176548 1_645
Br2 Cd2 2.589376 1_555
Br2 Cs3 3.677199 1_555
Br2 Cs6 3.749280 1_554
Br2 Cs4 4.176214 1_455
Br2 Cs4 4.177011 1_555
Br3 Cd3 2.589333 1_565
Br3 Cs2 3.676455 1_555
Br3 Cs7 3.751198 1_555
Br3 Cs5 4.175652 1_465
Br3 Cs5 4.176692 1_565
Br4 Cd0 2.624620 1_554
Br4 Cs4 3.664980 1_555
Br4 Cs5 3.679626 1_555
Br4 Cs1 3.959528 1_544
Br4 Cs3 4.042895 1_655
Br4 Cs3 4.044144 1_555
Br5 Cd1 2.624767 1_555
Br5 Cs5 3.666805 1_565
Br5 Cs4 3.679753 1_555
Br5 Cs0 3.957376 1_555
Br5 Cs2 4.043074 1_555
Br5 Cs2 4.043276 1_655
Br6 Cd2 2.622878 1_556
Br6 Cs6 3.665742 1_555
Br6 Cs7 3.681446 1_555
Br6 Cs3 3.958543 1_566
Br6 Cs1 4.043150 1_455
Br6 Cs1 4.043540 1_555
Br7 Cd3 2.622718 1_555
Br7 Cs7 3.664929 1_545
Br7 Cs6 3.682559 1_555
Br7 Cs2 3.958507 1_555
Br7 Cs0 4.043419 1_455
Br7 Cs0 4.043514 1_555
Br8 Cd0 2.602339 1_455
Br8 Cs7 3.685042 1_545
Br8 Cs6 3.713160 1_555
Br8 Cs3 3.830769 1_556
Br8 Cs1 3.833324 1_445
Br9 Cd1 2.602115 1_555
Br9 Cs6 3.684235 1_555
Br9 Cs7 3.713131 1_555
Br9 Cs2 3.830836 1_555
Br9 Cs0 3.833606 1_555
Br10 Cd2 2.601821 1_555
Br10 Cs5 3.684577 1_565
Br10 Cs4 3.711820 1_555
Br10 Cs1 3.830620 1_554
Br10 Cs3 3.834109 1_565
Br11 Cd3 2.601604 1_655
Br11 Cs4 3.684268 1_555
Br11 Cs5 3.712555 1_555
Br11 Cs0 3.830634 1_555
Br11 Cs2 3.833461 1_655
Br12 Cd2 2.601897 1_655
Br12 Cs5 3.684641 1_565
Br12 Cs4 3.711912 1_555
Br12 Cs1 3.830983 1_554
Br12 Cs3 3.833899 1_665
Br13 Cd3 2.601462 1_555
Br13 Cs4 3.684569 1_555
Br13 Cs5 3.712045 1_555
Br13 Cs0 3.831353 1_555
Br13 Cs2 3.834326 1_555
Br14 Cd0 2.602274 1_555
Br14 Cs7 3.685833 1_545
Br14 Cs6 3.712007 1_555
Br14 Cs3 3.829038 1_556
Br14 Cs1 3.834299 1_545
Br15 Cd1 2.601875 1_455
Br15 Cs6 3.684256 1_555
Br15 Cs7 3.713098 1_555
Br15 Cs2 3.831043 1_555
Br15 Cs0 3.833369 1_455
