# generated using pymatgen
data_Ba2AlFe3O8
_symmetry_space_group_name_H-M   'P 1'
_cell_length_a   3.80341546
_cell_length_b   3.80341754
_cell_length_c   12.03897562
_cell_angle_alpha   90.00000000
_cell_angle_beta   90.00000000
_cell_angle_gamma   90.00000000
_symmetry_Int_Tables_number   1
_chemical_formula_structural   Ba2AlFe3O8
_chemical_formula_sum   'Ba2 Al1 Fe3 O8'
_cell_volume   174.15554529
_cell_formula_units_Z   1
loop_
 _symmetry_equiv_pos_site_id
 _symmetry_equiv_pos_as_xyz
  1  'x, y, z'
loop_
 _atom_site_type_symbol
 _atom_site_label
 _atom_site_symmetry_multiplicity
 _atom_site_fract_x
 _atom_site_fract_y
 _atom_site_fract_z
 _atom_site_occupancy
  Ba  Ba0  1  0.50000000  0.50000000  0.17030219  1
  Ba  Ba1  1  0.50000000  0.50000000  0.82969781  1
  Al  Al0  1  0.50000000  0.50000000  0.50000000  1
  Fe  Fe0  1  0.00000000  -0.00000000  0.35237250  1
  Fe  Fe1  1  0.00000000  -0.00000000  -0.00000000  1
  Fe  Fe2  1  -0.00000000  0.00000000  0.64762750  1
  O  O0  1  0.00000000  0.50000000  0.39910595  1
  O  O1  1  0.50000000  -0.00000000  0.39910586  1
  O  O2  1  0.50000000  -0.00000000  -0.00000000  1
  O  O3  1  0.00000000  -0.00000000  0.19827558  1
  O  O4  1  -0.00000000  0.50000000  0.60089405  1
  O  O5  1  0.50000000  0.00000000  0.60089414  1
  O  O6  1  -0.00000000  0.00000000  0.80172442  1
  O  O7  1  0.00000000  0.50000000  -0.00000000  1
loop_
_geom_bond_atom_site_label_1
_geom_bond_atom_site_label_2
_geom_bond_distance
_geom_bond_site_symmetry_2
Ba0 O3 2.710425 1_665
Ba0 O3 2.710425 1_555
Ba0 O3 2.710425 1_655
Ba0 O3 2.710425 1_565
Ba0 O7 2.796440 1_555
Ba0 O7 2.796440 1_655
Ba0 O2 2.796440 1_565
Ba0 O2 2.796440 1_555
Ba1 O6 2.710425 1_665
Ba1 O6 2.710425 1_555
Ba1 O6 2.710425 1_565
Ba1 O6 2.710425 1_655
Ba1 O7 2.796440 1_556
Ba1 O7 2.796440 1_656
Ba1 O2 2.796440 1_556
Ba1 O2 2.796440 1_566
Al0 O4 2.256522 1_655
Al0 O4 2.256522 1_555
Al0 O0 2.256522 1_655
Al0 O0 2.256522 1_555
Al0 O1 2.256524 1_555
Al0 O5 2.256524 1_555
Al0 O1 2.256524 1_565
Al0 O5 2.256524 1_565
Fe0 O3 1.855169 1_555
Fe0 O1 1.983188 1_555
Fe0 O1 1.983188 1_455
Fe0 O0 1.983190 1_555
Fe0 O0 1.983190 1_545
Fe1 O2 1.901708 1_455
Fe1 O2 1.901708 1_555
Fe1 O7 1.901709 1_555
Fe1 O7 1.901709 1_545
Fe1 O6 2.387035 1_554
Fe1 O3 2.387035 1_555
Fe2 O6 1.855169 1_555
Fe2 O5 1.983188 1_455
Fe2 O5 1.983188 1_555
Fe2 O4 1.983190 1_545
Fe2 O4 1.983190 1_555
