# generated using pymatgen
data_Li9V6(P8O29)2
_symmetry_space_group_name_H-M   'P 1'
_cell_length_a   9.77057400
_cell_length_b   9.80395975
_cell_length_c   14.10987800
_cell_angle_alpha   90.00275433
_cell_angle_beta   90.15058258
_cell_angle_gamma   119.86764804
_symmetry_Int_Tables_number   1
_chemical_formula_structural   Li9V6(P8O29)2
_chemical_formula_sum   'Li9 V6 P16 O58'
_cell_volume   1172.06343396
_cell_formula_units_Z   1
loop_
 _symmetry_equiv_pos_site_id
 _symmetry_equiv_pos_as_xyz
  1  'x, y, z'
loop_
 _atom_site_type_symbol
 _atom_site_label
 _atom_site_symmetry_multiplicity
 _atom_site_fract_x
 _atom_site_fract_y
 _atom_site_fract_z
 _atom_site_occupancy
  Li  Li0  1  0.31997800  0.23160000  0.05994300  1
  Li  Li1  1  0.31887400  0.09008500  0.56319500  1
  Li  Li2  1  0.76643900  0.66800800  0.56292500  1
  Li  Li3  1  0.66361300  0.33220600  0.88300300  1
  Li  Li4  1  0.91029700  0.67548200  0.05815800  1
  Li  Li5  1  0.76605300  0.08747600  0.05705100  1
  Li  Li6  1  0.90910600  0.23393300  0.56325100  1
  Li  Li7  1  0.68941500  0.91367400  0.44299300  1
  Li  Li8  1  0.00750800  0.00109400  0.98367000  1
  V  V0  1  0.99951900  0.56453700  0.25013900  1
  V  V1  1  0.00850800  0.43565100  0.75161400  1
  V  V2  1  0.42706800  0.99640500  0.75073900  1
  V  V3  1  0.56561700  0.00235000  0.24701000  1
  V  V4  1  0.43410500  0.43466500  0.24969000  1
  V  V5  1  0.56667200  0.56949300  0.75046500  1
  P  P0  1  0.31495300  0.22596800  0.84521700  1
  P  P1  1  0.31984500  0.08889100  0.34249300  1
  P  P2  1  0.76998000  0.68082200  0.34223300  1
  P  P3  1  0.66845100  0.33585700  0.12507900  1
  P  P4  1  0.66903500  0.33333400  0.62799900  1
  P  P5  1  0.91131300  0.68470500  0.84359400  1
  P  P6  1  0.08235000  0.77080200  0.65987800  1
  P  P7  1  0.77757600  0.09218900  0.84255900  1
  P  P8  1  0.22029500  0.91383300  0.16067600  1
  P  P9  1  0.91243100  0.23145200  0.34524600  1
  P  P10  1  0.08353600  0.30803200  0.16161200  1
  P  P11  1  0.33515600  0.66702100  0.36709100  1
  P  P12  1  0.33507200  0.67056100  0.87166500  1
  P  P13  1  0.22922500  0.31257500  0.66130000  1
  P  P14  1  0.68262600  0.91406300  0.66026000  1
  P  P15  1  0.69089000  0.77498100  0.15942800  1
  O  O0  1  0.22926100  0.22125800  0.57792800  1
  O  O1  1  0.34399300  0.25702800  0.32601200  1
  O  O2  1  0.20181500  0.00411200  0.08112500  1
  O  O3  1  0.34017200  0.08272100  0.83266900  1
  O  O4  1  0.47887700  0.37445000  0.83364900  1
  O  O5  1  0.51392000  0.32897300  0.16396200  1
  O  O6  1  0.61876600  0.51994100  0.32056200  1
  O  O7  1  0.79249000  0.78403400  0.07855700  1
  O  O8  1  0.74077300  0.65541800  0.83303300  1
  O  O9  1  0.51583300  0.18621900  0.66664200  1
  O  O10  1  0.48127700  0.09954600  0.31848000  1
  O  O11  1  0.67235700  0.48625300  0.66562100  1
  O  O12  1  0.67174300  0.34429600  0.01845400  1
  O  O13  1  0.68011900  0.33244100  0.52219700  1
  O  O14  1  0.81456900  0.48960200  0.16667500  1
  O  O15  1  0.62716800  0.10540500  0.83340100  1
  O  O16  1  0.67741200  0.19019400  0.16099400  1
  O  O17  1  0.91386000  0.65711800  0.33312800  1
  O  O18  1  0.00705900  0.79503900  0.75673500  1
  O  O19  1  0.98674700  0.76210300  0.57607800  1
  O  O20  1  0.98415600  0.76807300  0.93460900  1
  O  O21  1  0.89985200  0.52109700  0.83097500  1
  O  O22  1  0.81767800  0.33187300  0.67437000  1
  O  O23  1  0.07864700  0.74074900  0.16244600  1
  O  O24  1  0.89952600  0.38050700  0.31872300  1
  O  O25  1  0.74786200  0.08205900  0.33671000  1
  O  O26  1  0.19948500  0.98573500  0.26018000  1
  O  O27  1  0.25804200  0.02041800  0.43633300  1
  O  O28  1  0.76062800  0.00362900  0.57113700  1
  O  O29  1  0.25074500  0.91528200  0.65889300  1
  O  O30  1  0.08960900  0.61810700  0.67874400  1
  O  O31  1  0.92211200  0.26114500  0.83292100  1
  O  O32  1  0.18415900  0.66030800  0.31959700  1
  O  O33  1  0.08214100  0.46533100  0.17163700  1
  O  O34  1  0.99111000  0.20556000  0.08080300  1
  O  O35  1  0.98983000  0.24755600  0.43805100  1
  O  O36  1  0.01504200  0.21680200  0.26070700  1
  O  O37  1  0.08368000  0.33894000  0.66122800  1
  O  O38  1  0.32514800  0.81036700  0.82770900  1
  O  O39  1  0.37616300  0.91317800  0.16806500  1
  O  O40  1  0.18340800  0.51910500  0.82276700  1
  O  O41  1  0.31925100  0.65520800  0.97614200  1
  O  O42  1  0.32816000  0.65579600  0.47158900  1
  O  O43  1  0.33906600  0.52130800  0.31872300  1
  O  O44  1  0.52369400  0.90573200  0.67874800  1
  O  O45  1  0.48523900  0.81635300  0.32961500  1
  O  O46  1  0.25728100  0.34232300  0.15993900  1
  O  O47  1  0.20347200  0.21528800  0.75870600  1
  O  O48  1  0.22877900  0.21151000  0.93576200  1
  O  O49  1  0.38150500  0.47199500  0.67688200  1
  O  O50  1  0.47923600  0.66933700  0.82728200  1
  O  O51  1  0.53436900  0.61741600  0.17130100  1
  O  O52  1  0.65799900  0.91457900  0.16006100  1
  O  O53  1  0.79309500  0.01704700  0.93142800  1
  O  O54  1  0.79213500  0.00062900  0.75137100  1
  O  O55  1  0.66493200  0.74853100  0.65921700  1
  O  O56  1  0.75553400  0.74952000  0.43370400  1
  O  O57  1  0.78661400  0.79786700  0.25816400  1
loop_
_geom_bond_atom_site_label_1
_geom_bond_atom_site_label_2
_geom_bond_distance
_geom_bond_site_symmetry_2
Li0 O48 1.928699 1_554
Li0 O2 1.957980 1_555
Li0 O46 2.052087 1_555
Li0 O5 2.199938 1_555
Li1 O0 1.893698 1_555
Li1 O27 1.901015 1_555
Li1 O29 2.017942 1_545
Li1 O9 2.213764 1_555
Li2 O19 1.881217 1_555
Li2 O56 2.014522 1_555
Li2 O55 2.059037 1_555
Li2 O11 2.120310 1_555
Li3 O12 1.913854 1_556
Li3 O4 2.156939 1_555
Li3 O15 2.184199 1_555
Li3 O21 2.246726 1_555
Li4 O20 1.933408 1_554
Li4 O7 1.939624 1_555
Li4 O23 2.054076 1_655
Li4 O14 2.202364 1_555
Li5 O34 1.936099 1_555
Li5 O53 1.967860 1_554
Li5 O52 2.079981 1_545
Li5 O16 2.188702 1_555
Li6 O35 1.913914 1_555
Li6 O28 1.988330 1_555
Li6 O37 2.029502 1_655
Li6 O22 2.244937 1_555
Li7 O28 1.978174 1_565
Li7 O56 2.015068 1_555
Li7 O25 2.089518 1_565
Li7 O45 2.352986 1_555
Li8 O48 2.225381 1_555
Li8 O20 2.286961 1_445
Li8 O53 2.296698 1_455
Li8 O2 2.329444 1_556
Li8 O34 2.498627 1_456
Li8 O7 2.509364 1_446
O0 P13 1.478365 1_555
O1 P1 1.562035 1_555
O1 V4 1.856296 1_555
O2 P8 1.494690 1_545
O3 P0 1.552171 1_555
O3 V2 1.869228 1_545
O4 P0 1.546021 1_555
O4 V5 2.035119 1_555
O5 P3 1.577367 1_555
O5 V4 1.988640 1_555
O6 P2 1.562276 1_555
O6 V4 1.855345 1_555
O7 P15 1.487812 1_555
O8 P5 1.550254 1_555
O8 V5 1.876911 1_555
O9 P4 1.572334 1_555
O9 V2 2.005339 1_545
O10 P1 1.565963 1_555
O10 V3 1.841304 1_555
O11 P4 1.575388 1_555
O11 V5 2.002777 1_555
O12 P3 1.506291 1_555
O13 P4 1.497401 1_555
O14 P3 1.583307 1_555
O14 V0 1.964328 1_555
O15 P7 1.543302 1_555
O15 V2 2.057114 1_545
O16 P3 1.558279 1_555
O16 V3 2.015270 1_555
O17 P2 1.540484 1_555
O17 V0 1.912363 1_555
O18 P5 1.595474 1_455
O18 P6 1.626248 1_555
O19 P6 1.480789 1_655
O20 P5 1.496492 1_555
O21 P5 1.561425 1_555
O21 V1 1.993652 1_655
O22 P4 1.597899 1_555
O22 V1 1.949173 1_655
O23 P8 1.567363 1_555
O23 V0 1.946328 1_455
O24 P9 1.573137 1_555
O24 V0 1.842738 1_555
O25 P9 1.548703 1_555
O25 V3 1.996339 1_555
O26 P1 1.600878 1_565
O26 P8 1.628989 1_555
O27 P1 1.472751 1_555
O28 P14 1.507262 1_545
O29 P6 1.546792 1_555
O29 V2 1.975711 1_555
O30 P6 1.556482 1_555
O30 V1 1.864815 1_555
O31 P7 1.558128 1_555
O31 V1 1.876855 1_655
O32 P11 1.589998 1_555
O32 V0 1.843954 1_455
O33 P10 1.555428 1_555
O33 V0 1.900304 1_455
O34 P10 1.488534 1_655
O35 P9 1.478978 1_555
O36 P9 1.611930 1_455
O36 P10 1.616083 1_555
O37 P13 1.566895 1_555
O37 V1 1.939931 1_555
O38 P12 1.550771 1_555
O38 V2 1.922145 1_555
O39 P8 1.529412 1_555
O39 V3 1.951620 1_565
O40 P12 1.636983 1_555
O40 V1 1.787719 1_555
O41 P12 1.482477 1_555
O42 P11 1.477786 1_555
O43 P11 1.600755 1_555
O43 V4 1.822881 1_555
O44 P14 1.536845 1_555
O44 V2 1.885262 1_555
O45 P11 1.561804 1_555
O45 V3 1.969546 1_565
O46 P10 1.557939 1_555
O46 V4 1.959265 1_555
O47 P0 1.602126 1_555
O47 P13 1.620152 1_555
O48 P0 1.499339 1_555
O49 P13 1.544987 1_555
O49 V5 1.879471 1_555
O50 P12 1.548498 1_555
O50 V5 1.923659 1_555
O51 P15 1.549689 1_555
O51 V4 1.910733 1_555
O52 P15 1.553877 1_555
O52 V3 1.959504 1_565
O53 P7 1.499463 1_555
O54 P14 1.614314 1_545
O54 P7 1.615399 1_555
O55 P14 1.544135 1_555
O55 V5 1.997164 1_555
O56 P2 1.494945 1_555
O57 P2 1.601766 1_555
O57 P15 1.627905 1_555
