# generated using pymatgen
data_CaCr2P2O9
_symmetry_space_group_name_H-M   'P 1'
_cell_length_a   6.44634000
_cell_length_b   7.44741600
_cell_length_c   14.31877800
_cell_angle_alpha   90.00000000
_cell_angle_beta   90.00000000
_cell_angle_gamma   90.00000000
_symmetry_Int_Tables_number   1
_chemical_formula_structural   CaCr2P2O9
_chemical_formula_sum   'Ca4 Cr8 P8 O36'
_cell_volume   687.42413694
_cell_formula_units_Z   4
loop_
 _symmetry_equiv_pos_site_id
 _symmetry_equiv_pos_as_xyz
  1  'x, y, z'
loop_
 _atom_site_type_symbol
 _atom_site_label
 _atom_site_symmetry_multiplicity
 _atom_site_fract_x
 _atom_site_fract_y
 _atom_site_fract_z
 _atom_site_occupancy
  Ca  Ca0  1  0.75000000  0.89229300  0.77962500  1
  Ca  Ca1  1  0.75000000  0.60770700  0.27962500  1
  Ca  Ca2  1  0.25000000  0.39229300  0.72037500  1
  Ca  Ca3  1  0.25000000  0.10770700  0.22037500  1
  Cr  Cr0  1  0.75000000  0.35104400  0.87827800  1
  Cr  Cr1  1  0.25000000  0.64895600  0.12172200  1
  Cr  Cr2  1  0.25000000  0.85104400  0.62172200  1
  Cr  Cr3  1  0.75000000  0.14895600  0.37827800  1
  Cr  Cr4  1  0.50000000  0.00000000  0.00000000  1
  Cr  Cr5  1  0.50000000  0.50000000  0.50000000  1
  Cr  Cr6  1  0.00000000  0.50000000  0.50000000  1
  Cr  Cr7  1  0.00000000  0.00000000  0.00000000  1
  P  P0  1  0.25000000  0.36029100  0.93446700  1
  P  P1  1  0.75000000  0.63970900  0.06553300  1
  P  P2  1  0.75000000  0.86029100  0.56553300  1
  P  P3  1  0.25000000  0.13970900  0.43446700  1
  P  P4  1  0.75000000  0.39117600  0.69108000  1
  P  P5  1  0.75000000  0.10882400  0.19108000  1
  P  P6  1  0.25000000  0.89117600  0.80892000  1
  P  P7  1  0.25000000  0.60882400  0.30892000  1
  O  O0  1  0.05223600  0.60400900  0.37039800  1
  O  O1  1  0.55223600  0.39599100  0.62960200  1
  O  O2  1  0.94776400  0.10400900  0.12960200  1
  O  O3  1  0.44776400  0.89599100  0.87039800  1
  O  O4  1  0.94776400  0.39599100  0.62960200  1
  O  O5  1  0.44776400  0.60400900  0.37039800  1
  O  O6  1  0.05223600  0.89599100  0.87039800  1
  O  O7  1  0.55223600  0.10400900  0.12960200  1
  O  O8  1  0.25000000  0.33026500  0.48294400  1
  O  O9  1  0.75000000  0.66973600  0.51705600  1
  O  O10  1  0.75000000  0.83026400  0.01705600  1
  O  O11  1  0.25000000  0.16973500  0.98294400  1
  O  O12  1  0.75000000  0.12429500  0.94393200  1
  O  O13  1  0.25000000  0.87570500  0.05606800  1
  O  O14  1  0.25000000  0.62429500  0.55606800  1
  O  O15  1  0.75000000  0.37570500  0.44393200  1
  O  O16  1  0.75000000  0.21745100  0.75213400  1
  O  O17  1  0.25000000  0.78254900  0.24786600  1
  O  O18  1  0.25000000  0.71745100  0.74786600  1
  O  O19  1  0.75000000  0.28254900  0.25213400  1
  O  O20  1  0.43801400  0.13280300  0.36706800  1
  O  O21  1  0.93801400  0.86719700  0.63293200  1
  O  O22  1  0.56198600  0.63280300  0.13293200  1
  O  O23  1  0.06198600  0.36719700  0.86706800  1
  O  O24  1  0.56198600  0.86719700  0.63293200  1
  O  O25  1  0.06198600  0.13280300  0.36706800  1
  O  O26  1  0.43801400  0.36719700  0.86706800  1
  O  O27  1  0.93801400  0.63280300  0.13293200  1
  O  O28  1  0.75000000  0.49689000  0.99191700  1
  O  O29  1  0.25000000  0.04312300  0.73382600  1
  O  O30  1  0.25000000  0.45687700  0.23382600  1
  O  O31  1  0.75000000  0.54312300  0.76617400  1
  O  O32  1  0.75000000  0.00311000  0.49191700  1
  O  O33  1  0.25000000  0.99689000  0.50808300  1
  O  O34  1  0.25000000  0.50311000  0.00808300  1
  O  O35  1  0.75000000  0.95687700  0.26617400  1
loop_
_geom_bond_atom_site_label_1
_geom_bond_atom_site_label_2
_geom_bond_distance
_geom_bond_site_symmetry_2
Ca0 O6 2.342235 1_655
Ca0 O3 2.342235 1_555
Ca0 O21 2.432248 1_555
Ca0 O24 2.432248 1_555
Ca0 O16 2.453372 1_565
Ca0 O31 2.607537 1_555
Ca1 O0 2.342235 1_655
Ca1 O5 2.342235 1_555
Ca1 O22 2.432248 1_555
Ca1 O27 2.432248 1_555
Ca1 O19 2.453372 1_555
Ca1 O35 2.607537 1_555
Ca2 O1 2.342235 1_555
Ca2 O4 2.342235 1_455
Ca2 O26 2.432248 1_555
Ca2 O23 2.432248 1_555
Ca2 O18 2.453372 1_555
Ca2 O29 2.607537 1_555
Ca3 O7 2.342235 1_555
Ca3 O2 2.342235 1_455
Ca3 O25 2.432248 1_555
Ca3 O20 2.432248 1_555
Ca3 O17 2.453372 1_545
Ca3 O30 2.607537 1_555
Cr0 O12 1.932731 1_555
Cr0 O28 1.956391 1_555
Cr0 O26 2.021146 1_555
Cr0 O23 2.021146 1_655
Cr0 O16 2.062118 1_555
Cr0 O31 2.150105 1_555
Cr1 O13 1.932731 1_555
Cr1 O34 1.956391 1_555
Cr1 O22 2.021146 1_555
Cr1 O27 2.021146 1_455
Cr1 O17 2.062118 1_555
Cr1 O30 2.150105 1_555
Cr2 O14 1.932731 1_555
Cr2 O33 1.956391 1_555
Cr2 O24 2.021146 1_555
Cr2 O21 2.021146 1_455
Cr2 O18 2.062118 1_555
Cr2 O29 2.150105 1_565
Cr3 O15 1.932731 1_555
Cr3 O32 1.956391 1_555
Cr3 O20 2.021146 1_555
Cr3 O25 2.021146 1_655
Cr3 O19 2.062118 1_555
Cr3 O35 2.150105 1_545
Cr4 O13 2.024503 1_545
Cr4 O12 2.024503 1_554
Cr4 O7 2.038914 1_555
Cr4 O3 2.038914 1_544
Cr4 O11 2.062709 1_554
Cr4 O10 2.062713 1_545
Cr5 O14 2.024503 1_555
Cr5 O15 2.024503 1_555
Cr5 O1 2.038914 1_555
Cr5 O5 2.038914 1_555
Cr5 O8 2.062709 1_555
Cr5 O9 2.062713 1_555
Cr6 O14 2.024503 1_555
Cr6 O15 2.024503 1_455
Cr6 O4 2.038914 1_455
Cr6 O0 2.038914 1_555
Cr6 O8 2.062709 1_555
Cr6 O9 2.062713 1_455
Cr7 O13 2.024503 1_545
Cr7 O12 2.024503 1_454
Cr7 O2 2.038914 1_455
Cr7 O6 2.038914 1_544
Cr7 O11 2.062709 1_554
Cr7 O10 2.062713 1_445
O0 P7 1.549661 1_555
O1 P4 1.549661 1_555
O2 P5 1.549661 1_555
O3 P6 1.549661 1_555
O4 P4 1.549661 1_555
O5 P7 1.549661 1_555
O6 P6 1.549661 1_555
O7 P5 1.549661 1_555
O8 P3 1.579812 1_555
O9 P2 1.579805 1_555
O10 P1 1.579805 1_555
O11 P0 1.579812 1_555
O16 P4 1.561468 1_555
O17 P7 1.561468 1_555
O18 P6 1.561468 1_555
O19 P5 1.561468 1_555
O20 P3 1.550147 1_555
O21 P2 1.550147 1_555
O22 P1 1.550147 1_555
O23 P0 1.550147 1_555
O24 P2 1.550147 1_555
O25 P3 1.550147 1_555
O26 P0 1.550147 1_555
O27 P1 1.550147 1_555
O28 P1 1.497472 1_556
O29 P6 1.560999 1_545
O30 P7 1.560999 1_555
O31 P4 1.560999 1_555
O32 P2 1.497472 1_545
O33 P3 1.497472 1_565
O34 P0 1.497472 1_554
O35 P5 1.560999 1_565
