# generated using pymatgen
data_GeC4(BrF5)2
_symmetry_space_group_name_H-M   'P 1'
_cell_length_a   9.00151500
_cell_length_b   9.00151500
_cell_length_c   15.46632685
_cell_angle_alpha   90.00000000
_cell_angle_beta   90.00000000
_cell_angle_gamma   90.00000000
_symmetry_Int_Tables_number   1
_chemical_formula_structural   GeC4(BrF5)2
_chemical_formula_sum   'Ge4 C16 Br8 F40'
_cell_volume   1253.19427708
_cell_formula_units_Z   4
loop_
 _symmetry_equiv_pos_site_id
 _symmetry_equiv_pos_as_xyz
  1  'x, y, z'
loop_
 _atom_site_type_symbol
 _atom_site_label
 _atom_site_symmetry_multiplicity
 _atom_site_fract_x
 _atom_site_fract_y
 _atom_site_fract_z
 _atom_site_occupancy
  Ge  Ge0  1  0.10994219  0.89005781  0.75000000  1
  Ge  Ge1  1  0.89005781  0.10994219  0.25000000  1
  Ge  Ge2  1  0.39005781  0.39005781  -0.00000000  1
  Ge  Ge3  1  0.60994219  0.60994219  0.50000000  1
  C  C0  1  0.09143318  0.03847262  0.64847700  1
  C  C1  1  0.90856682  0.96152738  0.14847700  1
  C  C2  1  0.53847262  0.40856682  0.89847700  1
  C  C3  1  0.46152738  0.59143318  0.39847700  1
  C  C4  1  0.96152738  0.90856682  0.85152300  1
  C  C5  1  0.03847262  0.09143318  0.35152300  1
  C  C6  1  0.40856682  0.53847262  0.10152300  1
  C  C7  1  0.59143318  0.46152738  0.60152300  1
  C  C8  1  0.09708524  0.20646709  0.67097195  1
  C  C9  1  0.90291476  0.79353291  0.17097195  1
  C  C10  1  0.70646709  0.40291476  0.92097195  1
  C  C11  1  0.29353291  0.59708524  0.42097195  1
  C  C12  1  0.79353291  0.90291476  0.82902805  1
  C  C13  1  0.20646709  0.09708524  0.32902805  1
  C  C14  1  0.40291476  0.70646709  0.07902805  1
  C  C15  1  0.59708524  0.29353291  0.57902805  1
  Br  Br0  1  0.08663518  0.66002338  0.68727759  1
  Br  Br1  1  0.91336482  0.33997662  0.18727759  1
  Br  Br2  1  0.16002338  0.41336482  0.93727759  1
  Br  Br3  1  0.83997662  0.58663518  0.43727759  1
  Br  Br4  1  0.33997662  0.91336482  0.81272241  1
  Br  Br5  1  0.66002338  0.08663518  0.31272241  1
  Br  Br6  1  0.41336482  0.16002338  0.06272241  1
  Br  Br7  1  0.58663518  0.83997662  0.56272241  1
  F  F0  1  0.20412873  0.00977413  0.59131306  1
  F  F1  1  0.79587127  0.99022587  0.09131306  1
  F  F2  1  0.50977413  0.29587127  0.84131306  1
  F  F3  1  0.49022587  0.70412873  0.34131306  1
  F  F4  1  0.99022587  0.79587127  0.90868694  1
  F  F5  1  0.00977413  0.20412873  0.40868694  1
  F  F6  1  0.29587127  0.50977413  0.15868694  1
  F  F7  1  0.70412873  0.49022587  0.65868694  1
  F  F8  1  0.95900702  0.01078184  0.60770721  1
  F  F9  1  0.04099298  0.98921816  0.10770721  1
  F  F10  1  0.51078184  0.54099298  0.85770721  1
  F  F11  1  0.48921816  0.45900702  0.35770721  1
  F  F12  1  0.98921816  0.04099298  0.89229279  1
  F  F13  1  0.01078184  0.95900702  0.39229279  1
  F  F14  1  0.54099298  0.51078184  0.14229279  1
  F  F15  1  0.45900702  0.48921816  0.64229279  1
  F  F16  1  0.07939469  0.29091047  0.59940066  1
  F  F17  1  0.92060531  0.70908953  0.09940066  1
  F  F18  1  0.79091047  0.42060531  0.84940066  1
  F  F19  1  0.20908953  0.57939469  0.34940066  1
  F  F20  1  0.70908953  0.92060531  0.90059934  1
  F  F21  1  0.29091047  0.07939469  0.40059934  1
  F  F22  1  0.42060531  0.79091047  0.15059934  1
  F  F23  1  0.57939469  0.20908953  0.65059934  1
  F  F24  1  0.98685108  0.24007307  0.72744329  1
  F  F25  1  0.01314892  0.75992693  0.22744329  1
  F  F26  1  0.74007307  0.51314892  0.97744329  1
  F  F27  1  0.25992693  0.48685108  0.47744329  1
  F  F28  1  0.75992693  0.01314892  0.77255671  1
  F  F29  1  0.24007307  0.98685108  0.27255671  1
  F  F30  1  0.51314892  0.74007307  0.02255671  1
  F  F31  1  0.48685108  0.25992693  0.52255671  1
  F  F32  1  0.22905745  0.24102664  0.70761378  1
  F  F33  1  0.77094255  0.75897336  0.20761378  1
  F  F34  1  0.74102664  0.27094255  0.95761378  1
  F  F35  1  0.25897336  0.72905745  0.45761378  1
  F  F36  1  0.75897336  0.77094255  0.79238622  1
  F  F37  1  0.24102664  0.22905745  0.29238622  1
  F  F38  1  0.27094255  0.74102664  0.04238622  1
  F  F39  1  0.72905745  0.25897336  0.54238622  1
loop_
_geom_bond_atom_site_label_1
_geom_bond_atom_site_label_2
_geom_bond_distance
_geom_bond_site_symmetry_2
C0 F0 1.370206 1_555
C0 F8 1.371381 1_455
C0 Ge0 2.068341 1_545
C1 F1 1.370206 1_555
C1 F9 1.371381 1_655
C1 Ge1 2.068341 1_565
C2 F2 1.370206 1_555
C2 F10 1.371381 1_555
C2 Ge2 2.068341 1_556
C3 F3 1.370206 1_555
C3 F11 1.371381 1_555
C3 Ge3 2.068341 1_555
C4 F4 1.370206 1_555
C4 F12 1.371381 1_565
C4 Ge0 2.068341 1_655
C5 F5 1.370206 1_555
C5 F13 1.371381 1_545
C5 Ge1 2.068341 1_455
C6 F6 1.370206 1_555
C6 F14 1.371381 1_555
C6 Ge2 2.068341 1_555
C7 F7 1.370206 1_555
C7 F15 1.371381 1_555
C7 Ge3 2.068341 1_555
C8 F16 1.352207 1_555
C8 F32 1.352467 1_555
C8 F24 1.356080 1_455
C9 F17 1.352207 1_555
C9 F33 1.352467 1_555
C9 F25 1.356080 1_655
C10 F18 1.352207 1_555
C10 F34 1.352467 1_555
C10 F26 1.356080 1_555
C11 F19 1.352207 1_555
C11 F35 1.352467 1_555
C11 F27 1.356080 1_555
C12 F20 1.352207 1_555
C12 F36 1.352467 1_555
C12 F28 1.356080 1_565
C13 F21 1.352207 1_555
C13 F37 1.352467 1_555
C13 F29 1.356080 1_545
C14 F22 1.352207 1_555
C14 F38 1.352467 1_555
C14 F30 1.356080 1_555
C15 F23 1.352207 1_555
C15 F39 1.352467 1_555
C15 F31 1.356080 1_555
Br0 Ge0 2.296238 1_555
Br1 Ge1 2.296238 1_555
Br2 Ge2 2.296238 1_556
Br3 Ge3 2.296238 1_555
Br4 Ge0 2.296238 1_555
Br5 Ge1 2.296238 1_555
Br6 Ge2 2.296238 1_555
Br7 Ge3 2.296238 1_555
