# generated using pymatgen
data_In2O3
_symmetry_space_group_name_H-M   'P 1'
_cell_length_a   11.50064564
_cell_length_b   11.70320072
_cell_length_c   11.09327835
_cell_angle_alpha   91.94359757
_cell_angle_beta   96.38028559
_cell_angle_gamma   90.51594758
_symmetry_Int_Tables_number   1
_chemical_formula_structural   In2O3
_chemical_formula_sum   'In40 O60'
_cell_volume   1482.86854465
_cell_formula_units_Z   20
loop_
 _symmetry_equiv_pos_site_id
 _symmetry_equiv_pos_as_xyz
  1  'x, y, z'
loop_
 _atom_site_type_symbol
 _atom_site_label
 _atom_site_symmetry_multiplicity
 _atom_site_fract_x
 _atom_site_fract_y
 _atom_site_fract_z
 _atom_site_occupancy
  In  In0  1  0.45340337  0.92239248  0.77319340  1
  In  In1  1  0.75752318  0.75778381  0.25860919  1
  In  In2  1  0.04819634  0.61351079  0.39555424  1
  In  In3  1  0.85931896  0.26336760  0.99400791  1
  In  In4  1  0.85261860  0.61955600  0.87807883  1
  In  In5  1  0.52388097  0.79094660  0.50703570  1
  In  In6  1  0.82796832  0.43483248  0.26013881  1
  In  In7  1  0.43270291  0.21543300  0.83744053  1
  In  In8  1  0.44794158  0.40753417  0.57783514  1
  In  In9  1  0.98611006  0.86149452  0.48186036  1
  In  In10  1  0.17820735  0.02236074  0.60566315  1
  In  In11  1  0.63617746  0.60147579  0.04141580  1
  In  In12  1  0.16346512  0.24742228  0.93291107  1
  In  In13  1  0.11281558  0.15379755  0.20585827  1
  In  In14  1  0.30148629  0.61189755  0.27049747  1
  In  In15  1  0.47153675  0.10989192  0.53449490  1
  In  In16  1  0.64253987  0.98640985  0.00216239  1
  In  In17  1  0.79468608  0.59992963  0.55426086  1
  In  In18  1  0.27144416  0.68379749  0.60796696  1
  In  In19  1  0.54878704  0.65455985  0.76756843  1
  In  In20  1  0.31059255  0.70302105  0.97772128  1
  In  In21  1  0.07379949  0.78218695  0.78814754  1
  In  In22  1  0.59492492  0.27893220  0.13205119  1
  In  In23  1  0.24455345  0.88505912  0.31510923  1
  In  In24  1  0.57433419  0.54477432  0.32386949  1
  In  In25  1  0.50939955  0.86663350  0.22904367  1
  In  In26  1  0.08819571  0.46920984  0.08434096  1
  In  In27  1  0.95697787  0.80594490  0.11836285  1
  In  In28  1  0.34534945  0.30350430  0.27093265  1
  In  In29  1  0.95253403  0.11602762  0.57143042  1
  In  In30  1  0.29040124  0.98400846  0.00629857  1
  In  In31  1  0.66535866  0.28661116  0.46719205  1
  In  In32  1  0.15967515  0.46015555  0.74907858  1
  In  In33  1  0.90128067  0.35181740  0.71621678  1
  In  In34  1  0.74279223  0.87386143  0.74574696  1
  In  In35  1  0.81050349  0.11323080  0.25371019  1
  In  In36  1  0.08510987  0.32758526  0.43859243  1
  In  In37  1  0.39151737  0.44599407  0.00327935  1
  In  In38  1  0.71917463  0.98037198  0.48923253  1
  In  In39  1  0.95693329  0.98149367  0.96557475  1
  O  O0  1  0.01301614  0.15520586  0.01420374  1
  O  O1  1  0.73245780  0.16537046  0.07934671  1
  O  O2  1  0.65336354  0.46127788  0.16364047  1
  O  O3  1  0.29048930  0.35807867  0.84652930  1
  O  O4  1  0.78597315  0.99844820  0.89070721  1
  O  O5  1  0.60378506  0.82390362  0.85723010  1
  O  O6  1  0.65449855  0.83402317  0.38868426  1
  O  O7  1  0.63300852  0.46116288  0.50559801  1
  O  O8  1  0.19592264  0.64210541  0.77716227  1
  O  O9  1  0.94810305  0.76581906  0.30450434  1
  O  O10  1  0.68314191  0.56116964  0.86803526  1
  O  O11  1  0.46277820  0.60809049  0.94496453  1
  O  O12  1  0.52306598  0.33740592  0.96081588  1
  O  O13  1  0.27785599  0.12299193  0.88784930  1
  O  O14  1  0.71793083  0.94010629  0.18219582  1
  O  O15  1  0.20324726  0.00319224  0.16721278  1
  O  O16  1  0.79221067  0.28021642  0.82316230  1
  O  O17  1  0.19078794  0.30695906  0.11895092  1
  O  O18  1  0.25041607  0.42577067  0.50295966  1
  O  O19  1  0.03505564  0.63263418  0.94308131  1
  O  O20  1  0.88416404  0.52840259  0.70990622  1
  O  O21  1  0.05882594  0.66100575  0.07606955  1
  O  O22  1  0.52899276  0.06604744  0.86633895  1
  O  O23  1  0.75975199  0.59395694  0.35763803  1
  O  O24  1  0.13873811  0.84414535  0.63141046  1
  O  O25  1  0.59549341  0.94904460  0.61891154  1
  O  O26  1  0.41474438  0.46762879  0.22293489  1
  O  O27  1  0.12348532  0.96659342  0.41689544  1
  O  O28  1  0.82713326  0.24292935  0.56521966  1
  O  O29  1  0.90891520  0.41602094  0.09808835  1
  O  O30  1  0.41579646  0.55000615  0.67641371  1
  O  O31  1  0.58050760  0.69763495  0.19181576  1
  O  O32  1  0.95794530  0.69142514  0.53710040  1
  O  O33  1  0.42417184  0.77683766  0.65552195  1
  O  O34  1  0.67123697  0.71087222  0.63130888  1
  O  O35  1  0.80376276  0.69004246  0.07747679  1
  O  O36  1  0.43876028  0.20715127  0.15901898  1
  O  O37  1  0.06398160  0.32146556  0.63486954  1
  O  O38  1  0.72892228  0.28128768  0.29513276  1
  O  O39  1  0.95576875  0.45426688  0.40899025  1
  O  O40  1  0.87319889  0.01965489  0.40380232  1
  O  O41  1  0.21216339  0.71917564  0.41212400  1
  O  O42  1  0.10967866  0.92877800  0.90219885  1
  O  O43  1  0.31874057  0.76981268  0.17353546  1
  O  O44  1  0.18320992  0.51873767  0.55925056  1
  O  O45  1  0.47276045  0.95726856  0.07651406  1
  O  O46  1  0.35547712  0.03270669  0.63876047  1
  O  O47  1  0.45084919  0.64198509  0.40844764  1
  O  O48  1  0.89377646  0.78068411  0.81333131  1
  O  O49  1  0.32307708  0.84842223  0.87991745  1
  O  O50  1  0.25311165  0.54837612  0.04460389  1
  O  O51  1  0.97057007  0.21420475  0.28987786  1
  O  O52  1  0.46469770  0.28785966  0.43344868  1
  O  O53  1  0.14202189  0.51831984  0.27059333  1
  O  O54  1  0.05193786  0.38771620  0.88623702  1
  O  O55  1  0.61405639  0.11375959  0.43238539  1
  O  O56  1  0.42224256  0.91676053  0.38599939  1
  O  O57  1  0.21469978  0.22526517  0.36458046  1
  O  O58  1  0.86737626  0.94560556  0.61902652  1
  O  O59  1  0.48319384  0.25165415  0.66770322  1
loop_
_geom_bond_atom_site_label_1
_geom_bond_atom_site_label_2
_geom_bond_distance
_geom_bond_site_symmetry_2
In0 O22 2.075121 1_565
In0 O33 2.111889 1_555
In0 O49 2.199576 1_555
In0 O5 2.222435 1_555
In0 O46 2.223196 1_565
In0 O25 2.519027 1_555
In1 O6 2.143314 1_555
In1 O31 2.189190 1_555
In1 O9 2.194774 1_555
In1 O23 2.240761 1_555
In1 O35 2.255179 1_555
In1 O14 2.352276 1_555
In2 O53 2.139255 1_555
In2 O39 2.154937 1_455
In2 O32 2.157895 1_455
In2 O41 2.232604 1_555
In2 O9 2.328787 1_455
In2 O44 2.545540 1_555
In3 O16 1.982287 1_555
In3 O29 2.132015 1_556
In3 O1 2.165797 1_556
In3 O0 2.179112 1_656
In4 O10 2.049601 1_555
In4 O48 2.108847 1_555
In4 O19 2.143846 1_655
In4 O20 2.184596 1_555
In4 O35 2.459642 1_556
In5 O33 2.119043 1_555
In5 O47 2.140300 1_555
In5 O6 2.168877 1_555
In5 O56 2.270126 1_555
In5 O25 2.287271 1_555
In5 O34 2.290784 1_555
In6 O39 2.089912 1_555
In6 O29 2.120268 1_555
In6 O38 2.187704 1_555
In6 O2 2.197718 1_555
In6 O23 2.309032 1_555
In7 O59 2.086882 1_555
In7 O22 2.092748 1_555
In7 O12 2.124970 1_555
In7 O13 2.209564 1_555
In7 O3 2.355106 1_555
In8 O30 2.022366 1_555
In8 O52 2.117910 1_555
In8 O59 2.129119 1_555
In8 O18 2.344643 1_555
In8 O7 2.440337 1_555
In9 O32 2.134757 1_555
In9 O27 2.192382 1_655
In9 O9 2.228525 1_555
In9 O24 2.292751 1_655
In9 O58 2.352308 1_555
In9 O40 2.400893 1_565
In10 O46 2.032734 1_555
In10 O24 2.165618 1_545
In10 O27 2.194101 1_545
In11 O10 2.094633 1_554
In11 O31 2.140805 1_555
In11 O11 2.159127 1_554
In11 O2 2.160265 1_555
In11 O35 2.171074 1_555
In12 O13 2.057305 1_555
In12 O54 2.134719 1_555
In12 O17 2.144260 1_556
In12 O3 2.256261 1_555
In12 O0 2.313214 1_556
In13 O51 2.088001 1_455
In13 O15 2.110195 1_555
In13 O57 2.143987 1_555
In13 O17 2.286262 1_555
In13 O0 2.301780 1_555
In14 O53 2.127690 1_555
In14 O47 2.187443 1_555
In14 O43 2.188045 1_555
In14 O26 2.226576 1_555
In14 O41 2.312587 1_555
In14 O50 2.588057 1_555
In15 O46 2.080307 1_555
In15 O55 2.094386 1_555
In15 O59 2.177110 1_555
In15 O52 2.396335 1_555
In15 O25 2.514750 1_545
In15 O56 2.767771 1_545
In16 O22 2.126978 1_564
In16 O4 2.174987 1_554
In16 O14 2.175106 1_555
In16 O45 2.230287 1_555
In16 O1 2.414879 1_565
In16 O5 2.453295 1_554
In17 O20 2.111763 1_555
In17 O34 2.158619 1_555
In17 O23 2.172161 1_555
In17 O32 2.182938 1_555
In17 O7 2.459524 1_555
In18 O33 2.066339 1_555
In18 O44 2.196669 1_555
In18 O8 2.220839 1_555
In18 O41 2.256783 1_555
In18 O30 2.373100 1_555
In18 O24 2.454627 1_555
In19 O30 2.097067 1_555
In19 O10 2.134136 1_555
In19 O5 2.240771 1_555
In19 O34 2.286109 1_555
In19 O33 2.325607 1_555
In19 O11 2.375370 1_555
In20 O49 2.061277 1_555
In20 O50 2.107503 1_556
In20 O11 2.139778 1_555
In20 O43 2.275216 1_556
In20 O8 2.533923 1_555
In21 O42 2.106709 1_555
In21 O24 2.114498 1_555
In21 O48 2.119685 1_455
In21 O8 2.177396 1_555
In21 O19 2.564396 1_555
In22 O36 2.032263 1_555
In22 O12 2.123458 1_554
In22 O1 2.191047 1_555
In22 O2 2.235994 1_555
In22 O38 2.241587 1_555
In23 O27 2.103431 1_555
In23 O56 2.131083 1_555
In23 O15 2.195745 1_565
In23 O43 2.277819 1_555
In23 O41 2.298630 1_555
In24 O47 2.108152 1_555
In24 O23 2.191940 1_555
In24 O26 2.209600 1_555
In24 O2 2.279817 1_555
In24 O7 2.306582 1_555
In24 O31 2.355836 1_555
In25 O45 2.033976 1_555
In25 O56 2.170183 1_555
In25 O31 2.190868 1_555
In25 O6 2.338171 1_555
In25 O43 2.465541 1_555
In25 O14 2.651643 1_555
In26 O53 2.147390 1_555
In26 O29 2.171437 1_455
In26 O50 2.198144 1_555
In26 O17 2.265895 1_555
In26 O21 2.276311 1_555
In26 O54 2.357972 1_554
In26 O19 2.549231 1_554
In27 O21 2.138532 1_655
In27 O9 2.146296 1_555
In27 O35 2.210908 1_555
In28 O36 2.047006 1_555
In28 O57 2.135881 1_555
In28 O52 2.155147 1_555
In28 O26 2.178546 1_555
In28 O17 2.311644 1_555
In29 O28 2.076964 1_555
In29 O40 2.241561 1_555
In29 O58 2.316698 1_545
In30 O13 2.121349 1_564
In30 O49 2.145138 1_554
In30 O15 2.148501 1_565
In30 O45 2.183663 1_555
In30 O42 2.337297 1_554
In31 O55 2.112885 1_555
In31 O7 2.117287 1_555
In31 O38 2.117613 1_555
In31 O28 2.123809 1_555
In31 O52 2.296724 1_555
In32 O3 2.148873 1_555
In32 O8 2.171477 1_555
In32 O37 2.229194 1_555
In32 O54 2.248692 1_555
In32 O44 2.280138 1_555
In33 O16 2.015534 1_555
In33 O20 2.080532 1_555
In33 O28 2.162194 1_555
In33 O37 2.192554 1_655
In33 O54 2.437773 1_655
In34 O48 2.136958 1_555
In34 O4 2.146842 1_555
In34 O5 2.213296 1_555
In34 O25 2.281384 1_555
In34 O58 2.289118 1_555
In34 O34 2.345773 1_555
In35 O40 2.088678 1_555
In35 O1 2.150214 1_555
In35 O51 2.170424 1_555
In35 O38 2.242210 1_555
In35 O14 2.352099 1_545
In36 O39 2.117247 1_455
In36 O57 2.136971 1_555
In36 O37 2.221015 1_555
In36 O18 2.246738 1_555
In36 O51 2.356818 1_455
In37 O12 2.068372 1_554
In37 O50 2.082975 1_555
In37 O3 2.200080 1_554
In37 O11 2.204994 1_554
In37 O26 2.425951 1_555
In38 O55 2.056071 1_565
In38 O6 2.096184 1_555
In38 O40 2.152967 1_565
In38 O58 2.156506 1_555
In38 O25 2.169866 1_555
In39 O42 2.055570 1_655
In39 O4 2.061595 1_555
In39 O0 2.159798 1_666
O18 O44 1.499144 1_555
O19 O21 1.495635 1_556
