# generated using pymatgen
data_Nd2Mn3FeSi4
_symmetry_space_group_name_H-M   'P 1'
_cell_length_a   3.95722200
_cell_length_b   3.95722200
_cell_length_c   10.44733400
_cell_angle_alpha   90.00000000
_cell_angle_beta   90.00000000
_cell_angle_gamma   90.00000000
_symmetry_Int_Tables_number   1
_chemical_formula_structural   Nd2Mn3FeSi4
_chemical_formula_sum   'Nd2 Mn3 Fe1 Si4'
_cell_volume   163.60113374
_cell_formula_units_Z   1
loop_
 _symmetry_equiv_pos_site_id
 _symmetry_equiv_pos_as_xyz
  1  'x, y, z'
loop_
 _atom_site_type_symbol
 _atom_site_label
 _atom_site_symmetry_multiplicity
 _atom_site_fract_x
 _atom_site_fract_y
 _atom_site_fract_z
 _atom_site_occupancy
  Nd  Nd0  1  0.50000000  0.00000000  0.75130300  1
  Nd  Nd1  1  0.00000000  0.50000000  0.24869700  1
  Mn  Mn0  1  0.00000000  0.00000000  0.50000000  1
  Mn  Mn1  1  0.00000000  0.00000000  0.00000000  1
  Mn  Mn2  1  0.50000000  0.50000000  0.50000000  1
  Fe  Fe0  1  0.50000000  0.50000000  0.00000000  1
  Si  Si0  1  0.00000000  0.50000000  0.87816500  1
  Si  Si1  1  0.50000000  0.00000000  0.37439300  1
  Si  Si2  1  0.50000000  0.00000000  0.12183500  1
  Si  Si3  1  0.00000000  0.50000000  0.62560700  1
loop_
_geom_bond_atom_site_label_1
_geom_bond_atom_site_label_2
_geom_bond_distance
_geom_bond_site_symmetry_2
Nd0 Si3 3.090998 1_645
Nd0 Si3 3.090998 1_545
Nd0 Si3 3.090998 1_555
Nd0 Si3 3.090998 1_655
Nd0 Si0 3.096192 1_645
Nd0 Si0 3.096192 1_655
Nd0 Si0 3.096192 1_555
Nd0 Si0 3.096192 1_545
Nd1 Si1 3.090998 1_565
Nd1 Si1 3.090998 1_555
Nd1 Si1 3.090998 1_455
Nd1 Si1 3.090998 1_465
Nd1 Si2 3.096192 1_465
Nd1 Si2 3.096192 1_565
Nd1 Si2 3.096192 1_555
Nd1 Si2 3.096192 1_455
Mn0 Si3 2.374221 1_545
Mn0 Si1 2.374221 1_455
Mn0 Si3 2.374221 1_555
Mn0 Si1 2.374221 1_555
Mn0 Nd0 3.287533 1_455
Mn0 Nd0 3.287533 1_555
Mn0 Nd1 3.287533 1_545
Mn0 Nd1 3.287533 1_555
Mn1 Si2 2.352669 1_555
Mn1 Si2 2.352669 1_455
Mn1 Si0 2.352669 1_554
Mn1 Si0 2.352669 1_544
Mn1 Nd1 3.265831 1_555
Mn1 Nd1 3.265831 1_545
Mn1 Nd0 3.265831 1_554
Mn1 Nd0 3.265831 1_454
Mn2 Si3 2.374221 1_555
Mn2 Si3 2.374221 1_655
Mn2 Si1 2.374221 1_565
Mn2 Si1 2.374221 1_555
Mn2 Nd0 3.287533 1_565
Mn2 Nd0 3.287533 1_555
Mn2 Nd1 3.287533 1_655
Mn2 Nd1 3.287533 1_555
Fe0 Si2 2.352669 1_565
Fe0 Si2 2.352669 1_555
Fe0 Si0 2.352669 1_554
Fe0 Si0 2.352669 1_654
Fe0 Mn1 2.798179 1_655
Fe0 Mn1 2.798179 1_565
Fe0 Mn1 2.798179 1_665
Fe0 Mn1 2.798179 1_555
Fe0 Nd1 3.265831 1_555
Fe0 Nd1 3.265831 1_655
Fe0 Nd0 3.265831 1_564
Fe0 Nd0 3.265831 1_554
Si0 Si3 2.638558 1_555
Si1 Si2 2.638558 1_555
