# generated using pymatgen
data_Eu2MgGa3
_symmetry_space_group_name_H-M   'P 1'
_cell_length_a   5.95717686
_cell_length_b   5.95717686
_cell_length_c   7.65333336
_cell_angle_alpha   50.70424036
_cell_angle_beta   50.70424036
_cell_angle_gamma   46.56947569
_symmetry_Int_Tables_number   1
_chemical_formula_structural   Eu2MgGa3
_chemical_formula_sum   'Eu2 Mg1 Ga3'
_cell_volume   142.86107814
_cell_formula_units_Z   1
loop_
 _symmetry_equiv_pos_site_id
 _symmetry_equiv_pos_as_xyz
  1  'x, y, z'
loop_
 _atom_site_type_symbol
 _atom_site_label
 _atom_site_symmetry_multiplicity
 _atom_site_fract_x
 _atom_site_fract_y
 _atom_site_fract_z
 _atom_site_occupancy
  Eu  Eu0  1  0.95330000  0.95330000  0.79847700  1
  Eu  Eu1  1  0.04578500  0.04578500  0.20166400  1
  Mg  Mg0  1  0.33623700  0.33623700  0.59783600  1
  Ga  Ga0  1  0.66924800  0.66924800  0.39772500  1
  Ga  Ga1  1  0.65417600  0.65417600  0.78896500  1
  Ga  Ga2  1  0.34125300  0.34125300  0.21533400  1
loop_
_geom_bond_atom_site_label_1
_geom_bond_atom_site_label_2
_geom_bond_distance
_geom_bond_site_symmetry_2
Eu0 Ga1 3.187933 1_565
Eu0 Ga1 3.187933 1_655
Eu0 Ga0 3.246898 1_565
Eu0 Ga0 3.246898 1_655
Eu0 Ga0 3.322266 1_556
Eu0 Mg0 3.323712 1_665
Eu0 Ga1 3.324209 1_555
Eu0 Ga2 3.437304 1_665
Eu0 Ga2 3.439876 1_566
Eu0 Ga2 3.439876 1_656
Eu0 Mg0 3.501074 1_565
Eu0 Mg0 3.501074 1_655
Eu1 Ga2 3.200600 1_545
Eu1 Ga2 3.200600 1_455
Eu1 Mg0 3.226373 1_545
Eu1 Mg0 3.226373 1_455
Eu1 Ga0 3.271999 1_445
Eu1 Ga2 3.306590 1_555
Eu1 Mg0 3.347233 1_554
Eu1 Ga1 3.429615 1_544
Eu1 Ga1 3.429615 1_454
Eu1 Ga1 3.465136 1_445
Eu1 Ga0 3.523984 1_455
Eu1 Ga0 3.523984 1_545
Ga0 Ga2 2.722870 1_565
Ga0 Ga2 2.722870 1_655
Ga0 Mg0 2.816180 1_555
Ga0 Ga1 2.883039 1_555
Ga1 Ga2 2.639353 1_556
Ga1 Mg0 2.763341 1_655
Ga1 Mg0 2.763341 1_565
Ga2 Mg0 2.889840 1_555
