# generated using pymatgen
data_SrCa7Mn6Al2O23
_symmetry_space_group_name_H-M   'P 1'
_cell_length_a   10.78967165
_cell_length_b   15.14131058
_cell_length_c   10.74047160
_cell_angle_alpha   89.86516750
_cell_angle_beta   90.33690688
_cell_angle_gamma   90.06051664
_symmetry_Int_Tables_number   1
_chemical_formula_structural   SrCa7Mn6Al2O23
_chemical_formula_sum   'Sr4 Ca28 Mn24 Al8 O92'
_cell_volume   1754.63222303
_cell_formula_units_Z   4
loop_
 _symmetry_equiv_pos_site_id
 _symmetry_equiv_pos_as_xyz
  1  'x, y, z'
loop_
 _atom_site_type_symbol
 _atom_site_label
 _atom_site_symmetry_multiplicity
 _atom_site_fract_x
 _atom_site_fract_y
 _atom_site_fract_z
 _atom_site_occupancy
  Sr  Sr0  1  0.01198368  0.12191150  0.49920365  1
  Sr  Sr1  1  0.49335574  0.37339424  0.99860963  1
  Sr  Sr2  1  0.24278709  0.37824539  0.25107980  1
  Sr  Sr3  1  0.24706359  0.12062940  0.26022436  1
  Ca  Ca0  1  0.01726879  0.12012546  0.99529635  1
  Ca  Ca1  1  0.02161341  0.62459277  0.49518113  1
  Ca  Ca2  1  0.02409817  0.62438917  0.99692751  1
  Ca  Ca3  1  0.51440627  0.13111922  0.50420529  1
  Ca  Ca4  1  0.52706977  0.12395841  0.97777454  1
  Ca  Ca5  1  0.52328933  0.62418540  0.49898274  1
  Ca  Ca6  1  0.51567725  0.62215550  0.99599044  1
  Ca  Ca7  1  0.47832951  0.38067658  0.51208369  1
  Ca  Ca8  1  0.48358182  0.87191083  0.99140160  1
  Ca  Ca9  1  0.48031205  0.87082669  0.51211383  1
  Ca  Ca10  1  0.97697241  0.38222181  0.00323422  1
  Ca  Ca11  1  0.98120094  0.37504616  0.50050535  1
  Ca  Ca12  1  0.97941199  0.87581387  0.00800277  1
  Ca  Ca13  1  0.97637299  0.87575947  0.50273410  1
  Ca  Ca14  1  0.22820031  0.37478455  0.73287781  1
  Ca  Ca15  1  0.22697552  0.87596372  0.24681729  1
  Ca  Ca16  1  0.23400357  0.87505604  0.75061800  1
  Ca  Ca17  1  0.74283690  0.38244999  0.24983619  1
  Ca  Ca18  1  0.72890375  0.37601266  0.74783244  1
  Ca  Ca19  1  0.74186580  0.86776227  0.24615735  1
  Ca  Ca20  1  0.72488367  0.87490742  0.74451126  1
  Ca  Ca21  1  0.27373727  0.12156178  0.73579691  1
  Ca  Ca22  1  0.27241532  0.62562517  0.25108346  1
  Ca  Ca23  1  0.26904645  0.62320242  0.75678651  1
  Ca  Ca24  1  0.76796255  0.12225803  0.25318737  1
  Ca  Ca25  1  0.76611090  0.12392712  0.75578644  1
  Ca  Ca26  1  0.77331874  0.62377801  0.25438974  1
  Ca  Ca27  1  0.77219637  0.62451121  0.75482678  1
  Mn  Mn0  1  0.99782243  0.99982806  0.24939956  1
  Mn  Mn1  1  0.99818599  0.99801277  0.75428940  1
  Mn  Mn2  1  0.00369841  0.49991927  0.24741465  1
  Mn  Mn3  1  0.00282361  0.49982036  0.75042439  1
  Mn  Mn4  1  0.50185113  0.50389729  0.25064777  1
  Mn  Mn5  1  0.49835829  0.50133683  0.75107065  1
  Mn  Mn6  1  0.25502233  0.00502910  0.00086894  1
  Mn  Mn7  1  0.25069114  0.50107037  0.50061681  1
  Mn  Mn8  1  0.75026690  0.99749800  0.99466630  1
  Mn  Mn9  1  0.74148600  0.99965976  0.50163485  1
  Mn  Mn10  1  0.75070973  0.50256921  0.00098948  1
  Mn  Mn11  1  0.75169029  0.50043917  0.50192430  1
  Mn  Mn12  1  0.25058569  0.74974747  0.00356024  1
  Mn  Mn13  1  0.25116619  0.75147727  0.49950651  1
  Mn  Mn14  1  0.75607601  0.24722889  0.00070649  1
  Mn  Mn15  1  0.75001992  0.24990737  0.50331033  1
  Mn  Mn16  1  0.74990397  0.74922426  0.99876130  1
  Mn  Mn17  1  0.75037649  0.74949706  0.50080545  1
  Mn  Mn18  1  0.99904839  0.25005839  0.74478681  1
  Mn  Mn19  1  0.00152184  0.74897612  0.24984676  1
  Mn  Mn20  1  0.00115835  0.75053607  0.75028319  1
  Mn  Mn21  1  0.50025543  0.24830294  0.74239737  1
  Mn  Mn22  1  0.50204202  0.74971422  0.25265023  1
  Mn  Mn23  1  0.49923266  0.74986670  0.75119094  1
  Al  Al0  1  0.51588696  0.97948456  0.23193201  1
  Al  Al1  1  0.49727971  0.99832531  0.74510549  1
  Al  Al2  1  0.23391752  0.99411232  0.51711665  1
  Al  Al3  1  0.25056202  0.49939818  0.00172997  1
  Al  Al4  1  0.25427384  0.24544747  0.95757150  1
  Al  Al5  1  0.24846234  0.24700627  0.49314590  1
  Al  Al6  1  0.98519139  0.25043065  0.26995917  1
  Al  Al7  1  0.52218898  0.26348695  0.27300190  1
  O  O0  1  0.10527261  0.26505085  0.60481063  1
  O  O1  1  0.10614141  0.77097151  0.10463753  1
  O  O2  1  0.10482705  0.77290235  0.60286114  1
  O  O3  1  0.57451742  0.24198048  0.11965668  1
  O  O4  1  0.60205300  0.26849093  0.59876786  1
  O  O5  1  0.60746428  0.77303562  0.10555665  1
  O  O6  1  0.60525688  0.76704846  0.60454440  1
  O  O7  1  0.39239202  0.22723010  0.35948760  1
  O  O8  1  0.39798180  0.23215285  0.88432820  1
  O  O9  1  0.39675897  0.72776796  0.39741954  1
  O  O10  1  0.39712484  0.73289837  0.89856000  1
  O  O11  1  0.88796386  0.23590028  0.40114089  1
  O  O12  1  0.89935338  0.23324720  0.90339302  1
  O  O13  1  0.89609808  0.73105760  0.39625994  1
  O  O14  1  0.89594058  0.72766145  0.89536579  1
  O  O15  1  0.13573839  0.24200646  0.35484290  1
  O  O16  1  0.14008643  0.22883313  0.84480165  1
  O  O17  1  0.14737824  0.73082453  0.35248089  1
  O  O18  1  0.14823015  0.73250518  0.85334585  1
  O  O19  1  0.65136549  0.22944616  0.35956625  1
  O  O20  1  0.64721848  0.23169383  0.85653532  1
  O  O21  1  0.64815545  0.72734818  0.35436580  1
  O  O22  1  0.64486130  0.72931083  0.85415302  1
  O  O23  1  0.35868067  0.26176821  0.63442993  1
  O  O24  1  0.35616943  0.77290673  0.14781792  1
  O  O25  1  0.35366674  0.76983019  0.64692953  1
  O  O26  1  0.86421477  0.26944896  0.14314859  1
  O  O27  1  0.85095555  0.27005961  0.64983435  1
  O  O28  1  0.85736416  0.76770584  0.14296973  1
  O  O29  1  0.85561870  0.77267491  0.64605379  1
  O  O30  1  0.36209773  0.49018383  0.13972304  1
  O  O31  1  0.35453776  0.48231624  0.64595125  1
  O  O32  1  0.36652098  0.99748637  0.16377857  1
  O  O33  1  0.35974459  0.98484874  0.63534706  1
  O  O34  1  0.85789239  0.48297714  0.14318029  1
  O  O35  1  0.85539806  0.47950263  0.64735355  1
  O  O36  1  0.85548181  0.97889866  0.14276501  1
  O  O37  1  0.85303390  0.97719398  0.64304275  1
  O  O38  1  0.13580177  0.00687226  0.36668986  1
  O  O39  1  0.14618456  0.02620367  0.85994537  1
  O  O40  1  0.14698622  0.51982922  0.35411113  1
  O  O41  1  0.14677216  0.51196174  0.85668958  1
  O  O42  1  0.60090236  0.03468924  0.35187709  1
  O  O43  1  0.64395848  0.01560278  0.85316608  1
  O  O44  1  0.64691012  0.52161271  0.35577347  1
  O  O45  1  0.64382939  0.51985250  0.85636775  1
  O  O46  1  0.39218695  0.02028121  0.89344486  1
  O  O47  1  0.39506886  0.52107857  0.39589530  1
  O  O48  1  0.39046511  0.51228989  0.89298617  1
  O  O49  1  0.87710897  0.01873329  0.38407871  1
  O  O50  1  0.89571710  0.01738428  0.89738917  1
  O  O51  1  0.89707026  0.51712050  0.39504336  1
  O  O52  1  0.89602393  0.51846695  0.89729706  1
  O  O53  1  0.10719642  0.48700913  0.10393978  1
  O  O54  1  0.10406277  0.47984497  0.60362992  1
  O  O55  1  0.10964000  0.98462534  0.10884677  1
  O  O56  1  0.10312797  0.97983116  0.61689922  1
  O  O57  1  0.61268539  0.48317057  0.11172540  1
  O  O58  1  0.60559357  0.48430474  0.60417274  1
  O  O59  1  0.60818155  0.98149642  0.09778921  1
  O  O60  1  0.60376577  0.98139655  0.60378901  1
  O  O61  1  0.00779521  0.37376209  0.27222032  1
  O  O62  1  0.01010544  0.37435710  0.78825948  1
  O  O63  1  0.00387833  0.87389708  0.28603012  1
  O  O64  1  0.01204197  0.87514281  0.79491900  1
  O  O65  1  0.50488288  0.37909650  0.28354088  1
  O  O66  1  0.50939924  0.37496153  0.77380249  1
  O  O67  1  0.51232814  0.87216816  0.29429382  1
  O  O68  1  0.50563199  0.87462588  0.77978829  1
  O  O69  1  0.49826525  0.12385943  0.71835534  1
  O  O70  1  0.49255449  0.62735284  0.21043698  1
  O  O71  1  0.48774265  0.62532336  0.71409195  1
  O  O72  1  0.99714776  0.12957745  0.21733335  1
  O  O73  1  0.98215483  0.12394621  0.72037944  1
  O  O74  1  0.99178808  0.62538119  0.21214849  1
  O  O75  1  0.99218408  0.62538624  0.71138492  1
  O  O76  1  0.23977220  0.14514533  0.04192080  1
  O  O77  1  0.25740093  0.11871199  0.51172821  1
  O  O78  1  0.24412761  0.62714964  0.03252033  1
  O  O79  1  0.23858005  0.62589425  0.54070116  1
  O  O80  1  0.74483359  0.12327426  0.03671788  1
  O  O81  1  0.73966945  0.12418626  0.54158189  1
  O  O82  1  0.73800278  0.62575978  0.03936611  1
  O  O83  1  0.74488084  0.62550717  0.54071750  1
  O  O84  1  0.26011370  0.37419579  0.47693228  1
  O  O85  1  0.24775491  0.35661045  0.00666534  1
  O  O86  1  0.26542943  0.87859461  0.46176074  1
  O  O87  1  0.26348261  0.88109056  0.96819288  1
  O  O88  1  0.75792948  0.37584008  0.46334834  1
  O  O89  1  0.74872924  0.37421814  0.96882461  1
  O  O90  1  0.75339922  0.87555381  0.45987694  1
  O  O91  1  0.76140464  0.87337705  0.95791935  1
loop_
_geom_bond_atom_site_label_1
_geom_bond_atom_site_label_2
_geom_bond_distance
_geom_bond_site_symmetry_2
Ca0 O50 2.287578 1_455
Ca0 O12 2.347042 1_455
Ca0 O72 2.400533 1_456
Ca0 O39 2.471469 1_555
Ca0 O76 2.478440 1_556
Ca0 O55 2.582290 1_546
Ca0 O16 2.661964 1_555
Ca1 O75 2.345650 1_455
Ca1 O13 2.353953 1_455
Ca1 O51 2.365826 1_455
Ca1 O79 2.388761 1_555
Ca1 O40 2.584908 1_555
Ca1 O17 2.604975 1_555
Ca1 O54 2.632769 1_555
Ca1 O2 2.679959 1_555
Ca2 O74 2.339826 1_456
Ca2 O14 2.350714 1_455
Ca2 O52 2.369143 1_455
Ca2 O78 2.402743 1_556
Ca2 O53 2.536212 1_556
Ca2 O18 2.619089 1_555
Ca2 O41 2.637944 1_555
Ca2 O1 2.654011 1_556
Ca3 O69 2.310028 1_555
Ca3 O42 2.389902 1_555
Ca3 O81 2.463422 1_555
Ca3 O7 2.497237 1_555
Ca3 O4 2.499338 1_555
Ca3 O19 2.612480 1_555
Ca3 O60 2.682154 1_545
Ca3 O77 2.780797 1_555
Ca4 O46 2.321432 1_555
Ca4 O8 2.368887 1_555
Ca4 O3 2.404041 1_556
Ca4 O80 2.429824 1_556
Ca4 O20 2.458166 1_555
Ca4 O43 2.471451 1_555
Ca4 O59 2.656695 1_546
Ca4 O69 2.801751 1_555
Ca5 O9 2.343611 1_555
Ca5 O71 2.344323 1_555
Ca5 O47 2.358534 1_555
Ca5 O83 2.430035 1_555
Ca5 O58 2.555733 1_555
Ca5 O44 2.568419 1_555
Ca5 O21 2.583867 1_555
Ca5 O6 2.596630 1_555
Ca6 O70 2.319716 1_556
Ca6 O10 2.350196 1_555
Ca6 O48 2.408885 1_555
Ca6 O82 2.441527 1_556
Ca6 O45 2.569047 1_555
Ca6 O22 2.627652 1_555
Ca6 O57 2.654490 1_556
Ca6 O5 2.752971 1_556
Ca6 O78 2.959439 1_556
Ca6 O30 3.021679 1_556
Ca6 O71 3.041195 1_555
Ca7 O58 2.304894 1_555
Ca7 O4 2.348823 1_555
Ca7 O84 2.384316 1_555
Ca7 O65 2.473168 1_555
Ca7 O31 2.501404 1_555
Ca7 O23 2.576587 1_555
Ca7 O47 2.619548 1_555
Ca8 O68 2.286905 1_555
Ca8 O5 2.346813 1_556
Ca8 O87 2.390543 1_555
Ca8 O59 2.419166 1_556
Ca8 O10 2.507914 1_555
Ca8 O24 2.640145 1_556
Ca8 O46 2.666002 1_565
Ca9 O6 2.292042 1_555
Ca9 O60 2.352504 1_555
Ca9 O67 2.366901 1_555
Ca9 O86 2.380619 1_555
Ca9 O25 2.512135 1_555
Ca9 O33 2.541756 1_555
Ca9 O9 2.649071 1_555
Ca10 O62 2.341844 1_654
Ca10 O53 2.376341 1_655
Ca10 O89 2.490961 1_554
Ca10 O34 2.505009 1_555
Ca10 O52 2.508828 1_554
Ca10 O26 2.580522 1_555
Ca10 O12 2.633663 1_554
Ca10 O61 2.908710 1_655
Ca10 O85 2.947688 1_655
Ca11 O54 2.342771 1_655
Ca11 O0 2.408160 1_655
Ca11 O88 2.439580 1_555
Ca11 O61 2.470422 1_655
Ca11 O11 2.565793 1_555
Ca11 O51 2.591375 1_555
Ca11 O35 2.621643 1_555
Ca11 O27 2.661576 1_555
Ca12 O64 2.317634 1_654
Ca12 O1 2.333898 1_655
Ca12 O91 2.410129 1_554
Ca12 O55 2.418163 1_655
Ca12 O36 2.521315 1_555
Ca12 O28 2.553749 1_555
Ca12 O50 2.607924 1_564
Ca12 O14 2.702299 1_554
Ca13 O2 2.341380 1_655
Ca13 O63 2.348316 1_655
Ca13 O56 2.417001 1_655
Ca13 O90 2.446794 1_555
Ca13 O37 2.537642 1_555
Ca13 O29 2.551714 1_555
Ca13 O13 2.618108 1_555
Ca13 O49 2.726444 1_565
Ca14 O31 2.320320 1_555
Ca14 O62 2.430574 1_555
Ca14 O23 2.461591 1_555
Ca14 O54 2.494752 1_555
Ca14 O0 2.529126 1_555
Ca14 O41 2.623922 1_555
Ca14 O16 2.688696 1_555
Ca14 O84 2.772502 1_555
Ca14 O85 2.959126 1_556
Ca14 O66 3.063159 1_555
Ca15 O86 2.343603 1_555
Ca15 O24 2.353395 1_555
Ca15 O63 2.446305 1_555
Ca15 O32 2.539741 1_555
Ca15 O55 2.544902 1_555
Ca15 O1 2.557851 1_555
Ca15 O38 2.566167 1_565
Ca15 O17 2.617385 1_555
Ca16 O25 2.339942 1_555
Ca16 O87 2.358520 1_555
Ca16 O64 2.444447 1_555
Ca16 O33 2.478375 1_555
Ca16 O56 2.558055 1_555
Ca16 O18 2.594063 1_555
Ca16 O2 2.614287 1_555
Ca16 O39 2.746729 1_565
Ca16 O68 2.945660 1_555
Ca17 O34 2.274798 1_555
Ca17 O88 2.299991 1_555
Ca17 O26 2.446881 1_555
Ca17 O57 2.543142 1_555
Ca17 O44 2.614484 1_555
Ca17 O19 2.779577 1_555
Ca17 O61 2.870624 1_655
Ca18 O27 2.333337 1_555
Ca18 O35 2.342578 1_555
Ca18 O89 2.382020 1_555
Ca18 O66 2.386411 1_555
Ca18 O58 2.609225 1_555
Ca18 O20 2.628862 1_555
Ca18 O45 2.640757 1_555
Ca18 O4 2.658721 1_555
Ca19 O28 2.259335 1_555
Ca19 O90 2.301385 1_555
Ca19 O36 2.360182 1_555
Ca19 O5 2.533892 1_555
Ca19 O67 2.533978 1_555
Ca19 O21 2.625036 1_555
Ca19 O59 2.747872 1_555
Ca19 O63 2.858237 1_655
Ca20 O91 2.323510 1_555
Ca20 O37 2.345944 1_555
Ca20 O29 2.352442 1_555
Ca20 O68 2.398001 1_555
Ca20 O60 2.561586 1_555
Ca20 O6 2.564628 1_555
Ca20 O43 2.586531 1_565
Ca20 O22 2.643459 1_555
Ca21 O39 2.401057 1_555
Ca21 O77 2.412500 1_555
Ca21 O69 2.431119 1_555
Ca21 O16 2.474280 1_555
Ca21 O33 2.517231 1_545
Ca21 O23 2.555154 1_555
Ca21 O46 2.611225 1_555
Ca21 O8 2.669958 1_555
Ca22 O17 2.360786 1_555
Ca22 O78 2.365511 1_555
Ca22 O40 2.372078 1_555
Ca22 O70 2.417642 1_555
Ca22 O30 2.569409 1_555
Ca22 O9 2.577677 1_555
Ca22 O47 2.577771 1_555
Ca22 O24 2.648723 1_555
Ca23 O79 2.342374 1_555
Ca23 O18 2.354223 1_555
Ca23 O41 2.394224 1_555
Ca23 O71 2.406616 1_555
Ca23 O48 2.578178 1_555
Ca23 O31 2.616781 1_555
Ca23 O10 2.639963 1_555
Ca23 O25 2.674113 1_555
Ca24 O80 2.336896 1_555
Ca24 O19 2.356287 1_555
Ca24 O49 2.407147 1_555
Ca24 O42 2.478200 1_555
Ca24 O72 2.507169 1_555
Ca24 O36 2.653227 1_545
Ca24 O11 2.673275 1_555
Ca24 O26 2.727535 1_555
Ca25 O81 2.316609 1_555
Ca25 O20 2.346938 1_555
Ca25 O43 2.350475 1_555
Ca25 O73 2.364065 1_555
Ca25 O50 2.615193 1_555
Ca25 O27 2.650456 1_555
Ca25 O12 2.701956 1_555
Ca25 O37 2.704153 1_545
Ca26 O44 2.333238 1_555
Ca26 O21 2.337833 1_555
Ca26 O82 2.338596 1_555
Ca26 O74 2.403181 1_555
Ca26 O51 2.577285 1_555
Ca26 O13 2.588179 1_555
Ca26 O34 2.614066 1_555
Ca26 O28 2.645732 1_555
Ca27 O83 2.316740 1_555
Ca27 O22 2.360816 1_555
Ca27 O45 2.371477 1_555
Ca27 O75 2.421727 1_555
Ca27 O14 2.546254 1_555
Ca27 O52 2.583330 1_555
Ca27 O35 2.643362 1_555
Ca27 O29 2.683956 1_555
Mn0 O36 1.936711 1_555
Mn0 O63 1.947106 1_655
Mn0 O38 1.947557 1_665
Mn0 O55 1.952207 1_655
Mn0 O49 1.973738 1_565
Mn0 O72 1.993751 1_565
Mn1 O56 1.886156 1_655
Mn1 O64 1.915701 1_655
Mn1 O50 1.921829 1_565
Mn1 O73 1.948109 1_565
Mn1 O37 1.989608 1_555
Mn1 O39 1.999859 1_665
Mn2 O53 1.918857 1_555
Mn2 O61 1.928571 1_555
Mn2 O74 1.940423 1_455
Mn2 O34 1.942649 1_455
Mn2 O40 1.942714 1_555
Mn2 O51 1.982324 1_455
Mn3 O41 1.930877 1_555
Mn3 O62 1.943294 1_555
Mn3 O54 1.947736 1_555
Mn3 O75 1.949312 1_455
Mn3 O35 1.957104 1_455
Mn3 O52 1.979948 1_455
Mn4 O70 1.920124 1_555
Mn4 O65 1.921849 1_555
Mn4 O30 1.927596 1_555
Mn4 O44 1.943253 1_555
Mn4 O57 1.943940 1_555
Mn4 O47 1.962774 1_555
Mn5 O71 1.921353 1_555
Mn5 O48 1.930927 1_555
Mn5 O66 1.932143 1_555
Mn5 O31 1.935367 1_555
Mn5 O45 1.949592 1_555
Mn5 O58 1.979533 1_555
Mn6 O46 1.895506 1_554
Mn6 O87 1.912312 1_544
Mn6 O39 1.936589 1_554
Mn6 O55 1.979823 1_545
Mn6 O32 2.120488 1_545
Mn6 O76 2.174493 1_555
Mn7 O31 1.936673 1_555
Mn7 O84 1.941259 1_555
Mn7 O79 1.944101 1_555
Mn7 O40 1.945918 1_555
Mn7 O47 1.949761 1_555
Mn7 O54 1.961687 1_555
Mn8 O59 1.911447 1_556
Mn8 O50 1.913627 1_565
Mn8 O43 1.918010 1_565
Mn8 O91 1.925282 1_555
Mn8 O80 1.959293 1_566
Mn8 O36 1.968645 1_556
Mn9 O60 1.872224 1_555
Mn9 O81 1.934823 1_565
Mn9 O90 1.937510 1_555
Mn9 O49 1.959089 1_565
Mn9 O37 1.961614 1_555
Mn9 O42 2.266786 1_565
Mn10 O82 1.916438 1_555
Mn10 O34 1.932761 1_555
Mn10 O57 1.933114 1_555
Mn10 O52 1.942948 1_554
Mn10 O45 1.946478 1_554
Mn10 O89 1.974742 1_554
Mn11 O88 1.933832 1_555
Mn11 O58 1.941348 1_555
Mn11 O83 1.941506 1_555
Mn11 O35 1.941709 1_555
Mn11 O44 1.955118 1_555
Mn11 O51 1.964962 1_555
Mn12 O78 1.882734 1_555
Mn12 O1 1.932195 1_555
Mn12 O24 1.949962 1_555
Mn12 O10 1.964686 1_554
Mn12 O18 1.967540 1_554
Mn12 O87 2.028569 1_554
Mn13 O25 1.946356 1_555
Mn13 O9 1.955025 1_555
Mn13 O79 1.956036 1_555
Mn13 O17 1.956079 1_555
Mn13 O2 1.963157 1_555
Mn13 O86 1.972063 1_555
Mn14 O12 1.883570 1_554
Mn14 O80 1.919239 1_555
Mn14 O26 1.948269 1_555
Mn14 O20 1.952526 1_554
Mn14 O89 1.953853 1_554
Mn14 O3 2.346203 1_555
Mn15 O11 1.866914 1_555
Mn15 O19 1.896002 1_555
Mn15 O4 1.923732 1_555
Mn15 O27 1.933187 1_555
Mn15 O81 1.949736 1_555
Mn15 O88 1.955396 1_555
Mn16 O82 1.922943 1_556
Mn16 O91 1.933358 1_555
Mn16 O22 1.941273 1_555
Mn16 O28 1.949841 1_556
Mn16 O5 1.957424 1_556
Mn16 O14 1.961123 1_555
Mn17 O83 1.925635 1_555
Mn17 O21 1.945257 1_555
Mn17 O6 1.945912 1_555
Mn17 O29 1.956323 1_555
Mn17 O90 1.957905 1_555
Mn17 O13 1.958070 1_555
Mn18 O16 1.884973 1_655
Mn18 O0 1.908791 1_655
Mn18 O27 1.914518 1_555
Mn18 O73 1.936287 1_555
Mn18 O62 1.943539 1_655
Mn18 O12 2.035371 1_555
Mn19 O74 1.918260 1_455
Mn19 O63 1.931985 1_555
Mn19 O17 1.935572 1_555
Mn19 O28 1.948291 1_455
Mn19 O1 1.958314 1_555
Mn19 O13 1.964374 1_455
Mn20 O75 1.943593 1_455
Mn20 O18 1.948539 1_555
Mn20 O64 1.951006 1_555
Mn20 O29 1.951968 1_455
Mn20 O14 1.963258 1_455
Mn20 O2 1.972422 1_555
Mn21 O8 1.902307 1_555
Mn21 O69 1.902533 1_555
Mn21 O4 1.922654 1_555
Mn21 O23 1.923122 1_555
Mn21 O66 1.950290 1_555
Mn21 O20 2.014196 1_555
Mn22 O70 1.910913 1_555
Mn22 O67 1.911280 1_555
Mn22 O21 1.942348 1_555
Mn22 O9 1.958590 1_555
Mn22 O24 1.961315 1_555
Mn22 O5 1.982960 1_555
Mn23 O68 1.915646 1_555
Mn23 O71 1.932007 1_555
Mn23 O22 1.941061 1_555
Mn23 O25 1.947022 1_555
Mn23 O10 1.950145 1_555
Mn23 O6 1.968696 1_555
Al0 O59 1.756412 1_555
Al0 O67 1.756555 1_555
Al0 O42 1.785856 1_565
Al0 O32 1.787042 1_555
Al1 O33 1.900893 1_555
Al1 O68 1.910912 1_555
Al1 O69 1.921702 1_565
Al1 O60 1.926780 1_555
Al1 O43 1.974615 1_565
Al1 O46 1.989778 1_565
Al2 O56 1.789635 1_555
Al2 O33 1.858669 1_555
Al2 O86 1.880673 1_555
Al2 O77 1.904066 1_565
Al2 O38 1.935776 1_565
Al3 O30 1.908606 1_555
Al3 O53 1.910890 1_555
Al3 O41 1.922383 1_554
Al3 O48 1.923509 1_554
Al3 O78 1.964525 1_555
Al3 O85 2.162703 1_555
Al4 O16 1.741108 1_555
Al4 O8 1.754810 1_555
Al4 O85 1.766593 1_556
Al4 O76 1.773806 1_556
Al5 O15 1.915887 1_555
Al5 O23 1.935637 1_555
Al5 O84 1.937283 1_555
Al5 O77 1.954726 1_555
Al5 O0 1.980960 1_555
Al5 O7 2.142747 1_555
Al6 O11 1.774684 1_555
Al6 O15 1.862377 1_655
Al6 O61 1.883198 1_655
Al6 O26 1.902584 1_555
Al6 O72 1.921144 1_555
Al7 O19 1.748343 1_555
Al7 O65 1.764577 1_555
Al7 O7 1.771103 1_555
Al7 O3 1.775184 1_555
O0 Sr0 2.643960 1_555
O3 Sr1 2.528726 1_554
O7 Sr3 2.486712 1_555
O7 Sr2 3.027025 1_555
O8 Sr1 2.670567 1_555
O11 Sr0 2.420440 1_655
O15 Sr3 2.425056 1_555
O15 Sr2 2.613557 1_555
O15 Sr0 2.738525 1_555
O30 Sr2 2.442191 1_555
O30 Sr1 2.733684 1_554
O32 Sr3 2.498142 1_565
O38 Sr3 2.391233 1_555
O38 Sr0 2.623627 1_555
O40 Sr2 2.630219 1_555
O47 Sr2 3.126399 1_555
O48 Sr1 2.630813 1_555
O49 Sr0 2.463828 1_655
O53 Sr2 2.704720 1_555
O55 Sr3 3.010581 1_565
O56 Sr0 2.677712 1_565
O57 Sr1 2.425511 1_554
O61 Sr2 2.547780 1_555
O65 Sr2 2.847322 1_555
O66 Sr1 2.421806 1_555
O72 Sr3 2.736349 1_655
O73 Sr0 2.399384 1_655
O76 Sr3 2.373882 1_555
O77 Sr0 2.651084 1_555
O77 Sr3 2.703005 1_555
O84 Sr2 2.432493 1_555
O85 Sr2 2.647114 1_555
O85 Sr1 2.663735 1_554
O89 Sr1 2.775784 1_555
