# generated using pymatgen
data_SrLiNb2O6F
_symmetry_space_group_name_H-M   'P 1'
_cell_length_a   8.56648148
_cell_length_b   6.12502544
_cell_length_c   9.21663606
_cell_angle_alpha   107.91136903
_cell_angle_beta   102.70284871
_cell_angle_gamma   44.35689156
_symmetry_Int_Tables_number   1
_chemical_formula_structural   SrLiNb2O6F
_chemical_formula_sum   'Sr2 Li2 Nb4 O12 F2'
_cell_volume   321.70813827
_cell_formula_units_Z   2
loop_
 _symmetry_equiv_pos_site_id
 _symmetry_equiv_pos_as_xyz
  1  'x, y, z'
loop_
 _atom_site_type_symbol
 _atom_site_label
 _atom_site_symmetry_multiplicity
 _atom_site_fract_x
 _atom_site_fract_y
 _atom_site_fract_z
 _atom_site_occupancy
  Sr  Sr0  1  0.98290500  0.09019100  0.03462100  1
  Sr  Sr1  1  0.51709500  0.05600100  0.03462100  1
  Li  Li0  1  0.75937200  0.23364700  0.48725000  1
  Li  Li1  1  0.74062800  0.75239100  0.48725000  1
  Nb  Nb0  1  0.01277400  0.65134500  0.23483300  1
  Nb  Nb1  1  0.53975100  0.38257000  0.76630300  1
  Nb  Nb2  1  0.48722600  0.67689400  0.23483300  1
  Nb  Nb3  1  0.96024900  0.46207100  0.76630300  1
  O  O0  1  0.97205300  0.49308800  0.99323800  1
  O  O1  1  0.24508200  0.09593900  0.19785800  1
  O  O2  1  0.96992100  0.73609000  0.43636300  1
  O  O3  1  0.25491800  0.58610300  0.19785800  1
  O  O4  1  0.52230000  0.25163800  0.56373500  1
  O  O5  1  0.52794700  0.43719400  0.99323800  1
  O  O6  1  0.76501100  0.07264200  0.20736300  1
  O  O7  1  0.53007900  0.67593200  0.43636300  1
  O  O8  1  0.77266100  0.35449100  0.77802500  1
  O  O9  1  0.73498900  0.60266300  0.20736300  1
  O  O10  1  0.97770000  0.29623900  0.56373500  1
  O  O11  1  0.72733900  0.89981300  0.77802500  1
  F  F0  1  0.25057400  0.34595500  0.80041000  1
  F  F1  1  0.24942600  0.84710300  0.80041000  1
loop_
_geom_bond_atom_site_label_1
_geom_bond_atom_site_label_2
_geom_bond_distance
_geom_bond_site_symmetry_2
Li0 O7 2.045496 1_555
Li0 O2 2.096008 1_545
Li0 O10 2.102672 1_555
Li0 O4 2.212540 1_555
Li0 O6 2.459921 1_555
Li0 O8 2.551321 1_555
Li1 O2 2.045496 1_555
Li1 O7 2.096008 1_555
Li1 O4 2.102668 1_565
Li1 O10 2.212536 1_555
Li1 O9 2.459921 1_555
Li1 O11 2.551321 1_555
Nb0 O2 1.813449 1_455
Nb0 O6 1.887123 1_465
Nb0 O3 1.902737 1_555
Nb0 O0 2.198582 1_454
Nb0 O1 2.356568 1_555
Nb0 O9 2.553226 1_455
Nb1 O4 1.810775 1_555
Nb1 O8 1.856901 1_555
Nb1 O5 2.027576 1_555
Nb1 O11 2.159299 1_545
Nb2 O7 1.813450 1_555
Nb2 O9 1.887116 1_555
Nb2 O1 1.902733 1_565
Nb2 O5 2.198584 1_554
Nb2 O3 2.356573 1_555
Nb2 O6 2.553227 1_555
Nb3 O10 1.810773 1_555
Nb3 O11 1.856905 1_555
Nb3 O0 2.027575 1_555
Nb3 O8 2.159294 1_555
O0 Sr0 2.545431 1_556
O0 Sr1 2.802127 1_566
O1 Sr0 2.429694 1_455
O1 Sr1 2.872884 1_555
O3 Sr1 2.429694 1_555
O3 Sr0 2.872884 1_465
O5 Sr1 2.545431 1_556
O5 Sr0 2.802126 1_556
O6 Sr1 2.403801 1_555
O6 Sr0 2.780217 1_555
O8 Sr0 2.787425 1_556
O9 Sr0 2.403798 1_555
O9 Sr1 2.780222 1_565
O11 Sr1 2.787425 1_566
F0 Nb3 2.013550 1_455
F0 Sr1 2.723740 1_556
F0 Nb1 2.732411 1_555
F1 Nb1 2.013547 1_555
F1 Sr0 2.723740 1_466
F1 Nb3 2.732406 1_465
