# generated using pymatgen
data_Ce18C18Cl11
_symmetry_space_group_name_H-M   'P 1'
_cell_length_a   6.65326200
_cell_length_b   7.61458673
_cell_length_c   18.74649013
_cell_angle_alpha   89.15033534
_cell_angle_beta   99.34004587
_cell_angle_gamma   104.24247280
_symmetry_Int_Tables_number   1
_chemical_formula_structural   Ce18C18Cl11
_chemical_formula_sum   'Ce18 C18 Cl11'
_cell_volume   908.02313546
_cell_formula_units_Z   1
loop_
 _symmetry_equiv_pos_site_id
 _symmetry_equiv_pos_as_xyz
  1  'x, y, z'
loop_
 _atom_site_type_symbol
 _atom_site_label
 _atom_site_symmetry_multiplicity
 _atom_site_fract_x
 _atom_site_fract_y
 _atom_site_fract_z
 _atom_site_occupancy
  Ce  Ce0  1  0.90876800  0.85316500  0.06046100  1
  Ce  Ce1  1  0.09123200  0.14683500  0.93953900  1
  Ce  Ce2  1  0.12909600  0.81388000  0.49036800  1
  Ce  Ce3  1  0.87090400  0.18612000  0.50963200  1
  Ce  Ce4  1  0.56997800  0.87906300  0.38613100  1
  Ce  Ce5  1  0.43002200  0.12093700  0.61386900  1
  Ce  Ce6  1  0.30854600  0.24818200  0.40039200  1
  Ce  Ce7  1  0.69145400  0.75181800  0.59960800  1
  Ce  Ce8  1  0.00175300  0.94292800  0.27334500  1
  Ce  Ce9  1  0.99824700  0.05707200  0.72665500  1
  Ce  Ce10  1  0.63275200  0.22103800  0.04549300  1
  Ce  Ce11  1  0.36724800  0.77896200  0.95450700  1
  Ce  Ce12  1  0.45138000  0.93303400  0.17322200  1
  Ce  Ce13  1  0.54862000  0.06696600  0.82677800  1
  Ce  Ce14  1  0.17408600  0.30145900  0.15394900  1
  Ce  Ce15  1  0.82591400  0.69854100  0.84605100  1
  Ce  Ce16  1  0.74086100  0.31185500  0.29088400  1
  Ce  Ce17  1  0.25913900  0.68814500  0.70911600  1
  C  C0  1  0.46171900  0.06572400  0.47928500  1
  C  C1  1  0.53828100  0.93427600  0.52071500  1
  C  C2  1  0.25686200  0.10726000  0.07637900  1
  C  C3  1  0.74313800  0.89274000  0.92362100  1
  C  C4  1  0.41239100  0.05790400  0.30325300  1
  C  C5  1  0.58760900  0.94209600  0.69674700  1
  C  C6  1  0.70754600  0.02875700  0.96519200  1
  C  C7  1  0.29245400  0.97124300  0.03480800  1
  C  C8  1  0.90083200  0.13173000  0.37029300  1
  C  C9  1  0.09916800  0.86827000  0.62970700  1
  C  C10  1  0.80644000  0.16556000  0.19318600  1
  C  C11  1  0.19356000  0.83444000  0.80681400  1
  C  C12  1  0.97822300  0.00169500  0.41179300  1
  C  C13  1  0.02177700  0.99830500  0.58820700  1
  C  C14  1  0.83370800  0.04444200  0.14311800  1
  C  C15  1  0.16629200  0.95555800  0.85688200  1
  C  C16  1  0.33557800  0.17103200  0.25259600  1
  C  C17  1  0.66442200  0.82896800  0.74740400  1
  Cl  Cl0  1  0.06119800  0.65456300  0.18174400  1
  Cl  Cl1  1  0.93880200  0.34543700  0.81825600  1
  Cl  Cl2  1  0.52142300  0.59155100  0.08719400  1
  Cl  Cl3  1  0.47857700  0.40844900  0.91280600  1
  Cl  Cl4  1  0.15628800  0.60846400  0.36157300  1
  Cl  Cl5  1  0.84371200  0.39153600  0.63842700  1
  Cl  Cl6  1  0.00000000  0.50000000  0.00000000  1
  Cl  Cl7  1  0.60347200  0.66034600  0.26710000  1
  Cl  Cl8  1  0.39652800  0.33965400  0.73290000  1
  Cl  Cl9  1  0.71746800  0.53907900  0.45449000  1
  Cl  Cl10  1  0.28253200  0.46092100  0.54551000  1
loop_
_geom_bond_atom_site_label_1
_geom_bond_atom_site_label_2
_geom_bond_distance
_geom_bond_site_symmetry_2
Ce0 Cl0 2.896397 1_655
Ce0 Cl2 2.953731 1_555
Ce0 Cl6 3.162566 1_655
Ce1 Cl1 2.896397 1_455
Ce1 Cl3 2.953731 1_555
Ce1 Cl6 3.162566 1_556
Ce2 Cl4 2.949905 1_555
Ce2 Cl9 2.992540 1_455
Ce2 Cl10 3.203000 1_555
Ce3 Cl5 2.949905 1_555
Ce3 Cl10 2.992540 1_655
Ce3 Cl9 3.203000 1_555
Ce4 Cl7 2.873463 1_555
Ce4 Cl4 2.976493 1_555
Ce4 Cl9 3.170280 1_555
Ce5 Cl8 2.873463 1_555
Ce5 Cl5 2.976493 1_555
Ce5 Cl10 3.170280 1_555
Ce6 Cl9 3.089130 1_555
Ce6 Cl4 3.186059 1_555
Ce6 Cl10 3.236734 1_555
Ce7 Cl10 3.089130 1_555
Ce7 Cl5 3.186059 1_555
Ce7 Cl9 3.236734 1_555
Ce8 Cl0 2.947241 1_555
Ce8 Cl7 2.960859 1_455
Ce8 Cl4 3.300073 1_555
Ce9 Cl1 2.947241 1_555
Ce9 Cl8 2.960859 1_655
Ce9 Cl5 3.300073 1_555
Ce10 Cl3 3.010439 1_554
Ce10 Cl6 3.046055 1_655
Ce10 Cl2 3.225080 1_555
Ce11 Cl2 3.010439 1_556
Ce11 Cl6 3.046055 1_556
Ce11 Cl3 3.225080 1_555
Ce12 Cl0 2.945663 1_555
Ce12 Cl7 2.963117 1_555
Ce12 Cl2 3.247140 1_555
Ce13 Cl1 2.945663 1_555
Ce13 Cl8 2.963117 1_555
Ce13 Cl3 3.247140 1_555
Ce14 Cl0 3.037629 1_555
Ce14 Cl2 3.182883 1_555
Ce14 Cl6 3.406363 1_555
Ce15 Cl1 3.037629 1_555
Ce15 Cl3 3.182883 1_555
Ce15 Cl6 3.406363 1_656
Ce16 Cl7 3.016982 1_555
Ce16 Cl4 3.213222 1_655
Ce16 Cl9 3.587399 1_555
Ce17 Cl8 3.016982 1_555
Ce17 Cl5 3.213222 1_455
Ce17 Cl10 3.587399 1_555
C0 C1 1.401406 1_545
C0 Ce6 2.302760 1_555
C0 Ce4 2.564031 1_545
C0 Ce2 2.582130 1_545
C0 Ce5 2.614275 1_555
C0 Ce3 2.619224 1_555
C1 Ce7 2.302760 1_555
C1 Ce5 2.564031 1_565
C1 Ce3 2.582130 1_565
C1 Ce4 2.614275 1_555
C1 Ce2 2.619224 1_555
C2 C7 1.393062 1_545
C2 Ce14 2.308469 1_555
C2 Ce10 2.594094 1_555
C2 Ce12 2.596460 1_545
C2 Ce0 2.604651 1_445
C2 Ce1 2.666212 1_554
C3 C6 1.393062 1_565
C3 Ce15 2.308469 1_555
C3 Ce11 2.594094 1_555
C3 Ce13 2.596460 1_565
C3 Ce1 2.604651 1_665
C3 Ce0 2.666212 1_556
C4 Ce4 2.340671 1_545
C4 Ce16 2.576981 1_555
C4 Ce6 2.621436 1_555
C4 Ce8 2.624028 1_545
C4 Ce12 2.703468 1_545
C5 Ce5 2.340671 1_565
C5 Ce17 2.576981 1_555
C5 Ce7 2.621436 1_555
C5 Ce9 2.624028 1_565
C5 Ce13 2.703468 1_565
C6 Ce10 2.307482 1_556
C6 Ce11 2.555238 1_545
C6 Ce0 2.608371 1_546
C6 Ce1 2.610087 1_655
C6 Ce13 2.678430 1_555
C7 Ce11 2.307482 1_554
C7 Ce10 2.555238 1_565
C7 Ce1 2.608371 1_564
C7 Ce0 2.610087 1_455
C7 Ce12 2.678430 1_555
C8 Ce16 2.318090 1_555
C8 Ce4 2.597420 1_545
C8 Ce8 2.601794 1_645
C8 Ce6 2.607198 1_655
C8 Ce3 2.697372 1_555
C9 Ce17 2.318090 1_555
C9 Ce5 2.597420 1_565
C9 Ce9 2.601794 1_465
C9 Ce7 2.607198 1_455
C9 Ce2 2.697372 1_555
C10 C14 1.388426 1_555
C10 Ce16 2.311868 1_555
C10 Ce12 2.555414 1_545
C10 Ce14 2.628871 1_655
C10 Ce8 2.682383 1_645
C10 Ce10 2.889063 1_555
C11 C15 1.388426 1_555
C11 Ce17 2.311868 1_555
C11 Ce13 2.555414 1_565
C11 Ce15 2.628871 1_455
C11 Ce9 2.682383 1_465
C11 Ce11 2.889063 1_555
C12 C8 1.395992 1_555
C12 Ce2 2.320905 1_645
C12 Ce6 2.551337 1_655
C12 Ce4 2.611918 1_545
C12 Ce3 2.615505 1_555
C12 Ce8 2.676140 1_645
C13 C9 1.395992 1_555
C13 Ce3 2.320905 1_465
C13 Ce7 2.551337 1_455
C13 Ce5 2.611918 1_565
C13 Ce2 2.615505 1_555
C13 Ce9 2.676140 1_465
C14 Ce0 2.334057 1_545
C14 Ce14 2.584887 1_655
C14 Ce12 2.626528 1_545
C14 Ce10 2.638680 1_555
C14 Ce8 2.700149 1_645
C15 Ce1 2.334057 1_565
C15 Ce15 2.584887 1_455
C15 Ce13 2.626528 1_565
C15 Ce11 2.638680 1_555
C15 Ce9 2.700149 1_465
C16 C4 1.392794 1_555
C16 Ce14 2.320838 1_555
C16 Ce8 2.542303 1_545
C16 Ce16 2.628265 1_555
C16 Ce12 2.689073 1_545
C16 Ce6 2.883748 1_555
C17 C5 1.392794 1_555
C17 Ce15 2.320838 1_555
C17 Ce9 2.542303 1_565
C17 Ce17 2.628265 1_555
C17 Ce13 2.689073 1_565
C17 Ce7 2.883748 1_555
