# generated using pymatgen
data_ZrCrCuS4
_symmetry_space_group_name_H-M   'P 1'
_cell_length_a   7.15543779
_cell_length_b   6.08156160
_cell_length_c   5.95362075
_cell_angle_alpha   92.72278084
_cell_angle_beta   89.99806957
_cell_angle_gamma   90.00046963
_symmetry_Int_Tables_number   1
_chemical_formula_structural   ZrCrCuS4
_chemical_formula_sum   'Zr2 Cr2 Cu2 S8'
_cell_volume   258.78668009
_cell_formula_units_Z   2
loop_
 _symmetry_equiv_pos_site_id
 _symmetry_equiv_pos_as_xyz
  1  'x, y, z'
loop_
 _atom_site_type_symbol
 _atom_site_label
 _atom_site_symmetry_multiplicity
 _atom_site_fract_x
 _atom_site_fract_y
 _atom_site_fract_z
 _atom_site_occupancy
  Zr  Zr0  1  0.24999900  0.49999400  0.49999700  1
  Zr  Zr1  1  0.75000200  0.49999300  0.49999800  1
  Cr  Cr0  1  0.99997600  0.00004600  0.49995400  1
  Cr  Cr1  1  0.49999600  0.99995700  0.50007300  1
  Cu  Cu0  1  0.99999800  0.99998300  0.99999700  1
  Cu  Cu1  1  0.50000200  0.99998500  0.00002200  1
  S  S0  1  0.00000500  0.30899500  0.25321900  1
  S  S1  1  0.50000800  0.30889400  0.25326500  1
  S  S2  1  0.25004600  0.84084000  0.26174000  1
  S  S3  1  0.74997200  0.84083600  0.26174600  1
  S  S4  1  0.25003700  0.15918000  0.73827300  1
  S  S5  1  0.74996500  0.15918200  0.73827300  1
  S  S6  1  0.50000000  0.69106900  0.74674200  1
  S  S7  1  0.99999500  0.69104700  0.74670200  1
loop_
_geom_bond_atom_site_label_1
_geom_bond_atom_site_label_2
_geom_bond_distance
_geom_bond_site_symmetry_2
Cr0 S0 2.439328 1_655
Cr0 S7 2.439621 1_545
Cr0 S3 2.453282 1_545
Cr0 S5 2.453465 1_555
Cr0 S2 2.453579 1_645
Cr0 S4 2.453780 1_655
Cr1 S6 2.438781 1_555
Cr1 S1 2.439548 1_565
Cr1 S4 2.452992 1_565
Cr1 S5 2.453106 1_565
Cr1 S2 2.453209 1_555
Cr1 S3 2.453276 1_555
Cu0 S7 2.352634 1_555
Cu0 S0 2.352727 1_666
Cu0 S3 2.590172 1_556
Cu0 S4 2.590266 1_665
Cu0 S5 2.590325 1_565
Cu0 S2 2.590332 1_656
Cu1 S1 2.352321 1_565
Cu1 S6 2.352487 1_554
Cu1 S2 2.589707 1_555
Cu1 S3 2.589891 1_555
Cu1 S5 2.589983 1_564
Cu1 S4 2.590071 1_564
S0 Zr1 2.558453 1_455
S0 Zr0 2.558463 1_555
S1 Zr1 2.558574 1_555
S1 Zr0 2.558593 1_555
S2 Zr0 2.566766 1_555
S3 Zr1 2.566733 1_555
S4 Zr0 2.566671 1_555
S5 Zr1 2.566652 1_555
S6 Zr1 2.558535 1_555
S6 Zr0 2.558587 1_555
S7 Zr0 2.558357 1_655
S7 Zr1 2.558357 1_555
