# generated using pymatgen
data_Th2(GeIr)3
_symmetry_space_group_name_H-M   'P 1'
_cell_length_a   5.89057800
_cell_length_b   5.89057800
_cell_length_c   42.12076600
_cell_angle_alpha   90.00000000
_cell_angle_beta   90.00000000
_cell_angle_gamma   90.00000000
_symmetry_Int_Tables_number   1
_chemical_formula_structural   Th2(GeIr)3
_chemical_formula_sum   'Th16 Ge24 Ir24'
_cell_volume   1461.54463378
_cell_formula_units_Z   8
loop_
 _symmetry_equiv_pos_site_id
 _symmetry_equiv_pos_as_xyz
  1  'x, y, z'
loop_
 _atom_site_type_symbol
 _atom_site_label
 _atom_site_symmetry_multiplicity
 _atom_site_fract_x
 _atom_site_fract_y
 _atom_site_fract_z
 _atom_site_occupancy
  Th  Th0_0  1  0.25000000  0.25000000  0.38116600  1
  Th  Th0_1  1  0.25000000  0.25000000  0.88116600  1
  Th  Th0_2  1  0.25000000  0.75000000  0.38116600  1
  Th  Th0_3  1  0.25000000  0.75000000  0.88116600  1
  Th  Th0_4  1  0.75000000  0.25000000  0.38116600  1
  Th  Th0_5  1  0.75000000  0.25000000  0.88116600  1
  Th  Th0_6  1  0.75000000  0.75000000  0.38116600  1
  Th  Th0_7  1  0.75000000  0.75000000  0.88116600  1
  Th  Th1_0  1  0.25000000  0.25000000  0.11883400  1
  Th  Th1_1  1  0.25000000  0.25000000  0.61883400  1
  Th  Th1_2  1  0.25000000  0.75000000  0.11883400  1
  Th  Th1_3  1  0.25000000  0.75000000  0.61883400  1
  Th  Th1_4  1  0.75000000  0.25000000  0.11883400  1
  Th  Th1_5  1  0.75000000  0.25000000  0.61883400  1
  Th  Th1_6  1  0.75000000  0.75000000  0.11883400  1
  Th  Th1_7  1  0.75000000  0.75000000  0.61883400  1
  Ge  Ge0_0  1  0.25000000  0.25000000  0.19381150  1
  Ge  Ge0_1  1  0.25000000  0.25000000  0.69381150  1
  Ge  Ge0_2  1  0.25000000  0.75000000  0.19381150  1
  Ge  Ge0_3  1  0.25000000  0.75000000  0.69381150  1
  Ge  Ge0_4  1  0.75000000  0.25000000  0.19381150  1
  Ge  Ge0_5  1  0.75000000  0.25000000  0.69381150  1
  Ge  Ge0_6  1  0.75000000  0.75000000  0.19381150  1
  Ge  Ge0_7  1  0.75000000  0.75000000  0.69381150  1
  Ge  Ge1_0  1  0.25000000  0.25000000  0.30618850  1
  Ge  Ge1_1  1  0.25000000  0.25000000  0.80618850  1
  Ge  Ge1_2  1  0.25000000  0.75000000  0.30618850  1
  Ge  Ge1_3  1  0.25000000  0.75000000  0.80618850  1
  Ge  Ge1_4  1  0.75000000  0.25000000  0.30618850  1
  Ge  Ge1_5  1  0.75000000  0.25000000  0.80618850  1
  Ge  Ge1_6  1  0.75000000  0.75000000  0.30618850  1
  Ge  Ge1_7  1  0.75000000  0.75000000  0.80618850  1
  Ge  Ge2_0  1  0.25000000  0.25000000  0.00000000  1
  Ge  Ge2_1  1  0.25000000  0.25000000  0.50000000  1
  Ge  Ge2_2  1  0.25000000  0.75000000  0.00000000  1
  Ge  Ge2_3  1  0.25000000  0.75000000  0.50000000  1
  Ge  Ge2_4  1  0.75000000  0.25000000  0.00000000  1
  Ge  Ge2_5  1  0.75000000  0.25000000  0.50000000  1
  Ge  Ge2_6  1  0.75000000  0.75000000  0.00000000  1
  Ge  Ge2_7  1  0.75000000  0.75000000  0.50000000  1
  Ir  Ir0_0  1  0.25000000  0.25000000  0.05882550  1
  Ir  Ir0_1  1  0.25000000  0.25000000  0.55882550  1
  Ir  Ir0_2  1  0.25000000  0.75000000  0.05882550  1
  Ir  Ir0_3  1  0.25000000  0.75000000  0.55882550  1
  Ir  Ir0_4  1  0.75000000  0.25000000  0.05882550  1
  Ir  Ir0_5  1  0.75000000  0.25000000  0.55882550  1
  Ir  Ir0_6  1  0.75000000  0.75000000  0.05882550  1
  Ir  Ir0_7  1  0.75000000  0.75000000  0.55882550  1
  Ir  Ir1_0  1  0.25000000  0.25000000  0.44117450  1
  Ir  Ir1_1  1  0.25000000  0.25000000  0.94117450  1
  Ir  Ir1_2  1  0.25000000  0.75000000  0.44117450  1
  Ir  Ir1_3  1  0.25000000  0.75000000  0.94117450  1
  Ir  Ir1_4  1  0.75000000  0.25000000  0.44117450  1
  Ir  Ir1_5  1  0.75000000  0.25000000  0.94117450  1
  Ir  Ir1_6  1  0.75000000  0.75000000  0.44117450  1
  Ir  Ir1_7  1  0.75000000  0.75000000  0.94117450  1
  Ir  Ir2_0  1  0.25000000  0.25000000  0.25000000  1
  Ir  Ir2_1  1  0.25000000  0.25000000  0.75000000  1
  Ir  Ir2_2  1  0.25000000  0.75000000  0.25000000  1
  Ir  Ir2_3  1  0.25000000  0.75000000  0.75000000  1
  Ir  Ir2_4  1  0.75000000  0.25000000  0.25000000  1
  Ir  Ir2_5  1  0.75000000  0.25000000  0.75000000  1
  Ir  Ir2_6  1  0.75000000  0.75000000  0.25000000  1
  Ir  Ir2_7  1  0.75000000  0.75000000  0.75000000  1
loop_
_geom_bond_atom_site_label_1
_geom_bond_atom_site_label_2
_geom_bond_distance
_geom_bond_site_symmetry_2
Th0_0 Th0_2 2.945289 1_555
Th0_0 Th0_2 2.945289 1_545
Th0_0 Th0_4 2.945289 1_455
Th0_0 Th0_4 2.945289 1_555
Th0_1 Th0_5 2.945289 1_555
Th0_1 Th0_3 2.945289 1_545
Th0_1 Th0_3 2.945289 1_555
Th0_1 Th0_5 2.945289 1_455
Th0_2 Th0_6 2.945289 1_555
Th0_2 Th0_6 2.945289 1_455
Th0_3 Th0_7 2.945289 1_455
Th0_3 Th0_7 2.945289 1_555
Th0_4 Th0_6 2.945289 1_545
Th0_4 Th0_6 2.945289 1_555
Th0_5 Th0_7 2.945289 1_545
Th0_5 Th0_7 2.945289 1_555
Th1_0 Th1_4 2.945289 1_555
Th1_0 Th1_4 2.945289 1_455
Th1_0 Th1_2 2.945289 1_555
Th1_0 Th1_2 2.945289 1_545
Th1_1 Th1_5 2.945289 1_555
Th1_1 Th1_3 2.945289 1_545
Th1_1 Th1_3 2.945289 1_555
Th1_1 Th1_5 2.945289 1_455
Th1_2 Th1_6 2.945289 1_555
Th1_2 Th1_6 2.945289 1_455
Th1_3 Th1_7 2.945289 1_555
Th1_3 Th1_7 2.945289 1_455
Th1_4 Th1_6 2.945289 1_555
Th1_4 Th1_6 2.945289 1_545
Th1_5 Th1_7 2.945289 1_555
Th1_5 Th1_7 2.945289 1_545
Ge0_0 Ir2_0 2.366703 1_555
Ge0_0 Ge0_2 2.945289 1_555
Ge0_0 Ge0_4 2.945289 1_555
Ge0_0 Ge0_4 2.945289 1_455
Ge0_0 Ge0_2 2.945289 1_545
Ge0_0 Th1_0 3.158110 1_555
Ge0_1 Ir2_1 2.366703 1_555
Ge0_1 Ge0_3 2.945289 1_545
Ge0_1 Ge0_3 2.945289 1_555
Ge0_1 Ge0_5 2.945289 1_455
Ge0_1 Ge0_5 2.945289 1_555
Ge0_1 Th1_1 3.158110 1_555
Ge0_2 Ir2_2 2.366703 1_555
Ge0_2 Ge0_6 2.945289 1_455
Ge0_2 Ge0_6 2.945289 1_555
Ge0_2 Th1_2 3.158110 1_555
Ge0_3 Ir2_3 2.366703 1_555
Ge0_3 Ge0_7 2.945289 1_455
Ge0_3 Ge0_7 2.945289 1_555
Ge0_3 Th1_3 3.158110 1_555
Ge0_4 Ir2_4 2.366703 1_555
Ge0_4 Ge0_6 2.945289 1_545
Ge0_4 Ge0_6 2.945289 1_555
Ge0_4 Th1_4 3.158110 1_555
Ge0_5 Ir2_5 2.366703 1_555
Ge0_5 Ge0_7 2.945289 1_545
Ge0_5 Ge0_7 2.945289 1_555
Ge0_5 Th1_5 3.158110 1_555
Ge0_6 Ir2_6 2.366703 1_555
Ge0_6 Th1_6 3.158110 1_555
Ge0_7 Ir2_7 2.366703 1_555
Ge0_7 Th1_7 3.158110 1_555
Ge1_0 Ir2_0 2.366703 1_555
Ge1_0 Ge1_4 2.945289 1_555
Ge1_0 Ge1_4 2.945289 1_455
Ge1_0 Ge1_2 2.945289 1_545
Ge1_0 Ge1_2 2.945289 1_555
Ge1_0 Th0_0 3.158110 1_555
Ge1_1 Ir2_1 2.366703 1_555
Ge1_1 Ge1_3 2.945289 1_555
Ge1_1 Ge1_5 2.945289 1_455
Ge1_1 Ge1_3 2.945289 1_545
Ge1_1 Ge1_5 2.945289 1_555
Ge1_1 Th0_1 3.158110 1_555
Ge1_2 Ir2_2 2.366703 1_555
Ge1_2 Ge1_6 2.945289 1_455
Ge1_2 Ge1_6 2.945289 1_555
Ge1_2 Th0_2 3.158110 1_555
Ge1_3 Ir2_3 2.366703 1_555
Ge1_3 Ge1_7 2.945289 1_555
Ge1_3 Ge1_7 2.945289 1_455
Ge1_3 Th0_3 3.158110 1_555
Ge1_4 Ir2_4 2.366703 1_555
Ge1_4 Ge1_6 2.945289 1_555
Ge1_4 Ge1_6 2.945289 1_545
Ge1_4 Th0_4 3.158110 1_555
Ge1_5 Ir2_5 2.366703 1_555
Ge1_5 Ge1_7 2.945289 1_555
Ge1_5 Ge1_7 2.945289 1_545
Ge1_5 Th0_5 3.158110 1_555
Ge1_6 Ir2_6 2.366703 1_555
Ge1_6 Th0_6 3.158110 1_555
Ge1_7 Ir2_7 2.366703 1_555
Ge1_7 Th0_7 3.158110 1_555
Ge2_0 Ir1_1 2.477775 1_554
Ge2_0 Ir0_0 2.477775 1_555
Ge2_1 Ir1_0 2.477775 1_555
Ge2_1 Ir0_1 2.477775 1_555
Ge2_2 Ir1_3 2.477775 1_554
Ge2_2 Ir0_2 2.477775 1_555
Ge2_3 Ir0_3 2.477775 1_555
Ge2_3 Ir1_2 2.477775 1_555
Ge2_4 Ir1_5 2.477775 1_554
Ge2_4 Ir0_4 2.477775 1_555
Ge2_5 Ir0_5 2.477775 1_555
Ge2_5 Ir1_4 2.477775 1_555
Ge2_6 Ir1_7 2.477775 1_554
Ge2_6 Ir0_6 2.477775 1_555
Ge2_7 Ir1_6 2.477775 1_555
Ge2_7 Ir0_7 2.477775 1_555
Ir0_0 Th1_0 2.527604 1_555
Ir0_1 Th1_1 2.527604 1_555
Ir0_2 Th1_2 2.527604 1_555
Ir0_3 Th1_3 2.527604 1_555
Ir0_4 Th1_4 2.527604 1_555
Ir0_5 Th1_5 2.527604 1_555
Ir0_6 Th1_6 2.527604 1_555
Ir0_7 Th1_7 2.527604 1_555
Ir1_0 Th0_0 2.527604 1_555
Ir1_1 Th0_1 2.527604 1_555
Ir1_2 Th0_2 2.527604 1_555
Ir1_3 Th0_3 2.527604 1_555
Ir1_4 Th0_4 2.527604 1_555
Ir1_5 Th0_5 2.527604 1_555
Ir1_6 Th0_6 2.527604 1_555
Ir1_7 Th0_7 2.527604 1_555
