# generated using pymatgen
data_BaCaMoF7
_symmetry_space_group_name_H-M   'P 1'
_cell_length_a   10.67442800
_cell_length_b   5.93274900
_cell_length_c   10.25928977
_cell_angle_alpha   88.64973998
_cell_angle_beta   90.00000000
_cell_angle_gamma   90.00000000
_symmetry_Int_Tables_number   1
_chemical_formula_structural   BaCaMoF7
_chemical_formula_sum   'Ba4 Ca4 Mo4 F28'
_cell_volume   649.52709611
_cell_formula_units_Z   4
loop_
 _symmetry_equiv_pos_site_id
 _symmetry_equiv_pos_as_xyz
  1  'x, y, z'
loop_
 _atom_site_type_symbol
 _atom_site_label
 _atom_site_symmetry_multiplicity
 _atom_site_fract_x
 _atom_site_fract_y
 _atom_site_fract_z
 _atom_site_occupancy
  Ba  Ba0  1  0.33624600  0.73154600  0.50101800  1
  Ba  Ba1  1  0.83624600  0.26845400  0.99898200  1
  Ba  Ba2  1  0.66375400  0.26845400  0.49898200  1
  Ba  Ba3  1  0.16375400  0.73154600  0.00101800  1
  Ca  Ca0  1  0.40680200  0.30254000  0.82006400  1
  Ca  Ca1  1  0.90680200  0.69746000  0.67993600  1
  Ca  Ca2  1  0.09319800  0.30254000  0.32006400  1
  Ca  Ca3  1  0.59319800  0.69746000  0.17993600  1
  Mo  Mo0  1  0.62080700  0.81167800  0.80910000  1
  Mo  Mo1  1  0.37919300  0.18832200  0.19090000  1
  Mo  Mo2  1  0.87919300  0.81167800  0.30910000  1
  Mo  Mo3  1  0.12080700  0.18832200  0.69090000  1
  F  F0  1  0.42302600  0.88150700  0.10610600  1
  F  F1  1  0.04360800  0.65255400  0.37532900  1
  F  F2  1  0.70819000  0.51981800  0.73273300  1
  F  F3  1  0.29181000  0.48018200  0.26726700  1
  F  F4  1  0.46362900  0.07155100  0.36406300  1
  F  F5  1  0.79369900  0.71098700  0.48769200  1
  F  F6  1  0.78195200  0.98898800  0.74591700  1
  F  F7  1  0.96362900  0.92844900  0.13593700  1
  F  F8  1  0.45639200  0.65255400  0.87532900  1
  F  F9  1  0.20819000  0.48018200  0.76726700  1
  F  F10  1  0.07697400  0.88150700  0.60610600  1
  F  F11  1  0.57697400  0.11849300  0.89389400  1
  F  F12  1  0.28195200  0.01101200  0.75408300  1
  F  F13  1  0.96054800  0.58706300  0.87797800  1
  F  F14  1  0.53637100  0.92844900  0.63593700  1
  F  F15  1  0.03637100  0.07155100  0.86406300  1
  F  F16  1  0.21804800  0.01101200  0.25408300  1
  F  F17  1  0.92302600  0.11849300  0.39389400  1
  F  F18  1  0.46054800  0.41293700  0.62202200  1
  F  F19  1  0.95639200  0.34744600  0.62467100  1
  F  F20  1  0.03945200  0.41293700  0.12202200  1
  F  F21  1  0.71804800  0.98898800  0.24591700  1
  F  F22  1  0.53945200  0.58706300  0.37797800  1
  F  F23  1  0.29369900  0.28901300  0.01230800  1
  F  F24  1  0.20630100  0.28901300  0.51230800  1
  F  F25  1  0.70630100  0.71098700  0.98769200  1
  F  F26  1  0.54360800  0.34744600  0.12467100  1
  F  F27  1  0.79181000  0.51981800  0.23273300  1
loop_
_geom_bond_atom_site_label_1
_geom_bond_atom_site_label_2
_geom_bond_distance
_geom_bond_site_symmetry_2
Ba0 F18 2.600773 1_555
Ba0 F22 2.661614 1_555
Ba0 F4 2.785403 1_565
Ba0 F14 2.814287 1_555
Ba0 F3 2.892823 1_555
Ba0 F24 2.969178 1_555
Ba0 F10 3.107829 1_555
Ba0 F12 3.166754 1_565
Ba0 F16 3.249753 1_565
Ba1 F13 2.600773 1_555
Ba1 F20 2.661614 1_656
Ba1 F7 2.785403 1_546
Ba1 F15 2.814287 1_655
Ba1 F27 2.892823 1_556
Ba1 F25 2.969178 1_555
Ba1 F11 3.107829 1_555
Ba1 F6 3.166754 1_545
Ba1 F21 3.249753 1_546
Ba2 F22 2.600773 1_555
Ba2 F18 2.661614 1_555
Ba2 F14 2.785403 1_545
Ba2 F4 2.814287 1_555
Ba2 F2 2.892823 1_555
Ba2 F5 2.969178 1_555
Ba2 F17 3.107829 1_555
Ba2 F21 3.166754 1_545
Ba2 F6 3.249753 1_545
Ba3 F20 2.600773 1_555
Ba3 F13 2.661614 1_454
Ba3 F15 2.785403 1_564
Ba3 F7 2.814287 1_455
Ba3 F9 2.892823 1_554
Ba3 F23 2.969178 1_555
Ba3 F0 3.107829 1_555
Ba3 F16 3.166754 1_565
Ba3 F12 3.249753 1_564
Ca0 F18 2.196243 1_555
Ca0 F8 2.229170 1_555
Ca0 F11 2.242015 1_555
Ca0 F12 2.298016 1_555
Ca0 F23 2.312249 1_556
Ca0 F9 2.423201 1_555
Ca1 F13 2.196243 1_555
Ca1 F19 2.229170 1_555
Ca1 F10 2.242015 1_655
Ca1 F6 2.298016 1_555
Ca1 F5 2.312249 1_555
Ca1 F2 2.423201 1_555
Ca2 F20 2.196243 1_555
Ca2 F1 2.229170 1_555
Ca2 F17 2.242015 1_455
Ca2 F16 2.298016 1_555
Ca2 F24 2.312249 1_555
Ca2 F3 2.423201 1_555
Ca3 F22 2.196243 1_555
Ca3 F26 2.229170 1_555
Ca3 F0 2.242015 1_555
Ca3 F21 2.298016 1_555
Ca3 F25 2.312249 1_554
Ca3 F27 2.423201 1_555
F0 Mo1 2.088936 1_565
F1 Mo2 2.098287 1_455
F2 Mo0 2.132138 1_555
F3 Mo1 2.132138 1_555
F4 Mo1 2.095314 1_555
F5 Mo2 2.120181 1_555
F6 Mo0 2.110323 1_555
F7 Mo2 2.095314 1_555
F8 Mo0 2.098287 1_555
F9 Mo3 2.132138 1_555
F10 Mo3 2.088936 1_565
F11 Mo0 2.088936 1_545
F12 Mo3 2.110323 1_555
F14 Mo0 2.095314 1_555
F15 Mo3 2.095314 1_555
F16 Mo1 2.110323 1_555
F17 Mo2 2.088936 1_545
F19 Mo3 2.098287 1_655
F21 Mo2 2.110323 1_555
F23 Mo1 2.120181 1_555
F24 Mo3 2.120181 1_555
F25 Mo0 2.120181 1_555
F26 Mo1 2.098287 1_555
F27 Mo2 2.132138 1_555
