# generated using pymatgen
data_Rb
_symmetry_space_group_name_H-M   'P 1'
_cell_length_a   7.98308241
_cell_length_b   13.14694154
_cell_length_c   13.17352526
_cell_angle_alpha   35.38677244
_cell_angle_beta   72.04623912
_cell_angle_gamma   72.34202486
_symmetry_Int_Tables_number   1
_chemical_formula_structural   Rb
_chemical_formula_sum   Rb8
_cell_volume   758.26322990
_cell_formula_units_Z   8
loop_
 _symmetry_equiv_pos_site_id
 _symmetry_equiv_pos_as_xyz
  1  'x, y, z'
loop_
 _atom_site_type_symbol
 _atom_site_label
 _atom_site_symmetry_multiplicity
 _atom_site_fract_x
 _atom_site_fract_y
 _atom_site_fract_z
 _atom_site_occupancy
  Rb  Rb0  1  0.55885415  0.69192289  0.18180689  1
  Rb  Rb1  1  0.93317985  0.81501593  0.31044082  1
  Rb  Rb2  1  0.68454809  0.07215497  0.55201256  1
  Rb  Rb3  1  0.43410028  0.30863612  0.81665557  1
  Rb  Rb4  1  0.30847545  0.92663184  0.44921038  1
  Rb  Rb5  1  0.80843475  0.44688764  0.92873221  1
  Rb  Rb6  1  0.05998441  0.18068009  0.69329742  1
  Rb  Rb7  1  0.18394002  0.54983153  0.07443516  1
loop_
_geom_bond_atom_site_label_1
_geom_bond_atom_site_label_2
_geom_bond_distance
_geom_bond_site_symmetry_2
Rb0 Rb3 4.932617 1_564
Rb0 Rb2 4.944296 1_555
Rb0 Rb7 4.969227 1_655
Rb0 Rb7 4.975786 1_555
Rb0 Rb1 4.978768 1_455
Rb0 Rb1 4.994720 1_555
Rb0 Rb2 5.011602 1_564
Rb0 Rb3 5.051950 1_555
Rb1 Rb6 4.937961 1_664
Rb1 Rb5 4.940147 1_555
Rb1 Rb4 4.967881 1_555
Rb1 Rb4 4.988880 1_655
Rb1 Rb5 5.024346 1_564
Rb1 Rb6 5.045302 1_655
Rb2 Rb4 4.958655 1_645
Rb2 Rb6 4.965136 1_555
Rb2 Rb5 4.965846 1_554
Rb2 Rb4 4.972263 1_545
Rb2 Rb5 4.975630 1_545
Rb2 Rb6 4.984564 1_655
Rb3 Rb4 4.936823 1_555
Rb3 Rb5 4.975202 1_455
Rb3 Rb6 4.978763 1_655
Rb3 Rb5 4.980415 1_555
Rb3 Rb6 4.988788 1_555
Rb3 Rb4 5.033203 1_546
Rb4 Rb7 4.961882 1_565
Rb4 Rb7 4.977841 1_556
Rb5 Rb7 4.961153 1_556
Rb5 Rb7 4.974555 1_656
Rb6 Rb7 4.942061 1_555
Rb6 Rb7 5.016011 1_546
