# generated using pymatgen
data_Li9Mn2Co5O16
_symmetry_space_group_name_H-M   'P 1'
_cell_length_a   5.13808100
_cell_length_b   5.81753335
_cell_length_c   10.08852238
_cell_angle_alpha   89.29935962
_cell_angle_beta   99.65423885
_cell_angle_gamma   107.36630697
_symmetry_Int_Tables_number   1
_chemical_formula_structural   Li9Mn2Co5O16
_chemical_formula_sum   'Li9 Mn2 Co5 O16'
_cell_volume   283.50405620
_cell_formula_units_Z   1
loop_
 _symmetry_equiv_pos_site_id
 _symmetry_equiv_pos_as_xyz
  1  'x, y, z'
loop_
 _atom_site_type_symbol
 _atom_site_label
 _atom_site_symmetry_multiplicity
 _atom_site_fract_x
 _atom_site_fract_y
 _atom_site_fract_z
 _atom_site_occupancy
  Li  Li0  1  0.49825700  0.87035800  0.12789500  1
  Li  Li1  1  0.49961000  0.12846500  0.37672100  1
  Li  Li2  1  0.50152000  0.36860100  0.62540900  1
  Li  Li3  1  0.49749300  0.61378200  0.87039800  1
  Li  Li4  1  0.49702700  0.37802500  0.12542700  1
  Li  Li5  1  0.50150800  0.62309500  0.37834100  1
  Li  Li6  1  0.50078400  0.88051700  0.62572300  1
  Li  Li7  1  0.50617000  0.13795700  0.86780200  1
  Li  Li8  1  0.00000500  0.25512200  0.75079400  1
  Mn  Mn0  1  0.00174500  0.00373500  0.99586200  1
  Mn  Mn1  1  0.99625200  0.74545500  0.75101500  1
  Co  Co0  1  0.00166800  0.25018800  0.25107100  1
  Co  Co1  1  0.99850200  0.49284100  0.50771300  1
  Co  Co2  1  0.99977500  0.49619800  0.99708500  1
  Co  Co3  1  0.00153200  0.74500200  0.25309900  1
  Co  Co4  1  0.00466400  0.01006600  0.50752400  1
  O  O0  1  0.78554400  0.69383000  0.06053700  1
  O  O1  1  0.77308300  0.94850000  0.31440600  1
  O  O2  1  0.76110400  0.19797800  0.55497900  1
  O  O3  1  0.77526200  0.45656000  0.81931100  1
  O  O4  1  0.77880600  0.18736100  0.05373100  1
  O  O5  1  0.76412500  0.44151900  0.30936400  1
  O  O6  1  0.76709900  0.69415400  0.57629000  1
  O  O7  1  0.77998900  0.93132300  0.82091500  1
  O  O8  1  0.22750000  0.05058400  0.17712400  1
  O  O9  1  0.23616200  0.31443900  0.43633300  1
  O  O10  1  0.22831400  0.57928300  0.69066900  1
  O  O11  1  0.21806900  0.80671300  0.93465100  1
  O  O12  1  0.22269900  0.54742400  0.17830500  1
  O  O13  1  0.22396100  0.80120400  0.43326300  1
  O  O14  1  0.22704500  0.04411000  0.68303600  1
  O  O15  1  0.22472600  0.30561400  0.94520400  1
loop_
_geom_bond_atom_site_label_1
_geom_bond_atom_site_label_2
_geom_bond_distance
_geom_bond_site_symmetry_2
Li0 O8 2.096785 1_565
Li0 O12 2.103082 1_555
Li0 O1 2.118411 1_555
Li0 O11 2.183679 1_554
Li0 O4 2.186262 1_565
Li0 O0 2.225698 1_555
Li1 O2 2.021350 1_555
Li1 O5 2.104186 1_555
Li1 O9 2.127835 1_555
Li1 O13 2.142594 1_545
Li1 O1 2.157841 1_545
Li1 O8 2.216904 1_555
Li2 O6 2.087006 1_555
Li2 O2 2.096299 1_555
Li2 O9 2.117243 1_555
Li2 O14 2.132917 1_555
Li2 O3 2.176873 1_555
Li2 O10 2.294122 1_555
Li3 O3 2.043674 1_555
Li3 O10 2.059835 1_555
Li3 O7 2.094849 1_555
Li3 O15 2.137651 1_555
Li3 O0 2.178327 1_556
Li3 O11 2.243447 1_555
Li4 O15 2.062626 1_554
Li4 O5 2.079251 1_555
Li4 O12 2.082492 1_555
Li4 O8 2.112259 1_555
Li4 O0 2.161416 1_555
Li4 O4 2.275770 1_555
Li5 O9 2.050789 1_555
Li5 O13 2.139020 1_555
Li5 O5 2.145831 1_555
Li5 O1 2.154506 1_555
Li5 O6 2.188734 1_555
Li5 O12 2.234769 1_555
Li6 O10 2.067675 1_555
Li6 O14 2.074508 1_565
Li6 O6 2.103384 1_555
Li6 O2 2.126625 1_565
Li6 O13 2.170199 1_555
Li6 O7 2.199256 1_555
Li7 O3 2.064275 1_555
Li7 O4 2.110660 1_556
Li7 O14 2.119031 1_555
Li7 O15 2.211687 1_555
Li7 O7 2.212440 1_545
Li7 O11 2.227037 1_545
Li8 O10 2.047052 1_555
Li8 O3 2.068787 1_455
Li8 O7 2.071517 1_445
Li8 O15 2.078044 1_555
Li8 O14 2.116101 1_555
Li8 O2 2.116349 1_455
Mn0 O15 1.905605 1_555
Mn0 O7 1.909954 1_445
Mn0 O4 1.940140 1_456
Mn0 O8 1.968705 1_556
Mn0 O0 1.982143 1_446
Mn0 O11 1.984570 1_545
Mn1 O10 1.916464 1_655
Mn1 O3 1.919245 1_555
Mn1 O6 1.920812 1_555
Mn1 O7 1.974821 1_555
Mn1 O14 1.977099 1_665
Mn1 O11 1.980815 1_655
Co0 O1 1.965133 1_445
Co0 O12 1.973578 1_555
Co0 O9 2.019297 1_555
Co0 O5 2.035234 1_455
Co0 O8 2.089782 1_555
Co0 O4 2.100403 1_455
Co1 O2 1.893081 1_555
Co1 O10 1.997800 1_655
Co1 O13 2.035322 1_655
Co1 O9 2.038779 1_655
Co1 O6 2.095427 1_555
Co1 O5 2.129620 1_555
Co2 O3 1.938518 1_555
Co2 O4 1.954081 1_556
Co2 O15 1.954798 1_655
Co2 O12 1.962249 1_656
Co2 O11 1.979282 1_655
Co2 O0 1.988238 1_556
Co3 O13 1.952283 1_555
Co3 O5 1.961972 1_455
Co3 O8 2.031959 1_565
Co3 O0 2.046455 1_455
Co3 O1 2.062226 1_455
Co3 O12 2.066495 1_555
Co4 O14 1.917007 1_555
Co4 O2 2.005181 1_455
Co4 O9 2.015972 1_555
Co4 O6 2.064585 1_445
Co4 O1 2.079662 1_445
Co4 O13 2.104742 1_545
