# generated using pymatgen
data_Er(Co2B)6
_symmetry_space_group_name_H-M   'P 1'
_cell_length_a   5.95420199
_cell_length_b   5.95420199
_cell_length_c   5.95420276
_cell_angle_alpha   104.00133178
_cell_angle_beta   104.00133178
_cell_angle_gamma   104.00133796
_symmetry_Int_Tables_number   1
_chemical_formula_structural   Er(Co2B)6
_chemical_formula_sum   'Er1 Co12 B6'
_cell_volume   188.34083917
_cell_formula_units_Z   1
loop_
 _symmetry_equiv_pos_site_id
 _symmetry_equiv_pos_as_xyz
  1  'x, y, z'
loop_
 _atom_site_type_symbol
 _atom_site_label
 _atom_site_symmetry_multiplicity
 _atom_site_fract_x
 _atom_site_fract_y
 _atom_site_fract_z
 _atom_site_occupancy
  Er  Er0  1  0.00000000  0.00000000  0.00000000  1
  Co  Co0  1  0.13248700  0.86751300  0.50000000  1
  Co  Co1  1  0.50000000  0.13248700  0.86751300  1
  Co  Co2  1  0.86751300  0.50000000  0.13248700  1
  Co  Co3  1  0.50000000  0.86751300  0.13248700  1
  Co  Co4  1  0.13248700  0.50000000  0.86751300  1
  Co  Co5  1  0.86751300  0.13248700  0.50000000  1
  Co  Co6  1  0.54465400  0.81384500  0.54465400  1
  Co  Co7  1  0.54465400  0.54465400  0.81384500  1
  Co  Co8  1  0.81384500  0.54465400  0.54465400  1
  Co  Co9  1  0.45534600  0.18615500  0.45534600  1
  Co  Co10  1  0.45534600  0.45534600  0.18615500  1
  Co  Co11  1  0.18615500  0.45534600  0.45534600  1
  B  B0  1  0.76803300  0.32226900  0.76803300  1
  B  B1  1  0.76803300  0.76803300  0.32226900  1
  B  B2  1  0.32226900  0.76803300  0.76803300  1
  B  B3  1  0.23196700  0.67773100  0.23196700  1
  B  B4  1  0.23196700  0.23196700  0.67773100  1
  B  B5  1  0.67773100  0.23196700  0.23196700  1
loop_
_geom_bond_atom_site_label_1
_geom_bond_atom_site_label_2
_geom_bond_distance
_geom_bond_site_symmetry_2
Co0 Er0 3.226273 1_566
Co0 Er0 3.226273 1_565
Co1 Er0 3.226272 1_556
Co1 Er0 3.226272 1_656
Co2 Er0 3.226272 1_665
Co2 Er0 3.226272 1_655
Co3 Er0 3.226272 1_665
Co3 Er0 3.226272 1_565
Co4 Er0 3.226272 1_556
Co4 Er0 3.226272 1_566
Co5 Er0 3.226273 1_655
Co5 Er0 3.226273 1_656
Co6 Er0 3.076488 1_666
Co7 Er0 3.076488 1_666
Co8 Er0 3.076488 1_666
Co9 Er0 3.076488 1_555
Co10 Er0 3.076488 1_555
Co11 Er0 3.076488 1_555
B0 Co1 2.020737 1_555
B0 Co5 2.020737 1_555
B0 Co4 2.035503 1_655
B0 Co2 2.035503 1_556
B0 Co7 2.109433 1_555
B0 Co8 2.109433 1_555
B0 Co9 2.109942 1_555
B0 Er0 3.023095 1_656
B1 Co2 2.020737 1_555
B1 Co3 2.020737 1_555
B1 Co0 2.035503 1_655
B1 Co5 2.035503 1_565
B1 Co8 2.109433 1_555
B1 Co6 2.109433 1_555
B1 Co10 2.109942 1_555
B1 Er0 3.023095 1_665
B2 Co4 2.020737 1_555
B2 Co0 2.020737 1_555
B2 Co1 2.035503 1_565
B2 Co3 2.035503 1_556
B2 Co7 2.109433 1_555
B2 Co6 2.109433 1_555
B2 Co11 2.109942 1_555
B2 Er0 3.023095 1_566
B3 Co3 2.020737 1_555
B3 Co0 2.020737 1_555
B3 Co2 2.035503 1_455
B3 Co4 2.035503 1_554
B3 Co10 2.109433 1_555
B3 Co11 2.109433 1_555
B3 Co6 2.109942 1_555
B3 Er0 3.023095 1_565
B4 Co1 2.020737 1_555
B4 Co4 2.020737 1_555
B4 Co0 2.035503 1_545
B4 Co5 2.035503 1_455
B4 Co11 2.109433 1_555
B4 Co9 2.109433 1_555
B4 Co7 2.109942 1_555
B4 Er0 3.023095 1_556
B5 Co2 2.020737 1_555
B5 Co5 2.020737 1_555
B5 Co3 2.035503 1_545
B5 Co1 2.035503 1_554
B5 Co10 2.109433 1_555
B5 Co9 2.109433 1_555
B5 Co8 2.109942 1_555
B5 Er0 3.023095 1_655
