# generated using pymatgen
data_NaMo3O11
_symmetry_space_group_name_H-M   'P 1'
_cell_length_a   7.45623300
_cell_length_b   8.79128500
_cell_length_c   15.18207600
_cell_angle_alpha   90.00000000
_cell_angle_beta   90.00000000
_cell_angle_gamma   90.00000000
_symmetry_Int_Tables_number   1
_chemical_formula_structural   NaMo3O11
_chemical_formula_sum   'Na4 Mo12 O44'
_cell_volume   995.18309795
_cell_formula_units_Z   4
loop_
 _symmetry_equiv_pos_site_id
 _symmetry_equiv_pos_as_xyz
  1  'x, y, z'
loop_
 _atom_site_type_symbol
 _atom_site_label
 _atom_site_symmetry_multiplicity
 _atom_site_fract_x
 _atom_site_fract_y
 _atom_site_fract_z
 _atom_site_occupancy
  Na  Na0  1  0.75000000  0.47235200  0.80651100  1
  Na  Na1  1  0.75000000  0.97235200  0.69348900  1
  Na  Na2  1  0.25000000  0.52764800  0.19348900  1
  Na  Na3  1  0.25000000  0.02764800  0.30651100  1
  Mo  Mo0  1  0.75000000  0.29157800  0.57367100  1
  Mo  Mo1  1  0.75000000  0.79157800  0.92632900  1
  Mo  Mo2  1  0.25000000  0.70842200  0.42632900  1
  Mo  Mo3  1  0.25000000  0.20842200  0.07367100  1
  Mo  Mo4  1  0.99894000  0.61690300  0.60815300  1
  Mo  Mo5  1  0.50106000  0.11690300  0.89184700  1
  Mo  Mo6  1  0.49894000  0.38309700  0.39184700  1
  Mo  Mo7  1  0.00106000  0.88309700  0.10815300  1
  Mo  Mo8  1  0.00106000  0.38309700  0.39184700  1
  Mo  Mo9  1  0.49894000  0.88309700  0.10815300  1
  Mo  Mo10  1  0.50106000  0.61690300  0.60815300  1
  Mo  Mo11  1  0.99894000  0.11690300  0.89184700  1
  O  O0  1  0.75000000  0.10455800  0.53883400  1
  O  O1  1  0.75000000  0.60455800  0.96116600  1
  O  O2  1  0.25000000  0.89544200  0.46116600  1
  O  O3  1  0.25000000  0.39544200  0.03883400  1
  O  O4  1  0.75000000  0.27410700  0.68834200  1
  O  O5  1  0.75000000  0.77410700  0.81165800  1
  O  O6  1  0.25000000  0.72589300  0.31165800  1
  O  O7  1  0.25000000  0.22589300  0.18834200  1
  O  O8  1  0.02267800  0.54960800  0.71461800  1
  O  O9  1  0.47732200  0.04960800  0.78538200  1
  O  O10  1  0.52267800  0.45039200  0.28538200  1
  O  O11  1  0.97732200  0.95039200  0.21461800  1
  O  O12  1  0.97732200  0.45039200  0.28538200  1
  O  O13  1  0.52267800  0.95039200  0.21461800  1
  O  O14  1  0.47732200  0.54960800  0.71461800  1
  O  O15  1  0.02267800  0.04960800  0.78538200  1
  O  O16  1  0.95416000  0.80862700  0.61959800  1
  O  O17  1  0.54584000  0.30862700  0.88040200  1
  O  O18  1  0.45416000  0.19137300  0.38040200  1
  O  O19  1  0.04584000  0.69137300  0.11959800  1
  O  O20  1  0.04584000  0.19137300  0.38040200  1
  O  O21  1  0.45416000  0.69137300  0.11959800  1
  O  O22  1  0.54584000  0.80862700  0.61959800  1
  O  O23  1  0.95416000  0.30862700  0.88040200  1
  O  O24  1  0.75000000  0.55173300  0.58735100  1
  O  O25  1  0.75000000  0.05173300  0.91264900  1
  O  O26  1  0.25000000  0.44826700  0.41264900  1
  O  O27  1  0.25000000  0.94826700  0.08735100  1
  O  O28  1  0.99793500  0.36719300  0.54770900  1
  O  O29  1  0.50206500  0.86719300  0.95229100  1
  O  O30  1  0.49793500  0.63280700  0.45229100  1
  O  O31  1  0.00206500  0.13280700  0.04770900  1
  O  O32  1  0.00206500  0.63280700  0.45229100  1
  O  O33  1  0.49793500  0.13280700  0.04770900  1
  O  O34  1  0.50206500  0.36719300  0.54770900  1
  O  O35  1  0.99793500  0.86719300  0.95229100  1
  O  O36  1  0.25000000  0.62247800  0.56973400  1
  O  O37  1  0.25000000  0.12247800  0.93026600  1
  O  O38  1  0.75000000  0.37752200  0.43026600  1
  O  O39  1  0.75000000  0.87752200  0.06973400  1
  O  O40  1  0.75000000  0.75924000  0.42259500  1
  O  O41  1  0.75000000  0.25924000  0.07740500  1
  O  O42  1  0.25000000  0.24076000  0.57740500  1
  O  O43  1  0.25000000  0.74076000  0.92259500  1
loop_
_geom_bond_atom_site_label_1
_geom_bond_atom_site_label_2
_geom_bond_distance
_geom_bond_site_symmetry_2
Na0 O17 2.376448 1_555
Na0 O23 2.376448 1_555
Na0 O4 2.501213 1_555
Na0 O8 2.557609 1_655
Na0 O14 2.557609 1_555
Na0 O1 2.619900 1_555
Na0 O5 2.653965 1_555
Na1 O16 2.376448 1_555
Na1 O22 2.376448 1_555
Na1 O5 2.501213 1_555
Na1 O9 2.557609 1_565
Na1 O15 2.557609 1_665
Na1 O0 2.619900 1_565
Na1 O4 2.653965 1_565
Na2 O21 2.376448 1_555
Na2 O19 2.376448 1_555
Na2 O6 2.501213 1_555
Na2 O10 2.557609 1_555
Na2 O12 2.557609 1_455
Na2 O3 2.619900 1_555
Na2 O7 2.653965 1_555
Na3 O20 2.376448 1_555
Na3 O18 2.376448 1_555
Na3 O7 2.501213 1_555
Na3 O11 2.557609 1_445
Na3 O13 2.557609 1_545
Na3 O2 2.619900 1_545
Na3 O6 2.653965 1_545
Mo0 O0 1.727122 1_555
Mo0 O4 1.747706 1_555
Mo0 O34 2.003698 1_555
Mo0 O28 2.003698 1_555
Mo0 O24 2.296508 1_555
Mo0 O38 2.304562 1_555
Mo1 O1 1.727122 1_555
Mo1 O5 1.747706 1_555
Mo1 O35 2.003698 1_555
Mo1 O29 2.003698 1_555
Mo1 O25 2.296508 1_565
Mo1 O39 2.304562 1_556
Mo2 O2 1.727122 1_555
Mo2 O6 1.747706 1_555
Mo2 O32 2.003698 1_555
Mo2 O30 2.003698 1_555
Mo2 O26 2.296508 1_555
Mo2 O36 2.304562 1_555
Mo3 O3 1.727122 1_555
Mo3 O7 1.747706 1_555
Mo3 O33 2.003698 1_555
Mo3 O31 2.003698 1_555
Mo3 O27 2.296508 1_545
Mo3 O37 2.304562 1_554
Mo4 O16 1.727017 1_555
Mo4 O8 1.730303 1_655
Mo4 O36 1.961341 1_655
Mo4 O24 1.968069 1_555
Mo4 O32 2.370550 1_655
Mo4 O28 2.379366 1_555
Mo5 O17 1.727017 1_555
Mo5 O9 1.730303 1_555
Mo5 O37 1.961341 1_555
Mo5 O25 1.968069 1_555
Mo5 O33 2.370550 1_556
Mo5 O29 2.379366 1_545
Mo6 O18 1.727017 1_555
Mo6 O10 1.730303 1_555
Mo6 O38 1.961341 1_555
Mo6 O26 1.968069 1_555
Mo6 O34 2.370550 1_555
Mo6 O30 2.379366 1_555
Mo7 O19 1.727017 1_555
Mo7 O11 1.730303 1_455
Mo7 O39 1.961341 1_455
Mo7 O27 1.968069 1_555
Mo7 O35 2.370550 1_454
Mo7 O31 2.379366 1_565
Mo8 O20 1.727017 1_555
Mo8 O12 1.730303 1_455
Mo8 O38 1.961341 1_455
Mo8 O26 1.968069 1_555
Mo8 O28 2.370550 1_455
Mo8 O32 2.379366 1_555
Mo9 O21 1.727017 1_555
Mo9 O13 1.730303 1_555
Mo9 O39 1.961341 1_555
Mo9 O27 1.968069 1_555
Mo9 O29 2.370550 1_554
Mo9 O33 2.379366 1_565
Mo10 O22 1.727017 1_555
Mo10 O14 1.730303 1_555
Mo10 O36 1.961341 1_555
Mo10 O24 1.968069 1_555
Mo10 O30 2.370550 1_555
Mo10 O34 2.379366 1_555
Mo11 O23 1.727017 1_555
Mo11 O15 1.730303 1_655
Mo11 O37 1.961341 1_655
Mo11 O25 1.968069 1_555
Mo11 O31 2.370550 1_656
Mo11 O35 2.379366 1_545
