# generated using pymatgen
data_Li7Mn5O12
_symmetry_space_group_name_H-M   'P 1'
_cell_length_a   5.08290276
_cell_length_b   7.81810683
_cell_length_c   6.03808244
_cell_angle_alpha   75.71900263
_cell_angle_beta   103.27955225
_cell_angle_gamma   82.62072699
_symmetry_Int_Tables_number   1
_chemical_formula_structural   Li7Mn5O12
_chemical_formula_sum   'Li7 Mn5 O12'
_cell_volume   221.91199355
_cell_formula_units_Z   1
loop_
 _symmetry_equiv_pos_site_id
 _symmetry_equiv_pos_as_xyz
  1  'x, y, z'
loop_
 _atom_site_type_symbol
 _atom_site_label
 _atom_site_symmetry_multiplicity
 _atom_site_fract_x
 _atom_site_fract_y
 _atom_site_fract_z
 _atom_site_occupancy
  Li  Li0  1  0.50193300  0.17051100  0.09105600  1
  Li  Li1  1  0.52186800  0.15857600  0.58344400  1
  Li  Li2  1  0.50497900  0.49343500  0.25061000  1
  Li  Li3  1  0.47898400  0.49231600  0.73450700  1
  Li  Li4  1  0.48300100  0.83886000  0.41068800  1
  Li  Li5  1  0.51422100  0.84638500  0.93299300  1
  Li  Li6  1  0.99323200  0.00169800  0.49320500  1
  Mn  Mn0  1  0.00163200  0.00045200  0.00047800  1
  Mn  Mn1  1  0.99811600  0.32929400  0.16922500  1
  Mn  Mn2  1  0.99477500  0.32670600  0.65782300  1
  Mn  Mn3  1  0.00349700  0.66954400  0.34184700  1
  Mn  Mn4  1  0.00305900  0.67102800  0.83444900  1
  O  O0  1  0.22833200  0.08765700  0.79709100  1
  O  O1  1  0.21397400  0.08557800  0.25095700  1
  O  O2  1  0.22804200  0.42928800  0.96398700  1
  O  O3  1  0.23192700  0.42521400  0.46465800  1
  O  O4  1  0.23430300  0.76246900  0.13914800  1
  O  O5  1  0.21551200  0.73617600  0.60378200  1
  O  O6  1  0.75734300  0.25365000  0.35694800  1
  O  O7  1  0.76386500  0.23770800  0.86286500  1
  O  O8  1  0.76932300  0.57756200  0.53515000  1
  O  O9  1  0.79505300  0.58850600  0.07148200  1
  O  O10  1  0.78688400  0.91260000  0.74660400  1
  O  O11  1  0.77614600  0.90478800  0.20700300  1
loop_
_geom_bond_atom_site_label_1
_geom_bond_atom_site_label_2
_geom_bond_distance
_geom_bond_site_symmetry_2
Li0 O1 2.024351 1_555
Li0 O6 2.111754 1_555
Li0 O7 2.147622 1_554
Li0 O2 2.154040 1_554
Li0 O11 2.199771 1_545
Li0 O0 2.273500 1_554
Li1 O10 2.067249 1_545
Li1 O6 2.081920 1_555
Li1 O7 2.121161 1_555
Li1 O0 2.222954 1_555
Li1 O3 2.240428 1_555
Li1 O1 2.481251 1_555
Li2 O6 1.995529 1_555
Li2 O9 2.124550 1_555
Li2 O3 2.134306 1_555
Li2 O2 2.172210 1_554
Li2 O4 2.214214 1_555
Li2 O8 2.216688 1_555
Li3 O3 2.039108 1_555
Li3 O5 2.041426 1_555
Li3 O2 2.103860 1_555
Li3 O7 2.154680 1_555
Li3 O8 2.178069 1_555
Li4 O1 2.078315 1_565
Li4 O4 2.089915 1_555
Li4 O5 2.097442 1_555
Li4 O11 2.173669 1_555
Li4 O8 2.198293 1_555
Li4 O10 2.489676 1_555
Li5 O10 2.017122 1_555
Li5 O11 2.057967 1_556
Li5 O0 2.080271 1_565
Li5 O4 2.157490 1_556
Li5 O9 2.163846 1_556
Li6 O6 2.033509 1_555
Li6 O1 2.073216 1_655
Li6 O10 2.079768 1_545
Li6 O5 2.097321 1_645
Li6 O11 2.182349 1_545
Li6 O0 2.248061 1_655
Mn0 O0 1.933801 1_554
Mn0 O4 1.942355 1_545
Mn0 O7 1.947837 1_454
Mn0 O1 1.956123 1_555
Mn0 O11 1.960784 1_445
Mn0 O10 1.989058 1_444
Mn1 O6 1.903883 1_555
Mn1 O1 1.956585 1_655
Mn1 O2 1.983634 1_654
Mn1 O9 2.028132 1_555
Mn1 O3 2.252076 1_655
Mn1 O7 2.283171 1_554
Mn2 O0 1.950741 1_655
Mn2 O7 1.961332 1_555
Mn2 O3 1.961563 1_655
Mn2 O8 2.006060 1_555
Mn2 O6 2.182858 1_555
Mn2 O2 2.331363 1_655
Mn3 O11 1.914129 1_455
Mn3 O5 1.924005 1_555
Mn3 O8 1.933970 1_455
Mn3 O4 1.960095 1_555
Mn3 O3 1.970473 1_555
Mn3 O9 2.019173 1_455
Mn4 O10 1.939225 1_455
Mn4 O2 1.948342 1_555
Mn4 O5 1.961550 1_555
Mn4 O9 1.999327 1_456
Mn4 O8 2.258214 1_455
Mn4 O4 2.269088 1_556
