# generated using pymatgen
data_Nd23Mg4Pt7
_symmetry_space_group_name_H-M   'P 1'
_cell_length_a   10.13756849
_cell_length_b   10.13756849
_cell_length_c   22.93899605
_cell_angle_alpha   90.00000000
_cell_angle_beta   90.00000000
_cell_angle_gamma   120.00115888
_symmetry_Int_Tables_number   1
_chemical_formula_structural   Nd23Mg4Pt7
_chemical_formula_sum   'Nd46 Mg8 Pt14'
_cell_volume   2041.58548691
_cell_formula_units_Z   2
loop_
 _symmetry_equiv_pos_site_id
 _symmetry_equiv_pos_as_xyz
  1  'x, y, z'
loop_
 _atom_site_type_symbol
 _atom_site_label
 _atom_site_symmetry_multiplicity
 _atom_site_fract_x
 _atom_site_fract_y
 _atom_site_fract_z
 _atom_site_occupancy
  Nd  Nd0  1  0.12941949  0.87058051  0.36395760  1
  Nd  Nd1  1  0.74114661  0.87057630  0.36395297  1
  Nd  Nd2  1  0.12942370  0.25885339  0.36395297  1
  Nd  Nd3  1  0.87058051  0.12941949  0.86395760  1
  Nd  Nd4  1  0.25885339  0.12942370  0.86395297  1
  Nd  Nd5  1  0.87057630  0.74114661  0.86395297  1
  Nd  Nd6  1  0.20176946  0.79823054  0.21649542  1
  Nd  Nd7  1  0.59644106  0.79821971  0.21649284  1
  Nd  Nd8  1  0.20178029  0.40355894  0.21649284  1
  Nd  Nd9  1  0.79823054  0.20176946  0.71649542  1
  Nd  Nd10  1  0.40355894  0.20178029  0.71649284  1
  Nd  Nd11  1  0.79821971  0.59644106  0.71649284  1
  Nd  Nd12  1  0.20648402  0.79351598  0.05338947  1
  Nd  Nd13  1  0.58702466  0.79351534  0.05339338  1
  Nd  Nd14  1  0.20648466  0.41297534  0.05339338  1
  Nd  Nd15  1  0.79351598  0.20648402  0.55338947  1
  Nd  Nd16  1  0.41297534  0.20648466  0.55339338  1
  Nd  Nd17  1  0.79351534  0.58702466  0.55339338  1
  Nd  Nd18  1  0.21206476  0.78793524  0.50852798  1
  Nd  Nd19  1  0.57586946  0.78794046  0.50853035  1
  Nd  Nd20  1  0.21205954  0.42413054  0.50853035  1
  Nd  Nd21  1  0.78793524  0.21206476  0.00852798  1
  Nd  Nd22  1  0.42413054  0.21205954  0.00853035  1
  Nd  Nd23  1  0.78794046  0.57586946  0.00853035  1
  Nd  Nd24  1  0.53877714  0.46122286  0.41452166  1
  Nd  Nd25  1  0.92243830  0.46121655  0.41452380  1
  Nd  Nd26  1  0.53878345  0.07756170  0.41452380  1
  Nd  Nd27  1  0.46122286  0.53877714  0.91452166  1
  Nd  Nd28  1  0.07756170  0.53878345  0.91452380  1
  Nd  Nd29  1  0.46121655  0.92243830  0.91452380  1
  Nd  Nd30  1  0.54417574  0.45582426  0.14238626  1
  Nd  Nd31  1  0.91165428  0.45582415  0.14238534  1
  Nd  Nd32  1  0.54417585  0.08834572  0.14238534  1
  Nd  Nd33  1  0.45582426  0.54417574  0.64238626  1
  Nd  Nd34  1  0.08834572  0.54417585  0.64238534  1
  Nd  Nd35  1  0.45582415  0.91165428  0.64238534  1
  Nd  Nd36  1  0.33331733  0.66668267  0.35732814  1
  Nd  Nd37  1  0.66668267  0.33331733  0.85732814  1
  Nd  Nd38  1  0.00000088  0.99999912  0.50083537  1
  Nd  Nd39  1  0.99999912  0.00000088  0.00083537  1
  Nd  Nd40  1  0.79324087  0.20675913  0.27888404  1
  Nd  Nd41  1  0.41351816  0.20676301  0.27888693  1
  Nd  Nd42  1  0.79323699  0.58648184  0.27888693  1
  Nd  Nd43  1  0.20675913  0.79324087  0.77888404  1
  Nd  Nd44  1  0.58648184  0.79323699  0.77888693  1
  Nd  Nd45  1  0.20676301  0.41351816  0.77888693  1
  Mg  Mg0  1  0.89299955  0.10700045  0.13565454  1
  Mg  Mg1  1  0.21400356  0.10700504  0.13565372  1
  Mg  Mg2  1  0.89299496  0.78599644  0.13565372  1
  Mg  Mg3  1  0.10700045  0.89299955  0.63565454  1
  Mg  Mg4  1  0.78599644  0.89299496  0.63565372  1
  Mg  Mg5  1  0.10700504  0.21400356  0.63565372  1
  Mg  Mg6  1  0.99999856  0.00000144  0.24974093  1
  Mg  Mg7  1  0.00000144  0.99999856  0.74974093  1
  Pt  Pt0  1  0.47748785  0.52251215  0.28971191  1
  Pt  Pt1  1  0.04500069  0.52250107  0.28970939  1
  Pt  Pt2  1  0.47749893  0.95499931  0.28970939  1
  Pt  Pt3  1  0.52251215  0.47748785  0.78971191  1
  Pt  Pt4  1  0.95499931  0.47749893  0.78970939  1
  Pt  Pt5  1  0.52250107  0.04500069  0.78970939  1
  Pt  Pt6  1  0.85679196  0.14320804  0.43474021  1
  Pt  Pt7  1  0.28642406  0.14321438  0.43474190  1
  Pt  Pt8  1  0.85678562  0.71357594  0.43474190  1
  Pt  Pt9  1  0.14320804  0.85679196  0.93474021  1
  Pt  Pt10  1  0.71357594  0.85678562  0.93474190  1
  Pt  Pt11  1  0.14321438  0.28642406  0.93474190  1
  Pt  Pt12  1  0.33332869  0.66667131  0.13728523  1
  Pt  Pt13  1  0.66667131  0.33332869  0.63728523  1
loop_
_geom_bond_atom_site_label_1
_geom_bond_atom_site_label_2
_geom_bond_distance
_geom_bond_site_symmetry_2
Nd0 Pt8 2.899901 1_455
Nd0 Pt7 2.899901 1_565
Nd0 Pt1 3.614532 1_555
Nd0 Pt2 3.614532 1_555
Nd0 Nd18 3.619904 1_555
Nd1 Pt6 2.899918 1_565
Nd1 Pt8 2.900033 1_555
Nd1 Pt0 3.614324 1_555
Nd1 Pt2 3.614420 1_555
Nd1 Nd19 3.619994 1_555
Nd2 Pt6 2.899918 1_455
Nd2 Pt7 2.900033 1_555
Nd2 Pt0 3.614324 1_555
Nd2 Pt1 3.614420 1_555
Nd2 Nd20 3.619994 1_555
Nd3 Pt10 2.899901 1_545
Nd3 Pt11 2.899901 1_655
Nd3 Pt5 3.614532 1_555
Nd3 Pt4 3.614532 1_555
Nd4 Pt9 2.899918 1_545
Nd4 Pt11 2.900033 1_555
Nd4 Pt3 3.614324 1_555
Nd4 Pt5 3.614420 1_555
Nd5 Pt9 2.899918 1_655
Nd5 Pt10 2.900033 1_555
Nd5 Pt3 3.614324 1_555
Nd5 Pt4 3.614420 1_555
Nd6 Pt12 2.939005 1_555
Nd6 Pt2 2.952475 1_555
Nd6 Pt1 2.952475 1_555
Nd7 Pt12 2.938895 1_555
Nd7 Pt0 2.952388 1_555
Nd7 Pt2 2.952500 1_555
Nd8 Pt12 2.938895 1_555
Nd8 Pt0 2.952388 1_555
Nd8 Pt1 2.952500 1_555
Nd9 Pt13 2.939005 1_555
Nd9 Pt4 2.952475 1_555
Nd9 Pt5 2.952475 1_555
Nd10 Pt13 2.938895 1_555
Nd10 Pt3 2.952388 1_555
Nd10 Pt5 2.952500 1_555
Nd10 Nd35 3.657796 1_545
Nd10 Nd33 3.657808 1_555
Nd11 Pt13 2.938895 1_555
Nd11 Pt3 2.952388 1_555
Nd11 Pt4 2.952500 1_555
Nd11 Nd34 3.657796 1_655
Nd11 Nd33 3.657808 1_555
Nd12 Pt9 2.939739 1_554
Nd12 Pt12 2.943516 1_555
Nd12 Nd23 3.816824 1_455
Nd12 Nd22 3.816824 1_565
Nd12 Nd31 3.819430 1_455
Nd12 Nd32 3.819430 1_565
Nd13 Pt10 2.939777 1_554
Nd13 Pt12 2.943472 1_555
Nd13 Nd21 3.816913 1_565
Nd13 Nd23 3.817063 1_555
Nd13 Nd32 3.819372 1_565
Nd13 Nd30 3.819472 1_555
Nd14 Pt11 2.939777 1_554
Nd14 Pt12 2.943472 1_555
Nd14 Nd21 3.816913 1_455
Nd14 Nd22 3.817063 1_555
Nd14 Nd31 3.819372 1_455
Nd14 Nd30 3.819472 1_555
Nd15 Pt6 2.939739 1_555
Nd15 Pt13 2.943516 1_555
Nd15 Nd19 3.816824 1_545
Nd15 Nd20 3.816824 1_655
Nd15 Nd35 3.819430 1_545
Nd15 Nd34 3.819430 1_655
Nd16 Pt7 2.939777 1_555
Nd16 Pt13 2.943472 1_555
Nd16 Nd18 3.816913 1_545
Nd16 Nd20 3.817063 1_555
Nd16 Nd35 3.819372 1_545
Nd16 Nd33 3.819472 1_555
Nd17 Pt8 2.939777 1_555
Nd17 Pt13 2.943472 1_555
Nd17 Nd18 3.816913 1_655
Nd17 Nd19 3.817063 1_555
Nd17 Nd34 3.819372 1_655
Nd17 Nd33 3.819472 1_555
Nd18 Nd20 3.688069 1_555
Nd18 Nd19 3.688069 1_555
Nd18 Pt8 3.699995 1_455
Nd18 Pt7 3.699995 1_565
Nd18 Nd38 3.727784 1_555
Nd18 Nd35 3.742779 1_555
Nd18 Nd34 3.742779 1_555
Nd18 Nd26 3.809951 1_565
Nd18 Nd25 3.809951 1_455
Nd18 Nd36 4.069706 1_555
Nd19 Nd20 3.688083 1_555
Nd19 Pt6 3.699940 1_565
Nd19 Pt8 3.700041 1_555
Nd19 Nd38 3.727754 1_655
Nd19 Nd35 3.742754 1_555
Nd19 Nd33 3.742778 1_555
Nd19 Nd26 3.809958 1_565
Nd19 Nd24 3.810040 1_555
Nd19 Nd36 4.069948 1_555
Nd20 Pt6 3.699940 1_455
Nd20 Pt7 3.700041 1_555
Nd20 Nd38 3.727754 1_545
Nd20 Nd34 3.742754 1_555
Nd20 Nd33 3.742778 1_555
Nd20 Nd25 3.809958 1_455
Nd20 Nd24 3.810040 1_555
Nd20 Nd36 4.069948 1_555
Nd21 Nd3 3.619904 1_554
Nd21 Nd22 3.688069 1_555
Nd21 Nd23 3.688069 1_555
Nd21 Pt10 3.699995 1_544
Nd21 Pt11 3.699995 1_654
Nd21 Nd39 3.727784 1_555
Nd21 Nd31 3.742779 1_555
Nd21 Nd32 3.742779 1_555
Nd21 Nd28 3.809951 1_654
Nd21 Nd29 3.809951 1_544
Nd21 Nd37 4.069706 1_554
Nd22 Nd4 3.619994 1_554
Nd22 Nd23 3.688083 1_555
Nd22 Pt9 3.699940 1_544
Nd22 Pt11 3.700041 1_554
Nd22 Nd39 3.727754 1_455
Nd22 Nd32 3.742754 1_555
Nd22 Nd30 3.742778 1_555
Nd22 Nd29 3.809958 1_544
Nd22 Nd27 3.810040 1_554
Nd22 Nd37 4.069948 1_554
Nd23 Nd5 3.619994 1_554
Nd23 Pt9 3.699940 1_654
Nd23 Pt10 3.700041 1_554
Nd23 Nd39 3.727754 1_565
Nd23 Nd31 3.742754 1_555
Nd23 Nd30 3.742778 1_555
Nd23 Nd28 3.809958 1_654
Nd23 Nd27 3.810040 1_554
Nd23 Nd37 4.069948 1_554
Nd24 Pt8 2.984161 1_555
Nd24 Pt7 2.984161 1_555
Nd24 Pt0 3.058590 1_555
Nd25 Pt6 2.984212 1_555
Nd25 Pt8 2.984256 1_555
Nd25 Pt1 3.058634 1_655
Nd26 Pt6 2.984212 1_555
Nd26 Pt7 2.984256 1_555
Nd26 Pt2 3.058634 1_545
Nd27 Pt10 2.984161 1_555
Nd27 Pt11 2.984161 1_555
Nd27 Pt3 3.058590 1_555
Nd28 Pt9 2.984212 1_555
Nd28 Pt11 2.984256 1_555
Nd28 Pt4 3.058634 1_455
Nd29 Pt9 2.984212 1_555
Nd29 Pt10 2.984256 1_555
Nd29 Pt5 3.058634 1_565
Nd30 Pt0 3.576618 1_555
Nd30 Nd7 3.657808 1_555
Nd30 Nd8 3.657808 1_555
Nd30 Pt12 3.704088 1_555
Nd30 Nd32 3.725339 1_555
Nd30 Nd31 3.725339 1_555
Nd30 Nd41 3.819598 1_555
Nd30 Nd42 3.819598 1_555
Nd31 Pt1 3.576492 1_655
Nd31 Nd8 3.657796 1_655
Nd31 Nd6 3.657815 1_655
Nd31 Pt12 3.703850 1_655
Nd31 Nd32 3.725272 1_555
Nd31 Nd40 3.819580 1_555
Nd31 Nd42 3.819706 1_555
Nd32 Pt2 3.576492 1_545
Nd32 Nd7 3.657796 1_545
Nd32 Nd6 3.657815 1_545
Nd32 Pt12 3.703850 1_545
Nd32 Nd40 3.819580 1_555
Nd32 Nd41 3.819706 1_555
Nd33 Pt3 3.576618 1_555
Nd33 Pt13 3.704088 1_555
Nd33 Nd34 3.725339 1_555
Nd33 Nd35 3.725339 1_555
Nd33 Nd45 3.819598 1_555
Nd33 Nd44 3.819598 1_555
Nd34 Pt4 3.576492 1_455
Nd34 Nd9 3.657815 1_455
Nd34 Pt13 3.703850 1_455
Nd34 Nd35 3.725272 1_555
Nd34 Nd43 3.819580 1_555
Nd34 Nd45 3.819706 1_555
Nd35 Pt5 3.576492 1_565
Nd35 Nd9 3.657815 1_565
Nd35 Pt13 3.703850 1_565
Nd35 Nd43 3.819580 1_555
Nd35 Nd44 3.819706 1_555
Nd36 Pt1 2.968667 1_555
Nd36 Pt2 2.968667 1_555
Nd36 Pt0 2.968857 1_555
Nd37 Pt4 2.968667 1_555
Nd37 Pt5 2.968667 1_555
Nd37 Pt3 2.968857 1_555
Nd38 Pt8 2.936288 1_455
Nd38 Pt7 2.936288 1_565
Nd38 Pt6 2.936305 1_465
Nd39 Pt11 2.936288 1_654
Nd39 Pt10 2.936288 1_544
Nd39 Pt9 2.936305 1_644
Nd40 Pt1 2.941329 1_655
Nd40 Pt2 2.941329 1_545
Nd41 Pt2 2.941412 1_545
Nd41 Pt0 2.941477 1_555
Nd42 Pt1 2.941412 1_655
Nd42 Pt0 2.941477 1_555
Nd43 Pt5 2.941329 1_565
Nd43 Pt4 2.941329 1_455
Nd44 Pt5 2.941412 1_565
Nd44 Pt3 2.941477 1_555
Nd45 Pt4 2.941412 1_455
Nd45 Pt3 2.941477 1_555
Mg0 Mg6 3.221593 1_555
Mg0 Mg2 3.254177 1_545
Mg0 Mg1 3.254177 1_655
Mg0 Nd32 3.449016 1_555
Mg0 Nd31 3.449016 1_555
Mg0 Nd21 3.450695 1_555
Mg0 Nd7 3.586707 1_545
Mg0 Nd8 3.586707 1_655
Mg0 Nd39 3.618583 1_555
Mg0 Nd13 3.663844 1_545
Mg0 Nd14 3.663844 1_655
Mg0 Nd40 3.723313 1_555
Mg1 Mg6 3.221624 1_455
Mg1 Mg2 3.254190 1_445
Mg1 Nd30 3.448952 1_555
Mg1 Nd32 3.449082 1_555
Mg1 Nd22 3.450608 1_555
Mg1 Nd6 3.586689 1_545
Mg1 Nd8 3.586730 1_555
Mg1 Nd39 3.618574 1_455
Mg1 Nd14 3.663882 1_555
Mg1 Nd12 3.663922 1_545
Mg1 Nd41 3.723363 1_555
Mg2 Mg6 3.221624 1_565
Mg2 Nd30 3.448952 1_555
Mg2 Nd31 3.449082 1_555
Mg2 Nd23 3.450608 1_555
Mg2 Nd6 3.586689 1_655
Mg2 Nd7 3.586730 1_555
Mg2 Nd39 3.618574 1_565
Mg2 Nd13 3.663882 1_555
Mg2 Nd12 3.663922 1_655
Mg2 Nd42 3.723363 1_555
Mg3 Mg7 3.221593 1_555
Mg3 Mg4 3.254177 1_455
Mg3 Mg5 3.254177 1_565
Mg3 Nd35 3.449016 1_555
Mg3 Nd34 3.449016 1_555
Mg3 Nd18 3.450695 1_555
Mg3 Nd11 3.586707 1_455
Mg3 Nd10 3.586707 1_565
Mg3 Nd38 3.618583 1_555
Mg3 Nd17 3.663844 1_455
Mg3 Nd16 3.663844 1_565
Mg3 Nd43 3.723313 1_555
Mg4 Mg7 3.221624 1_655
Mg4 Mg5 3.254190 1_665
Mg4 Nd33 3.448952 1_555
Mg4 Nd35 3.449082 1_555
Mg4 Nd19 3.450608 1_555
Mg4 Nd9 3.586689 1_565
Mg4 Nd11 3.586730 1_555
Mg4 Nd38 3.618574 1_655
Mg4 Nd17 3.663882 1_555
Mg4 Nd15 3.663922 1_565
Mg4 Nd44 3.723363 1_555
Mg5 Mg7 3.221624 1_545
Mg5 Nd33 3.448952 1_555
Mg5 Nd34 3.449082 1_555
Mg5 Nd20 3.450608 1_555
Mg5 Nd9 3.586689 1_455
Mg5 Nd10 3.586730 1_555
Mg5 Nd38 3.618574 1_545
Mg5 Nd16 3.663882 1_555
Mg5 Nd15 3.663922 1_455
Mg5 Nd45 3.723363 1_555
Mg6 Nd1 3.468191 1_545
Mg6 Nd2 3.468191 1_655
Mg6 Nd0 3.468239 1_645
Mg6 Nd6 3.624021 1_645
Mg6 Nd7 3.624108 1_545
Mg6 Nd8 3.624108 1_655
Mg6 Nd42 3.691458 1_545
Mg6 Nd41 3.691458 1_655
Mg6 Nd40 3.691472 1_555
Mg7 Nd5 3.468191 1_455
Mg7 Nd4 3.468191 1_565
Mg7 Nd3 3.468239 1_465
Mg7 Nd9 3.624021 1_465
Mg7 Nd11 3.624108 1_455
Mg7 Nd10 3.624108 1_565
Mg7 Nd45 3.691458 1_565
Mg7 Nd44 3.691458 1_455
Mg7 Nd43 3.691472 1_555
