# generated using pymatgen
data_MgAs2WO7
_symmetry_space_group_name_H-M   'P 1'
_cell_length_a   10.22149900
_cell_length_b   7.23914600
_cell_length_c   10.67771503
_cell_angle_alpha   61.99931669
_cell_angle_beta   90.00000000
_cell_angle_gamma   90.00000000
_symmetry_Int_Tables_number   1
_chemical_formula_structural   MgAs2WO7
_chemical_formula_sum   'Mg4 As8 W4 O28'
_cell_volume   697.60956270
_cell_formula_units_Z   4
loop_
 _symmetry_equiv_pos_site_id
 _symmetry_equiv_pos_as_xyz
  1  'x, y, z'
loop_
 _atom_site_type_symbol
 _atom_site_label
 _atom_site_symmetry_multiplicity
 _atom_site_fract_x
 _atom_site_fract_y
 _atom_site_fract_z
 _atom_site_occupancy
  Mg  Mg0  1  0.08617900  0.65926300  0.87905300  1
  Mg  Mg1  1  0.58617900  0.34073700  0.62094700  1
  Mg  Mg2  1  0.91382100  0.34073700  0.12094700  1
  Mg  Mg3  1  0.41382100  0.65926300  0.37905300  1
  As  As0  1  0.77208800  0.57864400  0.79370300  1
  As  As1  1  0.27208800  0.42135600  0.70629700  1
  As  As2  1  0.22791200  0.42135600  0.20629700  1
  As  As3  1  0.72791200  0.57864400  0.29370300  1
  As  As4  1  0.66787800  0.02378000  0.99540700  1
  As  As5  1  0.16787800  0.97622000  0.50459300  1
  As  As6  1  0.33212200  0.97622000  0.00459300  1
  As  As7  1  0.83212200  0.02378000  0.49540700  1
  W  W0  1  0.89838900  0.15782800  0.75584100  1
  W  W1  1  0.39838900  0.84217200  0.74415900  1
  W  W2  1  0.10161100  0.84217200  0.24415900  1
  W  W3  1  0.60161100  0.15782800  0.25584100  1
  O  O0  1  0.70775200  0.15438900  0.10670600  1
  O  O1  1  0.20775200  0.84561100  0.39329400  1
  O  O2  1  0.29224800  0.84561100  0.89329400  1
  O  O3  1  0.79224800  0.15438900  0.60670600  1
  O  O4  1  0.50654600  0.63114900  0.80019500  1
  O  O5  1  0.00654600  0.36885100  0.69980500  1
  O  O6  1  0.49345400  0.36885100  0.19980500  1
  O  O7  1  0.99345400  0.63114900  0.30019500  1
  O  O8  1  0.91402400  0.49575300  0.90440700  1
  O  O9  1  0.41402400  0.50424700  0.59559300  1
  O  O10  1  0.08597600  0.50424700  0.09559300  1
  O  O11  1  0.58597600  0.49575300  0.40440700  1
  O  O12  1  0.85361600  0.75739000  0.62294400  1
  O  O13  1  0.35361600  0.24261000  0.87705600  1
  O  O14  1  0.14638400  0.24261000  0.37705600  1
  O  O15  1  0.64638400  0.75739000  0.12294400  1
  O  O16  1  0.99114700  0.05331800  0.22220100  1
  O  O17  1  0.49114700  0.94668200  0.27779900  1
  O  O18  1  0.00885300  0.94668200  0.77779900  1
  O  O19  1  0.50885300  0.05331800  0.72220100  1
  O  O20  1  0.75841600  0.36660300  0.23987600  1
  O  O21  1  0.25841600  0.63339700  0.26012400  1
  O  O22  1  0.24158400  0.63339700  0.76012400  1
  O  O23  1  0.74158400  0.36660300  0.73987600  1
  O  O24  1  0.65912300  0.01396500  0.45189400  1
  O  O25  1  0.15912300  0.98603500  0.04810600  1
  O  O26  1  0.34087700  0.98603500  0.54810600  1
  O  O27  1  0.84087700  0.01396500  0.95189400  1
loop_
_geom_bond_atom_site_label_1
_geom_bond_atom_site_label_2
_geom_bond_distance
_geom_bond_site_symmetry_2
Mg0 O18 2.002640 1_555
Mg0 O10 2.041827 1_556
Mg0 O8 2.066389 1_455
Mg0 O22 2.096234 1_555
Mg0 O2 2.544048 1_555
Mg1 O19 2.002640 1_555
Mg1 O11 2.041827 1_555
Mg1 O9 2.066389 1_555
Mg1 O23 2.096234 1_555
Mg1 O3 2.544048 1_555
Mg2 O16 2.002640 1_555
Mg2 O8 2.041827 1_554
Mg2 O10 2.066389 1_655
Mg2 O20 2.096234 1_555
Mg2 O0 2.544048 1_555
Mg3 O17 2.002640 1_555
Mg3 O9 2.041827 1_555
Mg3 O11 2.066389 1_555
Mg3 O21 2.096234 1_555
Mg3 O1 2.544048 1_555
As0 O8 1.787778 1_555
As0 O12 1.864934 1_555
As0 O23 1.900567 1_555
As1 O9 1.787778 1_555
As1 O13 1.864934 1_555
As1 O22 1.900567 1_555
As2 O10 1.787778 1_555
As2 O14 1.864934 1_555
As2 O21 1.900567 1_555
As3 O11 1.787778 1_555
As3 O15 1.864934 1_555
As3 O20 1.900567 1_555
As4 O15 1.776452 1_546
As4 O27 1.838160 1_555
As4 O0 1.878160 1_556
As5 O14 1.776452 1_565
As5 O26 1.838160 1_555
As5 O1 1.878160 1_555
As6 O13 1.776452 1_564
As6 O25 1.838160 1_555
As6 O2 1.878160 1_554
As7 O12 1.776452 1_545
As7 O24 1.838160 1_555
As7 O3 1.878160 1_555
O0 W3 1.936673 1_555
O1 W2 1.936673 1_555
O2 W1 1.936673 1_555
O3 W0 1.936673 1_555
O4 W1 1.748025 1_555
O5 W0 1.748025 1_455
O6 W3 1.748025 1_555
O7 W2 1.748025 1_655
O16 W2 1.824751 1_645
O17 W3 1.824751 1_565
O18 W0 1.824751 1_465
O19 W1 1.824751 1_545
O20 W3 2.154122 1_555
O21 W2 2.154122 1_555
O22 W1 2.154122 1_555
O23 W0 2.154122 1_555
O24 W3 1.940466 1_555
O25 W2 1.940466 1_555
O26 W1 1.940466 1_555
O27 W0 1.940466 1_555
