# generated using pymatgen
data_Si3Ag3(SnP3)2
_symmetry_space_group_name_H-M   'P 1'
_cell_length_a   9.07067040
_cell_length_b   9.07067040
_cell_length_c   9.07067040
_cell_angle_alpha   109.47122063
_cell_angle_beta   109.47122063
_cell_angle_gamma   109.47122063
_symmetry_Int_Tables_number   1
_chemical_formula_structural   Si3Ag3(SnP3)2
_chemical_formula_sum   'Si6 Ag6 Sn4 P12'
_cell_volume   574.50824910
_cell_formula_units_Z   2
loop_
 _symmetry_equiv_pos_site_id
 _symmetry_equiv_pos_as_xyz
  1  'x, y, z'
loop_
 _atom_site_type_symbol
 _atom_site_label
 _atom_site_symmetry_multiplicity
 _atom_site_fract_x
 _atom_site_fract_y
 _atom_site_fract_z
 _atom_site_occupancy
  Si  Si0  1  0.25000000  0.75000000  0.50000000  1
  Si  Si1  1  0.75000000  0.50000000  0.25000000  1
  Si  Si2  1  0.75000000  0.25000000  0.50000000  1
  Si  Si3  1  0.50000000  0.25000000  0.75000000  1
  Si  Si4  1  0.50000000  0.75000000  0.25000000  1
  Si  Si5  1  0.25000000  0.50000000  0.75000000  1
  Ag  Ag0  1  0.19894900  0.00000000  0.19894900  1
  Ag  Ag1  1  0.00000000  0.80105100  0.80105100  1
  Ag  Ag2  1  0.00000000  0.19894900  0.19894900  1
  Ag  Ag3  1  0.80105100  0.80105100  0.00000000  1
  Ag  Ag4  1  0.80105100  0.00000000  0.80105100  1
  Ag  Ag5  1  0.19894900  0.19894900  0.00000000  1
  Sn  Sn0  1  0.00000000  0.00000000  0.59046800  1
  Sn  Sn1  1  0.59046800  0.00000000  0.00000000  1
  Sn  Sn2  1  0.00000000  0.59046800  0.00000000  1
  Sn  Sn3  1  0.40953200  0.40953200  0.40953200  1
  P  P0  1  0.00000000  0.49912800  0.24764600  1
  P  P1  1  0.49912800  0.00000000  0.24764600  1
  P  P2  1  0.50087200  0.74851800  0.50087200  1
  P  P3  1  0.24764600  0.49912800  0.00000000  1
  P  P4  1  0.74851800  0.50087200  0.50087200  1
  P  P5  1  0.25148200  0.75235400  0.75235400  1
  P  P6  1  0.75235400  0.25148200  0.75235400  1
  P  P7  1  0.24764600  0.00000000  0.49912800  1
  P  P8  1  0.50087200  0.50087200  0.74851800  1
  P  P9  1  0.00000000  0.24764600  0.49912800  1
  P  P10  1  0.75235400  0.75235400  0.25148200  1
  P  P11  1  0.49912800  0.24764600  0.00000000  1
loop_
_geom_bond_atom_site_label_1
_geom_bond_atom_site_label_2
_geom_bond_distance
_geom_bond_site_symmetry_2
Ag0 P1 2.609038 1_555
Ag0 P7 2.609038 1_555
Ag0 Sn3 3.033676 1_555
Ag0 Sn2 3.033676 1_545
Ag1 P4 2.609038 1_455
Ag1 P5 2.609038 1_555
Ag1 Sn2 3.033676 1_556
Ag1 Sn0 3.033676 1_565
Ag2 P0 2.609038 1_555
Ag2 P9 2.609038 1_555
Ag2 Sn3 3.033676 1_555
Ag2 Sn1 3.033676 1_455
Ag3 P10 2.609038 1_555
Ag3 P8 2.609038 1_554
Ag3 Sn1 3.033676 1_565
Ag3 Sn2 3.033676 1_655
Ag4 P6 2.609038 1_555
Ag4 P2 2.609038 1_545
Ag4 Sn0 3.033676 1_655
Ag4 Sn1 3.033676 1_556
Ag5 P3 2.609038 1_555
Ag5 P11 2.609038 1_555
Ag5 Sn0 3.033676 1_554
Ag5 Sn3 3.033676 1_555
P0 Si1 2.277490 1_455
P0 Si0 2.277490 1_555
P0 Sn2 2.640664 1_555
P1 Si2 2.277490 1_555
P1 Si4 2.277490 1_545
P1 Sn1 2.640664 1_555
P2 Si4 2.277490 1_555
P2 Si0 2.277490 1_555
P2 Sn3 2.640664 1_555
P3 Si5 2.277490 1_554
P3 Si4 2.277490 1_555
P3 Sn2 2.640664 1_555
P4 Si1 2.277490 1_555
P4 Si2 2.277490 1_555
P4 Sn3 2.640664 1_555
P5 Si5 2.277490 1_555
P5 Si0 2.277490 1_555
P5 Sn1 2.640664 1_566
P6 Si2 2.277490 1_555
P6 Si3 2.277490 1_555
P6 Sn2 2.640664 1_656
P7 Si3 2.277490 1_555
P7 Si0 2.277490 1_545
P7 Sn0 2.640664 1_555
P8 Si5 2.277490 1_555
P8 Si3 2.277490 1_555
P8 Sn3 2.640664 1_555
P9 Si5 2.277490 1_555
P9 Si2 2.277490 1_455
P9 Sn0 2.640664 1_555
P10 Si1 2.277490 1_555
P10 Si4 2.277490 1_555
P10 Sn0 2.640664 1_665
P11 Si1 2.277490 1_555
P11 Si3 2.277490 1_554
P11 Sn1 2.640664 1_555
