# generated using pymatgen
data_Pr3Ni7P5
_symmetry_space_group_name_H-M   'P 1'
_cell_length_a   3.94739500
_cell_length_b   16.58188300
_cell_length_c   16.62491897
_cell_angle_alpha   60.16391521
_cell_angle_beta   90.00000000
_cell_angle_gamma   90.00000000
_symmetry_Int_Tables_number   1
_chemical_formula_structural   Pr3Ni7P5
_chemical_formula_sum   'Pr12 Ni28 P20'
_cell_volume   943.95125303
_cell_formula_units_Z   4
loop_
 _symmetry_equiv_pos_site_id
 _symmetry_equiv_pos_as_xyz
  1  'x, y, z'
loop_
 _atom_site_type_symbol
 _atom_site_label
 _atom_site_symmetry_multiplicity
 _atom_site_fract_x
 _atom_site_fract_y
 _atom_site_fract_z
 _atom_site_occupancy
  Pr  Pr0  1  0.00000000  0.11882900  0.64764700  1
  Pr  Pr1  1  0.00000000  0.64715800  0.23374700  1
  Pr  Pr2  1  0.00000000  0.23620900  0.11997300  1
  Pr  Pr3  1  0.50000000  0.87913100  0.35467500  1
  Pr  Pr4  1  0.50000000  0.35351300  0.76482700  1
  Pr  Pr5  1  0.50000000  0.76636300  0.88053600  1
  Pr  Pr6  1  0.00000000  0.38290000  0.44149900  1
  Pr  Pr7  1  0.00000000  0.44155900  0.17583000  1
  Pr  Pr8  1  0.00000000  0.17494000  0.38392700  1
  Pr  Pr9  1  0.50000000  0.61621100  0.55890100  1
  Pr  Pr10  1  0.50000000  0.55921600  0.82476300  1
  Pr  Pr11  1  0.50000000  0.82504100  0.61598900  1
  Ni  Ni0  1  0.00000000  0.93261200  0.82777800  1
  Ni  Ni1  1  0.00000000  0.82713100  0.24007700  1
  Ni  Ni2  1  0.00000000  0.24802300  0.92551400  1
  Ni  Ni3  1  0.50000000  0.07514300  0.17439000  1
  Ni  Ni4  1  0.50000000  0.17463200  0.75209700  1
  Ni  Ni5  1  0.50000000  0.75067300  0.07507300  1
  Ni  Ni6  1  0.00000000  0.29825500  0.65781600  1
  Ni  Ni7  1  0.00000000  0.65872200  0.04300500  1
  Ni  Ni8  1  0.00000000  0.04200100  0.30062000  1
  Ni  Ni9  1  0.50000000  0.69558500  0.34770500  1
  Ni  Ni10  1  0.50000000  0.34390800  0.95733300  1
  Ni  Ni11  1  0.50000000  0.95652500  0.69631800  1
  Ni  Ni12  1  0.00000000  0.71739600  0.77404100  1
  Ni  Ni13  1  0.00000000  0.77411400  0.50830300  1
  Ni  Ni14  1  0.00000000  0.50943600  0.71663000  1
  Ni  Ni15  1  0.50000000  0.28416500  0.22564600  1
  Ni  Ni16  1  0.50000000  0.22561100  0.49159700  1
  Ni  Ni17  1  0.50000000  0.49118400  0.28327300  1
  Ni  Ni18  1  0.00000000  0.98729500  0.56491800  1
  Ni  Ni19  1  0.00000000  0.56477400  0.44744600  1
  Ni  Ni20  1  0.00000000  0.44716800  0.98678000  1
  Ni  Ni21  1  0.50000000  0.01339400  0.43352000  1
  Ni  Ni22  1  0.50000000  0.43526500  0.55151600  1
  Ni  Ni23  1  0.50000000  0.55391400  0.01369600  1
  Ni  Ni24  1  0.00000000  0.08898300  0.05722600  1
  Ni  Ni25  1  0.50000000  0.94277500  0.14868200  1
  Ni  Ni26  1  0.50000000  0.14897500  0.91013400  1
  Ni  Ni27  1  0.50000000  0.90457000  0.93954300  1
  P  P0  1  0.00000000  0.66719800  0.66641200  1
  P  P1  1  0.50000000  0.33326700  0.33356900  1
  P  P2  1  0.00000000  0.81973400  0.98477100  1
  P  P3  1  0.00000000  0.97963400  0.20114700  1
  P  P4  1  0.00000000  0.19555300  0.81845300  1
  P  P5  1  0.50000000  0.18229500  0.02009300  1
  P  P6  1  0.50000000  0.01751100  0.79640800  1
  P  P7  1  0.50000000  0.79620700  0.18687500  1
  P  P8  1  0.00000000  0.60909300  0.92965100  1
  P  P9  1  0.00000000  0.92964800  0.46149500  1
  P  P10  1  0.00000000  0.46154200  0.60873800  1
  P  P11  1  0.50000000  0.39297400  0.07021200  1
  P  P12  1  0.50000000  0.07019500  0.53846200  1
  P  P13  1  0.50000000  0.53777500  0.39115500  1
  P  P14  1  0.00000000  0.87393700  0.72289500  1
  P  P15  1  0.00000000  0.72272500  0.40329400  1
  P  P16  1  0.00000000  0.40472500  0.87232300  1
  P  P17  1  0.50000000  0.12773200  0.27733700  1
  P  P18  1  0.50000000  0.27764200  0.59606000  1
  P  P19  1  0.50000000  0.59531500  0.12765500  1
loop_
_geom_bond_atom_site_label_1
_geom_bond_atom_site_label_2
_geom_bond_distance
_geom_bond_site_symmetry_2
Ni0 P6 2.327826 1_565
Ni0 P6 2.327826 1_465
Ni0 P2 2.335481 1_555
Ni0 P14 2.382243 1_555
Ni0 Ni27 2.589299 1_555
Ni0 Ni27 2.589299 1_455
Ni0 Pr0 3.049843 1_565
Ni0 Pr5 3.139805 1_455
Ni0 Pr5 3.139805 1_555
Ni1 P3 2.277083 1_555
Ni1 P7 2.322072 1_555
Ni1 P7 2.322072 1_455
Ni1 P15 2.384480 1_555
Ni1 Pr1 3.038020 1_555
Ni1 Pr3 3.146951 1_455
Ni1 Pr3 3.146951 1_555
Ni2 P16 2.290712 1_555
Ni2 P4 2.337920 1_555
Ni2 P5 2.418776 1_456
Ni2 P5 2.418776 1_556
Ni2 Pr4 3.072779 1_555
Ni2 Pr4 3.072779 1_455
Ni2 Pr2 3.140003 1_556
Ni3 P17 2.274789 1_555
Ni3 P5 2.280773 1_555
Ni3 P3 2.429100 1_645
Ni3 P3 2.429100 1_545
Ni3 Pr2 3.072908 1_655
Ni3 Pr2 3.072908 1_555
Ni3 Pr3 3.139117 1_545
Ni4 P18 2.288659 1_555
Ni4 P6 2.328266 1_555
Ni4 P4 2.369303 1_555
Ni4 P4 2.369303 1_655
Ni4 Pr0 3.060369 1_555
Ni4 Pr0 3.060369 1_655
Ni4 Pr4 3.076958 1_555
Ni5 P19 2.271520 1_555
Ni5 P7 2.328364 1_555
Ni5 P2 2.397917 1_554
Ni5 P2 2.397917 1_654
Ni5 Pr1 3.048770 1_655
Ni5 Pr1 3.048770 1_555
Ni5 Pr5 3.112914 1_554
Ni6 P18 2.327141 1_455
Ni6 P18 2.327141 1_555
Ni6 P4 2.346646 1_555
Ni6 P10 2.408033 1_555
Ni6 Pr0 3.062844 1_555
Ni6 Pr4 3.085789 1_455
Ni6 Pr4 3.085789 1_555
Ni6 Pr6 3.143323 1_555
Ni7 P2 2.343836 1_554
Ni7 P19 2.347152 1_455
Ni7 P19 2.347152 1_555
Ni7 P8 2.402441 1_554
Ni7 Pr1 3.080164 1_555
Ni7 Pr5 3.095119 1_454
Ni7 Pr5 3.095119 1_554
Ni7 Pr7 3.151336 1_555
Ni8 P3 2.346500 1_545
Ni8 P17 2.349185 1_555
Ni8 P17 2.349185 1_455
Ni8 P9 2.380332 1_545
Ni8 Pr3 3.095454 1_445
Ni8 Pr3 3.095454 1_545
Ni8 Pr2 3.125146 1_555
Ni8 Pr8 3.132937 1_555
Ni9 P15 2.316447 1_555
Ni9 P15 2.316447 1_655
Ni9 P13 2.342754 1_555
Ni9 P7 2.343915 1_555
Ni9 Pr9 3.076026 1_555
Ni9 Pr3 3.102817 1_555
Ni9 Pr1 3.105381 1_655
Ni9 Pr1 3.105381 1_555
Ni10 P5 2.342647 1_556
Ni10 P16 2.343432 1_555
Ni10 P16 2.343432 1_655
Ni10 P11 2.388063 1_556
Ni10 Pr2 3.096921 1_656
Ni10 Pr2 3.096921 1_556
Ni10 Pr4 3.124213 1_555
Ni10 Pr10 3.126384 1_555
Ni11 P14 2.316043 1_655
Ni11 P14 2.316043 1_555
Ni11 P6 2.337925 1_565
Ni11 P12 2.349019 1_565
Ni11 Pr11 3.071509 1_555
Ni11 Pr0 3.102654 1_565
Ni11 Pr0 3.102654 1_665
Ni11 Pr5 3.116611 1_555
Ni12 P14 2.294490 1_555
Ni12 P8 2.301055 1_555
Ni12 P0 2.318736 1_555
Ni12 Pr5 3.019895 1_555
Ni12 Pr5 3.019895 1_455
Ni12 Pr10 3.047206 1_455
Ni12 Pr10 3.047206 1_555
Ni12 Pr11 3.052695 1_455
Ni12 Pr11 3.052695 1_555
Ni13 P15 2.292172 1_555
Ni13 P9 2.293477 1_555
Ni13 P0 2.327095 1_555
Ni13 Pr3 3.004256 1_455
Ni13 Pr3 3.004256 1_555
Ni13 Pr9 3.044198 1_555
Ni13 Pr9 3.044198 1_455
Ni13 Pr11 3.052540 1_555
Ni13 Pr11 3.052540 1_455
Ni14 P16 2.289661 1_555
Ni14 P10 2.294667 1_555
Ni14 P0 2.316729 1_555
Ni14 Pr4 3.026698 1_555
Ni14 Pr4 3.026698 1_455
Ni14 Pr10 3.047150 1_555
Ni14 Pr10 3.047150 1_455
Ni14 Pr9 3.047399 1_555
Ni14 Pr9 3.047399 1_455
Ni15 P17 2.291072 1_555
Ni15 P11 2.300779 1_555
Ni15 P1 2.309920 1_555
Ni15 Pr2 3.000712 1_655
Ni15 Pr2 3.000712 1_555
Ni15 Pr7 3.040089 1_655
Ni15 Pr7 3.040089 1_555
Ni15 Pr8 3.059056 1_655
Ni15 Pr8 3.059056 1_555
Ni16 P12 2.291399 1_555
Ni16 P18 2.291593 1_555
Ni16 P1 2.328573 1_555
Ni16 Pr0 3.031554 1_555
Ni16 Pr0 3.031554 1_655
Ni16 Pr6 3.038109 1_555
Ni16 Pr6 3.038109 1_655
Ni16 Pr8 3.049936 1_655
Ni16 Pr8 3.049936 1_555
Ni17 P13 2.278674 1_555
Ni17 P19 2.286855 1_555
Ni17 P1 2.318910 1_555
Ni17 Pr1 3.023845 1_655
Ni17 Pr1 3.023845 1_555
Ni17 Pr7 3.037398 1_655
Ni17 Pr7 3.037398 1_555
Ni17 Pr6 3.056014 1_655
Ni17 Pr6 3.056014 1_555
Ni18 P12 2.318826 1_565
Ni18 P12 2.318826 1_465
Ni18 P9 2.346377 1_555
Ni18 P14 2.349196 1_555
Ni18 Pr8 3.069096 1_565
Ni18 Pr11 3.095482 1_455
Ni18 Pr11 3.095482 1_555
Ni18 Pr0 3.103811 1_565
Ni19 P13 2.321333 1_555
Ni19 P13 2.321333 1_455
Ni19 P15 2.342145 1_555
Ni19 P10 2.356509 1_555
Ni19 Pr6 3.066202 1_555
Ni19 Pr9 3.103043 1_455
Ni19 Pr9 3.103043 1_555
Ni19 Pr1 3.107863 1_555
Ni20 P11 2.320919 1_456
Ni20 P11 2.320919 1_556
Ni20 P16 2.334235 1_555
Ni20 P8 2.360911 1_555
Ni20 Pr2 3.071223 1_556
Ni20 Pr7 3.097718 1_556
Ni20 Pr10 3.102083 1_555
Ni20 Pr10 3.102083 1_455
Ni21 P9 2.323260 1_645
Ni21 P9 2.323260 1_545
Ni21 P17 2.331974 1_555
Ni21 P12 2.359239 1_555
Ni21 Pr11 3.086990 1_545
Ni21 Pr8 3.090836 1_555
Ni21 Pr8 3.090836 1_655
Ni21 Pr3 3.094919 1_545
Ni22 P10 2.324388 1_555
Ni22 P10 2.324388 1_655
Ni22 P18 2.335340 1_555
Ni22 P13 2.342573 1_555
Ni22 Pr9 3.063360 1_555
Ni22 Pr6 3.094359 1_655
Ni22 Pr6 3.094359 1_555
Ni22 Pr4 3.103263 1_555
Ni23 P19 2.314049 1_555
Ni23 P8 2.326552 1_554
Ni23 P8 2.326552 1_654
Ni23 P11 2.347275 1_555
Ni23 Pr5 3.090458 1_554
Ni23 Pr10 3.098194 1_554
Ni23 Pr7 3.104045 1_555
Ni23 Pr7 3.104045 1_655
Ni24 P3 2.166961 1_545
Ni24 P5 2.391700 1_555
Ni24 P5 2.391700 1_455
Ni24 Pr2 3.095495 1_555
Ni25 P7 2.185030 1_555
Ni25 P3 2.358022 1_555
Ni25 P3 2.358022 1_655
Ni25 Pr3 3.040647 1_555
Ni26 P5 2.156867 1_556
Ni26 P4 2.375666 1_555
Ni26 P4 2.375666 1_655
Ni26 Pr4 3.030880 1_555
Ni27 P6 2.176109 1_565
Ni27 P2 2.321050 1_555
Ni27 P2 2.321050 1_655
Ni27 Ni5 2.422320 1_556
Ni27 Pr5 2.907126 1_555
P0 Pr11 3.043921 1_555
P0 Pr11 3.043921 1_455
P0 Pr9 3.050999 1_555
P0 Pr9 3.050999 1_455
P0 Pr10 3.056404 1_555
P0 Pr10 3.056404 1_455
P1 Pr6 3.043330 1_555
P1 Pr6 3.043330 1_655
P1 Pr8 3.049894 1_655
P1 Pr8 3.049894 1_555
P1 Pr7 3.051441 1_655
P1 Pr7 3.051441 1_555
P2 Pr5 3.034407 1_555
P2 Pr5 3.034407 1_455
P3 Pr3 2.992484 1_455
P3 Pr3 2.992484 1_555
P4 Pr4 3.037651 1_555
P4 Pr4 3.037651 1_455
P5 Pr2 2.988156 1_655
P5 Pr2 2.988156 1_555
P6 Pr0 2.949588 1_655
P6 Pr0 2.949588 1_555
P7 Pr1 2.948681 1_655
P7 Pr1 2.948681 1_555
P8 Pr10 3.009187 1_555
P8 Pr10 3.009187 1_455
P8 Pr5 3.040424 1_555
P8 Pr5 3.040424 1_455
P9 Pr11 3.011328 1_555
P9 Pr11 3.011328 1_455
P9 Pr3 3.038274 1_555
P9 Pr3 3.038274 1_455
P10 Pr9 3.007531 1_455
P10 Pr9 3.007531 1_555
P10 Pr4 3.035260 1_455
P10 Pr4 3.035260 1_555
P11 Pr7 3.005871 1_655
P11 Pr7 3.005871 1_555
P11 Pr2 3.032697 1_655
P11 Pr2 3.032697 1_555
P12 Pr8 3.012062 1_555
P12 Pr8 3.012062 1_655
P12 Pr0 3.049155 1_555
P12 Pr0 3.049155 1_655
P13 Pr6 3.008731 1_655
P13 Pr6 3.008731 1_555
P13 Pr1 3.051308 1_655
P13 Pr1 3.051308 1_555
P14 Pr11 3.024159 1_555
P14 Pr11 3.024159 1_455
P14 Pr5 3.048621 1_455
P14 Pr5 3.048621 1_555
P15 Pr9 3.026691 1_455
P15 Pr9 3.026691 1_555
P15 Pr3 3.031366 1_555
P15 Pr3 3.031366 1_455
P16 Pr10 3.011270 1_455
P16 Pr10 3.011270 1_555
P16 Pr4 3.052942 1_455
P16 Pr4 3.052942 1_555
P17 Pr8 3.004778 1_555
P17 Pr8 3.004778 1_655
P17 Pr2 3.048411 1_555
P17 Pr2 3.048411 1_655
P18 Pr6 3.013613 1_655
P18 Pr6 3.013613 1_555
P18 Pr0 3.052639 1_655
P18 Pr0 3.052639 1_555
P19 Pr7 3.000896 1_555
P19 Pr7 3.000896 1_655
P19 Pr1 3.042054 1_655
P19 Pr1 3.042054 1_555
