# generated using pymatgen
data_Yb5Pt9
_symmetry_space_group_name_H-M   'P 1'
_cell_length_a   9.71615100
_cell_length_b   9.71615100
_cell_length_c   5.68812000
_cell_angle_alpha   90.00000000
_cell_angle_beta   90.00000000
_cell_angle_gamma   90.00000000
_symmetry_Int_Tables_number   1
_chemical_formula_structural   Yb5Pt9
_chemical_formula_sum   'Yb10 Pt18'
_cell_volume   536.97894980
_cell_formula_units_Z   2
loop_
 _symmetry_equiv_pos_site_id
 _symmetry_equiv_pos_as_xyz
  1  'x, y, z'
loop_
 _atom_site_type_symbol
 _atom_site_label
 _atom_site_symmetry_multiplicity
 _atom_site_fract_x
 _atom_site_fract_y
 _atom_site_fract_z
 _atom_site_occupancy
  Yb  Yb0  1  0.45351300  0.81190500  0.00000000  1
  Yb  Yb1  1  0.54648700  0.18809500  0.00000000  1
  Yb  Yb2  1  0.18809500  0.54648700  0.00000000  1
  Yb  Yb3  1  0.81190500  0.45351300  0.00000000  1
  Yb  Yb4  1  0.50000000  0.50000000  0.50000000  1
  Yb  Yb5  1  0.31190500  0.04648700  0.50000000  1
  Yb  Yb6  1  0.68809500  0.95351300  0.50000000  1
  Yb  Yb7  1  0.95351300  0.68809500  0.50000000  1
  Yb  Yb8  1  0.04648700  0.31190500  0.50000000  1
  Yb  Yb9  1  0.00000000  0.00000000  0.00000000  1
  Pt  Pt0  1  0.18917800  0.81082200  0.25107200  1
  Pt  Pt1  1  0.81082200  0.18917800  0.74892800  1
  Pt  Pt2  1  0.81082200  0.18917800  0.25107200  1
  Pt  Pt3  1  0.18917800  0.81082200  0.74892800  1
  Pt  Pt4  1  0.43824300  0.77562400  0.50000000  1
  Pt  Pt5  1  0.56175700  0.22437600  0.50000000  1
  Pt  Pt6  1  0.22437600  0.56175700  0.50000000  1
  Pt  Pt7  1  0.77562400  0.43824300  0.50000000  1
  Pt  Pt8  1  0.31082200  0.31082200  0.24892800  1
  Pt  Pt9  1  0.68917800  0.68917800  0.75107200  1
  Pt  Pt10  1  0.68917800  0.68917800  0.24892800  1
  Pt  Pt11  1  0.31082200  0.31082200  0.75107200  1
  Pt  Pt12  1  0.27562400  0.06175700  0.00000000  1
  Pt  Pt13  1  0.72437600  0.93824300  0.00000000  1
  Pt  Pt14  1  0.93824300  0.72437600  0.00000000  1
  Pt  Pt15  1  0.06175700  0.27562400  0.00000000  1
  Pt  Pt16  1  0.00000000  0.00000000  0.50000000  1
  Pt  Pt17  1  0.50000000  0.50000000  0.00000000  1
loop_
_geom_bond_atom_site_label_1
_geom_bond_atom_site_label_2
_geom_bond_distance
_geom_bond_site_symmetry_2
Pt0 Yb0 2.938694 1_555
Pt0 Yb2 2.938694 1_555
Pt0 Yb5 2.944444 1_565
Pt0 Yb7 2.944444 1_455
Pt0 Yb9 2.965913 1_565
Pt1 Yb3 2.938694 1_556
Pt1 Yb1 2.938694 1_556
Pt1 Yb8 2.944444 1_655
Pt1 Yb6 2.944444 1_545
Pt1 Yb9 2.965913 1_656
Pt2 Yb3 2.938694 1_555
Pt2 Yb1 2.938694 1_555
Pt2 Yb8 2.944444 1_655
Pt2 Yb6 2.944444 1_545
Pt2 Yb9 2.965913 1_655
Pt3 Yb0 2.938694 1_556
Pt3 Yb2 2.938694 1_556
Pt3 Yb5 2.944444 1_565
Pt3 Yb7 2.944444 1_455
Pt3 Yb9 2.965913 1_566
Pt4 Yb4 2.744404 1_555
Pt4 Yb0 2.869661 1_555
Pt4 Yb0 2.869661 1_556
Pt4 Yb5 2.903944 1_565
Pt4 Yb6 2.980033 1_555
Pt5 Yb4 2.744404 1_555
Pt5 Yb1 2.869661 1_556
Pt5 Yb1 2.869661 1_555
Pt5 Yb6 2.903944 1_545
Pt5 Yb5 2.980033 1_555
Pt6 Yb4 2.744404 1_555
Pt6 Yb2 2.869661 1_556
Pt6 Yb2 2.869661 1_555
Pt6 Yb7 2.903944 1_455
Pt6 Yb8 2.980033 1_555
Pt7 Yb4 2.744404 1_555
Pt7 Yb3 2.869661 1_555
Pt7 Yb3 2.869661 1_556
Pt7 Yb8 2.903944 1_655
Pt7 Yb7 2.980033 1_555
Pt8 Yb8 2.938694 1_555
Pt8 Yb5 2.938694 1_555
Pt8 Yb2 2.944444 1_555
Pt8 Yb1 2.944444 1_555
Pt8 Yb4 2.965913 1_555
Pt9 Yb6 2.938694 1_555
Pt9 Yb7 2.938694 1_555
Pt9 Yb3 2.944444 1_556
Pt9 Yb0 2.944444 1_556
Pt9 Yb4 2.965913 1_555
Pt10 Yb6 2.938694 1_555
Pt10 Yb7 2.938694 1_555
Pt10 Yb3 2.944444 1_555
Pt10 Yb0 2.944444 1_555
Pt10 Yb4 2.965913 1_555
Pt11 Yb8 2.938694 1_555
Pt11 Yb5 2.938694 1_555
Pt11 Yb2 2.944444 1_556
Pt11 Yb1 2.944444 1_556
Pt11 Yb4 2.965913 1_555
Pt12 Yb9 2.744404 1_555
Pt12 Yb5 2.869661 1_554
Pt12 Yb5 2.869661 1_555
Pt12 Yb1 2.903944 1_555
Pt12 Yb0 2.980033 1_545
Pt13 Yb9 2.744404 1_665
Pt13 Yb6 2.869661 1_555
Pt13 Yb6 2.869661 1_554
Pt13 Yb0 2.903944 1_555
Pt13 Yb1 2.980033 1_565
Pt14 Yb9 2.744404 1_665
Pt14 Yb7 2.869661 1_555
Pt14 Yb7 2.869661 1_554
Pt14 Yb3 2.903944 1_555
Pt14 Yb2 2.980033 1_655
Pt15 Yb9 2.744404 1_555
Pt15 Yb8 2.869661 1_554
Pt15 Yb8 2.869661 1_555
Pt15 Yb2 2.903944 1_555
Pt15 Yb3 2.980033 1_455
Pt16 Yb9 2.844060 1_555
Pt16 Yb9 2.844060 1_556
Pt16 Yb6 3.063990 1_445
Pt16 Yb8 3.063990 1_555
Pt16 Yb7 3.063990 1_445
Pt16 Yb5 3.063990 1_555
Pt17 Yb4 2.844060 1_554
Pt17 Yb4 2.844060 1_555
Pt17 Yb2 3.063990 1_555
Pt17 Yb0 3.063990 1_555
Pt17 Yb3 3.063990 1_555
Pt17 Yb1 3.063990 1_555
