# generated using pymatgen
data_Lu3(SiNi3)2
_symmetry_space_group_name_H-M   'P 1'
_cell_length_a   7.46623190
_cell_length_b   7.46623190
_cell_length_c   7.46623190
_cell_angle_alpha   109.47122063
_cell_angle_beta   109.47122063
_cell_angle_gamma   109.47122063
_symmetry_Int_Tables_number   1
_chemical_formula_structural   Lu3(SiNi3)2
_chemical_formula_sum   'Lu6 Si4 Ni12'
_cell_volume   320.39264282
_cell_formula_units_Z   2
loop_
 _symmetry_equiv_pos_site_id
 _symmetry_equiv_pos_as_xyz
  1  'x, y, z'
loop_
 _atom_site_type_symbol
 _atom_site_label
 _atom_site_symmetry_multiplicity
 _atom_site_fract_x
 _atom_site_fract_y
 _atom_site_fract_z
 _atom_site_occupancy
  Lu  Lu0  1  0.71690000  0.71690000  0.00000000  1
  Lu  Lu1  1  0.28310000  0.00000000  0.28310000  1
  Lu  Lu2  1  0.00000000  0.28310000  0.28310000  1
  Lu  Lu3  1  0.28310000  0.28310000  0.00000000  1
  Lu  Lu4  1  0.71690000  0.00000000  0.71690000  1
  Lu  Lu5  1  0.00000000  0.71690000  0.71690000  1
  Si  Si0  1  0.00000000  0.00000000  0.50000000  1
  Si  Si1  1  0.00000000  0.50000000  0.00000000  1
  Si  Si2  1  0.50000000  0.00000000  0.00000000  1
  Si  Si3  1  0.50000000  0.50000000  0.50000000  1
  Ni  Ni0  1  0.33160800  0.33160800  0.66321600  1
  Ni  Ni1  1  0.66839200  0.00000000  0.33160800  1
  Ni  Ni2  1  0.00000000  0.66839200  0.33160800  1
  Ni  Ni3  1  0.66839200  0.33160800  0.00000000  1
  Ni  Ni4  1  0.33160800  0.66321600  0.33160800  1
  Ni  Ni5  1  0.00000000  0.33160800  0.66839200  1
  Ni  Ni6  1  0.33160800  0.66839200  0.00000000  1
  Ni  Ni7  1  0.33160800  0.00000000  0.66839200  1
  Ni  Ni8  1  0.66321600  0.33160800  0.33160800  1
  Ni  Ni9  1  0.66839200  0.66839200  0.33678400  1
  Ni  Ni10  1  0.66839200  0.33678400  0.66839200  1
  Ni  Ni11  1  0.33678400  0.66839200  0.66839200  1
loop_
_geom_bond_atom_site_label_1
_geom_bond_atom_site_label_2
_geom_bond_distance
_geom_bond_site_symmetry_2
Lu0 Ni6 2.777028 1_555
Lu0 Ni3 2.777028 1_555
Lu0 Ni9 2.777028 1_555
Lu0 Ni0 2.777028 1_554
Lu0 Ni2 2.889305 1_655
Lu0 Ni10 2.889305 1_554
Lu0 Ni11 2.889305 1_554
Lu0 Ni1 2.889305 1_565
Lu0 Si0 3.061405 1_665
Lu0 Si3 3.061405 1_554
Lu0 Si1 3.061405 1_655
Lu0 Si2 3.061405 1_565
Lu1 Ni10 2.777028 1_555
Lu1 Ni4 2.777028 1_545
Lu1 Ni7 2.777028 1_555
Lu1 Ni1 2.777028 1_555
Lu1 Ni2 2.889305 1_545
Lu1 Ni0 2.889305 1_555
Lu1 Ni6 2.889305 1_545
Lu1 Ni8 2.889305 1_555
Lu1 Si3 3.061405 1_555
Lu1 Si0 3.061405 1_555
Lu1 Si1 3.061405 1_545
Lu1 Si2 3.061405 1_555
Lu2 Ni8 2.777028 1_455
Lu2 Ni5 2.777028 1_555
Lu2 Ni2 2.777028 1_555
Lu2 Ni11 2.777028 1_555
Lu2 Ni4 2.889305 1_555
Lu2 Ni3 2.889305 1_455
Lu2 Ni0 2.889305 1_555
Lu2 Ni1 2.889305 1_455
Lu2 Si3 3.061405 1_555
Lu2 Si0 3.061405 1_555
Lu2 Si1 3.061405 1_555
Lu2 Si2 3.061405 1_455
Lu3 Ni6 2.777028 1_555
Lu3 Ni3 2.777028 1_555
Lu3 Ni0 2.777028 1_554
Lu3 Ni9 2.777028 1_555
Lu3 Ni4 2.889305 1_555
Lu3 Ni8 2.889305 1_555
Lu3 Ni7 2.889305 1_554
Lu3 Ni5 2.889305 1_554
Lu3 Si3 3.061405 1_555
Lu3 Si1 3.061405 1_555
Lu3 Si0 3.061405 1_554
Lu3 Si2 3.061405 1_555
Lu4 Ni10 2.777028 1_555
Lu4 Ni4 2.777028 1_545
Lu4 Ni7 2.777028 1_555
Lu4 Ni1 2.777028 1_555
Lu4 Ni9 2.889305 1_545
Lu4 Ni3 2.889305 1_556
Lu4 Ni5 2.889305 1_655
Lu4 Ni11 2.889305 1_545
Lu4 Si3 3.061405 1_545
Lu4 Si1 3.061405 1_656
Lu4 Si0 3.061405 1_655
Lu4 Si2 3.061405 1_556
Lu5 Ni11 2.777028 1_555
Lu5 Ni8 2.777028 1_455
Lu5 Ni5 2.777028 1_555
Lu5 Ni2 2.777028 1_555
Lu5 Ni9 2.889305 1_455
Lu5 Ni10 2.889305 1_455
Lu5 Ni7 2.889305 1_565
Lu5 Ni6 2.889305 1_556
Lu5 Si0 3.061405 1_565
Lu5 Si3 3.061405 1_455
Lu5 Si1 3.061405 1_556
Lu5 Si2 3.061405 1_566
Ni0 Si0 2.373898 1_555
Ni0 Si3 2.373898 1_555
Ni0 Ni10 2.489011 1_555
Ni0 Ni7 2.489011 1_555
Ni0 Ni5 2.489011 1_555
Ni0 Ni11 2.489011 1_555
Ni1 Si2 2.373898 1_555
Ni1 Si0 2.373898 1_655
Ni1 Ni6 2.489011 1_545
Ni1 Ni5 2.489011 1_655
Ni1 Ni8 2.489011 1_555
Ni1 Ni9 2.489011 1_545
Ni2 Si1 2.373898 1_555
Ni2 Si0 2.373898 1_565
Ni2 Ni7 2.489011 1_565
Ni2 Ni4 2.489011 1_555
Ni2 Ni9 2.489011 1_455
Ni2 Ni3 2.489011 1_455
Ni3 Si2 2.373898 1_555
Ni3 Si1 2.373898 1_655
Ni3 Ni8 2.489011 1_555
Ni3 Ni7 2.489011 1_554
Ni4 Si3 2.373898 1_555
Ni4 Si1 2.373898 1_555
Ni4 Ni9 2.489011 1_555
Ni4 Ni6 2.489011 1_555
Ni5 Si0 2.373898 1_555
Ni5 Si1 2.373898 1_556
Ni5 Ni6 2.489011 1_556
Ni6 Si2 2.373898 1_565
Ni6 Si1 2.373898 1_555
Ni7 Si0 2.373898 1_555
Ni7 Si2 2.373898 1_556
Ni8 Si2 2.373898 1_555
Ni8 Si3 2.373898 1_555
Ni8 Ni9 2.489011 1_555
Ni9 Si3 2.373898 1_555
Ni9 Si0 2.373898 1_665
Ni10 Si3 2.373898 1_555
Ni10 Si1 2.373898 1_656
Ni10 Ni3 2.489011 1_556
Ni10 Ni5 2.489011 1_655
Ni10 Ni8 2.489011 1_555
Ni11 Si2 2.373898 1_566
Ni11 Si3 2.373898 1_555
Ni11 Ni6 2.489011 1_556
Ni11 Ni7 2.489011 1_565
Ni11 Ni4 2.489011 1_555
