# generated using pymatgen
data_Y3(Si3Os)4
_symmetry_space_group_name_H-M   'P 1'
_cell_length_a   10.10079663
_cell_length_b   10.10079663
_cell_length_c   8.13975301
_cell_angle_alpha   90.00000000
_cell_angle_beta   90.00000000
_cell_angle_gamma   132.50484181
_symmetry_Int_Tables_number   1
_chemical_formula_structural   Y3(Si3Os)4
_chemical_formula_sum   'Y6 Si24 Os8'
_cell_volume   612.23722627
_cell_formula_units_Z   2
loop_
 _symmetry_equiv_pos_site_id
 _symmetry_equiv_pos_as_xyz
  1  'x, y, z'
loop_
 _atom_site_type_symbol
 _atom_site_label
 _atom_site_symmetry_multiplicity
 _atom_site_fract_x
 _atom_site_fract_y
 _atom_site_fract_z
 _atom_site_occupancy
  Y  Y0  1  0.50226686  0.00226686  0.75000000  1
  Y  Y1  1  0.99773314  0.49773314  0.25000000  1
  Y  Y2  1  0.49773314  0.99773314  0.25000000  1
  Y  Y3  1  0.00226686  0.50226686  0.75000000  1
  Y  Y4  1  0.00000000  0.00000000  -0.00000000  1
  Y  Y5  1  0.50000000  0.50000000  0.50000000  1
  Si  Si0  1  0.79471317  0.20528683  0.50000000  1
  Si  Si1  1  0.70528683  0.29471317  -0.00000000  1
  Si  Si2  1  0.20528683  0.79471317  0.50000000  1
  Si  Si3  1  0.29471317  0.70528683  -0.00000000  1
  Si  Si4  1  0.66643698  0.66643698  0.16619200  1
  Si  Si5  1  0.16643698  0.16643698  0.33380800  1
  Si  Si6  1  0.83356302  0.83356302  0.66619200  1
  Si  Si7  1  0.33356302  0.33356302  0.83380800  1
  Si  Si8  1  0.84382241  0.60930190  0.99551626  1
  Si  Si9  1  0.10930190  0.34382241  0.50448374  1
  Si  Si10  1  0.65617759  0.89069810  0.49551626  1
  Si  Si11  1  0.39069810  0.15617759  0.00448374  1
  Si  Si12  1  0.15617759  0.39069810  0.00448374  1
  Si  Si13  1  0.89069810  0.65617759  0.49551626  1
  Si  Si14  1  0.12020069  0.88570579  0.72656268  1
  Si  Si15  1  0.38570579  0.62020069  0.77343732  1
  Si  Si16  1  0.37979931  0.61429421  0.22656268  1
  Si  Si17  1  0.11429421  0.87979931  0.27343732  1
  Si  Si18  1  0.87979931  0.11429421  0.27343732  1
  Si  Si19  1  0.61429421  0.37979931  0.22656268  1
  Si  Si20  1  0.62020069  0.38570579  0.77343732  1
  Si  Si21  1  0.88570579  0.12020069  0.72656268  1
  Si  Si22  1  0.60930190  0.84382241  0.99551626  1
  Si  Si23  1  0.34382241  0.10930190  0.50448374  1
  Os  Os0  1  0.62757210  0.62757210  0.87226618  1
  Os  Os1  1  0.12757210  0.12757210  0.62773382  1
  Os  Os2  1  0.37242790  0.37242790  0.12773382  1
  Os  Os3  1  0.87242790  0.87242790  0.37226618  1
  Os  Os4  1  0.16854421  0.83145579  -0.00000000  1
  Os  Os5  1  0.33145579  0.66854421  0.50000000  1
  Os  Os6  1  0.83145579  0.16854421  -0.00000000  1
  Os  Os7  1  0.66854421  0.33145579  0.50000000  1
loop_
_geom_bond_atom_site_label_1
_geom_bond_atom_site_label_2
_geom_bond_distance
_geom_bond_site_symmetry_2
Si0 Si9 2.459270 1_655
Si0 Si10 2.459270 1_545
Si0 Si18 2.460025 1_555
Si0 Si21 2.460025 1_555
Si0 Y1 2.981003 1_555
Si0 Y0 2.981003 1_555
Si0 Y2 3.006062 1_545
Si0 Y3 3.006062 1_655
Si1 Si8 2.459270 1_554
Si1 Si11 2.459270 1_555
Si1 Si20 2.460025 1_554
Si1 Si19 2.460025 1_555
Si1 Y1 2.981003 1_555
Si1 Y0 2.981003 1_554
Si1 Y2 3.006062 1_545
Si1 Y3 3.006062 1_654
Si2 Si23 2.459270 1_565
Si2 Y2 2.981003 1_555
Si2 Y3 2.981003 1_555
Si2 Y0 3.006062 1_565
Si2 Y1 3.006062 1_455
Si3 Y2 2.981003 1_555
Si3 Y3 2.981003 1_554
Si3 Y1 3.006062 1_455
Si3 Y0 3.006062 1_564
Si4 Si8 2.621201 1_554
Si4 Y4 3.032138 1_665
Si4 Y5 3.035801 1_555
Si5 Si9 2.621201 1_555
Si5 Y5 3.032138 1_555
Si5 Y4 3.035801 1_555
Si6 Y5 3.032138 1_555
Si6 Y4 3.035801 1_666
Si7 Y4 3.032138 1_556
Si7 Y5 3.035801 1_555
Si8 Y4 3.106634 1_666
Si8 Y3 3.172079 1_655
Si8 Y1 3.216379 1_556
Si9 Y5 3.106634 1_555
Si9 Y3 3.172079 1_555
Si9 Y1 3.216379 1_455
Si10 Si18 2.564550 1_565
Si10 Si6 2.621201 1_555
Si10 Si21 2.650145 1_565
Si10 Y5 3.106634 1_555
Si10 Y2 3.172079 1_555
Si10 Y0 3.216379 1_565
Si11 Si19 2.564550 1_555
Si11 Si7 2.621201 1_554
Si11 Si20 2.650145 1_554
Si11 Y4 3.106634 1_555
Si11 Y2 3.172079 1_545
Si11 Y0 3.216379 1_554
Si12 Si3 2.459270 1_555
Si12 Si16 2.564550 1_555
Si12 Si7 2.621201 1_554
Si12 Si15 2.650145 1_554
Si12 Y4 3.106634 1_555
Si12 Y1 3.172079 1_455
Si12 Y3 3.216379 1_554
Si13 Si2 2.459270 1_655
Si13 Si17 2.564550 1_655
Si13 Si6 2.621201 1_555
Si13 Si14 2.650145 1_655
Si13 Y5 3.106634 1_555
Si13 Y1 3.172079 1_555
Si13 Y3 3.216379 1_655
Si14 Si2 2.460025 1_555
Si14 Si23 2.564550 1_565
Si14 Si6 2.615504 1_455
Si14 Y4 3.107208 1_566
Si14 Y0 3.189976 1_565
Si14 Y3 3.197089 1_555
Si15 Si3 2.460025 1_556
Si15 Si22 2.564550 1_555
Si15 Si7 2.615504 1_555
Si15 Y5 3.107208 1_555
Si15 Y0 3.189976 1_565
Si15 Y3 3.197089 1_555
Si16 Si3 2.460025 1_555
Si16 Si4 2.615504 1_555
Si16 Si22 2.650145 1_554
Si16 Y5 3.107208 1_555
Si16 Y1 3.189976 1_455
Si16 Y2 3.197089 1_555
Si17 Si2 2.460025 1_555
Si17 Si5 2.615504 1_565
Si17 Si23 2.650145 1_565
Si17 Y4 3.107208 1_565
Si17 Y1 3.189976 1_455
Si17 Y2 3.197089 1_555
Si18 Si5 2.615504 1_655
Si18 Si9 2.650145 1_655
Si18 Y4 3.107208 1_655
Si18 Y2 3.189976 1_545
Si18 Y1 3.197089 1_555
Si19 Si4 2.615504 1_555
Si19 Si8 2.650145 1_554
Si19 Y5 3.107208 1_555
Si19 Y2 3.189976 1_545
Si19 Y1 3.197089 1_555
Si20 Si8 2.564550 1_555
Si20 Si7 2.615504 1_555
Si20 Y5 3.107208 1_555
Si20 Y3 3.189976 1_655
Si20 Y0 3.197089 1_555
Si21 Si9 2.564550 1_655
Si21 Si6 2.615504 1_545
Si21 Y4 3.107208 1_656
Si21 Y3 3.189976 1_655
Si21 Y0 3.197089 1_555
Si22 Si3 2.459270 1_556
Si22 Si4 2.621201 1_556
Si22 Y4 3.106634 1_666
Si22 Y0 3.172079 1_565
Si22 Y2 3.216379 1_556
Si23 Si5 2.621201 1_555
Si23 Y5 3.106634 1_555
Si23 Y0 3.172079 1_555
Si23 Y2 3.216379 1_545
Os0 Si6 2.371071 1_555
Os0 Si7 2.412263 1_555
Os0 Si4 2.413286 1_556
Os0 Si8 2.521189 1_555
Os0 Si22 2.521189 1_555
Os0 Si20 2.524940 1_555
Os0 Si15 2.524940 1_555
Os0 Y5 3.202960 1_555
Os0 Y4 3.203262 1_666
Os1 Si7 2.371071 1_555
Os1 Si6 2.412263 1_445
Os1 Si5 2.413286 1_555
Os1 Si23 2.521189 1_555
Os1 Si9 2.521189 1_555
Os1 Si14 2.524940 1_545
Os1 Si21 2.524940 1_455
Os1 Y4 3.202960 1_556
Os1 Y5 3.203262 1_555
Os2 Si5 2.371071 1_555
Os2 Si4 2.412263 1_555
Os2 Si7 2.413286 1_554
Os2 Si12 2.521189 1_555
Os2 Si11 2.521189 1_555
Os2 Si19 2.524940 1_555
Os2 Si16 2.524940 1_555
Os2 Y5 3.202960 1_555
Os2 Y4 3.203262 1_555
Os3 Si4 2.371071 1_555
Os3 Si5 2.412263 1_665
Os3 Si6 2.413286 1_555
Os3 Si13 2.521189 1_555
Os3 Si10 2.521189 1_555
Os3 Si18 2.524940 1_565
Os3 Si17 2.524940 1_655
Os3 Y4 3.202960 1_665
Os3 Y5 3.203262 1_555
Os4 Si3 2.333002 1_555
Os4 Si8 2.418480 1_454
Os4 Si11 2.418480 1_565
Os4 Si17 2.419522 1_555
Os4 Si14 2.419522 1_554
Os4 Y4 3.116567 1_565
Os4 Y2 3.235961 1_555
Os4 Y3 3.235961 1_554
Os4 Y1 3.259061 1_455
Os4 Y0 3.259061 1_564
Os5 Si2 2.333002 1_555
Os5 Si10 2.418480 1_555
Os5 Si9 2.418480 1_555
Os5 Si15 2.419522 1_555
Os5 Si16 2.419522 1_555
Os5 Y5 3.116567 1_555
Os5 Y3 3.235961 1_555
Os5 Y2 3.235961 1_555
Os5 Y1 3.259061 1_455
Os5 Y0 3.259061 1_565
Os6 Si1 2.333002 1_555
Os6 Si22 2.418480 1_544
Os6 Si12 2.418480 1_655
Os6 Si18 2.419522 1_555
Os6 Si21 2.419522 1_554
Os6 Y4 3.116567 1_655
Os6 Y0 3.235961 1_554
Os6 Y1 3.235961 1_555
Os6 Y3 3.259061 1_654
Os6 Y2 3.259061 1_545
Os7 Si0 2.333002 1_555
Os7 Si23 2.418480 1_555
Os7 Si13 2.418480 1_555
Os7 Si19 2.419522 1_555
Os7 Si20 2.419522 1_555
Os7 Y5 3.116567 1_555
Os7 Y1 3.235961 1_555
Os7 Y0 3.235961 1_555
Os7 Y3 3.259061 1_655
Os7 Y2 3.259061 1_545
