# generated using pymatgen
data_TmGeIr
_symmetry_space_group_name_H-M   'P 1'
_cell_length_a   4.24224076
_cell_length_b   6.75480835
_cell_length_c   7.55572032
_cell_angle_alpha   90.00032779
_cell_angle_beta   90.00000000
_cell_angle_gamma   90.00000000
_symmetry_Int_Tables_number   1
_chemical_formula_structural   TmGeIr
_chemical_formula_sum   'Tm4 Ge4 Ir4'
_cell_volume   216.51311974
_cell_formula_units_Z   4
loop_
 _symmetry_equiv_pos_site_id
 _symmetry_equiv_pos_as_xyz
  1  'x, y, z'
loop_
 _atom_site_type_symbol
 _atom_site_label
 _atom_site_symmetry_multiplicity
 _atom_site_fract_x
 _atom_site_fract_y
 _atom_site_fract_z
 _atom_site_occupancy
  Tm  Tm0  1  0.25000000  0.50742133  0.69249379  1
  Tm  Tm1  1  0.25000000  0.00742076  0.80750638  1
  Tm  Tm2  1  0.75000000  0.49257867  0.30750621  1
  Tm  Tm3  1  0.75000000  0.99257924  0.19249362  1
  Ge  Ge0  1  0.25000000  0.78961160  0.38716329  1
  Ge  Ge1  1  0.25000000  0.28961032  0.11283620  1
  Ge  Ge2  1  0.75000000  0.21038840  0.61283671  1
  Ge  Ge3  1  0.75000000  0.71038968  0.88716380  1
  Ir  Ir0  1  0.25000000  0.16039947  0.43616344  1
  Ir  Ir1  1  0.25000000  0.66039852  0.06383541  1
  Ir  Ir2  1  0.75000000  0.83960053  0.56383656  1
  Ir  Ir3  1  0.75000000  0.33960148  0.93616459  1
loop_
_geom_bond_atom_site_label_1
_geom_bond_atom_site_label_2
_geom_bond_distance
_geom_bond_site_symmetry_2
Ge0 Ir2 2.528855 1_455
Ge0 Ir2 2.528855 1_555
Ge0 Ir0 2.531815 1_565
Ge0 Ir1 2.594205 1_555
Ge0 Tm3 2.922720 1_555
Ge0 Tm3 2.922720 1_455
Ge0 Tm2 2.981111 1_555
Ge0 Tm2 2.981111 1_455
Ge0 Tm0 2.992597 1_555
Ge1 Ir3 2.528852 1_554
Ge1 Ir3 2.528852 1_454
Ge1 Ir1 2.531822 1_555
Ge1 Ir0 2.594205 1_555
Ge1 Tm2 2.922716 1_455
Ge1 Tm2 2.922716 1_555
Ge1 Tm3 2.981108 1_545
Ge1 Tm3 2.981108 1_445
Ge1 Tm1 2.992573 1_554
Ge2 Ir0 2.528855 1_555
Ge2 Ir0 2.528855 1_655
Ge2 Ir2 2.531815 1_545
Ge2 Ir3 2.594205 1_555
Ge2 Tm1 2.922720 1_655
Ge2 Tm1 2.922720 1_555
Ge2 Tm0 2.981111 1_555
Ge2 Tm0 2.981111 1_655
Ge2 Tm2 2.992597 1_555
Ge3 Ir1 2.528852 1_656
Ge3 Ir1 2.528852 1_556
Ge3 Ir3 2.531822 1_555
Ge3 Ir2 2.594205 1_555
Ge3 Tm0 2.922716 1_655
Ge3 Tm0 2.922716 1_555
Ge3 Tm1 2.981108 1_665
Ge3 Tm1 2.981108 1_565
Ge3 Tm3 2.992573 1_556
Ir0 Tm1 2.990006 1_555
Ir0 Tm3 3.028831 1_545
Ir0 Tm3 3.028831 1_445
Ir0 Tm0 3.040664 1_555
Ir0 Tm2 3.237101 1_455
Ir0 Tm2 3.237101 1_555
Ir1 Tm0 2.989982 1_554
Ir1 Tm2 3.028842 1_455
Ir1 Tm2 3.028842 1_555
Ir1 Tm1 3.040676 1_564
Ir1 Tm3 3.237102 1_455
Ir1 Tm3 3.237102 1_555
Ir2 Tm3 2.990006 1_555
Ir2 Tm1 3.028831 1_565
Ir2 Tm1 3.028831 1_665
Ir2 Tm2 3.040664 1_555
Ir2 Tm0 3.237101 1_555
Ir2 Tm0 3.237101 1_655
Ir3 Tm2 2.989982 1_556
Ir3 Tm0 3.028842 1_555
Ir3 Tm0 3.028842 1_655
Ir3 Tm3 3.040676 1_546
Ir3 Tm1 3.237102 1_655
Ir3 Tm1 3.237102 1_555
