# generated using pymatgen
data_Mg14ZrV
_symmetry_space_group_name_H-M   'P 1'
_cell_length_a   6.38584011
_cell_length_b   6.27538940
_cell_length_c   10.19432706
_cell_angle_alpha   90.00000000
_cell_angle_beta   90.00000000
_cell_angle_gamma   119.42948245
_symmetry_Int_Tables_number   1
_chemical_formula_structural   Mg14ZrV
_chemical_formula_sum   'Mg14 Zr1 V1'
_cell_volume   355.80826995
_cell_formula_units_Z   1
loop_
 _symmetry_equiv_pos_site_id
 _symmetry_equiv_pos_as_xyz
  1  'x, y, z'
loop_
 _atom_site_type_symbol
 _atom_site_label
 _atom_site_symmetry_multiplicity
 _atom_site_fract_x
 _atom_site_fract_y
 _atom_site_fract_z
 _atom_site_occupancy
  Mg  Mg0  1  0.16683826  0.33341863  0.62500000  1
  Mg  Mg1  1  0.16564545  0.83282222  0.62500000  1
  Mg  Mg2  1  0.66124749  0.32629124  0.12500000  1
  Mg  Mg3  1  0.66555416  0.33372423  0.62500000  1
  Mg  Mg4  1  0.66124749  0.83495525  0.12500000  1
  Mg  Mg5  1  0.66555416  0.83182893  0.62500000  1
  Mg  Mg6  1  0.33069398  0.16376210  0.37076765  1
  Mg  Mg7  1  0.33069398  0.16376210  0.87923235  1
  Mg  Mg8  1  0.33069398  0.66693288  0.37076765  1
  Mg  Mg9  1  0.33069398  0.66693288  0.87923235  1
  Mg  Mg10  1  0.83880136  0.16940118  0.37542584  1
  Mg  Mg11  1  0.83880136  0.16940118  0.87457416  1
  Mg  Mg12  1  0.84125553  0.67062827  0.36748171  1
  Mg  Mg13  1  0.84125553  0.67062827  0.88251829  1
  Zr  Zr0  1  0.16409406  0.33204653  0.12500000  1
  V  V0  1  0.16692922  0.83346411  0.12500000  1
loop_
_geom_bond_atom_site_label_1
_geom_bond_atom_site_label_2
_geom_bond_distance
_geom_bond_site_symmetry_2
Mg0 Mg10 3.130798 1_455
Mg0 Mg11 3.130798 1_455
Mg0 Mg1 3.137702 1_555
Mg0 Mg1 3.137702 1_545
Mg0 Mg6 3.168622 1_555
Mg0 Mg7 3.168622 1_555
Mg0 Mg8 3.168628 1_555
Mg0 Mg9 3.168628 1_555
Mg0 Mg5 3.183778 1_555
Mg0 Mg3 3.183778 1_555
Mg0 Mg5 3.202063 1_445
Mg0 Mg3 3.202063 1_455
Mg1 Mg8 3.160675 1_555
Mg1 Mg9 3.160675 1_555
Mg1 Mg7 3.160681 1_565
Mg1 Mg6 3.160681 1_565
Mg1 Mg12 3.185426 1_455
Mg1 Mg13 3.185426 1_455
Mg1 Mg3 3.190445 1_455
Mg1 Mg5 3.190445 1_455
Mg1 Mg3 3.195404 1_565
Mg1 Mg5 3.195404 1_555
Mg2 Mg4 3.083325 1_545
Mg2 Mg7 3.107653 1_554
Mg2 Mg6 3.107653 1_555
Mg2 V0 3.152050 1_545
Mg2 Mg4 3.192065 1_555
Mg2 Zr0 3.192643 1_555
Mg2 Zr0 3.193507 1_655
Mg2 V0 3.233811 1_655
Mg3 Mg5 3.125801 1_555
Mg3 Mg5 3.149588 1_545
Mg3 Mg6 3.191544 1_555
Mg3 Mg7 3.191544 1_555
Mg4 Mg9 3.107653 1_554
Mg4 Mg8 3.107653 1_555
Mg4 V0 3.152050 1_555
Mg4 Zr0 3.192643 1_555
Mg4 Zr0 3.193506 1_665
Mg4 V0 3.233811 1_655
Mg5 Mg9 3.191545 1_555
Mg5 Mg8 3.191545 1_555
Mg6 V0 3.088204 1_545
Mg6 Zr0 3.102962 1_555
Mg6 Mg8 3.117797 1_545
Mg6 Mg8 3.157593 1_555
Mg7 V0 3.088204 1_546
Mg7 Zr0 3.102962 1_556
Mg7 Mg9 3.117797 1_545
Mg7 Mg9 3.157593 1_555
Mg8 V0 3.088198 1_555
Mg8 Zr0 3.102968 1_555
Mg9 V0 3.088198 1_556
Mg9 Zr0 3.102968 1_556
Mg10 Zr0 3.129008 1_655
Mg10 Mg12 3.138769 1_545
Mg10 Mg12 3.138769 1_555
Mg10 Mg2 3.141547 1_555
Mg10 Mg4 3.141553 1_545
Mg10 Mg3 3.143499 1_555
Mg10 Mg5 3.143505 1_545
Mg10 Mg8 3.159042 1_655
Mg10 Mg6 3.159043 1_655
Mg10 Mg8 3.227801 1_545
Mg10 Mg6 3.227801 1_555
Mg11 Zr0 3.129008 1_656
Mg11 Mg13 3.138769 1_545
Mg11 Mg13 3.138769 1_555
Mg11 Mg2 3.141547 1_556
Mg11 Mg4 3.141553 1_546
Mg11 Mg3 3.143499 1_555
Mg11 Mg5 3.143505 1_545
Mg11 Mg9 3.159042 1_655
Mg11 Mg7 3.159043 1_655
Mg11 Mg9 3.227801 1_545
Mg11 Mg7 3.227801 1_555
Mg12 V0 3.064543 1_655
Mg12 Mg4 3.108074 1_555
Mg12 Mg2 3.108080 1_555
Mg12 Mg6 3.137114 1_665
Mg12 Mg8 3.137114 1_655
Mg12 Mg5 3.207710 1_555
Mg12 Mg3 3.207716 1_555
Mg12 Mg6 3.249205 1_555
Mg12 Mg8 3.249205 1_555
Mg13 V0 3.064543 1_656
Mg13 Mg4 3.108074 1_556
Mg13 Mg2 3.108080 1_556
Mg13 Mg7 3.137114 1_665
Mg13 Mg9 3.137114 1_655
Mg13 Mg5 3.207710 1_555
Mg13 Mg3 3.207716 1_555
Mg13 Mg7 3.249205 1_555
Mg13 Mg9 3.249205 1_555
V0 Zr0 3.137734 1_555
V0 Zr0 3.137734 1_565
