# generated using pymatgen
data_BaGaB4H3O10
_symmetry_space_group_name_H-M   'P 1'
_cell_length_a   7.19957400
_cell_length_b   7.25047003
_cell_length_c   10.03610722
_cell_angle_alpha   107.41846257
_cell_angle_beta   90.25272526
_cell_angle_gamma   119.51803100
_symmetry_Int_Tables_number   1
_chemical_formula_structural   BaGaB4H3O10
_chemical_formula_sum   'Ba2 Ga2 B8 H6 O20'
_cell_volume   427.64111007
_cell_formula_units_Z   2
loop_
 _symmetry_equiv_pos_site_id
 _symmetry_equiv_pos_as_xyz
  1  'x, y, z'
loop_
 _atom_site_type_symbol
 _atom_site_label
 _atom_site_symmetry_multiplicity
 _atom_site_fract_x
 _atom_site_fract_y
 _atom_site_fract_z
 _atom_site_occupancy
  Ba  Ba0  1  0.37367200  0.59344900  0.70646700  1
  Ba  Ba1  1  0.62632800  0.40655100  0.29353300  1
  Ga  Ga0  1  0.77282600  0.29123200  0.62012500  1
  Ga  Ga1  1  0.22717400  0.70876800  0.37987500  1
  B  B0  1  0.99399400  0.69658100  0.70424700  1
  B  B1  1  0.00600600  0.30341900  0.29575300  1
  B  B2  1  0.90754300  0.98226700  0.65393700  1
  B  B3  1  0.09245700  0.01773300  0.34606300  1
  B  B4  1  0.29450700  0.10393700  0.64239200  1
  B  B5  1  0.70549300  0.89606300  0.35760800  1
  B  B6  1  0.71599000  0.33372300  0.90769200  1
  B  B7  1  0.28401000  0.66627700  0.09230800  1
  H  H0  1  0.53308500  0.08565700  0.08960400  1
  H  H1  1  0.46691500  0.91434300  0.91039600  1
  H  H2  1  0.14350000  0.29487100  0.02287200  1
  H  H3  1  0.85650000  0.70512900  0.97712800  1
  H  H4  1  0.24893000  0.16813600  0.93724100  1
  H  H5  1  0.75107000  0.83186400  0.06275900  1
  O  O0  1  0.83672700  0.76478300  0.69296300  1
  O  O1  1  0.16327300  0.23521700  0.30703700  1
  O  O2  1  0.76139800  0.02568900  0.62348700  1
  O  O3  1  0.23860200  0.97431100  0.37651300  1
  O  O4  1  0.12689500  0.15254200  0.64318200  1
  O  O5  1  0.87310500  0.84745800  0.35681800  1
  O  O6  1  0.51775500  0.28667900  0.60095700  1
  O  O7  1  0.48224500  0.71332100  0.39904300  1
  O  O8  1  0.23259000  0.89051700  0.67628200  1
  O  O9  1  0.76741000  0.10948300  0.32371800  1
  O  O10  1  0.03138000  0.57463300  0.60147400  1
  O  O11  1  0.96862000  0.42536700  0.39852600  1
  O  O12  1  0.89445100  0.55861900  0.85100600  1
  O  O13  1  0.10554900  0.44138100  0.14899400  1
  O  O14  1  0.63458500  0.25091200  0.05348200  1
  O  O15  1  0.36541500  0.74908800  0.94651800  1
  O  O16  1  0.62633400  0.20041000  0.83054700  1
  O  O17  1  0.37366700  0.79959000  0.16945300  1
  O  O18  1  0.17890800  0.25309100  0.93313200  1
  O  O19  1  0.82109200  0.74690900  0.06686800  1
loop_
_geom_bond_atom_site_label_1
_geom_bond_atom_site_label_2
_geom_bond_distance
_geom_bond_site_symmetry_2
Ba0 O15 2.349639 1_555
Ba0 H1 2.377096 1_555
Ba0 O10 2.600333 1_555
Ba0 O4 2.637644 1_555
Ba0 O6 2.831558 1_555
Ba0 O8 2.882089 1_555
Ba0 O0 2.949512 1_555
Ba0 O2 3.357077 1_565
Ba0 O7 3.441364 1_555
Ba1 O14 2.349639 1_555
Ba1 H0 2.377096 1_555
Ba1 O11 2.600333 1_555
Ba1 O5 2.637644 1_555
Ba1 O7 2.831558 1_555
Ba1 O9 2.882089 1_555
Ba1 O1 2.949512 1_555
Ba1 O3 3.357077 1_545
Ba1 O6 3.441364 1_555
Ga0 O6 1.828610 1_555
Ga0 O2 1.896722 1_555
Ga0 O10 2.046110 1_655
Ga0 O12 2.348241 1_555
Ga1 O7 1.828610 1_555
Ga1 O3 1.896722 1_555
Ga1 O11 2.046110 1_455
Ga1 O13 2.348241 1_555
B0 O10 1.268486 1_655
B0 O0 1.457213 1_555
B0 O8 1.693262 1_655
B0 O12 1.966868 1_555
B1 O11 1.268486 1_455
B1 O1 1.457213 1_555
B1 O9 1.693262 1_455
B1 O13 1.966868 1_555
B2 O2 1.296449 1_565
B2 O4 1.479830 1_665
B2 O0 1.574530 1_555
B3 O3 1.296449 1_545
B3 O5 1.479830 1_445
B3 O1 1.574530 1_555
B4 O4 1.413481 1_555
B4 O8 1.531519 1_545
B4 O6 1.658044 1_555
B5 O5 1.413481 1_555
B5 O9 1.531519 1_565
B5 O7 1.658044 1_555
B6 O16 0.939745 1_555
B6 O14 1.741153 1_556
B6 O12 1.769380 1_555
B7 O17 0.939746 1_555
B7 O15 1.741153 1_554
B7 O13 1.769380 1_555
H0 O14 1.225014 1_555
H1 O15 1.225014 1_555
H2 O18 0.939511 1_554
H2 O13 1.513045 1_555
H3 O19 0.939511 1_556
H3 O12 1.513045 1_555
H4 O18 0.977891 1_555
H5 O19 0.977891 1_555
