# generated using pymatgen
data_SrV2TeO8
_symmetry_space_group_name_H-M   'P 1'
_cell_length_a   10.33801500
_cell_length_b   11.32277304
_cell_length_c   14.16198121
_cell_angle_alpha   84.00659319
_cell_angle_beta   70.67202128
_cell_angle_gamma   72.59645245
_symmetry_Int_Tables_number   1
_chemical_formula_structural   SrV2TeO8
_chemical_formula_sum   'Sr8 V16 Te8 O64'
_cell_volume   1492.66219117
_cell_formula_units_Z   8
loop_
 _symmetry_equiv_pos_site_id
 _symmetry_equiv_pos_as_xyz
  1  'x, y, z'
loop_
 _atom_site_type_symbol
 _atom_site_label
 _atom_site_symmetry_multiplicity
 _atom_site_fract_x
 _atom_site_fract_y
 _atom_site_fract_z
 _atom_site_occupancy
  Sr  Sr0  1  0.57226500  0.35056300  0.87152500  1
  Sr  Sr1  1  0.42773500  0.64943700  0.12847500  1
  Sr  Sr2  1  0.93139200  0.18497900  0.43256500  1
  Sr  Sr3  1  0.06860800  0.81502100  0.56743500  1
  Sr  Sr4  1  0.93393900  0.17295500  0.93370200  1
  Sr  Sr5  1  0.06606100  0.82704500  0.06629800  1
  Sr  Sr6  1  0.44275100  0.64228600  0.63370500  1
  Sr  Sr7  1  0.55724900  0.35771400  0.36629500  1
  V  V0  1  0.48045700  0.76602300  0.37853500  1
  V  V1  1  0.51954300  0.23397700  0.62146500  1
  V  V2  1  0.65795900  0.91505400  0.55900000  1
  V  V3  1  0.34204100  0.08494600  0.44100000  1
  V  V4  1  0.05933500  0.83235300  0.31824300  1
  V  V5  1  0.94066500  0.16764700  0.68175700  1
  V  V6  1  0.83109000  0.47431100  0.61963100  1
  V  V7  1  0.16891000  0.52568900  0.38036900  1
  V  V8  1  0.34641300  0.08189500  0.94048500  1
  V  V9  1  0.65358700  0.91810500  0.05951500  1
  V  V10  1  0.49275600  0.76656500  0.88365300  1
  V  V11  1  0.50724400  0.23343500  0.11634700  1
  V  V12  1  0.80955600  0.48183800  0.12215200  1
  V  V13  1  0.19044400  0.51816200  0.87784800  1
  V  V14  1  0.07407700  0.82501700  0.81790800  1
  V  V15  1  0.92592300  0.17498300  0.18209200  1
  Te  Te0  1  0.70849500  0.93327900  0.29889100  1
  Te  Te1  1  0.29150500  0.06672100  0.70110900  1
  Te  Te2  1  0.78591000  0.54710400  0.38184400  1
  Te  Te3  1  0.21409000  0.45289600  0.61815600  1
  Te  Te4  1  0.72186300  0.93151000  0.79943400  1
  Te  Te5  1  0.27813700  0.06849000  0.20056600  1
  Te  Te6  1  0.79540300  0.54485200  0.87517500  1
  Te  Te7  1  0.20459700  0.45514800  0.12482500  1
  O  O0  1  0.68336900  0.77312100  0.32823400  1
  O  O1  1  0.31663100  0.22687900  0.67176600  1
  O  O2  1  0.46748000  0.95198600  0.36645300  1
  O  O3  1  0.53252000  0.04801400  0.63354700  1
  O  O4  1  0.71763500  0.96209500  0.42939500  1
  O  O5  1  0.28236500  0.03790500  0.57060500  1
  O  O6  1  0.91968100  0.85221800  0.26228100  1
  O  O7  1  0.08031900  0.14778200  0.73771900  1
  O  O8  1  0.57848700  0.59768000  0.40666400  1
  O  O9  1  0.42151300  0.40232000  0.59333600  1
  O  O10  1  0.79593000  0.38337100  0.36701400  1
  O  O11  1  0.20407000  0.61662900  0.63298600  1
  O  O12  1  0.72882800  0.52885700  0.53486900  1
  O  O13  1  0.27117200  0.47114300  0.46513100  1
  O  O14  1  0.42840100  0.74498600  0.28499200  1
  O  O15  1  0.57159900  0.25501400  0.71500800  1
  O  O16  1  0.33945000  0.78116900  0.48532100  1
  O  O17  1  0.66055000  0.21883100  0.51467900  1
  O  O18  1  0.57247300  0.80859000  0.56842400  1
  O  O19  1  0.42752700  0.19141000  0.43157600  1
  O  O20  1  0.79825700  0.86161300  0.60485300  1
  O  O21  1  0.20174300  0.13838700  0.39514700  1
  O  O22  1  0.19846800  0.83147800  0.21437400  1
  O  O23  1  0.80153200  0.16852200  0.78562600  1
  O  O24  1  0.08198100  0.69329700  0.39652400  1
  O  O25  1  0.91801900  0.30670300  0.60347600  1
  O  O26  1  0.03316700  0.94634400  0.39593700  1
  O  O27  1  0.96683300  0.05365600  0.60406300  1
  O  O28  1  0.71031400  0.49741500  0.73598200  1
  O  O29  1  0.28968600  0.50258500  0.26401800  1
  O  O30  1  0.95492400  0.54729500  0.60890800  1
  O  O31  1  0.04507600  0.45270500  0.39109200  1
  O  O32  1  0.69772300  0.77173700  0.83120100  1
  O  O33  1  0.30227700  0.22826300  0.16879900  1
  O  O34  1  0.47999500  0.95050500  0.86784100  1
  O  O35  1  0.52000500  0.04949500  0.13215900  1
  O  O36  1  0.72561000  0.96369700  0.93023100  1
  O  O37  1  0.27439000  0.03630300  0.06976900  1
  O  O38  1  0.93287300  0.84954200  0.76172300  1
  O  O39  1  0.06712700  0.15045800  0.23827700  1
  O  O40  1  0.82793600  0.56234800  0.00312700  1
  O  O41  1  0.17206400  0.43765200  0.99687300  1
  O  O42  1  0.79810300  0.38004500  0.89833400  1
  O  O43  1  0.20189700  0.61995500  0.10166600  1
  O  O44  1  0.58705600  0.60611000  0.93224700  1
  O  O45  1  0.41294400  0.39389000  0.06775300  1
  O  O46  1  0.42976900  0.18877300  0.93377700  1
  O  O47  1  0.57023100  0.81122700  0.06622300  1
  O  O48  1  0.21153800  0.13259800  0.88883200  1
  O  O49  1  0.78846200  0.86740200  0.11116800  1
  O  O50  1  0.34067500  0.78788800  0.98252000  1
  O  O51  1  0.65932500  0.21211200  0.01748000  1
  O  O52  1  0.45841100  0.73616900  0.78469600  1
  O  O53  1  0.54158900  0.26383100  0.21530400  1
  O  O54  1  0.87996900  0.54156500  0.19190000  1
  O  O55  1  0.12003100  0.45843500  0.80810000  1
  O  O56  1  0.63635700  0.49689200  0.18505800  1
  O  O57  1  0.36364300  0.50310800  0.81494200  1
  O  O58  1  0.04113200  0.93867900  0.89840600  1
  O  O59  1  0.95886800  0.06132100  0.10159400  1
  O  O60  1  0.09870300  0.68565500  0.89416000  1
  O  O61  1  0.90129700  0.31434500  0.10584000  1
  O  O62  1  0.21595800  0.82856000  0.71779300  1
  O  O63  1  0.78404200  0.17144000  0.28220700  1
loop_
_geom_bond_atom_site_label_1
_geom_bond_atom_site_label_2
_geom_bond_distance
_geom_bond_site_symmetry_2
O0 Te0 1.892526 1_555
O0 V0 2.003502 1_555
O0 Te2 2.598757 1_555
O1 Te1 1.892526 1_555
O1 V1 2.003502 1_555
O1 Te3 2.598757 1_555
O2 V3 1.822222 1_565
O2 V0 2.062007 1_555
O2 Te0 2.305868 1_555
O3 V2 1.822222 1_545
O3 V1 2.062007 1_555
O3 Te1 2.305868 1_555
O4 V2 1.809994 1_555
O4 Te0 1.947095 1_555
O5 V3 1.809994 1_555
O5 Te1 1.947095 1_555
O6 V4 1.813568 1_655
O6 Te0 2.007277 1_555
O6 Sr5 2.683582 1_655
O7 V5 1.813568 1_455
O7 Te1 2.007277 1_555
O7 Sr4 2.683582 1_455
O8 V0 1.942193 1_555
O8 Te2 1.964234 1_555
O8 Sr7 2.919232 1_555
O8 Sr6 3.080772 1_555
O9 V1 1.942193 1_555
O9 Te3 1.964234 1_555
O9 Sr6 2.919232 1_555
O9 Sr7 3.080772 1_555
O10 Te2 1.855763 1_555
O10 Sr2 2.532249 1_555
O10 Sr7 2.572751 1_555
O11 Te3 1.855763 1_555
O11 Sr3 2.532249 1_555
O11 Sr6 2.572751 1_555
O12 V6 1.798522 1_555
O12 Te2 2.054336 1_555
O12 Sr6 2.778189 1_555
O13 V7 1.798522 1_555
O13 Te3 2.054336 1_555
O13 Sr7 2.778189 1_555
O14 V0 1.647975 1_555
O14 Sr1 2.568877 1_555
O15 V1 1.647975 1_555
O15 Sr0 2.568877 1_555
O16 V0 1.699051 1_555
O16 Sr3 2.575809 1_555
O16 Sr6 2.796449 1_555
O17 V1 1.699051 1_555
O17 Sr2 2.575809 1_555
O17 Sr7 2.796449 1_555
O18 V2 1.666614 1_555
O18 Sr6 2.554470 1_555
O19 V3 1.666614 1_555
O19 Sr7 2.554470 1_555
O20 V2 1.705254 1_555
O20 Sr3 2.562523 1_655
O21 V3 1.705254 1_555
O21 Sr2 2.562523 1_455
O22 V4 1.681292 1_555
O22 Sr1 2.653057 1_555
O22 Sr5 2.870022 1_555
O23 V5 1.681292 1_555
O23 Sr0 2.653057 1_555
O23 Sr4 2.870022 1_555
O24 V4 1.830211 1_555
O24 V7 1.842797 1_555
O24 Sr3 2.852783 1_555
O25 V5 1.830211 1_555
O25 V6 1.842797 1_555
O25 Sr2 2.852783 1_555
O26 V4 1.685348 1_555
O26 Sr2 2.628257 1_465
O26 Sr3 2.784431 1_555
O27 V5 1.685348 1_555
O27 Sr3 2.628257 1_645
O27 Sr2 2.784431 1_555
O28 V6 1.695660 1_555
O28 Te6 2.568983 1_555
O28 Sr0 2.725045 1_555
O29 V7 1.695660 1_555
O29 Te7 2.568983 1_555
O29 Sr1 2.725045 1_555
O30 V6 1.680128 1_555
O30 Te3 2.613046 1_655
O31 V7 1.680128 1_555
O31 Te2 2.613046 1_455
O32 Te4 1.887648 1_555
O32 V10 2.017029 1_555
O32 Te6 2.556854 1_555
O33 Te5 1.887648 1_555
O33 V11 2.017029 1_555
O33 Te7 2.556854 1_555
O34 V8 1.824531 1_565
O34 V10 2.040351 1_555
O34 Te4 2.314149 1_555
O35 V9 1.824531 1_545
O35 V11 2.040351 1_555
O35 Te5 2.314149 1_555
O36 V9 1.817495 1_556
O36 Te4 1.939696 1_555
O37 V8 1.817495 1_554
O37 Te5 1.939696 1_555
O38 V14 1.822472 1_655
O38 Te4 2.006597 1_555
O38 Sr3 2.652039 1_655
O39 V15 1.822472 1_455
O39 Te5 2.006597 1_555
O39 Sr2 2.652039 1_455
O40 V12 1.810849 1_555
O40 Te6 1.988502 1_554
O41 V13 1.810849 1_555
O41 Te7 1.988502 1_556
O42 Te6 1.854095 1_555
O42 Sr4 2.443706 1_555
O42 Sr0 2.604983 1_555
O43 Te7 1.854095 1_555
O43 Sr5 2.443706 1_555
O43 Sr1 2.604983 1_555
O44 Te6 1.960772 1_555
O44 V10 1.961691 1_555
O44 Sr1 2.729047 1_556
O44 Sr0 3.163315 1_555
O45 Te7 1.960772 1_555
O45 V11 1.961691 1_555
O45 Sr0 2.729047 1_554
O45 Sr1 3.163315 1_555
O46 V8 1.661841 1_555
O46 Sr0 2.592413 1_555
O47 V9 1.661841 1_555
O47 Sr1 2.592413 1_555
O48 V8 1.708068 1_555
O48 Te1 2.626403 1_555
O48 Sr4 2.630116 1_455
O49 V9 1.708068 1_555
O49 Te0 2.626403 1_555
O49 Sr5 2.630116 1_655
O50 V10 1.696150 1_555
O50 Sr5 2.605996 1_556
O50 Sr1 2.692748 1_556
O51 V11 1.696150 1_555
O51 Sr4 2.605996 1_554
O51 Sr0 2.692748 1_554
O52 V10 1.646730 1_555
O52 Sr6 2.556455 1_555
O53 V11 1.646730 1_555
O53 Sr7 2.556455 1_555
O54 V12 1.694952 1_555
O54 Te2 2.540229 1_555
O55 V13 1.694952 1_555
O55 Te3 2.540229 1_555
O56 V12 1.679868 1_555
O56 Sr1 2.627461 1_555
O56 Sr7 2.876952 1_555
O57 V13 1.679868 1_555
O57 Sr0 2.627461 1_555
O57 Sr6 2.876952 1_555
O58 V14 1.690880 1_555
O58 Sr4 2.581905 1_465
O58 Sr5 2.626909 1_556
O59 V15 1.690880 1_555
O59 Sr5 2.581905 1_645
O59 Sr4 2.626909 1_554
O60 V14 1.818447 1_555
O60 V13 1.849330 1_555
O60 Sr5 2.926955 1_556
O61 V15 1.818447 1_555
O61 V12 1.849330 1_555
O61 Sr4 2.926955 1_554
O62 V14 1.676295 1_555
O62 Sr6 2.661176 1_555
O62 Sr3 3.038615 1_555
O63 V15 1.676295 1_555
O63 Sr7 2.661176 1_555
O63 Sr2 3.038615 1_555
