# generated using pymatgen
data_NaAlSiO4
_symmetry_space_group_name_H-M   'P 1'
_cell_length_a   10.08120644
_cell_length_b   10.08120644
_cell_length_c   8.53139100
_cell_angle_alpha   90.00000000
_cell_angle_beta   90.00000000
_cell_angle_gamma   120.00000286
_symmetry_Int_Tables_number   1
_chemical_formula_structural   NaAlSiO4
_chemical_formula_sum   'Na8 Al8 Si8 O32'
_cell_volume   750.88854940
_cell_formula_units_Z   8
loop_
 _symmetry_equiv_pos_site_id
 _symmetry_equiv_pos_as_xyz
  1  'x, y, z'
loop_
 _atom_site_type_symbol
 _atom_site_label
 _atom_site_symmetry_multiplicity
 _atom_site_fract_x
 _atom_site_fract_y
 _atom_site_fract_z
 _atom_site_occupancy
  Na  Na0  1  0.00000000  0.00000000  0.99699700  1
  Na  Na1  1  0.00000000  0.00000000  0.49699700  1
  Na  Na2  1  0.56860600  0.01301000  0.99924100  1
  Na  Na3  1  0.44440400  0.43139400  0.99924100  1
  Na  Na4  1  0.98699000  0.55559600  0.99924100  1
  Na  Na5  1  0.43139400  0.98699000  0.49924100  1
  Na  Na6  1  0.55559600  0.56860600  0.49924100  1
  Na  Na7  1  0.01301000  0.44440400  0.49924100  1
  Al  Al0  1  0.66666700  0.33333300  0.19824100  1
  Al  Al1  1  0.33333300  0.66666700  0.69824100  1
  Al  Al2  1  0.76035600  0.09149500  0.68528000  1
  Al  Al3  1  0.33113900  0.23964400  0.68528000  1
  Al  Al4  1  0.90850500  0.66886100  0.68528000  1
  Al  Al5  1  0.23964400  0.90850500  0.18528000  1
  Al  Al6  1  0.66886100  0.76035600  0.18528000  1
  Al  Al7  1  0.09149500  0.33113900  0.18528000  1
  Si  Si0  1  0.66666700  0.33333300  0.80421000  1
  Si  Si1  1  0.33333300  0.66666700  0.30421000  1
  Si  Si2  1  0.76109000  0.09120800  0.31479200  1
  Si  Si3  1  0.33011800  0.23891000  0.31479200  1
  Si  Si4  1  0.90879200  0.66988200  0.31479200  1
  Si  Si5  1  0.23891000  0.90879200  0.81479200  1
  Si  Si6  1  0.66988200  0.76109000  0.81479200  1
  Si  Si7  1  0.09120800  0.33011800  0.81479200  1
  O  O0  1  0.66666700  0.33333300  0.99485000  1
  O  O1  1  0.33333300  0.66666700  0.49485000  1
  O  O2  1  0.71123200  0.02060900  0.49268400  1
  O  O3  1  0.30937800  0.28876800  0.49268400  1
  O  O4  1  0.97939100  0.69062200  0.49268400  1
  O  O5  1  0.28876800  0.97939100  0.99268400  1
  O  O6  1  0.69062200  0.71123200  0.99268400  1
  O  O7  1  0.02060900  0.30937800  0.99268400  1
  O  O8  1  0.64791500  0.17092700  0.74323600  1
  O  O9  1  0.52301200  0.35208500  0.74323600  1
  O  O10  1  0.82907300  0.47698800  0.74323600  1
  O  O11  1  0.35208500  0.82907300  0.24323600  1
  O  O12  1  0.47698800  0.64791500  0.24323600  1
  O  O13  1  0.17092700  0.52301200  0.24323600  1
  O  O14  1  0.65248100  0.16058600  0.25938900  1
  O  O15  1  0.50810500  0.34751900  0.25938900  1
  O  O16  1  0.83941400  0.49189500  0.25938900  1
  O  O17  1  0.34751900  0.83941400  0.75938900  1
  O  O18  1  0.49189500  0.65248100  0.75938900  1
  O  O19  1  0.16058600  0.50810500  0.75938900  1
  O  O20  1  0.94314100  0.22078100  0.31831100  1
  O  O21  1  0.27764000  0.05685900  0.31831100  1
  O  O22  1  0.77921900  0.72236000  0.31831100  1
  O  O23  1  0.05685900  0.77921900  0.81831100  1
  O  O24  1  0.72236000  0.94314100  0.81831100  1
  O  O25  1  0.22078100  0.27764000  0.81831100  1
  O  O26  1  0.95775600  0.22157000  0.68896900  1
  O  O27  1  0.26381400  0.04224400  0.68896900  1
  O  O28  1  0.77843000  0.73618600  0.68896900  1
  O  O29  1  0.04224400  0.77843000  0.18896900  1
  O  O30  1  0.73618600  0.95775600  0.18896900  1
  O  O31  1  0.22157000  0.26381400  0.18896900  1
loop_
_geom_bond_atom_site_label_1
_geom_bond_atom_site_label_2
_geom_bond_distance
_geom_bond_site_symmetry_2
Na0 O31 2.967215 1_556
Na0 O30 2.967215 1_446
Na0 O29 2.967215 1_546
Na0 O25 2.980303 1_555
Na0 O24 2.980303 1_445
Na0 O23 2.980303 1_545
Na0 O5 3.020600 1_545
Na0 O6 3.020605 1_445
Na0 O7 3.020610 1_555
Na1 O28 2.967215 1_445
Na1 O27 2.967215 1_555
Na1 O26 2.967215 1_455
Na1 O22 2.980303 1_445
Na1 O21 2.980303 1_555
Na1 O20 2.980303 1_455
Na1 O2 3.020600 1_455
Na1 O3 3.020605 1_555
Na1 O4 3.020610 1_445
Na2 O24 2.524509 1_545
Na2 O14 2.568311 1_556
Na2 O8 2.582837 1_555
Na2 O30 2.593344 1_546
Na2 O5 2.668426 1_545
Na2 O0 2.866068 1_555
Na2 O17 2.883923 1_545
Na2 O11 2.913520 1_546
Na3 O25 2.524509 1_555
Na3 O15 2.568311 1_556
Na3 O9 2.582837 1_555
Na3 O31 2.593344 1_556
Na3 O6 2.668422 1_555
Na3 O0 2.866077 1_555
Na3 O18 2.883923 1_555
Na3 O12 2.913520 1_556
Na4 O23 2.524509 1_655
Na4 O16 2.568311 1_556
Na4 O10 2.582837 1_555
Na4 O29 2.593344 1_656
Na4 O7 2.668416 1_655
Na4 O0 2.866070 1_555
Na4 O19 2.883923 1_655
Na4 O13 2.913520 1_656
Na5 O21 2.524509 1_565
Na5 O17 2.568311 1_555
Na5 O11 2.582837 1_555
Na5 O27 2.593344 1_565
Na5 O2 2.668426 1_565
Na5 O1 2.866068 1_555
Na5 O14 2.883923 1_565
Na5 O8 2.913520 1_565
Na6 O22 2.524509 1_555
Na6 O18 2.568311 1_555
Na6 O12 2.582837 1_555
Na6 O28 2.593344 1_555
Na6 O3 2.668422 1_555
Na6 O1 2.866077 1_555
Na6 O15 2.883923 1_555
Na6 O9 2.913520 1_555
Na7 O20 2.524509 1_455
Na7 O19 2.568311 1_555
Na7 O13 2.582837 1_555
Na7 O26 2.593344 1_455
Na7 O4 2.668416 1_455
Na7 O1 2.866070 1_555
Na7 O16 2.883923 1_455
Na7 O10 2.913520 1_455
Al0 O0 1.735208 1_554
Al0 O14 1.753956 1_555
Al0 O16 1.753960 1_555
Al0 O15 1.753965 1_555
Al1 O1 1.735208 1_555
Al1 O17 1.753956 1_555
Al1 O19 1.753960 1_555
Al1 O18 1.753965 1_555
Al2 O26 1.752484 1_555
Al2 O8 1.754517 1_555
Al2 O24 1.760317 1_545
Al2 O2 1.761206 1_555
Al3 O27 1.752484 1_555
Al3 O9 1.754517 1_555
Al3 O25 1.760317 1_555
Al3 O3 1.761203 1_555
Al4 O28 1.752484 1_555
Al4 O10 1.754517 1_555
Al4 O23 1.760317 1_655
Al4 O4 1.761207 1_555
Al5 O29 1.752484 1_555
Al5 O11 1.754517 1_555
Al5 O21 1.760317 1_565
Al5 O5 1.761206 1_554
Al6 O30 1.752484 1_555
Al6 O12 1.754517 1_555
Al6 O22 1.760317 1_555
Al6 O6 1.761203 1_554
Al7 O31 1.752484 1_555
Al7 O13 1.754517 1_555
Al7 O20 1.760317 1_455
Al7 O7 1.761207 1_554
O0 Si0 1.626424 1_555
O1 Si1 1.626424 1_555
O2 Si2 1.644617 1_555
O3 Si3 1.644614 1_555
O4 Si4 1.644617 1_555
O5 Si5 1.644617 1_555
O6 Si6 1.644614 1_555
O7 Si7 1.644617 1_555
O8 Si0 1.636279 1_555
O9 Si0 1.636289 1_555
O10 Si0 1.636283 1_555
O11 Si1 1.636279 1_555
O12 Si1 1.636289 1_555
O13 Si1 1.636283 1_555
O14 Si2 1.636220 1_555
O15 Si3 1.636219 1_555
O16 Si4 1.636219 1_555
O17 Si5 1.636220 1_555
O18 Si6 1.636219 1_555
O19 Si7 1.636219 1_555
O20 Si2 1.636503 1_555
O21 Si3 1.636503 1_555
O22 Si4 1.636503 1_555
O23 Si5 1.636503 1_555
O24 Si6 1.636503 1_555
O25 Si7 1.636503 1_555
O26 Si7 1.639370 1_655
O27 Si5 1.639370 1_545
O28 Si6 1.639370 1_555
O29 Si4 1.639370 1_455
O30 Si2 1.639370 1_565
O31 Si3 1.639370 1_555
