# generated using pymatgen
data_YGa2Pd
_symmetry_space_group_name_H-M   'P 1'
_cell_length_a   5.52129668
_cell_length_b   5.52129668
_cell_length_c   6.56114633
_cell_angle_alpha   90.00000000
_cell_angle_beta   90.00000000
_cell_angle_gamma   132.91321964
_symmetry_Int_Tables_number   1
_chemical_formula_structural   YGa2Pd
_chemical_formula_sum   'Y2 Ga4 Pd2'
_cell_volume   146.48792211
_cell_formula_units_Z   2
loop_
 _symmetry_equiv_pos_site_id
 _symmetry_equiv_pos_as_xyz
  1  'x, y, z'
loop_
 _atom_site_type_symbol
 _atom_site_label
 _atom_site_symmetry_multiplicity
 _atom_site_fract_x
 _atom_site_fract_y
 _atom_site_fract_z
 _atom_site_occupancy
  Y  Y0  1  0.58847529  0.41152471  0.25000000  1
  Y  Y1  1  0.41152471  0.58847529  0.75000000  1
  Ga  Ga0  1  0.87263862  0.12736138  0.44483931  1
  Ga  Ga1  1  0.12736138  0.87263862  0.55516069  1
  Ga  Ga2  1  0.87263862  0.12736138  0.05516069  1
  Ga  Ga3  1  0.12736138  0.87263862  0.94483931  1
  Pd  Pd0  1  0.29876054  0.70123946  0.25000000  1
  Pd  Pd1  1  0.70123946  0.29876054  0.75000000  1
loop_
_geom_bond_atom_site_label_1
_geom_bond_atom_site_label_2
_geom_bond_distance
_geom_bond_site_symmetry_2
Ga0 Ga2 2.556738 1_555
Ga0 Pd1 2.649440 1_555
Ga0 Pd0 2.656608 1_655
Ga0 Pd0 2.656608 1_545
Ga0 Ga1 2.678321 1_645
Ga0 Y1 3.004626 1_545
Ga0 Y1 3.004626 1_655
Ga0 Y0 3.147952 1_555
Ga0 Y0 3.357444 1_655
Ga0 Y0 3.357444 1_545
Ga1 Ga3 2.556738 1_555
Ga1 Pd0 2.649440 1_555
Ga1 Pd1 2.656608 1_455
Ga1 Pd1 2.656608 1_565
Ga1 Y0 3.004626 1_455
Ga1 Y0 3.004626 1_565
Ga1 Y1 3.147952 1_555
Ga1 Y1 3.357444 1_565
Ga1 Y1 3.357444 1_455
Ga2 Pd1 2.649440 1_554
Ga2 Pd0 2.656608 1_655
Ga2 Pd0 2.656608 1_545
Ga2 Ga3 2.678321 1_644
Ga2 Y1 3.004626 1_544
Ga2 Y1 3.004626 1_654
Ga2 Y0 3.147952 1_555
Ga2 Y0 3.357444 1_655
Ga2 Y0 3.357444 1_545
Ga3 Pd0 2.649440 1_556
Ga3 Pd1 2.656608 1_455
Ga3 Pd1 2.656608 1_565
Ga3 Y0 3.004626 1_456
Ga3 Y0 3.004626 1_566
Ga3 Y1 3.147952 1_555
Ga3 Y1 3.357444 1_565
Ga3 Y1 3.357444 1_455
Pd0 Y0 2.932894 1_555
Pd0 Y0 3.065253 1_455
Pd0 Y0 3.065253 1_565
Pd0 Y1 3.473515 1_555
Pd0 Y1 3.473515 1_554
Pd1 Y1 2.932894 1_555
Pd1 Y1 3.065253 1_545
Pd1 Y1 3.065253 1_655
Pd1 Y0 3.473515 1_555
Pd1 Y0 3.473515 1_556
