# generated using pymatgen
data_CaNb2Te4Cl10O
_symmetry_space_group_name_H-M   'P 1'
_cell_length_a   7.14895945
_cell_length_b   8.97561868
_cell_length_c   9.76820483
_cell_angle_alpha   85.97426378
_cell_angle_beta   93.11306917
_cell_angle_gamma   73.47082842
_symmetry_Int_Tables_number   1
_chemical_formula_structural   CaNb2Te4Cl10O
_chemical_formula_sum   'Ca1 Nb2 Te4 Cl10 O1'
_cell_volume   597.59428654
_cell_formula_units_Z   1
loop_
 _symmetry_equiv_pos_site_id
 _symmetry_equiv_pos_as_xyz
  1  'x, y, z'
loop_
 _atom_site_type_symbol
 _atom_site_label
 _atom_site_symmetry_multiplicity
 _atom_site_fract_x
 _atom_site_fract_y
 _atom_site_fract_z
 _atom_site_occupancy
  Ca  Ca0  1  0.90144800  0.45540900  0.44327500  1
  Nb  Nb0  1  0.49862800  0.64136400  0.64349700  1
  Nb  Nb1  1  0.46748100  0.36278100  0.36354300  1
  Te  Te0  1  0.19807400  0.91576000  0.14308400  1
  Te  Te1  1  0.08660600  0.19254900  0.97977500  1
  Te  Te2  1  0.91748600  0.81847600  0.99947500  1
  Te  Te3  1  0.80877800  0.09383000  0.83504300  1
  Cl  Cl0  1  0.45222400  0.18386300  0.19035200  1
  Cl  Cl1  1  0.40363700  0.48699000  0.81135800  1
  Cl  Cl2  1  0.78459500  0.18454800  0.45485800  1
  Cl  Cl3  1  0.14672000  0.54724400  0.26343800  1
  Cl  Cl4  1  0.64216100  0.49734300  0.20903000  1
  Cl  Cl5  1  0.27446500  0.24953300  0.51823900  1
  Cl  Cl6  1  0.85308700  0.46880500  0.72102700  1
  Cl  Cl7  1  0.68190600  0.76212400  0.48270400  1
  Cl  Cl8  1  0.18957000  0.80142300  0.56636600  1
  Cl  Cl9  1  0.53773700  0.82849300  0.80294900  1
  O  O0  1  0.49799100  0.50232200  0.50055800  1
loop_
_geom_bond_atom_site_label_1
_geom_bond_atom_site_label_2
_geom_bond_distance
_geom_bond_site_symmetry_2
Ca0 Cl6 2.760279 1_555
Ca0 Cl2 2.783591 1_555
Ca0 Cl3 2.791695 1_655
Ca0 Cl4 2.799051 1_555
Ca0 Cl5 2.802865 1_655
Ca0 Cl7 2.818940 1_555
Ca0 O0 2.885635 1_555
Nb0 O0 1.937585 1_555
Nb1 O0 1.940783 1_555
Te0 Te1 2.744229 1_564
Te0 Te2 2.759888 1_454
Te1 Te3 2.757003 1_455
Te2 Te3 2.739741 1_565
Cl0 Nb1 2.431865 1_555
Cl0 Te1 3.216617 1_554
Cl1 Nb0 2.325298 1_555
Cl2 Nb1 2.451670 1_555
Cl3 Nb1 2.514874 1_555
Cl4 Nb1 2.470460 1_555
Cl5 Nb1 2.455515 1_555
Cl6 Nb0 2.605242 1_555
Cl7 Nb0 2.480145 1_555
Cl8 Nb0 2.318254 1_555
Cl9 Nb0 2.431551 1_555
Cl9 Te2 3.214713 1_555
