# generated using pymatgen
data_MgMn2O4
_symmetry_space_group_name_H-M   'P 1'
_cell_length_a   3.10794518
_cell_length_b   5.28121531
_cell_length_c   9.34200901
_cell_angle_alpha   90.00142466
_cell_angle_beta   90.00176583
_cell_angle_gamma   107.30099592
_symmetry_Int_Tables_number   1
_chemical_formula_structural   MgMn2O4
_chemical_formula_sum   'Mg2 Mn4 O8'
_cell_volume   146.39954689
_cell_formula_units_Z   2
loop_
 _symmetry_equiv_pos_site_id
 _symmetry_equiv_pos_as_xyz
  1  'x, y, z'
loop_
 _atom_site_type_symbol
 _atom_site_label
 _atom_site_symmetry_multiplicity
 _atom_site_fract_x
 _atom_site_fract_y
 _atom_site_fract_z
 _atom_site_occupancy
  Mg  Mg0  1  0.40420000  0.81392000  0.75099600  1
  Mg  Mg1  1  0.59550200  0.18618000  0.25092300  1
  Mn  Mn0  1  0.76182300  0.72616800  0.07087600  1
  Mn  Mn1  1  0.03447100  0.27340200  0.92904600  1
  Mn  Mn2  1  0.96548000  0.72670000  0.42905600  1
  Mn  Mn3  1  0.23849600  0.27366800  0.57085400  1
  O  O0  1  0.40466100  0.45114800  0.38474300  1
  O  O1  1  0.95506400  0.54882600  0.61499600  1
  O  O2  1  0.59542600  0.54885700  0.88474400  1
  O  O3  1  0.04508000  0.45113100  0.11501600  1
  O  O4  1  0.96149200  0.92132300  0.24987500  1
  O  O5  1  0.03828400  0.07872200  0.74994000  1
  O  O6  1  0.49925700  0.99892700  0.99946000  1
  O  O7  1  0.50076400  0.00102600  0.49947600  1
loop_
_geom_bond_atom_site_label_1
_geom_bond_atom_site_label_2
_geom_bond_distance
_geom_bond_site_symmetry_2
Mg0 O5 2.048198 1_565
Mg0 O5 2.049459 1_665
Mg0 O1 2.088109 1_455
Mg0 O2 2.090185 1_555
Mg0 O6 2.501567 1_555
Mg0 O7 2.532069 1_565
Mg1 O4 2.048618 1_545
Mg1 O4 2.049398 1_445
Mg1 O3 2.087964 1_655
Mg1 O0 2.089611 1_555
Mg1 O7 2.502675 1_555
Mg1 O6 2.531786 1_544
Mn0 O3 1.953322 1_655
Mn0 O4 1.965469 1_555
Mn0 O2 1.969706 1_554
Mn0 O6 1.971106 1_554
Mn0 O3 2.306003 1_555
Mn0 O6 2.410281 1_654
Mn1 O2 1.954132 1_555
Mn1 O5 1.965711 1_555
Mn1 O6 1.966431 1_445
Mn1 O3 1.970264 1_556
Mn1 O2 2.308710 1_455
Mn1 O6 2.421989 1_545
Mn2 O0 1.954077 1_555
Mn2 O7 1.966146 1_665
Mn2 O4 1.966280 1_555
Mn2 O1 1.970496 1_555
Mn2 O0 2.309472 1_655
Mn2 O7 2.421230 1_565
Mn3 O1 1.954248 1_455
Mn3 O5 1.966033 1_555
Mn3 O7 1.969866 1_555
Mn3 O0 1.969869 1_555
Mn3 O1 2.305764 1_555
Mn3 O7 2.410645 1_455
