# generated using pymatgen
data_Rb5SiAs3
_symmetry_space_group_name_H-M   'P 1'
_cell_length_a   5.66839211
_cell_length_b   14.23092917
_cell_length_c   15.62405854
_cell_angle_alpha   90.00000000
_cell_angle_beta   90.00000000
_cell_angle_gamma   90.00000000
_symmetry_Int_Tables_number   1
_chemical_formula_structural   Rb5SiAs3
_chemical_formula_sum   'Rb20 Si4 As12'
_cell_volume   1260.33790925
_cell_formula_units_Z   4
loop_
 _symmetry_equiv_pos_site_id
 _symmetry_equiv_pos_as_xyz
  1  'x, y, z'
loop_
 _atom_site_type_symbol
 _atom_site_label
 _atom_site_symmetry_multiplicity
 _atom_site_fract_x
 _atom_site_fract_y
 _atom_site_fract_z
 _atom_site_occupancy
  Rb  Rb0  1  0.75000000  0.44582230  0.14821338  1
  Rb  Rb1  1  0.25000000  0.55417770  0.85178662  1
  Rb  Rb2  1  0.75000000  0.94582230  0.35178662  1
  Rb  Rb3  1  0.25000000  0.05417770  0.64821338  1
  Rb  Rb4  1  0.25000000  0.27974322  0.78508943  1
  Rb  Rb5  1  0.75000000  0.72025678  0.21491057  1
  Rb  Rb6  1  0.25000000  0.77974322  0.71491057  1
  Rb  Rb7  1  0.75000000  0.22025678  0.28508943  1
  Rb  Rb8  1  0.25000000  0.85275839  0.45815147  1
  Rb  Rb9  1  0.75000000  0.14724161  0.54184853  1
  Rb  Rb10  1  0.25000000  0.35275839  0.04184853  1
  Rb  Rb11  1  0.75000000  0.64724161  0.95815147  1
  Rb  Rb12  1  0.25000000  0.61531817  0.31899304  1
  Rb  Rb13  1  0.75000000  0.38468183  0.68100696  1
  Rb  Rb14  1  0.25000000  0.11531817  0.18100696  1
  Rb  Rb15  1  0.75000000  0.88468183  0.81899304  1
  Rb  Rb16  1  0.25000000  0.56784148  0.55572533  1
  Rb  Rb17  1  0.75000000  0.43215852  0.44427467  1
  Rb  Rb18  1  0.25000000  0.06784148  0.94427467  1
  Rb  Rb19  1  0.75000000  0.93215852  0.05572533  1
  Si  Si0  1  0.75000000  0.23865363  0.92402243  1
  Si  Si1  1  0.25000000  0.76134637  0.07597757  1
  Si  Si2  1  0.75000000  0.73865363  0.57597757  1
  Si  Si3  1  0.25000000  0.26134637  0.42402243  1
  As  As0  1  0.25000000  0.31296661  0.56311417  1
  As  As1  1  0.75000000  0.68703339  0.43688583  1
  As  As2  1  0.25000000  0.81296661  0.93688583  1
  As  As3  1  0.75000000  0.18703339  0.06311417  1
  As  As4  1  0.25000000  0.10178954  0.40339785  1
  As  As5  1  0.75000000  0.89821046  0.59660215  1
  As  As6  1  0.25000000  0.60178954  0.09660215  1
  As  As7  1  0.75000000  0.39821046  0.90339785  1
  As  As8  1  0.75000000  0.13470881  0.81068208  1
  As  As9  1  0.25000000  0.86529119  0.18931792  1
  As  As10  1  0.75000000  0.63470881  0.68931792  1
  As  As11  1  0.25000000  0.36529119  0.31068208  1
loop_
_geom_bond_atom_site_label_1
_geom_bond_atom_site_label_2
_geom_bond_distance
_geom_bond_site_symmetry_2
Rb4 Si0 3.617529 1_555
Rb4 Si0 3.617529 1_455
Rb5 Si1 3.617529 1_655
Rb5 Si1 3.617529 1_555
Rb6 Si2 3.617529 1_455
Rb6 Si2 3.617529 1_555
Rb7 Si3 3.617529 1_555
Rb7 Si3 3.617529 1_655
Rb16 Si2 3.747220 1_455
Rb16 Si2 3.747220 1_555
Rb17 Si3 3.747220 1_555
Rb17 Si3 3.747220 1_655
Rb18 Si0 3.747220 1_455
Rb18 Si0 3.747220 1_555
Rb19 Si1 3.747220 1_555
Rb19 Si1 3.747220 1_655
As0 Si3 2.293980 1_555
As0 Rb4 3.500234 1_555
As0 Rb13 3.530874 1_455
As0 Rb13 3.530874 1_555
As0 Rb16 3.628943 1_555
As0 Rb9 3.702055 1_455
As0 Rb9 3.702055 1_555
As0 Rb17 3.789108 1_555
As0 Rb17 3.789108 1_455
As0 Rb3 3.915468 1_555
As1 Si2 2.293980 1_555
As1 Rb5 3.500234 1_555
As1 Rb12 3.530874 1_555
As1 Rb12 3.530874 1_655
As1 Rb17 3.628943 1_555
As1 Rb8 3.702055 1_555
As1 Rb8 3.702055 1_655
As1 Rb16 3.789108 1_555
As1 Rb16 3.789108 1_655
As1 Rb2 3.915468 1_555
As2 Si1 2.293980 1_556
As2 Rb6 3.500234 1_555
As2 Rb15 3.530874 1_455
As2 Rb15 3.530874 1_555
As2 Rb18 3.628943 1_565
As2 Rb11 3.702055 1_555
As2 Rb11 3.702055 1_455
As2 Rb19 3.789108 1_556
As2 Rb19 3.789108 1_456
As2 Rb1 3.915468 1_555
As3 Si0 2.293980 1_554
As3 Rb7 3.500234 1_555
As3 Rb14 3.530874 1_555
As3 Rb14 3.530874 1_655
As3 Rb19 3.628943 1_545
As3 Rb10 3.702055 1_555
As3 Rb10 3.702055 1_655
As3 Rb18 3.789108 1_554
As3 Rb18 3.789108 1_654
As3 Rb0 3.915468 1_555
As4 Si3 2.293393 1_555
As4 Rb14 3.479978 1_555
As4 Rb9 3.623578 1_555
As4 Rb9 3.623578 1_455
As4 Rb8 3.645734 1_545
As4 Rb2 3.689086 1_545
As4 Rb2 3.689086 1_445
As4 Rb7 3.780439 1_555
As4 Rb7 3.780439 1_455
As4 Rb3 3.884560 1_555
As5 Si2 2.293393 1_555
As5 Rb15 3.479978 1_555
As5 Rb8 3.623578 1_555
As5 Rb8 3.623578 1_655
As5 Rb9 3.645734 1_565
As5 Rb3 3.689086 1_665
As5 Rb3 3.689086 1_565
As5 Rb6 3.780439 1_655
As5 Rb6 3.780439 1_555
As5 Rb2 3.884560 1_555
As6 Si1 2.293393 1_555
As6 Rb12 3.479978 1_555
As6 Rb11 3.623578 1_454
As6 Rb11 3.623578 1_554
As6 Rb10 3.645734 1_555
As6 Rb0 3.689086 1_455
As6 Rb0 3.689086 1_555
As6 Rb5 3.780439 1_455
As6 Rb5 3.780439 1_555
As6 Rb1 3.884560 1_554
As7 Si0 2.293393 1_555
As7 Rb13 3.479978 1_555
As7 Rb10 3.623578 1_656
As7 Rb10 3.623578 1_556
As7 Rb11 3.645734 1_555
As7 Rb1 3.689086 1_555
As7 Rb1 3.689086 1_655
As7 Rb4 3.780439 1_555
As7 Rb4 3.780439 1_655
As7 Rb0 3.884560 1_556
As8 Si0 2.307377 1_555
As8 Rb4 3.528817 1_655
As8 Rb4 3.528817 1_555
As8 Rb15 3.560485 1_545
As8 Rb18 3.646207 1_655
As8 Rb18 3.646207 1_555
As8 Rb3 3.973618 1_555
As8 Rb3 3.973618 1_655
As9 Si1 2.307377 1_555
As9 Rb5 3.528817 1_455
As9 Rb5 3.528817 1_555
As9 Rb14 3.560485 1_565
As9 Rb19 3.646207 1_455
As9 Rb19 3.646207 1_555
As9 Rb2 3.973618 1_555
As9 Rb2 3.973618 1_455
As10 Si2 2.307377 1_555
As10 Rb6 3.528817 1_555
As10 Rb6 3.528817 1_655
As10 Rb13 3.560485 1_555
As10 Rb16 3.646207 1_655
As10 Rb16 3.646207 1_555
As10 Rb1 3.973618 1_655
As10 Rb1 3.973618 1_555
As11 Si3 2.307377 1_555
As11 Rb7 3.528817 1_555
As11 Rb7 3.528817 1_455
As11 Rb12 3.560485 1_555
As11 Rb17 3.646207 1_455
As11 Rb17 3.646207 1_555
As11 Rb0 3.973618 1_455
As11 Rb0 3.973618 1_555
