# generated using pymatgen
data_YbGa2Ni
_symmetry_space_group_name_H-M   'P 1'
_cell_length_a   5.19582918
_cell_length_b   5.19582918
_cell_length_c   6.95542800
_cell_angle_alpha   90.00000000
_cell_angle_beta   90.00000000
_cell_angle_gamma   133.59433398
_symmetry_Int_Tables_number   1
_chemical_formula_structural   YbGa2Ni
_chemical_formula_sum   'Yb2 Ga4 Ni2'
_cell_volume   135.99286656
_cell_formula_units_Z   2
loop_
 _symmetry_equiv_pos_site_id
 _symmetry_equiv_pos_as_xyz
  1  'x, y, z'
loop_
 _atom_site_type_symbol
 _atom_site_label
 _atom_site_symmetry_multiplicity
 _atom_site_fract_x
 _atom_site_fract_y
 _atom_site_fract_z
 _atom_site_occupancy
  Yb  Yb0  1  0.56703000  0.43297000  0.25000000  1
  Yb  Yb1  1  0.43297000  0.56703000  0.75000000  1
  Ga  Ga0  1  0.85268000  0.14732000  0.44594600  1
  Ga  Ga1  1  0.14732000  0.85268000  0.55405400  1
  Ga  Ga2  1  0.85268000  0.14732000  0.05405400  1
  Ga  Ga3  1  0.14732000  0.85268000  0.94594600  1
  Ni  Ni0  1  0.28802900  0.71197100  0.25000000  1
  Ni  Ni1  1  0.71197100  0.28802900  0.75000000  1
loop_
_geom_bond_atom_site_label_1
_geom_bond_atom_site_label_2
_geom_bond_distance
_geom_bond_site_symmetry_2
Ga0 Ni1 2.505721 1_555
Ga0 Ni0 2.535614 1_655
Ga0 Ni0 2.535614 1_545
Ga0 Ga2 2.725777 1_555
Ga0 Ga1 2.912874 1_645
Ga0 Ga1 2.933115 1_655
Ga0 Ga1 2.933115 1_545
Ga0 Yb1 3.041569 1_545
Ga0 Yb1 3.041569 1_655
Ga0 Yb0 3.049752 1_555
Ga0 Yb0 3.199911 1_655
Ga0 Yb0 3.199911 1_545
Ga1 Ni0 2.505721 1_555
Ga1 Ni1 2.535614 1_565
Ga1 Ni1 2.535614 1_455
Ga1 Ga3 2.725777 1_555
Ga1 Yb0 3.041569 1_565
Ga1 Yb0 3.041569 1_455
Ga1 Yb1 3.049752 1_555
Ga1 Yb1 3.199911 1_455
Ga1 Yb1 3.199911 1_565
Ga2 Ni1 2.505721 1_554
Ga2 Ni0 2.535614 1_655
Ga2 Ni0 2.535614 1_545
Ga2 Ga3 2.912874 1_644
Ga2 Ga3 2.933115 1_544
Ga2 Ga3 2.933115 1_654
Ga2 Yb1 3.041569 1_544
Ga2 Yb1 3.041569 1_654
Ga2 Yb0 3.049752 1_555
Ga2 Yb0 3.199911 1_655
Ga2 Yb0 3.199911 1_545
Ga3 Ni0 2.505721 1_556
Ga3 Ni1 2.535614 1_565
Ga3 Ni1 2.535614 1_455
Ga3 Yb0 3.041569 1_566
Ga3 Yb0 3.041569 1_456
Ga3 Yb1 3.049752 1_555
Ga3 Yb1 3.199911 1_455
Ga3 Yb1 3.199911 1_565
Ni0 Yb0 2.664777 1_555
Ni0 Yb0 2.940412 1_565
Ni0 Yb0 2.940412 1_455
Ni1 Yb1 2.664777 1_555
Ni1 Yb1 2.940412 1_545
Ni1 Yb1 2.940412 1_655
