# generated using pymatgen
data_Ho4C5
_symmetry_space_group_name_H-M   'P 1'
_cell_length_a   3.62422011
_cell_length_b   6.52670237
_cell_length_c   11.86912494
_cell_angle_alpha   90.00000000
_cell_angle_beta   90.00000000
_cell_angle_gamma   90.00000000
_symmetry_Int_Tables_number   1
_chemical_formula_structural   Ho4C5
_chemical_formula_sum   'Ho8 C10'
_cell_volume   280.75472615
_cell_formula_units_Z   2
loop_
 _symmetry_equiv_pos_site_id
 _symmetry_equiv_pos_as_xyz
  1  'x, y, z'
loop_
 _atom_site_type_symbol
 _atom_site_label
 _atom_site_symmetry_multiplicity
 _atom_site_fract_x
 _atom_site_fract_y
 _atom_site_fract_z
 _atom_site_occupancy
  Ho  Ho0  1  -0.00000000  0.25685598  0.54242833  1
  Ho  Ho1  1  0.00000000  0.74314402  0.45757167  1
  Ho  Ho2  1  -0.00000000  0.75685598  0.95757167  1
  Ho  Ho3  1  0.00000000  0.24314402  0.04242833  1
  Ho  Ho4  1  0.50000000  0.10728130  0.80439353  1
  Ho  Ho5  1  0.50000000  0.89271870  0.19560647  1
  Ho  Ho6  1  0.50000000  0.60728130  0.69560647  1
  Ho  Ho7  1  0.50000000  0.39271870  0.30439353  1
  C  C0  1  0.50000000  0.50000000  0.50000000  1
  C  C1  1  0.50000000  -0.00000000  -0.00000000  1
  C  C2  1  0.00000000  0.36196516  0.73466129  1
  C  C3  1  -0.00000000  0.63803484  0.26533871  1
  C  C4  1  0.00000000  0.86196516  0.76533871  1
  C  C5  1  0.00000000  0.13803484  0.23466129  1
  C  C6  1  0.00000000  0.40207350  0.84449685  1
  C  C7  1  0.00000000  0.59792650  0.15550315  1
  C  C8  1  0.00000000  0.09792650  0.34449685  1
  C  C9  1  0.00000000  0.90207350  0.65550315  1
loop_
_geom_bond_atom_site_label_1
_geom_bond_atom_site_label_2
_geom_bond_distance
_geom_bond_site_symmetry_2
C0 Ho7 2.424965 1_555
C0 Ho6 2.424965 1_555
C0 Ho0 2.460830 1_555
C0 Ho1 2.460830 1_655
C0 Ho1 2.460830 1_555
C0 Ho0 2.460830 1_655
C1 Ho4 2.424965 1_554
C1 Ho5 2.424965 1_545
C1 Ho3 2.460830 1_555
C1 Ho2 2.460830 1_544
C1 Ho3 2.460830 1_655
C1 Ho2 2.460830 1_644
C2 C6 1.329675 1_555
C2 Ho0 2.382538 1_555
C2 Ho6 2.462145 1_555
C2 Ho6 2.462145 1_455
C2 Ho4 2.594576 1_555
C2 Ho4 2.594576 1_455
C3 C7 1.329675 1_555
C3 Ho1 2.382538 1_555
C3 Ho7 2.462145 1_455
C3 Ho7 2.462145 1_555
C3 Ho5 2.594576 1_555
C3 Ho5 2.594576 1_455
C4 C9 1.329675 1_555
C4 Ho2 2.382538 1_555
C4 Ho4 2.462145 1_465
C4 Ho4 2.462145 1_565
C4 Ho6 2.594576 1_455
C4 Ho6 2.594576 1_555
C5 C8 1.329675 1_555
C5 Ho3 2.382538 1_555
C5 Ho5 2.462145 1_545
C5 Ho5 2.462145 1_445
C5 Ho7 2.594576 1_555
C5 Ho7 2.594576 1_455
C6 Ho3 2.568082 1_556
C6 Ho2 2.676387 1_555
C6 Ho4 2.685548 1_555
C6 Ho4 2.685548 1_455
C6 Ho6 2.863658 1_555
C6 Ho6 2.863658 1_455
C7 Ho2 2.568082 1_554
C7 Ho3 2.676387 1_555
C7 Ho5 2.685548 1_555
C7 Ho5 2.685548 1_455
C7 Ho7 2.863658 1_555
C7 Ho7 2.863658 1_455
C8 Ho0 2.568082 1_555
C8 Ho1 2.676387 1_545
C8 Ho7 2.685548 1_455
C8 Ho7 2.685548 1_555
C8 Ho5 2.863658 1_445
C8 Ho5 2.863658 1_545
C9 Ho1 2.568082 1_555
C9 Ho0 2.676387 1_565
C9 Ho6 2.685548 1_455
C9 Ho6 2.685548 1_555
C9 Ho4 2.863658 1_565
C9 Ho4 2.863658 1_465
