# generated using pymatgen
data_KSi2HO5
_symmetry_space_group_name_H-M   'P 1'
_cell_length_a   8.52330872
_cell_length_b   8.52330872
_cell_length_c   9.89440036
_cell_angle_alpha   61.83890845
_cell_angle_beta   61.83890845
_cell_angle_gamma   59.61609045
_symmetry_Int_Tables_number   1
_chemical_formula_structural   KSi2HO5
_chemical_formula_sum   'K4 Si8 H4 O20'
_cell_volume   520.32922589
_cell_formula_units_Z   4
loop_
 _symmetry_equiv_pos_site_id
 _symmetry_equiv_pos_as_xyz
  1  'x, y, z'
loop_
 _atom_site_type_symbol
 _atom_site_label
 _atom_site_symmetry_multiplicity
 _atom_site_fract_x
 _atom_site_fract_y
 _atom_site_fract_z
 _atom_site_occupancy
  K  K0  1  0.00000000  0.00000000  0.00000000  1
  K  K1  1  0.00000000  0.00000000  0.50000000  1
  K  K2  1  0.68016300  0.68016300  0.98077300  1
  K  K3  1  0.31983700  0.31983700  0.01922700  1
  Si  Si0  1  0.11589600  0.48877400  0.67631400  1
  Si  Si1  1  0.48877400  0.11589600  0.67631400  1
  Si  Si2  1  0.88410400  0.51122600  0.32368600  1
  Si  Si3  1  0.51122600  0.88410400  0.32368600  1
  Si  Si4  1  0.78207100  0.40756200  0.70249700  1
  Si  Si5  1  0.40756200  0.78207100  0.70249700  1
  Si  Si6  1  0.21792900  0.59243800  0.29750300  1
  Si  Si7  1  0.59243800  0.21792900  0.29750300  1
  H  H0  1  0.68368800  0.14727100  0.79884000  1
  H  H1  1  0.14727100  0.68368800  0.79884000  1
  H  H2  1  0.31631200  0.85272900  0.20116000  1
  H  H3  1  0.85272900  0.31631200  0.20116000  1
  O  O0  1  0.03865600  0.63892200  0.76657600  1
  O  O1  1  0.63892200  0.03865600  0.76657600  1
  O  O2  1  0.96134400  0.36107800  0.23342400  1
  O  O3  1  0.36107800  0.96134400  0.23342400  1
  O  O4  1  0.71993100  0.22682900  0.83317600  1
  O  O5  1  0.22682900  0.71993100  0.83317600  1
  O  O6  1  0.28006900  0.77317100  0.16682400  1
  O  O7  1  0.77317100  0.28006900  0.16682400  1
  O  O8  1  0.96287700  0.38621400  0.73720700  1
  O  O9  1  0.38621400  0.96287700  0.73720700  1
  O  O10  1  0.03712300  0.61378600  0.26279300  1
  O  O11  1  0.61378600  0.03712300  0.26279300  1
  O  O12  1  0.15620200  0.59510100  0.48000400  1
  O  O13  1  0.59510100  0.15620200  0.48000400  1
  O  O14  1  0.84379800  0.40489900  0.51999600  1
  O  O15  1  0.40489900  0.84379800  0.51999600  1
  O  O16  1  0.61083800  0.61083800  0.72877300  1
  O  O17  1  0.38916200  0.38916200  0.27122700  1
  O  O18  1  0.31297600  0.31297600  0.71094200  1
  O  O19  1  0.68702400  0.68702400  0.28905800  1
loop_
_geom_bond_atom_site_label_1
_geom_bond_atom_site_label_2
_geom_bond_distance
_geom_bond_site_symmetry_2
K0 O6 2.863409 1_545
K0 O7 2.863409 1_455
K0 O4 2.863409 1_454
K0 O5 2.863409 1_544
K0 O8 3.056287 1_454
K0 O9 3.056287 1_544
K0 O11 3.056287 1_455
K0 O10 3.056287 1_545
K1 O0 2.944398 1_545
K1 O1 2.944398 1_455
K1 O2 2.944398 1_455
K1 O3 2.944398 1_545
K1 O14 3.077275 1_455
K1 O15 3.077275 1_545
K1 O13 3.077275 1_455
K1 O12 3.077275 1_545
K2 O1 2.730521 1_565
K2 O0 2.730521 1_655
K2 O7 2.891979 1_556
K2 O6 2.891979 1_556
K2 O19 3.106661 1_556
K2 O16 3.170131 1_555
K3 O3 2.730521 1_545
K3 O2 2.730521 1_455
K3 O4 2.891979 1_554
K3 O5 2.891979 1_554
K3 O18 3.106661 1_554
K3 O17 3.170131 1_555
H0 O4 1.095020 1_555
H0 O1 1.362266 1_555
H0 K3 2.926757 1_556
H1 O5 1.095020 1_555
H1 O0 1.362266 1_555
H1 K3 2.926757 1_556
H2 O6 1.095020 1_555
H2 O3 1.362266 1_555
H2 K2 2.926757 1_554
H3 O7 1.095020 1_555
H3 O2 1.362266 1_555
H3 K2 2.926757 1_554
O0 Si0 1.593855 1_555
O1 Si1 1.593855 1_555
O2 Si2 1.593855 1_555
O3 Si3 1.593855 1_555
O4 Si4 1.619933 1_555
O5 Si5 1.619933 1_555
O6 Si6 1.619933 1_555
O7 Si7 1.619933 1_555
O8 Si4 1.637946 1_555
O8 Si0 1.656081 1_655
O9 Si5 1.637946 1_555
O9 Si1 1.656081 1_565
O10 Si6 1.637946 1_555
O10 Si2 1.656081 1_455
O11 Si7 1.637946 1_555
O11 Si3 1.656081 1_545
O12 Si6 1.633362 1_555
O12 Si0 1.653987 1_555
O13 Si7 1.633362 1_555
O13 Si1 1.653987 1_555
O14 Si4 1.633362 1_555
O14 Si2 1.653987 1_555
O15 Si5 1.633362 1_555
O15 Si3 1.653987 1_555
O16 Si4 1.645774 1_555
O16 Si5 1.645774 1_555
O17 Si7 1.645774 1_555
O17 Si6 1.645774 1_555
O18 Si1 1.642177 1_555
O18 Si0 1.642177 1_555
O19 Si2 1.642177 1_555
O19 Si3 1.642177 1_555
