# generated using pymatgen
data_ScCoSn
_symmetry_space_group_name_H-M   'P 1'
_cell_length_a   4.43030758
_cell_length_b   6.87117117
_cell_length_c   7.37288352
_cell_angle_alpha   90.00000000
_cell_angle_beta   90.00000000
_cell_angle_gamma   90.00000000
_symmetry_Int_Tables_number   1
_chemical_formula_structural   ScCoSn
_chemical_formula_sum   'Sc4 Co4 Sn4'
_cell_volume   224.44090905
_cell_formula_units_Z   4
loop_
 _symmetry_equiv_pos_site_id
 _symmetry_equiv_pos_as_xyz
  1  'x, y, z'
loop_
 _atom_site_type_symbol
 _atom_site_label
 _atom_site_symmetry_multiplicity
 _atom_site_fract_x
 _atom_site_fract_y
 _atom_site_fract_z
 _atom_site_occupancy
  Sc  Sc0  1  0.75000000  0.51584880  0.72687869  1
  Sc  Sc1  1  0.75000000  0.01584880  0.77312131  1
  Sc  Sc2  1  0.25000000  0.48415120  0.27312131  1
  Sc  Sc3  1  0.25000000  0.98415120  0.22687869  1
  Co  Co0  1  0.75000000  0.34458569  0.06561010  1
  Co  Co1  1  0.75000000  0.84458569  0.43438990  1
  Co  Co2  1  0.25000000  0.65541431  0.93438990  1
  Co  Co3  1  0.25000000  0.15541431  0.56561010  1
  Sn  Sn0  1  0.75000000  0.72712971  0.09817795  1
  Sn  Sn1  1  0.75000000  0.22712971  0.40182205  1
  Sn  Sn2  1  0.25000000  0.27287029  0.90182205  1
  Sn  Sn3  1  0.25000000  0.77287029  0.59817795  1
loop_
_geom_bond_atom_site_label_1
_geom_bond_atom_site_label_2
_geom_bond_distance
_geom_bond_site_symmetry_2
Sc0 Sn3 2.987675 1_555
Sc0 Sn3 2.987675 1_655
Sc0 Sn2 3.059080 1_555
Sc0 Sn2 3.059080 1_655
Sc0 Sn0 3.098666 1_556
Sc0 Sn1 3.111162 1_555
Sc1 Sn2 2.987675 1_655
Sc1 Sn2 2.987675 1_555
Sc1 Sn3 3.059080 1_545
Sc1 Sn3 3.059080 1_645
Sc1 Sn1 3.098666 1_555
Sc1 Sn0 3.111162 1_546
Sc2 Sn1 2.987675 1_455
Sc2 Sn1 2.987675 1_555
Sc2 Sn0 3.059080 1_555
Sc2 Sn0 3.059080 1_455
Sc2 Sn2 3.098666 1_554
Sc2 Sn3 3.111162 1_555
Sc3 Sn0 2.987675 1_455
Sc3 Sn0 2.987675 1_555
Sc3 Sn1 3.059080 1_465
Sc3 Sn1 3.059080 1_565
Sc3 Sn3 3.098666 1_555
Sc3 Sn2 3.111162 1_564
Co0 Sn2 2.570603 1_554
Co0 Sn2 2.570603 1_654
Co0 Sn1 2.606924 1_555
Co0 Sn0 2.639470 1_555
Co0 Sc0 2.760788 1_554
Co0 Sc2 2.857851 1_655
Co0 Sc2 2.857851 1_555
Co0 Sc1 3.122922 1_554
Co1 Sn3 2.570603 1_655
Co1 Sn3 2.570603 1_555
Co1 Sn0 2.606924 1_555
Co1 Sn1 2.639470 1_565
Co1 Sc1 2.760788 1_565
Co1 Sc3 2.857851 1_555
Co1 Sc3 2.857851 1_655
Co1 Sc0 3.122922 1_555
Co2 Sn0 2.570603 1_556
Co2 Sn0 2.570603 1_456
Co2 Sn3 2.606924 1_555
Co2 Sn2 2.639470 1_555
Co2 Sc2 2.760788 1_556
Co2 Sc0 2.857851 1_455
Co2 Sc0 2.857851 1_555
Co2 Sc3 3.122922 1_556
Co3 Sn1 2.570603 1_555
Co3 Sn1 2.570603 1_455
Co3 Sn2 2.606924 1_555
Co3 Sn3 2.639470 1_545
Co3 Sc3 2.760788 1_545
Co3 Sc1 2.857851 1_455
Co3 Sc1 2.857851 1_555
Co3 Sc2 3.122922 1_555
