# generated using pymatgen
data_Ba3CaLa2Cu6O13
_symmetry_space_group_name_H-M   'P 1'
_cell_length_a   5.53107242
_cell_length_b   5.53107242
_cell_length_c   11.93056118
_cell_angle_alpha   89.64677627
_cell_angle_beta   89.64677627
_cell_angle_gamma   90.83893635
_symmetry_Int_Tables_number   1
_chemical_formula_structural   Ba3CaLa2Cu6O13
_chemical_formula_sum   'Ba3 Ca1 La2 Cu6 O13'
_cell_volume   364.93561794
_cell_formula_units_Z   1
loop_
 _symmetry_equiv_pos_site_id
 _symmetry_equiv_pos_as_xyz
  1  'x, y, z'
loop_
 _atom_site_type_symbol
 _atom_site_label
 _atom_site_symmetry_multiplicity
 _atom_site_fract_x
 _atom_site_fract_y
 _atom_site_fract_z
 _atom_site_occupancy
  Ba  Ba0  1  0.00471200  0.00471200  0.19471100  1
  Ba  Ba1  1  0.49643000  0.49643000  0.18897400  1
  Ba  Ba2  1  0.00552700  0.00552700  0.81643100  1
  Ca  Ca0  1  0.50084200  0.50084200  0.49605200  1
  La  La0  1  0.50491400  0.50491400  0.79001100  1
  La  La1  1  0.99969600  0.99969600  0.50512600  1
  Cu  Cu0  1  0.99988500  0.50154600  0.36235200  1
  Cu  Cu1  1  0.50154600  0.99988500  0.36235200  1
  Cu  Cu2  1  0.99842500  0.50010400  0.64830400  1
  Cu  Cu3  1  0.50010400  0.99842500  0.64830400  1
  Cu  Cu4  1  0.01240700  0.48981100  0.99335700  1
  Cu  Cu5  1  0.48981100  0.01240700  0.99335700  1
  O  O0  1  0.25070400  0.25070400  0.37058300  1
  O  O1  1  0.75156700  0.75156700  0.37156800  1
  O  O2  1  0.75238400  0.24896900  0.37531500  1
  O  O3  1  0.24896900  0.75238400  0.37531500  1
  O  O4  1  0.25584400  0.25584400  0.64517700  1
  O  O5  1  0.74255400  0.74255400  0.63221200  1
  O  O6  1  0.74220600  0.25489300  0.64193000  1
  O  O7  1  0.25489300  0.74220600  0.64193000  1
  O  O8  1  0.99228100  0.52048500  0.14489100  1
  O  O9  1  0.52048500  0.99228100  0.14489100  1
  O  O10  1  0.92081300  0.50923900  0.84603400  1
  O  O11  1  0.50923900  0.92081300  0.84603400  1
  O  O12  1  0.29376100  0.29376100  0.96478800  1
loop_
_geom_bond_atom_site_label_1
_geom_bond_atom_site_label_2
_geom_bond_distance
_geom_bond_site_symmetry_2
Ba0 O9 2.747001 1_445
Ba0 O8 2.747001 1_445
Ba0 O0 2.849792 1_555
Ba0 O1 2.871022 1_445
Ba0 O2 2.910296 1_455
Ba0 O3 2.910296 1_545
Ba0 O8 2.912335 1_455
Ba0 O9 2.912335 1_545
Ba1 O8 2.790477 1_555
Ba1 O9 2.790477 1_555
Ba1 O9 2.845706 1_545
Ba1 O8 2.845706 1_455
Ba1 O0 2.874426 1_555
Ba1 O1 2.957363 1_555
Ba1 O3 2.979606 1_555
Ba1 O2 2.979606 1_555
Ba1 O12 3.115148 1_554
Ba2 O11 2.797799 1_445
Ba2 O10 2.797799 1_445
Ba2 O4 2.807561 1_555
Ba2 O10 2.855657 1_455
Ba2 O11 2.855657 1_545
Ba2 O12 2.865522 1_555
Ba2 O7 2.901499 1_545
Ba2 O6 2.901499 1_455
Ba2 O5 3.013077 1_445
Ca0 O1 2.438219 1_555
Ca0 O2 2.451169 1_555
Ca0 O3 2.451169 1_555
Ca0 O0 2.462538 1_555
Ca0 O5 2.492960 1_555
Ca0 O7 2.591228 1_555
Ca0 O6 2.591228 1_555
Ca0 O4 2.593209 1_555
La0 O10 2.399280 1_555
La0 O11 2.399280 1_555
La0 O4 2.604734 1_555
La0 O7 2.609760 1_555
La0 O6 2.609760 1_555
La0 O5 2.624500 1_555
La0 O12 2.641213 1_555
La1 O2 2.495124 1_565
La1 O3 2.495124 1_655
La1 O5 2.496434 1_555
La1 O1 2.510943 1_555
La1 O0 2.513997 1_665
La1 O6 2.596772 1_565
La1 O7 2.596772 1_655
La1 O4 2.608822 1_665
Cu0 O2 1.946362 1_555
Cu0 O3 1.948376 1_655
Cu0 O1 1.966341 1_555
Cu0 O0 1.978775 1_655
Cu0 O8 2.596525 1_555
Cu1 O3 1.946362 1_555
Cu1 O2 1.948376 1_565
Cu1 O1 1.966341 1_555
Cu1 O0 1.978775 1_565
Cu1 O9 2.596525 1_555
Cu2 O7 1.937261 1_655
Cu2 O6 1.949347 1_555
Cu2 O5 1.973277 1_555
Cu2 O4 1.977412 1_655
Cu2 O10 2.396137 1_555
Cu3 O6 1.937261 1_565
Cu3 O7 1.949347 1_555
Cu3 O5 1.973277 1_555
Cu3 O4 1.977412 1_565
Cu3 O11 2.396137 1_555
Cu4 O8 1.819747 1_456
Cu4 O10 1.835148 1_455
Cu4 O12 1.939377 1_555
Cu5 O9 1.819747 1_546
Cu5 O11 1.835148 1_545
Cu5 O12 1.939377 1_555
