# generated using pymatgen
data_Pr(CrB3)2
_symmetry_space_group_name_H-M   'P 1'
_cell_length_a   3.11195600
_cell_length_b   5.54628780
_cell_length_c   5.54628780
_cell_angle_alpha   72.93862577
_cell_angle_beta   73.70732246
_cell_angle_gamma   73.70732246
_symmetry_Int_Tables_number   1
_chemical_formula_structural   Pr(CrB3)2
_chemical_formula_sum   'Pr1 Cr2 B6'
_cell_volume   85.76553709
_cell_formula_units_Z   1
loop_
 _symmetry_equiv_pos_site_id
 _symmetry_equiv_pos_as_xyz
  1  'x, y, z'
loop_
 _atom_site_type_symbol
 _atom_site_label
 _atom_site_symmetry_multiplicity
 _atom_site_fract_x
 _atom_site_fract_y
 _atom_site_fract_z
 _atom_site_occupancy
  Pr  Pr0  1  0.00000000  0.50000000  0.50000000  1
  Cr  Cr0  1  0.15387700  0.84612300  0.84612300  1
  Cr  Cr1  1  0.84612300  0.15387700  0.15387700  1
  B  B0  1  0.50000000  0.13837900  0.86162100  1
  B  B1  1  0.50000000  0.86162100  0.13837900  1
  B  B2  1  0.30222900  0.43257800  0.96296400  1
  B  B3  1  0.69777200  0.03703500  0.56742200  1
  B  B4  1  0.30222800  0.96296500  0.43257800  1
  B  B5  1  0.69777100  0.56742200  0.03703600  1
loop_
_geom_bond_atom_site_label_1
_geom_bond_atom_site_label_2
_geom_bond_distance
_geom_bond_site_symmetry_2
B0 B2 1.771386 1_555
B0 B3 1.771388 1_555
B0 B1 1.824760 1_546
B0 Cr1 2.215478 1_556
B0 Cr0 2.215478 1_645
B0 Cr1 2.215478 1_456
B0 Cr0 2.215478 1_545
B0 Pr0 2.847088 1_655
B0 Pr0 2.847088 1_555
B1 B5 1.771386 1_555
B1 B4 1.771388 1_555
B1 Cr1 2.215478 1_565
B1 Cr1 2.215478 1_465
B1 Cr0 2.215478 1_654
B1 Cr0 2.215478 1_554
B1 Pr0 2.847088 1_655
B1 Pr0 2.847088 1_555
B2 B5 1.795493 1_456
B2 B5 1.795493 1_556
B2 Cr0 2.143692 1_555
B2 Cr1 2.225428 1_456
B2 Cr1 2.225428 1_556
B2 Pr0 2.865647 1_555
B2 Pr0 2.865647 1_655
B2 Pr0 2.963211 1_556
B3 B4 1.795487 1_645
B3 B4 1.795493 1_545
B3 Cr1 2.143692 1_555
B3 Cr0 2.225425 1_645
B3 Cr0 2.225427 1_545
B3 Pr0 2.865651 1_655
B3 Pr0 2.865652 1_555
B3 Pr0 2.963205 1_645
B4 Cr0 2.143692 1_555
B4 Cr1 2.225425 1_465
B4 Cr1 2.225427 1_565
B4 Pr0 2.865651 1_555
B4 Pr0 2.865652 1_655
B4 Pr0 2.963205 1_565
B5 Cr1 2.143692 1_555
B5 Cr0 2.225428 1_654
B5 Cr0 2.225428 1_554
B5 Pr0 2.865647 1_555
B5 Pr0 2.865647 1_655
B5 Pr0 2.963211 1_654
