# generated using pymatgen
data_POsSe
_symmetry_space_group_name_H-M   'P 1'
_cell_length_a   5.98507800
_cell_length_b   5.99182000
_cell_length_c   6.08559677
_cell_angle_alpha   112.13292567
_cell_angle_beta   90.00000000
_cell_angle_gamma   90.00000000
_symmetry_Int_Tables_number   1
_chemical_formula_structural   POsSe
_chemical_formula_sum   'P4 Os4 Se4'
_cell_volume   202.15717765
_cell_formula_units_Z   4
loop_
 _symmetry_equiv_pos_site_id
 _symmetry_equiv_pos_as_xyz
  1  'x, y, z'
loop_
 _atom_site_type_symbol
 _atom_site_label
 _atom_site_symmetry_multiplicity
 _atom_site_fract_x
 _atom_site_fract_y
 _atom_site_fract_z
 _atom_site_occupancy
  P  P0  1  0.37025400  0.14280300  0.38417600  1
  P  P1  1  0.87025400  0.85719700  0.11582400  1
  P  P2  1  0.62974600  0.85719700  0.61582400  1
  P  P3  1  0.12974600  0.14280300  0.88417600  1
  Os  Os0  1  0.01223600  0.26305400  0.29062500  1
  Os  Os1  1  0.51223600  0.73694600  0.20937500  1
  Os  Os2  1  0.98776400  0.73694600  0.70937500  1
  Os  Os3  1  0.48776400  0.26305400  0.79062500  1
  Se  Se0  1  0.62549800  0.33531900  0.19382400  1
  Se  Se1  1  0.12549800  0.66468100  0.30617600  1
  Se  Se2  1  0.37450200  0.66468100  0.80617600  1
  Se  Se3  1  0.87450200  0.33531900  0.69382400  1
loop_
_geom_bond_atom_site_label_1
_geom_bond_atom_site_label_2
_geom_bond_distance
_geom_bond_site_symmetry_2
P0 Se0 2.452167 1_555
P1 Se1 2.452167 1_655
P2 Se2 2.452167 1_555
P3 Se3 2.452167 1_455
Os0 P0 2.396624 1_555
Os0 P3 2.406036 1_554
Os0 P1 2.412098 1_445
Os0 Se0 2.466649 1_455
Os0 Se3 2.467214 1_455
Os0 Se1 2.467388 1_555
Os1 P1 2.396624 1_555
Os1 P2 2.406036 1_555
Os1 P0 2.412098 1_565
Os1 Se1 2.466649 1_555
Os1 Se2 2.467214 1_554
Os1 Se0 2.467388 1_555
Os2 P2 2.396624 1_555
Os2 P1 2.406036 1_556
Os2 P3 2.412098 1_665
Os2 Se2 2.466649 1_655
Os2 Se1 2.467214 1_655
Os2 Se3 2.467388 1_555
Os3 P3 2.396624 1_555
Os3 P0 2.406036 1_555
Os3 P2 2.412098 1_545
Os3 Se3 2.466649 1_555
Os3 Se0 2.467214 1_556
Os3 Se2 2.467388 1_555
