# generated using pymatgen
data_MoPd4
_symmetry_space_group_name_H-M   'P 1'
_cell_length_a   23.06961061
_cell_length_b   23.06961061
_cell_length_c   23.06961080
_cell_angle_alpha   13.92182401
_cell_angle_beta   13.92182401
_cell_angle_gamma   13.92182131
_symmetry_Int_Tables_number   1
_chemical_formula_structural   MoPd4
_chemical_formula_sum   'Mo8 Pd32'
_cell_volume   618.53735257
_cell_formula_units_Z   8
loop_
 _symmetry_equiv_pos_site_id
 _symmetry_equiv_pos_as_xyz
  1  'x, y, z'
loop_
 _atom_site_type_symbol
 _atom_site_label
 _atom_site_symmetry_multiplicity
 _atom_site_fract_x
 _atom_site_fract_y
 _atom_site_fract_z
 _atom_site_occupancy
  Mo  Mo0_0  1  0.00000000  0.00000000  0.00000000  1
  Mo  Mo0_1  1  0.00000000  0.00000000  0.50000000  1
  Mo  Mo0_2  1  0.00000000  0.50000000  0.00000000  1
  Mo  Mo0_3  1  0.00000000  0.50000000  0.50000000  1
  Mo  Mo0_4  1  0.50000000  0.00000000  0.00000000  1
  Mo  Mo0_5  1  0.50000000  0.00000000  0.50000000  1
  Mo  Mo0_6  1  0.50000000  0.50000000  0.00000000  1
  Mo  Mo0_7  1  0.50000000  0.50000000  0.50000000  1
  Pd  Pd0_0  1  0.30088950  0.30088950  0.30088950  1
  Pd  Pd0_1  1  0.30088950  0.30088950  0.80088950  1
  Pd  Pd0_2  1  0.30088950  0.80088950  0.30088950  1
  Pd  Pd0_3  1  0.30088950  0.80088950  0.80088950  1
  Pd  Pd0_4  1  0.80088950  0.30088950  0.30088950  1
  Pd  Pd0_5  1  0.80088950  0.30088950  0.80088950  1
  Pd  Pd0_6  1  0.80088950  0.80088950  0.30088950  1
  Pd  Pd0_7  1  0.80088950  0.80088950  0.80088950  1
  Pd  Pd1_0  1  0.10020050  0.10020050  0.10020050  1
  Pd  Pd1_1  1  0.10020050  0.10020050  0.60020050  1
  Pd  Pd1_2  1  0.10020050  0.60020050  0.10020050  1
  Pd  Pd1_3  1  0.10020050  0.60020050  0.60020050  1
  Pd  Pd1_4  1  0.60020050  0.10020050  0.10020050  1
  Pd  Pd1_5  1  0.60020050  0.10020050  0.60020050  1
  Pd  Pd1_6  1  0.60020050  0.60020050  0.10020050  1
  Pd  Pd1_7  1  0.60020050  0.60020050  0.60020050  1
  Pd  Pd2_0  1  0.39979950  0.39979950  0.39979950  1
  Pd  Pd2_1  1  0.39979950  0.39979950  0.89979950  1
  Pd  Pd2_2  1  0.39979950  0.89979950  0.39979950  1
  Pd  Pd2_3  1  0.39979950  0.89979950  0.89979950  1
  Pd  Pd2_4  1  0.89979950  0.39979950  0.39979950  1
  Pd  Pd2_5  1  0.89979950  0.39979950  0.89979950  1
  Pd  Pd2_6  1  0.89979950  0.89979950  0.39979950  1
  Pd  Pd2_7  1  0.89979950  0.89979950  0.89979950  1
  Pd  Pd3_0  1  0.19911050  0.19911050  0.19911050  1
  Pd  Pd3_1  1  0.19911050  0.19911050  0.69911050  1
  Pd  Pd3_2  1  0.19911050  0.69911050  0.19911050  1
  Pd  Pd3_3  1  0.19911050  0.69911050  0.69911050  1
  Pd  Pd3_4  1  0.69911050  0.19911050  0.19911050  1
  Pd  Pd3_5  1  0.69911050  0.19911050  0.69911050  1
  Pd  Pd3_6  1  0.69911050  0.69911050  0.19911050  1
  Pd  Pd3_7  1  0.69911050  0.69911050  0.69911050  1
loop_
_geom_bond_atom_site_label_1
_geom_bond_atom_site_label_2
_geom_bond_distance
_geom_bond_site_symmetry_2
Mo0_0 Pd3_4 2.747488 1_455
Mo0_0 Pd3_2 2.747488 1_545
Mo0_0 Pd0_3 2.747488 1_544
Mo0_0 Pd0_5 2.747488 1_454
Mo0_0 Pd3_1 2.747488 1_554
Mo0_0 Pd0_6 2.747488 1_445
Mo0_0 Mo0_6 2.795856 1_545
Mo0_0 Mo0_6 2.795856 1_455
Mo0_0 Mo0_5 2.795857 1_554
Mo0_0 Mo0_3 2.795857 1_554
Mo0_0 Mo0_5 2.795857 1_455
Mo0_0 Mo0_3 2.795857 1_545
Mo0_1 Pd3_3 2.747488 1_545
Mo0_1 Pd3_5 2.747488 1_455
Mo0_1 Pd0_4 2.747488 1_455
Mo0_1 Pd0_2 2.747488 1_545
Mo0_1 Pd3_0 2.747488 1_555
Mo0_1 Pd0_7 2.747488 1_445
Mo0_1 Mo0_7 2.795856 1_455
Mo0_1 Mo0_7 2.795856 1_545
Mo0_1 Mo0_4 2.795857 1_555
Mo0_1 Mo0_2 2.795857 1_555
Mo0_1 Mo0_2 2.795857 1_546
Mo0_1 Mo0_4 2.795857 1_456
Mo0_2 Pd3_6 2.747488 1_455
Mo0_2 Pd3_0 2.747488 1_555
Mo0_2 Pd0_1 2.747488 1_554
Mo0_2 Pd0_7 2.747488 1_454
Mo0_2 Pd3_3 2.747488 1_554
Mo0_2 Pd0_4 2.747488 1_455
Mo0_2 Mo0_4 2.795856 1_465
Mo0_2 Mo0_4 2.795856 1_555
Mo0_2 Mo0_7 2.795857 1_455
Mo0_2 Mo0_7 2.795857 1_554
Mo0_3 Pd3_1 2.747488 1_555
Mo0_3 Pd0_6 2.747488 1_455
Mo0_3 Pd0_0 2.747488 1_555
Mo0_3 Pd3_7 2.747488 1_455
Mo0_3 Pd3_2 2.747488 1_555
Mo0_3 Pd0_5 2.747488 1_455
Mo0_3 Mo0_5 2.795856 1_465
Mo0_3 Mo0_5 2.795856 1_555
Mo0_3 Mo0_6 2.795857 1_456
Mo0_3 Mo0_6 2.795857 1_555
Mo0_4 Pd3_6 2.747488 1_545
Mo0_4 Pd3_0 2.747488 1_555
Mo0_4 Pd0_7 2.747488 1_544
Mo0_4 Pd0_1 2.747488 1_554
Mo0_4 Pd3_5 2.747488 1_554
Mo0_4 Pd0_2 2.747488 1_545
Mo0_4 Mo0_7 2.795857 1_545
Mo0_4 Mo0_7 2.795857 1_554
Mo0_5 Pd3_1 2.747488 1_555
Mo0_5 Pd0_6 2.747488 1_545
Mo0_5 Pd3_7 2.747488 1_545
Mo0_5 Pd0_0 2.747488 1_555
Mo0_5 Pd3_4 2.747488 1_555
Mo0_5 Pd0_3 2.747488 1_545
Mo0_5 Mo0_6 2.795857 1_555
Mo0_5 Mo0_6 2.795857 1_546
Mo0_6 Pd3_2 2.747488 1_555
Mo0_6 Pd3_4 2.747488 1_555
Mo0_6 Pd0_3 2.747488 1_554
Mo0_6 Pd0_5 2.747488 1_554
Mo0_6 Pd0_0 2.747488 1_555
Mo0_6 Pd3_7 2.747488 1_554
Mo0_7 Pd3_3 2.747488 1_555
Mo0_7 Pd3_5 2.747488 1_555
Mo0_7 Pd0_4 2.747488 1_555
Mo0_7 Pd0_2 2.747488 1_555
Mo0_7 Pd3_6 2.747488 1_555
Mo0_7 Pd0_1 2.747488 1_555
Pd0_0 Pd0_6 2.795856 1_455
Pd0_0 Pd0_6 2.795856 1_545
Pd0_0 Pd0_5 2.795857 1_554
Pd0_0 Pd0_3 2.795857 1_545
Pd0_0 Pd0_3 2.795857 1_554
Pd0_0 Pd0_5 2.795857 1_455
Pd0_0 Pd1_2 2.835733 1_555
Pd0_0 Pd1_4 2.835733 1_555
Pd0_0 Pd1_1 2.835734 1_555
Pd0_1 Pd0_7 2.795856 1_545
Pd0_1 Pd0_7 2.795856 1_455
Pd0_1 Pd0_4 2.795857 1_456
Pd0_1 Pd0_2 2.795857 1_555
Pd0_1 Pd0_2 2.795857 1_546
Pd0_1 Pd0_4 2.795857 1_555
Pd0_1 Pd1_5 2.835733 1_555
Pd0_1 Pd1_3 2.835733 1_555
Pd0_1 Pd1_0 2.835734 1_556
Pd0_2 Pd0_4 2.795856 1_465
Pd0_2 Pd0_4 2.795856 1_555
Pd0_2 Pd0_7 2.795857 1_554
Pd0_2 Pd0_7 2.795857 1_455
Pd0_2 Pd1_6 2.835733 1_555
Pd0_2 Pd1_0 2.835733 1_565
Pd0_2 Pd1_3 2.835734 1_555
Pd0_3 Pd0_5 2.795856 1_555
Pd0_3 Pd0_5 2.795856 1_465
Pd0_3 Pd0_6 2.795857 1_456
Pd0_3 Pd0_6 2.795857 1_555
Pd0_3 Pd1_7 2.835733 1_555
Pd0_3 Pd1_1 2.835733 1_565
Pd0_3 Pd1_2 2.835734 1_556
Pd0_4 Pd0_7 2.795857 1_545
Pd0_4 Pd0_7 2.795857 1_554
Pd0_4 Pd1_6 2.835733 1_555
Pd0_4 Pd1_0 2.835733 1_655
Pd0_4 Pd1_5 2.835734 1_555
Pd0_5 Pd0_6 2.795857 1_546
Pd0_5 Pd0_6 2.795857 1_555
Pd0_5 Pd1_7 2.835733 1_555
Pd0_5 Pd1_1 2.835733 1_655
Pd0_5 Pd1_4 2.835734 1_556
Pd0_6 Pd1_2 2.835733 1_655
Pd0_6 Pd1_4 2.835733 1_565
Pd0_6 Pd1_7 2.835734 1_555
Pd0_7 Pd1_3 2.835733 1_655
Pd0_7 Pd1_5 2.835733 1_565
Pd0_7 Pd1_6 2.835734 1_556
Pd1_0 Pd1_6 2.795856 1_455
Pd1_0 Pd1_6 2.795856 1_545
Pd1_0 Pd1_5 2.795857 1_554
Pd1_0 Pd1_3 2.795857 1_554
Pd1_0 Pd1_3 2.795857 1_545
Pd1_0 Pd1_5 2.795857 1_455
Pd1_0 Pd2_5 2.819529 1_454
Pd1_0 Pd2_3 2.819529 1_544
Pd1_0 Pd2_6 2.819529 1_445
Pd1_1 Pd1_7 2.795856 1_455
Pd1_1 Pd1_7 2.795856 1_545
Pd1_1 Pd1_4 2.795857 1_456
Pd1_1 Pd1_2 2.795857 1_546
Pd1_1 Pd1_4 2.795857 1_555
Pd1_1 Pd1_2 2.795857 1_555
Pd1_1 Pd2_2 2.819529 1_545
Pd1_1 Pd2_4 2.819529 1_455
Pd1_1 Pd2_7 2.819529 1_445
Pd1_2 Pd1_4 2.795856 1_555
Pd1_2 Pd1_4 2.795856 1_465
Pd1_2 Pd1_7 2.795857 1_554
Pd1_2 Pd1_7 2.795857 1_455
Pd1_2 Pd2_7 2.819529 1_454
Pd1_2 Pd2_1 2.819529 1_554
Pd1_2 Pd2_4 2.819529 1_455
Pd1_3 Pd1_5 2.795856 1_465
Pd1_3 Pd1_5 2.795856 1_555
Pd1_3 Pd1_6 2.795857 1_456
Pd1_3 Pd1_6 2.795857 1_555
Pd1_3 Pd2_0 2.819529 1_555
Pd1_3 Pd2_6 2.819529 1_455
Pd1_3 Pd2_5 2.819529 1_455
Pd1_4 Pd1_7 2.795857 1_554
Pd1_4 Pd1_7 2.795857 1_545
Pd1_4 Pd2_7 2.819529 1_544
Pd1_4 Pd2_1 2.819529 1_554
Pd1_4 Pd2_2 2.819529 1_545
Pd1_5 Pd1_6 2.795857 1_546
Pd1_5 Pd1_6 2.795857 1_555
Pd1_5 Pd2_0 2.819529 1_555
Pd1_5 Pd2_6 2.819529 1_545
Pd1_5 Pd2_3 2.819529 1_545
Pd1_6 Pd2_5 2.819529 1_554
Pd1_6 Pd2_3 2.819529 1_554
Pd1_6 Pd2_0 2.819529 1_555
Pd1_7 Pd2_2 2.819529 1_555
Pd1_7 Pd2_4 2.819529 1_555
Pd1_7 Pd2_1 2.819529 1_555
Pd2_0 Pd2_6 2.795856 1_455
Pd2_0 Pd2_6 2.795856 1_545
Pd2_0 Pd2_5 2.795857 1_554
Pd2_0 Pd2_3 2.795857 1_545
Pd2_0 Pd2_3 2.795857 1_554
Pd2_0 Pd2_5 2.795857 1_455
Pd2_0 Pd3_4 2.835733 1_555
Pd2_0 Pd3_2 2.835733 1_555
Pd2_0 Pd3_1 2.835734 1_555
Pd2_1 Pd2_7 2.795856 1_545
Pd2_1 Pd2_7 2.795856 1_455
Pd2_1 Pd2_4 2.795857 1_555
Pd2_1 Pd2_2 2.795857 1_555
Pd2_1 Pd2_2 2.795857 1_546
Pd2_1 Pd2_4 2.795857 1_456
Pd2_1 Pd3_5 2.835733 1_555
Pd2_1 Pd3_3 2.835733 1_555
Pd2_1 Pd3_0 2.835734 1_556
Pd2_2 Pd2_4 2.795856 1_555
Pd2_2 Pd2_4 2.795856 1_465
Pd2_2 Pd2_7 2.795857 1_455
Pd2_2 Pd2_7 2.795857 1_554
Pd2_2 Pd3_0 2.835733 1_565
Pd2_2 Pd3_6 2.835733 1_555
Pd2_2 Pd3_3 2.835734 1_555
Pd2_3 Pd2_5 2.795856 1_465
Pd2_3 Pd2_5 2.795856 1_555
Pd2_3 Pd2_6 2.795857 1_456
Pd2_3 Pd2_6 2.795857 1_555
Pd2_3 Pd3_7 2.835733 1_555
Pd2_3 Pd3_1 2.835733 1_565
Pd2_3 Pd3_2 2.835734 1_556
Pd2_4 Pd2_7 2.795857 1_545
Pd2_4 Pd2_7 2.795857 1_554
Pd2_4 Pd3_0 2.835733 1_655
Pd2_4 Pd3_6 2.835733 1_555
Pd2_4 Pd3_5 2.835734 1_555
Pd2_5 Pd2_6 2.795857 1_555
Pd2_5 Pd2_6 2.795857 1_546
Pd2_5 Pd3_7 2.835733 1_555
Pd2_5 Pd3_1 2.835733 1_655
Pd2_5 Pd3_4 2.835734 1_556
Pd2_6 Pd3_2 2.835733 1_655
Pd2_6 Pd3_4 2.835733 1_565
Pd2_6 Pd3_7 2.835734 1_555
Pd2_7 Pd3_5 2.835733 1_565
Pd2_7 Pd3_3 2.835733 1_655
Pd2_7 Pd3_6 2.835734 1_556
Pd3_0 Pd3_6 2.795856 1_455
Pd3_0 Pd3_6 2.795856 1_545
Pd3_0 Pd3_3 2.795857 1_554
Pd3_0 Pd3_5 2.795857 1_455
Pd3_0 Pd3_5 2.795857 1_554
Pd3_0 Pd3_3 2.795857 1_545
Pd3_1 Pd3_7 2.795856 1_545
Pd3_1 Pd3_7 2.795856 1_455
Pd3_1 Pd3_2 2.795857 1_555
Pd3_1 Pd3_4 2.795857 1_456
Pd3_1 Pd3_2 2.795857 1_546
Pd3_1 Pd3_4 2.795857 1_555
Pd3_2 Pd3_4 2.795856 1_555
Pd3_2 Pd3_4 2.795856 1_465
Pd3_2 Pd3_7 2.795857 1_455
Pd3_2 Pd3_7 2.795857 1_554
Pd3_3 Pd3_5 2.795856 1_555
Pd3_3 Pd3_5 2.795856 1_465
Pd3_3 Pd3_6 2.795857 1_456
Pd3_3 Pd3_6 2.795857 1_555
Pd3_4 Pd3_7 2.795857 1_545
Pd3_4 Pd3_7 2.795857 1_554
Pd3_5 Pd3_6 2.795857 1_555
Pd3_5 Pd3_6 2.795857 1_546
