# generated using pymatgen
data_Zn(SbO2)2
_symmetry_space_group_name_H-M   'P 1'
_cell_length_a   6.66202007
_cell_length_b   6.66202007
_cell_length_c   6.66202007
_cell_angle_alpha   124.24732523
_cell_angle_beta   115.95644328
_cell_angle_gamma   89.97398264
_symmetry_Int_Tables_number   1
_chemical_formula_structural   Zn(SbO2)2
_chemical_formula_sum   'Zn2 Sb4 O8'
_cell_volume   207.38481690
_cell_formula_units_Z   2
loop_
 _symmetry_equiv_pos_site_id
 _symmetry_equiv_pos_as_xyz
  1  'x, y, z'
loop_
 _atom_site_type_symbol
 _atom_site_label
 _atom_site_symmetry_multiplicity
 _atom_site_fract_x
 _atom_site_fract_y
 _atom_site_fract_z
 _atom_site_occupancy
  Zn  Zn0  1  0.50000000  0.00000000  0.00000000  1
  Zn  Zn1  1  0.50000000  0.50000000  0.50000000  1
  Sb  Sb0  1  0.90187700  0.15187700  0.75000000  1
  Sb  Sb1  1  0.09812300  0.84812300  0.25000000  1
  Sb  Sb2  1  0.50000000  0.50000000  0.00000000  1
  Sb  Sb3  1  0.00000000  0.50000000  0.50000000  1
  O  O0  1  0.68942500  0.73928300  0.95014100  1
  O  O1  1  0.24247200  0.74578400  0.00331200  1
  O  O2  1  0.28914200  0.73928300  0.54985900  1
  O  O3  1  0.24247200  0.23916000  0.49668800  1
  O  O4  1  0.75752800  0.76084000  0.50331200  1
  O  O5  1  0.75752800  0.25421600  0.99668800  1
  O  O6  1  0.71085800  0.26071700  0.45014100  1
  O  O7  1  0.31057500  0.26071700  0.04985900  1
loop_
_geom_bond_atom_site_label_1
_geom_bond_atom_site_label_2
_geom_bond_distance
_geom_bond_site_symmetry_2
O0 Zn1 2.106004 1_555
O0 Zn0 2.106009 1_566
O0 Sb2 2.282273 1_556
O0 Sb1 2.353717 1_656
O1 Sb1 2.052377 1_555
O1 Sb2 2.369604 1_555
O1 Sb3 2.369604 1_554
O1 Zn0 2.426944 1_565
O2 Zn0 2.106004 1_566
O2 Zn1 2.106004 1_555
O2 Sb3 2.282269 1_555
O2 Sb1 2.353722 1_555
O3 Sb1 2.052377 1_545
O3 Sb3 2.369604 1_555
O3 Sb2 2.369604 1_556
O3 Zn1 2.426944 1_555
O4 Sb0 2.052377 1_565
O4 Sb3 2.369604 1_655
O4 Sb2 2.369604 1_555
O4 Zn1 2.426944 1_555
O5 Sb0 2.052377 1_555
O5 Sb2 2.369604 1_556
O5 Sb3 2.369604 1_656
O5 Zn0 2.426944 1_556
O6 Zn0 2.106004 1_555
O6 Zn1 2.106004 1_555
O6 Sb3 2.282269 1_655
O6 Sb0 2.353722 1_555
O7 Zn1 2.106004 1_555
O7 Zn0 2.106009 1_555
O7 Sb2 2.282273 1_555
O7 Sb0 2.353717 1_454
