# generated using pymatgen
data_TbAlCu
_symmetry_space_group_name_H-M   'P 1'
_cell_length_a   7.02032142
_cell_length_b   7.02032142
_cell_length_c   4.00588808
_cell_angle_alpha   90.00000000
_cell_angle_beta   90.00000000
_cell_angle_gamma   119.99998469
_symmetry_Int_Tables_number   1
_chemical_formula_structural   TbAlCu
_chemical_formula_sum   'Tb3 Al3 Cu3'
_cell_volume   170.97928729
_cell_formula_units_Z   3
loop_
 _symmetry_equiv_pos_site_id
 _symmetry_equiv_pos_as_xyz
  1  'x, y, z'
loop_
 _atom_site_type_symbol
 _atom_site_label
 _atom_site_symmetry_multiplicity
 _atom_site_fract_x
 _atom_site_fract_y
 _atom_site_fract_z
 _atom_site_occupancy
  Tb  Tb0  1  0.41491317  0.41491317  0.50000000  1
  Tb  Tb1  1  0.58508683  0.00000000  0.50000000  1
  Tb  Tb2  1  0.00000000  0.58508683  0.50000000  1
  Al  Al0  1  0.76755311  0.76755311  0.00000000  1
  Al  Al1  1  0.23244689  -0.00000000  -0.00000000  1
  Al  Al2  1  -0.00000000  0.23244689  -0.00000000  1
  Cu  Cu0  1  0.66666700  0.33333300  -0.00000000  1
  Cu  Cu1  1  0.33333300  0.66666700  -0.00000000  1
  Cu  Cu2  1  -0.00000000  -0.00000000  0.50000000  1
loop_
_geom_bond_atom_site_label_1
_geom_bond_atom_site_label_2
_geom_bond_distance
_geom_bond_site_symmetry_2
Al0 Cu2 2.583549 1_665
Al0 Cu2 2.583549 1_664
Al0 Cu1 2.763175 1_555
Al0 Cu0 2.763175 1_555
Al0 Al2 2.826451 1_665
Al0 Al1 2.826451 1_665
Al0 Tb0 3.184432 1_554
Al0 Tb0 3.184432 1_555
Al0 Tb1 3.225829 1_564
Al0 Tb2 3.225829 1_654
Al0 Tb1 3.225829 1_565
Al0 Tb2 3.225829 1_655
Al1 Cu2 2.583549 1_555
Al1 Cu2 2.583549 1_554
Al1 Cu1 2.763168 1_545
Al1 Cu0 2.763174 1_555
Al1 Al2 2.826450 1_555
Al1 Tb1 3.184432 1_554
Al1 Tb1 3.184432 1_555
Al1 Tb0 3.225829 1_555
Al1 Tb0 3.225829 1_554
Al1 Tb2 3.225829 1_544
Al1 Tb2 3.225829 1_545
Al2 Cu2 2.583549 1_555
Al2 Cu2 2.583549 1_554
Al2 Cu0 2.763168 1_455
Al2 Cu1 2.763174 1_555
Al2 Tb2 3.184432 1_554
Al2 Tb2 3.184432 1_555
Al2 Tb0 3.225829 1_555
Al2 Tb0 3.225829 1_554
Al2 Tb1 3.225829 1_454
Al2 Tb1 3.225829 1_455
Cu0 Tb1 2.911299 1_554
Cu0 Tb1 2.911299 1_555
Cu0 Tb2 2.911300 1_654
Cu0 Tb2 2.911300 1_655
Cu0 Tb0 2.911304 1_555
Cu0 Tb0 2.911304 1_554
Cu1 Tb2 2.911299 1_554
Cu1 Tb2 2.911299 1_555
Cu1 Tb1 2.911300 1_564
Cu1 Tb1 2.911300 1_565
Cu1 Tb0 2.911304 1_555
Cu1 Tb0 2.911304 1_554
Cu2 Tb2 2.912824 1_545
Cu2 Tb1 2.912824 1_455
Cu2 Tb0 2.912824 1_555
