# generated using pymatgen
data_In2Mo15Se19
_symmetry_space_group_name_H-M   'P 1'
_cell_length_a   20.38791328
_cell_length_b   20.38791328
_cell_length_c   20.38791292
_cell_angle_alpha   27.79027571
_cell_angle_beta   27.79027571
_cell_angle_gamma   27.79027562
_symmetry_Int_Tables_number   1
_chemical_formula_structural   In2Mo15Se19
_chemical_formula_sum   'In4 Mo30 Se38'
_cell_volume   1626.61366489
_cell_formula_units_Z   2
loop_
 _symmetry_equiv_pos_site_id
 _symmetry_equiv_pos_as_xyz
  1  'x, y, z'
loop_
 _atom_site_type_symbol
 _atom_site_label
 _atom_site_symmetry_multiplicity
 _atom_site_fract_x
 _atom_site_fract_y
 _atom_site_fract_z
 _atom_site_occupancy
  In  In0  1  0.38630500  0.38630500  0.38630500  1
  In  In1  1  0.88630500  0.88630500  0.88630500  1
  In  In2  1  0.61369500  0.61369500  0.61369500  1
  In  In3  1  0.11369500  0.11369500  0.11369500  1
  Mo  Mo0  1  0.31225200  0.50234000  0.62650300  1
  Mo  Mo1  1  0.62650300  0.31225200  0.50234000  1
  Mo  Mo2  1  0.50234000  0.62650300  0.31225200  1
  Mo  Mo3  1  0.12650300  0.00234000  0.81225200  1
  Mo  Mo4  1  0.81225200  0.12650300  0.00234000  1
  Mo  Mo5  1  0.00234000  0.81225200  0.12650300  1
  Mo  Mo6  1  0.68774800  0.49766000  0.37349700  1
  Mo  Mo7  1  0.37349700  0.68774800  0.49766000  1
  Mo  Mo8  1  0.49766000  0.37349700  0.68774800  1
  Mo  Mo9  1  0.87349700  0.99766000  0.18774800  1
  Mo  Mo10  1  0.18774800  0.87349700  0.99766000  1
  Mo  Mo11  1  0.99766000  0.18774800  0.87349700  1
  Mo  Mo12  1  0.13885100  0.27587400  0.45234200  1
  Mo  Mo13  1  0.45234200  0.13885100  0.27587400  1
  Mo  Mo14  1  0.27587400  0.45234200  0.13885100  1
  Mo  Mo15  1  0.95234200  0.77587400  0.63885100  1
  Mo  Mo16  1  0.63885100  0.95234200  0.77587400  1
  Mo  Mo17  1  0.77587400  0.63885100  0.95234200  1
  Mo  Mo18  1  0.86114900  0.72412600  0.54765800  1
  Mo  Mo19  1  0.54765800  0.86114900  0.72412600  1
  Mo  Mo20  1  0.72412600  0.54765800  0.86114900  1
  Mo  Mo21  1  0.04765800  0.22412600  0.36114900  1
  Mo  Mo22  1  0.36114900  0.04765800  0.22412600  1
  Mo  Mo23  1  0.22412600  0.36114900  0.04765800  1
  Mo  Mo24  1  0.09092600  0.40907400  0.25000000  1
  Mo  Mo25  1  0.25000000  0.09092600  0.40907400  1
  Mo  Mo26  1  0.40907400  0.25000000  0.09092600  1
  Mo  Mo27  1  0.75000000  0.90907400  0.59092600  1
  Mo  Mo28  1  0.59092600  0.75000000  0.90907400  1
  Mo  Mo29  1  0.90907400  0.59092600  0.75000000  1
  Se  Se0  1  0.44349800  0.19743100  0.81005500  1
  Se  Se1  1  0.81005500  0.44349800  0.19743100  1
  Se  Se2  1  0.19743100  0.81005500  0.44349800  1
  Se  Se3  1  0.31005500  0.69743100  0.94349800  1
  Se  Se4  1  0.94349800  0.31005500  0.69743100  1
  Se  Se5  1  0.69743100  0.94349800  0.31005500  1
  Se  Se6  1  0.55650200  0.80256900  0.18994500  1
  Se  Se7  1  0.18994500  0.55650200  0.80256900  1
  Se  Se8  1  0.80256900  0.18994500  0.55650200  1
  Se  Se9  1  0.68994500  0.30256900  0.05650200  1
  Se  Se10  1  0.05650200  0.68994500  0.30256900  1
  Se  Se11  1  0.30256900  0.05650200  0.68994500  1
  Se  Se12  1  0.96176400  0.57916000  0.31580000  1
  Se  Se13  1  0.31580000  0.96176400  0.57916000  1
  Se  Se14  1  0.57916000  0.31580000  0.96176400  1
  Se  Se15  1  0.81580000  0.07916000  0.46176400  1
  Se  Se16  1  0.46176400  0.81580000  0.07916000  1
  Se  Se17  1  0.07916000  0.46176400  0.81580000  1
  Se  Se18  1  0.03823600  0.42084000  0.68420000  1
  Se  Se19  1  0.68420000  0.03823600  0.42084000  1
  Se  Se20  1  0.42084000  0.68420000  0.03823600  1
  Se  Se21  1  0.18420000  0.92084000  0.53823600  1
  Se  Se22  1  0.53823600  0.18420000  0.92084000  1
  Se  Se23  1  0.92084000  0.53823600  0.18420000  1
  Se  Se24  1  0.55834600  0.94165400  0.25000000  1
  Se  Se25  1  0.25000000  0.55834600  0.94165400  1
  Se  Se26  1  0.94165400  0.25000000  0.55834600  1
  Se  Se27  1  0.75000000  0.44165400  0.05834600  1
  Se  Se28  1  0.05834600  0.75000000  0.44165400  1
  Se  Se29  1  0.44165400  0.05834600  0.75000000  1
  Se  Se30  1  0.44559500  0.44559500  0.44559500  1
  Se  Se31  1  0.94559500  0.94559500  0.94559500  1
  Se  Se32  1  0.55440500  0.55440500  0.55440500  1
  Se  Se33  1  0.05440500  0.05440500  0.05440500  1
  Se  Se34  1  0.32370400  0.32370400  0.32370400  1
  Se  Se35  1  0.82370400  0.82370400  0.82370400  1
  Se  Se36  1  0.67629600  0.67629600  0.67629600  1
  Se  Se37  1  0.17629600  0.17629600  0.17629600  1
loop_
_geom_bond_atom_site_label_1
_geom_bond_atom_site_label_2
_geom_bond_distance
_geom_bond_site_symmetry_2
In0 Se20 3.195315 1_555
In0 Se18 3.195315 1_555
In0 Se19 3.195315 1_555
In1 Se21 3.195315 1_655
In1 Se23 3.195315 1_556
In1 Se22 3.195315 1_565
In2 Se14 3.195315 1_555
In2 Se12 3.195315 1_555
In2 Se13 3.195315 1_555
In3 Se15 3.195315 1_455
In3 Se17 3.195315 1_554
In3 Se16 3.195315 1_545
Mo0 Se30 2.564553 1_555
Mo0 Se7 2.574272 1_555
Mo0 Se2 2.610237 1_555
Mo0 Se0 2.633306 1_555
Mo0 Se17 2.649407 1_555
Mo1 Se30 2.564553 1_555
Mo1 Se8 2.574272 1_555
Mo1 Se0 2.610237 1_555
Mo1 Se1 2.633306 1_555
Mo1 Se15 2.649407 1_555
Mo2 Se30 2.564553 1_555
Mo2 Se6 2.574272 1_555
Mo2 Se1 2.610237 1_555
Mo2 Se2 2.633306 1_555
Mo2 Se16 2.649406 1_555
Mo3 Se31 2.564553 1_445
Mo3 Se11 2.574272 1_555
Mo3 Se4 2.610237 1_455
Mo3 Se3 2.633306 1_545
Mo3 Se13 2.649406 1_545
Mo4 Se31 2.564553 1_544
Mo4 Se9 2.574272 1_555
Mo4 Se5 2.610237 1_545
Mo4 Se4 2.633306 1_554
Mo4 Se14 2.649407 1_554
Mo5 Se31 2.564553 1_454
Mo5 Se10 2.574272 1_555
Mo5 Se3 2.610237 1_554
Mo5 Se5 2.633306 1_455
Mo5 Se12 2.649407 1_455
Mo6 Se32 2.564553 1_555
Mo6 Se1 2.574272 1_555
Mo6 Se8 2.610237 1_555
Mo6 Se6 2.633306 1_555
Mo6 Se23 2.649407 1_555
Mo7 Se32 2.564553 1_555
Mo7 Se2 2.574272 1_555
Mo7 Se6 2.610237 1_555
Mo7 Se7 2.633306 1_555
Mo7 Se21 2.649407 1_555
Mo8 Se32 2.564553 1_555
Mo8 Se0 2.574272 1_555
Mo8 Se7 2.610237 1_555
Mo8 Se8 2.633306 1_555
Mo8 Se22 2.649406 1_555
Mo9 Se33 2.564553 1_665
Mo9 Se5 2.574272 1_555
Mo9 Se10 2.610237 1_655
Mo9 Se9 2.633306 1_565
Mo9 Se19 2.649406 1_565
Mo10 Se33 2.564553 1_566
Mo10 Se3 2.574272 1_555
Mo10 Se11 2.610237 1_565
Mo10 Se10 2.633306 1_556
Mo10 Se20 2.649407 1_556
Mo11 Se33 2.564553 1_656
Mo11 Se4 2.574272 1_555
Mo11 Se9 2.610237 1_556
Mo11 Se11 2.633306 1_655
Mo11 Se18 2.649407 1_655
Mo12 Se34 2.553824 1_555
Mo12 Se12 2.616595 1_455
Mo12 Se13 2.653646 1_545
Mo12 Se4 2.712021 1_455
Mo12 Se26 2.733991 1_455
Mo13 Se34 2.553824 1_555
Mo13 Se13 2.616595 1_545
Mo13 Se14 2.653646 1_554
Mo13 Se5 2.712021 1_545
Mo13 Se24 2.733991 1_545
Mo14 Se34 2.553824 1_555
Mo14 Se14 2.616595 1_554
Mo14 Se12 2.653646 1_455
Mo14 Se3 2.712021 1_554
Mo14 Se25 2.733991 1_554
Mo15 Se35 2.553824 1_555
Mo15 Se15 2.616595 1_565
Mo15 Se17 2.653646 1_655
Mo15 Se2 2.712021 1_655
Mo15 Se28 2.733991 1_655
Mo16 Se35 2.553824 1_555
Mo16 Se16 2.616595 1_556
Mo16 Se15 2.653646 1_565
Mo16 Se0 2.712021 1_565
Mo16 Se29 2.733991 1_565
Mo17 Se35 2.553824 1_555
Mo17 Se17 2.616595 1_655
Mo17 Se16 2.653646 1_556
Mo17 Se1 2.712021 1_556
Mo17 Se27 2.733991 1_556
Mo18 Se36 2.553824 1_555
Mo18 Se18 2.616595 1_655
Mo18 Se19 2.653646 1_565
Mo18 Se10 2.712021 1_655
Mo18 Se28 2.733991 1_655
Mo19 Se36 2.553824 1_555
Mo19 Se19 2.616595 1_565
Mo19 Se20 2.653646 1_556
Mo19 Se11 2.712021 1_565
Mo19 Se29 2.733991 1_565
Mo20 Se36 2.553824 1_555
Mo20 Se20 2.616595 1_556
Mo20 Se18 2.653646 1_655
Mo20 Se9 2.712021 1_556
Mo20 Se27 2.733991 1_556
Mo21 Se37 2.553824 1_555
Mo21 Se21 2.616595 1_545
Mo21 Se23 2.653646 1_455
Mo21 Se8 2.712021 1_455
Mo21 Se26 2.733991 1_455
Mo22 Se37 2.553824 1_555
Mo22 Se22 2.616595 1_554
Mo22 Se21 2.653646 1_545
Mo22 Se6 2.712021 1_545
Mo22 Se24 2.733991 1_545
Mo23 Se37 2.553824 1_555
Mo23 Se23 2.616595 1_455
Mo23 Se22 2.653646 1_554
Mo23 Se7 2.712021 1_554
Mo23 Se25 2.733991 1_554
Mo24 Se23 2.565684 1_455
Mo24 Se12 2.565684 1_455
Mo24 Se25 2.615289 1_554
Mo24 Se26 2.615289 1_455
Mo25 Se13 2.565684 1_545
Mo25 Se21 2.565684 1_545
Mo25 Se24 2.615289 1_545
Mo25 Se26 2.615289 1_455
Mo26 Se22 2.565684 1_554
Mo26 Se14 2.565684 1_554
Mo26 Se24 2.615289 1_545
Mo26 Se25 2.615289 1_554
Mo27 Se19 2.565684 1_565
Mo27 Se15 2.565684 1_565
Mo27 Se29 2.615289 1_565
Mo27 Se28 2.615289 1_655
Mo28 Se16 2.565684 1_556
Mo28 Se20 2.565684 1_556
Mo28 Se29 2.615289 1_565
Mo28 Se27 2.615289 1_556
Mo29 Se17 2.565684 1_655
Mo29 Se18 2.565684 1_655
Mo29 Se27 2.615289 1_556
Mo29 Se28 2.615289 1_655
