# generated using pymatgen
data_MgCr3(SO4)6
_symmetry_space_group_name_H-M   'P 1'
_cell_length_a   8.98896377
_cell_length_b   9.18272826
_cell_length_c   9.05788650
_cell_angle_alpha   54.49915219
_cell_angle_beta   54.42354088
_cell_angle_gamma   55.44320389
_symmetry_Int_Tables_number   1
_chemical_formula_structural   MgCr3(SO4)6
_chemical_formula_sum   'Mg1 Cr3 S6 O24'
_cell_volume   464.41289063
_cell_formula_units_Z   1
loop_
 _symmetry_equiv_pos_site_id
 _symmetry_equiv_pos_as_xyz
  1  'x, y, z'
loop_
 _atom_site_type_symbol
 _atom_site_label
 _atom_site_symmetry_multiplicity
 _atom_site_fract_x
 _atom_site_fract_y
 _atom_site_fract_z
 _atom_site_occupancy
  Mg  Mg0  1  0.58100000  0.22697500  0.83132600  1
  Cr  Cr0  1  0.35036700  0.35481100  0.35779500  1
  Cr  Cr1  1  0.65721500  0.65228900  0.63931500  1
  Cr  Cr2  1  0.84918200  0.83617700  0.84877600  1
  S  S0  1  0.04886800  0.72873900  0.46747600  1
  S  S1  1  0.46990600  0.02664600  0.73690600  1
  S  S2  1  0.73924500  0.46875700  0.03449200  1
  S  S3  1  0.25130000  0.56666200  0.95257700  1
  S  S4  1  0.52823300  0.95963200  0.26513300  1
  S  S5  1  0.95622300  0.25316700  0.53610700  1
  O  O0  1  0.11075300  0.27472300  0.53046800  1
  O  O1  1  0.26821700  0.53381000  0.12379300  1
  O  O2  1  0.00036500  0.92026100  0.32983800  1
  O  O3  1  0.50906900  0.12775700  0.27271500  1
  O  O4  1  0.02636500  0.71776800  0.65227600  1
  O  O5  1  0.24986000  0.59754400  0.39515800  1
  O  O6  1  0.38375100  0.22496500  0.61273700  1
  O  O7  1  0.33642200  0.95839700  0.92980700  1
  O  O8  1  0.60991300  0.38157600  0.23517300  1
  O  O9  1  0.04481400  0.67740200  0.97579300  1
  O  O10  1  0.31681000  0.38385600  0.94080600  1
  O  O11  1  0.34708100  0.94987400  0.32230600  1
  O  O12  1  0.63285200  0.04251300  0.74030000  1
  O  O13  1  0.70759800  0.65595800  0.02017500  1
  O  O14  1  0.94082200  0.34826700  0.98291500  1
  O  O15  1  0.37314500  0.68213000  0.76676200  1
  O  O16  1  0.65969900  0.98239100  0.04902000  1
  O  O17  1  0.64942800  0.77657100  0.37673900  1
  O  O18  1  0.75128700  0.38824400  0.63795500  1
  O  O19  1  0.96866900  0.29280900  0.35263600  1
  O  O20  1  0.58235500  0.90534900  0.62050800  1
  O  O21  1  0.94259000  0.06180200  0.69341700  1
  O  O22  1  0.65828800  0.50895700  0.90088700  1
  O  O23  1  0.92209500  0.62843600  0.52741700  1
loop_
_geom_bond_atom_site_label_1
_geom_bond_atom_site_label_2
_geom_bond_distance
_geom_bond_site_symmetry_2
Mg0 O10 1.932941 1_555
Mg0 O18 2.010803 1_555
Mg0 O12 2.011335 1_555
Mg0 O16 2.027311 1_546
Cr0 O6 2.011675 1_555
Cr0 O8 2.013810 1_555
Cr0 O5 2.033430 1_555
Cr0 O1 2.034085 1_555
Cr0 O0 2.041454 1_555
Cr0 O3 2.046658 1_555
Cr1 O23 1.898049 1_555
Cr1 O22 1.932958 1_555
Cr1 O20 1.944601 1_555
Cr1 O17 1.978546 1_555
Cr1 O15 2.017853 1_555
Cr1 O18 2.071414 1_555
Cr2 O4 1.967611 1_655
Cr2 O13 1.968503 1_556
Cr2 O9 2.009759 1_655
Cr2 O21 2.047019 1_565
Cr2 O12 2.053779 1_565
Cr2 O16 2.152435 1_556
O0 S5 1.479498 1_455
O1 S3 1.482659 1_554
O2 S0 1.432987 1_555
O3 S4 1.491819 1_545
O4 S0 1.512045 1_555
O5 S0 1.488256 1_555
O6 S1 1.488574 1_555
O7 S1 1.423818 1_565
O8 S2 1.484393 1_555
O9 S3 1.475253 1_555
O10 S3 1.479674 1_555
O11 S4 1.434647 1_555
O12 S1 1.570754 1_555
O13 S2 1.510633 1_555
O14 S2 1.437594 1_556
O15 S3 1.502148 1_555
O16 S4 1.544487 1_555
O17 S4 1.504925 1_555
O18 S5 1.594534 1_555
O19 S5 1.426205 1_555
O20 S1 1.490164 1_565
O21 S5 1.505422 1_555
O22 S2 1.526927 1_556
O23 S0 1.526992 1_655
