# generated using pymatgen
data_HoGePd
_symmetry_space_group_name_H-M   'P 1'
_cell_length_a   4.33469532
_cell_length_b   7.47051927
_cell_length_c   13.83795286
_cell_angle_alpha   90.00000000
_cell_angle_beta   90.00000000
_cell_angle_gamma   90.00000000
_symmetry_Int_Tables_number   1
_chemical_formula_structural   HoGePd
_chemical_formula_sum   'Ho8 Ge8 Pd8'
_cell_volume   448.10646950
_cell_formula_units_Z   8
loop_
 _symmetry_equiv_pos_site_id
 _symmetry_equiv_pos_as_xyz
  1  'x, y, z'
loop_
 _atom_site_type_symbol
 _atom_site_label
 _atom_site_symmetry_multiplicity
 _atom_site_fract_x
 _atom_site_fract_y
 _atom_site_fract_z
 _atom_site_occupancy
  Ho  Ho0  1  0.25000000  0.78751452  0.49866571  1
  Ho  Ho1  1  0.25000000  0.78751452  0.00133429  1
  Ho  Ho2  1  0.75000000  0.21248548  0.50133429  1
  Ho  Ho3  1  0.75000000  0.21248548  0.99866571  1
  Ho  Ho4  1  0.25000000  0.70934770  0.75000000  1
  Ho  Ho5  1  0.75000000  0.29065230  0.25000000  1
  Ho  Ho6  1  0.25000000  0.70283403  0.25000000  1
  Ho  Ho7  1  0.75000000  0.29716597  0.75000000  1
  Ge  Ge0  1  0.25000000  0.40796606  0.39474721  1
  Ge  Ge1  1  0.25000000  0.40796606  0.10525279  1
  Ge  Ge2  1  0.75000000  0.59203394  0.60525279  1
  Ge  Ge3  1  0.75000000  0.59203394  0.89474721  1
  Ge  Ge4  1  0.25000000  0.09144026  0.84716130  1
  Ge  Ge5  1  0.25000000  0.09144026  0.65283870  1
  Ge  Ge6  1  0.75000000  0.90855974  0.15283870  1
  Ge  Ge7  1  0.75000000  0.90855974  0.34716130  1
  Pd  Pd0  1  0.25000000  0.07606876  0.35886161  1
  Pd  Pd1  1  0.25000000  0.07606876  0.14113839  1
  Pd  Pd2  1  0.75000000  0.92393124  0.64113839  1
  Pd  Pd3  1  0.75000000  0.92393124  0.85886161  1
  Pd  Pd4  1  0.25000000  0.41770973  0.90459620  1
  Pd  Pd5  1  0.25000000  0.41770973  0.59540380  1
  Pd  Pd6  1  0.75000000  0.58229027  0.09540380  1
  Pd  Pd7  1  0.75000000  0.58229027  0.40459620  1
loop_
_geom_bond_atom_site_label_1
_geom_bond_atom_site_label_2
_geom_bond_distance
_geom_bond_site_symmetry_2
Ho0 Pd0 2.896466 1_565
Ho0 Pd7 2.956753 1_455
Ho0 Pd7 2.956753 1_555
Ho0 Pd5 3.069878 1_555
Ho0 Pd2 3.102080 1_455
Ho0 Pd2 3.102080 1_555
Ho1 Pd1 2.896466 1_565
Ho1 Pd6 2.956753 1_555
Ho1 Pd6 2.956753 1_455
Ho1 Pd4 3.069878 1_554
Ho1 Pd3 3.102080 1_454
Ho1 Pd3 3.102080 1_554
Ho2 Pd2 2.896466 1_545
Ho2 Pd5 2.956753 1_555
Ho2 Pd5 2.956753 1_655
Ho2 Pd7 3.069878 1_555
Ho2 Pd0 3.102080 1_555
Ho2 Pd0 3.102080 1_655
Ho3 Pd3 2.896466 1_545
Ho3 Pd4 2.956753 1_655
Ho3 Pd4 2.956753 1_555
Ho3 Pd6 3.069878 1_556
Ho3 Pd1 3.102080 1_656
Ho3 Pd1 3.102080 1_556
Ho4 Pd4 3.053401 1_555
Ho4 Pd5 3.053401 1_555
Ho4 Pd2 3.088118 1_455
Ho4 Pd2 3.088118 1_555
Ho4 Pd3 3.088118 1_455
Ho4 Pd3 3.088118 1_555
Ho5 Pd7 3.053401 1_555
Ho5 Pd6 3.053401 1_555
Ho5 Pd1 3.088118 1_655
Ho5 Pd0 3.088118 1_555
Ho5 Pd0 3.088118 1_655
Ho5 Pd1 3.088118 1_555
Ho6 Pd1 3.169177 1_565
Ho6 Pd0 3.169177 1_565
Ho6 Pd7 3.175677 1_455
Ho6 Pd7 3.175677 1_555
Ho6 Pd6 3.175677 1_455
Ho6 Pd6 3.175677 1_555
Ho7 Pd2 3.169177 1_545
Ho7 Pd3 3.169177 1_545
Ho7 Pd4 3.175677 1_555
Ho7 Pd4 3.175677 1_655
Ho7 Pd5 3.175677 1_655
Ho7 Pd5 3.175677 1_555
Ge0 Pd0 2.528684 1_555
Ge0 Pd7 2.532180 1_455
Ge0 Pd7 2.532180 1_555
Ge0 Pd5 2.777630 1_555
Ge0 Ho6 2.977319 1_555
Ge0 Ho2 3.000910 1_555
Ge0 Ho2 3.000910 1_455
Ge0 Ho5 3.078554 1_555
Ge0 Ho5 3.078554 1_455
Ge0 Ho0 3.179234 1_555
Ge1 Pd1 2.528684 1_555
Ge1 Pd6 2.532180 1_555
Ge1 Pd6 2.532180 1_455
Ge1 Pd4 2.777630 1_554
Ge1 Ho6 2.977319 1_555
Ge1 Ho3 3.000910 1_554
Ge1 Ho3 3.000910 1_454
Ge1 Ho5 3.078554 1_455
Ge1 Ho5 3.078554 1_555
Ge1 Ho1 3.179234 1_555
Ge2 Pd2 2.528684 1_555
Ge2 Pd5 2.532180 1_555
Ge2 Pd5 2.532180 1_655
Ge2 Pd7 2.777630 1_555
Ge2 Ho7 2.977319 1_555
Ge2 Ho0 3.000910 1_655
Ge2 Ho0 3.000910 1_555
Ge2 Ho4 3.078554 1_655
Ge2 Ho4 3.078554 1_555
Ge2 Ho2 3.179234 1_555
Ge3 Pd3 2.528684 1_555
Ge3 Pd4 2.532180 1_555
Ge3 Pd4 2.532180 1_655
Ge3 Pd6 2.777630 1_556
Ge3 Ho7 2.977319 1_555
Ge3 Ho1 3.000910 1_556
Ge3 Ho1 3.000910 1_656
Ge3 Ho4 3.078554 1_655
Ge3 Ho4 3.078554 1_555
Ge3 Ho3 3.179234 1_555
Ge4 Pd3 2.507900 1_545
Ge4 Pd3 2.507900 1_445
Ge4 Pd4 2.563710 1_555
Ge4 Ge5 2.689027 1_555
Ge4 Ho7 2.977769 1_455
Ge4 Ho7 2.977769 1_555
Ge4 Ho1 3.115550 1_546
Ge4 Ho3 3.148088 1_455
Ge4 Ho3 3.148088 1_555
Ge4 Ho4 3.155232 1_545
Ge5 Pd2 2.507900 1_445
Ge5 Pd2 2.507900 1_545
Ge5 Pd5 2.563710 1_555
Ge5 Ho7 2.977769 1_455
Ge5 Ho7 2.977769 1_555
Ge5 Ho0 3.115550 1_545
Ge5 Ho2 3.148088 1_455
Ge5 Ho2 3.148088 1_555
Ge5 Ho4 3.155232 1_545
Ge6 Pd1 2.507900 1_565
Ge6 Pd1 2.507900 1_665
Ge6 Pd6 2.563710 1_555
Ge6 Ge7 2.689027 1_555
Ge6 Ho6 2.977769 1_655
Ge6 Ho6 2.977769 1_555
Ge6 Ho3 3.115550 1_564
Ge6 Ho1 3.148088 1_655
Ge6 Ho1 3.148088 1_555
Ge6 Ho5 3.155232 1_565
Ge7 Pd0 2.507900 1_565
Ge7 Pd0 2.507900 1_665
Ge7 Pd7 2.563710 1_555
Ge7 Ho6 2.977769 1_655
Ge7 Ho6 2.977769 1_555
Ge7 Ho2 3.115550 1_565
Ge7 Ho0 3.148088 1_555
Ge7 Ho0 3.148088 1_655
Ge7 Ho5 3.155232 1_565
Pd0 Pd1 3.012844 1_555
Pd2 Pd3 3.012844 1_555
