# generated using pymatgen
data_SrMg6Ni
_symmetry_space_group_name_H-M   'P 1'
_cell_length_a   4.96613800
_cell_length_b   6.03511200
_cell_length_c   13.17961700
_cell_angle_alpha   90.00000000
_cell_angle_beta   90.00000000
_cell_angle_gamma   90.00000000
_symmetry_Int_Tables_number   1
_chemical_formula_structural   SrMg6Ni
_chemical_formula_sum   'Sr2 Mg12 Ni2'
_cell_volume   395.00892434
_cell_formula_units_Z   2
loop_
 _symmetry_equiv_pos_site_id
 _symmetry_equiv_pos_as_xyz
  1  'x, y, z'
loop_
 _atom_site_type_symbol
 _atom_site_label
 _atom_site_symmetry_multiplicity
 _atom_site_fract_x
 _atom_site_fract_y
 _atom_site_fract_z
 _atom_site_occupancy
  Sr  Sr0  1  0.50000000  0.50000000  0.19750100  1
  Sr  Sr1  1  0.50000000  0.00000000  0.69750100  1
  Mg  Mg0  1  0.50000000  0.24691600  0.44216800  1
  Mg  Mg1  1  0.50000000  0.75308400  0.44216800  1
  Mg  Mg2  1  0.00000000  0.76343600  0.07784400  1
  Mg  Mg3  1  0.00000000  0.23656400  0.07784400  1
  Mg  Mg4  1  0.00000000  0.00000000  0.29410100  1
  Mg  Mg5  1  0.00000000  0.50000000  0.36577700  1
  Mg  Mg6  1  0.50000000  0.74691600  0.94216800  1
  Mg  Mg7  1  0.50000000  0.25308400  0.94216800  1
  Mg  Mg8  1  0.00000000  0.26343600  0.57784400  1
  Mg  Mg9  1  0.00000000  0.73656400  0.57784400  1
  Mg  Mg10  1  0.00000000  0.50000000  0.79410100  1
  Mg  Mg11  1  0.00000000  0.00000000  0.86577700  1
  Ni  Ni0  1  0.50000000  0.00000000  0.10259400  1
  Ni  Ni1  1  0.50000000  0.50000000  0.60259400  1
loop_
_geom_bond_atom_site_label_1
_geom_bond_atom_site_label_2
_geom_bond_distance
_geom_bond_site_symmetry_2
Mg0 Ni1 2.608335 1_555
Mg0 Mg8 3.061549 1_555
Mg0 Mg8 3.061549 1_655
Mg0 Mg5 3.084187 1_555
Mg0 Mg5 3.084187 1_655
Mg0 Sr0 3.568064 1_555
Mg0 Sr1 3.680368 1_555
Mg1 Ni1 2.608335 1_555
Mg1 Mg9 3.061549 1_555
Mg1 Mg9 3.061549 1_655
Mg1 Mg5 3.084187 1_555
Mg1 Mg5 3.084187 1_655
Mg1 Sr0 3.568064 1_555
Mg1 Sr1 3.680368 1_565
Mg2 Mg3 2.855380 1_565
Mg2 Ni0 2.882765 1_565
Mg2 Ni0 2.882765 1_465
Mg2 Mg6 3.061549 1_554
Mg2 Mg6 3.061549 1_454
Mg2 Mg3 3.179732 1_555
Mg2 Mg4 3.187766 1_565
Mg2 Sr0 3.343701 1_455
Mg2 Sr0 3.343701 1_555
Mg3 Ni0 2.882765 1_555
Mg3 Ni0 2.882765 1_455
Mg3 Mg7 3.061549 1_454
Mg3 Mg7 3.061549 1_554
Mg3 Mg4 3.187766 1_555
Mg3 Sr0 3.343701 1_455
Mg3 Sr0 3.343701 1_555
Mg4 Mg5 3.161966 1_555
Mg4 Mg5 3.161966 1_545
Mg5 Mg8 3.138489 1_555
Mg5 Mg9 3.138489 1_555
Mg5 Sr0 3.329313 1_555
Mg5 Sr0 3.329313 1_455
Mg6 Ni0 2.608335 1_566
Mg6 Sr1 3.568064 1_565
Mg6 Sr0 3.680368 1_556
Mg7 Ni0 2.608335 1_556
Mg7 Sr1 3.568064 1_555
Mg7 Sr0 3.680368 1_556
Mg8 Mg9 2.855380 1_555
Mg8 Ni1 2.882765 1_455
Mg8 Ni1 2.882765 1_555
Mg8 Mg9 3.179732 1_545
Mg8 Sr1 3.343701 1_555
Mg8 Sr1 3.343701 1_455
Mg9 Ni1 2.882765 1_455
Mg9 Ni1 2.882765 1_555
Mg9 Sr1 3.343701 1_565
Mg9 Sr1 3.343701 1_465
Mg10 Mg11 3.161966 1_555
Mg10 Mg11 3.161966 1_565
Mg10 Mg9 3.187766 1_555
Mg10 Mg8 3.187766 1_555
Mg11 Mg6 3.084187 1_445
Mg11 Mg6 3.084187 1_545
Mg11 Mg7 3.084187 1_455
Mg11 Mg7 3.084187 1_555
Mg11 Mg2 3.138489 1_546
Mg11 Mg3 3.138489 1_556
Mg11 Sr1 3.329313 1_455
Mg11 Sr1 3.329313 1_555
Ni0 Sr0 3.266533 1_545
Ni0 Sr0 3.266533 1_555
Ni1 Sr1 3.266533 1_565
Ni1 Sr1 3.266533 1_555
