# generated using pymatgen
data_KBa2(BiO3)3
_symmetry_space_group_name_H-M   'P 1'
_cell_length_a   6.18756434
_cell_length_b   6.18756434
_cell_length_c   7.58140100
_cell_angle_alpha   90.00000000
_cell_angle_beta   90.00000000
_cell_angle_gamma   120.00000360
_symmetry_Int_Tables_number   1
_chemical_formula_structural   KBa2(BiO3)3
_chemical_formula_sum   'K1 Ba2 Bi3 O9'
_cell_volume   251.37352740
_cell_formula_units_Z   1
loop_
 _symmetry_equiv_pos_site_id
 _symmetry_equiv_pos_as_xyz
  1  'x, y, z'
loop_
 _atom_site_type_symbol
 _atom_site_label
 _atom_site_symmetry_multiplicity
 _atom_site_fract_x
 _atom_site_fract_y
 _atom_site_fract_z
 _atom_site_occupancy
  K  K0  1  0.00000000  0.00000000  0.00000000  1
  Ba  Ba0  1  0.66666700  0.33333300  0.33160500  1
  Ba  Ba1  1  0.33333300  0.66666700  0.66839500  1
  Bi  Bi0  1  0.00000000  0.00000000  0.50000000  1
  Bi  Bi1  1  0.66666700  0.33333300  0.83629000  1
  Bi  Bi2  1  0.33333300  0.66666700  0.16371000  1
  O  O0  1  0.82896600  0.17103400  0.65484900  1
  O  O1  1  0.50000000  0.50000000  0.00000000  1
  O  O2  1  0.17103400  0.82896600  0.34515100  1
  O  O3  1  0.65793200  0.82896600  0.34515100  1
  O  O4  1  0.34206800  0.17103400  0.65484900  1
  O  O5  1  0.00000000  0.50000000  0.00000000  1
  O  O6  1  0.82896600  0.65793200  0.65484900  1
  O  O7  1  0.50000000  0.00000000  0.00000000  1
  O  O8  1  0.17103400  0.34206800  0.34515100  1
loop_
_geom_bond_atom_site_label_1
_geom_bond_atom_site_label_2
_geom_bond_distance
_geom_bond_site_symmetry_2
K0 O1 3.093782 1_445
K0 O1 3.093782 1_555
K0 O7 3.093782 1_455
K0 O5 3.093782 1_545
K0 O7 3.093782 1_555
K0 O5 3.093782 1_555
K0 O4 3.194865 1_554
K0 O3 3.194865 1_445
K0 O6 3.194865 1_444
K0 O8 3.194865 1_555
K0 O0 3.194865 1_454
K0 O2 3.194865 1_545
Ba0 O0 3.005181 1_555
Ba0 O4 3.005184 1_555
Ba0 O6 3.005184 1_555
Ba0 O7 3.083965 1_555
Ba0 O5 3.083965 1_655
Ba0 O1 3.083968 1_555
Ba0 O8 3.095837 1_655
Ba0 O3 3.095837 1_545
Ba0 O2 3.095840 1_655
Ba0 O2 3.095840 1_545
Ba0 O3 3.095843 1_555
Ba0 O8 3.095843 1_555
Ba1 O2 3.005181 1_555
Ba1 O3 3.005184 1_555
Ba1 O8 3.005184 1_555
Ba1 O5 3.083965 1_556
Ba1 O7 3.083965 1_566
Ba1 O1 3.083968 1_556
Ba1 O4 3.095837 1_565
Ba1 O6 3.095837 1_455
Ba1 O0 3.095840 1_565
Ba1 O0 3.095840 1_455
Ba1 O6 3.095843 1_555
Ba1 O4 3.095843 1_555
Bi0 O8 2.176719 1_555
Bi0 O4 2.176719 1_555
Bi0 O6 2.176719 1_445
Bi0 O3 2.176719 1_445
Bi0 O2 2.176719 1_545
Bi0 O0 2.176719 1_455
Bi1 O5 2.175074 1_656
Bi1 O7 2.175074 1_556
Bi1 O1 2.175078 1_556
Bi1 O0 2.217584 1_555
Bi1 O6 2.217588 1_555
Bi1 O4 2.217588 1_555
Bi2 O5 2.175074 1_555
Bi2 O7 2.175074 1_565
Bi2 O1 2.175078 1_555
Bi2 O2 2.217584 1_555
Bi2 O3 2.217588 1_555
Bi2 O8 2.217588 1_555
