# generated using pymatgen
data_Pr3Zn
_symmetry_space_group_name_H-M   'P 1'
_cell_length_a   6.12640954
_cell_length_b   6.12640954
_cell_length_c   6.12640954
_cell_angle_alpha   133.21584814
_cell_angle_beta   133.21584814
_cell_angle_gamma   68.31537428
_symmetry_Int_Tables_number   1
_chemical_formula_structural   Pr3Zn
_chemical_formula_sum   'Pr3 Zn1'
_cell_volume   119.96941784
_cell_formula_units_Z   1
loop_
 _symmetry_equiv_pos_site_id
 _symmetry_equiv_pos_as_xyz
  1  'x, y, z'
loop_
 _atom_site_type_symbol
 _atom_site_label
 _atom_site_symmetry_multiplicity
 _atom_site_fract_x
 _atom_site_fract_y
 _atom_site_fract_z
 _atom_site_occupancy
  Pr  Pr0  1  0.75000000  0.25000000  0.50000000  1
  Pr  Pr1  1  0.25000000  0.75000000  0.50000000  1
  Pr  Pr2  1  0.50000000  0.50000000  0.00000000  1
  Zn  Zn0  1  0.00000000  0.00000000  0.00000000  1
loop_
_geom_bond_atom_site_label_1
_geom_bond_atom_site_label_2
_geom_bond_distance
_geom_bond_site_symmetry_2
Pr0 Pr1 3.439810 1_656
Pr0 Pr1 3.439810 1_544
Pr0 Pr1 3.439810 1_555
Pr0 Pr1 3.439810 1_645
Pr0 Pr2 3.513018 1_656
Pr0 Zn0 3.513018 1_555
Pr0 Zn0 3.513018 1_666
Pr0 Zn0 3.513018 1_656
Pr0 Zn0 3.513018 1_655
Pr0 Pr2 3.513018 1_556
Pr0 Pr2 3.513018 1_545
Pr0 Pr2 3.513018 1_555
Pr1 Pr2 3.513018 1_455
Pr1 Zn0 3.513018 1_666
Pr1 Pr2 3.513018 1_555
Pr1 Zn0 3.513018 1_555
Pr1 Zn0 3.513018 1_566
Pr1 Pr2 3.513018 1_556
Pr1 Zn0 3.513018 1_565
Pr1 Pr2 3.513018 1_566
Pr2 Zn0 3.439810 1_655
Pr2 Zn0 3.439810 1_554
Pr2 Zn0 3.439810 1_666
Pr2 Zn0 3.439810 1_565
