# generated using pymatgen
data_Te3(W2N)2
_symmetry_space_group_name_H-M   'P 1'
_cell_length_a   5.57857600
_cell_length_b   10.39277100
_cell_length_c   11.78884200
_cell_angle_alpha   90.00000000
_cell_angle_beta   90.00000000
_cell_angle_gamma   90.00000000
_symmetry_Int_Tables_number   1
_chemical_formula_structural   Te3(W2N)2
_chemical_formula_sum   'Te12 W16 N8'
_cell_volume   683.48007608
_cell_formula_units_Z   4
loop_
 _symmetry_equiv_pos_site_id
 _symmetry_equiv_pos_as_xyz
  1  'x, y, z'
loop_
 _atom_site_type_symbol
 _atom_site_label
 _atom_site_symmetry_multiplicity
 _atom_site_fract_x
 _atom_site_fract_y
 _atom_site_fract_z
 _atom_site_occupancy
  Te  Te0  1  0.84802800  0.25000000  0.12914700  1
  Te  Te1  1  0.34802800  0.25000000  0.37085300  1
  Te  Te2  1  0.15197200  0.75000000  0.87085300  1
  Te  Te3  1  0.65197200  0.75000000  0.62914700  1
  Te  Te4  1  0.54856800  0.53320900  0.31178200  1
  Te  Te5  1  0.04856800  0.96679100  0.18821800  1
  Te  Te6  1  0.45143200  0.03320900  0.68821800  1
  Te  Te7  1  0.95143200  0.46679100  0.81178200  1
  Te  Te8  1  0.45143200  0.46679100  0.68821800  1
  Te  Te9  1  0.95143200  0.03320900  0.81178200  1
  Te  Te10  1  0.54856800  0.96679100  0.31178200  1
  Te  Te11  1  0.04856800  0.53320900  0.18821800  1
  W  W0  1  0.60454600  0.25000000  0.81747100  1
  W  W1  1  0.10454600  0.25000000  0.68252900  1
  W  W2  1  0.39545400  0.75000000  0.18252900  1
  W  W3  1  0.89545400  0.75000000  0.31747100  1
  W  W4  1  0.65028700  0.25000000  0.57099300  1
  W  W5  1  0.15028700  0.25000000  0.92900700  1
  W  W6  1  0.34971300  0.75000000  0.42900700  1
  W  W7  1  0.84971300  0.75000000  0.07099300  1
  W  W8  1  0.73228200  0.46373300  0.01278100  1
  W  W9  1  0.23228200  0.03626700  0.48721900  1
  W  W10  1  0.26771800  0.96373300  0.98721900  1
  W  W11  1  0.76771800  0.53626700  0.51278100  1
  W  W12  1  0.26771800  0.53626700  0.98721900  1
  W  W13  1  0.76771800  0.96373300  0.51278100  1
  W  W14  1  0.73228200  0.03626700  0.01278100  1
  W  W15  1  0.23228200  0.46373300  0.48721900  1
  N  N0  1  0.56155200  0.62728600  0.05878700  1
  N  N1  1  0.06155200  0.87271400  0.44121300  1
  N  N2  1  0.43844800  0.12728600  0.94121300  1
  N  N3  1  0.93844800  0.37271400  0.55878700  1
  N  N4  1  0.43844800  0.37271400  0.94121300  1
  N  N5  1  0.93844800  0.12728600  0.55878700  1
  N  N6  1  0.56155200  0.87271400  0.05878700  1
  N  N7  1  0.06155200  0.62728600  0.44121300  1
loop_
_geom_bond_atom_site_label_1
_geom_bond_atom_site_label_2
_geom_bond_distance
_geom_bond_site_symmetry_2
Te0 W14 2.689404 1_555
Te0 W8 2.689404 1_555
Te0 W5 2.900007 1_654
Te1 W9 2.689404 1_555
Te1 W15 2.689404 1_555
Te1 W4 2.900007 1_555
Te2 W10 2.689404 1_555
Te2 W12 2.689404 1_555
Te2 W7 2.900007 1_456
Te3 W13 2.689404 1_555
Te3 W11 2.689404 1_555
Te3 W6 2.900007 1_555
Te4 W11 2.666528 1_555
Te4 W15 2.812827 1_555
Te4 W2 2.850904 1_555
Te4 W6 2.866472 1_555
Te4 W3 2.970775 1_555
Te5 W10 2.666528 1_554
Te5 W14 2.812827 1_465
Te5 W3 2.850904 1_455
Te5 W7 2.866472 1_455
Te5 W2 2.970775 1_555
Te6 W9 2.666528 1_555
Te6 W13 2.812827 1_545
Te6 W0 2.850904 1_555
Te6 W4 2.866472 1_555
Te6 W1 2.970775 1_555
Te7 W8 2.666528 1_556
Te7 W12 2.812827 1_655
Te7 W1 2.850904 1_655
Te7 W5 2.866472 1_655
Te7 W0 2.970775 1_555
Te8 W15 2.666528 1_555
Te8 W11 2.812827 1_555
Te8 W0 2.850904 1_555
Te8 W4 2.866472 1_555
Te8 W1 2.970775 1_555
Te9 W14 2.666528 1_556
Te9 W10 2.812827 1_645
Te9 W1 2.850904 1_655
Te9 W5 2.866472 1_655
Te9 W0 2.970775 1_555
Te10 W13 2.666528 1_555
Te10 W9 2.812827 1_565
Te10 W2 2.850904 1_555
Te10 W6 2.866472 1_555
Te10 W3 2.970775 1_555
Te11 W12 2.666528 1_554
Te11 W8 2.812827 1_455
Te11 W3 2.850904 1_455
Te11 W7 2.866472 1_455
Te11 W2 2.970775 1_555
N0 W8 2.022496 1_555
N0 W7 2.057022 1_555
N0 W12 2.072084 1_554
N0 W2 2.147809 1_555
N1 W9 2.022496 1_565
N1 W6 2.057022 1_555
N1 W13 2.072084 1_455
N1 W3 2.147809 1_455
N2 W10 2.022496 1_545
N2 W5 2.057022 1_555
N2 W14 2.072084 1_556
N2 W0 2.147809 1_555
N3 W11 2.022496 1_555
N3 W4 2.057022 1_555
N3 W15 2.072084 1_655
N3 W1 2.147809 1_655
N4 W12 2.022496 1_555
N4 W5 2.057022 1_555
N4 W8 2.072084 1_556
N4 W0 2.147809 1_555
N5 W13 2.022496 1_545
N5 W4 2.057022 1_555
N5 W9 2.072084 1_655
N5 W1 2.147809 1_655
N6 W14 2.022496 1_565
N6 W7 2.057022 1_555
N6 W10 2.072084 1_554
N6 W2 2.147809 1_555
N7 W15 2.022496 1_555
N7 W6 2.057022 1_555
N7 W11 2.072084 1_455
N7 W3 2.147809 1_455
