# generated using pymatgen
data_Ca2TeWO6
_symmetry_space_group_name_H-M   'P 1'
_cell_length_a   6.16992800
_cell_length_b   5.74249800
_cell_length_c   9.38666594
_cell_angle_alpha   57.64811397
_cell_angle_beta   90.00000000
_cell_angle_gamma   90.00000000
_symmetry_Int_Tables_number   1
_chemical_formula_structural   Ca2TeWO6
_chemical_formula_sum   'Ca4 Te2 W2 O12'
_cell_volume   280.95365972
_cell_formula_units_Z   2
loop_
 _symmetry_equiv_pos_site_id
 _symmetry_equiv_pos_as_xyz
  1  'x, y, z'
loop_
 _atom_site_type_symbol
 _atom_site_label
 _atom_site_symmetry_multiplicity
 _atom_site_fract_x
 _atom_site_fract_y
 _atom_site_fract_z
 _atom_site_occupancy
  Ca  Ca0  1  0.47831800  0.22312500  0.76557900  1
  Ca  Ca1  1  0.97831800  0.77687500  0.73442100  1
  Ca  Ca2  1  0.52168200  0.77687500  0.23442100  1
  Ca  Ca3  1  0.02168200  0.22312500  0.26557900  1
  Te  Te0  1  0.50000000  0.00000000  0.50000000  1
  Te  Te1  1  0.00000000  0.00000000  0.00000000  1
  W  W0  1  0.50000000  0.50000000  0.00000000  1
  W  W1  1  0.00000000  0.50000000  0.50000000  1
  O  O0  1  0.27393400  0.47298600  0.87489900  1
  O  O1  1  0.77393400  0.52701400  0.62510100  1
  O  O2  1  0.72606600  0.52701400  0.12510100  1
  O  O3  1  0.22606600  0.47298600  0.37489900  1
  O  O4  1  0.32882100  0.78188900  0.02011500  1
  O  O5  1  0.82882100  0.21811100  0.47988500  1
  O  O6  1  0.67117900  0.21811100  0.97988500  1
  O  O7  1  0.17117900  0.78188900  0.52011500  1
  O  O8  1  0.11451500  0.18429900  0.71902600  1
  O  O9  1  0.61451500  0.81570100  0.78097400  1
  O  O10  1  0.38548500  0.18429900  0.21902600  1
  O  O11  1  0.88548500  0.81570100  0.28097400  1
loop_
_geom_bond_atom_site_label_1
_geom_bond_atom_site_label_2
_geom_bond_distance
_geom_bond_site_symmetry_2
Ca0 O8 2.320201 1_555
Ca0 O6 2.324092 1_555
Ca0 O1 2.376567 1_555
Ca0 O9 2.416416 1_545
Ca0 O0 2.505529 1_555
Ca0 O4 2.549580 1_546
Ca1 O9 2.320201 1_555
Ca1 O7 2.324092 1_655
Ca1 O0 2.376567 1_655
Ca1 O8 2.416416 1_665
Ca1 O1 2.505529 1_555
Ca1 O5 2.549580 1_565
Ca2 O11 2.320201 1_555
Ca2 O4 2.324092 1_555
Ca2 O3 2.376567 1_555
Ca2 O10 2.416416 1_565
Ca2 O2 2.505529 1_555
Ca2 O6 2.549580 1_564
Ca3 O10 2.320201 1_555
Ca3 O5 2.324092 1_455
Ca3 O2 2.376567 1_455
Ca3 O11 2.416416 1_445
Ca3 O3 2.505529 1_555
Ca3 O7 2.549580 1_545
O0 W0 1.882407 1_556
O1 W1 1.882407 1_655
O2 W0 1.882407 1_555
O3 W1 1.882407 1_555
O4 W0 2.024494 1_555
O4 Te1 2.338237 1_565
O5 W1 2.024494 1_655
O5 Te0 2.338237 1_555
O6 W0 2.024494 1_556
O6 Te1 2.338237 1_656
O7 W1 2.024494 1_555
O7 Te0 2.338237 1_565
O8 W1 2.005915 1_555
O8 Te1 2.363875 1_556
O9 W0 2.005915 1_556
O9 Te0 2.363875 1_565
O10 W0 2.005915 1_555
O10 Te0 2.363875 1_555
O11 W1 2.005915 1_655
O11 Te1 2.363875 1_665
