# generated using pymatgen
data_Ge6Bi3N11
_symmetry_space_group_name_H-M   'P 1'
_cell_length_a   10.65655700
_cell_length_b   10.65655700
_cell_length_c   5.20443900
_cell_angle_alpha   90.00000000
_cell_angle_beta   90.00000000
_cell_angle_gamma   90.00000000
_symmetry_Int_Tables_number   1
_chemical_formula_structural   Ge6Bi3N11
_chemical_formula_sum   'Ge12 Bi6 N22'
_cell_volume   591.02757953
_cell_formula_units_Z   2
loop_
 _symmetry_equiv_pos_site_id
 _symmetry_equiv_pos_as_xyz
  1  'x, y, z'
loop_
 _atom_site_type_symbol
 _atom_site_label
 _atom_site_symmetry_multiplicity
 _atom_site_fract_x
 _atom_site_fract_y
 _atom_site_fract_z
 _atom_site_occupancy
  Ge  Ge0  1  0.41776800  0.29390500  0.53122300  1
  Ge  Ge1  1  0.58223200  0.70609500  0.53122300  1
  Ge  Ge2  1  0.08223200  0.79390500  0.53122300  1
  Ge  Ge3  1  0.91776800  0.20609500  0.53122300  1
  Ge  Ge4  1  0.29390500  0.58223200  0.53122300  1
  Ge  Ge5  1  0.70609500  0.41776800  0.53122300  1
  Ge  Ge6  1  0.79390500  0.91776800  0.53122300  1
  Ge  Ge7  1  0.20609500  0.08223200  0.53122300  1
  Ge  Ge8  1  0.88309600  0.38309600  0.05559800  1
  Ge  Ge9  1  0.11690400  0.61690400  0.05559800  1
  Ge  Ge10  1  0.61690400  0.88309600  0.05559800  1
  Ge  Ge11  1  0.38309600  0.11690400  0.05559800  1
  Bi  Bi0  1  0.31186900  0.81186900  0.95461400  1
  Bi  Bi1  1  0.68813100  0.18813100  0.95461400  1
  Bi  Bi2  1  0.18813100  0.31186900  0.95461400  1
  Bi  Bi3  1  0.81186900  0.68813100  0.95461400  1
  Bi  Bi4  1  0.50000000  0.50000000  0.97024000  1
  Bi  Bi5  1  0.00000000  0.00000000  0.97024000  1
  N  N0  1  0.32289900  0.42590700  0.67572200  1
  N  N1  1  0.67710100  0.57409300  0.67572200  1
  N  N2  1  0.17710100  0.92590700  0.67572200  1
  N  N3  1  0.82289900  0.07409300  0.67572200  1
  N  N4  1  0.42590700  0.67710100  0.67572200  1
  N  N5  1  0.57409300  0.32289900  0.67572200  1
  N  N6  1  0.92590700  0.82289900  0.67572200  1
  N  N7  1  0.07409300  0.17710100  0.67572200  1
  N  N8  1  0.42185800  0.27599300  0.18231500  1
  N  N9  1  0.57814200  0.72400700  0.18231500  1
  N  N10  1  0.07814200  0.77599300  0.18231500  1
  N  N11  1  0.92185800  0.22400700  0.18231500  1
  N  N12  1  0.27599300  0.57814200  0.18231500  1
  N  N13  1  0.72400700  0.42185800  0.18231500  1
  N  N14  1  0.77599300  0.92185800  0.18231500  1
  N  N15  1  0.22400700  0.07814200  0.18231500  1
  N  N16  1  0.83189800  0.33189800  0.71745700  1
  N  N17  1  0.16810200  0.66810200  0.71745700  1
  N  N18  1  0.66810200  0.83189800  0.71745700  1
  N  N19  1  0.33189800  0.16810200  0.71745700  1
  N  N20  1  0.50000000  0.00000000  0.98591900  1
  N  N21  1  0.00000000  0.50000000  0.98591900  1
loop_
_geom_bond_atom_site_label_1
_geom_bond_atom_site_label_2
_geom_bond_distance
_geom_bond_site_symmetry_2
Ge0 N8 1.826395 1_555
Ge0 N5 1.853700 1_555
Ge0 N0 1.888492 1_555
Ge0 N19 1.890524 1_555
Ge1 N9 1.826395 1_555
Ge1 N4 1.853700 1_555
Ge1 N1 1.888492 1_555
Ge1 N18 1.890524 1_555
Ge2 N10 1.826395 1_555
Ge2 N6 1.853700 1_455
Ge2 N2 1.888492 1_555
Ge2 N17 1.890524 1_555
Ge3 N11 1.826395 1_555
Ge3 N7 1.853700 1_655
Ge3 N3 1.888492 1_555
Ge3 N16 1.890524 1_555
Ge4 N12 1.826395 1_555
Ge4 N0 1.853700 1_555
Ge4 N4 1.888492 1_555
Ge4 N17 1.890524 1_555
Ge5 N13 1.826395 1_555
Ge5 N1 1.853700 1_555
Ge5 N5 1.888492 1_555
Ge5 N16 1.890524 1_555
Ge6 N14 1.826395 1_555
Ge6 N3 1.853700 1_565
Ge6 N6 1.888492 1_555
Ge6 N18 1.890524 1_555
Ge7 N15 1.826395 1_555
Ge7 N2 1.853700 1_545
Ge7 N7 1.888492 1_555
Ge7 N19 1.890524 1_555
Ge8 N21 1.798753 1_654
Ge8 N11 1.865405 1_555
Ge8 N13 1.865405 1_555
Ge8 N16 1.921552 1_554
Ge9 N21 1.798753 1_554
Ge9 N12 1.865405 1_555
Ge9 N10 1.865405 1_555
Ge9 N17 1.921552 1_554
Ge10 N20 1.798753 1_564
Ge10 N14 1.865405 1_555
Ge10 N9 1.865405 1_555
Ge10 N18 1.921552 1_554
Ge11 N20 1.798753 1_554
Ge11 N8 1.865405 1_555
Ge11 N15 1.865405 1_555
Ge11 N19 1.921552 1_554
Bi0 N4 2.376170 1_555
Bi0 N2 2.376170 1_555
Bi0 N17 2.493560 1_555
Bi0 N12 2.784642 1_556
Bi0 N10 2.784642 1_556
Bi0 N20 2.839933 1_565
Bi1 N3 2.376170 1_555
Bi1 N5 2.376170 1_555
Bi1 N16 2.493560 1_555
Bi1 N11 2.784642 1_556
Bi1 N13 2.784642 1_556
Bi1 N20 2.839933 1_555
Bi2 N0 2.376170 1_555
Bi2 N7 2.376170 1_555
Bi2 N19 2.493560 1_555
Bi2 N8 2.784642 1_556
Bi2 N15 2.784642 1_556
Bi2 N21 2.839933 1_555
Bi3 N6 2.376170 1_555
Bi3 N1 2.376170 1_555
Bi3 N18 2.493560 1_555
Bi3 N14 2.784642 1_556
Bi3 N9 2.784642 1_556
Bi3 N21 2.839933 1_655
Bi4 N1 2.556318 1_555
Bi4 N4 2.556318 1_555
Bi4 N0 2.556318 1_555
Bi4 N5 2.556318 1_555
Bi4 N13 2.758642 1_556
Bi4 N12 2.758642 1_556
Bi4 N9 2.758642 1_556
Bi4 N8 2.758642 1_556
Bi5 N6 2.556318 1_445
Bi5 N3 2.556318 1_455
Bi5 N7 2.556318 1_555
Bi5 N2 2.556318 1_545
Bi5 N10 2.758642 1_546
Bi5 N15 2.758642 1_556
Bi5 N11 2.758642 1_456
Bi5 N14 2.758642 1_446
