# generated using pymatgen
data_Ba2SnS3F2
_symmetry_space_group_name_H-M   'P 1'
_cell_length_a   6.26695444
_cell_length_b   6.37174221
_cell_length_c   19.42080419
_cell_angle_alpha   90.00000000
_cell_angle_beta   90.00000000
_cell_angle_gamma   90.00000000
_symmetry_Int_Tables_number   1
_chemical_formula_structural   Ba2SnS3F2
_chemical_formula_sum   'Ba8 Sn4 S12 F8'
_cell_volume   775.50025260
_cell_formula_units_Z   4
loop_
 _symmetry_equiv_pos_site_id
 _symmetry_equiv_pos_as_xyz
  1  'x, y, z'
loop_
 _atom_site_type_symbol
 _atom_site_label
 _atom_site_symmetry_multiplicity
 _atom_site_fract_x
 _atom_site_fract_y
 _atom_site_fract_z
 _atom_site_occupancy
  Ba  Ba0  1  0.24706704  0.49711643  0.42339865  1
  Ba  Ba1  1  0.74706704  0.00288357  0.07660135  1
  Ba  Ba2  1  0.25293296  0.99711643  0.57660135  1
  Ba  Ba3  1  0.75293296  0.50288357  0.92339865  1
  Ba  Ba4  1  0.75293296  0.50288357  0.57660135  1
  Ba  Ba5  1  0.25293296  0.99711643  0.92339865  1
  Ba  Ba6  1  0.74706704  0.00288357  0.42339865  1
  Ba  Ba7  1  0.24706704  0.49711643  0.07660135  1
  Sn  Sn0  1  0.15619633  0.58439211  0.75000000  1
  Sn  Sn1  1  0.65619633  0.91560789  0.75000000  1
  Sn  Sn2  1  0.34380367  0.08439211  0.25000000  1
  Sn  Sn3  1  0.84380367  0.41560789  0.25000000  1
  S  S0  1  0.74392113  0.51528224  0.13784514  1
  S  S1  1  0.76313839  0.54175007  0.75000000  1
  S  S2  1  0.73686161  0.04175007  0.25000000  1
  S  S3  1  0.23686161  0.45824993  0.25000000  1
  S  S4  1  0.24392113  0.98471776  0.36215486  1
  S  S5  1  0.75607887  0.01528224  0.86215486  1
  S  S6  1  0.25607887  0.48471776  0.63784514  1
  S  S7  1  0.25607887  0.48471776  0.86215486  1
  S  S8  1  0.74392113  0.51528224  0.36215486  1
  S  S9  1  0.24392113  0.98471776  0.13784514  1
  S  S10  1  0.26313839  0.95824993  0.75000000  1
  S  S11  1  0.75607887  0.01528224  0.63784514  1
  F  F0  1  0.49913179  0.25263534  0.99912708  1
  F  F1  1  0.99913179  0.24736466  0.50087292  1
  F  F2  1  0.50086821  0.74736466  0.49912708  1
  F  F3  1  0.49913179  0.25263534  0.50087292  1
  F  F4  1  0.99913179  0.24736466  0.99912708  1
  F  F5  1  0.00086821  0.75263534  0.49912708  1
  F  F6  1  0.50086821  0.74736466  0.00087292  1
  F  F7  1  0.00086821  0.75263534  0.00087292  1
loop_
_geom_bond_atom_site_label_1
_geom_bond_atom_site_label_2
_geom_bond_distance
_geom_bond_site_symmetry_2
Ba0 F3 2.680651 1_555
Ba0 F5 2.682216 1_555
Ba0 F1 2.685248 1_455
Ba0 F2 2.689860 1_555
Ba0 S4 3.326817 1_555
Ba0 S8 3.335205 1_555
Ba0 S8 3.372047 1_455
Ba0 S3 3.377241 1_555
Ba0 S4 3.474832 1_545
Ba1 F4 2.680651 1_554
Ba1 F6 2.682216 1_545
Ba1 F0 2.685248 1_554
Ba1 F7 2.689860 1_645
Ba1 S0 3.326817 1_545
Ba1 S9 3.335205 1_645
Ba1 S9 3.372047 1_545
Ba1 S2 3.377241 1_555
Ba1 S0 3.474832 1_555
Ba2 F5 2.680651 1_555
Ba2 F3 2.682216 1_565
Ba2 F2 2.685248 1_555
Ba2 F1 2.689860 1_465
Ba2 S6 3.326817 1_565
Ba2 S11 3.335205 1_465
Ba2 S11 3.372047 1_565
Ba2 S10 3.377241 1_555
Ba2 S6 3.474832 1_555
Ba3 F6 2.680651 1_556
Ba3 F4 2.682216 1_555
Ba3 F7 2.685248 1_656
Ba3 F0 2.689860 1_555
Ba3 S5 3.326817 1_555
Ba3 S7 3.335205 1_555
Ba3 S7 3.372047 1_655
Ba3 S1 3.377241 1_555
Ba3 S5 3.474832 1_565
Ba4 F2 2.680651 1_555
Ba4 F1 2.682216 1_555
Ba4 F5 2.685248 1_655
Ba4 F3 2.689860 1_555
Ba4 S11 3.326817 1_555
Ba4 S6 3.335205 1_555
Ba4 S6 3.372047 1_655
Ba4 S1 3.377241 1_555
Ba4 S11 3.474832 1_565
Ba5 F7 2.680651 1_556
Ba5 F0 2.682216 1_565
Ba5 F6 2.685248 1_556
Ba5 F4 2.689860 1_465
Ba5 S7 3.326817 1_565
Ba5 S5 3.335205 1_465
Ba5 S5 3.372047 1_565
Ba5 S10 3.377241 1_555
Ba5 S7 3.474832 1_555
Ba6 F1 2.680651 1_555
Ba6 F2 2.682216 1_545
Ba6 F3 2.685248 1_555
Ba6 F5 2.689860 1_645
Ba6 S8 3.326817 1_545
Ba6 S4 3.335205 1_645
Ba6 S4 3.372047 1_545
Ba6 S2 3.377241 1_555
Ba6 S8 3.474832 1_555
Ba7 F0 2.680651 1_554
Ba7 F7 2.682216 1_555
Ba7 F4 2.685248 1_454
Ba7 F6 2.689860 1_555
Ba7 S9 3.326817 1_555
Ba7 S0 3.335205 1_555
Ba7 S0 3.372047 1_455
Ba7 S3 3.377241 1_555
Ba7 S9 3.474832 1_545
S0 Sn3 2.353606 1_555
S1 Sn1 2.474609 1_555
S1 Sn0 2.478216 1_655
S2 Sn3 2.474609 1_555
S2 Sn2 2.478216 1_555
S3 Sn2 2.474609 1_555
S3 Sn3 2.478216 1_455
S4 Sn2 2.353606 1_565
S5 Sn1 2.353606 1_545
S6 Sn0 2.353606 1_555
S7 Sn0 2.353606 1_555
S8 Sn3 2.353606 1_555
S9 Sn2 2.353606 1_565
S10 Sn0 2.474609 1_555
S10 Sn1 2.478216 1_555
S11 Sn1 2.353606 1_545
