# generated using pymatgen
data_NaPNO3
_symmetry_space_group_name_H-M   'P 1'
_cell_length_a   5.76219400
_cell_length_b   5.76219367
_cell_length_c   6.37231800
_cell_angle_alpha   90.00000000
_cell_angle_beta   90.00000000
_cell_angle_gamma   120.00000192
_symmetry_Int_Tables_number   1
_chemical_formula_structural   NaPNO3
_chemical_formula_sum   'Na2 P2 N2 O6'
_cell_volume   183.23304142
_cell_formula_units_Z   2
loop_
 _symmetry_equiv_pos_site_id
 _symmetry_equiv_pos_as_xyz
  1  'x, y, z'
loop_
 _atom_site_type_symbol
 _atom_site_label
 _atom_site_symmetry_multiplicity
 _atom_site_fract_x
 _atom_site_fract_y
 _atom_site_fract_z
 _atom_site_occupancy
  Na  Na0  1  0.00000000  0.00000000  0.49587800  1
  Na  Na1  1  0.00000000  0.00000000  0.99587800  1
  P  P0  1  0.33333300  0.66666700  0.17884800  1
  P  P1  1  0.66666700  0.33333300  0.67884800  1
  N  N0  1  0.33333300  0.66666700  0.90770100  1
  N  N1  1  0.66666700  0.33333300  0.40770100  1
  O  O0  1  0.62688900  0.78654700  0.24486600  1
  O  O1  1  0.21345300  0.84034200  0.24486600  1
  O  O2  1  0.15965800  0.37311100  0.24486600  1
  O  O3  1  0.37311100  0.21345300  0.74486600  1
  O  O4  1  0.78654700  0.15965800  0.74486600  1
  O  O5  1  0.84034200  0.62688900  0.74486600  1
loop_
_geom_bond_atom_site_label_1
_geom_bond_atom_site_label_2
_geom_bond_distance
_geom_bond_site_symmetry_2
Na0 O5 2.451141 1_445
Na0 O3 2.451141 1_555
Na0 O4 2.451141 1_455
Na0 O2 2.459509 1_555
Na0 O0 2.459509 1_445
Na0 O1 2.459510 1_545
Na1 O2 2.451141 1_556
Na1 O0 2.451141 1_446
Na1 O1 2.451141 1_546
Na1 O5 2.459509 1_445
Na1 O3 2.459509 1_555
Na1 O4 2.459510 1_455
N0 P0 1.727835 1_556
N1 P1 1.727835 1_555
O0 P0 1.531975 1_555
O1 P0 1.531970 1_555
O2 P0 1.531974 1_555
O3 P1 1.531975 1_555
O4 P1 1.531970 1_555
O5 P1 1.531974 1_555
