# generated using pymatgen
data_K3TaNbCu3S8
_symmetry_space_group_name_H-M   'P 1'
_cell_length_a   12.24606874
_cell_length_b   12.24606874
_cell_length_c   14.48548198
_cell_angle_alpha   60.50630743
_cell_angle_beta   60.50630743
_cell_angle_gamma   26.37237339
_symmetry_Int_Tables_number   1
_chemical_formula_structural   K3TaNbCu3S8
_chemical_formula_sum   'K6 Ta2 Nb2 Cu6 S16'
_cell_volume   832.50027377
_cell_formula_units_Z   2
loop_
 _symmetry_equiv_pos_site_id
 _symmetry_equiv_pos_as_xyz
  1  'x, y, z'
loop_
 _atom_site_type_symbol
 _atom_site_label
 _atom_site_symmetry_multiplicity
 _atom_site_fract_x
 _atom_site_fract_y
 _atom_site_fract_z
 _atom_site_occupancy
  K  K0  1  0.50003500  0.49991300  0.25005800  1
  K  K1  1  0.50008700  0.49996500  0.74994200  1
  K  K2  1  0.15046300  0.23290400  0.15528000  1
  K  K3  1  0.76709600  0.84953700  0.84472000  1
  K  K4  1  0.84940900  0.76717900  0.34476800  1
  K  K5  1  0.23282100  0.15059100  0.65523200  1
  Ta  Ta0  1  0.09010400  0.65827500  0.02971700  1
  Ta  Ta1  1  0.34172500  0.90989600  0.97028300  1
  Nb  Nb0  1  0.91021400  0.34174900  0.47017800  1
  Nb  Nb1  1  0.65825100  0.08978600  0.52982200  1
  Cu  Cu0  1  0.59295000  0.16078600  0.03167800  1
  Cu  Cu1  1  0.83921400  0.40705000  0.96832200  1
  Cu  Cu2  1  0.40702500  0.83919000  0.46845000  1
  Cu  Cu3  1  0.16081000  0.59297500  0.53155000  1
  Cu  Cu4  1  0.21923900  0.78076100  0.00000000  1
  Cu  Cu5  1  0.78088700  0.21911300  0.50000000  1
  S  S0  1  0.75897200  0.82129200  0.13993500  1
  S  S1  1  0.17870800  0.24102800  0.86006500  1
  S  S2  1  0.24334000  0.17647100  0.35990400  1
  S  S3  1  0.82352900  0.75666000  0.64009500  1
  S  S4  1  0.35774700  0.46027300  0.12308500  1
  S  S5  1  0.53972700  0.64225300  0.87691500  1
  S  S6  1  0.64046600  0.54073200  0.37714700  1
  S  S7  1  0.45926800  0.35953400  0.62285300  1
  S  S8  1  0.94037100  0.98073000  0.91124100  1
  S  S9  1  0.01927000  0.05962900  0.08875900  1
  S  S10  1  0.06054100  0.01773200  0.58867200  1
  S  S11  1  0.98226800  0.93945900  0.41132800  1
  S  S12  1  0.31051000  0.37667600  0.93710000  1
  S  S13  1  0.62332400  0.68949000  0.06290000  1
  S  S14  1  0.68722200  0.62559300  0.56311100  1
  S  S15  1  0.37440700  0.31277800  0.43688900  1
loop_
_geom_bond_atom_site_label_1
_geom_bond_atom_site_label_2
_geom_bond_distance
_geom_bond_site_symmetry_2
K0 S15 3.324707 1_555
K0 S13 3.327467 1_555
K0 S11 3.357893 1_455
K0 S9 3.362403 1_655
K0 S6 3.487153 1_555
K0 S4 3.493596 1_555
K0 S9 3.545331 1_565
K0 S11 3.550764 1_545
K1 S14 3.324707 1_555
K1 S12 3.327467 1_555
K1 S10 3.357893 1_565
K1 S8 3.362403 1_545
K1 S7 3.487153 1_555
K1 S5 3.493596 1_555
K1 S8 3.545331 1_455
K1 S10 3.550764 1_655
K2 S2 3.232816 1_555
K2 S13 3.344939 1_455
K2 S12 3.396267 1_554
K2 S13 3.420035 1_545
K2 S0 3.539207 1_455
K2 S0 3.626854 1_545
K2 S6 3.677517 1_455
K3 S3 3.232830 1_555
K3 S12 3.344939 1_565
K3 S13 3.396267 1_556
K3 S12 3.420035 1_655
K3 S1 3.539207 1_565
K3 S1 3.626854 1_655
K3 S7 3.677517 1_565
K4 S0 3.233255 1_555
K4 S15 3.333274 1_655
K4 S14 3.397048 1_555
K4 S15 3.428378 1_565
K4 S2 3.549425 1_655
K4 S2 3.616339 1_565
K4 S4 3.669722 1_655
K5 S1 3.233255 1_555
K5 S14 3.333274 1_545
K5 S15 3.397048 1_555
K5 S14 3.428378 1_455
K5 S3 3.549421 1_545
K5 S3 3.616336 1_455
K5 S5 3.669722 1_545
Nb0 S2 2.293962 1_655
Nb0 S14 2.308908 1_555
Nb0 S6 2.322152 1_555
Nb0 S10 2.322917 1_655
Nb1 S3 2.293958 1_545
Nb1 S15 2.308908 1_555
Nb1 S7 2.322152 1_555
Nb1 S11 2.322917 1_545
Cu0 S0 2.334775 1_545
Cu0 S12 2.354543 1_554
Cu0 S4 2.366020 1_555
Cu0 S8 2.382476 1_544
Cu1 S1 2.334775 1_655
Cu1 S13 2.354543 1_556
Cu1 S5 2.366020 1_555
Cu1 S9 2.382476 1_656
Cu2 S2 2.328861 1_565
Cu2 S14 2.348358 1_555
Cu2 S6 2.365339 1_555
Cu2 S10 2.380520 1_565
Cu3 S3 2.328858 1_455
Cu3 S15 2.348358 1_555
Cu3 S7 2.365339 1_555
Cu3 S11 2.380520 1_455
Cu4 S9 2.355956 1_565
Cu4 S8 2.355956 1_454
Cu4 S4 2.370345 1_555
Cu4 S5 2.370345 1_554
Cu5 S10 2.353481 1_655
Cu5 S11 2.353481 1_545
Cu5 S6 2.369012 1_555
Cu5 S7 2.369012 1_555
S0 Ta0 2.288224 1_655
S1 Ta1 2.288224 1_545
S4 Ta0 2.312243 1_555
S5 Ta1 2.312243 1_555
S8 Ta0 2.313446 1_656
S9 Ta1 2.313446 1_544
S12 Ta0 2.299738 1_556
S13 Ta1 2.299738 1_554
