# generated using pymatgen
data_Li9Mn2Co5O16
_symmetry_space_group_name_H-M   'P 1'
_cell_length_a   4.98586400
_cell_length_b   5.93444583
_cell_length_c   9.81411981
_cell_angle_alpha   88.40072420
_cell_angle_beta   79.01761166
_cell_angle_gamma   88.83067648
_symmetry_Int_Tables_number   1
_chemical_formula_structural   Li9Mn2Co5O16
_chemical_formula_sum   'Li9 Mn2 Co5 O16'
_cell_volume   284.92063046
_cell_formula_units_Z   1
loop_
 _symmetry_equiv_pos_site_id
 _symmetry_equiv_pos_as_xyz
  1  'x, y, z'
loop_
 _atom_site_type_symbol
 _atom_site_label
 _atom_site_symmetry_multiplicity
 _atom_site_fract_x
 _atom_site_fract_y
 _atom_site_fract_z
 _atom_site_occupancy
  Li  Li0  1  0.25278000  0.99543600  0.24605900  1
  Li  Li1  1  0.24871700  0.25503100  0.75277700  1
  Li  Li2  1  0.24171700  0.50430600  0.24435700  1
  Li  Li3  1  0.75213100  0.25469900  0.24562100  1
  Li  Li4  1  0.75828300  0.49569400  0.75564300  1
  Li  Li5  1  0.75128300  0.74496900  0.24722300  1
  Li  Li6  1  0.24786900  0.74530100  0.75437900  1
  Li  Li7  1  0.74722000  0.00456400  0.75394100  1
  Li  Li8  1  0.00000000  0.50000000  0.00000000  1
  Mn  Mn0  1  0.00000000  0.00000000  0.00000000  1
  Mn  Mn1  1  0.50000000  0.50000000  0.50000000  1
  Co  Co0  1  0.00113000  0.24668400  0.49909700  1
  Co  Co1  1  0.99887000  0.75331600  0.50090300  1
  Co  Co2  1  0.50040700  0.74219800  0.99972900  1
  Co  Co3  1  0.50000000  0.00000000  0.50000000  1
  Co  Co4  1  0.49959300  0.25780200  0.00027100  1
  O  O0  1  0.13550000  0.76445300  0.11124000  1
  O  O1  1  0.14244000  0.99304900  0.61364300  1
  O  O2  1  0.14029100  0.22799000  0.10817900  1
  O  O3  1  0.63489700  0.01494900  0.10977900  1
  O  O4  1  0.63913100  0.26595300  0.61678900  1
  O  O5  1  0.60302300  0.51033800  0.11210100  1
  O  O6  1  0.13640400  0.49486600  0.61825000  1
  O  O7  1  0.63896000  0.77479300  0.61648700  1
  O  O8  1  0.36104000  0.22520700  0.38351300  1
  O  O9  1  0.39697700  0.48966200  0.88789900  1
  O  O10  1  0.36086900  0.73404700  0.38321100  1
  O  O11  1  0.86359600  0.50513400  0.38175000  1
  O  O12  1  0.85970900  0.77201000  0.89182100  1
  O  O13  1  0.85756000  0.00695100  0.38635700  1
  O  O14  1  0.36510300  0.98505100  0.89022100  1
  O  O15  1  0.86450000  0.23554700  0.88876000  1
loop_
_geom_bond_atom_site_label_1
_geom_bond_atom_site_label_2
_geom_bond_distance
_geom_bond_site_symmetry_2
Li0 O2 2.050264 1_565
Li0 O8 2.092983 1_565
Li0 O0 2.097691 1_555
Li0 O3 2.112213 1_565
Li0 O10 2.152709 1_555
Li0 O13 2.179320 1_465
Li1 O6 2.055892 1_555
Li1 O15 2.119075 1_455
Li1 O4 2.141243 1_555
Li1 O9 2.182277 1_555
Li1 O14 2.205195 1_545
Li1 O1 2.233888 1_545
Li2 O5 2.010049 1_555
Li2 O11 2.098527 1_455
Li2 O0 2.118555 1_555
Li2 O10 2.124617 1_555
Li2 O8 2.259530 1_555
Li2 O2 2.268135 1_555
Li3 O13 2.115984 1_555
Li3 O3 2.140102 1_555
Li3 O2 2.143547 1_655
Li3 O8 2.158591 1_555
Li3 O11 2.174838 1_555
Li3 O5 2.187576 1_555
Li4 O9 2.010049 1_555
Li4 O6 2.098527 1_655
Li4 O15 2.118555 1_555
Li4 O4 2.124617 1_555
Li4 O7 2.259530 1_555
Li4 O12 2.268135 1_555
Li5 O11 2.055892 1_555
Li5 O0 2.119075 1_655
Li5 O10 2.141243 1_555
Li5 O5 2.182277 1_555
Li5 O3 2.205195 1_565
Li5 O13 2.233888 1_565
Li6 O1 2.115984 1_555
Li6 O14 2.140102 1_555
Li6 O12 2.143547 1_455
Li6 O7 2.158591 1_555
Li6 O6 2.174838 1_555
Li6 O9 2.187576 1_555
Li7 O12 2.050264 1_545
Li7 O7 2.092983 1_545
Li7 O15 2.097691 1_555
Li7 O14 2.112213 1_545
Li7 O4 2.152709 1_555
Li7 O1 2.179320 1_645
Li8 O9 2.073838 1_554
Li8 O5 2.073838 1_455
Li8 O2 2.088867 1_555
Li8 O12 2.088867 1_454
Li8 O0 2.128652 1_555
Li8 O15 2.128652 1_454
Mn0 O14 1.932306 1_544
Mn0 O3 1.932306 1_455
Mn0 O15 1.938949 1_454
Mn0 O0 1.938949 1_545
Mn0 O12 1.961830 1_444
Mn0 O2 1.961830 1_555
Mn1 O11 1.957757 1_555
Mn1 O6 1.957757 1_555
Mn1 O4 1.974549 1_555
Mn1 O10 1.974549 1_555
Mn1 O7 2.213200 1_555
Mn1 O8 2.213200 1_555
Co0 O8 1.935526 1_555
Co0 O4 1.951776 1_455
Co0 O1 2.046893 1_545
Co0 O13 2.047398 1_455
Co0 O11 2.075650 1_455
Co0 O6 2.104457 1_555
Co1 O7 1.935526 1_555
Co1 O10 1.951776 1_655
Co1 O13 2.046893 1_565
Co1 O1 2.047398 1_655
Co1 O6 2.075650 1_655
Co1 O11 2.104457 1_555
Co2 O5 1.863551 1_556
Co2 O12 1.908319 1_555
Co2 O0 1.940328 1_556
Co2 O14 1.958899 1_555
Co2 O9 2.013815 1_555
Co2 O3 2.157290 1_566
Co3 O1 1.914850 1_545
Co3 O13 1.914850 1_555
Co3 O8 1.936970 1_555
Co3 O7 1.936970 1_545
Co3 O4 2.175894 1_555
Co3 O10 2.175894 1_545
Co4 O9 1.863551 1_554
Co4 O2 1.908319 1_555
Co4 O15 1.940328 1_554
Co4 O3 1.958899 1_555
Co4 O5 2.013815 1_555
Co4 O14 2.157290 1_544
