# generated using pymatgen
data_Tb2SeO2
_symmetry_space_group_name_H-M   'P 1'
_cell_length_a   6.68800359
_cell_length_b   6.68800359
_cell_length_c   6.68800359
_cell_angle_alpha   146.51140983
_cell_angle_beta   146.51140983
_cell_angle_gamma   48.08776852
_symmetry_Int_Tables_number   1
_chemical_formula_structural   Tb2SeO2
_chemical_formula_sum   'Tb2 Se1 O2'
_cell_volume   90.70279930
_cell_formula_units_Z   1
loop_
 _symmetry_equiv_pos_site_id
 _symmetry_equiv_pos_as_xyz
  1  'x, y, z'
loop_
 _atom_site_type_symbol
 _atom_site_label
 _atom_site_symmetry_multiplicity
 _atom_site_fract_x
 _atom_site_fract_y
 _atom_site_fract_z
 _atom_site_occupancy
  Tb  Tb0  1  0.34381400  0.34381400  0.00000000  1
  Tb  Tb1  1  0.65618600  0.65618600  0.00000000  1
  Se  Se0  1  0.00000000  0.00000000  0.00000000  1
  O  O0  1  0.75000000  0.25000000  0.50000000  1
  O  O1  1  0.25000000  0.75000000  0.50000000  1
loop_
_geom_bond_atom_site_label_1
_geom_bond_atom_site_label_2
_geom_bond_distance
_geom_bond_site_symmetry_2
Se0 Tb1 3.326450 1_444
Se0 Tb1 3.326450 1_455
Se0 Tb1 3.326450 1_556
Se0 Tb1 3.326450 1_545
Se0 Tb0 3.326450 1_545
Se0 Tb0 3.326450 1_455
Se0 Tb0 3.326450 1_444
Se0 Tb0 3.326450 1_556
O0 Tb0 2.241852 1_555
O0 Tb0 2.241852 1_656
O0 Tb1 2.241852 1_556
O0 Tb1 2.241852 1_545
O1 Tb0 2.241852 1_555
O1 Tb0 2.241852 1_566
O1 Tb1 2.241852 1_556
O1 Tb1 2.241852 1_455
