# generated using pymatgen
data_TiPOs
_symmetry_space_group_name_H-M   'P 1'
_cell_length_a   6.23225102
_cell_length_b   6.23225102
_cell_length_c   3.70937449
_cell_angle_alpha   90.00000000
_cell_angle_beta   90.00000000
_cell_angle_gamma   119.99999023
_symmetry_Int_Tables_number   1
_chemical_formula_structural   TiPOs
_chemical_formula_sum   'Ti3 P3 Os3'
_cell_volume   124.77317605
_cell_formula_units_Z   3
loop_
 _symmetry_equiv_pos_site_id
 _symmetry_equiv_pos_as_xyz
  1  'x, y, z'
loop_
 _atom_site_type_symbol
 _atom_site_label
 _atom_site_symmetry_multiplicity
 _atom_site_fract_x
 _atom_site_fract_y
 _atom_site_fract_z
 _atom_site_occupancy
  Ti  Ti0  1  0.41699242  0.41699242  0.50000000  1
  Ti  Ti1  1  0.58300758  -0.00000000  0.50000000  1
  Ti  Ti2  1  -0.00000000  0.58300758  0.50000000  1
  P  P0  1  0.66666700  0.33333300  -0.00000000  1
  P  P1  1  0.33333300  0.66666700  0.00000000  1
  P  P2  1  0.00000000  0.00000000  0.50000000  1
  Os  Os0  1  0.74674223  0.74674223  0.00000000  1
  Os  Os1  1  0.25325777  0.00000000  -0.00000000  1
  Os  Os2  1  0.00000000  0.25325777  0.00000000  1
loop_
_geom_bond_atom_site_label_1
_geom_bond_atom_site_label_2
_geom_bond_distance
_geom_bond_site_symmetry_2
P0 Ti1 2.635190 1_555
P0 Ti1 2.635190 1_554
P0 Ti2 2.635191 1_655
P0 Ti2 2.635191 1_654
P0 Ti0 2.635194 1_554
P0 Ti0 2.635194 1_555
P1 Ti2 2.635190 1_554
P1 Ti2 2.635190 1_555
P1 Ti1 2.635191 1_565
P1 Ti1 2.635191 1_564
P1 Ti0 2.635194 1_554
P1 Ti0 2.635194 1_555
P2 Ti1 2.598801 1_455
P2 Ti2 2.598801 1_545
P2 Ti0 2.598802 1_555
Os0 P1 2.366741 1_555
Os0 P0 2.366741 1_555
Os0 P2 2.435386 1_664
Os0 P2 2.435386 1_665
Os0 Os2 2.733810 1_665
Os0 Os1 2.733810 1_665
Os0 Ti0 2.768255 1_555
Os0 Ti0 2.768255 1_554
Os0 Ti1 2.929678 1_565
Os0 Ti1 2.929678 1_564
Os0 Ti2 2.929678 1_655
Os0 Ti2 2.929678 1_654
Os1 P1 2.366735 1_545
Os1 P0 2.366739 1_555
Os1 P2 2.435386 1_555
Os1 P2 2.435386 1_554
Os1 Os2 2.733810 1_555
Os1 Ti1 2.768255 1_555
Os1 Ti1 2.768255 1_554
Os1 Ti0 2.929678 1_555
Os1 Ti0 2.929678 1_554
Os1 Ti2 2.929678 1_545
Os1 Ti2 2.929678 1_544
Os2 P0 2.366735 1_455
Os2 P1 2.366739 1_555
Os2 P2 2.435386 1_555
Os2 P2 2.435386 1_554
Os2 Ti2 2.768255 1_554
Os2 Ti2 2.768255 1_555
Os2 Ti0 2.929678 1_555
Os2 Ti0 2.929678 1_554
Os2 Ti1 2.929678 1_455
Os2 Ti1 2.929678 1_454
