# generated using pymatgen
data_KNaAl6Si6(HO6)4
_symmetry_space_group_name_H-M   'P 1'
_cell_length_a   9.06048866
_cell_length_b   10.42256549
_cell_length_c   19.97598602
_cell_angle_alpha   95.50546707
_cell_angle_beta   89.93254007
_cell_angle_gamma   90.00222960
_symmetry_Int_Tables_number   1
_chemical_formula_structural   KNaAl6Si6(HO6)4
_chemical_formula_sum   'K4 Na4 Al24 Si24 H16 O96'
_cell_volume   1877.69981116
_cell_formula_units_Z   4
loop_
 _symmetry_equiv_pos_site_id
 _symmetry_equiv_pos_as_xyz
  1  'x, y, z'
loop_
 _atom_site_type_symbol
 _atom_site_label
 _atom_site_symmetry_multiplicity
 _atom_site_fract_x
 _atom_site_fract_y
 _atom_site_fract_z
 _atom_site_occupancy
  K  K0  1  0.59914697  0.74872648  0.25009255  1
  K  K1  1  0.90170810  0.00028479  0.75015891  1
  K  K2  1  0.09724669  0.50214724  0.25001804  1
  K  K3  1  0.90214070  0.50002220  0.75015998  1
  Na  Na0  1  0.42388870  0.74973532  0.75056479  1
  Na  Na1  1  0.12328868  0.99862161  0.25126858  1
  Na  Na2  1  0.56987664  0.25196741  0.24910970  1
  Na  Na3  1  0.42427225  0.25054185  0.74981202  1
  Al  Al0  1  0.08500130  0.87759231  0.49919588  1
  Al  Al1  1  0.25902090  0.77175129  0.36208088  1
  Al  Al2  1  0.08419928  0.62348902  0.00116278  1
  Al  Al3  1  0.25819700  0.73082365  0.13802660  1
  Al  Al4  1  0.91329130  0.62599865  0.50175942  1
  Al  Al5  1  0.73756480  0.73352467  0.63819952  1
  Al  Al6  1  0.91136133  0.87434375  0.99849910  1
  Al  Al7  1  0.73705298  0.76681032  0.86203556  1
  Al  Al8  1  0.58339341  0.62868606  0.50117314  1
  Al  Al9  1  0.58216434  0.87162848  0.99937899  1
  Al  Al10  1  0.41415409  0.87665298  0.49905710  1
  Al  Al11  1  0.41350271  0.62386881  0.00101167  1
  Al  Al12  1  0.08519484  0.37702019  0.49892616  1
  Al  Al13  1  0.25951803  0.27085338  0.36198984  1
  Al  Al14  1  0.08379598  0.12261569  0.00139309  1
  Al  Al15  1  0.25665059  0.22744820  0.13858395  1
  Al  Al16  1  0.91248312  0.12640746  0.50142070  1
  Al  Al17  1  0.73746125  0.23363113  0.63820894  1
  Al  Al18  1  0.91224414  0.37397292  0.99901236  1
  Al  Al19  1  0.73727773  0.26669406  0.86221335  1
  Al  Al20  1  0.58317399  0.12934207  0.50088186  1
  Al  Al21  1  0.58230944  0.37091109  0.99925069  1
  Al  Al22  1  0.41424197  0.37649693  0.49952726  1
  Al  Al23  1  0.41270636  0.12354438  0.00108624  1
  Si  Si0  1  0.92896330  0.77426506  0.36315325  1
  Si  Si1  1  0.92737598  0.72853846  0.13692611  1
  Si  Si2  1  0.06982572  0.73087318  0.63764016  1
  Si  Si3  1  0.06935159  0.76951700  0.86257994  1
  Si  Si4  1  0.43049386  0.51120752  0.36220649  1
  Si  Si5  1  0.75648662  0.52756561  0.36398931  1
  Si  Si6  1  0.42827283  0.98937398  0.13888712  1
  Si  Si7  1  0.75334884  0.97251640  0.13666546  1
  Si  Si8  1  0.56690411  0.99304456  0.63825001  1
  Si  Si9  1  0.24316500  0.97525237  0.63712286  1
  Si  Si10  1  0.56674446  0.50716982  0.86174929  1
  Si  Si11  1  0.24287959  0.52523058  0.86323497  1
  Si  Si12  1  0.92946862  0.27184093  0.36249025  1
  Si  Si13  1  0.92745083  0.22577959  0.13813912  1
  Si  Si14  1  0.06973750  0.23075256  0.63745508  1
  Si  Si15  1  0.06947597  0.26956664  0.86302157  1
  Si  Si16  1  0.42962165  0.01302914  0.36146548  1
  Si  Si17  1  0.75511589  0.02998200  0.36320433  1
  Si  Si18  1  0.42801381  0.48720885  0.13807059  1
  Si  Si19  1  0.75457442  0.47031391  0.13681665  1
  Si  Si20  1  0.56686284  0.49317470  0.63884177  1
  Si  Si21  1  0.24305064  0.47513575  0.63716764  1
  Si  Si22  1  0.56632807  0.00724800  0.86187194  1
  Si  Si23  1  0.24260741  0.02511798  0.86314196  1
  H  H0  1  0.65673567  0.82171381  0.44454600  1
  H  H1  1  0.65656493  0.67811120  0.05438704  1
  H  H2  1  0.34145240  0.68401300  0.55551374  1
  H  H3  1  0.34075574  0.81647977  0.94509829  1
  H  H4  1  0.14536925  0.56501524  0.43280194  1
  H  H5  1  0.14207427  0.93529623  0.06809003  1
  H  H6  1  0.85366277  0.93984650  0.56960703  1
  H  H7  1  0.85369793  0.56018877  0.93076084  1
  H  H8  1  0.65683609  0.32244689  0.44513978  1
  H  H9  1  0.65468506  0.17808814  0.05609837  1
  H  H10  1  0.34099281  0.18337223  0.55506141  1
  H  H11  1  0.34036983  0.31662903  0.94484284  1
  H  H12  1  0.14243816  0.06363619  0.43089843  1
  H  H13  1  0.14279393  0.43679907  0.06893646  1
  H  H14  1  0.85391904  0.43903735  0.56900959  1
  H  H15  1  0.85264128  0.06144133  0.93109986  1
  O  O0  1  0.94354403  0.77080422  0.44499155  1
  O  O1  1  0.24944949  0.81496762  0.44907661  1
  O  O2  1  0.56553695  0.77578228  0.45116650  1
  O  O3  1  0.08400416  0.80206017  0.32731159  1
  O  O4  1  0.80589150  0.88021473  0.34133726  1
  O  O5  1  0.86552010  0.63148758  0.33101640  1
  O  O6  1  0.94064268  0.72990766  0.05492321  1
  O  O7  1  0.24876508  0.68728449  0.05099566  1
  O  O8  1  0.56491127  0.72421874  0.04909952  1
  O  O9  1  0.08293171  0.70459248  0.17218173  1
  O  O10  1  0.80808340  0.61926613  0.15933364  1
  O  O11  1  0.86343702  0.87025992  0.16976466  1
  O  O12  1  0.05634916  0.73239236  0.55560478  1
  O  O13  1  0.74825562  0.68933191  0.55139158  1
  O  O14  1  0.43276423  0.72985276  0.54900520  1
  O  O15  1  0.91313133  0.70635629  0.67230471  1
  O  O16  1  0.19148962  0.62433431  0.66078434  1
  O  O17  1  0.13267053  0.87308980  0.66996075  1
  O  O18  1  0.05530662  0.76804505  0.94458290  1
  O  O19  1  0.74701456  0.81105417  0.94884172  1
  O  O20  1  0.43223045  0.77065994  0.95118874  1
  O  O21  1  0.91281345  0.79399362  0.82792794  1
  O  O22  1  0.19118818  0.87596327  0.83932940  1
  O  O23  1  0.13253241  0.62727156  0.83031986  1
  O  O24  1  0.44897201  0.51879620  0.44486282  1
  O  O25  1  0.75136595  0.55582400  0.44524191  1
  O  O26  1  0.05858151  0.52524008  0.45062252  1
  O  O27  1  0.59364616  0.54791673  0.33110413  1
  O  O28  1  0.30431155  0.60973364  0.34109651  1
  O  O29  1  0.39017103  0.86959277  0.32769235  1
  O  O30  1  0.44658238  0.98073868  0.05613805  1
  O  O31  1  0.74887345  0.94418965  0.05533194  1
  O  O32  1  0.05605633  0.97469388  0.04952508  1
  O  O33  1  0.59063521  0.95062651  0.16959556  1
  O  O34  1  0.29980147  0.89353540  0.16148005  1
  O  O35  1  0.38757533  0.63058966  0.17183712  1
  O  O36  1  0.54737750  0.98668835  0.55563783  1
  O  O37  1  0.24710970  0.94787097  0.55574951  1
  O  O38  1  0.93916315  0.97844126  0.55000769  1
  O  O39  1  0.40564477  0.95222608  0.67025884  1
  O  O40  1  0.69484629  0.89592411  0.65882018  1
  O  O41  1  0.60366610  0.63764726  0.67336686  1
  O  O42  1  0.54713367  0.51361891  0.94431856  1
  O  O43  1  0.24671287  0.55296452  0.94460007  1
  O  O44  1  0.93924125  0.52179563  0.95031032  1
  O  O45  1  0.40543853  0.54799671  0.82988435  1
  O  O46  1  0.69446957  0.60448247  0.84103640  1
  O  O47  1  0.60321314  0.86289868  0.82714115  1
  O  O48  1  0.94288748  0.27061941  0.44464871  1
  O  O49  1  0.25011122  0.31428056  0.44898347  1
  O  O50  1  0.56546387  0.27656499  0.45148362  1
  O  O51  1  0.08509439  0.29894801  0.32774149  1
  O  O52  1  0.80783707  0.37878730  0.34000953  1
  O  O53  1  0.86843038  0.12920735  0.32987523  1
  O  O54  1  0.94288857  0.22920882  0.05613959  1
  O  O55  1  0.24814156  0.18419842  0.05161509  1
  O  O56  1  0.56373164  0.22392440  0.04894996  1
  O  O57  1  0.08224315  0.19553664  0.17347220  1
  O  O58  1  0.80204901  0.12200078  0.16011582  1
  O  O59  1  0.86564175  0.36899373  0.17009578  1
  O  O60  1  0.05627394  0.23229702  0.55540746  1
  O  O61  1  0.74797471  0.18980959  0.55137701  1
  O  O62  1  0.43234907  0.22956720  0.54918284  1
  O  O63  1  0.91309108  0.20621775  0.67217007  1
  O  O64  1  0.19151758  0.12441152  0.66075575  1
  O  O65  1  0.13249896  0.37294149  0.66990789  1
  O  O66  1  0.05568708  0.26792546  0.94510117  1
  O  O67  1  0.74764969  0.31051582  0.94904387  1
  O  O68  1  0.43142274  0.27045808  0.95133535  1
  O  O69  1  0.91306764  0.29413219  0.82827639  1
  O  O70  1  0.19138262  0.37598933  0.83982439  1
  O  O71  1  0.13228781  0.12744050  0.83047254  1
  O  O72  1  0.44861190  0.02028704  0.44409811  1
  O  O73  1  0.74970433  0.05842394  0.44452121  1
  O  O74  1  0.05719001  0.02496745  0.45059756  1
  O  O75  1  0.59227461  0.05298950  0.32988297  1
  O  O76  1  0.30082474  0.10842051  0.33889650  1
  O  O77  1  0.39303369  0.36719714  0.32732020  1
  O  O78  1  0.44805972  0.48068946  0.05554044  1
  O  O79  1  0.74942993  0.44224222  0.05557102  1
  O  O80  1  0.05699762  0.47581010  0.04993897  1
  O  O81  1  0.59110104  0.44901417  0.17003175  1
  O  O82  1  0.30130385  0.38922022  0.15928228  1
  O  O83  1  0.39184154  0.13355040  0.17366516  1
  O  O84  1  0.54757624  0.48663485  0.55628349  1
  O  O85  1  0.24734270  0.44752856  0.55579423  1
  O  O86  1  0.94005421  0.47801667  0.55018886  1
  O  O87  1  0.40532510  0.45241673  0.67065669  1
  O  O88  1  0.69432324  0.39576261  0.65959375  1
  O  O89  1  0.60355528  0.13735713  0.67302338  1
  O  O90  1  0.54627833  0.01366361  0.94447187  1
  O  O91  1  0.24615512  0.05237254  0.94452238  1
  O  O92  1  0.93839590  0.02239178  0.95013947  1
  O  O93  1  0.40520557  0.04810623  0.82991389  1
  O  O94  1  0.69430880  0.10444150  0.84130580  1
  O  O95  1  0.60357278  0.36272239  0.82716204  1
loop_
_geom_bond_atom_site_label_1
_geom_bond_atom_site_label_2
_geom_bond_distance
_geom_bond_site_symmetry_2
K0 O29 2.682066 1_555
K0 O35 2.696659 1_555
K0 O27 2.766133 1_555
K0 O33 2.769362 1_555
K0 O10 2.866011 1_555
K0 O4 2.870158 1_555
K1 O94 2.763623 1_555
K1 O40 2.766256 1_545
K1 O63 2.772316 1_555
K1 O21 2.772668 1_545
K1 O17 2.878873 1_645
K1 O71 2.880037 1_655
K2 O9 2.741625 1_555
K2 O51 2.745640 1_555
K2 O82 2.769801 1_555
K2 O28 2.775558 1_555
K2 O5 2.901221 1_455
K2 O59 2.908765 1_455
K3 O88 2.762226 1_555
K3 O46 2.762995 1_555
K3 O69 2.773557 1_555
K3 O15 2.773957 1_555
K3 O65 2.874967 1_655
K3 O23 2.877621 1_655
Na0 O47 2.455694 1_555
Na0 O41 2.458588 1_555
Na0 O45 2.756489 1_555
Na0 O39 2.775812 1_555
Na0 O22 2.977249 1_555
Na0 O16 2.986199 1_555
Na1 O76 2.565794 1_565
Na1 O34 2.567262 1_555
Na1 O3 2.688313 1_555
Na1 O57 2.716433 1_565
Na2 O83 2.458712 1_555
Na2 O77 2.466736 1_555
Na2 O81 2.715121 1_555
Na2 O75 2.754710 1_555
Na2 O58 2.991609 1_555
Na2 O52 3.039944 1_555
Na3 O89 2.455664 1_555
Na3 O95 2.460242 1_555
Na3 O87 2.756043 1_555
Na3 O93 2.772906 1_555
Na3 O64 2.983317 1_555
Na3 O70 2.989197 1_555
Al0 O1 1.876063 1_555
Al0 O74 1.911037 1_565
Al0 O38 1.916590 1_455
Al0 O37 1.953240 1_555
Al0 O0 1.955965 1_455
Al0 O12 1.988433 1_555
Al1 O29 1.748205 1_555
Al1 O28 1.749124 1_555
Al1 O1 1.754962 1_555
Al1 O3 1.772424 1_555
Al2 O7 1.879543 1_555
Al2 O80 1.914783 1_555
Al2 O44 1.917483 1_454
Al2 O43 1.954962 1_554
Al2 O6 1.960508 1_455
Al2 O18 1.985806 1_554
Al3 O35 1.749007 1_555
Al3 O7 1.756325 1_555
Al3 O34 1.756557 1_555
Al3 O9 1.759310 1_555
Al4 O13 1.877670 1_555
Al4 O86 1.913231 1_555
Al4 O26 1.915812 1_655
Al4 O25 1.951254 1_555
Al4 O12 1.959839 1_655
Al4 O0 1.991616 1_555
Al5 O40 1.746521 1_555
Al5 O13 1.753539 1_555
Al5 O41 1.759691 1_555
Al5 O15 1.764744 1_555
Al6 O19 1.874634 1_555
Al6 O32 1.910523 1_656
Al6 O92 1.913015 1_565
Al6 O31 1.955461 1_556
Al6 O18 1.963737 1_655
Al6 O6 1.983262 1_556
Al7 O46 1.746828 1_555
Al7 O19 1.753458 1_555
Al7 O47 1.759381 1_555
Al7 O21 1.764912 1_555
Al8 O13 1.875870 1_555
Al8 O2 1.915401 1_555
Al8 O14 1.921221 1_555
Al8 O24 1.953544 1_555
Al8 O84 1.954769 1_555
Al8 O25 1.993620 1_555
Al9 O19 1.876934 1_555
Al9 O8 1.914112 1_556
Al9 O20 1.920461 1_555
Al9 O90 1.952607 1_565
Al9 O30 1.958894 1_556
Al9 O31 1.986060 1_556
Al10 O1 1.875475 1_555
Al10 O14 1.912672 1_555
Al10 O2 1.925053 1_555
Al10 O36 1.950421 1_555
Al10 O72 1.964282 1_565
Al10 O37 1.989709 1_555
Al11 O7 1.879261 1_555
Al11 O20 1.910972 1_554
Al11 O8 1.925828 1_555
Al11 O42 1.953479 1_554
Al11 O78 1.955563 1_555
Al11 O43 1.985907 1_554
Al12 O49 1.878031 1_555
Al12 O26 1.913715 1_555
Al12 O86 1.917322 1_455
Al12 O85 1.957693 1_555
Al12 O48 1.959681 1_455
Al12 O60 1.985627 1_555
Al13 O76 1.751800 1_555
Al13 O49 1.755207 1_555
Al13 O77 1.755775 1_555
Al13 O51 1.758513 1_555
Al14 O55 1.874996 1_555
Al14 O32 1.910071 1_545
Al14 O92 1.916456 1_454
Al14 O54 1.955476 1_455
Al14 O91 1.956311 1_554
Al14 O66 1.987594 1_554
Al15 O82 1.744729 1_555
Al15 O55 1.754240 1_555
Al15 O83 1.755832 1_555
Al15 O57 1.770666 1_555
Al16 O61 1.877296 1_555
Al16 O74 1.912737 1_655
Al16 O38 1.914832 1_545
Al16 O73 1.954099 1_555
Al16 O60 1.962956 1_655
Al16 O48 1.986835 1_555
Al17 O88 1.746971 1_555
Al17 O61 1.753270 1_555
Al17 O89 1.759066 1_555
Al17 O63 1.764611 1_555
Al18 O67 1.880032 1_555
Al18 O44 1.914958 1_555
Al18 O80 1.917674 1_656
Al18 O79 1.949569 1_556
Al18 O66 1.959330 1_655
Al18 O54 1.996759 1_556
Al19 O94 1.746593 1_555
Al19 O67 1.753392 1_555
Al19 O95 1.759577 1_555
Al19 O69 1.764317 1_555
Al20 O61 1.877687 1_555
Al20 O50 1.909167 1_555
Al20 O62 1.921773 1_555
Al20 O72 1.954686 1_555
Al20 O36 1.955354 1_545
Al20 O73 1.981647 1_555
Al21 O67 1.876619 1_555
Al21 O56 1.911113 1_556
Al21 O68 1.921451 1_555
Al21 O78 1.950147 1_556
Al21 O42 1.957559 1_555
Al21 O79 1.988638 1_556
Al22 O49 1.878623 1_555
Al22 O62 1.909930 1_555
Al22 O50 1.920518 1_555
Al22 O24 1.949615 1_555
Al22 O84 1.953450 1_555
Al22 O85 1.983575 1_555
Al23 O55 1.875030 1_555
Al23 O68 1.911191 1_554
Al23 O56 1.921507 1_555
Al23 O90 1.950278 1_554
Al23 O30 1.958015 1_545
Al23 O91 1.986772 1_554
H0 O2 0.970210 1_555
H1 O8 0.970402 1_555
H2 O14 0.970194 1_555
H3 O20 0.970155 1_555
H4 O26 0.971877 1_555
H5 O32 0.971329 1_555
H6 O38 0.971956 1_555
H7 O44 0.971636 1_555
H8 O50 0.970295 1_555
H9 O56 0.970117 1_555
H10 O62 0.970223 1_555
H11 O68 0.970180 1_555
H12 O74 0.971369 1_555
H13 O80 0.971568 1_555
H14 O86 0.971626 1_555
H15 O92 0.971813 1_555
O0 Si0 1.644126 1_555
O3 Si0 1.614698 1_455
O4 Si17 1.645539 1_565
O4 Si0 1.657206 1_555
O5 Si5 1.648708 1_555
O5 Si0 1.665684 1_555
O6 Si1 1.643779 1_555
O9 Si1 1.606490 1_455
O10 Si19 1.647415 1_555
O10 Si1 1.662006 1_555
O11 Si7 1.644631 1_555
O11 Si1 1.661625 1_555
O12 Si2 1.645014 1_555
O15 Si2 1.609978 1_655
O16 Si21 1.648546 1_555
O16 Si2 1.661835 1_555
O17 Si9 1.642787 1_555
O17 Si2 1.659921 1_555
O18 Si3 1.644414 1_555
O21 Si3 1.609989 1_655
O22 Si23 1.648816 1_565
O22 Si3 1.662150 1_555
O23 Si11 1.642810 1_555
O23 Si3 1.660376 1_555
O24 Si4 1.654130 1_555
O25 Si5 1.622174 1_555
O27 Si5 1.637809 1_555
O27 Si4 1.661625 1_555
O28 Si4 1.619793 1_555
O29 Si16 1.620144 1_565
O30 Si6 1.654938 1_555
O31 Si7 1.623770 1_555
O33 Si7 1.638509 1_555
O33 Si6 1.659271 1_555
O34 Si6 1.625287 1_555
O35 Si18 1.621260 1_555
O36 Si8 1.654919 1_555
O37 Si9 1.623535 1_555
O39 Si9 1.641876 1_555
O39 Si8 1.665702 1_555
O40 Si8 1.618115 1_555
O41 Si20 1.629550 1_555
O42 Si10 1.653679 1_555
O43 Si11 1.623730 1_555
O45 Si11 1.642395 1_555
O45 Si10 1.666274 1_555
O46 Si10 1.618157 1_555
O47 Si22 1.629638 1_565
O48 Si12 1.647103 1_555
O51 Si12 1.607848 1_455
O52 Si5 1.645433 1_555
O52 Si12 1.660099 1_555
O53 Si17 1.642348 1_555
O53 Si12 1.659899 1_555
O54 Si13 1.647620 1_555
O57 Si13 1.615417 1_455
O58 Si7 1.643754 1_545
O58 Si13 1.656343 1_555
O59 Si19 1.645041 1_555
O59 Si13 1.662994 1_555
O60 Si14 1.645277 1_555
O63 Si14 1.610080 1_655
O64 Si9 1.648455 1_545
O64 Si14 1.662178 1_555
O65 Si21 1.642432 1_555
O65 Si14 1.660219 1_555
O66 Si15 1.645952 1_555
O69 Si15 1.609970 1_655
O70 Si11 1.648268 1_555
O70 Si15 1.662036 1_555
O71 Si23 1.642406 1_555
O71 Si15 1.659919 1_555
O72 Si16 1.654310 1_555
O73 Si17 1.623676 1_555
O75 Si17 1.646329 1_555
O75 Si16 1.670780 1_555
O76 Si16 1.625076 1_555
O77 Si4 1.628967 1_555
O78 Si18 1.653287 1_555
O79 Si19 1.621987 1_555
O81 Si19 1.645979 1_555
O81 Si18 1.673495 1_555
O82 Si18 1.619385 1_555
O83 Si6 1.627530 1_545
O84 Si20 1.653510 1_555
O85 Si21 1.623794 1_555
O87 Si21 1.642583 1_555
O87 Si20 1.666158 1_555
O88 Si20 1.618119 1_555
O89 Si8 1.629464 1_545
O90 Si22 1.654734 1_555
O91 Si23 1.623573 1_555
O93 Si23 1.642117 1_555
O93 Si22 1.665670 1_555
O94 Si22 1.618086 1_555
O95 Si10 1.629472 1_555
