# generated using pymatgen
data_La15Ge9P
_symmetry_space_group_name_H-M   'P 1'
_cell_length_a   6.97809920
_cell_length_b   15.74362658
_cell_length_c   15.74362658
_cell_angle_alpha   120.00000040
_cell_angle_beta   90.00000000
_cell_angle_gamma   90.00000000
_symmetry_Int_Tables_number   1
_chemical_formula_structural   La15Ge9P
_chemical_formula_sum   'La30 Ge18 P2'
_cell_volume   1497.88105971
_cell_formula_units_Z   2
loop_
 _symmetry_equiv_pos_site_id
 _symmetry_equiv_pos_as_xyz
  1  'x, y, z'
loop_
 _atom_site_type_symbol
 _atom_site_label
 _atom_site_symmetry_multiplicity
 _atom_site_fract_x
 _atom_site_fract_y
 _atom_site_fract_z
 _atom_site_occupancy
  La  La0  1  0.74425502  0.41852576  0.83705152  1
  La  La1  1  0.74425502  0.41852576  0.58147424  1
  La  La2  1  0.24425502  0.58147424  0.16294848  1
  La  La3  1  0.74425502  0.16294848  0.58147424  1
  La  La4  1  0.24425502  0.58147424  0.41852576  1
  La  La5  1  0.24425502  0.83705152  0.41852576  1
  La  La6  1  0.99441978  0.65896789  0.67602286  1
  La  La7  1  0.99441978  0.01705498  0.34103211  1
  La  La8  1  0.49441978  0.34103211  0.32397714  1
  La  La9  1  0.99441978  0.01705498  0.67602286  1
  La  La10  1  0.99441978  0.32397714  0.98294502  1
  La  La11  1  0.49441978  0.98294502  0.65896789  1
  La  La12  1  0.99441978  0.32397714  0.34103211  1
  La  La13  1  0.49441978  0.98294502  0.32397714  1
  La  La14  1  0.49441978  0.67602286  0.01705498  1
  La  La15  1  0.49441978  0.67602286  0.65896789  1
  La  La16  1  0.99441978  0.65896789  0.98294502  1
  La  La17  1  0.49441978  0.34103211  0.01705498  1
  La  La18  1  0.71949271  0.08223770  0.16447540  1
  La  La19  1  0.71949271  0.08223770  0.91776230  1
  La  La20  1  0.21949271  0.91776230  0.83552460  1
  La  La21  1  0.71949271  0.83552460  0.91776230  1
  La  La22  1  0.21949271  0.91776230  0.08223770  1
  La  La23  1  0.21949271  0.16447540  0.08223770  1
  La  La24  1  0.77126498  0.75116320  0.50232639  1
  La  La25  1  0.77126498  0.75116320  0.24883680  1
  La  La26  1  0.27126498  0.24883680  0.49767361  1
  La  La27  1  0.77126498  0.49767361  0.24883680  1
  La  La28  1  0.27126498  0.24883680  0.75116320  1
  La  La29  1  0.27126498  0.50232639  0.75116320  1
  Ge  Ge0  1  0.71062945  0.19913764  0.39827529  1
  Ge  Ge1  1  0.71062945  0.19913764  0.80086236  1
  Ge  Ge2  1  0.21062945  0.80086236  0.60172471  1
  Ge  Ge3  1  0.71062945  0.60172471  0.80086236  1
  Ge  Ge4  1  0.21062945  0.80086236  0.19913764  1
  Ge  Ge5  1  0.21062945  0.39827529  0.19913764  1
  Ge  Ge6  1  0.77173540  0.86980473  0.73960947  1
  Ge  Ge7  1  0.77173540  0.86980473  0.13019527  1
  Ge  Ge8  1  0.27173540  0.13019527  0.26039053  1
  Ge  Ge9  1  0.77173540  0.26039053  0.13019527  1
  Ge  Ge10  1  0.27173540  0.13019527  0.86980473  1
  Ge  Ge11  1  0.27173540  0.73960947  0.86980473  1
  Ge  Ge12  1  0.75692390  0.53412423  0.06824845  1
  Ge  Ge13  1  0.75692390  0.53412423  0.46587577  1
  Ge  Ge14  1  0.25692390  0.46587577  0.93175155  1
  Ge  Ge15  1  0.75692390  0.93175155  0.46587577  1
  Ge  Ge16  1  0.25692390  0.46587577  0.53412423  1
  Ge  Ge17  1  0.25692390  0.06824845  0.53412423  1
  P  P0  1  0.00629694  0.66666700  0.33333300  1
  P  P1  1  0.50629694  0.33333300  0.66666700  1
loop_
_geom_bond_atom_site_label_1
_geom_bond_atom_site_label_2
_geom_bond_distance
_geom_bond_site_symmetry_2
La0 P1 2.855517 1_555
La1 P1 2.855528 1_555
La2 P0 2.855517 1_555
La3 P1 2.855517 1_555
La4 P0 2.855528 1_555
La5 P0 2.855517 1_555
La24 P0 2.828219 1_655
La25 P0 2.828208 1_655
La26 P1 2.828219 1_555
La27 P0 2.828219 1_655
La28 P1 2.828208 1_555
La29 P1 2.828219 1_555
Ge0 La18 3.188317 1_555
Ge0 La3 3.215844 1_555
Ge0 La1 3.215844 1_555
Ge0 La7 3.219940 1_555
Ge0 La12 3.219941 1_555
Ge0 La26 3.352101 1_555
Ge0 La13 3.353814 1_545
Ge0 La8 3.353814 1_555
Ge1 La19 3.188316 1_555
Ge1 La3 3.215844 1_555
Ge1 La0 3.215844 1_555
Ge1 La10 3.219941 1_555
Ge1 La9 3.219941 1_555
Ge1 La28 3.352101 1_555
Ge1 La17 3.353814 1_556
Ge1 La11 3.353814 1_545
Ge2 La20 3.188317 1_555
Ge2 La5 3.215844 1_555
Ge2 La4 3.215844 1_555
Ge2 La11 3.219940 1_555
Ge2 La15 3.219941 1_555
Ge2 La24 3.352101 1_455
Ge2 La9 3.353814 1_465
Ge2 La6 3.353814 1_455
Ge3 La21 3.188317 1_555
Ge3 La0 3.215844 1_555
Ge3 La1 3.215844 1_555
Ge3 La16 3.219940 1_555
Ge3 La6 3.219941 1_555
Ge3 La29 3.352101 1_555
Ge3 La14 3.353814 1_556
Ge3 La15 3.353814 1_555
Ge4 La22 3.188316 1_555
Ge4 La2 3.215844 1_555
Ge4 La5 3.215844 1_555
Ge4 La13 3.219941 1_555
Ge4 La14 3.219941 1_555
Ge4 La25 3.352101 1_455
Ge4 La7 3.353814 1_465
Ge4 La16 3.353814 1_454
Ge5 La23 3.188317 1_555
Ge5 La2 3.215844 1_555
Ge5 La4 3.215844 1_555
Ge5 La17 3.219940 1_555
Ge5 La8 3.219941 1_555
Ge5 La27 3.352101 1_455
Ge5 La10 3.353814 1_454
Ge5 La12 3.353814 1_455
Ge6 La21 3.131235 1_555
Ge6 La19 3.131235 1_565
Ge6 La24 3.235209 1_555
Ge6 La15 3.284945 1_555
Ge6 La11 3.284945 1_555
Ge6 La6 3.333448 1_555
Ge6 La9 3.333449 1_565
Ge6 La20 3.387132 1_655
Ge7 La21 3.131235 1_554
Ge7 La18 3.131235 1_565
Ge7 La25 3.235209 1_555
Ge7 La13 3.284945 1_555
Ge7 La14 3.284945 1_555
Ge7 La7 3.333448 1_565
Ge7 La16 3.333448 1_554
Ge7 La22 3.387132 1_655
Ge8 La23 3.131235 1_555
Ge8 La22 3.131235 1_545
Ge8 La26 3.235209 1_555
Ge8 La12 3.284945 1_455
Ge8 La7 3.284945 1_455
Ge8 La8 3.333448 1_555
Ge8 La13 3.333449 1_545
Ge8 La18 3.387132 1_555
Ge9 La18 3.131235 1_555
Ge9 La19 3.131235 1_554
Ge9 La27 3.235209 1_555
Ge9 La8 3.284945 1_555
Ge9 La17 3.284945 1_555
Ge9 La12 3.333448 1_555
Ge9 La10 3.333449 1_554
Ge9 La23 3.387132 1_655
Ge10 La20 3.131235 1_545
Ge10 La23 3.131235 1_556
Ge10 La28 3.235209 1_555
Ge10 La10 3.284945 1_455
Ge10 La9 3.284945 1_455
Ge10 La17 3.333448 1_556
Ge10 La11 3.333448 1_545
Ge10 La19 3.387132 1_555
Ge11 La20 3.131235 1_555
Ge11 La22 3.131235 1_556
Ge11 La29 3.235209 1_555
Ge11 La6 3.284945 1_455
Ge11 La16 3.284945 1_455
Ge11 La15 3.333448 1_555
Ge11 La14 3.333449 1_556
Ge11 La21 3.387132 1_555
Ge12 La0 3.153466 1_554
Ge12 La25 3.170837 1_555
Ge12 La27 3.170837 1_555
Ge12 La14 3.285772 1_555
Ge12 La17 3.285772 1_555
Ge12 La10 3.324596 1_554
Ge12 La16 3.324596 1_554
Ge12 La2 3.637516 1_655
Ge12 La2 3.803330 1_555
Ge13 La1 3.153466 1_555
Ge13 La27 3.170837 1_555
Ge13 La24 3.170837 1_555
Ge13 La15 3.285772 1_555
Ge13 La8 3.285772 1_555
Ge13 La6 3.324596 1_555
Ge13 La12 3.324596 1_555
Ge13 La4 3.637516 1_655
Ge13 La4 3.803329 1_555
Ge14 La2 3.153466 1_556
Ge14 La28 3.170837 1_555
Ge14 La29 3.170837 1_555
Ge14 La10 3.285772 1_455
Ge14 La16 3.285772 1_455
Ge14 La14 3.324596 1_556
Ge14 La17 3.324596 1_556
Ge14 La0 3.637516 1_555
Ge14 La0 3.803330 1_455
Ge15 La3 3.153466 1_565
Ge15 La25 3.170837 1_555
Ge15 La24 3.170837 1_555
Ge15 La13 3.285772 1_555
Ge15 La11 3.285772 1_555
Ge15 La9 3.324596 1_565
Ge15 La7 3.324596 1_565
Ge15 La5 3.637516 1_655
Ge15 La5 3.803330 1_555
Ge16 La4 3.153466 1_555
Ge16 La26 3.170837 1_555
Ge16 La29 3.170837 1_555
Ge16 La12 3.285772 1_455
Ge16 La6 3.285772 1_455
Ge16 La8 3.324596 1_555
Ge16 La15 3.324596 1_555
Ge16 La1 3.637516 1_555
Ge16 La1 3.803329 1_455
Ge17 La5 3.153466 1_545
Ge17 La28 3.170837 1_555
Ge17 La26 3.170837 1_555
Ge17 La9 3.285772 1_455
Ge17 La7 3.285772 1_455
Ge17 La13 3.324596 1_545
Ge17 La11 3.324596 1_545
Ge17 La3 3.637516 1_555
Ge17 La3 3.803330 1_455
