# generated using pymatgen
data_BaZnSn2
_symmetry_space_group_name_H-M   'P 1'
_cell_length_a   10.03321138
_cell_length_b   10.03321138
_cell_length_c   4.81944300
_cell_angle_alpha   90.00000000
_cell_angle_beta   90.00000000
_cell_angle_gamma   148.03238593
_symmetry_Int_Tables_number   1
_chemical_formula_structural   BaZnSn2
_chemical_formula_sum   'Ba2 Zn2 Sn4'
_cell_volume   256.85816838
_cell_formula_units_Z   2
loop_
 _symmetry_equiv_pos_site_id
 _symmetry_equiv_pos_as_xyz
  1  'x, y, z'
loop_
 _atom_site_type_symbol
 _atom_site_label
 _atom_site_symmetry_multiplicity
 _atom_site_fract_x
 _atom_site_fract_y
 _atom_site_fract_z
 _atom_site_occupancy
  Ba  Ba0  1  0.60400800  0.39599200  0.25000000  1
  Ba  Ba1  1  0.39599200  0.60400800  0.75000000  1
  Zn  Zn0  1  0.98165700  0.01834300  0.25000000  1
  Zn  Zn1  1  0.01834300  0.98165700  0.75000000  1
  Sn  Sn0  1  0.25596100  0.74403900  0.25000000  1
  Sn  Sn1  1  0.74403900  0.25596100  0.75000000  1
  Sn  Sn2  1  0.83760400  0.16239600  0.25000000  1
  Sn  Sn3  1  0.16239600  0.83760400  0.75000000  1
loop_
_geom_bond_atom_site_label_1
_geom_bond_atom_site_label_2
_geom_bond_distance
_geom_bond_site_symmetry_2
Ba0 Sn1 3.619906 1_555
Ba0 Sn1 3.619906 1_554
Ba0 Zn0 3.633698 1_455
Ba0 Zn0 3.633698 1_565
Ba0 Sn3 3.835164 1_544
Ba0 Sn3 3.835164 1_545
Ba0 Sn3 3.835164 1_655
Ba0 Sn3 3.835164 1_654
Ba0 Zn1 4.021281 1_655
Ba0 Zn1 4.021281 1_544
Ba0 Zn1 4.021281 1_654
Ba0 Zn1 4.021281 1_545
Ba0 Sn0 4.028080 1_545
Ba0 Sn0 4.028080 1_655
Ba1 Sn0 3.619906 1_555
Ba1 Sn0 3.619906 1_556
Ba1 Zn1 3.633698 1_545
Ba1 Zn1 3.633698 1_655
Ba1 Sn2 3.835164 1_455
Ba1 Sn2 3.835164 1_456
Ba1 Sn2 3.835164 1_566
Ba1 Sn2 3.835164 1_565
Ba1 Zn0 4.021281 1_455
Ba1 Zn0 4.021281 1_566
Ba1 Zn0 4.021281 1_456
Ba1 Zn0 4.021281 1_565
Ba1 Sn1 4.028080 1_455
Ba1 Sn1 4.028080 1_565
Zn0 Zn1 2.511492 1_644
Zn0 Zn1 2.511492 1_645
Sn0 Sn3 3.010735 1_555
Sn0 Sn3 3.010735 1_554
Sn0 Sn2 3.180178 1_565
Sn0 Sn2 3.180178 1_455
Sn1 Sn2 3.010735 1_555
Sn1 Sn2 3.010735 1_556
Sn1 Sn3 3.180178 1_655
Sn1 Sn3 3.180178 1_545
Sn2 Zn0 2.778875 1_555
Sn3 Zn1 2.778875 1_555
