# generated using pymatgen
data_GdCuSi
_symmetry_space_group_name_H-M   'P 1'
_cell_length_a   4.08461358
_cell_length_b   4.08461358
_cell_length_c   4.03332200
_cell_angle_alpha   90.00000000
_cell_angle_beta   90.00000000
_cell_angle_gamma   119.99999315
_symmetry_Int_Tables_number   1
_chemical_formula_structural   GdCuSi
_chemical_formula_sum   'Gd1 Cu1 Si1'
_cell_volume   58.27677499
_cell_formula_units_Z   1
loop_
 _symmetry_equiv_pos_site_id
 _symmetry_equiv_pos_as_xyz
  1  'x, y, z'
loop_
 _atom_site_type_symbol
 _atom_site_label
 _atom_site_symmetry_multiplicity
 _atom_site_fract_x
 _atom_site_fract_y
 _atom_site_fract_z
 _atom_site_occupancy
  Gd  Gd0  1  0.66666700  0.33333300  0.00000000  1
  Cu  Cu0  1  0.00000000  0.00000000  0.50000000  1
  Si  Si0  1  0.33333300  0.66666700  0.50000000  1
loop_
_geom_bond_atom_site_label_1
_geom_bond_atom_site_label_2
_geom_bond_distance
_geom_bond_site_symmetry_2
Gd0 Si0 3.102945 1_655
Gd0 Si0 3.102945 1_654
Gd0 Si0 3.102945 1_545
Gd0 Si0 3.102945 1_544
Gd0 Si0 3.102950 1_554
Gd0 Si0 3.102950 1_555
Cu0 Si0 2.358250 1_545
Cu0 Si0 2.358254 1_445
Cu0 Si0 2.358254 1_555
Cu0 Gd0 3.102945 1_456
Cu0 Gd0 3.102945 1_455
Cu0 Gd0 3.102948 1_445
Cu0 Gd0 3.102948 1_446
Cu0 Gd0 3.102948 1_555
Cu0 Gd0 3.102948 1_556
