# generated using pymatgen
data_Te4MoW3(SeS)2
_symmetry_space_group_name_H-M   'P 1'
_cell_length_a   3.39530442
_cell_length_b   3.39530442
_cell_length_c   38.74318000
_cell_angle_alpha   90.00000000
_cell_angle_beta   90.00000000
_cell_angle_gamma   120.00000814
_symmetry_Int_Tables_number   1
_chemical_formula_structural   Te4MoW3(SeS)2
_chemical_formula_sum   'Te4 Mo1 W3 Se2 S2'
_cell_volume   386.79717849
_cell_formula_units_Z   1
loop_
 _symmetry_equiv_pos_site_id
 _symmetry_equiv_pos_as_xyz
  1  'x, y, z'
loop_
 _atom_site_type_symbol
 _atom_site_label
 _atom_site_symmetry_multiplicity
 _atom_site_fract_x
 _atom_site_fract_y
 _atom_site_fract_z
 _atom_site_occupancy
  Te  Te0  1  0.33333300  0.66666700  0.33008700  1
  Te  Te1  1  0.33333300  0.66666700  0.70619600  1
  Te  Te2  1  0.33333300  0.66666700  0.23344900  1
  Te  Te3  1  0.33333300  0.66666700  0.60888500  1
  Mo  Mo0  1  0.66666700  0.33333300  0.28180200  1
  W  W0  1  0.33333300  0.66666700  0.09393500  1
  W  W1  1  0.33333300  0.66666700  0.46966700  1
  W  W2  1  0.66666700  0.33333300  0.65755400  1
  Se  Se0  1  0.66666700  0.33333300  0.42693600  1
  Se  Se1  1  0.66666700  0.33333300  0.51237000  1
  S  S0  1  0.66666700  0.33333300  0.05501200  1
  S  S1  1  0.66666700  0.33333300  0.13285300  1
loop_
_geom_bond_atom_site_label_1
_geom_bond_atom_site_label_2
_geom_bond_distance
_geom_bond_site_symmetry_2
Te1 W2 2.719228 1_455
Te1 W2 2.719228 1_565
Te1 W2 2.719233 1_555
Te3 W2 2.719953 1_455
Te3 W2 2.719953 1_565
Te3 W2 2.719958 1_555
Mo0 Te0 2.709661 1_545
Mo0 Te0 2.709661 1_655
Mo0 Te0 2.709665 1_555
Mo0 Te2 2.711480 1_545
Mo0 Te2 2.711480 1_655
Mo0 Te2 2.711485 1_555
Se0 W1 2.565830 1_545
Se0 W1 2.565830 1_655
Se0 W1 2.565835 1_555
Se1 W1 2.565130 1_545
Se1 W1 2.565130 1_655
Se1 W1 2.565135 1_555
S0 W0 2.473208 1_545
S0 W0 2.473208 1_655
S0 W0 2.473212 1_555
S1 W0 2.473089 1_545
S1 W0 2.473089 1_655
S1 W0 2.473094 1_555
