# generated using pymatgen
data_Ba2AlZnF9
_symmetry_space_group_name_H-M   'P 1'
_cell_length_a   5.67184300
_cell_length_b   7.52241500
_cell_length_c   17.87720500
_cell_angle_alpha   90.00000000
_cell_angle_beta   90.00000000
_cell_angle_gamma   90.00000000
_symmetry_Int_Tables_number   1
_chemical_formula_structural   Ba2AlZnF9
_chemical_formula_sum   'Ba8 Al4 Zn4 F36'
_cell_volume   762.74805732
_cell_formula_units_Z   4
loop_
 _symmetry_equiv_pos_site_id
 _symmetry_equiv_pos_as_xyz
  1  'x, y, z'
loop_
 _atom_site_type_symbol
 _atom_site_label
 _atom_site_symmetry_multiplicity
 _atom_site_fract_x
 _atom_site_fract_y
 _atom_site_fract_z
 _atom_site_occupancy
  Ba  Ba0  1  0.75000000  0.93965900  0.78395500  1
  Ba  Ba1  1  0.75000000  0.56034100  0.28395500  1
  Ba  Ba2  1  0.25000000  0.06034100  0.21604500  1
  Ba  Ba3  1  0.25000000  0.43965900  0.71604500  1
  Ba  Ba4  1  0.25000000  0.28885600  0.46415200  1
  Ba  Ba5  1  0.25000000  0.21114400  0.96415200  1
  Ba  Ba6  1  0.75000000  0.71114400  0.53584800  1
  Ba  Ba7  1  0.75000000  0.78885600  0.03584800  1
  Al  Al0  1  0.75000000  0.41727400  0.87446200  1
  Al  Al1  1  0.75000000  0.08272600  0.37446200  1
  Al  Al2  1  0.25000000  0.58272600  0.12553800  1
  Al  Al3  1  0.25000000  0.91727400  0.62553800  1
  Zn  Zn0  1  0.25000000  0.73267100  0.91128400  1
  Zn  Zn1  1  0.25000000  0.76732900  0.41128400  1
  Zn  Zn2  1  0.75000000  0.26732900  0.08871600  1
  Zn  Zn3  1  0.75000000  0.23267100  0.58871600  1
  F  F0  1  0.75000000  0.56491100  0.79577400  1
  F  F1  1  0.75000000  0.93508900  0.29577400  1
  F  F2  1  0.25000000  0.43508900  0.20422600  1
  F  F3  1  0.25000000  0.06491100  0.70422600  1
  F  F4  1  0.51952800  0.95270400  0.42398300  1
  F  F5  1  0.98047200  0.54729600  0.92398300  1
  F  F6  1  0.01952800  0.04729600  0.57601700  1
  F  F7  1  0.48047200  0.45270400  0.07601700  1
  F  F8  1  0.48047200  0.04729600  0.57601700  1
  F  F9  1  0.01952800  0.45270400  0.07601700  1
  F  F10  1  0.98047200  0.95270400  0.42398300  1
  F  F11  1  0.51952800  0.54729600  0.92398300  1
  F  F12  1  0.99943800  0.57687400  0.41871800  1
  F  F13  1  0.50056200  0.92312600  0.91871800  1
  F  F14  1  0.49943800  0.42312600  0.58128200  1
  F  F15  1  0.00056200  0.07687400  0.08128200  1
  F  F16  1  0.00056200  0.42312600  0.58128200  1
  F  F17  1  0.49943800  0.07687400  0.08128200  1
  F  F18  1  0.50056200  0.57687400  0.41871800  1
  F  F19  1  0.99943800  0.92312600  0.91871800  1
  F  F20  1  0.51781500  0.22393400  0.33681300  1
  F  F21  1  0.98218500  0.27606600  0.83681300  1
  F  F22  1  0.01781500  0.77606600  0.66318700  1
  F  F23  1  0.48218500  0.72393400  0.16318700  1
  F  F24  1  0.48218500  0.77606600  0.66318700  1
  F  F25  1  0.01781500  0.72393400  0.16318700  1
  F  F26  1  0.98218500  0.22393400  0.33681300  1
  F  F27  1  0.51781500  0.27606600  0.83681300  1
  F  F28  1  0.25000000  0.77468900  0.53726800  1
  F  F29  1  0.25000000  0.72531100  0.03726800  1
  F  F30  1  0.75000000  0.22531100  0.46273200  1
  F  F31  1  0.75000000  0.27468900  0.96273200  1
  F  F32  1  0.25000000  0.72071200  0.80254400  1
  F  F33  1  0.25000000  0.77928800  0.30254400  1
  F  F34  1  0.75000000  0.27928800  0.19745600  1
  F  F35  1  0.75000000  0.22071200  0.69745600  1
loop_
_geom_bond_atom_site_label_1
_geom_bond_atom_site_label_2
_geom_bond_distance
_geom_bond_site_symmetry_2
Ba0 F35 2.619363 1_565
Ba0 F19 2.796646 1_555
Ba0 F13 2.796646 1_555
Ba0 F0 2.826917 1_555
Ba0 F22 2.912566 1_655
Ba0 F24 2.912566 1_555
Ba0 F27 3.005180 1_565
Ba0 F21 3.005180 1_565
Ba0 F32 3.296290 1_555
Ba0 F32 3.296290 1_655
Ba0 F3 3.310854 1_565
Ba0 F3 3.310854 1_665
Ba1 F34 2.619363 1_555
Ba1 F12 2.796646 1_555
Ba1 F18 2.796646 1_555
Ba1 F1 2.826917 1_555
Ba1 F25 2.912566 1_655
Ba1 F23 2.912566 1_555
Ba1 F26 3.005180 1_555
Ba1 F20 3.005180 1_555
Ba1 F33 3.296290 1_655
Ba1 F33 3.296290 1_555
Ba1 F2 3.310854 1_655
Ba1 F2 3.310854 1_555
Ba2 F33 2.619363 1_545
Ba2 F17 2.796646 1_555
Ba2 F15 2.796646 1_555
Ba2 F2 2.826917 1_555
Ba2 F26 2.912566 1_455
Ba2 F20 2.912566 1_555
Ba2 F23 3.005180 1_545
Ba2 F25 3.005180 1_545
Ba2 F34 3.296290 1_455
Ba2 F34 3.296290 1_555
Ba2 F1 3.310854 1_545
Ba2 F1 3.310854 1_445
Ba3 F32 2.619363 1_555
Ba3 F16 2.796646 1_555
Ba3 F14 2.796646 1_555
Ba3 F3 2.826917 1_555
Ba3 F21 2.912566 1_455
Ba3 F27 2.912566 1_555
Ba3 F24 3.005180 1_555
Ba3 F22 3.005180 1_555
Ba3 F35 3.296290 1_455
Ba3 F35 3.296290 1_555
Ba3 F0 3.310854 1_555
Ba3 F0 3.310854 1_455
Ba4 F18 2.715419 1_555
Ba4 F12 2.715419 1_455
Ba4 F14 2.721472 1_555
Ba4 F16 2.721472 1_555
Ba4 F26 2.779960 1_455
Ba4 F20 2.779960 1_555
Ba4 F30 2.876037 1_455
Ba4 F30 2.876037 1_555
Ba4 F8 3.001669 1_555
Ba4 F6 3.001669 1_555
Ba4 F10 3.040866 1_445
Ba4 F4 3.040866 1_545
Ba5 F13 2.715419 1_545
Ba5 F19 2.715419 1_445
Ba5 F15 2.721472 1_556
Ba5 F17 2.721472 1_556
Ba5 F21 2.779960 1_455
Ba5 F27 2.779960 1_555
Ba5 F31 2.876037 1_455
Ba5 F31 2.876037 1_555
Ba5 F7 3.001669 1_556
Ba5 F9 3.001669 1_556
Ba5 F5 3.040866 1_455
Ba5 F11 3.040866 1_555
Ba6 F14 2.715419 1_555
Ba6 F16 2.715419 1_655
Ba6 F12 2.721472 1_555
Ba6 F18 2.721472 1_555
Ba6 F22 2.779960 1_655
Ba6 F24 2.779960 1_555
Ba6 F28 2.876037 1_555
Ba6 F28 2.876037 1_655
Ba6 F10 3.001669 1_555
Ba6 F4 3.001669 1_555
Ba6 F6 3.040866 1_665
Ba6 F8 3.040866 1_565
Ba7 F17 2.715419 1_565
Ba7 F15 2.715419 1_665
Ba7 F19 2.721472 1_554
Ba7 F13 2.721472 1_554
Ba7 F25 2.779960 1_655
Ba7 F23 2.779960 1_555
Ba7 F29 2.876037 1_555
Ba7 F29 2.876037 1_655
Ba7 F5 3.001669 1_554
Ba7 F11 3.001669 1_554
Ba7 F9 3.040866 1_655
Ba7 F7 3.040866 1_555
Al0 F0 1.792280 1_555
Al0 F27 1.820879 1_555
Al0 F21 1.820879 1_555
Al0 F5 1.857193 1_555
Al0 F11 1.857193 1_555
Al0 F31 1.908032 1_555
Al1 F1 1.792280 1_545
Al1 F26 1.820879 1_555
Al1 F20 1.820879 1_555
Al1 F10 1.857193 1_545
Al1 F4 1.857193 1_545
Al1 F30 1.908032 1_555
Al2 F2 1.792280 1_555
Al2 F23 1.820879 1_555
Al2 F25 1.820879 1_555
Al2 F7 1.857193 1_555
Al2 F9 1.857193 1_555
Al2 F29 1.908032 1_555
Al3 F3 1.792280 1_565
Al3 F24 1.820879 1_555
Al3 F22 1.820879 1_555
Al3 F8 1.857193 1_565
Al3 F6 1.857193 1_565
Al3 F28 1.908032 1_555
F4 Zn1 2.081602 1_555
F5 Zn0 2.081602 1_655
F6 Zn3 2.081602 1_455
F7 Zn2 2.081602 1_555
F8 Zn3 2.081602 1_555
F9 Zn2 2.081602 1_455
F10 Zn1 2.081602 1_655
F11 Zn0 2.081602 1_555
F12 Zn1 2.022350 1_655
F13 Zn0 2.022350 1_555
F14 Zn3 2.022350 1_555
F15 Zn2 2.022350 1_455
F16 Zn3 2.022350 1_455
F17 Zn2 2.022350 1_555
F18 Zn1 2.022350 1_555
F19 Zn0 2.022350 1_655
F28 Zn1 2.252922 1_555
F29 Zn0 2.252922 1_554
F30 Zn3 2.252922 1_555
F31 Zn2 2.252922 1_556
F32 Zn0 1.946048 1_555
F33 Zn1 1.946048 1_555
F34 Zn2 1.946048 1_555
F35 Zn3 1.946048 1_555
