# generated using pymatgen
data_YMoO3
_symmetry_space_group_name_H-M   'P 1'
_cell_length_a   3.63231829
_cell_length_b   3.63231829
_cell_length_c   12.62985700
_cell_angle_alpha   90.00000000
_cell_angle_beta   90.00000000
_cell_angle_gamma   120.00000532
_symmetry_Int_Tables_number   1
_chemical_formula_structural   YMoO3
_chemical_formula_sum   'Y2 Mo2 O6'
_cell_volume   144.31013646
_cell_formula_units_Z   2
loop_
 _symmetry_equiv_pos_site_id
 _symmetry_equiv_pos_as_xyz
  1  'x, y, z'
loop_
 _atom_site_type_symbol
 _atom_site_label
 _atom_site_symmetry_multiplicity
 _atom_site_fract_x
 _atom_site_fract_y
 _atom_site_fract_z
 _atom_site_occupancy
  Y  Y0  1  0.00000000  0.00000000  0.50000000  1
  Y  Y1  1  0.00000000  0.00000000  0.00000000  1
  Mo  Mo0  1  0.66666700  0.33333300  0.75000000  1
  Mo  Mo1  1  0.33333300  0.66666700  0.25000000  1
  O  O0  1  0.33333300  0.66666700  0.41969000  1
  O  O1  1  0.66666700  0.33333300  0.91969000  1
  O  O2  1  0.66666700  0.33333300  0.58031000  1
  O  O3  1  0.33333300  0.66666700  0.08031000  1
  O  O4  1  0.00000000  0.00000000  0.25000000  1
  O  O5  1  0.00000000  0.00000000  0.75000000  1
loop_
_geom_bond_atom_site_label_1
_geom_bond_atom_site_label_2
_geom_bond_distance
_geom_bond_site_symmetry_2
Mo0 O5 2.097118 1_655
Mo0 O5 2.097121 1_555
Mo0 O5 2.097121 1_665
Mo0 O2 2.143160 1_555
Mo0 O1 2.143160 1_555
Mo1 O4 2.097118 1_565
Mo1 O4 2.097121 1_665
Mo1 O4 2.097121 1_555
Mo1 O3 2.143160 1_555
Mo1 O0 2.143160 1_555
O0 Y0 2.329531 1_565
O0 Y0 2.329534 1_555
O0 Y0 2.329534 1_665
O1 Y1 2.329531 1_656
O1 Y1 2.329534 1_556
O1 Y1 2.329534 1_666
O2 Y0 2.329531 1_655
O2 Y0 2.329534 1_555
O2 Y0 2.329534 1_665
O3 Y1 2.329531 1_565
O3 Y1 2.329534 1_555
O3 Y1 2.329534 1_665
