# generated using pymatgen
data_SrHBrO
_symmetry_space_group_name_H-M   'P 1'
_cell_length_a   5.95057739
_cell_length_b   5.95057739
_cell_length_c   7.43683792
_cell_angle_alpha   74.39653093
_cell_angle_beta   74.39653093
_cell_angle_gamma   42.75990748
_symmetry_Int_Tables_number   1
_chemical_formula_structural   SrHBrO
_chemical_formula_sum   'Sr2 H2 Br2 O2'
_cell_volume   171.16344142
_cell_formula_units_Z   2
loop_
 _symmetry_equiv_pos_site_id
 _symmetry_equiv_pos_as_xyz
  1  'x, y, z'
loop_
 _atom_site_type_symbol
 _atom_site_label
 _atom_site_symmetry_multiplicity
 _atom_site_fract_x
 _atom_site_fract_y
 _atom_site_fract_z
 _atom_site_occupancy
  Sr  Sr0  1  0.30165700  0.30165700  0.27620400  1
  Sr  Sr1  1  0.69834300  0.69834300  0.72379600  1
  H  H0  1  0.05605000  0.05605000  0.61896900  1
  H  H1  1  0.94395000  0.94395000  0.38103100  1
  Br  Br0  1  0.38809900  0.38809900  0.82657500  1
  Br  Br1  1  0.61190100  0.61190100  0.17342500  1
  O  O0  1  0.14700000  0.14700000  0.59598300  1
  O  O1  1  0.85300000  0.85300000  0.40401700  1
loop_
_geom_bond_atom_site_label_1
_geom_bond_atom_site_label_2
_geom_bond_distance
_geom_bond_site_symmetry_2
H0 O0 0.972415 1_555
H1 O1 0.972415 1_555
Br0 Sr0 3.201289 1_556
Br0 Sr1 3.262032 1_455
Br0 Sr1 3.262032 1_545
Br0 Sr1 3.299554 1_555
Br1 Sr1 3.201289 1_554
Br1 Sr0 3.262032 1_565
Br1 Sr0 3.262032 1_655
Br1 Sr0 3.299554 1_555
O0 Sr0 2.497678 1_555
O0 Sr1 2.499102 1_455
O0 Sr1 2.499102 1_545
O1 Sr1 2.497678 1_555
O1 Sr0 2.499102 1_655
O1 Sr0 2.499102 1_565
