# generated using pymatgen
data_CuAs12P4S12Br
_symmetry_space_group_name_H-M   'P 1'
_cell_length_a   13.77325859
_cell_length_b   13.77325859
_cell_length_c   22.05949000
_cell_angle_alpha   90.00000000
_cell_angle_beta   90.00000000
_cell_angle_gamma   120.00000283
_symmetry_Int_Tables_number   1
_chemical_formula_structural   CuAs12P4S12Br
_chemical_formula_sum   'Cu4 As48 P16 S48 Br4'
_cell_volume   3624.09429938
_cell_formula_units_Z   4
loop_
 _symmetry_equiv_pos_site_id
 _symmetry_equiv_pos_as_xyz
  1  'x, y, z'
loop_
 _atom_site_type_symbol
 _atom_site_label
 _atom_site_symmetry_multiplicity
 _atom_site_fract_x
 _atom_site_fract_y
 _atom_site_fract_z
 _atom_site_occupancy
  Cu  Cu0  1  0.33333300  0.66666700  0.06111600  1
  Cu  Cu1  1  0.66666700  0.33333300  0.56111600  1
  Cu  Cu2  1  0.00000000  0.00000000  0.30199200  1
  Cu  Cu3  1  0.00000000  0.00000000  0.80199200  1
  As  As0  1  0.57330000  0.51598600  0.19527800  1
  As  As1  1  0.94268600  0.42670000  0.19527800  1
  As  As2  1  0.48401400  0.05731400  0.19527800  1
  As  As3  1  0.05731400  0.48401400  0.69527800  1
  As  As4  1  0.51598600  0.57330000  0.69527800  1
  As  As5  1  0.42670000  0.94268600  0.69527800  1
  As  As6  1  0.43769600  0.34369700  0.13679800  1
  As  As7  1  0.90600000  0.56230400  0.13679800  1
  As  As8  1  0.65630300  0.09400000  0.13679800  1
  As  As9  1  0.09400000  0.65630300  0.63679800  1
  As  As10  1  0.34369700  0.43769600  0.63679800  1
  As  As11  1  0.56230400  0.90600000  0.63679800  1
  As  As12  1  0.61582500  0.49041500  0.08680500  1
  As  As13  1  0.87458900  0.38417500  0.08680500  1
  As  As14  1  0.50958500  0.12541100  0.08680500  1
  As  As15  1  0.12541100  0.50958500  0.58680400  1
  As  As16  1  0.49041500  0.61582500  0.58680400  1
  As  As17  1  0.38417500  0.87458900  0.58680400  1
  As  As18  1  0.29743200  0.54752200  0.81787900  1
  As  As19  1  0.25008900  0.70256800  0.81787900  1
  As  As20  1  0.45247800  0.74991100  0.81787900  1
  As  As21  1  0.74991100  0.45247800  0.31787900  1
  As  As22  1  0.54752200  0.29743200  0.31787900  1
  As  As23  1  0.70256800  0.25008900  0.31787900  1
  As  As24  1  0.25519400  0.39268200  0.43938500  1
  As  As25  1  0.13748800  0.74480600  0.43938500  1
  As  As26  1  0.60731800  0.86251200  0.43938500  1
  As  As27  1  0.86251200  0.60731800  0.93938500  1
  As  As28  1  0.39268200  0.25519400  0.93938500  1
  As  As29  1  0.74480600  0.13748800  0.93938500  1
  As  As30  1  0.11052700  0.42570300  0.38870500  1
  As  As31  1  0.31517600  0.88947300  0.38870500  1
  As  As32  1  0.57429700  0.68482400  0.38870500  1
  As  As33  1  0.68482400  0.57429700  0.88870500  1
  As  As34  1  0.42570300  0.11052700  0.88870500  1
  As  As35  1  0.88947300  0.31517600  0.88870500  1
  As  As36  1  0.28684200  0.46775200  0.33256400  1
  As  As37  1  0.18091000  0.71315800  0.33256400  1
  As  As38  1  0.53224800  0.81909000  0.33256400  1
  As  As39  1  0.81909000  0.53224800  0.83256400  1
  As  As40  1  0.46775200  0.28684200  0.83256400  1
  As  As41  1  0.71315800  0.18091000  0.83256400  1
  As  As42  1  0.10954700  0.00778500  0.05786500  1
  As  As43  1  0.89823700  0.89045300  0.05786500  1
  As  As44  1  0.99221500  0.10176300  0.05786500  1
  As  As45  1  0.10176300  0.99221500  0.55786500  1
  As  As46  1  0.00778500  0.10954700  0.55786500  1
  As  As47  1  0.89045300  0.89823700  0.55786500  1
  P  P0  1  0.41984000  0.57228100  0.09463000  1
  P  P1  1  0.15244000  0.58016000  0.09463000  1
  P  P2  1  0.42771900  0.84756000  0.09463000  1
  P  P3  1  0.84756000  0.42771900  0.59463000  1
  P  P4  1  0.57228100  0.41984000  0.59463000  1
  P  P5  1  0.58016000  0.15244000  0.59463000  1
  P  P6  1  0.33333300  0.66666700  0.95742100  1
  P  P7  1  0.66666700  0.33333300  0.45742100  1
  P  P8  1  0.09929300  0.18590400  0.33556900  1
  P  P9  1  0.08661000  0.90070700  0.33556900  1
  P  P10  1  0.81409600  0.91339000  0.33556900  1
  P  P11  1  0.91339000  0.81409600  0.83556900  1
  P  P12  1  0.18590400  0.09929300  0.83556900  1
  P  P13  1  0.90070700  0.08661000  0.83556900  1
  P  P14  1  0.00000000  0.00000000  0.19759900  1
  P  P15  1  0.00000000  0.00000000  0.69759900  1
  S  S0  1  0.49197500  0.62170900  0.18088500  1
  S  S1  1  0.12973400  0.50802500  0.18088500  1
  S  S2  1  0.37829100  0.87026600  0.18088500  1
  S  S3  1  0.87026600  0.37829100  0.68088500  1
  S  S4  1  0.62170900  0.49197500  0.68088500  1
  S  S5  1  0.50802500  0.12973400  0.68088500  1
  S  S6  1  0.31786600  0.39776600  0.10185500  1
  S  S7  1  0.07990000  0.68213400  0.10185500  1
  S  S8  1  0.60223400  0.92010000  0.10185500  1
  S  S9  1  0.92010000  0.60223400  0.60185500  1
  S  S10  1  0.39776600  0.31786600  0.60185500  1
  S  S11  1  0.68213400  0.07990000  0.60185500  1
  S  S12  1  0.55294700  0.59368400  0.03925400  1
  S  S13  1  0.04073700  0.44705300  0.03925400  1
  S  S14  1  0.40631600  0.95926300  0.03925400  1
  S  S15  1  0.95926300  0.40631600  0.53925400  1
  S  S16  1  0.59368400  0.55294700  0.53925400  1
  S  S17  1  0.44705300  0.04073700  0.53925400  1
  S  S18  1  0.28667800  0.51082500  0.91833400  1
  S  S19  1  0.22414700  0.71332200  0.91833400  1
  S  S20  1  0.48917500  0.77585300  0.91833400  1
  S  S21  1  0.77585300  0.48917500  0.41833400  1
  S  S22  1  0.51082500  0.28667800  0.41833400  1
  S  S23  1  0.71332200  0.22414700  0.41833400  1
  S  S24  1  0.18148000  0.20751000  0.41893300  1
  S  S25  1  0.02603100  0.81852000  0.41893300  1
  S  S26  1  0.79249000  0.97396900  0.41893300  1
  S  S27  1  0.97396900  0.79249000  0.91893300  1
  S  S28  1  0.20751000  0.18148000  0.91893300  1
  S  S29  1  0.81852000  0.02603100  0.91893300  1
  S  S30  1  0.99382100  0.25257800  0.35103900  1
  S  S31  1  0.25875600  0.00617900  0.35103900  1
  S  S32  1  0.74742200  0.74124400  0.35103900  1
  S  S33  1  0.74124400  0.74742200  0.85103900  1
  S  S34  1  0.25257800  0.99382100  0.85103900  1
  S  S35  1  0.00617900  0.25875600  0.85103900  1
  S  S36  1  0.22565200  0.30652900  0.27959900  1
  S  S37  1  0.08087700  0.77434800  0.27959900  1
  S  S38  1  0.69347100  0.91912300  0.27959900  1
  S  S39  1  0.91912300  0.69347100  0.77959900  1
  S  S40  1  0.30652900  0.22565200  0.77959900  1
  S  S41  1  0.77434800  0.08087700  0.77959900  1
  S  S42  1  0.14384400  0.01202500  0.15797600  1
  S  S43  1  0.86818100  0.85615600  0.15797600  1
  S  S44  1  0.98797500  0.13181900  0.15797600  1
  S  S45  1  0.13181900  0.98797500  0.65797600  1
  S  S46  1  0.01202500  0.14384400  0.65797600  1
  S  S47  1  0.85615600  0.86818100  0.65797600  1
  Br  Br0  1  0.66666700  0.33333300  0.18170800  1
  Br  Br1  1  0.33333300  0.66666700  0.68170800  1
  Br  Br2  1  0.33333300  0.66666700  0.44127200  1
  Br  Br3  1  0.66666700  0.33333300  0.94127200  1
loop_
_geom_bond_atom_site_label_1
_geom_bond_atom_site_label_2
_geom_bond_distance
_geom_bond_site_symmetry_2
Cu0 P2 2.281477 1_555
Cu0 P1 2.281477 1_555
Cu0 P0 2.281477 1_555
Cu0 P6 2.287459 1_554
Cu1 P3 2.281477 1_555
Cu1 P5 2.281477 1_555
Cu1 P4 2.281477 1_555
Cu1 P7 2.287459 1_555
Cu2 P14 2.302856 1_555
Cu2 P9 2.339516 1_545
Cu2 P8 2.339527 1_555
Cu2 P10 2.339527 1_445
Cu3 P15 2.302856 1_555
Cu3 P13 2.339516 1_455
Cu3 P12 2.339527 1_555
Cu3 P11 2.339527 1_445
As0 S0 2.259840 1_555
As1 S1 2.259840 1_655
As2 S2 2.259840 1_545
As3 S3 2.259840 1_455
As4 S4 2.259840 1_555
As5 S5 2.259840 1_565
As6 S6 2.258726 1_555
As7 S7 2.258735 1_655
As8 S8 2.258738 1_545
As9 S9 2.258738 1_455
As10 S10 2.258726 1_555
As11 S11 2.258735 1_565
As12 S12 2.259469 1_555
As13 S13 2.259480 1_655
As14 S14 2.259479 1_545
As15 S15 2.259469 1_455
As16 S16 2.259459 1_555
As17 S17 2.259470 1_565
As18 S18 2.261224 1_555
As19 S19 2.261222 1_555
As20 S20 2.261224 1_555
As21 S21 2.261224 1_555
As22 S22 2.261224 1_555
As23 S23 2.261222 1_555
As24 S24 2.269272 1_555
As25 S25 2.269260 1_555
As26 S26 2.269271 1_555
As27 S27 2.269271 1_555
As28 S28 2.269272 1_555
As29 S29 2.269260 1_555
As30 S30 2.264314 1_455
As31 S31 2.264323 1_565
As32 S32 2.264311 1_555
As33 S33 2.264311 1_555
As34 S34 2.264314 1_545
As35 S35 2.264323 1_655
As36 S36 2.266022 1_555
As37 S37 2.266022 1_555
As38 S38 2.266022 1_555
As39 S39 2.266022 1_555
As40 S40 2.266022 1_555
As41 S41 2.266022 1_555
As42 S42 2.252995 1_555
As43 S43 2.252994 1_555
As44 S44 2.252993 1_555
As45 S45 2.252993 1_555
As46 S46 2.252995 1_555
As47 S47 2.252994 1_555
P0 S0 2.096335 1_555
P0 S6 2.097523 1_555
P0 S12 2.097554 1_555
P1 S1 2.096336 1_555
P1 S7 2.097512 1_555
P1 S13 2.097550 1_555
P2 S2 2.096330 1_555
P2 S8 2.097524 1_555
P2 S14 2.097543 1_555
P3 S3 2.096330 1_555
P3 S9 2.097524 1_555
P3 S15 2.097543 1_555
P4 S4 2.096335 1_555
P4 S10 2.097523 1_555
P4 S16 2.097554 1_555
P5 S5 2.096336 1_555
P5 S11 2.097512 1_555
P5 S17 2.097550 1_555
P6 S19 2.093871 1_555
P6 S20 2.093880 1_555
P6 S18 2.093883 1_555
P7 S23 2.093871 1_555
P7 S21 2.093880 1_555
P7 S22 2.093883 1_555
P8 S30 2.098599 1_455
P8 S24 2.101162 1_555
P8 S36 2.102880 1_555
P9 S31 2.098599 1_565
P9 S25 2.101158 1_555
P9 S37 2.102885 1_555
P10 S32 2.098599 1_555
P10 S26 2.101149 1_555
P10 S38 2.102874 1_555
P11 S33 2.098599 1_555
P11 S27 2.101149 1_555
P11 S39 2.102874 1_555
P12 S34 2.098599 1_545
P12 S28 2.101162 1_555
P12 S40 2.102880 1_555
P13 S35 2.098599 1_655
P13 S29 2.101158 1_555
P13 S41 2.102885 1_555
P14 S43 2.094860 1_445
P14 S42 2.094860 1_555
P14 S44 2.094860 1_455
P15 S47 2.094860 1_445
P15 S46 2.094860 1_555
P15 S45 2.094860 1_545
