# generated using pymatgen
data_In3Ge
_symmetry_space_group_name_H-M   'P 1'
_cell_length_a   6.66945795
_cell_length_b   6.66945795
_cell_length_c   5.29844100
_cell_angle_alpha   90.00000000
_cell_angle_beta   90.00000000
_cell_angle_gamma   119.99999951
_symmetry_Int_Tables_number   1
_chemical_formula_structural   In3Ge
_chemical_formula_sum   'In6 Ge2'
_cell_volume   204.10789982
_cell_formula_units_Z   2
loop_
 _symmetry_equiv_pos_site_id
 _symmetry_equiv_pos_as_xyz
  1  'x, y, z'
loop_
 _atom_site_type_symbol
 _atom_site_label
 _atom_site_symmetry_multiplicity
 _atom_site_fract_x
 _atom_site_fract_y
 _atom_site_fract_z
 _atom_site_occupancy
  In  In0  1  0.17136800  0.34273600  0.25000000  1
  In  In1  1  0.65726400  0.82863200  0.25000000  1
  In  In2  1  0.17136800  0.82863200  0.25000000  1
  In  In3  1  0.82863200  0.65726400  0.75000000  1
  In  In4  1  0.34273600  0.17136800  0.75000000  1
  In  In5  1  0.82863200  0.17136800  0.75000000  1
  Ge  Ge0  1  0.33333300  0.66666700  0.75000000  1
  Ge  Ge1  1  0.66666700  0.33333300  0.25000000  1
loop_
_geom_bond_atom_site_label_1
_geom_bond_atom_site_label_2
_geom_bond_distance
_geom_bond_site_symmetry_2
In0 In2 3.240663 1_555
In0 In1 3.240663 1_555
In0 In4 3.307151 1_555
In0 In4 3.307151 1_554
In0 In5 3.307151 1_455
In0 In5 3.307151 1_454
In0 In2 3.428795 1_545
In0 In1 3.428795 1_445
In1 In2 3.240663 1_555
In1 In3 3.307151 1_554
In1 In3 3.307151 1_555
In1 In5 3.307151 1_564
In1 In5 3.307151 1_565
In1 In2 3.428795 1_655
In2 In4 3.307151 1_564
In2 In3 3.307151 1_455
In2 In3 3.307151 1_454
In2 In4 3.307151 1_565
In3 In5 3.240663 1_555
In3 In4 3.240663 1_555
In3 In5 3.428795 1_565
In3 In4 3.428795 1_665
In4 In5 3.240663 1_555
In4 In5 3.428795 1_455
Ge0 In2 3.243299 1_556
Ge0 In2 3.243299 1_555
Ge0 In1 3.243302 1_556
Ge0 In1 3.243302 1_555
Ge0 In0 3.243302 1_556
Ge0 In0 3.243302 1_555
Ge0 In4 3.335168 1_565
Ge0 In3 3.335168 1_455
Ge0 In5 3.335171 1_565
Ge0 In5 3.335171 1_455
Ge0 In3 3.335175 1_555
Ge0 In4 3.335175 1_555
Ge1 In5 3.243299 1_555
Ge1 In5 3.243299 1_554
Ge1 In3 3.243302 1_555
Ge1 In3 3.243302 1_554
Ge1 In4 3.243302 1_554
Ge1 In4 3.243302 1_555
Ge1 In0 3.335168 1_655
Ge1 In1 3.335168 1_545
Ge1 In2 3.335171 1_655
Ge1 In2 3.335171 1_545
Ge1 In1 3.335175 1_555
Ge1 In0 3.335175 1_555
