# generated using pymatgen
data_TmWBrO4
_symmetry_space_group_name_H-M   'P 1'
_cell_length_a   6.98351300
_cell_length_b   7.26263674
_cell_length_c   10.93652275
_cell_angle_alpha   102.91484832
_cell_angle_beta   108.21895584
_cell_angle_gamma   95.11519175
_symmetry_Int_Tables_number   1
_chemical_formula_structural   TmWBrO4
_chemical_formula_sum   'Tm4 W4 Br4 O16'
_cell_volume   505.91761271
_cell_formula_units_Z   4
loop_
 _symmetry_equiv_pos_site_id
 _symmetry_equiv_pos_as_xyz
  1  'x, y, z'
loop_
 _atom_site_type_symbol
 _atom_site_label
 _atom_site_symmetry_multiplicity
 _atom_site_fract_x
 _atom_site_fract_y
 _atom_site_fract_z
 _atom_site_occupancy
  Tm  Tm0  1  0.66563200  0.10247500  0.73038500  1
  Tm  Tm1  1  0.33436800  0.89752500  0.26961500  1
  Tm  Tm2  1  0.37781100  0.66339100  0.76671200  1
  Tm  Tm3  1  0.62218900  0.33660900  0.23328800  1
  W  W0  1  0.72601000  0.81650600  0.13368800  1
  W  W1  1  0.27399000  0.18349400  0.86631200  1
  W  W2  1  0.76705600  0.58572200  0.62546500  1
  W  W3  1  0.23294400  0.41427800  0.37453500  1
  Br  Br0  1  0.26562900  0.01024200  0.52005500  1
  Br  Br1  1  0.73437100  0.98975800  0.47994500  1
  Br  Br2  1  0.19083500  0.72325700  0.98339500  1
  Br  Br3  1  0.80916500  0.27674300  0.01660500  1
  O  O0  1  0.65022500  0.73166700  0.95472500  1
  O  O1  1  0.34977500  0.26833300  0.04527500  1
  O  O2  1  0.00004500  0.88644000  0.20334200  1
  O  O3  1  0.99995500  0.11356000  0.79665800  1
  O  O4  1  0.64663200  0.62857600  0.20107000  1
  O  O5  1  0.35336800  0.37142400  0.79893000  1
  O  O6  1  0.40497700  0.98593800  0.81123900  1
  O  O7  1  0.59502300  0.01406200  0.18876100  1
  O  O8  1  0.03880700  0.65159400  0.66832100  1
  O  O9  1  0.96119300  0.34840600  0.33167900  1
  O  O10  1  0.72574200  0.39325700  0.69923300  1
  O  O11  1  0.27425800  0.60674300  0.30076700  1
  O  O12  1  0.66101800  0.49694100  0.44410700  1
  O  O13  1  0.33898200  0.50305900  0.55589300  1
  O  O14  1  0.65773900  0.78460500  0.70567000  1
  O  O15  1  0.34226100  0.21539500  0.29433000  1
loop_
_geom_bond_atom_site_label_1
_geom_bond_atom_site_label_2
_geom_bond_distance
_geom_bond_site_symmetry_2
Br0 Tm1 2.879644 1_545
Br0 Tm0 2.915961 1_555
Br1 Tm0 2.879644 1_565
Br1 Tm1 2.915961 1_555
Br2 Tm1 2.906190 1_556
Br2 Tm2 3.014185 1_555
Br3 Tm0 2.906190 1_554
Br3 Tm3 3.014185 1_555
O0 W0 1.801547 1_556
O0 Tm2 2.241214 1_555
O1 W1 1.801547 1_554
O1 Tm3 2.241214 1_555
O2 W0 1.800769 1_455
O2 Tm1 2.205702 1_555
O3 W1 1.800769 1_655
O3 Tm0 2.205702 1_555
O4 W0 1.811997 1_555
O4 Tm3 2.226352 1_555
O5 W1 1.811997 1_555
O5 Tm2 2.226352 1_555
O6 W1 1.857521 1_565
O6 Tm2 2.261349 1_555
O6 Tm0 2.424461 1_565
O7 W0 1.857521 1_545
O7 Tm3 2.261349 1_555
O7 Tm1 2.424461 1_545
O8 W2 1.797717 1_455
O8 Tm2 2.258247 1_555
O9 W3 1.797717 1_655
O9 Tm3 2.258247 1_555
O10 W2 1.807122 1_555
O10 Tm0 2.237217 1_555
O11 W3 1.807122 1_555
O11 Tm1 2.237217 1_555
O12 W2 1.822874 1_555
O12 Tm3 2.257878 1_555
O13 W3 1.822874 1_555
O13 Tm2 2.257878 1_555
O14 W2 1.867501 1_555
O14 Tm0 2.257139 1_565
O14 Tm2 2.411244 1_555
O15 W3 1.867501 1_555
O15 Tm1 2.257139 1_545
O15 Tm3 2.411244 1_555
