# generated using pymatgen
data_Ba3MgV4O14
_symmetry_space_group_name_H-M   'P 1'
_cell_length_a   7.29735968
_cell_length_b   13.77314101
_cell_length_c   14.18977297
_cell_angle_alpha   90.00000000
_cell_angle_beta   90.00000000
_cell_angle_gamma   101.00302323
_symmetry_Int_Tables_number   1
_chemical_formula_structural   Ba3MgV4O14
_chemical_formula_sum   'Ba12 Mg4 V16 O56'
_cell_volume   1399.96221796
_cell_formula_units_Z   4
loop_
 _symmetry_equiv_pos_site_id
 _symmetry_equiv_pos_as_xyz
  1  'x, y, z'
loop_
 _atom_site_type_symbol
 _atom_site_label
 _atom_site_symmetry_multiplicity
 _atom_site_fract_x
 _atom_site_fract_y
 _atom_site_fract_z
 _atom_site_occupancy
  Ba  Ba0  1  0.17253501  0.28170366  0.05495731  1
  Ba  Ba1  1  0.32746499  0.21829634  0.55495731  1
  Ba  Ba2  1  0.82746499  0.71829634  0.94504269  1
  Ba  Ba3  1  0.67253501  0.78170366  0.44504269  1
  Ba  Ba4  1  0.73752951  0.29597912  0.27045175  1
  Ba  Ba5  1  0.76247049  0.20402088  0.77045175  1
  Ba  Ba6  1  0.26247049  0.70402088  0.72954825  1
  Ba  Ba7  1  0.23752951  0.79597912  0.22954825  1
  Ba  Ba8  1  0.75548112  0.98495822  0.10655880  1
  Ba  Ba9  1  0.74451888  0.51504178  0.60655880  1
  Ba  Ba10  1  0.24451888  0.01504178  0.89344120  1
  Ba  Ba11  1  0.25548112  0.48495822  0.39344120  1
  Mg  Mg0  1  0.61375925  0.49345089  0.09804471  1
  Mg  Mg1  1  0.88624075  0.00654911  0.59804471  1
  Mg  Mg2  1  0.38624075  0.50654911  0.90195529  1
  Mg  Mg3  1  0.11375925  0.99345089  0.40195529  1
  V  V0  1  0.65953262  0.26029086  0.02779347  1
  V  V1  1  0.84046738  0.23970914  0.52779347  1
  V  V2  1  0.34046738  0.73970914  0.97220653  1
  V  V3  1  0.15953262  0.76029086  0.47220653  1
  V  V4  1  0.84079510  0.45093582  0.89073418  1
  V  V5  1  0.65920490  0.04906418  0.39073418  1
  V  V6  1  0.15920490  0.54906418  0.10926582  1
  V  V7  1  0.34079510  0.95093582  0.60926582  1
  V  V8  1  0.24600071  0.23206360  0.31261013  1
  V  V9  1  0.25399929  0.26793640  0.81261013  1
  V  V10  1  0.75399929  0.76793640  0.68738987  1
  V  V11  1  0.74600071  0.73206360  0.18738987  1
  V  V12  1  0.24732715  0.05091846  0.17036520  1
  V  V13  1  0.25267285  0.44908154  0.67036520  1
  V  V14  1  0.75267285  0.94908154  0.82963480  1
  V  V15  1  0.74732715  0.55091846  0.32963480  1
  O  O0  1  0.79162062  0.20010785  0.09928958  1
  O  O1  1  0.70837938  0.29989215  0.59928958  1
  O  O2  1  0.20837938  0.79989215  0.90071042  1
  O  O3  1  0.29162062  0.70010785  0.40071042  1
  O  O4  1  0.48359731  0.17918887  0.97724714  1
  O  O5  1  0.01640269  0.32081113  0.47724714  1
  O  O6  1  0.51640269  0.82081113  0.02275286  1
  O  O7  1  0.98359731  0.67918887  0.52275286  1
  O  O8  1  0.56425315  0.34173167  0.09771060  1
  O  O9  1  0.93574685  0.15826833  0.59771060  1
  O  O10  1  0.43574685  0.65826833  0.90228940  1
  O  O11  1  0.06425315  0.84173167  0.40228940  1
  O  O12  1  0.82736787  0.32521537  0.94122148  1
  O  O13  1  0.67263213  0.17478463  0.44122148  1
  O  O14  1  0.17263213  0.67478463  0.05877852  1
  O  O15  1  0.32736787  0.82521537  0.55877852  1
  O  O16  1  0.67759254  0.51350564  0.94675725  1
  O  O17  1  0.82240746  0.98649436  0.44675725  1
  O  O18  1  0.32240746  0.48649436  0.05324275  1
  O  O19  1  0.17759254  0.01350564  0.55324275  1
  O  O20  1  0.77668727  0.42644337  0.77798538  1
  O  O21  1  0.72331273  0.07355663  0.27798538  1
  O  O22  1  0.22331273  0.57355663  0.22201462  1
  O  O23  1  0.27668727  0.92644337  0.72201462  1
  O  O24  1  0.06513066  0.51675026  0.89247367  1
  O  O25  1  0.43486934  0.98324974  0.39247367  1
  O  O26  1  0.93486934  0.48324974  0.10752633  1
  O  O27  1  0.56513066  0.01675026  0.60752633  1
  O  O28  1  0.10402915  0.30081534  0.25712260  1
  O  O29  1  0.39597085  0.19918466  0.75712260  1
  O  O30  1  0.89597085  0.69918466  0.74287740  1
  O  O31  1  0.60402915  0.80081534  0.24287740  1
  O  O32  1  0.41310256  0.31058254  0.37510902  1
  O  O33  1  0.08689744  0.18941746  0.87510902  1
  O  O34  1  0.58689744  0.68941746  0.62489098  1
  O  O35  1  0.91310256  0.81058254  0.12489098  1
  O  O36  1  0.14294459  0.14323543  0.39112000  1
  O  O37  1  0.35705541  0.35676457  0.89112000  1
  O  O38  1  0.85705541  0.85676457  0.60888000  1
  O  O39  1  0.64294459  0.64323543  0.10888000  1
  O  O40  1  0.36215376  0.17200377  0.22127634  1
  O  O41  1  0.13784624  0.32799623  0.72127634  1
  O  O42  1  0.63784624  0.82799623  0.77872366  1
  O  O43  1  0.86215376  0.67200377  0.27872366  1
  O  O44  1  0.11539679  0.07735797  0.07647866  1
  O  O45  1  0.38460321  0.42264203  0.57647866  1
  O  O46  1  0.88460321  0.92264203  0.92352134  1
  O  O47  1  0.61539679  0.57735797  0.42352134  1
  O  O48  1  0.39160358  0.97631927  0.13127224  1
  O  O49  1  0.10839642  0.52368073  0.63127224  1
  O  O50  1  0.60839642  0.02368073  0.86872776  1
  O  O51  1  0.89160358  0.47631927  0.36872776  1
  O  O52  1  0.10216721  0.98426771  0.25237064  1
  O  O53  1  0.39783279  0.51573229  0.75237064  1
  O  O54  1  0.89783279  0.01573229  0.74762936  1
  O  O55  1  0.60216721  0.48426771  0.24762936  1
loop_
_geom_bond_atom_site_label_1
_geom_bond_atom_site_label_2
_geom_bond_distance
_geom_bond_site_symmetry_2
Ba0 O44 2.782169 1_555
Ba0 O37 2.784829 1_554
Ba0 O18 2.824007 1_555
Ba0 O0 2.862312 1_455
Ba0 O33 2.866301 1_554
Ba0 O8 2.884532 1_555
Ba0 O28 2.932363 1_555
Ba0 O4 3.096055 1_554
Ba0 O12 3.143944 1_454
Ba0 O40 3.250434 1_555
Ba1 O45 2.782169 1_555
Ba1 O36 2.784829 1_555
Ba1 O19 2.824007 1_555
Ba1 O1 2.862312 1_555
Ba1 O32 2.866301 1_555
Ba1 O9 2.884532 1_455
Ba1 O29 2.932363 1_555
Ba1 O5 3.096055 1_555
Ba1 O13 3.143944 1_555
Ba1 O41 3.250434 1_555
Ba2 O46 2.782169 1_555
Ba2 O39 2.784829 1_556
Ba2 O16 2.824007 1_555
Ba2 O2 2.862312 1_655
Ba2 O35 2.866301 1_556
Ba2 O10 2.884532 1_555
Ba2 O30 2.932363 1_555
Ba2 O6 3.096055 1_556
Ba2 O14 3.143944 1_656
Ba2 O42 3.250434 1_555
Ba3 O47 2.782169 1_555
Ba3 O38 2.784829 1_555
Ba3 O17 2.824007 1_555
Ba3 O3 2.862312 1_555
Ba3 O34 2.866301 1_555
Ba3 O11 2.884532 1_655
Ba3 O31 2.932363 1_555
Ba3 O7 3.096055 1_555
Ba3 O15 3.143944 1_555
Ba3 O43 3.250434 1_555
Ba4 O28 2.669279 1_655
Ba4 O0 2.827929 1_555
Ba4 O32 2.834167 1_555
Ba4 O8 2.882410 1_555
Ba4 O51 2.883103 1_555
Ba4 O13 2.929277 1_555
Ba4 O55 2.963743 1_555
Ba4 O40 3.020036 1_555
Ba4 O21 3.047234 1_555
Ba5 O29 2.669279 1_555
Ba5 O1 2.827929 1_555
Ba5 O33 2.834167 1_655
Ba5 O9 2.882410 1_555
Ba5 O50 2.883103 1_555
Ba5 O12 2.929277 1_555
Ba5 O54 2.963743 1_555
Ba5 O41 3.020036 1_655
Ba5 O20 3.047234 1_555
Ba6 O30 2.669279 1_455
Ba6 O2 2.827929 1_555
Ba6 O34 2.834167 1_555
Ba6 O10 2.882410 1_555
Ba6 O49 2.883103 1_555
Ba6 O15 2.929277 1_555
Ba6 O53 2.963743 1_555
Ba6 O42 3.020036 1_555
Ba6 O23 3.047234 1_555
Ba7 O31 2.669279 1_555
Ba7 O3 2.827929 1_555
Ba7 O35 2.834167 1_455
Ba7 O11 2.882410 1_555
Ba7 O48 2.883103 1_555
Ba7 O14 2.929277 1_555
Ba7 O52 2.963743 1_555
Ba7 O43 3.020036 1_455
Ba7 O22 3.047234 1_555
Ba8 O48 2.658456 1_555
Ba8 O44 2.724709 1_665
Ba8 O21 2.751474 1_565
Ba8 O6 2.839651 1_555
Ba8 O35 2.865893 1_555
Ba8 O0 2.926251 1_565
Ba8 O46 2.946008 1_554
Ba8 O31 3.213341 1_555
Ba8 O52 3.269640 1_655
Ba9 O49 2.658456 1_655
Ba9 O45 2.724709 1_555
Ba9 O20 2.751474 1_555
Ba9 O7 2.839651 1_555
Ba9 O34 2.865893 1_555
Ba9 O1 2.926251 1_555
Ba9 O47 2.946008 1_555
Ba9 O30 3.213341 1_555
Ba9 O53 3.269640 1_555
Ba10 O50 2.658456 1_555
Ba10 O46 2.724709 1_445
Ba10 O23 2.751474 1_545
Ba10 O4 2.839651 1_555
Ba10 O33 2.865893 1_555
Ba10 O2 2.926251 1_545
Ba10 O44 2.946008 1_556
Ba10 O29 3.213341 1_555
Ba10 O54 3.269640 1_455
Ba11 O51 2.658456 1_455
Ba11 O47 2.724709 1_555
Ba11 O22 2.751474 1_555
Ba11 O5 2.839651 1_555
Ba11 O32 2.865893 1_555
Ba11 O3 2.926251 1_555
Ba11 O45 2.946008 1_555
Ba11 O28 3.213341 1_555
Ba11 O55 3.269640 1_555
Mg0 O39 2.038937 1_555
Mg0 O8 2.051586 1_555
Mg0 O55 2.127059 1_555
Mg0 O16 2.202870 1_554
Mg0 O18 2.203604 1_555
Mg0 O26 2.377891 1_555
Mg1 O38 2.038937 1_545
Mg1 O9 2.051586 1_555
Mg1 O54 2.127059 1_555
Mg1 O17 2.202870 1_545
Mg1 O19 2.203604 1_655
Mg1 O27 2.377891 1_555
Mg2 O37 2.038937 1_555
Mg2 O10 2.051586 1_555
Mg2 O53 2.127059 1_555
Mg2 O18 2.202870 1_556
Mg2 O16 2.203604 1_555
Mg2 O24 2.377891 1_555
Mg3 O36 2.038937 1_565
Mg3 O11 2.051586 1_555
Mg3 O52 2.127059 1_555
Mg3 O19 2.202870 1_565
Mg3 O17 2.203604 1_455
Mg3 O25 2.377891 1_555
O0 V0 1.717675 1_555
O1 V1 1.717675 1_555
O2 V2 1.717675 1_555
O3 V3 1.717675 1_555
O4 V0 1.692058 1_556
O5 V1 1.692058 1_455
O6 V2 1.692058 1_554
O7 V3 1.692058 1_655
O8 V0 1.738854 1_555
O9 V1 1.738854 1_555
O10 V2 1.738854 1_555
O11 V3 1.738854 1_555
O12 V0 1.841369 1_556
O12 V4 1.859137 1_555
O13 V1 1.841369 1_555
O13 V5 1.859137 1_555
O14 V2 1.841369 1_554
O14 V6 1.859137 1_555
O15 V3 1.841369 1_555
O15 V7 1.859137 1_555
O16 V4 1.784588 1_555
O17 V5 1.784588 1_565
O18 V6 1.784588 1_555
O19 V7 1.784588 1_545
O20 V4 1.682862 1_555
O21 V5 1.682862 1_555
O22 V6 1.682862 1_555
O23 V7 1.682862 1_555
O24 V4 1.713418 1_455
O25 V5 1.713418 1_565
O26 V6 1.713418 1_655
O27 V7 1.713418 1_545
O28 V8 1.721747 1_555
O29 V9 1.721747 1_555
O30 V10 1.721747 1_555
O31 V11 1.721747 1_555
O32 V8 1.714523 1_555
O33 V9 1.714523 1_555
O34 V10 1.714523 1_555
O35 V11 1.714523 1_555
O36 V8 1.718208 1_555
O37 V9 1.718208 1_555
O38 V10 1.718208 1_555
O39 V11 1.718208 1_555
O40 V8 1.830301 1_555
O40 V12 1.863301 1_555
O41 V9 1.830301 1_555
O41 V13 1.863301 1_555
O42 V10 1.830301 1_555
O42 V14 1.863301 1_555
O43 V11 1.830301 1_555
O43 V15 1.863301 1_555
O44 V12 1.722830 1_555
O45 V13 1.722830 1_555
O46 V14 1.722830 1_555
O47 V15 1.722830 1_555
O48 V12 1.698468 1_565
O49 V13 1.698468 1_555
O50 V14 1.698468 1_545
O51 V15 1.698468 1_555
O52 V12 1.716873 1_565
O53 V13 1.716873 1_555
O54 V14 1.716873 1_545
O55 V15 1.716873 1_555
