# generated using pymatgen
data_CaAl2SiO6
_symmetry_space_group_name_H-M   'P 1'
_cell_length_a   5.33382700
_cell_length_b   8.74307575
_cell_length_c   9.70514497
_cell_angle_alpha   89.60577265
_cell_angle_beta   74.62183909
_cell_angle_gamma   89.32110415
_symmetry_Int_Tables_number   1
_chemical_formula_structural   CaAl2SiO6
_chemical_formula_sum   'Ca4 Al8 Si4 O24'
_cell_volume   436.35204575
_cell_formula_units_Z   4
loop_
 _symmetry_equiv_pos_site_id
 _symmetry_equiv_pos_as_xyz
  1  'x, y, z'
loop_
 _atom_site_type_symbol
 _atom_site_label
 _atom_site_symmetry_multiplicity
 _atom_site_fract_x
 _atom_site_fract_y
 _atom_site_fract_z
 _atom_site_occupancy
  Ca  Ca0  1  0.23841100  0.68908600  0.00431500  1
  Ca  Ca1  1  0.75171800  0.18807000  0.48894000  1
  Ca  Ca2  1  0.74793600  0.31133100  0.00387600  1
  Ca  Ca3  1  0.26293100  0.81208900  0.48452400  1
  Al  Al0  1  0.92062200  0.90512800  0.28908800  1
  Al  Al1  1  0.07682500  0.40360900  0.21487300  1
  Al  Al2  1  0.41643500  0.10008800  0.28839200  1
  Al  Al3  1  0.92468100  0.59738800  0.78668900  1
  Al  Al4  1  0.24685100  0.09064600  0.00217000  1
  Al  Al5  1  0.77695600  0.59143000  0.49284200  1
  Al  Al6  1  0.75006200  0.90827900  0.00488600  1
  Al  Al7  1  0.24819600  0.40759500  0.50150600  1
  Si  Si0  1  0.42416400  0.40231200  0.78951800  1
  Si  Si1  1  0.56849200  0.90160100  0.71417100  1
  Si  Si2  1  0.06537200  0.09331500  0.71362300  1
  Si  Si3  1  0.57812500  0.59774400  0.21142600  1
  O  O0  1  0.01995000  0.92298200  0.09832100  1
  O  O1  1  0.96442200  0.72772000  0.36411400  1
  O  O2  1  0.60883300  0.97742000  0.36421200  1
  O  O3  1  0.50930000  0.41902900  0.61193300  1
  O  O4  1  0.44853400  0.23240700  0.85670000  1
  O  O5  1  0.13175000  0.47405000  0.85699300  1
  O  O6  1  0.47971600  0.91308100  0.88946900  1
  O  O7  1  0.57639000  0.73989200  0.63330200  1
  O  O8  1  0.85381500  0.98747700  0.65518500  1
  O  O9  1  0.97636700  0.41466600  0.40300100  1
  O  O10  1  0.06276300  0.23573100  0.12307500  1
  O  O11  1  0.38296700  0.48985900  0.14814800  1
  O  O12  1  0.98373800  0.08696500  0.88819800  1
  O  O13  1  0.06243100  0.25534200  0.63428300  1
  O  O14  1  0.35337600  0.00692300  0.65401900  1
  O  O15  1  0.50088000  0.58702900  0.38943000  1
  O  O16  1  0.55448700  0.76535000  0.13990800  1
  O  O17  1  0.86861700  0.52500500  0.14329400  1
  O  O18  1  0.52024400  0.07700700  0.09598400  1
  O  O19  1  0.44839300  0.27634700  0.36811100  1
  O  O20  1  0.10747500  0.02742200  0.36478600  1
  O  O21  1  0.03296600  0.57803300  0.59927200  1
  O  O22  1  0.93785000  0.76883500  0.87376900  1
  O  O23  1  0.61695900  0.51171600  0.85365600  1
loop_
_geom_bond_atom_site_label_1
_geom_bond_atom_site_label_2
_geom_bond_distance
_geom_bond_site_symmetry_2
Ca0 O22 2.387477 1_454
Ca0 O0 2.403624 1_555
Ca0 O6 2.450118 1_554
Ca0 O11 2.466317 1_555
Ca0 O16 2.496787 1_555
Ca0 O5 2.529106 1_554
Ca0 O17 2.529253 1_455
Ca0 O23 2.647787 1_554
Ca1 O19 2.356392 1_555
Ca1 O9 2.357927 1_555
Ca1 O20 2.402664 1_655
Ca1 O2 2.447725 1_545
Ca1 O3 2.515345 1_555
Ca1 O13 2.521242 1_655
Ca1 O8 2.525858 1_545
Ca1 O14 2.798010 1_555
Ca2 O10 2.363999 1_655
Ca2 O12 2.431723 1_554
Ca2 O18 2.434998 1_555
Ca2 O23 2.481738 1_554
Ca2 O17 2.502082 1_555
Ca2 O4 2.513194 1_554
Ca2 O11 2.588214 1_555
Ca2 O5 2.596228 1_654
Ca3 O1 2.339093 1_455
Ca3 O15 2.383072 1_555
Ca3 O2 2.398795 1_555
Ca3 O20 2.454864 1_565
Ca3 O21 2.497198 1_555
Ca3 O14 2.513827 1_565
Ca3 O7 2.553731 1_555
Ca3 O8 2.809844 1_455
Al0 O2 1.742148 1_555
Al0 O1 1.748354 1_555
Al0 O20 1.760870 1_665
Al0 O0 1.791804 1_655
Al1 O10 1.734862 1_555
Al1 O9 1.764188 1_455
Al1 O11 1.765225 1_555
Al1 O17 1.792627 1_455
Al2 O20 1.743372 1_555
Al2 O19 1.759274 1_555
Al2 O2 1.763066 1_545
Al2 O18 1.813408 1_555
Al3 O22 1.737096 1_555
Al3 O21 1.765046 1_655
Al3 O23 1.770339 1_555
Al3 O5 1.791532 1_655
Al4 O10 1.824812 1_555
Al4 O18 1.915252 1_555
Al4 O4 1.971956 1_554
Al4 O0 1.977014 1_545
Al4 O12 2.004727 1_454
Al4 O6 2.099130 1_544
Al5 O1 1.823657 1_555
Al5 O21 1.920388 1_655
Al5 O9 1.941059 1_555
Al5 O7 1.976244 1_555
Al5 O15 1.990688 1_555
Al5 O3 2.190403 1_555
Al6 O22 1.850761 1_554
Al6 O0 1.899843 1_655
Al6 O16 1.910577 1_555
Al6 O18 1.964889 1_565
Al6 O6 2.047039 1_554
Al6 O12 2.133031 1_564
Al7 O19 1.841536 1_555
Al7 O13 1.935135 1_555
Al7 O9 1.937051 1_455
Al7 O21 1.959577 1_555
Al7 O3 1.973452 1_555
Al7 O15 2.170221 1_555
O3 Si0 1.667631 1_555
O4 Si0 1.635771 1_555
O5 Si0 1.641831 1_555
O6 Si1 1.643972 1_555
O7 Si1 1.616480 1_555
O8 Si1 1.663312 1_555
O8 Si2 1.680069 1_665
O11 Si3 1.649456 1_555
O12 Si2 1.634396 1_655
O13 Si2 1.609603 1_555
O14 Si2 1.664981 1_555
O14 Si1 1.681690 1_545
O15 Si3 1.668579 1_555
O16 Si3 1.634954 1_555
O17 Si3 1.637519 1_555
O23 Si0 1.652539 1_555
