# generated using pymatgen
data_Li2V4CuNiO12
_symmetry_space_group_name_H-M   'P 1'
_cell_length_a   6.85428409
_cell_length_b   6.85428409
_cell_length_c   5.80226376
_cell_angle_alpha   74.43627334
_cell_angle_beta   74.43627334
_cell_angle_gamma   83.16591339
_symmetry_Int_Tables_number   1
_chemical_formula_structural   Li2V4CuNiO12
_chemical_formula_sum   'Li2 V4 Cu1 Ni1 O12'
_cell_volume   252.64830983
_cell_formula_units_Z   1
loop_
 _symmetry_equiv_pos_site_id
 _symmetry_equiv_pos_as_xyz
  1  'x, y, z'
loop_
 _atom_site_type_symbol
 _atom_site_label
 _atom_site_symmetry_multiplicity
 _atom_site_fract_x
 _atom_site_fract_y
 _atom_site_fract_z
 _atom_site_occupancy
  Li  Li0  1  0.75559600  0.24440400  0.50000000  1
  Li  Li1  1  0.24052500  0.75947500  0.00000000  1
  V  V0  1  0.79946600  0.60921400  0.01596600  1
  V  V1  1  0.60700700  0.80444000  0.51935000  1
  V  V2  1  0.39078600  0.20053400  0.98403400  1
  V  V3  1  0.19556000  0.39299300  0.48065000  1
  Cu  Cu0  1  0.90470900  0.09529100  0.00000000  1
  Ni  Ni0  1  0.08381600  0.91618400  0.50000000  1
  O  O0  1  0.98500200  0.78722700  0.88980300  1
  O  O1  1  0.90527400  0.36934800  0.07340500  1
  O  O2  1  0.79795600  0.97984600  0.41212500  1
  O  O3  1  0.63606900  0.63603800  0.81341500  1
  O  O4  1  0.63065200  0.09472600  0.92659500  1
  O  O5  1  0.64817900  0.63754600  0.30887300  1
  O  O6  1  0.36396200  0.36393100  0.18658500  1
  O  O7  1  0.36258200  0.90252100  0.57730600  1
  O  O8  1  0.36245400  0.35182100  0.69112700  1
  O  O9  1  0.21277300  0.01499800  0.11019700  1
  O  O10  1  0.09747900  0.63741800  0.42269400  1
  O  O11  1  0.02015400  0.20204400  0.58787500  1
loop_
_geom_bond_atom_site_label_1
_geom_bond_atom_site_label_2
_geom_bond_distance
_geom_bond_site_symmetry_2
Li0 O11 1.980893 1_655
Li0 O2 1.980893 1_545
Li0 O4 2.370981 1_555
Li0 O1 2.370981 1_555
Li1 O0 1.992205 1_454
Li1 O9 1.992205 1_565
Li1 O10 2.340973 1_555
Li1 O7 2.340973 1_554
Cu0 O1 2.035189 1_555
Cu0 O4 2.035189 1_554
Cu0 O2 2.250143 1_545
Cu0 O11 2.250143 1_654
Cu0 O9 2.330126 1_655
Cu0 O0 2.330126 1_544
Ni0 O10 2.062932 1_555
Ni0 O7 2.062932 1_555
Ni0 O11 2.121962 1_565
Ni0 O2 2.121962 1_455
Ni0 O9 2.145494 1_565
Ni0 O0 2.145494 1_455
O0 V0 1.741357 1_556
O1 V0 1.700598 1_555
O2 V1 1.755478 1_555
O3 V0 1.791849 1_556
O3 V1 1.831421 1_555
O4 V2 1.700598 1_555
O5 V0 1.784617 1_555
O5 V1 1.835095 1_555
O6 V2 1.791849 1_554
O6 V3 1.831421 1_555
O7 V1 1.709621 1_555
O8 V2 1.784617 1_555
O8 V3 1.835095 1_555
O9 V2 1.741357 1_554
O10 V3 1.709621 1_555
O11 V3 1.755478 1_555
