# generated using pymatgen
data_KBaNbS4
_symmetry_space_group_name_H-M   'P 1'
_cell_length_a   7.07453800
_cell_length_b   9.33424200
_cell_length_c   12.76918900
_cell_angle_alpha   90.00000000
_cell_angle_beta   90.00000000
_cell_angle_gamma   90.00000000
_symmetry_Int_Tables_number   1
_chemical_formula_structural   KBaNbS4
_chemical_formula_sum   'K4 Ba4 Nb4 S16'
_cell_volume   843.21913830
_cell_formula_units_Z   4
loop_
 _symmetry_equiv_pos_site_id
 _symmetry_equiv_pos_as_xyz
  1  'x, y, z'
loop_
 _atom_site_type_symbol
 _atom_site_label
 _atom_site_symmetry_multiplicity
 _atom_site_fract_x
 _atom_site_fract_y
 _atom_site_fract_z
 _atom_site_occupancy
  K  K0  1  0.25000000  0.63558300  0.57469600  1
  K  K1  1  0.75000000  0.36441700  0.42530400  1
  K  K2  1  0.25000000  0.13558300  0.92530400  1
  K  K3  1  0.75000000  0.86441700  0.07469600  1
  Ba  Ba0  1  0.75000000  0.02051300  0.67603500  1
  Ba  Ba1  1  0.75000000  0.52051300  0.82396500  1
  Ba  Ba2  1  0.25000000  0.47948700  0.17603500  1
  Ba  Ba3  1  0.25000000  0.97948700  0.32396500  1
  Nb  Nb0  1  0.25000000  0.72925200  0.92349300  1
  Nb  Nb1  1  0.75000000  0.77074800  0.42349300  1
  Nb  Nb2  1  0.75000000  0.27074800  0.07650700  1
  Nb  Nb3  1  0.25000000  0.22925200  0.57650700  1
  S  S0  1  0.25000000  0.98418200  0.58267900  1
  S  S1  1  0.75000000  0.01581800  0.41732100  1
  S  S2  1  0.25000000  0.48418200  0.91732100  1
  S  S3  1  0.75000000  0.51581800  0.08267900  1
  S  S4  1  0.49019200  0.68104700  0.34135700  1
  S  S5  1  0.99019200  0.31895300  0.65864300  1
  S  S6  1  0.00980800  0.18104700  0.15864300  1
  S  S7  1  0.50980800  0.81895300  0.84135700  1
  S  S8  1  0.50980800  0.31895300  0.65864300  1
  S  S9  1  0.00980800  0.68104700  0.34135700  1
  S  S10  1  0.99019200  0.81895300  0.84135700  1
  S  S11  1  0.49019200  0.18104700  0.15864300  1
  S  S12  1  0.75000000  0.19416700  0.90576500  1
  S  S13  1  0.25000000  0.80583300  0.09423500  1
  S  S14  1  0.75000000  0.69416700  0.59423500  1
  S  S15  1  0.25000000  0.30583300  0.40576500  1
loop_
_geom_bond_atom_site_label_1
_geom_bond_atom_site_label_2
_geom_bond_distance
_geom_bond_site_symmetry_2
K0 S0 3.255504 1_555
K0 S9 3.456190 1_555
K0 S4 3.456190 1_555
K0 S14 3.587973 1_555
K0 S14 3.587973 1_455
K0 S5 3.641752 1_455
K0 S8 3.641752 1_555
K1 S1 3.255504 1_555
K1 S5 3.456190 1_555
K1 S8 3.456190 1_555
K1 S15 3.587973 1_555
K1 S15 3.587973 1_655
K1 S4 3.641752 1_555
K1 S9 3.641752 1_655
K2 S2 3.255504 1_555
K2 S11 3.456190 1_556
K2 S6 3.456190 1_556
K2 S12 3.587973 1_455
K2 S12 3.587973 1_555
K2 S7 3.641752 1_545
K2 S10 3.641752 1_445
K3 S3 3.255504 1_555
K3 S10 3.456190 1_554
K3 S7 3.456190 1_554
K3 S13 3.587973 1_555
K3 S13 3.587973 1_655
K3 S11 3.641752 1_565
K3 S6 3.641752 1_665
Ba0 S14 3.220297 1_545
Ba0 S5 3.270619 1_555
Ba0 S8 3.270619 1_555
Ba0 S10 3.299028 1_545
Ba0 S7 3.299028 1_545
Ba0 S1 3.303859 1_555
Ba0 S12 3.351512 1_555
Ba0 S0 3.748110 1_545
Ba0 S0 3.748110 1_645
Ba1 S12 3.220297 1_555
Ba1 S7 3.270619 1_555
Ba1 S10 3.270619 1_555
Ba1 S8 3.299028 1_555
Ba1 S5 3.299028 1_555
Ba1 S3 3.303859 1_556
Ba1 S14 3.351512 1_555
Ba1 S2 3.748110 1_555
Ba1 S2 3.748110 1_655
Ba2 S13 3.220297 1_555
Ba2 S11 3.270619 1_555
Ba2 S6 3.270619 1_555
Ba2 S9 3.299028 1_555
Ba2 S4 3.299028 1_555
Ba2 S2 3.303859 1_554
Ba2 S15 3.351512 1_555
Ba2 S3 3.748110 1_555
Ba2 S3 3.748110 1_455
Ba3 S15 3.220297 1_565
Ba3 S9 3.270619 1_555
Ba3 S4 3.270619 1_555
Ba3 S6 3.299028 1_565
Ba3 S11 3.299028 1_565
Ba3 S0 3.303859 1_555
Ba3 S13 3.351512 1_555
Ba3 S1 3.748110 1_565
Ba3 S1 3.748110 1_465
Nb0 S7 2.275826 1_555
Nb0 S10 2.275826 1_455
Nb0 S2 2.288900 1_555
Nb0 S13 2.294430 1_556
Nb1 S4 2.275826 1_555
Nb1 S9 2.275826 1_655
Nb1 S1 2.288900 1_565
Nb1 S14 2.294430 1_555
Nb2 S11 2.275826 1_555
Nb2 S6 2.275826 1_655
Nb2 S3 2.288900 1_555
Nb2 S12 2.294430 1_554
Nb3 S8 2.275826 1_555
Nb3 S5 2.275826 1_455
Nb3 S0 2.288900 1_545
Nb3 S15 2.294430 1_555
