# generated using pymatgen
data_Nb2PbO6
_symmetry_space_group_name_H-M   'P 1'
_cell_length_a   7.23816281
_cell_length_b   7.23816280
_cell_length_c   7.23816333
_cell_angle_alpha   93.87606594
_cell_angle_beta   93.87607402
_cell_angle_gamma   93.87607334
_symmetry_Int_Tables_number   1
_chemical_formula_structural   Nb2PbO6
_chemical_formula_sum   'Nb6 Pb3 O18'
_cell_volume   376.48840989
_cell_formula_units_Z   3
loop_
 _symmetry_equiv_pos_site_id
 _symmetry_equiv_pos_as_xyz
  1  'x, y, z'
loop_
 _atom_site_type_symbol
 _atom_site_label
 _atom_site_symmetry_multiplicity
 _atom_site_fract_x
 _atom_site_fract_y
 _atom_site_fract_z
 _atom_site_occupancy
  Nb  Nb0  1  0.54119201  0.84101396  0.19747085  1
  Nb  Nb1  1  0.84101396  0.19747085  0.54119201  1
  Nb  Nb2  1  0.19747085  0.54119201  0.84101396  1
  Nb  Nb3  1  0.15358381  0.81005241  0.50864038  1
  Nb  Nb4  1  0.81005241  0.50864038  0.15358381  1
  Nb  Nb5  1  0.50864038  0.15358381  0.81005241  1
  Pb  Pb0  1  0.99756466  0.99756466  0.99756466  1
  Pb  Pb1  1  0.35478831  0.35478831  0.35478831  1
  Pb  Pb2  1  0.68402296  0.68402296  0.68402296  1
  O  O0  1  0.40283973  0.67752720  0.95519201  1
  O  O1  1  0.67752720  0.95519201  0.40283973  1
  O  O2  1  0.95519201  0.40283973  0.67752720  1
  O  O3  1  0.94715521  0.67587600  0.39317797  1
  O  O4  1  0.67587600  0.39317797  0.94715521  1
  O  O5  1  0.39317797  0.94715521  0.67587600  1
  O  O6  1  0.77163082  0.05411755  0.77122476  1
  O  O7  1  0.05411755  0.77122476  0.77163082  1
  O  O8  1  0.77122476  0.77163082  0.05411755  1
  O  O9  1  0.05787743  0.51378845  0.05829691  1
  O  O10  1  0.51378845  0.05829691  0.05787743  1
  O  O11  1  0.05829691  0.05787743  0.51378845  1
  O  O12  1  0.57829208  0.29044304  0.57896583  1
  O  O13  1  0.29044304  0.57896583  0.57829208  1
  O  O14  1  0.57896583  0.57829208  0.29044304  1
  O  O15  1  0.29332227  0.83954013  0.29219924  1
  O  O16  1  0.83954013  0.29219924  0.29332227  1
  O  O17  1  0.29219924  0.29332227  0.83954013  1
loop_
_geom_bond_atom_site_label_1
_geom_bond_atom_site_label_2
_geom_bond_distance
_geom_bond_site_symmetry_2
Nb0 O1 1.841685 1_555
Nb0 O10 1.940012 1_565
Nb0 O15 1.963117 1_555
Nb0 O14 2.088592 1_555
Nb0 O8 2.092200 1_555
Nb0 O0 2.190946 1_554
Nb1 O2 1.841685 1_555
Nb1 O11 1.940013 1_655
Nb1 O16 1.963117 1_555
Nb1 O12 2.088592 1_555
Nb1 O6 2.092200 1_555
Nb1 O1 2.190946 1_545
Nb2 O0 1.841685 1_555
Nb2 O9 1.940013 1_556
Nb2 O17 1.963117 1_555
Nb2 O13 2.088592 1_555
Nb2 O7 2.092200 1_555
Nb2 O2 2.190946 1_455
Nb3 O3 1.843759 1_455
Nb3 O15 1.937314 1_555
Nb3 O11 1.963795 1_565
Nb3 O13 2.074538 1_555
Nb3 O7 2.109773 1_555
Nb3 O5 2.186023 1_555
Nb4 O4 1.843759 1_554
Nb4 O16 1.937314 1_555
Nb4 O9 1.963795 1_655
Nb4 O14 2.074538 1_555
Nb4 O8 2.109773 1_555
Nb4 O3 2.186023 1_555
Nb5 O5 1.843759 1_545
Nb5 O17 1.937314 1_555
Nb5 O10 1.963795 1_556
Nb5 O12 2.074538 1_555
Nb5 O6 2.109773 1_555
Nb5 O4 2.186023 1_555
O6 Pb0 2.311892 1_545
O6 Pb2 2.732056 1_545
O7 Pb0 2.311892 1_455
O7 Pb2 2.732056 1_455
O8 Pb0 2.311892 1_554
O8 Pb2 2.732056 1_554
O12 Pb1 2.305674 1_555
O13 Pb1 2.305674 1_555
O14 Pb1 2.305674 1_555
