# generated using pymatgen
data_Co2Ag3SbO6
_symmetry_space_group_name_H-M   'P 1'
_cell_length_a   5.44598134
_cell_length_b   5.44598134
_cell_length_c   18.97349400
_cell_angle_alpha   90.00000000
_cell_angle_beta   90.00000000
_cell_angle_gamma   119.99999200
_symmetry_Int_Tables_number   1
_chemical_formula_structural   Co2Ag3SbO6
_chemical_formula_sum   'Co6 Ag9 Sb3 O18'
_cell_volume   487.33800277
_cell_formula_units_Z   3
loop_
 _symmetry_equiv_pos_site_id
 _symmetry_equiv_pos_as_xyz
  1  'x, y, z'
loop_
 _atom_site_type_symbol
 _atom_site_label
 _atom_site_symmetry_multiplicity
 _atom_site_fract_x
 _atom_site_fract_y
 _atom_site_fract_z
 _atom_site_occupancy
  Co  Co0  1  0.10728900  0.89271100  0.33333300  1
  Co  Co1  1  0.10728900  0.21457800  0.66666700  1
  Co  Co2  1  0.78542200  0.89271100  0.00000000  1
  Co  Co3  1  0.77414400  0.22585600  0.33333300  1
  Co  Co4  1  0.77414400  0.54828700  0.66666700  1
  Co  Co5  1  0.45171300  0.22585600  0.00000000  1
  Ag  Ag0  1  0.44560100  0.22280000  0.50000000  1
  Ag  Ag1  1  0.77720000  0.22280000  0.83333300  1
  Ag  Ag2  1  0.77720000  0.55439900  0.16666700  1
  Ag  Ag3  1  0.11677000  0.55838500  0.50000000  1
  Ag  Ag4  1  0.44161500  0.55838500  0.83333300  1
  Ag  Ag5  1  0.44161500  0.88323000  0.16666700  1
  Ag  Ag6  1  0.76307300  0.88153600  0.50000000  1
  Ag  Ag7  1  0.11846400  0.88153600  0.83333300  1
  Ag  Ag8  1  0.11846400  0.23692700  0.16666700  1
  Sb  Sb0  1  0.43968000  0.56032000  0.33333300  1
  Sb  Sb1  1  0.43968000  0.87936000  0.66666700  1
  Sb  Sb2  1  0.12064000  0.56032000  0.00000000  1
  O  O0  1  0.76051300  0.55972900  0.27882700  1
  O  O1  1  0.44027100  0.20078400  0.61216000  1
  O  O2  1  0.79921600  0.23948700  0.94549400  1
  O  O3  1  0.76051300  0.20078400  0.72117300  1
  O  O4  1  0.44027100  0.23948700  0.38784000  1
  O  O5  1  0.79921600  0.55972900  0.05450600  1
  O  O6  1  0.43702700  0.87704600  0.27803700  1
  O  O7  1  0.12295400  0.55998100  0.61137000  1
  O  O8  1  0.44001900  0.56297300  0.94470400  1
  O  O9  1  0.43702700  0.55998100  0.72196300  1
  O  O10  1  0.12295400  0.56297300  0.38863000  1
  O  O11  1  0.44001900  0.87704600  0.05529600  1
  O  O12  1  0.11813500  0.24088800  0.27875400  1
  O  O13  1  0.75911200  0.87724700  0.61208700  1
  O  O14  1  0.12275300  0.88186500  0.94542000  1
  O  O15  1  0.11813500  0.87724700  0.72124600  1
  O  O16  1  0.75911200  0.88186500  0.38791300  1
  O  O17  1  0.12275300  0.24088800  0.05458000  1
loop_
_geom_bond_atom_site_label_1
_geom_bond_atom_site_label_2
_geom_bond_distance
_geom_bond_site_symmetry_2
Co0 O6 2.117998 1_555
Co0 O10 2.118007 1_555
Co0 O0 2.121284 1_455
Co0 O4 2.121293 1_565
Co0 O12 2.135253 1_565
Co0 O16 2.135262 1_455
Co1 O9 2.117998 1_555
Co1 O7 2.118008 1_555
Co1 O3 2.121284 1_455
Co1 O1 2.121293 1_555
Co1 O15 2.135253 1_545
Co1 O13 2.135262 1_445
Co2 O11 2.117998 1_555
Co2 O8 2.117998 1_554
Co2 O5 2.121284 1_555
Co2 O2 2.121284 1_564
Co2 O14 2.135262 1_654
Co2 O17 2.135262 1_665
Co3 O12 2.105997 1_655
Co3 O16 2.106006 1_545
Co3 O0 2.125108 1_555
Co3 O4 2.125118 1_555
Co3 O6 2.142977 1_545
Co3 O10 2.142986 1_655
Co4 O15 2.105999 1_655
Co4 O13 2.106011 1_555
Co4 O3 2.125104 1_555
Co4 O1 2.125115 1_555
Co4 O9 2.142979 1_555
Co4 O7 2.142984 1_655
Co5 O14 2.106009 1_544
Co5 O17 2.106011 1_555
Co5 O2 2.125104 1_554
Co5 O5 2.125106 1_555
Co5 O11 2.142975 1_545
Co5 O8 2.142979 1_554
Ag0 O1 2.130823 1_555
Ag0 O4 2.130823 1_555
Ag1 O3 2.130823 1_555
Ag1 O2 2.130842 1_555
Ag2 O0 2.130823 1_555
Ag2 O5 2.130842 1_555
Ag3 O7 2.113295 1_555
Ag3 O10 2.113295 1_555
Ag4 O9 2.113295 1_555
Ag4 O8 2.113314 1_555
Ag5 O6 2.113295 1_555
Ag5 O11 2.113314 1_555
Ag6 O13 2.126801 1_555
Ag6 O16 2.126801 1_555
Ag7 O14 2.126801 1_555
Ag7 O15 2.126801 1_555
Ag8 O17 2.126801 1_555
Ag8 O12 2.126801 1_555
O0 Sb0 2.031754 1_555
O1 Sb1 2.031764 1_545
O2 Sb2 2.031754 1_656
O3 Sb1 2.031754 1_545
O4 Sb0 2.031764 1_555
O5 Sb2 2.031754 1_655
O6 Sb0 2.025114 1_555
O7 Sb1 2.025124 1_555
O8 Sb2 2.025114 1_556
O9 Sb1 2.025114 1_555
O10 Sb0 2.025124 1_555
O11 Sb2 2.025114 1_555
O12 Sb0 2.029484 1_555
O13 Sb1 2.029493 1_555
O14 Sb2 2.029493 1_556
O15 Sb1 2.029484 1_555
O16 Sb0 2.029494 1_555
O17 Sb2 2.029493 1_555
