# generated using pymatgen
data_Li4CuSbO6
_symmetry_space_group_name_H-M   'P 1'
_cell_length_a   5.13841739
_cell_length_b   5.13841739
_cell_length_c   9.93774057
_cell_angle_alpha   87.52046692
_cell_angle_beta   87.52046692
_cell_angle_gamma   115.23691376
_symmetry_Int_Tables_number   1
_chemical_formula_structural   Li4CuSbO6
_chemical_formula_sum   'Li8 Cu2 Sb2 O12'
_cell_volume   236.56940125
_cell_formula_units_Z   2
loop_
 _symmetry_equiv_pos_site_id
 _symmetry_equiv_pos_as_xyz
  1  'x, y, z'
loop_
 _atom_site_type_symbol
 _atom_site_label
 _atom_site_symmetry_multiplicity
 _atom_site_fract_x
 _atom_site_fract_y
 _atom_site_fract_z
 _atom_site_occupancy
  Li  Li0  1  0.65825200  0.80489600  0.50269100  1
  Li  Li1  1  0.34174800  0.19510400  0.49730900  1
  Li  Li2  1  0.19510400  0.34174800  0.99730900  1
  Li  Li3  1  0.80489600  0.65825200  0.00269100  1
  Li  Li4  1  0.58154300  0.41845700  0.75000000  1
  Li  Li5  1  0.41845700  0.58154300  0.25000000  1
  Li  Li6  1  0.50000000  0.00000000  0.00000000  1
  Li  Li7  1  0.00000000  0.50000000  0.50000000  1
  Cu  Cu0  1  0.91343100  0.08656900  0.75000000  1
  Cu  Cu1  1  0.08656900  0.91343100  0.25000000  1
  Sb  Sb0  1  0.25434700  0.74565300  0.75000000  1
  Sb  Sb1  1  0.74565300  0.25434700  0.25000000  1
  O  O0  1  0.50377800  0.70002600  0.88362000  1
  O  O1  1  0.49622200  0.29997400  0.11638000  1
  O  O2  1  0.29997400  0.49622200  0.61638000  1
  O  O3  1  0.70002600  0.50377800  0.38362000  1
  O  O4  1  0.60437500  0.08671500  0.64988800  1
  O  O5  1  0.39562500  0.91328500  0.35011200  1
  O  O6  1  0.91328500  0.39562500  0.85011200  1
  O  O7  1  0.08671500  0.60437500  0.14988800  1
  O  O8  1  0.82468600  0.97232800  0.13720600  1
  O  O9  1  0.17531400  0.02767200  0.86279400  1
  O  O10  1  0.02767200  0.17531400  0.36279400  1
  O  O11  1  0.97232800  0.82468600  0.63720600  1
loop_
_geom_bond_atom_site_label_1
_geom_bond_atom_site_label_2
_geom_bond_distance
_geom_bond_site_symmetry_2
Li0 O3 2.063967 1_555
Li0 O2 2.087208 1_555
Li0 O11 2.111946 1_555
Li0 O4 2.191699 1_565
Li0 O5 2.274934 1_555
Li0 O10 2.370798 1_665
Li1 O2 2.063967 1_555
Li1 O3 2.087208 1_555
Li1 O10 2.111946 1_555
Li1 O5 2.191699 1_545
Li1 O4 2.274934 1_555
Li1 O11 2.370798 1_445
Li2 O1 2.063967 1_556
Li2 O0 2.087208 1_555
Li2 O9 2.111946 1_555
Li2 O6 2.191699 1_455
Li2 O7 2.274934 1_556
Li2 O8 2.370798 1_446
Li3 O0 2.063967 1_554
Li3 O1 2.087208 1_555
Li3 O8 2.111946 1_555
Li3 O7 2.191699 1_655
Li3 O6 2.274934 1_554
Li3 O9 2.370798 1_664
Li4 O4 2.053411 1_555
Li4 O6 2.053411 1_555
Li4 O0 2.151635 1_555
Li4 O2 2.151635 1_555
Li4 O9 2.382087 1_555
Li4 O11 2.382087 1_555
Li5 O7 2.053411 1_555
Li5 O5 2.053411 1_555
Li5 O3 2.151635 1_555
Li5 O1 2.151635 1_555
Li5 O10 2.382087 1_555
Li5 O8 2.382087 1_555
Li6 O1 1.972740 1_555
Li6 O0 1.972740 1_544
Li6 O8 2.246154 1_545
Li6 O9 2.246154 1_554
Li6 O7 2.577632 1_545
Li6 O6 2.577632 1_554
Li7 O2 1.972740 1_555
Li7 O3 1.972740 1_455
Li7 O11 2.246154 1_455
Li7 O10 2.246154 1_555
Li7 O5 2.577632 1_555
Li7 O4 2.577632 1_455
Cu0 O9 1.899286 1_655
Cu0 O11 1.899286 1_545
Cu0 O4 1.910337 1_555
Cu0 O6 1.910337 1_555
Cu0 O2 2.470625 1_655
Cu0 O0 2.470625 1_545
Cu1 O10 1.899286 1_565
Cu1 O8 1.899286 1_455
Cu1 O5 1.910337 1_555
Cu1 O7 1.910337 1_555
Cu1 O1 2.470625 1_565
Cu1 O3 2.470625 1_455
O0 Sb0 1.958953 1_555
O1 Sb1 1.958953 1_555
O2 Sb0 1.958953 1_555
O3 Sb1 1.958953 1_555
O4 Sb0 2.074251 1_545
O5 Sb1 2.074251 1_565
O6 Sb0 2.074251 1_655
O7 Sb1 2.074251 1_455
O8 Sb1 2.030849 1_565
O9 Sb0 2.030849 1_545
O10 Sb1 2.030849 1_455
O11 Sb0 2.030849 1_655
