# generated using pymatgen
data_CaMg6CO8
_symmetry_space_group_name_H-M   'P 1'
_cell_length_a   8.60048743
_cell_length_b   4.34784053
_cell_length_c   4.34784053
_cell_angle_alpha   90.00000000
_cell_angle_beta   90.00000000
_cell_angle_gamma   90.00000000
_symmetry_Int_Tables_number   1
_chemical_formula_structural   CaMg6CO8
_chemical_formula_sum   'Ca1 Mg6 C1 O8'
_cell_volume   162.58118280
_cell_formula_units_Z   1
loop_
 _symmetry_equiv_pos_site_id
 _symmetry_equiv_pos_as_xyz
  1  'x, y, z'
loop_
 _atom_site_type_symbol
 _atom_site_label
 _atom_site_symmetry_multiplicity
 _atom_site_fract_x
 _atom_site_fract_y
 _atom_site_fract_z
 _atom_site_occupancy
  Ca  Ca0  1  0.00000000  0.00000000  -0.00000000  1
  Mg  Mg0  1  0.00000000  0.50000000  0.50000000  1
  Mg  Mg1  1  0.50000000  0.50000000  0.50000000  1
  Mg  Mg2  1  0.25997287  0.00000000  0.50000000  1
  Mg  Mg3  1  0.74002713  -0.00000000  0.50000000  1
  Mg  Mg4  1  0.25997287  0.50000000  0.00000000  1
  Mg  Mg5  1  0.74002713  0.50000000  -0.00000000  1
  C  C0  1  0.50000000  0.00000000  -0.00000000  1
  O  O0  1  0.26549826  0.00000000  0.00000000  1
  O  O1  1  0.73450174  -0.00000000  -0.00000000  1
  O  O2  1  0.25222729  0.50000000  0.50000000  1
  O  O3  1  0.74777271  0.50000000  0.50000000  1
  O  O4  1  0.00000000  0.00000000  0.50000000  1
  O  O5  1  0.50000000  0.00000000  0.50000000  1
  O  O6  1  0.00000000  0.50000000  -0.00000000  1
  O  O7  1  0.50000000  0.50000000  -0.00000000  1
loop_
_geom_bond_atom_site_label_1
_geom_bond_atom_site_label_2
_geom_bond_distance
_geom_bond_site_symmetry_2
Ca0 O4 2.173920 1_555
Ca0 O4 2.173920 1_554
Ca0 O6 2.173920 1_545
Ca0 O6 2.173920 1_555
Ca0 O1 2.283414 1_455
Ca0 O0 2.283414 1_555
Mg0 O2 2.169278 1_555
Mg0 O3 2.169278 1_455
Mg0 O4 2.173920 1_555
Mg0 O4 2.173920 1_565
Mg0 O6 2.173920 1_556
Mg0 O6 2.173920 1_555
Mg1 O3 2.130966 1_555
Mg1 O2 2.130966 1_555
Mg1 O7 2.173920 1_556
Mg1 O5 2.173920 1_555
Mg1 O5 2.173920 1_565
Mg1 O7 2.173920 1_555
Mg2 O5 2.064350 1_555
Mg2 O0 2.174440 1_555
Mg2 O0 2.174440 1_556
Mg2 O2 2.174941 1_545
Mg2 O2 2.174941 1_555
Mg2 O4 2.235893 1_555
Mg3 O5 2.064350 1_555
Mg3 O1 2.174440 1_555
Mg3 O1 2.174440 1_556
Mg3 O3 2.174941 1_555
Mg3 O3 2.174941 1_545
Mg3 O4 2.235893 1_655
Mg4 O7 2.064350 1_555
Mg4 O0 2.174440 1_555
Mg4 O0 2.174440 1_565
Mg4 O2 2.174941 1_554
Mg4 O2 2.174941 1_555
Mg4 O6 2.235893 1_555
Mg5 O7 2.064350 1_555
Mg5 O1 2.174440 1_555
Mg5 O1 2.174440 1_565
Mg5 O3 2.174941 1_555
Mg5 O3 2.174941 1_554
Mg5 O6 2.235893 1_655
C0 O1 2.016829 1_555
C0 O0 2.016829 1_555
