# generated using pymatgen
data_YNi3Sn2
_symmetry_space_group_name_H-M   'P 1'
_cell_length_a   4.21762800
_cell_length_b   9.30017268
_cell_length_c   9.29621373
_cell_angle_alpha   120.01409177
_cell_angle_beta   90.00000000
_cell_angle_gamma   90.00000000
_symmetry_Int_Tables_number   1
_chemical_formula_structural   YNi3Sn2
_chemical_formula_sum   'Y3 Ni9 Sn6'
_cell_volume   315.74343512
_cell_formula_units_Z   3
loop_
 _symmetry_equiv_pos_site_id
 _symmetry_equiv_pos_as_xyz
  1  'x, y, z'
loop_
 _atom_site_type_symbol
 _atom_site_label
 _atom_site_symmetry_multiplicity
 _atom_site_fract_x
 _atom_site_fract_y
 _atom_site_fract_z
 _atom_site_occupancy
  Y  Y0  1  0.50000000  0.33330200  0.66658000  1
  Y  Y1  1  0.50000000  0.66672300  0.33342000  1
  Y  Y2  1  0.00000000  0.00007000  0.00000000  1
  Ni  Ni0  1  0.00000000  0.20680600  0.37431300  1
  Ni  Ni1  1  0.00000000  0.16722500  0.79308200  1
  Ni  Ni2  1  0.00000000  0.62597900  0.83283800  1
  Ni  Ni3  1  0.00000000  0.83249300  0.62568700  1
  Ni  Ni4  1  0.00000000  0.37414200  0.20691800  1
  Ni  Ni5  1  0.00000000  0.79314100  0.16716200  1
  Ni  Ni6  1  0.50000000  0.29632700  0.00000000  1
  Ni  Ni7  1  0.50000000  0.70366500  0.70369900  1
  Ni  Ni8  1  0.50000000  0.99996600  0.29630100  1
  Sn  Sn0  1  0.50000000  0.74718100  0.00000000  1
  Sn  Sn1  1  0.50000000  0.25294100  0.25288700  1
  Sn  Sn2  1  0.50000000  0.00005400  0.74711300  1
  Sn  Sn3  1  0.00000000  0.47084000  0.00000000  1
  Sn  Sn4  1  0.00000000  0.52896800  0.52889000  1
  Sn  Sn5  1  0.00000000  0.00007800  0.47111000  1
loop_
_geom_bond_atom_site_label_1
_geom_bond_atom_site_label_2
_geom_bond_distance
_geom_bond_site_symmetry_2
Ni0 Sn5 2.497383 1_555
Ni0 Sn1 2.527829 1_555
Ni0 Sn1 2.527829 1_455
Ni0 Sn4 2.595119 1_555
Ni0 Ni4 2.695603 1_555
Ni0 Ni8 2.697740 1_545
Ni0 Ni8 2.697740 1_445
Ni0 Y2 3.018572 1_555
Ni0 Y0 3.164704 1_455
Ni0 Y0 3.164704 1_555
Ni1 Sn3 2.497876 1_556
Ni1 Sn2 2.526300 1_455
Ni1 Sn2 2.526300 1_555
Ni1 Sn5 2.592384 1_555
Ni1 Ni3 2.695611 1_545
Ni1 Ni6 2.697819 1_456
Ni1 Ni6 2.697819 1_556
Ni1 Y2 3.018000 1_556
Ni1 Y0 3.167461 1_455
Ni1 Y0 3.167461 1_555
Ni2 Sn4 2.499491 1_555
Ni2 Sn0 2.525891 1_456
Ni2 Sn0 2.525891 1_556
Ni2 Sn3 2.596078 1_556
Ni2 Ni5 2.691179 1_556
Ni2 Ni7 2.697782 1_555
Ni2 Ni7 2.697782 1_455
Ni2 Y2 3.018327 1_566
Ni2 Y0 3.167984 1_555
Ni2 Y0 3.167984 1_455
Ni3 Sn4 2.497383 1_555
Ni3 Sn2 2.527829 1_565
Ni3 Sn2 2.527829 1_465
Ni3 Sn5 2.595119 1_565
Ni3 Ni7 2.697740 1_555
Ni3 Ni7 2.697740 1_455
Ni3 Y2 3.018572 1_566
Ni3 Y1 3.164703 1_555
Ni3 Y1 3.164703 1_455
Ni4 Sn3 2.497883 1_555
Ni4 Sn1 2.526295 1_555
Ni4 Sn1 2.526295 1_455
Ni4 Sn4 2.592383 1_555
Ni4 Ni6 2.697820 1_455
Ni4 Ni6 2.697820 1_555
Ni4 Y2 3.017992 1_555
Ni4 Y1 3.167473 1_555
Ni4 Y1 3.167473 1_455
Ni5 Sn5 2.499491 1_565
Ni5 Sn0 2.525891 1_455
Ni5 Sn0 2.525891 1_555
Ni5 Sn3 2.596078 1_555
Ni5 Ni8 2.697782 1_455
Ni5 Ni8 2.697782 1_555
Ni5 Y2 3.018327 1_565
Ni5 Y1 3.167979 1_555
Ni5 Y1 3.167979 1_455
Ni6 Sn2 2.576525 1_554
Ni6 Sn1 2.576526 1_555
Ni6 Sn3 2.661058 1_555
Ni6 Sn3 2.661058 1_655
Ni6 Y0 3.285076 1_554
Ni6 Y1 3.285081 1_555
Ni6 Y2 3.469647 1_555
Ni6 Y2 3.469647 1_655
Ni7 Sn0 2.575986 1_556
Ni7 Sn2 2.578383 1_565
Ni7 Sn4 2.661997 1_555
Ni7 Sn4 2.661997 1_655
Ni7 Y1 3.283839 1_555
Ni7 Y0 3.285448 1_555
Ni7 Y2 3.469425 1_566
Ni7 Y2 3.469425 1_666
Ni8 Sn0 2.575986 1_555
Ni8 Sn1 2.578383 1_565
Ni8 Sn5 2.661997 1_665
Ni8 Sn5 2.661997 1_565
Ni8 Y0 3.283835 1_565
Ni8 Y1 3.285439 1_555
Ni8 Y2 3.469425 1_565
Ni8 Y2 3.469425 1_665
Sn0 Y2 3.158890 1_665
Sn0 Y2 3.158890 1_565
Sn0 Y1 3.533748 1_555
Sn0 Y0 3.533754 1_554
Sn1 Y2 3.158075 1_655
Sn1 Y2 3.158075 1_555
Sn1 Y0 3.531732 1_555
Sn1 Y1 3.533729 1_555
Sn2 Y2 3.158075 1_556
Sn2 Y2 3.158075 1_656
Sn2 Y1 3.531728 1_545
Sn2 Y0 3.533720 1_555
Sn3 Y0 3.424038 1_454
Sn3 Y0 3.424038 1_554
Sn3 Y1 3.424038 1_555
Sn3 Y1 3.424038 1_455
Sn4 Y1 3.423360 1_455
Sn4 Y1 3.423360 1_555
Sn4 Y0 3.424490 1_455
Sn4 Y0 3.424490 1_555
Sn5 Y0 3.423354 1_455
Sn5 Y0 3.423354 1_555
Sn5 Y1 3.424483 1_445
Sn5 Y1 3.424483 1_545
