# generated using pymatgen
data_Eu3Ga8
_symmetry_space_group_name_H-M   'P 1'
_cell_length_a   13.19680096
_cell_length_b   13.19680096
_cell_length_c   13.19680096
_cell_angle_alpha   160.74251643
_cell_angle_beta   160.19978947
_cell_angle_gamma   27.75764841
_symmetry_Int_Tables_number   1
_chemical_formula_structural   Eu3Ga8
_chemical_formula_sum   'Eu3 Ga8'
_cell_volume   256.65682102
_cell_formula_units_Z   1
loop_
 _symmetry_equiv_pos_site_id
 _symmetry_equiv_pos_as_xyz
  1  'x, y, z'
loop_
 _atom_site_type_symbol
 _atom_site_label
 _atom_site_symmetry_multiplicity
 _atom_site_fract_x
 _atom_site_fract_y
 _atom_site_fract_z
 _atom_site_occupancy
  Eu  Eu0  1  0.00000000  0.00000000  0.00000000  1
  Eu  Eu1  1  0.14824100  0.64824100  0.50000000  1
  Eu  Eu2  1  0.85175900  0.35175900  0.50000000  1
  Ga  Ga0  1  0.75159700  0.75159700  0.00000000  1
  Ga  Ga1  1  0.24840300  0.24840300  0.00000000  1
  Ga  Ga2  1  0.54823800  0.54823800  0.00000000  1
  Ga  Ga3  1  0.45176200  0.45176200  0.00000000  1
  Ga  Ga4  1  0.40544400  0.90544400  0.50000000  1
  Ga  Ga5  1  0.59455600  0.09455600  0.50000000  1
  Ga  Ga6  1  0.30749500  0.80749500  0.50000000  1
  Ga  Ga7  1  0.69250500  0.19250500  0.50000000  1
loop_
_geom_bond_atom_site_label_1
_geom_bond_atom_site_label_2
_geom_bond_distance
_geom_bond_site_symmetry_2
Eu0 Ga5 3.319353 1_454
Eu0 Ga5 3.319353 1_555
Eu0 Ga4 3.319353 1_444
Eu0 Ga4 3.319353 1_545
Eu0 Ga3 3.398256 1_545
Eu0 Ga2 3.398256 1_455
Eu0 Ga3 3.398256 1_455
Eu0 Ga2 3.398256 1_556
Eu0 Ga2 3.398256 1_444
Eu0 Ga3 3.398256 1_556
Eu0 Ga3 3.398256 1_444
Eu0 Ga2 3.398256 1_545
Eu1 Ga7 3.362558 1_465
Eu1 Ga7 3.362558 1_454
Eu1 Ga7 3.362558 1_566
Eu1 Ga7 3.362558 1_555
Eu1 Ga1 3.385122 1_566
Eu1 Ga1 3.385122 1_555
Eu1 Ga2 3.422554 1_455
Eu1 Ga2 3.422554 1_556
Eu1 Ga5 3.451469 1_465
Eu1 Ga5 3.451469 1_566
Eu1 Ga5 3.451469 1_454
Eu1 Ga5 3.451469 1_555
Eu1 Ga0 3.487341 1_455
Eu1 Ga0 3.487341 1_556
Eu2 Ga6 3.362558 1_555
Eu2 Ga6 3.362558 1_656
Eu2 Ga6 3.362558 1_544
Eu2 Ga6 3.362558 1_645
Eu2 Ga0 3.385122 1_556
Eu2 Ga0 3.385122 1_545
Eu2 Ga3 3.422554 1_555
Eu2 Ga3 3.422554 1_656
Eu2 Ga4 3.451469 1_555
Eu2 Ga4 3.451469 1_544
Eu2 Ga4 3.451469 1_656
Eu2 Ga4 3.451469 1_645
Eu2 Ga1 3.487341 1_555
Eu2 Ga1 3.487341 1_656
Ga0 Ga7 2.676734 1_554
Ga0 Ga7 2.676734 1_565
Ga0 Ga6 2.683188 1_655
Ga0 Ga6 2.683188 1_554
Ga1 Ga6 2.676734 1_544
Ga1 Ga6 2.676734 1_555
Ga1 Ga7 2.683188 1_454
Ga1 Ga7 2.683188 1_555
Ga2 Ga3 2.472009 1_555
Ga2 Ga5 2.506166 1_554
Ga2 Ga5 2.506166 1_565
Ga3 Ga4 2.506166 1_544
Ga3 Ga4 2.506166 1_555
Ga4 Ga6 2.509752 1_555
Ga5 Ga7 2.509752 1_555
