# generated using pymatgen
data_Li4MnCo2O7
_symmetry_space_group_name_H-M   'P 1'
_cell_length_a   3.02558500
_cell_length_b   8.03757100
_cell_length_c   10.68971758
_cell_angle_alpha   78.47325421
_cell_angle_beta   86.75076173
_cell_angle_gamma   89.09889978
_symmetry_Int_Tables_number   1
_chemical_formula_structural   Li4MnCo2O7
_chemical_formula_sum   'Li8 Mn2 Co4 O14'
_cell_volume   254.30137391
_cell_formula_units_Z   2
loop_
 _symmetry_equiv_pos_site_id
 _symmetry_equiv_pos_as_xyz
  1  'x, y, z'
loop_
 _atom_site_type_symbol
 _atom_site_label
 _atom_site_symmetry_multiplicity
 _atom_site_fract_x
 _atom_site_fract_y
 _atom_site_fract_z
 _atom_site_occupancy
  Li  Li0  1  0.14435700  0.06860000  0.71088300  1
  Li  Li1  1  0.85519800  0.92980600  0.28686800  1
  Li  Li2  1  0.57406200  0.78316800  0.85506300  1
  Li  Li3  1  0.71353600  0.35699000  0.57162600  1
  Li  Li4  1  0.42740600  0.21390700  0.14319600  1
  Li  Li5  1  0.28538900  0.64740400  0.43291200  1
  Li  Li6  1  0.00144400  0.50034100  0.99932200  1
  Li  Li7  1  0.71456300  0.85683300  0.57195300  1
  Mn  Mn0  1  0.99951000  0.00075700  0.99903900  1
  Mn  Mn1  1  0.85531900  0.42677800  0.28670500  1
  Co  Co0  1  0.42906100  0.71430700  0.14313100  1
  Co  Co1  1  0.14729900  0.58262000  0.70804500  1
  Co  Co2  1  0.57360500  0.28926100  0.85530600  1
  Co  Co3  1  0.27870700  0.12991500  0.43591300  1
  O  O0  1  0.59119300  0.04707900  0.85868600  1
  O  O1  1  0.29249900  0.91634100  0.42641100  1
  O  O2  1  0.02008400  0.75531200  0.00791600  1
  O  O3  1  0.16083400  0.33965700  0.72311700  1
  O  O4  1  0.87722800  0.18397000  0.29362200  1
  O  O5  1  0.72984200  0.60306900  0.58211200  1
  O  O6  1  0.44782500  0.47455500  0.14671500  1
  O  O7  1  0.70016700  0.11016400  0.56109900  1
  O  O8  1  0.40957800  0.95425100  0.13800400  1
  O  O9  1  0.13573200  0.79624500  0.71823000  1
  O  O10  1  0.26865300  0.37436000  0.42445200  1
  O  O11  1  0.97950600  0.24539700  0.99254200  1
  O  O12  1  0.83558600  0.67264800  0.27994000  1
  O  O13  1  0.55181900  0.52626600  0.84719200  1
loop_
_geom_bond_atom_site_label_1
_geom_bond_atom_site_label_2
_geom_bond_distance
_geom_bond_site_symmetry_2
Li0 O0 2.116491 1_555
Li0 O7 2.120726 1_455
Li0 O9 2.175257 1_545
Li0 O3 2.209996 1_555
Li0 O0 2.219785 1_455
Li0 O7 2.236493 1_555
Li1 O1 2.035211 1_655
Li1 O4 2.060755 1_565
Li1 O12 2.084879 1_555
Li1 O8 2.120995 1_555
Li1 O1 2.188307 1_555
Li1 O8 2.228708 1_655
Li2 O9 2.015800 1_555
Li2 O13 2.085602 1_555
Li2 O0 2.130776 1_565
Li2 O2 2.152969 1_656
Li2 O9 2.168144 1_655
Li2 O2 2.254866 1_556
Li3 O5 2.004819 1_555
Li3 O7 2.010559 1_555
Li3 O10 2.110157 1_555
Li3 O3 2.150748 1_655
Li3 O10 2.221613 1_655
Li3 O3 2.246875 1_555
Li4 O8 2.100416 1_545
Li4 O6 2.104754 1_555
Li4 O11 2.137234 1_454
Li4 O4 2.139860 1_555
Li4 O4 2.229139 1_455
Li4 O11 2.234586 1_554
Li5 O5 2.116582 1_555
Li5 O1 2.149201 1_555
Li5 O12 2.162919 1_455
Li5 O10 2.215940 1_555
Li5 O5 2.232440 1_455
Li5 O12 2.248489 1_555
Li6 O11 2.067068 1_455
Li6 O2 2.071451 1_556
Li6 O6 2.109827 1_556
Li6 O13 2.155250 1_455
Li6 O6 2.216388 1_456
Li6 O13 2.242645 1_555
Li7 O7 2.016109 1_565
Li7 O5 2.020685 1_555
Li7 O1 2.046609 1_555
Li7 O9 2.051343 1_655
Li7 O1 2.264375 1_655
Li7 O9 2.271853 1_555
Mn0 O11 1.953720 1_555
Mn0 O2 1.956205 1_646
Mn0 O8 1.964223 1_646
Mn0 O0 1.971859 1_555
Mn0 O8 2.242935 1_546
Mn0 O0 2.255580 1_655
Mn1 O4 1.938393 1_555
Mn1 O12 1.963114 1_555
Mn1 O10 1.963129 1_655
Mn1 O6 1.967611 1_555
Mn1 O10 2.230617 1_555
Mn1 O6 2.255752 1_655
Co0 O8 1.918436 1_555
Co0 O6 1.919743 1_555
Co0 O2 1.930936 1_555
Co0 O12 1.938806 1_555
Co0 O2 2.220499 1_655
Co0 O12 2.236206 1_455
Co1 O9 1.741737 1_555
Co1 O5 1.879448 1_455
Co1 O3 1.927091 1_555
Co1 O13 1.958386 1_555
Co1 O5 2.144173 1_555
Co1 O13 2.261924 1_455
Co2 O13 1.889801 1_555
Co2 O3 1.917262 1_555
Co2 O0 1.939604 1_555
Co2 O11 1.941272 1_555
Co2 O3 2.197000 1_655
Co2 O11 2.240922 1_455
Co3 O1 1.739477 1_545
Co3 O7 1.882605 1_555
Co3 O10 1.943836 1_555
Co3 O4 1.976516 1_455
Co3 O7 2.130322 1_455
Co3 O4 2.286926 1_555
