# generated using pymatgen
data_TiO
_symmetry_space_group_name_H-M   'P 1'
_cell_length_a   4.13376482
_cell_length_b   5.09789144
_cell_length_c   5.84806556
_cell_angle_alpha   105.93539201
_cell_angle_beta   90.00380888
_cell_angle_gamma   113.91901454
_symmetry_Int_Tables_number   1
_chemical_formula_structural   TiO
_chemical_formula_sum   'Ti5 O5'
_cell_volume   107.45292723
_cell_formula_units_Z   5
loop_
 _symmetry_equiv_pos_site_id
 _symmetry_equiv_pos_as_xyz
  1  'x, y, z'
loop_
 _atom_site_type_symbol
 _atom_site_label
 _atom_site_symmetry_multiplicity
 _atom_site_fract_x
 _atom_site_fract_y
 _atom_site_fract_z
 _atom_site_occupancy
  Ti  Ti0  1  0.64451040  0.28910452  0.32817270  1
  Ti  Ti1  1  0.35548960  0.71089548  0.67182730  1
  Ti  Ti2  1  0.65828683  0.31656889  0.82185403  1
  Ti  Ti3  1  0.34171317  0.68343111  0.17814597  1
  Ti  Ti4  1  0.00000000  -0.00000000  0.50000000  1
  O  O0  1  0.50000000  -0.00000000  -0.00000000  1
  O  O1  1  0.82331507  0.64660941  0.16915929  1
  O  O2  1  0.17668493  0.35339059  0.83084071  1
  O  O3  1  0.82583136  0.65151994  0.65334927  1
  O  O4  1  0.17416864  0.34848006  0.34665073  1
loop_
_geom_bond_atom_site_label_1
_geom_bond_atom_site_label_2
_geom_bond_distance
_geom_bond_site_symmetry_2
O0 Ti1 1.986204 1_544
O0 Ti0 1.986204 1_555
O0 Ti2 2.045727 1_554
O0 Ti3 2.045727 1_545
O1 Ti3 2.073295 1_655
O1 Ti3 2.073410 1_555
O1 Ti4 2.131024 1_665
O1 Ti0 2.137997 1_555
O1 Ti2 2.148040 1_554
O2 Ti2 2.073295 1_455
O2 Ti2 2.073410 1_555
O2 Ti4 2.131024 1_555
O2 Ti1 2.137997 1_555
O2 Ti3 2.148040 1_556
O3 Ti4 2.077583 1_665
O3 Ti2 2.081231 1_555
O3 Ti1 2.083683 1_655
O3 Ti1 2.083943 1_555
O3 Ti0 2.130539 1_555
O4 Ti4 2.077583 1_555
O4 Ti3 2.081231 1_555
O4 Ti0 2.083683 1_455
O4 Ti0 2.083943 1_555
O4 Ti1 2.130539 1_555
