# generated using pymatgen
data_Mg6CrMo
_symmetry_space_group_name_H-M   'P 1'
_cell_length_a   4.74408500
_cell_length_b   5.96880100
_cell_length_c   11.02198000
_cell_angle_alpha   90.00000000
_cell_angle_beta   90.00000000
_cell_angle_gamma   90.00000000
_symmetry_Int_Tables_number   1
_chemical_formula_structural   Mg6CrMo
_chemical_formula_sum   'Mg12 Cr2 Mo2'
_cell_volume   312.10388887
_cell_formula_units_Z   2
loop_
 _symmetry_equiv_pos_site_id
 _symmetry_equiv_pos_as_xyz
  1  'x, y, z'
loop_
 _atom_site_type_symbol
 _atom_site_label
 _atom_site_symmetry_multiplicity
 _atom_site_fract_x
 _atom_site_fract_y
 _atom_site_fract_z
 _atom_site_occupancy
  Mg  Mg0  1  0.00000000  0.26052800  0.07925500  1
  Mg  Mg1  1  0.00000000  0.73947200  0.07925500  1
  Mg  Mg2  1  0.00000000  0.00000000  0.32857600  1
  Mg  Mg3  1  0.50000000  0.74366400  0.42241800  1
  Mg  Mg4  1  0.50000000  0.25633600  0.42241800  1
  Mg  Mg5  1  0.50000000  0.00000000  0.17061100  1
  Mg  Mg6  1  0.00000000  0.76052800  0.57925500  1
  Mg  Mg7  1  0.00000000  0.23947200  0.57925500  1
  Mg  Mg8  1  0.00000000  0.50000000  0.82857600  1
  Mg  Mg9  1  0.50000000  0.24366400  0.92241800  1
  Mg  Mg10  1  0.50000000  0.75633600  0.92241800  1
  Mg  Mg11  1  0.50000000  0.50000000  0.67061100  1
  Cr  Cr0  1  0.00000000  0.50000000  0.30424500  1
  Cr  Cr1  1  0.00000000  0.00000000  0.80424500  1
  Mo  Mo0  1  0.50000000  0.50000000  0.19322200  1
  Mo  Mo1  1  0.50000000  0.00000000  0.69322200  1
loop_
_geom_bond_atom_site_label_1
_geom_bond_atom_site_label_2
_geom_bond_distance
_geom_bond_site_symmetry_2
Mg0 Mg1 2.858721 1_555
Mg0 Mg9 2.936829 1_454
Mg0 Mg9 2.936829 1_554
Mg0 Mg5 3.009756 1_455
Mg0 Mg5 3.009756 1_555
Mg0 Mo0 3.040979 1_455
Mg0 Mo0 3.040979 1_555
Mg0 Mg1 3.110080 1_545
Mg0 Mg8 3.110808 1_554
Mg0 Mg2 3.157485 1_555
Mg1 Mg10 2.936829 1_554
Mg1 Mg10 2.936829 1_454
Mg1 Mg5 3.009756 1_465
Mg1 Mg5 3.009756 1_565
Mg1 Mo0 3.040979 1_455
Mg1 Mo0 3.040979 1_555
Mg1 Mg8 3.110808 1_554
Mg1 Mg2 3.157485 1_565
Mg2 Mg5 2.942443 1_455
Mg2 Mg5 2.942443 1_555
Mg2 Mg4 3.006222 1_455
Mg2 Mg3 3.006222 1_445
Mg2 Mg3 3.006222 1_545
Mg2 Mg4 3.006222 1_555
Mg2 Mg6 3.110808 1_545
Mg2 Mg7 3.110808 1_555
Mg3 Mg4 2.908764 1_555
Mg3 Mo0 2.914941 1_555
Mg3 Mg6 2.936829 1_555
Mg3 Mg6 2.936829 1_655
Mg3 Mg4 3.060037 1_565
Mg3 Mg5 3.169206 1_565
Mg3 Mo1 3.354097 1_565
Mg4 Mo0 2.914941 1_555
Mg4 Mg7 2.936829 1_655
Mg4 Mg7 2.936829 1_555
Mg4 Mg5 3.169206 1_555
Mg4 Mo1 3.354097 1_555
Mg5 Mo0 2.994788 1_555
Mg5 Mo0 2.994788 1_545
Mg5 Mg9 3.098163 1_554
Mg6 Mg7 2.858721 1_565
Mg6 Mo1 3.040979 1_565
Mg6 Mo1 3.040979 1_465
Mg6 Mg7 3.110080 1_555
Mg6 Mg8 3.157485 1_555
Mg7 Mo1 3.040979 1_455
Mg7 Mo1 3.040979 1_555
Mg7 Mg8 3.157485 1_555
Mg8 Mg9 3.006222 1_555
Mg8 Mg9 3.006222 1_455
Mg9 Mo1 2.914941 1_555
Mg9 Mo0 3.354097 1_556
Mg10 Mg9 2.908764 1_565
Mg10 Mo1 2.914941 1_565
Mg10 Mg8 3.006222 1_655
Mg10 Mg8 3.006222 1_555
Mg10 Mg9 3.060037 1_555
Mg10 Mg5 3.098163 1_566
Mg10 Mg11 3.169206 1_555
Mg10 Mo0 3.354097 1_556
Mg11 Mg8 2.942443 1_555
Mg11 Mg8 2.942443 1_655
Mg11 Mo1 2.994788 1_565
Mg11 Mo1 2.994788 1_555
Mg11 Mg7 3.009756 1_555
Mg11 Mg6 3.009756 1_655
Mg11 Mg7 3.009756 1_655
Mg11 Mg6 3.009756 1_555
Mg11 Mg3 3.098163 1_555
Mg11 Mg4 3.098163 1_555
Mg11 Mg9 3.169206 1_555
Cr0 Mo0 2.669084 1_555
Cr0 Mo0 2.669084 1_455
Cr0 Mg1 2.862281 1_555
Cr0 Mg0 2.862281 1_555
Cr0 Mg2 2.996425 1_565
Cr0 Mg2 2.996425 1_555
Cr0 Mg3 3.072185 1_455
Cr0 Mg4 3.072185 1_455
Cr0 Mg3 3.072185 1_555
Cr0 Mg4 3.072185 1_555
Cr0 Mg6 3.406765 1_555
Cr0 Mg7 3.406765 1_555
Cr1 Mo1 2.669084 1_555
Cr1 Mo1 2.669084 1_455
Cr1 Mg6 2.862281 1_545
Cr1 Mg7 2.862281 1_555
Cr1 Mg8 2.996425 1_555
Cr1 Mg8 2.996425 1_545
Cr1 Mg10 3.072185 1_545
Cr1 Mg10 3.072185 1_445
Cr1 Mg9 3.072185 1_455
Cr1 Mg9 3.072185 1_555
Cr1 Mg1 3.406765 1_546
Cr1 Mg0 3.406765 1_556
