# generated using pymatgen
data_Li6NbV3(PO4)6
_symmetry_space_group_name_H-M   'P 1'
_cell_length_a   8.69714300
_cell_length_b   8.70628954
_cell_length_c   8.70798745
_cell_angle_alpha   61.91633994
_cell_angle_beta   61.82705380
_cell_angle_gamma   61.69042657
_symmetry_Int_Tables_number   1
_chemical_formula_structural   Li6NbV3(PO4)6
_chemical_formula_sum   'Li6 Nb1 V3 P6 O24'
_cell_volume   485.15455313
_cell_formula_units_Z   1
loop_
 _symmetry_equiv_pos_site_id
 _symmetry_equiv_pos_as_xyz
  1  'x, y, z'
loop_
 _atom_site_type_symbol
 _atom_site_label
 _atom_site_symmetry_multiplicity
 _atom_site_fract_x
 _atom_site_fract_y
 _atom_site_fract_z
 _atom_site_occupancy
  Li  Li0  1  0.97116400  0.99995400  0.99154900  1
  Li  Li1  1  0.25513800  0.64582400  0.84666600  1
  Li  Li2  1  0.52558500  0.50160500  0.49539600  1
  Li  Li3  1  0.70458900  0.34729300  0.16046800  1
  Li  Li4  1  0.34664900  0.16445800  0.70271000  1
  Li  Li5  1  0.16276600  0.70486700  0.34736200  1
  Nb  Nb0  1  0.14657800  0.14903100  0.14914400  1
  V  V0  1  0.85819900  0.86010700  0.85298800  1
  V  V1  1  0.64197500  0.64628500  0.63873100  1
  V  V2  1  0.35408800  0.35238800  0.35160500  1
  P  P0  1  0.94543100  0.56263500  0.25209700  1
  P  P1  1  0.55857700  0.25245200  0.94430100  1
  P  P2  1  0.25127900  0.94908200  0.55818100  1
  P  P3  1  0.75080100  0.04119200  0.46100200  1
  P  P4  1  0.45981600  0.74914800  0.03599100  1
  P  P5  1  0.04273200  0.46699200  0.75109900  1
  O  O0  1  0.87065600  0.50530000  0.71596800  1
  O  O1  1  0.70055100  0.88274700  0.48832500  1
  O  O2  1  0.93325600  0.74140000  0.08592600  1
  O  O3  1  0.46876900  0.70393900  0.87922400  1
  O  O4  1  0.75956300  0.56944900  0.41042200  1
  O  O5  1  0.99193900  0.39528500  0.19379200  1
  O  O6  1  0.74271600  0.09498900  0.91404300  1
  O  O7  1  0.54623300  0.41982400  0.76638200  1
  O  O8  1  0.40430800  0.75714900  0.57047800  1
  O  O9  1  0.82272100  0.99909400  0.60968800  1
  O  O10  1  0.90335300  0.07811100  0.26368800  1
  O  O11  1  0.62160300  0.80564400  0.98589300  1
  O  O12  1  0.39205700  0.19086900  0.99561900  1
  O  O13  1  0.09812400  0.91917400  0.74804300  1
  O  O14  1  0.18950300  0.99374400  0.39575500  1
  O  O15  1  0.58943500  0.22847700  0.44826600  1
  O  O16  1  0.44846800  0.58729400  0.22053000  1
  O  O17  1  0.26818900  0.90630100  0.07584600  1
  O  O18  1  0.02575300  0.61561400  0.81276500  1
  O  O19  1  0.22407100  0.44860500  0.58570300  1
  O  O20  1  0.53819800  0.30310400  0.10019700  1
  O  O21  1  0.07606700  0.27179300  0.90443400  1
  O  O22  1  0.30798600  0.10174100  0.53334300  1
  O  O23  1  0.10111400  0.53604000  0.30737800  1
loop_
_geom_bond_atom_site_label_1
_geom_bond_atom_site_label_2
_geom_bond_distance
_geom_bond_site_symmetry_2
Li0 O6 2.066135 1_565
Li0 O2 2.134847 1_556
Li0 O13 2.160277 1_655
Li0 O10 2.498920 1_566
Li0 O21 2.590997 1_665
Li0 O17 2.665750 1_656
Li1 O13 2.089680 1_555
Li1 O8 2.111487 1_555
Li1 O18 2.294173 1_555
Li1 O3 2.304901 1_555
Li1 O7 2.380943 1_555
Li1 O2 2.604910 1_456
Li2 O4 2.084248 1_555
Li2 O7 2.191930 1_555
Li2 O8 2.232159 1_555
Li2 O15 2.362744 1_555
Li2 O16 2.468895 1_555
Li2 O19 2.562544 1_555
Li3 O20 1.988211 1_555
Li3 O15 2.127337 1_555
Li3 O10 2.220351 1_555
Li3 O16 2.261796 1_555
Li4 O22 1.996759 1_555
Li4 O19 2.108490 1_555
Li4 O21 2.247938 1_555
Li4 O15 2.283486 1_555
Li5 O23 1.993707 1_555
Li5 O16 2.121891 1_555
Li5 O17 2.254013 1_555
Li5 O19 2.264179 1_555
Nb0 O12 2.015440 1_554
Nb0 O5 2.027983 1_455
Nb0 O14 2.030678 1_545
Nb0 O17 2.122392 1_545
Nb0 O10 2.125441 1_455
Nb0 O21 2.127725 1_554
O0 P5 1.519006 1_655
O0 V1 2.021139 1_555
O1 P3 1.521557 1_565
O1 V1 2.009785 1_555
O2 P0 1.547693 1_555
O2 V0 2.060436 1_554
O3 P4 1.549518 1_556
O3 V1 2.049525 1_555
O4 P0 1.548878 1_555
O4 V1 2.032089 1_555
O5 P0 1.577285 1_555
O6 P1 1.540410 1_555
O6 V0 2.011124 1_545
O7 P1 1.555110 1_555
O7 V1 2.106178 1_555
O8 P2 1.559434 1_555
O8 V1 2.070048 1_555
O9 P3 1.517388 1_565
O9 V0 1.974217 1_555
O10 P3 1.596168 1_555
O11 P4 1.512255 1_556
O11 V0 1.989582 1_555
O12 P1 1.576186 1_555
O13 P2 1.555521 1_555
O13 V0 2.056312 1_455
O14 P2 1.562692 1_555
O15 P3 1.564251 1_555
O15 V2 2.177026 1_555
O16 P4 1.558170 1_555
O16 V2 2.160777 1_555
O17 P4 1.583723 1_555
O18 P5 1.543551 1_555
O18 V0 2.013755 1_455
O19 P5 1.555653 1_555
O19 V2 2.160711 1_555
O20 P1 1.526802 1_554
O20 V2 2.112709 1_555
O21 P5 1.586447 1_555
O22 P2 1.518828 1_545
O22 V2 2.099163 1_555
O23 P0 1.527032 1_455
O23 V2 2.104587 1_555
