# generated using pymatgen
data_CeMgZr7O16
_symmetry_space_group_name_H-M   'P 1'
_cell_length_a   5.46811508
_cell_length_b   7.48680076
_cell_length_c   7.48679865
_cell_angle_alpha   90.00000000
_cell_angle_beta   90.00000000
_cell_angle_gamma   90.00000000
_symmetry_Int_Tables_number   1
_chemical_formula_structural   CeMgZr7O16
_chemical_formula_sum   'Ce1 Mg1 Zr7 O16'
_cell_volume   306.49971507
_cell_formula_units_Z   1
loop_
 _symmetry_equiv_pos_site_id
 _symmetry_equiv_pos_as_xyz
  1  'x, y, z'
loop_
 _atom_site_type_symbol
 _atom_site_label
 _atom_site_symmetry_multiplicity
 _atom_site_fract_x
 _atom_site_fract_y
 _atom_site_fract_z
 _atom_site_occupancy
  Ce  Ce0  1  0.00000000  0.00000000  0.00000000  1
  Mg  Mg0  1  0.50000000  0.00000000  0.00000000  1
  Zr  Zr0  1  0.50000000  0.26880712  0.26880712  1
  Zr  Zr1  1  0.01192044  0.00000000  0.50000000  1
  Zr  Zr2  1  0.50000000  0.26880712  0.73119288  1
  Zr  Zr3  1  0.98807956  0.50000000  0.00000000  1
  Zr  Zr4  1  0.50000000  0.73119288  0.26880712  1
  Zr  Zr5  1  0.00000000  0.50000000  0.50000000  1
  Zr  Zr6  1  0.50000000  0.73119288  0.73119288  1
  O  O0  1  0.20153336  0.28053082  0.00000000  1
  O  O1  1  0.33364611  0.00000000  0.22812333  1
  O  O2  1  0.79846664  0.00000000  0.28053082  1
  O  O3  1  0.66635389  0.22812333  0.00000000  1
  O  O4  1  0.22135170  0.23050578  0.50000000  1
  O  O5  1  0.33364611  0.00000000  0.77187667  1
  O  O6  1  0.79846664  0.00000000  0.71946918  1
  O  O7  1  0.71436953  0.29162578  0.50000000  1
  O  O8  1  0.20153336  0.71946918  0.00000000  1
  O  O9  1  0.28563047  0.50000000  0.29162578  1
  O  O10  1  0.77864830  0.50000000  0.23050578  1
  O  O11  1  0.66635389  0.77187667  0.00000000  1
  O  O12  1  0.22135170  0.76949422  0.50000000  1
  O  O13  1  0.28563047  0.50000000  0.70837422  1
  O  O14  1  0.77864830  0.50000000  0.76949422  1
  O  O15  1  0.71436953  0.70837422  0.50000000  1
loop_
_geom_bond_atom_site_label_1
_geom_bond_atom_site_label_2
_geom_bond_distance
_geom_bond_site_symmetry_2
Ce0 O6 2.371832 1_454
Ce0 O2 2.371832 1_455
Ce0 O8 2.371833 1_545
Ce0 O0 2.371833 1_555
Ce0 O5 2.499092 1_554
Ce0 O1 2.499092 1_555
Ce0 O11 2.499092 1_445
Ce0 O3 2.499092 1_455
Mg0 O5 1.935050 1_554
Mg0 O1 1.935050 1_555
Mg0 O11 1.935050 1_545
Mg0 O3 1.935050 1_555
Mg0 O6 2.659841 1_554
Mg0 O2 2.659841 1_555
Mg0 O8 2.659841 1_545
Mg0 O0 2.659841 1_555
O0 Zr3 2.015486 1_455
O0 Zr2 2.592579 1_554
O0 Zr0 2.592579 1_555
O1 Zr4 2.229440 1_545
O1 Zr0 2.229440 1_555
O1 Zr1 2.690372 1_555
O2 Zr1 2.015485 1_655
O2 Zr0 2.592580 1_555
O2 Zr4 2.592580 1_545
O3 Zr2 2.229439 1_554
O3 Zr0 2.229439 1_555
O3 Zr3 2.690373 1_555
O4 Zr1 2.071156 1_555
O4 Zr0 2.323753 1_555
O4 Zr2 2.323753 1_555
O4 Zr5 2.352854 1_555
O5 Zr6 2.229440 1_545
O5 Zr2 2.229440 1_555
O5 Zr1 2.690372 1_555
O6 Zr1 2.015485 1_655
O6 Zr2 2.592580 1_555
O6 Zr6 2.592580 1_545
O7 Zr0 2.097434 1_555
O7 Zr2 2.097434 1_555
O7 Zr5 2.207529 1_655
O8 Zr3 2.015486 1_455
O8 Zr6 2.592579 1_554
O8 Zr4 2.592579 1_555
O9 Zr0 2.097434 1_555
O9 Zr4 2.097434 1_555
O9 Zr5 2.207528 1_555
O10 Zr3 2.071155 1_555
O10 Zr0 2.323753 1_555
O10 Zr4 2.323753 1_555
O10 Zr5 2.352853 1_655
O11 Zr6 2.229439 1_554
O11 Zr4 2.229439 1_555
O11 Zr3 2.690373 1_555
O12 Zr1 2.071156 1_565
O12 Zr4 2.323753 1_555
O12 Zr6 2.323753 1_555
O12 Zr5 2.352854 1_555
O13 Zr2 2.097434 1_555
O13 Zr6 2.097434 1_555
O13 Zr5 2.207528 1_555
O14 Zr3 2.071155 1_556
O14 Zr2 2.323753 1_555
O14 Zr6 2.323753 1_555
O14 Zr5 2.352853 1_655
O15 Zr4 2.097434 1_555
O15 Zr6 2.097434 1_555
O15 Zr5 2.207529 1_655
