# generated using pymatgen
data_Li2TiCr3O8
_symmetry_space_group_name_H-M   'P 1'
_cell_length_a   5.91510677
_cell_length_b   5.91510681
_cell_length_c   5.91510744
_cell_angle_alpha   60.58745583
_cell_angle_beta   60.58746460
_cell_angle_gamma   60.58746633
_symmetry_Int_Tables_number   1
_chemical_formula_structural   Li2TiCr3O8
_chemical_formula_sum   'Li2 Ti1 Cr3 O8'
_cell_volume   148.28511747
_cell_formula_units_Z   1
loop_
 _symmetry_equiv_pos_site_id
 _symmetry_equiv_pos_as_xyz
  1  'x, y, z'
loop_
 _atom_site_type_symbol
 _atom_site_label
 _atom_site_symmetry_multiplicity
 _atom_site_fract_x
 _atom_site_fract_y
 _atom_site_fract_z
 _atom_site_occupancy
  Li  Li0  1  0.12544600  0.12544600  0.12544600  1
  Li  Li1  1  0.87455400  0.87455400  0.87455400  1
  Ti  Ti0  1  0.50000000  0.50000000  0.50000000  1
  Cr  Cr0  1  0.00000000  0.50000000  0.50000000  1
  Cr  Cr1  1  0.50000000  0.00000000  0.50000000  1
  Cr  Cr2  1  0.50000000  0.50000000  0.00000000  1
  O  O0  1  0.26285800  0.26285800  0.26285800  1
  O  O1  1  0.26409800  0.26409800  0.71204800  1
  O  O2  1  0.26409800  0.71204800  0.26409800  1
  O  O3  1  0.71204800  0.26409800  0.26409800  1
  O  O4  1  0.28795200  0.73590200  0.73590200  1
  O  O5  1  0.73590200  0.28795200  0.73590200  1
  O  O6  1  0.73590200  0.73590200  0.28795200  1
  O  O7  1  0.73714200  0.73714200  0.73714300  1
loop_
_geom_bond_atom_site_label_1
_geom_bond_atom_site_label_2
_geom_bond_distance
_geom_bond_site_symmetry_2
Li0 O0 1.982076 1_555
Li0 O2 2.011428 1_545
Li0 O3 2.011428 1_455
Li0 O1 2.011428 1_554
Li1 O7 1.982072 1_555
Li1 O5 2.011428 1_565
Li1 O4 2.011428 1_655
Li1 O6 2.011428 1_556
Cr0 O0 2.000259 1_555
Cr0 O7 2.000263 1_455
Cr0 O5 2.006282 1_455
Cr0 O2 2.006282 1_555
Cr0 O1 2.006283 1_555
Cr0 O6 2.006283 1_455
Cr1 O0 2.000258 1_555
Cr1 O7 2.000262 1_545
Cr1 O4 2.006282 1_545
Cr1 O3 2.006282 1_555
Cr1 O1 2.006283 1_555
Cr1 O6 2.006283 1_545
Cr2 O7 2.000258 1_554
Cr2 O0 2.000258 1_555
Cr2 O3 2.006283 1_555
Cr2 O4 2.006283 1_554
Cr2 O2 2.006283 1_555
Cr2 O5 2.006283 1_554
O1 Ti0 1.985391 1_555
O2 Ti0 1.985391 1_555
O3 Ti0 1.985391 1_555
O4 Ti0 1.985391 1_555
O5 Ti0 1.985391 1_555
O6 Ti0 1.985391 1_555
