# generated using pymatgen
data_Cu2PC2SO13
_symmetry_space_group_name_H-M   'P 1'
_cell_length_a   6.87501000
_cell_length_b   13.20232600
_cell_length_c   16.50724537
_cell_angle_alpha   56.42527072
_cell_angle_beta   90.00000000
_cell_angle_gamma   90.00000000
_symmetry_Int_Tables_number   1
_chemical_formula_structural   Cu2PC2SO13
_chemical_formula_sum   'Cu8 P4 C8 S4 O52'
_cell_volume   1248.33036487
_cell_formula_units_Z   4
loop_
 _symmetry_equiv_pos_site_id
 _symmetry_equiv_pos_as_xyz
  1  'x, y, z'
loop_
 _atom_site_type_symbol
 _atom_site_label
 _atom_site_symmetry_multiplicity
 _atom_site_fract_x
 _atom_site_fract_y
 _atom_site_fract_z
 _atom_site_occupancy
  Cu  Cu0  1  0.94887200  0.99701100  0.25250800  1
  Cu  Cu1  1  0.55112800  0.99701100  0.75250800  1
  Cu  Cu2  1  0.05112800  0.00298900  0.74749200  1
  Cu  Cu3  1  0.44887200  0.00298900  0.24749200  1
  Cu  Cu4  1  0.30303700  0.19560500  0.74683100  1
  Cu  Cu5  1  0.19696300  0.19560500  0.24683100  1
  Cu  Cu6  1  0.69696300  0.80439500  0.25316900  1
  Cu  Cu7  1  0.80303700  0.80439500  0.75316900  1
  P  P0  1  0.70159600  0.04953700  0.08838200  1
  P  P1  1  0.79840400  0.04953700  0.58838200  1
  P  P2  1  0.29840400  0.95046300  0.91161800  1
  P  P3  1  0.20159600  0.95046300  0.41161800  1
  C  C0  1  0.72842200  0.13701300  0.96284200  1
  C  C1  1  0.77157800  0.13701300  0.46284200  1
  C  C2  1  0.27157800  0.86298700  0.03715800  1
  C  C3  1  0.22842200  0.86298700  0.53715800  1
  C  C4  1  0.76682900  0.18809500  0.87649100  1
  C  C5  1  0.73317100  0.18809500  0.37649100  1
  C  C6  1  0.23317100  0.81190500  0.12350900  1
  C  C7  1  0.26682900  0.81190500  0.62350900  1
  S  S0  1  0.79933700  0.25150700  0.75390700  1
  S  S1  1  0.70066300  0.25150700  0.25390700  1
  S  S2  1  0.20066300  0.74849300  0.24609300  1
  S  S3  1  0.29933700  0.74849300  0.74609300  1
  O  O0  1  0.51201300  0.08926100  0.11465900  1
  O  O1  1  0.98798700  0.08926100  0.61465900  1
  O  O2  1  0.48798700  0.91073900  0.88534100  1
  O  O3  1  0.01201300  0.91073900  0.38534100  1
  O  O4  1  0.69368000  0.91599800  0.11757300  1
  O  O5  1  0.80632000  0.91599800  0.61757300  1
  O  O6  1  0.30632000  0.08400200  0.88242700  1
  O  O7  1  0.19368000  0.08400200  0.38242700  1
  O  O8  1  0.89058100  0.08233300  0.12109100  1
  O  O9  1  0.60941900  0.08233300  0.62109100  1
  O  O10  1  0.10941900  0.91766700  0.87890900  1
  O  O11  1  0.39058100  0.91766700  0.37890900  1
  O  O12  1  0.97516800  0.19267600  0.74786500  1
  O  O13  1  0.52483200  0.19267600  0.24786500  1
  O  O14  1  0.02483200  0.80732400  0.25213500  1
  O  O15  1  0.47516800  0.80732400  0.75213500  1
  O  O16  1  0.81283800  0.38106800  0.70818300  1
  O  O17  1  0.68716200  0.38106800  0.20818300  1
  O  O18  1  0.18716200  0.61893200  0.29181700  1
  O  O19  1  0.31283800  0.61893200  0.79181700  1
  O  O20  1  0.62801500  0.20897500  0.72733000  1
  O  O21  1  0.87198500  0.20897500  0.22733000  1
  O  O22  1  0.37198500  0.79102500  0.27267000  1
  O  O23  1  0.12801500  0.79102500  0.77267000  1
  O  O24  1  0.19724800  0.07717300  0.21740600  1
  O  O25  1  0.30275200  0.07717300  0.71740600  1
  O  O26  1  0.80275200  0.92282700  0.78259400  1
  O  O27  1  0.69724800  0.92282700  0.28259400  1
  O  O28  1  0.28710700  0.36474300  0.63311300  1
  O  O29  1  0.21289300  0.36474300  0.13311300  1
  O  O30  1  0.71289300  0.63525700  0.36688700  1
  O  O31  1  0.78710700  0.63525700  0.86688700  1
  O  O32  1  0.28924800  0.36115000  0.71215300  1
  O  O33  1  0.21075200  0.36115000  0.21215300  1
  O  O34  1  0.71075200  0.63885000  0.28784700  1
  O  O35  1  0.78924800  0.63885000  0.78784700  1
  O  O36  1  0.96668300  0.43385100  0.87031400  1
  O  O37  1  0.53331700  0.43385100  0.37031400  1
  O  O38  1  0.03331700  0.56614900  0.12968600  1
  O  O39  1  0.46668300  0.56614900  0.62968600  1
  O  O40  1  0.38298000  0.36709600  0.98575100  1
  O  O41  1  0.11702000  0.36709600  0.48575100  1
  O  O42  1  0.61702000  0.63290400  0.01424900  1
  O  O43  1  0.88298000  0.63290400  0.51424900  1
  O  O44  1  0.93512800  0.41171100  0.95154000  1
  O  O45  1  0.56487200  0.41171100  0.45154000  1
  O  O46  1  0.06487200  0.58828900  0.04846000  1
  O  O47  1  0.43512800  0.58828900  0.54846000  1
  O  O48  1  0.65151900  0.67499600  0.06299500  1
  O  O49  1  0.84848100  0.67499600  0.56299500  1
  O  O50  1  0.34848100  0.32500400  0.93700500  1
  O  O51  1  0.15151900  0.32500400  0.43700500  1
loop_
_geom_bond_atom_site_label_1
_geom_bond_atom_site_label_2
_geom_bond_distance
_geom_bond_site_symmetry_2
Cu0 O8 1.852756 1_565
Cu0 O3 1.879196 1_655
Cu0 O27 1.913243 1_555
Cu0 O24 1.921819 1_665
Cu0 O14 2.561519 1_655
Cu1 O9 1.852756 1_565
Cu1 O2 1.879196 1_555
Cu1 O26 1.913243 1_555
Cu1 O25 1.921819 1_565
Cu1 O15 2.561519 1_555
Cu2 O10 1.852756 1_545
Cu2 O1 1.879196 1_455
Cu2 O25 1.913243 1_555
Cu2 O26 1.921819 1_445
Cu2 O12 2.561519 1_455
Cu3 O11 1.852756 1_545
Cu3 O0 1.879196 1_555
Cu3 O24 1.913243 1_555
Cu3 O27 1.921819 1_545
Cu3 O13 2.561519 1_555
Cu4 O25 1.876358 1_555
Cu4 O6 1.879843 1_555
Cu4 O32 1.931228 1_555
Cu4 O28 1.971254 1_555
Cu4 O20 2.250268 1_555
Cu4 O12 2.254337 1_455
Cu5 O24 1.876358 1_555
Cu5 O7 1.879843 1_555
Cu5 O33 1.931228 1_555
Cu5 O29 1.971254 1_555
Cu5 O21 2.250268 1_455
Cu5 O13 2.254337 1_555
Cu6 O27 1.876358 1_555
Cu6 O4 1.879843 1_555
Cu6 O34 1.931228 1_555
Cu6 O30 1.971254 1_555
Cu6 O22 2.250268 1_555
Cu6 O14 2.254337 1_655
Cu7 O26 1.876358 1_555
Cu7 O5 1.879843 1_555
Cu7 O35 1.931228 1_555
Cu7 O31 1.971254 1_555
Cu7 O23 2.250268 1_655
Cu7 O15 2.254337 1_555
C0 C4 1.221927 1_555
C0 P0 1.736429 1_556
C1 C5 1.221927 1_555
C1 P1 1.736429 1_555
C2 C6 1.221927 1_555
C2 P2 1.736429 1_554
C3 C7 1.221927 1_555
C3 P3 1.736429 1_555
C4 S0 1.723880 1_555
C5 S1 1.723880 1_555
C6 S2 1.723880 1_555
C7 S3 1.723880 1_555
O0 P0 1.553582 1_555
O1 P1 1.553582 1_555
O2 P2 1.553582 1_555
O3 P3 1.553582 1_555
O4 P0 1.550414 1_565
O5 P1 1.550414 1_565
O6 P2 1.550414 1_545
O7 P3 1.550414 1_545
O8 P0 1.557464 1_555
O9 P1 1.557464 1_555
O10 P2 1.557464 1_555
O11 P3 1.557464 1_555
O12 S0 1.469760 1_555
O13 S1 1.469760 1_555
O14 S2 1.469760 1_555
O15 S3 1.469760 1_555
O16 S0 1.440893 1_555
O17 S1 1.440893 1_555
O18 S2 1.440893 1_555
O19 S3 1.440893 1_555
O20 S0 1.472262 1_555
O21 S1 1.472262 1_555
O22 S2 1.472262 1_555
O23 S3 1.472262 1_555
O28 O32 1.279195 1_555
O29 O33 1.279195 1_555
O30 O34 1.279195 1_555
O31 O35 1.279195 1_555
O36 O44 1.223442 1_555
O37 O45 1.223442 1_555
O38 O46 1.223442 1_555
O39 O47 1.223442 1_555
O40 O50 1.227654 1_555
O41 O51 1.227654 1_555
O42 O48 1.227654 1_555
O43 O49 1.227654 1_555
