# generated using pymatgen
data_Li2Fe2(WO4)3
_symmetry_space_group_name_H-M   'P 1'
_cell_length_a   9.53034800
_cell_length_b   9.75367500
_cell_length_c   13.21532200
_cell_angle_alpha   90.00000000
_cell_angle_beta   90.00000000
_cell_angle_gamma   90.00000000
_symmetry_Int_Tables_number   1
_chemical_formula_structural   Li2Fe2(WO4)3
_chemical_formula_sum   'Li8 Fe8 W12 O48'
_cell_volume   1228.44237534
_cell_formula_units_Z   4
loop_
 _symmetry_equiv_pos_site_id
 _symmetry_equiv_pos_as_xyz
  1  'x, y, z'
loop_
 _atom_site_type_symbol
 _atom_site_label
 _atom_site_symmetry_multiplicity
 _atom_site_fract_x
 _atom_site_fract_y
 _atom_site_fract_z
 _atom_site_occupancy
  Li  Li0  1  0.26927200  0.77694000  0.81101900  1
  Li  Li1  1  0.73072800  0.22306000  0.18898100  1
  Li  Li2  1  0.76927200  0.72306000  0.68898100  1
  Li  Li3  1  0.23072800  0.77694000  0.18898100  1
  Li  Li4  1  0.23072800  0.27694000  0.31101900  1
  Li  Li5  1  0.76927200  0.22306000  0.81101900  1
  Li  Li6  1  0.73072800  0.72306000  0.31101900  1
  Li  Li7  1  0.26927200  0.27694000  0.68898100  1
  Fe  Fe0  1  0.46578300  0.75407200  0.62244600  1
  Fe  Fe1  1  0.53421700  0.24592800  0.37755400  1
  Fe  Fe2  1  0.96578300  0.74592800  0.87755400  1
  Fe  Fe3  1  0.03421700  0.75407200  0.37755400  1
  Fe  Fe4  1  0.03421700  0.25407200  0.12244600  1
  Fe  Fe5  1  0.96578300  0.24592800  0.62244600  1
  Fe  Fe6  1  0.53421700  0.74592800  0.12244600  1
  Fe  Fe7  1  0.46578300  0.25407200  0.87755400  1
  W  W0  1  0.10500300  0.59773600  0.64232500  1
  W  W1  1  0.89499700  0.40226400  0.35767500  1
  W  W2  1  0.60500300  0.90226400  0.85767500  1
  W  W3  1  0.39499700  0.59773600  0.35767500  1
  W  W4  1  0.39499700  0.09773600  0.14232500  1
  W  W5  1  0.60500300  0.40226400  0.64232500  1
  W  W6  1  0.89499700  0.90226400  0.14232500  1
  W  W7  1  0.10500300  0.09773600  0.85767500  1
  W  W8  1  0.25000000  0.03788800  0.50000000  1
  W  W9  1  0.75000000  0.96211200  0.50000000  1
  W  W10  1  0.75000000  0.46211200  0.00000000  1
  W  W11  1  0.25000000  0.53788800  0.00000000  1
  O  O0  1  0.07037600  0.64055300  0.51271300  1
  O  O1  1  0.92962400  0.35944700  0.48728700  1
  O  O2  1  0.57037600  0.85944700  0.98728700  1
  O  O3  1  0.42962400  0.64055300  0.48728700  1
  O  O4  1  0.42962400  0.14055300  0.01271300  1
  O  O5  1  0.57037600  0.35944700  0.51271300  1
  O  O6  1  0.92962400  0.85944700  0.01271300  1
  O  O7  1  0.07037600  0.14055300  0.98728700  1
  O  O8  1  0.11109700  0.91206800  0.83782800  1
  O  O9  1  0.88890300  0.08793200  0.16217200  1
  O  O10  1  0.61109700  0.58793200  0.66217200  1
  O  O11  1  0.38890300  0.91206800  0.16217200  1
  O  O12  1  0.38890300  0.41206800  0.33782800  1
  O  O13  1  0.61109700  0.08793200  0.83782800  1
  O  O14  1  0.88890300  0.58793200  0.33782800  1
  O  O15  1  0.11109700  0.41206800  0.66217200  1
  O  O16  1  0.46548100  0.82854700  0.78053800  1
  O  O17  1  0.53451900  0.17145300  0.21946200  1
  O  O18  1  0.96548100  0.67145300  0.71946200  1
  O  O19  1  0.03451900  0.82854700  0.21946200  1
  O  O20  1  0.03451900  0.32854700  0.28053800  1
  O  O21  1  0.96548100  0.17145300  0.78053800  1
  O  O22  1  0.53451900  0.67145300  0.28053800  1
  O  O23  1  0.46548100  0.32854700  0.71946200  1
  O  O24  1  0.37491200  0.93176900  0.56534800  1
  O  O25  1  0.62508800  0.06823100  0.43465200  1
  O  O26  1  0.87491200  0.56823100  0.93465200  1
  O  O27  1  0.12508800  0.93176900  0.43465200  1
  O  O28  1  0.12508800  0.43176900  0.06534800  1
  O  O29  1  0.87491200  0.06823100  0.56534800  1
  O  O30  1  0.62508800  0.56823100  0.06534800  1
  O  O31  1  0.37491200  0.43176900  0.93465200  1
  O  O32  1  0.16507600  0.64921100  0.90660800  1
  O  O33  1  0.83492400  0.35078900  0.09339200  1
  O  O34  1  0.66507600  0.85078900  0.59339200  1
  O  O35  1  0.33492400  0.64921100  0.09339200  1
  O  O36  1  0.33492400  0.14921100  0.40660800  1
  O  O37  1  0.66507600  0.35078900  0.90660800  1
  O  O38  1  0.83492400  0.85078900  0.40660800  1
  O  O39  1  0.16507600  0.14921100  0.59339200  1
  O  O40  1  0.27148200  0.67368500  0.68068800  1
  O  O41  1  0.72851800  0.32631500  0.31931200  1
  O  O42  1  0.77148200  0.82631500  0.81931200  1
  O  O43  1  0.22851800  0.67368500  0.31931200  1
  O  O44  1  0.22851800  0.17368500  0.18068800  1
  O  O45  1  0.77148200  0.32631500  0.68068800  1
  O  O46  1  0.72851800  0.82631500  0.18068800  1
  O  O47  1  0.27148200  0.17368500  0.81931200  1
loop_
_geom_bond_atom_site_label_1
_geom_bond_atom_site_label_2
_geom_bond_distance
_geom_bond_site_symmetry_2
Li0 O16 1.977955 1_555
Li0 O40 1.995312 1_555
Li0 O32 2.033213 1_555
Li0 O8 2.033488 1_555
Li1 O17 1.977955 1_555
Li1 O41 1.995312 1_555
Li1 O33 2.033213 1_555
Li1 O9 2.033488 1_555
Li2 O18 1.977955 1_555
Li2 O42 1.995312 1_555
Li2 O34 2.033213 1_555
Li2 O10 2.033488 1_555
Li3 O19 1.977955 1_555
Li3 O43 1.995312 1_555
Li3 O35 2.033213 1_555
Li3 O11 2.033488 1_555
Li4 O20 1.977955 1_555
Li4 O44 1.995312 1_555
Li4 O36 2.033213 1_555
Li4 O12 2.033488 1_555
Li5 O21 1.977955 1_555
Li5 O45 1.995312 1_555
Li5 O37 2.033213 1_555
Li5 O13 2.033488 1_555
Li6 O22 1.977955 1_555
Li6 O46 1.995312 1_555
Li6 O38 2.033213 1_555
Li6 O14 2.033488 1_555
Li7 O23 1.977955 1_555
Li7 O47 1.995312 1_555
Li7 O39 2.033213 1_555
Li7 O15 2.033488 1_555
Fe0 O24 2.079270 1_555
Fe0 O3 2.129580 1_555
Fe0 O40 2.153180 1_555
Fe0 O34 2.155177 1_555
Fe0 O10 2.195333 1_555
Fe0 O16 2.211918 1_555
Fe1 O25 2.079270 1_555
Fe1 O5 2.129580 1_555
Fe1 O41 2.153180 1_555
Fe1 O36 2.155177 1_555
Fe1 O12 2.195333 1_555
Fe1 O17 2.211918 1_555
Fe2 O26 2.079270 1_555
Fe2 O6 2.129580 1_556
Fe2 O42 2.153180 1_555
Fe2 O32 2.155177 1_655
Fe2 O8 2.195333 1_655
Fe2 O18 2.211918 1_555
Fe3 O27 2.079270 1_555
Fe3 O0 2.129580 1_555
Fe3 O43 2.153180 1_555
Fe3 O38 2.155177 1_455
Fe3 O14 2.195333 1_455
Fe3 O19 2.211918 1_555
Fe4 O28 2.079270 1_555
Fe4 O7 2.129580 1_554
Fe4 O44 2.153180 1_555
Fe4 O33 2.155177 1_455
Fe4 O9 2.195333 1_455
Fe4 O20 2.211918 1_555
Fe5 O29 2.079270 1_555
Fe5 O1 2.129580 1_555
Fe5 O45 2.153180 1_555
Fe5 O39 2.155177 1_655
Fe5 O15 2.195333 1_655
Fe5 O21 2.211918 1_555
Fe6 O30 2.079270 1_555
Fe6 O2 2.129580 1_554
Fe6 O46 2.153180 1_555
Fe6 O35 2.155177 1_555
Fe6 O11 2.195333 1_555
Fe6 O22 2.211918 1_555
Fe7 O31 2.079270 1_555
Fe7 O4 2.129580 1_556
Fe7 O47 2.153180 1_555
Fe7 O37 2.155177 1_555
Fe7 O13 2.195333 1_555
Fe7 O23 2.211918 1_555
O0 W0 1.793661 1_555
O1 W1 1.793661 1_555
O2 W2 1.793661 1_555
O3 W3 1.793661 1_555
O4 W4 1.793661 1_555
O5 W5 1.793661 1_555
O6 W6 1.793661 1_555
O7 W7 1.793661 1_555
O8 W7 1.830762 1_565
O9 W6 1.830762 1_545
O10 W5 1.830762 1_555
O11 W4 1.830762 1_565
O12 W3 1.830762 1_555
O13 W2 1.830762 1_545
O14 W1 1.830762 1_555
O15 W0 1.830762 1_555
O16 W2 1.823244 1_555
O17 W4 1.823244 1_555
O18 W0 1.823244 1_655
O19 W6 1.823244 1_455
O20 W1 1.823244 1_455
O21 W7 1.823244 1_655
O22 W3 1.823244 1_555
O23 W5 1.823244 1_555
O24 W8 1.798418 1_565
O25 W9 1.798418 1_545
O26 W10 1.798418 1_556
O27 W8 1.798418 1_565
O28 W11 1.798418 1_555
O29 W9 1.798418 1_545
O30 W10 1.798418 1_555
O31 W11 1.798418 1_556
O32 W11 1.832293 1_556
O33 W10 1.832293 1_555
O34 W9 1.832293 1_555
O35 W11 1.832293 1_555
O36 W8 1.832293 1_555
O37 W10 1.832293 1_556
O38 W9 1.832293 1_555
O39 W8 1.832293 1_555
O40 W0 1.822936 1_555
O41 W1 1.822936 1_555
O42 W2 1.822936 1_555
O43 W3 1.822936 1_555
O44 W4 1.822936 1_555
O45 W5 1.822936 1_555
O46 W6 1.822936 1_555
O47 W7 1.822936 1_555
