# generated using pymatgen
data_Y14Mg(ReO14)2
_symmetry_space_group_name_H-M   'P 1'
_cell_length_a   7.61252612
_cell_length_b   15.18404859
_cell_length_c   13.13307238
_cell_angle_alpha   30.31187714
_cell_angle_beta   54.55717550
_cell_angle_gamma   59.90302677
_symmetry_Int_Tables_number   1
_chemical_formula_structural   Y14Mg(ReO14)2
_chemical_formula_sum   'Y14 Mg1 Re2 O28'
_cell_volume   624.18826628
_cell_formula_units_Z   1
loop_
 _symmetry_equiv_pos_site_id
 _symmetry_equiv_pos_as_xyz
  1  'x, y, z'
loop_
 _atom_site_type_symbol
 _atom_site_label
 _atom_site_symmetry_multiplicity
 _atom_site_fract_x
 _atom_site_fract_y
 _atom_site_fract_z
 _atom_site_occupancy
  Y  Y0  1  0.00929600  0.99602800  0.99468500  1
  Y  Y1  1  0.96006800  0.49583700  0.04447100  1
  Y  Y2  1  0.50042600  0.99084900  0.00873200  1
  Y  Y3  1  0.51394800  0.24320400  0.98557100  1
  Y  Y4  1  0.50292500  0.49888400  0.99832900  1
  Y  Y5  1  0.49316300  0.23341600  0.50201400  1
  Y  Y6  1  0.02867000  0.24371700  0.98466500  1
  Y  Y7  1  0.50263600  0.74835800  0.01551300  1
  Y  Y8  1  0.01069500  0.00461600  0.48367300  1
  Y  Y9  1  0.51831200  0.77371100  0.48923500  1
  Y  Y10  1  0.96922300  0.74761800  0.01679400  1
  Y  Y11  1  0.03585200  0.23384800  0.50193700  1
  Y  Y12  1  0.00620100  0.49821800  0.49589800  1
  Y  Y13  1  0.95564500  0.77327700  0.48934200  1
  Mg  Mg0  1  0.21936800  0.52427800  0.75612300  1
  Re  Re0  1  0.50535700  0.49249800  0.50214900  1
  Re  Re1  1  0.49775300  0.99946600  0.50272800  1
  O  O0  1  0.14982800  0.24906100  0.10080600  1
  O  O1  1  0.12936100  0.50768100  0.13309100  1
  O  O2  1  0.13791400  0.25461300  0.60769100  1
  O  O3  1  0.41817800  0.22956100  0.35229300  1
  O  O4  1  0.13769100  0.73365100  0.12889900  1
  O  O5  1  0.58936800  0.50768800  0.13312400  1
  O  O6  1  0.13294600  0.98859600  0.13832500  1
  O  O7  1  0.40952900  0.01075400  0.85412100  1
  O  O8  1  0.20208600  0.55309000  0.57618200  1
  O  O9  1  0.40169100  0.44617400  0.45241100  1
  O  O10  1  0.59134000  0.72101700  0.18756000  1
  O  O11  1  0.86707100  0.22639600  0.40684200  1
  O  O12  1  0.15501600  0.77909500  0.56550100  1
  O  O13  1  0.42127600  0.26477800  0.81406300  1
  O  O14  1  0.80199300  0.44659900  0.45167700  1
  O  O15  1  0.53853000  0.55408400  0.57489000  1
  O  O16  1  0.61300100  0.98855600  0.13835300  1
  O  O17  1  0.86094700  0.01059600  0.85417100  1
  O  O18  1  0.38328900  0.49722000  0.87215700  1
  O  O19  1  0.20058500  0.94855000  0.66621200  1
  O  O20  1  0.42564400  0.05018400  0.33391900  1
  O  O21  1  0.86724400  0.27955600  0.85295700  1
  O  O22  1  0.86865100  0.72737700  0.40365900  1
  O  O23  1  0.58207900  0.77120100  0.64675100  1
  O  O24  1  0.80518900  0.05076200  0.33321800  1
  O  O25  1  0.57240700  0.94967100  0.66472100  1
  O  O26  1  0.87734500  0.49700000  0.87239200  1
  O  O27  1  0.87133600  0.76700100  0.86215600  1
loop_
_geom_bond_atom_site_label_1
_geom_bond_atom_site_label_2
_geom_bond_distance
_geom_bond_site_symmetry_2
Mg0 O12 2.067580 1_555
Mg0 O15 2.075837 1_555
Mg0 O8 2.076327 1_555
Mg0 O18 2.158332 1_555
Mg0 O26 2.158904 1_455
Mg0 O0 2.238950 1_556
O0 Y3 2.258649 1_554
O0 Y6 2.259224 1_554
O0 Y8 2.392508 1_555
O0 Y1 2.774681 1_455
O1 Y10 2.278060 1_455
O1 Y1 2.319734 1_455
O1 Y4 2.329635 1_554
O1 Y11 2.335335 1_555
O2 Y11 2.210274 1_555
O2 Y5 2.211009 1_555
O2 Y12 2.335379 1_555
O2 Y0 2.415688 1_545
O3 Re1 1.955575 1_545
O3 Y4 2.257085 1_554
O3 Y5 2.393653 1_555
O3 Y11 2.394670 1_555
O4 Y10 2.288074 1_455
O4 Y7 2.288129 1_555
O4 Y12 2.292680 1_555
O4 Y0 2.429459 1_554
O5 Y7 2.278859 1_555
O5 Y1 2.322353 1_555
O5 Y4 2.330804 1_554
O5 Y5 2.336512 1_555
O6 Y13 2.224647 1_455
O6 Y6 2.232748 1_564
O6 Y2 2.279722 1_555
O6 Y0 2.458191 1_554
O7 Y5 2.229394 1_555
O7 Y2 2.247960 1_546
O7 Y7 2.280009 1_546
O7 Y0 2.487600 1_545
O8 Re0 1.983076 1_555
O8 Y13 2.367588 1_455
O8 Y6 2.661579 1_555
O8 Y12 2.935273 1_555
O9 Re0 1.868709 1_555
O9 Y5 2.445806 1_555
O9 Y12 2.532541 1_555
O9 Y7 2.744559 1_555
O10 Re0 1.981757 1_555
O10 Y2 2.282255 1_555
O10 Y10 2.363671 1_555
O10 Y7 2.366960 1_555
O11 Y1 2.295229 1_555
O11 Y8 2.296470 1_655
O11 Y11 2.339699 1_655
O11 Y5 2.339895 1_555
O12 Y8 2.308745 1_565
O12 Y13 2.315010 1_455
O12 Y9 2.315259 1_555
O13 Re0 1.966996 1_555
O13 Y2 2.261063 1_546
O13 Y6 2.451512 1_555
O13 Y3 2.452671 1_555
O14 Re0 1.872852 1_555
O14 Y11 2.440094 1_655
O14 Y12 2.534397 1_655
O14 Y10 2.731754 1_555
O15 Re0 1.977347 1_555
O15 Y9 2.370472 1_555
O15 Y3 2.676666 1_555
O15 Y12 2.945779 1_655
O16 Y9 2.224265 1_555
O16 Y3 2.231679 1_564
O16 Y2 2.278864 1_555
O16 Y0 2.458877 1_654
O17 Y11 2.229685 1_655
O17 Y2 2.248515 1_546
O17 Y10 2.280690 1_546
O17 Y0 2.488245 1_645
O18 Y4 2.328391 1_555
O18 Y9 2.419102 1_555
O18 Y3 2.456796 1_555
O18 Y1 2.651691 1_456
O19 Re1 1.892099 1_555
O19 Y10 2.310795 1_456
O19 Y11 2.558518 1_565
O19 Y8 2.796885 1_565
O20 Re1 1.961895 1_545
O20 Y3 2.286933 1_554
O20 Y9 2.489077 1_545
O20 Y8 2.638590 1_555
O21 Y6 2.228796 1_655
O21 Y3 2.228851 1_555
O21 Y12 2.240489 1_655
O21 Y0 2.645317 1_645
O22 Y13 2.207224 1_555
O22 Y9 2.208595 1_555
O22 Y12 2.282657 1_655
O22 Y0 2.552761 1_654
O23 Re1 1.964795 1_555
O23 Y4 2.255652 1_555
O23 Y13 2.349657 1_555
O23 Y9 2.350839 1_555
O24 Re1 1.957482 1_545
O24 Y6 2.289833 1_654
O24 Y13 2.497202 1_545
O24 Y8 2.634001 1_655
O25 Re1 1.901246 1_555
O25 Y7 2.307834 1_556
O25 Y5 2.546588 1_565
O25 Y8 2.765431 1_665
O26 Y4 2.322268 1_555
O26 Y13 2.419454 1_555
O26 Y6 2.455112 1_655
O26 Y1 2.659815 1_556
O27 Y1 2.281870 1_556
O27 Y10 2.295545 1_556
O27 Y7 2.295789 1_556
O27 Y8 2.368297 1_665
