# generated using pymatgen
data_Mg14ZrSi
_symmetry_space_group_name_H-M   'P 1'
_cell_length_a   6.35951726
_cell_length_b   6.15884463
_cell_length_c   10.20601658
_cell_angle_alpha   90.00000000
_cell_angle_beta   90.00000000
_cell_angle_gamma   118.96156043
_symmetry_Int_Tables_number   1
_chemical_formula_structural   Mg14ZrSi
_chemical_formula_sum   'Mg14 Zr1 Si1'
_cell_volume   349.75208055
_cell_formula_units_Z   1
loop_
 _symmetry_equiv_pos_site_id
 _symmetry_equiv_pos_as_xyz
  1  'x, y, z'
loop_
 _atom_site_type_symbol
 _atom_site_label
 _atom_site_symmetry_multiplicity
 _atom_site_fract_x
 _atom_site_fract_y
 _atom_site_fract_z
 _atom_site_occupancy
  Mg  Mg0  1  0.16653316  0.33326608  0.62500000  1
  Mg  Mg1  1  0.16498860  0.83249380  0.62500000  1
  Mg  Mg2  1  0.66467570  0.32978116  0.12500000  1
  Mg  Mg3  1  0.66521863  0.33388050  0.62500000  1
  Mg  Mg4  1  0.66467570  0.83489355  0.12500000  1
  Mg  Mg5  1  0.66521863  0.83133713  0.62500000  1
  Mg  Mg6  1  0.33255911  0.16460087  0.37198265  1
  Mg  Mg7  1  0.33255911  0.16460087  0.87801735  1
  Mg  Mg8  1  0.33255911  0.66795924  0.37198265  1
  Mg  Mg9  1  0.33255911  0.66795924  0.87801735  1
  Mg  Mg10  1  0.83685430  0.16842765  0.37657148  1
  Mg  Mg11  1  0.83685430  0.16842765  0.87342852  1
  Mg  Mg12  1  0.83858764  0.66929432  0.37000792  1
  Mg  Mg13  1  0.83858764  0.66929432  0.87999208  1
  Zr  Zr0  1  0.15950660  0.32975280  0.12500000  1
  Si  Si0  1  0.16806265  0.83403082  0.12500000  1
loop_
_geom_bond_atom_site_label_1
_geom_bond_atom_site_label_2
_geom_bond_distance
_geom_bond_site_symmetry_2
Mg0 Mg1 3.079434 1_545
Mg0 Mg1 3.079434 1_555
Mg0 Mg11 3.129479 1_455
Mg0 Mg10 3.129479 1_455
Mg0 Mg6 3.150291 1_555
Mg0 Mg7 3.150291 1_555
Mg0 Mg9 3.150297 1_555
Mg0 Mg8 3.150297 1_555
Mg0 Mg5 3.169568 1_555
Mg0 Mg3 3.169568 1_555
Mg0 Mg5 3.189952 1_445
Mg0 Mg3 3.189952 1_455
Mg1 Mg8 3.142705 1_555
Mg1 Mg9 3.142705 1_555
Mg1 Mg6 3.142710 1_565
Mg1 Mg7 3.142710 1_565
Mg1 Mg12 3.173521 1_455
Mg1 Mg13 3.173521 1_455
Mg1 Mg3 3.174852 1_455
Mg1 Mg5 3.174852 1_455
Mg1 Mg3 3.184677 1_565
Mg1 Mg5 3.184677 1_555
Mg2 Mg4 3.047936 1_545
Mg2 Mg4 3.110909 1_555
Mg2 Mg7 3.125540 1_554
Mg2 Mg6 3.125540 1_555
Mg2 Zr0 3.146970 1_655
Mg2 Si0 3.155650 1_545
Mg2 Si0 3.203874 1_655
Mg2 Zr0 3.212547 1_555
Mg3 Mg5 3.063758 1_555
Mg3 Mg5 3.095087 1_545
Mg3 Mg6 3.177227 1_555
Mg3 Mg7 3.177227 1_555
Mg4 Mg9 3.125540 1_554
Mg4 Mg8 3.125540 1_555
Mg4 Zr0 3.146970 1_665
Mg4 Si0 3.155650 1_555
Mg4 Si0 3.203874 1_655
Mg4 Zr0 3.212547 1_555
Mg5 Mg8 3.177228 1_555
Mg5 Mg9 3.177228 1_555
Mg6 Mg8 3.058739 1_545
Mg6 Si0 3.087188 1_545
Mg6 Mg8 3.100106 1_555
Mg6 Zr0 3.111881 1_555
Mg7 Mg9 3.058739 1_545
Mg7 Si0 3.087188 1_546
Mg7 Mg9 3.100106 1_555
Mg7 Zr0 3.111881 1_556
Mg8 Si0 3.087182 1_555
Mg8 Zr0 3.111887 1_555
Mg9 Si0 3.087182 1_556
Mg9 Zr0 3.111887 1_556
Mg10 Mg12 3.080166 1_555
Mg10 Mg12 3.080166 1_545
Mg10 Mg3 3.120179 1_555
Mg10 Mg5 3.120185 1_545
Mg10 Zr0 3.132956 1_655
Mg10 Mg2 3.135694 1_555
Mg10 Mg4 3.135700 1_545
Mg10 Mg8 3.164269 1_655
Mg10 Mg6 3.164270 1_655
Mg10 Mg8 3.196071 1_545
Mg10 Mg6 3.196071 1_555
Mg11 Mg13 3.080166 1_555
Mg11 Mg13 3.080166 1_545
Mg11 Mg3 3.120179 1_555
Mg11 Mg5 3.120185 1_545
Mg11 Zr0 3.132956 1_656
Mg11 Mg2 3.135694 1_556
Mg11 Mg4 3.135700 1_546
Mg11 Mg9 3.164269 1_655
Mg11 Mg7 3.164270 1_655
Mg11 Mg9 3.196071 1_545
Mg11 Mg7 3.196071 1_555
Mg12 Mg4 3.099776 1_555
Mg12 Mg2 3.099782 1_555
Mg12 Si0 3.100591 1_655
Mg12 Mg6 3.145474 1_665
Mg12 Mg8 3.145474 1_655
Mg12 Mg5 3.170170 1_555
Mg12 Mg3 3.170176 1_555
Mg12 Mg6 3.214187 1_555
Mg12 Mg8 3.214187 1_555
Mg13 Mg4 3.099776 1_556
Mg13 Mg2 3.099782 1_556
Mg13 Si0 3.100591 1_656
Mg13 Mg7 3.145474 1_665
Mg13 Mg9 3.145474 1_655
Mg13 Mg5 3.170170 1_555
Mg13 Mg3 3.170176 1_555
Mg13 Mg7 3.214187 1_555
Mg13 Mg9 3.214187 1_555
Si0 Zr0 3.079790 1_555
Si0 Zr0 3.079790 1_565
