# generated using pymatgen
data_Sb2XeClF11
_symmetry_space_group_name_H-M   'P 1'
_cell_length_a   7.56051600
_cell_length_b   17.79613000
_cell_length_c   18.33685500
_cell_angle_alpha   90.00000000
_cell_angle_beta   90.00000000
_cell_angle_gamma   90.00000000
_symmetry_Int_Tables_number   1
_chemical_formula_structural   Sb2XeClF11
_chemical_formula_sum   'Sb16 Xe8 Cl8 F88'
_cell_volume   2467.18580233
_cell_formula_units_Z   8
loop_
 _symmetry_equiv_pos_site_id
 _symmetry_equiv_pos_as_xyz
  1  'x, y, z'
loop_
 _atom_site_type_symbol
 _atom_site_label
 _atom_site_symmetry_multiplicity
 _atom_site_fract_x
 _atom_site_fract_y
 _atom_site_fract_z
 _atom_site_occupancy
  Sb  Sb0  1  0.14329500  0.41339400  0.83148300  1
  Sb  Sb1  1  0.85670500  0.91339400  0.16851700  1
  Sb  Sb2  1  0.64329500  0.91339400  0.66851700  1
  Sb  Sb3  1  0.35670500  0.41339400  0.33148300  1
  Sb  Sb4  1  0.55509500  0.38510100  0.70082200  1
  Sb  Sb5  1  0.44490500  0.88510100  0.29917800  1
  Sb  Sb6  1  0.05509500  0.88510100  0.79917800  1
  Sb  Sb7  1  0.94490500  0.38510100  0.20082200  1
  Sb  Sb8  1  0.44856600  0.15801100  0.53115700  1
  Sb  Sb9  1  0.55143400  0.65801100  0.46884300  1
  Sb  Sb10  1  0.94856600  0.65801100  0.96884300  1
  Sb  Sb11  1  0.05143400  0.15801100  0.03115700  1
  Sb  Sb12  1  0.86549100  0.13667500  0.40266700  1
  Sb  Sb13  1  0.13450900  0.63667500  0.59733300  1
  Sb  Sb14  1  0.36549100  0.63667500  0.09733300  1
  Sb  Sb15  1  0.63450900  0.13667500  0.90266700  1
  Xe  Xe0  1  0.65841200  0.39376100  0.97691700  1
  Xe  Xe1  1  0.34158800  0.89376100  0.02308300  1
  Xe  Xe2  1  0.15841200  0.89376100  0.52308300  1
  Xe  Xe3  1  0.84158800  0.39376100  0.47691700  1
  Xe  Xe4  1  0.34105300  0.15988200  0.25609500  1
  Xe  Xe5  1  0.65894700  0.65988200  0.74390500  1
  Xe  Xe6  1  0.84105300  0.65988200  0.24390500  1
  Xe  Xe7  1  0.15894700  0.15988200  0.75609500  1
  Cl  Cl0  1  0.39575800  0.38233800  0.04519600  1
  Cl  Cl1  1  0.60424200  0.88233800  0.95480400  1
  Cl  Cl2  1  0.89575800  0.88233800  0.45480400  1
  Cl  Cl3  1  0.10424200  0.38233800  0.54519600  1
  Cl  Cl4  1  0.60487100  0.15774100  0.18747600  1
  Cl  Cl5  1  0.39512900  0.65774100  0.81252400  1
  Cl  Cl6  1  0.10487100  0.65774100  0.31252400  1
  Cl  Cl7  1  0.89512900  0.15774100  0.68747600  1
  F  F0  1  0.27295600  0.48257400  0.88931400  1
  F  F1  1  0.72704400  0.98257400  0.11068600  1
  F  F2  1  0.77295600  0.98257400  0.61068600  1
  F  F3  1  0.22704400  0.48257400  0.38931400  1
  F  F4  1  0.02053800  0.49367500  0.78696300  1
  F  F5  1  0.97946200  0.99367500  0.21303700  1
  F  F6  1  0.52053800  0.99367500  0.71303700  1
  F  F7  1  0.47946200  0.49367500  0.28696300  1
  F  F8  1  0.04574000  0.34381300  0.76424700  1
  F  F9  1  0.95426000  0.84381300  0.23575300  1
  F  F10  1  0.54574000  0.84381300  0.73575300  1
  F  F11  1  0.45426000  0.34381300  0.26424700  1
  F  F12  1  0.33652700  0.43110200  0.75296500  1
  F  F13  1  0.66347300  0.93110200  0.24703500  1
  F  F14  1  0.83652700  0.93110200  0.74703500  1
  F  F15  1  0.16347300  0.43110200  0.25296500  1
  F  F16  1  0.28667100  0.33445600  0.86885800  1
  F  F17  1  0.71332900  0.83445600  0.13114200  1
  F  F18  1  0.78667100  0.83445600  0.63114200  1
  F  F19  1  0.21332900  0.33445600  0.36885800  1
  F  F20  1  0.96461800  0.39693300  0.90495700  1
  F  F21  1  0.03538200  0.89693300  0.09504300  1
  F  F22  1  0.46461800  0.89693300  0.59504300  1
  F  F23  1  0.53538200  0.39693300  0.40495700  1
  F  F24  1  0.41909600  0.39360000  0.61318600  1
  F  F25  1  0.58090400  0.89360000  0.38681400  1
  F  F26  1  0.91909600  0.89360000  0.88681400  1
  F  F27  1  0.08090400  0.39360000  0.11318600  1
  F  F28  1  0.75251700  0.34426200  0.65128700  1
  F  F29  1  0.24748300  0.84426200  0.34871300  1
  F  F30  1  0.25251700  0.84426200  0.84871300  1
  F  F31  1  0.74748300  0.34426200  0.15128700  1
  F  F32  1  0.65798900  0.38447800  0.79537000  1
  F  F33  1  0.34201100  0.88447800  0.20463000  1
  F  F34  1  0.15798900  0.88447800  0.70463000  1
  F  F35  1  0.84201100  0.38447800  0.29537000  1
  F  F36  1  0.62984800  0.48614600  0.68841300  1
  F  F37  1  0.37015200  0.98614600  0.31158700  1
  F  F38  1  0.12984800  0.98614600  0.81158700  1
  F  F39  1  0.87015200  0.48614600  0.18841300  1
  F  F40  1  0.45220700  0.28952500  0.71871300  1
  F  F41  1  0.54779300  0.78952500  0.28128700  1
  F  F42  1  0.95220700  0.78952500  0.78128700  1
  F  F43  1  0.04779300  0.28952500  0.21871300  1
  F  F44  1  0.35190800  0.15739000  0.43554800  1
  F  F45  1  0.64809200  0.65739000  0.56445200  1
  F  F46  1  0.85190800  0.65739000  0.06445200  1
  F  F47  1  0.14809200  0.15739000  0.93554800  1
  F  F48  1  0.24258100  0.19303500  0.57899000  1
  F  F49  1  0.75741900  0.69303500  0.42101000  1
  F  F50  1  0.74258100  0.69303500  0.92101000  1
  F  F51  1  0.25741900  0.19303500  0.07899000  1
  F  F52  1  0.67868700  0.11805200  0.48302600  1
  F  F53  1  0.32131300  0.61805200  0.51697400  1
  F  F54  1  0.17868700  0.61805200  0.01697400  1
  F  F55  1  0.82131300  0.11805200  0.98302600  1
  F  F56  1  0.57939300  0.15214000  0.62034800  1
  F  F57  1  0.42060700  0.65214000  0.37965200  1
  F  F58  1  0.07939300  0.65214000  0.87965200  1
  F  F59  1  0.92060700  0.15214000  0.12034800  1
  F  F60  1  0.54021400  0.25587500  0.51474100  1
  F  F61  1  0.45978600  0.75587500  0.48525900  1
  F  F62  1  0.04021400  0.75587500  0.98525900  1
  F  F63  1  0.95978600  0.25587500  0.01474100  1
  F  F64  1  0.38686600  0.05510700  0.54178800  1
  F  F65  1  0.61313400  0.55510700  0.45821200  1
  F  F66  1  0.88686600  0.55510700  0.95821200  1
  F  F67  1  0.11313400  0.05510700  0.04178800  1
  F  F68  1  0.74928800  0.06019100  0.34952700  1
  F  F69  1  0.25071200  0.56019100  0.65047300  1
  F  F70  1  0.24928800  0.56019100  0.15047300  1
  F  F71  1  0.75071200  0.06019100  0.84952700  1
  F  F72  1  0.95650100  0.21279100  0.46447400  1
  F  F73  1  0.04349900  0.71279100  0.53552600  1
  F  F74  1  0.45650100  0.71279100  0.03552600  1
  F  F75  1  0.54349900  0.21279100  0.96447400  1
  F  F76  1  0.00039000  0.06310400  0.45241100  1
  F  F77  1  0.99961000  0.56310400  0.54758900  1
  F  F78  1  0.50039000  0.56310400  0.04758900  1
  F  F79  1  0.49961000  0.06310400  0.95241100  1
  F  F80  1  0.70978700  0.20910400  0.36168900  1
  F  F81  1  0.29021300  0.70910400  0.63831100  1
  F  F82  1  0.20978700  0.70910400  0.13831100  1
  F  F83  1  0.79021300  0.20910400  0.86168900  1
  F  F84  1  0.04030700  0.15213600  0.32731200  1
  F  F85  1  0.95969300  0.65213600  0.67268800  1
  F  F86  1  0.54030700  0.65213600  0.17268800  1
  F  F87  1  0.45969300  0.15213600  0.82731200  1
loop_
_geom_bond_atom_site_label_1
_geom_bond_atom_site_label_2
_geom_bond_distance
_geom_bond_site_symmetry_2
Cl0 Xe0 2.356329 1_554
Cl1 Xe1 2.356329 1_556
Cl2 Xe2 2.356329 1_655
Cl3 Xe3 2.356329 1_455
Cl4 Xe4 2.358621 1_555
Cl5 Xe5 2.358621 1_555
Cl6 Xe6 2.358621 1_455
Cl7 Xe7 2.358621 1_655
F0 Sb0 1.897689 1_555
F1 Sb1 1.897689 1_555
F2 Sb2 1.897689 1_555
F3 Sb3 1.897689 1_555
F4 Sb0 1.889174 1_555
F5 Sb1 1.889174 1_555
F6 Sb2 1.889174 1_555
F7 Sb3 1.889174 1_555
F8 Sb0 1.896670 1_555
F9 Sb1 1.896670 1_555
F10 Sb2 1.896670 1_555
F11 Sb3 1.896670 1_555
F12 Sb0 2.075231 1_555
F12 Sb4 2.077278 1_555
F13 Sb1 2.075231 1_555
F13 Sb5 2.077278 1_555
F14 Sb2 2.075231 1_555
F14 Sb6 2.077278 1_655
F15 Sb3 2.075231 1_555
F15 Sb7 2.077278 1_455
F16 Sb0 1.902151 1_555
F17 Sb1 1.902151 1_555
F18 Sb2 1.902151 1_555
F19 Sb3 1.902151 1_555
F20 Sb0 1.930256 1_655
F20 Xe0 2.665313 1_555
F21 Sb1 1.930256 1_455
F21 Xe1 2.665313 1_555
F22 Sb2 1.930256 1_555
F22 Xe2 2.665313 1_555
F23 Sb3 1.930256 1_555
F23 Xe3 2.665313 1_555
F24 Sb4 1.913757 1_555
F25 Sb5 1.913757 1_555
F26 Sb6 1.913757 1_655
F27 Sb7 1.913757 1_455
F28 Sb4 1.892388 1_555
F29 Sb5 1.892388 1_555
F30 Sb6 1.892388 1_555
F31 Sb7 1.892388 1_555
F32 Sb4 1.900279 1_555
F33 Sb5 1.900279 1_555
F34 Sb6 1.900279 1_555
F35 Sb7 1.900279 1_555
F36 Sb4 1.898619 1_555
F37 Sb5 1.898619 1_555
F38 Sb6 1.898619 1_555
F39 Sb7 1.898619 1_555
F40 Sb4 1.898878 1_555
F41 Sb5 1.898878 1_555
F42 Sb6 1.898878 1_655
F43 Sb7 1.898878 1_455
F44 Sb8 1.899412 1_555
F45 Sb9 1.899412 1_555
F46 Sb10 1.899412 1_554
F47 Sb11 1.899412 1_556
F48 Sb8 1.892923 1_555
F49 Sb9 1.892923 1_555
F50 Sb10 1.892923 1_555
F51 Sb11 1.892923 1_555
F52 Sb12 2.067806 1_555
F52 Sb8 2.076448 1_555
F53 Sb13 2.067806 1_555
F53 Sb9 2.076448 1_555
F54 Sb14 2.067806 1_555
F54 Sb10 2.076448 1_454
F55 Sb15 2.067806 1_555
F55 Sb11 2.076448 1_656
F56 Sb8 1.914178 1_555
F57 Sb9 1.914178 1_555
F58 Sb10 1.914178 1_455
F59 Sb11 1.914178 1_655
F60 Sb8 1.898395 1_555
F61 Sb9 1.898395 1_555
F62 Sb10 1.898395 1_455
F63 Sb11 1.898395 1_655
F64 Sb8 1.899801 1_555
F65 Sb9 1.899801 1_555
F66 Sb10 1.899801 1_555
F67 Sb11 1.899801 1_555
F68 Sb12 1.890502 1_555
F69 Sb13 1.890502 1_555
F70 Sb14 1.890502 1_555
F71 Sb15 1.890502 1_555
F72 Sb12 1.895466 1_555
F73 Sb13 1.895466 1_555
F74 Sb14 1.895466 1_555
F75 Sb15 1.895466 1_555
F76 Sb12 1.893789 1_455
F77 Sb13 1.893789 1_655
F78 Sb14 1.893789 1_555
F79 Sb15 1.893789 1_555
F80 Sb12 1.900481 1_555
F81 Sb13 1.900481 1_555
F82 Sb14 1.900481 1_555
F83 Sb15 1.900481 1_555
F84 Sb12 1.931811 1_455
F84 Xe4 2.625740 1_555
F85 Sb13 1.931811 1_655
F85 Xe5 2.625740 1_555
F86 Sb14 1.931811 1_555
F86 Xe6 2.625740 1_555
F87 Sb15 1.931811 1_555
F87 Xe7 2.625740 1_555
