# generated using pymatgen
data_Fe2P4Pb3O17
_symmetry_space_group_name_H-M   'P 1'
_cell_length_a   9.16990000
_cell_length_b   9.16990000
_cell_length_c   16.96825200
_cell_angle_alpha   90.00000000
_cell_angle_beta   90.00000000
_cell_angle_gamma   90.00000000
_symmetry_Int_Tables_number   1
_chemical_formula_structural   Fe2P4Pb3O17
_chemical_formula_sum   'Fe8 P16 Pb12 O68'
_cell_volume   1426.81052600
_cell_formula_units_Z   4
loop_
 _symmetry_equiv_pos_site_id
 _symmetry_equiv_pos_as_xyz
  1  'x, y, z'
loop_
 _atom_site_type_symbol
 _atom_site_label
 _atom_site_symmetry_multiplicity
 _atom_site_fract_x
 _atom_site_fract_y
 _atom_site_fract_z
 _atom_site_occupancy
  Fe  Fe0  1  0.00017200  0.73875600  0.62945900  1
  Fe  Fe1  1  0.99982800  0.26124400  0.12945900  1
  Fe  Fe2  1  0.73875600  0.99982800  0.37945900  1
  Fe  Fe3  1  0.26124400  0.00017200  0.87945900  1
  Fe  Fe4  1  0.75968100  0.50058500  0.87047700  1
  Fe  Fe5  1  0.24031900  0.49941500  0.37047700  1
  Fe  Fe6  1  0.50058500  0.24031900  0.62047700  1
  Fe  Fe7  1  0.49941500  0.75968100  0.12047700  1
  P  P0  1  0.96481300  0.73179000  0.43164400  1
  P  P1  1  0.03518700  0.26821000  0.93164400  1
  P  P2  1  0.73179000  0.03518700  0.18164400  1
  P  P3  1  0.26821000  0.96481300  0.68164400  1
  P  P4  1  0.76935400  0.53410700  0.06796400  1
  P  P5  1  0.23064600  0.46589300  0.56796400  1
  P  P6  1  0.53410700  0.23064600  0.81796400  1
  P  P7  1  0.46589300  0.76935400  0.31796400  1
  P  P8  1  0.72635900  0.50869800  0.67197000  1
  P  P9  1  0.27364100  0.49130200  0.17197000  1
  P  P10  1  0.50869800  0.27364100  0.42197000  1
  P  P11  1  0.49130200  0.72635900  0.92197000  1
  P  P12  1  0.99246700  0.77211500  0.82827500  1
  P  P13  1  0.00753300  0.22788500  0.32827500  1
  P  P14  1  0.77211500  0.00753300  0.57827500  1
  P  P15  1  0.22788500  0.99246700  0.07827500  1
  Pb  Pb0  1  0.63152900  0.86768700  0.75034800  1
  Pb  Pb1  1  0.36847100  0.13231300  0.25034800  1
  Pb  Pb2  1  0.86768700  0.36847100  0.50034800  1
  Pb  Pb3  1  0.13231300  0.63152900  0.00034800  1
  Pb  Pb4  1  0.57682700  0.66258400  0.48214400  1
  Pb  Pb5  1  0.42317300  0.33741600  0.98214400  1
  Pb  Pb6  1  0.66258400  0.42317300  0.23214400  1
  Pb  Pb7  1  0.33741600  0.57682700  0.73214400  1
  Pb  Pb8  1  0.84679300  0.92230100  0.01697900  1
  Pb  Pb9  1  0.15320700  0.07769900  0.51697900  1
  Pb  Pb10  1  0.92230100  0.15320700  0.76697900  1
  Pb  Pb11  1  0.07769900  0.84679300  0.26697900  1
  O  O0  1  0.02134700  0.77722800  0.51338500  1
  O  O1  1  0.97865300  0.22277200  0.01338500  1
  O  O2  1  0.77722800  0.97865300  0.26338500  1
  O  O3  1  0.22277200  0.02134700  0.76338500  1
  O  O4  1  0.72239900  0.47823200  0.98636200  1
  O  O5  1  0.27760100  0.52176800  0.48636200  1
  O  O6  1  0.47823200  0.27760100  0.73636200  1
  O  O7  1  0.52176800  0.72239900  0.23636200  1
  O  O8  1  0.59456400  0.82976200  0.36925700  1
  O  O9  1  0.40543600  0.17023800  0.86925700  1
  O  O10  1  0.82976200  0.40543600  0.11925700  1
  O  O11  1  0.17023800  0.59456400  0.61925700  1
  O  O12  1  0.66943700  0.90677700  0.13071200  1
  O  O13  1  0.33056300  0.09322300  0.63071200  1
  O  O14  1  0.90677700  0.33056300  0.88071200  1
  O  O15  1  0.09322300  0.66943700  0.38071200  1
  O  O16  1  0.82389900  0.87775700  0.63131400  1
  O  O17  1  0.17610100  0.12224300  0.13131400  1
  O  O18  1  0.87775700  0.17610100  0.38131400  1
  O  O19  1  0.12224300  0.82389900  0.88131400  1
  O  O20  1  0.62135700  0.67571200  0.86857900  1
  O  O21  1  0.37864300  0.32428800  0.36857900  1
  O  O22  1  0.67571200  0.37864300  0.61857900  1
  O  O23  1  0.32428800  0.62135700  0.11857900  1
  O  O24  1  0.92246400  0.87187500  0.38432300  1
  O  O25  1  0.07753600  0.12812500  0.88432300  1
  O  O26  1  0.87187500  0.07753600  0.13432300  1
  O  O27  1  0.12812500  0.92246400  0.63432300  1
  O  O28  1  0.63109900  0.57927000  0.11613700  1
  O  O29  1  0.36890100  0.42073000  0.61613700  1
  O  O30  1  0.57927000  0.36890100  0.86613700  1
  O  O31  1  0.42073000  0.63109900  0.36613700  1
  O  O32  1  0.85477700  0.57678300  0.62405700  1
  O  O33  1  0.14522300  0.42321700  0.12405700  1
  O  O34  1  0.57678300  0.14522300  0.37405700  1
  O  O35  1  0.42321700  0.85477700  0.87405700  1
  O  O36  1  0.92436600  0.64358500  0.87598900  1
  O  O37  1  0.07563400  0.35641500  0.37598900  1
  O  O38  1  0.64358500  0.07563400  0.62598900  1
  O  O39  1  0.35641500  0.92436600  0.12598900  1
  O  O40  1  0.60080600  0.61957600  0.68312200  1
  O  O41  1  0.39919400  0.38042400  0.18312200  1
  O  O42  1  0.61957600  0.39919400  0.43312200  1
  O  O43  1  0.38042400  0.60080600  0.93312200  1
  O  O44  1  0.87907100  0.89610100  0.81829800  1
  O  O45  1  0.12092900  0.10389900  0.31829800  1
  O  O46  1  0.89610100  0.12092900  0.56829800  1
  O  O47  1  0.10389900  0.87907100  0.06829800  1
  O  O48  1  0.83667300  0.62368700  0.43764900  1
  O  O49  1  0.16332700  0.37631300  0.93764900  1
  O  O50  1  0.62368700  0.16332700  0.18764900  1
  O  O51  1  0.37631300  0.83667300  0.68764900  1
  O  O52  1  0.87930000  0.66026600  0.06259300  1
  O  O53  1  0.12070000  0.33973400  0.56259300  1
  O  O54  1  0.66026600  0.12070000  0.81259300  1
  O  O55  1  0.33973400  0.87930000  0.31259300  1
  O  O56  1  0.71932100  0.95312900  0.49667600  1
  O  O57  1  0.28067900  0.04687100  0.99667600  1
  O  O58  1  0.95312900  0.28067900  0.24667600  1
  O  O59  1  0.04687100  0.71932100  0.74667600  1
  O  O60  1  0.54577600  0.78147600  0.00323800  1
  O  O61  1  0.45422400  0.21852400  0.50323800  1
  O  O62  1  0.78147600  0.45422400  0.75323800  1
  O  O63  1  0.21852400  0.54577600  0.25323800  1
  O  O64  1  0.36451600  0.89927500  0.51154800  1
  O  O65  1  0.63548400  0.10072500  0.01154800  1
  O  O66  1  0.89927500  0.63548400  0.26154800  1
  O  O67  1  0.10072500  0.36451600  0.76154800  1
loop_
_geom_bond_atom_site_label_1
_geom_bond_atom_site_label_2
_geom_bond_distance
_geom_bond_site_symmetry_2
Fe0 O32 1.998005 1_455
Fe0 O0 2.010318 1_555
Fe0 O59 2.042334 1_555
Fe0 O11 2.051890 1_555
Fe0 O27 2.054582 1_555
Fe0 O16 2.058744 1_455
Fe1 O33 1.998005 1_655
Fe1 O1 2.010318 1_555
Fe1 O58 2.042334 1_555
Fe1 O10 2.051890 1_555
Fe1 O26 2.054582 1_555
Fe1 O17 2.058744 1_655
Fe2 O34 1.998005 1_565
Fe2 O2 2.010318 1_555
Fe2 O56 2.042334 1_555
Fe2 O8 2.051890 1_555
Fe2 O24 2.054582 1_555
Fe2 O18 2.058744 1_565
Fe3 O35 1.998005 1_545
Fe3 O3 2.010318 1_555
Fe3 O57 2.042334 1_555
Fe3 O9 2.051890 1_555
Fe3 O25 2.054582 1_555
Fe3 O19 2.058744 1_545
Fe4 O36 2.002194 1_555
Fe4 O4 2.006361 1_555
Fe4 O62 2.044053 1_555
Fe4 O20 2.046662 1_555
Fe4 O30 2.049494 1_555
Fe4 O14 2.068893 1_555
Fe5 O37 2.002194 1_555
Fe5 O5 2.006361 1_555
Fe5 O63 2.044053 1_555
Fe5 O21 2.046662 1_555
Fe5 O31 2.049494 1_555
Fe5 O15 2.068893 1_555
Fe6 O38 2.002194 1_555
Fe6 O6 2.006361 1_555
Fe6 O61 2.044053 1_555
Fe6 O22 2.046662 1_555
Fe6 O29 2.049494 1_555
Fe6 O13 2.068893 1_555
Fe7 O39 2.002194 1_555
Fe7 O7 2.006361 1_555
Fe7 O60 2.044053 1_555
Fe7 O23 2.046662 1_555
Fe7 O28 2.049494 1_555
Fe7 O12 2.068893 1_555
O0 P0 1.538223 1_455
O1 P1 1.538223 1_654
O2 P2 1.538223 1_565
O3 P3 1.538223 1_545
O4 P4 1.537905 1_556
O5 P5 1.537905 1_555
O6 P6 1.537905 1_555
O7 P7 1.537905 1_555
O8 P7 1.567330 1_555
O8 Pb4 2.458797 1_555
O9 P6 1.567330 1_555
O9 Pb5 2.458797 1_555
O10 P4 1.567330 1_555
O10 Pb6 2.458797 1_555
O11 P5 1.567330 1_555
O11 Pb7 2.458797 1_555
O12 P2 1.568545 1_565
O12 Pb8 2.527757 1_555
O13 P3 1.568545 1_545
O13 Pb9 2.527757 1_555
O14 P1 1.568545 1_655
O14 Pb10 2.527757 1_555
O15 P0 1.568545 1_455
O15 Pb11 2.527757 1_555
O16 P14 1.565767 1_565
O16 Pb0 2.683255 1_555
O17 P15 1.565767 1_545
O17 Pb1 2.683255 1_555
O18 P13 1.565767 1_655
O18 Pb2 2.683255 1_555
O19 P12 1.565767 1_455
O19 Pb3 2.683255 1_556
O20 P11 1.568029 1_555
O20 Pb0 2.670657 1_555
O21 P10 1.568029 1_555
O21 Pb1 2.670657 1_555
O22 P8 1.568029 1_555
O22 Pb2 2.670657 1_555
O23 P9 1.568029 1_555
O23 Pb3 2.670657 1_555
O24 P0 1.563857 1_555
O24 Pb11 2.458412 1_655
O25 P1 1.563857 1_555
O25 Pb10 2.458412 1_455
O26 P2 1.563857 1_555
O26 Pb8 2.458412 1_545
O27 P3 1.563857 1_555
O27 Pb9 2.458412 1_565
O28 P4 1.564273 1_555
O28 Pb6 2.450915 1_555
O29 P5 1.564273 1_555
O29 Pb7 2.450915 1_555
O30 P6 1.564273 1_555
O30 Pb5 2.450915 1_555
O31 P7 1.564273 1_555
O31 Pb4 2.450915 1_555
O32 P8 1.561235 1_555
O32 Pb2 2.840635 1_555
O33 P9 1.561235 1_555
O33 Pb3 2.840635 1_555
O34 P10 1.561235 1_555
O34 Pb1 2.840635 1_555
O35 P11 1.561235 1_555
O35 Pb0 2.840635 1_555
O36 P12 1.560314 1_555
O36 Pb3 2.846237 1_656
O37 P13 1.560314 1_555
O37 Pb2 2.846237 1_455
O38 P14 1.560314 1_555
O38 Pb0 2.846237 1_545
O39 P15 1.560314 1_555
O39 Pb1 2.846237 1_565
O40 P8 1.547605 1_555
O40 Pb0 2.560646 1_555
O40 Pb7 2.584389 1_555
O41 P9 1.547605 1_555
O41 Pb1 2.560646 1_555
O41 Pb6 2.584389 1_555
O42 P10 1.547605 1_555
O42 Pb2 2.560646 1_555
O42 Pb4 2.584389 1_555
O43 P11 1.547605 1_555
O43 Pb3 2.560646 1_556
O43 Pb5 2.584389 1_555
O44 P12 1.550012 1_555
O44 Pb10 2.544381 1_565
O44 Pb0 2.559275 1_555
O45 P13 1.550012 1_555
O45 Pb11 2.544381 1_545
O45 Pb1 2.559275 1_555
O46 P14 1.550012 1_555
O46 Pb9 2.544381 1_655
O46 Pb2 2.559275 1_555
O47 P15 1.550012 1_555
O47 Pb8 2.544381 1_455
O47 Pb3 2.559275 1_555
O48 P0 1.540696 1_555
O48 Pb4 2.524837 1_555
O48 Pb2 2.586460 1_555
O49 P1 1.540696 1_555
O49 Pb5 2.524837 1_555
O49 Pb3 2.586460 1_556
O50 P2 1.540696 1_555
O50 Pb6 2.524837 1_555
O50 Pb1 2.586460 1_555
O51 P3 1.540696 1_555
O51 Pb7 2.524837 1_555
O51 Pb0 2.586460 1_555
O52 P4 1.537237 1_555
O52 Pb8 2.541954 1_555
O52 Pb3 2.562783 1_655
O53 P5 1.537237 1_555
O53 Pb9 2.541954 1_555
O53 Pb2 2.562783 1_455
O54 P6 1.537237 1_555
O54 Pb10 2.541954 1_555
O54 Pb0 2.562783 1_545
O55 P7 1.537237 1_555
O55 Pb11 2.541954 1_555
O55 Pb1 2.562783 1_565
O56 P14 1.549305 1_565
O57 P15 1.549305 1_546
O58 P13 1.549305 1_655
O59 P12 1.549305 1_455
O60 P11 1.551304 1_554
O61 P10 1.551304 1_555
O62 P8 1.551304 1_555
O63 P9 1.551304 1_555
O64 Pb9 2.537721 1_565
O65 Pb8 2.537721 1_545
O66 Pb11 2.537721 1_655
O67 Pb10 2.537721 1_455
