# generated using pymatgen
data_Li5Mn2(PO4)3
_symmetry_space_group_name_H-M   'P 1'
_cell_length_a   8.78525781
_cell_length_b   9.10066323
_cell_length_c   8.62060106
_cell_angle_alpha   116.23933123
_cell_angle_beta   60.67160924
_cell_angle_gamma   113.47262240
_symmetry_Int_Tables_number   1
_chemical_formula_structural   Li5Mn2(PO4)3
_chemical_formula_sum   'Li10 Mn4 P6 O24'
_cell_volume   524.21168712
_cell_formula_units_Z   2
loop_
 _symmetry_equiv_pos_site_id
 _symmetry_equiv_pos_as_xyz
  1  'x, y, z'
loop_
 _atom_site_type_symbol
 _atom_site_label
 _atom_site_symmetry_multiplicity
 _atom_site_fract_x
 _atom_site_fract_y
 _atom_site_fract_z
 _atom_site_occupancy
  Li  Li0  1  0.95698600  0.91405200  0.28885300  1
  Li  Li1  1  0.44284200  0.63858100  0.02407700  1
  Li  Li2  1  0.38035800  0.36504000  0.30435100  1
  Li  Li3  1  0.28996700  0.86763800  0.65625400  1
  Li  Li4  1  0.86468100  0.60456600  0.24385800  1
  Li  Li5  1  0.14483400  0.39126200  0.76156200  1
  Li  Li6  1  0.62811800  0.63170400  0.70161700  1
  Li  Li7  1  0.56728400  0.36013600  0.98178500  1
  Li  Li8  1  0.72018700  0.13046900  0.34993900  1
  Li  Li9  1  0.05065500  0.08206900  0.72210600  1
  Mn  Mn0  1  0.10738300  0.38631300  0.13405300  1
  Mn  Mn1  1  0.35446300  0.02366500  0.32736300  1
  Mn  Mn2  1  0.65461900  0.97448300  0.67922700  1
  Mn  Mn3  1  0.90256500  0.61232900  0.87262200  1
  P  P0  1  0.03539300  0.25467400  0.47670600  1
  P  P1  1  0.57627400  0.74190500  0.27103100  1
  P  P2  1  0.26291700  0.75506500  0.95535900  1
  P  P3  1  0.74585900  0.24262200  0.05145400  1
  P  P4  1  0.43325700  0.25565100  0.73508900  1
  P  P5  1  0.97353900  0.74329300  0.52993000  1
  O  O0  1  0.20418800  0.88454200  0.15257400  1
  O  O1  1  0.20403200  0.57558100  0.97618800  1
  O  O2  1  0.01289100  0.58675800  0.35997400  1
  O  O3  1  0.14588900  0.88196900  0.54553100  1
  O  O4  1  0.14804900  0.29390400  0.28820500  1
  O  O5  1  0.53262700  0.85110400  0.20749200  1
  O  O6  1  0.16825900  0.75321800  0.84257800  1
  O  O7  1  0.47489500  0.55556400  0.20199900  1
  O  O8  1  0.16071700  0.19344500  0.50644200  1
  O  O9  1  0.51993000  0.80584600  0.48541200  1
  O  O10  1  0.78419400  0.75114600  0.17205700  1
  O  O11  1  0.47044200  0.79012600  0.84926400  1
  O  O12  1  0.53842000  0.20745900  0.15785800  1
  O  O13  1  0.22533900  0.24635900  0.83443700  1
  O  O14  1  0.48941500  0.19115900  0.52077100  1
  O  O15  1  0.84844900  0.80527400  0.50066000  1
  O  O16  1  0.53444600  0.44215500  0.80360500  1
  O  O17  1  0.84121700  0.24573200  0.16423500  1
  O  O18  1  0.47719000  0.14700400  0.79897600  1
  O  O19  1  0.86067500  0.70371400  0.71814200  1
  O  O20  1  0.86320400  0.11559200  0.46120000  1
  O  O21  1  0.99541100  0.41138300  0.64627300  1
  O  O22  1  0.80427300  0.42167500  0.02965600  1
  O  O23  1  0.80436600  0.11247000  0.85473500  1
loop_
_geom_bond_atom_site_label_1
_geom_bond_atom_site_label_2
_geom_bond_distance
_geom_bond_site_symmetry_2
Li0 O20 1.960959 1_565
Li0 O0 1.963407 1_655
Li0 O10 1.975003 1_555
Li0 O15 2.088998 1_555
Li1 O16 2.024567 1_554
Li1 O5 2.040909 1_555
Li1 O1 2.140499 1_554
Li1 O7 2.149386 1_555
Li1 O11 2.333526 1_554
Li2 O4 1.936441 1_555
Li2 O12 1.961316 1_555
Li2 O7 1.990582 1_555
Li2 O8 2.430871 1_555
Li3 O6 1.927971 1_555
Li3 O9 1.955693 1_555
Li3 O3 1.988812 1_555
Li3 O18 2.562853 1_565
Li4 O22 2.000092 1_555
Li4 O2 2.076527 1_655
Li4 O10 2.138429 1_555
Li4 O15 2.140149 1_555
Li5 O1 2.002709 1_555
Li5 O21 2.091655 1_455
Li5 O8 2.120328 1_555
Li5 O13 2.131828 1_555
Li6 O19 1.939040 1_555
Li6 O11 1.964339 1_555
Li6 O16 1.981750 1_555
Li6 O15 2.437627 1_555
Li7 O7 2.020104 1_556
Li7 O18 2.041633 1_555
Li7 O22 2.127715 1_556
Li7 O16 2.149229 1_555
Li7 O12 2.346472 1_556
Li8 O17 1.929401 1_555
Li8 O14 1.957569 1_555
Li8 O20 1.986909 1_555
Li8 O5 2.563432 1_545
Li9 O23 1.959371 1_455
Li9 O3 1.961699 1_545
Li9 O13 1.968763 1_555
Li9 O8 2.131497 1_555
Mn0 O2 2.071439 1_555
Mn0 O4 2.072065 1_555
Mn0 O17 2.118366 1_455
Mn0 O13 2.210838 1_554
Mn0 O1 2.305547 1_554
Mn1 O0 2.132282 1_545
Mn1 O14 2.181404 1_555
Mn1 O5 2.218704 1_545
Mn1 O8 2.253779 1_555
Mn1 O12 2.288919 1_555
Mn1 O3 2.333202 1_545
Mn2 O23 2.133212 1_565
Mn2 O9 2.183982 1_555
Mn2 O18 2.213722 1_565
Mn2 O15 2.250689 1_555
Mn2 O11 2.295692 1_555
Mn2 O20 2.329229 1_565
Mn3 O21 2.071442 1_555
Mn3 O19 2.074562 1_555
Mn3 O6 2.115833 1_655
Mn3 O10 2.207699 1_556
Mn3 O22 2.308020 1_556
O0 P2 1.548759 1_554
O1 P2 1.569437 1_555
O2 P5 1.531691 1_455
O3 P5 1.559035 1_455
O4 P0 1.550352 1_555
O5 P1 1.557341 1_555
O6 P2 1.550335 1_555
O7 P1 1.564248 1_555
O8 P0 1.574783 1_555
O9 P1 1.543195 1_555
O10 P1 1.576687 1_555
O11 P2 1.556712 1_555
O12 P3 1.556387 1_555
O13 P4 1.576588 1_555
O14 P4 1.542793 1_555
O15 P5 1.575067 1_555
O16 P4 1.563942 1_555
O17 P3 1.550014 1_555
O18 P4 1.556823 1_555
O19 P5 1.549727 1_555
O20 P0 1.559319 1_655
O21 P0 1.531909 1_655
O22 P3 1.569736 1_555
O23 P3 1.548537 1_556
