# generated using pymatgen
data_K6MoN4
_symmetry_space_group_name_H-M   'P 1'
_cell_length_a   8.22759600
_cell_length_b   8.22759600
_cell_length_c   6.76633600
_cell_angle_alpha   90.00000000
_cell_angle_beta   90.00000000
_cell_angle_gamma   90.00000000
_symmetry_Int_Tables_number   1
_chemical_formula_structural   K6MoN4
_chemical_formula_sum   'K12 Mo2 N8'
_cell_volume   458.03585593
_cell_formula_units_Z   2
loop_
 _symmetry_equiv_pos_site_id
 _symmetry_equiv_pos_as_xyz
  1  'x, y, z'
loop_
 _atom_site_type_symbol
 _atom_site_label
 _atom_site_symmetry_multiplicity
 _atom_site_fract_x
 _atom_site_fract_y
 _atom_site_fract_z
 _atom_site_occupancy
  K  K0  1  0.00000000  0.50000000  0.67853900  1
  K  K1  1  0.50000000  0.00000000  0.82146100  1
  K  K2  1  0.50000000  0.00000000  0.32146100  1
  K  K3  1  0.00000000  0.50000000  0.17853900  1
  K  K4  1  0.20362700  0.20362700  0.50000000  1
  K  K5  1  0.79637300  0.79637300  0.50000000  1
  K  K6  1  0.70362700  0.70362700  0.00000000  1
  K  K7  1  0.29637300  0.29637300  0.00000000  1
  K  K8  1  0.79637300  0.20362700  0.50000000  1
  K  K9  1  0.20362700  0.79637300  0.50000000  1
  K  K10  1  0.29637300  0.70362700  0.00000000  1
  K  K11  1  0.70362700  0.29637300  0.00000000  1
  Mo  Mo0  1  0.50000000  0.50000000  0.50000000  1
  Mo  Mo1  1  0.00000000  0.00000000  0.00000000  1
  N  N0  1  0.30308600  0.50000000  0.34720100  1
  N  N1  1  0.69691400  0.50000000  0.34720100  1
  N  N2  1  0.80308600  0.00000000  0.15279900  1
  N  N3  1  0.19691400  0.00000000  0.15279900  1
  N  N4  1  0.50000000  0.30308600  0.65279900  1
  N  N5  1  0.50000000  0.69691400  0.65279900  1
  N  N6  1  0.00000000  0.80308600  0.84720100  1
  N  N7  1  0.00000000  0.19691400  0.84720100  1
loop_
_geom_bond_atom_site_label_1
_geom_bond_atom_site_label_2
_geom_bond_distance
_geom_bond_site_symmetry_2
K0 N6 2.742404 1_555
K0 N7 2.742404 1_555
K1 N5 2.742404 1_545
K1 N4 2.742404 1_555
K2 N2 2.742404 1_555
K2 N3 2.742404 1_555
K3 N1 2.742404 1_455
K3 N0 2.742404 1_555
K4 N0 2.772099 1_555
K4 N4 2.772099 1_555
K4 N7 2.886000 1_555
K4 N3 2.886000 1_555
K5 N5 2.772099 1_555
K5 N1 2.772099 1_555
K5 N6 2.886000 1_655
K5 N2 2.886000 1_565
K6 N2 2.772099 1_565
K6 N6 2.772099 1_654
K6 N5 2.886000 1_554
K6 N1 2.886000 1_555
K7 N7 2.772099 1_554
K7 N3 2.772099 1_555
K7 N0 2.886000 1_555
K7 N4 2.886000 1_554
K8 N1 2.772099 1_555
K8 N4 2.772099 1_555
K8 N7 2.886000 1_655
K8 N2 2.886000 1_555
K9 N5 2.772099 1_555
K9 N0 2.772099 1_555
K9 N6 2.886000 1_555
K9 N3 2.886000 1_565
K10 N3 2.772099 1_565
K10 N6 2.772099 1_554
K10 N0 2.886000 1_555
K10 N5 2.886000 1_554
K11 N2 2.772099 1_555
K11 N7 2.772099 1_654
K11 N4 2.886000 1_554
K11 N1 2.886000 1_555
Mo0 N4 1.921912 1_555
Mo0 N0 1.921912 1_555
Mo0 N5 1.921912 1_555
Mo0 N1 1.921912 1_555
Mo1 N3 1.921912 1_555
Mo1 N7 1.921912 1_554
Mo1 N2 1.921912 1_455
Mo1 N6 1.921912 1_544
