# generated using pymatgen
data_Ce2CoGe4Ru3
_symmetry_space_group_name_H-M   'P 1'
_cell_length_a   4.20685600
_cell_length_b   4.20685600
_cell_length_c   10.06844500
_cell_angle_alpha   90.00000000
_cell_angle_beta   90.00000000
_cell_angle_gamma   90.00000000
_symmetry_Int_Tables_number   1
_chemical_formula_structural   Ce2CoGe4Ru3
_chemical_formula_sum   'Ce2 Co1 Ge4 Ru3'
_cell_volume   178.18768884
_cell_formula_units_Z   1
loop_
 _symmetry_equiv_pos_site_id
 _symmetry_equiv_pos_as_xyz
  1  'x, y, z'
loop_
 _atom_site_type_symbol
 _atom_site_label
 _atom_site_symmetry_multiplicity
 _atom_site_fract_x
 _atom_site_fract_y
 _atom_site_fract_z
 _atom_site_occupancy
  Ce  Ce0  1  0.50000000  0.00000000  0.74965200  1
  Ce  Ce1  1  0.00000000  0.50000000  0.25034800  1
  Co  Co0  1  0.50000000  0.50000000  0.00000000  1
  Ge  Ge0  1  0.00000000  0.50000000  0.88090500  1
  Ge  Ge1  1  0.50000000  0.00000000  0.37782100  1
  Ge  Ge2  1  0.50000000  0.00000000  0.11909500  1
  Ge  Ge3  1  0.00000000  0.50000000  0.62217900  1
  Ru  Ru0  1  0.00000000  0.00000000  0.50000000  1
  Ru  Ru1  1  0.00000000  0.00000000  0.00000000  1
  Ru  Ru2  1  0.50000000  0.50000000  0.50000000  1
loop_
_geom_bond_atom_site_label_1
_geom_bond_atom_site_label_2
_geom_bond_distance
_geom_bond_site_symmetry_2
Ce0 Ge3 3.239765 1_555
Ce0 Ge3 3.239765 1_655
Ce0 Ge3 3.239765 1_645
Ce0 Ge3 3.239765 1_545
Ce0 Ge0 3.255029 1_555
Ce0 Ge0 3.255029 1_655
Ce0 Ge0 3.255029 1_545
Ce0 Ge0 3.255029 1_645
Ce0 Ru2 3.277595 1_545
Ce0 Ru0 3.277595 1_655
Ce0 Ru2 3.277595 1_555
Ce0 Ru0 3.277595 1_555
Ce0 Ru1 3.282973 1_656
Ce0 Co0 3.282973 1_546
Ce0 Ru1 3.282973 1_556
Ce0 Co0 3.282973 1_556
Ce1 Ge1 3.239765 1_565
Ce1 Ge1 3.239765 1_465
Ce1 Ge1 3.239765 1_555
Ce1 Ge1 3.239765 1_455
Ce1 Ge2 3.255029 1_465
Ce1 Ge2 3.255029 1_455
Ce1 Ge2 3.255029 1_565
Ce1 Ge2 3.255029 1_555
Ce1 Ru2 3.277595 1_555
Ce1 Ru2 3.277595 1_455
Ce1 Ru0 3.277595 1_565
Ce1 Ru0 3.277595 1_555
Ce1 Co0 3.282973 1_555
Ce1 Ru1 3.282973 1_565
Ce1 Ru1 3.282973 1_555
Ce1 Co0 3.282973 1_455
Co0 Ge2 2.421209 1_565
Co0 Ge2 2.421209 1_555
Co0 Ge0 2.421209 1_654
Co0 Ge0 2.421209 1_554
Ge0 Ru1 2.421209 1_556
Ge0 Ru1 2.421209 1_566
Ge0 Ge3 2.604969 1_555
Ge1 Ru0 2.436736 1_555
Ge1 Ru0 2.436736 1_655
Ge1 Ru2 2.436736 1_545
Ge1 Ru2 2.436736 1_555
Ge1 Ge2 2.604969 1_555
Ge2 Ru1 2.421209 1_655
Ge2 Ru1 2.421209 1_555
Ge3 Ru2 2.436736 1_555
Ge3 Ru0 2.436736 1_565
Ge3 Ru2 2.436736 1_455
Ge3 Ru0 2.436736 1_555
