# generated using pymatgen
data_Ce6Al3Fe11
_symmetry_space_group_name_H-M   'P 1'
_cell_length_a   8.13512810
_cell_length_b   8.13512810
_cell_length_c   12.41183741
_cell_angle_alpha   70.86976454
_cell_angle_beta   70.86976454
_cell_angle_gamma   90.00000000
_symmetry_Int_Tables_number   1
_chemical_formula_structural   Ce6Al3Fe11
_chemical_formula_sum   'Ce12 Al6 Fe22'
_cell_volume   727.87375436
_cell_formula_units_Z   2
loop_
 _symmetry_equiv_pos_site_id
 _symmetry_equiv_pos_as_xyz
  1  'x, y, z'
loop_
 _atom_site_type_symbol
 _atom_site_label
 _atom_site_symmetry_multiplicity
 _atom_site_fract_x
 _atom_site_fract_y
 _atom_site_fract_z
 _atom_site_occupancy
  Ce  Ce0  1  0.35497939  0.85497939  0.62188885  1
  Ce  Ce1  1  0.02313175  0.52313175  0.62188885  1
  Ce  Ce2  1  0.52313175  0.35497939  0.62188885  1
  Ce  Ce3  1  0.85497939  0.02313175  0.62188885  1
  Ce  Ce4  1  0.63069685  0.13069685  0.38972130  1
  Ce  Ce5  1  0.97958185  0.47958185  0.38972130  1
  Ce  Ce6  1  0.47958185  0.63069685  0.38972130  1
  Ce  Ce7  1  0.13069685  0.97958185  0.38972130  1
  Ce  Ce8  1  0.39341702  0.39341702  0.21316597  1
  Ce  Ce9  1  0.89341702  0.89341702  0.21316597  1
  Ce  Ce10  1  0.60654067  0.60654067  0.78691867  1
  Ce  Ce11  1  0.10654067  0.10654067  0.78691867  1
  Al  Al0  1  0.75015367  0.75015367  0.49969266  1
  Al  Al1  1  0.25015367  0.25015367  0.49969266  1
  Al  Al2  1  0.52070557  0.02070557  0.19700287  1
  Al  Al3  1  0.28229156  0.78229156  0.19700287  1
  Al  Al4  1  0.78229156  0.52070557  0.19700287  1
  Al  Al5  1  0.02070557  0.28229156  0.19700287  1
  Fe  Fe0  1  0.24137073  0.74137073  0.87380463  1
  Fe  Fe1  1  0.88482464  0.38482464  0.87380463  1
  Fe  Fe2  1  0.38482464  0.24137073  0.87380463  1
  Fe  Fe3  1  0.74137073  0.88482464  0.87380463  1
  Fe  Fe4  1  0.76242237  0.26242237  0.12363399  1
  Fe  Fe5  1  0.11394364  0.61394364  0.12363399  1
  Fe  Fe6  1  0.61394364  0.76242237  0.12363399  1
  Fe  Fe7  1  0.26242237  0.11394364  0.12363399  1
  Fe  Fe8  1  0.71326060  0.56942540  0.99770180  1
  Fe  Fe9  1  0.28903760  0.43287280  0.99770180  1
  Fe  Fe10  1  0.78903760  0.06942540  0.99770180  1
  Fe  Fe11  1  0.21326060  0.93287280  0.99770180  1
  Fe  Fe12  1  0.56942540  0.28903760  0.99770180  1
  Fe  Fe13  1  0.43287280  0.71326060  0.99770180  1
  Fe  Fe14  1  0.06942540  0.21326060  0.99770180  1
  Fe  Fe15  1  0.93287280  0.78903760  0.99770180  1
  Fe  Fe16  1  0.00079327  0.50079327  0.99841347  1
  Fe  Fe17  1  0.50079327  0.00079327  0.99841347  1
  Fe  Fe18  1  0.48564287  0.98564287  0.79944938  1
  Fe  Fe19  1  0.71490775  0.21490775  0.79944938  1
  Fe  Fe20  1  0.21490775  0.48564287  0.79944938  1
  Fe  Fe21  1  0.98564287  0.71490775  0.79944938  1
loop_
_geom_bond_atom_site_label_1
_geom_bond_atom_site_label_2
_geom_bond_distance
_geom_bond_site_symmetry_2
Ce0 Fe0 2.774297 1_555
Ce0 Fe21 3.032653 1_455
Ce0 Fe20 3.032653 1_555
Ce0 Ce4 3.145327 1_565
Ce0 Fe18 3.191803 1_555
Ce0 Ce11 3.535901 1_565
Ce0 Ce10 3.535901 1_555
Ce0 Ce6 3.767213 1_555
Ce0 Ce7 3.767213 1_555
Ce0 Ce1 3.817844 1_555
Ce1 Fe1 2.774297 1_455
Ce1 Fe20 3.032654 1_555
Ce1 Fe21 3.032654 1_455
Ce1 Ce5 3.145327 1_455
Ce1 Fe19 3.191803 1_455
Ce1 Ce10 3.535901 1_455
Ce1 Ce11 3.535901 1_555
Ce1 Ce7 3.767213 1_555
Ce1 Ce6 3.767213 1_555
Ce2 Fe2 2.774297 1_555
Ce2 Fe18 3.032654 1_545
Ce2 Fe19 3.032654 1_555
Ce2 Ce6 3.145327 1_555
Ce2 Fe20 3.191803 1_555
Ce2 Ce4 3.767213 1_555
Ce2 Ce5 3.767213 1_555
Ce2 Ce3 3.817844 1_555
Ce3 Fe3 2.774297 1_545
Ce3 Fe18 3.032654 1_545
Ce3 Fe19 3.032654 1_555
Ce3 Ce7 3.145327 1_645
Ce3 Fe21 3.191803 1_545
Ce3 Ce4 3.767213 1_555
Ce3 Ce5 3.767213 1_555
Ce4 Fe4 2.926559 1_555
Ce4 Ce9 3.577545 1_545
Ce4 Ce8 3.577545 1_555
Ce5 Fe5 2.926559 1_655
Ce5 Ce9 3.577545 1_555
Ce5 Ce8 3.577545 1_655
Ce6 Fe6 2.926559 1_555
Ce6 Ce8 3.577545 1_555
Ce6 Ce9 3.577545 1_555
Ce7 Fe7 2.926559 1_565
Ce7 Ce9 3.577545 1_455
Ce7 Ce8 3.577545 1_565
Ce8 Fe8 2.983581 1_554
Ce8 Fe13 2.983581 1_554
Ce8 Fe12 2.983581 1_554
Ce8 Fe9 2.983581 1_554
Ce8 Fe6 3.157797 1_555
Ce8 Fe4 3.157797 1_555
Ce8 Fe5 3.157797 1_555
Ce8 Fe7 3.157797 1_555
Ce9 Fe14 2.983581 1_664
Ce9 Fe11 2.983581 1_654
Ce9 Fe10 2.983581 1_564
Ce9 Fe15 2.983581 1_554
Ce9 Fe7 3.157797 1_665
Ce9 Fe4 3.157797 1_565
Ce9 Fe5 3.157797 1_655
Ce9 Fe6 3.157797 1_555
Ce10 Fe8 2.942856 1_555
Ce10 Fe13 2.942856 1_555
Ce10 Fe12 2.942856 1_555
Ce10 Fe9 2.942856 1_555
Ce10 Fe3 3.141127 1_555
Ce10 Fe1 3.141127 1_555
Ce10 Fe0 3.141127 1_555
Ce10 Fe2 3.141127 1_555
Ce10 Fe21 3.273676 1_555
Ce10 Fe18 3.273676 1_555
Ce10 Fe19 3.273677 1_555
Ce10 Fe20 3.273677 1_555
Ce10 Ce3 3.535901 1_565
Ce10 Ce2 3.535901 1_555
Ce11 Fe14 2.942856 1_555
Ce11 Fe11 2.942856 1_545
Ce11 Fe10 2.942856 1_455
Ce11 Fe15 2.942856 1_445
Ce11 Fe2 3.141127 1_555
Ce11 Fe1 3.141127 1_455
Ce11 Fe0 3.141127 1_545
Ce11 Fe3 3.141127 1_445
Ce11 Fe20 3.273676 1_555
Ce11 Fe18 3.273676 1_545
Ce11 Fe19 3.273677 1_455
Ce11 Fe21 3.273677 1_445
Ce11 Ce2 3.535901 1_555
Ce11 Ce3 3.535901 1_455
Al0 Ce9 3.151319 1_555
Al0 Ce10 3.159010 1_555
Al0 Ce5 3.238993 1_555
Al0 Ce6 3.238993 1_555
Al0 Ce7 3.238993 1_655
Al0 Ce4 3.238993 1_565
Al0 Ce3 3.318793 1_565
Al0 Ce1 3.318793 1_655
Al0 Ce0 3.318793 1_555
Al0 Ce2 3.318793 1_555
Al1 Ce8 3.151319 1_555
Al1 Ce11 3.159010 1_555
Al1 Ce7 3.238993 1_545
Al1 Ce4 3.238993 1_555
Al1 Ce6 3.238993 1_555
Al1 Ce5 3.238993 1_455
Al1 Ce2 3.318793 1_555
Al1 Ce1 3.318793 1_555
Al1 Ce0 3.318793 1_545
Al1 Ce3 3.318793 1_455
Al2 Fe4 2.493062 1_555
Al2 Fe6 2.573109 1_545
Al2 Fe7 2.573109 1_555
Al2 Fe17 2.579034 1_554
Al2 Fe10 2.619066 1_554
Al2 Fe12 2.619066 1_554
Al2 Al3 2.742908 1_545
Al2 Ce4 3.182549 1_555
Al2 Ce6 3.225101 1_545
Al2 Ce7 3.225101 1_545
Al2 Ce9 3.250909 1_545
Al2 Ce8 3.250909 1_555
Al3 Fe5 2.493062 1_555
Al3 Fe6 2.573109 1_555
Al3 Fe7 2.573109 1_565
Al3 Fe17 2.579034 1_564
Al3 Fe11 2.619066 1_554
Al3 Fe13 2.619066 1_554
Al3 Ce5 3.182549 1_455
Al3 Ce7 3.225101 1_555
Al3 Ce6 3.225101 1_555
Al3 Ce8 3.250909 1_555
Al3 Ce9 3.250909 1_455
Al4 Fe6 2.493062 1_555
Al4 Fe5 2.573109 1_655
Al4 Fe4 2.573109 1_555
Al4 Fe16 2.579034 1_654
Al4 Fe15 2.619066 1_554
Al4 Fe8 2.619066 1_554
Al4 Al5 2.742908 1_655
Al4 Ce6 3.182549 1_555
Al4 Ce5 3.225101 1_555
Al4 Ce4 3.225101 1_555
Al4 Ce8 3.250909 1_555
Al4 Ce9 3.250909 1_555
Al5 Fe7 2.493062 1_555
Al5 Fe4 2.573109 1_455
Al5 Fe5 2.573109 1_555
Al5 Fe16 2.579034 1_554
Al5 Fe14 2.619066 1_554
Al5 Fe9 2.619066 1_554
Al5 Ce7 3.182549 1_545
Al5 Ce5 3.225101 1_455
Al5 Ce4 3.225101 1_455
Al5 Ce9 3.250909 1_445
Al5 Ce8 3.250909 1_555
Fe0 Fe16 2.466746 1_555
Fe0 Fe11 2.486739 1_555
Fe0 Fe13 2.486739 1_555
Fe0 Fe18 2.519022 1_555
Fe0 Fe21 2.571898 1_455
Fe0 Fe20 2.571898 1_555
Fe0 Fe9 2.583587 1_555
Fe0 Fe15 2.583587 1_455
Fe0 Fe5 2.747861 1_556
Fe1 Fe16 2.466746 1_655
Fe1 Fe10 2.486739 1_555
Fe1 Fe12 2.486739 1_555
Fe1 Fe19 2.519022 1_555
Fe1 Fe20 2.571898 1_655
Fe1 Fe21 2.571898 1_555
Fe1 Fe8 2.583587 1_555
Fe1 Fe14 2.583587 1_655
Fe1 Fe4 2.747861 1_556
Fe2 Fe9 2.486739 1_555
Fe2 Fe20 2.519022 1_555
Fe2 Fe7 2.747861 1_556
Fe3 Fe8 2.486739 1_555
Fe3 Fe6 2.747861 1_556
Fe4 Fe8 2.586835 1_554
Fe5 Fe9 2.586835 1_554
Fe6 Fe8 2.518282 1_554
Fe7 Fe9 2.518282 1_554
Fe10 Fe17 2.406986 1_555
Fe10 Fe4 2.518282 1_556
Fe10 Fe12 2.526596 1_555
Fe10 Fe15 2.563610 1_545
Fe10 Fe14 2.563610 1_655
Fe10 Fe3 2.583587 1_545
Fe10 Fe6 2.586835 1_546
Fe10 Fe19 2.623575 1_555
Fe11 Fe17 2.406986 1_565
Fe11 Fe5 2.518282 1_556
Fe11 Fe13 2.526596 1_555
Fe11 Fe14 2.563610 1_565
Fe11 Fe15 2.563610 1_455
Fe11 Fe2 2.583587 1_565
Fe11 Fe7 2.586835 1_566
Fe11 Fe18 2.623575 1_555
Fe12 Fe17 2.406986 1_555
Fe12 Fe4 2.518282 1_556
Fe12 Fe8 2.563610 1_555
Fe12 Fe9 2.563610 1_555
Fe12 Fe2 2.583587 1_555
Fe12 Fe7 2.586835 1_556
Fe12 Fe19 2.623575 1_555
Fe13 Fe17 2.406986 1_565
Fe13 Fe5 2.518282 1_556
Fe13 Fe9 2.563610 1_555
Fe13 Fe8 2.563610 1_555
Fe13 Fe3 2.583587 1_555
Fe13 Fe6 2.586835 1_556
Fe13 Fe18 2.623575 1_555
Fe14 Fe16 2.406986 1_555
Fe14 Fe2 2.486739 1_555
Fe14 Fe7 2.518282 1_556
Fe14 Fe9 2.526596 1_555
Fe14 Fe4 2.586835 1_456
Fe14 Fe20 2.623575 1_555
Fe15 Fe16 2.406986 1_655
Fe15 Fe3 2.486739 1_555
Fe15 Fe6 2.518282 1_556
Fe15 Fe8 2.526596 1_555
Fe15 Fe5 2.586835 1_656
Fe15 Fe21 2.623575 1_555
Fe16 Fe9 2.406986 1_555
Fe16 Fe8 2.406986 1_455
Fe16 Fe5 2.446546 1_556
Fe16 Fe4 2.446546 1_456
Fe16 Fe21 2.554965 1_455
Fe16 Fe20 2.554965 1_555
Fe17 Fe7 2.446546 1_556
Fe17 Fe6 2.446546 1_546
Fe17 Fe3 2.466746 1_545
Fe17 Fe2 2.466746 1_555
Fe17 Fe19 2.554965 1_555
Fe17 Fe18 2.554965 1_545
Fe18 Fe3 2.571898 1_555
Fe18 Fe2 2.571898 1_565
Fe18 Fe19 2.637649 1_565
Fe19 Fe3 2.571898 1_545
Fe19 Fe2 2.571898 1_555
Fe20 Fe9 2.623575 1_555
Fe20 Fe21 2.637649 1_455
Fe21 Fe3 2.519022 1_555
Fe21 Fe8 2.623575 1_555
