# generated using pymatgen
data_Y3Si3Pd2
_symmetry_space_group_name_H-M   'P 1'
_cell_length_a   5.62609716
_cell_length_b   5.62609945
_cell_length_c   14.18727350
_cell_angle_alpha   90.00619499
_cell_angle_beta   89.99385068
_cell_angle_gamma   135.60670048
_symmetry_Int_Tables_number   1
_chemical_formula_structural   Y3Si3Pd2
_chemical_formula_sum   'Y6 Si6 Pd4'
_cell_volume   314.15995090
_cell_formula_units_Z   2
loop_
 _symmetry_equiv_pos_site_id
 _symmetry_equiv_pos_as_xyz
  1  'x, y, z'
loop_
 _atom_site_type_symbol
 _atom_site_label
 _atom_site_symmetry_multiplicity
 _atom_site_fract_x
 _atom_site_fract_y
 _atom_site_fract_z
 _atom_site_occupancy
  Y  Y0  1  0.40936081  0.59063909  0.39029844  1
  Y  Y1  1  0.59064206  0.40935650  0.60971064  1
  Y  Y2  1  0.86756443  0.13243375  0.75001496  1
  Y  Y3  1  0.13243890  0.86756162  0.24998324  1
  Y  Y4  1  0.40931455  0.59068582  0.10966190  1
  Y  Y5  1  0.59068007  0.40931891  0.89032689  1
  Si  Si0  1  0.83649181  0.16350832  0.24997093  1
  Si  Si1  1  0.16351676  0.83648186  0.75002583  1
  Si  Si2  1  0.89471259  0.10528649  0.53896935  1
  Si  Si3  1  0.10527213  0.89472784  0.46104573  1
  Si  Si4  1  0.10533721  0.89466335  0.03891561  1
  Si  Si5  1  0.89469139  0.10530855  0.96107750  1
  Pd  Pd0  1  0.29889840  0.70110044  0.59642881  1
  Pd  Pd1  1  0.70108651  0.29891453  0.40359343  1
  Pd  Pd2  1  0.70103311  0.29897320  0.09645076  1
  Pd  Pd3  1  0.29896029  0.70103872  0.90352598  1
loop_
_geom_bond_atom_site_label_1
_geom_bond_atom_site_label_2
_geom_bond_distance
_geom_bond_site_symmetry_2
Si0 Y3 3.006162 1_545
Si0 Y3 3.006165 1_655
Si0 Y4 3.009211 1_545
Si0 Y4 3.009214 1_655
Si0 Y0 3.009622 1_655
Si0 Y0 3.009627 1_545
Si0 Y3 3.083271 1_645
Si1 Y2 3.006123 1_565
Si1 Y2 3.006126 1_455
Si1 Y5 3.009174 1_565
Si1 Y5 3.009175 1_455
Si1 Y1 3.009522 1_455
Si1 Y1 3.009525 1_565
Si1 Y2 3.083326 1_465
Si2 Si3 2.456384 1_645
Si2 Y0 2.998278 1_545
Si2 Y0 2.998283 1_655
Si2 Y2 3.007458 1_555
Si2 Y1 3.113209 1_655
Si2 Y1 3.113214 1_545
Si2 Y1 3.322971 1_555
Si3 Y1 2.998207 1_565
Si3 Y1 2.998215 1_455
Si3 Y3 3.007715 1_555
Si3 Y0 3.113111 1_455
Si3 Y0 3.113114 1_565
Si3 Y0 3.323180 1_555
Si4 Si5 2.456872 1_464
Si4 Y5 2.997489 1_564
Si4 Y5 2.997491 1_454
Si4 Y3 3.007789 1_555
Si4 Y4 3.113715 1_565
Si4 Y4 3.113715 1_455
Si4 Y4 3.322293 1_555
Si5 Y4 2.997428 1_656
Si5 Y4 2.997430 1_546
Si5 Y2 3.007741 1_555
Si5 Y5 3.113505 1_655
Si5 Y5 3.113508 1_545
Si5 Y5 3.322643 1_555
Pd0 Si2 2.485638 1_455
Pd0 Si2 2.485639 1_565
Pd0 Si1 2.595617 1_555
Pd0 Si3 2.785574 1_555
Pd0 Y1 3.043111 1_455
Pd0 Y1 3.043112 1_565
Pd0 Y1 3.045339 1_555
Pd0 Y2 3.126920 1_565
Pd0 Y2 3.126926 1_455
Pd0 Y0 3.142595 1_555
Pd1 Si3 2.485602 1_655
Pd1 Si3 2.485606 1_545
Pd1 Si0 2.596058 1_555
Pd1 Si2 2.785506 1_555
Pd1 Y0 3.043259 1_655
Pd1 Y0 3.043264 1_545
Pd1 Y0 3.045157 1_555
Pd1 Y3 3.127115 1_545
Pd1 Y3 3.127117 1_655
Pd1 Y1 3.142350 1_555
Pd2 Si4 2.485552 1_655
Pd2 Si4 2.485570 1_545
Pd2 Si0 2.595432 1_555
Pd2 Si5 2.785416 1_554
Pd2 Y4 3.043281 1_655
Pd2 Y4 3.043300 1_545
Pd2 Y4 3.044941 1_555
Pd2 Y3 3.126088 1_655
Pd2 Y3 3.126108 1_545
Pd2 Y5 3.142329 1_554
Pd3 Si5 2.485794 1_455
Pd3 Si5 2.485795 1_565
Pd3 Si1 2.595089 1_555
Pd3 Si4 2.785292 1_556
Pd3 Y5 3.043248 1_455
Pd3 Y5 3.043250 1_565
Pd3 Y5 3.044974 1_555
Pd3 Y2 3.125917 1_455
Pd3 Y2 3.125917 1_565
Pd3 Y4 3.142504 1_556
