# generated using pymatgen
data_Mg14ZrBi
_symmetry_space_group_name_H-M   'P 1'
_cell_length_a   6.39628481
_cell_length_b   6.39628429
_cell_length_c   10.52297558
_cell_angle_alpha   90.00000000
_cell_angle_beta   90.00000000
_cell_angle_gamma   120.00000275
_symmetry_Int_Tables_number   1
_chemical_formula_structural   Mg14ZrBi
_chemical_formula_sum   'Mg14 Zr1 Bi1'
_cell_volume   372.84191833
_cell_formula_units_Z   1
loop_
 _symmetry_equiv_pos_site_id
 _symmetry_equiv_pos_as_xyz
  1  'x, y, z'
loop_
 _atom_site_type_symbol
 _atom_site_label
 _atom_site_symmetry_multiplicity
 _atom_site_fract_x
 _atom_site_fract_y
 _atom_site_fract_z
 _atom_site_occupancy
  Mg  Mg0  1  0.17165440  0.83582670  0.12500000  1
  Mg  Mg1  1  0.16370219  0.83185060  0.62500000  1
  Mg  Mg2  1  0.66417330  0.32834560  0.12500000  1
  Mg  Mg3  1  0.66814940  0.33629781  0.62500000  1
  Mg  Mg4  1  0.66417330  0.83582670  0.12500000  1
  Mg  Mg5  1  0.66814940  0.83185060  0.62500000  1
  Mg  Mg6  1  0.33048491  0.16951509  0.36774567  1
  Mg  Mg7  1  0.33048491  0.16951509  0.88225433  1
  Mg  Mg8  1  0.33048491  0.66097082  0.36774567  1
  Mg  Mg9  1  0.33048491  0.66097082  0.88225433  1
  Mg  Mg10  1  0.83902918  0.16951509  0.36774567  1
  Mg  Mg11  1  0.83902918  0.16951509  0.88225433  1
  Mg  Mg12  1  0.83333300  0.66666700  0.36810950  1
  Mg  Mg13  1  0.83333300  0.66666700  0.88189050  1
  Zr  Zr0  1  0.16666700  0.33333300  0.12500000  1
  Bi  Bi0  1  0.16666700  0.33333300  0.62500000  1
loop_
_geom_bond_atom_site_label_1
_geom_bond_atom_site_label_2
_geom_bond_distance
_geom_bond_site_symmetry_2
Mg0 Mg2 3.150291 1_565
Mg0 Mg4 3.150291 1_555
Mg0 Mg8 3.153445 1_555
Mg0 Mg9 3.153445 1_554
Mg0 Mg7 3.153452 1_564
Mg0 Mg6 3.153452 1_565
Mg0 Mg13 3.171236 1_454
Mg0 Mg12 3.171236 1_455
Mg0 Zr0 3.198261 1_555
Mg0 Zr0 3.198261 1_565
Mg0 Mg2 3.245993 1_455
Mg0 Mg4 3.245994 1_455
Mg1 Mg12 3.264442 1_455
Mg1 Mg13 3.264442 1_455
Mg1 Mg8 3.290435 1_555
Mg1 Mg9 3.290435 1_555
Mg1 Mg6 3.290441 1_565
Mg1 Mg7 3.290441 1_565
Mg2 Mg4 3.150291 1_545
Mg2 Mg6 3.153452 1_555
Mg2 Mg7 3.153452 1_554
Mg2 Zr0 3.198262 1_655
Mg2 Zr0 3.198262 1_555
Mg2 Mg4 3.245993 1_555
Mg3 Mg6 3.290442 1_555
Mg3 Mg7 3.290442 1_555
Mg4 Mg9 3.153452 1_554
Mg4 Mg8 3.153452 1_555
Mg4 Zr0 3.198261 1_555
Mg4 Zr0 3.198261 1_665
Mg5 Mg9 3.290442 1_555
Mg5 Mg8 3.290442 1_555
Mg6 Zr0 3.133498 1_555
Mg6 Mg8 3.143491 1_555
Mg6 Mg8 3.252794 1_545
Mg7 Zr0 3.133498 1_556
Mg7 Mg9 3.143491 1_555
Mg7 Mg9 3.252794 1_545
Mg8 Zr0 3.133505 1_555
Mg9 Zr0 3.133505 1_556
Mg10 Zr0 3.133505 1_655
Mg10 Mg8 3.143491 1_655
Mg10 Mg6 3.143491 1_655
Mg10 Mg2 3.153445 1_555
Mg10 Mg4 3.153452 1_545
Mg10 Mg12 3.198300 1_545
Mg10 Mg12 3.198300 1_555
Mg10 Mg8 3.252794 1_545
Mg10 Mg6 3.252794 1_555
Mg10 Mg3 3.290435 1_555
Mg10 Mg5 3.290441 1_545
Mg11 Zr0 3.133505 1_656
Mg11 Mg9 3.143491 1_655
Mg11 Mg7 3.143491 1_655
Mg11 Mg2 3.153445 1_556
Mg11 Mg4 3.153452 1_546
Mg11 Mg13 3.198300 1_545
Mg11 Mg13 3.198300 1_555
Mg11 Mg9 3.252794 1_545
Mg11 Mg7 3.252794 1_555
Mg11 Mg3 3.290435 1_555
Mg11 Mg5 3.290441 1_545
Mg12 Mg4 3.171230 1_555
Mg12 Mg2 3.171236 1_555
Mg12 Mg6 3.198300 1_665
Mg12 Mg6 3.198300 1_555
Mg12 Mg8 3.198300 1_555
Mg12 Mg8 3.198300 1_655
Mg12 Mg5 3.264436 1_555
Mg12 Mg3 3.264442 1_555
Mg13 Mg4 3.171230 1_556
Mg13 Mg2 3.171236 1_556
Mg13 Mg7 3.198300 1_665
Mg13 Mg7 3.198300 1_555
Mg13 Mg9 3.198300 1_555
Mg13 Mg9 3.198300 1_655
Mg13 Mg5 3.264436 1_555
Mg13 Mg3 3.264442 1_555
Bi0 Mg1 3.198184 1_545
Bi0 Mg5 3.198184 1_445
Bi0 Mg5 3.198184 1_555
Bi0 Mg1 3.198184 1_555
Bi0 Mg3 3.198185 1_555
Bi0 Mg3 3.198185 1_455
Bi0 Mg7 3.259157 1_555
Bi0 Mg6 3.259157 1_555
Bi0 Mg9 3.259163 1_555
Bi0 Mg8 3.259163 1_555
Bi0 Mg10 3.259163 1_455
Bi0 Mg11 3.259163 1_455
