# generated using pymatgen
data_KMoN2
_symmetry_space_group_name_H-M   'P 1'
_cell_length_a   5.85108200
_cell_length_b   11.86909900
_cell_length_c   16.99468900
_cell_angle_alpha   90.00000000
_cell_angle_beta   90.00000000
_cell_angle_gamma   90.00000000
_symmetry_Int_Tables_number   1
_chemical_formula_structural   KMoN2
_chemical_formula_sum   'K16 Mo16 N32'
_cell_volume   1180.23138236
_cell_formula_units_Z   16
loop_
 _symmetry_equiv_pos_site_id
 _symmetry_equiv_pos_as_xyz
  1  'x, y, z'
loop_
 _atom_site_type_symbol
 _atom_site_label
 _atom_site_symmetry_multiplicity
 _atom_site_fract_x
 _atom_site_fract_y
 _atom_site_fract_z
 _atom_site_occupancy
  K  K0  1  0.25736700  0.00075600  0.43772800  1
  K  K1  1  0.75736700  0.49924400  0.56227200  1
  K  K2  1  0.74263300  0.50075600  0.06227200  1
  K  K3  1  0.24263300  0.99924400  0.93772800  1
  K  K4  1  0.74263300  0.99924400  0.56227200  1
  K  K5  1  0.24263300  0.50075600  0.43772800  1
  K  K6  1  0.25736700  0.49924400  0.93772800  1
  K  K7  1  0.75736700  0.00075600  0.06227200  1
  K  K8  1  0.25709700  0.25265400  0.31354200  1
  K  K9  1  0.75709700  0.24734600  0.68645800  1
  K  K10  1  0.74290300  0.75265400  0.18645800  1
  K  K11  1  0.24290300  0.74734600  0.81354200  1
  K  K12  1  0.74290300  0.74734600  0.68645800  1
  K  K13  1  0.24290300  0.75265400  0.31354200  1
  K  K14  1  0.25709700  0.24734600  0.81354200  1
  K  K15  1  0.75709700  0.25265400  0.18645800  1
  Mo  Mo0  1  0.77619800  0.00297500  0.30942900  1
  Mo  Mo1  1  0.27619800  0.49702500  0.69057100  1
  Mo  Mo2  1  0.22380200  0.50297500  0.19057100  1
  Mo  Mo3  1  0.72380200  0.99702500  0.80942900  1
  Mo  Mo4  1  0.22380200  0.99702500  0.69057100  1
  Mo  Mo5  1  0.72380200  0.50297500  0.30942900  1
  Mo  Mo6  1  0.77619800  0.49702500  0.80942900  1
  Mo  Mo7  1  0.27619800  0.00297500  0.19057100  1
  Mo  Mo8  1  0.75185900  0.25351700  0.43606700  1
  Mo  Mo9  1  0.25185900  0.24648300  0.56393300  1
  Mo  Mo10  1  0.24814100  0.75351700  0.06393300  1
  Mo  Mo11  1  0.74814100  0.74648300  0.93606700  1
  Mo  Mo12  1  0.24814100  0.74648300  0.56393300  1
  Mo  Mo13  1  0.74814100  0.75351700  0.43606700  1
  Mo  Mo14  1  0.75185900  0.24648300  0.93606700  1
  Mo  Mo15  1  0.25185900  0.25351700  0.06393300  1
  N  N0  1  0.00718400  0.29731400  0.49915900  1
  N  N1  1  0.50718400  0.20268600  0.50084100  1
  N  N2  1  0.99281600  0.79731400  0.00084100  1
  N  N3  1  0.49281600  0.70268600  0.99915900  1
  N  N4  1  0.99281600  0.70268600  0.50084100  1
  N  N5  1  0.49281600  0.79731400  0.49915900  1
  N  N6  1  0.00718400  0.20268600  0.99915900  1
  N  N7  1  0.50718400  0.29731400  0.00084100  1
  N  N8  1  0.65088900  0.37780600  0.37458300  1
  N  N9  1  0.15088900  0.12219400  0.62541700  1
  N  N10  1  0.34911100  0.87780600  0.12541700  1
  N  N11  1  0.84911100  0.62219400  0.87458300  1
  N  N12  1  0.34911100  0.62219400  0.62541700  1
  N  N13  1  0.84911100  0.87780600  0.37458300  1
  N  N14  1  0.65088900  0.12219400  0.87458300  1
  N  N15  1  0.15088900  0.37780600  0.12541700  1
  N  N16  1  0.84331400  0.13770500  0.36553400  1
  N  N17  1  0.34331400  0.36229500  0.63446600  1
  N  N18  1  0.15668600  0.63770500  0.13446600  1
  N  N19  1  0.65668600  0.86229500  0.86553400  1
  N  N20  1  0.15668600  0.86229500  0.63446600  1
  N  N21  1  0.65668600  0.63770500  0.36553400  1
  N  N22  1  0.84331400  0.36229500  0.86553400  1
  N  N23  1  0.34331400  0.13770500  0.13446600  1
  N  N24  1  0.53844600  0.49826100  0.21643500  1
  N  N25  1  0.03844600  0.00173900  0.78356500  1
  N  N26  1  0.46155400  0.99826100  0.28356500  1
  N  N27  1  0.96155400  0.50173900  0.71643500  1
  N  N28  1  0.46155400  0.50173900  0.78356500  1
  N  N29  1  0.96155400  0.99826100  0.21643500  1
  N  N30  1  0.53844600  0.00173900  0.71643500  1
  N  N31  1  0.03844600  0.49826100  0.28356500  1
loop_
_geom_bond_atom_site_label_1
_geom_bond_atom_site_label_2
_geom_bond_distance
_geom_bond_site_symmetry_2
K0 N26 2.879648 1_545
K0 N5 2.969588 1_545
K0 N13 2.997875 1_445
K0 N1 3.005213 1_555
K0 N16 3.164920 1_455
K1 N27 2.879648 1_555
K1 N4 2.969588 1_555
K1 N12 2.997875 1_555
K1 N0 3.005213 1_655
K1 N17 3.164920 1_555
K2 N24 2.879648 1_555
K2 N7 2.969588 1_555
K2 N15 2.997875 1_655
K2 N3 3.005213 1_554
K2 N18 3.164920 1_655
K3 N25 2.879648 1_565
K3 N6 2.969588 1_565
K3 N14 2.997875 1_565
K3 N2 3.005213 1_456
K3 N19 3.164920 1_555
K4 N30 2.879648 1_565
K4 N1 2.969588 1_565
K4 N9 2.997875 1_665
K4 N5 3.005213 1_555
K4 N20 3.164920 1_655
K5 N31 2.879648 1_555
K5 N0 2.969588 1_555
K5 N8 2.997875 1_555
K5 N4 3.005213 1_455
K5 N21 3.164920 1_555
K6 N28 2.879648 1_555
K6 N3 2.969588 1_555
K6 N11 2.997875 1_455
K6 N7 3.005213 1_556
K6 N22 3.164920 1_455
K7 N29 2.879648 1_545
K7 N2 2.969588 1_545
K7 N10 2.997875 1_545
K7 N6 3.005213 1_654
K7 N23 3.164920 1_555
K8 N16 2.916123 1_455
K8 N8 2.931143 1_555
K8 N31 3.224014 1_555
K8 N26 3.287481 1_545
K8 N23 3.373104 1_555
K9 N17 2.916123 1_555
K9 N9 2.931143 1_655
K9 N30 3.224014 1_555
K9 N27 3.287481 1_555
K9 N22 3.373104 1_555
K10 N18 2.916123 1_655
K10 N10 2.931143 1_555
K10 N29 3.224014 1_555
K10 N24 3.287481 1_555
K10 N21 3.373104 1_555
K11 N19 2.916123 1_555
K11 N11 2.931143 1_455
K11 N28 3.224014 1_555
K11 N25 3.287481 1_565
K11 N20 3.373104 1_555
K12 N20 2.916123 1_655
K12 N12 2.931143 1_555
K12 N27 3.224014 1_555
K12 N30 3.287481 1_565
K12 N19 3.373104 1_555
K13 N21 2.916123 1_555
K13 N13 2.931143 1_455
K13 N26 3.224014 1_555
K13 N31 3.287481 1_555
K13 N18 3.373104 1_555
K14 N22 2.916123 1_455
K14 N14 2.931143 1_555
K14 N25 3.224014 1_555
K14 N28 3.287481 1_555
K14 N17 3.373104 1_555
K15 N23 2.916123 1_555
K15 N15 2.931143 1_655
K15 N24 3.224014 1_555
K15 N29 3.287481 1_545
K15 N16 3.373104 1_555
Mo0 N26 1.893580 1_545
Mo0 N13 1.901366 1_545
Mo0 N16 1.902774 1_555
Mo0 N29 1.917556 1_545
Mo1 N27 1.893580 1_455
Mo1 N12 1.901366 1_555
Mo1 N17 1.902774 1_555
Mo1 N28 1.917556 1_555
Mo2 N24 1.893580 1_555
Mo2 N15 1.901366 1_555
Mo2 N18 1.902774 1_555
Mo2 N31 1.917556 1_555
Mo3 N25 1.893580 1_665
Mo3 N14 1.901366 1_565
Mo3 N19 1.902774 1_555
Mo3 N30 1.917556 1_565
Mo4 N30 1.893580 1_565
Mo4 N9 1.901366 1_565
Mo4 N20 1.902774 1_555
Mo4 N25 1.917556 1_565
Mo5 N31 1.893580 1_655
Mo5 N8 1.901366 1_555
Mo5 N21 1.902774 1_555
Mo5 N24 1.917556 1_555
Mo6 N28 1.893580 1_555
Mo6 N11 1.901366 1_555
Mo6 N22 1.902774 1_555
Mo6 N27 1.917556 1_555
Mo7 N29 1.893580 1_445
Mo7 N10 1.901366 1_545
Mo7 N23 1.902774 1_555
Mo7 N26 1.917556 1_545
Mo8 N16 1.900704 1_555
Mo8 N8 1.901856 1_555
Mo8 N1 1.904022 1_555
Mo8 N0 1.910947 1_655
Mo9 N17 1.900704 1_555
Mo9 N9 1.901856 1_555
Mo9 N0 1.904022 1_555
Mo9 N1 1.910947 1_555
Mo10 N18 1.900704 1_555
Mo10 N10 1.901856 1_555
Mo10 N3 1.904022 1_554
Mo10 N2 1.910947 1_455
Mo11 N19 1.900704 1_555
Mo11 N11 1.901856 1_555
Mo11 N2 1.904022 1_556
Mo11 N3 1.910947 1_555
Mo12 N20 1.900704 1_555
Mo12 N12 1.901856 1_555
Mo12 N5 1.904022 1_555
Mo12 N4 1.910947 1_455
Mo13 N21 1.900704 1_555
Mo13 N13 1.901856 1_555
Mo13 N4 1.904022 1_555
Mo13 N5 1.910947 1_555
Mo14 N22 1.900704 1_555
Mo14 N14 1.901856 1_555
Mo14 N7 1.904022 1_556
Mo14 N6 1.910947 1_655
Mo15 N23 1.900704 1_555
Mo15 N15 1.901856 1_555
Mo15 N6 1.904022 1_554
Mo15 N7 1.910947 1_555
