# generated using pymatgen
data_NbTlO3
_symmetry_space_group_name_H-M   'P 1'
_cell_length_a   7.60648588
_cell_length_b   7.60648588
_cell_length_c   13.15888899
_cell_angle_alpha   73.18668832
_cell_angle_beta   73.18668832
_cell_angle_gamma   60.08407658
_symmetry_Int_Tables_number   1
_chemical_formula_structural   NbTlO3
_chemical_formula_sum   'Nb8 Tl8 O24'
_cell_volume   621.98064682
_cell_formula_units_Z   8
loop_
 _symmetry_equiv_pos_site_id
 _symmetry_equiv_pos_as_xyz
  1  'x, y, z'
loop_
 _atom_site_type_symbol
 _atom_site_label
 _atom_site_symmetry_multiplicity
 _atom_site_fract_x
 _atom_site_fract_y
 _atom_site_fract_z
 _atom_site_occupancy
  Nb  Nb0  1  0.02263769  -0.00524002  0.99647399  1
  Nb  Nb1  1  0.00702807  0.50067079  0.00936968  1
  Nb  Nb2  1  0.51989817  0.49043117  0.99280616  1
  Nb  Nb3  1  0.23903640  0.74392535  0.74795571  1
  Nb  Nb4  1  0.49043117  0.51989817  0.49280616  1
  Nb  Nb5  1  0.50067079  0.00702807  0.50936968  1
  Nb  Nb6  1  -0.00524002  0.02263769  0.49647399  1
  Nb  Nb7  1  0.74392535  0.23903640  0.24795571  1
  Tl  Tl0  1  0.70337351  0.79500480  0.76304858  1
  Tl  Tl1  1  0.71197559  0.24300696  0.75081171  1
  Tl  Tl2  1  0.16927090  0.28888669  0.74953251  1
  Tl  Tl3  1  0.99235944  0.51133735  0.51149999  1
  Tl  Tl4  1  0.24300696  0.71197559  0.25081171  1
  Tl  Tl5  1  0.79500480  0.70337351  0.26304858  1
  Tl  Tl6  1  0.51133735  0.99235944  0.01149999  1
  Tl  Tl7  1  0.28888669  0.16927090  0.24953251  1
  O  O0  1  0.72370264  0.58769277  0.97091968  1
  O  O1  1  0.09630603  0.96359283  0.84578242  1
  O  O2  1  0.03522188  0.90777900  0.65469505  1
  O  O3  1  0.09957272  0.21757281  0.96515442  1
  O  O4  1  0.39917650  0.91333334  0.65724650  1
  O  O5  1  0.72277677  0.21518504  0.97056109  1
  O  O6  1  0.21757281  0.09957272  0.46515442  1
  O  O7  1  0.47495778  0.59321995  0.84202638  1
  O  O8  1  0.09145558  0.59671414  0.84511136  1
  O  O9  1  0.77683233  0.28454194  0.53319848  1
  O  O10  1  0.40786798  0.28482879  0.52905784  1
  O  O11  1  0.40138586  0.53249823  0.65656642  1
  O  O12  1  0.59321995  0.47495778  0.34202638  1
  O  O13  1  0.58769277  0.72370264  0.47091968  1
  O  O14  1  0.91333334  0.39917650  0.15724650  1
  O  O15  1  0.53249823  0.40138586  0.15656642  1
  O  O16  1  0.21518504  0.72277677  0.47056109  1
  O  O17  1  0.77693978  0.91106046  0.53439904  1
  O  O18  1  0.28454194  0.77683233  0.03319848  1
  O  O19  1  0.96359283  0.09630603  0.34578242  1
  O  O20  1  0.59671414  0.09145558  0.34511136  1
  O  O21  1  0.91106046  0.77693978  0.03439904  1
  O  O22  1  0.90777900  0.03522188  0.15469505  1
  O  O23  1  0.28482879  0.40786798  0.02905784  1
loop_
_geom_bond_atom_site_label_1
_geom_bond_atom_site_label_2
_geom_bond_distance
_geom_bond_site_symmetry_2
Nb0 O18 1.936412 1_546
Nb0 O1 1.949068 1_545
Nb0 O3 1.957149 1_555
Nb0 O22 2.059853 1_456
Nb0 O21 2.096125 1_446
Nb0 O5 2.105837 1_455
Nb1 O23 1.937426 1_555
Nb1 O14 1.941105 1_455
Nb1 O21 1.946431 1_455
Nb1 O0 2.086336 1_454
Nb1 O8 2.090328 1_554
Nb1 O3 2.108784 1_554
Nb2 O5 1.929000 1_555
Nb2 O0 1.948316 1_555
Nb2 O7 1.973103 1_555
Nb2 O23 2.066980 1_556
Nb2 O15 2.078922 1_556
Nb2 O18 2.112489 1_556
Nb3 O8 1.934910 1_555
Nb3 O2 1.936846 1_555
Nb3 O11 1.958654 1_555
Nb3 O1 2.062544 1_555
Nb3 O4 2.098508 1_555
Nb3 O7 2.116370 1_555
Nb4 O16 1.929000 1_555
Nb4 O13 1.948316 1_555
Nb4 O12 1.973103 1_555
Nb4 O10 2.066980 1_555
Nb4 O11 2.078922 1_555
Nb4 O9 2.112489 1_555
Nb5 O10 1.937426 1_555
Nb5 O4 1.941105 1_545
Nb5 O17 1.946431 1_545
Nb5 O13 2.086336 1_545
Nb5 O20 2.090328 1_555
Nb5 O6 2.108784 1_555
Nb6 O9 1.936412 1_455
Nb6 O19 1.949068 1_455
Nb6 O6 1.957149 1_555
Nb6 O2 2.059853 1_545
Nb6 O17 2.096125 1_445
Nb6 O16 2.105837 1_545
Nb7 O20 1.934910 1_555
Nb7 O22 1.936846 1_555
Nb7 O15 1.958654 1_555
Nb7 O19 2.062544 1_555
Nb7 O14 2.098508 1_555
Nb7 O12 2.116370 1_555
O0 Tl0 2.738403 1_555
O0 Tl6 2.803830 1_556
O1 Tl2 2.680429 1_565
O2 Tl1 2.821392 1_465
O3 Tl2 2.674339 1_555
O3 Tl6 2.874939 1_546
O4 Tl0 2.676530 1_555
O5 Tl6 2.727491 1_546
O5 Tl1 2.859947 1_555
O6 Tl7 2.674339 1_555
O6 Tl3 2.874939 1_455
O7 Tl0 2.673423 1_555
O7 Tl1 2.755860 1_555
O8 Tl2 2.702837 1_555
O9 Tl1 2.712553 1_555
O9 Tl3 2.830268 1_555
O10 Tl3 2.787756 1_455
O11 Tl1 2.625713 1_555
O12 Tl5 2.673423 1_555
O12 Tl4 2.755860 1_555
O13 Tl5 2.738403 1_555
O13 Tl3 2.803830 1_555
O14 Tl5 2.676530 1_555
O15 Tl4 2.625713 1_555
O16 Tl3 2.727491 1_455
O16 Tl4 2.859947 1_555
O17 Tl3 2.700977 1_555
O18 Tl4 2.712553 1_555
O18 Tl6 2.830268 1_555
O19 Tl7 2.680429 1_655
O20 Tl7 2.702837 1_555
O21 Tl6 2.700977 1_555
O22 Tl4 2.821392 1_645
O23 Tl6 2.787756 1_545
