# generated using pymatgen
data_PaH8N2F7
_symmetry_space_group_name_H-M   'P 1'
_cell_length_a   8.24218700
_cell_length_b   6.99169100
_cell_length_c   12.12481260
_cell_angle_alpha   90.00000000
_cell_angle_beta   90.56933739
_cell_angle_gamma   90.00000000
_symmetry_Int_Tables_number   1
_chemical_formula_structural   PaH8N2F7
_chemical_formula_sum   'Pa4 H32 N8 F28'
_cell_volume   698.67995442
_cell_formula_units_Z   4
loop_
 _symmetry_equiv_pos_site_id
 _symmetry_equiv_pos_as_xyz
  1  'x, y, z'
loop_
 _atom_site_type_symbol
 _atom_site_label
 _atom_site_symmetry_multiplicity
 _atom_site_fract_x
 _atom_site_fract_y
 _atom_site_fract_z
 _atom_site_occupancy
  Pa  Pa0  1  0.25438800  0.97319300  0.50621300  1
  Pa  Pa1  1  0.74561200  0.47319300  0.99378700  1
  Pa  Pa2  1  0.74561200  0.02680700  0.49378700  1
  Pa  Pa3  1  0.25438800  0.52680700  0.00621300  1
  H  H0  1  0.47033800  0.95783100  0.88548200  1
  H  H1  1  0.52966200  0.45783100  0.61451800  1
  H  H2  1  0.52966200  0.04216900  0.11451800  1
  H  H3  1  0.47033800  0.54216900  0.38548200  1
  H  H4  1  0.64542500  0.86048800  0.84300300  1
  H  H5  1  0.35457500  0.36048800  0.65699700  1
  H  H6  1  0.35457500  0.13951200  0.15699700  1
  H  H7  1  0.64542500  0.63951200  0.34300300  1
  H  H8  1  0.99638000  0.88540900  0.86609200  1
  H  H9  1  0.00362000  0.38540900  0.63390800  1
  H  H10  1  0.00362000  0.11459100  0.13390800  1
  H  H11  1  0.99638000  0.61459100  0.36609200  1
  H  H12  1  0.11368800  0.08435200  0.88495200  1
  H  H13  1  0.88631200  0.58435200  0.61504800  1
  H  H14  1  0.88631200  0.91564800  0.11504800  1
  H  H15  1  0.11368800  0.41564800  0.38495200  1
  H  H16  1  0.51228900  0.95236000  0.74962700  1
  H  H17  1  0.48771100  0.45236000  0.75037300  1
  H  H18  1  0.48771100  0.04764000  0.25037300  1
  H  H19  1  0.51228900  0.54764000  0.24962700  1
  H  H20  1  0.98810700  0.06375400  0.77396900  1
  H  H21  1  0.01189300  0.56375400  0.72603100  1
  H  H22  1  0.01189300  0.93624600  0.22603100  1
  H  H23  1  0.98810700  0.43624600  0.27396900  1
  H  H24  1  0.15519500  0.92800500  0.78268400  1
  H  H25  1  0.84480500  0.42800500  0.71731600  1
  H  H26  1  0.84480500  0.07199500  0.21731600  1
  H  H27  1  0.15519500  0.57199500  0.28268400  1
  H  H28  1  0.61869000  0.09975300  0.83295100  1
  H  H29  1  0.38131000  0.59975400  0.66704900  1
  H  H30  1  0.38131000  0.90024600  0.16704900  1
  H  H31  1  0.61869000  0.40024700  0.33295100  1
  N  N0  1  0.06342200  0.99132900  0.82826800  1
  N  N1  1  0.93657800  0.49132900  0.67173200  1
  N  N2  1  0.93657800  0.00867100  0.17173200  1
  N  N3  1  0.06342200  0.50867100  0.32826800  1
  N  N4  1  0.56141800  0.96803700  0.82783300  1
  N  N5  1  0.43858200  0.46803700  0.67216700  1
  N  N6  1  0.43858200  0.03196300  0.17216700  1
  N  N7  1  0.56141800  0.53196300  0.32783300  1
  F  F0  1  0.01852400  0.83808600  0.54432500  1
  F  F1  1  0.98147600  0.33808600  0.95567500  1
  F  F2  1  0.98147600  0.16191400  0.45567500  1
  F  F3  1  0.01852400  0.66191400  0.04432500  1
  F  F4  1  0.28914000  0.83912600  0.67515800  1
  F  F5  1  0.71086000  0.33912600  0.82484200  1
  F  F6  1  0.71086000  0.16087400  0.32484200  1
  F  F7  1  0.28914000  0.66087400  0.17515800  1
  F  F8  1  0.50076100  0.93154400  0.40630400  1
  F  F9  1  0.49923900  0.43154400  0.09369600  1
  F  F10  1  0.49923900  0.06845600  0.59369600  1
  F  F11  1  0.50076100  0.56845600  0.90630400  1
  F  F12  1  0.30574800  0.24184700  0.42559500  1
  F  F13  1  0.69425200  0.74184700  0.07440500  1
  F  F14  1  0.69425200  0.75815300  0.57440500  1
  F  F15  1  0.30574800  0.25815300  0.92559500  1
  F  F16  1  0.30734100  0.67108600  0.48127800  1
  F  F17  1  0.69265900  0.17108600  0.01872200  1
  F  F18  1  0.69265900  0.32891400  0.51872200  1
  F  F19  1  0.30734100  0.82891400  0.98127800  1
  F  F20  1  0.18619800  0.19611700  0.62881300  1
  F  F21  1  0.81380200  0.69611700  0.87118700  1
  F  F22  1  0.81380200  0.80388300  0.37118700  1
  F  F23  1  0.18619800  0.30388300  0.12881300  1
  F  F24  1  0.17078200  0.92211300  0.33919000  1
  F  F25  1  0.82921800  0.42211300  0.16081000  1
  F  F26  1  0.82921800  0.07788700  0.66081000  1
  F  F27  1  0.17078200  0.57788700  0.83919000  1
loop_
_geom_bond_atom_site_label_1
_geom_bond_atom_site_label_2
_geom_bond_distance
_geom_bond_site_symmetry_2
H0 N4 1.033269 1_555
H1 N5 1.033269 1_555
H2 N6 1.033269 1_555
H3 N7 1.033269 1_555
H4 N4 1.037376 1_555
H5 N5 1.037376 1_555
H6 N6 1.037376 1_555
H7 N7 1.037376 1_555
H8 N0 1.033984 1_655
H9 N1 1.033984 1_455
H10 N2 1.033984 1_455
H11 N3 1.033984 1_655
H12 N0 1.030218 1_545
H13 N1 1.030218 1_555
H14 N2 1.030218 1_565
H15 N3 1.030218 1_555
H16 N4 1.033198 1_555
H17 N5 1.033198 1_555
H18 N6 1.033198 1_555
H19 N7 1.033198 1_555
H20 N0 1.032996 1_645
H21 N1 1.032996 1_455
H22 N2 1.032996 1_465
H23 N3 1.032996 1_655
H24 N0 1.040173 1_555
H25 N1 1.040173 1_555
H26 N2 1.040173 1_555
H27 N3 1.040173 1_555
H28 N4 1.036429 1_545
H29 N5 1.036436 1_555
H30 N6 1.036436 1_565
H31 N7 1.036429 1_555
F0 Pa0 2.214268 1_555
F0 Pa2 2.673738 1_465
F1 Pa1 2.214268 1_555
F1 Pa3 2.673738 1_656
F2 Pa2 2.214268 1_555
F2 Pa0 2.673738 1_645
F3 Pa3 2.214268 1_555
F3 Pa1 2.673738 1_454
F4 Pa0 2.268274 1_555
F5 Pa1 2.268274 1_555
F6 Pa2 2.268274 1_555
F7 Pa3 2.268274 1_555
F8 Pa2 2.366211 1_565
F8 Pa0 2.392628 1_555
F9 Pa3 2.366211 1_555
F9 Pa1 2.392628 1_554
F10 Pa0 2.366211 1_545
F10 Pa2 2.392628 1_555
F11 Pa1 2.366211 1_555
F11 Pa3 2.392628 1_556
F12 Pa0 2.161265 1_545
F13 Pa1 2.161265 1_554
F14 Pa2 2.161265 1_565
F15 Pa3 2.161265 1_556
F16 Pa0 2.178547 1_555
F17 Pa1 2.178547 1_554
F18 Pa2 2.178547 1_555
F19 Pa3 2.178547 1_556
F20 Pa0 2.229677 1_545
F21 Pa1 2.229677 1_555
F22 Pa2 2.229677 1_565
F23 Pa3 2.229677 1_555
F24 Pa0 2.162357 1_555
F25 Pa1 2.162357 1_554
F26 Pa2 2.162357 1_555
F27 Pa3 2.162357 1_556
