# generated using pymatgen
data_Pb3Se2(IO3)2
_symmetry_space_group_name_H-M   'P 1'
_cell_length_a   7.44957479
_cell_length_b   7.44957479
_cell_length_c   14.63558259
_cell_angle_alpha   86.83195986
_cell_angle_beta   86.83195986
_cell_angle_gamma   45.98991086
_symmetry_Int_Tables_number   1
_chemical_formula_structural   Pb3Se2(IO3)2
_chemical_formula_sum   'Pb6 Se4 I4 O12'
_cell_volume   583.10820787
_cell_formula_units_Z   2
loop_
 _symmetry_equiv_pos_site_id
 _symmetry_equiv_pos_as_xyz
  1  'x, y, z'
loop_
 _atom_site_type_symbol
 _atom_site_label
 _atom_site_symmetry_multiplicity
 _atom_site_fract_x
 _atom_site_fract_y
 _atom_site_fract_z
 _atom_site_occupancy
  Pb  Pb0  1  0.56806000  0.43194000  0.25000000  1
  Pb  Pb1  1  0.43194000  0.56806000  0.75000000  1
  Pb  Pb2  1  0.81276400  0.77570300  0.34608300  1
  Pb  Pb3  1  0.22429700  0.18723600  0.15391700  1
  Pb  Pb4  1  0.18723600  0.22429700  0.65391700  1
  Pb  Pb5  1  0.77570300  0.81276400  0.84608300  1
  Se  Se0  1  0.88902000  0.90255700  0.62859200  1
  Se  Se1  1  0.09744300  0.11098000  0.87140800  1
  Se  Se2  1  0.11098000  0.09744300  0.37140800  1
  Se  Se3  1  0.90255700  0.88902000  0.12859200  1
  I  I0  1  0.35275600  0.36740900  0.44711100  1
  I  I1  1  0.63259100  0.64724400  0.05288900  1
  I  I2  1  0.64724400  0.63259100  0.55288900  1
  I  I3  1  0.36740900  0.35275600  0.94711100  1
  O  O0  1  0.93576800  0.37399500  0.30143600  1
  O  O1  1  0.62600500  0.06423200  0.19856400  1
  O  O2  1  0.06423200  0.62600500  0.69856400  1
  O  O3  1  0.37399500  0.93576800  0.80143600  1
  O  O4  1  0.97149800  0.06037700  0.14511700  1
  O  O5  1  0.93962300  0.02850200  0.35488300  1
  O  O6  1  0.02850200  0.93962300  0.85488300  1
  O  O7  1  0.06037700  0.97149800  0.64511700  1
  O  O8  1  0.09575400  0.62626000  0.20167200  1
  O  O9  1  0.37374000  0.90424600  0.29832800  1
  O  O10  1  0.90424600  0.37374000  0.79832800  1
  O  O11  1  0.62626000  0.09575400  0.70167200  1
loop_
_geom_bond_atom_site_label_1
_geom_bond_atom_site_label_2
_geom_bond_distance
_geom_bond_site_symmetry_2
I0 Pb2 3.283001 1_455
I0 Pb0 3.395977 1_555
I0 Pb2 3.539772 1_545
I0 Pb4 3.588266 1_555
I1 Pb3 3.283001 1_565
I1 Pb0 3.395977 1_555
I1 Pb3 3.539772 1_655
I1 Pb5 3.588266 1_554
I2 Pb4 3.283001 1_655
I2 Pb1 3.395977 1_555
I2 Pb4 3.539772 1_565
I2 Pb2 3.588266 1_555
I3 Pb5 3.283001 1_545
I3 Pb1 3.395977 1_555
I3 Pb5 3.539772 1_455
I3 Pb3 3.588266 1_556
O0 Se2 1.781774 1_655
O0 Pb2 2.561551 1_555
O0 Pb0 2.608743 1_555
O0 Pb3 2.623110 1_655
O1 Se3 1.781774 1_545
O1 Pb3 2.561551 1_555
O1 Pb0 2.608743 1_555
O1 Pb2 2.623110 1_545
O2 Se0 1.781774 1_455
O2 Pb4 2.561551 1_555
O2 Pb1 2.608743 1_555
O2 Pb5 2.623110 1_455
O3 Se1 1.781774 1_565
O3 Pb5 2.561551 1_555
O3 Pb1 2.608743 1_555
O3 Pb4 2.623110 1_565
O4 Se3 1.706068 1_545
O4 Pb3 2.640012 1_655
O4 Pb0 2.729574 1_555
O5 Se2 1.706068 1_655
O5 Pb2 2.640012 1_545
O5 Pb0 2.729574 1_555
O6 Se1 1.706068 1_565
O6 Pb5 2.640012 1_455
O6 Pb1 2.729574 1_555
O7 Se0 1.706068 1_455
O7 Pb4 2.640012 1_565
O7 Pb1 2.729574 1_555
O8 Se3 1.752422 1_455
O8 Pb2 2.580130 1_455
O8 Pb0 2.838988 1_555
O9 Se2 1.752422 1_565
O9 Pb3 2.580130 1_565
O9 Pb0 2.838988 1_555
O10 Se1 1.752422 1_655
O10 Pb4 2.580130 1_655
O10 Pb1 2.838988 1_555
O11 Se0 1.752422 1_545
O11 Pb5 2.580130 1_545
O11 Pb1 2.838988 1_555
