# generated using pymatgen
data_V2Zn3O8
_symmetry_space_group_name_H-M   'P 1'
_cell_length_a   6.64226665
_cell_length_b   6.64226665
_cell_length_c   8.38138200
_cell_angle_alpha   90.00000000
_cell_angle_beta   90.00000000
_cell_angle_gamma   124.55223353
_symmetry_Int_Tables_number   1
_chemical_formula_structural   V2Zn3O8
_chemical_formula_sum   'V4 Zn6 O16'
_cell_volume   304.55770128
_cell_formula_units_Z   2
loop_
 _symmetry_equiv_pos_site_id
 _symmetry_equiv_pos_as_xyz
  1  'x, y, z'
loop_
 _atom_site_type_symbol
 _atom_site_label
 _atom_site_symmetry_multiplicity
 _atom_site_fract_x
 _atom_site_fract_y
 _atom_site_fract_z
 _atom_site_occupancy
  V  V0  1  0.12175100  0.87824900  0.62008400  1
  V  V1  1  0.87824900  0.12175100  0.37991600  1
  V  V2  1  0.37824900  0.62175100  0.12008400  1
  V  V3  1  0.62175100  0.37824900  0.87991600  1
  Zn  Zn0  1  0.11320500  0.38679500  0.75000000  1
  Zn  Zn1  1  0.38679500  0.11320500  0.25000000  1
  Zn  Zn2  1  0.88679500  0.61320500  0.25000000  1
  Zn  Zn3  1  0.61320500  0.88679500  0.75000000  1
  Zn  Zn4  1  0.50000000  0.50000000  0.50000000  1
  Zn  Zn5  1  0.00000000  0.00000000  0.00000000  1
  O  O0  1  0.65457000  0.88975800  0.49967500  1
  O  O1  1  0.88975800  0.65457000  0.50032500  1
  O  O2  1  0.84543000  0.61024200  0.99967500  1
  O  O3  1  0.61024200  0.84543000  0.00032500  1
  O  O4  1  0.34543000  0.11024200  0.50032500  1
  O  O5  1  0.11024200  0.34543000  0.49967500  1
  O  O6  1  0.15457000  0.38975800  0.00032500  1
  O  O7  1  0.38975800  0.15457000  0.99967500  1
  O  O8  1  0.50042700  0.49957300  0.74417500  1
  O  O9  1  0.49957300  0.50042700  0.25582500  1
  O  O10  1  0.75037700  0.24962300  0.77362800  1
  O  O11  1  0.24962300  0.75037700  0.22637200  1
  O  O12  1  0.74962300  0.25037700  0.27362800  1
  O  O13  1  0.25037700  0.74962300  0.72637200  1
  O  O14  1  0.00042700  0.99957300  0.75582500  1
  O  O15  1  0.99957300  0.00042700  0.24417500  1
loop_
_geom_bond_atom_site_label_1
_geom_bond_atom_site_label_2
_geom_bond_distance
_geom_bond_site_symmetry_2
O0 V1 1.729886 1_565
O0 Zn3 2.114625 1_555
O0 Zn4 2.177475 1_555
O1 V0 1.729886 1_655
O1 Zn2 2.114625 1_555
O1 Zn4 2.177475 1_555
O2 V3 1.729886 1_555
O2 Zn2 2.114625 1_556
O2 Zn5 2.177475 1_666
O3 V2 1.729886 1_555
O3 Zn3 2.114625 1_554
O3 Zn5 2.177475 1_665
O4 V0 1.729886 1_545
O4 Zn1 2.114625 1_555
O4 Zn4 2.177475 1_555
O5 V1 1.729886 1_455
O5 Zn0 2.114625 1_555
O5 Zn4 2.177475 1_555
O6 V2 1.729886 1_555
O6 Zn0 2.114625 1_554
O6 Zn5 2.177475 1_555
O7 V3 1.729886 1_555
O7 Zn1 2.114625 1_556
O7 Zn5 2.177475 1_556
O8 V3 1.824786 1_555
O8 Zn4 2.046530 1_555
O8 Zn3 2.234588 1_555
O8 Zn0 2.234588 1_555
O9 V2 1.824786 1_555
O9 Zn4 2.046530 1_555
O9 Zn1 2.234588 1_555
O9 Zn2 2.234588 1_555
O10 V3 1.755413 1_555
O10 Zn0 2.046148 1_655
O10 Zn3 2.046148 1_545
O11 V2 1.755413 1_555
O11 Zn1 2.046148 1_565
O11 Zn2 2.046148 1_455
O12 V1 1.755413 1_555
O12 Zn2 2.046148 1_555
O12 Zn1 2.046148 1_555
O13 V0 1.755413 1_555
O13 Zn3 2.046148 1_555
O13 Zn0 2.046148 1_555
O14 V0 1.824786 1_555
O14 Zn5 2.046530 1_566
O14 Zn0 2.234588 1_565
O14 Zn3 2.234588 1_455
O15 V1 1.824786 1_555
O15 Zn5 2.046530 1_655
O15 Zn2 2.234588 1_545
O15 Zn1 2.234588 1_655
