# generated using pymatgen
data_TmInPd
_symmetry_space_group_name_H-M   'P 1'
_cell_length_a   7.65419803
_cell_length_b   7.65419944
_cell_length_c   3.73616334
_cell_angle_alpha   90.00000000
_cell_angle_beta   90.00000000
_cell_angle_gamma   120.00002156
_symmetry_Int_Tables_number   1
_chemical_formula_structural   TmInPd
_chemical_formula_sum   'Tm3 In3 Pd3'
_cell_volume   189.56399830
_cell_formula_units_Z   3
loop_
 _symmetry_equiv_pos_site_id
 _symmetry_equiv_pos_as_xyz
  1  'x, y, z'
loop_
 _atom_site_type_symbol
 _atom_site_label
 _atom_site_symmetry_multiplicity
 _atom_site_fract_x
 _atom_site_fract_y
 _atom_site_fract_z
 _atom_site_occupancy
  Tm  Tm0  1  0.40596607  0.40596707  0.50000000  1
  Tm  Tm1  1  0.59403393  0.00000000  0.50000000  1
  Tm  Tm2  1  0.00000000  0.59403293  0.50000000  1
  In  In0  1  0.73740431  0.73740431  -0.00000000  1
  In  In1  1  0.26259569  0.00000000  0.00000000  1
  In  In2  1  0.00000000  0.26259469  -0.00000000  1
  Pd  Pd0  1  -0.00000000  0.00000000  0.50000000  1
  Pd  Pd1  1  0.66666700  0.33333300  0.00000000  1
  Pd  Pd2  1  0.33333300  0.66666700  -0.00000000  1
loop_
_geom_bond_atom_site_label_1
_geom_bond_atom_site_label_2
_geom_bond_distance
_geom_bond_site_symmetry_2
In0 Pd0 2.744023 1_665
In0 Pd0 2.744023 1_664
In0 Pd2 2.860812 1_555
In0 Pd1 2.860812 1_555
In0 Tm0 3.150482 1_555
In0 Tm0 3.150482 1_554
In0 Tm1 3.307510 1_565
In0 Tm1 3.307510 1_564
In0 Tm2 3.307515 1_655
In0 Tm2 3.307515 1_654
In1 Pd0 2.744024 1_555
In1 Pd0 2.744024 1_554
In1 Pd2 2.860805 1_545
In1 Pd1 2.860808 1_555
In1 Tm1 3.150486 1_554
In1 Tm1 3.150486 1_555
In1 Tm2 3.307514 1_544
In1 Tm2 3.307514 1_545
In1 Tm0 3.307516 1_555
In1 Tm0 3.307516 1_554
In2 Pd0 2.744018 1_555
In2 Pd0 2.744018 1_554
In2 Pd1 2.860809 1_455
In2 Pd2 2.860814 1_555
In2 Tm2 3.150486 1_555
In2 Tm2 3.150486 1_554
In2 Tm0 3.307507 1_555
In2 Tm0 3.307507 1_554
In2 Tm1 3.307508 1_455
In2 Tm1 3.307508 1_454
Pd0 Tm1 3.107345 1_455
Pd0 Tm0 3.107348 1_555
Pd0 Tm2 3.107353 1_545
Pd1 Tm2 2.981608 1_654
Pd1 Tm2 2.981608 1_655
Pd1 Tm1 2.981609 1_555
Pd1 Tm1 2.981609 1_554
Pd1 Tm0 2.981618 1_555
Pd1 Tm0 2.981618 1_554
Pd2 Tm2 2.981606 1_555
Pd2 Tm2 2.981606 1_554
Pd2 Tm0 2.981609 1_555
Pd2 Tm0 2.981609 1_554
Pd2 Tm1 2.981610 1_565
Pd2 Tm1 2.981610 1_564
