# generated using pymatgen
data_TlPt3O4
_symmetry_space_group_name_H-M   'P 1'
_cell_length_a   6.86067631
_cell_length_b   6.86067631
_cell_length_c   6.86067631
_cell_angle_alpha   60.00000000
_cell_angle_beta   60.00000000
_cell_angle_gamma   60.00000000
_symmetry_Int_Tables_number   1
_chemical_formula_structural   TlPt3O4
_chemical_formula_sum   'Tl2 Pt6 O8'
_cell_volume   228.34199457
_cell_formula_units_Z   2
loop_
 _symmetry_equiv_pos_site_id
 _symmetry_equiv_pos_as_xyz
  1  'x, y, z'
loop_
 _atom_site_type_symbol
 _atom_site_label
 _atom_site_symmetry_multiplicity
 _atom_site_fract_x
 _atom_site_fract_y
 _atom_site_fract_z
 _atom_site_occupancy
  Tl  Tl0  1  0.50000000  0.50000000  0.50000000  1
  Tl  Tl1  1  0.00000000  -0.00000000  -0.00000000  1
  Pt  Pt0  1  0.50000000  -0.00000000  -0.00000000  1
  Pt  Pt1  1  0.00000000  0.50000000  0.50000000  1
  Pt  Pt2  1  0.00000000  0.50000000  -0.00000000  1
  Pt  Pt3  1  0.50000000  -0.00000000  0.50000000  1
  Pt  Pt4  1  0.00000000  -0.00000000  0.50000000  1
  Pt  Pt5  1  0.50000000  0.50000000  -0.00000000  1
  O  O0  1  0.14259449  0.14259449  0.14259449  1
  O  O1  1  0.85740551  0.85740551  0.85740551  1
  O  O2  1  0.14259449  0.14259449  0.57221754  1
  O  O3  1  0.14259449  0.57221754  0.14259449  1
  O  O4  1  0.85740551  0.85740551  0.42778246  1
  O  O5  1  0.85740551  0.42778246  0.85740551  1
  O  O6  1  0.57221754  0.14259449  0.14259449  1
  O  O7  1  0.42778246  0.85740551  0.85740551  1
loop_
_geom_bond_atom_site_label_1
_geom_bond_atom_site_label_2
_geom_bond_distance
_geom_bond_site_symmetry_2
Pt0 Tl0 3.430338 1_554
Pt0 Tl0 3.430338 1_545
Pt1 Tl0 3.430338 1_555
Pt1 Tl0 3.430338 1_455
Pt2 Tl0 3.430338 1_554
Pt2 Tl0 3.430338 1_455
Pt3 Tl0 3.430338 1_555
Pt3 Tl0 3.430338 1_545
Pt4 Tl0 3.430338 1_545
Pt4 Tl0 3.430338 1_455
Pt5 Tl0 3.430338 1_554
Pt5 Tl0 3.430338 1_555
O0 Pt4 2.021400 1_555
O0 Pt0 2.021400 1_555
O0 Pt2 2.021400 1_555
O0 Tl1 2.396323 1_555
O1 Pt0 2.021400 1_566
O1 Pt4 2.021400 1_665
O1 Pt2 2.021400 1_656
O1 Tl1 2.396323 1_666
O2 Pt3 2.021399 1_555
O2 Pt1 2.021399 1_555
O2 Pt4 2.021405 1_555
O2 Tl1 2.396317 1_556
O3 Pt5 2.021399 1_555
O3 Pt1 2.021399 1_555
O3 Pt2 2.021405 1_555
O3 Tl1 2.396317 1_565
O4 Pt3 2.021399 1_565
O4 Pt1 2.021399 1_655
O4 Pt4 2.021405 1_665
O4 Tl1 2.396317 1_665
O5 Pt1 2.021399 1_655
O5 Pt5 2.021399 1_556
O5 Pt2 2.021405 1_656
O5 Tl1 2.396317 1_656
O6 Pt3 2.021399 1_555
O6 Pt5 2.021399 1_555
O6 Pt0 2.021405 1_555
O6 Tl1 2.396317 1_655
O7 Pt3 2.021399 1_565
O7 Pt5 2.021399 1_556
O7 Pt0 2.021405 1_566
O7 Tl1 2.396317 1_566
