# generated using pymatgen
data_Yb4MnS7
_symmetry_space_group_name_H-M   'P 1'
_cell_length_a   6.96389980
_cell_length_b   6.96389980
_cell_length_c   10.85088216
_cell_angle_alpha   72.98928714
_cell_angle_beta   72.98928714
_cell_angle_gamma   31.98125724
_symmetry_Int_Tables_number   1
_chemical_formula_structural   Yb4MnS7
_chemical_formula_sum   'Yb4 Mn1 S7'
_cell_volume   265.49009730
_cell_formula_units_Z   1
loop_
 _symmetry_equiv_pos_site_id
 _symmetry_equiv_pos_as_xyz
  1  'x, y, z'
loop_
 _atom_site_type_symbol
 _atom_site_label
 _atom_site_symmetry_multiplicity
 _atom_site_fract_x
 _atom_site_fract_y
 _atom_site_fract_z
 _atom_site_occupancy
  Yb  Yb0  1  0.68568700  0.68568700  0.17783000  1
  Yb  Yb1  1  0.30575100  0.30575100  0.77160800  1
  Yb  Yb2  1  0.01769300  0.01769300  0.99704300  1
  Yb  Yb3  1  0.09747600  0.09747600  0.56261400  1
  Mn  Mn0  1  0.89072700  0.89072700  0.42599700  1
  S  S0  1  0.73638800  0.73638800  0.59795100  1
  S  S1  1  0.30918100  0.30918100  0.33560400  1
  S  S2  1  0.34966300  0.34966300  0.13401900  1
  S  S3  1  0.66875800  0.66875800  0.94005600  1
  S  S4  1  0.03549800  0.03549800  0.25099300  1
  S  S5  1  0.94966700  0.94966700  0.78986400  1
  S  S6  1  0.45351100  0.45351100  0.51642200  1
loop_
_geom_bond_atom_site_label_1
_geom_bond_atom_site_label_2
_geom_bond_distance
_geom_bond_site_symmetry_2
Mn0 S4 2.263358 1_665
Mn0 S0 2.324819 1_555
Mn0 S6 2.419027 1_565
Mn0 S6 2.419027 1_655
Mn0 S1 2.546807 1_565
Mn0 S1 2.546807 1_655
S0 Yb3 2.778587 1_655
S0 Yb3 2.778587 1_565
S0 Yb1 3.026321 1_565
S0 Yb1 3.026321 1_655
S1 S2 2.087290 1_555
S1 Yb3 3.138844 1_555
S1 Yb0 3.326861 1_455
S1 Yb0 3.326861 1_545
S2 Yb0 2.844485 1_455
S2 Yb0 2.844485 1_545
S2 Yb2 2.985889 1_564
S2 Yb2 2.985889 1_654
S3 Yb0 2.657821 1_556
S3 Yb2 2.718885 1_565
S3 Yb2 2.718885 1_655
S3 Yb1 2.888756 1_655
S3 Yb1 2.888756 1_565
S4 Yb0 2.717075 1_545
S4 Yb0 2.717075 1_455
S4 Yb2 2.837232 1_554
S5 Yb3 2.650798 1_665
S5 Yb2 2.670134 1_665
S5 Yb1 2.768525 1_565
S5 Yb1 2.768525 1_655
S6 Yb3 2.869661 1_655
S6 Yb3 2.869661 1_565
S6 Yb1 2.871752 1_555
