# generated using pymatgen
data_Te(RhO3)2
_symmetry_space_group_name_H-M   'P 1'
_cell_length_a   4.68100000
_cell_length_b   4.68100000
_cell_length_c   9.55336000
_cell_angle_alpha   90.00000000
_cell_angle_beta   90.00000000
_cell_angle_gamma   90.00000000
_symmetry_Int_Tables_number   1
_chemical_formula_structural   Te(RhO3)2
_chemical_formula_sum   'Te2 Rh4 O12'
_cell_volume   209.33094107
_cell_formula_units_Z   2
loop_
 _symmetry_equiv_pos_site_id
 _symmetry_equiv_pos_as_xyz
  1  'x, y, z'
loop_
 _atom_site_type_symbol
 _atom_site_label
 _atom_site_symmetry_multiplicity
 _atom_site_fract_x
 _atom_site_fract_y
 _atom_site_fract_z
 _atom_site_occupancy
  Te  Te0  1  0.00000000  0.00000000  0.00000000  1
  Te  Te1  1  0.50000000  0.50000000  0.50000000  1
  Rh  Rh0  1  0.00000000  0.00000000  0.33246300  1
  Rh  Rh1  1  0.00000000  0.00000000  0.66753700  1
  Rh  Rh2  1  0.50000000  0.50000000  0.83246300  1
  Rh  Rh3  1  0.50000000  0.50000000  0.16753700  1
  O  O0  1  0.30968800  0.30968800  0.00000000  1
  O  O1  1  0.69031200  0.69031200  0.00000000  1
  O  O2  1  0.19031200  0.80968800  0.50000000  1
  O  O3  1  0.80968800  0.19031200  0.50000000  1
  O  O4  1  0.30521600  0.30521600  0.33273700  1
  O  O5  1  0.69478400  0.69478400  0.66726300  1
  O  O6  1  0.69478400  0.69478400  0.33273700  1
  O  O7  1  0.19478400  0.80521600  0.83273700  1
  O  O8  1  0.19478400  0.80521600  0.16726300  1
  O  O9  1  0.30521600  0.30521600  0.66726300  1
  O  O10  1  0.80521600  0.19478400  0.16726300  1
  O  O11  1  0.80521600  0.19478400  0.83273700  1
loop_
_geom_bond_atom_site_label_1
_geom_bond_atom_site_label_2
_geom_bond_distance
_geom_bond_site_symmetry_2
O0 Rh3 2.036900 1_555
O0 Rh2 2.036900 1_554
O0 Te0 2.050114 1_555
O1 Rh3 2.036900 1_555
O1 Rh2 2.036900 1_554
O1 Te0 2.050114 1_665
O2 Rh1 2.036900 1_565
O2 Rh0 2.036900 1_565
O2 Te1 2.050114 1_555
O3 Rh1 2.036900 1_655
O3 Rh0 2.036900 1_655
O3 Te1 2.050114 1_555
O4 Rh0 2.020511 1_555
O4 Rh3 2.038005 1_555
O4 Te1 2.053305 1_555
O5 Rh1 2.020511 1_665
O5 Rh2 2.038005 1_555
O5 Te1 2.053305 1_555
O6 Rh0 2.020511 1_665
O6 Rh3 2.038005 1_555
O6 Te1 2.053305 1_555
O7 Rh2 2.020511 1_555
O7 Rh1 2.038005 1_565
O7 Te0 2.053305 1_566
O8 Rh3 2.020511 1_555
O8 Rh0 2.038005 1_565
O8 Te0 2.053305 1_565
O9 Rh1 2.020511 1_555
O9 Rh2 2.038005 1_555
O9 Te1 2.053305 1_555
O10 Rh3 2.020511 1_555
O10 Rh0 2.038005 1_655
O10 Te0 2.053305 1_655
O11 Rh2 2.020511 1_555
O11 Rh1 2.038005 1_655
O11 Te0 2.053305 1_656
