# generated using pymatgen
data_K4Ba2B14H16O33
_symmetry_space_group_name_H-M   'P 1'
_cell_length_a   9.21606100
_cell_length_b   13.10616207
_cell_length_c   13.48418415
_cell_angle_alpha   106.25881270
_cell_angle_beta   94.71883215
_cell_angle_gamma   106.17989453
_symmetry_Int_Tables_number   1
_chemical_formula_structural   K4Ba2B14H16O33
_chemical_formula_sum   'K8 Ba4 B28 H32 O66'
_cell_volume   1478.78237366
_cell_formula_units_Z   2
loop_
 _symmetry_equiv_pos_site_id
 _symmetry_equiv_pos_as_xyz
  1  'x, y, z'
loop_
 _atom_site_type_symbol
 _atom_site_label
 _atom_site_symmetry_multiplicity
 _atom_site_fract_x
 _atom_site_fract_y
 _atom_site_fract_z
 _atom_site_occupancy
  K  K0  1  0.19658600  0.58409500  0.61758400  1
  K  K1  1  0.80341400  0.41590500  0.38241600  1
  K  K2  1  0.15522400  0.62937400  0.08861000  1
  K  K3  1  0.84477600  0.37062600  0.91139000  1
  K  K4  1  0.55882500  0.16342600  0.60221500  1
  K  K5  1  0.44117500  0.83657400  0.39778500  1
  K  K6  1  0.55669400  0.16520500  0.10185000  1
  K  K7  1  0.44330600  0.83479500  0.89815000  1
  Ba  Ba0  1  0.17905100  0.13944200  0.40403800  1
  Ba  Ba1  1  0.82094900  0.86055800  0.59596200  1
  Ba  Ba2  1  0.16936500  0.12366100  0.89679100  1
  Ba  Ba3  1  0.83063500  0.87633900  0.10320900  1
  B  B0  1  0.36456000  0.36998300  0.85751500  1
  B  B1  1  0.63544000  0.63001700  0.14248500  1
  B  B2  1  0.21033600  0.49212700  0.83634100  1
  B  B3  1  0.78966400  0.50787300  0.16365900  1
  B  B4  1  0.08376900  0.28304600  0.75589000  1
  B  B5  1  0.91623100  0.71695400  0.24411000  1
  B  B6  1  0.92109700  0.14159500  0.58925400  1
  B  B7  1  0.07890300  0.85840500  0.41074600  1
  B  B8  1  0.84397000  0.12005600  0.75977100  1
  B  B9  1  0.15603000  0.87994400  0.24022900  1
  B  B10  1  0.61503600  0.11898900  0.85071100  1
  B  B11  1  0.38496400  0.88101100  0.14928900  1
  B  B12  1  0.78657300  0.01906000  0.89499000  1
  B  B13  1  0.21342700  0.98094000  0.10501000  1
  B  B14  1  0.91782600  0.14942600  0.09040500  1
  B  B15  1  0.08217400  0.85057400  0.90959500  1
  B  B16  1  0.08644300  0.29172800  0.25697200  1
  B  B17  1  0.91355700  0.70827200  0.74302800  1
  B  B18  1  0.22105200  0.49697000  0.30299200  1
  B  B19  1  0.77894800  0.50303000  0.69700800  1
  B  B20  1  0.38501100  0.37039500  0.29578900  1
  B  B21  1  0.61498900  0.62960500  0.70421100  1
  B  B22  1  0.83936700  0.13405700  0.26382300  1
  B  B23  1  0.16063300  0.86594300  0.73617700  1
  B  B24  1  0.78572800  0.02516100  0.39370200  1
  B  B25  1  0.21427200  0.97483900  0.60629800  1
  B  B26  1  0.61835600  0.13440500  0.36167300  1
  B  B27  1  0.38164400  0.86559500  0.63832700  1
  H  H0  1  0.99469500  0.68074800  0.55998700  1
  H  H1  1  0.00530500  0.31925200  0.44001300  1
  H  H2  1  0.98004300  0.67134000  0.44055200  1
  H  H3  1  0.01995700  0.32866000  0.55944800  1
  H  H4  1  0.20362500  0.39662000  0.01820000  1
  H  H5  1  0.79637500  0.60338000  0.98180000  1
  H  H6  1  0.08497000  0.35247400  0.08415700  1
  H  H7  1  0.91503000  0.64752600  0.91584300  1
  H  H8  1  0.31662200  0.31595700  0.64697700  1
  H  H9  1  0.68337800  0.68404300  0.35302300  1
  H  H10  1  0.46294100  0.39518900  0.62303900  1
  H  H11  1  0.53705900  0.60481100  0.37696100  1
  H  H12  1  0.55752800  0.40353900  0.79018400  1
  H  H13  1  0.44247200  0.59646100  0.20981600  1
  H  H14  1  0.43916100  0.39299400  0.01333700  1
  H  H15  1  0.56083900  0.60700600  0.98666300  1
  H  H16  1  0.11105300  0.60520000  0.29801300  1
  H  H17  1  0.88894700  0.39480000  0.70198700  1
  H  H18  1  0.51702400  0.40567600  0.18822100  1
  H  H19  1  0.48297600  0.59432400  0.81177900  1
  H  H20  1  0.76078300  0.84856800  0.84644300  1
  H  H21  1  0.23921700  0.15143200  0.15355700  1
  H  H22  1  0.75804000  0.85491700  0.33695300  1
  H  H23  1  0.24196000  0.14508300  0.66304700  1
  H  H24  1  0.50570300  0.25212900  0.38348300  1
  H  H25  1  0.49429700  0.74787100  0.61651700  1
  H  H26  1  0.50712500  0.23169300  0.85205700  1
  H  H27  1  0.49287500  0.76830700  0.14794300  1
  H  H28  1  0.44551700  0.39816600  0.45468000  1
  H  H29  1  0.55448300  0.60183400  0.54532000  1
  H  H30  1  0.09652400  0.59779100  0.82710200  1
  H  H31  1  0.90347600  0.40220900  0.17289800  1
  O  O0  1  0.51829200  0.36463400  0.83924900  1
  O  O1  1  0.48170800  0.63536600  0.16075100  1
  O  O2  1  0.34619700  0.35066100  0.96061700  1
  O  O3  1  0.65380300  0.64933900  0.03938300  1
  O  O4  1  0.35269100  0.48371100  0.86278900  1
  O  O5  1  0.64730900  0.51628900  0.13721100  1
  O  O6  1  0.24377000  0.28133900  0.77592700  1
  O  O7  1  0.75623000  0.71866100  0.22407300  1
  O  O8  1  0.20012400  0.60041200  0.85509700  1
  O  O9  1  0.79987600  0.39958800  0.14490300  1
  O  O10  1  0.08065300  0.40234600  0.79248400  1
  O  O11  1  0.91934700  0.59765400  0.20751600  1
  O  O12  1  0.03144700  0.24309600  0.64078600  1
  O  O13  1  0.96855300  0.75690400  0.35921400  1
  O  O14  1  0.90851100  0.10669900  0.48269900  1
  O  O15  1  0.09148900  0.89330100  0.51730100  1
  O  O16  1  0.82924500  0.08054100  0.64215400  1
  O  O17  1  0.17075500  0.91945900  0.35784600  1
  O  O18  1  0.98349500  0.21513600  0.80722000  1
  O  O19  1  0.01650500  0.78486400  0.19278000  1
  O  O20  1  0.70536400  0.15582100  0.78395500  1
  O  O21  1  0.29463600  0.84417900  0.21604500  1
  O  O22  1  0.49905900  0.16620100  0.87756800  1
  O  O23  1  0.50094100  0.83379900  0.12243200  1
  O  O24  1  0.63749100  0.04483000  0.89910200  1
  O  O25  1  0.36250900  0.95517000  0.10089800  1
  O  O26  1  0.76440800  0.90925600  0.90992100  1
  O  O27  1  0.23559200  0.09074400  0.09007900  1
  O  O28  1  0.84319600  0.02399400  0.79692600  1
  O  O29  1  0.15680400  0.97600500  0.20307400  1
  O  O30  1  0.90381300  0.10771500  0.98379900  1
  O  O31  1  0.09618700  0.89228500  0.01620100  1
  O  O32  1  0.03441300  0.24764500  0.14077200  1
  O  O33  1  0.96558700  0.75235500  0.85922800  1
  O  O34  1  0.08683700  0.41160700  0.28767200  1
  O  O35  1  0.91316300  0.58839300  0.71232800  1
  O  O36  1  0.21748200  0.60506700  0.31232700  1
  O  O37  1  0.78251800  0.39493300  0.68767300  1
  O  O38  1  0.36452700  0.48429100  0.31058500  1
  O  O39  1  0.63547300  0.51570900  0.68941500  1
  O  O40  1  0.46215700  0.34027300  0.20724600  1
  O  O41  1  0.53784300  0.65972700  0.79275400  1
  O  O42  1  0.49173400  0.37956900  0.39238900  1
  O  O43  1  0.50826600  0.62043100  0.60761100  1
  O  O44  1  0.23925300  0.28430700  0.28560500  1
  O  O45  1  0.76074700  0.71569300  0.71439500  1
  O  O46  1  0.98111000  0.22886600  0.31090800  1
  O  O47  1  0.01889000  0.77113400  0.68909200  1
  O  O48  1  0.70477700  0.17278300  0.29380500  1
  O  O49  1  0.29522300  0.82721700  0.70619500  1
  O  O50  1  0.50231600  0.17871900  0.39479700  1
  O  O51  1  0.49768400  0.82128100  0.60520300  1
  O  O52  1  0.64139700  0.05605000  0.40477100  1
  O  O53  1  0.35860300  0.94395000  0.59522900  1
  O  O54  1  0.75740500  0.91188400  0.40204000  1
  O  O55  1  0.24259500  0.08811600  0.59796000  1
  O  O56  1  0.83979500  0.03563600  0.29669900  1
  O  O57  1  0.16020500  0.96436400  0.70330100  1
  O  O58  1  0.82038200  0.09575300  0.14598000  1
  O  O59  1  0.17961800  0.90424700  0.85402000  1
  O  O60  1  0.98218700  0.62679900  0.48880900  1
  O  O61  1  0.01781300  0.37320100  0.51119100  1
  O  O62  1  0.11530100  0.41196800  0.05036900  1
  O  O63  1  0.88469900  0.58803200  0.94963100  1
  O  O64  1  0.37218800  0.32788100  0.58950300  1
  O  O65  1  0.62781200  0.67211900  0.41049700  1
loop_
_geom_bond_atom_site_label_1
_geom_bond_atom_site_label_2
_geom_bond_distance
_geom_bond_site_symmetry_2
K0 O61 2.695402 1_555
K0 O60 2.797974 1_455
K0 O43 2.798743 1_555
K0 O49 2.912432 1_555
K0 O35 3.008125 1_455
K1 O60 2.695402 1_555
K1 O61 2.797974 1_655
K1 O42 2.798743 1_555
K1 O48 2.912432 1_555
K1 O34 3.008125 1_655
K2 O62 2.661185 1_555
K2 O21 2.727877 1_555
K2 O19 2.811574 1_555
K2 O11 2.812875 1_455
K2 O63 2.816251 1_454
K2 O8 3.140460 1_554
K3 O63 2.661185 1_555
K3 O20 2.727877 1_555
K3 O18 2.811574 1_555
K3 O10 2.812875 1_655
K3 O62 2.816251 1_656
K3 O9 3.140460 1_556
K4 O20 2.739816 1_555
K4 O55 2.794431 1_555
K4 O50 2.875110 1_555
K4 O52 2.912040 1_555
K4 O53 2.923968 1_545
K4 O37 2.991554 1_555
K4 O16 3.049055 1_555
K4 O64 3.139766 1_555
K5 O21 2.739816 1_555
K5 O54 2.794431 1_555
K5 O51 2.875110 1_555
K5 O53 2.912040 1_555
K5 O52 2.923968 1_565
K5 O36 2.991554 1_555
K5 O17 3.049055 1_555
K5 O65 3.139766 1_555
K6 O40 2.745057 1_555
K6 O48 2.787703 1_555
K6 O27 2.821612 1_555
K6 O25 2.830455 1_545
K6 O58 2.895948 1_555
K6 O24 3.015315 1_554
K6 O22 3.031522 1_554
K6 O9 3.121979 1_555
K7 O41 2.745057 1_555
K7 O49 2.787703 1_555
K7 O26 2.821612 1_555
K7 O24 2.830455 1_565
K7 O59 2.895948 1_555
K7 O25 3.015315 1_556
K7 O23 3.031522 1_556
K7 O8 3.121979 1_555
Ba0 O17 2.751365 1_545
Ba0 O14 2.760345 1_455
Ba0 O44 2.778389 1_555
Ba0 O46 2.813747 1_455
Ba0 O29 2.896048 1_545
Ba0 O50 2.898038 1_555
Ba0 O55 2.930121 1_555
Ba0 O64 2.980128 1_555
Ba0 O56 3.082801 1_455
Ba1 O16 2.751365 1_565
Ba1 O15 2.760345 1_655
Ba1 O45 2.778389 1_555
Ba1 O47 2.813747 1_655
Ba1 O28 2.896042 1_565
Ba1 O51 2.898038 1_555
Ba1 O54 2.930121 1_555
Ba1 O65 2.980128 1_555
Ba1 O57 3.082801 1_655
Ba2 O18 2.728619 1_455
Ba2 O30 2.781063 1_455
Ba2 O59 2.800497 1_545
Ba2 O27 2.804682 1_556
Ba2 O2 2.807345 1_555
Ba2 O57 2.826393 1_545
Ba2 O6 2.945671 1_555
Ba2 O28 2.952345 1_455
Ba2 O22 2.979394 1_555
Ba3 O19 2.728619 1_655
Ba3 O31 2.781063 1_655
Ba3 O58 2.800497 1_565
Ba3 O26 2.804682 1_554
Ba3 O3 2.807345 1_555
Ba3 O56 2.826393 1_565
Ba3 O7 2.945671 1_555
Ba3 O29 2.952344 1_655
Ba3 O23 2.979394 1_555
B0 O6 1.470146 1_555
B0 O0 1.475131 1_555
B0 O2 1.495834 1_555
B0 O4 1.507155 1_555
B1 O7 1.470146 1_555
B1 O1 1.475131 1_555
B1 O3 1.495834 1_555
B1 O5 1.507155 1_555
B2 O10 1.368588 1_555
B2 O4 1.373413 1_555
B2 O8 1.401543 1_555
B3 O11 1.368588 1_555
B3 O5 1.373413 1_555
B3 O9 1.401543 1_555
B4 O18 1.455008 1_455
B4 O12 1.482138 1_555
B4 O6 1.484622 1_555
B4 O10 1.511417 1_555
B5 O19 1.455008 1_655
B5 O13 1.482138 1_555
B5 O7 1.484622 1_555
B5 O11 1.511417 1_555
B6 O14 1.364586 1_555
B6 O12 1.378015 1_655
B6 O16 1.380997 1_555
B7 O15 1.364586 1_555
B7 O13 1.378015 1_455
B7 O17 1.380997 1_555
B8 O18 1.463165 1_555
B8 O28 1.478151 1_555
B8 O16 1.505796 1_555
B8 O20 1.508131 1_555
B9 O19 1.463165 1_555
B9 O29 1.478139 1_555
B9 O17 1.505796 1_555
B9 O21 1.508131 1_555
B10 O24 1.363184 1_555
B10 O20 1.370747 1_555
B10 O22 1.401165 1_555
B11 O25 1.363184 1_555
B11 O21 1.370747 1_555
B11 O23 1.401165 1_555
B12 O26 1.469174 1_545
B12 O28 1.472284 1_555
B12 O30 1.503291 1_555
B12 O24 1.505173 1_555
B13 O27 1.469174 1_565
B13 O29 1.472286 1_555
B13 O31 1.503291 1_555
B13 O25 1.505173 1_555
B14 O30 1.368209 1_554
B14 O32 1.375636 1_655
B14 O58 1.384466 1_555
B15 O31 1.368209 1_556
B15 O33 1.375636 1_455
B15 O59 1.384466 1_555
B16 O44 1.466204 1_555
B16 O46 1.468346 1_455
B16 O32 1.494614 1_555
B16 O34 1.507409 1_555
B17 O45 1.466204 1_555
B17 O47 1.468346 1_655
B17 O33 1.494614 1_555
B17 O35 1.507409 1_555
B18 O34 1.371736 1_555
B18 O38 1.377031 1_555
B18 O36 1.396736 1_555
B19 O35 1.371736 1_555
B19 O39 1.377031 1_555
B19 O37 1.396736 1_555
B20 O40 1.455672 1_555
B20 O44 1.461023 1_555
B20 O38 1.516640 1_555
B20 O42 1.521235 1_555
B21 O41 1.455672 1_555
B21 O45 1.461023 1_555
B21 O39 1.516640 1_555
B21 O43 1.521235 1_555
B22 O46 1.473337 1_555
B22 O56 1.477559 1_555
B22 O58 1.505400 1_555
B22 O48 1.509332 1_555
B23 O47 1.473337 1_555
B23 O57 1.477559 1_555
B23 O59 1.505400 1_555
B23 O49 1.509332 1_555
B24 O56 1.465496 1_555
B24 O54 1.472146 1_545
B24 O14 1.499047 1_555
B24 O52 1.501481 1_555
B25 O57 1.465496 1_555
B25 O55 1.472146 1_565
B25 O15 1.499047 1_555
B25 O53 1.501481 1_555
B26 O52 1.368507 1_555
B26 O48 1.370857 1_555
B26 O50 1.399992 1_555
B27 O53 1.368507 1_555
B27 O49 1.370857 1_555
B27 O51 1.399992 1_555
H0 O60 0.995377 1_555
H0 K0 2.701205 1_655
H1 O61 0.995377 1_555
H1 K1 2.701205 1_455
H2 O60 0.990758 1_555
H3 O61 0.990758 1_555
H4 O62 0.995844 1_555
H5 O63 0.995844 1_555
H6 O62 0.996048 1_555
H7 O63 0.996048 1_555
H8 O64 0.987823 1_555
H9 O65 0.987823 1_555
H10 O64 0.992686 1_555
H11 O65 0.992686 1_555
H12 O0 0.976714 1_555
H13 O1 0.976714 1_555
H14 O2 0.980432 1_554
H15 O3 0.980432 1_556
H16 O36 0.984545 1_555
H17 O37 0.984545 1_555
H18 O40 0.979376 1_555
H19 O41 0.979376 1_555
H20 O26 0.982685 1_555
H21 O27 0.982685 1_555
H22 O54 0.981884 1_555
H23 O55 0.981884 1_555
H24 O50 1.008051 1_555
H25 O51 1.008051 1_555
H26 O22 0.997299 1_555
H27 O23 0.997299 1_555
H28 O42 0.973869 1_555
H29 O43 0.973869 1_555
H30 O8 0.985114 1_555
H31 O9 0.985114 1_555
