# generated using pymatgen
data_TbHSe
_symmetry_space_group_name_H-M   'P 1'
_cell_length_a   3.85101336
_cell_length_b   3.85101336
_cell_length_c   3.92038104
_cell_angle_alpha   90.00000000
_cell_angle_beta   90.00000000
_cell_angle_gamma   120.00001827
_symmetry_Int_Tables_number   1
_chemical_formula_structural   TbHSe
_chemical_formula_sum   'Tb1 H1 Se1'
_cell_volume   50.35109077
_cell_formula_units_Z   1
loop_
 _symmetry_equiv_pos_site_id
 _symmetry_equiv_pos_as_xyz
  1  'x, y, z'
loop_
 _atom_site_type_symbol
 _atom_site_label
 _atom_site_symmetry_multiplicity
 _atom_site_fract_x
 _atom_site_fract_y
 _atom_site_fract_z
 _atom_site_occupancy
  Tb  Tb0  1  0.00000000  0.00000000  -0.00000000  1
  H  H0  1  0.33333300  0.66666700  -0.00000000  1
  Se  Se0  1  0.66666700  0.33333300  0.50000000  1
loop_
_geom_bond_atom_site_label_1
_geom_bond_atom_site_label_2
_geom_bond_distance
_geom_bond_site_symmetry_2
H0 Tb0 2.223382 1_565
H0 Tb0 2.223384 1_665
H0 Tb0 2.223384 1_555
Se0 Tb0 2.964080 1_656
Se0 Tb0 2.964080 1_655
Se0 Tb0 2.964082 1_555
Se0 Tb0 2.964082 1_556
Se0 Tb0 2.964082 1_666
Se0 Tb0 2.964082 1_665
