# generated using pymatgen
data_SmCo3NiB
_symmetry_space_group_name_H-M   'P 1'
_cell_length_a   5.02491968
_cell_length_b   5.02371820
_cell_length_c   6.87317700
_cell_angle_alpha   90.00000000
_cell_angle_beta   90.00000000
_cell_angle_gamma   120.00790056
_symmetry_Int_Tables_number   1
_chemical_formula_structural   SmCo3NiB
_chemical_formula_sum   'Sm2 Co6 Ni2 B2'
_cell_volume   150.24774898
_cell_formula_units_Z   2
loop_
 _symmetry_equiv_pos_site_id
 _symmetry_equiv_pos_as_xyz
  1  'x, y, z'
loop_
 _atom_site_type_symbol
 _atom_site_label
 _atom_site_symmetry_multiplicity
 _atom_site_fract_x
 _atom_site_fract_y
 _atom_site_fract_z
 _atom_site_occupancy
  Sm  Sm0  1  0.99999300  0.00000000  0.00000000  1
  Sm  Sm1  1  0.99999600  0.00000000  0.50000000  1
  Co  Co0  1  0.50000100  0.00000000  0.28927500  1
  Co  Co1  1  0.49999800  0.50000500  0.28927400  1
  Co  Co2  1  0.99999300  0.49999500  0.28927400  1
  Co  Co3  1  0.50000100  0.00000000  0.71072500  1
  Co  Co4  1  0.49999800  0.50000500  0.71072600  1
  Co  Co5  1  0.99999300  0.49999500  0.71072600  1
  Ni  Ni0  1  0.33330000  0.66670300  0.00000000  1
  Ni  Ni1  1  0.66659700  0.33329700  0.00000000  1
  B  B0  1  0.33332800  0.66672500  0.50000000  1
  B  B1  1  0.66660300  0.33327500  0.50000000  1
loop_
_geom_bond_atom_site_label_1
_geom_bond_atom_site_label_2
_geom_bond_distance
_geom_bond_site_symmetry_2
Co0 Ni1 2.460781 1_555
Co0 Ni0 2.460781 1_545
Co0 Sm1 2.900008 1_555
Co0 Sm1 2.900052 1_455
Co1 Ni1 2.461005 1_555
Co1 Ni0 2.461234 1_555
Co1 Sm1 2.899498 1_565
Co1 Sm1 2.899528 1_455
Co2 Ni0 2.461006 1_655
Co2 Ni1 2.461234 1_555
Co2 Sm1 2.899498 1_555
Co2 Sm1 2.899528 1_565
Co3 Ni1 2.460781 1_556
Co3 Ni0 2.460781 1_546
Co3 Sm1 2.900008 1_555
Co3 Sm1 2.900052 1_455
Co4 Ni1 2.461005 1_556
Co4 Ni0 2.461234 1_556
Co4 Sm1 2.899498 1_565
Co4 Sm1 2.899528 1_455
Co5 Ni0 2.461006 1_656
Co5 Ni1 2.461234 1_556
Co5 Sm1 2.899498 1_555
Co5 Sm1 2.899528 1_565
Ni0 Sm0 2.900372 1_455
Ni0 Sm0 2.900635 1_465
Ni0 Sm0 2.901023 1_565
Ni1 Sm0 2.900372 1_565
Ni1 Sm0 2.900635 1_455
Ni1 Sm0 2.901022 1_555
B0 Co3 2.049340 1_565
B0 Co0 2.049340 1_565
B0 Co5 2.049775 1_455
B0 Co2 2.049775 1_455
B0 Co1 2.049944 1_555
B0 Co4 2.049944 1_555
B0 Sm1 2.900468 1_455
B0 Sm1 2.900648 1_465
B0 Sm1 2.900914 1_565
B1 Co3 2.049340 1_555
B1 Co0 2.049340 1_555
B1 Co4 2.049774 1_555
B1 Co1 2.049774 1_555
B1 Co5 2.049944 1_555
B1 Co2 2.049944 1_555
B1 Sm1 2.900468 1_565
B1 Sm1 2.900648 1_455
B1 Sm1 2.900913 1_555
