# generated using pymatgen
data_TiNb2ZnO8
_symmetry_space_group_name_H-M   'P 1'
_cell_length_a   5.80209300
_cell_length_b   4.74141800
_cell_length_c   5.03271067
_cell_angle_alpha   88.51745870
_cell_angle_beta   90.00000000
_cell_angle_gamma   90.00000000
_symmetry_Int_Tables_number   1
_chemical_formula_structural   TiNb2ZnO8
_chemical_formula_sum   'Ti1 Nb2 Zn1 O8'
_cell_volume   138.40427080
_cell_formula_units_Z   1
loop_
 _symmetry_equiv_pos_site_id
 _symmetry_equiv_pos_as_xyz
  1  'x, y, z'
loop_
 _atom_site_type_symbol
 _atom_site_label
 _atom_site_symmetry_multiplicity
 _atom_site_fract_x
 _atom_site_fract_y
 _atom_site_fract_z
 _atom_site_occupancy
  Ti  Ti0  1  0.16797500  0.50000000  0.50000000  1
  Nb  Nb0  1  0.81179400  0.50000000  0.00000000  1
  Nb  Nb1  1  0.31650500  0.00000000  0.00000000  1
  Zn  Zn0  1  0.69104700  0.00000000  0.50000000  1
  O  O0  1  0.90002600  0.29103200  0.68330800  1
  O  O1  1  0.61210100  0.22556100  0.15740000  1
  O  O2  1  0.61210100  0.77443900  0.84260000  1
  O  O3  1  0.90002600  0.70896800  0.31669200  1
  O  O4  1  0.12222700  0.73529900  0.82068800  1
  O  O5  1  0.37198500  0.75874400  0.32305700  1
  O  O6  1  0.37198500  0.24125600  0.67694300  1
  O  O7  1  0.12222700  0.26470100  0.17931200  1
loop_
_geom_bond_atom_site_label_1
_geom_bond_atom_site_label_2
_geom_bond_distance
_geom_bond_site_symmetry_2
Nb0 O2 1.899948 1_554
Nb0 O1 1.899948 1_555
Nb0 O3 1.966148 1_555
Nb0 O0 1.966148 1_554
Nb0 O4 2.291535 1_654
Nb0 O7 2.291535 1_655
Nb1 O7 1.928412 1_555
Nb1 O4 1.928412 1_544
Nb1 O6 1.989793 1_554
Nb1 O5 1.989793 1_545
Nb1 O1 2.180964 1_555
Nb1 O2 2.180964 1_544
O0 Ti0 2.049988 1_655
O0 Zn0 2.071539 1_555
O1 Zn0 2.056956 1_555
O2 Zn0 2.056956 1_565
O3 Ti0 2.049988 1_655
O3 Zn0 2.071539 1_565
O4 Ti0 2.003265 1_555
O5 Ti0 1.908572 1_555
O5 Zn0 2.362466 1_565
O6 Ti0 1.908572 1_555
O6 Zn0 2.362466 1_555
O7 Ti0 2.003265 1_555
