# generated using pymatgen
data_Li9Mn2Co5O16
_symmetry_space_group_name_H-M   'P 1'
_cell_length_a   3.02594000
_cell_length_b   5.05418514
_cell_length_c   19.16763248
_cell_angle_alpha   92.05038140
_cell_angle_beta   92.12253547
_cell_angle_gamma   91.38760857
_symmetry_Int_Tables_number   1
_chemical_formula_structural   Li9Mn2Co5O16
_chemical_formula_sum   'Li9 Mn2 Co5 O16'
_cell_volume   292.65883486
_cell_formula_units_Z   1
loop_
 _symmetry_equiv_pos_site_id
 _symmetry_equiv_pos_as_xyz
  1  'x, y, z'
loop_
 _atom_site_type_symbol
 _atom_site_label
 _atom_site_symmetry_multiplicity
 _atom_site_fract_x
 _atom_site_fract_y
 _atom_site_fract_z
 _atom_site_occupancy
  Li  Li0  1  0.00000000  0.50000000  0.50000000  1
  Li  Li1  1  0.50218800  0.62429600  0.37399900  1
  Li  Li2  1  0.00432400  0.74854700  0.24917600  1
  Li  Li3  1  0.50827800  0.87187100  0.12486400  1
  Li  Li4  1  0.00000000  0.00000000  0.00000000  1
  Li  Li5  1  0.49172200  0.12812900  0.87513600  1
  Li  Li6  1  0.99567600  0.25145300  0.75082400  1
  Li  Li7  1  0.49781200  0.37570400  0.62600100  1
  Li  Li8  1  0.50000000  0.50000000  0.00000000  1
  Mn  Mn0  1  0.00571400  0.87446100  0.62572500  1
  Mn  Mn1  1  0.99428600  0.12553900  0.37427500  1
  Co  Co0  1  0.50000000  0.00000000  0.50000000  1
  Co  Co1  1  0.50503800  0.25596000  0.24751500  1
  Co  Co2  1  0.00268400  0.37527200  0.11891700  1
  Co  Co3  1  0.99731600  0.62472800  0.88108300  1
  Co  Co4  1  0.49496200  0.74404000  0.75248500  1
  O  O0  1  0.54382600  0.70462100  0.56120500  1
  O  O1  1  0.98158500  0.83371000  0.43716100  1
  O  O2  1  0.53263000  0.95806800  0.30949100  1
  O  O3  1  0.99103700  0.09743300  0.18523700  1
  O  O4  1  0.53068200  0.19871800  0.06707600  1
  O  O5  1  0.99948900  0.34459600  0.93002100  1
  O  O6  1  0.53495900  0.45829000  0.81384000  1
  O  O7  1  0.99042000  0.58096800  0.68835800  1
  O  O8  1  0.45617400  0.29537900  0.43879500  1
  O  O9  1  0.00958000  0.41903200  0.31164200  1
  O  O10  1  0.46504100  0.54171000  0.18616000  1
  O  O11  1  0.00051100  0.65540400  0.06997900  1
  O  O12  1  0.46931800  0.80128200  0.93292400  1
  O  O13  1  0.00896300  0.90256700  0.81476300  1
  O  O14  1  0.46737000  0.04193200  0.69050900  1
  O  O15  1  0.01841500  0.16629000  0.56283900  1
loop_
_geom_bond_atom_site_label_1
_geom_bond_atom_site_label_2
_geom_bond_distance
_geom_bond_site_symmetry_2
Li0 O1 2.107971 1_455
Li0 O15 2.107971 1_555
Li0 O0 2.110332 1_455
Li0 O8 2.110332 1_555
Li0 O0 2.200353 1_555
Li0 O8 2.200353 1_455
Li1 O1 2.096219 1_555
Li1 O9 2.105036 1_555
Li1 O8 2.115385 1_555
Li1 O2 2.129151 1_555
Li1 O9 2.233044 1_655
Li1 O1 2.279891 1_455
Li2 O9 2.085679 1_555
Li2 O10 2.144824 1_555
Li2 O2 2.145464 1_455
Li2 O2 2.169574 1_555
Li2 O3 2.183434 1_465
Li2 O10 2.212625 1_455
Li3 O4 2.022746 1_565
Li3 O10 2.079219 1_555
Li3 O11 2.093073 1_555
Li3 O3 2.114820 1_565
Li3 O11 2.152872 1_655
Li3 O3 2.283560 1_465
Li4 O4 2.188702 1_455
Li4 O12 2.188702 1_544
Li4 O4 2.217412 1_555
Li4 O12 2.217412 1_444
Li4 O5 2.235994 1_454
Li4 O11 2.235994 1_545
Li5 O12 2.022746 1_545
Li5 O6 2.079219 1_555
Li5 O5 2.093073 1_555
Li5 O13 2.114820 1_545
Li5 O5 2.152872 1_455
Li5 O13 2.283560 1_645
Li6 O7 2.085679 1_555
Li6 O6 2.144824 1_555
Li6 O14 2.145464 1_655
Li6 O14 2.169574 1_555
Li6 O13 2.183434 1_645
Li6 O6 2.212625 1_655
Li7 O15 2.096219 1_555
Li7 O7 2.105036 1_555
Li7 O0 2.115385 1_555
Li7 O14 2.129151 1_555
Li7 O7 2.233044 1_455
Li7 O15 2.279891 1_655
Li8 O4 2.029392 1_555
Li8 O12 2.029392 1_554
Li8 O5 2.103894 1_454
Li8 O11 2.103894 1_655
Li8 O11 2.198356 1_555
Li8 O5 2.198356 1_554
Mn0 O15 1.938508 1_565
Mn0 O7 1.942165 1_455
Mn0 O14 1.987179 1_565
Mn0 O0 1.989367 1_455
Mn0 O14 2.247985 1_465
Mn0 O0 2.249113 1_555
Mn1 O1 1.938508 1_545
Mn1 O9 1.942165 1_655
Mn1 O2 1.987179 1_545
Mn1 O8 1.989367 1_655
Mn1 O2 2.247985 1_645
Mn1 O8 2.249113 1_555
Co0 O0 1.935463 1_545
Co0 O8 1.935463 1_555
Co0 O15 2.083670 1_655
Co0 O1 2.083670 1_445
Co0 O15 2.097045 1_555
Co0 O1 2.097045 1_545
Co1 O10 1.898147 1_555
Co1 O2 1.952362 1_545
Co1 O3 2.054186 1_455
Co1 O9 2.061203 1_655
Co1 O3 2.085251 1_555
Co1 O9 2.135808 1_555
Co2 O11 1.726141 1_555
Co2 O4 1.895585 1_455
Co2 O3 1.928149 1_455
Co2 O10 2.014471 1_555
Co2 O4 2.111742 1_555
Co2 O10 2.271478 1_455
Co3 O5 1.726141 1_555
Co3 O12 1.895585 1_655
Co3 O13 1.928149 1_655
Co3 O6 2.014471 1_555
Co3 O12 2.111742 1_555
Co3 O6 2.271478 1_655
Co4 O6 1.898147 1_555
Co4 O14 1.952362 1_565
Co4 O13 2.054186 1_655
Co4 O7 2.061203 1_455
Co4 O13 2.085251 1_555
Co4 O7 2.135808 1_555
