# generated using pymatgen
data_CeCu2SiGe
_symmetry_space_group_name_H-M   'P 1'
_cell_length_a   5.78352332
_cell_length_b   5.78352332
_cell_length_c   5.78352332
_cell_angle_alpha   138.17854723
_cell_angle_beta   138.17854723
_cell_angle_gamma   60.62965504
_symmetry_Int_Tables_number   1
_chemical_formula_structural   CeCu2SiGe
_chemical_formula_sum   'Ce1 Cu2 Si1 Ge1'
_cell_volume   85.09538973
_cell_formula_units_Z   1
loop_
 _symmetry_equiv_pos_site_id
 _symmetry_equiv_pos_as_xyz
  1  'x, y, z'
loop_
 _atom_site_type_symbol
 _atom_site_label
 _atom_site_symmetry_multiplicity
 _atom_site_fract_x
 _atom_site_fract_y
 _atom_site_fract_z
 _atom_site_occupancy
  Ce  Ce0  1  0.00185800  0.00185800  0.00000000  1
  Cu  Cu0  1  0.74568600  0.24568600  0.50000000  1
  Cu  Cu1  1  0.24568600  0.74568600  0.50000000  1
  Si  Si0  1  0.62486200  0.62486200  0.00000000  1
  Ge  Ge0  1  0.38190800  0.38190800  0.00000000  1
loop_
_geom_bond_atom_site_label_1
_geom_bond_atom_site_label_2
_geom_bond_distance
_geom_bond_site_symmetry_2
Ce0 Ge0 3.155403 1_545
Ce0 Ge0 3.155403 1_556
Ce0 Ge0 3.155403 1_455
Ce0 Ge0 3.155403 1_444
Ce0 Si0 3.167104 1_444
Ce0 Si0 3.167104 1_455
Ce0 Si0 3.167104 1_545
Ce0 Si0 3.167104 1_556
Ce0 Cu0 3.192001 1_555
Ce0 Cu1 3.192001 1_555
Ce0 Cu0 3.192001 1_454
Ce0 Cu1 3.192001 1_544
Ce0 Cu0 3.286986 1_455
Ce0 Cu0 3.286986 1_444
Ce0 Cu1 3.286986 1_545
Ce0 Cu1 3.286986 1_444
Cu0 Si0 2.390935 1_545
Cu0 Si0 2.390935 1_556
Cu0 Ge0 2.472088 1_555
Cu0 Ge0 2.472088 1_656
Cu0 Cu1 2.919239 1_656
Cu0 Cu1 2.919239 1_544
Cu0 Cu1 2.919239 1_555
Cu0 Cu1 2.919239 1_645
Cu1 Si0 2.390935 1_455
Cu1 Si0 2.390935 1_556
Cu1 Ge0 2.472088 1_555
Cu1 Ge0 2.472088 1_566
Ge0 Si0 2.425999 1_555
