# generated using pymatgen
data_Sr3LaTaAl3O12
_symmetry_space_group_name_H-M   'P 1'
_cell_length_a   7.75117271
_cell_length_b   7.75117271
_cell_length_c   7.80181400
_cell_angle_alpha   90.00000000
_cell_angle_beta   90.00000000
_cell_angle_gamma   90.31557683
_symmetry_Int_Tables_number   1
_chemical_formula_structural   Sr3LaTaAl3O12
_chemical_formula_sum   'Sr6 La2 Ta2 Al6 O24'
_cell_volume   468.73116755
_cell_formula_units_Z   2
loop_
 _symmetry_equiv_pos_site_id
 _symmetry_equiv_pos_as_xyz
  1  'x, y, z'
loop_
 _atom_site_type_symbol
 _atom_site_label
 _atom_site_symmetry_multiplicity
 _atom_site_fract_x
 _atom_site_fract_y
 _atom_site_fract_z
 _atom_site_occupancy
  Sr  Sr0  1  0.50000000  0.00000000  0.26156900  1
  Sr  Sr1  1  0.50000000  0.00000000  0.73843100  1
  Sr  Sr2  1  0.00000000  0.50000000  0.26156900  1
  Sr  Sr3  1  0.00000000  0.00000000  0.26217200  1
  Sr  Sr4  1  0.00000000  0.50000000  0.73843100  1
  Sr  Sr5  1  0.00000000  0.00000000  0.73782800  1
  La  La0  1  0.50000000  0.50000000  0.26354300  1
  La  La1  1  0.50000000  0.50000000  0.73645700  1
  Ta  Ta0  1  0.75259300  0.24740700  0.00000000  1
  Ta  Ta1  1  0.24740700  0.75259300  0.00000000  1
  Al  Al0  1  0.74966100  0.74966100  0.00000000  1
  Al  Al1  1  0.75244000  0.24756000  0.50000000  1
  Al  Al2  1  0.75255900  0.75255900  0.50000000  1
  Al  Al3  1  0.25033900  0.25033900  0.00000000  1
  Al  Al4  1  0.24744100  0.24744100  0.50000000  1
  Al  Al5  1  0.24756000  0.75244000  0.50000000  1
  O  O0  1  0.50447800  0.74461000  0.00000000  1
  O  O1  1  0.49552200  0.25539000  0.00000000  1
  O  O2  1  0.49915000  0.74202300  0.50000000  1
  O  O3  1  0.50085000  0.25797700  0.50000000  1
  O  O4  1  0.99429700  0.74917800  0.00000000  1
  O  O5  1  0.00570300  0.25082200  0.00000000  1
  O  O6  1  0.00064600  0.74962600  0.50000000  1
  O  O7  1  0.99935400  0.25037400  0.50000000  1
  O  O8  1  0.74613800  0.25386200  0.25528100  1
  O  O9  1  0.74481700  0.74481700  0.24999100  1
  O  O10  1  0.74613800  0.25386200  0.74471900  1
  O  O11  1  0.74481700  0.74481700  0.75000900  1
  O  O12  1  0.25518300  0.25518300  0.24999100  1
  O  O13  1  0.25386200  0.74613800  0.25528100  1
  O  O14  1  0.25518300  0.25518300  0.75000900  1
  O  O15  1  0.25386200  0.74613800  0.74471900  1
  O  O16  1  0.74461000  0.50447800  0.00000000  1
  O  O17  1  0.74917800  0.99429700  0.00000000  1
  O  O18  1  0.74202300  0.49915000  0.50000000  1
  O  O19  1  0.74962600  0.00064600  0.50000000  1
  O  O20  1  0.25539000  0.49552200  0.00000000  1
  O  O21  1  0.25082200  0.00570300  0.00000000  1
  O  O22  1  0.25797700  0.50085000  0.50000000  1
  O  O23  1  0.25037400  0.99935400  0.50000000  1
loop_
_geom_bond_atom_site_label_1
_geom_bond_atom_site_label_2
_geom_bond_distance
_geom_bond_site_symmetry_2
La0 O2 2.631098 1_555
La0 O3 2.631098 1_555
La0 O18 2.631098 1_555
La0 O22 2.631098 1_555
La0 O9 2.678325 1_555
La0 O12 2.678325 1_555
La0 O8 2.706307 1_555
La0 O13 2.706307 1_555
La0 O16 2.796954 1_555
La0 O0 2.796954 1_555
La0 O20 2.796954 1_555
La0 O1 2.796954 1_555
La1 O18 2.631098 1_555
La1 O22 2.631098 1_555
La1 O3 2.631098 1_555
La1 O2 2.631098 1_555
La1 O11 2.678325 1_555
La1 O14 2.678325 1_555
La1 O15 2.706307 1_555
La1 O10 2.706307 1_555
La1 O16 2.796954 1_556
La1 O1 2.796954 1_556
La1 O0 2.796954 1_556
La1 O20 2.796954 1_556
Al0 O17 1.896240 1_555
Al0 O4 1.896240 1_555
Al0 O16 1.900643 1_555
Al0 O0 1.900643 1_555
Al0 O9 1.951102 1_555
Al0 O11 1.951102 1_554
Al1 O8 1.910508 1_555
Al1 O10 1.910508 1_555
Al1 O7 1.913877 1_555
Al1 O19 1.913877 1_555
Al1 O3 1.952233 1_555
Al1 O18 1.952233 1_555
Al2 O19 1.923225 1_565
Al2 O6 1.923225 1_655
Al2 O11 1.952359 1_555
Al2 O9 1.952359 1_555
Al2 O18 1.965464 1_555
Al2 O2 1.965464 1_555
Al3 O21 1.896240 1_555
Al3 O5 1.896240 1_555
Al3 O20 1.900643 1_555
Al3 O1 1.900643 1_555
Al3 O14 1.951102 1_554
Al3 O12 1.951102 1_555
Al4 O7 1.923225 1_455
Al4 O23 1.923225 1_545
Al4 O14 1.952359 1_555
Al4 O12 1.952359 1_555
Al4 O22 1.965464 1_555
Al4 O3 1.965464 1_555
Al5 O13 1.910508 1_555
Al5 O15 1.910508 1_555
Al5 O23 1.913877 1_555
Al5 O6 1.913877 1_555
Al5 O22 1.952233 1_555
Al5 O2 1.952233 1_555
O0 Ta1 1.993903 1_555
O0 Sr0 2.843444 1_565
O0 Sr1 2.843444 1_564
O1 Ta0 1.993903 1_555
O1 Sr0 2.843444 1_555
O1 Sr1 2.843444 1_554
O2 Sr1 2.731065 1_565
O2 Sr0 2.731065 1_565
O3 Sr1 2.731065 1_555
O3 Sr0 2.731065 1_555
O4 Ta1 1.961932 1_655
O4 Sr2 2.810301 1_655
O4 Sr4 2.810301 1_654
O4 Sr5 2.822147 1_664
O4 Sr3 2.822147 1_665
O5 Ta0 1.961932 1_455
O5 Sr2 2.810301 1_555
O5 Sr4 2.810301 1_554
O5 Sr5 2.822147 1_554
O5 Sr3 2.822147 1_555
O6 Sr4 2.684037 1_555
O6 Sr2 2.684037 1_555
O6 Sr3 2.685007 1_565
O6 Sr5 2.685007 1_565
O7 Sr4 2.684037 1_655
O7 Sr2 2.684037 1_655
O7 Sr3 2.685007 1_655
O7 Sr5 2.685007 1_655
O8 Ta0 1.992918 1_555
O8 Sr2 2.733666 1_655
O8 Sr0 2.733666 1_555
O8 Sr3 2.790959 1_655
O9 Sr0 2.750058 1_565
O9 Sr2 2.750058 1_655
O9 Sr3 2.791173 1_665
O10 Ta0 1.992918 1_556
O10 Sr4 2.733666 1_655
O10 Sr1 2.733666 1_555
O10 Sr5 2.790959 1_655
O11 Sr1 2.750058 1_565
O11 Sr4 2.750058 1_655
O11 Sr5 2.791173 1_665
O12 Sr2 2.750058 1_555
O12 Sr0 2.750058 1_555
O12 Sr3 2.791173 1_555
O13 Ta1 1.992918 1_555
O13 Sr2 2.733666 1_555
O13 Sr0 2.733666 1_565
O13 Sr3 2.790959 1_565
O14 Sr4 2.750058 1_555
O14 Sr1 2.750058 1_555
O14 Sr5 2.791173 1_555
O15 Ta1 1.992918 1_556
O15 Sr4 2.733666 1_555
O15 Sr1 2.733666 1_565
O15 Sr5 2.790959 1_565
O16 Ta0 1.993903 1_555
O16 Sr2 2.843444 1_655
O16 Sr4 2.843444 1_654
O17 Ta0 1.961932 1_565
O17 Sr0 2.810301 1_565
O17 Sr1 2.810301 1_564
O17 Sr5 2.822147 1_664
O17 Sr3 2.822147 1_665
O18 Sr4 2.731065 1_655
O18 Sr2 2.731065 1_655
O19 Sr1 2.684037 1_555
O19 Sr0 2.684037 1_555
O19 Sr3 2.685007 1_655
O19 Sr5 2.685007 1_655
O20 Ta1 1.993903 1_555
O20 Sr2 2.843444 1_555
O20 Sr4 2.843444 1_554
O21 Ta1 1.961932 1_545
O21 Sr0 2.810301 1_555
O21 Sr1 2.810301 1_554
O21 Sr5 2.822147 1_554
O21 Sr3 2.822147 1_555
O22 Sr4 2.731065 1_555
O22 Sr2 2.731065 1_555
O23 Sr0 2.684037 1_565
O23 Sr1 2.684037 1_565
O23 Sr3 2.685007 1_565
O23 Sr5 2.685007 1_565
