# generated using pymatgen
data_As2Ir
_symmetry_space_group_name_H-M   'P 1'
_cell_length_a   6.09372031
_cell_length_b   6.09813098
_cell_length_c   6.19400718
_cell_angle_alpha   90.00000000
_cell_angle_beta   112.83313667
_cell_angle_gamma   90.00000000
_symmetry_Int_Tables_number   1
_chemical_formula_structural   As2Ir
_chemical_formula_sum   'As8 Ir4'
_cell_volume   212.13472096
_cell_formula_units_Z   4
loop_
 _symmetry_equiv_pos_site_id
 _symmetry_equiv_pos_as_xyz
  1  'x, y, z'
loop_
 _atom_site_type_symbol
 _atom_site_label
 _atom_site_symmetry_multiplicity
 _atom_site_fract_x
 _atom_site_fract_y
 _atom_site_fract_z
 _atom_site_occupancy
  As  As0  1  0.15441666  0.87400115  0.87411563  1
  As  As1  1  0.84558334  0.37400115  0.62588437  1
  As  As2  1  0.84558334  0.12599885  0.12588437  1
  As  As3  1  0.15441666  0.62599885  0.37411563  1
  As  As4  1  0.33827041  0.37113815  0.18387911  1
  As  As5  1  0.66172959  0.87113815  0.31612089  1
  As  As6  1  0.66172959  0.62886185  0.81612089  1
  As  As7  1  0.33827041  0.12886185  0.68387911  1
  Ir  Ir0  1  0.27221259  0.49955255  0.79151832  1
  Ir  Ir1  1  0.72778741  -0.00044745  0.70848168  1
  Ir  Ir2  1  0.72778741  0.50044745  0.20848168  1
  Ir  Ir3  1  0.27221259  0.00044745  0.29151832  1
loop_
_geom_bond_atom_site_label_1
_geom_bond_atom_site_label_2
_geom_bond_distance
_geom_bond_site_symmetry_2
As0 As7 2.466508 1_565
As0 Ir0 2.505214 1_555
As0 Ir1 2.515449 1_465
As0 Ir3 2.520673 1_566
As1 As6 2.466508 1_555
As1 Ir1 2.505214 1_555
As1 Ir0 2.515449 1_655
As1 Ir2 2.520673 1_555
As2 As5 2.466508 1_545
As2 Ir2 2.505214 1_555
As2 Ir3 2.515449 1_655
As2 Ir1 2.520673 1_554
As3 As4 2.466508 1_555
As3 Ir3 2.505214 1_565
As3 Ir2 2.515449 1_455
As3 Ir0 2.520673 1_555
As4 Ir0 2.433579 1_554
As4 Ir3 2.434089 1_555
As4 Ir2 2.449146 1_555
As5 Ir1 2.433579 1_565
As5 Ir2 2.434089 1_555
As5 Ir3 2.449146 1_565
As6 Ir2 2.433579 1_556
As6 Ir1 2.434089 1_565
As6 Ir0 2.449146 1_555
As7 Ir3 2.433579 1_555
As7 Ir0 2.434089 1_555
As7 Ir1 2.449146 1_555
