# generated using pymatgen
data_Ba4PrSm(Cu3O7)2
_symmetry_space_group_name_H-M   'P 1'
_cell_length_a   3.88834400
_cell_length_b   3.95962400
_cell_length_c   23.86918500
_cell_angle_alpha   90.00000000
_cell_angle_beta   90.00000000
_cell_angle_gamma   90.00000000
_symmetry_Int_Tables_number   1
_chemical_formula_structural   Ba4PrSm(Cu3O7)2
_chemical_formula_sum   'Ba4 Pr1 Sm1 Cu6 O14'
_cell_volume   367.49904786
_cell_formula_units_Z   1
loop_
 _symmetry_equiv_pos_site_id
 _symmetry_equiv_pos_as_xyz
  1  'x, y, z'
loop_
 _atom_site_type_symbol
 _atom_site_label
 _atom_site_symmetry_multiplicity
 _atom_site_fract_x
 _atom_site_fract_y
 _atom_site_fract_z
 _atom_site_occupancy
  Ba  Ba0  1  0.50000000  0.50000000  0.83999000  1
  Ba  Ba1  1  0.50000000  0.50000000  0.33969400  1
  Ba  Ba2  1  0.50000000  0.50000000  0.16001000  1
  Ba  Ba3  1  0.50000000  0.50000000  0.66030600  1
  Pr  Pr0  1  0.50000000  0.50000000  0.50000000  1
  Sm  Sm0  1  0.50000000  0.50000000  0.00000000  1
  Cu  Cu0  1  0.00000000  0.00000000  0.75011100  1
  Cu  Cu1  1  0.00000000  0.00000000  0.24988900  1
  Cu  Cu2  1  0.00000000  0.00000000  0.92406700  1
  Cu  Cu3  1  0.00000000  0.00000000  0.42292500  1
  Cu  Cu4  1  0.00000000  0.00000000  0.07593300  1
  Cu  Cu5  1  0.00000000  0.00000000  0.57707500  1
  O  O0  1  0.00000000  0.50000000  0.75020400  1
  O  O1  1  0.00000000  0.50000000  0.24979600  1
  O  O2  1  0.00000000  0.50000000  0.93716800  1
  O  O3  1  0.00000000  0.50000000  0.43484600  1
  O  O4  1  0.00000000  0.50000000  0.06283200  1
  O  O5  1  0.00000000  0.50000000  0.56515400  1
  O  O6  1  0.00000000  0.00000000  0.82913600  1
  O  O7  1  0.00000000  0.00000000  0.32875200  1
  O  O8  1  0.00000000  0.00000000  0.17086400  1
  O  O9  1  0.00000000  0.00000000  0.67124800  1
  O  O10  1  0.50000000  0.00000000  0.93766900  1
  O  O11  1  0.50000000  0.00000000  0.43538500  1
  O  O12  1  0.50000000  0.00000000  0.06233100  1
  O  O13  1  0.50000000  0.00000000  0.56461500  1
loop_
_geom_bond_atom_site_label_1
_geom_bond_atom_site_label_2
_geom_bond_distance
_geom_bond_site_symmetry_2
Ba0 O6 2.786859 1_655
Ba0 O6 2.786859 1_665
Ba0 O6 2.786859 1_555
Ba0 O6 2.786859 1_565
Ba0 O0 2.893573 1_555
Ba0 O0 2.893573 1_655
Ba0 O2 3.026576 1_655
Ba0 O2 3.026576 1_555
Ba0 O10 3.058698 1_555
Ba0 O10 3.058698 1_565
Ba1 O7 2.787055 1_565
Ba1 O7 2.787055 1_655
Ba1 O7 2.787055 1_665
Ba1 O7 2.787055 1_555
Ba1 O1 2.895553 1_655
Ba1 O1 2.895553 1_555
Ba1 O3 2.989675 1_655
Ba1 O3 2.989675 1_555
Ba1 O11 3.022683 1_555
Ba1 O11 3.022683 1_565
Ba2 O8 2.786859 1_565
Ba2 O8 2.786859 1_655
Ba2 O8 2.786859 1_665
Ba2 O8 2.786859 1_555
Ba2 O1 2.893573 1_555
Ba2 O1 2.893573 1_655
Ba2 O4 3.026576 1_555
Ba2 O4 3.026576 1_655
Ba2 O12 3.058698 1_555
Ba2 O12 3.058698 1_565
Ba3 O9 2.787055 1_665
Ba3 O9 2.787055 1_555
Ba3 O9 2.787055 1_655
Ba3 O9 2.787055 1_565
Ba3 O0 2.895553 1_555
Ba3 O0 2.895553 1_655
Ba3 O5 2.989675 1_555
Ba3 O5 2.989675 1_655
Ba3 O13 3.022683 1_555
Ba3 O13 3.022683 1_565
Cu0 O9 1.882396 1_555
Cu0 O6 1.886262 1_555
Cu0 O0 1.979813 1_555
Cu0 O0 1.979813 1_545
Cu1 O7 1.882396 1_555
Cu1 O8 1.886262 1_555
Cu1 O1 1.979813 1_555
Cu1 O1 1.979813 1_545
Cu2 O10 1.971095 1_455
Cu2 O10 1.971095 1_555
Cu2 O2 2.004356 1_545
Cu2 O2 2.004356 1_555
Cu2 O6 2.265926 1_555
Cu3 O11 1.966789 1_455
Cu3 O11 1.966789 1_555
Cu3 O3 2.000155 1_555
Cu3 O3 2.000155 1_545
Cu3 O7 2.247833 1_555
Cu4 O12 1.971095 1_455
Cu4 O12 1.971095 1_555
Cu4 O4 2.004356 1_555
Cu4 O4 2.004356 1_545
Cu4 O8 2.265926 1_555
Cu5 O13 1.966789 1_455
Cu5 O13 1.966789 1_555
Cu5 O5 2.000155 1_555
Cu5 O5 2.000155 1_545
Cu5 O9 2.247833 1_555
O2 Sm0 2.455413 1_556
O2 Sm0 2.455413 1_456
O3 Pr0 2.489652 1_555
O3 Pr0 2.489652 1_455
O4 Sm0 2.455413 1_455
O4 Sm0 2.455413 1_555
O5 Pr0 2.489652 1_555
O5 Pr0 2.489652 1_455
O10 Sm0 2.476525 1_556
O10 Sm0 2.476525 1_546
O11 Pr0 2.509655 1_555
O11 Pr0 2.509655 1_545
O12 Sm0 2.476525 1_555
O12 Sm0 2.476525 1_545
O13 Pr0 2.509655 1_555
O13 Pr0 2.509655 1_545
