# generated using pymatgen
data_Pr4AlFe33
_symmetry_space_group_name_H-M   'P 1'
_cell_length_a   6.49843361
_cell_length_b   6.49843361
_cell_length_c   13.02522582
_cell_angle_alpha   82.82700846
_cell_angle_beta   82.82700846
_cell_angle_gamma   82.85056997
_symmetry_Int_Tables_number   1
_chemical_formula_structural   Pr4AlFe33
_chemical_formula_sum   'Pr4 Al1 Fe33'
_cell_volume   538.15316035
_cell_formula_units_Z   1
loop_
 _symmetry_equiv_pos_site_id
 _symmetry_equiv_pos_as_xyz
  1  'x, y, z'
loop_
 _atom_site_type_symbol
 _atom_site_label
 _atom_site_symmetry_multiplicity
 _atom_site_fract_x
 _atom_site_fract_y
 _atom_site_fract_z
 _atom_site_occupancy
  Pr  Pr0  1  0.34670400  0.34670400  0.67193300  1
  Pr  Pr1  1  0.34204900  0.34204900  0.17163100  1
  Pr  Pr2  1  0.65803700  0.65803700  0.82848300  1
  Pr  Pr3  1  0.65592900  0.65592900  0.32974800  1
  Al  Al0  1  0.09521100  0.09521100  0.54765300  1
  Fe  Fe0  1  0.71380700  0.28558900  0.50044800  1
  Fe  Fe1  1  0.71232400  0.28771300  0.99989700  1
  Fe  Fe2  1  0.28801800  0.00041000  0.85563300  1
  Fe  Fe3  1  0.28600700  0.99983100  0.35703600  1
  Fe  Fe4  1  0.00086100  0.71396500  0.64261600  1
  Fe  Fe5  1  0.00043100  0.71173000  0.14441600  1
  Fe  Fe6  1  0.71396500  0.00086100  0.64261600  1
  Fe  Fe7  1  0.71173000  0.00043100  0.14441600  1
  Fe  Fe8  1  0.00041000  0.28801800  0.85563300  1
  Fe  Fe9  1  0.99983100  0.28600700  0.35703600  1
  Fe  Fe10  1  0.28771300  0.71232400  0.99989700  1
  Fe  Fe11  1  0.28558900  0.71380700  0.50044800  1
  Fe  Fe12  1  0.00024100  0.00024100  0.75031400  1
  Fe  Fe13  1  0.99950600  0.99950600  0.24991000  1
  Fe  Fe14  1  0.00012100  0.50007600  0.50003200  1
  Fe  Fe15  1  0.99944000  0.50003700  0.00000800  1
  Fe  Fe16  1  0.50003700  0.99944000  0.00000800  1
  Fe  Fe17  1  0.50007600  0.00012100  0.50003200  1
  Fe  Fe18  1  0.65928800  0.65928800  0.57632200  1
  Fe  Fe19  1  0.65947200  0.65947200  0.07709900  1
  Fe  Fe20  1  0.65897500  0.15380400  0.82932100  1
  Fe  Fe21  1  0.65787400  0.15222400  0.32979100  1
  Fe  Fe22  1  0.15380400  0.65897500  0.82932100  1
  Fe  Fe23  1  0.15222400  0.65787400  0.32979100  1
  Fe  Fe24  1  0.34031200  0.34031200  0.92324300  1
  Fe  Fe25  1  0.34093800  0.34093800  0.42308300  1
  Fe  Fe26  1  0.34286400  0.84601800  0.67020600  1
  Fe  Fe27  1  0.34212800  0.84646800  0.17055000  1
  Fe  Fe28  1  0.84601800  0.34286400  0.67020600  1
  Fe  Fe29  1  0.84646800  0.34212800  0.17055000  1
  Fe  Fe30  1  0.09647400  0.09647400  0.04847100  1
  Fe  Fe31  1  0.90375900  0.90375900  0.95210800  1
  Fe  Fe32  1  0.90136500  0.90136500  0.45009100  1
loop_
_geom_bond_atom_site_label_1
_geom_bond_atom_site_label_2
_geom_bond_distance
_geom_bond_site_symmetry_2
Al0 Fe32 2.446023 1_445
Al0 Fe17 2.640488 1_555
Al0 Fe14 2.640488 1_555
Al0 Fe12 2.647817 1_555
Al0 Fe25 2.659530 1_555
Al0 Fe28 2.666043 1_455
Al0 Fe26 2.666043 1_545
Al0 Fe4 2.732640 1_545
Al0 Fe6 2.732640 1_455
Al0 Fe11 2.734788 1_545
Al0 Fe0 2.734788 1_455
Al0 Fe9 2.740467 1_455
Al0 Fe3 2.740467 1_545
Al0 Pr0 3.154138 1_555
Fe0 Fe6 2.448869 1_555
Fe0 Fe17 2.452801 1_555
Fe0 Fe14 2.458803 1_655
Fe0 Fe9 2.465167 1_555
Fe0 Fe28 2.554479 1_555
Fe0 Fe21 2.566232 1_555
Fe0 Fe18 2.701365 1_555
Fe0 Fe25 2.705251 1_555
Fe0 Fe32 2.757152 1_545
Fe0 Pr0 3.081055 1_555
Fe0 Pr3 3.086115 1_555
Fe1 Fe15 2.454990 1_556
Fe1 Fe16 2.460600 1_546
Fe1 Fe7 2.480129 1_556
Fe1 Fe8 2.481367 1_655
Fe1 Fe20 2.562045 1_555
Fe1 Fe29 2.565672 1_556
Fe1 Fe24 2.696268 1_555
Fe1 Fe19 2.698031 1_556
Fe1 Fe31 2.753623 1_545
Fe1 Fe30 2.757255 1_656
Fe1 Pr2 3.089394 1_555
Fe1 Pr1 3.091882 1_556
Fe2 Fe8 2.473223 1_555
Fe2 Fe24 2.552897 1_555
Fe2 Fe22 2.558797 1_545
Fe2 Fe20 2.688641 1_555
Fe2 Fe26 2.695951 1_545
Fe2 Fe31 2.760188 1_445
Fe2 Fe30 2.768644 1_556
Fe2 Pr2 3.083747 1_545
Fe2 Pr0 3.094484 1_555
Fe3 Fe9 2.460909 1_465
Fe3 Fe32 2.752131 1_455
Fe3 Pr3 3.089872 1_555
Fe3 Pr1 3.090468 1_565
Fe4 Fe6 2.467100 1_465
Fe4 Pr0 3.089394 1_555
Fe4 Pr2 3.096968 1_455
Fe5 Fe7 2.482622 1_465
Fe5 Pr1 3.079221 1_555
Fe5 Pr3 3.099126 1_455
Fe6 Pr0 3.089394 1_555
Fe6 Pr2 3.096968 1_545
Fe7 Pr1 3.079221 1_555
Fe7 Pr3 3.099126 1_545
Fe8 Pr2 3.083747 1_455
Fe8 Pr0 3.094484 1_555
Fe9 Pr3 3.089872 1_555
Fe9 Pr1 3.090468 1_655
Fe10 Fe16 2.454990 1_556
Fe10 Fe15 2.460600 1_456
Fe10 Fe5 2.480129 1_556
Fe10 Fe2 2.481367 1_565
Fe10 Fe22 2.562045 1_555
Fe10 Fe27 2.565672 1_556
Fe10 Fe24 2.696268 1_555
Fe10 Fe19 2.698031 1_556
Fe10 Fe31 2.753623 1_455
Fe10 Fe30 2.757255 1_566
Fe10 Pr2 3.089394 1_555
Fe10 Pr1 3.091882 1_556
Fe11 Fe4 2.448869 1_555
Fe11 Fe14 2.452801 1_555
Fe11 Fe17 2.458803 1_565
Fe11 Fe3 2.465167 1_555
Fe11 Fe26 2.554479 1_555
Fe11 Fe23 2.566232 1_555
Fe11 Fe18 2.701365 1_555
Fe11 Fe25 2.705251 1_555
Fe11 Fe32 2.757152 1_455
Fe11 Pr0 3.081055 1_555
Fe11 Pr3 3.086115 1_555
Fe12 Fe8 2.453705 1_555
Fe12 Fe2 2.453705 1_555
Fe12 Fe4 2.465190 1_545
Fe12 Fe6 2.465190 1_455
Fe12 Fe20 2.471575 1_455
Fe12 Fe22 2.471575 1_545
Fe12 Fe28 2.485167 1_455
Fe12 Fe26 2.485167 1_545
Fe12 Fe31 2.639984 1_445
Fe12 Pr2 3.320725 1_445
Fe12 Pr0 3.360688 1_555
Fe13 Fe5 2.454028 1_655
Fe13 Fe7 2.454028 1_565
Fe13 Fe9 2.462476 1_565
Fe13 Fe3 2.462476 1_655
Fe13 Fe23 2.475641 1_655
Fe13 Fe21 2.475641 1_565
Fe13 Fe29 2.479047 1_565
Fe13 Fe27 2.479047 1_655
Fe13 Fe32 2.623493 1_555
Fe13 Fe30 2.636564 1_665
Fe13 Pr1 3.324074 1_665
Fe13 Pr3 3.336555 1_555
Fe14 Fe4 2.455537 1_555
Fe14 Fe9 2.460264 1_455
Fe14 Fe23 2.466293 1_555
Fe14 Fe28 2.468708 1_455
Fe14 Fe18 2.469876 1_455
Fe14 Fe25 2.472576 1_555
Fe14 Fe32 2.626673 1_455
Fe14 Pr3 3.325980 1_455
Fe14 Pr0 3.350020 1_555
Fe15 Fe8 2.465079 1_654
Fe15 Fe5 2.466152 1_655
Fe15 Fe19 2.469536 1_555
Fe15 Fe29 2.471597 1_555
Fe15 Fe24 2.473397 1_654
Fe15 Fe22 2.478571 1_654
Fe15 Fe31 2.634577 1_554
Fe15 Fe30 2.635923 1_655
Fe15 Pr2 3.326519 1_554
Fe15 Pr1 3.333009 1_655
Fe16 Fe2 2.465079 1_564
Fe16 Fe7 2.466152 1_565
Fe16 Fe19 2.469536 1_555
Fe16 Fe27 2.471597 1_555
Fe16 Fe24 2.473397 1_564
Fe16 Fe20 2.478571 1_564
Fe16 Fe31 2.634577 1_554
Fe16 Fe30 2.635923 1_565
Fe16 Pr2 3.326519 1_554
Fe16 Pr1 3.333009 1_565
Fe17 Fe6 2.455537 1_555
Fe17 Fe3 2.460264 1_545
Fe17 Fe21 2.466293 1_555
Fe17 Fe26 2.468708 1_545
Fe17 Fe18 2.469876 1_545
Fe17 Fe25 2.472576 1_555
Fe17 Fe32 2.626673 1_545
Fe17 Pr3 3.325980 1_545
Fe17 Pr0 3.350020 1_555
Fe18 Fe26 2.513482 1_555
Fe18 Fe28 2.513482 1_555
Fe18 Fe4 2.559392 1_655
Fe18 Fe6 2.559392 1_565
Fe18 Fe32 2.641383 1_555
Fe18 Pr0 3.093042 1_555
Fe18 Pr3 3.217295 1_555
Fe18 Pr2 3.282446 1_555
Fe19 Fe27 2.515920 1_555
Fe19 Fe29 2.515920 1_555
Fe19 Fe5 2.557398 1_655
Fe19 Fe7 2.557398 1_565
Fe19 Fe31 2.650877 1_554
Fe19 Pr1 3.133137 1_555
Fe19 Pr2 3.240638 1_554
Fe19 Pr3 3.285237 1_555
Fe20 Fe24 2.523234 1_555
Fe20 Fe28 2.527622 1_555
Fe20 Fe8 2.558797 1_655
Fe20 Fe31 2.659226 1_545
Fe20 Fe6 2.706973 1_555
Fe20 Pr0 3.107384 1_555
Fe20 Pr2 3.223857 1_545
Fe20 Pr2 3.274629 1_555
Fe21 Fe25 2.518105 1_555
Fe21 Fe29 2.535643 1_555
Fe21 Fe9 2.564123 1_555
Fe21 Fe32 2.637367 1_545
Fe21 Fe7 2.687637 1_555
Fe21 Fe3 2.690753 1_545
Fe21 Pr1 3.125515 1_555
Fe21 Pr3 3.226808 1_545
Fe21 Pr3 3.271675 1_555
Fe22 Fe24 2.523234 1_555
Fe22 Fe26 2.527622 1_555
Fe22 Fe31 2.659226 1_455
Fe22 Fe8 2.688641 1_555
Fe22 Fe4 2.706973 1_555
Fe22 Pr0 3.107384 1_555
Fe22 Pr2 3.223857 1_455
Fe22 Pr2 3.274629 1_555
Fe23 Fe25 2.518105 1_555
Fe23 Fe27 2.535643 1_555
Fe23 Fe3 2.564123 1_555
Fe23 Fe32 2.637367 1_455
Fe23 Fe5 2.687637 1_555
Fe23 Fe9 2.690753 1_455
Fe23 Pr1 3.125515 1_555
Fe23 Pr3 3.226808 1_455
Fe23 Pr3 3.271675 1_555
Fe24 Fe8 2.552897 1_555
Fe24 Fe30 2.648834 1_556
Fe24 Pr2 3.136529 1_555
Fe24 Pr1 3.238172 1_556
Fe24 Pr0 3.263574 1_555
Fe25 Fe3 2.555574 1_545
Fe25 Fe9 2.555574 1_455
Fe25 Pr3 3.107730 1_555
Fe25 Pr0 3.251157 1_555
Fe25 Pr1 3.273433 1_555
Fe26 Fe4 2.560504 1_555
Fe26 Fe6 2.693444 1_565
Fe26 Pr2 3.120904 1_555
Fe26 Pr0 3.239035 1_555
Fe26 Pr0 3.259779 1_565
Fe27 Fe5 2.561302 1_555
Fe27 Fe30 2.656973 1_565
Fe27 Fe7 2.682284 1_565
Fe27 Fe3 2.705412 1_555
Fe27 Pr3 3.126918 1_555
Fe27 Pr1 3.222225 1_565
Fe27 Pr1 3.276269 1_555
Fe28 Fe6 2.560504 1_555
Fe28 Fe4 2.693444 1_655
Fe28 Fe8 2.695951 1_655
Fe28 Pr2 3.120904 1_555
Fe28 Pr0 3.239035 1_555
Fe28 Pr0 3.259779 1_655
Fe29 Fe7 2.561302 1_555
Fe29 Fe30 2.656973 1_655
Fe29 Fe5 2.682284 1_655
Fe29 Fe9 2.705412 1_555
Fe29 Pr3 3.126918 1_555
Fe29 Pr1 3.222225 1_655
Fe29 Pr1 3.276269 1_555
Fe30 Fe31 2.426443 1_444
Fe30 Fe7 2.759675 1_455
Fe30 Fe5 2.759675 1_545
Fe30 Fe8 2.768644 1_554
Fe30 Pr1 3.095073 1_555
Fe31 Fe8 2.760188 1_665
Fe31 Fe5 2.764673 1_656
Fe31 Fe7 2.764673 1_566
Fe31 Pr2 3.100226 1_555
Fe32 Fe9 2.752131 1_565
Fe32 Fe6 2.763302 1_565
Fe32 Fe4 2.763302 1_655
Fe32 Pr3 3.070288 1_555
