# generated using pymatgen
data_Li4Mn3CoO8
_symmetry_space_group_name_H-M   'P 1'
_cell_length_a   6.07108919
_cell_length_b   6.07108919
_cell_length_c   5.31588621
_cell_angle_alpha   69.88189194
_cell_angle_beta   69.88189194
_cell_angle_gamma   57.17732152
_symmetry_Int_Tables_number   1
_chemical_formula_structural   Li4Mn3CoO8
_chemical_formula_sum   'Li4 Mn3 Co1 O8'
_cell_volume   151.49519186
_cell_formula_units_Z   1
loop_
 _symmetry_equiv_pos_site_id
 _symmetry_equiv_pos_as_xyz
  1  'x, y, z'
loop_
 _atom_site_type_symbol
 _atom_site_label
 _atom_site_symmetry_multiplicity
 _atom_site_fract_x
 _atom_site_fract_y
 _atom_site_fract_z
 _atom_site_occupancy
  Li  Li0  1  0.75145700  0.24854300  0.50000000  1
  Li  Li1  1  0.74714400  0.74714400  0.48440600  1
  Li  Li2  1  0.25285600  0.25285600  0.51559400  1
  Li  Li3  1  0.24854300  0.75145700  0.50000000  1
  Mn  Mn0  1  0.00000000  0.50000000  0.00000000  1
  Mn  Mn1  1  0.50000000  0.00000000  0.00000000  1
  Mn  Mn2  1  0.50000000  0.50000000  0.00000000  1
  Co  Co0  1  0.00000000  0.00000000  0.00000000  1
  O  O0  1  0.62560300  0.14226900  0.23773600  1
  O  O1  1  0.64160800  0.64160800  0.22742500  1
  O  O2  1  0.11902600  0.11902600  0.20616700  1
  O  O3  1  0.14226900  0.62560300  0.23773600  1
  O  O4  1  0.85773100  0.37439700  0.76226400  1
  O  O5  1  0.88097400  0.88097400  0.79383300  1
  O  O6  1  0.35839200  0.35839200  0.77257500  1
  O  O7  1  0.37439700  0.85773100  0.76226400  1
loop_
_geom_bond_atom_site_label_1
_geom_bond_atom_site_label_2
_geom_bond_distance
_geom_bond_site_symmetry_2
Li0 O2 2.140730 1_655
Li0 O5 2.140730 1_545
Li0 O6 2.190830 1_555
Li0 O1 2.190830 1_555
Li0 O0 2.197679 1_555
Li0 O4 2.197679 1_555
Li1 O1 2.082422 1_555
Li1 O7 2.118789 1_555
Li1 O4 2.118789 1_555
Li1 O3 2.145038 1_655
Li1 O0 2.145038 1_565
Li1 O5 2.565209 1_555
Li2 O6 2.082422 1_555
Li2 O3 2.118789 1_555
Li2 O0 2.118789 1_555
Li2 O7 2.145038 1_545
Li2 O4 2.145038 1_455
Li2 O2 2.565209 1_555
Li3 O2 2.140730 1_565
Li3 O5 2.140730 1_455
Li3 O6 2.190830 1_555
Li3 O1 2.190830 1_555
Li3 O7 2.197679 1_555
Li3 O3 2.197679 1_555
Mn0 O6 1.952563 1_554
Mn0 O1 1.952563 1_455
Mn0 O5 2.015458 1_454
Mn0 O2 2.015458 1_555
Mn0 O3 2.247773 1_555
Mn0 O4 2.247773 1_454
Mn1 O6 1.952563 1_554
Mn1 O1 1.952563 1_545
Mn1 O5 2.015458 1_544
Mn1 O2 2.015458 1_555
Mn1 O0 2.247773 1_555
Mn1 O7 2.247773 1_544
Mn2 O7 1.968467 1_554
Mn2 O4 1.968467 1_554
Mn2 O0 1.968467 1_555
Mn2 O3 1.968467 1_555
Mn2 O1 2.273996 1_555
Mn2 O6 2.273996 1_554
Co0 O2 1.975136 1_555
Co0 O5 1.975136 1_444
Co0 O3 2.038670 1_545
Co0 O0 2.038670 1_455
Co0 O7 2.038670 1_544
Co0 O4 2.038670 1_454
