# generated using pymatgen
data_SrIBr
_symmetry_space_group_name_H-M   'P 1'
_cell_length_a   5.13191400
_cell_length_b   8.16910600
_cell_length_c   11.03085200
_cell_angle_alpha   90.00000000
_cell_angle_beta   90.00000000
_cell_angle_gamma   90.00000000
_symmetry_Int_Tables_number   1
_chemical_formula_structural   SrIBr
_chemical_formula_sum   'Sr4 I4 Br4'
_cell_volume   462.44805694
_cell_formula_units_Z   4
loop_
 _symmetry_equiv_pos_site_id
 _symmetry_equiv_pos_as_xyz
  1  'x, y, z'
loop_
 _atom_site_type_symbol
 _atom_site_label
 _atom_site_symmetry_multiplicity
 _atom_site_fract_x
 _atom_site_fract_y
 _atom_site_fract_z
 _atom_site_occupancy
  Sr  Sr0  1  0.75000000  0.28013100  0.57890000  1
  Sr  Sr1  1  0.75000000  0.78013100  0.92110000  1
  Sr  Sr2  1  0.25000000  0.71986900  0.42110000  1
  Sr  Sr3  1  0.25000000  0.21986900  0.07890000  1
  I  I0  1  0.75000000  0.36716000  0.89047900  1
  I  I1  1  0.75000000  0.86716000  0.60952100  1
  I  I2  1  0.25000000  0.63284000  0.10952100  1
  I  I3  1  0.25000000  0.13284000  0.39047900  1
  Br  Br0  1  0.75000000  0.51779600  0.36284000  1
  Br  Br1  1  0.75000000  0.01779600  0.13716000  1
  Br  Br2  1  0.25000000  0.48220400  0.63716000  1
  Br  Br3  1  0.25000000  0.98220400  0.86284000  1
loop_
_geom_bond_atom_site_label_1
_geom_bond_atom_site_label_2
_geom_bond_distance
_geom_bond_site_symmetry_2
I0 Sr1 3.390471 1_555
I0 Sr0 3.509743 1_555
I0 Sr3 3.514519 1_556
I0 Sr3 3.514519 1_656
I1 Sr0 3.390471 1_565
I1 Sr1 3.509743 1_555
I1 Sr2 3.514519 1_655
I1 Sr2 3.514519 1_555
I2 Sr3 3.390471 1_555
I2 Sr2 3.509743 1_555
I2 Sr1 3.514519 1_554
I2 Sr1 3.514519 1_454
I3 Sr2 3.390471 1_545
I3 Sr3 3.509743 1_555
I3 Sr0 3.514519 1_555
I3 Sr0 3.514519 1_455
Br0 Sr0 3.074037 1_555
Br0 Sr2 3.118034 1_555
Br0 Sr2 3.118034 1_655
Br1 Sr1 3.074037 1_544
Br1 Sr3 3.118034 1_655
Br1 Sr3 3.118034 1_555
Br2 Sr2 3.074037 1_555
Br2 Sr0 3.118034 1_455
Br2 Sr0 3.118034 1_555
Br3 Sr3 3.074037 1_566
Br3 Sr1 3.118034 1_555
Br3 Sr1 3.118034 1_455
