# generated using pymatgen
data_TbAsS
_symmetry_space_group_name_H-M   'P 1'
_cell_length_a   3.84398900
_cell_length_b   3.86697000
_cell_length_c   17.11700100
_cell_angle_alpha   90.00000000
_cell_angle_beta   90.00000000
_cell_angle_gamma   90.00000000
_symmetry_Int_Tables_number   1
_chemical_formula_structural   TbAsS
_chemical_formula_sum   'Tb4 As4 S4'
_cell_volume   254.43720435
_cell_formula_units_Z   4
loop_
 _symmetry_equiv_pos_site_id
 _symmetry_equiv_pos_as_xyz
  1  'x, y, z'
loop_
 _atom_site_type_symbol
 _atom_site_label
 _atom_site_symmetry_multiplicity
 _atom_site_fract_x
 _atom_site_fract_y
 _atom_site_fract_z
 _atom_site_occupancy
  Tb  Tb0  1  0.25000000  0.77151700  0.14561800  1
  Tb  Tb1  1  0.25000000  0.72848300  0.64561800  1
  Tb  Tb2  1  0.75000000  0.22848300  0.85438200  1
  Tb  Tb3  1  0.75000000  0.27151700  0.35438200  1
  As  As0  1  0.75000000  0.78168000  0.49825400  1
  As  As1  1  0.75000000  0.71832000  0.99825400  1
  As  As2  1  0.25000000  0.21832000  0.50174600  1
  As  As3  1  0.25000000  0.28168000  0.00174600  1
  S  S0  1  0.25000000  0.76995800  0.31333300  1
  S  S1  1  0.25000000  0.73004200  0.81333300  1
  S  S2  1  0.75000000  0.23004200  0.68666700  1
  S  S3  1  0.75000000  0.26995800  0.18666700  1
loop_
_geom_bond_atom_site_label_1
_geom_bond_atom_site_label_2
_geom_bond_distance
_geom_bond_site_symmetry_2
As0 As2 2.559019 1_565
As0 As2 2.559019 1_665
As0 As2 2.905767 1_655
As0 As2 2.905767 1_555
As0 Tb3 3.106866 1_565
As0 Tb3 3.155402 1_555
As0 Tb1 3.177897 1_555
As0 Tb1 3.177897 1_655
As1 As3 2.559019 1_656
As1 As3 2.559019 1_556
As1 As3 2.905767 1_566
As1 As3 2.905767 1_666
As1 Tb2 3.106866 1_555
As1 Tb2 3.155402 1_565
As1 Tb0 3.177897 1_556
As1 Tb0 3.177897 1_656
As2 Tb1 3.106866 1_545
As2 Tb1 3.155402 1_555
As2 Tb3 3.177897 1_455
As2 Tb3 3.177897 1_555
As3 Tb0 3.106866 1_555
As3 Tb0 3.155402 1_545
As3 Tb2 3.177897 1_454
As3 Tb2 3.177897 1_554
S0 Tb3 2.811200 1_455
S0 Tb3 2.811200 1_555
S0 Tb3 2.819481 1_465
S0 Tb3 2.819481 1_565
S0 Tb0 2.870784 1_555
S1 Tb2 2.811200 1_565
S1 Tb2 2.811200 1_465
S1 Tb2 2.819481 1_455
S1 Tb2 2.819481 1_555
S1 Tb1 2.870784 1_555
S2 Tb1 2.811200 1_555
S2 Tb1 2.811200 1_655
S2 Tb1 2.819481 1_545
S2 Tb1 2.819481 1_645
S2 Tb2 2.870784 1_555
S3 Tb0 2.811200 1_645
S3 Tb0 2.811200 1_545
S3 Tb0 2.819481 1_555
S3 Tb0 2.819481 1_655
S3 Tb3 2.870784 1_555
