# generated using pymatgen
data_Cu7Se2(Cl3O4)2
_symmetry_space_group_name_H-M   'P 1'
_cell_length_a   14.63762800
_cell_length_b   10.58528800
_cell_length_c   11.11272630
_cell_angle_alpha   66.32220371
_cell_angle_beta   90.00000000
_cell_angle_gamma   90.00000000
_symmetry_Int_Tables_number   1
_chemical_formula_structural   Cu7Se2(Cl3O4)2
_chemical_formula_sum   'Cu28 Se8 Cl24 O32'
_cell_volume   1576.89695764
_cell_formula_units_Z   4
loop_
 _symmetry_equiv_pos_site_id
 _symmetry_equiv_pos_as_xyz
  1  'x, y, z'
loop_
 _atom_site_type_symbol
 _atom_site_label
 _atom_site_symmetry_multiplicity
 _atom_site_fract_x
 _atom_site_fract_y
 _atom_site_fract_z
 _atom_site_occupancy
  Cu  Cu0  1  0.62326100  0.48309200  0.74197300  1
  Cu  Cu1  1  0.12326100  0.01690800  0.25802700  1
  Cu  Cu2  1  0.37673900  0.51690800  0.25802700  1
  Cu  Cu3  1  0.87673900  0.98309200  0.74197300  1
  Cu  Cu4  1  0.71289600  0.47892100  0.99973900  1
  Cu  Cu5  1  0.21289600  0.02107900  0.00026100  1
  Cu  Cu6  1  0.28710400  0.52107900  0.00026100  1
  Cu  Cu7  1  0.78710400  0.97892100  0.99973900  1
  Cu  Cu8  1  0.82761800  0.31793100  0.86538600  1
  Cu  Cu9  1  0.32761800  0.18206900  0.13461400  1
  Cu  Cu10  1  0.17238200  0.68206900  0.13461400  1
  Cu  Cu11  1  0.67238200  0.81793100  0.86538600  1
  Cu  Cu12  1  0.80309200  0.62885700  0.69657100  1
  Cu  Cu13  1  0.30309200  0.87114300  0.30342900  1
  Cu  Cu14  1  0.19690800  0.37114300  0.30342900  1
  Cu  Cu15  1  0.69690800  0.12885700  0.69657100  1
  Cu  Cu16  1  0.56260500  0.32101400  0.34619400  1
  Cu  Cu17  1  0.06260500  0.17898600  0.65380600  1
  Cu  Cu18  1  0.43739500  0.67898600  0.65380600  1
  Cu  Cu19  1  0.93739500  0.82101400  0.34619400  1
  Cu  Cu20  1  0.50000000  0.50000000  0.50000000  1
  Cu  Cu21  1  0.00000000  0.00000000  0.50000000  1
  Cu  Cu22  1  0.56297600  0.64911800  0.21019500  1
  Cu  Cu23  1  0.06297600  0.85088200  0.78980500  1
  Cu  Cu24  1  0.43702400  0.35088200  0.78980500  1
  Cu  Cu25  1  0.93702400  0.14911800  0.21019500  1
  Cu  Cu26  1  0.50000000  0.00000000  0.50000000  1
  Cu  Cu27  1  0.00000000  0.50000000  0.50000000  1
  Se  Se0  1  0.62413100  0.19492100  0.00083500  1
  Se  Se1  1  0.12413100  0.30507900  0.99916500  1
  Se  Se2  1  0.37586900  0.80507900  0.99916500  1
  Se  Se3  1  0.87586900  0.69492100  0.00083500  1
  Se  Se4  1  0.36844500  0.23368200  0.53210500  1
  Se  Se5  1  0.86844500  0.26631800  0.46789500  1
  Se  Se6  1  0.63155500  0.76631800  0.46789500  1
  Se  Se7  1  0.13155500  0.73368200  0.53210500  1
  Cl  Cl0  1  0.67568000  0.47971900  0.21404100  1
  Cl  Cl1  1  0.17568000  0.02028100  0.78595900  1
  Cl  Cl2  1  0.32432000  0.52028100  0.78595900  1
  Cl  Cl3  1  0.82432000  0.97971900  0.21404100  1
  Cl  Cl4  1  0.87808100  0.34967100  0.08650600  1
  Cl  Cl5  1  0.37808100  0.15032900  0.91349400  1
  Cl  Cl6  1  0.12191900  0.65032900  0.91349400  1
  Cl  Cl7  1  0.62191900  0.84967100  0.08650600  1
  Cl  Cl8  1  0.62959300  0.11359900  0.38582300  1
  Cl  Cl9  1  0.12959300  0.38640100  0.61417700  1
  Cl  Cl10  1  0.37040700  0.88640100  0.61417700  1
  Cl  Cl11  1  0.87040700  0.61359900  0.38582300  1
  Cl  Cl12  1  0.84180500  0.84210800  0.56771100  1
  Cl  Cl13  1  0.34180500  0.65789200  0.43228900  1
  Cl  Cl14  1  0.15819500  0.15789200  0.43228900  1
  Cl  Cl15  1  0.65819500  0.34210800  0.56771100  1
  Cl  Cl16  1  0.93002100  0.49880600  0.74877300  1
  Cl  Cl17  1  0.43002100  0.00119400  0.25122700  1
  Cl  Cl18  1  0.06997900  0.50119400  0.25122700  1
  Cl  Cl19  1  0.56997900  0.99880600  0.74877300  1
  Cl  Cl20  1  0.57110300  0.65117100  0.88617000  1
  Cl  Cl21  1  0.07110300  0.84882900  0.11383000  1
  Cl  Cl22  1  0.42889700  0.34882900  0.11383000  1
  Cl  Cl23  1  0.92889700  0.15117100  0.88617000  1
  O  O0  1  0.49831400  0.48525200  0.33166000  1
  O  O1  1  0.99831400  0.01474800  0.66834000  1
  O  O2  1  0.50168600  0.51474800  0.66834000  1
  O  O3  1  0.00168600  0.98525200  0.33166000  1
  O  O4  1  0.74052500  0.46805800  0.82779600  1
  O  O5  1  0.24052500  0.03194200  0.17220400  1
  O  O6  1  0.25947500  0.53194200  0.17220400  1
  O  O7  1  0.75947500  0.96805800  0.82779600  1
  O  O8  1  0.65656300  0.30019900  0.07367000  1
  O  O9  1  0.15656300  0.19980100  0.92633000  1
  O  O10  1  0.34343700  0.69980100  0.92633000  1
  O  O11  1  0.84343700  0.80019900  0.07367000  1
  O  O12  1  0.72968700  0.16687800  0.93123400  1
  O  O13  1  0.22968700  0.33312200  0.06876600  1
  O  O14  1  0.27031300  0.83312200  0.06876600  1
  O  O15  1  0.77031300  0.66687800  0.93123400  1
  O  O16  1  0.57143000  0.30783200  0.85445600  1
  O  O17  1  0.07143000  0.19216800  0.14554400  1
  O  O18  1  0.42857000  0.69216800  0.14554400  1
  O  O19  1  0.92857000  0.80783200  0.85445600  1
  O  O20  1  0.42024600  0.34043800  0.59430300  1
  O  O21  1  0.92024600  0.15956200  0.40569700  1
  O  O22  1  0.57975400  0.65956200  0.40569700  1
  O  O23  1  0.07975400  0.84043800  0.59430300  1
  O  O24  1  0.46238600  0.18814800  0.45885100  1
  O  O25  1  0.96238600  0.31185200  0.54114900  1
  O  O26  1  0.53761400  0.81185200  0.54114900  1
  O  O27  1  0.03761400  0.68814800  0.45885100  1
  O  O28  1  0.31961100  0.35390200  0.38668500  1
  O  O29  1  0.81961100  0.14609800  0.61331500  1
  O  O30  1  0.68038900  0.64609800  0.61331500  1
  O  O31  1  0.18038900  0.85390200  0.38668500  1
loop_
_geom_bond_atom_site_label_1
_geom_bond_atom_site_label_2
_geom_bond_distance
_geom_bond_site_symmetry_2
Cu0 O16 1.928007 1_555
Cu0 O2 1.930928 1_555
Cu0 O30 1.933706 1_555
Cu0 O4 1.938885 1_555
Cu1 O17 1.928007 1_555
Cu1 O3 1.930928 1_545
Cu1 O31 1.933706 1_545
Cu1 O5 1.938885 1_555
Cu2 O18 1.928007 1_555
Cu2 O0 1.930928 1_555
Cu2 O28 1.933706 1_555
Cu2 O6 1.938885 1_555
Cu3 O19 1.928007 1_555
Cu3 O1 1.930928 1_565
Cu3 O29 1.933706 1_565
Cu3 O7 1.938885 1_555
Cu4 O8 1.919778 1_556
Cu4 O4 2.001059 1_555
Cu4 O15 2.006938 1_555
Cu5 O9 1.919778 1_554
Cu5 O5 2.001059 1_555
Cu5 O14 2.006938 1_545
Cu6 O10 1.919778 1_554
Cu6 O6 2.001059 1_555
Cu6 O13 2.006938 1_555
Cu7 O11 1.919778 1_556
Cu7 O7 2.001059 1_555
Cu7 O12 2.006938 1_565
Cu8 O4 1.947276 1_555
Cu8 O12 2.051140 1_555
Cu9 O5 1.947276 1_555
Cu9 O13 2.051140 1_555
Cu10 O6 1.947276 1_555
Cu10 O14 2.051140 1_555
Cu11 O7 1.947276 1_555
Cu11 O15 2.051140 1_555
Cu12 O4 1.966938 1_555
Cu12 O30 1.994892 1_555
Cu13 O5 1.966938 1_565
Cu13 O31 1.994892 1_555
Cu14 O6 1.966938 1_555
Cu14 O28 1.994892 1_555
Cu15 O7 1.966938 1_545
Cu15 O29 1.994892 1_555
Cu16 O0 1.925766 1_555
Cu16 O24 2.069576 1_555
Cu17 O1 1.925766 1_455
Cu17 O25 2.069576 1_455
Cu18 O2 1.925766 1_555
Cu18 O26 2.069576 1_555
Cu19 O3 1.925766 1_655
Cu19 O27 2.069576 1_655
Cu20 O2 1.938846 1_555
Cu20 O0 1.938846 1_555
Cu20 O22 1.972858 1_555
Cu20 O20 1.972858 1_555
Cu21 O1 1.938846 1_455
Cu21 O3 1.938846 1_545
Cu21 O21 1.972858 1_455
Cu21 O23 1.972858 1_545
Cu22 O0 1.961133 1_555
Cu22 O18 2.081219 1_555
Cu22 O22 2.232816 1_555
Cu23 O1 1.961133 1_465
Cu23 O19 2.081219 1_455
Cu23 O23 2.232816 1_555
Cu24 O2 1.961133 1_555
Cu24 O16 2.081219 1_555
Cu24 O20 2.232816 1_555
Cu25 O3 1.961133 1_645
Cu25 O17 2.081219 1_655
Cu25 O21 2.232816 1_555
Cu26 O24 1.935779 1_555
Cu26 O26 1.935779 1_545
Cu27 O27 1.935779 1_555
Cu27 O25 1.935779 1_455
Cl0 Cu16 2.395179 1_555
Cl0 Cu22 2.424291 1_555
Cl0 Cu4 2.446309 1_554
Cl1 Cu17 2.395179 1_555
Cl1 Cu23 2.424291 1_545
Cl1 Cu5 2.446309 1_556
Cl2 Cu18 2.395179 1_555
Cl2 Cu24 2.424291 1_555
Cl2 Cu6 2.446309 1_556
Cl3 Cu19 2.395179 1_555
Cl3 Cu25 2.424291 1_565
Cl3 Cu7 2.446309 1_554
Cl4 Cu25 2.190154 1_555
Cl4 Cu8 2.712867 1_554
Cl4 Cu4 2.754689 1_554
Cl5 Cu24 2.190154 1_555
Cl5 Cu9 2.712867 1_556
Cl5 Cu5 2.754689 1_556
Cl6 Cu23 2.190154 1_555
Cl6 Cu10 2.712867 1_556
Cl6 Cu6 2.754689 1_556
Cl7 Cu22 2.190154 1_555
Cl7 Cu11 2.712867 1_554
Cl7 Cu7 2.754689 1_554
Cl8 Cu16 2.280186 1_555
Cl8 Cu26 2.329972 1_555
Cl9 Cu17 2.280186 1_555
Cl9 Cu27 2.329972 1_555
Cl10 Cu18 2.280186 1_555
Cl10 Cu26 2.329972 1_565
Cl11 Cu19 2.280186 1_555
Cl11 Cu27 2.329972 1_655
Cl12 Cu12 2.207021 1_555
Cl12 Cu21 2.776950 1_665
Cl12 Cu19 2.916999 1_555
Cl12 Cu3 2.925737 1_555
Cl13 Cu13 2.207021 1_555
Cl13 Cu20 2.776950 1_555
Cl13 Cu18 2.916999 1_555
Cl13 Cu2 2.925737 1_555
Cl14 Cu14 2.207021 1_555
Cl14 Cu21 2.776950 1_555
Cl14 Cu17 2.916999 1_555
Cl14 Cu1 2.925737 1_555
Cl15 Cu15 2.207021 1_555
Cl15 Cu20 2.776950 1_555
Cl15 Cu16 2.916999 1_555
Cl15 Cu0 2.925737 1_555
Cl16 Cu12 2.245473 1_555
Cl16 Cu8 2.366238 1_555
Cl16 Cu27 2.943477 1_655
Cl17 Cu13 2.245473 1_545
Cl17 Cu9 2.366238 1_555
Cl17 Cu26 2.943477 1_555
Cl18 Cu14 2.245473 1_555
Cl18 Cu10 2.366238 1_555
Cl18 Cu27 2.943477 1_555
Cl19 Cu15 2.245473 1_565
Cl19 Cu11 2.366238 1_555
Cl19 Cu26 2.943477 1_565
Cl20 Cu11 2.244902 1_555
Cl20 Cu4 2.716025 1_555
Cl20 Cu0 2.933586 1_555
Cl21 Cu10 2.244902 1_555
Cl21 Cu5 2.716025 1_565
Cl21 Cu1 2.933586 1_565
Cl22 Cu9 2.244902 1_555
Cl22 Cu6 2.716025 1_555
Cl22 Cu2 2.933586 1_555
Cl23 Cu8 2.244902 1_555
Cl23 Cu7 2.716025 1_545
Cl23 Cu3 2.933586 1_545
O8 Se0 1.687256 1_555
O9 Se1 1.687256 1_555
O10 Se2 1.687256 1_555
O11 Se3 1.687256 1_555
O12 Se0 1.805010 1_556
O13 Se1 1.805010 1_554
O14 Se2 1.805010 1_554
O15 Se3 1.805010 1_556
O16 Se0 1.762977 1_556
O17 Se1 1.762977 1_554
O18 Se2 1.762977 1_554
O19 Se3 1.762977 1_556
O20 Se4 1.719599 1_555
O21 Se5 1.719599 1_555
O22 Se6 1.719599 1_555
O23 Se7 1.719599 1_555
O24 Se4 1.760955 1_555
O25 Se5 1.760955 1_555
O26 Se6 1.760955 1_555
O27 Se7 1.760955 1_555
O28 Se4 1.757879 1_555
O29 Se5 1.757879 1_555
O30 Se6 1.757879 1_555
O31 Se7 1.757879 1_555
