# generated using pymatgen
data_EuMoO2
_symmetry_space_group_name_H-M   'P 1'
_cell_length_a   7.61013382
_cell_length_b   7.61013382
_cell_length_c   7.61013382
_cell_angle_alpha   129.28232726
_cell_angle_beta   129.28232726
_cell_angle_gamma   74.55671951
_symmetry_Int_Tables_number   1
_chemical_formula_structural   EuMoO2
_chemical_formula_sum   'Eu4 Mo4 O8'
_cell_volume   257.30919362
_cell_formula_units_Z   4
loop_
 _symmetry_equiv_pos_site_id
 _symmetry_equiv_pos_as_xyz
  1  'x, y, z'
loop_
 _atom_site_type_symbol
 _atom_site_label
 _atom_site_symmetry_multiplicity
 _atom_site_fract_x
 _atom_site_fract_y
 _atom_site_fract_z
 _atom_site_occupancy
  Eu  Eu0  1  0.87500000  0.62500000  0.25000000  1
  Eu  Eu1  1  0.37500000  0.62500000  0.75000000  1
  Eu  Eu2  1  0.37500000  0.62500000  0.25000000  1
  Eu  Eu3  1  0.37500000  0.12500000  0.75000000  1
  Mo  Mo0  1  0.37500000  0.12500000  0.25000000  1
  Mo  Mo1  1  0.87500000  0.12500000  0.75000000  1
  Mo  Mo2  1  0.87500000  0.12500000  0.25000000  1
  Mo  Mo3  1  0.87500000  0.62500000  0.75000000  1
  O  O0  1  0.16707600  0.38752300  0.22044800  1
  O  O1  1  0.16707600  0.94662800  0.77955200  1
  O  O2  1  0.13752300  0.41707600  0.72044800  1
  O  O3  1  0.58292400  0.86247700  0.27955200  1
  O  O4  1  0.69662800  0.41707600  0.27955200  1
  O  O5  1  0.58292400  0.30337200  0.72044800  1
  O  O6  1  0.61247700  0.83292400  0.77955200  1
  O  O7  1  0.05337200  0.83292400  0.22044800  1
loop_
_geom_bond_atom_site_label_1
_geom_bond_atom_site_label_2
_geom_bond_distance
_geom_bond_site_symmetry_2
Eu0 O1 2.497240 1_655
Eu0 O5 2.497240 1_554
Eu0 O3 2.497243 1_555
Eu0 O0 2.497243 1_655
Eu0 O4 2.525484 1_555
Eu0 O7 2.525484 1_655
Eu1 O3 2.497239 1_556
Eu1 O0 2.497239 1_555
Eu1 O1 2.497240 1_555
Eu1 O5 2.497240 1_555
Eu1 O6 2.525490 1_555
Eu1 O2 2.525490 1_555
Eu2 O6 2.497239 1_555
Eu2 O2 2.497239 1_554
Eu2 O4 2.497240 1_555
Eu2 O7 2.497240 1_555
Eu2 O0 2.525490 1_555
Eu2 O3 2.525490 1_555
Eu3 O4 2.497240 1_556
Eu3 O7 2.497240 1_545
Eu3 O6 2.497243 1_545
Eu3 O2 2.497243 1_555
Eu3 O1 2.525484 1_545
Eu3 O5 2.525484 1_555
Mo0 O0 2.231691 1_555
Mo0 O3 2.231691 1_545
Mo0 O5 2.231697 1_555
Mo0 O1 2.231697 1_544
Mo1 O0 2.231696 1_656
Mo1 O3 2.231696 1_545
Mo1 O5 2.231697 1_555
Mo1 O1 2.231697 1_645
Mo2 O2 2.231696 1_655
Mo2 O6 2.231696 1_544
Mo2 O7 2.231697 1_645
Mo2 O4 2.231697 1_555
Mo3 O2 2.231691 1_655
Mo3 O6 2.231691 1_555
Mo3 O7 2.231697 1_656
Mo3 O4 2.231697 1_555
