# generated using pymatgen
data_LaCuO2F
_symmetry_space_group_name_H-M   'P 1'
_cell_length_a   5.62685318
_cell_length_b   5.62685318
_cell_length_c   5.62685318
_cell_angle_alpha   120.42699892
_cell_angle_beta   120.42699892
_cell_angle_gamma   89.26199372
_symmetry_Int_Tables_number   1
_chemical_formula_structural   LaCuO2F
_chemical_formula_sum   'La2 Cu2 O4 F2'
_cell_volume   125.14993743
_cell_formula_units_Z   2
loop_
 _symmetry_equiv_pos_site_id
 _symmetry_equiv_pos_as_xyz
  1  'x, y, z'
loop_
 _atom_site_type_symbol
 _atom_site_label
 _atom_site_symmetry_multiplicity
 _atom_site_fract_x
 _atom_site_fract_y
 _atom_site_fract_z
 _atom_site_occupancy
  La  La0  1  0.75000000  0.25000000  0.50000000  1
  La  La1  1  0.25000000  0.75000000  0.50000000  1
  Cu  Cu0  1  0.50000000  0.50000000  0.00000000  1
  Cu  Cu1  1  0.00000000  0.00000000  0.00000000  1
  O  O0  1  0.81092600  0.31092600  0.12185200  1
  O  O1  1  0.31092600  0.18907400  0.50000000  1
  O  O2  1  0.18907400  0.68907400  0.87814800  1
  O  O3  1  0.68907400  0.81092600  0.50000000  1
  F  F0  1  0.75000000  0.75000000  0.00000000  1
  F  F1  1  0.25000000  0.25000000  0.00000000  1
loop_
_geom_bond_atom_site_label_1
_geom_bond_atom_site_label_2
_geom_bond_distance
_geom_bond_site_symmetry_2
La0 O2 2.498646 1_655
La0 O0 2.498646 1_555
La0 O1 2.498646 1_555
La0 O3 2.498646 1_545
La1 O3 2.498646 1_555
La1 O1 2.498646 1_565
La1 O0 2.498646 1_455
La1 O2 2.498646 1_555
Cu0 F0 2.002164 1_555
Cu0 F1 2.002164 1_555
Cu0 O1 2.034388 1_554
Cu0 O2 2.034388 1_554
Cu0 O3 2.034388 1_555
Cu0 O0 2.034388 1_555
Cu1 F0 2.002164 1_445
Cu1 F1 2.002164 1_555
Cu1 O1 2.034388 1_555
Cu1 O0 2.034388 1_455
Cu1 O3 2.034388 1_444
Cu1 O2 2.034388 1_544
F0 La0 2.795249 1_554
F0 La1 2.795249 1_655
F0 La0 2.795249 1_565
F0 La1 2.795249 1_554
F1 La0 2.795249 1_555
F1 La1 2.795249 1_544
F1 La1 2.795249 1_555
F1 La0 2.795249 1_454
