# generated using pymatgen
data_La7SmMn3(FeO4)5
_symmetry_space_group_name_H-M   'P 1'
_cell_length_a   11.04495273
_cell_length_b   11.84746589
_cell_length_c   17.83433504
_cell_angle_alpha   109.36055276
_cell_angle_beta   108.05780408
_cell_angle_gamma   90.02845882
_symmetry_Int_Tables_number   1
_chemical_formula_structural   La7SmMn3(FeO4)5
_chemical_formula_sum   'La28 Sm4 Mn12 Fe20 O80'
_cell_volume   2079.37363335
_cell_formula_units_Z   4
loop_
 _symmetry_equiv_pos_site_id
 _symmetry_equiv_pos_as_xyz
  1  'x, y, z'
loop_
 _atom_site_type_symbol
 _atom_site_label
 _atom_site_symmetry_multiplicity
 _atom_site_fract_x
 _atom_site_fract_y
 _atom_site_fract_z
 _atom_site_occupancy
  La  La0  1  0.29978300  0.06378600  0.11160900  1
  La  La1  1  0.30260400  0.06480600  0.60847600  1
  La  La2  1  0.30344600  0.56550500  0.60939100  1
  La  La3  1  0.80339700  0.06523600  0.61104900  1
  La  La4  1  0.80385300  0.56646100  0.11002400  1
  La  La5  1  0.80358600  0.56584300  0.60978300  1
  La  La6  1  0.19246700  0.43379600  0.38872500  1
  La  La7  1  0.19223000  0.43477500  0.89179700  1
  La  La8  1  0.19248900  0.93399300  0.38647200  1
  La  La9  1  0.19663100  0.93582000  0.89072800  1
  La  La10  1  0.69294900  0.43372000  0.38959500  1
  La  La11  1  0.69460500  0.93492900  0.39017600  1
  La  La12  1  0.69510200  0.93501700  0.89027900  1
  La  La13  1  0.05044400  0.29492900  0.11065800  1
  La  La14  1  0.05258300  0.29402600  0.60967500  1
  La  La15  1  0.05329300  0.79443600  0.60882300  1
  La  La16  1  0.55303500  0.29252100  0.10974200  1
  La  La17  1  0.55369100  0.29483600  0.61115500  1
  La  La18  1  0.54993100  0.79559100  0.11014200  1
  La  La19  1  0.55571900  0.79383500  0.61087700  1
  La  La20  1  0.44314900  0.20372100  0.38888800  1
  La  La21  1  0.44609100  0.20694100  0.89006200  1
  La  La22  1  0.44300500  0.70573700  0.38972100  1
  La  La23  1  0.44451800  0.70526200  0.89012100  1
  La  La24  1  0.94311600  0.20426600  0.38725000  1
  La  La25  1  0.94049000  0.20434200  0.88971300  1
  La  La26  1  0.94384600  0.70530600  0.38786900  1
  La  La27  1  0.94467200  0.70619500  0.89263900  1
  Sm  Sm0  1  0.29799900  0.56762400  0.10783600  1
  Sm  Sm1  1  0.80148200  0.06637700  0.10893900  1
  Sm  Sm2  1  0.69246700  0.43381200  0.89245800  1
  Sm  Sm3  1  0.05407700  0.79427200  0.11097300  1
  Mn  Mn0  1  0.10900500  0.09730300  0.75081500  1
  Mn  Mn1  1  0.10957700  0.59685800  0.75056300  1
  Mn  Mn2  1  0.60995700  0.09520200  0.24899100  1
  Mn  Mn3  1  0.61050500  0.09780500  0.75028900  1
  Mn  Mn4  1  0.60555600  0.59679500  0.24800700  1
  Mn  Mn5  1  0.61149700  0.59630100  0.75202100  1
  Mn  Mn6  1  0.35706700  0.40509500  0.24819400  1
  Mn  Mn7  1  0.36129000  0.40291900  0.75067800  1
  Mn  Mn8  1  0.36086200  0.90303900  0.75012300  1
  Mn  Mn9  1  0.85957400  0.40268000  0.24912300  1
  Mn  Mn10  1  0.85796300  0.40336300  0.75186300  1
  Mn  Mn11  1  0.86120700  0.90349500  0.24701600  1
  Fe  Fe0  1  0.00572800  0.99967300  0.00187100  1
  Fe  Fe1  1  0.00559200  0.99991600  0.49928900  1
  Fe  Fe2  1  0.00517700  0.50081100  0.00138500  1
  Fe  Fe3  1  0.00551600  0.49983100  0.49971100  1
  Fe  Fe4  1  0.50714700  0.00057800  0.00108000  1
  Fe  Fe5  1  0.50490700  0.00004900  0.49947300  1
  Fe  Fe6  1  0.50594700  0.50122000  0.00088000  1
  Fe  Fe7  1  0.50542300  0.49922900  0.49946900  1
  Fe  Fe8  1  0.25642600  0.25163400  0.00212000  1
  Fe  Fe9  1  0.25491400  0.24960500  0.49949200  1
  Fe  Fe10  1  0.25541700  0.75126100  0.00092300  1
  Fe  Fe11  1  0.25558400  0.74943800  0.49925600  1
  Fe  Fe12  1  0.75526900  0.24952100  0.00048200  1
  Fe  Fe13  1  0.75560900  0.25004800  0.49992900  1
  Fe  Fe14  1  0.75756200  0.75060400  0.00138900  1
  Fe  Fe15  1  0.75511200  0.74990300  0.49901800  1
  Fe  Fe16  1  0.10797500  0.09960600  0.24775200  1
  Fe  Fe17  1  0.11362100  0.60301800  0.24842900  1
  Fe  Fe18  1  0.35835100  0.89567100  0.24868100  1
  Fe  Fe19  1  0.86294900  0.89724200  0.75090500  1
  O  O0  1  0.11561000  0.11631800  0.47695400  1
  O  O1  1  0.11503000  0.11604100  0.97822900  1
  O  O2  1  0.11594000  0.61734500  0.47748600  1
  O  O3  1  0.11713200  0.61903300  0.98366900  1
  O  O4  1  0.61511600  0.11709300  0.47693200  1
  O  O5  1  0.61575500  0.11652500  0.97823300  1
  O  O6  1  0.61564600  0.61718100  0.47819800  1
  O  O7  1  0.61557500  0.61449400  0.97498600  1
  O  O8  1  0.14129000  0.38605300  0.02706000  1
  O  O9  1  0.13768100  0.38259200  0.52192200  1
  O  O10  1  0.13623400  0.87912600  0.02463100  1
  O  O11  1  0.13701100  0.88220800  0.52140100  1
  O  O12  1  0.63584300  0.38077700  0.02030800  1
  O  O13  1  0.63840000  0.38306000  0.52305300  1
  O  O14  1  0.64181500  0.88488200  0.02561000  1
  O  O15  1  0.63605000  0.88147900  0.51964000  1
  O  O16  1  0.36526500  0.11005300  0.47764600  1
  O  O17  1  0.36609300  0.11292600  0.97743300  1
  O  O18  1  0.36533200  0.60896400  0.47626600  1
  O  O19  1  0.36580100  0.61322800  0.98111900  1
  O  O20  1  0.86601200  0.11123700  0.47758600  1
  O  O21  1  0.86453400  0.11063400  0.98034400  1
  O  O22  1  0.86661100  0.61225800  0.47940200  1
  O  O23  1  0.86161600  0.60667400  0.97376300  1
  O  O24  1  0.38658400  0.39687700  0.02633100  1
  O  O25  1  0.38681800  0.38756900  0.52019500  1
  O  O26  1  0.38735500  0.89205800  0.02220700  1
  O  O27  1  0.38705400  0.88670100  0.51972600  1
  O  O28  1  0.88519800  0.38989700  0.02025500  1
  O  O29  1  0.88753200  0.39013400  0.52250900  1
  O  O30  1  0.89202800  0.89228800  0.02851200  1
  O  O31  1  0.88715800  0.89026200  0.52148800  1
  O  O32  1  0.09370600  0.11599800  0.13980300  1
  O  O33  1  0.09466800  0.11600200  0.63936700  1
  O  O34  1  0.09943600  0.61702400  0.13973000  1
  O  O35  1  0.09417100  0.61682700  0.63951800  1
  O  O36  1  0.60468100  0.11587100  0.13977700  1
  O  O37  1  0.59419100  0.11540300  0.63832400  1
  O  O38  1  0.59846700  0.61898000  0.13914500  1
  O  O39  1  0.59520500  0.61475100  0.64008100  1
  O  O40  1  0.45421700  0.38313000  0.35915300  1
  O  O41  1  0.46420100  0.38512600  0.86109700  1
  O  O42  1  0.44860500  0.88577400  0.35959200  1
  O  O43  1  0.45505800  0.88344100  0.86143800  1
  O  O44  1  0.95500700  0.38412000  0.36077500  1
  O  O45  1  0.95905700  0.38353100  0.86197400  1
  O  O46  1  0.95561700  0.88422200  0.35917700  1
  O  O47  1  0.95279400  0.88662700  0.86154400  1
  O  O48  1  0.34703800  0.26938800  0.14035000  1
  O  O49  1  0.34564800  0.27319100  0.63906400  1
  O  O50  1  0.34198700  0.77345400  0.13989100  1
  O  O51  1  0.34574700  0.77314200  0.63872700  1
  O  O52  1  0.84400100  0.27091100  0.13867900  1
  O  O53  1  0.84284500  0.27320600  0.64015900  1
  O  O54  1  0.85740200  0.77054100  0.13926100  1
  O  O55  1  0.84071400  0.77684700  0.63980800  1
  O  O56  1  0.19871700  0.22138600  0.35854200  1
  O  O57  1  0.20753800  0.22851000  0.86151700  1
  O  O58  1  0.20106500  0.72480200  0.35939300  1
  O  O59  1  0.20528800  0.72707200  0.86190800  1
  O  O60  1  0.70518100  0.22655500  0.36028700  1
  O  O61  1  0.70580400  0.22893600  0.86137300  1
  O  O62  1  0.70271500  0.72619900  0.35988500  1
  O  O63  1  0.70683600  0.72935300  0.86180000  1
  O  O64  1  0.41764500  0.06863500  0.25008200  1
  O  O65  1  0.41741100  0.07312400  0.74974500  1
  O  O66  1  0.41032500  0.57480600  0.24466500  1
  O  O67  1  0.41683700  0.57341300  0.74985900  1
  O  O68  1  0.91139300  0.07322700  0.24469400  1
  O  O69  1  0.91642000  0.07081500  0.75064500  1
  O  O70  1  0.91929700  0.57132600  0.24931700  1
  O  O71  1  0.91622500  0.57324300  0.75098000  1
  O  O72  1  0.16503800  0.42909700  0.24977000  1
  O  O73  1  0.16835300  0.42717400  0.75088500  1
  O  O74  1  0.16160900  0.92568700  0.24465500  1
  O  O75  1  0.16800000  0.92698600  0.75019700  1
  O  O76  1  0.66619700  0.42802300  0.24973400  1
  O  O77  1  0.66643700  0.42644800  0.75574400  1
  O  O78  1  0.66893300  0.92568500  0.24982600  1
  O  O79  1  0.66811800  0.92859100  0.75010400  1
loop_
_geom_bond_atom_site_label_1
_geom_bond_atom_site_label_2
_geom_bond_distance
_geom_bond_site_symmetry_2
La0 O48 2.339578 1_555
La0 O64 2.389464 1_555
La0 O32 2.514129 1_555
La0 O26 2.534623 1_545
La0 O10 2.542516 1_545
La0 O1 2.859035 1_554
La0 O17 2.934495 1_554
La1 O49 2.358782 1_555
La1 O65 2.412441 1_555
La1 O11 2.538602 1_545
La1 O33 2.551512 1_555
La1 O27 2.555500 1_545
La1 O16 2.835581 1_555
La1 O0 2.843760 1_555
La1 O37 3.120645 1_555
La2 O51 2.353182 1_555
La2 O67 2.398389 1_555
La2 O9 2.542781 1_555
La2 O25 2.551298 1_555
La2 O35 2.560437 1_555
La2 O2 2.852903 1_555
La2 O18 2.861003 1_555
La2 O39 3.117243 1_555
La3 O53 2.353898 1_555
La3 O69 2.392679 1_555
La3 O31 2.535171 1_545
La3 O37 2.536841 1_555
La3 O15 2.566785 1_545
La3 O4 2.883581 1_555
La3 O20 2.884612 1_555
La3 O33 3.123427 1_655
La4 O54 2.332189 1_555
La4 O70 2.396173 1_555
La4 O38 2.514044 1_555
La4 O28 2.533626 1_555
La4 O12 2.581577 1_555
La4 O7 2.872849 1_554
La4 O23 2.875414 1_554
La4 O34 3.164358 1_655
La5 O55 2.383176 1_555
La5 O71 2.409953 1_555
La5 O29 2.522714 1_555
La5 O13 2.536999 1_555
La5 O39 2.547473 1_555
La5 O22 2.836311 1_555
La5 O6 2.848440 1_555
La5 O35 3.110865 1_655
La6 O72 2.383123 1_555
La6 O56 2.398429 1_555
La6 O18 2.527757 1_555
La6 O44 2.543038 1_455
La6 O2 2.549136 1_555
La6 O25 2.852656 1_555
La6 O9 2.867629 1_555
La6 O40 3.119858 1_555
La7 O57 2.339661 1_555
La7 O73 2.415004 1_555
La7 O45 2.493839 1_455
La7 O19 2.559772 1_555
La7 O3 2.571166 1_555
La7 O24 2.844039 1_556
La7 O8 2.869392 1_556
La7 O41 3.236831 1_555
La8 O58 2.370570 1_555
La8 O74 2.413106 1_555
La8 O46 2.539288 1_455
La8 O16 2.541657 1_565
La8 O0 2.555616 1_565
La8 O27 2.880560 1_555
La8 O11 2.904324 1_555
La8 O42 3.036272 1_555
La9 O59 2.361698 1_555
La9 O75 2.393132 1_555
La9 O17 2.519449 1_565
La9 O1 2.543842 1_565
La9 O47 2.606153 1_455
La9 O26 2.819481 1_556
La9 O10 2.941038 1_556
La9 O43 3.084843 1_555
La10 O60 2.347119 1_555
La10 O76 2.396868 1_555
La10 O40 2.549865 1_555
La10 O6 2.551726 1_555
La10 O22 2.561972 1_555
La10 O29 2.856372 1_555
La10 O13 2.867766 1_555
La10 O44 3.116229 1_555
La11 O62 2.357896 1_555
La11 O78 2.394966 1_555
La11 O20 2.526829 1_565
La11 O4 2.540184 1_565
La11 O42 2.624521 1_555
La11 O31 2.832399 1_555
La11 O15 2.836382 1_555
La11 O46 3.122024 1_555
La12 O63 2.330743 1_555
La12 O79 2.399196 1_555
La12 O21 2.515518 1_565
La12 O5 2.543712 1_565
La12 O43 2.571336 1_555
La12 O14 2.890528 1_556
La12 O30 2.927291 1_556
La12 O47 3.066465 1_555
La13 O32 2.360080 1_555
La13 O72 2.391735 1_555
La13 O52 2.515922 1_455
La13 O8 2.527581 1_555
La13 O28 2.564559 1_455
La13 O21 2.838577 1_454
La13 O1 2.881985 1_554
La13 O48 3.183563 1_555
La14 O33 2.352403 1_555
La14 O73 2.415229 1_555
La14 O9 2.536418 1_555
La14 O29 2.540696 1_455
La14 O53 2.567474 1_455
La14 O20 2.844153 1_455
La14 O0 2.870321 1_555
La14 O49 3.138134 1_555
La15 O35 2.354295 1_555
La15 O75 2.412619 1_555
La15 O11 2.516928 1_555
La15 O31 2.546483 1_455
La15 O55 2.596491 1_455
La15 O22 2.824798 1_455
La15 O2 2.848684 1_555
La15 O51 3.131120 1_555
La16 O36 2.355290 1_555
La16 O76 2.403891 1_555
La16 O48 2.533435 1_555
La16 O12 2.546176 1_555
La16 O24 2.578284 1_555
La16 O17 2.829272 1_554
La16 O5 2.845104 1_554
La16 O52 3.117693 1_555
La17 O37 2.345961 1_555
La17 O77 2.443950 1_555
La17 O49 2.527172 1_555
La17 O13 2.536918 1_555
La17 O25 2.562366 1_555
La17 O16 2.874118 1_555
La17 O4 2.879394 1_555
La17 O53 3.097975 1_555
La18 O38 2.340903 1_555
La18 O78 2.394030 1_555
La18 O14 2.535081 1_555
La18 O26 2.536647 1_555
La18 O50 2.544080 1_555
La18 O19 2.810151 1_554
La18 O7 2.931758 1_554
La19 O39 2.357078 1_555
La19 O79 2.390419 1_555
La19 O51 2.545476 1_555
La19 O15 2.554869 1_555
La19 O27 2.575648 1_555
La19 O6 2.847153 1_555
La19 O18 2.891693 1_555
La19 O55 3.045931 1_555
La20 O40 2.366723 1_555
La20 O64 2.389415 1_555
La20 O4 2.519516 1_555
La20 O16 2.546587 1_555
La20 O56 2.606749 1_555
La20 O25 2.852717 1_555
La20 O13 2.883749 1_555
La20 O60 3.116933 1_555
La21 O41 2.355847 1_555
La21 O65 2.398691 1_555
La21 O5 2.534512 1_555
La21 O17 2.540205 1_555
La21 O57 2.553826 1_555
La21 O12 2.799178 1_556
La21 O24 2.961025 1_556
La21 O61 3.091218 1_555
La22 O42 2.371189 1_555
La22 O66 2.447213 1_555
La22 O18 2.534957 1_555
La22 O6 2.541818 1_555
La22 O58 2.582607 1_555
La22 O27 2.819209 1_555
La22 O15 2.825618 1_555
La22 O62 3.098580 1_555
La23 O43 2.341807 1_555
La23 O67 2.392819 1_555
La23 O7 2.514964 1_555
La23 O59 2.562081 1_555
La23 O19 2.574029 1_555
La23 O26 2.883115 1_556
La23 O14 2.904759 1_556
La23 O63 3.119752 1_555
La24 O44 2.342176 1_555
La24 O68 2.413909 1_555
La24 O0 2.548025 1_655
La24 O60 2.551213 1_555
La24 O20 2.561745 1_555
La24 O9 2.877758 1_655
La24 O29 2.905594 1_555
La24 O56 3.039330 1_655
La25 O45 2.356360 1_555
La25 O69 2.390395 1_555
La25 O61 2.519028 1_555
La25 O1 2.552082 1_655
La25 O21 2.564844 1_555
La25 O28 2.848735 1_556
La25 O8 2.946929 1_656
La25 O57 3.169973 1_655
La26 O46 2.352020 1_555
La26 O70 2.383808 1_555
La26 O2 2.544853 1_655
La26 O62 2.581074 1_555
La26 O22 2.581341 1_555
La26 O11 2.855192 1_655
La26 O31 2.887308 1_555
La26 O58 3.058425 1_655
La27 O47 2.387848 1_555
La27 O71 2.414831 1_555
La27 O23 2.505537 1_555
La27 O63 2.546248 1_555
La27 O3 2.554731 1_655
La27 O10 2.815268 1_656
La27 O30 2.898862 1_556
La27 O59 3.116806 1_655
Mn0 O33 2.030164 1_555
Mn0 O57 2.032259 1_555
Mn0 O75 2.118332 1_545
Mn0 O69 2.148888 1_455
Mn1 O59 2.026462 1_555
Mn1 O35 2.027002 1_555
Mn1 O73 2.114122 1_555
Mn1 O71 2.156292 1_455
Mn2 O36 2.025588 1_555
Mn2 O60 2.030732 1_555
Mn2 O78 2.114970 1_545
Mn2 O64 2.154105 1_555
Mn3 O61 2.027621 1_555
Mn3 O37 2.028852 1_555
Mn3 O79 2.102894 1_545
Mn3 O65 2.149125 1_555
Mn4 O38 2.022048 1_555
Mn4 O62 2.031228 1_555
Mn4 O76 2.115894 1_555
Mn4 O66 2.151881 1_555
Mn5 O63 2.025042 1_555
Mn5 O39 2.032814 1_555
Mn5 O77 2.118233 1_555
Mn5 O67 2.153754 1_555
Mn6 O48 2.028276 1_555
Mn6 O40 2.039699 1_555
Mn6 O66 2.120932 1_555
Mn6 O72 2.147637 1_555
Mn7 O41 2.025378 1_555
Mn7 O49 2.027925 1_555
Mn7 O67 2.116739 1_555
Mn7 O73 2.151383 1_555
Mn8 O43 2.025551 1_555
Mn8 O51 2.027342 1_555
Mn8 O65 2.112119 1_565
Mn8 O75 2.149450 1_555
Mn9 O52 2.024189 1_555
Mn9 O44 2.028237 1_555
Mn9 O70 2.102366 1_555
Mn9 O76 2.159856 1_555
Mn10 O45 2.026107 1_555
Mn10 O53 2.032533 1_555
Mn10 O71 2.119222 1_555
Mn10 O77 2.152507 1_555
Mn11 O54 2.029496 1_555
Mn11 O46 2.037324 1_555
Mn11 O68 2.102617 1_565
Mn11 O78 2.153914 1_555
Fe0 O30 2.047070 1_455
Fe0 O1 2.057971 1_564
Fe0 O21 2.067138 1_464
Fe0 O10 2.075056 1_555
Fe0 O32 2.272397 1_565
Fe0 O47 2.295335 1_454
Fe1 O0 2.049316 1_565
Fe1 O31 2.053281 1_455
Fe1 O11 2.054003 1_555
Fe1 O20 2.058272 1_465
Fe1 O33 2.301594 1_565
Fe1 O46 2.302332 1_455
Fe2 O3 2.030891 1_554
Fe2 O28 2.040585 1_455
Fe2 O23 2.063320 1_454
Fe2 O8 2.075159 1_555
Fe2 O34 2.284919 1_555
Fe2 O45 2.301179 1_454
Fe3 O9 2.055580 1_555
Fe3 O29 2.056608 1_455
Fe3 O22 2.058279 1_455
Fe3 O2 2.060785 1_555
Fe3 O44 2.284796 1_455
Fe3 O35 2.300124 1_555
Fe4 O5 2.040704 1_554
Fe4 O26 2.043062 1_545
Fe4 O14 2.068522 1_545
Fe4 O17 2.084129 1_554
Fe4 O36 2.291547 1_555
Fe4 O43 2.297511 1_544
Fe5 O16 2.048171 1_555
Fe5 O15 2.052995 1_545
Fe5 O4 2.058512 1_555
Fe5 O27 2.059011 1_545
Fe5 O37 2.283253 1_555
Fe5 O42 2.289363 1_545
Fe6 O24 2.052726 1_555
Fe6 O12 2.058212 1_555
Fe6 O7 2.058233 1_554
Fe6 O19 2.062788 1_554
Fe6 O38 2.286182 1_555
Fe6 O41 2.309216 1_554
Fe7 O6 2.053025 1_555
Fe7 O18 2.053614 1_555
Fe7 O25 2.055579 1_555
Fe7 O13 2.056971 1_555
Fe7 O40 2.305140 1_555
Fe7 O39 2.307936 1_555
Fe8 O17 2.052913 1_554
Fe8 O8 2.057705 1_555
Fe8 O1 2.081413 1_554
Fe8 O24 2.081877 1_555
Fe8 O48 2.291220 1_555
Fe8 O57 2.315046 1_554
Fe9 O25 2.048045 1_555
Fe9 O0 2.053245 1_555
Fe9 O9 2.055300 1_555
Fe9 O16 2.059163 1_555
Fe9 O49 2.295743 1_555
Fe9 O56 2.300274 1_555
Fe10 O10 2.031949 1_555
Fe10 O19 2.042420 1_554
Fe10 O3 2.065977 1_554
Fe10 O26 2.070029 1_555
Fe10 O59 2.283216 1_554
Fe10 O50 2.285697 1_555
Fe11 O27 2.040045 1_555
Fe11 O2 2.049938 1_555
Fe11 O11 2.063060 1_555
Fe11 O18 2.065165 1_555
Fe11 O58 2.292506 1_555
Fe11 O51 2.293148 1_555
Fe12 O21 2.042501 1_554
Fe12 O12 2.051764 1_555
Fe12 O5 2.053927 1_554
Fe12 O28 2.060268 1_555
Fe12 O52 2.277581 1_555
Fe12 O61 2.295936 1_554
Fe13 O20 2.054025 1_555
Fe13 O29 2.056805 1_555
Fe13 O13 2.057041 1_555
Fe13 O4 2.057177 1_555
Fe13 O60 2.295695 1_555
Fe13 O53 2.304149 1_555
Fe14 O14 2.059253 1_555
Fe14 O23 2.065732 1_554
Fe14 O30 2.066686 1_555
Fe14 O7 2.077904 1_554
Fe14 O54 2.291608 1_555
Fe14 O63 2.300953 1_554
Fe15 O22 2.046740 1_555
Fe15 O15 2.053368 1_555
Fe15 O6 2.058904 1_555
Fe15 O31 2.060656 1_555
Fe15 O62 2.284385 1_555
Fe15 O55 2.301506 1_555
Fe16 O32 1.956723 1_555
Fe16 O56 1.967466 1_555
Fe16 O74 2.132057 1_545
Fe16 O68 2.174750 1_455
Fe17 O34 1.958358 1_555
Fe17 O58 1.962505 1_555
Fe17 O72 2.143421 1_555
Fe17 O70 2.184501 1_455
Fe18 O50 1.952771 1_555
Fe18 O42 1.962527 1_555
Fe18 O64 2.140853 1_565
Fe18 O74 2.185072 1_555
Fe19 O47 1.960793 1_555
Fe19 O55 1.960808 1_555
Fe19 O69 2.141123 1_565
Fe19 O79 2.180383 1_555
O3 Sm0 2.723661 1_556
O3 Sm3 2.794005 1_556
O5 Sm1 2.819538 1_556
O7 Sm2 2.481452 1_555
O8 Sm0 2.468687 1_555
O10 Sm3 2.469194 1_555
O12 Sm2 2.796148 1_554
O14 Sm1 2.488952 1_565
O19 Sm0 2.796120 1_556
O21 Sm1 2.794048 1_556
O23 Sm2 2.476880 1_555
O23 Sm3 2.934450 1_656
O24 Sm0 2.469105 1_555
O28 Sm2 2.788587 1_554
O30 Sm3 2.493441 1_655
O30 Sm1 2.498275 1_565
O32 Sm1 3.122203 1_455
O34 Sm3 2.340850 1_555
O34 Sm0 2.455559 1_555
O36 Sm1 2.428924 1_555
O38 Sm0 3.212380 1_555
O41 Sm2 2.431536 1_555
O45 Sm2 3.178017 1_555
O50 Sm0 2.326324 1_555
O50 Sm3 3.083391 1_555
O52 Sm1 2.316485 1_555
O54 Sm3 2.413535 1_655
O61 Sm2 2.319361 1_555
O66 Sm0 2.342349 1_555
O68 Sm1 2.321535 1_555
O74 Sm3 2.302244 1_555
O77 Sm2 2.336549 1_555
