# generated using pymatgen
data_Zn9Fe4
_symmetry_space_group_name_H-M   'P 1'
_cell_length_a   7.69507535
_cell_length_b   7.69508182
_cell_length_c   7.69509918
_cell_angle_alpha   109.46903221
_cell_angle_beta   109.46921528
_cell_angle_gamma   109.46884965
_symmetry_Int_Tables_number   1
_chemical_formula_structural   Zn9Fe4
_chemical_formula_sum   'Zn18 Fe8'
_cell_volume   350.79519055
_cell_formula_units_Z   2
loop_
 _symmetry_equiv_pos_site_id
 _symmetry_equiv_pos_as_xyz
  1  'x, y, z'
loop_
 _atom_site_type_symbol
 _atom_site_label
 _atom_site_symmetry_multiplicity
 _atom_site_fract_x
 _atom_site_fract_y
 _atom_site_fract_z
 _atom_site_occupancy
  Zn  Zn0  1  0.39005466  0.64162854  0.64163288  1
  Zn  Zn1  1  0.60993739  0.25160088  0.25160345  1
  Zn  Zn2  1  -0.00000274  0.35834404  0.74837828  1
  Zn  Zn3  1  0.64163413  0.64163072  0.39005879  1
  Zn  Zn4  1  0.00000006  0.74840501  0.35836509  1
  Zn  Zn5  1  0.25159606  0.25159271  0.60993403  1
  Zn  Zn6  1  0.35836172  0.74839915  -0.00000108  1
  Zn  Zn7  1  0.74838210  0.35834982  -0.00000064  1
  Zn  Zn8  1  0.64162053  0.39005143  0.64162202  1
  Zn  Zn9  1  0.74839879  -0.00000496  0.35835432  1
  Zn  Zn10  1  0.35834397  -0.00000397  0.74839292  1
  Zn  Zn11  1  0.25160815  0.60994792  0.25160920  1
  Zn  Zn12  1  0.64302902  0.64303832  0.00000283  1
  Zn  Zn13  1  0.35698697  0.35698409  0.00001116  1
  Zn  Zn14  1  0.64302364  -0.00000617  0.64302158  1
  Zn  Zn15  1  0.35698371  0.00002068  0.35698201  1
  Zn  Zn16  1  0.00000243  0.64304072  0.64302854  1
  Zn  Zn17  1  0.00001428  0.35698500  0.35698842  1
  Fe  Fe0  1  0.79115874  0.79115668  0.79115793  1
  Fe  Fe1  1  0.20885639  0.00001042  0.00001056  1
  Fe  Fe2  1  0.00000652  0.20884346  0.00000356  1
  Fe  Fe3  1  0.00000774  0.00000870  0.20885394  1
  Fe  Fe4  1  0.32126926  0.32126255  0.32127118  1
  Fe  Fe5  1  0.67872113  -0.00000671  0.00000272  1
  Fe  Fe6  1  0.00000090  0.67873085  0.00000115  1
  Fe  Fe7  1  0.00000044  -0.00000788  0.67871517  1
loop_
_geom_bond_atom_site_label_1
_geom_bond_atom_site_label_2
_geom_bond_distance
_geom_bond_site_symmetry_2
Zn0 Zn17 2.577022 1_555
Zn0 Zn11 2.722093 1_555
Zn0 Zn5 2.722123 1_555
Zn0 Zn6 2.722275 1_556
Zn0 Zn10 2.722352 1_565
Zn0 Zn12 2.789613 1_556
Zn0 Zn14 2.789668 1_565
Zn0 Zn16 3.008700 1_555
Zn1 Zn17 2.577147 1_655
Zn1 Zn8 2.722050 1_555
Zn1 Zn3 2.722084 1_555
Zn1 Zn7 2.722139 1_555
Zn1 Zn9 2.722216 1_555
Zn1 Zn15 2.789437 1_555
Zn1 Zn13 2.789491 1_555
Zn1 Zn16 3.008940 1_655
Zn2 Zn5 2.722100 1_555
Zn2 Zn9 2.722315 1_455
Zn2 Zn8 2.722401 1_455
Zn2 Zn6 2.722490 1_556
Zn3 Zn4 2.722273 1_655
Zn3 Zn9 2.722307 1_565
Zn4 Zn7 2.722495 1_455
Zn5 Zn8 2.722072 1_555
Zn6 Zn9 2.722384 1_565
Zn7 Zn8 2.722390 1_554
Zn10 Zn14 2.576898 1_555
Zn10 Zn5 2.722131 1_555
Zn10 Zn4 2.722311 1_545
Zn10 Zn7 2.722386 1_556
Zn10 Zn16 2.789648 1_545
Zn10 Zn13 2.789699 1_556
Zn10 Zn15 3.008537 1_555
Zn11 Zn15 2.577149 1_565
Zn11 Zn3 2.722094 1_555
Zn11 Zn6 2.722225 1_555
Zn11 Zn4 2.722232 1_555
Zn11 Zn17 2.789540 1_555
Zn11 Zn13 2.789555 1_555
Zn11 Zn14 3.008796 1_565
Zn12 Zn13 2.541795 1_555
Zn12 Zn6 2.576745 1_555
Zn12 Zn7 2.576867 1_555
Zn12 Zn9 2.789682 1_565
Zn12 Zn8 2.789723 1_554
Zn12 Zn4 2.789791 1_655
Zn12 Zn3 3.008724 1_555
Zn12 Zn5 3.008985 1_554
Zn13 Zn3 2.577065 1_555
Zn13 Zn5 2.577138 1_554
Zn13 Zn2 2.789755 1_554
Zn13 Zn7 3.008359 1_555
Zn13 Zn6 3.008493 1_555
Zn14 Zn15 2.541795 1_555
Zn14 Zn9 2.576828 1_555
Zn14 Zn3 2.789631 1_545
Zn14 Zn2 2.789786 1_655
Zn14 Zn7 2.789823 1_556
Zn14 Zn8 3.008730 1_555
Zn15 Zn8 2.576965 1_555
Zn15 Zn5 2.789443 1_555
Zn15 Zn6 2.789773 1_545
Zn15 Zn4 2.789781 1_545
Zn15 Zn9 3.008531 1_555
Zn16 Zn17 2.541807 1_555
Zn16 Zn4 2.576743 1_555
Zn16 Zn2 2.576913 1_555
Zn16 Zn3 2.789585 1_455
Zn16 Zn8 2.789744 1_455
Zn16 Zn6 2.789799 1_556
Zn17 Zn5 2.789478 1_555
Zn17 Zn9 2.789744 1_455
Zn17 Zn7 2.789774 1_455
Zn17 Zn2 3.008358 1_555
Zn17 Zn4 3.008531 1_555
Fe0 Fe6 2.458798 1_656
Fe0 Fe5 2.458858 1_566
Fe0 Fe7 2.458875 1_665
Fe0 Zn3 2.560689 1_555
Fe0 Zn8 2.560711 1_555
Fe0 Zn0 2.560715 1_555
Fe0 Zn16 2.599441 1_655
Fe0 Zn12 2.599466 1_556
Fe0 Zn14 2.599492 1_565
Fe0 Fe2 2.624510 1_666
Fe0 Fe3 2.624568 1_666
Fe0 Fe1 2.624573 1_666
Fe1 Fe4 2.458888 1_555
Fe1 Fe6 2.458925 1_545
Fe1 Fe7 2.458979 1_554
Fe1 Zn10 2.560631 1_554
Fe1 Zn6 2.560676 1_545
Fe1 Zn1 2.560716 1_555
Fe1 Zn15 2.599518 1_555
Fe1 Zn13 2.599575 1_555
Fe1 Zn16 2.599770 1_544
Fe1 Fe2 2.624266 1_555
Fe1 Fe3 2.624332 1_555
Fe2 Fe4 2.458942 1_555
Fe2 Fe7 2.458983 1_554
Fe2 Fe5 2.458983 1_455
Fe2 Zn2 2.560757 1_554
Fe2 Zn7 2.560778 1_455
Fe2 Zn11 2.560866 1_555
Fe2 Zn13 2.599600 1_555
Fe2 Zn17 2.599635 1_555
Fe2 Zn14 2.599818 1_454
Fe2 Fe3 2.624287 1_555
Fe3 Fe4 2.458889 1_555
Fe3 Fe6 2.458916 1_545
Fe3 Fe5 2.458922 1_455
Fe3 Zn9 2.560638 1_455
Fe3 Zn4 2.560663 1_545
Fe3 Zn5 2.560706 1_555
Fe3 Zn15 2.599537 1_555
Fe3 Zn17 2.599570 1_555
Fe3 Zn12 2.599761 1_445
Fe4 Zn8 2.577486 1_555
Fe4 Zn0 2.577617 1_555
Fe4 Zn3 2.577633 1_555
Fe4 Zn1 2.627742 1_555
Fe4 Zn5 2.627753 1_555
Fe4 Zn11 2.627852 1_555
Fe4 Zn15 2.667784 1_555
Fe4 Zn17 2.667925 1_555
Fe4 Zn13 2.667970 1_555
Fe5 Zn6 2.577574 1_545
Fe5 Zn1 2.577734 1_555
Fe5 Zn10 2.577742 1_554
Fe5 Zn9 2.627918 1_555
Fe5 Zn7 2.627988 1_555
Fe5 Zn0 2.628266 1_544
Fe5 Zn12 2.667855 1_545
Fe5 Zn14 2.668051 1_554
Fe5 Zn17 2.668382 1_655
Fe6 Zn11 2.577754 1_555
Fe6 Zn7 2.577783 1_455
Fe6 Zn2 2.577817 1_554
Fe6 Zn6 2.628006 1_555
Fe6 Zn4 2.628025 1_555
Fe6 Zn8 2.628358 1_454
Fe6 Zn12 2.667985 1_455
Fe6 Zn16 2.668003 1_554
Fe6 Zn15 2.668335 1_565
Fe7 Zn4 2.577515 1_545
Fe7 Zn9 2.577630 1_455
Fe7 Zn5 2.577670 1_555
Fe7 Zn10 2.627841 1_555
Fe7 Zn2 2.627948 1_555
Fe7 Zn3 2.628232 1_445
Fe7 Zn16 2.667842 1_545
Fe7 Zn14 2.668019 1_455
Fe7 Zn13 2.668390 1_556
