# generated using pymatgen
data_Li9Mn2Co5O16
_symmetry_space_group_name_H-M   'P 1'
_cell_length_a   5.71457200
_cell_length_b   5.91600763
_cell_length_c   10.04256257
_cell_angle_alpha   75.83975988
_cell_angle_beta   73.98077724
_cell_angle_gamma   61.44768298
_symmetry_Int_Tables_number   1
_chemical_formula_structural   Li9Mn2Co5O16
_chemical_formula_sum   'Li9 Mn2 Co5 O16'
_cell_volume   284.07498195
_cell_formula_units_Z   1
loop_
 _symmetry_equiv_pos_site_id
 _symmetry_equiv_pos_as_xyz
  1  'x, y, z'
loop_
 _atom_site_type_symbol
 _atom_site_label
 _atom_site_symmetry_multiplicity
 _atom_site_fract_x
 _atom_site_fract_y
 _atom_site_fract_z
 _atom_site_occupancy
  Li  Li0  1  0.74159600  0.75190100  0.26296200  1
  Li  Li1  1  0.75023200  0.25621000  0.74445600  1
  Li  Li2  1  0.74685200  0.25167100  0.25439600  1
  Li  Li3  1  0.75323900  0.74851600  0.74777400  1
  Li  Li4  1  0.24676100  0.25148400  0.25222600  1
  Li  Li5  1  0.25314800  0.74832900  0.74560400  1
  Li  Li6  1  0.24976800  0.74379000  0.25554400  1
  Li  Li7  1  0.25840400  0.24809900  0.73703800  1
  Li  Li8  1  0.50000000  0.00000000  0.50000000  1
  Mn  Mn0  1  0.00000000  0.00000000  0.00000000  1
  Mn  Mn1  1  0.00000000  0.50000000  0.00000000  1
  Co  Co0  1  0.00000000  0.50000000  0.50000000  1
  Co  Co1  1  0.00000000  0.00000000  0.50000000  1
  Co  Co2  1  0.50000000  0.50000000  0.00000000  1
  Co  Co3  1  0.50000000  0.00000000  0.00000000  1
  Co  Co4  1  0.50000000  0.50000000  0.50000000  1
  O  O0  1  0.63167600  0.10274900  0.12153800  1
  O  O1  1  0.64299100  0.60822800  0.60889400  1
  O  O2  1  0.62693800  0.62568500  0.11264300  1
  O  O3  1  0.63552300  0.15987000  0.60020100  1
  O  O4  1  0.14738400  0.60248800  0.11592300  1
  O  O5  1  0.10511600  0.16112600  0.60020500  1
  O  O6  1  0.12276300  0.10765000  0.12379900  1
  O  O7  1  0.14236200  0.60069400  0.61805700  1
  O  O8  1  0.85763800  0.39930600  0.38194300  1
  O  O9  1  0.87723700  0.89235000  0.87620100  1
  O  O10  1  0.89488400  0.83887400  0.39979500  1
  O  O11  1  0.85261600  0.39751200  0.88407700  1
  O  O12  1  0.36447700  0.84013000  0.39979900  1
  O  O13  1  0.37306200  0.37431500  0.88735700  1
  O  O14  1  0.35700900  0.39177200  0.39110600  1
  O  O15  1  0.36832400  0.89725100  0.87846200  1
loop_
_geom_bond_atom_site_label_1
_geom_bond_atom_site_label_2
_geom_bond_distance
_geom_bond_site_symmetry_2
Li0 O8 2.028354 1_555
Li0 O10 2.088426 1_555
Li0 O12 2.108637 1_555
Li0 O0 2.126884 1_565
Li0 O2 2.197914 1_555
Li0 O4 2.264613 1_655
Li1 O3 2.034326 1_555
Li1 O5 2.052939 1_655
Li1 O1 2.102200 1_555
Li1 O11 2.121545 1_555
Li1 O13 2.130051 1_555
Li1 O9 2.134011 1_545
Li2 O6 2.074328 1_655
Li2 O8 2.080354 1_555
Li2 O0 2.145626 1_555
Li2 O14 2.153716 1_555
Li2 O2 2.222581 1_555
Li2 O10 2.402888 1_545
Li3 O11 2.102207 1_555
Li3 O15 2.111074 1_555
Li3 O7 2.122778 1_655
Li3 O9 2.123049 1_555
Li3 O1 2.140585 1_555
Li3 O3 2.406637 1_565
Li4 O4 2.102207 1_555
Li4 O0 2.111074 1_555
Li4 O8 2.122778 1_455
Li4 O6 2.123049 1_555
Li4 O14 2.140585 1_555
Li4 O12 2.406637 1_545
Li5 O9 2.074328 1_455
Li5 O7 2.080354 1_555
Li5 O15 2.145626 1_555
Li5 O1 2.153716 1_555
Li5 O13 2.222581 1_555
Li5 O5 2.402888 1_565
Li6 O12 2.034326 1_555
Li6 O10 2.052939 1_455
Li6 O14 2.102200 1_555
Li6 O4 2.121545 1_555
Li6 O2 2.130051 1_555
Li6 O6 2.134011 1_565
Li7 O7 2.028354 1_555
Li7 O5 2.088426 1_555
Li7 O3 2.108637 1_555
Li7 O15 2.126884 1_545
Li7 O13 2.197914 1_555
Li7 O11 2.264613 1_455
Li8 O3 2.025550 1_555
Li8 O12 2.025550 1_545
Li8 O5 2.042865 1_555
Li8 O10 2.042865 1_545
Li8 O14 2.162902 1_555
Li8 O1 2.162902 1_545
Mn0 O9 1.933727 1_444
Mn0 O6 1.933727 1_555
Mn0 O15 2.002884 1_544
Mn0 O0 2.002884 1_455
Mn0 O4 2.214351 1_545
Mn0 O11 2.214351 1_454
Mn1 O11 1.951136 1_454
Mn1 O4 1.951136 1_555
Mn1 O2 1.985622 1_455
Mn1 O13 1.985622 1_554
Mn1 O9 2.222257 1_454
Mn1 O6 2.222257 1_555
Co0 O5 1.894209 1_555
Co0 O10 1.894209 1_455
Co0 O14 1.905418 1_555
Co0 O1 1.905418 1_455
Co0 O7 1.939977 1_555
Co0 O8 1.939977 1_455
Co1 O10 1.905898 1_445
Co1 O5 1.905898 1_555
Co1 O3 1.916007 1_455
Co1 O12 1.916007 1_545
Co1 O7 2.229989 1_545
Co1 O8 2.229989 1_455
Co2 O11 1.914693 1_554
Co2 O4 1.914693 1_555
Co2 O2 1.933590 1_555
Co2 O13 1.933590 1_554
Co2 O15 2.234301 1_554
Co2 O0 2.234301 1_555
Co3 O0 1.931995 1_555
Co3 O15 1.931995 1_544
Co3 O6 2.048000 1_555
Co3 O9 2.048000 1_544
Co3 O2 2.097944 1_545
Co3 O13 2.097944 1_554
Co4 O14 1.899861 1_555
Co4 O1 1.899861 1_555
Co4 O3 1.900294 1_555
Co4 O12 1.900294 1_555
Co4 O7 1.944690 1_555
Co4 O8 1.944690 1_555
