# generated using pymatgen
data_Sr3TiSi4O15
_symmetry_space_group_name_H-M   'P 1'
_cell_length_a   7.70312100
_cell_length_b   7.82007000
_cell_length_c   11.24332660
_cell_angle_alpha   76.67225230
_cell_angle_beta   90.00000000
_cell_angle_gamma   90.00000000
_symmetry_Int_Tables_number   1
_chemical_formula_structural   Sr3TiSi4O15
_chemical_formula_sum   'Sr6 Ti2 Si8 O30'
_cell_volume   659.04502591
_cell_formula_units_Z   2
loop_
 _symmetry_equiv_pos_site_id
 _symmetry_equiv_pos_as_xyz
  1  'x, y, z'
loop_
 _atom_site_type_symbol
 _atom_site_label
 _atom_site_symmetry_multiplicity
 _atom_site_fract_x
 _atom_site_fract_y
 _atom_site_fract_z
 _atom_site_occupancy
  Sr  Sr0  1  0.25000000  0.64495200  0.10608300  1
  Sr  Sr1  1  0.75000000  0.35504800  0.89391700  1
  Sr  Sr2  1  0.25000000  0.29242100  0.41195000  1
  Sr  Sr3  1  0.75000000  0.70757900  0.58805000  1
  Sr  Sr4  1  0.75000000  0.60414400  0.25935800  1
  Sr  Sr5  1  0.25000000  0.39585600  0.74064200  1
  Ti  Ti0  1  0.50000000  0.00000000  0.00000000  1
  Ti  Ti1  1  0.00000000  0.00000000  0.00000000  1
  Si  Si0  1  0.04591000  0.87471500  0.30159900  1
  Si  Si1  1  0.54591000  0.12528500  0.69840100  1
  Si  Si2  1  0.95409000  0.12528500  0.69840100  1
  Si  Si3  1  0.45409000  0.87471500  0.30159900  1
  Si  Si4  1  0.96069200  0.25626100  0.19974000  1
  Si  Si5  1  0.46069200  0.74373900  0.80026000  1
  Si  Si6  1  0.03930800  0.74373900  0.80026000  1
  Si  Si7  1  0.53930800  0.25626100  0.19974000  1
  O  O0  1  0.25000000  0.80903600  0.30912400  1
  O  O1  1  0.75000000  0.19096400  0.69087600  1
  O  O2  1  0.97261400  0.85355300  0.16879900  1
  O  O3  1  0.47261400  0.14644700  0.83120100  1
  O  O4  1  0.02738600  0.14644700  0.83120100  1
  O  O5  1  0.52738600  0.85355300  0.16879900  1
  O  O6  1  0.93813000  0.74949200  0.40938900  1
  O  O7  1  0.43813000  0.25050800  0.59061100  1
  O  O8  1  0.06187000  0.25050800  0.59061100  1
  O  O9  1  0.56187000  0.74949200  0.40938900  1
  O  O10  1  0.04382200  0.08696400  0.30364200  1
  O  O11  1  0.54382200  0.91303600  0.69635800  1
  O  O12  1  0.95617800  0.91303600  0.69635800  1
  O  O13  1  0.45617800  0.08696400  0.30364200  1
  O  O14  1  0.04162000  0.43133100  0.22996400  1
  O  O15  1  0.54162000  0.56866900  0.77003600  1
  O  O16  1  0.95838000  0.56866900  0.77003600  1
  O  O17  1  0.45838000  0.43133100  0.22996400  1
  O  O18  1  0.98997200  0.22642300  0.06129000  1
  O  O19  1  0.48997200  0.77357700  0.93871000  1
  O  O20  1  0.01002800  0.77357700  0.93871000  1
  O  O21  1  0.51002800  0.22642300  0.06129000  1
  O  O22  1  0.75000000  0.26309900  0.22609700  1
  O  O23  1  0.25000000  0.73690100  0.77390300  1
  O  O24  1  0.25000000  0.98042400  0.02015700  1
  O  O25  1  0.75000000  0.01957600  0.97984300  1
  O  O26  1  0.75000000  0.59571800  0.02227400  1
  O  O27  1  0.25000000  0.40428200  0.97772600  1
  O  O28  1  0.25000000  0.56991800  0.50001100  1
  O  O29  1  0.75000000  0.43008200  0.49998900  1
loop_
_geom_bond_atom_site_label_1
_geom_bond_atom_site_label_2
_geom_bond_distance
_geom_bond_site_symmetry_2
O0 Si0 1.650005 1_555
O0 Si3 1.650005 1_555
O0 Sr0 2.865032 1_555
O1 Si1 1.650005 1_555
O1 Si2 1.650005 1_555
O1 Sr1 2.865032 1_555
O2 Si0 1.639963 1_655
O2 Ti1 1.988935 1_665
O2 Sr4 2.620266 1_555
O2 Sr0 2.873020 1_655
O3 Si1 1.639963 1_555
O3 Ti0 1.988935 1_556
O3 Sr5 2.620266 1_555
O3 Sr1 2.873020 1_555
O4 Si2 1.639963 1_455
O4 Ti1 1.988935 1_556
O4 Sr5 2.620266 1_555
O4 Sr1 2.873020 1_455
O5 Si3 1.639963 1_555
O5 Ti0 1.988935 1_565
O5 Sr4 2.620266 1_555
O5 Sr0 2.873020 1_555
O6 Si0 1.603069 1_655
O6 Sr3 2.437023 1_555
O6 Sr4 2.668614 1_555
O7 Si1 1.603069 1_555
O7 Sr2 2.437023 1_555
O7 Sr5 2.668614 1_555
O8 Si2 1.603069 1_455
O8 Sr2 2.437023 1_555
O8 Sr5 2.668614 1_555
O9 Si3 1.603069 1_555
O9 Sr3 2.437023 1_555
O9 Sr4 2.668614 1_555
O10 Si0 1.665325 1_545
O10 Si4 1.677636 1_455
O10 Sr2 2.736569 1_555
O11 Si1 1.665325 1_565
O11 Si5 1.677636 1_555
O11 Sr3 2.736569 1_555
O12 Si2 1.665325 1_565
O12 Si6 1.677636 1_655
O12 Sr3 2.736569 1_555
O13 Si3 1.665325 1_545
O13 Si7 1.677636 1_555
O13 Sr2 2.736569 1_555
O14 Si4 1.610254 1_455
O14 Sr0 2.496901 1_555
O14 Sr2 2.630304 1_555
O14 Sr4 2.680985 1_455
O15 Si5 1.610254 1_555
O15 Sr1 2.496901 1_555
O15 Sr3 2.630304 1_555
O15 Sr5 2.680985 1_555
O16 Si6 1.610254 1_655
O16 Sr1 2.496901 1_555
O16 Sr3 2.630304 1_555
O16 Sr5 2.680985 1_655
O17 Si7 1.610254 1_555
O17 Sr0 2.496901 1_555
O17 Sr2 2.630304 1_555
O17 Sr4 2.680985 1_555
O18 Si4 1.641920 1_555
O18 Ti1 2.044151 1_655
O18 Sr1 2.664099 1_554
O19 Si5 1.641920 1_555
O19 Ti0 2.044151 1_566
O19 Sr0 2.664099 1_556
O20 Si6 1.641920 1_555
O20 Ti1 2.044151 1_566
O20 Sr0 2.664099 1_556
O21 Si7 1.641920 1_555
O21 Ti0 2.044151 1_555
O21 Sr1 2.664099 1_554
O22 Si4 1.652896 1_555
O22 Si7 1.652896 1_555
O22 Sr4 2.777146 1_555
O23 Si5 1.652896 1_555
O23 Si6 1.652896 1_555
O23 Sr5 2.777146 1_555
O24 Ti0 1.940987 1_565
O24 Ti1 1.940987 1_565
O24 Sr0 2.578206 1_555
O25 Ti1 1.940987 1_656
O25 Ti0 1.940987 1_556
O25 Sr1 2.578206 1_555
O26 Sr1 2.622420 1_554
O26 Sr4 2.681569 1_555
O27 Sr0 2.622420 1_556
O27 Sr5 2.681569 1_555
O28 Sr2 2.584564 1_555
O28 Sr5 2.733978 1_555
O29 Sr3 2.584564 1_555
O29 Sr4 2.733978 1_555
