# generated using pymatgen
data_Mg2Si3
_symmetry_space_group_name_H-M   'P 1'
_cell_length_a   9.05872674
_cell_length_b   9.05872674
_cell_length_c   5.88390300
_cell_angle_alpha   75.27003462
_cell_angle_beta   75.27003462
_cell_angle_gamma   22.43453618
_symmetry_Int_Tables_number   1
_chemical_formula_structural   Mg2Si3
_chemical_formula_sum   'Mg4 Si6'
_cell_volume   177.96538738
_cell_formula_units_Z   2
loop_
 _symmetry_equiv_pos_site_id
 _symmetry_equiv_pos_as_xyz
  1  'x, y, z'
loop_
 _atom_site_type_symbol
 _atom_site_label
 _atom_site_symmetry_multiplicity
 _atom_site_fract_x
 _atom_site_fract_y
 _atom_site_fract_z
 _atom_site_occupancy
  Mg  Mg0  1  0.70027700  0.70027700  0.17931900  1
  Mg  Mg1  1  0.29972300  0.29972300  0.82068100  1
  Mg  Mg2  1  0.07842500  0.07842500  0.53537100  1
  Mg  Mg3  1  0.92157500  0.92157500  0.46462900  1
  Si  Si0  1  0.53783700  0.53783700  0.14927900  1
  Si  Si1  1  0.46216300  0.46216300  0.85072100  1
  Si  Si2  1  0.13076200  0.13076200  0.93889100  1
  Si  Si3  1  0.86923800  0.86923800  0.06110900  1
  Si  Si4  1  0.69924700  0.69924700  0.63289400  1
  Si  Si5  1  0.30075300  0.30075300  0.36710600  1
loop_
_geom_bond_atom_site_label_1
_geom_bond_atom_site_label_2
_geom_bond_distance
_geom_bond_site_symmetry_2
Mg0 Si4 2.664105 1_555
Mg0 Si2 2.745679 1_564
Mg0 Si2 2.745679 1_654
Mg0 Si3 2.901214 1_555
Mg0 Si5 2.921876 1_565
Mg0 Si5 2.921876 1_655
Mg0 Si0 2.937559 1_555
Mg1 Si5 2.664105 1_555
Mg1 Si3 2.745679 1_456
Mg1 Si3 2.745679 1_546
Mg1 Si2 2.901214 1_555
Mg1 Si4 2.921876 1_545
Mg1 Si4 2.921876 1_455
Mg1 Si1 2.937559 1_555
Mg2 Si2 2.765341 1_555
Mg2 Si4 2.946808 1_545
Mg2 Si4 2.946808 1_455
Mg2 Si1 2.971459 1_455
Mg2 Si1 2.971459 1_545
Mg2 Si0 3.104168 1_545
Mg2 Si0 3.104168 1_455
Mg3 Si3 2.765341 1_555
Mg3 Si5 2.946808 1_655
Mg3 Si5 2.946808 1_565
Mg3 Si0 2.971459 1_655
Mg3 Si0 2.971459 1_565
Mg3 Si1 3.104168 1_655
Mg3 Si1 3.104168 1_565
Si0 Si1 2.473717 1_554
Si0 Si2 2.510985 1_564
Si0 Si2 2.510985 1_654
Si1 Si3 2.510985 1_456
Si1 Si3 2.510985 1_546
Si2 Si4 2.586929 1_455
Si2 Si4 2.586929 1_545
Si3 Si5 2.586929 1_655
Si3 Si5 2.586929 1_565
Si4 Si5 2.709712 1_655
Si4 Si5 2.709712 1_565
