# generated using pymatgen
data_Fe6Bi(P3O13)2
_symmetry_space_group_name_H-M   'P 1'
_cell_length_a   6.41183900
_cell_length_b   7.66383100
_cell_length_c   10.34964227
_cell_angle_alpha   79.95807006
_cell_angle_beta   90.00000000
_cell_angle_gamma   90.00000000
_symmetry_Int_Tables_number   1
_chemical_formula_structural   Fe6Bi(P3O13)2
_chemical_formula_sum   'Fe6 Bi1 P6 O26'
_cell_volume   500.78252433
_cell_formula_units_Z   1
loop_
 _symmetry_equiv_pos_site_id
 _symmetry_equiv_pos_as_xyz
  1  'x, y, z'
loop_
 _atom_site_type_symbol
 _atom_site_label
 _atom_site_symmetry_multiplicity
 _atom_site_fract_x
 _atom_site_fract_y
 _atom_site_fract_z
 _atom_site_occupancy
  Fe  Fe0  1  0.00000000  0.21719800  0.43312900  1
  Fe  Fe1  1  0.50000000  0.78834500  0.55894500  1
  Fe  Fe2  1  0.74549800  0.00525200  0.00730200  1
  Fe  Fe3  1  0.25450200  0.00525200  0.00730200  1
  Fe  Fe4  1  0.00000000  0.64355200  0.20437700  1
  Fe  Fe5  1  0.50000000  0.35343700  0.80336900  1
  Bi  Bi0  1  0.00000000  0.64943000  0.81398200  1
  P  P0  1  0.00000000  0.31263400  0.11163500  1
  P  P1  1  0.50000000  0.68097300  0.88442000  1
  P  P2  1  0.00000000  0.78375800  0.48808200  1
  P  P3  1  0.50000000  0.21690200  0.51233200  1
  P  P4  1  0.00000000  0.25924900  0.76078200  1
  P  P5  1  0.50000000  0.73474000  0.23749000  1
  O  O0  1  0.80261600  0.20994400  0.08830800  1
  O  O1  1  0.29998100  0.78851500  0.90542400  1
  O  O2  1  0.70001900  0.78851500  0.90542400  1
  O  O3  1  0.19738400  0.20994400  0.08830800  1
  O  O4  1  0.00000000  0.65084000  0.39403000  1
  O  O5  1  0.50000000  0.34552700  0.61182800  1
  O  O6  1  0.00000000  0.36209500  0.25188300  1
  O  O7  1  0.50000000  0.64567600  0.73957800  1
  O  O8  1  0.00000000  0.08592000  0.86540500  1
  O  O9  1  0.50000000  0.91170300  0.13154200  1
  O  O10  1  0.00000000  0.21390500  0.62444100  1
  O  O11  1  0.50000000  0.78428000  0.37524500  1
  O  O12  1  0.00000000  0.87288900  0.09177400  1
  O  O13  1  0.50000000  0.11910200  0.90429900  1
  O  O14  1  0.00000000  0.50693600  0.02961000  1
  O  O15  1  0.50000000  0.49082500  0.95874500  1
  O  O16  1  0.18497900  0.38230900  0.78653500  1
  O  O17  1  0.69365700  0.62915200  0.21149200  1
  O  O18  1  0.30634300  0.62915200  0.21149200  1
  O  O19  1  0.81502100  0.38230900  0.78653500  1
  O  O20  1  0.00000000  0.97484000  0.41076900  1
  O  O21  1  0.50000000  0.02414900  0.58918700  1
  O  O22  1  0.81077000  0.74995500  0.58558600  1
  O  O23  1  0.30436100  0.24997100  0.42505800  1
  O  O24  1  0.69563900  0.24997100  0.42505800  1
  O  O25  1  0.18923000  0.74995500  0.58558600  1
loop_
_geom_bond_atom_site_label_1
_geom_bond_atom_site_label_2
_geom_bond_distance
_geom_bond_site_symmetry_2
Fe0 O20 1.911375 1_545
Fe0 O24 1.967524 1_455
Fe0 O23 1.967524 1_555
Fe0 O10 1.975767 1_555
Fe0 O6 2.006350 1_555
Fe1 O21 1.887076 1_565
Fe1 O11 1.906908 1_555
Fe1 O7 1.994402 1_555
Fe1 O25 2.026026 1_555
Fe1 O22 2.026026 1_555
Fe2 O0 1.938186 1_555
Fe2 O13 2.012746 1_554
Fe2 O12 2.036399 1_645
Fe2 O9 2.079344 1_545
Fe2 O2 2.136963 1_544
Fe2 O8 2.210242 1_654
Fe3 O3 1.938186 1_555
Fe3 O13 2.012746 1_554
Fe3 O12 2.036399 1_545
Fe3 O9 2.079344 1_545
Fe3 O1 2.136963 1_544
Fe3 O8 2.210242 1_554
Fe4 O12 1.932096 1_555
Fe4 O18 1.967978 1_555
Fe4 O17 1.967978 1_455
Fe4 O4 1.973346 1_555
Fe4 O6 2.127135 1_555
Fe4 O14 2.242392 1_555
Fe5 O13 1.913691 1_555
Fe5 O5 1.993845 1_555
Fe5 O16 2.036104 1_555
Fe5 O19 2.036104 1_555
Fe5 O15 2.070037 1_555
Fe5 O7 2.221788 1_555
Bi0 O14 2.307169 1_556
Bi0 O19 2.425104 1_455
Bi0 O16 2.425104 1_555
Bi0 O1 2.466421 1_555
Bi0 O2 2.466421 1_455
Bi0 O22 2.649188 1_455
Bi0 O25 2.649188 1_555
O0 P0 1.531549 1_655
O1 P1 1.560063 1_555
O2 P1 1.560063 1_555
O3 P0 1.531549 1_555
O4 P2 1.526756 1_555
O5 P3 1.544701 1_555
O6 P0 1.562840 1_555
O7 P1 1.569007 1_555
O8 P4 1.560582 1_555
O9 P5 1.588417 1_555
O10 P4 1.510933 1_555
O11 P5 1.538044 1_555
O14 P0 1.580266 1_555
O15 P1 1.524602 1_555
O16 P4 1.566809 1_555
O17 P5 1.531327 1_555
O18 P5 1.531327 1_555
O19 P4 1.566809 1_655
O20 P2 1.541475 1_555
O21 P3 1.550845 1_555
O22 P2 1.570483 1_655
O23 P3 1.540714 1_555
O24 P3 1.540714 1_555
O25 P2 1.570483 1_555
