# generated using pymatgen
data_Ni5O7
_symmetry_space_group_name_H-M   'P 1'
_cell_length_a   2.90690200
_cell_length_b   5.12726518
_cell_length_c   16.97827100
_cell_angle_alpha   90.00000000
_cell_angle_beta   90.00000000
_cell_angle_gamma   106.46770774
_symmetry_Int_Tables_number   1
_chemical_formula_structural   Ni5O7
_chemical_formula_sum   'Ni10 O14'
_cell_volume   242.67164034
_cell_formula_units_Z   2
loop_
 _symmetry_equiv_pos_site_id
 _symmetry_equiv_pos_as_xyz
  1  'x, y, z'
loop_
 _atom_site_type_symbol
 _atom_site_label
 _atom_site_symmetry_multiplicity
 _atom_site_fract_x
 _atom_site_fract_y
 _atom_site_fract_z
 _atom_site_occupancy
  Ni  Ni0  1  0.26852200  0.53704200  0.57907500  1
  Ni  Ni1  1  0.00000000  0.00000000  0.50000000  1
  Ni  Ni2  1  0.00000000  0.00000000  0.00000000  1
  Ni  Ni3  1  0.73147800  0.46295700  0.42092500  1
  Ni  Ni4  1  0.73147800  0.46295700  0.07907500  1
  Ni  Ni5  1  0.26852200  0.53704200  0.92092500  1
  Ni  Ni6  1  0.46739600  0.93479100  0.15397700  1
  Ni  Ni7  1  0.53260400  0.06520800  0.84602400  1
  Ni  Ni8  1  0.53260400  0.06520800  0.65397600  1
  Ni  Ni9  1  0.46739600  0.93479100  0.34602400  1
  O  O0  1  0.63890800  0.27781700  0.96542300  1
  O  O1  1  0.36109300  0.72218400  0.03457700  1
  O  O2  1  0.36109300  0.72218400  0.46542300  1
  O  O3  1  0.63890800  0.27781700  0.53457700  1
  O  O4  1  0.15501400  0.31003000  0.82558000  1
  O  O5  1  0.84498600  0.68997000  0.17442000  1
  O  O6  1  0.84498600  0.68997000  0.32558100  1
  O  O7  1  0.15501400  0.31003000  0.67442000  1
  O  O8  1  0.91219600  0.82438900  0.89380000  1
  O  O9  1  0.08780400  0.17561100  0.10620000  1
  O  O10  1  0.08780400  0.17561100  0.39380000  1
  O  O11  1  0.91219600  0.82438900  0.60620000  1
  O  O12  1  0.43996900  0.87993800  0.75000000  1
  O  O13  1  0.56003200  0.12006400  0.25000000  1
loop_
_geom_bond_atom_site_label_1
_geom_bond_atom_site_label_2
_geom_bond_distance
_geom_bond_site_symmetry_2
Ni0 O7 1.966318 1_555
Ni0 O3 2.075543 1_555
Ni0 O3 2.075549 1_455
Ni0 O11 2.078655 1_455
Ni0 O11 2.078657 1_555
Ni0 O2 2.133569 1_555
Ni1 O11 1.999180 1_445
Ni1 O10 1.999180 1_555
Ni1 O2 2.079211 1_445
Ni1 O2 2.079215 1_545
Ni1 O3 2.079215 1_555
Ni1 O3 2.079217 1_455
Ni2 O8 1.999180 1_444
Ni2 O9 1.999180 1_555
Ni2 O1 2.079211 1_445
Ni2 O1 2.079215 1_545
Ni2 O0 2.079215 1_554
Ni2 O0 2.079217 1_454
Ni3 O6 1.966307 1_555
Ni3 O2 2.075549 1_555
Ni3 O2 2.075555 1_655
Ni3 O10 2.078651 1_655
Ni3 O10 2.078655 1_555
Ni3 O3 2.133565 1_555
Ni4 O5 1.966320 1_555
Ni4 O1 2.075549 1_555
Ni4 O1 2.075555 1_655
Ni4 O9 2.078651 1_655
Ni4 O9 2.078655 1_555
Ni4 O0 2.133565 1_554
Ni5 O4 1.966318 1_555
Ni5 O0 2.075543 1_555
Ni5 O0 2.075549 1_455
Ni5 O8 2.078655 1_455
Ni5 O8 2.078657 1_555
Ni5 O1 2.133569 1_556
Ni6 O13 1.867558 1_565
Ni6 O5 1.918867 1_455
Ni6 O5 1.918869 1_555
Ni6 O9 2.042692 1_665
Ni6 O9 2.042700 1_565
Ni6 O1 2.280871 1_555
Ni7 O12 1.867565 1_545
Ni7 O4 1.918872 1_655
Ni7 O4 1.918876 1_555
Ni7 O8 2.042683 1_445
Ni7 O8 2.042689 1_545
Ni7 O0 2.280861 1_555
Ni8 O12 1.867565 1_545
Ni8 O7 1.918872 1_655
Ni8 O7 1.918876 1_555
Ni8 O11 2.042683 1_445
Ni8 O11 2.042689 1_545
Ni8 O3 2.280861 1_555
Ni9 O13 1.867572 1_565
Ni9 O6 1.918867 1_455
Ni9 O6 1.918869 1_555
Ni9 O10 2.042685 1_665
Ni9 O10 2.042693 1_565
Ni9 O2 2.280856 1_555
