# generated using pymatgen
data_Li2Si2NiO6
_symmetry_space_group_name_H-M   'P 1'
_cell_length_a   5.12306407
_cell_length_b   10.43044348
_cell_length_c   5.12760704
_cell_angle_alpha   104.44993766
_cell_angle_beta   90.72066577
_cell_angle_gamma   75.51915476
_symmetry_Int_Tables_number   1
_chemical_formula_structural   Li2Si2NiO6
_chemical_formula_sum   'Li4 Si4 Ni2 O12'
_cell_volume   256.53817885
_cell_formula_units_Z   2
loop_
 _symmetry_equiv_pos_site_id
 _symmetry_equiv_pos_as_xyz
  1  'x, y, z'
loop_
 _atom_site_type_symbol
 _atom_site_label
 _atom_site_symmetry_multiplicity
 _atom_site_fract_x
 _atom_site_fract_y
 _atom_site_fract_z
 _atom_site_occupancy
  Li  Li0  1  0.52296300  0.83529100  0.91309500  1
  Li  Li1  1  0.11537700  0.66656200  0.82776900  1
  Li  Li2  1  0.82724900  0.33513900  0.11506900  1
  Li  Li3  1  0.91274400  0.16667500  0.52308300  1
  Si  Si0  1  0.17093600  0.83949300  0.39901100  1
  Si  Si1  1  0.75730800  0.66744700  0.31390600  1
  Si  Si2  1  0.31349000  0.33431000  0.75690100  1
  Si  Si3  1  0.39779100  0.16230700  0.17096300  1
  Ni  Ni0  1  0.96477000  0.00048500  0.96457500  1
  Ni  Ni1  1  0.72529800  0.50117000  0.72545800  1
  O  O0  1  0.05691600  0.99161100  0.59402700  1
  O  O1  1  0.78525900  0.51637900  0.35831500  1
  O  O2  1  0.35861000  0.48520400  0.78478300  1
  O  O3  1  0.59367000  0.01029900  0.05760100  1
  O  O4  1  0.17155400  0.83423600  0.07888400  1
  O  O5  1  0.75807900  0.67196900  0.99765800  1
  O  O6  1  0.99653000  0.33027700  0.75729200  1
  O  O7  1  0.07749700  0.16741500  0.17100100  1
  O  O8  1  0.00407700  0.73125200  0.46813700  1
  O  O9  1  0.48176300  0.77612900  0.48845600  1
  O  O10  1  0.48732000  0.22553300  0.48151700  1
  O  O11  1  0.46671000  0.27047900  0.00389500  1
loop_
_geom_bond_atom_site_label_1
_geom_bond_atom_site_label_2
_geom_bond_distance
_geom_bond_site_symmetry_2
Li0 O3 1.913449 1_566
Li0 O5 1.967274 1_555
Li0 O4 2.004224 1_556
Li0 O9 2.132921 1_555
Li1 O2 1.949265 1_555
Li1 O4 1.979400 1_556
Li1 O5 2.019056 1_455
Li1 O8 2.140804 1_555
Li2 O1 1.949939 1_555
Li2 O7 1.976328 1_655
Li2 O6 2.022821 1_554
Li2 O11 2.143854 1_555
Li3 O0 1.913733 1_645
Li3 O6 1.966985 1_555
Li3 O7 2.005057 1_655
Li3 O10 2.134686 1_555
Ni0 O3 1.937413 1_556
Ni0 O0 1.937641 1_645
Ni0 O4 2.011383 1_646
Ni0 O7 2.013264 1_656
Ni1 O2 1.960967 1_555
Ni1 O1 1.962534 1_555
Ni1 O6 2.008865 1_555
Ni1 O5 2.013168 1_555
O0 Si0 1.618018 1_555
O1 Si1 1.618831 1_555
O2 Si2 1.618586 1_555
O3 Si3 1.617947 1_555
O4 Si0 1.628685 1_555
O5 Si1 1.634086 1_556
O6 Si2 1.634872 1_655
O7 Si3 1.628382 1_555
O8 Si1 1.673177 1_455
O8 Si0 1.679586 1_555
O9 Si0 1.670157 1_555
O9 Si1 1.674504 1_555
O10 Si3 1.670275 1_555
O10 Si2 1.673629 1_555
O11 Si2 1.672682 1_554
O11 Si3 1.679512 1_555
