# generated using pymatgen
data_Ti3NiS6
_symmetry_space_group_name_H-M   'P 1'
_cell_length_a   5.89625429
_cell_length_b   5.89625021
_cell_length_c   11.38614681
_cell_angle_alpha   90.00017686
_cell_angle_beta   90.00013943
_cell_angle_gamma   119.99974923
_symmetry_Int_Tables_number   1
_chemical_formula_structural   Ti3NiS6
_chemical_formula_sum   'Ti6 Ni2 S12'
_cell_volume   342.81563310
_cell_formula_units_Z   2
loop_
 _symmetry_equiv_pos_site_id
 _symmetry_equiv_pos_as_xyz
  1  'x, y, z'
loop_
 _atom_site_type_symbol
 _atom_site_label
 _atom_site_symmetry_multiplicity
 _atom_site_fract_x
 _atom_site_fract_y
 _atom_site_fract_z
 _atom_site_occupancy
  Ti  Ti0  1  0.66666784  0.33333434  0.49393017  1
  Ti  Ti1  1  0.66666643  0.33333297  0.00606779  1
  Ti  Ti2  1  0.33333268  0.66666635  0.50604825  1
  Ti  Ti3  1  0.33333410  0.66666769  0.99395313  1
  Ti  Ti4  1  0.00000024  0.00000035  0.49998497  1
  Ti  Ti5  1  0.00000032  0.00000034  0.00001592  1
  Ni  Ni0  1  0.66667005  0.33332999  0.75001869  1
  Ni  Ni1  1  0.33333070  0.66667060  0.24997686  1
  S  S0  1  0.66905151  0.66328227  0.87363429  1
  S  S1  1  0.33671656  0.00576769  0.87363456  1
  S  S2  1  0.99423170  0.33094877  0.87363437  1
  S  S3  1  0.33672870  0.33095915  0.62639352  1
  S  S4  1  0.99423245  0.66327353  0.62639320  1
  S  S5  1  0.66904153  0.00576934  0.62639336  1
  S  S6  1  0.33095617  0.33671317  0.12639262  1
  S  S7  1  0.66328915  0.99424516  0.12639238  1
  S  S8  1  0.33095756  0.99423878  0.37358146  1
  S  S9  1  0.00575490  0.33671383  0.37358156  1
  S  S10  1  0.66328078  0.66904291  0.37358132  1
  S  S11  1  0.00575664  0.66904476  0.12639257  1
loop_
_geom_bond_atom_site_label_1
_geom_bond_atom_site_label_2
_geom_bond_distance
_geom_bond_site_symmetry_2
Ni0 S2 2.395544 1_555
Ni0 S5 2.395578 1_555
Ni0 S0 2.395586 1_555
Ni0 S1 2.395587 1_555
Ni0 S3 2.395624 1_555
Ni0 S4 2.395627 1_555
Ni1 S11 2.395376 1_555
Ni1 S6 2.395417 1_555
Ni1 S7 2.395418 1_555
Ni1 S8 2.395479 1_555
Ni1 S10 2.395524 1_555
Ni1 S9 2.395552 1_555
S0 Ti3 2.415587 1_555
S0 Ti5 2.438453 1_666
S0 Ti1 2.455905 1_556
S1 Ti3 2.415578 1_545
S1 Ti5 2.438451 1_556
S1 Ti1 2.455903 1_556
S2 Ti3 2.415585 1_655
S2 Ti5 2.438452 1_656
S2 Ti1 2.455908 1_556
S3 Ti2 2.415733 1_555
S3 Ti4 2.438682 1_555
S3 Ti0 2.456090 1_555
S4 Ti2 2.415725 1_655
S4 Ti4 2.438680 1_665
S4 Ti0 2.456085 1_555
S5 Ti2 2.415733 1_545
S5 Ti4 2.438683 1_655
S5 Ti0 2.456089 1_555
S6 Ti1 2.415578 1_555
S6 Ti5 2.438423 1_555
S6 Ti3 2.455988 1_554
S7 Ti1 2.415570 1_565
S7 Ti5 2.438422 1_665
S7 Ti3 2.455985 1_554
S8 Ti0 2.415741 1_565
S8 Ti4 2.438625 1_565
S8 Ti2 2.456153 1_555
S9 Ti0 2.415717 1_455
S9 Ti4 2.438615 1_555
S9 Ti2 2.456172 1_555
S10 Ti0 2.415741 1_555
S10 Ti4 2.438624 1_665
S10 Ti2 2.456153 1_555
S11 Ti1 2.415577 1_455
S11 Ti5 2.438423 1_565
S11 Ti3 2.455990 1_554
