# generated using pymatgen
data_Er(PO)2
_symmetry_space_group_name_H-M   'P 1'
_cell_length_a   10.01994759
_cell_length_b   10.01994759
_cell_length_c   10.01994803
_cell_angle_alpha   127.98922895
_cell_angle_beta   127.98923531
_cell_angle_gamma   76.64246909
_symmetry_Int_Tables_number   1
_chemical_formula_structural   Er(PO)2
_chemical_formula_sum   'Er4 P8 O8'
_cell_volume   606.91289064
_cell_formula_units_Z   4
loop_
 _symmetry_equiv_pos_site_id
 _symmetry_equiv_pos_as_xyz
  1  'x, y, z'
loop_
 _atom_site_type_symbol
 _atom_site_label
 _atom_site_symmetry_multiplicity
 _atom_site_fract_x
 _atom_site_fract_y
 _atom_site_fract_z
 _atom_site_occupancy
  Er  Er0  1  0.87500000  0.12500000  0.75000000  1
  Er  Er1  1  0.37500000  0.12500000  0.25000000  1
  Er  Er2  1  0.87500000  0.62500000  0.75000000  1
  Er  Er3  1  0.87500000  0.12500000  0.25000000  1
  P  P0  1  0.66307000  0.35291500  0.31015500  1
  P  P1  1  0.04275900  0.35291500  0.68984500  1
  P  P2  1  0.10291500  0.29275900  0.18984500  1
  P  P3  1  0.70724100  0.89708500  0.81015500  1
  P  P4  1  0.08693000  0.89708500  0.18984500  1
  P  P5  1  0.10291500  0.91307000  0.81015500  1
  P  P6  1  0.64708500  0.95724100  0.31015500  1
  P  P7  1  0.64708500  0.33693000  0.68984500  1
  O  O0  1  0.49572300  0.26236200  0.23336200  1
  O  O1  1  0.02900000  0.26236200  0.76663800  1
  O  O2  1  0.01236200  0.27900000  0.26663800  1
  O  O3  1  0.72100000  0.98763800  0.73336200  1
  O  O4  1  0.25427700  0.98763800  0.26663800  1
  O  O5  1  0.01236200  0.74572300  0.73336200  1
  O  O6  1  0.73763800  0.97100000  0.23336200  1
  O  O7  1  0.73763800  0.50427700  0.76663800  1
loop_
_geom_bond_atom_site_label_1
_geom_bond_atom_site_label_2
_geom_bond_distance
_geom_bond_site_symmetry_2
Er0 O1 2.164580 1_655
Er0 O3 2.164580 1_545
Er0 P5 2.779995 1_645
Er0 P7 2.779995 1_555
Er0 P6 2.779998 1_545
Er0 P2 2.779998 1_656
Er1 O4 2.164572 1_545
Er1 O0 2.164572 1_555
Er1 P2 2.779990 1_555
Er1 P6 2.779990 1_545
Er1 P7 2.779996 1_555
Er1 P5 2.779996 1_544
Er2 O5 2.164572 1_655
Er2 O7 2.164572 1_555
Er2 P1 2.779990 1_655
Er2 P3 2.779990 1_555
Er2 P0 2.779996 1_555
Er2 P4 2.779996 1_656
Er3 O2 2.164580 1_655
Er3 O6 2.164580 1_545
Er3 P0 2.779996 1_555
Er3 P4 2.779996 1_645
Er3 P1 2.779998 1_655
Er3 P3 2.779998 1_544
O0 P0 1.575507 1_555
O1 P1 1.575493 1_555
O2 P2 1.575493 1_555
O3 P3 1.575493 1_555
O4 P4 1.575507 1_555
O5 P5 1.575507 1_555
O6 P6 1.575493 1_555
O7 P7 1.575507 1_555
