# generated using pymatgen
data_Al3Ir
_symmetry_space_group_name_H-M   'P 1'
_cell_length_a   7.80859400
_cell_length_b   7.80859400
_cell_length_c   7.80859400
_cell_angle_alpha   90.00000000
_cell_angle_beta   90.00000000
_cell_angle_gamma   90.00000000
_symmetry_Int_Tables_number   1
_chemical_formula_structural   Al3Ir
_chemical_formula_sum   'Al24 Ir8'
_cell_volume   476.12230576
_cell_formula_units_Z   8
loop_
 _symmetry_equiv_pos_site_id
 _symmetry_equiv_pos_as_xyz
  1  'x, y, z'
loop_
 _atom_site_type_symbol
 _atom_site_label
 _atom_site_symmetry_multiplicity
 _atom_site_fract_x
 _atom_site_fract_y
 _atom_site_fract_z
 _atom_site_occupancy
  Al  Al0  1  0.79958200  0.33657600  0.50000000  1
  Al  Al1  1  0.66342400  0.50000000  0.79958200  1
  Al  Al2  1  0.50000000  0.20041800  0.66342400  1
  Al  Al3  1  0.20041800  0.66342400  0.50000000  1
  Al  Al4  1  0.33657600  0.50000000  0.20041800  1
  Al  Al5  1  0.50000000  0.79958200  0.33657600  1
  Al  Al6  1  0.79958200  0.66342400  0.50000000  1
  Al  Al7  1  0.66342400  0.50000000  0.20041800  1
  Al  Al8  1  0.20041800  0.33657600  0.50000000  1
  Al  Al9  1  0.33657600  0.50000000  0.79958200  1
  Al  Al10  1  0.50000000  0.79958200  0.66342400  1
  Al  Al11  1  0.50000000  0.20041800  0.33657600  1
  Al  Al12  1  0.29958200  0.00000000  0.83657600  1
  Al  Al13  1  0.16342400  0.29958200  0.00000000  1
  Al  Al14  1  0.00000000  0.16342400  0.70041800  1
  Al  Al15  1  0.70041800  0.00000000  0.16342400  1
  Al  Al16  1  0.83657600  0.70041800  0.00000000  1
  Al  Al17  1  0.00000000  0.83657600  0.29958200  1
  Al  Al18  1  0.29958200  0.00000000  0.16342400  1
  Al  Al19  1  0.16342400  0.70041800  0.00000000  1
  Al  Al20  1  0.70041800  0.00000000  0.83657600  1
  Al  Al21  1  0.83657600  0.29958200  0.00000000  1
  Al  Al22  1  0.00000000  0.16342400  0.29958200  1
  Al  Al23  1  0.00000000  0.83657600  0.70041800  1
  Ir  Ir0  1  0.50000000  0.50000000  0.50000000  1
  Ir  Ir1  1  0.00000000  0.00000000  0.00000000  1
  Ir  Ir2  1  0.00000000  0.50000000  0.75000000  1
  Ir  Ir3  1  0.50000000  0.25000000  0.00000000  1
  Ir  Ir4  1  0.75000000  0.00000000  0.50000000  1
  Ir  Ir5  1  0.00000000  0.50000000  0.25000000  1
  Ir  Ir6  1  0.50000000  0.75000000  0.00000000  1
  Ir  Ir7  1  0.25000000  0.00000000  0.50000000  1
loop_
_geom_bond_atom_site_label_1
_geom_bond_atom_site_label_2
_geom_bond_distance
_geom_bond_site_symmetry_2
Al0 Al6 2.552223 1_555
Al0 Al14 2.593539 1_655
Al0 Al22 2.593539 1_655
Al0 Ir4 2.656550 1_555
Al0 Ir0 2.664742 1_555
Al0 Ir2 2.808650 1_655
Al0 Ir5 2.808650 1_655
Al0 Al11 2.869016 1_555
Al0 Al1 2.869016 1_555
Al0 Al7 2.869016 1_555
Al0 Al2 2.869016 1_555
Al1 Al9 2.552223 1_555
Al1 Al16 2.593539 1_556
Al1 Al21 2.593539 1_556
Al1 Ir2 2.656550 1_655
Al1 Ir0 2.664742 1_555
Al1 Ir6 2.808650 1_556
Al1 Ir3 2.808650 1_556
Al1 Al2 2.869016 1_555
Al1 Al6 2.869016 1_555
Al1 Al10 2.869016 1_555
Al2 Al20 2.593539 1_555
Al2 Ir3 2.656550 1_556
Al2 Ir0 2.664742 1_555
Al2 Ir7 2.808650 1_555
Al2 Ir4 2.808650 1_555
Al2 Al8 2.869016 1_555
Al2 Al9 2.869016 1_555
Al3 Al8 2.552223 1_555
Al3 Ir7 2.656550 1_565
Al3 Ir0 2.664742 1_555
Al3 Ir2 2.808650 1_555
Al3 Ir5 2.808650 1_555
Al3 Al5 2.869016 1_555
Al3 Al4 2.869016 1_555
Al3 Al9 2.869016 1_555
Al4 Al7 2.552223 1_555
Al4 Ir5 2.656550 1_555
Al4 Ir0 2.664742 1_555
Al4 Ir6 2.808650 1_555
Al4 Ir3 2.808650 1_555
Al4 Al8 2.869016 1_555
Al4 Al5 2.869016 1_555
Al5 Ir6 2.656550 1_555
Al5 Ir0 2.664742 1_555
Al5 Ir4 2.808650 1_565
Al5 Ir7 2.808650 1_565
Al5 Al6 2.869016 1_555
Al5 Al7 2.869016 1_555
Al6 Ir4 2.656550 1_565
Al6 Ir0 2.664742 1_555
Al6 Ir2 2.808650 1_655
Al6 Ir5 2.808650 1_655
Al6 Al7 2.869016 1_555
Al7 Ir5 2.656550 1_655
Al7 Ir0 2.664742 1_555
Al7 Ir6 2.808650 1_555
Al7 Ir3 2.808650 1_555
Al8 Ir7 2.656550 1_555
Al8 Ir0 2.664742 1_555
Al8 Ir2 2.808650 1_555
Al8 Ir5 2.808650 1_555
Al8 Al9 2.869016 1_555
Al9 Ir2 2.656550 1_555
Al9 Ir0 2.664742 1_555
Al9 Ir6 2.808650 1_556
Al9 Ir3 2.808650 1_556
Al10 Al5 2.552223 1_555
Al10 Al20 2.593539 1_565
Al10 Al12 2.593539 1_565
Al10 Ir6 2.656550 1_556
Al10 Ir0 2.664742 1_555
Al10 Ir4 2.808650 1_565
Al10 Ir7 2.808650 1_565
Al10 Al6 2.869016 1_555
Al10 Al3 2.869016 1_555
Al10 Al9 2.869016 1_555
Al11 Al2 2.552223 1_555
Al11 Al18 2.593539 1_555
Al11 Al15 2.593539 1_555
Al11 Ir3 2.656550 1_555
Al11 Ir0 2.664742 1_555
Al11 Ir7 2.808650 1_555
Al11 Ir4 2.808650 1_555
Al11 Al8 2.869016 1_555
Al11 Al7 2.869016 1_555
Al11 Al4 2.869016 1_555
Al12 Al18 2.552223 1_556
Al12 Al2 2.593539 1_555
Al12 Ir7 2.656550 1_555
Al12 Ir1 2.664742 1_556
Al12 Ir6 2.808650 1_546
Al12 Ir3 2.808650 1_556
Al12 Al13 2.869016 1_556
Al12 Al14 2.869016 1_555
Al12 Al19 2.869016 1_546
Al12 Al23 2.869016 1_545
Al13 Al21 2.552223 1_455
Al13 Al9 2.593539 1_554
Al13 Al4 2.593539 1_555
Al13 Ir3 2.656550 1_555
Al13 Ir1 2.664742 1_555
Al13 Ir2 2.808650 1_554
Al13 Ir5 2.808650 1_555
Al13 Al14 2.869016 1_554
Al13 Al18 2.869016 1_555
Al13 Al22 2.869016 1_555
Al14 Al23 2.552223 1_545
Al14 Al8 2.593539 1_555
Al14 Ir2 2.656550 1_555
Al14 Ir1 2.664742 1_556
Al14 Ir7 2.808650 1_555
Al14 Ir4 2.808650 1_455
Al14 Al20 2.869016 1_455
Al14 Al21 2.869016 1_456
Al15 Al20 2.552223 1_554
Al15 Al5 2.593539 1_545
Al15 Ir4 2.656550 1_555
Al15 Ir1 2.664742 1_655
Al15 Ir6 2.808650 1_545
Al15 Ir3 2.808650 1_555
Al15 Al21 2.869016 1_555
Al15 Al17 2.869016 1_645
Al15 Al16 2.869016 1_545
Al15 Al22 2.869016 1_655
Al16 Al19 2.552223 1_655
Al16 Al7 2.593539 1_555
Al16 Ir6 2.656550 1_555
Al16 Ir1 2.664742 1_665
Al16 Ir2 2.808650 1_654
Al16 Ir5 2.808650 1_655
Al16 Al20 2.869016 1_564
Al16 Al23 2.869016 1_654
Al16 Al17 2.869016 1_655
Al17 Al22 2.552223 1_565
Al17 Al6 2.593539 1_455
Al17 Al3 2.593539 1_555
Al17 Ir5 2.656550 1_555
Al17 Ir1 2.664742 1_565
Al17 Ir7 2.808650 1_565
Al17 Ir4 2.808650 1_465
Al17 Al18 2.869016 1_565
Al17 Al19 2.869016 1_555
Al18 Al5 2.593539 1_545
Al18 Ir7 2.656550 1_555
Al18 Ir1 2.664742 1_555
Al18 Ir6 2.808650 1_545
Al18 Ir3 2.808650 1_555
Al18 Al22 2.869016 1_555
Al18 Al19 2.869016 1_545
Al19 Al9 2.593539 1_554
Al19 Al4 2.593539 1_555
Al19 Ir6 2.656550 1_555
Al19 Ir1 2.664742 1_565
Al19 Ir2 2.808650 1_554
Al19 Ir5 2.808650 1_555
Al19 Al23 2.869016 1_554
Al20 Ir4 2.656550 1_555
Al20 Ir1 2.664742 1_656
Al20 Ir6 2.808650 1_546
Al20 Ir3 2.808650 1_556
Al20 Al21 2.869016 1_556
Al20 Al23 2.869016 1_645
Al21 Al7 2.593539 1_555
Al21 Ir3 2.656550 1_555
Al21 Ir1 2.664742 1_655
Al21 Ir2 2.808650 1_654
Al21 Ir5 2.808650 1_655
Al21 Al22 2.869016 1_655
Al22 Al8 2.593539 1_555
Al22 Ir5 2.656550 1_555
Al22 Ir1 2.664742 1_555
Al22 Ir7 2.808650 1_555
Al22 Ir4 2.808650 1_455
Al23 Al6 2.593539 1_455
Al23 Al3 2.593539 1_555
Al23 Ir2 2.656550 1_555
Al23 Ir1 2.664742 1_566
Al23 Ir7 2.808650 1_565
Al23 Ir4 2.808650 1_465
