# generated using pymatgen
data_MgSi2
_symmetry_space_group_name_H-M   'P 1'
_cell_length_a   5.20243100
_cell_length_b   5.44109516
_cell_length_c   7.75632616
_cell_angle_alpha   108.26180461
_cell_angle_beta   91.88869635
_cell_angle_gamma   91.28725584
_symmetry_Int_Tables_number   1
_chemical_formula_structural   MgSi2
_chemical_formula_sum   'Mg4 Si8'
_cell_volume   208.26191775
_cell_formula_units_Z   4
loop_
 _symmetry_equiv_pos_site_id
 _symmetry_equiv_pos_as_xyz
  1  'x, y, z'
loop_
 _atom_site_type_symbol
 _atom_site_label
 _atom_site_symmetry_multiplicity
 _atom_site_fract_x
 _atom_site_fract_y
 _atom_site_fract_z
 _atom_site_occupancy
  Mg  Mg0  1  0.82918400  0.30751600  0.06706900  1
  Mg  Mg1  1  0.80403000  0.29077000  0.68864200  1
  Mg  Mg2  1  0.49673900  0.79466500  0.77646900  1
  Mg  Mg3  1  0.79689600  0.92478900  0.29930800  1
  Si  Si0  1  0.02505600  0.74492100  0.95651000  1
  Si  Si1  1  0.32777100  0.35895900  0.88368700  1
  Si  Si2  1  0.66048900  0.47550300  0.41321300  1
  Si  Si3  1  0.28857700  0.07955700  0.53608800  1
  Si  Si4  1  0.31465300  0.70417200  0.23900800  1
  Si  Si5  1  0.32336500  0.11216800  0.10489600  1
  Si  Si6  1  0.97911000  0.79392300  0.63436200  1
  Si  Si7  1  0.15435900  0.41308500  0.40047800  1
loop_
_geom_bond_atom_site_label_1
_geom_bond_atom_site_label_2
_geom_bond_distance
_geom_bond_site_symmetry_2
Mg0 Si2 2.732627 1_555
Mg0 Si5 2.845014 1_655
Mg0 Si5 2.874240 1_555
Mg0 Mg1 2.906437 1_554
Mg0 Si7 2.935364 1_655
Mg0 Si0 2.943750 1_654
Mg0 Si1 2.990628 1_554
Mg0 Si1 3.047902 1_654
Mg0 Si0 3.113981 1_644
Mg0 Mg3 3.156699 1_545
Mg0 Si4 3.247230 1_655
Mg0 Mg3 3.287414 1_555
Mg0 Mg2 3.382716 1_544
Mg1 Si2 2.721427 1_555
Mg1 Si6 2.781693 1_545
Mg1 Si0 2.870955 1_655
Mg1 Si1 2.915810 1_555
Mg1 Si3 2.924024 1_655
Mg1 Si3 2.951610 1_555
Mg1 Si6 3.022831 1_555
Mg1 Si1 3.030107 1_655
Mg1 Mg3 3.050665 1_545
Mg1 Si7 3.147472 1_655
Mg2 Si6 2.773538 1_555
Mg2 Si5 2.783993 1_566
Mg2 Si6 2.875389 1_455
Mg2 Si1 2.876588 1_555
Mg2 Si0 2.911680 1_555
Mg2 Si3 2.967419 1_565
Mg2 Si2 2.972907 1_555
Mg2 Si1 3.075829 1_565
Mg2 Si0 3.097594 1_655
Mg3 Si4 2.718353 1_555
Mg3 Si0 2.840009 1_654
Mg3 Si2 2.928687 1_555
Mg3 Si2 2.956485 1_565
Mg3 Si4 2.965066 1_655
Mg3 Si6 3.031008 1_555
Mg3 Si3 3.041278 1_665
Mg3 Si7 3.083551 1_665
Mg3 Si5 3.195888 1_565
Mg3 Si3 3.244428 1_565
Si0 Si5 2.455123 1_566
Si0 Si1 2.583266 1_555
Si0 Si6 2.598590 1_455
Si0 Si4 2.687384 1_556
Si1 Si5 2.488510 1_556
Si1 Si3 2.646267 1_555
Si1 Si4 2.811068 1_556
Si2 Si6 2.551997 1_555
Si2 Si7 2.600277 1_655
Si2 Si7 2.641969 1_555
Si2 Si4 2.757681 1_555
Si3 Si7 2.468216 1_555
Si3 Si6 2.509858 1_445
Si3 Si4 2.565782 1_545
Si4 Si7 2.454619 1_555
Si4 Si5 2.730949 1_565
Si5 Si7 2.560279 1_555
Si6 Si7 2.500809 1_655
