# generated using pymatgen
data_Ho2ZrS5
_symmetry_space_group_name_H-M   'P 1'
_cell_length_a   7.23651322
_cell_length_b   7.70784225
_cell_length_c   11.55825331
_cell_angle_alpha   90.00000000
_cell_angle_beta   90.00000000
_cell_angle_gamma   90.00000000
_symmetry_Int_Tables_number   1
_chemical_formula_structural   Ho2ZrS5
_chemical_formula_sum   'Ho8 Zr4 S20'
_cell_volume   644.69512434
_cell_formula_units_Z   4
loop_
 _symmetry_equiv_pos_site_id
 _symmetry_equiv_pos_as_xyz
  1  'x, y, z'
loop_
 _atom_site_type_symbol
 _atom_site_label
 _atom_site_symmetry_multiplicity
 _atom_site_fract_x
 _atom_site_fract_y
 _atom_site_fract_z
 _atom_site_occupancy
  Ho  Ho0  1  0.51961219  0.49713844  0.32057454  1
  Ho  Ho1  1  0.98038781  0.00286156  0.82057454  1
  Ho  Ho2  1  0.48038781  0.99713844  0.67942546  1
  Ho  Ho3  1  0.01961219  0.50286156  0.17942546  1
  Ho  Ho4  1  0.48038781  0.50286156  0.67942546  1
  Ho  Ho5  1  0.01961219  0.99713844  0.17942546  1
  Ho  Ho6  1  0.51961219  0.00286156  0.32057454  1
  Ho  Ho7  1  0.98038781  0.49713844  0.82057454  1
  Zr  Zr0  1  0.07772256  0.75000000  0.49422617  1
  Zr  Zr1  1  0.42227744  0.75000000  0.99422617  1
  Zr  Zr2  1  0.92227744  0.25000000  0.50577383  1
  Zr  Zr3  1  0.57772256  0.25000000  0.00577383  1
  S  S0  1  0.83963230  0.96318049  0.59581536  1
  S  S1  1  0.66036770  0.53681951  0.09581536  1
  S  S2  1  0.16036770  0.46318049  0.40418464  1
  S  S3  1  0.33963230  0.03681951  0.90418464  1
  S  S4  1  0.16036770  0.03681951  0.40418464  1
  S  S5  1  0.33963230  0.46318049  0.90418464  1
  S  S6  1  0.83963230  0.53681951  0.59581536  1
  S  S7  1  0.66036770  0.96318049  0.09581536  1
  S  S8  1  0.83024423  0.75000000  0.31809527  1
  S  S9  1  0.66975577  0.75000000  0.81809527  1
  S  S10  1  0.16975577  0.25000000  0.68190473  1
  S  S11  1  0.33024423  0.25000000  0.18190473  1
  S  S12  1  0.44990976  0.75000000  0.49748478  1
  S  S13  1  0.05009024  0.75000000  0.99748478  1
  S  S14  1  0.55009024  0.25000000  0.50251522  1
  S  S15  1  0.94990976  0.25000000  0.00251522  1
  S  S16  1  0.19208005  0.75000000  0.70862173  1
  S  S17  1  0.30791995  0.75000000  0.20862173  1
  S  S18  1  0.80791995  0.25000000  0.29137827  1
  S  S19  1  0.69208005  0.25000000  0.79137827  1
loop_
_geom_bond_atom_site_label_1
_geom_bond_atom_site_label_2
_geom_bond_distance
_geom_bond_site_symmetry_2
Ho0 S2 2.785810 1_555
Ho0 S17 2.796392 1_555
Ho0 S1 2.807087 1_555
Ho0 S11 2.841736 1_555
Ho0 S18 2.845235 1_555
Ho0 S14 2.845973 1_555
Ho0 S12 2.869527 1_555
Ho0 S8 2.975317 1_555
Ho1 S3 2.785810 1_655
Ho1 S16 2.796392 1_645
Ho1 S0 2.807087 1_545
Ho1 S10 2.841736 1_655
Ho1 S19 2.845235 1_555
Ho1 S15 2.845973 1_556
Ho1 S13 2.869527 1_645
Ho1 S9 2.975317 1_545
Ho2 S0 2.785810 1_555
Ho2 S19 2.796392 1_565
Ho2 S3 2.807087 1_565
Ho2 S9 2.841736 1_555
Ho2 S16 2.845235 1_555
Ho2 S12 2.845973 1_555
Ho2 S14 2.869527 1_565
Ho2 S10 2.975317 1_565
Ho3 S1 2.785810 1_455
Ho3 S18 2.796392 1_455
Ho3 S2 2.807087 1_555
Ho3 S8 2.841736 1_455
Ho3 S17 2.845235 1_555
Ho3 S13 2.845973 1_554
Ho3 S15 2.869527 1_455
Ho3 S11 2.975317 1_555
Ho4 S6 2.785810 1_555
Ho4 S19 2.796392 1_555
Ho4 S5 2.807087 1_555
Ho4 S9 2.841736 1_555
Ho4 S16 2.845235 1_555
Ho4 S12 2.845973 1_555
Ho4 S14 2.869527 1_555
Ho4 S10 2.975317 1_555
Ho5 S7 2.785810 1_455
Ho5 S18 2.796392 1_465
Ho5 S4 2.807087 1_565
Ho5 S8 2.841736 1_455
Ho5 S17 2.845235 1_555
Ho5 S13 2.845973 1_554
Ho5 S15 2.869527 1_465
Ho5 S11 2.975317 1_565
Ho6 S4 2.785810 1_555
Ho6 S17 2.796392 1_545
Ho6 S7 2.807087 1_545
Ho6 S11 2.841736 1_555
Ho6 S18 2.845235 1_555
Ho6 S14 2.845973 1_555
Ho6 S12 2.869527 1_545
Ho6 S8 2.975317 1_545
Ho7 S5 2.785810 1_655
Ho7 S16 2.796392 1_655
Ho7 S6 2.807087 1_555
Ho7 S10 2.841736 1_655
Ho7 S19 2.845235 1_555
Ho7 S15 2.845973 1_556
Ho7 S13 2.869527 1_655
Ho7 S9 2.975317 1_555
S0 Zr2 2.515599 1_565
S0 Zr0 2.654665 1_655
S1 Zr3 2.515599 1_555
S1 Zr1 2.654665 1_554
S2 Zr0 2.515599 1_555
S2 Zr2 2.654665 1_455
S3 Zr1 2.515599 1_545
S3 Zr3 2.654665 1_556
S4 Zr0 2.515599 1_545
S4 Zr2 2.654665 1_455
S5 Zr1 2.515599 1_555
S5 Zr3 2.654665 1_556
S6 Zr2 2.515599 1_555
S6 Zr0 2.654665 1_655
S7 Zr3 2.515599 1_565
S7 Zr1 2.654665 1_554
S8 Zr0 2.711382 1_655
S9 Zr1 2.711382 1_555
S10 Zr2 2.711382 1_455
S11 Zr3 2.711382 1_555
S12 Zr0 2.693601 1_555
S13 Zr1 2.693601 1_555
S14 Zr2 2.693601 1_555
S15 Zr3 2.693601 1_555
S16 Zr0 2.612568 1_555
S17 Zr1 2.612568 1_554
S18 Zr2 2.612568 1_555
S19 Zr3 2.612568 1_556
