# generated using pymatgen
data_Ti3B4Mo
_symmetry_space_group_name_H-M   'P 1'
_cell_length_a   3.05004915
_cell_length_b   4.54054410
_cell_length_c   6.02816725
_cell_angle_alpha   89.61087212
_cell_angle_beta   90.00000000
_cell_angle_gamma   90.00000000
_symmetry_Int_Tables_number   1
_chemical_formula_structural   Ti3B4Mo
_chemical_formula_sum   'Ti3 B4 Mo1'
_cell_volume   83.48145575
_cell_formula_units_Z   1
loop_
 _symmetry_equiv_pos_site_id
 _symmetry_equiv_pos_as_xyz
  1  'x, y, z'
loop_
 _atom_site_type_symbol
 _atom_site_label
 _atom_site_symmetry_multiplicity
 _atom_site_fract_x
 _atom_site_fract_y
 _atom_site_fract_z
 _atom_site_occupancy
  Ti  Ti0  1  0.50000000  0.87473371  0.17583950  1
  Ti  Ti1  1  0.00000000  0.37922331  0.32789860  1
  Ti  Ti2  1  0.00000000  0.11849056  0.82137247  1
  B  B0  1  0.50000000  0.10174345  0.52931970  1
  B  B1  1  0.50000000  0.39894618  0.02860723  1
  B  B2  1  0.00000000  0.90062143  0.46926536  1
  B  B3  1  0.00000000  0.60276400  0.96836067  1
  Mo  Mo0  1  0.50000000  0.62347635  0.67933646  1
loop_
_geom_bond_atom_site_label_1
_geom_bond_atom_site_label_2
_geom_bond_distance
_geom_bond_site_symmetry_2
B0 B2 1.815265 1_645
B0 B2 1.815265 1_545
B0 Ti1 2.316587 1_655
B0 Ti1 2.316587 1_555
B0 Ti2 2.330839 1_555
B0 Ti2 2.330839 1_655
B0 Mo0 2.346688 1_545
B0 Ti0 2.373340 1_545
B0 Mo0 2.541424 1_555
B1 B3 1.819197 1_554
B1 B3 1.819197 1_654
B1 Mo0 2.333061 1_554
B1 Ti0 2.341114 1_555
B1 Ti2 2.351494 1_654
B1 Ti2 2.351494 1_554
B1 Ti1 2.363596 1_555
B1 Ti1 2.363596 1_655
B1 Ti0 2.534646 1_545
B2 Ti1 2.328837 1_565
B2 Ti0 2.339031 1_555
B2 Ti0 2.339031 1_455
B2 Mo0 2.343336 1_555
B2 Mo0 2.343336 1_455
B2 Ti2 2.347848 1_565
B2 Ti1 2.521577 1_555
B3 Mo0 2.316869 1_555
B3 Mo0 2.316869 1_455
B3 Ti0 2.331507 1_456
B3 Ti0 2.331507 1_556
B3 Ti2 2.376256 1_555
B3 Ti1 2.386999 1_556
B3 Ti2 2.498079 1_565
Mo0 Ti1 2.841785 1_655
Mo0 Ti1 2.841785 1_555
Mo0 Ti2 2.852509 1_665
Mo0 Ti2 2.852509 1_565
Mo0 Ti2 2.879163 1_555
Mo0 Ti2 2.879163 1_655
