# generated using pymatgen
data_AuBr3N2
_symmetry_space_group_name_H-M   'P 1'
_cell_length_a   5.65616860
_cell_length_b   5.65616860
_cell_length_c   6.51671129
_cell_angle_alpha   68.53304082
_cell_angle_beta   68.53304082
_cell_angle_gamma   91.36120094
_symmetry_Int_Tables_number   1
_chemical_formula_structural   AuBr3N2
_chemical_formula_sum   'Au1 Br3 N2'
_cell_volume   177.54391266
_cell_formula_units_Z   1
loop_
 _symmetry_equiv_pos_site_id
 _symmetry_equiv_pos_as_xyz
  1  'x, y, z'
loop_
 _atom_site_type_symbol
 _atom_site_label
 _atom_site_symmetry_multiplicity
 _atom_site_fract_x
 _atom_site_fract_y
 _atom_site_fract_z
 _atom_site_occupancy
  Au  Au0  1  0.00000000  0.00000000  0.00000000  1
  Br  Br0  1  0.50000000  0.50000000  0.50000000  1
  Br  Br1  1  0.22253800  0.22253800  0.16557100  1
  Br  Br2  1  0.77746200  0.77746200  0.83442900  1
  N  N0  1  0.22845700  0.22845700  0.65593100  1
  N  N1  1  0.77154300  0.77154300  0.34406900  1
loop_
_geom_bond_atom_site_label_1
_geom_bond_atom_site_label_2
_geom_bond_distance
_geom_bond_site_symmetry_2
Au0 N1 2.011549 1_445
Au0 N0 2.011549 1_554
Au0 Br1 2.499147 1_555
Au0 Br2 2.499147 1_444
Br0 N1 1.831332 1_555
Br0 N0 1.831332 1_555
