# generated using pymatgen
data_Sr3Co2(ClO2)2
_symmetry_space_group_name_H-M   'P 1'
_cell_length_a   5.74445356
_cell_length_b   5.74469530
_cell_length_c   11.62649590
_cell_angle_alpha   89.99875882
_cell_angle_beta   75.71905584
_cell_angle_gamma   89.99983085
_symmetry_Int_Tables_number   1
_chemical_formula_structural   Sr3Co2(ClO2)2
_chemical_formula_sum   'Sr6 Co4 Cl4 O8'
_cell_volume   371.81951819
_cell_formula_units_Z   2
loop_
 _symmetry_equiv_pos_site_id
 _symmetry_equiv_pos_as_xyz
  1  'x, y, z'
loop_
 _atom_site_type_symbol
 _atom_site_label
 _atom_site_symmetry_multiplicity
 _atom_site_fract_x
 _atom_site_fract_y
 _atom_site_fract_z
 _atom_site_occupancy
  Sr  Sr0  1  0.50028900  0.50002800  0.00000400  1
  Sr  Sr1  1  0.99970100  0.99997200  0.99999400  1
  Sr  Sr2  1  0.14891000  0.99999000  0.70174900  1
  Sr  Sr3  1  0.64915300  0.50002200  0.70174700  1
  Sr  Sr4  1  0.35109000  0.50000900  0.29824800  1
  Sr  Sr5  1  0.85082200  0.99997800  0.29825000  1
  Co  Co0  1  0.41942400  0.00001700  0.16098800  1
  Co  Co1  1  0.08055500  0.49999100  0.83901200  1
  Co  Co2  1  0.91979800  0.49997600  0.16098700  1
  Co  Co3  1  0.58020800  0.00002200  0.83901200  1
  Cl  Cl0  1  0.30039500  0.00000000  0.39933400  1
  Cl  Cl1  1  0.80021400  0.50001700  0.39936300  1
  Cl  Cl2  1  0.19963000  0.50000300  0.60065400  1
  Cl  Cl3  1  0.69979100  0.99998400  0.60064600  1
  O  O0  1  0.82772300  0.25022300  0.84508200  1
  O  O1  1  0.32719400  0.74979800  0.84524200  1
  O  O2  1  0.32719200  0.25019600  0.84526400  1
  O  O3  1  0.82773300  0.74976800  0.84506200  1
  O  O4  1  0.67226500  0.24976100  0.15492300  1
  O  O5  1  0.17282200  0.75021000  0.15475900  1
  O  O6  1  0.17283500  0.24978900  0.15474000  1
  O  O7  1  0.67225600  0.75024500  0.15494300  1
loop_
_geom_bond_atom_site_label_1
_geom_bond_atom_site_label_2
_geom_bond_distance
_geom_bond_site_symmetry_2
Co0 O6 2.030120 1_555
Co0 O5 2.030277 1_545
Co0 O4 2.030366 1_555
Co0 O7 2.030473 1_545
Co1 O2 2.030418 1_555
Co1 O0 2.030419 1_455
Co1 O1 2.030430 1_555
Co1 O3 2.030444 1_455
Co2 O6 2.032658 1_655
Co2 O5 2.032831 1_655
Co2 O4 2.035316 1_555
Co2 O7 2.035515 1_555
Co3 O2 2.032512 1_555
Co3 O1 2.032747 1_545
Co3 O0 2.035200 1_555
Co3 O3 2.035400 1_545
Cl0 Co0 2.685495 1_555
Cl0 Sr5 3.089584 1_545
Cl0 Sr4 3.089895 1_545
Cl0 Sr4 3.089945 1_555
Cl0 Sr5 3.090015 1_445
Cl0 Sr2 3.407375 1_545
Cl1 Co2 2.685835 1_555
Cl1 Sr4 3.087829 1_555
Cl1 Sr5 3.089801 1_555
Cl1 Sr5 3.090263 1_545
Cl1 Sr4 3.092027 1_655
Cl1 Sr3 3.407025 1_555
Cl2 Co1 2.685630 1_555
Cl2 Sr3 3.089809 1_555
Cl2 Sr3 3.089864 1_455
Cl2 Sr2 3.089911 1_555
Cl2 Sr2 3.090004 1_545
Cl2 Sr4 3.407274 1_555
Cl3 Co3 2.685722 1_565
Cl3 Sr2 3.087720 1_655
Cl3 Sr3 3.089757 1_555
Cl3 Sr3 3.090208 1_565
Cl3 Sr2 3.092036 1_555
Cl3 Sr5 3.407160 1_555
O0 Sr2 2.594397 1_645
O0 Sr3 2.594599 1_555
O0 Sr1 2.676629 1_545
O0 Sr0 2.677731 1_556
O1 Sr3 2.596277 1_555
O1 Sr2 2.596298 1_555
O1 Sr0 2.677255 1_556
O1 Sr1 2.678064 1_455
O2 Sr3 2.596528 1_555
O2 Sr2 2.596568 1_545
O2 Sr0 2.677301 1_556
O2 Sr1 2.678048 1_445
O3 Sr2 2.594188 1_655
O3 Sr3 2.594333 1_555
O3 Sr1 2.676676 1_555
O3 Sr0 2.677642 1_556
O4 Sr4 2.594363 1_555
O4 Sr5 2.594438 1_545
O4 Sr0 2.676734 1_555
O4 Sr1 2.677729 1_544
O5 Sr4 2.596241 1_555
O5 Sr5 2.596361 1_455
O5 Sr1 2.677337 1_454
O5 Sr0 2.678026 1_555
O6 Sr4 2.596467 1_555
O6 Sr5 2.596608 1_445
O6 Sr1 2.677423 1_444
O6 Sr0 2.678015 1_555
O7 Sr4 2.594154 1_555
O7 Sr5 2.594179 1_555
O7 Sr0 2.676775 1_555
O7 Sr1 2.677646 1_554
