# generated using pymatgen
data_Zr3As
_symmetry_space_group_name_H-M   'P 1'
_cell_length_a   5.47091489
_cell_length_b   11.02181551
_cell_length_c   11.02181551
_cell_angle_alpha   90.00000000
_cell_angle_beta   90.00000000
_cell_angle_gamma   90.00000000
_symmetry_Int_Tables_number   1
_chemical_formula_structural   Zr3As
_chemical_formula_sum   'Zr24 As8'
_cell_volume   664.60902311
_cell_formula_units_Z   8
loop_
 _symmetry_equiv_pos_site_id
 _symmetry_equiv_pos_as_xyz
  1  'x, y, z'
loop_
 _atom_site_type_symbol
 _atom_site_label
 _atom_site_symmetry_multiplicity
 _atom_site_fract_x
 _atom_site_fract_y
 _atom_site_fract_z
 _atom_site_occupancy
  Zr  Zr0  1  0.28696415  0.83324707  0.14466304  1
  Zr  Zr1  1  0.28696415  0.66675293  0.35533696  1
  Zr  Zr2  1  0.78696415  0.64466304  0.16675293  1
  Zr  Zr3  1  0.78696415  0.85533696  0.33324707  1
  Zr  Zr4  1  0.71303585  0.16675293  0.85533696  1
  Zr  Zr5  1  0.71303585  0.33324707  0.64466304  1
  Zr  Zr6  1  0.21303585  0.35533696  0.83324707  1
  Zr  Zr7  1  0.21303585  0.14466304  0.66675293  1
  Zr  Zr8  1  0.96669019  0.27653118  0.11083842  1
  Zr  Zr9  1  0.96669019  0.22346882  0.38916158  1
  Zr  Zr10  1  0.46669019  0.61083842  0.72346882  1
  Zr  Zr11  1  0.46669019  0.88916158  0.77653118  1
  Zr  Zr12  1  0.03330981  0.72346882  0.88916158  1
  Zr  Zr13  1  0.03330981  0.77653118  0.61083842  1
  Zr  Zr14  1  0.53330981  0.38916158  0.27653118  1
  Zr  Zr15  1  0.53330981  0.11083842  0.22346882  1
  Zr  Zr16  1  0.23889468  0.43114280  0.53462474  1
  Zr  Zr17  1  0.23889468  0.06885720  0.96537526  1
  Zr  Zr18  1  0.73889468  0.03462474  0.56885720  1
  Zr  Zr19  1  0.73889468  0.46537526  0.93114280  1
  Zr  Zr20  1  0.76110532  0.56885720  0.46537526  1
  Zr  Zr21  1  0.76110532  0.93114280  0.03462474  1
  Zr  Zr22  1  0.26110532  0.96537526  0.43114280  1
  Zr  Zr23  1  0.26110532  0.53462474  0.06885720  1
  As  As0  1  0.46163713  0.29037083  0.04421819  1
  As  As1  1  0.46163713  0.20962917  0.45578181  1
  As  As2  1  0.96163713  0.54421819  0.70962917  1
  As  As3  1  0.96163713  0.95578181  0.79037083  1
  As  As4  1  0.53836287  0.70962917  0.95578181  1
  As  As5  1  0.53836287  0.79037083  0.54421819  1
  As  As6  1  0.03836287  0.45578181  0.29037083  1
  As  As7  1  0.03836287  0.04421819  0.20962917  1
loop_
_geom_bond_atom_site_label_1
_geom_bond_atom_site_label_2
_geom_bond_distance
_geom_bond_site_symmetry_2
As0 Zr19 2.752203 1_554
As0 Zr6 2.787378 1_554
As0 Zr8 2.809747 1_455
As0 Zr14 2.809906 1_555
As0 Zr15 2.823572 1_555
As0 Zr4 2.842888 1_554
As0 Zr8 2.863069 1_555
As0 Zr17 2.863736 1_554
As0 Zr23 2.919739 1_555
As1 Zr18 2.752203 1_555
As1 Zr7 2.787378 1_555
As1 Zr9 2.809747 1_455
As1 Zr15 2.809906 1_555
As1 Zr14 2.823572 1_555
As1 Zr5 2.842888 1_555
As1 Zr9 2.863069 1_555
As1 Zr16 2.863736 1_555
As1 Zr22 2.919739 1_545
As2 Zr16 2.752203 1_655
As2 Zr5 2.787378 1_555
As2 Zr10 2.809747 1_555
As2 Zr13 2.809906 1_655
As2 Zr12 2.823572 1_655
As2 Zr6 2.842888 1_655
As2 Zr10 2.863069 1_655
As2 Zr19 2.863736 1_555
As2 Zr20 2.919739 1_555
As3 Zr17 2.752203 1_665
As3 Zr4 2.787378 1_565
As3 Zr11 2.809747 1_555
As3 Zr12 2.809906 1_655
As3 Zr13 2.823572 1_655
As3 Zr7 2.842888 1_665
As3 Zr11 2.863069 1_655
As3 Zr18 2.863736 1_565
As3 Zr21 2.919739 1_556
As4 Zr23 2.752203 1_556
As4 Zr2 2.787378 1_556
As4 Zr12 2.809747 1_655
As4 Zr10 2.809906 1_555
As4 Zr11 2.823572 1_555
As4 Zr0 2.842888 1_556
As4 Zr12 2.863069 1_555
As4 Zr21 2.863736 1_556
As4 Zr19 2.919739 1_555
As5 Zr22 2.752203 1_555
As5 Zr3 2.787378 1_555
As5 Zr13 2.809747 1_655
As5 Zr11 2.809906 1_555
As5 Zr10 2.823572 1_555
As5 Zr1 2.842888 1_555
As5 Zr13 2.863069 1_555
As5 Zr20 2.863736 1_555
As5 Zr18 2.919739 1_565
As6 Zr20 2.752203 1_455
As6 Zr1 2.787378 1_555
As6 Zr14 2.809747 1_555
As6 Zr9 2.809906 1_455
As6 Zr8 2.823572 1_455
As6 Zr2 2.842888 1_455
As6 Zr14 2.863069 1_455
As6 Zr23 2.863736 1_555
As6 Zr16 2.919739 1_555
As7 Zr21 2.752203 1_445
As7 Zr0 2.787378 1_545
As7 Zr15 2.809747 1_555
As7 Zr8 2.809906 1_455
As7 Zr9 2.823572 1_455
As7 Zr3 2.842888 1_445
As7 Zr15 2.863069 1_455
As7 Zr22 2.863736 1_545
As7 Zr17 2.919739 1_554
