# generated using pymatgen
data_Li5Mn2Ni3O10
_symmetry_space_group_name_H-M   'P 1'
_cell_length_a   5.04803100
_cell_length_b   5.08654506
_cell_length_c   7.64463575
_cell_angle_alpha   109.19759358
_cell_angle_beta   101.28006835
_cell_angle_gamma   100.81708102
_symmetry_Int_Tables_number   1
_chemical_formula_structural   Li5Mn2Ni3O10
_chemical_formula_sum   'Li5 Mn2 Ni3 O10'
_cell_volume   174.93617139
_cell_formula_units_Z   1
loop_
 _symmetry_equiv_pos_site_id
 _symmetry_equiv_pos_as_xyz
  1  'x, y, z'
loop_
 _atom_site_type_symbol
 _atom_site_label
 _atom_site_symmetry_multiplicity
 _atom_site_fract_x
 _atom_site_fract_y
 _atom_site_fract_z
 _atom_site_occupancy
  Li  Li0  1  0.21503700  0.50270400  0.40239700  1
  Li  Li1  1  0.39979500  0.50035300  0.79099900  1
  Li  Li2  1  0.50000000  0.00000000  0.50000000  1
  Li  Li3  1  0.60020500  0.49964700  0.20900100  1
  Li  Li4  1  0.78496300  0.49729600  0.59760300  1
  Mn  Mn0  1  0.10049000  0.00409400  0.69551900  1
  Mn  Mn1  1  0.89951000  0.99590600  0.30448100  1
  Ni  Ni0  1  0.00000000  0.50000000  0.00000000  1
  Ni  Ni1  1  0.69568000  0.99580300  0.89731800  1
  Ni  Ni2  1  0.30432000  0.00419700  0.10268200  1
  O  O0  1  0.05054100  0.23082500  0.84488600  1
  O  O1  1  0.32498600  0.75808100  0.93519000  1
  O  O2  1  0.13014900  0.78056000  0.54188300  1
  O  O3  1  0.22013700  0.25410300  0.23496800  1
  O  O4  1  0.43305300  0.22868200  0.65833100  1
  O  O5  1  0.56694700  0.77131800  0.34166900  1
  O  O6  1  0.77986300  0.74589700  0.76503200  1
  O  O7  1  0.86985100  0.21944000  0.45811700  1
  O  O8  1  0.67501400  0.24191900  0.06481000  1
  O  O9  1  0.94945900  0.76917500  0.15511400  1
loop_
_geom_bond_atom_site_label_1
_geom_bond_atom_site_label_2
_geom_bond_distance
_geom_bond_site_symmetry_2
Li0 O3 1.482768 1_555
Li0 O2 1.653214 1_555
Li0 O5 2.250971 1_555
Li1 O4 1.482680 1_555
Li1 O1 1.573073 1_555
Li1 O6 2.166322 1_555
Li1 O0 2.214922 1_555
Li2 O5 1.521160 1_545
Li2 O4 1.521160 1_555
Li2 O7 2.126228 1_555
Li2 O2 2.126228 1_545
Li3 O5 1.482680 1_555
Li3 O8 1.573073 1_555
Li3 O3 2.166322 1_555
Li3 O9 2.214922 1_555
Li4 O6 1.482768 1_555
Li4 O7 1.653214 1_555
Li4 O4 2.250971 1_555
Mn0 O2 1.396101 1_545
Mn0 O0 1.432897 1_555
Mn0 O4 1.970944 1_555
Mn0 O6 2.150458 1_445
Mn1 O7 1.396101 1_565
Mn1 O9 1.432897 1_555
Mn1 O5 1.970944 1_555
Mn1 O3 2.150458 1_665
Ni0 O9 1.589829 1_455
Ni0 O0 1.589829 1_554
Ni0 O1 2.144175 1_554
Ni0 O8 2.144175 1_455
Ni1 O8 1.504877 1_566
Ni1 O6 1.531205 1_555
Ni1 O0 2.142642 1_665
Ni2 O1 1.504877 1_544
Ni2 O3 1.531205 1_555
Ni2 O9 2.142642 1_445
