# generated using pymatgen
data_AgSn3
_symmetry_space_group_name_H-M   'P 1'
_cell_length_a   6.77345466
_cell_length_b   6.77345466
_cell_length_c   5.15562500
_cell_angle_alpha   90.00000000
_cell_angle_beta   90.00000000
_cell_angle_gamma   120.00000647
_symmetry_Int_Tables_number   1
_chemical_formula_structural   AgSn3
_chemical_formula_sum   'Ag2 Sn6'
_cell_volume   204.84830783
_cell_formula_units_Z   2
loop_
 _symmetry_equiv_pos_site_id
 _symmetry_equiv_pos_as_xyz
  1  'x, y, z'
loop_
 _atom_site_type_symbol
 _atom_site_label
 _atom_site_symmetry_multiplicity
 _atom_site_fract_x
 _atom_site_fract_y
 _atom_site_fract_z
 _atom_site_occupancy
  Ag  Ag0  1  0.33333300  0.66666700  0.75000000  1
  Ag  Ag1  1  0.66666700  0.33333300  0.25000000  1
  Sn  Sn0  1  0.16951800  0.33903600  0.25000000  1
  Sn  Sn1  1  0.66096400  0.83048200  0.25000000  1
  Sn  Sn2  1  0.16951800  0.83048200  0.25000000  1
  Sn  Sn3  1  0.83048200  0.66096400  0.75000000  1
  Sn  Sn4  1  0.33903600  0.16951800  0.75000000  1
  Sn  Sn5  1  0.83048200  0.16951800  0.75000000  1
loop_
_geom_bond_atom_site_label_1
_geom_bond_atom_site_label_2
_geom_bond_distance
_geom_bond_site_symmetry_2
Ag0 Sn2 3.215387 1_555
Ag0 Sn2 3.215387 1_556
Ag0 Sn1 3.215390 1_556
Ag0 Sn1 3.215390 1_555
Ag0 Sn0 3.215390 1_555
Ag0 Sn0 3.215390 1_556
Ag0 Sn4 3.386889 1_565
Ag0 Sn3 3.386889 1_455
Ag0 Sn5 3.386892 1_565
Ag0 Sn5 3.386892 1_455
Ag0 Sn3 3.386896 1_555
Ag0 Sn4 3.386896 1_555
Ag1 Sn5 3.215387 1_555
Ag1 Sn5 3.215387 1_554
Ag1 Sn3 3.215390 1_555
Ag1 Sn4 3.215390 1_555
Ag1 Sn3 3.215390 1_554
Ag1 Sn4 3.215390 1_554
Ag1 Sn0 3.386889 1_655
Ag1 Sn1 3.386889 1_545
Ag1 Sn2 3.386892 1_655
Ag1 Sn2 3.386892 1_545
Ag1 Sn1 3.386896 1_555
Ag1 Sn0 3.386896 1_555
Sn0 Sn5 3.255820 1_455
Sn0 Sn5 3.255820 1_454
Sn0 Sn4 3.255820 1_555
Sn0 Sn4 3.255820 1_554
Sn0 Sn1 3.328787 1_555
Sn0 Sn2 3.328787 1_555
Sn0 Sn1 3.444667 1_445
Sn0 Sn2 3.444667 1_545
Sn1 Sn5 3.255820 1_564
Sn1 Sn5 3.255820 1_565
Sn1 Sn3 3.255820 1_555
Sn1 Sn3 3.255820 1_554
Sn1 Sn2 3.328787 1_555
Sn1 Sn2 3.444667 1_655
Sn2 Sn4 3.255820 1_565
Sn2 Sn4 3.255820 1_564
Sn2 Sn3 3.255820 1_455
Sn2 Sn3 3.255820 1_454
Sn3 Sn4 3.328787 1_555
Sn3 Sn5 3.328787 1_555
Sn3 Sn4 3.444667 1_665
Sn3 Sn5 3.444667 1_565
Sn4 Sn5 3.328787 1_555
Sn4 Sn5 3.444667 1_455
