# generated using pymatgen
data_MgSi
_symmetry_space_group_name_H-M   'P 1'
_cell_length_a   4.98877400
_cell_length_b   5.07143381
_cell_length_c   8.93323032
_cell_angle_alpha   94.85126669
_cell_angle_beta   93.21715579
_cell_angle_gamma   107.53282166
_symmetry_Int_Tables_number   1
_chemical_formula_structural   MgSi
_chemical_formula_sum   'Mg6 Si6'
_cell_volume   213.94788948
_cell_formula_units_Z   6
loop_
 _symmetry_equiv_pos_site_id
 _symmetry_equiv_pos_as_xyz
  1  'x, y, z'
loop_
 _atom_site_type_symbol
 _atom_site_label
 _atom_site_symmetry_multiplicity
 _atom_site_fract_x
 _atom_site_fract_y
 _atom_site_fract_z
 _atom_site_occupancy
  Mg  Mg0  1  0.70284100  0.18795100  0.01382800  1
  Mg  Mg1  1  0.65219800  0.17620900  0.66515900  1
  Mg  Mg2  1  0.17599600  0.65351800  0.65949600  1
  Mg  Mg3  1  0.65420900  0.16609600  0.33559900  1
  Mg  Mg4  1  0.17753900  0.18740600  0.84890000  1
  Mg  Mg5  1  0.15420400  0.64310700  0.31248800  1
  Si  Si0  1  0.16040100  0.12764100  0.17551000  1
  Si  Si1  1  0.68355900  0.67287200  0.84539200  1
  Si  Si2  1  0.19507500  0.71811800  0.99861500  1
  Si  Si3  1  0.63249200  0.64791100  0.16216900  1
  Si  Si4  1  0.68637300  0.69561900  0.47630800  1
  Si  Si5  1  0.12529600  0.12343100  0.50660900  1
loop_
_geom_bond_atom_site_label_1
_geom_bond_atom_site_label_2
_geom_bond_distance
_geom_bond_site_symmetry_2
Mg0 Si3 2.709821 1_555
Mg0 Si0 2.741449 1_655
Mg0 Mg4 2.858986 1_654
Mg0 Si1 2.874787 1_544
Mg0 Si2 2.895276 1_544
Mg0 Mg3 2.906819 1_555
Mg0 Mg4 2.932564 1_554
Mg0 Si1 3.012201 1_554
Mg0 Si2 3.065783 1_654
Mg0 Si3 3.076861 1_545
Mg0 Si0 3.085035 1_555
Mg0 Mg1 3.104871 1_554
Mg1 Si1 2.830100 1_555
Mg1 Si5 2.842769 1_555
Mg1 Si5 2.887884 1_655
Mg1 Si4 2.898744 1_545
Mg1 Mg3 2.940776 1_555
Mg1 Mg4 2.967523 1_555
Mg1 Mg4 2.996295 1_655
Mg1 Si1 3.168635 1_545
Mg1 Si4 3.213613 1_555
Mg2 Si5 2.843733 1_555
Mg2 Si5 2.912653 1_565
Mg2 Si1 2.920571 1_555
Mg2 Si4 2.935071 1_455
Mg2 Si2 3.012442 1_555
Mg2 Mg4 3.022697 1_555
Mg2 Si1 3.062381 1_455
Mg2 Mg4 3.066755 1_565
Mg2 Si4 3.066876 1_555
Mg3 Si0 2.723967 1_555
Mg3 Si5 2.804122 1_655
Mg3 Si4 2.822083 1_555
Mg3 Si4 2.830906 1_545
Mg3 Si3 2.905011 1_545
Mg3 Mg5 2.936547 1_655
Mg3 Si0 3.019136 1_655
Mg3 Mg5 3.027025 1_545
Mg3 Si3 3.027154 1_555
Mg3 Si5 3.083393 1_555
Mg4 Si2 2.848036 1_545
Mg4 Si2 2.876902 1_555
Mg4 Si1 2.951685 1_555
Mg4 Si0 2.962095 1_556
Mg4 Si1 2.997698 1_445
Mg4 Si5 3.035609 1_555
Mg5 Si3 2.797726 1_555
Mg5 Si0 2.800709 1_555
Mg5 Si0 2.829060 1_565
Mg5 Si3 2.868679 1_455
Mg5 Si2 2.871583 1_554
Mg5 Si4 2.886683 1_555
Mg5 Si4 2.889916 1_455
Mg5 Si5 2.913247 1_565
Si0 Si2 2.555877 1_544
Si1 Si2 2.764075 1_655
Si1 Si3 2.865486 1_556
Si1 Si2 2.919425 1_555
Si2 Si3 2.687308 1_556
Si3 Si4 2.786985 1_555
Si4 Si5 2.558715 1_665
