# generated using pymatgen
data_Sr4Mn3BO10
_symmetry_space_group_name_H-M   'P 1'
_cell_length_a   7.64723600
_cell_length_b   9.70859612
_cell_length_c   7.72225800
_cell_angle_alpha   66.56746534
_cell_angle_beta   90.00022370
_cell_angle_gamma   66.80497874
_symmetry_Int_Tables_number   1
_chemical_formula_structural   Sr4Mn3BO10
_chemical_formula_sum   'Sr8 Mn6 B2 O20'
_cell_volume   475.11475672
_cell_formula_units_Z   2
loop_
 _symmetry_equiv_pos_site_id
 _symmetry_equiv_pos_as_xyz
  1  'x, y, z'
loop_
 _atom_site_type_symbol
 _atom_site_label
 _atom_site_symmetry_multiplicity
 _atom_site_fract_x
 _atom_site_fract_y
 _atom_site_fract_z
 _atom_site_occupancy
  Sr  Sr0  1  0.22004800  0.05991300  0.22528600  1
  Sr  Sr1  1  0.72004500  0.05991400  0.22528800  1
  Sr  Sr2  1  0.22005300  0.05992300  0.71479000  1
  Sr  Sr3  1  0.72005400  0.05992200  0.71478900  1
  Sr  Sr4  1  0.97818100  0.54367400  0.96010000  1
  Sr  Sr5  1  0.47818800  0.54367800  0.96010000  1
  Sr  Sr6  1  0.97816400  0.54367700  0.49623600  1
  Sr  Sr7  1  0.47817500  0.54367800  0.49623500  1
  Mn  Mn0  1  0.35170000  0.29672800  0.85165800  1
  Mn  Mn1  1  0.85070200  0.29848600  0.35073700  1
  Mn  Mn2  1  0.10060700  0.79874600  0.60062100  1
  Mn  Mn3  1  0.85165600  0.29666700  0.85172200  1
  Mn  Mn4  1  0.35082900  0.29844100  0.35075700  1
  Mn  Mn5  1  0.60063300  0.79875000  0.60061900  1
  B  B0  1  0.08735500  0.82523400  0.08738400  1
  B  B1  1  0.58735500  0.82523600  0.08738100  1
  O  O0  1  0.21935400  0.56137600  0.71934800  1
  O  O1  1  0.71935700  0.56136600  0.71935300  1
  O  O2  1  0.84812500  0.80372900  0.59812100  1
  O  O3  1  0.34812700  0.80372900  0.59812100  1
  O  O4  1  0.10956800  0.28089900  0.85952600  1
  O  O5  1  0.60956700  0.28089700  0.85952700  1
  O  O6  1  0.07523200  0.34953000  0.32523000  1
  O  O7  1  0.57523400  0.34952800  0.32523100  1
  O  O8  1  0.48003200  0.03987800  0.48003100  1
  O  O9  1  0.98002300  0.03989500  0.48002100  1
  O  O10  1  0.49974200  0.00053200  0.99972700  1
  O  O11  1  0.99974100  0.00053300  0.99972700  1
  O  O12  1  0.35111500  0.29784700  0.10354100  1
  O  O13  1  0.85111500  0.29784600  0.10353800  1
  O  O14  1  0.35106800  0.29785500  0.59860800  1
  O  O15  1  0.85106800  0.29785400  0.59860600  1
  O  O16  1  0.12865200  0.74259900  0.97007500  1
  O  O17  1  0.62865400  0.74259700  0.97007500  1
  O  O18  1  0.12864100  0.74262400  0.28734900  1
  O  O19  1  0.62864300  0.74261800  0.28734800  1
loop_
_geom_bond_atom_site_label_1
_geom_bond_atom_site_label_2
_geom_bond_distance
_geom_bond_site_symmetry_2
Mn0 O5 1.915673 1_555
Mn0 O4 1.916405 1_555
Mn0 O12 1.949447 1_556
Mn0 O14 1.949787 1_555
Mn0 O0 2.129209 1_555
Mn0 O10 2.383027 1_555
Mn1 O13 1.911412 1_555
Mn1 O15 1.911675 1_555
Mn1 O7 1.955007 1_555
Mn1 O6 1.955820 1_655
Mn1 O9 2.080478 1_555
Mn2 O0 1.909746 1_555
Mn2 O2 1.912155 1_455
Mn2 O3 1.912318 1_555
Mn2 O9 1.940149 1_465
Mn2 O18 2.674238 1_555
Mn2 O16 2.674668 1_555
Mn3 O5 1.915820 1_555
Mn3 O4 1.916223 1_655
Mn3 O13 1.949163 1_556
Mn3 O15 1.950068 1_555
Mn3 O1 2.129620 1_555
Mn3 O11 2.382528 1_555
Mn4 O12 1.911365 1_555
Mn4 O14 1.911713 1_555
Mn4 O7 1.955119 1_555
Mn4 O6 1.955876 1_555
Mn4 O8 2.080253 1_555
Mn5 O1 1.909858 1_555
Mn5 O2 1.912088 1_555
Mn5 O3 1.912354 1_555
Mn5 O8 1.939981 1_565
Mn5 O19 2.674282 1_555
Mn5 O17 2.674668 1_555
B0 O16 1.393721 1_554
B0 O18 1.393897 1_555
B0 O11 1.410357 1_464
B1 O17 1.393729 1_554
B1 O19 1.393914 1_555
B1 O10 1.410333 1_564
O0 Sr5 2.623327 1_555
O0 Sr4 2.623552 1_455
O0 Sr7 2.623568 1_555
O0 Sr6 2.623938 1_455
O1 Sr4 2.623275 1_555
O1 Sr5 2.623495 1_555
O1 Sr6 2.623509 1_555
O1 Sr7 2.623861 1_555
O2 Sr6 2.753977 1_555
O2 Sr4 2.754303 1_555
O2 Sr1 2.796502 1_565
O2 Sr3 2.796569 1_565
O3 Sr7 2.753973 1_555
O3 Sr5 2.754288 1_555
O3 Sr0 2.796509 1_565
O3 Sr2 2.796582 1_565
O4 Sr2 2.654232 1_555
O4 Sr0 2.654633 1_556
O4 Sr6 2.770729 1_455
O4 Sr4 2.770909 1_455
O5 Sr3 2.654235 1_555
O5 Sr1 2.654631 1_556
O5 Sr7 2.770750 1_555
O5 Sr5 2.770956 1_555
O6 Sr4 2.593253 1_454
O6 Sr6 2.593305 1_455
O6 Sr0 3.000211 1_555
O6 Sr2 3.000280 1_555
O7 Sr5 2.593270 1_554
O7 Sr7 2.593317 1_555
O7 Sr1 3.000181 1_555
O7 Sr3 3.000267 1_555
O8 Sr0 2.692865 1_555
O8 Sr2 2.693110 1_555
O8 Sr1 2.693219 1_555
O8 Sr3 2.693573 1_555
O9 Sr1 2.692846 1_555
O9 Sr3 2.693096 1_555
O9 Sr0 2.693233 1_655
O9 Sr2 2.693581 1_655
O10 Sr2 2.787137 1_555
O10 Sr1 2.787178 1_556
O10 Sr0 2.787204 1_556
O10 Sr3 2.787245 1_555
O11 Sr3 2.787139 1_555
O11 Sr0 2.787175 1_656
O11 Sr1 2.787225 1_556
O11 Sr2 2.787239 1_655
O12 Sr1 2.705298 1_555
O12 Sr0 2.705767 1_555
O12 Sr5 2.755326 1_554
O12 Sr4 2.755389 1_454
O13 Sr0 2.705314 1_655
O13 Sr1 2.705767 1_555
O13 Sr4 2.755263 1_554
O13 Sr5 2.755365 1_554
O14 Sr2 2.705468 1_555
O14 Sr3 2.705600 1_555
O14 Sr6 2.755212 1_455
O14 Sr7 2.755435 1_555
O15 Sr3 2.705463 1_555
O15 Sr2 2.705588 1_655
O15 Sr7 2.755161 1_555
O15 Sr6 2.755378 1_555
O16 Sr4 2.632251 1_455
O16 Sr5 2.632949 1_555
O17 Sr5 2.632170 1_555
O17 Sr4 2.632906 1_555
O18 Sr6 2.632438 1_455
O18 Sr7 2.632970 1_555
O19 Sr7 2.632343 1_555
O19 Sr6 2.632898 1_555
