# generated using pymatgen
data_MgZn2
_symmetry_space_group_name_H-M   'P 1'
_cell_length_a   5.15683372
_cell_length_b   5.15683372
_cell_length_c   4.67158100
_cell_angle_alpha   90.00000000
_cell_angle_beta   90.00000000
_cell_angle_gamma   124.08801141
_symmetry_Int_Tables_number   1
_chemical_formula_structural   MgZn2
_chemical_formula_sum   'Mg2 Zn4'
_cell_volume   102.88537191
_cell_formula_units_Z   2
loop_
 _symmetry_equiv_pos_site_id
 _symmetry_equiv_pos_as_xyz
  1  'x, y, z'
loop_
 _atom_site_type_symbol
 _atom_site_label
 _atom_site_symmetry_multiplicity
 _atom_site_fract_x
 _atom_site_fract_y
 _atom_site_fract_z
 _atom_site_occupancy
  Mg  Mg0  1  0.70027400  0.70027400  0.75000000  1
  Mg  Mg1  1  0.29972600  0.29972600  0.25000000  1
  Zn  Zn0  1  0.98569500  0.35310400  0.75000000  1
  Zn  Zn1  1  0.35310400  0.98569500  0.75000000  1
  Zn  Zn2  1  0.64689600  0.01430500  0.25000000  1
  Zn  Zn3  1  0.01430500  0.64689600  0.25000000  1
loop_
_geom_bond_atom_site_label_1
_geom_bond_atom_site_label_2
_geom_bond_distance
_geom_bond_site_symmetry_2
Mg0 Zn0 2.818800 1_565
Mg0 Zn1 2.818800 1_655
Mg0 Zn0 2.885362 1_555
Mg0 Zn1 2.885362 1_555
Mg0 Zn2 2.941739 1_565
Mg0 Zn3 2.941739 1_656
Mg0 Zn3 2.941739 1_655
Mg0 Zn2 2.941739 1_566
Mg0 Mg1 3.034221 1_556
Mg0 Mg1 3.034221 1_555
Mg0 Zn0 3.064171 1_455
Mg0 Zn1 3.064171 1_545
Mg1 Zn2 2.818800 1_455
Mg1 Zn3 2.818800 1_545
Mg1 Zn2 2.885362 1_555
Mg1 Zn3 2.885362 1_555
Mg1 Zn0 2.941739 1_455
Mg1 Zn1 2.941739 1_544
Mg1 Zn1 2.941739 1_545
Mg1 Zn0 2.941739 1_454
Mg1 Zn2 3.064171 1_565
Mg1 Zn3 3.064171 1_655
Zn0 Zn1 2.702468 1_545
Zn0 Zn1 2.702468 1_655
Zn0 Zn3 2.742711 1_656
Zn0 Zn3 2.742711 1_655
Zn0 Zn2 2.852936 1_556
Zn0 Zn2 2.852936 1_555
Zn1 Zn2 2.742711 1_566
Zn1 Zn2 2.742711 1_565
Zn1 Zn3 2.852936 1_555
Zn1 Zn3 2.852936 1_556
Zn2 Zn3 2.702468 1_545
Zn2 Zn3 2.702468 1_655
