# generated using pymatgen
data_Tl(V3S4)2
_symmetry_space_group_name_H-M   'P 1'
_cell_length_a   9.23278553
_cell_length_b   9.23282646
_cell_length_c   3.23007637
_cell_angle_alpha   90.00003025
_cell_angle_beta   90.00013333
_cell_angle_gamma   119.99934689
_symmetry_Int_Tables_number   1
_chemical_formula_structural   Tl(V3S4)2
_chemical_formula_sum   'Tl1 V6 S8'
_cell_volume   238.45899026
_cell_formula_units_Z   1
loop_
 _symmetry_equiv_pos_site_id
 _symmetry_equiv_pos_as_xyz
  1  'x, y, z'
loop_
 _atom_site_type_symbol
 _atom_site_label
 _atom_site_symmetry_multiplicity
 _atom_site_fract_x
 _atom_site_fract_y
 _atom_site_fract_z
 _atom_site_occupancy
  Tl  Tl0  1  -0.00001032  -0.00000493  0.49997487  1
  V  V0  1  0.11121498  0.62207936  0.25177531  1
  V  V1  1  0.51086205  0.88877548  0.25177147  1
  V  V2  1  0.37791504  0.48914126  0.25177437  1
  V  V3  1  0.88879205  0.37793493  0.74823042  1
  V  V4  1  0.48914245  0.11120455  0.74823148  1
  V  V5  1  0.62207367  0.51086497  0.74823012  1
  S  S0  1  0.66666577  0.33332869  0.24907581  1
  S  S1  1  0.33332968  0.66666173  0.75092651  1
  S  S2  1  0.29470362  0.94703076  0.24626433  1
  S  S3  1  0.65234393  0.70531345  0.24626492  1
  S  S4  1  0.05295905  0.34766501  0.24626278  1
  S  S5  1  0.70529842  0.05293580  0.75374146  1
  S  S6  1  0.34764430  0.29470894  0.75373167  1
  S  S7  1  0.94706529  0.65236000  0.75374449  1
loop_
_geom_bond_atom_site_label_1
_geom_bond_atom_site_label_2
_geom_bond_distance
_geom_bond_site_symmetry_2
S0 V3 2.475982 1_555
S0 V4 2.476004 1_555
S0 V5 2.476032 1_555
S0 V3 2.479549 1_554
S0 V4 2.479553 1_554
S0 V5 2.479593 1_554
S1 V2 2.475887 1_555
S1 V0 2.475950 1_555
S1 V1 2.475975 1_555
S1 V2 2.479458 1_556
S1 V1 2.479527 1_556
S1 V0 2.479531 1_556
S2 V1 2.312146 1_555
S2 V4 2.321028 1_564
S2 V4 2.329847 1_565
S2 V0 2.605579 1_555
S2 Tl0 3.105692 1_565
S3 V2 2.312306 1_555
S3 V5 2.321073 1_554
S3 V5 2.329893 1_555
S3 V1 2.605472 1_555
S3 Tl0 3.105436 1_665
S4 V0 2.312170 1_555
S4 V3 2.320982 1_454
S4 V3 2.329815 1_455
S4 V2 2.605592 1_555
S4 Tl0 3.105624 1_555
S5 V4 2.312206 1_555
S5 V1 2.320979 1_546
S5 V1 2.329811 1_545
S5 V3 2.605947 1_555
S5 Tl0 3.105410 1_655
S6 V5 2.312262 1_555
S6 V2 2.320984 1_556
S6 V2 2.329768 1_555
S6 V4 2.605948 1_555
S6 Tl0 3.105632 1_555
S7 V3 2.312216 1_555
S7 V0 2.320909 1_656
S7 V0 2.329749 1_655
S7 V5 2.605876 1_555
S7 Tl0 3.105515 1_665
