# generated using pymatgen
data_Mg9(FeN4)2
_symmetry_space_group_name_H-M   'P 1'
_cell_length_a   8.28123750
_cell_length_b   4.33413649
_cell_length_c   7.00633170
_cell_angle_alpha   89.99999685
_cell_angle_beta   73.01276558
_cell_angle_gamma   74.82997857
_symmetry_Int_Tables_number   1
_chemical_formula_structural   Mg9(FeN4)2
_chemical_formula_sum   'Mg9 Fe2 N8'
_cell_volume   231.32148574
_cell_formula_units_Z   1
loop_
 _symmetry_equiv_pos_site_id
 _symmetry_equiv_pos_as_xyz
  1  'x, y, z'
loop_
 _atom_site_type_symbol
 _atom_site_label
 _atom_site_symmetry_multiplicity
 _atom_site_fract_x
 _atom_site_fract_y
 _atom_site_fract_z
 _atom_site_occupancy
  Mg  Mg0  1  0.00000000  0.50000000  0.50000000  1
  Mg  Mg1  1  0.08423200  0.95788400  0.78683200  1
  Mg  Mg2  1  0.91576800  0.04211600  0.21316800  1
  Mg  Mg3  1  0.65950200  0.67024900  0.43099800  1
  Mg  Mg4  1  0.34049800  0.32975100  0.56900200  1
  Mg  Mg5  1  0.81867400  0.59066300  0.95539500  1
  Mg  Mg6  1  0.18132600  0.40933700  0.04460500  1
  Mg  Mg7  1  0.66581400  0.16709300  0.74183100  1
  Mg  Mg8  1  0.33418600  0.83290700  0.25816900  1
  Fe  Fe0  1  0.42113500  0.78943200  0.80211500  1
  Fe  Fe1  1  0.57886600  0.21056800  0.19788500  1
  N  N0  1  0.21643400  0.89178200  0.01460300  1
  N  N1  1  0.78356600  0.10821800  0.98539700  1
  N  N2  1  0.35786000  0.82107000  0.57958500  1
  N  N3  1  0.64214000  0.17893000  0.42041500  1
  N  N4  1  0.66009300  0.66995400  0.73924700  1
  N  N5  1  0.33990700  0.33004600  0.26075300  1
  N  N6  1  0.07253900  0.46373000  0.74967000  1
  N  N7  1  0.92746100  0.53627000  0.25033000  1
loop_
_geom_bond_atom_site_label_1
_geom_bond_atom_site_label_2
_geom_bond_distance
_geom_bond_site_symmetry_2
Mg0 N6 2.002523 1_555
Mg0 N7 2.002523 1_455
Mg0 N5 2.726457 1_555
Mg0 N4 2.726457 1_455
Mg1 N0 2.164273 1_556
Mg1 N6 2.188021 1_565
Mg1 N6 2.188025 1_555
Mg1 N2 2.229101 1_555
Mg1 N1 2.384621 1_465
Mg2 N1 2.164273 1_554
Mg2 N7 2.188021 1_545
Mg2 N7 2.188025 1_555
Mg2 N3 2.229101 1_555
Mg2 N0 2.384621 1_645
Mg3 N7 2.132586 1_555
Mg3 N4 2.161129 1_555
Mg3 N3 2.174205 1_565
Mg3 N3 2.174205 1_555
Mg3 N2 2.318796 1_555
Mg4 N6 2.132586 1_555
Mg4 N5 2.161129 1_555
Mg4 N2 2.174205 1_545
Mg4 N2 2.174205 1_555
Mg4 N3 2.318796 1_555
Mg5 N6 2.103338 1_655
Mg5 N1 2.187094 1_555
Mg5 N1 2.187103 1_565
Mg5 N4 2.249894 1_555
Mg5 N7 2.472622 1_556
Mg6 N7 2.103338 1_455
Mg6 N0 2.187094 1_555
Mg6 N0 2.187103 1_545
Mg6 N5 2.249894 1_555
Mg6 N6 2.472622 1_554
Mg7 N4 2.167740 1_545
Mg7 N4 2.167744 1_555
Mg7 N1 2.184094 1_555
Mg7 N3 2.316256 1_555
Mg8 N5 2.167740 1_565
Mg8 N5 2.167744 1_555
Mg8 N0 2.184094 1_555
Mg8 N2 2.316256 1_555
Fe0 N2 1.778761 1_555
Fe0 N4 1.825504 1_555
Fe0 N0 1.848947 1_556
Fe1 N3 1.778757 1_555
Fe1 N5 1.825512 1_555
Fe1 N1 1.848942 1_554
