# generated using pymatgen
data_Na2Sr(Ge4O9)2
_symmetry_space_group_name_H-M   'P 1'
_cell_length_a   11.59567474
_cell_length_b   11.59567474
_cell_length_c   19.60863932
_cell_angle_alpha   90.00000000
_cell_angle_beta   90.00000000
_cell_angle_gamma   120.00000009
_symmetry_Int_Tables_number   1
_chemical_formula_structural   Na2Sr(Ge4O9)2
_chemical_formula_sum   'Na12 Sr6 Ge48 O108'
_cell_volume   2283.33765570
_cell_formula_units_Z   6
loop_
 _symmetry_equiv_pos_site_id
 _symmetry_equiv_pos_as_xyz
  1  'x, y, z'
loop_
 _atom_site_type_symbol
 _atom_site_label
 _atom_site_symmetry_multiplicity
 _atom_site_fract_x
 _atom_site_fract_y
 _atom_site_fract_z
 _atom_site_occupancy
  Na  Na0  1  0.99315193  0.33026991  0.96266532  1
  Na  Na1  1  0.00684807  0.66973009  0.03733468  1
  Na  Na2  1  0.33711799  0.00684807  0.96266532  1
  Na  Na3  1  0.66288201  0.66973009  0.53733468  1
  Na  Na4  1  0.66288201  0.99315193  0.03733468  1
  Na  Na5  1  0.33711799  0.33026991  0.46266532  1
  Na  Na6  1  0.66973009  0.66288201  0.96266532  1
  Na  Na7  1  0.33026991  0.99315193  0.53733468  1
  Na  Na8  1  0.33026991  0.33711799  0.03733468  1
  Na  Na9  1  0.66973009  0.00684807  0.46266532  1
  Na  Na10  1  0.00684807  0.33711799  0.53733468  1
  Na  Na11  1  0.99315193  0.66288201  0.46266532  1
  Sr  Sr0  1  0.66568246  0.66568246  0.75000000  1
  Sr  Sr1  1  0.33431754  0.33431754  0.25000000  1
  Sr  Sr2  1  0.00000000  0.33431754  0.75000000  1
  Sr  Sr3  1  -0.00000000  0.66568246  0.25000000  1
  Sr  Sr4  1  0.33431754  0.00000000  0.75000000  1
  Sr  Sr5  1  0.66568246  -0.00000000  0.25000000  1
  Ge  Ge0  1  0.66666700  0.33333300  0.97708578  1
  Ge  Ge1  1  0.33333300  0.66666700  0.02291422  1
  Ge  Ge2  1  0.33333300  0.66666700  0.52291422  1
  Ge  Ge3  1  0.66666700  0.33333300  0.47708578  1
  Ge  Ge4  1  0.66666700  0.33333300  0.72701599  1
  Ge  Ge5  1  0.33333300  0.66666700  0.27298401  1
  Ge  Ge6  1  0.33333300  0.66666700  0.77298401  1
  Ge  Ge7  1  0.66666700  0.33333300  0.22701599  1
  Ge  Ge8  1  -0.00000000  -0.00000000  0.00000000  1
  Ge  Ge9  1  -0.00000000  -0.00000000  0.50000000  1
  Ge  Ge10  1  0.82737616  0.00503053  0.87339943  1
  Ge  Ge11  1  0.17262384  0.99496947  0.12660057  1
  Ge  Ge12  1  0.17765437  0.17262384  0.87339943  1
  Ge  Ge13  1  0.82234563  0.99496947  0.62660057  1
  Ge  Ge14  1  0.82234563  0.82737616  0.12660057  1
  Ge  Ge15  1  0.17765437  0.00503053  0.37339943  1
  Ge  Ge16  1  0.99496947  0.82234563  0.87339943  1
  Ge  Ge17  1  0.00503053  0.82737616  0.62660057  1
  Ge  Ge18  1  0.00503053  0.17765437  0.12660057  1
  Ge  Ge19  1  0.99496947  0.17262384  0.37339943  1
  Ge  Ge20  1  0.17262384  0.17765437  0.62660057  1
  Ge  Ge21  1  0.82737616  0.82234563  0.37339943  1
  Ge  Ge22  1  0.66098044  0.14723185  0.85047086  1
  Ge  Ge23  1  0.33901956  0.85276815  0.14952914  1
  Ge  Ge24  1  0.48625141  0.33901956  0.85047086  1
  Ge  Ge25  1  0.51374859  0.85276815  0.64952914  1
  Ge  Ge26  1  0.51374859  0.66098044  0.14952914  1
  Ge  Ge27  1  0.48625141  0.14723185  0.35047086  1
  Ge  Ge28  1  0.85276815  0.51374859  0.85047086  1
  Ge  Ge29  1  0.14723185  0.66098044  0.64952914  1
  Ge  Ge30  1  0.14723185  0.48625141  0.14952914  1
  Ge  Ge31  1  0.85276815  0.33901956  0.35047086  1
  Ge  Ge32  1  0.33901956  0.48625141  0.64952914  1
  Ge  Ge33  1  0.66098044  0.51374859  0.35047086  1
  Ge  Ge34  1  0.51023179  0.84544584  0.89333674  1
  Ge  Ge35  1  0.48976821  0.15455416  0.10666326  1
  Ge  Ge36  1  0.33521405  0.48976821  0.89333674  1
  Ge  Ge37  1  0.66478595  0.15455416  0.60666326  1
  Ge  Ge38  1  0.66478595  0.51023179  0.10666326  1
  Ge  Ge39  1  0.33521405  0.84544584  0.39333674  1
  Ge  Ge40  1  0.15455416  0.66478595  0.89333674  1
  Ge  Ge41  1  0.84544584  0.51023179  0.60666326  1
  Ge  Ge42  1  0.84544584  0.33521405  0.10666326  1
  Ge  Ge43  1  0.15455416  0.48976821  0.39333674  1
  Ge  Ge44  1  0.48976821  0.33521405  0.60666326  1
  Ge  Ge45  1  0.51023179  0.66478595  0.39333674  1
  Ge  Ge46  1  -0.00000000  -0.00000000  0.75000000  1
  Ge  Ge47  1  -0.00000000  -0.00000000  0.25000000  1
  O  O0  1  0.73612161  0.24558051  0.92250880  1
  O  O1  1  0.26387839  0.75441949  0.07749120  1
  O  O2  1  0.50945890  0.26387839  0.92250880  1
  O  O3  1  0.49054110  0.75441949  0.57749120  1
  O  O4  1  0.49054110  0.73612161  0.07749120  1
  O  O5  1  0.50945890  0.24558051  0.42250880  1
  O  O6  1  0.75441949  0.49054110  0.92250880  1
  O  O7  1  0.24558051  0.73612161  0.57749120  1
  O  O8  1  0.24558051  0.50945890  0.07749120  1
  O  O9  1  0.75441949  0.26387839  0.42250880  1
  O  O10  1  0.26387839  0.50945890  0.57749120  1
  O  O11  1  0.73612161  0.49054110  0.42250880  1
  O  O12  1  0.67763905  0.89568577  0.92050126  1
  O  O13  1  0.32236095  0.10431423  0.07949874  1
  O  O14  1  0.21804671  0.32236095  0.92050126  1
  O  O15  1  0.78195329  0.10431423  0.57949874  1
  O  O16  1  0.78195329  0.67763905  0.07949874  1
  O  O17  1  0.21804671  0.89568577  0.42050126  1
  O  O18  1  0.10431423  0.78195329  0.92050126  1
  O  O19  1  0.89568577  0.67763905  0.57949874  1
  O  O20  1  0.89568577  0.21804671  0.07949874  1
  O  O21  1  0.10431423  0.32236095  0.42050126  1
  O  O22  1  0.32236095  0.21804671  0.57949874  1
  O  O23  1  0.67763905  0.78195329  0.42050126  1
  O  O24  1  0.81960907  0.40149323  0.78231872  1
  O  O25  1  0.18039093  0.59850677  0.21768128  1
  O  O26  1  0.58188416  0.18039093  0.78231872  1
  O  O27  1  0.41811584  0.59850677  0.71768128  1
  O  O28  1  0.41811584  0.81960907  0.21768128  1
  O  O29  1  0.58188416  0.40149323  0.28231872  1
  O  O30  1  0.59850677  0.41811584  0.78231872  1
  O  O31  1  0.40149323  0.81960907  0.71768128  1
  O  O32  1  0.40149323  0.58188416  0.21768128  1
  O  O33  1  0.59850677  0.18039093  0.28231872  1
  O  O34  1  0.18039093  0.58188416  0.71768128  1
  O  O35  1  0.81960907  0.41811584  0.28231872  1
  O  O36  1  0.93874668  0.09331448  0.94100934  1
  O  O37  1  0.06125332  0.90668552  0.05899066  1
  O  O38  1  0.15456780  0.06125332  0.94100934  1
  O  O39  1  0.84543220  0.90668552  0.55899066  1
  O  O40  1  0.84543220  0.93874668  0.05899066  1
  O  O41  1  0.15456780  0.09331448  0.44100934  1
  O  O42  1  0.90668552  0.84543220  0.94100934  1
  O  O43  1  0.09331448  0.93874668  0.55899066  1
  O  O44  1  0.09331448  0.15456780  0.05899066  1
  O  O45  1  0.90668552  0.06125332  0.44100934  1
  O  O46  1  0.06125332  0.15456780  0.55899066  1
  O  O47  1  0.93874668  0.84543220  0.44100934  1
  O  O48  1  0.79622192  0.12126606  0.82512221  1
  O  O49  1  0.20377808  0.87873394  0.17487779  1
  O  O50  1  0.32504414  0.20377808  0.82512221  1
  O  O51  1  0.67495586  0.87873394  0.67487779  1
  O  O52  1  0.67495586  0.79622192  0.17487779  1
  O  O53  1  0.32504414  0.12126606  0.32512221  1
  O  O54  1  0.87873394  0.67495586  0.82512221  1
  O  O55  1  0.12126606  0.79622192  0.67487779  1
  O  O56  1  0.12126606  0.32504414  0.17487779  1
  O  O57  1  0.87873394  0.20377808  0.32512221  1
  O  O58  1  0.20377808  0.32504414  0.67487779  1
  O  O59  1  0.79622192  0.67495586  0.32512221  1
  O  O60  1  0.48134234  0.48894771  0.86515331  1
  O  O61  1  0.51865766  0.51105229  0.13484669  1
  O  O62  1  0.00760537  0.51865766  0.86515331  1
  O  O63  1  0.99239463  0.51105229  0.63484669  1
  O  O64  1  0.99239463  0.48134234  0.13484669  1
  O  O65  1  0.00760537  0.48894771  0.36515331  1
  O  O66  1  0.51105229  0.99239463  0.86515331  1
  O  O67  1  0.48894771  0.48134234  0.63484669  1
  O  O68  1  0.48894771  0.00760537  0.13484669  1
  O  O69  1  0.51105229  0.51865766  0.36515331  1
  O  O70  1  0.51865766  0.00760537  0.63484669  1
  O  O71  1  0.48134234  0.99239463  0.36515331  1
  O  O72  1  0.84612276  0.90746728  0.80863273  1
  O  O73  1  0.15387724  0.09253272  0.19136727  1
  O  O74  1  0.06134452  0.15387724  0.80863273  1
  O  O75  1  0.93865548  0.09253272  0.69136727  1
  O  O76  1  0.93865548  0.84612276  0.19136727  1
  O  O77  1  0.06134452  0.90746728  0.30863273  1
  O  O78  1  0.09253272  0.93865548  0.80863273  1
  O  O79  1  0.90746728  0.84612276  0.69136727  1
  O  O80  1  0.90746728  0.06134452  0.19136727  1
  O  O81  1  0.09253272  0.15387724  0.30863273  1
  O  O82  1  0.15387724  0.06134452  0.69136727  1
  O  O83  1  0.84612276  0.93865548  0.30863273  1
  O  O84  1  0.40392707  0.58027707  0.96839893  1
  O  O85  1  0.59607293  0.41972293  0.03160107  1
  O  O86  1  0.17635000  0.59607293  0.96839893  1
  O  O87  1  0.82365000  0.41972293  0.53160107  1
  O  O88  1  0.82365000  0.40392707  0.03160107  1
  O  O89  1  0.17635000  0.58027707  0.46839893  1
  O  O90  1  0.41972293  0.82365000  0.96839893  1
  O  O91  1  0.58027707  0.40392707  0.53160107  1
  O  O92  1  0.58027707  0.17635000  0.03160107  1
  O  O93  1  0.41972293  0.59607293  0.46839893  1
  O  O94  1  0.59607293  0.17635000  0.53160107  1
  O  O95  1  0.40392707  0.82365000  0.46839893  1
  O  O96  1  0.48743629  0.72854531  0.82956466  1
  O  O97  1  0.51256371  0.27145469  0.17043534  1
  O  O98  1  0.24110902  0.51256371  0.82956466  1
  O  O99  1  0.75889098  0.27145469  0.67043534  1
  O  O100  1  0.75889098  0.48743629  0.17043534  1
  O  O101  1  0.24110902  0.72854531  0.32956466  1
  O  O102  1  0.27145469  0.75889098  0.82956466  1
  O  O103  1  0.72854531  0.48743629  0.67043534  1
  O  O104  1  0.72854531  0.24110902  0.17043534  1
  O  O105  1  0.27145469  0.51256371  0.32956466  1
  O  O106  1  0.51256371  0.24110902  0.67043534  1
  O  O107  1  0.48743629  0.75889098  0.32956466  1
loop_
_geom_bond_atom_site_label_1
_geom_bond_atom_site_label_2
_geom_bond_distance
_geom_bond_site_symmetry_2
Na0 O36 2.528742 1_555
Na0 O20 2.597773 1_556
Na0 O86 2.734519 1_655
Na0 O0 2.746005 1_555
Na0 O14 2.780610 1_655
Na0 O62 2.844290 1_655
Na0 O88 2.845798 1_556
Na1 O37 2.528742 1_555
Na1 O18 2.597773 1_554
Na1 O88 2.734519 1_455
Na1 O1 2.746005 1_555
Na1 O16 2.780610 1_455
Na1 O64 2.844290 1_455
Na1 O86 2.845798 1_554
Na2 O38 2.528742 1_555
Na2 O13 2.597773 1_556
Na2 O90 2.734519 1_545
Na2 O2 2.746005 1_555
Na2 O18 2.780610 1_545
Na2 O66 2.844289 1_545
Na2 O92 2.845798 1_556
Na3 O39 2.528742 1_555
Na3 O23 2.597773 1_555
Na3 O91 2.734519 1_555
Na3 O3 2.746005 1_555
Na3 O19 2.780610 1_555
Na3 O67 2.844290 1_555
Na3 O93 2.845798 1_555
Na4 O40 2.528742 1_555
Na4 O12 2.597773 1_554
Na4 O92 2.734519 1_565
Na4 O4 2.746005 1_555
Na4 O20 2.780610 1_565
Na4 O68 2.844289 1_565
Na4 O90 2.845798 1_554
Na5 O41 2.528742 1_555
Na5 O22 2.597773 1_555
Na5 O93 2.734519 1_555
Na5 O5 2.746005 1_555
Na5 O21 2.780610 1_555
Na5 O69 2.844290 1_555
Na5 O91 2.845798 1_555
Na6 O42 2.528742 1_555
Na6 O16 2.597773 1_556
Na6 O84 2.734519 1_555
Na6 O6 2.746005 1_555
Na6 O12 2.780610 1_555
Na6 O60 2.844290 1_555
Na6 O85 2.845798 1_556
Na7 O43 2.528742 1_555
Na7 O17 2.597773 1_555
Na7 O94 2.734519 1_565
Na7 O7 2.746005 1_555
Na7 O22 2.780610 1_565
Na7 O70 2.844290 1_565
Na7 O95 2.845798 1_555
Na8 O44 2.528742 1_555
Na8 O14 2.597773 1_554
Na8 O85 2.734519 1_555
Na8 O8 2.746005 1_555
Na8 O13 2.780610 1_555
Na8 O61 2.844290 1_555
Na8 O84 2.845798 1_554
Na9 O45 2.528742 1_555
Na9 O15 2.597773 1_555
Na9 O95 2.734519 1_545
Na9 O9 2.746005 1_555
Na9 O23 2.780610 1_545
Na9 O71 2.844290 1_545
Na9 O94 2.845798 1_555
Na10 O46 2.528742 1_555
Na10 O21 2.597773 1_555
Na10 O87 2.734519 1_455
Na10 O10 2.746005 1_555
Na10 O15 2.780610 1_455
Na10 O63 2.844289 1_455
Na10 O89 2.845798 1_555
Na11 O47 2.528742 1_555
Na11 O19 2.597773 1_555
Na11 O89 2.734519 1_655
Na11 O11 2.746005 1_555
Na11 O17 2.780610 1_655
Na11 O65 2.844289 1_655
Na11 O87 2.845798 1_555
Ge0 O88 1.906900 1_556
Ge0 O92 1.906901 1_556
Ge0 O85 1.906909 1_556
Ge0 O0 1.910190 1_555
Ge0 O6 1.910198 1_555
Ge0 O2 1.910198 1_555
Ge1 O86 1.906900 1_554
Ge1 O90 1.906901 1_554
Ge1 O84 1.906909 1_554
Ge1 O1 1.910190 1_555
Ge1 O8 1.910198 1_555
Ge1 O4 1.910198 1_555
Ge2 O95 1.906900 1_555
Ge2 O89 1.906901 1_555
Ge2 O93 1.906909 1_555
Ge2 O7 1.910190 1_555
Ge2 O3 1.910198 1_555
Ge2 O10 1.910198 1_555
Ge3 O94 1.906900 1_555
Ge3 O87 1.906901 1_555
Ge3 O91 1.906909 1_555
Ge3 O9 1.910190 1_555
Ge3 O5 1.910198 1_555
Ge3 O11 1.910198 1_555
Ge4 O24 1.882584 1_555
Ge4 O26 1.882585 1_555
Ge4 O30 1.882592 1_555
Ge4 O99 1.912247 1_555
Ge4 O106 1.912255 1_555
Ge4 O103 1.912256 1_555
Ge5 O25 1.882584 1_555
Ge5 O28 1.882585 1_555
Ge5 O32 1.882592 1_555
Ge5 O101 1.912247 1_555
Ge5 O107 1.912255 1_555
Ge5 O105 1.912256 1_555
Ge6 O31 1.882584 1_555
Ge6 O34 1.882585 1_555
Ge6 O27 1.882592 1_555
Ge6 O102 1.912247 1_555
Ge6 O98 1.912255 1_555
Ge6 O96 1.912256 1_555
Ge7 O33 1.882584 1_555
Ge7 O35 1.882585 1_555
Ge7 O29 1.882592 1_555
Ge7 O104 1.912247 1_555
Ge7 O100 1.912255 1_555
Ge7 O97 1.912256 1_555
Ge8 O42 1.944704 1_444
Ge8 O44 1.944704 1_555
Ge8 O38 1.944704 1_554
Ge8 O40 1.944704 1_445
Ge8 O37 1.944704 1_545
Ge8 O36 1.944704 1_454
Ge9 O41 1.944704 1_555
Ge9 O39 1.944704 1_445
Ge9 O47 1.944704 1_445
Ge9 O46 1.944704 1_555
Ge9 O45 1.944704 1_455
Ge9 O43 1.944704 1_545
Ge10 O36 1.775186 1_555
Ge10 O72 1.784912 1_545
Ge10 O12 1.809398 1_545
Ge10 O48 1.824885 1_555
Ge11 O37 1.775186 1_555
Ge11 O73 1.784912 1_565
Ge11 O13 1.809398 1_565
Ge11 O49 1.824885 1_555
Ge12 O38 1.775186 1_555
Ge12 O74 1.784912 1_555
Ge12 O14 1.809398 1_555
Ge12 O50 1.824885 1_555
Ge13 O39 1.775186 1_555
Ge13 O75 1.784912 1_565
Ge13 O15 1.809398 1_565
Ge13 O51 1.824885 1_555
Ge14 O40 1.775186 1_555
Ge14 O76 1.784912 1_555
Ge14 O16 1.809398 1_555
Ge14 O52 1.824885 1_555
Ge15 O41 1.775186 1_555
Ge15 O77 1.784912 1_545
Ge15 O17 1.809398 1_545
Ge15 O53 1.824885 1_555
Ge16 O42 1.775186 1_555
Ge16 O78 1.784912 1_655
Ge16 O18 1.809398 1_655
Ge16 O54 1.824885 1_555
Ge17 O43 1.775186 1_555
Ge17 O79 1.784912 1_455
Ge17 O19 1.809398 1_455
Ge17 O55 1.824885 1_555
Ge18 O44 1.775186 1_555
Ge18 O80 1.784912 1_455
Ge18 O20 1.809398 1_455
Ge18 O56 1.824885 1_555
Ge19 O45 1.775186 1_555
Ge19 O81 1.784912 1_655
Ge19 O21 1.809398 1_655
Ge19 O57 1.824885 1_555
Ge20 O46 1.775186 1_555
Ge20 O82 1.784912 1_555
Ge20 O22 1.809398 1_555
Ge20 O58 1.824885 1_555
Ge21 O47 1.775186 1_555
Ge21 O83 1.784912 1_555
Ge21 O23 1.809398 1_555
Ge21 O59 1.824885 1_555
Ge22 O0 1.749692 1_555
Ge22 O26 1.768500 1_555
Ge22 O66 1.790960 1_545
Ge22 O48 1.808091 1_555
Ge23 O1 1.749692 1_555
Ge23 O28 1.768500 1_555
Ge23 O68 1.790960 1_565
Ge23 O49 1.808091 1_555
Ge24 O2 1.749692 1_555
Ge24 O30 1.768500 1_555
Ge24 O60 1.790960 1_555
Ge24 O50 1.808091 1_555
Ge25 O3 1.749692 1_555
Ge25 O31 1.768500 1_555
Ge25 O70 1.790960 1_565
Ge25 O51 1.808091 1_555
Ge26 O4 1.749692 1_555
Ge26 O32 1.768500 1_555
Ge26 O61 1.790960 1_555
Ge26 O52 1.808091 1_555
Ge27 O5 1.749692 1_555
Ge27 O33 1.768500 1_555
Ge27 O71 1.790960 1_545
Ge27 O53 1.808091 1_555
Ge28 O6 1.749692 1_555
Ge28 O24 1.768500 1_555
Ge28 O62 1.790960 1_655
Ge28 O54 1.808091 1_555
Ge29 O7 1.749692 1_555
Ge29 O34 1.768500 1_555
Ge29 O63 1.790960 1_455
Ge29 O55 1.808091 1_555
Ge30 O8 1.749692 1_555
Ge30 O25 1.768500 1_555
Ge30 O64 1.790960 1_455
Ge30 O56 1.808091 1_555
Ge31 O9 1.749692 1_555
Ge31 O35 1.768500 1_555
Ge31 O65 1.790960 1_655
Ge31 O57 1.808091 1_555
Ge32 O10 1.749692 1_555
Ge32 O27 1.768500 1_555
Ge32 O67 1.790960 1_555
Ge32 O58 1.808091 1_555
Ge33 O11 1.749692 1_555
Ge33 O29 1.768500 1_555
Ge33 O69 1.790960 1_555
Ge33 O59 1.808091 1_555
Ge34 O90 1.751140 1_555
Ge34 O96 1.764302 1_555
Ge34 O66 1.786842 1_555
Ge34 O12 1.805683 1_555
Ge35 O92 1.751140 1_555
Ge35 O97 1.764302 1_555
Ge35 O68 1.786842 1_555
Ge35 O13 1.805683 1_555
Ge36 O84 1.751140 1_555
Ge36 O98 1.764302 1_555
Ge36 O60 1.786842 1_555
Ge36 O14 1.805683 1_555
Ge37 O94 1.751140 1_555
Ge37 O99 1.764302 1_555
Ge37 O70 1.786842 1_555
Ge37 O15 1.805683 1_555
Ge38 O85 1.751140 1_555
Ge38 O100 1.764302 1_555
Ge38 O61 1.786842 1_555
Ge38 O16 1.805683 1_555
Ge39 O95 1.751140 1_555
Ge39 O101 1.764302 1_555
Ge39 O71 1.786842 1_555
Ge39 O17 1.805683 1_555
Ge40 O86 1.751140 1_555
Ge40 O102 1.764302 1_555
Ge40 O62 1.786842 1_555
Ge40 O18 1.805683 1_555
Ge41 O87 1.751140 1_555
Ge41 O103 1.764302 1_555
Ge41 O63 1.786842 1_555
Ge41 O19 1.805683 1_555
Ge42 O88 1.751140 1_555
Ge42 O104 1.764302 1_555
Ge42 O64 1.786842 1_555
Ge42 O20 1.805683 1_555
Ge43 O89 1.751140 1_555
Ge43 O105 1.764302 1_555
Ge43 O65 1.786842 1_555
Ge43 O21 1.805683 1_555
Ge44 O91 1.751140 1_555
Ge44 O106 1.764302 1_555
Ge44 O67 1.786842 1_555
Ge44 O22 1.805683 1_555
Ge45 O93 1.751140 1_555
Ge45 O107 1.764302 1_555
Ge45 O69 1.786842 1_555
Ge45 O23 1.805683 1_555
Ge46 O79 1.934515 1_445
Ge46 O72 1.934515 1_445
Ge46 O74 1.934515 1_555
Ge46 O82 1.934515 1_555
Ge46 O78 1.934515 1_545
Ge46 O75 1.934515 1_455
Ge47 O73 1.934515 1_555
Ge47 O81 1.934515 1_555
Ge47 O76 1.934515 1_445
Ge47 O83 1.934515 1_445
Ge47 O80 1.934515 1_455
Ge47 O77 1.934515 1_545
O24 Sr2 2.648239 1_655
O25 Sr3 2.648239 1_555
O26 Sr4 2.648239 1_555
O27 Sr0 2.648239 1_555
O28 Sr5 2.648239 1_565
O29 Sr1 2.648239 1_555
O30 Sr0 2.648239 1_555
O31 Sr4 2.648239 1_565
O32 Sr1 2.648239 1_555
O33 Sr5 2.648239 1_555
O34 Sr2 2.648239 1_555
O35 Sr3 2.648239 1_655
O48 Sr2 2.831787 1_655
O49 Sr3 2.831787 1_555
O50 Sr4 2.831787 1_555
O51 Sr0 2.831787 1_555
O52 Sr5 2.831787 1_565
O53 Sr1 2.831787 1_555
O54 Sr0 2.831787 1_555
O55 Sr4 2.831787 1_565
O56 Sr1 2.831787 1_555
O57 Sr5 2.831787 1_555
O58 Sr2 2.831787 1_555
O59 Sr3 2.831787 1_655
O60 Sr0 3.080088 1_555
O61 Sr1 3.080088 1_555
O62 Sr2 3.080088 1_555
O63 Sr2 3.080088 1_655
O64 Sr3 3.080088 1_655
O65 Sr3 3.080088 1_555
O66 Sr4 3.080088 1_565
O67 Sr0 3.080088 1_555
O68 Sr5 3.080088 1_555
O69 Sr1 3.080088 1_555
O70 Sr4 3.080088 1_555
O71 Sr5 3.080088 1_565
O72 Sr0 2.773804 1_555
O73 Sr1 2.773804 1_555
O74 Sr2 2.773804 1_555
O75 Sr2 2.773804 1_655
O76 Sr3 2.773804 1_655
O77 Sr3 2.773804 1_555
O78 Sr4 2.773804 1_565
O79 Sr0 2.773804 1_555
O80 Sr5 2.773804 1_555
O81 Sr1 2.773804 1_555
O82 Sr4 2.773804 1_555
O83 Sr5 2.773804 1_565
O96 Sr0 2.957038 1_555
O97 Sr1 2.957038 1_555
O98 Sr2 2.957038 1_555
O99 Sr2 2.957038 1_655
O100 Sr3 2.957038 1_655
O101 Sr3 2.957038 1_555
O102 Sr4 2.957038 1_565
O103 Sr0 2.957038 1_555
O104 Sr5 2.957038 1_555
O105 Sr1 2.957038 1_555
O106 Sr4 2.957038 1_555
O107 Sr5 2.957038 1_565
