# generated using pymatgen
data_Dy2SnAu2
_symmetry_space_group_name_H-M   'P 1'
_cell_length_a   7.92219800
_cell_length_b   7.92219800
_cell_length_c   7.56649900
_cell_angle_alpha   90.00000000
_cell_angle_beta   90.00000000
_cell_angle_gamma   90.00000000
_symmetry_Int_Tables_number   1
_chemical_formula_structural   Dy2SnAu2
_chemical_formula_sum   'Dy8 Sn4 Au8'
_cell_volume   474.88271708
_cell_formula_units_Z   4
loop_
 _symmetry_equiv_pos_site_id
 _symmetry_equiv_pos_as_xyz
  1  'x, y, z'
loop_
 _atom_site_type_symbol
 _atom_site_label
 _atom_site_symmetry_multiplicity
 _atom_site_fract_x
 _atom_site_fract_y
 _atom_site_fract_z
 _atom_site_occupancy
  Dy  Dy0  1  0.84269100  0.15730900  0.50000000  1
  Dy  Dy1  1  0.15730900  0.84269100  0.50000000  1
  Dy  Dy2  1  0.34269100  0.34269100  0.00000000  1
  Dy  Dy3  1  0.65730900  0.65730900  0.00000000  1
  Dy  Dy4  1  0.68413500  0.68413500  0.50000000  1
  Dy  Dy5  1  0.31586500  0.31586500  0.50000000  1
  Dy  Dy6  1  0.18413500  0.81586500  0.00000000  1
  Dy  Dy7  1  0.81586500  0.18413500  0.00000000  1
  Sn  Sn0  1  0.50000000  0.00000000  0.25000000  1
  Sn  Sn1  1  0.00000000  0.50000000  0.75000000  1
  Sn  Sn2  1  0.50000000  0.00000000  0.75000000  1
  Sn  Sn3  1  0.00000000  0.50000000  0.25000000  1
  Au  Au0  1  0.62782500  0.37217500  0.27797300  1
  Au  Au1  1  0.37217500  0.62782500  0.27797300  1
  Au  Au2  1  0.12782500  0.12782500  0.77797300  1
  Au  Au3  1  0.87217500  0.87217500  0.77797300  1
  Au  Au4  1  0.37217500  0.62782500  0.72202700  1
  Au  Au5  1  0.62782500  0.37217500  0.72202700  1
  Au  Au6  1  0.87217500  0.87217500  0.22202700  1
  Au  Au7  1  0.12782500  0.12782500  0.22202700  1
loop_
_geom_bond_atom_site_label_1
_geom_bond_atom_site_label_2
_geom_bond_distance
_geom_bond_site_symmetry_2
Dy0 Sn3 3.535794 1_655
Dy0 Sn1 3.535794 1_655
Dy0 Sn0 3.535794 1_555
Dy0 Sn2 3.535794 1_555
Dy1 Sn1 3.535794 1_555
Dy1 Sn2 3.535794 1_565
Dy1 Sn0 3.535794 1_565
Dy1 Sn3 3.535794 1_555
Dy2 Sn2 3.535794 1_554
Dy2 Sn0 3.535794 1_555
Dy2 Sn1 3.535794 1_554
Dy2 Sn3 3.535794 1_555
Dy3 Sn3 3.535794 1_655
Dy3 Sn1 3.535794 1_654
Dy3 Sn0 3.535794 1_565
Dy3 Sn2 3.535794 1_564
Dy4 Sn1 3.459471 1_655
Dy4 Sn3 3.459471 1_655
Dy4 Sn2 3.459471 1_565
Dy4 Sn0 3.459471 1_565
Dy5 Sn3 3.459471 1_555
Dy5 Sn1 3.459471 1_555
Dy5 Sn0 3.459471 1_555
Dy5 Sn2 3.459471 1_555
Dy6 Sn1 3.459471 1_554
Dy6 Sn3 3.459471 1_555
Dy6 Sn2 3.459471 1_564
Dy6 Sn0 3.459471 1_565
Dy7 Sn2 3.459471 1_554
Dy7 Sn0 3.459471 1_555
Dy7 Sn3 3.459471 1_655
Dy7 Sn1 3.459471 1_654
Au0 Dy0 2.935530 1_555
Au0 Dy7 2.976936 1_555
Au0 Dy5 3.021449 1_555
Au0 Dy4 3.021449 1_555
Au0 Dy2 3.095308 1_555
Au0 Dy3 3.095308 1_555
Au0 Sn0 3.124675 1_555
Au0 Sn3 3.124675 1_655
Au1 Dy1 2.935530 1_555
Au1 Dy6 2.976936 1_555
Au1 Dy5 3.021449 1_555
Au1 Dy4 3.021449 1_555
Au1 Dy2 3.095308 1_555
Au1 Dy3 3.095308 1_555
Au1 Sn3 3.124675 1_555
Au1 Sn0 3.124675 1_565
Au2 Dy2 2.935530 1_556
Au2 Dy5 2.976936 1_555
Au2 Dy6 3.021449 1_546
Au2 Dy7 3.021449 1_456
Au2 Dy0 3.095308 1_455
Au2 Dy1 3.095308 1_545
Au2 Sn1 3.124675 1_555
Au2 Sn2 3.124675 1_555
Au3 Dy3 2.935530 1_556
Au3 Dy4 2.976936 1_555
Au3 Dy7 3.021449 1_566
Au3 Dy6 3.021449 1_656
Au3 Dy0 3.095308 1_565
Au3 Dy1 3.095308 1_655
Au3 Sn1 3.124675 1_655
Au3 Sn2 3.124675 1_565
Au4 Dy1 2.935530 1_555
Au4 Dy6 2.976936 1_556
Au4 Dy5 3.021449 1_555
Au4 Dy4 3.021449 1_555
Au4 Dy2 3.095308 1_556
Au4 Dy3 3.095308 1_556
Au4 Sn1 3.124675 1_555
Au4 Sn2 3.124675 1_565
Au5 Dy0 2.935530 1_555
Au5 Dy7 2.976936 1_556
Au5 Dy5 3.021449 1_555
Au5 Dy4 3.021449 1_555
Au5 Dy2 3.095308 1_556
Au5 Dy3 3.095308 1_556
Au5 Sn2 3.124675 1_555
Au5 Sn1 3.124675 1_655
Au6 Dy3 2.935530 1_555
Au6 Dy4 2.976936 1_555
Au6 Dy7 3.021449 1_565
Au6 Dy6 3.021449 1_655
Au6 Dy0 3.095308 1_565
Au6 Dy1 3.095308 1_655
Au6 Sn3 3.124675 1_655
Au6 Sn0 3.124675 1_565
Au7 Dy2 2.935530 1_555
Au7 Dy5 2.976936 1_555
Au7 Dy6 3.021449 1_545
Au7 Dy7 3.021449 1_455
Au7 Dy0 3.095308 1_455
Au7 Dy1 3.095308 1_545
Au7 Sn0 3.124675 1_555
Au7 Sn3 3.124675 1_555
