# generated using pymatgen
data_MgCr2Fe3Ni(PO4)6
_symmetry_space_group_name_H-M   'P 1'
_cell_length_a   8.54148752
_cell_length_b   8.54869622
_cell_length_c   8.53936886
_cell_angle_alpha   60.84011112
_cell_angle_beta   60.86565300
_cell_angle_gamma   60.82976570
_symmetry_Int_Tables_number   1
_chemical_formula_structural   MgCr2Fe3Ni(PO4)6
_chemical_formula_sum   'Mg1 Cr2 Fe3 Ni1 P6 O24'
_cell_volume   449.30650617
_cell_formula_units_Z   1
loop_
 _symmetry_equiv_pos_site_id
 _symmetry_equiv_pos_as_xyz
  1  'x, y, z'
loop_
 _atom_site_type_symbol
 _atom_site_label
 _atom_site_symmetry_multiplicity
 _atom_site_fract_x
 _atom_site_fract_y
 _atom_site_fract_z
 _atom_site_occupancy
  Mg  Mg0  1  0.62552700  0.62551800  0.62595200  1
  Cr  Cr0  1  0.99928100  0.99961200  0.99947000  1
  Cr  Cr1  1  0.49013900  0.49015400  0.49069800  1
  Fe  Fe0  1  0.14511000  0.14497000  0.14513600  1
  Fe  Fe1  1  0.34504900  0.34457500  0.34567100  1
  Fe  Fe2  1  0.74682600  0.74714100  0.74645200  1
  Ni  Ni0  1  0.86615000  0.86523600  0.86644000  1
  P  P0  1  0.05000400  0.74528400  0.44084000  1
  P  P1  1  0.44072800  0.04993100  0.74531400  1
  P  P2  1  0.74520300  0.44109700  0.04997400  1
  P  P3  1  0.24465500  0.54174100  0.94767600  1
  P  P4  1  0.54202700  0.94693000  0.24499200  1
  P  P5  1  0.94708300  0.24451400  0.54225500  1
  O  O0  1  0.08990300  0.33726000  0.48450400  1
  O  O1  1  0.33754400  0.48404700  0.09044800  1
  O  O2  1  0.06567600  0.90329500  0.24120700  1
  O  O3  1  0.48377000  0.08998300  0.33768400  1
  O  O4  1  0.00411600  0.80461900  0.60596300  1
  O  O5  1  0.25084700  0.58855400  0.42123500  1
  O  O6  1  0.24112600  0.06590900  0.90329200  1
  O  O7  1  0.42080800  0.25069700  0.58853300  1
  O  O8  1  0.14861700  0.40081000  0.00936000  1
  O  O9  1  0.58905400  0.42086500  0.25100500  1
  O  O10  1  0.10131600  0.74923900  0.93859300  1
  O  O11  1  0.40080900  0.00833300  0.14893300  1
  O  O12  1  0.60600900  0.00424300  0.80446600  1
  O  O13  1  0.90325000  0.24145300  0.06549600  1
  O  O14  1  0.38985700  0.54726500  0.74263400  1
  O  O15  1  0.80444300  0.60619900  0.00404700  1
  O  O16  1  0.54757200  0.74230900  0.39045200  1
  O  O17  1  0.74933100  0.93837000  0.10143800  1
  O  O18  1  0.74210400  0.39002200  0.54770100  1
  O  O19  1  0.00847200  0.14884400  0.40092400  1
  O  O20  1  0.49131100  0.88384700  0.68455900  1
  O  O21  1  0.93854300  0.10087400  0.74953300  1
  O  O22  1  0.68407800  0.49215500  0.88379300  1
  O  O23  1  0.88397500  0.68441600  0.49145900  1
loop_
_geom_bond_atom_site_label_1
_geom_bond_atom_site_label_2
_geom_bond_distance
_geom_bond_site_symmetry_2
Mg0 O16 2.045378 1_555
Mg0 O18 2.049354 1_555
Mg0 O14 2.050001 1_555
Mg0 O22 2.113766 1_555
Mg0 O20 2.119454 1_555
Mg0 O23 2.120618 1_555
Cr0 O2 2.071040 1_656
Cr0 O13 2.073034 1_566
Cr0 O6 2.073307 1_665
Cr0 O21 2.100876 1_565
Cr0 O17 2.103682 1_556
Cr0 O10 2.106108 1_655
Cr1 O5 2.062834 1_555
Cr1 O9 2.064931 1_555
Cr1 O7 2.066987 1_555
Cr1 O18 2.102293 1_555
Cr1 O14 2.102862 1_555
Cr1 O16 2.108022 1_555
Fe0 O11 1.918513 1_555
Fe0 O19 1.919583 1_555
Fe0 O8 1.920288 1_555
Fe0 O6 2.136610 1_554
Fe0 O13 2.137966 1_455
Fe0 O2 2.138812 1_545
Fe1 O3 1.922902 1_555
Fe1 O0 1.924502 1_555
Fe1 O1 1.924816 1_555
Fe1 O7 2.131286 1_555
Fe1 O5 2.141021 1_555
Fe1 O9 2.143196 1_555
Fe2 O4 2.102690 1_655
Fe2 O15 2.103782 1_556
Fe2 O12 2.103970 1_565
Fe2 O23 2.107834 1_555
Fe2 O20 2.107903 1_555
Fe2 O22 2.109447 1_555
Ni0 O10 2.016363 1_655
Ni0 O17 2.019472 1_556
Ni0 O21 2.022425 1_565
Ni0 O15 2.135704 1_556
Ni0 O4 2.140193 1_655
Ni0 O12 2.141882 1_565
O0 P5 1.528395 1_455
O1 P3 1.527617 1_554
O2 P0 1.568035 1_555
O3 P4 1.528473 1_545
O4 P0 1.537590 1_555
O5 P0 1.569862 1_555
O6 P1 1.567886 1_555
O7 P1 1.570021 1_555
O8 P3 1.525151 1_554
O9 P2 1.569034 1_555
O10 P3 1.578869 1_555
O11 P4 1.526424 1_545
O12 P1 1.537961 1_555
O13 P2 1.568633 1_555
O14 P3 1.571050 1_555
O15 P2 1.538000 1_555
O16 P4 1.569756 1_555
O17 P4 1.578276 1_555
O18 P5 1.571285 1_555
O19 P5 1.525785 1_455
O20 P1 1.540535 1_565
O21 P5 1.577872 1_555
O22 P2 1.540315 1_556
O23 P0 1.540119 1_655
