# generated using pymatgen
data_SrMn2O11
_symmetry_space_group_name_H-M   'P 1'
_cell_length_a   9.69572600
_cell_length_b   9.69572600
_cell_length_c   9.69572600
_cell_angle_alpha   90.00000000
_cell_angle_beta   90.00000000
_cell_angle_gamma   90.00000000
_symmetry_Int_Tables_number   1
_chemical_formula_structural   SrMn2O11
_chemical_formula_sum   'Sr4 Mn8 O44'
_cell_volume   911.46710951
_cell_formula_units_Z   4
loop_
 _symmetry_equiv_pos_site_id
 _symmetry_equiv_pos_as_xyz
  1  'x, y, z'
loop_
 _atom_site_type_symbol
 _atom_site_label
 _atom_site_symmetry_multiplicity
 _atom_site_fract_x
 _atom_site_fract_y
 _atom_site_fract_z
 _atom_site_occupancy
  Sr  Sr0  1  0.23287200  0.73287200  0.76712800  1
  Sr  Sr1  1  0.73287200  0.76712800  0.23287200  1
  Sr  Sr2  1  0.76712800  0.23287200  0.73287200  1
  Sr  Sr3  1  0.26712800  0.26712800  0.26712800  1
  Mn  Mn0  1  0.48595800  0.98595800  0.51404200  1
  Mn  Mn1  1  0.98595800  0.51404200  0.48595800  1
  Mn  Mn2  1  0.51404200  0.48595800  0.98595800  1
  Mn  Mn3  1  0.01404200  0.01404200  0.01404200  1
  Mn  Mn4  1  0.94998700  0.44998700  0.05001300  1
  Mn  Mn5  1  0.44998700  0.05001300  0.94998700  1
  Mn  Mn6  1  0.05001300  0.94998700  0.44998700  1
  Mn  Mn7  1  0.55001300  0.55001300  0.55001300  1
  O  O0  1  0.38984200  0.88984200  0.61015800  1
  O  O1  1  0.88984200  0.61015800  0.38984200  1
  O  O2  1  0.61015800  0.38984200  0.88984200  1
  O  O3  1  0.11015800  0.11015800  0.11015800  1
  O  O4  1  0.85526400  0.35526400  0.14473600  1
  O  O5  1  0.35526400  0.14473600  0.85526400  1
  O  O6  1  0.14473600  0.85526400  0.35526400  1
  O  O7  1  0.64473600  0.64473600  0.64473600  1
  O  O8  1  0.91623800  0.91937400  0.11075900  1
  O  O9  1  0.88924100  0.41623800  0.58062600  1
  O  O10  1  0.41937400  0.38924100  0.08376200  1
  O  O11  1  0.41623800  0.58062600  0.88924100  1
  O  O12  1  0.38924100  0.08376200  0.41937400  1
  O  O13  1  0.91937400  0.11075900  0.91623800  1
  O  O14  1  0.08376200  0.41937400  0.38924100  1
  O  O15  1  0.11075900  0.91623800  0.91937400  1
  O  O16  1  0.58062600  0.88924100  0.41623800  1
  O  O17  1  0.58376200  0.08062600  0.61075900  1
  O  O18  1  0.61075900  0.58376200  0.08062600  1
  O  O19  1  0.08062600  0.61075900  0.58376200  1
  O  O20  1  0.88639100  0.91738400  0.42198800  1
  O  O21  1  0.57801200  0.38639100  0.58261600  1
  O  O22  1  0.41738400  0.07801200  0.11360900  1
  O  O23  1  0.38639100  0.58261600  0.57801200  1
  O  O24  1  0.07801200  0.11360900  0.41738400  1
  O  O25  1  0.91738400  0.42198800  0.88639100  1
  O  O26  1  0.11360900  0.41738400  0.07801200  1
  O  O27  1  0.42198800  0.88639100  0.91738400  1
  O  O28  1  0.58261600  0.57801200  0.38639100  1
  O  O29  1  0.61360900  0.08261600  0.92198800  1
  O  O30  1  0.92198800  0.61360900  0.08261600  1
  O  O31  1  0.08261600  0.92198800  0.61360900  1
  O  O32  1  0.67013300  0.84685200  0.97814900  1
  O  O33  1  0.02185100  0.17013300  0.65314800  1
  O  O34  1  0.34685200  0.52185100  0.32986700  1
  O  O35  1  0.17013300  0.65314800  0.02185100  1
  O  O36  1  0.52185100  0.32986700  0.34685200  1
  O  O37  1  0.84685200  0.97814900  0.67013300  1
  O  O38  1  0.32986700  0.34685200  0.52185100  1
  O  O39  1  0.97814900  0.67013300  0.84685200  1
  O  O40  1  0.65314800  0.02185100  0.17013300  1
  O  O41  1  0.82986700  0.15314800  0.47814900  1
  O  O42  1  0.47814900  0.82986700  0.15314800  1
  O  O43  1  0.15314800  0.47814900  0.82986700  1
loop_
_geom_bond_atom_site_label_1
_geom_bond_atom_site_label_2
_geom_bond_distance
_geom_bond_site_symmetry_2
Mn0 O0 1.614123 1_555
Mn0 O17 1.618978 1_565
Mn0 O16 1.618978 1_555
Mn0 O12 1.618978 1_565
Mn1 O1 1.614123 1_555
Mn1 O19 1.618978 1_655
Mn1 O9 1.618978 1_555
Mn1 O14 1.618978 1_655
Mn2 O2 1.614123 1_555
Mn2 O18 1.618978 1_556
Mn2 O11 1.618978 1_555
Mn2 O10 1.618978 1_556
Mn3 O3 1.614123 1_555
Mn3 O8 1.618978 1_445
Mn3 O13 1.618978 1_454
Mn3 O15 1.618978 1_544
Mn4 O4 1.590730 1_555
Mn4 O25 1.640242 1_554
Mn4 O26 1.640242 1_655
Mn4 O30 1.640242 1_555
Mn5 O5 1.590730 1_555
Mn5 O27 1.640242 1_545
Mn5 O22 1.640242 1_556
Mn5 O29 1.640242 1_555
Mn6 O6 1.590730 1_555
Mn6 O20 1.640242 1_455
Mn6 O24 1.640242 1_565
Mn6 O31 1.640242 1_555
Mn7 O7 1.590730 1_555
Mn7 O28 1.640242 1_555
Mn7 O23 1.640242 1_555
Mn7 O21 1.640242 1_555
O0 Sr0 2.636074 1_555
O1 Sr1 2.636074 1_555
O2 Sr2 2.636074 1_555
O3 Sr3 2.636074 1_555
O8 Sr1 2.596455 1_555
O9 Sr2 2.596455 1_555
O10 Sr3 2.596455 1_555
O11 Sr0 2.596455 1_555
O12 Sr3 2.596455 1_555
O13 Sr2 2.596455 1_555
O14 Sr3 2.596455 1_555
O15 Sr0 2.596455 1_555
O16 Sr1 2.596455 1_555
O17 Sr2 2.596455 1_555
O18 Sr1 2.596455 1_555
O19 Sr0 2.596455 1_555
O20 Sr1 2.774906 1_555
O21 Sr2 2.774906 1_555
O22 Sr3 2.774906 1_555
O23 Sr0 2.774906 1_555
O24 Sr3 2.774906 1_555
O25 Sr2 2.774906 1_555
O26 Sr3 2.774906 1_555
O27 Sr0 2.774906 1_555
O28 Sr1 2.774906 1_555
O29 Sr2 2.774906 1_555
O30 Sr1 2.774906 1_555
O31 Sr0 2.774906 1_555
O32 Sr1 2.658396 1_556
O33 Sr2 2.658396 1_455
O34 Sr3 2.658396 1_555
O35 Sr0 2.658396 1_554
O36 Sr3 2.658396 1_555
O37 Sr2 2.658396 1_565
O38 Sr3 2.658396 1_555
O39 Sr0 2.658396 1_655
O40 Sr1 2.658396 1_545
O41 Sr2 2.658396 1_555
O42 Sr1 2.658396 1_555
O43 Sr0 2.658396 1_555
