# generated using pymatgen
data_Er2Fe12P7
_symmetry_space_group_name_H-M   'P 1'
_cell_length_a   8.94753199
_cell_length_b   8.94753199
_cell_length_c   3.63347500
_cell_angle_alpha   90.00000000
_cell_angle_beta   90.00000000
_cell_angle_gamma   119.99999992
_symmetry_Int_Tables_number   1
_chemical_formula_structural   Er2Fe12P7
_chemical_formula_sum   'Er2 Fe12 P7'
_cell_volume   251.91807434
_cell_formula_units_Z   1
loop_
 _symmetry_equiv_pos_site_id
 _symmetry_equiv_pos_as_xyz
  1  'x, y, z'
loop_
 _atom_site_type_symbol
 _atom_site_label
 _atom_site_symmetry_multiplicity
 _atom_site_fract_x
 _atom_site_fract_y
 _atom_site_fract_z
 _atom_site_occupancy
  Er  Er0  1  0.00000000  0.00000000  0.00000000  1
  Er  Er1  1  0.33333300  0.66666700  0.50000000  1
  Fe  Fe0  1  0.09400600  0.70478800  0.00000000  1
  Fe  Fe1  1  0.29521200  0.38921800  0.00000000  1
  Fe  Fe2  1  0.61078200  0.90599400  0.00000000  1
  Fe  Fe3  1  0.82277200  0.21382500  0.00000000  1
  Fe  Fe4  1  0.78617500  0.60894700  0.00000000  1
  Fe  Fe5  1  0.39105300  0.17722800  0.00000000  1
  Fe  Fe6  1  0.05067600  0.28470800  0.50000000  1
  Fe  Fe7  1  0.71529200  0.76596800  0.50000000  1
  Fe  Fe8  1  0.23403200  0.94932400  0.50000000  1
  Fe  Fe9  1  0.88245500  0.45322300  0.50000000  1
  Fe  Fe10  1  0.54677700  0.42923200  0.50000000  1
  Fe  Fe11  1  0.57076800  0.11754500  0.50000000  1
  P  P0  1  0.07813500  0.44802700  0.00000000  1
  P  P1  1  0.55197300  0.63010800  0.00000000  1
  P  P2  1  0.36989200  0.92186500  0.00000000  1
  P  P3  1  0.77938600  0.04369400  0.50000000  1
  P  P4  1  0.95630600  0.73569100  0.50000000  1
  P  P5  1  0.26430900  0.22061400  0.50000000  1
  P  P6  1  0.66666700  0.33333300  0.00000000  1
loop_
_geom_bond_atom_site_label_1
_geom_bond_atom_site_label_2
_geom_bond_distance
_geom_bond_site_symmetry_2
Er0 P3 2.849839 1_454
Er0 P3 2.849839 1_455
Er0 P5 2.849844 1_555
Er0 P5 2.849844 1_554
Er0 P4 2.849846 1_445
Er0 P4 2.849846 1_444
Er0 Fe8 2.973294 1_545
Er0 Fe8 2.973294 1_544
Er0 Fe6 2.973294 1_554
Er0 Fe6 2.973294 1_555
Er0 Fe7 2.973294 1_444
Er0 Fe7 2.973294 1_445
Er0 Fe3 3.034608 1_455
Er0 Fe5 3.034608 1_555
Er0 Fe4 3.034608 1_445
Er0 Fe0 3.147433 1_545
Er0 Fe2 3.147433 1_445
Er0 Fe1 3.147433 1_555
Er1 P2 2.806152 1_556
Er1 P2 2.806152 1_555
Er1 P0 2.806155 1_555
Er1 P0 2.806155 1_556
Er1 P1 2.806159 1_555
Er1 P1 2.806159 1_556
Er1 Fe0 2.955133 1_556
Er1 Fe0 2.955133 1_555
Er1 Fe2 2.955138 1_555
Er1 Fe2 2.955138 1_556
Er1 Fe1 2.955140 1_556
Er1 Fe1 2.955140 1_555
Er1 Fe8 3.071282 1_555
Er1 Fe6 3.071289 1_555
Er1 Fe7 3.071291 1_555
Fe0 P0 2.229768 1_555
Fe0 P2 2.251989 1_555
Fe0 P4 2.288160 1_455
Fe0 P4 2.288160 1_454
Fe1 P1 2.229768 1_555
Fe1 P0 2.251989 1_555
Fe1 P5 2.288165 1_555
Fe1 P5 2.288165 1_554
Fe2 P2 2.229768 1_555
Fe2 P1 2.251989 1_555
Fe2 P3 2.288163 1_565
Fe2 P3 2.288163 1_564
Fe3 P6 2.141934 1_555
Fe3 P0 2.196329 1_655
Fe3 P3 2.275423 1_554
Fe3 P3 2.275423 1_555
Fe4 P6 2.141942 1_555
Fe4 P1 2.196329 1_555
Fe4 P4 2.275422 1_554
Fe4 P4 2.275422 1_555
Fe5 P6 2.141941 1_555
Fe5 P2 2.196329 1_545
Fe5 P5 2.275418 1_554
Fe5 P5 2.275418 1_555
Fe6 P5 2.253636 1_555
Fe6 P0 2.266556 1_556
Fe6 P0 2.266556 1_555
Fe6 P3 2.303904 1_455
Fe7 P3 2.253627 1_565
Fe7 P1 2.266556 1_556
Fe7 P1 2.266556 1_555
Fe7 P4 2.303909 1_555
Fe8 P4 2.253630 1_455
Fe8 P2 2.266556 1_556
Fe8 P2 2.266556 1_555
Fe8 P5 2.303900 1_565
Fe9 P4 2.270305 1_555
Fe9 P6 2.471429 1_556
Fe9 P6 2.471429 1_555
Fe9 P0 2.539603 1_656
Fe9 P0 2.539603 1_655
Fe10 P5 2.270307 1_555
Fe10 P6 2.471434 1_555
Fe10 P6 2.471434 1_556
Fe10 P1 2.539603 1_556
Fe10 P1 2.539603 1_555
Fe11 P3 2.270313 1_555
Fe11 P6 2.471428 1_556
Fe11 P6 2.471428 1_555
Fe11 P2 2.539603 1_545
Fe11 P2 2.539603 1_546
