# generated using pymatgen
data_MgMn2Fe2(PO4)4
_symmetry_space_group_name_H-M   'P 1'
_cell_length_a   10.22243448
_cell_length_b   5.98734001
_cell_length_c   5.06842816
_cell_angle_alpha   89.99337445
_cell_angle_beta   90.03140958
_cell_angle_gamma   90.00464846
_symmetry_Int_Tables_number   1
_chemical_formula_structural   MgMn2Fe2(PO4)4
_chemical_formula_sum   'Mg1 Mn2 Fe2 P4 O16'
_cell_volume   310.21406395
_cell_formula_units_Z   1
loop_
 _symmetry_equiv_pos_site_id
 _symmetry_equiv_pos_as_xyz
  1  'x, y, z'
loop_
 _atom_site_type_symbol
 _atom_site_label
 _atom_site_symmetry_multiplicity
 _atom_site_fract_x
 _atom_site_fract_y
 _atom_site_fract_z
 _atom_site_occupancy
  Mg  Mg0  1  0.05625900  0.75000600  0.07591900  1
  Mn  Mn0  1  0.23842400  0.74999200  0.49276200  1
  Mn  Mn1  1  0.30237800  0.24997300  0.89423700  1
  Fe  Fe0  1  0.71671300  0.75005400  0.06232600  1
  Fe  Fe1  1  0.76931200  0.24999900  0.53757500  1
  P  P0  1  0.09287400  0.24999600  0.37742900  1
  P  P1  1  0.41061700  0.74998400  0.93747900  1
  P  P2  1  0.60092500  0.25003400  0.09475100  1
  P  P3  1  0.89619500  0.74999300  0.59585100  1
  O  O0  1  0.04269800  0.75000700  0.68951200  1
  O  O1  1  0.14564700  0.24997400  0.66338900  1
  O  O2  1  0.14594900  0.03551700  0.22879200  1
  O  O3  1  0.14593900  0.46452500  0.22880700  1
  O  O4  1  0.33061500  0.55451000  0.79450800  1
  O  O5  1  0.33065300  0.94548400  0.79445800  1
  O  O6  1  0.38733300  0.74999900  0.23109500  1
  O  O7  1  0.44999200  0.25000600  0.13583700  1
  O  O8  1  0.55039800  0.74994200  0.84691000  1
  O  O9  1  0.62867600  0.24998000  0.79855900  1
  O  O10  1  0.66829000  0.05212600  0.24722600  1
  O  O11  1  0.66827100  0.44797400  0.24715200  1
  O  O12  1  0.82605000  0.54482000  0.71845000  1
  O  O13  1  0.82604000  0.95508800  0.71855900  1
  O  O14  1  0.89523600  0.75004600  0.29019700  1
  O  O15  1  0.94326600  0.24997500  0.36691700  1
loop_
_geom_bond_atom_site_label_1
_geom_bond_atom_site_label_2
_geom_bond_distance
_geom_bond_site_symmetry_2
Mg0 O0 1.963300 1_554
Mg0 O14 1.972547 1_455
Mg0 O3 2.088463 1_555
Mg0 O2 2.088652 1_565
Mn0 O6 2.019470 1_555
Mn0 O4 2.143643 1_555
Mn0 O5 2.143776 1_555
Mn0 O0 2.236025 1_555
Mn0 O3 2.367242 1_555
Mn0 O2 2.367382 1_565
Mn1 O4 1.913987 1_555
Mn1 O5 1.913995 1_545
Mn1 O7 1.942796 1_556
Mn1 O1 1.983403 1_555
Mn1 O2 2.661430 1_556
Mn1 O3 2.662132 1_556
Fe0 O8 2.020032 1_554
Fe0 O11 2.096181 1_555
Fe0 O10 2.096518 1_565
Fe0 O14 2.159166 1_555
Fe0 O13 2.406918 1_554
Fe0 O12 2.408275 1_554
Fe1 O9 1.954135 1_555
Fe1 O15 1.977870 1_555
Fe1 O12 2.071803 1_555
Fe1 O13 2.072378 1_545
Fe1 O10 2.152725 1_555
Fe1 O11 2.153316 1_555
O0 P3 1.570806 1_455
O1 P0 1.546233 1_555
O2 P0 1.584853 1_555
O3 P0 1.584812 1_555
O4 P1 1.600961 1_555
O5 P1 1.600966 1_555
O6 P1 1.507215 1_554
O7 P2 1.557005 1_555
O8 P1 1.501066 1_555
O9 P2 1.527949 1_556
O10 P2 1.573174 1_555
O11 P2 1.573100 1_555
O12 P3 1.552262 1_555
O13 P3 1.552367 1_555
O14 P3 1.549211 1_555
O15 P0 1.530257 1_655
