# generated using pymatgen
data_NaCu3Te2
_symmetry_space_group_name_H-M   'P 1'
_cell_length_a   8.27858107
_cell_length_b   8.27858107
_cell_length_c   8.27858062
_cell_angle_alpha   29.70746609
_cell_angle_beta   29.70746609
_cell_angle_gamma   29.70745987
_symmetry_Int_Tables_number   1
_chemical_formula_structural   NaCu3Te2
_chemical_formula_sum   'Na1 Cu3 Te2'
_cell_volume   123.37303870
_cell_formula_units_Z   1
loop_
 _symmetry_equiv_pos_site_id
 _symmetry_equiv_pos_as_xyz
  1  'x, y, z'
loop_
 _atom_site_type_symbol
 _atom_site_label
 _atom_site_symmetry_multiplicity
 _atom_site_fract_x
 _atom_site_fract_y
 _atom_site_fract_z
 _atom_site_occupancy
  Na  Na0  1  0.50000000  0.50000000  0.50000000  1
  Cu  Cu0  1  0.00000000  0.00000000  -0.00000000  1
  Cu  Cu1  1  0.63352929  0.63352929  0.63352929  1
  Cu  Cu2  1  0.36647071  0.36647071  0.36647071  1
  Te  Te0  1  0.25402519  0.25402519  0.25402519  1
  Te  Te1  1  0.74597481  0.74597481  0.74597481  1
loop_
_geom_bond_atom_site_label_1
_geom_bond_atom_site_label_2
_geom_bond_distance
_geom_bond_site_symmetry_2
Na0 Te1 3.209351 1_554
Na0 Te0 3.209351 1_556
Na0 Te1 3.209351 1_455
Na0 Te1 3.209351 1_545
Na0 Te0 3.209351 1_655
Na0 Te0 3.209351 1_565
Cu0 Cu1 2.573545 1_454
Cu0 Cu1 2.573545 1_544
Cu0 Cu2 2.573545 1_455
Cu0 Cu2 2.573545 1_545
Cu0 Cu2 2.573545 1_554
Cu0 Cu1 2.573545 1_445
Cu0 Te0 3.089474 1_554
Cu0 Te1 3.089474 1_445
Cu0 Te1 3.089474 1_454
Cu0 Te0 3.089474 1_545
Cu0 Te0 3.089474 1_455
Cu0 Te1 3.089474 1_544
Cu1 Te1 2.667514 1_555
Cu1 Te0 2.684183 1_655
Cu1 Te0 2.684183 1_565
Cu1 Te0 2.684184 1_556
Cu1 Na0 3.167678 1_555
Cu2 Te0 2.667514 1_555
Cu2 Te1 2.684183 1_455
Cu2 Te1 2.684183 1_545
Cu2 Te1 2.684184 1_554
Cu2 Na0 3.167678 1_555
