# generated using pymatgen
data_Mg4(MoO4)3
_symmetry_space_group_name_H-M   'P 1'
_cell_length_a   5.24082500
_cell_length_b   10.74400600
_cell_length_c   17.35153900
_cell_angle_alpha   90.00000000
_cell_angle_beta   90.00000000
_cell_angle_gamma   90.00000000
_symmetry_Int_Tables_number   1
_chemical_formula_structural   Mg4(MoO4)3
_chemical_formula_sum   'Mg16 Mo12 O48'
_cell_volume   977.02100567
_cell_formula_units_Z   4
loop_
 _symmetry_equiv_pos_site_id
 _symmetry_equiv_pos_as_xyz
  1  'x, y, z'
loop_
 _atom_site_type_symbol
 _atom_site_label
 _atom_site_symmetry_multiplicity
 _atom_site_fract_x
 _atom_site_fract_y
 _atom_site_fract_z
 _atom_site_occupancy
  Mg  Mg0  1  0.07895200  0.25000000  0.25031200  1
  Mg  Mg1  1  0.92104800  0.75000000  0.74968800  1
  Mg  Mg2  1  0.42104800  0.75000000  0.75031200  1
  Mg  Mg3  1  0.57895200  0.25000000  0.24968800  1
  Mg  Mg4  1  0.23277900  0.07152300  0.52689900  1
  Mg  Mg5  1  0.76722100  0.92847700  0.47310100  1
  Mg  Mg6  1  0.26722100  0.92847700  0.02689900  1
  Mg  Mg7  1  0.76722100  0.57152300  0.47310100  1
  Mg  Mg8  1  0.73277900  0.07152300  0.97310100  1
  Mg  Mg9  1  0.23277900  0.42847700  0.52689900  1
  Mg  Mg10  1  0.73277900  0.42847700  0.97310100  1
  Mg  Mg11  1  0.26722100  0.57152300  0.02689900  1
  Mg  Mg12  1  0.25613500  0.25000000  0.69711100  1
  Mg  Mg13  1  0.74386500  0.75000000  0.30288900  1
  Mg  Mg14  1  0.24386500  0.75000000  0.19711100  1
  Mg  Mg15  1  0.75613500  0.25000000  0.80288900  1
  Mo  Mo0  1  0.29539100  0.53387100  0.33424100  1
  Mo  Mo1  1  0.70460900  0.46612900  0.66575900  1
  Mo  Mo2  1  0.20460900  0.46612900  0.83424100  1
  Mo  Mo3  1  0.70460900  0.03387100  0.66575900  1
  Mo  Mo4  1  0.79539100  0.53387100  0.16575900  1
  Mo  Mo5  1  0.29539100  0.96612900  0.33424100  1
  Mo  Mo6  1  0.79539100  0.96612900  0.16575900  1
  Mo  Mo7  1  0.20460900  0.03387100  0.83424100  1
  Mo  Mo8  1  0.27048600  0.25000000  0.05483500  1
  Mo  Mo9  1  0.72951400  0.75000000  0.94516500  1
  Mo  Mo10  1  0.22951400  0.75000000  0.55483500  1
  Mo  Mo11  1  0.77048600  0.25000000  0.44516500  1
  O  O0  1  0.05589200  0.25000000  0.50591700  1
  O  O1  1  0.94410800  0.75000000  0.49408300  1
  O  O2  1  0.44410800  0.75000000  0.00591700  1
  O  O3  1  0.55589200  0.25000000  0.99408300  1
  O  O4  1  0.07917600  0.11485500  0.03668100  1
  O  O5  1  0.92082400  0.88514500  0.96331900  1
  O  O6  1  0.42082400  0.88514500  0.53668100  1
  O  O7  1  0.92082400  0.61485500  0.96331900  1
  O  O8  1  0.57917600  0.11485500  0.46331900  1
  O  O9  1  0.07917600  0.38514500  0.03668100  1
  O  O10  1  0.57917600  0.38514500  0.46331900  1
  O  O11  1  0.42082400  0.61485500  0.53668100  1
  O  O12  1  0.09179500  0.00194100  0.42363100  1
  O  O13  1  0.90820500  0.99805900  0.57636900  1
  O  O14  1  0.40820500  0.99805900  0.92363100  1
  O  O15  1  0.90820500  0.50194100  0.57636900  1
  O  O16  1  0.59179500  0.00194100  0.07636900  1
  O  O17  1  0.09179500  0.49805900  0.42363100  1
  O  O18  1  0.59179500  0.49805900  0.07636900  1
  O  O19  1  0.40820500  0.50194100  0.92363100  1
  O  O20  1  0.32860400  0.12221800  0.29130600  1
  O  O21  1  0.67139600  0.87778200  0.70869400  1
  O  O22  1  0.17139600  0.87778200  0.79130600  1
  O  O23  1  0.67139600  0.62221800  0.70869400  1
  O  O24  1  0.82860400  0.12221800  0.20869400  1
  O  O25  1  0.32860400  0.37778200  0.29130600  1
  O  O26  1  0.82860400  0.37778200  0.20869400  1
  O  O27  1  0.17139600  0.62221800  0.79130600  1
  O  O28  1  0.33561600  0.25000000  0.15581300  1
  O  O29  1  0.66438400  0.75000000  0.84418700  1
  O  O30  1  0.16438400  0.75000000  0.65581300  1
  O  O31  1  0.83561600  0.25000000  0.34418700  1
  O  O32  1  0.04497400  0.62625800  0.27593000  1
  O  O33  1  0.95502600  0.37374200  0.72407000  1
  O  O34  1  0.45502600  0.37374200  0.77593000  1
  O  O35  1  0.95502600  0.12625800  0.72407000  1
  O  O36  1  0.54497400  0.62625800  0.22407000  1
  O  O37  1  0.04497400  0.87374200  0.27593000  1
  O  O38  1  0.54497400  0.87374200  0.22407000  1
  O  O39  1  0.45502600  0.12625800  0.77593000  1
  O  O40  1  0.05994700  0.62279000  0.12041000  1
  O  O41  1  0.94005300  0.37721000  0.87959000  1
  O  O42  1  0.44005300  0.37721000  0.62041000  1
  O  O43  1  0.94005300  0.12279000  0.87959000  1
  O  O44  1  0.55994700  0.62279000  0.37959000  1
  O  O45  1  0.05994700  0.87721000  0.12041000  1
  O  O46  1  0.55994700  0.87721000  0.37959000  1
  O  O47  1  0.44005300  0.12279000  0.62041000  1
loop_
_geom_bond_atom_site_label_1
_geom_bond_atom_site_label_2
_geom_bond_distance
_geom_bond_site_symmetry_2
Mg0 O25 2.025501 1_555
Mg0 O20 2.025501 1_555
Mg0 O24 2.031682 1_455
Mg0 O26 2.031682 1_455
Mg0 O31 2.068714 1_455
Mg0 O28 2.120850 1_555
Mg1 O23 2.025501 1_555
Mg1 O21 2.025501 1_555
Mg1 O22 2.031682 1_655
Mg1 O27 2.031682 1_655
Mg1 O30 2.068714 1_655
Mg1 O29 2.120850 1_555
Mg2 O27 2.025501 1_555
Mg2 O22 2.025501 1_555
Mg2 O21 2.031682 1_555
Mg2 O23 2.031682 1_555
Mg2 O29 2.068714 1_555
Mg2 O30 2.120850 1_555
Mg3 O26 2.025501 1_555
Mg3 O24 2.025501 1_555
Mg3 O25 2.031682 1_555
Mg3 O20 2.031682 1_555
Mg3 O28 2.068714 1_555
Mg3 O31 2.120850 1_555
Mg4 O47 2.028821 1_555
Mg4 O13 2.062360 1_445
Mg4 O12 2.077397 1_555
Mg4 O0 2.160779 1_555
Mg4 O8 2.174746 1_555
Mg4 O6 2.238265 1_545
Mg5 O46 2.028821 1_555
Mg5 O12 2.062360 1_665
Mg5 O13 2.077397 1_555
Mg5 O1 2.160779 1_555
Mg5 O6 2.174746 1_555
Mg5 O8 2.238265 1_565
Mg6 O45 2.028821 1_555
Mg6 O16 2.062360 1_565
Mg6 O14 2.077397 1_554
Mg6 O2 2.160779 1_555
Mg6 O5 2.174746 1_454
Mg6 O4 2.238265 1_565
Mg7 O44 2.028821 1_555
Mg7 O17 2.062360 1_655
Mg7 O15 2.077397 1_555
Mg7 O1 2.160779 1_555
Mg7 O11 2.174746 1_555
Mg7 O10 2.238265 1_555
Mg8 O43 2.028821 1_555
Mg8 O14 2.062360 1_545
Mg8 O16 2.077397 1_556
Mg8 O3 2.160779 1_555
Mg8 O4 2.174746 1_656
Mg8 O5 2.238265 1_545
Mg9 O42 2.028821 1_555
Mg9 O15 2.062360 1_455
Mg9 O17 2.077397 1_555
Mg9 O0 2.160779 1_555
Mg9 O10 2.174746 1_555
Mg9 O11 2.238265 1_555
Mg10 O41 2.028821 1_555
Mg10 O19 2.062360 1_555
Mg10 O18 2.077397 1_556
Mg10 O3 2.160779 1_555
Mg10 O9 2.174746 1_656
Mg10 O7 2.238265 1_555
Mg11 O40 2.028821 1_555
Mg11 O18 2.062360 1_555
Mg11 O19 2.077397 1_554
Mg11 O2 2.160779 1_555
Mg11 O7 2.174746 1_454
Mg11 O9 2.238265 1_555
Mg12 O35 2.115802 1_455
Mg12 O33 2.115802 1_455
Mg12 O47 2.137359 1_555
Mg12 O42 2.137359 1_555
Mg12 O34 2.173579 1_555
Mg12 O39 2.173579 1_555
Mg13 O32 2.115802 1_655
Mg13 O37 2.115802 1_655
Mg13 O44 2.137359 1_555
Mg13 O46 2.137359 1_555
Mg13 O38 2.173579 1_555
Mg13 O36 2.173579 1_555
Mg14 O36 2.115802 1_555
Mg14 O38 2.115802 1_555
Mg14 O40 2.137359 1_555
Mg14 O45 2.137359 1_555
Mg14 O32 2.173579 1_555
Mg14 O37 2.173579 1_555
Mg15 O39 2.115802 1_555
Mg15 O34 2.115802 1_555
Mg15 O41 2.137359 1_555
Mg15 O43 2.137359 1_555
Mg15 O33 2.173579 1_555
Mg15 O35 2.173579 1_555
Mo0 O25 1.843287 1_555
Mo0 O44 1.858553 1_555
Mo0 O17 1.921542 1_555
Mo0 O32 1.931670 1_555
Mo0 O36 2.520028 1_555
Mo1 O23 1.843287 1_555
Mo1 O42 1.858553 1_555
Mo1 O15 1.921542 1_555
Mo1 O33 1.931670 1_555
Mo1 O34 2.520028 1_555
Mo2 O27 1.843287 1_555
Mo2 O41 1.858553 1_455
Mo2 O19 1.921542 1_555
Mo2 O34 1.931670 1_555
Mo2 O33 2.520028 1_455
Mo3 O21 1.843287 1_545
Mo3 O47 1.858553 1_555
Mo3 O13 1.921542 1_545
Mo3 O35 1.931670 1_555
Mo3 O39 2.520028 1_555
Mo4 O26 1.843287 1_555
Mo4 O40 1.858553 1_655
Mo4 O18 1.921542 1_555
Mo4 O36 1.931670 1_555
Mo4 O32 2.520028 1_655
Mo5 O20 1.843287 1_565
Mo5 O46 1.858553 1_555
Mo5 O12 1.921542 1_565
Mo5 O37 1.931670 1_555
Mo5 O38 2.520028 1_555
Mo6 O24 1.843287 1_565
Mo6 O45 1.858553 1_655
Mo6 O16 1.921542 1_565
Mo6 O38 1.931670 1_555
Mo6 O37 2.520028 1_655
Mo7 O22 1.843287 1_545
Mo7 O43 1.858553 1_455
Mo7 O14 1.921542 1_545
Mo7 O39 1.931670 1_555
Mo7 O35 2.520028 1_455
Mo8 O28 1.785062 1_555
Mo8 O9 1.792422 1_555
Mo8 O4 1.792422 1_555
Mo8 O3 1.829896 1_554
Mo9 O29 1.785062 1_555
Mo9 O5 1.792422 1_555
Mo9 O7 1.792422 1_555
Mo9 O2 1.829896 1_556
Mo10 O30 1.785062 1_555
Mo10 O11 1.792422 1_555
Mo10 O6 1.792422 1_555
Mo10 O1 1.829896 1_455
Mo11 O31 1.785062 1_555
Mo11 O10 1.792422 1_555
Mo11 O8 1.792422 1_555
Mo11 O0 1.829896 1_655
