# generated using pymatgen
data_BeSbO3
_symmetry_space_group_name_H-M   'P 1'
_cell_length_a   3.57737100
_cell_length_b   3.57737100
_cell_length_c   3.57737100
_cell_angle_alpha   90.00000000
_cell_angle_beta   90.00000000
_cell_angle_gamma   90.00000000
_symmetry_Int_Tables_number   1
_chemical_formula_structural   BeSbO3
_chemical_formula_sum   'Be1 Sb1 O3'
_cell_volume   45.78170327
_cell_formula_units_Z   1
loop_
 _symmetry_equiv_pos_site_id
 _symmetry_equiv_pos_as_xyz
  1  'x, y, z'
loop_
 _atom_site_type_symbol
 _atom_site_label
 _atom_site_symmetry_multiplicity
 _atom_site_fract_x
 _atom_site_fract_y
 _atom_site_fract_z
 _atom_site_occupancy
  Be  Be0  1  0.00000000  0.00000000  0.00000000  1
  Sb  Sb0  1  0.50000000  0.50000000  0.50000000  1
  O  O0  1  0.00000000  0.00000000  0.50000000  1
  O  O1  1  0.00000000  0.50000000  0.00000000  1
  O  O2  1  0.50000000  0.00000000  0.00000000  1
loop_
_geom_bond_atom_site_label_1
_geom_bond_atom_site_label_2
_geom_bond_distance
_geom_bond_site_symmetry_2
Be0 O1 1.788685 1_555
Be0 O0 1.788685 1_555
Be0 O2 1.788685 1_455
Be0 O2 1.788685 1_555
Be0 O1 1.788685 1_545
Be0 O0 1.788685 1_554
O0 Sb0 2.529583 1_455
O0 Sb0 2.529583 1_445
O0 Sb0 2.529583 1_545
O0 Sb0 2.529583 1_555
O1 Sb0 2.529583 1_454
O1 Sb0 2.529583 1_554
O1 Sb0 2.529583 1_455
O1 Sb0 2.529583 1_555
O2 Sb0 2.529583 1_554
O2 Sb0 2.529583 1_545
O2 Sb0 2.529583 1_544
O2 Sb0 2.529583 1_555
