# generated using pymatgen
data_Zn3Sb2O7
_symmetry_space_group_name_H-M   'P 1'
_cell_length_a   10.10579769
_cell_length_b   10.10579769
_cell_length_c   5.45722300
_cell_angle_alpha   90.00000000
_cell_angle_beta   90.00000000
_cell_angle_gamma   148.30342793
_symmetry_Int_Tables_number   1
_chemical_formula_structural   Zn3Sb2O7
_chemical_formula_sum   'Zn6 Sb4 O14'
_cell_volume   292.83306813
_cell_formula_units_Z   2
loop_
 _symmetry_equiv_pos_site_id
 _symmetry_equiv_pos_as_xyz
  1  'x, y, z'
loop_
 _atom_site_type_symbol
 _atom_site_label
 _atom_site_symmetry_multiplicity
 _atom_site_fract_x
 _atom_site_fract_y
 _atom_site_fract_z
 _atom_site_occupancy
  Zn  Zn0  1  0.74373600  0.74373600  0.25591900  1
  Zn  Zn1  1  0.25626400  0.25626400  0.75591900  1
  Zn  Zn2  1  0.99401300  0.58140000  0.21268300  1
  Zn  Zn3  1  0.00598700  0.41860000  0.71268300  1
  Zn  Zn4  1  0.58140000  0.99401300  0.21268300  1
  Zn  Zn5  1  0.41860000  0.00598700  0.71268300  1
  Sb  Sb0  1  0.15379100  0.36290900  0.24682500  1
  Sb  Sb1  1  0.84620900  0.63709100  0.74682500  1
  Sb  Sb2  1  0.63709100  0.84620900  0.74682500  1
  Sb  Sb3  1  0.36290900  0.15379100  0.24682500  1
  O  O0  1  0.34148400  0.93122100  0.34034500  1
  O  O1  1  0.65851600  0.06877900  0.84034500  1
  O  O2  1  0.06877900  0.65851600  0.84034500  1
  O  O3  1  0.93122100  0.34148400  0.34034500  1
  O  O4  1  0.55309500  0.26893600  0.92382700  1
  O  O5  1  0.44690500  0.73106400  0.42382700  1
  O  O6  1  0.73106400  0.44690500  0.42382700  1
  O  O7  1  0.26893600  0.55309500  0.92382700  1
  O  O8  1  0.00035900  0.84499000  0.08303800  1
  O  O9  1  0.99964100  0.15501000  0.58303800  1
  O  O10  1  0.39259700  0.39259700  0.11064500  1
  O  O11  1  0.60740300  0.60740300  0.61064500  1
  O  O12  1  0.84499000  0.00035900  0.08303800  1
  O  O13  1  0.15501000  0.99964100  0.58303800  1
loop_
_geom_bond_atom_site_label_1
_geom_bond_atom_site_label_2
_geom_bond_distance
_geom_bond_site_symmetry_2
O0 Zn4 2.036751 1_555
O0 Zn2 2.046743 1_455
O0 Zn5 2.074841 1_565
O0 Sb3 2.130197 1_565
O1 Zn5 2.036751 1_555
O1 Zn3 2.046743 1_655
O1 Zn4 2.074841 1_546
O1 Sb2 2.130197 1_545
O2 Zn3 2.036751 1_555
O2 Zn5 2.046743 1_565
O2 Zn2 2.074841 1_456
O2 Sb1 2.130197 1_455
O3 Zn2 2.036751 1_555
O3 Zn4 2.046743 1_545
O3 Zn3 2.074841 1_655
O3 Sb0 2.130197 1_655
O4 Zn5 2.022446 1_555
O4 Sb3 2.085493 1_556
O4 Sb1 2.189924 1_555
O5 Zn4 2.022446 1_555
O5 Sb2 2.085493 1_555
O5 Sb0 2.189924 1_555
O6 Zn2 2.022446 1_555
O6 Sb1 2.085493 1_555
O6 Sb3 2.189924 1_555
O7 Zn3 2.022446 1_555
O7 Sb0 2.085493 1_556
O7 Sb2 2.189924 1_555
O8 Zn0 2.036426 1_455
O8 Sb3 2.122454 1_565
O8 Sb1 2.153569 1_454
O9 Zn1 2.036426 1_655
O9 Sb2 2.122454 1_545
O9 Sb0 2.153569 1_655
O10 Zn1 2.076935 1_554
O10 Zn0 2.094025 1_555
O10 Sb0 2.287869 1_555
O10 Sb3 2.287869 1_555
O11 Zn0 2.076935 1_555
O11 Zn1 2.094025 1_555
O11 Sb1 2.287869 1_555
O11 Sb2 2.287869 1_555
O12 Zn0 2.036426 1_545
O12 Sb0 2.122454 1_655
O12 Sb2 2.153569 1_544
O13 Zn1 2.036426 1_565
O13 Sb1 2.122454 1_455
O13 Sb3 2.153569 1_565
