# generated using pymatgen
data_Ce2ZrS5
_symmetry_space_group_name_H-M   'P 1'
_cell_length_a   7.41289223
_cell_length_b   8.08837526
_cell_length_c   11.59057401
_cell_angle_alpha   90.00000000
_cell_angle_beta   90.00000000
_cell_angle_gamma   90.00000000
_symmetry_Int_Tables_number   1
_chemical_formula_structural   Ce2ZrS5
_chemical_formula_sum   'Ce8 Zr4 S20'
_cell_volume   694.95058187
_cell_formula_units_Z   4
loop_
 _symmetry_equiv_pos_site_id
 _symmetry_equiv_pos_as_xyz
  1  'x, y, z'
loop_
 _atom_site_type_symbol
 _atom_site_label
 _atom_site_symmetry_multiplicity
 _atom_site_fract_x
 _atom_site_fract_y
 _atom_site_fract_z
 _atom_site_occupancy
  Ce  Ce0  1  0.54573006  0.50017456  0.32574742  1
  Ce  Ce1  1  0.95426994  -0.00017456  0.82574742  1
  Ce  Ce2  1  0.45426994  0.00017456  0.67425258  1
  Ce  Ce3  1  0.04573006  0.49982544  0.17425258  1
  Ce  Ce4  1  0.45426994  0.49982544  0.67425258  1
  Ce  Ce5  1  0.04573006  0.00017456  0.17425258  1
  Ce  Ce6  1  0.54573006  -0.00017456  0.32574742  1
  Ce  Ce7  1  0.95426994  0.50017456  0.82574742  1
  Zr  Zr0  1  0.07398946  0.75000000  0.49158573  1
  Zr  Zr1  1  0.42601054  0.75000000  0.99158573  1
  Zr  Zr2  1  0.92601054  0.25000000  0.50841427  1
  Zr  Zr3  1  0.57398946  0.25000000  0.00841427  1
  S  S0  1  0.82906266  0.96512637  0.58068554  1
  S  S1  1  0.67093734  0.53487363  0.08068554  1
  S  S2  1  0.17093734  0.46512637  0.41931446  1
  S  S3  1  0.32906266  0.03487363  0.91931446  1
  S  S4  1  0.17093734  0.03487363  0.41931446  1
  S  S5  1  0.32906266  0.46512637  0.91931446  1
  S  S6  1  0.82906266  0.53487363  0.58068554  1
  S  S7  1  0.67093734  0.96512637  0.08068554  1
  S  S8  1  0.85141310  0.75000000  0.31225060  1
  S  S9  1  0.64858690  0.75000000  0.81225060  1
  S  S10  1  0.14858690  0.25000000  0.68774940  1
  S  S11  1  0.35141310  0.25000000  0.18774940  1
  S  S12  1  0.44466809  0.75000000  0.49605432  1
  S  S13  1  0.05533191  0.75000000  0.99605432  1
  S  S14  1  0.55533191  0.25000000  0.50394568  1
  S  S15  1  0.94466809  0.25000000  0.00394568  1
  S  S16  1  0.17012414  0.75000000  0.70747168  1
  S  S17  1  0.32987586  0.75000000  0.20747168  1
  S  S18  1  0.82987586  0.25000000  0.29252832  1
  S  S19  1  0.67012414  0.25000000  0.79252832  1
loop_
_geom_bond_atom_site_label_1
_geom_bond_atom_site_label_2
_geom_bond_distance
_geom_bond_site_symmetry_2
Ce0 S14 2.892335 1_555
Ce0 S17 2.919385 1_555
Ce0 S12 2.922481 1_555
Ce0 S18 2.946099 1_555
Ce0 S11 2.954285 1_555
Ce0 S2 2.995903 1_555
Ce0 S1 3.001357 1_555
Ce0 S8 3.040125 1_555
Ce1 S15 2.892335 1_556
Ce1 S16 2.919385 1_645
Ce1 S13 2.922481 1_645
Ce1 S19 2.946099 1_555
Ce1 S10 2.954285 1_655
Ce1 S3 2.995903 1_655
Ce1 S0 3.001357 1_545
Ce1 S9 3.040125 1_545
Ce2 S12 2.892335 1_545
Ce2 S19 2.919385 1_555
Ce2 S14 2.922481 1_555
Ce2 S16 2.946099 1_545
Ce2 S9 2.954285 1_545
Ce2 S0 2.995903 1_545
Ce2 S3 3.001357 1_555
Ce2 S10 3.040125 1_555
Ce3 S13 2.892335 1_554
Ce3 S18 2.919385 1_455
Ce3 S15 2.922481 1_455
Ce3 S17 2.946099 1_555
Ce3 S8 2.954285 1_455
Ce3 S1 2.995903 1_455
Ce3 S2 3.001357 1_555
Ce3 S11 3.040125 1_555
Ce4 S12 2.892335 1_555
Ce4 S19 2.919385 1_555
Ce4 S14 2.922481 1_555
Ce4 S16 2.946099 1_555
Ce4 S9 2.954285 1_555
Ce4 S6 2.995903 1_555
Ce4 S5 3.001357 1_555
Ce4 S10 3.040125 1_555
Ce5 S13 2.892335 1_544
Ce5 S18 2.919385 1_455
Ce5 S15 2.922481 1_455
Ce5 S17 2.946099 1_545
Ce5 S8 2.954285 1_445
Ce5 S7 2.995903 1_445
Ce5 S4 3.001357 1_555
Ce5 S11 3.040125 1_555
Ce6 S14 2.892335 1_555
Ce6 S17 2.919385 1_545
Ce6 S12 2.922481 1_545
Ce6 S18 2.946099 1_555
Ce6 S11 2.954285 1_555
Ce6 S4 2.995903 1_555
Ce6 S7 3.001357 1_545
Ce6 S8 3.040125 1_545
Ce7 S15 2.892335 1_556
Ce7 S16 2.919385 1_655
Ce7 S13 2.922481 1_655
Ce7 S19 2.946099 1_555
Ce7 S10 2.954285 1_655
Ce7 S5 2.995903 1_655
Ce7 S6 3.001357 1_555
Ce7 S9 3.040125 1_555
S0 Zr2 2.554865 1_565
S0 Zr0 2.718574 1_655
S1 Zr3 2.554865 1_555
S1 Zr1 2.718574 1_554
S2 Zr0 2.554865 1_555
S2 Zr2 2.718574 1_455
S3 Zr1 2.554865 1_545
S3 Zr3 2.718574 1_556
S4 Zr0 2.554865 1_545
S4 Zr2 2.718574 1_455
S5 Zr1 2.554865 1_555
S5 Zr3 2.718574 1_556
S6 Zr2 2.554865 1_555
S6 Zr0 2.718574 1_655
S7 Zr3 2.554865 1_565
S7 Zr1 2.718574 1_554
S8 Zr0 2.653837 1_655
S9 Zr1 2.653837 1_555
S10 Zr2 2.653837 1_455
S11 Zr3 2.653837 1_555
S12 Zr0 2.748289 1_555
S13 Zr1 2.748289 1_555
S14 Zr2 2.748289 1_555
S15 Zr3 2.748289 1_555
S16 Zr0 2.601743 1_555
S17 Zr1 2.601743 1_554
S18 Zr2 2.601743 1_555
S19 Zr3 2.601743 1_556
