# generated using pymatgen
data_NaSr2LaTi4O12
_symmetry_space_group_name_H-M   'P 1'
_cell_length_a   5.54127700
_cell_length_b   5.54127700
_cell_length_c   7.88572500
_cell_angle_alpha   90.00000000
_cell_angle_beta   90.00000000
_cell_angle_gamma   90.00000000
_symmetry_Int_Tables_number   1
_chemical_formula_structural   NaSr2LaTi4O12
_chemical_formula_sum   'Na1 Sr2 La1 Ti4 O12'
_cell_volume   242.13710665
_cell_formula_units_Z   1
loop_
 _symmetry_equiv_pos_site_id
 _symmetry_equiv_pos_as_xyz
  1  'x, y, z'
loop_
 _atom_site_type_symbol
 _atom_site_label
 _atom_site_symmetry_multiplicity
 _atom_site_fract_x
 _atom_site_fract_y
 _atom_site_fract_z
 _atom_site_occupancy
  Na  Na0  1  0.50000000  0.50000000  0.00000000  1
  Sr  Sr0  1  0.00000000  0.00000000  0.50000000  1
  Sr  Sr1  1  0.50000000  0.50000000  0.50000000  1
  La  La0  1  0.00000000  0.00000000  0.00000000  1
  Ti  Ti0  1  0.00000000  0.50000000  0.24799100  1
  Ti  Ti1  1  0.50000000  0.00000000  0.75200900  1
  Ti  Ti2  1  0.50000000  0.00000000  0.24799100  1
  Ti  Ti3  1  0.00000000  0.50000000  0.75200900  1
  O  O0  1  0.21691500  0.21691500  0.75354700  1
  O  O1  1  0.72808000  0.72808000  0.24850900  1
  O  O2  1  0.27192000  0.27192000  0.24850900  1
  O  O3  1  0.78308500  0.78308500  0.75354700  1
  O  O4  1  0.78308500  0.21691500  0.24645300  1
  O  O5  1  0.27192000  0.72808000  0.75149100  1
  O  O6  1  0.21691500  0.78308500  0.24645300  1
  O  O7  1  0.72808000  0.27192000  0.75149100  1
  O  O8  1  0.00000000  0.50000000  0.00000000  1
  O  O9  1  0.50000000  0.00000000  0.50000000  1
  O  O10  1  0.50000000  0.00000000  0.00000000  1
  O  O11  1  0.00000000  0.50000000  0.50000000  1
loop_
_geom_bond_atom_site_label_1
_geom_bond_atom_site_label_2
_geom_bond_distance
_geom_bond_site_symmetry_2
Na0 O7 2.652353 1_554
Na0 O1 2.652353 1_555
Na0 O5 2.652353 1_554
Na0 O2 2.652353 1_555
Na0 O8 2.770639 1_555
Na0 O10 2.770639 1_565
Na0 O10 2.770639 1_555
Na0 O8 2.770639 1_655
Na0 O6 2.949302 1_555
Na0 O0 2.949302 1_554
Na0 O3 2.949302 1_554
Na0 O4 2.949302 1_555
La0 O6 2.581972 1_545
La0 O0 2.581972 1_554
La0 O3 2.581972 1_444
La0 O4 2.581972 1_455
La0 O8 2.770639 1_545
La0 O8 2.770639 1_555
La0 O10 2.770639 1_555
La0 O10 2.770639 1_455
La0 O2 2.895016 1_555
La0 O7 2.895016 1_454
La0 O5 2.895016 1_544
La0 O1 2.895016 1_445
O0 Ti3 1.976256 1_555
O0 Ti1 1.976256 1_555
O0 Sr0 2.624338 1_555
O0 Sr1 2.986461 1_555
O1 Ti2 1.966658 1_565
O1 Ti0 1.966658 1_655
O1 Sr1 2.669774 1_555
O1 Sr0 2.910985 1_665
O2 Ti0 1.966658 1_555
O2 Ti2 1.966658 1_555
O2 Sr1 2.669774 1_555
O2 Sr0 2.910985 1_555
O3 Ti1 1.976256 1_565
O3 Ti3 1.976256 1_655
O3 Sr0 2.624338 1_665
O3 Sr1 2.986461 1_555
O4 Ti2 1.976256 1_555
O4 Ti0 1.976256 1_655
O4 Sr0 2.624338 1_655
O4 Sr1 2.986461 1_555
O5 Ti3 1.966658 1_555
O5 Ti1 1.966658 1_565
O5 Sr1 2.669774 1_555
O5 Sr0 2.910985 1_565
O6 Ti0 1.976256 1_555
O6 Ti2 1.976256 1_565
O6 Sr0 2.624338 1_565
O6 Sr1 2.986461 1_555
O7 Ti1 1.966658 1_555
O7 Ti3 1.966658 1_655
O7 Sr1 2.669774 1_555
O7 Sr0 2.910985 1_655
O8 Ti3 1.955589 1_554
O8 Ti0 1.955589 1_555
O9 Ti1 1.987274 1_555
O9 Ti2 1.987274 1_555
O9 Sr0 2.770639 1_555
O9 Sr0 2.770639 1_655
O9 Sr1 2.770639 1_545
O9 Sr1 2.770639 1_555
O10 Ti1 1.955589 1_554
O10 Ti2 1.955589 1_555
O11 Ti3 1.987274 1_555
O11 Ti0 1.987274 1_555
O11 Sr0 2.770639 1_555
O11 Sr1 2.770639 1_455
O11 Sr0 2.770639 1_565
O11 Sr1 2.770639 1_555
