# generated using pymatgen
data_LiEr6Ta2O14
_symmetry_space_group_name_H-M   'P 1'
_cell_length_a   6.62041998
_cell_length_b   6.62042028
_cell_length_c   7.22819752
_cell_angle_alpha   89.83774994
_cell_angle_beta   89.83775152
_cell_angle_gamma   109.61799627
_symmetry_Int_Tables_number   1
_chemical_formula_structural   LiEr6Ta2O14
_chemical_formula_sum   'Li1 Er6 Ta2 O14'
_cell_volume   298.41775750
_cell_formula_units_Z   1
loop_
 _symmetry_equiv_pos_site_id
 _symmetry_equiv_pos_as_xyz
  1  'x, y, z'
loop_
 _atom_site_type_symbol
 _atom_site_label
 _atom_site_symmetry_multiplicity
 _atom_site_fract_x
 _atom_site_fract_y
 _atom_site_fract_z
 _atom_site_occupancy
  Li  Li0  1  0.18498300  0.18498300  0.21985300  1
  Er  Er0  1  0.05202600  0.53424700  0.24884000  1
  Er  Er1  1  0.91789300  0.91789300  0.98000900  1
  Er  Er2  1  0.92616100  0.92616100  0.50545900  1
  Er  Er3  1  0.47227200  0.95097100  0.74731700  1
  Er  Er4  1  0.53424700  0.05202600  0.24884000  1
  Er  Er5  1  0.95097100  0.47227200  0.74731700  1
  Ta  Ta0  1  0.49099500  0.49099500  0.97838200  1
  Ta  Ta1  1  0.49225400  0.49225400  0.51652700  1
  O  O0  1  0.10804800  0.84074200  0.74603700  1
  O  O1  1  0.15536300  0.89716500  0.24592000  1
  O  O2  1  0.19455200  0.47824400  0.53573700  1
  O  O3  1  0.19017300  0.46867200  0.96304200  1
  O  O4  1  0.56433700  0.82217300  0.03506200  1
  O  O5  1  0.56925200  0.82460400  0.45980200  1
  O  O6  1  0.42224400  0.42224400  0.24871900  1
  O  O7  1  0.64054300  0.64054300  0.74824800  1
  O  O8  1  0.46867200  0.19017300  0.96304200  1
  O  O9  1  0.47824400  0.19455200  0.53573700  1
  O  O10  1  0.82217300  0.56433700  0.03506200  1
  O  O11  1  0.82460400  0.56925200  0.45980200  1
  O  O12  1  0.84074200  0.10804800  0.74603700  1
  O  O13  1  0.89716500  0.15536300  0.24592000  1
loop_
_geom_bond_atom_site_label_1
_geom_bond_atom_site_label_2
_geom_bond_distance
_geom_bond_site_symmetry_2
Li0 O6 1.823481 1_555
Li0 O13 1.857860 1_455
Li0 O1 1.857860 1_545
Er0 O11 2.206620 1_455
Er0 O10 2.226700 1_455
Er0 O1 2.266532 1_555
Er0 O3 2.356586 1_554
Er0 O2 2.360062 1_555
Er0 O13 2.370030 1_455
Er1 O4 2.244108 1_556
Er1 O10 2.244109 1_556
Er1 O12 2.265059 1_565
Er1 O0 2.265059 1_655
Er1 O1 2.518985 1_656
Er1 O13 2.518985 1_566
Er2 O5 2.254569 1_555
Er2 O11 2.254569 1_555
Er2 O0 2.292883 1_655
Er2 O12 2.292883 1_565
Er2 O1 2.457699 1_655
Er2 O13 2.457699 1_565
Er3 O9 2.209940 1_565
Er3 O8 2.231358 1_565
Er3 O0 2.272801 1_555
Er3 O12 2.308394 1_565
Er3 O4 2.402210 1_556
Er3 O5 2.407091 1_555
Er3 O7 2.646157 1_555
Er4 O5 2.206620 1_545
Er4 O4 2.226700 1_545
Er4 O13 2.266532 1_555
Er4 O8 2.356586 1_554
Er4 O9 2.360062 1_555
Er4 O1 2.370030 1_545
Er5 O2 2.209940 1_655
Er5 O3 2.231358 1_655
Er5 O12 2.272802 1_555
Er5 O0 2.308394 1_655
Er5 O10 2.402210 1_556
Er5 O11 2.407090 1_555
Er5 O7 2.646157 1_555
O2 Ta1 1.946279 1_555
O3 Ta0 1.950431 1_555
O4 Ta0 2.121833 1_554
O5 Ta1 2.123634 1_555
O6 Ta1 2.010663 1_555
O6 Ta0 2.020758 1_554
O7 Ta0 2.012630 1_555
O7 Ta1 2.025937 1_555
O8 Ta0 1.950431 1_555
O9 Ta1 1.946279 1_555
O10 Ta0 2.121833 1_554
O11 Ta1 2.123634 1_555
