# generated using pymatgen
data_RbNaMg6O7
_symmetry_space_group_name_H-M   'P 1'
_cell_length_a   4.24421500
_cell_length_b   4.24421500
_cell_length_c   11.40709800
_cell_angle_alpha   90.00000000
_cell_angle_beta   90.00000000
_cell_angle_gamma   90.00000000
_symmetry_Int_Tables_number   1
_chemical_formula_structural   RbNaMg6O7
_chemical_formula_sum   'Rb1 Na1 Mg6 O7'
_cell_volume   205.48017385
_cell_formula_units_Z   1
loop_
 _symmetry_equiv_pos_site_id
 _symmetry_equiv_pos_as_xyz
  1  'x, y, z'
loop_
 _atom_site_type_symbol
 _atom_site_label
 _atom_site_symmetry_multiplicity
 _atom_site_fract_x
 _atom_site_fract_y
 _atom_site_fract_z
 _atom_site_occupancy
  Rb  Rb0  1  0.00000000  0.00000000  0.54194600  1
  Na  Na0  1  0.00000000  0.00000000  0.01726300  1
  Mg  Mg0  1  0.50000000  0.50000000  0.00812400  1
  Mg  Mg1  1  0.50000000  0.50000000  0.40384100  1
  Mg  Mg2  1  0.00000000  0.50000000  0.21400000  1
  Mg  Mg3  1  0.00000000  0.50000000  0.83571100  1
  Mg  Mg4  1  0.50000000  0.00000000  0.21400000  1
  Mg  Mg5  1  0.50000000  0.00000000  0.83571100  1
  O  O0  1  0.00000000  0.00000000  0.21115400  1
  O  O1  1  0.00000000  0.00000000  0.80354200  1
  O  O2  1  0.50000000  0.50000000  0.82847000  1
  O  O3  1  0.00000000  0.50000000  0.02672500  1
  O  O4  1  0.00000000  0.50000000  0.39139300  1
  O  O5  1  0.50000000  0.00000000  0.02672500  1
  O  O6  1  0.50000000  0.00000000  0.39139300  1
loop_
_geom_bond_atom_site_label_1
_geom_bond_atom_site_label_2
_geom_bond_distance
_geom_bond_site_symmetry_2
Na0 O5 2.124851 1_455
Na0 O3 2.124851 1_545
Na0 O5 2.124851 1_555
Na0 O3 2.124851 1_555
Na0 O0 2.211734 1_555
Na0 O1 2.437936 1_554
Mg0 O2 2.049331 1_554
Mg0 O3 2.132689 1_655
Mg0 O5 2.132689 1_555
Mg0 O5 2.132689 1_565
Mg0 O3 2.132689 1_555
Mg1 O4 2.126853 1_555
Mg1 O6 2.126853 1_555
Mg1 O4 2.126853 1_655
Mg1 O6 2.126853 1_565
Mg2 O4 2.023539 1_555
Mg2 O0 2.122356 1_555
Mg2 O0 2.122356 1_565
Mg2 O3 2.136264 1_555
Mg3 O2 2.123714 1_555
Mg3 O2 2.123714 1_455
Mg3 O1 2.153601 1_555
Mg3 O1 2.153601 1_565
Mg3 O3 2.178915 1_556
Mg4 O6 2.023539 1_555
Mg4 O0 2.122356 1_555
Mg4 O0 2.122356 1_655
Mg4 O5 2.136264 1_555
Mg5 O2 2.123714 1_555
Mg5 O2 2.123714 1_545
Mg5 O1 2.153601 1_555
Mg5 O1 2.153601 1_655
Mg5 O5 2.178915 1_556
O1 Rb0 2.984051 1_555
O4 Rb0 2.729965 1_565
O4 Rb0 2.729965 1_555
O6 Rb0 2.729965 1_655
O6 Rb0 2.729965 1_555
