# generated using pymatgen
data_KCd(BH4)3
_symmetry_space_group_name_H-M   'P 1'
_cell_length_a   15.70512116
_cell_length_b   15.70512116
_cell_length_c   15.70512116
_cell_angle_alpha   109.47122063
_cell_angle_beta   109.47122063
_cell_angle_gamma   109.47122063
_symmetry_Int_Tables_number   1
_chemical_formula_structural   KCd(BH4)3
_chemical_formula_sum   'K16 Cd16 B48 H192'
_cell_volume   2981.96116299
_cell_formula_units_Z   16
loop_
 _symmetry_equiv_pos_site_id
 _symmetry_equiv_pos_as_xyz
  1  'x, y, z'
loop_
 _atom_site_type_symbol
 _atom_site_label
 _atom_site_symmetry_multiplicity
 _atom_site_fract_x
 _atom_site_fract_y
 _atom_site_fract_z
 _atom_site_occupancy
  K  K0  1  0.12897247  0.75000000  0.37897247  1
  K  K1  1  0.37102753  0.25000000  0.12102753  1
  K  K2  1  0.75000000  0.37897247  0.12897247  1
  K  K3  1  0.25000000  0.12102753  0.37102753  1
  K  K4  1  0.37897247  0.12897247  0.75000000  1
  K  K5  1  0.12102753  0.37102753  0.25000000  1
  K  K6  1  0.87102753  0.25000000  0.62102753  1
  K  K7  1  0.62897247  0.75000000  0.87897247  1
  K  K8  1  0.25000000  0.62102753  0.87102753  1
  K  K9  1  0.75000000  0.87897247  0.62897247  1
  K  K10  1  0.62102753  0.87102753  0.25000000  1
  K  K11  1  0.87897247  0.62897247  0.75000000  1
  K  K12  1  0.00000000  0.50000000  0.50000000  1
  K  K13  1  0.50000000  0.00000000  0.50000000  1
  K  K14  1  0.50000000  0.50000000  0.00000000  1
  K  K15  1  0.00000000  0.00000000  0.00000000  1
  Cd  Cd0  1  0.87710500  0.75000000  0.12710500  1
  Cd  Cd1  1  0.62289500  0.25000000  0.37289500  1
  Cd  Cd2  1  0.75000000  0.12710500  0.87710500  1
  Cd  Cd3  1  0.25000000  0.37289500  0.62289500  1
  Cd  Cd4  1  0.12710500  0.87710500  0.75000000  1
  Cd  Cd5  1  0.37289500  0.62289500  0.25000000  1
  Cd  Cd6  1  0.12289500  0.25000000  0.87289500  1
  Cd  Cd7  1  0.37710500  0.75000000  0.62710500  1
  Cd  Cd8  1  0.25000000  0.87289500  0.12289500  1
  Cd  Cd9  1  0.75000000  0.62710500  0.37710500  1
  Cd  Cd10  1  0.87289500  0.12289500  0.25000000  1
  Cd  Cd11  1  0.62710500  0.37710500  0.75000000  1
  Cd  Cd12  1  0.00000000  0.50000000  0.00000000  1
  Cd  Cd13  1  0.00000000  0.00000000  0.50000000  1
  Cd  Cd14  1  0.50000000  0.00000000  0.00000000  1
  Cd  Cd15  1  0.50000000  0.50000000  0.50000000  1
  B  B0  1  0.61179576  0.11767512  0.93481783  1
  B  B1  1  0.31714271  0.38232488  0.49412063  1
  B  B2  1  0.88820424  0.32302207  0.00587937  1
  B  B3  1  0.18285729  0.17697793  0.56518217  1
  B  B4  1  0.11767512  0.93481783  0.61179576  1
  B  B5  1  0.38232488  0.49412063  0.31714271  1
  B  B6  1  0.32302207  0.00587937  0.88820424  1
  B  B7  1  0.17697793  0.56518217  0.18285729  1
  B  B8  1  0.93481783  0.61179576  0.11767512  1
  B  B9  1  0.49412063  0.31714271  0.38232488  1
  B  B10  1  0.00587937  0.88820424  0.32302207  1
  B  B11  1  0.56518217  0.18285729  0.17697793  1
  B  B12  1  0.38820424  0.88232488  0.06518217  1
  B  B13  1  0.68285729  0.61767512  0.50587937  1
  B  B14  1  0.11179576  0.67697793  0.99412063  1
  B  B15  1  0.81714271  0.82302207  0.43481783  1
  B  B16  1  0.88232488  0.06518217  0.38820424  1
  B  B17  1  0.61767512  0.50587937  0.68285729  1
  B  B18  1  0.67697793  0.99412063  0.11179576  1
  B  B19  1  0.82302207  0.43481783  0.81714271  1
  B  B20  1  0.06518217  0.38820424  0.88232488  1
  B  B21  1  0.50587937  0.68285729  0.61767512  1
  B  B22  1  0.99412063  0.11179576  0.67697793  1
  B  B23  1  0.43481783  0.81714271  0.82302207  1
  B  B24  1  0.26604483  0.89377368  0.29402344  1
  B  B25  1  0.90024976  0.60622632  0.37227116  1
  B  B26  1  0.23395517  0.02797861  0.12772884  1
  B  B27  1  0.59975024  0.47202139  0.20597656  1
  B  B28  1  0.89377368  0.29402344  0.26604483  1
  B  B29  1  0.60622632  0.37227116  0.90024976  1
  B  B30  1  0.02797861  0.12772884  0.23395517  1
  B  B31  1  0.47202139  0.20597656  0.59975024  1
  B  B32  1  0.29402344  0.26604483  0.89377368  1
  B  B33  1  0.37227116  0.90024976  0.60622632  1
  B  B34  1  0.12772884  0.23395517  0.02797861  1
  B  B35  1  0.20597656  0.59975024  0.47202139  1
  B  B36  1  0.73395517  0.10622632  0.70597656  1
  B  B37  1  0.09975024  0.39377368  0.62772884  1
  B  B38  1  0.76604483  0.97202139  0.87227116  1
  B  B39  1  0.40024976  0.52797861  0.79402344  1
  B  B40  1  0.10622632  0.70597656  0.73395517  1
  B  B41  1  0.39377368  0.62772884  0.09975024  1
  B  B42  1  0.97202139  0.87227116  0.76604483  1
  B  B43  1  0.52797861  0.79402344  0.40024976  1
  B  B44  1  0.70597656  0.73395517  0.10622632  1
  B  B45  1  0.62772884  0.09975024  0.39377368  1
  B  B46  1  0.87227116  0.76604483  0.97202139  1
  B  B47  1  0.79402344  0.40024976  0.52797861  1
  H  H0  1  0.54903617  0.14537501  0.93856260  1
  H  H1  1  0.29318760  0.35462499  0.40366116  1
  H  H2  1  0.95096383  0.38952644  0.09633884  1
  H  H3  1  0.20681240  0.11047356  0.56143740  1
  H  H4  1  0.14537501  0.93856260  0.54903617  1
  H  H5  1  0.35462499  0.40366116  0.29318760  1
  H  H6  1  0.38952644  0.09633884  0.95096383  1
  H  H7  1  0.11047356  0.56143740  0.20681240  1
  H  H8  1  0.93856260  0.54903617  0.14537501  1
  H  H9  1  0.40366116  0.29318760  0.35462499  1
  H  H10  1  0.09633884  0.95096383  0.38952644  1
  H  H11  1  0.56143740  0.20681240  0.11047356  1
  H  H12  1  0.45096383  0.85462499  0.06143740  1
  H  H13  1  0.70681240  0.64537501  0.59633884  1
  H  H14  1  0.04903617  0.61047356  0.90366116  1
  H  H15  1  0.79318760  0.88952644  0.43856260  1
  H  H16  1  0.85462499  0.06143740  0.45096383  1
  H  H17  1  0.64537501  0.59633884  0.70681240  1
  H  H18  1  0.61047356  0.90366116  0.04903617  1
  H  H19  1  0.88952644  0.43856260  0.79318760  1
  H  H20  1  0.06143740  0.45096383  0.85462499  1
  H  H21  1  0.59633884  0.70681240  0.64537501  1
  H  H22  1  0.90366116  0.04903617  0.61047356  1
  H  H23  1  0.43856260  0.79318760  0.88952644  1
  H  H24  1  0.69605355  0.17635096  0.01450097  1
  H  H25  1  0.33815001  0.32364904  0.51970259  1
  H  H26  1  0.80394645  0.31844743  0.98029741  1
  H  H27  1  0.16184999  0.18155257  0.48549903  1
  H  H28  1  0.17635096  0.01450097  0.69605355  1
  H  H29  1  0.32364904  0.51970259  0.33815001  1
  H  H30  1  0.31844743  0.98029741  0.80394645  1
  H  H31  1  0.18155257  0.48549903  0.16184999  1
  H  H32  1  0.01450097  0.69605355  0.17635096  1
  H  H33  1  0.51970259  0.33815001  0.32364904  1
  H  H34  1  0.98029741  0.80394645  0.31844743  1
  H  H35  1  0.48549903  0.16184999  0.18155257  1
  H  H36  1  0.30394645  0.82364904  0.98549903  1
  H  H37  1  0.66184999  0.67635096  0.48029741  1
  H  H38  1  0.19605355  0.68155257  0.01970259  1
  H  H39  1  0.83815001  0.81844743  0.51450097  1
  H  H40  1  0.82364904  0.98549903  0.30394645  1
  H  H41  1  0.67635096  0.48029741  0.66184999  1
  H  H42  1  0.68155257  0.01970259  0.19605355  1
  H  H43  1  0.81844743  0.51450097  0.83815001  1
  H  H44  1  0.98549903  0.30394645  0.82364904  1
  H  H45  1  0.48029741  0.66184999  0.67635096  1
  H  H46  1  0.01970259  0.19605355  0.68155257  1
  H  H47  1  0.51450097  0.83815001  0.81844743  1
  H  H48  1  0.60985228  0.11492233  0.85333100  1
  H  H49  1  0.23840866  0.38507767  0.49492995  1
  H  H50  1  0.89014772  0.24347872  0.00507005  1
  H  H51  1  0.26159134  0.25652128  0.64666900  1
  H  H52  1  0.11492233  0.85333100  0.60985228  1
  H  H53  1  0.38507767  0.49492995  0.23840866  1
  H  H54  1  0.24347872  0.00507005  0.89014772  1
  H  H55  1  0.25652128  0.64666900  0.26159134  1
  H  H56  1  0.85333100  0.60985228  0.11492233  1
  H  H57  1  0.49492995  0.23840866  0.38507767  1
  H  H58  1  0.00507005  0.89014772  0.24347872  1
  H  H59  1  0.64666900  0.26159134  0.25652128  1
  H  H60  1  0.39014772  0.88507767  0.14666900  1
  H  H61  1  0.76159134  0.61492233  0.50507005  1
  H  H62  1  0.10985228  0.75652128  0.99492995  1
  H  H63  1  0.73840866  0.74347872  0.35333100  1
  H  H64  1  0.88507767  0.14666900  0.39014772  1
  H  H65  1  0.61492233  0.50507005  0.76159134  1
  H  H66  1  0.75652128  0.99492995  0.10985228  1
  H  H67  1  0.74347872  0.35333100  0.73840866  1
  H  H68  1  0.14666900  0.39014772  0.88507767  1
  H  H69  1  0.50507005  0.76159134  0.61492233  1
  H  H70  1  0.99492995  0.10985228  0.75652128  1
  H  H71  1  0.35333100  0.73840866  0.74347872  1
  H  H72  1  0.58493164  0.02830613  0.91820360  1
  H  H73  1  0.38989747  0.47169387  0.55662551  1
  H  H74  1  0.91506836  0.33327196  0.94337449  1
  H  H75  1  0.11010253  0.16672804  0.58179640  1
  H  H76  1  0.02830613  0.91820360  0.58493164  1
  H  H77  1  0.47169387  0.55662551  0.38989747  1
  H  H78  1  0.33327196  0.94337449  0.91506836  1
  H  H79  1  0.16672804  0.58179640  0.11010253  1
  H  H80  1  0.91820360  0.58493164  0.02830613  1
  H  H81  1  0.55662551  0.38989747  0.47169387  1
  H  H82  1  0.94337449  0.91506836  0.33327196  1
  H  H83  1  0.58179640  0.11010253  0.16672804  1
  H  H84  1  0.41506836  0.97169387  0.08179640  1
  H  H85  1  0.61010253  0.52830613  0.44337449  1
  H  H86  1  0.08493164  0.66672804  0.05662551  1
  H  H87  1  0.88989747  0.83327196  0.41820360  1
  H  H88  1  0.97169387  0.08179640  0.41506836  1
  H  H89  1  0.52830613  0.44337449  0.61010253  1
  H  H90  1  0.66672804  0.05662551  0.08493164  1
  H  H91  1  0.83327196  0.41820360  0.88989747  1
  H  H92  1  0.08179640  0.41506836  0.97169387  1
  H  H93  1  0.44337449  0.61010253  0.52830613  1
  H  H94  1  0.05662551  0.08493164  0.66672804  1
  H  H95  1  0.41820360  0.88989747  0.83327196  1
  H  H96  1  0.33717487  0.96873438  0.30443868  1
  H  H97  1  0.83570430  0.53126562  0.36844049  1
  H  H98  1  0.16282513  0.96726381  0.13155951  1
  H  H99  1  0.66429570  0.53273619  0.19556132  1
  H  H100  1  0.96873438  0.30443868  0.33717487  1
  H  H101  1  0.53126562  0.36844049  0.83570430  1
  H  H102  1  0.96726381  0.13155951  0.16282513  1
  H  H103  1  0.53273619  0.19556132  0.66429570  1
  H  H104  1  0.30443868  0.33717487  0.96873438  1
  H  H105  1  0.36844049  0.83570430  0.53126562  1
  H  H106  1  0.13155951  0.16282513  0.96726381  1
  H  H107  1  0.19556132  0.66429570  0.53273619  1
  H  H108  1  0.66282513  0.03126562  0.69556132  1
  H  H109  1  0.16429570  0.46873438  0.63155951  1
  H  H110  1  0.83717487  0.03273619  0.86844049  1
  H  H111  1  0.33570430  0.46726381  0.80443868  1
  H  H112  1  0.03126562  0.69556132  0.66282513  1
  H  H113  1  0.46873438  0.63155951  0.16429570  1
  H  H114  1  0.03273619  0.86844049  0.83717487  1
  H  H115  1  0.46726381  0.80443868  0.33570430  1
  H  H116  1  0.69556132  0.66282513  0.03126562  1
  H  H117  1  0.63155951  0.16429570  0.46873438  1
  H  H118  1  0.86844049  0.83717487  0.03273619  1
  H  H119  1  0.80443868  0.33570430  0.46726381  1
  H  H120  1  0.24226740  0.80839968  0.22464051  1
  H  H121  1  0.91624082  0.69160032  0.43386772  1
  H  H122  1  0.25773260  0.98237311  0.06613228  1
  H  H123  1  0.58375918  0.51762689  0.27535949  1
  H  H124  1  0.80839968  0.22464051  0.24226740  1
  H  H125  1  0.69160032  0.43386772  0.91624082  1
  H  H126  1  0.98237311  0.06613228  0.25773260  1
  H  H127  1  0.51762689  0.27535949  0.58375918  1
  H  H128  1  0.22464051  0.24226740  0.80839968  1
  H  H129  1  0.43386772  0.91624082  0.69160032  1
  H  H130  1  0.06613228  0.25773260  0.98237311  1
  H  H131  1  0.27535949  0.58375918  0.51762689  1
  H  H132  1  0.75773260  0.19160032  0.77535949  1
  H  H133  1  0.08375918  0.30839968  0.56613228  1
  H  H134  1  0.74226740  0.01762689  0.93386772  1
  H  H135  1  0.41624082  0.48237311  0.72464051  1
  H  H136  1  0.19160032  0.77535949  0.75773260  1
  H  H137  1  0.30839968  0.56613228  0.08375918  1
  H  H138  1  0.01762689  0.93386772  0.74226740  1
  H  H139  1  0.48237311  0.72464051  0.41624082  1
  H  H140  1  0.77535949  0.75773260  0.19160032  1
  H  H141  1  0.56613228  0.08375918  0.30839968  1
  H  H142  1  0.93386772  0.74226740  0.01762689  1
  H  H143  1  0.72464051  0.41624082  0.48237311  1
  H  H144  1  0.18942564  0.90299674  0.27908947  1
  H  H145  1  0.87609273  0.59700326  0.28642890  1
  H  H146  1  0.31057436  0.08966383  0.21357110  1
  H  H147  1  0.62390727  0.41033617  0.22091053  1
  H  H148  1  0.90299674  0.27908947  0.18942564  1
  H  H149  1  0.59700326  0.28642890  0.87609273  1
  H  H150  1  0.08966383  0.21357110  0.31057436  1
  H  H151  1  0.41033617  0.22091053  0.62390727  1
  H  H152  1  0.27908947  0.18942564  0.90299674  1
  H  H153  1  0.28642890  0.87609273  0.59700326  1
  H  H154  1  0.21357110  0.31057436  0.08966383  1
  H  H155  1  0.22091053  0.62390727  0.41033617  1
  H  H156  1  0.81057436  0.09700326  0.72091053  1
  H  H157  1  0.12390727  0.40299674  0.71357110  1
  H  H158  1  0.68942564  0.91033617  0.78642890  1
  H  H159  1  0.37609273  0.58966383  0.77908947  1
  H  H160  1  0.09700326  0.72091053  0.81057436  1
  H  H161  1  0.40299674  0.71357110  0.12390727  1
  H  H162  1  0.91033617  0.78642890  0.68942564  1
  H  H163  1  0.58966383  0.77908947  0.37609273  1
  H  H164  1  0.72091053  0.81057436  0.09700326  1
  H  H165  1  0.71357110  0.12390727  0.40299674  1
  H  H166  1  0.78642890  0.68942564  0.91033617  1
  H  H167  1  0.77908947  0.37609273  0.58966383  1
  H  H168  1  0.30043980  0.88913865  0.37331235  1
  H  H169  1  0.98417369  0.61086135  0.41130115  1
  H  H170  1  0.19956020  0.07287255  0.08869885  1
  H  H171  1  0.51582631  0.42712745  0.12668765  1
  H  H172  1  0.88913865  0.37331235  0.30043980  1
  H  H173  1  0.61086135  0.41130115  0.98417369  1
  H  H174  1  0.07287255  0.08869885  0.19956020  1
  H  H175  1  0.42712745  0.12668765  0.51582631  1
  H  H176  1  0.37331235  0.30043980  0.88913865  1
  H  H177  1  0.41130115  0.98417369  0.61086135  1
  H  H178  1  0.08869885  0.19956020  0.07287255  1
  H  H179  1  0.12668765  0.51582631  0.42712745  1
  H  H180  1  0.69956020  0.11086135  0.62668765  1
  H  H181  1  0.01582631  0.38913865  0.58869885  1
  H  H182  1  0.80043980  0.92712745  0.91130115  1
  H  H183  1  0.48417369  0.57287255  0.87331235  1
  H  H184  1  0.11086135  0.62668765  0.69956020  1
  H  H185  1  0.38913865  0.58869885  0.01582631  1
  H  H186  1  0.92712745  0.91130115  0.80043980  1
  H  H187  1  0.57287255  0.87331235  0.48417369  1
  H  H188  1  0.62668765  0.69956020  0.11086135  1
  H  H189  1  0.58869885  0.01582631  0.38913865  1
  H  H190  1  0.91130115  0.80043980  0.92712745  1
  H  H191  1  0.87331235  0.48417369  0.57287255  1
loop_
_geom_bond_atom_site_label_1
_geom_bond_atom_site_label_2
_geom_bond_distance
_geom_bond_site_symmetry_2
Cd0 H56 2.035763 1_555
Cd0 H58 2.035763 1_655
Cd0 H142 2.172669 1_555
Cd0 H140 2.172669 1_555
Cd0 H116 2.330655 1_555
Cd0 H118 2.330655 1_555
Cd1 H57 2.035763 1_555
Cd1 H59 2.035763 1_555
Cd1 H141 2.172669 1_555
Cd1 H143 2.172669 1_555
Cd1 H119 2.330655 1_555
Cd1 H117 2.330655 1_555
Cd2 H48 2.035763 1_555
Cd2 H50 2.035763 1_556
Cd2 H134 2.172669 1_555
Cd2 H132 2.172669 1_555
Cd2 H108 2.330655 1_555
Cd2 H110 2.330655 1_555
Cd3 H49 2.035763 1_555
Cd3 H51 2.035763 1_555
Cd3 H133 2.172669 1_555
Cd3 H135 2.172669 1_555
Cd3 H111 2.330655 1_555
Cd3 H109 2.330655 1_555
Cd4 H52 2.035763 1_555
Cd4 H54 2.035763 1_565
Cd4 H138 2.172669 1_555
Cd4 H136 2.172669 1_555
Cd4 H112 2.330655 1_555
Cd4 H114 2.330655 1_555
Cd5 H53 2.035763 1_555
Cd5 H55 2.035763 1_555
Cd5 H137 2.172669 1_555
Cd5 H139 2.172669 1_555
Cd5 H115 2.330655 1_555
Cd5 H113 2.330655 1_555
Cd6 H68 2.035763 1_555
Cd6 H70 2.035763 1_455
Cd6 H128 2.172669 1_555
Cd6 H130 2.172669 1_555
Cd6 H106 2.330655 1_555
Cd6 H104 2.330655 1_555
Cd7 H69 2.035763 1_555
Cd7 H71 2.035763 1_555
Cd7 H129 2.172669 1_555
Cd7 H131 2.172669 1_555
Cd7 H105 2.330655 1_555
Cd7 H107 2.330655 1_555
Cd8 H60 2.035763 1_555
Cd8 H62 2.035763 1_554
Cd8 H120 2.172669 1_555
Cd8 H122 2.172669 1_555
Cd8 H98 2.330655 1_555
Cd8 H96 2.330655 1_555
Cd9 H61 2.035763 1_555
Cd9 H63 2.035763 1_555
Cd9 H121 2.172669 1_555
Cd9 H123 2.172669 1_555
Cd9 H97 2.330655 1_555
Cd9 H99 2.330655 1_555
Cd10 H64 2.035763 1_555
Cd10 H66 2.035763 1_545
Cd10 H124 2.172669 1_555
Cd10 H126 2.172669 1_555
Cd10 H102 2.330655 1_555
Cd10 H100 2.330655 1_555
Cd11 H65 2.035763 1_555
Cd11 H67 2.035763 1_555
Cd11 H125 2.172669 1_555
Cd11 H127 2.172669 1_555
Cd11 H101 2.330655 1_555
Cd11 H103 2.330655 1_555
Cd12 H80 2.180553 1_455
Cd12 H91 2.180553 1_454
Cd12 H79 2.180553 1_555
Cd12 H86 2.180553 1_555
Cd12 H74 2.180553 1_454
Cd12 H92 2.180553 1_554
Cd13 H94 2.180553 1_555
Cd13 H76 2.180553 1_545
Cd13 H87 2.180553 1_445
Cd13 H75 2.180553 1_555
Cd13 H82 2.180553 1_445
Cd13 H88 2.180553 1_455
Cd14 H90 2.180553 1_555
Cd14 H72 2.180553 1_554
Cd14 H84 2.180553 1_545
Cd14 H78 2.180553 1_544
Cd14 H95 2.180553 1_544
Cd14 H83 2.180553 1_555
Cd15 H93 2.180553 1_555
Cd15 H77 2.180553 1_555
Cd15 H81 2.180553 1_555
Cd15 H73 2.180553 1_555
Cd15 H85 2.180553 1_555
Cd15 H89 2.180553 1_555
B0 H0 1.213118 1_555
B0 H24 1.216794 1_556
B0 H72 1.226264 1_555
B0 H48 1.255700 1_555
B1 H1 1.213118 1_555
B1 H25 1.216794 1_555
B1 H73 1.226264 1_555
B1 H49 1.255700 1_555
B2 H2 1.213118 1_555
B2 H26 1.216794 1_554
B2 H74 1.226264 1_554
B2 H50 1.255700 1_555
B3 H3 1.213118 1_555
B3 H27 1.216794 1_555
B3 H75 1.226264 1_555
B3 H51 1.255700 1_555
B4 H4 1.213118 1_555
B4 H28 1.216794 1_565
B4 H76 1.226264 1_555
B4 H52 1.255700 1_555
B5 H5 1.213118 1_555
B5 H29 1.216794 1_555
B5 H77 1.226264 1_555
B5 H53 1.255700 1_555
B6 H6 1.213118 1_555
B6 H30 1.216794 1_545
B6 H78 1.226264 1_545
B6 H54 1.255700 1_555
B7 H7 1.213118 1_555
B7 H31 1.216794 1_555
B7 H79 1.226264 1_555
B7 H55 1.255700 1_555
B8 H8 1.213118 1_555
B8 H32 1.216794 1_655
B8 H80 1.226264 1_555
B8 H56 1.255700 1_555
B9 H9 1.213118 1_555
B9 H33 1.216794 1_555
B9 H81 1.226264 1_555
B9 H57 1.255700 1_555
B10 H10 1.213118 1_555
B10 H34 1.216794 1_455
B10 H82 1.226264 1_455
B10 H58 1.255700 1_555
B11 H11 1.213118 1_555
B11 H35 1.216794 1_555
B11 H83 1.226264 1_555
B11 H59 1.255700 1_555
B12 H12 1.213118 1_555
B12 H36 1.216794 1_554
B12 H84 1.226264 1_555
B12 H60 1.255700 1_555
B13 H13 1.213118 1_555
B13 H37 1.216794 1_555
B13 H85 1.226264 1_555
B13 H61 1.255700 1_555
B14 H14 1.213118 1_555
B14 H38 1.216794 1_556
B14 H86 1.226264 1_556
B14 H62 1.255700 1_555
B15 H15 1.213118 1_555
B15 H39 1.216794 1_555
B15 H87 1.226264 1_555
B15 H63 1.255700 1_555
B16 H16 1.213118 1_555
B16 H40 1.216794 1_545
B16 H88 1.226264 1_555
B16 H64 1.255700 1_555
B17 H17 1.213118 1_555
B17 H41 1.216794 1_555
B17 H89 1.226264 1_555
B17 H65 1.255700 1_555
B18 H18 1.213118 1_555
B18 H42 1.216794 1_565
B18 H90 1.226264 1_565
B18 H66 1.255700 1_555
B19 H19 1.213118 1_555
B19 H43 1.216794 1_555
B19 H91 1.226264 1_555
B19 H67 1.255700 1_555
B20 H20 1.213118 1_555
B20 H44 1.216794 1_455
B20 H92 1.226264 1_555
B20 H68 1.255700 1_555
B21 H21 1.213118 1_555
B21 H45 1.216794 1_555
B21 H93 1.226264 1_555
B21 H69 1.255700 1_555
B22 H22 1.213118 1_555
B22 H46 1.216794 1_655
B22 H94 1.226264 1_655
B22 H70 1.255700 1_555
B23 H23 1.213118 1_555
B23 H47 1.216794 1_555
B23 H95 1.226264 1_555
B23 H71 1.255700 1_555
B24 H144 1.214353 1_555
B24 H168 1.218987 1_555
B24 H96 1.238421 1_555
B24 H120 1.243180 1_555
B25 H145 1.214353 1_555
B25 H169 1.218986 1_555
B25 H97 1.238421 1_555
B25 H121 1.243180 1_555
B26 H146 1.214353 1_555
B26 H170 1.218987 1_555
B26 H98 1.238421 1_545
B26 H122 1.243180 1_545
B27 H147 1.214353 1_555
B27 H171 1.218987 1_555
B27 H99 1.238421 1_555
B27 H123 1.243180 1_555
B28 H148 1.214353 1_555
B28 H172 1.218987 1_555
B28 H100 1.238421 1_555
B28 H124 1.243180 1_555
B29 H149 1.214353 1_555
B29 H173 1.218986 1_555
B29 H101 1.238421 1_555
B29 H125 1.243180 1_555
B30 H150 1.214353 1_555
B30 H174 1.218987 1_555
B30 H102 1.238421 1_455
B30 H126 1.243180 1_455
B31 H151 1.214353 1_555
B31 H175 1.218987 1_555
B31 H103 1.238421 1_555
B31 H127 1.243180 1_555
B32 H152 1.214353 1_555
B32 H176 1.218987 1_555
B32 H104 1.238421 1_555
B32 H128 1.243180 1_555
B33 H153 1.214353 1_555
B33 H177 1.218986 1_555
B33 H105 1.238421 1_555
B33 H129 1.243180 1_555
B34 H154 1.214353 1_555
B34 H178 1.218987 1_555
B34 H106 1.238421 1_554
B34 H130 1.243180 1_554
B35 H155 1.214353 1_555
B35 H179 1.218987 1_555
B35 H107 1.238421 1_555
B35 H131 1.243180 1_555
B36 H156 1.214353 1_555
B36 H180 1.218987 1_555
B36 H108 1.238421 1_555
B36 H132 1.243180 1_555
B37 H157 1.214353 1_555
B37 H181 1.218986 1_555
B37 H109 1.238421 1_555
B37 H133 1.243180 1_555
B38 H158 1.214353 1_555
B38 H182 1.218987 1_555
B38 H110 1.238421 1_565
B38 H134 1.243180 1_565
B39 H159 1.214353 1_555
B39 H183 1.218987 1_555
B39 H111 1.238421 1_555
B39 H135 1.243180 1_555
B40 H160 1.214353 1_555
B40 H184 1.218987 1_555
B40 H112 1.238421 1_555
B40 H136 1.243180 1_555
B41 H161 1.214353 1_555
B41 H185 1.218986 1_555
B41 H113 1.238421 1_555
B41 H137 1.243180 1_555
B42 H162 1.214353 1_555
B42 H186 1.218987 1_555
B42 H114 1.238421 1_655
B42 H138 1.243180 1_655
B43 H163 1.214353 1_555
B43 H187 1.218987 1_555
B43 H115 1.238421 1_555
B43 H139 1.243180 1_555
B44 H164 1.214353 1_555
B44 H188 1.218987 1_555
B44 H116 1.238421 1_555
B44 H140 1.243180 1_555
B45 H165 1.214353 1_555
B45 H189 1.218986 1_555
B45 H117 1.238421 1_555
B45 H141 1.243180 1_555
B46 H166 1.214353 1_555
B46 H190 1.218987 1_555
B46 H118 1.238421 1_556
B46 H142 1.243180 1_556
B47 H167 1.214353 1_555
B47 H191 1.218987 1_555
B47 H119 1.238421 1_555
B47 H143 1.243180 1_555
H24 K2 2.729371 1_555
H25 K3 2.729371 1_555
H26 K2 2.729370 1_556
H27 K3 2.729370 1_555
H28 K4 2.729371 1_555
H29 K5 2.729371 1_555
H30 K4 2.729370 1_565
H31 K5 2.729370 1_555
H32 K0 2.729371 1_555
H33 K1 2.729371 1_555
H34 K0 2.729370 1_655
H35 K1 2.729370 1_555
H36 K8 2.729371 1_555
H37 K9 2.729371 1_555
H38 K8 2.729370 1_554
H39 K9 2.729370 1_555
H40 K10 2.729371 1_555
H41 K11 2.729371 1_555
H42 K10 2.729370 1_545
H43 K11 2.729370 1_555
H44 K6 2.729371 1_555
H45 K7 2.729371 1_555
H46 K6 2.729370 1_455
H47 K7 2.729370 1_555
H144 K3 2.886424 1_565
H145 K2 2.886424 1_555
H146 K3 2.886424 1_555
H147 K2 2.886424 1_555
H148 K5 2.886424 1_655
H149 K4 2.886424 1_555
H150 K5 2.886424 1_555
H151 K4 2.886424 1_555
H152 K1 2.886424 1_556
H153 K0 2.886424 1_555
H154 K1 2.886424 1_555
H155 K0 2.886424 1_555
H156 K9 2.886424 1_545
H157 K8 2.886424 1_555
H158 K9 2.886424 1_555
H159 K8 2.886424 1_555
H160 K11 2.886424 1_455
H161 K10 2.886424 1_555
H162 K11 2.886424 1_555
H163 K10 2.886424 1_555
H164 K7 2.886424 1_554
H165 K6 2.886424 1_555
H166 K7 2.886424 1_555
H167 K6 2.886424 1_555
H168 K13 2.590038 1_565
H168 K0 2.898416 1_555
H169 K12 2.590038 1_655
H169 K0 2.898416 1_655
H170 K15 2.590038 1_555
H170 K1 2.898416 1_555
H171 K14 2.590038 1_555
H171 K1 2.898416 1_555
H172 K12 2.590038 1_655
H172 K2 2.898416 1_555
H173 K14 2.590038 1_556
H173 K2 2.898416 1_556
H174 K15 2.590038 1_555
H174 K3 2.898416 1_555
H175 K13 2.590038 1_555
H175 K3 2.898416 1_555
H176 K14 2.590038 1_556
H176 K4 2.898416 1_555
H177 K13 2.590038 1_565
H177 K4 2.898416 1_565
H178 K15 2.590038 1_555
H178 K5 2.898416 1_555
H179 K12 2.590038 1_555
H179 K5 2.898416 1_555
H180 K13 2.590038 1_555
H180 K6 2.898416 1_555
H181 K12 2.590038 1_555
H181 K6 2.898416 1_455
H182 K15 2.590038 1_666
H182 K7 2.898416 1_555
H183 K14 2.590038 1_556
H183 K7 2.898416 1_555
H184 K12 2.590038 1_555
H184 K8 2.898416 1_555
H185 K14 2.590038 1_555
H185 K8 2.898416 1_554
H186 K15 2.590038 1_666
H186 K9 2.898416 1_555
H187 K13 2.590038 1_565
H187 K9 2.898416 1_555
H188 K14 2.590038 1_555
H188 K10 2.898416 1_555
H189 K13 2.590038 1_555
H189 K10 2.898416 1_545
H190 K15 2.590038 1_666
H190 K11 2.898416 1_555
H191 K12 2.590038 1_655
H191 K11 2.898416 1_555
