# generated using pymatgen
data_La4Br3ClO4
_symmetry_space_group_name_H-M   'P 1'
_cell_length_a   8.52979552
_cell_length_b   8.52979552
_cell_length_c   4.15847700
_cell_angle_alpha   90.00000000
_cell_angle_beta   90.00000000
_cell_angle_gamma   121.62807147
_symmetry_Int_Tables_number   1
_chemical_formula_structural   La4Br3ClO4
_chemical_formula_sum   'La4 Br3 Cl1 O4'
_cell_volume   257.62081573
_cell_formula_units_Z   1
loop_
 _symmetry_equiv_pos_site_id
 _symmetry_equiv_pos_as_xyz
  1  'x, y, z'
loop_
 _atom_site_type_symbol
 _atom_site_label
 _atom_site_symmetry_multiplicity
 _atom_site_fract_x
 _atom_site_fract_y
 _atom_site_fract_z
 _atom_site_occupancy
  La  La0  1  0.82976300  0.17023700  0.00000000  1
  La  La1  1  0.32951600  0.67048400  0.00000000  1
  La  La2  1  0.91628400  0.57955500  0.50000000  1
  La  La3  1  0.42044500  0.08371600  0.50000000  1
  Br  Br0  1  0.06754500  0.93245500  0.00000000  1
  Br  Br1  1  0.18597500  0.31921600  0.50000000  1
  Br  Br2  1  0.68078400  0.81402500  0.50000000  1
  Cl  Cl0  1  0.57208400  0.42791600  0.00000000  1
  O  O0  1  0.74947600  0.25052400  0.50000000  1
  O  O1  1  0.24934500  0.75065500  0.50000000  1
  O  O2  1  0.50037300  0.00159000  0.00000000  1
  O  O3  1  0.99841000  0.49962700  0.00000000  1
loop_
_geom_bond_atom_site_label_1
_geom_bond_atom_site_label_2
_geom_bond_distance
_geom_bond_site_symmetry_2
La0 O2 2.392569 1_555
La0 O3 2.392569 1_555
La0 O0 2.398563 1_554
La0 O0 2.398563 1_555
La1 O1 2.397702 1_555
La1 O1 2.397702 1_554
La1 O3 2.404895 1_455
La1 O2 2.404895 1_565
La2 O0 2.390209 1_555
La2 O3 2.404094 1_555
La2 O3 2.404094 1_556
La2 O1 2.419168 1_655
La3 O0 2.390209 1_555
La3 O2 2.404094 1_556
La3 O2 2.404094 1_555
La3 O1 2.419168 1_545
Br0 La3 3.312954 1_565
Br0 La3 3.312954 1_564
Br0 La2 3.312954 1_455
Br0 La2 3.312954 1_454
Br0 La0 3.541461 1_465
Br1 La1 3.309416 1_556
Br1 La1 3.309416 1_555
Br1 La0 3.334740 1_456
Br1 La0 3.334740 1_455
Br1 La3 3.499806 1_555
Br2 La1 3.309416 1_556
Br2 La1 3.309416 1_555
Br2 La0 3.334740 1_565
Br2 La0 3.334740 1_566
Br2 La2 3.499806 1_555
Cl0 La3 3.260863 1_554
Cl0 La3 3.260863 1_555
Cl0 La2 3.260863 1_554
Cl0 La2 3.260863 1_555
Cl0 La1 3.612743 1_555
