# generated using pymatgen
data_Sm2Ga9NiGe2
_symmetry_space_group_name_H-M   'P 1'
_cell_length_a   5.97386200
_cell_length_b   5.97386200
_cell_length_c   15.20833600
_cell_angle_alpha   90.00000000
_cell_angle_beta   90.00000000
_cell_angle_gamma   90.00000000
_symmetry_Int_Tables_number   1
_chemical_formula_structural   Sm2Ga9NiGe2
_chemical_formula_sum   'Sm4 Ga18 Ni2 Ge4'
_cell_volume   542.74030042
_cell_formula_units_Z   2
loop_
 _symmetry_equiv_pos_site_id
 _symmetry_equiv_pos_as_xyz
  1  'x, y, z'
loop_
 _atom_site_type_symbol
 _atom_site_label
 _atom_site_symmetry_multiplicity
 _atom_site_fract_x
 _atom_site_fract_y
 _atom_site_fract_z
 _atom_site_occupancy
  Sm  Sm0  1  0.00000000  0.00000000  0.74887300  1
  Sm  Sm1  1  0.50000000  0.50000000  0.74887300  1
  Sm  Sm2  1  0.50000000  0.50000000  0.25112700  1
  Sm  Sm3  1  0.00000000  0.00000000  0.25112700  1
  Ga  Ga0  1  0.76761300  0.26761300  0.91449500  1
  Ga  Ga1  1  0.23238700  0.26761300  0.91449500  1
  Ga  Ga2  1  0.76761300  0.73238700  0.91449500  1
  Ga  Ga3  1  0.23238700  0.73238700  0.91449500  1
  Ga  Ga4  1  0.73238700  0.23238700  0.08550500  1
  Ga  Ga5  1  0.26761300  0.23238700  0.08550500  1
  Ga  Ga6  1  0.73238700  0.76761300  0.08550500  1
  Ga  Ga7  1  0.26761300  0.76761300  0.08550500  1
  Ga  Ga8  1  0.77866500  0.27866500  0.58262600  1
  Ga  Ga9  1  0.22133500  0.27866500  0.58262600  1
  Ga  Ga10  1  0.77866500  0.72133500  0.58262600  1
  Ga  Ga11  1  0.22133500  0.72133500  0.58262600  1
  Ga  Ga12  1  0.72133500  0.22133500  0.41737400  1
  Ga  Ga13  1  0.27866500  0.22133500  0.41737400  1
  Ga  Ga14  1  0.72133500  0.77866500  0.41737400  1
  Ga  Ga15  1  0.27866500  0.77866500  0.41737400  1
  Ga  Ga16  1  0.00000000  0.50000000  0.34343900  1
  Ga  Ga17  1  0.50000000  0.00000000  0.65656100  1
  Ni  Ni0  1  0.00000000  0.00000000  0.00000000  1
  Ni  Ni1  1  0.50000000  0.50000000  0.00000000  1
  Ge  Ge0  1  0.00000000  0.50000000  0.18014300  1
  Ge  Ge1  1  0.50000000  0.00000000  0.81985700  1
  Ge  Ge2  1  0.00000000  0.50000000  0.77563500  1
  Ge  Ge3  1  0.50000000  0.00000000  0.22436500  1
loop_
_geom_bond_atom_site_label_1
_geom_bond_atom_site_label_2
_geom_bond_distance
_geom_bond_site_symmetry_2
Ga0 Ni0 2.484760 1_656
Ga0 Ni1 2.484760 1_556
Ga0 Ga4 2.617749 1_556
Ga0 Ge1 2.680135 1_555
Ga0 Ga2 2.776496 1_555
Ga0 Ga1 2.776496 1_655
Ga0 Ge2 2.883451 1_655
Ga0 Sm0 3.290524 1_655
Ga0 Sm1 3.290524 1_555
Ga1 Ni0 2.484760 1_556
Ga1 Ni1 2.484760 1_556
Ga1 Ga5 2.617749 1_556
Ga1 Ge1 2.680135 1_555
Ga1 Ga3 2.776496 1_555
Ga1 Ge2 2.883451 1_555
Ga1 Sm0 3.290524 1_555
Ga1 Sm1 3.290524 1_555
Ga2 Ni1 2.484760 1_556
Ga2 Ni0 2.484760 1_666
Ga2 Ga6 2.617749 1_556
Ga2 Ge1 2.680135 1_565
Ga2 Ga3 2.776496 1_655
Ga2 Ge2 2.883451 1_655
Ga2 Sm0 3.290524 1_665
Ga2 Sm1 3.290524 1_555
Ga3 Ni1 2.484760 1_556
Ga3 Ni0 2.484760 1_566
Ga3 Ga7 2.617749 1_556
Ga3 Ge1 2.680135 1_565
Ga3 Ge2 2.883451 1_555
Ga3 Sm1 3.290524 1_555
Ga3 Sm0 3.290524 1_565
Ga4 Ni0 2.484760 1_655
Ga4 Ni1 2.484760 1_555
Ga4 Ge0 2.680135 1_655
Ga4 Ga5 2.776496 1_555
Ga4 Ga6 2.776496 1_545
Ga4 Ge3 2.883451 1_555
Ga4 Sm3 3.290524 1_655
Ga4 Sm2 3.290524 1_555
Ga5 Ni0 2.484760 1_555
Ga5 Ni1 2.484760 1_555
Ga5 Ge0 2.680135 1_555
Ga5 Ga7 2.776496 1_545
Ga5 Ge3 2.883451 1_555
Ga5 Sm3 3.290524 1_555
Ga5 Sm2 3.290524 1_555
Ga6 Ni0 2.484760 1_665
Ga6 Ni1 2.484760 1_555
Ga6 Ge0 2.680135 1_655
Ga6 Ga7 2.776496 1_555
Ga6 Ge3 2.883451 1_565
Ga6 Sm3 3.290524 1_665
Ga6 Sm2 3.290524 1_555
Ga7 Ni1 2.484760 1_555
Ga7 Ni0 2.484760 1_565
Ga7 Ge0 2.680135 1_555
Ga7 Ge3 2.883451 1_565
Ga7 Sm3 3.290524 1_565
Ga7 Sm2 3.290524 1_555
Ga8 Ga9 2.644449 1_655
Ga8 Sm0 3.303336 1_655
Ga8 Sm1 3.303336 1_555
Ga9 Sm1 3.303336 1_555
Ga9 Sm0 3.303336 1_555
Ga10 Ga14 2.559453 1_555
Ga10 Ga17 2.608991 1_565
Ga10 Ga8 2.644449 1_555
Ga10 Ga11 2.644449 1_655
Ga10 Sm1 3.303336 1_555
Ga10 Sm0 3.303336 1_665
Ga11 Ga15 2.559453 1_555
Ga11 Ga17 2.608991 1_565
Ga11 Ga9 2.644449 1_555
Ga11 Sm1 3.303336 1_555
Ga11 Sm0 3.303336 1_565
Ga12 Ga8 2.559453 1_555
Ga12 Ga16 2.608991 1_655
Ga12 Ga14 2.644449 1_545
Ga12 Ga13 2.644449 1_555
Ga12 Sm2 3.303336 1_555
Ga12 Sm3 3.303336 1_655
Ga13 Ga9 2.559453 1_555
Ga13 Ga16 2.608991 1_555
Ga13 Ga15 2.644449 1_545
Ga13 Sm2 3.303336 1_555
Ga13 Sm3 3.303336 1_555
Ga14 Ga16 2.608991 1_655
Ga14 Ga15 2.644449 1_555
Ga14 Sm2 3.303336 1_555
Ga14 Sm3 3.303336 1_665
Ga15 Ga16 2.608991 1_555
Ga15 Sm3 3.303336 1_565
Ga15 Sm2 3.303336 1_555
Ga16 Ge0 2.483460 1_555
Ga16 Sm3 3.300413 1_555
Ga16 Sm3 3.300413 1_565
Ga16 Sm2 3.300413 1_455
Ga16 Sm2 3.300413 1_555
Ga17 Ge1 2.483460 1_555
Ga17 Ga8 2.608991 1_555
Ga17 Ga9 2.608991 1_555
Ga17 Sm0 3.300413 1_555
Ga17 Sm0 3.300413 1_655
Ga17 Sm1 3.300413 1_555
Ga17 Sm1 3.300413 1_545
Ge0 Sm2 3.176032 1_555
Ge0 Sm2 3.176032 1_455
Ge0 Sm3 3.176032 1_565
Ge0 Sm3 3.176032 1_555
Ge1 Sm1 3.176032 1_555
Ge1 Sm1 3.176032 1_545
Ge1 Sm0 3.176032 1_555
Ge1 Sm0 3.176032 1_655
Ge2 Sm1 3.014533 1_555
Ge2 Sm1 3.014533 1_455
Ge2 Sm0 3.014533 1_565
Ge2 Sm0 3.014533 1_555
Ge3 Sm3 3.014533 1_555
Ge3 Sm2 3.014533 1_555
Ge3 Sm2 3.014533 1_545
Ge3 Sm3 3.014533 1_655
