# generated using pymatgen
data_LiMg30WO32
_symmetry_space_group_name_H-M   'P 1'
_cell_length_a   8.54168400
_cell_length_b   8.54168400
_cell_length_c   8.53558800
_cell_angle_alpha   90.00000000
_cell_angle_beta   90.00000000
_cell_angle_gamma   90.00000000
_symmetry_Int_Tables_number   1
_chemical_formula_structural   LiMg30WO32
_chemical_formula_sum   'Li1 Mg30 W1 O32'
_cell_volume   622.75962071
_cell_formula_units_Z   1
loop_
 _symmetry_equiv_pos_site_id
 _symmetry_equiv_pos_as_xyz
  1  'x, y, z'
loop_
 _atom_site_type_symbol
 _atom_site_label
 _atom_site_symmetry_multiplicity
 _atom_site_fract_x
 _atom_site_fract_y
 _atom_site_fract_z
 _atom_site_occupancy
  Li  Li0  1  0.00000000  0.00000000  0.00000000  1
  Mg  Mg0  1  0.50000000  0.00000000  0.00000000  1
  Mg  Mg1  1  0.00000000  0.50000000  0.00000000  1
  Mg  Mg2  1  0.00000000  0.00000000  0.50000000  1
  Mg  Mg3  1  0.50000000  0.00000000  0.50000000  1
  Mg  Mg4  1  0.00000000  0.50000000  0.50000000  1
  Mg  Mg5  1  0.50000000  0.50000000  0.50000000  1
  Mg  Mg6  1  0.24202400  0.24202400  0.00000000  1
  Mg  Mg7  1  0.75797600  0.24202400  0.00000000  1
  Mg  Mg8  1  0.24202400  0.75797600  0.00000000  1
  Mg  Mg9  1  0.75797600  0.75797600  0.00000000  1
  Mg  Mg10  1  0.24861300  0.24861300  0.50000000  1
  Mg  Mg11  1  0.75138700  0.24861300  0.50000000  1
  Mg  Mg12  1  0.24861300  0.75138700  0.50000000  1
  Mg  Mg13  1  0.75138700  0.75138700  0.50000000  1
  Mg  Mg14  1  0.24612600  0.00000000  0.24730400  1
  Mg  Mg15  1  0.75387400  0.00000000  0.24730400  1
  Mg  Mg16  1  0.24463200  0.50000000  0.25362800  1
  Mg  Mg17  1  0.75536800  0.50000000  0.25362800  1
  Mg  Mg18  1  0.24612600  0.00000000  0.75269600  1
  Mg  Mg19  1  0.75387400  0.00000000  0.75269600  1
  Mg  Mg20  1  0.24463200  0.50000000  0.74637200  1
  Mg  Mg21  1  0.75536800  0.50000000  0.74637200  1
  Mg  Mg22  1  0.00000000  0.24612600  0.24730400  1
  Mg  Mg23  1  0.50000000  0.24463200  0.25362800  1
  Mg  Mg24  1  0.00000000  0.75387400  0.24730400  1
  Mg  Mg25  1  0.50000000  0.75536800  0.25362800  1
  Mg  Mg26  1  0.00000000  0.24612600  0.75269600  1
  Mg  Mg27  1  0.50000000  0.24463200  0.74637200  1
  Mg  Mg28  1  0.00000000  0.75387400  0.75269600  1
  Mg  Mg29  1  0.50000000  0.75536800  0.74637200  1
  W  W0  1  0.50000000  0.50000000  0.00000000  1
  O  O0  1  0.00000000  0.00000000  0.25642600  1
  O  O1  1  0.50000000  0.00000000  0.25118000  1
  O  O2  1  0.00000000  0.50000000  0.25118000  1
  O  O3  1  0.50000000  0.50000000  0.25436500  1
  O  O4  1  0.00000000  0.00000000  0.74357400  1
  O  O5  1  0.50000000  0.00000000  0.74882000  1
  O  O6  1  0.00000000  0.50000000  0.74882000  1
  O  O7  1  0.50000000  0.50000000  0.74563500  1
  O  O8  1  0.25123900  0.25123900  0.24930100  1
  O  O9  1  0.74876100  0.25123900  0.24930100  1
  O  O10  1  0.25123900  0.74876100  0.24930100  1
  O  O11  1  0.74876100  0.74876100  0.24930100  1
  O  O12  1  0.25123900  0.25123900  0.75069900  1
  O  O13  1  0.74876100  0.25123900  0.75069900  1
  O  O14  1  0.25123900  0.74876100  0.75069900  1
  O  O15  1  0.74876100  0.74876100  0.75069900  1
  O  O16  1  0.25712200  0.00000000  0.00000000  1
  O  O17  1  0.74287800  0.00000000  0.00000000  1
  O  O18  1  0.24662700  0.50000000  0.00000000  1
  O  O19  1  0.75337300  0.50000000  0.00000000  1
  O  O20  1  0.25164800  0.00000000  0.50000000  1
  O  O21  1  0.74835200  0.00000000  0.50000000  1
  O  O22  1  0.25093100  0.50000000  0.50000000  1
  O  O23  1  0.74906900  0.50000000  0.50000000  1
  O  O24  1  0.00000000  0.25712200  0.00000000  1
  O  O25  1  0.50000000  0.24662700  0.00000000  1
  O  O26  1  0.00000000  0.74287800  0.00000000  1
  O  O27  1  0.50000000  0.75337300  0.00000000  1
  O  O28  1  0.00000000  0.25164800  0.50000000  1
  O  O29  1  0.50000000  0.25093100  0.50000000  1
  O  O30  1  0.00000000  0.74835200  0.50000000  1
  O  O31  1  0.50000000  0.74906900  0.50000000  1
loop_
_geom_bond_atom_site_label_1
_geom_bond_atom_site_label_2
_geom_bond_distance
_geom_bond_site_symmetry_2
Li0 O0 2.188747 1_555
Li0 O4 2.188747 1_554
Li0 O17 2.196255 1_455
Li0 O26 2.196255 1_545
Li0 O24 2.196255 1_555
Li0 O16 2.196255 1_555
Mg0 O16 2.074587 1_555
Mg0 O17 2.074587 1_555
Mg0 O25 2.106610 1_555
Mg0 O27 2.106610 1_545
Mg0 O5 2.143969 1_554
Mg0 O1 2.143969 1_555
Mg1 O24 2.074587 1_555
Mg1 O26 2.074587 1_555
Mg1 O19 2.106610 1_455
Mg1 O18 2.106610 1_555
Mg1 O6 2.143969 1_554
Mg1 O2 2.143969 1_555
Mg2 O4 2.079047 1_555
Mg2 O0 2.079047 1_555
Mg2 O28 2.149498 1_555
Mg2 O30 2.149498 1_545
Mg2 O21 2.149498 1_455
Mg2 O20 2.149498 1_555
Mg3 O21 2.121344 1_555
Mg3 O20 2.121344 1_555
Mg3 O1 2.123825 1_555
Mg3 O5 2.123825 1_555
Mg3 O29 2.143373 1_555
Mg3 O31 2.143373 1_545
Mg4 O30 2.121344 1_555
Mg4 O28 2.121344 1_555
Mg4 O2 2.123825 1_555
Mg4 O6 2.123825 1_555
Mg4 O23 2.143373 1_455
Mg4 O22 2.143373 1_555
Mg5 O3 2.096639 1_555
Mg5 O7 2.096639 1_555
Mg5 O22 2.127469 1_555
Mg5 O23 2.127469 1_555
Mg5 O29 2.127469 1_555
Mg5 O31 2.127469 1_555
Mg6 O24 2.071311 1_555
Mg6 O16 2.071311 1_555
Mg6 O8 2.130840 1_555
Mg6 O12 2.130840 1_554
Mg6 O18 2.203900 1_555
Mg6 O25 2.203900 1_555
Mg7 O24 2.071311 1_655
Mg7 O17 2.071311 1_555
Mg7 O9 2.130840 1_555
Mg7 O13 2.130840 1_554
Mg7 O19 2.203900 1_555
Mg7 O25 2.203900 1_555
Mg8 O26 2.071311 1_555
Mg8 O16 2.071311 1_565
Mg8 O14 2.130840 1_554
Mg8 O10 2.130840 1_555
Mg8 O18 2.203900 1_555
Mg8 O27 2.203900 1_555
Mg9 O17 2.071311 1_565
Mg9 O26 2.071311 1_655
Mg9 O15 2.130840 1_554
Mg9 O11 2.130840 1_555
Mg9 O19 2.203900 1_555
Mg9 O27 2.203900 1_555
Mg10 O28 2.123732 1_555
Mg10 O20 2.123732 1_555
Mg10 O8 2.140098 1_555
Mg10 O12 2.140098 1_555
Mg10 O22 2.147360 1_555
Mg10 O29 2.147360 1_555
Mg11 O28 2.123732 1_655
Mg11 O21 2.123732 1_555
Mg11 O9 2.140098 1_555
Mg11 O13 2.140098 1_555
Mg11 O23 2.147360 1_555
Mg11 O29 2.147360 1_555
Mg12 O30 2.123732 1_555
Mg12 O20 2.123732 1_565
Mg12 O14 2.140098 1_555
Mg12 O10 2.140098 1_555
Mg12 O22 2.147360 1_555
Mg12 O31 2.147360 1_555
Mg13 O30 2.123732 1_655
Mg13 O21 2.123732 1_565
Mg13 O11 2.140098 1_555
Mg13 O15 2.140098 1_555
Mg13 O23 2.147360 1_555
Mg13 O31 2.147360 1_555
Mg14 O0 2.103772 1_555
Mg14 O16 2.112974 1_555
Mg14 O8 2.146516 1_555
Mg14 O10 2.146516 1_545
Mg14 O20 2.157425 1_555
Mg14 O1 2.168764 1_555
Mg15 O0 2.103772 1_655
Mg15 O17 2.112974 1_555
Mg15 O9 2.146516 1_555
Mg15 O11 2.146516 1_545
Mg15 O21 2.157425 1_555
Mg15 O1 2.168764 1_555
Mg16 O2 2.089674 1_555
Mg16 O22 2.103618 1_555
Mg16 O8 2.125908 1_555
Mg16 O10 2.125908 1_555
Mg16 O18 2.164931 1_555
Mg16 O3 2.181282 1_555
Mg17 O2 2.089674 1_655
Mg17 O23 2.103618 1_555
Mg17 O11 2.125908 1_555
Mg17 O9 2.125908 1_555
Mg17 O19 2.164931 1_555
Mg17 O3 2.181282 1_555
Mg18 O4 2.103772 1_555
Mg18 O16 2.112974 1_556
Mg18 O12 2.146516 1_555
Mg18 O14 2.146516 1_545
Mg18 O20 2.157425 1_555
Mg18 O5 2.168764 1_555
Mg19 O4 2.103772 1_655
Mg19 O17 2.112974 1_556
Mg19 O15 2.146516 1_545
Mg19 O13 2.146516 1_555
Mg19 O21 2.157425 1_555
Mg19 O5 2.168764 1_555
Mg20 O6 2.089674 1_555
Mg20 O22 2.103618 1_555
Mg20 O14 2.125908 1_555
Mg20 O12 2.125908 1_555
Mg20 O18 2.164931 1_556
Mg20 O7 2.181282 1_555
Mg21 O6 2.089674 1_655
Mg21 O23 2.103618 1_555
Mg21 O15 2.125908 1_555
Mg21 O13 2.125908 1_555
Mg21 O19 2.164931 1_556
Mg21 O7 2.181282 1_555
Mg22 O0 2.103772 1_555
Mg22 O24 2.112974 1_555
Mg22 O8 2.146516 1_555
Mg22 O9 2.146516 1_455
Mg22 O28 2.157425 1_555
Mg22 O2 2.168764 1_555
Mg23 O1 2.089674 1_555
Mg23 O29 2.103618 1_555
Mg23 O8 2.125908 1_555
Mg23 O9 2.125908 1_555
Mg23 O25 2.164931 1_555
Mg23 O3 2.181282 1_555
Mg24 O0 2.103772 1_565
Mg24 O26 2.112974 1_555
Mg24 O11 2.146516 1_455
Mg24 O10 2.146516 1_555
Mg24 O30 2.157425 1_555
Mg24 O2 2.168764 1_555
Mg25 O1 2.089674 1_565
Mg25 O31 2.103618 1_555
Mg25 O11 2.125908 1_555
Mg25 O10 2.125908 1_555
Mg25 O27 2.164931 1_555
Mg25 O3 2.181282 1_555
Mg26 O4 2.103772 1_555
Mg26 O24 2.112974 1_556
Mg26 O12 2.146516 1_555
Mg26 O13 2.146516 1_455
Mg26 O28 2.157425 1_555
Mg26 O6 2.168764 1_555
Mg27 O5 2.089674 1_555
Mg27 O29 2.103618 1_555
Mg27 O13 2.125908 1_555
Mg27 O12 2.125908 1_555
Mg27 O25 2.164931 1_556
Mg27 O7 2.181282 1_555
Mg28 O4 2.103772 1_565
Mg28 O26 2.112974 1_556
Mg28 O14 2.146516 1_555
Mg28 O15 2.146516 1_455
Mg28 O30 2.157425 1_555
Mg28 O6 2.168764 1_555
Mg29 O5 2.089674 1_565
Mg29 O31 2.103618 1_555
Mg29 O14 2.125908 1_555
Mg29 O15 2.125908 1_555
Mg29 O27 2.164931 1_556
Mg29 O7 2.181282 1_555
O3 W0 2.171155 1_555
O7 W0 2.171155 1_556
O18 W0 2.164232 1_555
O19 W0 2.164232 1_555
O25 W0 2.164232 1_555
O27 W0 2.164232 1_555
