# generated using pymatgen
data_Er6Ni20As13
_symmetry_space_group_name_H-M   'P 1'
_cell_length_a   13.07221005
_cell_length_b   13.07221005
_cell_length_c   3.84061400
_cell_angle_alpha   90.00000000
_cell_angle_beta   90.00000000
_cell_angle_gamma   120.00000025
_symmetry_Int_Tables_number   1
_chemical_formula_structural   Er6Ni20As13
_chemical_formula_sum   'Er6 Ni20 As13'
_cell_volume   568.36761798
_cell_formula_units_Z   1
loop_
 _symmetry_equiv_pos_site_id
 _symmetry_equiv_pos_as_xyz
  1  'x, y, z'
loop_
 _atom_site_type_symbol
 _atom_site_label
 _atom_site_symmetry_multiplicity
 _atom_site_fract_x
 _atom_site_fract_y
 _atom_site_fract_z
 _atom_site_occupancy
  Er  Er0  1  0.52795700  0.80892500  0.00000000  1
  Er  Er1  1  0.28096800  0.47204300  0.00000000  1
  Er  Er2  1  0.19107500  0.71903200  0.00000000  1
  Er  Er3  1  0.81010300  0.28148200  0.50000000  1
  Er  Er4  1  0.47137900  0.18989700  0.50000000  1
  Er  Er5  1  0.71851800  0.52862100  0.50000000  1
  Ni  Ni0  1  0.80091900  0.90761000  0.00000000  1
  Ni  Ni1  1  0.10669000  0.19908100  0.00000000  1
  Ni  Ni2  1  0.09239000  0.89331000  0.00000000  1
  Ni  Ni3  1  0.33333300  0.66666700  0.50000000  1
  Ni  Ni4  1  0.92617800  0.08451600  0.50000000  1
  Ni  Ni5  1  0.15833800  0.07382200  0.50000000  1
  Ni  Ni6  1  0.91548400  0.84166200  0.50000000  1
  Ni  Ni7  1  0.66666700  0.33333300  0.00000000  1
  Ni  Ni8  1  0.56293800  0.58228700  0.00000000  1
  Ni  Ni9  1  0.01934900  0.43706200  0.00000000  1
  Ni  Ni10  1  0.41771300  0.98065100  0.00000000  1
  Ni  Ni11  1  0.68136200  0.75071600  0.50000000  1
  Ni  Ni12  1  0.06935500  0.31863800  0.50000000  1
  Ni  Ni13  1  0.24928400  0.93064500  0.50000000  1
  Ni  Ni14  1  0.97994800  0.56511400  0.50000000  1
  Ni  Ni15  1  0.58516600  0.02005200  0.50000000  1
  Ni  Ni16  1  0.43488600  0.41483400  0.50000000  1
  Ni  Ni17  1  0.75509300  0.07572400  0.00000000  1
  Ni  Ni18  1  0.32063100  0.24490700  0.00000000  1
  Ni  Ni19  1  0.92427600  0.67936900  0.00000000  1
  As  As0  1  0.47441900  0.61245800  0.50000000  1
  As  As1  1  0.13803900  0.52558100  0.50000000  1
  As  As2  1  0.38754200  0.86196100  0.50000000  1
  As  As3  1  0.71799100  0.95019100  0.50000000  1
  As  As4  1  0.23220100  0.28200900  0.50000000  1
  As  As5  1  0.04980900  0.76779900  0.50000000  1
  As  As6  1  0.86083800  0.47597400  0.00000000  1
  As  As7  1  0.61513600  0.13916200  0.00000000  1
  As  As8  1  0.52402600  0.38486400  0.00000000  1
  As  As9  1  0.94741500  0.23210500  0.00000000  1
  As  As10  1  0.28469000  0.05258500  0.00000000  1
  As  As11  1  0.76789500  0.71531000  0.00000000  1
  As  As12  1  0.00000000  0.00000000  0.00000000  1
loop_
_geom_bond_atom_site_label_1
_geom_bond_atom_site_label_2
_geom_bond_distance
_geom_bond_site_symmetry_2
Er0 Ni3 2.981169 1_554
Er0 Ni3 2.981169 1_555
Er0 Ni0 3.129415 1_555
Er0 Ni15 3.130479 1_565
Er0 Ni15 3.130479 1_564
Er0 Ni11 3.132712 1_555
Er0 Ni11 3.132712 1_554
Er0 Ni8 3.215776 1_555
Er0 Ni10 3.217339 1_555
Er0 Ni17 3.259487 1_565
Er1 Ni3 2.981172 1_554
Er1 Ni3 2.981172 1_555
Er1 Ni1 3.129417 1_555
Er1 Ni16 3.130479 1_554
Er1 Ni16 3.130479 1_555
Er1 Ni12 3.132704 1_555
Er1 Ni12 3.132704 1_554
Er1 Ni9 3.215776 1_555
Er1 Ni8 3.217339 1_555
Er1 Ni18 3.259487 1_555
Er2 Ni3 2.981162 1_555
Er2 Ni3 2.981162 1_554
Er2 Ni2 3.129427 1_555
Er2 Ni14 3.130479 1_454
Er2 Ni14 3.130479 1_455
Er2 Ni13 3.132702 1_554
Er2 Ni13 3.132702 1_555
Er2 Ni10 3.215776 1_555
Er2 Ni9 3.217339 1_555
Er2 Ni19 3.259487 1_455
Er3 Ni7 2.988918 1_555
Er3 Ni7 2.988918 1_556
Er3 Ni17 3.083028 1_556
Er3 Ni17 3.083028 1_555
Er3 Ni9 3.121334 1_656
Er3 Ni9 3.121334 1_655
Er3 Ni12 3.174136 1_655
Er3 Ni15 3.205678 1_555
Er3 Ni14 3.231797 1_555
Er4 Ni7 2.988925 1_555
Er4 Ni7 2.988925 1_556
Er4 Ni18 3.083028 1_555
Er4 Ni18 3.083028 1_556
Er4 Ni10 3.121334 1_545
Er4 Ni10 3.121334 1_546
Er4 Ni13 3.174131 1_545
Er4 Ni16 3.205679 1_555
Er4 Ni15 3.231797 1_555
Er5 Ni7 2.988927 1_555
Er5 Ni7 2.988927 1_556
Er5 Ni19 3.083028 1_555
Er5 Ni19 3.083028 1_556
Er5 Ni8 3.121334 1_555
Er5 Ni8 3.121334 1_556
Er5 Ni11 3.174123 1_555
Er5 Ni14 3.205679 1_555
Er5 Ni16 3.231797 1_555
As0 Ni3 2.282664 1_555
As0 Ni16 2.367674 1_555
As0 Ni8 2.374548 1_556
As0 Ni8 2.374548 1_555
As0 Ni11 2.386498 1_555
As0 Er1 2.968164 1_555
As0 Er1 2.968164 1_556
As0 Er0 2.995982 1_556
As0 Er0 2.995982 1_555
As1 Ni3 2.282655 1_555
As1 Ni14 2.367674 1_455
As1 Ni9 2.374548 1_556
As1 Ni9 2.374548 1_555
As1 Ni12 2.386501 1_555
As1 Er2 2.968164 1_555
As1 Er2 2.968164 1_556
As1 Er1 2.995982 1_556
As1 Er1 2.995982 1_555
As2 Ni3 2.282652 1_555
As2 Ni15 2.367674 1_565
As2 Ni10 2.374548 1_555
As2 Ni10 2.374548 1_556
As2 Ni13 2.386489 1_555
As2 Er0 2.968164 1_556
As2 Er0 2.968164 1_555
As2 Er2 2.995982 1_556
As2 Er2 2.995982 1_555
As3 Ni15 2.331194 1_565
As3 Ni4 2.389760 1_565
As3 Ni0 2.403330 1_556
As3 Ni0 2.403330 1_555
As3 Ni11 2.404199 1_555
As3 Ni17 2.412422 1_565
As3 Ni17 2.412422 1_566
As3 Er0 2.946421 1_555
As3 Er0 2.946421 1_556
As4 Ni16 2.331184 1_555
As4 Ni5 2.389758 1_555
As4 Ni1 2.403342 1_555
As4 Ni1 2.403342 1_556
As4 Ni12 2.404199 1_555
As4 Ni18 2.412414 1_556
As4 Ni18 2.412414 1_555
As4 Er1 2.946424 1_556
As4 Er1 2.946424 1_555
As5 Ni14 2.331182 1_455
As5 Ni6 2.389770 1_455
As5 Ni2 2.403345 1_556
As5 Ni2 2.403345 1_555
As5 Ni13 2.404199 1_555
As5 Ni19 2.412420 1_455
As5 Ni19 2.412420 1_456
As5 Er2 2.946414 1_556
As5 Er2 2.946414 1_555
As6 Ni7 2.277421 1_555
As6 Ni19 2.356297 1_555
As6 Ni9 2.367762 1_655
As6 Ni14 2.378110 1_555
As6 Ni14 2.378110 1_554
As6 Er5 2.983759 1_555
As6 Er5 2.983759 1_554
As6 Er3 2.984166 1_555
As6 Er3 2.984166 1_554
As7 Ni7 2.277417 1_555
As7 Ni17 2.356297 1_555
As7 Ni10 2.367762 1_545
As7 Ni15 2.378110 1_555
As7 Ni15 2.378110 1_554
As7 Er3 2.983759 1_555
As7 Er3 2.983759 1_554
As7 Er4 2.984166 1_555
As7 Er4 2.984166 1_554
As8 Ni7 2.277430 1_555
As8 Ni18 2.356297 1_555
As8 Ni8 2.367762 1_555
As8 Ni16 2.378110 1_554
As8 Ni16 2.378110 1_555
As8 Er4 2.983759 1_555
As8 Er4 2.983759 1_554
As8 Er5 2.984166 1_555
As8 Er5 2.984166 1_554
As9 Ni17 2.315194 1_555
As9 Ni1 2.328139 1_655
As9 Ni9 2.354395 1_655
As9 Ni12 2.388500 1_654
As9 Ni12 2.388500 1_655
As9 Ni4 2.636531 1_554
As9 Ni4 2.636531 1_555
As9 Er3 2.912855 1_554
As9 Er3 2.912855 1_555
As10 Ni18 2.315194 1_555
As10 Ni2 2.328147 1_545
As10 Ni10 2.354395 1_545
As10 Ni13 2.388502 1_544
As10 Ni13 2.388502 1_545
As10 Ni5 2.636531 1_554
As10 Ni5 2.636531 1_555
As10 Er4 2.912855 1_555
As10 Er4 2.912855 1_554
As11 Ni19 2.315194 1_555
As11 Ni0 2.328151 1_555
As11 Ni8 2.354395 1_555
As11 Ni11 2.388494 1_555
As11 Ni11 2.388494 1_554
As11 Ni6 2.636531 1_554
As11 Ni6 2.636531 1_555
As11 Er5 2.912855 1_554
As11 Er5 2.912855 1_555
As12 Ni2 2.255695 1_545
As12 Ni1 2.255706 1_555
As12 Ni0 2.255707 1_445
As12 Ni6 2.627852 1_445
As12 Ni6 2.627852 1_444
As12 Ni5 2.627852 1_555
As12 Ni5 2.627852 1_554
As12 Ni4 2.627852 1_454
As12 Ni4 2.627852 1_455
