# generated using pymatgen
data_TeMoWSeS2
_symmetry_space_group_name_H-M   'P 1'
_cell_length_a   3.30830597
_cell_length_b   3.30830597
_cell_length_c   38.31166400
_cell_angle_alpha   90.00000000
_cell_angle_beta   90.00000000
_cell_angle_gamma   119.99999932
_symmetry_Int_Tables_number   1
_chemical_formula_structural   TeMoWSeS2
_chemical_formula_sum   'Te2 Mo2 W2 Se2 S4'
_cell_volume   363.13907758
_cell_formula_units_Z   2
loop_
 _symmetry_equiv_pos_site_id
 _symmetry_equiv_pos_as_xyz
  1  'x, y, z'
loop_
 _atom_site_type_symbol
 _atom_site_label
 _atom_site_symmetry_multiplicity
 _atom_site_fract_x
 _atom_site_fract_y
 _atom_site_fract_z
 _atom_site_occupancy
  Te  Te0  1  0.33333300  0.66666700  0.71033200  1
  Te  Te1  1  0.33333300  0.66666700  0.60982500  1
  Mo  Mo0  1  0.33333300  0.66666700  0.46752400  1
  Mo  Mo1  1  0.66666700  0.33333300  0.28157500  1
  W  W0  1  0.33333300  0.66666700  0.09373700  1
  W  W1  1  0.66666700  0.33333300  0.66005300  1
  Se  Se0  1  0.66666700  0.33333300  0.42366700  1
  Se  Se1  1  0.66666700  0.33333300  0.51133300  1
  S  S0  1  0.33333300  0.66666700  0.32149200  1
  S  S1  1  0.66666700  0.33333300  0.05370000  1
  S  S2  1  0.66666700  0.33333300  0.13377800  1
  S  S3  1  0.33333300  0.66666700  0.24173100  1
loop_
_geom_bond_atom_site_label_1
_geom_bond_atom_site_label_2
_geom_bond_distance
_geom_bond_site_symmetry_2
Te0 W1 2.712713 1_455
Te0 W1 2.712713 1_565
Te0 W1 2.712717 1_555
Te1 W1 2.711326 1_455
Te1 W1 2.711326 1_565
Te1 W1 2.711330 1_555
Mo0 Se1 2.542696 1_455
Mo0 Se1 2.542696 1_565
Mo0 Se1 2.542700 1_555
Mo0 Se0 2.543910 1_455
Mo0 Se0 2.543910 1_565
Mo0 Se0 2.543914 1_555
Mo1 S3 2.445089 1_545
Mo1 S3 2.445089 1_655
Mo1 S3 2.445094 1_555
Mo1 S0 2.446836 1_545
Mo1 S0 2.446836 1_655
Mo1 S0 2.446841 1_555
S1 W0 2.449712 1_545
S1 W0 2.449712 1_655
S1 W0 2.449717 1_555
S2 W0 2.449808 1_545
S2 W0 2.449808 1_655
S2 W0 2.449812 1_555
