# generated using pymatgen
data_Cs3P6N11
_symmetry_space_group_name_H-M   'P 1'
_cell_length_a   10.66454506
_cell_length_b   10.66454506
_cell_length_c   10.66454506
_cell_angle_alpha   90.00000000
_cell_angle_beta   90.00000000
_cell_angle_gamma   90.00000000
_symmetry_Int_Tables_number   1
_chemical_formula_structural   Cs3P6N11
_chemical_formula_sum   'Cs12 P24 N44'
_cell_volume   1212.90559858
_cell_formula_units_Z   4
loop_
 _symmetry_equiv_pos_site_id
 _symmetry_equiv_pos_as_xyz
  1  'x, y, z'
loop_
 _atom_site_type_symbol
 _atom_site_label
 _atom_site_symmetry_multiplicity
 _atom_site_fract_x
 _atom_site_fract_y
 _atom_site_fract_z
 _atom_site_occupancy
  Cs  Cs0  1  0.97849796  0.97849796  0.97849796  1
  Cs  Cs1  1  0.22849796  0.27150204  0.72849796  1
  Cs  Cs2  1  0.27150204  0.72849796  0.22849796  1
  Cs  Cs3  1  0.72849796  0.22849796  0.27150204  1
  Cs  Cs4  1  0.47849796  0.52150204  0.02150204  1
  Cs  Cs5  1  0.52150204  0.02150204  0.47849796  1
  Cs  Cs6  1  0.02150204  0.47849796  0.52150204  1
  Cs  Cs7  1  0.77150204  0.77150204  0.77150204  1
  Cs  Cs8  1  0.87500000  0.12500000  0.62500000  1
  Cs  Cs9  1  0.12500000  0.62500000  0.87500000  1
  Cs  Cs10  1  0.62500000  0.87500000  0.12500000  1
  Cs  Cs11  1  0.37500000  0.37500000  0.37500000  1
  P  P0  1  0.68154032  0.45766405  0.54978585  1
  P  P1  1  0.18154032  0.04233595  0.45021415  1
  P  P2  1  0.45766405  0.54978585  0.68154032  1
  P  P3  1  0.54233595  0.04978585  0.81845968  1
  P  P4  1  0.54978585  0.68154032  0.45766405  1
  P  P5  1  0.95021415  0.31845968  0.95766405  1
  P  P6  1  0.43154032  0.79978585  0.79233595  1
  P  P7  1  0.93154032  0.70021415  0.20766405  1
  P  P8  1  0.56845968  0.29978585  0.70766405  1
  P  P9  1  0.70021415  0.20766405  0.93154032  1
  P  P10  1  0.70766405  0.56845968  0.29978585  1
  P  P11  1  0.20766405  0.93154032  0.70021415  1
  P  P12  1  0.79978585  0.79233595  0.43154032  1
  P  P13  1  0.79233595  0.43154032  0.79978585  1
  P  P14  1  0.29978585  0.70766405  0.56845968  1
  P  P15  1  0.20021415  0.29233595  0.06845968  1
  P  P16  1  0.29233595  0.06845968  0.20021415  1
  P  P17  1  0.45021415  0.18154032  0.04233595  1
  P  P18  1  0.04978585  0.81845968  0.54233595  1
  P  P19  1  0.95766405  0.95021415  0.31845968  1
  P  P20  1  0.04233595  0.45021415  0.18154032  1
  P  P21  1  0.81845968  0.54233595  0.04978585  1
  P  P22  1  0.31845968  0.95766405  0.95021415  1
  P  P23  1  0.06845968  0.20021415  0.29233595  1
  N  N0  1  0.55689209  0.55689209  0.55689209  1
  N  N1  1  0.80689209  0.69310791  0.30689209  1
  N  N2  1  0.69310791  0.30689209  0.80689209  1
  N  N3  1  0.30689209  0.80689209  0.69310791  1
  N  N4  1  0.05689209  0.94310791  0.44310791  1
  N  N5  1  0.94310791  0.44310791  0.05689209  1
  N  N6  1  0.44310791  0.05689209  0.94310791  1
  N  N7  1  0.19310791  0.19310791  0.19310791  1
  N  N8  1  0.62500000  0.31725769  0.56725769  1
  N  N9  1  0.68274231  0.06725769  0.87500000  1
  N  N10  1  0.56725769  0.62500000  0.31725769  1
  N  N11  1  0.93274231  0.37500000  0.81725769  1
  N  N12  1  0.31725769  0.56725769  0.62500000  1
  N  N13  1  0.43274231  0.12500000  0.18274231  1
  N  N14  1  0.06725769  0.87500000  0.68274231  1
  N  N15  1  0.81725769  0.93274231  0.37500000  1
  N  N16  1  0.18274231  0.43274231  0.12500000  1
  N  N17  1  0.87500000  0.68274231  0.06725769  1
  N  N18  1  0.37500000  0.81725769  0.93274231  1
  N  N19  1  0.27430240  0.00779513  0.33526804  1
  N  N20  1  0.12500000  0.18274231  0.43274231  1
  N  N21  1  0.24220487  0.02430240  0.58526804  1
  N  N22  1  0.47569760  0.41473196  0.74220487  1
  N  N23  1  0.52430240  0.91473196  0.75779513  1
  N  N24  1  0.41473196  0.74220487  0.47569760  1
  N  N25  1  0.08526804  0.25779513  0.97569760  1
  N  N26  1  0.49220487  0.66473196  0.77430240  1
  N  N27  1  0.99220487  0.83526804  0.22569760  1
  N  N28  1  0.50779513  0.16473196  0.72569760  1
  N  N29  1  0.83526804  0.22569760  0.99220487  1
  N  N30  1  0.72569760  0.50779513  0.16473196  1
  N  N31  1  0.22569760  0.99220487  0.83526804  1
  N  N32  1  0.66473196  0.77430240  0.49220487  1
  N  N33  1  0.77430240  0.49220487  0.66473196  1
  N  N34  1  0.16473196  0.72569760  0.50779513  1
  N  N35  1  0.33526804  0.27430240  0.00779513  1
  N  N36  1  0.00779513  0.33526804  0.27430240  1
  N  N37  1  0.25779513  0.97569760  0.08526804  1
  N  N38  1  0.75779513  0.52430240  0.91473196  1
  N  N39  1  0.02430240  0.58526804  0.24220487  1
  N  N40  1  0.97569760  0.08526804  0.25779513  1
  N  N41  1  0.91473196  0.75779513  0.52430240  1
  N  N42  1  0.58526804  0.24220487  0.02430240  1
  N  N43  1  0.74220487  0.47569760  0.41473196  1
loop_
_geom_bond_atom_site_label_1
_geom_bond_atom_site_label_2
_geom_bond_distance
_geom_bond_site_symmetry_2
Cs0 N31 3.050327 1_655
Cs0 N29 3.050327 1_565
Cs0 N27 3.050327 1_556
Cs0 N37 3.188942 1_656
Cs0 N25 3.188942 1_665
Cs0 N40 3.188942 1_566
Cs0 N9 3.473132 1_565
Cs0 N17 3.473132 1_556
Cs0 N14 3.473132 1_655
Cs1 N22 3.050327 1_555
Cs1 N21 3.050327 1_555
Cs1 N25 3.050327 1_555
Cs1 N28 3.188942 1_555
Cs1 N31 3.188942 1_545
Cs1 N35 3.188942 1_556
Cs1 N20 3.473132 1_555
Cs1 N12 3.473132 1_555
Cs1 N11 3.473132 1_455
Cs2 N24 3.050327 1_555
Cs2 N39 3.050327 1_555
Cs2 N37 3.050327 1_555
Cs2 N27 3.188942 1_455
Cs2 N34 3.188942 1_555
Cs2 N19 3.188942 1_565
Cs2 N16 3.473132 1_555
Cs2 N10 3.473132 1_555
Cs2 N18 3.473132 1_554
Cs3 N42 3.050327 1_555
Cs3 N43 3.050327 1_555
Cs3 N40 3.050327 1_555
Cs3 N29 3.188942 1_554
Cs3 N30 3.188942 1_555
Cs3 N36 3.188942 1_655
Cs3 N8 3.473132 1_555
Cs3 N15 3.473132 1_545
Cs3 N13 3.473132 1_555
Cs4 N35 3.050327 1_555
Cs4 N26 3.050327 1_554
Cs4 N30 3.050327 1_555
Cs4 N38 3.188942 1_554
Cs4 N42 3.188942 1_555
Cs4 N22 3.188942 1_554
Cs4 N10 3.473132 1_555
Cs4 N16 3.473132 1_555
Cs4 N18 3.473132 1_554
Cs5 N19 3.050327 1_555
Cs5 N28 3.050327 1_555
Cs5 N32 3.050327 1_545
Cs5 N21 3.188942 1_555
Cs5 N24 3.188942 1_545
Cs5 N23 3.188942 1_545
Cs5 N8 3.473132 1_555
Cs5 N15 3.473132 1_545
Cs5 N13 3.473132 1_555
Cs6 N36 3.050327 1_555
Cs6 N34 3.050327 1_555
Cs6 N33 3.050327 1_455
Cs6 N43 3.188942 1_455
Cs6 N39 3.188942 1_555
Cs6 N41 3.188942 1_455
Cs6 N20 3.473132 1_555
Cs6 N12 3.473132 1_555
Cs6 N11 3.473132 1_455
Cs7 N23 3.050327 1_555
Cs7 N41 3.050327 1_555
Cs7 N38 3.050327 1_555
Cs7 N26 3.188942 1_555
Cs7 N32 3.188942 1_555
Cs7 N33 3.188942 1_555
Cs7 N17 3.473132 1_556
Cs7 N14 3.473132 1_655
Cs7 N9 3.473132 1_565
Cs8 N2 3.359826 1_555
Cs8 N4 3.359826 1_645
Cs8 N14 3.419267 1_645
Cs8 N20 3.419267 1_655
Cs8 N8 3.419267 1_555
Cs8 N15 3.419267 1_545
Cs8 N11 3.419267 1_555
Cs8 N9 3.419267 1_555
Cs9 N3 3.359826 1_555
Cs9 N5 3.359826 1_456
Cs9 N17 3.419267 1_456
Cs9 N16 3.419267 1_556
Cs9 N12 3.419267 1_555
Cs9 N18 3.419267 1_555
Cs9 N11 3.419267 1_455
Cs9 N14 3.419267 1_555
Cs10 N1 3.359826 1_555
Cs10 N6 3.359826 1_564
Cs10 N9 3.419267 1_564
Cs10 N13 3.419267 1_565
Cs10 N10 3.419267 1_555
Cs10 N17 3.419267 1_555
Cs10 N15 3.419267 1_555
Cs10 N18 3.419267 1_554
Cs11 N0 3.359826 1_555
Cs11 N7 3.359826 1_555
Cs11 N20 3.419267 1_555
Cs11 N13 3.419267 1_555
Cs11 N10 3.419267 1_555
Cs11 N12 3.419267 1_555
Cs11 N16 3.419267 1_555
Cs11 N8 3.419267 1_555
N0 P2 1.700782 1_555
N0 P0 1.700782 1_555
N0 P4 1.700782 1_555
N1 P12 1.700782 1_555
N1 P10 1.700782 1_555
N1 P7 1.700782 1_555
N2 P13 1.700782 1_555
N2 P8 1.700782 1_555
N2 P9 1.700782 1_555
N3 P6 1.700782 1_555
N3 P14 1.700782 1_555
N3 P11 1.700782 1_555
N4 P1 1.700782 1_565
N4 P19 1.700782 1_455
N4 P18 1.700782 1_555
N5 P5 1.700782 1_554
N5 P20 1.700782 1_655
N5 P21 1.700782 1_555
N6 P17 1.700782 1_556
N6 P22 1.700782 1_545
N6 P3 1.700782 1_555
N7 P15 1.700782 1_555
N7 P16 1.700782 1_555
N7 P23 1.700782 1_555
N8 P8 1.624936 1_555
N8 P0 1.624936 1_555
N9 P3 1.624936 1_555
N9 P9 1.624936 1_555
N10 P10 1.624936 1_555
N10 P4 1.624936 1_555
N11 P13 1.624936 1_555
N11 P5 1.624936 1_555
N12 P14 1.624936 1_555
N12 P2 1.624936 1_555
N13 P17 1.624936 1_555
N13 P16 1.624936 1_555
N14 P18 1.624936 1_555
N14 P11 1.624936 1_555
N15 P19 1.624936 1_555
N15 P12 1.624936 1_555
N16 P20 1.624936 1_555
N16 P15 1.624936 1_555
N17 P21 1.624936 1_555
N17 P7 1.624936 1_555
N18 P22 1.624936 1_555
N18 P6 1.624936 1_555
N19 P16 1.590589 1_555
N19 P1 1.617727 1_555
N20 P1 1.624936 1_555
N20 P23 1.624936 1_555
N21 P1 1.590589 1_555
N21 P11 1.617727 1_545
N22 P2 1.590589 1_555
N22 P8 1.617727 1_555
N23 P3 1.590589 1_565
N23 P6 1.617727 1_555
N24 P4 1.590589 1_555
N24 P14 1.617727 1_555
N25 P5 1.590589 1_455
N25 P15 1.617727 1_556
N26 P6 1.590589 1_555
N26 P2 1.617727 1_555
N27 P7 1.590589 1_555
N27 P19 1.617727 1_555
N28 P8 1.590589 1_555
N28 P3 1.617727 1_555
N29 P9 1.590589 1_555
N29 P5 1.617727 1_555
N30 P10 1.590589 1_555
N30 P21 1.617727 1_555
N31 P11 1.590589 1_555
N31 P22 1.617727 1_555
N32 P12 1.590589 1_555
N32 P4 1.617727 1_555
N33 P13 1.590589 1_555
N33 P0 1.617727 1_555
N34 P14 1.590589 1_555
N34 P18 1.617727 1_555
N35 P15 1.590589 1_555
N35 P17 1.617727 1_555
N36 P23 1.590589 1_555
N36 P20 1.617727 1_555
N37 P22 1.590589 1_554
N37 P16 1.617727 1_565
N38 P21 1.590589 1_556
N38 P13 1.617727 1_555
N39 P20 1.590589 1_555
N39 P7 1.617727 1_455
N40 P19 1.590589 1_545
N40 P23 1.617727 1_655
N41 P18 1.590589 1_655
N41 P12 1.617727 1_555
N42 P17 1.590589 1_555
N42 P9 1.617727 1_554
N43 P0 1.590589 1_555
N43 P10 1.617727 1_555
