# generated using pymatgen
data_Th(PO3)4
_symmetry_space_group_name_H-M   'P 1'
_cell_length_a   7.06867339
_cell_length_b   7.06867339
_cell_length_c   12.73885601
_cell_angle_alpha   85.34063764
_cell_angle_beta   85.34063764
_cell_angle_gamma   70.31128970
_symmetry_Int_Tables_number   1
_chemical_formula_structural   Th(PO3)4
_chemical_formula_sum   'Th2 P8 O24'
_cell_volume   596.33381015
_cell_formula_units_Z   2
loop_
 _symmetry_equiv_pos_site_id
 _symmetry_equiv_pos_as_xyz
  1  'x, y, z'
loop_
 _atom_site_type_symbol
 _atom_site_label
 _atom_site_symmetry_multiplicity
 _atom_site_fract_x
 _atom_site_fract_y
 _atom_site_fract_z
 _atom_site_occupancy
  Th  Th0  1  0.52040800  0.47959200  0.75000000  1
  Th  Th1  1  0.47959200  0.52040800  0.25000000  1
  P  P0  1  0.37307400  0.83849100  0.98633300  1
  P  P1  1  0.16150900  0.62692600  0.51366700  1
  P  P2  1  0.62692600  0.16150900  0.01366700  1
  P  P3  1  0.83849100  0.37307400  0.48633300  1
  P  P4  1  0.96298500  0.63015600  0.80438900  1
  P  P5  1  0.36984400  0.03701500  0.69561100  1
  P  P6  1  0.03701500  0.36984400  0.19561100  1
  P  P7  1  0.63015600  0.96298500  0.30438900  1
  O  O0  1  0.28982700  0.05872000  0.96494400  1
  O  O1  1  0.94128000  0.71017300  0.53505600  1
  O  O2  1  0.71017300  0.94128000  0.03505600  1
  O  O3  1  0.05872000  0.28982700  0.46494400  1
  O  O4  1  0.87941100  0.84966600  0.80794200  1
  O  O5  1  0.15033400  0.12058900  0.69205800  1
  O  O6  1  0.12058900  0.15033400  0.19205800  1
  O  O7  1  0.84966600  0.87941100  0.30794200  1
  O  O8  1  0.43487100  0.70104400  0.89720000  1
  O  O9  1  0.29895600  0.56512900  0.60280000  1
  O  O10  1  0.56512900  0.29895600  0.10280000  1
  O  O11  1  0.70104400  0.43487100  0.39720000  1
  O  O12  1  0.61369900  0.26078700  0.90509600  1
  O  O13  1  0.73921300  0.38630100  0.59490400  1
  O  O14  1  0.38630100  0.73921300  0.09490400  1
  O  O15  1  0.26078700  0.61369900  0.40509600  1
  O  O16  1  0.18246900  0.51489300  0.81908200  1
  O  O17  1  0.48510700  0.81753100  0.68091800  1
  O  O18  1  0.81753100  0.48510700  0.18091800  1
  O  O19  1  0.51489300  0.18246900  0.31908200  1
  O  O20  1  0.83549600  0.50167800  0.79170500  1
  O  O21  1  0.49832200  0.16450400  0.70829500  1
  O  O22  1  0.16450400  0.49832200  0.20829500  1
  O  O23  1  0.50167800  0.83549600  0.29170500  1
loop_
_geom_bond_atom_site_label_1
_geom_bond_atom_site_label_2
_geom_bond_distance
_geom_bond_site_symmetry_2
O0 P0 1.477766 1_545
O1 P1 1.477766 1_655
O2 P2 1.477766 1_565
O3 P3 1.477766 1_455
O4 P4 1.465625 1_555
O5 P5 1.465625 1_555
O6 P6 1.465625 1_555
O7 P7 1.465625 1_555
O8 P0 1.495555 1_555
O8 Th0 2.446860 1_555
O9 P1 1.495555 1_555
O9 Th0 2.446860 1_555
O10 P2 1.495555 1_555
O10 Th1 2.446860 1_555
O11 P3 1.495555 1_555
O11 Th1 2.446860 1_555
O12 P2 1.494393 1_556
O12 Th0 2.399700 1_555
O13 P3 1.494393 1_555
O13 Th0 2.399700 1_555
O14 P0 1.494393 1_554
O14 Th1 2.399700 1_555
O15 P1 1.494393 1_555
O15 Th1 2.399700 1_555
O16 P4 1.508822 1_455
O16 Th0 2.415675 1_555
O17 P5 1.508822 1_565
O17 Th0 2.415675 1_555
O18 P6 1.508822 1_655
O18 Th1 2.415675 1_555
O19 P7 1.508822 1_545
O19 Th1 2.415675 1_555
O20 P4 1.503983 1_555
O20 Th0 2.388995 1_555
O21 P5 1.503983 1_555
O21 Th0 2.388995 1_555
O22 P6 1.503983 1_555
O22 Th1 2.388995 1_555
O23 P7 1.503983 1_555
O23 Th1 2.388995 1_555
