# generated using pymatgen
data_DyU2S3O2
_symmetry_space_group_name_H-M   'P 1'
_cell_length_a   10.95068893
_cell_length_b   10.95068893
_cell_length_c   10.95068893
_cell_angle_alpha   160.01362396
_cell_angle_beta   160.01362396
_cell_angle_gamma   28.41213216
_symmetry_Int_Tables_number   1
_chemical_formula_structural   DyU2S3O2
_chemical_formula_sum   'Dy1 U2 S3 O2'
_cell_volume   153.33828754
_cell_formula_units_Z   1
loop_
 _symmetry_equiv_pos_site_id
 _symmetry_equiv_pos_as_xyz
  1  'x, y, z'
loop_
 _atom_site_type_symbol
 _atom_site_label
 _atom_site_symmetry_multiplicity
 _atom_site_fract_x
 _atom_site_fract_y
 _atom_site_fract_z
 _atom_site_occupancy
  Dy  Dy0  1  0.00000000  0.00000000  0.00000000  1
  U  U0  1  0.31344300  0.31344300  0.00000000  1
  U  U1  1  0.68655700  0.68655700  0.00000000  1
  S  S0  1  0.12884700  0.12884700  0.00000000  1
  S  S1  1  0.87115300  0.87115300  0.00000000  1
  S  S2  1  0.50000000  0.50000000  0.00000000  1
  O  O0  1  0.75000000  0.25000000  0.50000000  1
  O  O1  1  0.25000000  0.75000000  0.50000000  1
loop_
_geom_bond_atom_site_label_1
_geom_bond_atom_site_label_2
_geom_bond_distance
_geom_bond_site_symmetry_2
Dy0 S2 2.687409 1_455
Dy0 S2 2.687409 1_556
Dy0 S2 2.687409 1_444
Dy0 S2 2.687409 1_545
Dy0 S0 2.735631 1_555
Dy0 S1 2.735631 1_445
S0 U1 2.953552 1_455
S0 U1 2.953552 1_444
S0 U1 2.953552 1_556
S0 U1 2.953552 1_545
S1 U0 2.953552 1_554
S1 U0 2.953552 1_655
S1 U0 2.953552 1_565
S1 U0 2.953552 1_666
O0 U0 2.329267 1_656
O0 U0 2.329267 1_555
O0 U1 2.329267 1_545
O0 U1 2.329267 1_556
O1 U0 2.329267 1_555
O1 U0 2.329267 1_566
O1 U1 2.329267 1_556
O1 U1 2.329267 1_455
