# generated using pymatgen
data_Th5Tl3
_symmetry_space_group_name_H-M   'P 1'
_cell_length_a   6.38326200
_cell_length_b   9.55128076
_cell_length_c   9.55128076
_cell_angle_alpha   120.00000529
_cell_angle_beta   90.00000000
_cell_angle_gamma   90.00000000
_symmetry_Int_Tables_number   1
_chemical_formula_structural   Th5Tl3
_chemical_formula_sum   'Th10 Tl6'
_cell_volume   504.30874819
_cell_formula_units_Z   2
loop_
 _symmetry_equiv_pos_site_id
 _symmetry_equiv_pos_as_xyz
  1  'x, y, z'
loop_
 _atom_site_type_symbol
 _atom_site_label
 _atom_site_symmetry_multiplicity
 _atom_site_fract_x
 _atom_site_fract_y
 _atom_site_fract_z
 _atom_site_occupancy
  Th  Th0  1  0.00000000  0.66666700  0.33333300  1
  Th  Th1  1  0.00000000  0.33333300  0.66666700  1
  Th  Th2  1  0.50000000  0.33333300  0.66666700  1
  Th  Th3  1  0.50000000  0.66666700  0.33333300  1
  Th  Th4  1  0.75000000  0.75775800  0.75775800  1
  Th  Th5  1  0.25000000  0.24224200  0.24224200  1
  Th  Th6  1  0.75000000  0.00000000  0.24224200  1
  Th  Th7  1  0.25000000  0.00000000  0.75775800  1
  Th  Th8  1  0.75000000  0.24224200  0.00000000  1
  Th  Th9  1  0.25000000  0.75775800  0.00000000  1
  Tl  Tl0  1  0.75000000  0.38977100  0.38977100  1
  Tl  Tl1  1  0.25000000  0.61022900  0.61022900  1
  Tl  Tl2  1  0.75000000  0.00000000  0.61022900  1
  Tl  Tl3  1  0.25000000  0.00000000  0.38977100  1
  Tl  Tl4  1  0.75000000  0.61022900  0.00000000  1
  Tl  Tl5  1  0.25000000  0.38977100  0.00000000  1
loop_
_geom_bond_atom_site_label_1
_geom_bond_atom_site_label_2
_geom_bond_distance
_geom_bond_site_symmetry_2
Th0 Th3 3.191631 1_555
Th0 Th3 3.191631 1_455
Th0 Tl4 3.355189 1_455
Th0 Tl3 3.355189 1_565
Th0 Tl2 3.355192 1_465
Th0 Tl5 3.355192 1_555
Th0 Tl1 3.355198 1_555
Th0 Tl0 3.355198 1_455
Th1 Th2 3.191631 1_455
Th1 Th2 3.191631 1_555
Th1 Tl2 3.355189 1_455
Th1 Tl5 3.355189 1_556
Th1 Tl4 3.355192 1_456
Th1 Tl3 3.355192 1_555
Th1 Tl1 3.355198 1_555
Th1 Tl0 3.355198 1_455
Th2 Tl5 3.355189 1_556
Th2 Tl2 3.355189 1_555
Th2 Tl4 3.355192 1_556
Th2 Tl3 3.355192 1_555
Th2 Tl1 3.355198 1_555
Th2 Tl0 3.355198 1_555
Th3 Tl3 3.355189 1_565
Th3 Tl4 3.355189 1_555
Th3 Tl2 3.355192 1_565
Th3 Tl5 3.355192 1_555
Th3 Tl1 3.355198 1_555
Th3 Tl0 3.355198 1_555
Th4 Tl4 3.255624 1_556
Th4 Tl2 3.255624 1_565
Th4 Tl1 3.488846 1_555
Th4 Tl1 3.488846 1_655
Th4 Tl0 3.514747 1_555
Th5 Tl5 3.255624 1_555
Th5 Tl3 3.255624 1_555
Th5 Tl0 3.488846 1_555
Th5 Tl0 3.488846 1_455
Th5 Tl1 3.514747 1_555
Th6 Tl4 3.255624 1_545
Th6 Tl0 3.255624 1_555
Th6 Tl3 3.488846 1_655
Th6 Tl3 3.488846 1_555
Th6 Tl2 3.514747 1_555
Th7 Tl5 3.255624 1_556
Th7 Tl1 3.255624 1_545
Th7 Tl2 3.488846 1_555
Th7 Tl2 3.488846 1_455
Th7 Tl3 3.514747 1_555
Th8 Tl2 3.255624 1_554
Th8 Tl0 3.255624 1_555
Th8 Tl5 3.488846 1_555
Th8 Tl5 3.488846 1_655
Th8 Tl4 3.514747 1_555
Th9 Tl3 3.255624 1_565
Th9 Tl1 3.255624 1_554
Th9 Tl4 3.488846 1_455
Th9 Tl4 3.488846 1_555
Th9 Tl5 3.514747 1_555
