# generated using pymatgen
data_PrSm(Co2Ni3)2
_symmetry_space_group_name_H-M   'P 1'
_cell_length_a   4.01004400
_cell_length_b   4.96391400
_cell_length_c   8.58064900
_cell_angle_alpha   90.00000000
_cell_angle_beta   90.00000000
_cell_angle_gamma   90.00000000
_symmetry_Int_Tables_number   1
_chemical_formula_structural   PrSm(Co2Ni3)2
_chemical_formula_sum   'Pr1 Sm1 Co4 Ni6'
_cell_volume   170.80222496
_cell_formula_units_Z   1
loop_
 _symmetry_equiv_pos_site_id
 _symmetry_equiv_pos_as_xyz
  1  'x, y, z'
loop_
 _atom_site_type_symbol
 _atom_site_label
 _atom_site_symmetry_multiplicity
 _atom_site_fract_x
 _atom_site_fract_y
 _atom_site_fract_z
 _atom_site_occupancy
  Pr  Pr0  1  0.00000000  0.50000000  0.00000000  1
  Sm  Sm0  1  0.00000000  0.00000000  0.50000000  1
  Co  Co0  1  0.00000000  0.50000000  0.33477300  1
  Co  Co1  1  0.00000000  0.00000000  0.83247900  1
  Co  Co2  1  0.00000000  0.00000000  0.16752100  1
  Co  Co3  1  0.00000000  0.50000000  0.66522700  1
  Ni  Ni0  1  0.50000000  0.00000000  0.00000000  1
  Ni  Ni1  1  0.50000000  0.50000000  0.50000000  1
  Ni  Ni2  1  0.50000000  0.75119900  0.25124400  1
  Ni  Ni3  1  0.50000000  0.24880100  0.74875600  1
  Ni  Ni4  1  0.50000000  0.24880100  0.25124400  1
  Ni  Ni5  1  0.50000000  0.75119900  0.74875600  1
loop_
_geom_bond_atom_site_label_1
_geom_bond_atom_site_label_2
_geom_bond_distance
_geom_bond_site_symmetry_2
Co0 Ni1 2.455635 1_455
Co0 Ni1 2.455635 1_555
Co0 Ni4 2.467520 1_555
Co0 Ni2 2.467520 1_455
Co0 Ni4 2.467520 1_455
Co0 Ni2 2.467520 1_555
Co0 Sm0 2.858346 1_565
Co0 Sm0 2.858346 1_555
Co0 Pr0 2.872570 1_555
Co1 Ni5 2.462011 1_545
Co1 Ni5 2.462011 1_445
Co1 Ni3 2.462011 1_455
Co1 Ni3 2.462011 1_555
Co1 Ni0 2.467052 1_456
Co1 Ni0 2.467052 1_556
Co1 Sm0 2.852886 1_555
Co1 Pr0 2.868160 1_556
Co1 Pr0 2.868160 1_546
Co2 Ni4 2.462011 1_455
Co2 Ni2 2.462011 1_545
Co2 Ni2 2.462011 1_445
Co2 Ni4 2.462011 1_555
Co2 Ni0 2.467052 1_455
Co2 Ni0 2.467052 1_555
Co2 Sm0 2.852886 1_555
Co2 Pr0 2.868160 1_555
Co2 Pr0 2.868160 1_545
Co3 Ni1 2.455635 1_455
Co3 Ni1 2.455635 1_555
Co3 Ni5 2.467520 1_555
Co3 Ni5 2.467520 1_455
Co3 Ni3 2.467520 1_455
Co3 Ni3 2.467520 1_555
Co3 Sm0 2.858346 1_565
Co3 Sm0 2.858346 1_555
Co3 Pr0 2.872570 1_556
Ni0 Ni4 2.484537 1_555
Ni0 Ni3 2.484537 1_554
Ni0 Ni5 2.484537 1_544
Ni0 Ni2 2.484537 1_545
Ni0 Pr0 3.190646 1_545
Ni0 Pr0 3.190646 1_645
Ni0 Pr0 3.190646 1_555
Ni0 Pr0 3.190646 1_655
Ni1 Ni3 2.472018 1_555
Ni1 Ni2 2.472018 1_555
Ni1 Ni4 2.472018 1_555
Ni1 Ni5 2.472018 1_555
Ni1 Sm0 3.190646 1_565
Ni1 Sm0 3.190646 1_665
Ni1 Sm0 3.190646 1_555
Ni1 Sm0 3.190646 1_655
Ni2 Ni4 2.470054 1_565
Ni2 Ni4 2.493860 1_555
Ni2 Sm0 3.178277 1_565
Ni2 Sm0 3.178277 1_665
Ni2 Pr0 3.197277 1_555
Ni2 Pr0 3.197277 1_655
Ni3 Ni5 2.470054 1_545
Ni3 Ni5 2.493860 1_555
Ni3 Sm0 3.178277 1_555
Ni3 Sm0 3.178277 1_655
Ni3 Pr0 3.197277 1_656
Ni3 Pr0 3.197277 1_556
Ni4 Sm0 3.178277 1_555
Ni4 Sm0 3.178277 1_655
Ni4 Pr0 3.197277 1_555
Ni4 Pr0 3.197277 1_655
Ni5 Sm0 3.178277 1_565
Ni5 Sm0 3.178277 1_665
Ni5 Pr0 3.197277 1_656
Ni5 Pr0 3.197277 1_556
