# generated using pymatgen
data_Ce2(CuNi)5
_symmetry_space_group_name_H-M   'P 1'
_cell_length_a   3.94383400
_cell_length_b   5.02651700
_cell_length_c   8.65335700
_cell_angle_alpha   90.00000000
_cell_angle_beta   90.00000000
_cell_angle_gamma   90.00000000
_symmetry_Int_Tables_number   1
_chemical_formula_structural   Ce2(CuNi)5
_chemical_formula_sum   'Ce2 Cu5 Ni5'
_cell_volume   171.54197411
_cell_formula_units_Z   1
loop_
 _symmetry_equiv_pos_site_id
 _symmetry_equiv_pos_as_xyz
  1  'x, y, z'
loop_
 _atom_site_type_symbol
 _atom_site_label
 _atom_site_symmetry_multiplicity
 _atom_site_fract_x
 _atom_site_fract_y
 _atom_site_fract_z
 _atom_site_occupancy
  Ce  Ce0  1  0.00000000  0.50000000  0.00000000  1
  Ce  Ce1  1  0.00000000  0.00000000  0.50000000  1
  Cu  Cu0  1  0.00000000  0.50000000  0.33300500  1
  Cu  Cu1  1  0.00000000  0.00000000  0.83220100  1
  Cu  Cu2  1  0.00000000  0.00000000  0.16779900  1
  Cu  Cu3  1  0.00000000  0.50000000  0.66699500  1
  Cu  Cu4  1  0.50000000  0.00000000  0.00000000  1
  Ni  Ni0  1  0.50000000  0.50000000  0.50000000  1
  Ni  Ni1  1  0.50000000  0.74872100  0.25057100  1
  Ni  Ni2  1  0.50000000  0.25127900  0.74942900  1
  Ni  Ni3  1  0.50000000  0.25127900  0.25057100  1
  Ni  Ni4  1  0.50000000  0.74872100  0.74942900  1
loop_
_geom_bond_atom_site_label_1
_geom_bond_atom_site_label_2
_geom_bond_distance
_geom_bond_site_symmetry_2
Ce0 Cu3 2.881611 1_554
Ce0 Cu0 2.881611 1_555
Ce0 Cu1 2.902558 1_564
Ce0 Cu2 2.902558 1_555
Ce0 Cu1 2.902558 1_554
Ce0 Cu2 2.902558 1_565
Ce0 Ni4 3.186361 1_554
Ce0 Ni3 3.186361 1_555
Ce0 Ni4 3.186361 1_454
Ce0 Ni2 3.186361 1_554
Ce0 Ni1 3.186361 1_455
Ce0 Ni3 3.186361 1_455
Ce0 Ni1 3.186361 1_555
Ce0 Ni2 3.186361 1_454
Ce0 Cu4 3.194515 1_555
Ce0 Cu4 3.194515 1_565
Ce0 Cu4 3.194515 1_465
Ce0 Cu4 3.194515 1_455
Ce1 Cu2 2.874654 1_555
Ce1 Cu1 2.874654 1_555
Ce1 Cu0 2.899084 1_545
Ce1 Cu0 2.899084 1_555
Ce1 Cu3 2.899084 1_555
Ce1 Cu3 2.899084 1_545
Ce1 Ni3 3.184722 1_555
Ce1 Ni3 3.184722 1_455
Ce1 Ni4 3.184722 1_545
Ce1 Ni1 3.184722 1_545
Ce1 Ni2 3.184722 1_555
Ce1 Ni1 3.184722 1_445
Ce1 Ni2 3.184722 1_455
Ce1 Ni4 3.184722 1_445
Ce1 Ni0 3.194515 1_445
Ce1 Ni0 3.194515 1_545
Ce1 Ni0 3.194515 1_455
Ce1 Ni0 3.194515 1_555
Cu0 Ni3 2.441372 1_455
Cu0 Ni1 2.441372 1_555
Cu0 Ni3 2.441372 1_555
Cu0 Ni1 2.441372 1_455
Cu0 Ni0 2.444724 1_555
Cu0 Ni0 2.444724 1_455
Cu0 Cu3 2.890135 1_555
Cu0 Cu2 2.891399 1_555
Cu0 Cu2 2.891399 1_565
Cu1 Ni4 2.448835 1_545
Cu1 Ni4 2.448835 1_445
Cu1 Ni2 2.448835 1_455
Cu1 Ni2 2.448835 1_555
Cu1 Cu4 2.448843 1_456
Cu1 Cu4 2.448843 1_556
Cu1 Cu3 2.891399 1_555
Cu1 Cu3 2.891399 1_545
Cu1 Cu2 2.904049 1_556
Cu2 Ni3 2.448835 1_555
Cu2 Ni3 2.448835 1_455
Cu2 Ni1 2.448835 1_545
Cu2 Ni1 2.448835 1_445
Cu2 Cu4 2.448843 1_555
Cu2 Cu4 2.448843 1_455
Cu3 Ni2 2.441372 1_455
Cu3 Ni2 2.441372 1_555
Cu3 Ni4 2.441372 1_555
Cu3 Ni4 2.441372 1_455
Cu3 Ni0 2.444724 1_455
Cu3 Ni0 2.444724 1_555
Cu4 Ni4 2.509334 1_544
Cu4 Ni3 2.509334 1_555
Cu4 Ni2 2.509334 1_554
Cu4 Ni1 2.509334 1_545
Ni0 Ni1 2.494330 1_555
Ni0 Ni3 2.494330 1_555
Ni0 Ni4 2.494330 1_555
Ni0 Ni2 2.494330 1_555
Ni1 Ni3 2.500401 1_555
Ni1 Ni3 2.526116 1_565
Ni2 Ni4 2.500401 1_555
Ni2 Ni4 2.526116 1_545
