# generated using pymatgen
data_Mg14AlGa
_symmetry_space_group_name_H-M   'P 1'
_cell_length_a   6.27201016
_cell_length_b   6.27200967
_cell_length_c   10.30342664
_cell_angle_alpha   90.00000000
_cell_angle_beta   90.00000000
_cell_angle_gamma   120.00000256
_symmetry_Int_Tables_number   1
_chemical_formula_structural   Mg14AlGa
_chemical_formula_sum   'Mg14 Al1 Ga1'
_cell_volume   351.01508148
_cell_formula_units_Z   1
loop_
 _symmetry_equiv_pos_site_id
 _symmetry_equiv_pos_as_xyz
  1  'x, y, z'
loop_
 _atom_site_type_symbol
 _atom_site_label
 _atom_site_symmetry_multiplicity
 _atom_site_fract_x
 _atom_site_fract_y
 _atom_site_fract_z
 _atom_site_occupancy
  Mg  Mg0  1  0.16674961  0.83337431  0.12500000  1
  Mg  Mg1  1  0.16678233  0.83339067  0.62500000  1
  Mg  Mg2  1  0.66662569  0.33325039  0.12500000  1
  Mg  Mg3  1  0.66660933  0.33321767  0.62500000  1
  Mg  Mg4  1  0.66662569  0.83337431  0.12500000  1
  Mg  Mg5  1  0.66660933  0.83339067  0.62500000  1
  Mg  Mg6  1  0.33220505  0.16779495  0.37474596  1
  Mg  Mg7  1  0.33220505  0.16779495  0.87525404  1
  Mg  Mg8  1  0.33220505  0.66441109  0.37474596  1
  Mg  Mg9  1  0.33220505  0.66441109  0.87525404  1
  Mg  Mg10  1  0.83558891  0.16779495  0.37474596  1
  Mg  Mg11  1  0.83558891  0.16779495  0.87525404  1
  Mg  Mg12  1  0.83333300  0.66666700  0.37486391  1
  Mg  Mg13  1  0.83333300  0.66666700  0.87513609  1
  Al  Al0  1  0.16666700  0.33333300  0.12500000  1
  Ga  Ga0  1  0.16666700  0.33333300  0.62500000  1
loop_
_geom_bond_atom_site_label_1
_geom_bond_atom_site_label_2
_geom_bond_distance
_geom_bond_site_symmetry_2
Mg0 Mg2 3.135228 1_565
Mg0 Mg4 3.135228 1_555
Mg0 Mg2 3.136782 1_455
Mg0 Mg4 3.136782 1_455
Mg0 Mg13 3.147639 1_454
Mg0 Mg12 3.147639 1_455
Mg0 Mg8 3.149800 1_555
Mg0 Mg9 3.149800 1_554
Mg0 Mg6 3.149806 1_565
Mg0 Mg7 3.149806 1_564
Mg1 Mg3 3.134920 1_565
Mg1 Mg5 3.134920 1_555
Mg1 Mg3 3.137090 1_455
Mg1 Mg5 3.137090 1_455
Mg1 Mg12 3.150035 1_455
Mg1 Mg13 3.150035 1_455
Mg1 Mg8 3.154027 1_555
Mg1 Mg9 3.154027 1_555
Mg1 Mg7 3.154033 1_565
Mg1 Mg6 3.154033 1_565
Mg2 Mg4 3.135228 1_545
Mg2 Mg4 3.136782 1_555
Mg2 Mg7 3.149806 1_554
Mg2 Mg6 3.149806 1_555
Mg3 Mg5 3.134920 1_545
Mg3 Mg5 3.137090 1_555
Mg3 Mg6 3.154034 1_555
Mg3 Mg7 3.154034 1_555
Mg4 Mg9 3.149806 1_554
Mg4 Mg8 3.149806 1_555
Mg5 Mg8 3.154033 1_555
Mg5 Mg9 3.154033 1_555
Mg6 Mg8 3.114781 1_555
Mg6 Mg8 3.157228 1_545
Mg7 Mg9 3.114781 1_555
Mg7 Mg9 3.157228 1_545
Mg10 Mg8 3.114781 1_655
Mg10 Mg6 3.114781 1_655
Mg10 Mg12 3.136029 1_545
Mg10 Mg12 3.136029 1_555
Mg10 Mg2 3.149800 1_555
Mg10 Mg4 3.149806 1_545
Mg10 Mg3 3.154027 1_555
Mg10 Mg5 3.154033 1_545
Mg10 Mg8 3.157228 1_545
Mg10 Mg6 3.157229 1_555
Mg11 Mg9 3.114781 1_655
Mg11 Mg7 3.114781 1_655
Mg11 Mg13 3.136029 1_545
Mg11 Mg13 3.136029 1_555
Mg11 Mg2 3.149800 1_556
Mg11 Mg4 3.149806 1_546
Mg11 Mg3 3.154027 1_555
Mg11 Mg5 3.154033 1_545
Mg11 Mg9 3.157228 1_545
Mg11 Mg7 3.157229 1_555
Mg12 Mg6 3.136029 1_665
Mg12 Mg6 3.136029 1_555
Mg12 Mg8 3.136029 1_555
Mg12 Mg8 3.136029 1_655
Mg12 Mg4 3.147633 1_555
Mg12 Mg2 3.147639 1_555
Mg12 Mg5 3.150029 1_555
Mg12 Mg3 3.150035 1_555
Mg13 Mg7 3.136029 1_665
Mg13 Mg7 3.136029 1_555
Mg13 Mg9 3.136029 1_555
Mg13 Mg9 3.136029 1_655
Mg13 Mg4 3.147633 1_556
Mg13 Mg2 3.147639 1_556
Mg13 Mg5 3.150029 1_555
Mg13 Mg3 3.150035 1_555
Al0 Mg0 3.136005 1_545
Al0 Mg4 3.136005 1_555
Al0 Mg4 3.136005 1_445
Al0 Mg0 3.136005 1_555
Al0 Mg2 3.136005 1_555
Al0 Mg2 3.136005 1_455
Al0 Mg7 3.139345 1_554
Al0 Mg6 3.139345 1_555
Al0 Mg9 3.139351 1_554
Al0 Mg8 3.139351 1_555
Al0 Mg11 3.139351 1_454
Al0 Mg10 3.139351 1_455
Ga0 Mg1 3.136005 1_545
Ga0 Mg5 3.136005 1_555
Ga0 Mg5 3.136005 1_445
Ga0 Mg1 3.136005 1_555
Ga0 Mg3 3.136005 1_555
Ga0 Mg3 3.136005 1_455
Ga0 Mg6 3.143638 1_555
Ga0 Mg7 3.143638 1_555
Ga0 Mg8 3.143644 1_555
Ga0 Mg9 3.143644 1_555
Ga0 Mg10 3.143644 1_455
Ga0 Mg11 3.143644 1_455
