# generated using pymatgen
data_CrO
_symmetry_space_group_name_H-M   'P 1'
_cell_length_a   16.61399800
_cell_length_b   3.03028400
_cell_length_c   3.14725045
_cell_angle_alpha   68.40348843
_cell_angle_beta   90.00000000
_cell_angle_gamma   90.00000000
_symmetry_Int_Tables_number   1
_chemical_formula_structural   CrO
_chemical_formula_sum   'Cr6 O6'
_cell_volume   147.32546415
_cell_formula_units_Z   6
loop_
 _symmetry_equiv_pos_site_id
 _symmetry_equiv_pos_as_xyz
  1  'x, y, z'
loop_
 _atom_site_type_symbol
 _atom_site_label
 _atom_site_symmetry_multiplicity
 _atom_site_fract_x
 _atom_site_fract_y
 _atom_site_fract_z
 _atom_site_occupancy
  Cr  Cr0  1  0.33448600  0.45268200  0.12518100  1
  Cr  Cr1  1  0.00000000  0.04635900  0.33850200  1
  Cr  Cr2  1  0.66551400  0.45268200  0.12518100  1
  Cr  Cr3  1  0.50000000  0.94853800  0.68219000  1
  Cr  Cr4  1  0.83402700  0.54950000  0.86874900  1
  Cr  Cr5  1  0.16597300  0.54950000  0.86874900  1
  O  O0  1  0.25093000  0.01123900  0.97154600  1
  O  O1  1  0.41754100  0.93142900  0.18933500  1
  O  O2  1  0.58245900  0.93142900  0.18933500  1
  O  O3  1  0.74907000  0.01123900  0.97154600  1
  O  O4  1  0.91743500  0.06252000  0.82953100  1
  O  O5  1  0.08256500  0.06252000  0.82953100  1
loop_
_geom_bond_atom_site_label_1
_geom_bond_atom_site_label_2
_geom_bond_distance
_geom_bond_site_symmetry_2
Cr0 O1 2.050613 1_545
Cr0 O1 2.065211 1_555
Cr0 O0 2.103160 1_564
Cr0 O0 2.103919 1_554
Cr1 O5 2.080385 1_555
Cr1 O4 2.080385 1_455
Cr1 O4 2.095772 1_454
Cr1 O5 2.095772 1_554
Cr2 O2 2.050613 1_545
Cr2 O2 2.065211 1_555
Cr2 O3 2.103160 1_564
Cr2 O3 2.103919 1_554
Cr3 O2 2.084405 1_555
Cr3 O1 2.084405 1_555
Cr3 O2 2.089539 1_556
Cr3 O1 2.089539 1_556
Cr4 O4 2.052079 1_565
Cr4 O4 2.060885 1_555
Cr4 O3 2.090193 1_555
Cr4 O3 2.094738 1_565
Cr5 O5 2.052079 1_565
Cr5 O5 2.060885 1_555
Cr5 O0 2.090193 1_555
Cr5 O0 2.094738 1_565
