# generated using pymatgen
data_Nb4Ni(CS2)2
_symmetry_space_group_name_H-M   'P 1'
_cell_length_a   3.31963800
_cell_length_b   5.73554200
_cell_length_c   8.65640365
_cell_angle_alpha   77.75618089
_cell_angle_beta   90.00000000
_cell_angle_gamma   90.00000000
_symmetry_Int_Tables_number   1
_chemical_formula_structural   Nb4Ni(CS2)2
_chemical_formula_sum   'Nb4 Ni1 C2 S4'
_cell_volume   161.06832529
_cell_formula_units_Z   1
loop_
 _symmetry_equiv_pos_site_id
 _symmetry_equiv_pos_as_xyz
  1  'x, y, z'
loop_
 _atom_site_type_symbol
 _atom_site_label
 _atom_site_symmetry_multiplicity
 _atom_site_fract_x
 _atom_site_fract_y
 _atom_site_fract_z
 _atom_site_occupancy
  Nb  Nb0  1  0.50000000  0.63081400  0.63700300  1
  Nb  Nb1  1  0.00000000  0.11521100  0.63713900  1
  Nb  Nb2  1  0.50000000  0.36918600  0.36299700  1
  Nb  Nb3  1  0.00000000  0.88478900  0.36286100  1
  Ni  Ni0  1  0.00000000  0.00000000  0.00000000  1
  C  C0  1  0.00000000  0.50000000  0.50000000  1
  C  C1  1  0.50000000  0.00000000  0.50000000  1
  S  S0  1  0.50000000  0.77617700  0.16334800  1
  S  S1  1  0.00000000  0.27744300  0.16527900  1
  S  S2  1  0.50000000  0.22382300  0.83665200  1
  S  S3  1  0.00000000  0.72255700  0.83472100  1
loop_
_geom_bond_atom_site_label_1
_geom_bond_atom_site_label_2
_geom_bond_distance
_geom_bond_site_symmetry_2
Nb0 S3 2.518569 1_555
Nb0 S3 2.518569 1_655
Nb0 S2 2.593209 1_555
Nb1 S3 2.522585 1_545
Nb1 S2 2.565569 1_555
Nb1 S2 2.565569 1_455
Nb2 S1 2.518569 1_655
Nb2 S1 2.518569 1_555
Nb2 S0 2.593209 1_555
Nb3 S1 2.522585 1_565
Nb3 S0 2.565569 1_455
Nb3 S0 2.565569 1_555
Ni0 S1 2.354740 1_555
Ni0 S3 2.354740 1_544
Ni0 S2 2.373289 1_454
Ni0 S0 2.373289 1_445
Ni0 S0 2.373289 1_545
Ni0 S2 2.373289 1_554
C0 Nb0 2.258722 1_555
C0 Nb0 2.258722 1_455
C0 Nb2 2.258722 1_455
C0 Nb2 2.258722 1_555
C0 Nb3 2.273492 1_555
C0 Nb1 2.273492 1_555
C1 Nb2 2.196608 1_555
C1 Nb0 2.196608 1_545
C1 Nb1 2.221183 1_655
C1 Nb1 2.221183 1_555
C1 Nb3 2.221183 1_645
C1 Nb3 2.221183 1_545
