# generated using pymatgen
data_Mg2Si3
_symmetry_space_group_name_H-M   'P 1'
_cell_length_a   3.85958300
_cell_length_b   6.22961229
_cell_length_c   17.45269110
_cell_angle_alpha   82.57885611
_cell_angle_beta   86.59752629
_cell_angle_gamma   72.36495328
_symmetry_Int_Tables_number   1
_chemical_formula_structural   Mg2Si3
_chemical_formula_sum   'Mg8 Si12'
_cell_volume   396.46662931
_cell_formula_units_Z   4
loop_
 _symmetry_equiv_pos_site_id
 _symmetry_equiv_pos_as_xyz
  1  'x, y, z'
loop_
 _atom_site_type_symbol
 _atom_site_label
 _atom_site_symmetry_multiplicity
 _atom_site_fract_x
 _atom_site_fract_y
 _atom_site_fract_z
 _atom_site_occupancy
  Mg  Mg0  1  0.20585700  0.00923100  0.24673600  1
  Mg  Mg1  1  0.09180900  0.90647500  0.74926800  1
  Mg  Mg2  1  0.29157600  0.94763100  0.07021700  1
  Mg  Mg3  1  0.87880500  0.23134200  0.91112100  1
  Mg  Mg4  1  0.80394600  0.44744900  0.73533900  1
  Mg  Mg5  1  0.47963800  0.45824600  0.25171700  1
  Mg  Mg6  1  0.91755600  0.37393900  0.56825500  1
  Mg  Mg7  1  0.39449400  0.51576900  0.42205400  1
  Si  Si0  1  0.59657600  0.32114800  0.05838200  1
  Si  Si1  1  0.40296200  0.64485600  0.96241900  1
  Si  Si2  1  0.04327900  0.37935600  0.13792000  1
  Si  Si3  1  0.82951700  0.81729700  0.90458100  1
  Si  Si4  1  0.48248200  0.17230600  0.67112800  1
  Si  Si5  1  0.83111300  0.71621500  0.31895900  1
  Si  Si6  1  0.22872500  0.77996000  0.53883200  1
  Si  Si7  1  0.09147400  0.11459000  0.44700700  1
  Si  Si8  1  0.69259400  0.80860800  0.62144200  1
  Si  Si9  1  0.62836400  0.08870000  0.36451200  1
  Si  Si10  1  0.85386200  0.75712200  0.17599700  1
  Si  Si11  1  0.25522500  0.50974100  0.84405300  1
loop_
_geom_bond_atom_site_label_1
_geom_bond_atom_site_label_2
_geom_bond_distance
_geom_bond_site_symmetry_2
Mg0 Si2 2.729561 1_555
Mg0 Si5 2.793148 1_445
Mg0 Si10 2.798078 1_445
Mg0 Si5 2.800383 1_545
Mg0 Si10 2.828487 1_545
Mg0 Si9 2.877372 1_555
Mg0 Si9 2.913519 1_455
Mg1 Si11 2.714013 1_555
Mg1 Si4 2.749778 1_565
Mg1 Si4 2.751458 1_465
Mg1 Si3 2.882189 1_455
Mg1 Si8 3.008533 1_455
Mg1 Si8 3.099378 1_555
Mg2 Si1 2.758869 1_554
Mg2 Si10 2.806330 1_555
Mg2 Si10 2.819472 1_455
Mg2 Si0 2.889522 1_565
Mg2 Si2 2.944948 1_565
Mg2 Si0 2.968514 1_465
Mg3 Si3 2.660477 1_545
Mg3 Si11 2.699830 1_655
Mg3 Si11 2.729714 1_555
Mg3 Si0 2.788339 1_556
Mg3 Si1 2.888678 1_555
Mg4 Si11 2.729657 1_555
Mg4 Si8 2.749232 1_555
Mg4 Si4 2.771811 1_555
Mg4 Si11 2.788586 1_655
Mg4 Si4 2.912090 1_655
Mg5 Si9 2.768995 1_555
Mg5 Si5 2.792328 1_555
Mg5 Si5 2.815365 1_455
Mg5 Si2 2.830183 1_655
Mg5 Si10 2.839883 1_455
Mg5 Si10 2.840139 1_555
Mg5 Si2 2.858856 1_555
Mg6 Si7 2.756128 1_655
Mg6 Si4 2.788905 1_655
Mg6 Si4 2.821094 1_555
Mg6 Si8 2.841993 1_555
Mg6 Si6 3.079215 1_555
Mg6 Si6 3.087964 1_655
Mg7 Si6 2.710266 1_555
Mg7 Si5 2.786327 1_455
Mg7 Si5 2.823324 1_555
Mg7 Si9 2.833543 1_555
Mg7 Si7 3.038550 1_555
Mg7 Si7 3.075128 1_655
Si0 Si1 2.406871 1_554
Si0 Si2 2.413264 1_655
Si0 Si2 2.434701 1_555
Si1 Si3 2.340410 1_555
Si1 Si3 2.369797 1_455
Si1 Si11 2.486155 1_555
Si4 Si8 2.419456 1_545
Si5 Si9 2.435434 1_565
Si6 Si7 2.400669 1_565
Si6 Si8 2.425056 1_455
Si6 Si8 2.425349 1_555
Si7 Si9 2.415343 1_455
Si7 Si9 2.428203 1_555
Si10 Si2 2.412087 1_655
Si10 Si5 2.474133 1_555
Si11 Si3 2.428138 1_455
