# generated using pymatgen
data_LuCo3
_symmetry_space_group_name_H-M   'P 1'
_cell_length_a   4.92042744
_cell_length_b   4.92042800
_cell_length_c   8.54166229
_cell_angle_alpha   73.26023542
_cell_angle_beta   73.26023607
_cell_angle_gamma   59.99999624
_symmetry_Int_Tables_number   1
_chemical_formula_structural   LuCo3
_chemical_formula_sum   'Lu3 Co9'
_cell_volume   168.89800403
_cell_formula_units_Z   3
loop_
 _symmetry_equiv_pos_site_id
 _symmetry_equiv_pos_as_xyz
  1  'x, y, z'
loop_
 _atom_site_type_symbol
 _atom_site_label
 _atom_site_symmetry_multiplicity
 _atom_site_fract_x
 _atom_site_fract_y
 _atom_site_fract_z
 _atom_site_occupancy
  Lu  Lu0  1  0.86026400  0.86026400  0.41920700  1
  Lu  Lu1  1  0.13973600  0.13973600  0.58079300  1
  Lu  Lu2  1  0.00000000  0.00000000  0.00000000  1
  Co  Co0  1  0.41659300  0.41659300  0.24572200  1
  Co  Co1  1  0.92109200  0.41659300  0.24572200  1
  Co  Co2  1  0.41659300  0.92109200  0.24572200  1
  Co  Co3  1  0.58340700  0.58340700  0.75427800  1
  Co  Co4  1  0.07890800  0.58340700  0.75427800  1
  Co  Co5  1  0.58340700  0.07890800  0.75427800  1
  Co  Co6  1  0.66541900  0.66541900  0.00374400  1
  Co  Co7  1  0.33458100  0.33458100  0.99625600  1
  Co  Co8  1  0.50000000  0.50000000  0.50000000  1
loop_
_geom_bond_atom_site_label_1
_geom_bond_atom_site_label_2
_geom_bond_distance
_geom_bond_site_symmetry_2
Co0 Co6 2.419410 1_555
Co0 Co1 2.438077 1_455
Co0 Co2 2.438077 1_545
Co0 Co7 2.453512 1_554
Co0 Co1 2.482351 1_555
Co0 Co2 2.482351 1_555
Co0 Co8 2.499924 1_555
Co0 Lu0 2.829453 1_545
Co0 Lu0 2.829453 1_455
Co0 Lu1 3.044132 1_555
Co0 Lu2 3.157660 1_655
Co0 Lu2 3.157660 1_565
Co1 Co6 2.419407 1_555
Co1 Co2 2.438077 1_645
Co1 Co7 2.453509 1_654
Co1 Co2 2.482351 1_555
Co1 Co8 2.499924 1_555
Co1 Lu0 2.829451 1_555
Co1 Lu0 2.829456 1_545
Co1 Lu1 3.044134 1_655
Co1 Lu2 3.157660 1_655
Co1 Lu2 3.157660 1_665
Co2 Co6 2.419408 1_555
Co2 Co7 2.453509 1_564
Co2 Co8 2.499924 1_555
Co2 Lu0 2.829451 1_555
Co2 Lu0 2.829455 1_455
Co2 Lu1 3.044134 1_565
Co2 Lu2 3.157660 1_665
Co2 Lu2 3.157660 1_565
Co3 Co7 2.419410 1_555
Co3 Co4 2.438077 1_655
Co3 Co5 2.438077 1_565
Co3 Co6 2.453512 1_556
Co3 Co4 2.482351 1_555
Co3 Co5 2.482351 1_555
Co3 Co8 2.499924 1_555
Co3 Lu1 2.829453 1_565
Co3 Lu1 2.829453 1_655
Co3 Lu0 3.044132 1_555
Co3 Lu2 3.157660 1_566
Co3 Lu2 3.157660 1_656
Co4 Co7 2.419407 1_555
Co4 Co5 2.438077 1_465
Co4 Co6 2.453509 1_456
Co4 Co5 2.482351 1_555
Co4 Co8 2.499924 1_555
Co4 Lu1 2.829451 1_555
Co4 Lu1 2.829456 1_565
Co4 Lu0 3.044134 1_455
Co4 Lu2 3.157660 1_556
Co4 Lu2 3.157660 1_566
Co5 Co7 2.419408 1_555
Co5 Co6 2.453509 1_546
Co5 Co8 2.499924 1_555
Co5 Lu1 2.829451 1_555
Co5 Lu1 2.829455 1_655
Co5 Lu0 3.044134 1_545
Co5 Lu2 3.157660 1_556
Co5 Lu2 3.157660 1_656
Co6 Lu2 2.840968 1_665
Co6 Lu2 2.840972 1_565
Co6 Lu2 2.840972 1_655
Co7 Lu2 2.840968 1_556
Co7 Lu2 2.840972 1_656
Co7 Lu2 2.840972 1_566
Co8 Lu0 2.914405 1_555
Co8 Lu1 2.914405 1_555
Co8 Lu1 2.914409 1_655
Co8 Lu0 2.914409 1_455
Co8 Lu1 2.914409 1_565
Co8 Lu0 2.914409 1_545
