# generated using pymatgen
data_LaC2ClO7
_symmetry_space_group_name_H-M   'P 1'
_cell_length_a   15.08677400
_cell_length_b   6.08625900
_cell_length_c   9.10125660
_cell_angle_alpha   74.88919772
_cell_angle_beta   90.00000000
_cell_angle_gamma   90.00000000
_symmetry_Int_Tables_number   1
_chemical_formula_structural   LaC2ClO7
_chemical_formula_sum   'La4 C8 Cl4 O28'
_cell_volume   806.80027842
_cell_formula_units_Z   4
loop_
 _symmetry_equiv_pos_site_id
 _symmetry_equiv_pos_as_xyz
  1  'x, y, z'
loop_
 _atom_site_type_symbol
 _atom_site_label
 _atom_site_symmetry_multiplicity
 _atom_site_fract_x
 _atom_site_fract_y
 _atom_site_fract_z
 _atom_site_occupancy
  La  La0  1  0.88428000  0.33712800  0.67504600  1
  La  La1  1  0.61572000  0.33712800  0.17504600  1
  La  La2  1  0.11572000  0.66287200  0.32495400  1
  La  La3  1  0.38428000  0.66287200  0.82495400  1
  C  C0  1  0.92351600  0.76697900  0.06252700  1
  C  C1  1  0.57648400  0.76697900  0.56252700  1
  C  C2  1  0.07648400  0.23302100  0.93747300  1
  C  C3  1  0.42351600  0.23302100  0.43747300  1
  C  C4  1  0.03168000  0.09590400  0.45631900  1
  C  C5  1  0.46832000  0.09590400  0.95631900  1
  C  C6  1  0.96832000  0.90409600  0.54368100  1
  C  C7  1  0.53168000  0.90409600  0.04368100  1
  Cl  Cl0  1  0.70194400  0.19917400  0.63984900  1
  Cl  Cl1  1  0.79805600  0.19917400  0.13984900  1
  Cl  Cl2  1  0.29805600  0.80082600  0.36015100  1
  Cl  Cl3  1  0.20194400  0.80082600  0.86015100  1
  O  O0  1  0.90000600  0.86892800  0.94173300  1
  O  O1  1  0.59999400  0.86892800  0.44173300  1
  O  O2  1  0.09999400  0.13107200  0.05826700  1
  O  O3  1  0.40000600  0.13107200  0.55826700  1
  O  O4  1  0.78237400  0.69349100  0.47398100  1
  O  O5  1  0.71762600  0.69349100  0.97398100  1
  O  O6  1  0.21762600  0.30650900  0.52601900  1
  O  O7  1  0.28237400  0.30650900  0.02601900  1
  O  O8  1  0.79345000  0.59491700  0.37195200  1
  O  O9  1  0.70655000  0.59491700  0.87195200  1
  O  O10  1  0.20655000  0.40508300  0.62804800  1
  O  O11  1  0.29345000  0.40508300  0.12804800  1
  O  O12  1  0.05191800  0.33333600  0.81548100  1
  O  O13  1  0.44808200  0.33333600  0.31548100  1
  O  O14  1  0.94808200  0.66666400  0.18451900  1
  O  O15  1  0.55191800  0.66666400  0.68451900  1
  O  O16  1  0.01992400  0.29338900  0.47622900  1
  O  O17  1  0.48007600  0.29338900  0.97622900  1
  O  O18  1  0.98007600  0.70661100  0.52377100  1
  O  O19  1  0.51992400  0.70661100  0.02377100  1
  O  O20  1  0.90994600  0.95641000  0.62764200  1
  O  O21  1  0.59005400  0.95641000  0.12764200  1
  O  O22  1  0.09005400  0.04359000  0.37235800  1
  O  O23  1  0.40994600  0.04359000  0.87235800  1
  O  O24  1  0.85773300  0.36036200  0.88840600  1
  O  O25  1  0.64226700  0.36036200  0.38840600  1
  O  O26  1  0.14226700  0.63963800  0.11159400  1
  O  O27  1  0.35773300  0.63963800  0.61159400  1
loop_
_geom_bond_atom_site_label_1
_geom_bond_atom_site_label_2
_geom_bond_distance
_geom_bond_site_symmetry_2
La0 O24 2.023444 1_555
La0 O20 2.495289 1_545
La0 O4 2.889164 1_555
La1 O25 2.023444 1_555
La1 O21 2.495289 1_545
La1 O5 2.889164 1_554
La2 O26 2.023444 1_555
La2 O22 2.495289 1_565
La2 O6 2.889164 1_555
La3 O27 2.023444 1_555
La3 O23 2.495289 1_565
La3 O7 2.889164 1_556
C0 O0 1.167812 1_554
C0 O14 1.178737 1_555
C1 O1 1.167812 1_555
C1 O15 1.178737 1_555
C2 O2 1.167812 1_556
C2 O12 1.178737 1_555
C3 O3 1.167812 1_555
C3 O13 1.178737 1_555
C4 O22 1.260057 1_555
C4 O16 1.273781 1_555
C5 O23 1.260057 1_555
C5 O17 1.273781 1_555
C6 O20 1.260057 1_555
C6 O18 1.273781 1_555
C7 O21 1.260057 1_555
C7 O19 1.273781 1_555
Cl0 O25 2.416508 1_555
Cl0 La0 2.918057 1_555
Cl1 O24 2.416508 1_554
Cl1 La1 2.918057 1_555
Cl2 O27 2.416508 1_555
Cl2 La2 2.918057 1_555
Cl3 O26 2.416508 1_556
Cl3 La3 2.918057 1_555
O4 O8 1.241210 1_555
O5 O9 1.241210 1_555
O10 O6 1.241210 1_555
O11 O7 1.241210 1_555
