# generated using pymatgen
data_Cs2CoBr4
_symmetry_space_group_name_H-M   'P 1'
_cell_length_a   7.74277366
_cell_length_b   10.26227841
_cell_length_c   13.56963721
_cell_angle_alpha   90.00000000
_cell_angle_beta   90.00000000
_cell_angle_gamma   90.00000000
_symmetry_Int_Tables_number   1
_chemical_formula_structural   Cs2CoBr4
_chemical_formula_sum   'Cs8 Co4 Br16'
_cell_volume   1078.22300420
_cell_formula_units_Z   4
loop_
 _symmetry_equiv_pos_site_id
 _symmetry_equiv_pos_as_xyz
  1  'x, y, z'
loop_
 _atom_site_type_symbol
 _atom_site_label
 _atom_site_symmetry_multiplicity
 _atom_site_fract_x
 _atom_site_fract_y
 _atom_site_fract_z
 _atom_site_occupancy
  Cs  Cs0  1  0.25000000  0.98191631  0.17035718  1
  Cs  Cs1  1  0.75000000  0.01808369  0.82964282  1
  Cs  Cs2  1  0.75000000  0.51808369  0.67035718  1
  Cs  Cs3  1  0.25000000  0.48191631  0.32964282  1
  Cs  Cs4  1  0.25000000  0.63303396  0.90633269  1
  Cs  Cs5  1  0.75000000  0.36696604  0.09366731  1
  Cs  Cs6  1  0.75000000  0.86696604  0.40633269  1
  Cs  Cs7  1  0.25000000  0.13303396  0.59366731  1
  Co  Co0  1  0.25000000  0.73413138  0.57898662  1
  Co  Co1  1  0.75000000  0.26586862  0.42101338  1
  Co  Co2  1  0.75000000  0.76586862  0.07898662  1
  Co  Co3  1  0.25000000  0.23413138  0.92101338  1
  Br  Br0  1  0.99733660  0.82232752  0.65449640  1
  Br  Br1  1  0.00266340  0.17767248  0.34550360  1
  Br  Br2  1  0.00266340  0.67767248  0.15449640  1
  Br  Br3  1  0.49733660  0.17767248  0.34550360  1
  Br  Br4  1  0.99733660  0.32232752  0.84550360  1
  Br  Br5  1  0.50266340  0.82232752  0.65449640  1
  Br  Br6  1  0.50266340  0.32232752  0.84550360  1
  Br  Br7  1  0.49733660  0.67767248  0.15449640  1
  Br  Br8  1  0.25000000  0.50182255  0.59924463  1
  Br  Br9  1  0.75000000  0.49817745  0.40075537  1
  Br  Br10  1  0.75000000  -0.00182255  0.09924463  1
  Br  Br11  1  0.25000000  0.00182255  0.90075537  1
  Br  Br12  1  0.25000000  0.31668777  0.08676222  1
  Br  Br13  1  0.75000000  0.68331223  0.91323778  1
  Br  Br14  1  0.75000000  0.18331223  0.58676222  1
  Br  Br15  1  0.25000000  0.81668777  0.41323778  1
loop_
_geom_bond_atom_site_label_1
_geom_bond_atom_site_label_2
_geom_bond_distance
_geom_bond_site_symmetry_2
Br0 Co0 2.386682 1_655
Br0 Cs1 3.654008 1_565
Br0 Cs2 3.669083 1_555
Br0 Cs7 3.830847 1_665
Br0 Cs6 3.900942 1_555
Br1 Co1 2.386682 1_455
Br1 Cs0 3.654008 1_545
Br1 Cs3 3.669083 1_555
Br1 Cs6 3.830847 1_445
Br1 Cs7 3.900942 1_555
Br2 Co2 2.386682 1_455
Br2 Cs3 3.654008 1_555
Br2 Cs0 3.669083 1_555
Br2 Cs5 3.830847 1_455
Br2 Cs4 3.900942 1_554
Br3 Co1 2.386682 1_555
Br3 Cs0 3.654008 1_545
Br3 Cs3 3.669083 1_555
Br3 Cs6 3.830847 1_545
Br3 Cs7 3.900942 1_555
Br4 Co3 2.386682 1_655
Br4 Cs2 3.654008 1_555
Br4 Cs1 3.669083 1_555
Br4 Cs4 3.830847 1_655
Br4 Cs5 3.900942 1_556
Br5 Co0 2.386682 1_555
Br5 Cs1 3.654008 1_565
Br5 Cs2 3.669083 1_555
Br5 Cs7 3.830847 1_565
Br5 Cs6 3.900942 1_555
Br6 Co3 2.386682 1_555
Br6 Cs2 3.654008 1_555
Br6 Cs1 3.669083 1_555
Br6 Cs4 3.830847 1_555
Br6 Cs5 3.900942 1_556
Br7 Co2 2.386682 1_555
Br7 Cs3 3.654008 1_555
Br7 Cs0 3.669083 1_555
Br7 Cs5 3.830847 1_555
Br7 Cs4 3.900942 1_554
Br8 Co0 2.399814 1_555
Br8 Cs3 3.664098 1_555
Br8 Cs7 3.785368 1_555
Br8 Cs2 3.993326 1_555
Br8 Cs2 3.993326 1_455
Br9 Co1 2.399814 1_555
Br9 Cs2 3.664098 1_555
Br9 Cs6 3.785368 1_555
Br9 Cs3 3.993326 1_555
Br9 Cs3 3.993326 1_655
Br10 Co2 2.399814 1_545
Br10 Cs1 3.664098 1_554
Br10 Cs5 3.785368 1_555
Br10 Cs0 3.993326 1_545
Br10 Cs0 3.993326 1_645
Br11 Co3 2.399814 1_555
Br11 Cs0 3.664098 1_546
Br11 Cs4 3.785368 1_545
Br11 Cs1 3.993326 1_555
Br11 Cs1 3.993326 1_455
Br12 Co3 2.403427 1_554
Br12 Cs0 3.617947 1_545
Br12 Cs3 3.706405 1_555
Br12 Cs5 3.906743 1_555
Br12 Cs5 3.906743 1_455
Br12 Cs4 4.066179 1_554
Br13 Co2 2.403427 1_556
Br13 Cs1 3.617947 1_565
Br13 Cs2 3.706405 1_555
Br13 Cs4 3.906743 1_655
Br13 Cs4 3.906743 1_555
Br13 Cs5 4.066179 1_556
Br14 Co1 2.403427 1_555
Br14 Cs2 3.617947 1_555
Br14 Cs1 3.706405 1_555
Br14 Cs7 3.906743 1_655
Br14 Cs7 3.906743 1_555
Br14 Cs6 4.066179 1_545
Br15 Co0 2.403427 1_555
Br15 Cs3 3.617947 1_555
Br15 Cs0 3.706405 1_555
Br15 Cs6 3.906743 1_555
Br15 Cs6 3.906743 1_455
Br15 Cs7 4.066179 1_565
