# generated using pymatgen
data_Te4Mo(WSe)2
_symmetry_space_group_name_H-M   'P 1'
_cell_length_a   3.47989571
_cell_length_b   3.47989571
_cell_length_c   32.05690800
_cell_angle_alpha   90.00000000
_cell_angle_beta   90.00000000
_cell_angle_gamma   119.99999443
_symmetry_Int_Tables_number   1
_chemical_formula_structural   Te4Mo(WSe)2
_chemical_formula_sum   'Te4 Mo1 W2 Se2'
_cell_volume   336.18996303
_cell_formula_units_Z   1
loop_
 _symmetry_equiv_pos_site_id
 _symmetry_equiv_pos_as_xyz
  1  'x, y, z'
loop_
 _atom_site_type_symbol
 _atom_site_label
 _atom_site_symmetry_multiplicity
 _atom_site_fract_x
 _atom_site_fract_y
 _atom_site_fract_z
 _atom_site_occupancy
  Te  Te0  1  0.00000000  0.00000000  0.40454100  1
  Te  Te1  1  0.33333300  0.66666700  0.52074300  1
  Te  Te2  1  0.33333300  0.66666700  0.63591900  1
  Te  Te3  1  0.00000000  0.00000000  0.28933500  1
  Mo  Mo0  1  0.00000000  0.00000000  0.11566500  1
  W  W0  1  0.00000000  0.00000000  0.57838000  1
  W  W1  1  0.33333300  0.66666700  0.34696000  1
  Se  Se0  1  0.33333300  0.66666700  0.06505800  1
  Se  Se1  1  0.33333300  0.66666700  0.16624100  1
loop_
_geom_bond_atom_site_label_1
_geom_bond_atom_site_label_2
_geom_bond_distance
_geom_bond_site_symmetry_2
Te0 W1 2.728329 1_545
Te0 W1 2.728332 1_445
Te0 W1 2.728332 1_555
Te1 W0 2.729544 1_565
Te1 W0 2.729547 1_665
Te1 W0 2.729547 1_555
Te2 W0 2.727419 1_565
Te2 W0 2.727421 1_555
Te2 W0 2.727421 1_665
Te3 W1 2.729284 1_545
Te3 W1 2.729286 1_445
Te3 W1 2.729286 1_555
Mo0 Se1 2.581704 1_545
Mo0 Se1 2.581707 1_445
Mo0 Se1 2.581707 1_555
Mo0 Se0 2.582328 1_545
Mo0 Se0 2.582331 1_445
Mo0 Se0 2.582331 1_555
