# generated using pymatgen
data_YbEuCuS3
_symmetry_space_group_name_H-M   'P 1'
_cell_length_a   6.59251505
_cell_length_b   6.59251505
_cell_length_c   10.27721900
_cell_angle_alpha   90.00000000
_cell_angle_beta   90.00000000
_cell_angle_gamma   145.79380340
_symmetry_Int_Tables_number   1
_chemical_formula_structural   YbEuCuS3
_chemical_formula_sum   'Yb2 Eu2 Cu2 S6'
_cell_volume   251.10058143
_cell_formula_units_Z   2
loop_
 _symmetry_equiv_pos_site_id
 _symmetry_equiv_pos_as_xyz
  1  'x, y, z'
loop_
 _atom_site_type_symbol
 _atom_site_label
 _atom_site_symmetry_multiplicity
 _atom_site_fract_x
 _atom_site_fract_y
 _atom_site_fract_z
 _atom_site_occupancy
  Yb  Yb0  1  0.00000000  0.00000000  0.00000000  1
  Yb  Yb1  1  0.00000000  0.00000000  0.50000000  1
  Eu  Eu0  1  0.25222300  0.74777700  0.25000000  1
  Eu  Eu1  1  0.74777700  0.25222300  0.75000000  1
  Cu  Cu0  1  0.52867500  0.47132500  0.25000000  1
  Cu  Cu1  1  0.47132500  0.52867500  0.75000000  1
  S  S0  1  0.64672700  0.35327300  0.07860500  1
  S  S1  1  0.35327300  0.64672700  0.92139500  1
  S  S2  1  0.35327300  0.64672700  0.57860500  1
  S  S3  1  0.64672700  0.35327300  0.42139500  1
  S  S4  1  0.92374300  0.07625700  0.25000000  1
  S  S5  1  0.07625700  0.92374300  0.75000000  1
loop_
_geom_bond_atom_site_label_1
_geom_bond_atom_site_label_2
_geom_bond_distance
_geom_bond_site_symmetry_2
Eu0 S4 2.903617 1_455
Eu0 S4 2.903617 1_565
Eu0 S0 2.937546 1_455
Eu0 S3 2.937546 1_565
Eu0 S0 2.937546 1_565
Eu0 S3 2.937546 1_455
Eu1 S5 2.903617 1_545
Eu1 S5 2.903617 1_655
Eu1 S2 2.937546 1_545
Eu1 S2 2.937546 1_655
Eu1 S1 2.937546 1_545
Eu1 S1 2.937546 1_655
Cu0 S0 2.305637 1_555
Cu0 S3 2.305637 1_555
Cu0 S4 2.346822 1_565
Cu0 S4 2.346822 1_455
Cu1 S2 2.305637 1_555
Cu1 S1 2.305637 1_555
Cu1 S5 2.346822 1_655
Cu1 S5 2.346822 1_545
S0 Yb0 2.798312 1_665
S0 Yb0 2.798312 1_555
S1 Yb0 2.798312 1_556
S1 Yb0 2.798312 1_666
S2 Yb1 2.798312 1_555
S2 Yb1 2.798312 1_665
S3 Yb1 2.798312 1_555
S3 Yb1 2.798312 1_665
S4 Yb0 2.743141 1_655
S4 Yb1 2.743141 1_655
S5 Yb0 2.743141 1_566
S5 Yb1 2.743141 1_565
