# generated using pymatgen
data_Tb3Ga9Pt2
_symmetry_space_group_name_H-M   'P 1'
_cell_length_a   8.18981388
_cell_length_b   8.18981388
_cell_length_c   8.18981388
_cell_angle_alpha   149.65746471
_cell_angle_beta   108.15953188
_cell_angle_gamma   79.93969368
_symmetry_Int_Tables_number   1
_chemical_formula_structural   Tb3Ga9Pt2
_chemical_formula_sum   'Tb3 Ga9 Pt2'
_cell_volume   258.53860079
_cell_formula_units_Z   1
loop_
 _symmetry_equiv_pos_site_id
 _symmetry_equiv_pos_as_xyz
  1  'x, y, z'
loop_
 _atom_site_type_symbol
 _atom_site_label
 _atom_site_symmetry_multiplicity
 _atom_site_fract_x
 _atom_site_fract_y
 _atom_site_fract_z
 _atom_site_occupancy
  Tb  Tb0  1  0.00000000  0.00000000  0.00000000  1
  Tb  Tb1  1  0.30404000  0.30404000  0.00000000  1
  Tb  Tb2  1  0.69596000  0.69596000  0.00000000  1
  Ga  Ga0  1  0.50000000  0.00000000  0.50000000  1
  Ga  Ga1  1  0.97577000  0.34398200  0.63178900  1
  Ga  Ga2  1  0.02423000  0.65601800  0.36821100  1
  Ga  Ga3  1  0.71219300  0.34398200  0.36821100  1
  Ga  Ga4  1  0.28780700  0.65601800  0.63178900  1
  Ga  Ga5  1  0.85755000  0.13903100  0.71851900  1
  Ga  Ga6  1  0.14245000  0.86096900  0.28148100  1
  Ga  Ga7  1  0.42051200  0.13903100  0.28148100  1
  Ga  Ga8  1  0.57948800  0.86096900  0.71851900  1
  Pt  Pt0  1  0.30810800  0.50000000  0.80810800  1
  Pt  Pt1  1  0.69189200  0.50000000  0.19189200  1
loop_
_geom_bond_atom_site_label_1
_geom_bond_atom_site_label_2
_geom_bond_distance
_geom_bond_site_symmetry_2
Ga0 Ga8 2.730407 1_545
Ga0 Ga6 2.730407 1_545
Ga0 Ga7 2.730407 1_555
Ga0 Ga5 2.730407 1_555
Ga0 Pt1 2.827351 1_556
Ga0 Pt1 2.827351 1_545
Ga0 Pt0 2.827351 1_555
Ga0 Pt0 2.827351 1_544
Ga0 Tb1 3.262653 1_556
Ga0 Tb1 3.262653 1_545
Ga0 Tb2 3.262653 1_556
Ga0 Tb2 3.262653 1_545
Ga1 Ga3 2.532781 1_555
Ga1 Pt0 2.589673 1_655
Ga1 Ga6 2.590050 1_656
Ga1 Ga6 2.590054 1_645
Ga1 Ga5 2.704377 1_555
Ga1 Tb2 3.106470 1_556
Ga1 Tb2 3.106473 1_545
Ga1 Tb0 3.167538 1_666
Ga1 Tb0 3.167541 1_655
Ga2 Ga4 2.532781 1_555
Ga2 Pt1 2.589673 1_455
Ga2 Ga5 2.590050 1_454
Ga2 Ga5 2.590054 1_465
Ga2 Ga6 2.704377 1_555
Ga2 Tb1 3.106470 1_555
Ga2 Tb1 3.106473 1_566
Ga2 Tb0 3.167538 1_555
Ga2 Tb0 3.167541 1_566
Ga3 Pt1 2.589665 1_555
Ga3 Ga8 2.590049 1_544
Ga3 Ga8 2.590049 1_555
Ga3 Ga7 2.704382 1_555
Ga3 Tb2 3.106478 1_556
Ga3 Tb2 3.106478 1_545
Ga3 Tb0 3.167538 1_666
Ga3 Tb0 3.167538 1_655
Ga4 Pt0 2.589665 1_555
Ga4 Ga7 2.590049 1_555
Ga4 Ga7 2.590049 1_566
Ga4 Ga8 2.704382 1_555
Ga4 Tb1 3.106478 1_555
Ga4 Tb1 3.106478 1_566
Ga4 Tb0 3.167538 1_555
Ga4 Tb0 3.167538 1_566
Ga5 Pt1 2.775829 1_556
Ga5 Pt1 2.775829 1_545
Ga5 Tb2 3.084425 1_545
Ga5 Tb2 3.084425 1_556
Ga5 Tb0 3.219006 1_656
Ga5 Tb1 3.406849 1_656
Ga6 Pt0 2.775829 1_565
Ga6 Pt0 2.775829 1_554
Ga6 Tb1 3.084425 1_566
Ga6 Tb1 3.084425 1_555
Ga6 Tb0 3.219006 1_565
Ga6 Tb2 3.406849 1_455
Ga7 Pt0 2.775829 1_555
Ga7 Pt0 2.775829 1_544
Ga7 Tb2 3.084425 1_556
Ga7 Tb2 3.084425 1_545
Ga7 Tb0 3.219006 1_555
Ga7 Tb1 3.406849 1_555
Ga8 Pt1 2.775829 1_566
Ga8 Pt1 2.775829 1_555
Ga8 Tb1 3.084425 1_555
Ga8 Tb1 3.084425 1_566
Ga8 Tb0 3.219006 1_666
Ga8 Tb2 3.406849 1_556
Pt0 Tb2 3.074281 1_556
Pt0 Tb1 3.074281 1_556
Pt1 Tb2 3.074281 1_555
Pt1 Tb1 3.074281 1_555
