# generated using pymatgen
data_SbTePd2
_symmetry_space_group_name_H-M   'P 1'
_cell_length_a   4.15487501
_cell_length_b   4.15487501
_cell_length_c   5.70043818
_cell_angle_alpha   90.00000000
_cell_angle_beta   90.00000000
_cell_angle_gamma   120.00001164
_symmetry_Int_Tables_number   1
_chemical_formula_structural   SbTePd2
_chemical_formula_sum   'Sb1 Te1 Pd2'
_cell_volume   85.22259384
_cell_formula_units_Z   1
loop_
 _symmetry_equiv_pos_site_id
 _symmetry_equiv_pos_as_xyz
  1  'x, y, z'
loop_
 _atom_site_type_symbol
 _atom_site_label
 _atom_site_symmetry_multiplicity
 _atom_site_fract_x
 _atom_site_fract_y
 _atom_site_fract_z
 _atom_site_occupancy
  Sb  Sb0  1  0.33333300  0.66666700  0.50000000  1
  Te  Te0  1  -0.00000000  0.00000000  0.00000000  1
  Pd  Pd0  1  0.66666700  0.33333300  0.25631165  1
  Pd  Pd1  1  0.66666700  0.33333300  0.74368835  1
loop_
_geom_bond_atom_site_label_1
_geom_bond_atom_site_label_2
_geom_bond_distance
_geom_bond_site_symmetry_2
Pd0 Sb0 2.772003 1_545
Pd0 Sb0 2.772003 1_655
Pd0 Sb0 2.772009 1_555
Pd0 Pd1 2.778261 1_555
Pd0 Te0 2.808754 1_655
Pd0 Te0 2.808757 1_665
Pd0 Te0 2.808757 1_555
Pd0 Pd1 2.922177 1_554
Pd1 Sb0 2.772003 1_545
Pd1 Sb0 2.772003 1_655
Pd1 Sb0 2.772009 1_555
Pd1 Te0 2.808754 1_656
Pd1 Te0 2.808757 1_556
Pd1 Te0 2.808757 1_666
