# generated using pymatgen
data_HoFe2
_symmetry_space_group_name_H-M   'P 1'
_cell_length_a   5.15291500
_cell_length_b   5.15753333
_cell_length_c   8.30362400
_cell_angle_alpha   90.00000000
_cell_angle_beta   90.00000000
_cell_angle_gamma   119.97038946
_symmetry_Int_Tables_number   1
_chemical_formula_structural   HoFe2
_chemical_formula_sum   'Ho4 Fe8'
_cell_volume   191.17136216
_cell_formula_units_Z   4
loop_
 _symmetry_equiv_pos_site_id
 _symmetry_equiv_pos_as_xyz
  1  'x, y, z'
loop_
 _atom_site_type_symbol
 _atom_site_label
 _atom_site_symmetry_multiplicity
 _atom_site_fract_x
 _atom_site_fract_y
 _atom_site_fract_z
 _atom_site_occupancy
  Ho  Ho0  1  0.33368500  0.66737000  0.43809100  1
  Ho  Ho1  1  0.66631500  0.33263000  0.56190900  1
  Ho  Ho2  1  0.66631500  0.33263000  0.93809100  1
  Ho  Ho3  1  0.33368500  0.66737000  0.06190900  1
  Fe  Fe0  1  0.00000000  0.00000000  0.50000000  1
  Fe  Fe1  1  0.00000000  0.00000000  0.00000000  1
  Fe  Fe2  1  0.83409300  0.16551200  0.25000000  1
  Fe  Fe3  1  0.83439400  0.66878900  0.25000000  1
  Fe  Fe4  1  0.33141900  0.16551200  0.25000000  1
  Fe  Fe5  1  0.16590700  0.83448800  0.75000000  1
  Fe  Fe6  1  0.16560600  0.33121100  0.75000000  1
  Fe  Fe7  1  0.66858100  0.83448800  0.75000000  1
loop_
_geom_bond_atom_site_label_1
_geom_bond_atom_site_label_2
_geom_bond_distance
_geom_bond_site_symmetry_2
Ho0 Ho3 3.123674 1_555
Ho0 Ho1 3.145103 1_565
Ho0 Ho1 3.151501 1_455
Ho0 Ho1 3.151502 1_555
Ho1 Ho2 3.123674 1_555
Ho2 Ho3 3.145103 1_546
Ho2 Ho3 3.151501 1_656
Ho2 Ho3 3.151502 1_556
Fe0 Fe4 2.549129 1_555
Fe0 Fe7 2.549129 1_445
Fe0 Fe5 2.549129 1_545
Fe0 Fe2 2.549129 1_455
Fe0 Fe6 2.549359 1_555
Fe0 Fe3 2.549359 1_445
Fe0 Ho1 3.018452 1_555
Fe0 Ho0 3.018452 1_445
Fe0 Ho1 3.018452 1_455
Fe0 Ho0 3.018452 1_545
Fe0 Ho1 3.025724 1_445
Fe0 Ho0 3.025724 1_555
Fe1 Fe4 2.549129 1_555
Fe1 Fe7 2.549129 1_444
Fe1 Fe5 2.549129 1_544
Fe1 Fe2 2.549129 1_455
Fe1 Fe6 2.549359 1_554
Fe1 Fe3 2.549359 1_445
Fe1 Ho2 3.018452 1_554
Fe1 Ho3 3.018452 1_445
Fe1 Ho3 3.018452 1_545
Fe1 Ho2 3.018452 1_454
Fe1 Ho3 3.025724 1_555
Fe1 Ho2 3.025724 1_444
Fe2 Fe3 2.562641 1_545
Fe2 Fe4 2.562679 1_655
Fe2 Fe4 2.590236 1_555
Fe2 Fe3 2.594893 1_555
Fe2 Ho1 2.990453 1_555
Fe2 Ho2 2.990453 1_554
Fe2 Ho0 3.011669 1_545
Fe2 Ho3 3.011669 1_545
Fe2 Ho0 3.018083 1_655
Fe2 Ho3 3.018083 1_655
Fe3 Fe4 2.562643 1_665
Fe3 Fe4 2.594891 1_555
Fe3 Ho1 2.993950 1_555
Fe3 Ho2 2.993950 1_554
Fe3 Ho0 3.012888 1_555
Fe3 Ho3 3.012888 1_555
Fe3 Ho0 3.012893 1_655
Fe3 Ho3 3.012893 1_655
Fe4 Ho2 2.990453 1_554
Fe4 Ho1 2.990453 1_555
Fe4 Ho0 3.011669 1_545
Fe4 Ho3 3.011669 1_545
Fe4 Ho0 3.018083 1_555
Fe4 Ho3 3.018083 1_555
Fe5 Fe6 2.562641 1_565
Fe5 Fe7 2.562679 1_455
Fe5 Fe7 2.590236 1_555
Fe5 Fe6 2.594893 1_555
Fe5 Ho3 2.990453 1_556
Fe5 Ho0 2.990453 1_555
Fe5 Ho1 3.011669 1_565
Fe5 Ho2 3.011669 1_565
Fe5 Ho2 3.018083 1_455
Fe5 Ho1 3.018083 1_455
Fe6 Fe7 2.562643 1_445
Fe6 Fe7 2.594891 1_555
Fe6 Ho3 2.993950 1_556
Fe6 Ho0 2.993950 1_555
Fe6 Ho2 3.012888 1_555
Fe6 Ho1 3.012888 1_555
Fe6 Ho2 3.012893 1_455
Fe6 Ho1 3.012893 1_455
Fe7 Ho3 2.990453 1_556
Fe7 Ho0 2.990453 1_555
Fe7 Ho2 3.011669 1_565
Fe7 Ho1 3.011669 1_565
Fe7 Ho2 3.018083 1_555
Fe7 Ho1 3.018083 1_555
