# generated using pymatgen
data_Gd3Pt
_symmetry_space_group_name_H-M   'P 1'
_cell_length_a   6.53727800
_cell_length_b   7.18022700
_cell_length_c   9.76492800
_cell_angle_alpha   90.00000000
_cell_angle_beta   90.00000000
_cell_angle_gamma   90.00000000
_symmetry_Int_Tables_number   1
_chemical_formula_structural   Gd3Pt
_chemical_formula_sum   'Gd12 Pt4'
_cell_volume   458.35732250
_cell_formula_units_Z   4
loop_
 _symmetry_equiv_pos_site_id
 _symmetry_equiv_pos_as_xyz
  1  'x, y, z'
loop_
 _atom_site_type_symbol
 _atom_site_label
 _atom_site_symmetry_multiplicity
 _atom_site_fract_x
 _atom_site_fract_y
 _atom_site_fract_z
 _atom_site_occupancy
  Gd  Gd0  1  0.32496300  0.67956000  0.06010800  1
  Gd  Gd1  1  0.17503700  0.17956000  0.43989200  1
  Gd  Gd2  1  0.67503700  0.32044000  0.56010800  1
  Gd  Gd3  1  0.82496300  0.82044000  0.93989200  1
  Gd  Gd4  1  0.67503700  0.32044000  0.93989200  1
  Gd  Gd5  1  0.82496300  0.82044000  0.56010800  1
  Gd  Gd6  1  0.32496300  0.67956000  0.43989200  1
  Gd  Gd7  1  0.17503700  0.17956000  0.06010800  1
  Gd  Gd8  1  0.86481800  0.53014900  0.25000000  1
  Gd  Gd9  1  0.63518200  0.03014900  0.25000000  1
  Gd  Gd10  1  0.13518200  0.46985100  0.75000000  1
  Gd  Gd11  1  0.36481800  0.96985100  0.75000000  1
  Pt  Pt0  1  0.05491000  0.88764300  0.25000000  1
  Pt  Pt1  1  0.44509000  0.38764300  0.25000000  1
  Pt  Pt2  1  0.94509000  0.11235700  0.75000000  1
  Pt  Pt3  1  0.55491000  0.61235700  0.75000000  1
loop_
_geom_bond_atom_site_label_1
_geom_bond_atom_site_label_2
_geom_bond_distance
_geom_bond_site_symmetry_2
Gd0 Pt1 2.906614 1_555
Gd0 Pt0 2.964342 1_555
Gd1 Pt0 2.906614 1_545
Gd1 Pt1 2.964342 1_555
Gd2 Pt3 2.906614 1_555
Gd2 Pt2 2.964342 1_555
Gd3 Pt2 2.906614 1_565
Gd3 Pt3 2.964342 1_555
Gd4 Pt3 2.906614 1_555
Gd4 Pt2 2.964342 1_555
Gd5 Pt2 2.906614 1_565
Gd5 Pt3 2.964342 1_555
Gd6 Pt1 2.906614 1_555
Gd6 Pt0 2.964342 1_555
Gd7 Pt0 2.906614 1_545
Gd7 Pt1 2.964342 1_555
Gd8 Pt0 2.851873 1_655
Gd8 Pt1 2.928457 1_555
Gd9 Pt1 2.851873 1_555
Gd9 Pt0 2.928457 1_645
Gd10 Pt2 2.851873 1_455
Gd10 Pt3 2.928457 1_555
Gd11 Pt3 2.851873 1_555
Gd11 Pt2 2.928457 1_465
