# generated using pymatgen
data_NaPm3
_symmetry_space_group_name_H-M   'P 1'
_cell_length_a   5.14635000
_cell_length_b   5.14635000
_cell_length_c   5.14635000
_cell_angle_alpha   90.00000000
_cell_angle_beta   90.00000000
_cell_angle_gamma   90.00000000
_symmetry_Int_Tables_number   1
_chemical_formula_structural   NaPm3
_chemical_formula_sum   'Na1 Pm3'
_cell_volume   136.30065941
_cell_formula_units_Z   1
loop_
 _symmetry_equiv_pos_site_id
 _symmetry_equiv_pos_as_xyz
  1  'x, y, z'
loop_
 _atom_site_type_symbol
 _atom_site_label
 _atom_site_symmetry_multiplicity
 _atom_site_fract_x
 _atom_site_fract_y
 _atom_site_fract_z
 _atom_site_occupancy
  Na  Na0  1  0.00000000  0.00000000  0.00000000  1
  Pm  Pm0  1  0.00000000  0.50000000  0.50000000  1
  Pm  Pm1  1  0.50000000  0.50000000  0.00000000  1
  Pm  Pm2  1  0.50000000  0.00000000  0.50000000  1
loop_
_geom_bond_atom_site_label_1
_geom_bond_atom_site_label_2
_geom_bond_distance
_geom_bond_site_symmetry_2
Na0 Pm0 3.639019 1_545
Na0 Pm0 3.639019 1_555
Na0 Pm2 3.639019 1_455
Na0 Pm2 3.639019 1_554
Na0 Pm1 3.639019 1_545
Na0 Pm1 3.639019 1_445
Na0 Pm1 3.639019 1_455
Na0 Pm2 3.639019 1_454
Na0 Pm2 3.639019 1_555
Na0 Pm0 3.639019 1_554
Na0 Pm1 3.639019 1_555
Na0 Pm0 3.639019 1_544
Pm0 Pm2 3.639019 1_455
Pm0 Pm1 3.639019 1_456
Pm0 Pm1 3.639019 1_455
Pm0 Pm2 3.639019 1_465
Pm0 Pm2 3.639019 1_565
Pm0 Pm2 3.639019 1_555
Pm0 Pm1 3.639019 1_555
Pm0 Pm1 3.639019 1_556
Pm1 Pm2 3.639019 1_564
Pm1 Pm2 3.639019 1_554
Pm1 Pm2 3.639019 1_565
Pm1 Pm2 3.639019 1_555
