# generated using pymatgen
data_NpTe3
_symmetry_space_group_name_H-M   'P 1'
_cell_length_a   12.80676986
_cell_length_b   12.80676986
_cell_length_c   4.33762200
_cell_angle_alpha   90.00000000
_cell_angle_beta   90.00000000
_cell_angle_gamma   160.47536060
_symmetry_Int_Tables_number   1
_chemical_formula_structural   NpTe3
_chemical_formula_sum   'Np2 Te6'
_cell_volume   237.76789523
_cell_formula_units_Z   2
loop_
 _symmetry_equiv_pos_site_id
 _symmetry_equiv_pos_as_xyz
  1  'x, y, z'
loop_
 _atom_site_type_symbol
 _atom_site_label
 _atom_site_symmetry_multiplicity
 _atom_site_fract_x
 _atom_site_fract_y
 _atom_site_fract_z
 _atom_site_occupancy
  Np  Np0  1  0.16779900  0.83220100  0.25000000  1
  Np  Np1  1  0.83220100  0.16779900  0.75000000  1
  Te  Te0  1  0.92485000  0.07515000  0.25000000  1
  Te  Te1  1  0.07515000  0.92485000  0.75000000  1
  Te  Te2  1  0.57545500  0.42454500  0.25000000  1
  Te  Te3  1  0.42454500  0.57545500  0.75000000  1
  Te  Te4  1  0.29610100  0.70389900  0.25000000  1
  Te  Te5  1  0.70389900  0.29610100  0.75000000  1
loop_
_geom_bond_atom_site_label_1
_geom_bond_atom_site_label_2
_geom_bond_distance
_geom_bond_site_symmetry_2
Np0 Te2 3.185774 1_565
Np0 Te2 3.185774 1_455
Np0 Te1 3.189559 1_555
Np0 Te1 3.189559 1_554
Np0 Te5 3.201514 1_455
Np0 Te5 3.201514 1_454
Np0 Te5 3.201514 1_565
Np0 Te5 3.201514 1_564
Np0 Te4 3.238682 1_555
Np1 Te3 3.185774 1_655
Np1 Te3 3.185774 1_545
Np1 Te0 3.189559 1_555
Np1 Te0 3.189559 1_556
Np1 Te4 3.201514 1_656
Np1 Te4 3.201514 1_545
Np1 Te4 3.201514 1_655
Np1 Te4 3.201514 1_546
Np1 Te5 3.238682 1_555
Te0 Te3 3.069098 1_654
Te0 Te3 3.069098 1_655
Te0 Te3 3.069098 1_544
Te0 Te3 3.069098 1_545
Te1 Te2 3.069098 1_566
Te1 Te2 3.069098 1_456
Te1 Te2 3.069098 1_565
Te1 Te2 3.069098 1_455
