# generated using pymatgen
data_MgV3CoSn2(PO4)6
_symmetry_space_group_name_H-M   'P 1'
_cell_length_a   9.18703131
_cell_length_b   8.45895735
_cell_length_c   8.58519582
_cell_angle_alpha   60.50080048
_cell_angle_beta   62.18949857
_cell_angle_gamma   62.81649632
_symmetry_Int_Tables_number   1
_chemical_formula_structural   MgV3CoSn2(PO4)6
_chemical_formula_sum   'Mg1 V3 Co1 Sn2 P6 O24'
_cell_volume   490.75658210
_cell_formula_units_Z   1
loop_
 _symmetry_equiv_pos_site_id
 _symmetry_equiv_pos_as_xyz
  1  'x, y, z'
loop_
 _atom_site_type_symbol
 _atom_site_label
 _atom_site_symmetry_multiplicity
 _atom_site_fract_x
 _atom_site_fract_y
 _atom_site_fract_z
 _atom_site_occupancy
  Mg  Mg0  1  0.65306575  0.17203419  0.42782772  1
  V  V0  1  0.06127696  0.62847266  0.66424272  1
  V  V1  1  0.44204701  0.84440257  0.85342733  1
  V  V2  1  0.94919111  0.35461210  0.34055502  1
  Co  Co0  1  0.52445294  0.16367095  0.13985602  1
  Sn  Sn0  1  0.94627210  0.01222077  0.00842090  1
  Sn  Sn1  1  0.47040129  0.63410577  0.48955469  1
  P  P0  1  0.25572300  0.24661408  0.54008774  1
  P  P1  1  0.24255150  0.95882288  0.25358492  1
  P  P2  1  0.25069244  0.53907694  0.95869590  1
  P  P3  1  0.75814265  0.45591162  0.03160143  1
  P  P4  1  0.75902567  0.02638002  0.74286760  1
  P  P5  1  0.75868733  0.74055765  0.47342440  1
  O  O0  1  0.07566892  0.12156450  0.27912417  1
  O  O1  1  0.07964675  0.50868873  0.10464554  1
  O  O2  1  0.10718237  0.28461135  0.48218648  1
  O  O3  1  0.27873942  0.05875965  0.70731223  1
  O  O4  1  0.43185180  0.24680365  0.37779037  1
  O  O5  1  0.21472530  0.41199058  0.60539100  1
  O  O6  1  0.30192801  0.95834491  0.05630020  1
  O  O7  1  0.20731573  0.76670627  0.40823680  1
  O  O8  1  0.61395112  0.63818959  0.98722743  1
  O  O9  1  0.22855261  0.62333957  0.75579602  1
  O  O10  1  0.73657867  0.28503588  0.02393002  1
  O  O11  1  0.61157810  0.00732229  0.71514801  1
  O  O12  1  0.39253179  0.96098102  0.29514853  1
  O  O13  1  0.28113053  0.69329660  0.97629989  1
  O  O14  1  0.75363611  0.38860475  0.23993030  1
  O  O15  1  0.40608834  0.36221294  0.95979951  1
  O  O16  1  0.78272749  0.21536972  0.57837399  1
  O  O17  1  0.71947386  0.02798345  0.93850421  1
  O  O18  1  0.79233019  0.61557761  0.37038047  1
  O  O19  1  0.57282820  0.75037973  0.61702268  1
  O  O20  1  0.75837251  0.94995514  0.32669324  1
  O  O21  1  0.89465729  0.66155929  0.56673537  1
  O  O22  1  0.93988535  0.47314852  0.90449619  1
  O  O23  1  0.92566179  0.86113607  0.71344497  1
loop_
_geom_bond_atom_site_label_1
_geom_bond_atom_site_label_2
_geom_bond_distance
_geom_bond_site_symmetry_2
Mg0 O14 2.014300 1_555
Mg0 O4 2.021740 1_555
Mg0 O20 2.093033 1_545
Mg0 O11 2.096285 1_555
Mg0 O16 2.350742 1_555
Co0 O15 1.932806 1_554
Co0 O12 2.079836 1_545
Co0 O4 2.153475 1_555
Co0 O17 2.168127 1_554
Co0 O10 2.203244 1_555
Co0 O20 2.696375 1_545
O0 P1 1.532619 1_545
O0 V2 1.968162 1_455
O1 P2 1.523163 1_554
O1 V2 1.949273 1_455
O2 P0 1.512461 1_555
O2 V2 2.021968 1_455
O3 P0 1.536377 1_555
O3 V1 2.035390 1_545
O4 P0 1.567198 1_555
O5 P0 1.583373 1_555
O5 V0 1.866505 1_555
O6 P1 1.519512 1_555
O6 V1 2.011750 1_554
O7 P1 1.569482 1_555
O7 V0 2.036876 1_555
O7 Sn1 2.431779 1_555
O8 P3 1.517740 1_556
O8 V1 2.014648 1_555
O9 P2 1.599730 1_555
O9 V0 2.003460 1_555
O9 Sn1 2.326076 1_555
O10 P3 1.581271 1_555
O10 Sn0 2.248522 1_555
O11 P4 1.567062 1_555
O11 V1 2.087821 1_545
O12 P1 1.585677 1_555
O12 Sn1 2.388453 1_555
O13 P2 1.539404 1_555
O13 V1 1.968642 1_555
O14 P3 1.573009 1_555
O14 V2 2.188195 1_555
O15 P2 1.524352 1_555
O16 P4 1.550872 1_555
O16 V2 2.063657 1_555
O17 P4 1.549731 1_555
O17 Sn0 2.356655 1_556
O18 P5 1.537266 1_555
O18 V2 2.078722 1_555
O18 Sn1 2.594117 1_555
O19 P5 1.565035 1_555
O19 V1 2.153264 1_555
O19 Sn1 2.432480 1_555
O20 P5 1.589217 1_555
O20 Sn0 2.394918 1_565
O21 P5 1.514118 1_555
O21 V0 1.922439 1_655
O22 P3 1.538017 1_556
O22 V0 1.935955 1_655
O23 P4 1.546928 1_565
O23 V0 1.921285 1_655
