# generated using pymatgen
data_Sr3SmRhO6
_symmetry_space_group_name_H-M   'P 1'
_cell_length_a   6.90137951
_cell_length_b   6.90137951
_cell_length_c   6.90137982
_cell_angle_alpha   91.85553426
_cell_angle_beta   91.85553426
_cell_angle_gamma   91.85553215
_symmetry_Int_Tables_number   1
_chemical_formula_structural   Sr3SmRhO6
_chemical_formula_sum   'Sr6 Sm2 Rh2 O12'
_cell_volume   328.17756693
_cell_formula_units_Z   2
loop_
 _symmetry_equiv_pos_site_id
 _symmetry_equiv_pos_as_xyz
  1  'x, y, z'
loop_
 _atom_site_type_symbol
 _atom_site_label
 _atom_site_symmetry_multiplicity
 _atom_site_fract_x
 _atom_site_fract_y
 _atom_site_fract_z
 _atom_site_occupancy
  Sr  Sr0  1  0.38088400  0.11911600  0.75000000  1
  Sr  Sr1  1  0.11911600  0.75000000  0.38088400  1
  Sr  Sr2  1  0.75000000  0.38088400  0.11911600  1
  Sr  Sr3  1  0.61911600  0.88088400  0.25000000  1
  Sr  Sr4  1  0.25000000  0.61911600  0.88088400  1
  Sr  Sr5  1  0.88088400  0.25000000  0.61911600  1
  Sm  Sm0  1  0.25000000  0.25000000  0.25000000  1
  Sm  Sm1  1  0.75000000  0.75000000  0.75000000  1
  Rh  Rh0  1  0.00000000  0.00000000  0.00000000  1
  Rh  Rh1  1  0.50000000  0.50000000  0.50000000  1
  O  O0  1  0.08637200  0.29162200  0.95176300  1
  O  O1  1  0.95176300  0.08637200  0.29162200  1
  O  O2  1  0.29162200  0.95176300  0.08637200  1
  O  O3  1  0.41362800  0.54823700  0.20837800  1
  O  O4  1  0.20837800  0.41362800  0.54823700  1
  O  O5  1  0.54823700  0.20837800  0.41362800  1
  O  O6  1  0.91362800  0.70837800  0.04823700  1
  O  O7  1  0.04823700  0.91362800  0.70837800  1
  O  O8  1  0.70837800  0.04823700  0.91362800  1
  O  O9  1  0.58637200  0.45176300  0.79162200  1
  O  O10  1  0.45176300  0.79162200  0.58637200  1
  O  O11  1  0.79162200  0.58637200  0.45176300  1
loop_
_geom_bond_atom_site_label_1
_geom_bond_atom_site_label_2
_geom_bond_distance
_geom_bond_site_symmetry_2
O0 Rh0 2.120195 1_556
O0 Sm0 2.345825 1_556
O0 Sr4 2.562209 1_555
O0 Sr5 2.661595 1_455
O0 Sr2 2.706039 1_456
O0 Sr0 2.778507 1_555
O1 Rh0 2.120195 1_655
O1 Sm0 2.345824 1_655
O1 Sr5 2.562209 1_555
O1 Sr3 2.661595 1_545
O1 Sr1 2.706039 1_645
O1 Sr2 2.778507 1_555
O2 Rh0 2.120195 1_565
O2 Sm0 2.345824 1_565
O2 Sr3 2.562209 1_555
O2 Sr4 2.661595 1_554
O2 Sr0 2.706039 1_564
O2 Sr1 2.778508 1_555
O3 Rh1 2.120195 1_555
O3 Sm0 2.345824 1_555
O3 Sr4 2.562209 1_554
O3 Sr3 2.661595 1_555
O3 Sr2 2.706039 1_555
O3 Sr1 2.778507 1_555
O4 Rh1 2.120195 1_555
O4 Sm0 2.345825 1_555
O4 Sr5 2.562209 1_455
O4 Sr4 2.661595 1_555
O4 Sr1 2.706039 1_555
O4 Sr0 2.778507 1_555
O5 Rh1 2.120195 1_555
O5 Sm0 2.345824 1_555
O5 Sr3 2.562209 1_545
O5 Sr5 2.661595 1_555
O5 Sr0 2.706039 1_555
O5 Sr2 2.778508 1_555
O6 Rh0 2.120195 1_665
O6 Sm1 2.345825 1_554
O6 Sr2 2.562209 1_555
O6 Sr1 2.661595 1_655
O6 Sr4 2.706039 1_654
O6 Sr3 2.778507 1_555
O7 Rh0 2.120195 1_566
O7 Sm1 2.345824 1_455
O7 Sr1 2.562209 1_555
O7 Sr0 2.661595 1_565
O7 Sr5 2.706039 1_465
O7 Sr4 2.778507 1_555
O8 Rh0 2.120195 1_656
O8 Sm1 2.345824 1_545
O8 Sr0 2.562209 1_555
O8 Sr2 2.661595 1_556
O8 Sr3 2.706039 1_546
O8 Sr5 2.778508 1_555
O9 Rh1 2.120195 1_555
O9 Sm1 2.345824 1_555
O9 Sr2 2.562209 1_556
O9 Sr0 2.661595 1_555
O9 Sr4 2.706039 1_555
O9 Sr5 2.778507 1_555
O10 Rh1 2.120195 1_555
O10 Sm1 2.345824 1_555
O10 Sr0 2.562209 1_565
O10 Sr1 2.661595 1_555
O10 Sr3 2.706039 1_555
O10 Sr4 2.778508 1_555
O11 Rh1 2.120195 1_555
O11 Sm1 2.345825 1_555
O11 Sr1 2.562209 1_655
O11 Sr2 2.661595 1_555
O11 Sr5 2.706039 1_555
O11 Sr3 2.778507 1_555
