# generated using pymatgen
data_Cu3SO8
_symmetry_space_group_name_H-M   'P 1'
_cell_length_a   5.90866000
_cell_length_b   7.99474000
_cell_length_c   12.66537700
_cell_angle_alpha   90.00000000
_cell_angle_beta   90.00000000
_cell_angle_gamma   90.00000000
_symmetry_Int_Tables_number   1
_chemical_formula_structural   Cu3SO8
_chemical_formula_sum   'Cu12 S4 O32'
_cell_volume   598.28961748
_cell_formula_units_Z   4
loop_
 _symmetry_equiv_pos_site_id
 _symmetry_equiv_pos_as_xyz
  1  'x, y, z'
loop_
 _atom_site_type_symbol
 _atom_site_label
 _atom_site_symmetry_multiplicity
 _atom_site_fract_x
 _atom_site_fract_y
 _atom_site_fract_z
 _atom_site_occupancy
  Cu  Cu0  1  0.25000000  0.50093200  0.50185400  1
  Cu  Cu1  1  0.25000000  0.00093200  0.99814600  1
  Cu  Cu2  1  0.75000000  0.49906800  0.49814600  1
  Cu  Cu3  1  0.75000000  0.99906800  0.00185400  1
  Cu  Cu4  1  0.00313000  0.78585800  0.61988000  1
  Cu  Cu5  1  0.49687000  0.28585800  0.88012000  1
  Cu  Cu6  1  0.50313000  0.21414200  0.38012000  1
  Cu  Cu7  1  0.99687000  0.71414200  0.11988000  1
  Cu  Cu8  1  0.99687000  0.21414200  0.38012000  1
  Cu  Cu9  1  0.50313000  0.71414200  0.11988000  1
  Cu  Cu10  1  0.49687000  0.78585800  0.61988000  1
  Cu  Cu11  1  0.00313000  0.28585800  0.88012000  1
  S  S0  1  0.25000000  0.62038200  0.86026700  1
  S  S1  1  0.25000000  0.12038200  0.63973300  1
  S  S2  1  0.75000000  0.37961800  0.13973300  1
  S  S3  1  0.75000000  0.87961800  0.36026700  1
  O  O0  1  0.25000000  0.74816400  0.77742400  1
  O  O1  1  0.25000000  0.24816400  0.72257600  1
  O  O2  1  0.75000000  0.25183600  0.22257600  1
  O  O3  1  0.75000000  0.75183600  0.27742400  1
  O  O4  1  0.25000000  0.69842400  0.96655800  1
  O  O5  1  0.25000000  0.19842400  0.53344200  1
  O  O6  1  0.75000000  0.30157600  0.03344200  1
  O  O7  1  0.75000000  0.80157600  0.46655800  1
  O  O8  1  0.03721700  0.51630700  0.84580500  1
  O  O9  1  0.46278300  0.01630700  0.65419500  1
  O  O10  1  0.53721700  0.48369300  0.15419500  1
  O  O11  1  0.96278300  0.98369300  0.34580500  1
  O  O12  1  0.96278300  0.48369300  0.15419500  1
  O  O13  1  0.53721700  0.98369300  0.34580500  1
  O  O14  1  0.46278300  0.51630700  0.84580500  1
  O  O15  1  0.03721700  0.01630700  0.65419500  1
  O  O16  1  0.25000000  0.78603500  0.53597600  1
  O  O17  1  0.25000000  0.28603500  0.96402400  1
  O  O18  1  0.75000000  0.21396500  0.46402400  1
  O  O19  1  0.75000000  0.71396500  0.03597600  1
  O  O20  1  0.25000000  0.22644000  0.30059300  1
  O  O21  1  0.25000000  0.72644000  0.19940700  1
  O  O22  1  0.75000000  0.77356000  0.69940700  1
  O  O23  1  0.75000000  0.27356000  0.80059300  1
  O  O24  1  0.50840800  0.55533800  0.58914000  1
  O  O25  1  0.99159200  0.05533800  0.91086000  1
  O  O26  1  0.00840800  0.44466200  0.41086000  1
  O  O27  1  0.49159200  0.94466200  0.08914000  1
  O  O28  1  0.49159200  0.44466200  0.41086000  1
  O  O29  1  0.00840800  0.94466200  0.08914000  1
  O  O30  1  0.99159200  0.55533800  0.58914000  1
  O  O31  1  0.50840800  0.05533800  0.91086000  1
loop_
_geom_bond_atom_site_label_1
_geom_bond_atom_site_label_2
_geom_bond_distance
_geom_bond_site_symmetry_2
Cu0 O26 1.888991 1_555
Cu0 O28 1.888991 1_555
Cu0 O30 1.934580 1_455
Cu0 O24 1.934580 1_555
Cu0 O16 2.319933 1_555
Cu0 O5 2.451340 1_555
Cu1 O27 1.888991 1_546
Cu1 O29 1.888991 1_546
Cu1 O25 1.934580 1_455
Cu1 O31 1.934580 1_555
Cu1 O17 2.319933 1_555
Cu1 O4 2.451340 1_545
Cu2 O30 1.888991 1_555
Cu2 O24 1.888991 1_555
Cu2 O26 1.934580 1_655
Cu2 O28 1.934580 1_555
Cu2 O18 2.319933 1_555
Cu2 O7 2.451340 1_555
Cu3 O25 1.888991 1_564
Cu3 O31 1.888991 1_564
Cu3 O29 1.934580 1_655
Cu3 O27 1.934580 1_555
Cu3 O19 2.319933 1_555
Cu3 O6 2.451340 1_565
Cu4 O16 1.804717 1_555
Cu4 O22 1.805878 1_455
Cu4 O30 1.884856 1_455
Cu4 O15 1.903633 1_565
Cu4 O7 2.454320 1_455
Cu4 O0 2.489975 1_555
Cu5 O17 1.804717 1_555
Cu5 O23 1.805878 1_555
Cu5 O31 1.884856 1_555
Cu5 O14 1.903633 1_555
Cu5 O6 2.454320 1_556
Cu5 O1 2.489975 1_555
Cu6 O18 1.804717 1_555
Cu6 O20 1.805878 1_555
Cu6 O28 1.884856 1_555
Cu6 O13 1.903633 1_545
Cu6 O5 2.454320 1_555
Cu6 O2 2.489975 1_555
Cu7 O19 1.804717 1_555
Cu7 O21 1.805878 1_655
Cu7 O29 1.884856 1_655
Cu7 O12 1.903633 1_555
Cu7 O4 2.454320 1_654
Cu7 O3 2.489975 1_555
Cu8 O18 1.804717 1_555
Cu8 O20 1.805878 1_655
Cu8 O26 1.884856 1_655
Cu8 O11 1.903633 1_545
Cu8 O5 2.454320 1_655
Cu8 O2 2.489975 1_555
Cu9 O19 1.804717 1_555
Cu9 O21 1.805878 1_555
Cu9 O27 1.884856 1_555
Cu9 O10 1.903633 1_555
Cu9 O4 2.454320 1_554
Cu9 O3 2.489975 1_555
Cu10 O16 1.804717 1_555
Cu10 O22 1.805878 1_555
Cu10 O24 1.884856 1_555
Cu10 O9 1.903633 1_565
Cu10 O7 2.454320 1_555
Cu10 O0 2.489975 1_555
Cu11 O17 1.804717 1_555
Cu11 O23 1.805878 1_455
Cu11 O25 1.884856 1_455
Cu11 O8 1.903633 1_555
Cu11 O6 2.454320 1_456
Cu11 O1 2.489975 1_555
O0 S0 1.464423 1_555
O1 S1 1.464423 1_555
O2 S2 1.464423 1_555
O3 S3 1.464423 1_555
O4 S0 1.483772 1_555
O5 S1 1.483772 1_555
O6 S2 1.483772 1_555
O7 S3 1.483772 1_555
O8 S0 1.518740 1_555
O9 S1 1.518740 1_555
O10 S2 1.518740 1_555
O11 S3 1.518740 1_555
O12 S2 1.518740 1_555
O13 S3 1.518740 1_555
O14 S0 1.518740 1_555
O15 S1 1.518740 1_555
