# generated using pymatgen
data_Li9Mn2Co5O16
_symmetry_space_group_name_H-M   'P 1'
_cell_length_a   10.63856511
_cell_length_b   10.63856511
_cell_length_c   10.30347312
_cell_angle_alpha   67.27760973
_cell_angle_beta   67.27760973
_cell_angle_gamma   15.61827640
_symmetry_Int_Tables_number   1
_chemical_formula_structural   Li9Mn2Co5O16
_chemical_formula_sum   'Li9 Mn2 Co5 O16'
_cell_volume   289.11076993
_cell_formula_units_Z   1
loop_
 _symmetry_equiv_pos_site_id
 _symmetry_equiv_pos_as_xyz
  1  'x, y, z'
loop_
 _atom_site_type_symbol
 _atom_site_label
 _atom_site_symmetry_multiplicity
 _atom_site_fract_x
 _atom_site_fract_y
 _atom_site_fract_z
 _atom_site_occupancy
  Li  Li0  1  0.63618100  0.63618100  0.79820200  1
  Li  Li1  1  0.86697300  0.86697300  0.45656200  1
  Li  Li2  1  0.12969400  0.12969400  0.05438300  1
  Li  Li3  1  0.12644800  0.12644800  0.55838700  1
  Li  Li4  1  0.37034100  0.37034100  0.19706800  1
  Li  Li5  1  0.62733200  0.62733200  0.31644800  1
  Li  Li6  1  0.87027400  0.87027400  0.93568100  1
  Li  Li7  1  0.37338100  0.37338100  0.67991600  1
  Li  Li8  1  0.25041600  0.25041600  0.62485100  1
  Mn  Mn0  1  0.00022000  0.00022000  0.00034200  1
  Mn  Mn1  1  0.24955000  0.24955000  0.12580800  1
  Co  Co0  1  0.49921200  0.49921200  0.25320300  1
  Co  Co1  1  0.75390800  0.75390800  0.85154900  1
  Co  Co2  1  0.00002100  0.00002100  0.49856300  1
  Co  Co3  1  0.50048400  0.50048400  0.74761200  1
  Co  Co4  1  0.74628600  0.74628600  0.39989300  1
  O  O0  1  0.55669500  0.55669500  0.02173200  1
  O  O1  1  0.81136100  0.81136100  0.66989200  1
  O  O2  1  0.05507200  0.05507200  0.28240500  1
  O  O3  1  0.05097100  0.05097100  0.79294100  1
  O  O4  1  0.31013600  0.31013600  0.40012800  1
  O  O5  1  0.55806700  0.55806700  0.52915800  1
  O  O6  1  0.80583800  0.80583800  0.15084600  1
  O  O7  1  0.30365700  0.30365700  0.92369800  1
  O  O8  1  0.68796300  0.68796300  0.58134700  1
  O  O9  1  0.94857100  0.94857100  0.20309300  1
  O  O10  1  0.19027300  0.19027300  0.84999300  1
  O  O11  1  0.19657700  0.19657700  0.32793200  1
  O  O12  1  0.44347100  0.44347100  0.97789900  1
  O  O13  1  0.69343300  0.69343300  0.10008500  1
  O  O14  1  0.94569200  0.94569200  0.71943600  1
  O  O15  1  0.44150100  0.44150100  0.47094500  1
loop_
_geom_bond_atom_site_label_1
_geom_bond_atom_site_label_2
_geom_bond_distance
_geom_bond_site_symmetry_2
Li0 O10 2.036875 1_565
Li0 O10 2.036875 1_655
Li0 O8 2.069316 1_555
Li0 O0 2.258932 1_556
Li0 O3 2.322650 1_565
Li0 O3 2.322650 1_655
Li1 O1 2.048510 1_555
Li1 O4 2.099114 1_655
Li1 O4 2.099114 1_565
Li1 O15 2.182002 1_655
Li1 O15 2.182002 1_565
Li1 O9 2.505261 1_555
Li2 O10 1.992148 1_554
Li2 O13 2.147052 1_455
Li2 O13 2.147052 1_545
Li2 O0 2.230300 1_545
Li2 O0 2.230300 1_455
Li2 O2 2.261060 1_555
Li3 O8 2.016465 1_455
Li3 O8 2.016465 1_545
Li3 O5 2.143939 1_455
Li3 O5 2.143939 1_545
Li3 O11 2.255312 1_555
Li3 O3 2.318119 1_555
Li4 O4 1.979283 1_555
Li4 O6 2.161027 1_455
Li4 O6 2.161027 1_545
Li4 O12 2.182066 1_554
Li4 O9 2.211921 1_545
Li4 O9 2.211921 1_455
Li5 O11 2.090165 1_565
Li5 O11 2.090165 1_655
Li5 O5 2.107119 1_555
Li5 O13 2.118754 1_555
Li5 O2 2.224712 1_565
Li5 O2 2.224712 1_655
Li6 O7 2.052290 1_655
Li6 O7 2.052290 1_565
Li6 O6 2.100415 1_556
Li6 O14 2.174787 1_555
Li6 O12 2.276585 1_655
Li6 O12 2.276585 1_565
Li7 O1 1.978546 1_545
Li7 O1 1.978546 1_455
Li7 O15 2.070520 1_555
Li7 O14 2.250058 1_545
Li7 O14 2.250058 1_455
Li7 O7 2.364457 1_555
Li8 O1 2.102431 1_545
Li8 O1 2.102431 1_455
Li8 O8 2.117476 1_545
Li8 O8 2.117476 1_455
Li8 O4 2.161734 1_555
Li8 O10 2.166857 1_555
Mn0 O0 1.939041 1_545
Mn0 O0 1.939041 1_455
Mn0 O9 1.943176 1_445
Mn0 O12 1.946709 1_454
Mn0 O12 1.946709 1_544
Mn0 O3 1.982022 1_554
Mn1 O11 1.941829 1_555
Mn1 O7 1.945601 1_554
Mn1 O6 1.950023 1_545
Mn1 O6 1.950023 1_455
Mn1 O13 1.950262 1_455
Mn1 O13 1.950262 1_545
Co0 O2 1.960310 1_655
Co0 O2 1.960310 1_565
Co0 O9 1.981257 1_545
Co0 O9 1.981257 1_455
Co0 O15 2.094048 1_555
Co0 O0 2.214236 1_555
Co1 O1 1.789535 1_555
Co1 O10 1.976332 1_655
Co1 O10 1.976332 1_565
Co1 O7 2.085607 1_655
Co1 O7 2.085607 1_565
Co1 O13 2.374279 1_556
Co2 O15 1.991460 1_455
Co2 O15 1.991460 1_545
Co2 O5 1.996699 1_545
Co2 O5 1.996699 1_455
Co2 O2 2.071630 1_555
Co2 O14 2.111484 1_445
Co3 O14 1.941456 1_455
Co3 O14 1.941456 1_545
Co3 O3 1.956484 1_655
Co3 O3 1.956484 1_565
Co3 O5 2.099816 1_555
Co3 O12 2.202441 1_555
Co4 O8 1.792932 1_555
Co4 O4 1.975750 1_565
Co4 O4 1.975750 1_655
Co4 O11 2.083997 1_565
Co4 O11 2.083997 1_655
Co4 O6 2.376691 1_555
