# generated using pymatgen
data_Sr(IO)2
_symmetry_space_group_name_H-M   'P 1'
_cell_length_a   4.12067300
_cell_length_b   10.86583200
_cell_length_c   14.19140800
_cell_angle_alpha   90.00000000
_cell_angle_beta   90.00000000
_cell_angle_gamma   90.00000000
_symmetry_Int_Tables_number   1
_chemical_formula_structural   Sr(IO)2
_chemical_formula_sum   'Sr4 I8 O8'
_cell_volume   635.41377289
_cell_formula_units_Z   4
loop_
 _symmetry_equiv_pos_site_id
 _symmetry_equiv_pos_as_xyz
  1  'x, y, z'
loop_
 _atom_site_type_symbol
 _atom_site_label
 _atom_site_symmetry_multiplicity
 _atom_site_fract_x
 _atom_site_fract_y
 _atom_site_fract_z
 _atom_site_occupancy
  Sr  Sr0  1  0.75000000  0.80686400  0.12331300  1
  Sr  Sr1  1  0.75000000  0.30686400  0.37668700  1
  Sr  Sr2  1  0.25000000  0.19313600  0.87668700  1
  Sr  Sr3  1  0.25000000  0.69313600  0.62331300  1
  I  I0  1  0.75000000  0.59000200  0.82006500  1
  I  I1  1  0.75000000  0.09000200  0.67993500  1
  I  I2  1  0.25000000  0.40999800  0.17993500  1
  I  I3  1  0.25000000  0.90999800  0.32006500  1
  I  I4  1  0.75000000  0.12735600  0.10366700  1
  I  I5  1  0.75000000  0.62735600  0.39633300  1
  I  I6  1  0.25000000  0.87264400  0.89633300  1
  I  I7  1  0.25000000  0.37264400  0.60366700  1
  O  O0  1  0.25000000  0.80802200  0.02638200  1
  O  O1  1  0.25000000  0.30802200  0.47361800  1
  O  O2  1  0.75000000  0.19197800  0.97361800  1
  O  O3  1  0.75000000  0.69197800  0.52638200  1
  O  O4  1  0.25000000  0.77695700  0.22438500  1
  O  O5  1  0.25000000  0.27695700  0.27561500  1
  O  O6  1  0.75000000  0.22304300  0.77561500  1
  O  O7  1  0.75000000  0.72304300  0.72438500  1
loop_
_geom_bond_atom_site_label_1
_geom_bond_atom_site_label_2
_geom_bond_distance
_geom_bond_site_symmetry_2
I0 O7 1.983299 1_555
I1 O6 1.983299 1_555
I2 O5 1.983299 1_555
I3 O4 1.983299 1_555
I4 O2 1.974640 1_554
I4 Sr0 3.493555 1_545
I5 O3 1.974640 1_555
I5 Sr1 3.493555 1_555
I6 O0 1.974640 1_556
I6 Sr2 3.493555 1_565
I7 O1 1.974640 1_555
I7 Sr3 3.493555 1_555
O0 Sr0 2.477375 1_555
O0 Sr0 2.477375 1_455
O1 Sr1 2.477375 1_555
O1 Sr1 2.477375 1_455
O2 Sr2 2.477375 1_655
O2 Sr2 2.477375 1_555
O3 Sr3 2.477375 1_555
O3 Sr3 2.477375 1_655
O4 Sr0 2.531395 1_555
O4 Sr0 2.531395 1_455
O5 Sr1 2.531395 1_555
O5 Sr1 2.531395 1_455
O6 Sr2 2.531395 1_655
O6 Sr2 2.531395 1_555
O7 Sr3 2.531395 1_655
O7 Sr3 2.531395 1_555
