# generated using pymatgen
data_KMg6W
_symmetry_space_group_name_H-M   'P 1'
_cell_length_a   6.55204700
_cell_length_b   6.55204700
_cell_length_c   4.38436500
_cell_angle_alpha   90.00000000
_cell_angle_beta   90.00000000
_cell_angle_gamma   90.00000000
_symmetry_Int_Tables_number   1
_chemical_formula_structural   KMg6W
_chemical_formula_sum   'K1 Mg6 W1'
_cell_volume   188.21780760
_cell_formula_units_Z   1
loop_
 _symmetry_equiv_pos_site_id
 _symmetry_equiv_pos_as_xyz
  1  'x, y, z'
loop_
 _atom_site_type_symbol
 _atom_site_label
 _atom_site_symmetry_multiplicity
 _atom_site_fract_x
 _atom_site_fract_y
 _atom_site_fract_z
 _atom_site_occupancy
  K  K0  1  0.00000000  0.00000000  0.00000000  1
  Mg  Mg0  1  0.00000000  0.50000000  0.00000000  1
  Mg  Mg1  1  0.50000000  0.00000000  0.00000000  1
  Mg  Mg2  1  0.71383500  0.28616500  0.50000000  1
  Mg  Mg3  1  0.28616500  0.71383500  0.50000000  1
  Mg  Mg4  1  0.71383500  0.71383500  0.50000000  1
  Mg  Mg5  1  0.28616500  0.28616500  0.50000000  1
  W  W0  1  0.50000000  0.50000000  0.00000000  1
loop_
_geom_bond_atom_site_label_1
_geom_bond_atom_site_label_2
_geom_bond_distance
_geom_bond_site_symmetry_2
K0 Mg0 3.276023 1_545
K0 Mg0 3.276023 1_555
K0 Mg1 3.276023 1_455
K0 Mg1 3.276023 1_555
K0 Mg2 3.440445 1_455
K0 Mg2 3.440445 1_454
K0 Mg4 3.440445 1_445
K0 Mg5 3.440445 1_555
K0 Mg3 3.440445 1_544
K0 Mg4 3.440445 1_444
K0 Mg5 3.440445 1_554
K0 Mg3 3.440445 1_545
Mg0 Mg4 3.206887 1_455
Mg0 Mg4 3.206887 1_454
Mg0 Mg5 3.206887 1_554
Mg0 Mg2 3.206887 1_455
Mg0 Mg2 3.206887 1_454
Mg0 Mg3 3.206887 1_554
Mg0 Mg5 3.206887 1_555
Mg0 Mg3 3.206887 1_555
Mg0 W0 3.276023 1_455
Mg0 W0 3.276023 1_555
Mg1 Mg5 3.206887 1_554
Mg1 Mg2 3.206887 1_554
Mg1 Mg3 3.206887 1_545
Mg1 Mg4 3.206887 1_545
Mg1 Mg4 3.206887 1_544
Mg1 Mg5 3.206887 1_555
Mg1 Mg2 3.206887 1_555
Mg1 Mg3 3.206887 1_544
Mg1 W0 3.276023 1_555
Mg1 W0 3.276023 1_545
Mg2 Mg4 2.802114 1_555
Mg2 Mg5 2.802114 1_555
Mg2 W0 2.954926 1_556
Mg2 W0 2.954926 1_555
Mg3 Mg4 2.802114 1_555
Mg3 Mg5 2.802114 1_555
Mg3 W0 2.954926 1_556
Mg3 W0 2.954926 1_555
Mg4 W0 2.954926 1_556
Mg4 W0 2.954926 1_555
Mg5 W0 2.954926 1_556
Mg5 W0 2.954926 1_555
