# generated using pymatgen
data_ZnMo2O5
_symmetry_space_group_name_H-M   'P 1'
_cell_length_a   3.77972600
_cell_length_b   5.55614156
_cell_length_c   12.31131300
_cell_angle_alpha   90.00000000
_cell_angle_beta   90.00000000
_cell_angle_gamma   109.88536009
_symmetry_Int_Tables_number   1
_chemical_formula_structural   ZnMo2O5
_chemical_formula_sum   'Zn2 Mo4 O10'
_cell_volume   243.13030764
_cell_formula_units_Z   2
loop_
 _symmetry_equiv_pos_site_id
 _symmetry_equiv_pos_as_xyz
  1  'x, y, z'
loop_
 _atom_site_type_symbol
 _atom_site_label
 _atom_site_symmetry_multiplicity
 _atom_site_fract_x
 _atom_site_fract_y
 _atom_site_fract_z
 _atom_site_occupancy
  Zn  Zn0  1  0.90281300  0.80562500  0.75000000  1
  Zn  Zn1  1  0.09718800  0.19437600  0.25000000  1
  Mo  Mo0  1  0.19995900  0.39991800  0.59992900  1
  Mo  Mo1  1  0.80004200  0.60008300  0.40007000  1
  Mo  Mo2  1  0.80004200  0.60008300  0.09993000  1
  Mo  Mo3  1  0.19995900  0.39991800  0.90007100  1
  O  O0  1  0.70388500  0.40777100  0.25000000  1
  O  O1  1  0.29611600  0.59223000  0.75000000  1
  O  O2  1  0.23161500  0.46323000  0.07505300  1
  O  O3  1  0.76838700  0.53677100  0.92494700  1
  O  O4  1  0.76838700  0.53677100  0.57505300  1
  O  O5  1  0.23161500  0.46323000  0.42494600  1
  O  O6  1  0.02823100  0.05646100  0.63168300  1
  O  O7  1  0.97176900  0.94353800  0.36831700  1
  O  O8  1  0.02823100  0.05646100  0.86831700  1
  O  O9  1  0.97176900  0.94353800  0.13168400  1
loop_
_geom_bond_atom_site_label_1
_geom_bond_atom_site_label_2
_geom_bond_distance
_geom_bond_site_symmetry_2
Mo0 O6 1.836602 1_555
Mo0 O4 2.043681 1_455
Mo0 O4 2.043692 1_555
Mo0 O1 2.103128 1_555
Mo0 O5 2.179520 1_555
Mo1 O7 1.836590 1_555
Mo1 O5 2.043684 1_655
Mo1 O5 2.043688 1_555
Mo1 O0 2.103117 1_555
Mo1 O4 2.179520 1_555
Mo2 O9 1.836592 1_555
Mo2 O2 2.043686 1_655
Mo2 O2 2.043690 1_555
Mo2 O0 2.103117 1_555
Mo2 O3 2.179520 1_554
Mo3 O8 1.836602 1_555
Mo3 O3 2.043681 1_455
Mo3 O3 2.043692 1_555
Mo3 O1 2.103128 1_555
Mo3 O2 2.179508 1_556
O0 Zn1 2.194244 1_555
O0 Zn1 2.194247 1_655
O1 Zn0 2.194244 1_555
O1 Zn0 2.194247 1_455
O2 Zn1 2.571424 1_555
O3 Zn0 2.571424 1_555
O4 Zn0 2.571424 1_555
O5 Zn1 2.571414 1_555
O6 Zn0 1.959444 1_445
O7 Zn1 1.959451 1_665
O8 Zn0 1.959444 1_445
O9 Zn1 1.959441 1_665
