# generated using pymatgen
data_Np(IO3)2
_symmetry_space_group_name_H-M   'P 1'
_cell_length_a   5.26737000
_cell_length_b   12.97554300
_cell_length_c   12.97554300
_cell_angle_alpha   90.00000000
_cell_angle_beta   90.00000000
_cell_angle_gamma   90.00000000
_symmetry_Int_Tables_number   1
_chemical_formula_structural   Np(IO3)2
_chemical_formula_sum   'Np4 I8 O24'
_cell_volume   886.83925488
_cell_formula_units_Z   4
loop_
 _symmetry_equiv_pos_site_id
 _symmetry_equiv_pos_as_xyz
  1  'x, y, z'
loop_
 _atom_site_type_symbol
 _atom_site_label
 _atom_site_symmetry_multiplicity
 _atom_site_fract_x
 _atom_site_fract_y
 _atom_site_fract_z
 _atom_site_occupancy
  Np  Np0  1  0.25000000  0.25000000  0.25000000  1
  Np  Np1  1  0.25000000  0.75000000  0.75000000  1
  Np  Np2  1  0.75000000  0.25000000  0.75000000  1
  Np  Np3  1  0.75000000  0.75000000  0.25000000  1
  I  I0  1  0.24609500  0.02094500  0.76355200  1
  I  I1  1  0.24609500  0.97905500  0.23644800  1
  I  I2  1  0.74609500  0.73644800  0.52094500  1
  I  I3  1  0.25390500  0.47905500  0.73644800  1
  I  I4  1  0.74609500  0.26355200  0.47905500  1
  I  I5  1  0.25390500  0.52094500  0.26355200  1
  I  I6  1  0.75390500  0.76355200  0.97905500  1
  I  I7  1  0.75390500  0.23644800  0.02094500  1
  O  O0  1  0.49771400  0.61550500  0.21668000  1
  O  O1  1  0.49771400  0.38449500  0.78332000  1
  O  O2  1  0.99771400  0.28332000  0.11550500  1
  O  O3  1  0.00228600  0.88449500  0.28332000  1
  O  O4  1  0.99771400  0.71668000  0.88449500  1
  O  O5  1  0.00228600  0.11550500  0.71668000  1
  O  O6  1  0.50228600  0.21668000  0.38449500  1
  O  O7  1  0.50228600  0.78332000  0.61550500  1
  O  O8  1  0.48342900  0.17872300  0.16520800  1
  O  O9  1  0.48342900  0.82127700  0.83479200  1
  O  O10  1  0.98342900  0.33479200  0.67872300  1
  O  O11  1  0.01657100  0.32127700  0.33479200  1
  O  O12  1  0.98342900  0.66520800  0.32127700  1
  O  O13  1  0.01657100  0.67872300  0.66520800  1
  O  O14  1  0.51657100  0.16520800  0.82127700  1
  O  O15  1  0.51657100  0.83479200  0.17872300  1
  O  O16  1  0.06216500  0.10315200  0.27741500  1
  O  O17  1  0.06216500  0.89684800  0.72258500  1
  O  O18  1  0.56216500  0.22258500  0.60315200  1
  O  O19  1  0.43783500  0.39684800  0.22258500  1
  O  O20  1  0.56216500  0.77741500  0.39684800  1
  O  O21  1  0.43783500  0.60315200  0.77741500  1
  O  O22  1  0.93783500  0.27741500  0.89684800  1
  O  O23  1  0.93783500  0.72258500  0.10315200  1
loop_
_geom_bond_atom_site_label_1
_geom_bond_atom_site_label_2
_geom_bond_distance
_geom_bond_site_symmetry_2
Np0 O11 1.891471 1_555
Np0 O8 1.891471 1_555
Np0 O19 2.176262 1_555
Np0 O16 2.176262 1_555
Np0 O6 2.235707 1_555
Np0 O2 2.235707 1_455
Np1 O9 1.891471 1_555
Np1 O13 1.891471 1_555
Np1 O17 2.176262 1_555
Np1 O21 2.176262 1_555
Np1 O4 2.235707 1_455
Np1 O7 2.235707 1_555
Np2 O10 1.891471 1_555
Np2 O14 1.891471 1_555
Np2 O18 2.176262 1_555
Np2 O22 2.176262 1_555
Np2 O1 2.235707 1_555
Np2 O5 2.235707 1_655
Np3 O12 1.891471 1_555
Np3 O15 1.891471 1_555
Np3 O20 2.176262 1_555
Np3 O23 2.176262 1_555
Np3 O0 2.235707 1_555
Np3 O3 2.235707 1_655
I0 O5 1.877391 1_555
I0 O17 1.952952 1_545
I0 O14 2.468756 1_555
I1 O3 1.877391 1_555
I1 O16 1.952952 1_565
I1 O15 2.468756 1_555
I2 O7 1.877391 1_555
I2 O20 1.952952 1_555
I2 O13 2.468756 1_655
I3 O1 1.877391 1_555
I3 O21 1.952952 1_555
I3 O10 2.468756 1_455
I4 O6 1.877391 1_555
I4 O18 1.952952 1_555
I4 O11 2.468756 1_655
I5 O0 1.877391 1_555
I5 O19 1.952952 1_555
I5 O12 2.468756 1_455
I6 O4 1.877391 1_555
I6 O23 1.952952 1_556
I6 O9 2.468756 1_555
I7 O2 1.877391 1_555
I7 O22 1.952952 1_554
I7 O8 2.468756 1_555
