# generated using pymatgen
data_Rb2MgNb2(TeO6)2
_symmetry_space_group_name_H-M   'P 1'
_cell_length_a   7.40846921
_cell_length_b   7.26149450
_cell_length_c   7.53483702
_cell_angle_alpha   90.00000000
_cell_angle_beta   60.98565416
_cell_angle_gamma   119.34588120
_symmetry_Int_Tables_number   1
_chemical_formula_structural   Rb2MgNb2(TeO6)2
_chemical_formula_sum   'Rb2 Mg1 Nb2 Te2 O12'
_cell_volume   293.58195110
_cell_formula_units_Z   1
loop_
 _symmetry_equiv_pos_site_id
 _symmetry_equiv_pos_as_xyz
  1  'x, y, z'
loop_
 _atom_site_type_symbol
 _atom_site_label
 _atom_site_symmetry_multiplicity
 _atom_site_fract_x
 _atom_site_fract_y
 _atom_site_fract_z
 _atom_site_occupancy
  Rb  Rb0  1  0.67068800  0.33534400  0.49116500  1
  Rb  Rb1  1  0.32931200  0.66465600  0.50883500  1
  Mg  Mg0  1  0.00000000  0.50000000  0.00000000  1
  Nb  Nb0  1  0.50000000  0.50000000  0.00000000  1
  Nb  Nb1  1  0.50000000  0.00000000  0.00000000  1
  Te  Te0  1  0.00000000  0.00000000  0.50000000  1
  Te  Te1  1  0.00000000  0.00000000  0.00000000  1
  O  O0  1  0.85161000  0.92580500  0.33138400  1
  O  O1  1  0.54220900  0.27110500  0.89992200  1
  O  O2  1  0.22762800  0.84012400  0.94352100  1
  O  O3  1  0.23792800  0.30691900  0.31410400  1
  O  O4  1  0.22762800  0.38750400  0.94352100  1
  O  O5  1  0.23792800  0.93100900  0.31410400  1
  O  O6  1  0.14839000  0.07419500  0.66861600  1
  O  O7  1  0.45779100  0.72889500  0.10007800  1
  O  O8  1  0.77237200  0.15987600  0.05647900  1
  O  O9  1  0.76207200  0.69308100  0.68589600  1
  O  O10  1  0.77237200  0.61249600  0.05647900  1
  O  O11  1  0.76207200  0.06899100  0.68589600  1
loop_
_geom_bond_atom_site_label_1
_geom_bond_atom_site_label_2
_geom_bond_distance
_geom_bond_site_symmetry_2
Mg0 O10 2.084792 1_455
Mg0 O2 2.084792 1_554
Mg0 O8 2.084792 1_455
Mg0 O4 2.084792 1_554
Nb0 O1 1.926071 1_554
Nb0 O7 1.926071 1_555
Nb0 O10 2.034087 1_555
Nb0 O4 2.034087 1_554
Nb0 O3 2.052091 1_555
Nb0 O9 2.052091 1_554
Nb1 O7 1.926078 1_545
Nb1 O1 1.926078 1_554
Nb1 O8 2.034087 1_555
Nb1 O2 2.034087 1_544
Nb1 O11 2.052091 1_554
Nb1 O5 2.052091 1_545
O0 Te0 1.971631 1_665
O0 Te1 2.118993 1_665
O0 Rb1 2.854012 1_555
O1 Rb0 2.707488 1_555
O2 Te1 2.365484 1_566
O3 Te0 1.946913 1_555
O3 Rb1 2.932425 1_555
O4 Te1 2.365484 1_556
O5 Te0 1.946913 1_565
O5 Rb1 2.932425 1_555
O6 Te0 1.971631 1_555
O6 Te1 2.118993 1_556
O6 Rb0 2.854012 1_555
O7 Rb1 2.707488 1_555
O8 Te1 2.365484 1_655
O9 Te0 1.946913 1_665
O9 Rb0 2.932425 1_555
O10 Te1 2.365484 1_665
O11 Te0 1.946913 1_655
O11 Rb0 2.932425 1_555
