# generated using pymatgen
data_Ca5Nb4(CoO9)2
_symmetry_space_group_name_H-M   'P 1'
_cell_length_a   5.47246600
_cell_length_b   9.62281700
_cell_length_c   16.71016040
_cell_angle_alpha   55.36311880
_cell_angle_beta   90.00000000
_cell_angle_gamma   90.00000000
_symmetry_Int_Tables_number   1
_chemical_formula_structural   Ca5Nb4(CoO9)2
_chemical_formula_sum   'Ca10 Nb8 Co4 O36'
_cell_volume   724.01026434
_cell_formula_units_Z   2
loop_
 _symmetry_equiv_pos_site_id
 _symmetry_equiv_pos_as_xyz
  1  'x, y, z'
loop_
 _atom_site_type_symbol
 _atom_site_label
 _atom_site_symmetry_multiplicity
 _atom_site_fract_x
 _atom_site_fract_y
 _atom_site_fract_z
 _atom_site_occupancy
  Ca  Ca0  1  0.73761500  0.45285100  0.40213500  1
  Ca  Ca1  1  0.26238500  0.45285100  0.90213500  1
  Ca  Ca2  1  0.22652200  0.87876200  0.43380800  1
  Ca  Ca3  1  0.75704100  0.55831700  0.59356600  1
  Ca  Ca4  1  0.74493900  0.78393900  0.73025300  1
  Ca  Ca5  1  0.24295900  0.55831700  0.09356600  1
  Ca  Ca6  1  0.73261800  0.12154200  0.06577400  1
  Ca  Ca7  1  0.77347800  0.87876200  0.93380800  1
  Ca  Ca8  1  0.26738200  0.12154200  0.56577400  1
  Ca  Ca9  1  0.25506100  0.78393900  0.23025300  1
  Nb  Nb0  1  0.26082900  0.84462500  0.83474800  1
  Nb  Nb1  1  0.25210900  0.67200000  0.66262200  1
  Nb  Nb2  1  0.23525600  0.17667700  0.16115200  1
  Nb  Nb3  1  0.73917100  0.84462500  0.33474800  1
  Nb  Nb4  1  0.23752600  0.32161900  0.33465600  1
  Nb  Nb5  1  0.76247400  0.32161900  0.83465600  1
  Nb  Nb6  1  0.76474400  0.17667700  0.66115200  1
  Nb  Nb7  1  0.74789100  0.67200000  0.16262200  1
  Co  Co0  1  0.74181500  0.01541700  0.49409900  1
  Co  Co1  1  0.25818500  0.01541700  0.99409900  1
  Co  Co2  1  0.75306600  0.50179000  0.99659000  1
  Co  Co3  1  0.24693400  0.50179000  0.49659000  1
  O  O0  1  0.06421500  0.11539900  0.42354100  1
  O  O1  1  0.96123300  0.32544200  0.10459600  1
  O  O2  1  0.54830100  0.20673100  0.42493300  1
  O  O3  1  0.04992700  0.78875700  0.08408500  1
  O  O4  1  0.05029600  0.65523400  0.94474300  1
  O  O5  1  0.83621900  0.73065600  0.25938600  1
  O  O6  1  0.95007300  0.78875700  0.58408500  1
  O  O7  1  0.16378100  0.73065600  0.75938600  1
  O  O8  1  0.15605300  0.06794000  0.09260000  1
  O  O9  1  0.83212300  0.40153100  0.92249600  1
  O  O10  1  0.45169900  0.20673100  0.92493300  1
  O  O11  1  0.45349300  0.67920300  0.38644800  1
  O  O12  1  0.53963000  0.00364000  0.21890300  1
  O  O13  1  0.34146800  0.92127300  0.91436800  1
  O  O14  1  0.45194600  0.87564100  0.58761700  1
  O  O15  1  0.46554000  0.53940700  0.25289600  1
  O  O16  1  0.54650700  0.67920300  0.88644800  1
  O  O17  1  0.33278000  0.60391300  0.57366100  1
  O  O18  1  0.05561300  0.97361100  0.28003700  1
  O  O19  1  0.54487300  0.34232600  0.55569500  1
  O  O20  1  0.94970400  0.65523400  0.44474300  1
  O  O21  1  0.03876700  0.32544200  0.60459600  1
  O  O22  1  0.32482100  0.26477200  0.24173400  1
  O  O23  1  0.97280100  0.46399500  0.25014000  1
  O  O24  1  0.02719900  0.46399500  0.75014000  1
  O  O25  1  0.54805400  0.87564100  0.08761700  1
  O  O26  1  0.65853200  0.92127300  0.41436800  1
  O  O27  1  0.45512700  0.34232600  0.05569500  1
  O  O28  1  0.94438700  0.97361100  0.78003700  1
  O  O29  1  0.84394700  0.06794000  0.59260000  1
  O  O30  1  0.16787700  0.40153100  0.42249600  1
  O  O31  1  0.46037000  0.00364000  0.71890300  1
  O  O32  1  0.53446000  0.53940700  0.75289600  1
  O  O33  1  0.67517900  0.26477200  0.74173400  1
  O  O34  1  0.66722000  0.60391300  0.07366100  1
  O  O35  1  0.93578500  0.11539900  0.92354100  1
loop_
_geom_bond_atom_site_label_1
_geom_bond_atom_site_label_2
_geom_bond_distance
_geom_bond_site_symmetry_2
Ca0 O30 2.390137 1_655
Ca0 O19 2.392869 1_555
Ca0 O2 2.408732 1_555
Ca0 O5 2.424618 1_555
Ca0 O11 2.565451 1_555
Ca0 O15 2.601642 1_555
Ca0 O20 2.687558 1_555
Ca0 O23 2.794508 1_555
Ca1 O9 2.390137 1_455
Ca1 O27 2.392869 1_556
Ca1 O10 2.408732 1_555
Ca1 O7 2.424618 1_555
Ca1 O16 2.565451 1_555
Ca1 O32 2.601642 1_555
Ca1 O4 2.687558 1_555
Ca1 O24 2.794508 1_555
Ca2 O0 2.357865 1_565
Ca2 O18 2.375792 1_555
Ca2 O26 2.389783 1_555
Ca2 O17 2.401781 1_555
Ca2 O20 2.551103 1_455
Ca2 O6 2.621532 1_455
Ca2 O11 2.753955 1_555
Ca2 O14 2.835627 1_555
Ca3 O17 2.351125 1_555
Ca3 O20 2.351473 1_555
Ca3 O6 2.378838 1_555
Ca3 O33 2.521858 1_555
Ca3 O21 2.638769 1_655
Ca3 O24 2.674981 1_655
Ca3 O19 2.750213 1_555
Ca3 O32 2.838064 1_555
Ca4 O7 2.338774 1_655
Ca4 O29 2.430508 1_565
Ca4 O32 2.448434 1_555
Ca4 O16 2.452965 1_555
Ca4 O31 2.544589 1_565
Ca4 O14 2.576747 1_555
Ca4 O28 2.634510 1_555
Ca4 O6 2.664468 1_555
Ca5 O34 2.351125 1_555
Ca5 O4 2.351473 1_554
Ca5 O3 2.378838 1_555
Ca5 O22 2.521858 1_555
Ca5 O1 2.638769 1_455
Ca5 O23 2.674981 1_455
Ca5 O27 2.750213 1_555
Ca5 O15 2.838064 1_555
Ca6 O8 2.360875 1_655
Ca6 O12 2.376976 1_555
Ca6 O25 2.402241 1_545
Ca6 O9 2.440310 1_554
Ca6 O10 2.526084 1_554
Ca6 O27 2.537993 1_555
Ca6 O35 2.654851 1_554
Ca6 O1 2.698662 1_555
Ca7 O35 2.357865 1_565
Ca7 O28 2.375792 1_555
Ca7 O13 2.389783 1_555
Ca7 O34 2.401781 1_556
Ca7 O4 2.551103 1_655
Ca7 O3 2.621532 1_656
Ca7 O16 2.753955 1_555
Ca7 O25 2.835627 1_556
Ca8 O29 2.360875 1_455
Ca8 O31 2.376976 1_555
Ca8 O14 2.402241 1_545
Ca8 O30 2.440310 1_555
Ca8 O2 2.526084 1_555
Ca8 O19 2.537993 1_555
Ca8 O0 2.654851 1_555
Ca8 O21 2.698662 1_555
Ca9 O5 2.338774 1_455
Ca9 O8 2.430508 1_565
Ca9 O15 2.448434 1_555
Ca9 O11 2.452965 1_555
Ca9 O12 2.544589 1_565
Ca9 O25 2.576747 1_555
Ca9 O18 2.634510 1_555
Ca9 O3 2.664468 1_555
Nb0 O13 1.903781 1_555
Nb0 O31 1.978378 1_565
Nb0 O28 2.021222 1_455
Nb0 O16 2.039879 1_555
Nb0 O4 2.054107 1_555
Nb0 O7 2.154212 1_555
Nb1 O14 1.953191 1_555
Nb1 O17 1.985237 1_555
Nb1 O6 2.010107 1_455
Nb1 O32 2.025614 1_555
Nb1 O7 2.050415 1_555
Nb1 O24 2.081468 1_555
Nb2 O1 1.911359 1_455
Nb2 O27 1.975074 1_555
Nb2 O8 1.989336 1_555
Nb2 O22 2.017330 1_555
Nb2 O18 2.078126 1_545
Nb2 O12 2.156785 1_555
Nb3 O26 1.903781 1_555
Nb3 O12 1.978378 1_565
Nb3 O18 2.021222 1_655
Nb3 O11 2.039879 1_555
Nb3 O20 2.054107 1_555
Nb3 O5 2.154212 1_555
Nb4 O0 1.921729 1_555
Nb4 O23 1.941860 1_455
Nb4 O22 1.975856 1_555
Nb4 O30 2.043079 1_555
Nb4 O2 2.120026 1_555
Nb4 O15 2.135624 1_555
Nb5 O35 1.921729 1_555
Nb5 O24 1.941860 1_655
Nb5 O33 1.975856 1_555
Nb5 O9 2.043079 1_555
Nb5 O10 2.120026 1_555
Nb5 O32 2.135624 1_555
Nb6 O21 1.911359 1_655
Nb6 O19 1.975074 1_555
Nb6 O29 1.989336 1_555
Nb6 O33 2.017330 1_555
Nb6 O28 2.078126 1_545
Nb6 O31 2.156785 1_555
Nb7 O25 1.953191 1_555
Nb7 O34 1.985237 1_555
Nb7 O3 2.010107 1_655
Nb7 O15 2.025614 1_555
Nb7 O5 2.050415 1_555
Nb7 O23 2.081468 1_555
Co0 O2 1.851426 1_555
Co0 O0 2.034486 1_655
Co0 O26 2.043414 1_545
Co0 O29 2.054922 1_555
Co0 O14 2.092411 1_545
Co0 O6 2.142193 1_545
Co1 O10 1.851426 1_555
Co1 O35 2.034486 1_455
Co1 O13 2.043414 1_545
Co1 O8 2.054922 1_556
Co1 O25 2.092411 1_546
Co1 O3 2.142193 1_546
Co2 O1 1.988276 1_556
Co2 O16 2.001992 1_555
Co2 O9 2.002190 1_555
Co2 O4 2.030374 1_655
Co2 O27 2.065366 1_556
Co2 O34 2.069710 1_556
Co3 O21 1.988276 1_555
Co3 O11 2.001992 1_555
Co3 O30 2.002190 1_555
Co3 O20 2.030374 1_455
Co3 O19 2.065366 1_555
Co3 O17 2.069710 1_555
