# generated using pymatgen
data_Ca4Ti3O10
_symmetry_space_group_name_H-M   'P 1'
_cell_length_a   5.44465100
_cell_length_b   5.52786100
_cell_length_c   27.17890800
_cell_angle_alpha   90.00000000
_cell_angle_beta   90.00000000
_cell_angle_gamma   90.00000000
_symmetry_Int_Tables_number   1
_chemical_formula_structural   Ca4Ti3O10
_chemical_formula_sum   'Ca16 Ti12 O40'
_cell_volume   818.01103896
_cell_formula_units_Z   4
loop_
 _symmetry_equiv_pos_site_id
 _symmetry_equiv_pos_as_xyz
  1  'x, y, z'
loop_
 _atom_site_type_symbol
 _atom_site_label
 _atom_site_symmetry_multiplicity
 _atom_site_fract_x
 _atom_site_fract_y
 _atom_site_fract_z
 _atom_site_occupancy
  Ca  Ca0  1  0.50553800  0.54023100  0.06939500  1
  Ca  Ca1  1  0.00553800  0.95976900  0.93060500  1
  Ca  Ca2  1  0.49446200  0.04023100  0.43060500  1
  Ca  Ca3  1  0.99446200  0.45976900  0.56939500  1
  Ca  Ca4  1  0.49446200  0.45976900  0.93060500  1
  Ca  Ca5  1  0.99446200  0.04023100  0.06939500  1
  Ca  Ca6  1  0.50553800  0.95976900  0.56939500  1
  Ca  Ca7  1  0.00553800  0.54023100  0.43060500  1
  Ca  Ca8  1  0.99292000  0.95407400  0.20518400  1
  Ca  Ca9  1  0.49292000  0.54592600  0.79481600  1
  Ca  Ca10  1  0.00708000  0.45407400  0.29481600  1
  Ca  Ca11  1  0.50708000  0.04592600  0.70518400  1
  Ca  Ca12  1  0.49292000  0.95407400  0.29481600  1
  Ca  Ca13  1  0.99292000  0.54592600  0.70518400  1
  Ca  Ca14  1  0.50708000  0.45407400  0.20518400  1
  Ca  Ca15  1  0.00708000  0.04592600  0.79481600  1
  Ti  Ti0  1  0.00000000  0.50000000  0.00000000  1
  Ti  Ti1  1  0.50000000  0.00000000  0.00000000  1
  Ti  Ti2  1  0.00000000  0.00000000  0.50000000  1
  Ti  Ti3  1  0.50000000  0.50000000  0.50000000  1
  Ti  Ti4  1  0.50171500  0.98671500  0.14256800  1
  Ti  Ti5  1  0.00171500  0.51328500  0.85743200  1
  Ti  Ti6  1  0.49828500  0.48671500  0.35743200  1
  Ti  Ti7  1  0.99828500  0.01328500  0.64256800  1
  Ti  Ti8  1  0.49828500  0.01328500  0.85743200  1
  Ti  Ti9  1  0.99828500  0.48671500  0.14256800  1
  Ti  Ti10  1  0.50171500  0.51328500  0.64256800  1
  Ti  Ti11  1  0.00171500  0.98671500  0.35743200  1
  O  O0  1  0.70971500  0.20989400  0.51110400  1
  O  O1  1  0.20971500  0.29010600  0.48889600  1
  O  O2  1  0.29028500  0.70989400  0.98889600  1
  O  O3  1  0.79028500  0.79010600  0.01110400  1
  O  O4  1  0.29028500  0.79010600  0.48889600  1
  O  O5  1  0.79028500  0.70989400  0.51110400  1
  O  O6  1  0.70971500  0.29010600  0.01110400  1
  O  O7  1  0.20971500  0.20989400  0.98889600  1
  O  O8  1  0.79102700  0.71350800  0.34784000  1
  O  O9  1  0.29102700  0.78649200  0.65216000  1
  O  O10  1  0.20897300  0.21350800  0.15216000  1
  O  O11  1  0.70897300  0.28649200  0.84784000  1
  O  O12  1  0.20897300  0.28649200  0.65216000  1
  O  O13  1  0.70897300  0.21350800  0.34784000  1
  O  O14  1  0.79102700  0.78649200  0.84784000  1
  O  O15  1  0.29102700  0.71350800  0.15216000  1
  O  O16  1  0.93132300  0.97685300  0.71249400  1
  O  O17  1  0.20990300  0.29562400  0.36940600  1
  O  O18  1  0.79009700  0.79562400  0.13059400  1
  O  O19  1  0.29009700  0.70437600  0.86940600  1
  O  O20  1  0.79009700  0.70437600  0.63059400  1
  O  O21  1  0.29009700  0.79562400  0.36940600  1
  O  O22  1  0.20990300  0.20437600  0.86940600  1
  O  O23  1  0.70990300  0.29562400  0.13059400  1
  O  O24  1  0.06867700  0.02314700  0.28750600  1
  O  O25  1  0.56867700  0.47685300  0.71249400  1
  O  O26  1  0.93132300  0.52314700  0.21249400  1
  O  O27  1  0.43132300  0.97685300  0.78750600  1
  O  O28  1  0.42448700  0.98201400  0.07056800  1
  O  O29  1  0.92448700  0.51798600  0.92943200  1
  O  O30  1  0.57551300  0.48201400  0.42943200  1
  O  O31  1  0.07551300  0.01798600  0.57056800  1
  O  O32  1  0.57551300  0.01798600  0.92943200  1
  O  O33  1  0.07551300  0.48201400  0.07056800  1
  O  O34  1  0.42448700  0.51798600  0.57056800  1
  O  O35  1  0.92448700  0.98201400  0.42943200  1
  O  O36  1  0.56867700  0.02314700  0.21249400  1
  O  O37  1  0.06867700  0.47685300  0.78750600  1
  O  O38  1  0.43132300  0.52314700  0.28750600  1
  O  O39  1  0.70990300  0.20437600  0.63059400  1
loop_
_geom_bond_atom_site_label_1
_geom_bond_atom_site_label_2
_geom_bond_distance
_geom_bond_site_symmetry_2
Ca0 O33 2.363564 1_555
Ca0 O6 2.378553 1_555
Ca0 O23 2.415171 1_555
Ca0 O28 2.481871 1_555
Ca0 O3 2.611792 1_555
Ca0 O2 2.653287 1_554
Ca0 O18 2.675848 1_555
Ca0 O15 2.709546 1_555
Ca1 O32 2.363564 1_465
Ca1 O7 2.378553 1_565
Ca1 O22 2.415171 1_565
Ca1 O29 2.481871 1_455
Ca1 O2 2.611792 1_555
Ca1 O3 2.653287 1_456
Ca1 O19 2.675848 1_555
Ca1 O14 2.709546 1_455
Ca2 O35 2.363564 1_545
Ca2 O4 2.378553 1_545
Ca2 O21 2.415171 1_545
Ca2 O30 2.481871 1_555
Ca2 O1 2.611792 1_555
Ca2 O0 2.653287 1_555
Ca2 O17 2.675848 1_555
Ca2 O13 2.709546 1_555
Ca3 O34 2.363564 1_655
Ca3 O5 2.378553 1_555
Ca3 O20 2.415171 1_555
Ca3 O31 2.481871 1_655
Ca3 O0 2.611792 1_555
Ca3 O1 2.653287 1_655
Ca3 O39 2.675848 1_555
Ca3 O12 2.709546 1_655
Ca4 O29 2.363564 1_555
Ca4 O2 2.378553 1_555
Ca4 O19 2.415171 1_555
Ca4 O32 2.481871 1_555
Ca4 O7 2.611792 1_555
Ca4 O6 2.653287 1_556
Ca4 O22 2.675848 1_555
Ca4 O11 2.709546 1_555
Ca5 O28 2.363564 1_645
Ca5 O3 2.378553 1_545
Ca5 O18 2.415171 1_545
Ca5 O33 2.481871 1_655
Ca5 O6 2.611792 1_555
Ca5 O7 2.653287 1_654
Ca5 O23 2.675848 1_555
Ca5 O10 2.709546 1_655
Ca6 O31 2.363564 1_565
Ca6 O0 2.378553 1_565
Ca6 O39 2.415171 1_565
Ca6 O34 2.481871 1_555
Ca6 O5 2.611792 1_555
Ca6 O4 2.653287 1_555
Ca6 O20 2.675848 1_555
Ca6 O9 2.709546 1_555
Ca7 O30 2.363564 1_455
Ca7 O1 2.378553 1_555
Ca7 O17 2.415171 1_555
Ca7 O35 2.481871 1_455
Ca7 O4 2.611792 1_555
Ca7 O5 2.653287 1_455
Ca7 O21 2.675848 1_555
Ca7 O8 2.709546 1_455
Ca8 O24 2.306942 1_665
Ca8 O10 2.348896 1_665
Ca8 O36 2.349616 1_565
Ca8 O26 2.413788 1_555
Ca8 O18 2.469110 1_555
Ca8 O15 2.545524 1_655
Ca9 O25 2.306942 1_555
Ca9 O11 2.348896 1_555
Ca9 O37 2.349616 1_555
Ca9 O27 2.413788 1_555
Ca9 O19 2.469110 1_555
Ca9 O14 2.545524 1_555
Ca10 O26 2.306942 1_455
Ca10 O8 2.348896 1_455
Ca10 O38 2.349616 1_555
Ca10 O24 2.413788 1_555
Ca10 O17 2.469110 1_555
Ca10 O13 2.545524 1_455
Ca11 O27 2.306942 1_545
Ca11 O9 2.348896 1_545
Ca11 O16 2.349616 1_545
Ca11 O25 2.413788 1_555
Ca11 O39 2.469110 1_555
Ca11 O12 2.545524 1_555
Ca12 O36 2.306942 1_565
Ca12 O13 2.348896 1_565
Ca12 O24 2.349616 1_565
Ca12 O38 2.413788 1_555
Ca12 O21 2.469110 1_555
Ca12 O8 2.545524 1_555
Ca13 O37 2.306942 1_655
Ca13 O12 2.348896 1_655
Ca13 O25 2.349616 1_555
Ca13 O16 2.413788 1_555
Ca13 O20 2.469110 1_555
Ca13 O9 2.545524 1_655
Ca14 O38 2.306942 1_555
Ca14 O15 2.348896 1_555
Ca14 O26 2.349616 1_555
Ca14 O36 2.413788 1_555
Ca14 O23 2.469110 1_555
Ca14 O10 2.545524 1_555
Ca15 O16 2.306942 1_445
Ca15 O14 2.348896 1_445
Ca15 O27 2.349616 1_545
Ca15 O37 2.413788 1_555
Ca15 O22 2.469110 1_555
Ca15 O11 2.545524 1_455
O0 Ti2 1.983753 1_655
O0 Ti3 1.991629 1_555
O1 Ti3 1.983753 1_555
O1 Ti2 1.991629 1_555
O2 Ti0 1.983753 1_556
O2 Ti1 1.991629 1_566
O3 Ti1 1.983753 1_565
O3 Ti0 1.991629 1_655
O4 Ti2 1.983753 1_565
O4 Ti3 1.991629 1_555
O5 Ti3 1.983753 1_555
O5 Ti2 1.991629 1_665
O6 Ti0 1.983753 1_655
O6 Ti1 1.991629 1_555
O7 Ti1 1.983753 1_556
O7 Ti0 1.991629 1_556
O8 Ti11 1.914343 1_655
O8 Ti6 2.044536 1_555
O9 Ti10 1.914343 1_555
O9 Ti7 2.044536 1_465
O10 Ti9 1.914343 1_455
O10 Ti4 2.044536 1_545
O11 Ti8 1.914343 1_555
O11 Ti5 2.044536 1_655
O12 Ti7 1.914343 1_455
O12 Ti10 2.044536 1_555
O13 Ti6 1.914343 1_555
O13 Ti11 2.044536 1_645
O14 Ti5 1.914343 1_655
O14 Ti8 2.044536 1_565
O15 Ti4 1.914343 1_555
O15 Ti9 2.044536 1_455
O16 Ti7 1.945617 1_565
O17 Ti6 1.920175 1_555
O17 Ti11 2.075253 1_545
O18 Ti4 1.920175 1_555
O18 Ti9 2.075253 1_555
O19 Ti5 1.920175 1_555
O19 Ti8 2.075253 1_565
O20 Ti10 1.920175 1_555
O20 Ti7 2.075253 1_565
O21 Ti11 1.920175 1_555
O21 Ti6 2.075253 1_555
O22 Ti8 1.920175 1_555
O22 Ti5 2.075253 1_555
O23 Ti9 1.920175 1_555
O23 Ti4 2.075253 1_545
O24 Ti11 1.945617 1_545
O25 Ti10 1.945617 1_555
O26 Ti9 1.945617 1_555
O27 Ti8 1.945617 1_565
O28 Ti1 1.964051 1_565
O28 Ti4 2.001715 1_555
O29 Ti0 1.964051 1_656
O29 Ti5 2.001715 1_655
O30 Ti3 1.964051 1_555
O30 Ti6 2.001715 1_555
O31 Ti2 1.964051 1_555
O31 Ti7 2.001715 1_455
O32 Ti1 1.964051 1_556
O32 Ti8 2.001715 1_555
O33 Ti0 1.964051 1_555
O33 Ti9 2.001715 1_455
O34 Ti3 1.964051 1_555
O34 Ti10 2.001715 1_555
O35 Ti2 1.964051 1_665
O35 Ti11 2.001715 1_655
O36 Ti4 1.945617 1_545
O37 Ti5 1.945617 1_555
O38 Ti6 1.945617 1_555
O39 Ti7 1.920175 1_555
O39 Ti10 2.075253 1_555
