# generated using pymatgen
data_Li2VCoO4
_symmetry_space_group_name_H-M   'P 1'
_cell_length_a   5.16447800
_cell_length_b   5.94329772
_cell_length_c   7.81510770
_cell_angle_alpha   100.94930916
_cell_angle_beta   109.18874164
_cell_angle_gamma   90.10881128
_symmetry_Int_Tables_number   1
_chemical_formula_structural   Li2VCoO4
_chemical_formula_sum   'Li6 V3 Co3 O12'
_cell_volume   221.88969160
_cell_formula_units_Z   3
loop_
 _symmetry_equiv_pos_site_id
 _symmetry_equiv_pos_as_xyz
  1  'x, y, z'
loop_
 _atom_site_type_symbol
 _atom_site_label
 _atom_site_symmetry_multiplicity
 _atom_site_fract_x
 _atom_site_fract_y
 _atom_site_fract_z
 _atom_site_occupancy
  Li  Li0  1  0.99870800  0.49626800  0.99947000  1
  Li  Li1  1  0.99848600  0.66173900  0.66366900  1
  Li  Li2  1  0.99971600  0.00252000  0.00129400  1
  Li  Li3  1  0.00232800  0.34135000  0.33276800  1
  Li  Li4  1  0.99992400  0.82990600  0.33273800  1
  Li  Li5  1  0.00319100  0.17372700  0.67039900  1
  V  V0  1  0.49413300  0.74078300  0.00216300  1
  V  V1  1  0.50059400  0.09356600  0.33475500  1
  V  V2  1  0.50799800  0.91019800  0.66733400  1
  Co  Co0  1  0.49338400  0.25190600  0.00075500  1
  Co  Co1  1  0.50059800  0.58460400  0.33247900  1
  Co  Co2  1  0.50268700  0.41545400  0.66550200  1
  O  O0  1  0.72102400  0.03021400  0.17447600  1
  O  O1  1  0.73452400  0.55870500  0.15056500  1
  O  O2  1  0.73144200  0.88675600  0.50252500  1
  O  O3  1  0.74062800  0.36190300  0.48786200  1
  O  O4  1  0.73015500  0.71974700  0.83570100  1
  O  O5  1  0.72194200  0.18412600  0.81970700  1
  O  O6  1  0.26030800  0.28534600  0.17699800  1
  O  O7  1  0.27044500  0.80353500  0.16544700  1
  O  O8  1  0.27302900  0.64890800  0.51564200  1
  O  O9  1  0.27552600  0.10681200  0.49048900  1
  O  O10  1  0.25978300  0.47173700  0.83873800  1
  O  O11  1  0.27945000  0.94019200  0.83852500  1
loop_
_geom_bond_atom_site_label_1
_geom_bond_atom_site_label_2
_geom_bond_distance
_geom_bond_site_symmetry_2
Li0 O1 2.070770 1_556
Li0 O10 2.112256 1_655
Li0 O6 2.180952 1_656
Li0 O4 2.193552 1_555
Li0 O7 2.209235 1_656
Li0 O5 2.266747 1_555
Li1 O10 2.084985 1_655
Li1 O8 2.097525 1_655
Li1 O11 2.130723 1_655
Li1 O3 2.166763 1_555
Li1 O2 2.186681 1_555
Li1 O4 2.212983 1_555
Li2 O7 2.098281 1_645
Li2 O4 2.101868 1_544
Li2 O6 2.102862 1_655
Li2 O5 2.118093 1_554
Li2 O11 2.207606 1_644
Li2 O0 2.264349 1_555
Li3 O6 2.069254 1_555
Li3 O3 2.081340 1_455
Li3 O9 2.229351 1_555
Li3 O0 2.236015 1_455
Li3 O1 2.240576 1_455
Li3 O8 2.241149 1_555
Li4 O9 2.078721 1_665
Li4 O1 2.083435 1_555
Li4 O0 2.101540 1_565
Li4 O8 2.110531 1_655
Li4 O7 2.193045 1_655
Li4 O2 2.199618 1_555
Li5 O3 2.113006 1_455
Li5 O2 2.128450 1_445
Li5 O5 2.135938 1_455
Li5 O10 2.140967 1_555
Li5 O11 2.270775 1_545
Li5 O9 2.280975 1_555
Co0 O6 2.091014 1_555
Co0 O10 2.096650 1_554
Co0 O11 2.106995 1_544
Co0 O5 2.107301 1_554
Co0 O1 2.113853 1_555
Co0 O0 2.144193 1_555
Co1 O6 2.087875 1_555
Co1 O3 2.095330 1_555
Co1 O7 2.107372 1_555
Co1 O2 2.110925 1_555
Co1 O8 2.115688 1_555
Co1 O1 2.133307 1_555
Co2 O5 2.088785 1_555
Co2 O8 2.100936 1_555
Co2 O10 2.112944 1_555
Co2 O4 2.114451 1_555
Co2 O3 2.119843 1_555
Co2 O9 2.143788 1_555
O0 V1 1.940767 1_555
O0 V0 2.054404 1_545
O1 V0 1.895466 1_555
O2 V2 1.979771 1_555
O2 V1 2.059474 1_565
O3 V1 1.950482 1_555
O4 V2 1.976674 1_555
O4 V0 2.043282 1_556
O5 V2 1.918629 1_545
O6 V1 1.972967 1_555
O7 V0 1.972802 1_555
O7 V1 2.055908 1_565
O8 V2 1.907182 1_555
O9 V1 1.931958 1_555
O9 V2 2.060358 1_545
O10 V0 1.963056 1_556
O11 V0 1.979388 1_556
O11 V2 2.040377 1_555
