# generated using pymatgen
data_Ba2LiMn2(P2O7)2
_symmetry_space_group_name_H-M   'P 1'
_cell_length_a   5.48626335
_cell_length_b   7.96738820
_cell_length_c   7.65023389
_cell_angle_alpha   101.71994544
_cell_angle_beta   92.17607751
_cell_angle_gamma   92.94509027
_symmetry_Int_Tables_number   1
_chemical_formula_structural   Ba2LiMn2(P2O7)2
_chemical_formula_sum   'Ba2 Li1 Mn2 P4 O14'
_cell_volume   326.59592441
_cell_formula_units_Z   1
loop_
 _symmetry_equiv_pos_site_id
 _symmetry_equiv_pos_as_xyz
  1  'x, y, z'
loop_
 _atom_site_type_symbol
 _atom_site_label
 _atom_site_symmetry_multiplicity
 _atom_site_fract_x
 _atom_site_fract_y
 _atom_site_fract_z
 _atom_site_occupancy
  Ba  Ba0  1  0.20276400  0.77334300  0.95733300  1
  Ba  Ba1  1  0.80967500  0.20633500  0.07853300  1
  Li  Li0  1  0.86003200  0.19840100  0.65458600  1
  Mn  Mn0  1  0.22766800  0.60070800  0.42845300  1
  Mn  Mn1  1  0.66118400  0.45911300  0.55477200  1
  P  P0  1  0.70692100  0.73365300  0.22568700  1
  P  P1  1  0.31585200  0.25155400  0.79035900  1
  P  P2  1  0.71615800  0.83073900  0.61730400  1
  P  P3  1  0.26745700  0.18280400  0.39372400  1
  O  O0  1  0.54143000  0.23662800  0.38209500  1
  O  O1  1  0.44970300  0.77283200  0.64184800  1
  O  O2  1  0.81076100  0.99388100  0.74482800  1
  O  O3  1  0.17684400  0.02829000  0.25426500  1
  O  O4  1  0.09782100  0.33415500  0.39470200  1
  O  O5  1  0.88842800  0.68056100  0.62461100  1
  O  O6  1  0.73312900  0.87141700  0.41880900  1
  O  O7  1  0.24230600  0.13084600  0.58885100  1
  O  O8  1  0.10495900  0.37112900  0.82391700  1
  O  O9  1  0.91870500  0.61421100  0.22194900  1
  O  O10  1  0.56928400  0.34161100  0.77536100  1
  O  O11  1  0.45380500  0.63829200  0.21703300  1
  O  O12  1  0.32774800  0.13045000  0.92036900  1
  O  O13  1  0.71736800  0.84225900  0.08227900  1
loop_
_geom_bond_atom_site_label_1
_geom_bond_atom_site_label_2
_geom_bond_distance
_geom_bond_site_symmetry_2
Ba0 O3 2.736068 1_566
Ba0 O11 2.795510 1_556
Ba0 O1 2.811665 1_555
Ba0 O13 2.904674 1_456
Ba0 O13 2.934020 1_556
Ba0 O5 2.961546 1_455
Ba0 O12 2.964200 1_565
Ba0 O9 3.035377 1_456
Ba0 O8 3.170494 1_555
Ba1 O2 2.762120 1_544
Ba1 O0 2.772282 1_555
Ba1 O4 2.816044 1_655
Ba1 O12 2.848830 1_554
Ba1 O13 2.924973 1_545
Ba1 O3 2.956378 1_655
Ba1 O8 3.033580 1_654
Ba1 O10 3.034740 1_554
Ba1 O12 3.169979 1_654
Ba1 O9 3.228636 1_555
Li0 O2 1.905479 1_545
Li0 O8 2.081147 1_655
Li0 O10 2.137911 1_555
Li0 O7 2.242143 1_655
Mn0 O11 2.134448 1_555
Mn0 O4 2.166144 1_555
Mn0 O1 2.190312 1_555
Mn0 O9 2.294555 1_455
Mn0 O5 2.463039 1_455
Mn1 O0 2.045003 1_555
Mn1 O5 2.071995 1_555
Mn1 O10 2.153239 1_555
O0 P3 1.552581 1_555
O1 P2 1.540076 1_555
O2 P2 1.512524 1_555
O3 P3 1.504721 1_555
O4 P3 1.559651 1_555
O5 P2 1.570801 1_555
O6 P2 1.620872 1_555
O6 P0 1.648357 1_555
O7 P3 1.636945 1_555
O7 P1 1.665768 1_555
O8 P1 1.532544 1_555
O9 P0 1.536732 1_555
O10 P1 1.550562 1_555
O11 P0 1.540841 1_555
O12 P1 1.521814 1_555
O13 P0 1.530042 1_555
