# generated using pymatgen
data_SrCaInBiO6
_symmetry_space_group_name_H-M   'P 1'
_cell_length_a   5.95389060
_cell_length_b   5.95389060
_cell_length_c   5.95389060
_cell_angle_alpha   60.00000000
_cell_angle_beta   60.00000000
_cell_angle_gamma   60.00000000
_symmetry_Int_Tables_number   1
_chemical_formula_structural   SrCaInBiO6
_chemical_formula_sum   'Sr1 Ca1 In1 Bi1 O6'
_cell_volume   149.24079510
_cell_formula_units_Z   1
loop_
 _symmetry_equiv_pos_site_id
 _symmetry_equiv_pos_as_xyz
  1  'x, y, z'
loop_
 _atom_site_type_symbol
 _atom_site_label
 _atom_site_symmetry_multiplicity
 _atom_site_fract_x
 _atom_site_fract_y
 _atom_site_fract_z
 _atom_site_occupancy
  Sr  Sr0  1  0.25000000  0.25000000  0.25000000  1
  Ca  Ca0  1  0.75000000  0.75000000  0.75000000  1
  In  In0  1  0.50000000  0.50000000  0.50000000  1
  Bi  Bi0  1  0.00000000  0.00000000  0.00000000  1
  O  O0  1  0.75147395  0.24852605  0.24852605  1
  O  O1  1  0.24852605  0.75147395  0.75147395  1
  O  O2  1  0.75147395  0.24852605  0.75147395  1
  O  O3  1  0.24852605  0.75147395  0.24852605  1
  O  O4  1  0.75147395  0.75147395  0.24852605  1
  O  O5  1  0.24852605  0.24852605  0.75147395  1
loop_
_geom_bond_atom_site_label_1
_geom_bond_atom_site_label_2
_geom_bond_distance
_geom_bond_site_symmetry_2
Ca0 O2 2.976971 1_555
Ca0 O2 2.976971 1_565
Ca0 O1 2.976971 1_555
Ca0 O3 2.976971 1_655
Ca0 O4 2.976971 1_555
Ca0 O4 2.976971 1_556
Ca0 O0 2.976971 1_565
Ca0 O5 2.976971 1_655
Ca0 O5 2.976971 1_565
Ca0 O1 2.976971 1_655
Ca0 O3 2.976971 1_556
Ca0 O0 2.976971 1_556
In0 O5 2.117429 1_555
In0 O3 2.117429 1_555
In0 O0 2.117429 1_555
In0 O4 2.117429 1_555
In0 O1 2.117429 1_555
In0 O2 2.117429 1_555
Bi0 O4 2.092607 1_445
Bi0 O2 2.092607 1_454
Bi0 O1 2.092607 1_544
Bi0 O5 2.092607 1_554
Bi0 O0 2.092607 1_455
Bi0 O3 2.092607 1_545
O0 Sr0 2.976971 1_555
O0 Sr0 2.976971 1_655
O1 Sr0 2.976971 1_556
O1 Sr0 2.976971 1_565
O2 Sr0 2.976971 1_556
O2 Sr0 2.976971 1_655
O3 Sr0 2.976971 1_565
O3 Sr0 2.976971 1_555
O4 Sr0 2.976971 1_565
O4 Sr0 2.976971 1_655
O5 Sr0 2.976971 1_556
O5 Sr0 2.976971 1_555
