# generated using pymatgen
data_Yb2ZnSn
_symmetry_space_group_name_H-M   'P 1'
_cell_length_a   5.29169582
_cell_length_b   5.29169582
_cell_length_c   5.29169582
_cell_angle_alpha   60.00000000
_cell_angle_beta   60.00000000
_cell_angle_gamma   60.00000000
_symmetry_Int_Tables_number   1
_chemical_formula_structural   Yb2ZnSn
_chemical_formula_sum   'Yb2 Zn1 Sn1'
_cell_volume   104.77788276
_cell_formula_units_Z   1
loop_
 _symmetry_equiv_pos_site_id
 _symmetry_equiv_pos_as_xyz
  1  'x, y, z'
loop_
 _atom_site_type_symbol
 _atom_site_label
 _atom_site_symmetry_multiplicity
 _atom_site_fract_x
 _atom_site_fract_y
 _atom_site_fract_z
 _atom_site_occupancy
  Yb  Yb0  1  0.25000000  0.25000000  0.25000000  1
  Yb  Yb1  1  0.75000000  0.75000000  0.75000000  1
  Zn  Zn0  1  0.00000000  0.00000000  0.00000000  1
  Sn  Sn0  1  0.50000000  0.50000000  0.50000000  1
loop_
_geom_bond_atom_site_label_1
_geom_bond_atom_site_label_2
_geom_bond_distance
_geom_bond_site_symmetry_2
Yb0 Zn0 3.240489 1_655
Yb0 Zn0 3.240489 1_555
Yb0 Zn0 3.240489 1_556
Yb0 Zn0 3.240489 1_565
Yb1 Zn0 3.240489 1_566
Yb1 Zn0 3.240489 1_656
Yb1 Zn0 3.240489 1_665
Yb1 Zn0 3.240489 1_666
Sn0 Yb1 3.240489 1_455
Sn0 Yb0 3.240489 1_655
Sn0 Yb0 3.240489 1_565
Sn0 Yb0 3.240489 1_555
Sn0 Yb0 3.240489 1_556
Sn0 Yb1 3.240489 1_545
Sn0 Yb1 3.240489 1_555
Sn0 Yb1 3.240489 1_554
