# generated using pymatgen
data_BaSrCeTiO6
_symmetry_space_group_name_H-M   'P 1'
_cell_length_a   5.91412638
_cell_length_b   5.89702861
_cell_length_c   8.32126938
_cell_angle_alpha   90.32425025
_cell_angle_beta   90.26270933
_cell_angle_gamma   89.87943421
_symmetry_Int_Tables_number   1
_chemical_formula_structural   BaSrCeTiO6
_chemical_formula_sum   'Ba2 Sr2 Ce2 Ti2 O12'
_cell_volume   290.20237292
_cell_formula_units_Z   2
loop_
 _symmetry_equiv_pos_site_id
 _symmetry_equiv_pos_as_xyz
  1  'x, y, z'
loop_
 _atom_site_type_symbol
 _atom_site_label
 _atom_site_symmetry_multiplicity
 _atom_site_fract_x
 _atom_site_fract_y
 _atom_site_fract_z
 _atom_site_occupancy
  Ba  Ba0  1  0.50363609  0.50908230  0.24943186  1
  Ba  Ba1  1  0.49636391  0.49091770  0.75056814  1
  Sr  Sr0  1  0.99762927  0.01771091  0.25181264  1
  Sr  Sr1  1  0.00237073  0.98228909  0.74818736  1
  Ce  Ce0  1  0.00000000  0.50000000  0.00000000  1
  Ce  Ce1  1  0.50000000  -0.00000000  0.50000000  1
  Ti  Ti0  1  0.50000000  -0.00000000  0.00000000  1
  Ti  Ti1  1  0.00000000  0.50000000  0.50000000  1
  O  O0  1  0.24690113  0.21642191  0.96289058  1
  O  O1  1  0.25117559  0.71885528  0.51798457  1
  O  O2  1  0.75309887  0.78357809  0.03710942  1
  O  O3  1  0.74882441  0.28114472  0.48201543  1
  O  O4  1  0.27835497  0.75146898  0.97896317  1
  O  O5  1  0.21028872  0.23993586  0.53505372  1
  O  O6  1  0.72164503  0.24853102  0.02103683  1
  O  O7  1  0.78971128  0.76006414  0.46494628  1
  O  O8  1  0.43861874  0.01239180  0.23470404  1
  O  O9  1  0.04395942  0.47111702  0.26538934  1
  O  O10  1  0.56138126  0.98760820  0.76529596  1
  O  O11  1  0.95604058  0.52888298  0.73461066  1
loop_
_geom_bond_atom_site_label_1
_geom_bond_atom_site_label_2
_geom_bond_distance
_geom_bond_site_symmetry_2
Ba0 O9 2.732155 1_555
Ba0 O6 2.759758 1_555
Ba0 O3 2.765992 1_555
Ba0 O2 2.825734 1_555
Ba0 O7 2.867369 1_555
Ba0 O8 2.956713 1_555
Ba0 O1 2.957191 1_555
Ba0 O4 2.980687 1_554
Ba0 O8 2.995157 1_565
Ba0 O9 3.205100 1_655
Ba0 O0 3.301584 1_554
Ba0 O5 3.357070 1_555
Ba1 O11 2.732155 1_555
Ba1 O4 2.759758 1_555
Ba1 O1 2.765992 1_555
Ba1 O0 2.825734 1_555
Ba1 O5 2.867369 1_555
Ba1 O10 2.956713 1_555
Ba1 O3 2.957191 1_555
Ba1 O6 2.980687 1_556
Ba1 O10 2.995157 1_545
Ba1 O11 3.205100 1_455
Ba1 O2 3.301584 1_556
Ba1 O7 3.357070 1_555
Ce0 O6 2.226120 1_455
Ce0 O4 2.226120 1_554
Ce0 O11 2.229873 1_454
Ce0 O9 2.229873 1_555
Ce0 O0 2.238760 1_554
Ce0 O2 2.238760 1_455
Ce1 O1 2.225248 1_545
Ce1 O3 2.225248 1_555
Ce1 O8 2.237181 1_555
Ce1 O10 2.237181 1_545
Ce1 O7 2.238853 1_545
Ce1 O5 2.238853 1_555
O0 Ti0 1.989203 1_556
O0 Sr1 2.673292 1_545
O0 Sr0 3.065664 1_456
O1 Ti1 1.974472 1_555
O1 Sr1 2.868882 1_555
O1 Sr0 3.203554 1_465
O2 Ti0 1.989203 1_565
O2 Sr0 2.673292 1_565
O2 Sr1 3.065664 1_654
O3 Ti1 1.974472 1_655
O3 Sr0 2.868882 1_555
O3 Sr1 3.203554 1_645
O4 Ti0 1.974837 1_566
O4 Sr1 2.862876 1_555
O4 Sr0 3.218640 1_466
O5 Ti1 1.994358 1_555
O5 Sr1 2.650337 1_545
O5 Sr0 2.966313 1_455
O6 Ti0 1.974837 1_555
O6 Sr0 2.862876 1_555
O6 Sr1 3.218640 1_644
O7 Ti1 1.994358 1_655
O7 Sr0 2.650337 1_565
O7 Sr1 2.966313 1_655
O8 Ti0 1.989031 1_555
O8 Sr0 2.612715 1_455
O8 Sr0 3.308678 1_555
O9 Ti1 1.977023 1_555
O9 Sr0 2.690010 1_455
O9 Sr0 3.236896 1_465
O10 Ti0 1.989031 1_566
O10 Sr1 2.612715 1_655
O10 Sr1 3.308678 1_555
O11 Ti1 1.977023 1_655
O11 Sr1 2.690010 1_655
O11 Sr1 3.236896 1_645
