# generated using pymatgen
data_Ba2MgMo4(Se2O11)2
_symmetry_space_group_name_H-M   'P 1'
_cell_length_a   8.23566220
_cell_length_b   8.05142763
_cell_length_c   9.01266178
_cell_angle_alpha   115.63261311
_cell_angle_beta   90.48264734
_cell_angle_gamma   89.43940716
_symmetry_Int_Tables_number   1
_chemical_formula_structural   Ba2MgMo4(Se2O11)2
_chemical_formula_sum   'Ba2 Mg1 Mo4 Se4 O22'
_cell_volume   538.77369052
_cell_formula_units_Z   1
loop_
 _symmetry_equiv_pos_site_id
 _symmetry_equiv_pos_as_xyz
  1  'x, y, z'
loop_
 _atom_site_type_symbol
 _atom_site_label
 _atom_site_symmetry_multiplicity
 _atom_site_fract_x
 _atom_site_fract_y
 _atom_site_fract_z
 _atom_site_occupancy
  Ba  Ba0  1  0.64583600  0.22124400  0.98779400  1
  Ba  Ba1  1  0.15988000  0.75960200  0.99404300  1
  Mg  Mg0  1  0.88381500  0.61983100  0.24979600  1
  Mo  Mo0  1  0.65177300  0.86781200  0.23213400  1
  Mo  Mo1  1  0.16056600  0.14915300  0.78531800  1
  Mo  Mo2  1  0.66074900  0.62903600  0.79081300  1
  Mo  Mo3  1  0.17740600  0.35976900  0.21841600  1
  Se  Se0  1  0.80560200  0.30574000  0.41695000  1
  Se  Se1  1  0.29988400  0.12098600  0.42249100  1
  Se  Se2  1  0.80218000  0.89133000  0.59157900  1
  Se  Se3  1  0.31743400  0.71316500  0.58687100  1
  O  O0  1  0.10381200  0.55744600  0.17409200  1
  O  O1  1  0.58969700  0.81227600  0.99794600  1
  O  O2  1  0.39774100  0.92318000  0.28001100  1
  O  O3  1  0.66311300  0.86868700  0.72240200  1
  O  O4  1  0.40437700  0.63957500  0.72419400  1
  O  O5  1  0.87190800  0.85692000  0.20688700  1
  O  O6  1  0.38276500  0.31891900  0.17119800  1
  O  O7  1  0.89618300  0.38856600  0.28594600  1
  O  O8  1  0.17763900  0.02629600  0.52118600  1
  O  O9  1  0.89753300  0.08799700  0.72460500  1
  O  O10  1  0.62929000  0.42852800  0.81592000  1
  O  O11  1  0.68227800  0.49385400  0.52959000  1
  O  O12  1  0.66713600  0.16068100  0.27618800  1
  O  O13  1  0.64577300  0.62150300  0.20335600  1
  O  O14  1  0.37206600  0.14495800  0.80930100  1
  O  O15  1  0.09566400  0.16830800  0.99213500  1
  O  O16  1  0.15600200  0.13538000  0.28514400  1
  O  O17  1  0.16148600  0.84405200  0.71313900  1
  O  O18  1  0.67418100  0.98133700  0.48886900  1
  O  O19  1  0.87058200  0.66160700  0.82584300  1
  O  O20  1  0.20393100  0.51702600  0.46918800  1
  O  O21  1  0.12818200  0.37367500  0.80665300  1
loop_
_geom_bond_atom_site_label_1
_geom_bond_atom_site_label_2
_geom_bond_distance
_geom_bond_site_symmetry_2
Ba0 O6 2.635722 1_556
Ba0 O14 2.675787 1_555
Ba0 O10 2.726202 1_555
Ba0 O3 2.814684 1_545
Ba0 O12 2.848084 1_556
Ba0 O13 2.956852 1_556
Ba0 O9 2.985291 1_555
Ba0 O7 3.180484 1_556
Ba0 O1 3.369818 1_545
Ba1 O19 2.745589 1_455
Ba1 O0 2.794310 1_556
Ba1 O21 2.836127 1_555
Ba1 O17 2.891723 1_555
Ba1 O5 2.942498 1_456
Ba1 O4 2.985685 1_555
Ba1 O16 3.028194 1_566
Ba1 O2 3.040271 1_556
Ba1 O15 3.335151 1_565
Mg0 O0 1.925363 1_655
Mg0 O13 2.002298 1_555
Mg0 O7 2.025890 1_555
Mg0 O5 2.106536 1_555
Mo0 O5 1.825611 1_555
Mo0 O13 1.886593 1_555
Mo0 O1 2.021367 1_554
Mo0 O18 2.095171 1_555
Mo0 O2 2.142994 1_555
Mo0 O12 2.220100 1_565
Mo1 O21 1.751186 1_555
Mo1 O14 1.755192 1_555
Mo1 O15 1.884232 1_555
Mo1 O8 2.151919 1_555
Mo1 O9 2.236582 1_455
Mo1 O17 2.252720 1_545
Mo2 O10 1.746359 1_555
Mo2 O19 1.755809 1_555
Mo2 O1 1.903326 1_555
Mo2 O11 2.131922 1_555
Mo2 O4 2.201112 1_555
Mo2 O3 2.265806 1_555
Mo3 O6 1.740633 1_555
Mo3 O0 1.893992 1_555
Mo3 O15 2.065387 1_554
Mo3 O20 2.068866 1_555
Mo3 O16 2.145882 1_555
Mo3 O7 2.383160 1_455
O2 Se1 1.748657 1_565
O3 Se2 1.716966 1_555
O4 Se3 1.734001 1_555
O7 Se0 1.760983 1_555
O8 Se1 1.732882 1_555
O9 Se2 1.710954 1_545
O11 Se0 1.735823 1_555
O12 Se0 1.730222 1_555
O16 Se1 1.745449 1_555
O17 Se3 1.736569 1_555
O18 Se2 1.744228 1_555
O20 Se3 1.748037 1_555
