# generated using pymatgen
data_Sr5P3O14
_symmetry_space_group_name_H-M   'P 1'
_cell_length_a   9.90910331
_cell_length_b   9.90910331
_cell_length_c   7.31231400
_cell_angle_alpha   90.00000000
_cell_angle_beta   90.00000000
_cell_angle_gamma   119.99999542
_symmetry_Int_Tables_number   1
_chemical_formula_structural   Sr5P3O14
_chemical_formula_sum   'Sr10 P6 O28'
_cell_volume   621.80498137
_cell_formula_units_Z   2
loop_
 _symmetry_equiv_pos_site_id
 _symmetry_equiv_pos_as_xyz
  1  'x, y, z'
loop_
 _atom_site_type_symbol
 _atom_site_label
 _atom_site_symmetry_multiplicity
 _atom_site_fract_x
 _atom_site_fract_y
 _atom_site_fract_z
 _atom_site_occupancy
  Sr  Sr0  1  0.66666700  0.33333300  0.00020300  1
  Sr  Sr1  1  0.33333300  0.66666700  0.99979700  1
  Sr  Sr2  1  0.33333300  0.66666700  0.50020300  1
  Sr  Sr3  1  0.66666700  0.33333300  0.49979700  1
  Sr  Sr4  1  0.75538300  0.00861100  0.75000000  1
  Sr  Sr5  1  0.24461700  0.99138900  0.25000000  1
  Sr  Sr6  1  0.25322800  0.24461700  0.75000000  1
  Sr  Sr7  1  0.74677200  0.75538300  0.25000000  1
  Sr  Sr8  1  0.99138900  0.74677200  0.75000000  1
  Sr  Sr9  1  0.00861100  0.25322800  0.25000000  1
  P  P0  1  0.60030200  0.63053900  0.75000000  1
  P  P1  1  0.39969800  0.36946100  0.25000000  1
  P  P2  1  0.03023700  0.39969800  0.75000000  1
  P  P3  1  0.96976300  0.60030200  0.25000000  1
  P  P4  1  0.36946100  0.96976300  0.75000000  1
  P  P5  1  0.63053900  0.03023700  0.25000000  1
  O  O0  1  0.65364000  0.73703100  0.92220300  1
  O  O1  1  0.34636000  0.26296900  0.07779700  1
  O  O2  1  0.08339100  0.34636000  0.92220300  1
  O  O3  1  0.34636000  0.26296900  0.42220300  1
  O  O4  1  0.91660900  0.65364000  0.07779700  1
  O  O5  1  0.65364000  0.73703100  0.57779700  1
  O  O6  1  0.26296900  0.91660900  0.92220300  1
  O  O7  1  0.91660900  0.65364000  0.42220300  1
  O  O8  1  0.73703100  0.08339100  0.07779700  1
  O  O9  1  0.08339100  0.34636000  0.57779700  1
  O  O10  1  0.73703100  0.08339100  0.42220300  1
  O  O11  1  0.26296900  0.91660900  0.57779700  1
  O  O12  1  0.41815400  0.53552400  0.75000000  1
  O  O13  1  0.58184600  0.46447600  0.25000000  1
  O  O14  1  0.11737000  0.58184600  0.75000000  1
  O  O15  1  0.88263000  0.41815400  0.25000000  1
  O  O16  1  0.46447600  0.88263000  0.75000000  1
  O  O17  1  0.53552400  0.11737000  0.25000000  1
  O  O18  1  0.00000000  0.00000000  0.90790000  1
  O  O19  1  0.00000000  0.00000000  0.09210000  1
  O  O20  1  0.00000000  0.00000000  0.40790000  1
  O  O21  1  0.00000000  0.00000000  0.59210000  1
  O  O22  1  0.85033800  0.33007200  0.75000000  1
  O  O23  1  0.14966200  0.66992800  0.25000000  1
  O  O24  1  0.47973400  0.14966200  0.75000000  1
  O  O25  1  0.52026600  0.85033800  0.25000000  1
  O  O26  1  0.66992800  0.52026600  0.75000000  1
  O  O27  1  0.33007200  0.47973400  0.25000000  1
loop_
_geom_bond_atom_site_label_1
_geom_bond_atom_site_label_2
_geom_bond_distance
_geom_bond_site_symmetry_2
O0 P0 1.555873 1_555
O0 Sr7 2.542105 1_556
O0 Sr4 2.670390 1_565
O0 Sr1 2.944326 1_555
O1 P1 1.555873 1_555
O1 Sr6 2.542105 1_554
O1 Sr5 2.670390 1_545
O1 Sr0 2.944326 1_555
O2 P2 1.555873 1_555
O2 Sr9 2.542105 1_556
O2 Sr6 2.670390 1_555
O2 Sr1 2.944323 1_555
O3 P1 1.555873 1_555
O3 Sr6 2.542105 1_555
O3 Sr5 2.670390 1_545
O3 Sr3 2.944326 1_555
O4 P3 1.555873 1_555
O4 Sr8 2.542105 1_554
O4 Sr7 2.670390 1_555
O4 Sr0 2.944323 1_555
O5 P0 1.555873 1_555
O5 Sr7 2.542105 1_555
O5 Sr4 2.670390 1_565
O5 Sr2 2.944326 1_555
O6 P4 1.555873 1_555
O6 Sr5 2.542105 1_556
O6 Sr8 2.670391 1_455
O6 Sr1 2.944316 1_555
O7 P3 1.555873 1_555
O7 Sr8 2.542105 1_555
O7 Sr7 2.670390 1_555
O7 Sr3 2.944323 1_555
O8 P5 1.555873 1_555
O8 Sr4 2.542105 1_554
O8 Sr9 2.670391 1_655
O8 Sr0 2.944316 1_555
O9 P2 1.555873 1_555
O9 Sr9 2.542105 1_555
O9 Sr6 2.670390 1_555
O9 Sr2 2.944323 1_555
O10 P5 1.555873 1_555
O10 Sr4 2.542105 1_555
O10 Sr9 2.670391 1_655
O10 Sr3 2.944316 1_555
O11 P4 1.555873 1_555
O11 Sr5 2.542105 1_555
O11 Sr8 2.670391 1_455
O11 Sr2 2.944316 1_555
O12 P0 1.563597 1_555
O12 Sr6 2.503875 1_555
O12 Sr2 2.612250 1_555
O12 Sr1 2.612250 1_555
O13 P1 1.563597 1_555
O13 Sr7 2.503875 1_555
O13 Sr3 2.612250 1_555
O13 Sr0 2.612250 1_555
O14 P2 1.563597 1_555
O14 Sr8 2.503874 1_455
O14 Sr2 2.612243 1_555
O14 Sr1 2.612243 1_555
O15 P3 1.563597 1_555
O15 Sr9 2.503874 1_655
O15 Sr0 2.612243 1_555
O15 Sr3 2.612243 1_555
O16 P4 1.563597 1_555
O16 Sr4 2.503875 1_565
O16 Sr2 2.612244 1_555
O16 Sr1 2.612244 1_555
O17 P5 1.563597 1_555
O17 Sr5 2.503875 1_545
O17 Sr3 2.612244 1_555
O17 Sr0 2.612244 1_555
O18 O19 1.346928 1_556
O18 Sr4 2.724464 1_455
O18 Sr8 2.724464 1_445
O18 Sr6 2.724464 1_555
O19 Sr5 2.724464 1_545
O19 Sr9 2.724464 1_555
O19 Sr7 2.724464 1_445
O20 O21 1.346928 1_555
O20 Sr5 2.724464 1_545
O20 Sr9 2.724464 1_555
O20 Sr7 2.724464 1_445
O21 Sr4 2.724464 1_455
O21 Sr8 2.724464 1_445
O21 Sr6 2.724464 1_555
O22 P2 1.556890 1_655
O22 Sr3 2.592221 1_555
O22 Sr0 2.592221 1_556
O22 Sr4 2.834580 1_555
O23 P3 1.556890 1_455
O23 Sr2 2.592221 1_555
O23 Sr1 2.592221 1_554
O23 Sr5 2.834580 1_555
O24 P4 1.556890 1_545
O24 Sr0 2.592225 1_556
O24 Sr3 2.592225 1_555
O24 Sr6 2.834580 1_555
O25 P5 1.556890 1_565
O25 Sr1 2.592225 1_554
O25 Sr2 2.592225 1_555
O25 Sr7 2.834580 1_555
O26 P0 1.556890 1_555
O26 Sr0 2.592228 1_556
O26 Sr3 2.592228 1_555
O26 Sr8 2.834580 1_555
O27 P1 1.556890 1_555
O27 Sr2 2.592228 1_555
O27 Sr1 2.592228 1_554
O27 Sr9 2.834580 1_555
