# generated using pymatgen
data_CsZn2B3O7
_symmetry_space_group_name_H-M   'P 1'
_cell_length_a   10.52196517
_cell_length_b   10.52196517
_cell_length_c   14.59351609
_cell_angle_alpha   90.00000000
_cell_angle_beta   90.00000000
_cell_angle_gamma   132.69345204
_symmetry_Int_Tables_number   1
_chemical_formula_structural   CsZn2B3O7
_chemical_formula_sum   'Cs6 Zn12 B18 O42'
_cell_volume   1187.50740988
_cell_formula_units_Z   6
loop_
 _symmetry_equiv_pos_site_id
 _symmetry_equiv_pos_as_xyz
  1  'x, y, z'
loop_
 _atom_site_type_symbol
 _atom_site_label
 _atom_site_symmetry_multiplicity
 _atom_site_fract_x
 _atom_site_fract_y
 _atom_site_fract_z
 _atom_site_occupancy
  Cs  Cs0  1  0.39089826  0.60910174  0.79869568  1
  Cs  Cs1  1  0.60910174  0.39089826  0.29869568  1
  Cs  Cs2  1  0.38814288  0.61185712  0.15602480  1
  Cs  Cs3  1  0.61185712  0.38814288  0.65602480  1
  Cs  Cs4  1  0.99704820  0.00295180  0.22948415  1
  Cs  Cs5  1  0.00295180  0.99704820  0.72948415  1
  Zn  Zn0  1  0.62305686  0.00469133  0.98441624  1
  Zn  Zn1  1  0.99530867  0.37694314  0.98441624  1
  Zn  Zn2  1  0.37694314  0.99530867  0.48441624  1
  Zn  Zn3  1  0.00469133  0.62305686  0.48441624  1
  Zn  Zn4  1  0.40083623  0.98106833  0.82358979  1
  Zn  Zn5  1  0.01893167  0.59916377  0.82358979  1
  Zn  Zn6  1  0.59916377  0.01893167  0.32358979  1
  Zn  Zn7  1  0.98106833  0.40083623  0.32358979  1
  Zn  Zn8  1  0.01731946  0.60519695  0.14575286  1
  Zn  Zn9  1  0.39480305  0.98268054  0.14575286  1
  Zn  Zn10  1  0.98268054  0.39480305  0.64575286  1
  Zn  Zn11  1  0.60519695  0.01731946  0.64575286  1
  B  B0  1  0.24711747  0.75288253  0.98436580  1
  B  B1  1  0.75288253  0.24711747  0.48436580  1
  B  B2  1  0.70278549  0.76896795  0.97812765  1
  B  B3  1  0.23103205  0.29721451  0.97812765  1
  B  B4  1  0.29721451  0.23103205  0.47812765  1
  B  B5  1  0.76896795  0.70278549  0.47812765  1
  B  B6  1  0.82596359  0.67265057  0.06416734  1
  B  B7  1  0.32734943  0.17403641  0.06416734  1
  B  B8  1  0.17403641  0.32734943  0.56416734  1
  B  B9  1  0.67265057  0.82596359  0.56416734  1
  B  B10  1  0.22489967  0.77510033  0.65064331  1
  B  B11  1  0.77510033  0.22489967  0.15064331  1
  B  B12  1  0.82367781  0.66649477  0.89643628  1
  B  B13  1  0.33350523  0.17632219  0.89643628  1
  B  B14  1  0.17632219  0.33350523  0.39643628  1
  B  B15  1  0.66649477  0.82367781  0.39643628  1
  B  B16  1  0.22463445  0.77536555  0.31446859  1
  B  B17  1  0.77536555  0.22463445  0.81446859  1
  O  O0  1  0.87275306  0.65459084  0.14443755  1
  O  O1  1  0.34540916  0.12724694  0.14443755  1
  O  O2  1  0.12724694  0.34540916  0.64443755  1
  O  O3  1  0.65459084  0.87275306  0.64443755  1
  O  O4  1  0.74694573  0.73905332  0.06109393  1
  O  O5  1  0.26094668  0.25305427  0.06109393  1
  O  O6  1  0.25305427  0.26094668  0.56109393  1
  O  O7  1  0.73905332  0.74694573  0.56109393  1
  O  O8  1  0.61979321  0.82195761  0.97642181  1
  O  O9  1  0.17804239  0.38020679  0.97642181  1
  O  O10  1  0.38020679  0.17804239  0.47642181  1
  O  O11  1  0.82195761  0.61979321  0.47642181  1
  O  O12  1  0.22773430  0.77226570  0.22013178  1
  O  O13  1  0.77226570  0.22773430  0.72013178  1
  O  O14  1  0.08104616  0.63361960  0.35983340  1
  O  O15  1  0.36638040  0.91895384  0.35983340  1
  O  O16  1  0.91895384  0.36638040  0.85983340  1
  O  O17  1  0.63361960  0.08104616  0.85983340  1
  O  O18  1  0.39307391  0.88742137  0.03090962  1
  O  O19  1  0.11257863  0.60692609  0.03090962  1
  O  O20  1  0.60692609  0.11257863  0.53090962  1
  O  O21  1  0.88742137  0.39307391  0.53090962  1
  O  O22  1  0.23852113  0.76147887  0.89049978  1
  O  O23  1  0.76147887  0.23852113  0.39049978  1
  O  O24  1  0.74396923  0.73215804  0.89665634  1
  O  O25  1  0.26784196  0.25603077  0.89665634  1
  O  O26  1  0.25603077  0.26784196  0.39665634  1
  O  O27  1  0.73215804  0.74396923  0.39665634  1
  O  O28  1  0.37694977  0.90564747  0.69539735  1
  O  O29  1  0.09435253  0.62305023  0.69539735  1
  O  O30  1  0.62305023  0.09435253  0.19539635  1
  O  O31  1  0.90564747  0.37694977  0.19539635  1
  O  O32  1  0.20384726  0.79615274  0.56040836  1
  O  O33  1  0.79615274  0.20384726  0.06040836  1
  O  O34  1  0.85595010  0.63221062  0.98104303  1
  O  O35  1  0.36778938  0.14404990  0.98104303  1
  O  O36  1  0.14404990  0.36778938  0.48104303  1
  O  O37  1  0.63221062  0.85595010  0.48104303  1
  O  O38  1  0.87034825  0.64392583  0.81773469  1
  O  O39  1  0.35607417  0.12965175  0.81773469  1
  O  O40  1  0.12965175  0.35607417  0.31773469  1
  O  O41  1  0.64392583  0.87034825  0.31773469  1
loop_
_geom_bond_atom_site_label_1
_geom_bond_atom_site_label_2
_geom_bond_distance
_geom_bond_site_symmetry_2
Cs0 O3 3.165985 1_555
Cs0 O2 3.165985 1_555
Cs0 O8 3.198195 1_555
Cs0 O9 3.198195 1_555
Cs0 O22 3.228345 1_555
Cs0 O25 3.316345 1_555
Cs0 O24 3.316345 1_555
Cs1 O0 3.165985 1_555
Cs1 O1 3.165985 1_555
Cs1 O11 3.198195 1_555
Cs1 O10 3.198195 1_555
Cs1 O23 3.228345 1_555
Cs1 O27 3.316345 1_555
Cs1 O26 3.316345 1_555
Cs2 O40 3.206709 1_555
Cs2 O41 3.206709 1_555
Cs2 O8 3.223434 1_554
Cs2 O9 3.223434 1_554
Cs2 O12 3.230474 1_555
Cs2 O4 3.333347 1_555
Cs2 O5 3.333347 1_555
Cs2 O18 3.396976 1_555
Cs2 O19 3.396976 1_555
Cs3 O38 3.206709 1_555
Cs3 O39 3.206709 1_555
Cs3 O10 3.223434 1_555
Cs3 O11 3.223434 1_555
Cs3 O13 3.230474 1_555
Cs3 O7 3.333347 1_555
Cs3 O6 3.333347 1_555
Cs3 O21 3.396976 1_555
Cs3 O20 3.396976 1_555
Cs4 O0 3.191426 1_545
Cs4 O1 3.191426 1_655
Cs4 O41 3.221829 1_545
Cs4 O40 3.221829 1_655
Cs4 O4 3.280948 1_545
Cs4 O5 3.280948 1_655
Cs4 O27 3.293283 1_545
Cs4 O26 3.293283 1_655
Cs5 O3 3.191426 1_455
Cs5 O2 3.191426 1_565
Cs5 O38 3.221829 1_455
Cs5 O39 3.221829 1_565
Cs5 O7 3.280948 1_455
Cs5 O6 3.280948 1_565
Cs5 O24 3.293283 1_455
Cs5 O25 3.293283 1_565
B0 O18 1.369504 1_556
B0 O19 1.369504 1_556
B0 O22 1.379821 1_555
B1 O21 1.369504 1_555
B1 O20 1.369504 1_555
B1 O23 1.379821 1_555
B2 O8 1.316937 1_555
B2 O24 1.406772 1_555
B2 O4 1.406870 1_556
B3 O9 1.316937 1_555
B3 O25 1.406772 1_555
B3 O5 1.406870 1_556
B4 O10 1.316937 1_555
B4 O26 1.406772 1_555
B4 O6 1.406870 1_555
B5 O11 1.316937 1_555
B5 O27 1.406772 1_555
B5 O7 1.406870 1_555
B6 O0 1.333263 1_555
B6 O34 1.390766 1_554
B6 O4 1.403294 1_555
B7 O1 1.333263 1_555
B7 O35 1.390766 1_554
B7 O5 1.403294 1_555
B8 O2 1.333263 1_555
B8 O36 1.390766 1_555
B8 O6 1.403294 1_555
B9 O3 1.333263 1_555
B9 O37 1.390766 1_555
B9 O7 1.403294 1_555
B10 O29 1.375745 1_555
B10 O28 1.375745 1_555
B10 O32 1.377955 1_555
B11 O30 1.375738 1_555
B11 O31 1.375738 1_555
B11 O33 1.377955 1_555
B12 O38 1.332220 1_555
B12 O34 1.391426 1_555
B12 O24 1.402354 1_555
B13 O39 1.332220 1_555
B13 O35 1.391426 1_555
B13 O25 1.402354 1_555
B14 O40 1.332220 1_555
B14 O36 1.391426 1_555
B14 O26 1.402354 1_555
B15 O41 1.332220 1_555
B15 O37 1.391426 1_555
B15 O27 1.402354 1_555
B16 O15 1.374577 1_555
B16 O14 1.374577 1_555
B16 O12 1.378002 1_555
B17 O16 1.374577 1_555
B17 O17 1.374577 1_555
B17 O13 1.378002 1_555
O0 Zn8 1.912174 1_655
O1 Zn9 1.912174 1_545
O2 Zn10 1.912174 1_455
O3 Zn11 1.912174 1_565
O8 Zn0 1.903180 1_565
O9 Zn1 1.903180 1_455
O10 Zn2 1.903180 1_545
O11 Zn3 1.903180 1_655
O12 Zn8 1.972823 1_555
O12 Zn9 1.972823 1_555
O13 Zn11 1.972823 1_555
O13 Zn10 1.972823 1_555
O14 Zn3 1.960156 1_555
O14 Zn7 1.972654 1_455
O15 Zn2 1.960156 1_555
O15 Zn6 1.972654 1_565
O16 Zn1 1.960156 1_555
O16 Zn5 1.972654 1_655
O17 Zn0 1.960156 1_555
O17 Zn4 1.972654 1_545
O18 Zn9 1.946560 1_555
O18 Zn0 1.946623 1_564
O19 Zn8 1.946560 1_555
O19 Zn1 1.946623 1_454
O20 Zn11 1.946560 1_555
O20 Zn2 1.946623 1_545
O21 Zn10 1.946560 1_555
O21 Zn3 1.946623 1_655
O22 Zn4 1.964001 1_555
O22 Zn5 1.964001 1_555
O23 Zn6 1.964001 1_555
O23 Zn7 1.964001 1_555
O28 Zn11 1.961202 1_565
O28 Zn4 1.980469 1_555
O29 Zn10 1.961202 1_455
O29 Zn5 1.980469 1_555
O30 Zn9 1.961197 1_545
O30 Zn6 1.980482 1_555
O31 Zn8 1.961197 1_655
O31 Zn7 1.980482 1_555
O32 Zn2 1.939677 1_555
O32 Zn3 1.939677 1_555
O33 Zn1 1.939677 1_554
O33 Zn0 1.939677 1_554
O38 Zn5 1.916219 1_655
O39 Zn4 1.916219 1_545
O40 Zn7 1.916219 1_455
O41 Zn6 1.916219 1_565
