# generated using pymatgen
data_NaAgI2O3
_symmetry_space_group_name_H-M   'P 1'
_cell_length_a   8.85471862
_cell_length_b   8.02051412
_cell_length_c   21.32143598
_cell_angle_alpha   90.00000000
_cell_angle_beta   90.00000000
_cell_angle_gamma   90.00000000
_symmetry_Int_Tables_number   1
_chemical_formula_structural   NaAgI2O3
_chemical_formula_sum   'Na8 Ag8 I16 O24'
_cell_volume   1514.23549919
_cell_formula_units_Z   8
loop_
 _symmetry_equiv_pos_site_id
 _symmetry_equiv_pos_as_xyz
  1  'x, y, z'
loop_
 _atom_site_type_symbol
 _atom_site_label
 _atom_site_symmetry_multiplicity
 _atom_site_fract_x
 _atom_site_fract_y
 _atom_site_fract_z
 _atom_site_occupancy
  Na  Na0  1  0.60654224  0.17453584  0.38619587  1
  Na  Na1  1  0.10654224  0.82546416  0.11380413  1
  Na  Na2  1  0.39345776  0.32546416  0.88619587  1
  Na  Na3  1  0.89345776  0.67453584  0.61380413  1
  Na  Na4  1  0.39345776  0.82546416  0.61380413  1
  Na  Na5  1  0.89345776  0.17453584  0.88619587  1
  Na  Na6  1  0.60654224  0.67453584  0.11380413  1
  Na  Na7  1  0.10654224  0.32546416  0.38619587  1
  Ag  Ag0  1  0.42139690  0.10486582  0.23449790  1
  Ag  Ag1  1  0.92139690  0.89513418  0.26550210  1
  Ag  Ag2  1  0.57860310  0.39513418  0.73449790  1
  Ag  Ag3  1  0.07860310  0.60486582  0.76550210  1
  Ag  Ag4  1  0.57860310  0.89513418  0.76550210  1
  Ag  Ag5  1  0.07860310  0.10486582  0.73449790  1
  Ag  Ag6  1  0.42139690  0.60486582  0.26550210  1
  Ag  Ag7  1  0.92139690  0.39513418  0.23449790  1
  I  I0  1  0.61674698  0.37327301  0.21112056  1
  I  I1  1  0.11674698  0.62672699  0.28887944  1
  I  I2  1  0.38325302  0.12672699  0.71112056  1
  I  I3  1  0.88325302  0.87327301  0.78887944  1
  I  I4  1  0.38325302  0.62672699  0.78887944  1
  I  I5  1  0.88325302  0.37327301  0.71112056  1
  I  I6  1  0.61674698  0.87327301  0.28887944  1
  I  I7  1  0.11674698  0.12672699  0.21112056  1
  I  I8  1  0.71960089  0.08436949  0.01218750  1
  I  I9  1  0.21960089  0.91563051  0.48781250  1
  I  I10  1  0.28039911  0.41563051  0.51218750  1
  I  I11  1  0.78039911  0.58436949  0.98781250  1
  I  I12  1  0.28039911  0.91563051  0.98781250  1
  I  I13  1  0.78039911  0.08436949  0.51218750  1
  I  I14  1  0.71960089  0.58436949  0.48781250  1
  I  I15  1  0.21960089  0.41563051  0.01218750  1
  O  O0  1  0.86330059  0.31145030  0.43822506  1
  O  O1  1  0.36330059  0.68854970  0.06177494  1
  O  O2  1  0.13669941  0.18854970  0.93822506  1
  O  O3  1  0.63669941  0.81145030  0.56177494  1
  O  O4  1  0.13669941  0.68854970  0.56177494  1
  O  O5  1  0.63669941  0.31145030  0.93822506  1
  O  O6  1  0.86330059  0.81145030  0.06177494  1
  O  O7  1  0.36330059  0.18854970  0.43822506  1
  O  O8  1  0.74154911  0.96334604  0.43817957  1
  O  O9  1  0.24154911  0.03665396  0.06182043  1
  O  O10  1  0.25845089  0.53665396  0.93817957  1
  O  O11  1  0.75845089  0.46334604  0.56182043  1
  O  O12  1  0.25845089  0.03665396  0.56182043  1
  O  O13  1  0.75845089  0.96334604  0.93817957  1
  O  O14  1  0.74154911  0.46334604  0.06182043  1
  O  O15  1  0.24154911  0.53665396  0.43817957  1
  O  O16  1  0.85550056  0.25140883  0.37824892  1
  O  O17  1  0.35550056  0.74859117  0.12175108  1
  O  O18  1  0.14449944  0.24859117  0.87824892  1
  O  O19  1  0.64449944  0.75140883  0.62175108  1
  O  O20  1  0.14449944  0.74859117  0.62175108  1
  O  O21  1  0.64449944  0.25140883  0.87824892  1
  O  O22  1  0.85550056  0.75140883  0.12175108  1
  O  O23  1  0.35550056  0.24859117  0.37824892  1
loop_
_geom_bond_atom_site_label_1
_geom_bond_atom_site_label_2
_geom_bond_distance
_geom_bond_site_symmetry_2
Na0 O16 2.295318 1_555
Na0 O23 2.307119 1_555
Na0 O8 2.350894 1_545
Na0 O7 2.425340 1_555
Na0 O0 2.757791 1_555
Na1 O17 2.295318 1_555
Na1 O22 2.307119 1_455
Na1 O9 2.350894 1_565
Na1 O6 2.425340 1_455
Na1 O1 2.757791 1_555
Na2 O18 2.295318 1_555
Na2 O21 2.307119 1_555
Na2 O10 2.350894 1_555
Na2 O5 2.425340 1_555
Na2 O2 2.757791 1_555
Na3 O19 2.295318 1_555
Na3 O20 2.307119 1_655
Na3 O11 2.350894 1_555
Na3 O4 2.425340 1_655
Na3 O3 2.757791 1_555
Na4 O20 2.295318 1_555
Na4 O19 2.307119 1_555
Na4 O12 2.350894 1_565
Na4 O3 2.425340 1_555
Na4 O4 2.757791 1_555
Na5 O21 2.295318 1_555
Na5 O18 2.307119 1_655
Na5 O13 2.350894 1_545
Na5 O2 2.425340 1_655
Na5 O5 2.757791 1_555
Na6 O22 2.295318 1_555
Na6 O17 2.307119 1_555
Na6 O14 2.350894 1_555
Na6 O1 2.425340 1_555
Na6 O6 2.757791 1_555
Na7 O23 2.295318 1_555
Na7 O16 2.307119 1_455
Na7 O15 2.350894 1_555
Na7 O0 2.425340 1_455
Na7 O7 2.757791 1_555
Ag0 I7 2.748849 1_555
Ag0 I6 2.790485 1_545
Ag0 I0 2.806232 1_555
Ag1 I6 2.748849 1_555
Ag1 I7 2.790485 1_665
Ag1 I1 2.806232 1_655
Ag2 I5 2.748849 1_555
Ag2 I4 2.790485 1_555
Ag2 I2 2.806232 1_555
Ag3 I4 2.748849 1_555
Ag3 I5 2.790485 1_455
Ag3 I3 2.806232 1_455
Ag4 I3 2.748849 1_555
Ag4 I2 2.790485 1_565
Ag4 I4 2.806232 1_555
Ag5 I2 2.748849 1_555
Ag5 I3 2.790485 1_445
Ag5 I5 2.806232 1_455
Ag6 I1 2.748849 1_555
Ag6 I0 2.790485 1_555
Ag6 I6 2.806232 1_555
Ag7 I0 2.748849 1_555
Ag7 I1 2.790485 1_655
Ag7 I7 2.806232 1_655
I0 Na6 3.186205 1_555
I1 Na7 3.186205 1_555
I2 Na4 3.186205 1_545
I3 Na5 3.186205 1_565
I4 Na2 3.186205 1_555
I5 Na3 3.186205 1_555
I6 Na0 3.186205 1_565
I7 Na1 3.186205 1_545
I8 O13 1.884273 1_544
I8 O5 2.518510 1_554
I8 O6 2.743792 1_545
I9 O12 1.884273 1_565
I9 O4 2.518510 1_555
I9 O7 2.743792 1_565
I10 O15 1.884273 1_555
I10 O7 2.518510 1_555
I10 O4 2.743792 1_555
I11 O14 1.884273 1_556
I11 O6 2.518510 1_556
I11 O5 2.743792 1_555
I12 O9 1.884273 1_566
I12 O1 2.518510 1_556
I12 O2 2.743792 1_565
I13 O8 1.884273 1_545
I13 O0 2.518510 1_555
I13 O3 2.743792 1_545
I14 O11 1.884273 1_555
I14 O3 2.518510 1_555
I14 O0 2.743792 1_555
I15 O10 1.884273 1_554
I15 O2 2.518510 1_554
I15 O1 2.743792 1_555
O0 O16 1.368191 1_555
O1 O17 1.368191 1_555
O18 O2 1.368191 1_555
O19 O3 1.368191 1_555
O20 O4 1.368191 1_555
O21 O5 1.368191 1_555
O22 O6 1.368191 1_555
O23 O7 1.368191 1_555
