# generated using pymatgen
data_Lu10In20Ni9
_symmetry_space_group_name_H-M   'P 1'
_cell_length_a   13.32233700
_cell_length_b   13.32233700
_cell_length_c   9.00383600
_cell_angle_alpha   90.00000000
_cell_angle_beta   90.00000000
_cell_angle_gamma   90.00000000
_symmetry_Int_Tables_number   1
_chemical_formula_structural   Lu10In20Ni9
_chemical_formula_sum   'Lu20 In40 Ni18'
_cell_volume   1598.04279944
_cell_formula_units_Z   2
loop_
 _symmetry_equiv_pos_site_id
 _symmetry_equiv_pos_as_xyz
  1  'x, y, z'
loop_
 _atom_site_type_symbol
 _atom_site_label
 _atom_site_symmetry_multiplicity
 _atom_site_fract_x
 _atom_site_fract_y
 _atom_site_fract_z
 _atom_site_occupancy
  Lu  Lu0  1  0.50000000  0.00000000  0.36100300  1
  Lu  Lu1  1  0.00000000  0.50000000  0.63899700  1
  Lu  Lu2  1  0.50000000  0.00000000  0.83666000  1
  Lu  Lu3  1  0.00000000  0.50000000  0.16334000  1
  Lu  Lu4  1  0.50000000  0.27570200  0.76810000  1
  Lu  Lu5  1  0.50000000  0.72429800  0.76810000  1
  Lu  Lu6  1  0.77570200  0.00000000  0.76810000  1
  Lu  Lu7  1  0.22429800  0.00000000  0.76810000  1
  Lu  Lu8  1  0.00000000  0.22429800  0.23190000  1
  Lu  Lu9  1  0.00000000  0.77570200  0.23190000  1
  Lu  Lu10  1  0.72429800  0.50000000  0.23190000  1
  Lu  Lu11  1  0.27570200  0.50000000  0.23190000  1
  Lu  Lu12  1  0.70198500  0.20198500  0.26578900  1
  Lu  Lu13  1  0.70198500  0.79801500  0.26578900  1
  Lu  Lu14  1  0.29801500  0.20198500  0.26578900  1
  Lu  Lu15  1  0.29801500  0.79801500  0.26578900  1
  Lu  Lu16  1  0.79801500  0.29801500  0.73421100  1
  Lu  Lu17  1  0.79801500  0.70198500  0.73421100  1
  Lu  Lu18  1  0.20198500  0.29801500  0.73421100  1
  Lu  Lu19  1  0.20198500  0.70198500  0.73421100  1
  In  In0  1  0.34585300  0.65414700  0.00000000  1
  In  In1  1  0.34585300  0.34585300  0.00000000  1
  In  In2  1  0.65414700  0.65414700  0.00000000  1
  In  In3  1  0.65414700  0.34585300  0.00000000  1
  In  In4  1  0.15414700  0.84585300  0.00000000  1
  In  In5  1  0.15414700  0.15414700  0.00000000  1
  In  In6  1  0.84585300  0.84585300  0.00000000  1
  In  In7  1  0.84585300  0.15414700  0.00000000  1
  In  In8  1  0.86770200  0.13229800  0.50000000  1
  In  In9  1  0.86770200  0.86770200  0.50000000  1
  In  In10  1  0.13229800  0.13229800  0.50000000  1
  In  In11  1  0.13229800  0.86770200  0.50000000  1
  In  In12  1  0.63229800  0.36770200  0.50000000  1
  In  In13  1  0.63229800  0.63229800  0.50000000  1
  In  In14  1  0.36770200  0.36770200  0.50000000  1
  In  In15  1  0.36770200  0.63229800  0.50000000  1
  In  In16  1  0.50000000  0.83420900  0.09473400  1
  In  In17  1  0.50000000  0.16579100  0.09473400  1
  In  In18  1  0.33420900  0.00000000  0.09473400  1
  In  In19  1  0.66579100  0.00000000  0.09473400  1
  In  In20  1  0.00000000  0.66579100  0.90526600  1
  In  In21  1  0.00000000  0.33420900  0.90526600  1
  In  In22  1  0.16579100  0.50000000  0.90526600  1
  In  In23  1  0.83420900  0.50000000  0.90526600  1
  In  In24  1  0.63191000  0.13191000  0.59072200  1
  In  In25  1  0.63191000  0.86809000  0.59072200  1
  In  In26  1  0.36809000  0.13191000  0.59072200  1
  In  In27  1  0.36809000  0.86809000  0.59072200  1
  In  In28  1  0.86809000  0.36809000  0.40927800  1
  In  In29  1  0.86809000  0.63191000  0.40927800  1
  In  In30  1  0.13191000  0.36809000  0.40927800  1
  In  In31  1  0.13191000  0.63191000  0.40927800  1
  In  In32  1  0.50000000  0.61541400  0.23597100  1
  In  In33  1  0.50000000  0.38458600  0.23597100  1
  In  In34  1  0.11541400  0.00000000  0.23597100  1
  In  In35  1  0.88458600  0.00000000  0.23597100  1
  In  In36  1  0.00000000  0.88458600  0.76402900  1
  In  In37  1  0.00000000  0.11541400  0.76402900  1
  In  In38  1  0.38458600  0.50000000  0.76402900  1
  In  In39  1  0.61541400  0.50000000  0.76402900  1
  Ni  Ni0  1  0.50000000  0.50000000  0.00000000  1
  Ni  Ni1  1  0.00000000  0.00000000  0.00000000  1
  Ni  Ni2  1  0.50000000  0.77750900  0.40928700  1
  Ni  Ni3  1  0.50000000  0.22249100  0.40928700  1
  Ni  Ni4  1  0.27750900  0.00000000  0.40928700  1
  Ni  Ni5  1  0.72249100  0.00000000  0.40928700  1
  Ni  Ni6  1  0.00000000  0.72249100  0.59071300  1
  Ni  Ni7  1  0.00000000  0.27750900  0.59071300  1
  Ni  Ni8  1  0.22249100  0.50000000  0.59071300  1
  Ni  Ni9  1  0.77750900  0.50000000  0.59071300  1
  Ni  Ni10  1  0.84446200  0.34446200  0.10335300  1
  Ni  Ni11  1  0.84446200  0.65553800  0.10335300  1
  Ni  Ni12  1  0.15553800  0.34446200  0.10335300  1
  Ni  Ni13  1  0.15553800  0.65553800  0.10335300  1
  Ni  Ni14  1  0.65553800  0.15553800  0.89664700  1
  Ni  Ni15  1  0.65553800  0.84446200  0.89664700  1
  Ni  Ni16  1  0.34446200  0.15553800  0.89664700  1
  Ni  Ni17  1  0.34446200  0.84446200  0.89664700  1
loop_
_geom_bond_atom_site_label_1
_geom_bond_atom_site_label_2
_geom_bond_distance
_geom_bond_site_symmetry_2
Lu0 Ni4 2.995812 1_555
Lu0 Ni2 2.995812 1_545
Lu0 Ni3 2.995812 1_555
Lu0 Ni5 2.995812 1_555
Lu1 Ni9 2.995812 1_455
Lu1 Ni8 2.995812 1_555
Lu1 Ni6 2.995812 1_555
Lu1 Ni7 2.995812 1_555
Lu2 Ni14 2.979793 1_555
Lu2 Ni16 2.979793 1_555
Lu2 Ni15 2.979793 1_545
Lu2 Ni17 2.979793 1_545
Lu3 Ni13 2.979793 1_555
Lu3 Ni12 2.979793 1_555
Lu3 Ni11 2.979793 1_455
Lu3 Ni10 2.979793 1_455
Lu4 Ni14 2.862884 1_555
Lu4 Ni16 2.862884 1_555
Lu4 Ni3 3.307554 1_555
Lu5 Ni15 2.862884 1_555
Lu5 Ni17 2.862884 1_555
Lu5 Ni2 3.307554 1_555
Lu6 Ni14 2.862884 1_555
Lu6 Ni15 2.862884 1_545
Lu6 Ni5 3.307554 1_555
Lu7 Ni16 2.862884 1_555
Lu7 Ni17 2.862884 1_545
Lu7 Ni4 3.307554 1_555
Lu8 Ni12 2.862884 1_555
Lu8 Ni10 2.862884 1_455
Lu8 Ni7 3.307554 1_555
Lu9 Ni13 2.862884 1_555
Lu9 Ni11 2.862884 1_455
Lu9 Ni6 3.307554 1_555
Lu10 Ni11 2.862884 1_555
Lu10 Ni10 2.862884 1_555
Lu10 Ni9 3.307554 1_555
Lu11 Ni13 2.862884 1_555
Lu11 Ni12 2.862884 1_555
Lu11 Ni8 3.307554 1_555
Lu12 Ni3 2.997497 1_555
Lu12 Ni5 2.997497 1_555
Lu12 Ni10 3.056929 1_555
Lu13 Ni2 2.997497 1_555
Lu13 Ni5 2.997497 1_565
Lu13 Ni11 3.056929 1_555
Lu14 Ni4 2.997497 1_555
Lu14 Ni3 2.997497 1_555
Lu14 Ni12 3.056929 1_555
Lu15 Ni2 2.997497 1_555
Lu15 Ni4 2.997497 1_565
Lu15 Ni13 3.056929 1_555
Lu16 Ni9 2.997497 1_555
Lu16 Ni7 2.997497 1_655
Lu16 Ni14 3.056929 1_555
Lu17 Ni9 2.997497 1_555
Lu17 Ni6 2.997497 1_655
Lu17 Ni15 3.056929 1_555
Lu18 Ni7 2.997497 1_555
Lu18 Ni8 2.997497 1_555
Lu18 Ni16 3.056929 1_555
Lu19 Ni8 2.997497 1_555
Lu19 Ni6 2.997497 1_555
Lu19 Ni17 3.056929 1_555
In0 Ni17 2.700883 1_554
In0 Ni13 2.700883 1_555
In0 Ni0 2.904227 1_555
In0 In38 2.999608 1_554
In0 In32 2.999608 1_555
In0 Lu11 3.074150 1_555
In0 Lu5 3.074150 1_554
In0 Lu19 3.131577 1_554
In0 Lu15 3.131577 1_555
In0 In22 3.270977 1_554
In0 In16 3.270977 1_555
In1 Ni12 2.700883 1_555
In1 Ni16 2.700883 1_554
In1 Ni0 2.904227 1_555
In1 In33 2.999608 1_555
In1 In38 2.999608 1_554
In1 Lu4 3.074150 1_554
In1 Lu11 3.074150 1_555
In1 Lu14 3.131577 1_555
In1 Lu18 3.131577 1_554
In1 In17 3.270977 1_555
In1 In22 3.270977 1_554
In2 Ni11 2.700883 1_555
In2 Ni15 2.700883 1_554
In2 Ni0 2.904227 1_555
In2 In32 2.999608 1_555
In2 In39 2.999608 1_554
In2 Lu5 3.074150 1_554
In2 Lu10 3.074150 1_555
In2 Lu13 3.131577 1_555
In2 Lu17 3.131577 1_554
In2 In23 3.270977 1_554
In3 Ni10 2.700883 1_555
In3 Ni14 2.700883 1_554
In3 Ni0 2.904227 1_555
In3 In33 2.999608 1_555
In3 In39 2.999608 1_554
In3 Lu4 3.074150 1_554
In3 Lu10 3.074150 1_555
In3 Lu12 3.131577 1_555
In3 Lu16 3.131577 1_554
In4 Ni17 2.700883 1_554
In4 Ni13 2.700883 1_555
In4 Ni1 2.904227 1_565
In4 Lu7 3.074150 1_564
In4 Lu9 3.074150 1_555
In4 Lu19 3.131577 1_554
In4 Lu15 3.131577 1_555
In5 Ni16 2.700883 1_554
In5 Ni12 2.700883 1_555
In5 Ni1 2.904227 1_555
In5 Lu7 3.074150 1_554
In5 Lu8 3.074150 1_555
In5 Lu14 3.131577 1_555
In5 Lu18 3.131577 1_554
In6 Ni15 2.700883 1_554
In6 Ni11 2.700883 1_555
In6 Ni1 2.904227 1_665
In6 Lu6 3.074150 1_564
In6 Lu9 3.074150 1_655
In6 Lu13 3.131577 1_555
In6 Lu17 3.131577 1_554
In7 Ni10 2.700883 1_555
In7 Ni14 2.700883 1_554
In7 Ni1 2.904227 1_655
In7 Lu6 3.074150 1_554
In7 Lu8 3.074150 1_655
In7 Lu12 3.131577 1_555
In7 Lu16 3.131577 1_554
In8 Ni7 2.741543 1_655
In8 Ni5 2.741543 1_555
In8 Lu12 3.191089 1_555
In8 Lu16 3.191089 1_555
In8 Lu6 3.230441 1_555
In8 Lu8 3.230441 1_655
In9 Ni6 2.741543 1_655
In9 Ni5 2.741543 1_565
In9 Lu17 3.191089 1_555
In9 Lu13 3.191089 1_555
In9 Lu9 3.230441 1_655
In9 Lu6 3.230441 1_565
In10 Ni7 2.741543 1_555
In10 Ni4 2.741543 1_555
In10 In34 2.967911 1_555
In10 In37 2.967911 1_555
In10 Lu18 3.191089 1_555
In10 Lu14 3.191089 1_555
In10 Lu7 3.230441 1_555
In10 Lu8 3.230441 1_555
In10 In26 3.245772 1_555
In10 In30 3.245772 1_555
In11 Ni6 2.741543 1_555
In11 Ni4 2.741543 1_565
In11 In36 2.967911 1_555
In11 In34 2.967911 1_565
In11 Lu19 3.191089 1_555
In11 Lu15 3.191089 1_555
In11 Lu9 3.230441 1_555
In11 Lu7 3.230441 1_565
In11 In31 3.245772 1_555
In11 In27 3.245772 1_555
In12 Ni9 2.741543 1_555
In12 Ni3 2.741543 1_555
In12 In39 2.967911 1_555
In12 In33 2.967911 1_555
In12 Lu16 3.191089 1_555
In12 Lu12 3.191089 1_555
In12 Lu4 3.230441 1_555
In12 Lu10 3.230441 1_555
In12 In24 3.245772 1_555
In12 In28 3.245772 1_555
In13 Ni9 2.741543 1_555
In13 Ni2 2.741543 1_555
In13 In39 2.967911 1_555
In13 In32 2.967911 1_555
In13 Lu13 3.191089 1_555
In13 Lu17 3.191089 1_555
In13 Lu10 3.230441 1_555
In13 Lu5 3.230441 1_555
In13 In29 3.245772 1_555
In13 In25 3.245772 1_555
In14 Ni8 2.741543 1_555
In14 Ni3 2.741543 1_555
In14 In33 2.967911 1_555
In14 In38 2.967911 1_555
In14 Lu18 3.191089 1_555
In14 Lu14 3.191089 1_555
In14 Lu4 3.230441 1_555
In14 Lu11 3.230441 1_555
In14 In30 3.245772 1_555
In14 In26 3.245772 1_555
In15 Ni8 2.741543 1_555
In15 Ni2 2.741543 1_555
In15 In38 2.967911 1_555
In15 In32 2.967911 1_555
In15 Lu15 3.191089 1_555
In15 Lu19 3.191089 1_555
In15 Lu11 3.230441 1_555
In15 Lu5 3.230441 1_555
In15 In31 3.245772 1_555
In15 In27 3.245772 1_555
In16 Ni15 2.737408 1_554
In16 Ni17 2.737408 1_554
In16 Ni2 2.931187 1_555
In16 In18 3.123607 1_565
In16 In19 3.123607 1_565
In16 Lu13 3.137767 1_555
In16 Lu15 3.137767 1_555
In16 In32 3.180184 1_555
In16 Lu2 3.205907 1_564
In16 Lu0 3.259784 1_565
In16 In2 3.270977 1_555
In16 Lu5 3.285320 1_554
In17 Ni14 2.737408 1_554
In17 Ni16 2.737408 1_554
In17 Ni3 2.931187 1_555
In17 In19 3.123607 1_555
In17 In18 3.123607 1_555
In17 Lu12 3.137767 1_555
In17 Lu14 3.137767 1_555
In17 In33 3.180184 1_555
In17 Lu2 3.205907 1_554
In17 Lu0 3.259784 1_555
In17 In3 3.270977 1_555
In17 Lu4 3.285320 1_554
In18 Ni16 2.737408 1_554
In18 Ni17 2.737408 1_544
In18 Ni4 2.931187 1_555
In18 Lu14 3.137767 1_555
In18 Lu15 3.137767 1_545
In18 In34 3.180184 1_555
In18 Lu2 3.205907 1_554
In18 Lu0 3.259784 1_555
In18 In4 3.270977 1_545
In18 In5 3.270977 1_555
In18 Lu7 3.285320 1_554
In19 Ni14 2.737408 1_554
In19 Ni15 2.737408 1_544
In19 Ni5 2.931187 1_555
In19 Lu12 3.137767 1_555
In19 Lu13 3.137767 1_545
In19 In35 3.180184 1_555
In19 Lu2 3.205907 1_554
In19 Lu0 3.259784 1_555
In19 In7 3.270977 1_555
In19 In6 3.270977 1_545
In19 Lu6 3.285320 1_554
In20 Ni13 2.737408 1_556
In20 Ni11 2.737408 1_456
In20 Ni6 2.931187 1_555
In20 In22 3.123607 1_555
In20 In23 3.123607 1_455
In20 Lu19 3.137767 1_555
In20 Lu17 3.137767 1_455
In20 In36 3.180184 1_555
In20 Lu3 3.205907 1_556
In20 Lu1 3.259784 1_555
In20 In6 3.270977 1_456
In20 In4 3.270977 1_556
In20 Lu9 3.285320 1_556
In21 Ni12 2.737408 1_556
In21 Ni10 2.737408 1_456
In21 Ni7 2.931187 1_555
In21 In22 3.123607 1_555
In21 In23 3.123607 1_455
In21 Lu18 3.137767 1_555
In21 Lu16 3.137767 1_455
In21 In37 3.180184 1_555
In21 Lu3 3.205907 1_556
In21 Lu1 3.259784 1_555
In21 In5 3.270977 1_556
In21 In7 3.270977 1_456
In21 Lu8 3.285320 1_556
In22 Ni13 2.737408 1_556
In22 Ni12 2.737408 1_556
In22 Ni8 2.931187 1_555
In22 Lu19 3.137767 1_555
In22 Lu18 3.137767 1_555
In22 In38 3.180184 1_555
In22 Lu3 3.205907 1_556
In22 Lu1 3.259784 1_555
In22 Lu11 3.285320 1_556
In23 Ni11 2.737408 1_556
In23 Ni10 2.737408 1_556
In23 Ni9 2.931187 1_555
In23 Lu17 3.137767 1_555
In23 Lu16 3.137767 1_555
In23 In39 3.180184 1_555
In23 Lu3 3.205907 1_656
In23 Lu1 3.259784 1_655
In23 In3 3.270977 1_556
In23 Lu10 3.285320 1_556
In24 Ni5 2.685742 1_555
In24 Ni3 2.685742 1_555
In24 Ni14 2.790239 1_555
In24 Lu6 3.051008 1_555
In24 Lu4 3.051008 1_555
In24 Lu12 3.209746 1_555
In24 Lu0 3.233363 1_555
In24 In8 3.245772 1_555
In24 Lu2 3.328672 1_555
In24 Lu16 3.385713 1_555
In25 Ni5 2.685742 1_565
In25 Ni2 2.685742 1_555
In25 Ni15 2.790239 1_555
In25 Lu6 3.051008 1_565
In25 Lu5 3.051008 1_555
In25 Lu13 3.209746 1_555
In25 Lu0 3.233363 1_565
In25 In9 3.245772 1_555
In25 Lu2 3.328672 1_565
In25 Lu17 3.385713 1_555
In26 Ni3 2.685742 1_555
In26 Ni4 2.685742 1_555
In26 Ni16 2.790239 1_555
In26 Lu4 3.051008 1_555
In26 Lu7 3.051008 1_555
In26 Lu14 3.209746 1_555
In26 Lu0 3.233363 1_555
In26 Lu2 3.328672 1_555
In26 Lu18 3.385713 1_555
In27 Ni4 2.685742 1_565
In27 Ni2 2.685742 1_555
In27 Ni17 2.790239 1_555
In27 Lu7 3.051008 1_565
In27 Lu5 3.051008 1_555
In27 Lu15 3.209746 1_555
In27 Lu0 3.233363 1_565
In27 Lu2 3.328672 1_565
In27 Lu19 3.385713 1_555
In28 Ni9 2.685742 1_555
In28 Ni7 2.685742 1_655
In28 Ni10 2.790239 1_555
In28 Lu8 3.051008 1_655
In28 Lu10 3.051008 1_555
In28 Lu16 3.209746 1_555
In28 Lu1 3.233363 1_655
In28 In8 3.245772 1_555
In28 Lu3 3.328672 1_655
In28 Lu12 3.385713 1_555
In29 Ni6 2.685742 1_655
In29 Ni9 2.685742 1_555
In29 Ni11 2.790239 1_555
In29 Lu9 3.051008 1_655
In29 Lu10 3.051008 1_555
In29 Lu17 3.209746 1_555
In29 Lu1 3.233363 1_655
In29 In9 3.245772 1_555
In29 Lu3 3.328672 1_655
In29 Lu13 3.385713 1_555
In30 Ni8 2.685742 1_555
In30 Ni7 2.685742 1_555
In30 Ni12 2.790239 1_555
In30 Lu11 3.051008 1_555
In30 Lu8 3.051008 1_555
In30 Lu18 3.209746 1_555
In30 Lu1 3.233363 1_555
In30 Lu3 3.328672 1_555
In30 Lu14 3.385713 1_555
In31 Ni6 2.685742 1_555
In31 Ni8 2.685742 1_555
In31 Ni13 2.790239 1_555
In31 Lu9 3.051008 1_555
In31 Lu11 3.051008 1_555
In31 Lu19 3.209746 1_555
In31 Lu1 3.233363 1_555
In31 Lu3 3.328672 1_555
In31 Lu15 3.385713 1_555
In32 Ni0 2.622647 1_555
In32 Ni2 2.664312 1_555
In32 In33 3.075168 1_555
In32 Lu10 3.360757 1_555
In32 Lu11 3.360757 1_555
In33 Ni0 2.622647 1_555
In33 Ni3 2.664312 1_555
In33 Lu10 3.360757 1_555
In33 Lu11 3.360757 1_555
In34 Ni1 2.622647 1_555
In34 Ni4 2.664312 1_555
In34 In4 2.999608 1_545
In34 In5 2.999608 1_555
In34 In35 3.075168 1_455
In34 Lu8 3.360757 1_555
In34 Lu9 3.360757 1_545
In35 Ni1 2.622647 1_655
In35 Ni5 2.664312 1_555
In35 In8 2.967911 1_555
In35 In9 2.967911 1_545
In35 In6 2.999608 1_545
In35 In7 2.999608 1_555
In35 Lu9 3.360757 1_645
In35 Lu8 3.360757 1_655
In36 Ni1 2.622647 1_566
In36 Ni6 2.664312 1_555
In36 In9 2.967911 1_455
In36 In6 2.999608 1_456
In36 In4 2.999608 1_556
In36 In37 3.075168 1_565
In36 Lu6 3.360757 1_465
In36 Lu7 3.360757 1_565
In37 Ni1 2.622647 1_556
In37 Ni7 2.664312 1_555
In37 In8 2.967911 1_455
In37 In7 2.999608 1_456
In37 In5 2.999608 1_556
In37 Lu6 3.360757 1_455
In37 Lu7 3.360757 1_555
In38 Ni0 2.622647 1_556
In38 Ni8 2.664312 1_555
In38 In39 3.075168 1_555
In38 Lu5 3.360757 1_555
In38 Lu4 3.360757 1_555
In39 Ni0 2.622647 1_556
In39 Ni9 2.664312 1_555
In39 Lu5 3.360757 1_555
In39 Lu4 3.360757 1_555
