# generated using pymatgen
data_Na4Fe2(PO4)3
_symmetry_space_group_name_H-M   'P 1'
_cell_length_a   8.85728725
_cell_length_b   8.85728725
_cell_length_c   8.85728804
_cell_angle_alpha   61.52862671
_cell_angle_beta   61.52862671
_cell_angle_gamma   61.52862386
_symmetry_Int_Tables_number   1
_chemical_formula_structural   Na4Fe2(PO4)3
_chemical_formula_sum   'Na8 Fe4 P6 O24'
_cell_volume   508.20229954
_cell_formula_units_Z   2
loop_
 _symmetry_equiv_pos_site_id
 _symmetry_equiv_pos_as_xyz
  1  'x, y, z'
loop_
 _atom_site_type_symbol
 _atom_site_label
 _atom_site_symmetry_multiplicity
 _atom_site_fract_x
 _atom_site_fract_y
 _atom_site_fract_z
 _atom_site_occupancy
  Na  Na0  1  0.38505800  0.11494200  0.75000000  1
  Na  Na1  1  0.75000000  0.38505800  0.11494200  1
  Na  Na2  1  0.11494200  0.75000000  0.38505800  1
  Na  Na3  1  0.61494200  0.88505800  0.25000000  1
  Na  Na4  1  0.25000000  0.61494200  0.88505800  1
  Na  Na5  1  0.88505800  0.25000000  0.61494200  1
  Na  Na6  1  0.00000000  0.00000000  0.00000000  1
  Na  Na7  1  0.50000000  0.50000000  0.50000000  1
  Fe  Fe0  1  0.14890800  0.14890800  0.14890800  1
  Fe  Fe1  1  0.35109200  0.35109200  0.35109200  1
  Fe  Fe2  1  0.85109200  0.85109200  0.85109200  1
  Fe  Fe3  1  0.64890800  0.64890800  0.64890800  1
  P  P0  1  0.04761200  0.45238800  0.75000000  1
  P  P1  1  0.75000000  0.04761200  0.45238800  1
  P  P2  1  0.45238800  0.75000000  0.04761200  1
  P  P3  1  0.95238800  0.54761200  0.25000000  1
  P  P4  1  0.25000000  0.95238800  0.54761200  1
  P  P5  1  0.54761200  0.25000000  0.95238800  1
  O  O0  1  0.06651300  0.27204900  0.91204900  1
  O  O1  1  0.91204900  0.06651300  0.27204900  1
  O  O2  1  0.27204900  0.91204900  0.06651300  1
  O  O3  1  0.43348700  0.58795100  0.22795100  1
  O  O4  1  0.22795100  0.43348700  0.58795100  1
  O  O5  1  0.58795100  0.22795100  0.43348700  1
  O  O6  1  0.93348700  0.72795100  0.08795100  1
  O  O7  1  0.08795100  0.93348700  0.72795100  1
  O  O8  1  0.72795100  0.08795100  0.93348700  1
  O  O9  1  0.56651300  0.41204900  0.77204900  1
  O  O10  1  0.77204900  0.56651300  0.41204900  1
  O  O11  1  0.41204900  0.77204900  0.56651300  1
  O  O12  1  0.98466600  0.38495900  0.20312900  1
  O  O13  1  0.20312900  0.98466600  0.38495900  1
  O  O14  1  0.38495900  0.20312900  0.98466600  1
  O  O15  1  0.51533400  0.29687100  0.11504100  1
  O  O16  1  0.11504100  0.51533400  0.29687100  1
  O  O17  1  0.29687100  0.11504100  0.51533400  1
  O  O18  1  0.70312900  0.88495900  0.48466600  1
  O  O19  1  0.88495900  0.48466600  0.70312900  1
  O  O20  1  0.48466600  0.70312900  0.88495900  1
  O  O21  1  0.61504100  0.79687100  0.01533400  1
  O  O22  1  0.79687100  0.01533400  0.61504100  1
  O  O23  1  0.01533400  0.61504100  0.79687100  1
loop_
_geom_bond_atom_site_label_1
_geom_bond_atom_site_label_2
_geom_bond_distance
_geom_bond_site_symmetry_2
Na0 O4 2.501382 1_555
Na0 O0 2.501382 1_555
Na0 O2 2.515324 1_546
Na0 O5 2.515324 1_555
Na0 O17 2.544765 1_555
Na0 O14 2.544765 1_555
Na1 O1 2.501382 1_555
Na1 O5 2.501382 1_555
Na1 O3 2.515323 1_555
Na1 O0 2.515323 1_654
Na1 O15 2.544764 1_555
Na1 O12 2.544764 1_555
Na2 O3 2.501382 1_555
Na2 O2 2.501382 1_555
Na2 O1 2.515323 1_465
Na2 O4 2.515323 1_555
Na2 O13 2.544764 1_555
Na2 O16 2.544764 1_555
Na3 O6 2.501382 1_555
Na3 O10 2.501382 1_555
Na3 O11 2.515324 1_555
Na3 O8 2.515324 1_564
Na3 O18 2.544765 1_555
Na3 O21 2.544765 1_555
Na4 O7 2.501382 1_555
Na4 O11 2.501382 1_555
Na4 O9 2.515323 1_555
Na4 O6 2.515323 1_456
Na4 O20 2.544764 1_555
Na4 O23 2.544764 1_555
Na5 O9 2.501382 1_555
Na5 O8 2.501382 1_555
Na5 O7 2.515323 1_645
Na5 O10 2.515323 1_555
Na5 O22 2.544764 1_555
Na5 O19 2.544764 1_555
Na6 O2 2.426183 1_545
Na6 O8 2.426183 1_454
Na6 O0 2.426183 1_554
Na6 O6 2.426183 1_445
Na6 O1 2.426184 1_455
Na6 O7 2.426184 1_544
Na7 O11 2.426183 1_555
Na7 O5 2.426183 1_555
Na7 O10 2.426183 1_555
Na7 O4 2.426183 1_555
Na7 O9 2.426184 1_555
Na7 O3 2.426184 1_555
Fe0 O12 2.027203 1_455
Fe0 O14 2.027203 1_554
Fe0 O13 2.027204 1_545
Fe0 O2 2.154695 1_545
Fe0 O1 2.154695 1_455
Fe0 O0 2.154695 1_554
Fe1 O16 2.027203 1_555
Fe1 O17 2.027203 1_555
Fe1 O15 2.027204 1_555
Fe1 O5 2.154695 1_555
Fe1 O3 2.154695 1_555
Fe1 O4 2.154695 1_555
Fe2 O23 2.027203 1_655
Fe2 O21 2.027203 1_556
Fe2 O22 2.027204 1_565
Fe2 O8 2.154695 1_565
Fe2 O7 2.154695 1_655
Fe2 O6 2.154695 1_556
Fe3 O19 2.027203 1_555
Fe3 O18 2.027203 1_555
Fe3 O20 2.027204 1_555
Fe3 O11 2.154695 1_555
Fe3 O9 2.154695 1_555
Fe3 O10 2.154695 1_555
O0 P0 1.558143 1_555
O1 P1 1.558143 1_555
O2 P2 1.558143 1_555
O3 P2 1.558143 1_555
O4 P0 1.558143 1_555
O5 P1 1.558143 1_555
O6 P3 1.558143 1_555
O7 P4 1.558143 1_555
O8 P5 1.558143 1_555
O9 P5 1.558143 1_555
O10 P3 1.558143 1_555
O11 P4 1.558143 1_555
O12 P3 1.547249 1_555
O13 P4 1.547249 1_555
O14 P5 1.547249 1_555
O15 P5 1.547249 1_554
O16 P3 1.547249 1_455
O17 P4 1.547249 1_545
O18 P1 1.547249 1_565
O19 P0 1.547249 1_655
O20 P2 1.547249 1_556
O21 P2 1.547249 1_555
O22 P1 1.547249 1_555
O23 P0 1.547249 1_555
