# generated using pymatgen
data_MnZn2WO6
_symmetry_space_group_name_H-M   'P 1'
_cell_length_a   5.31873200
_cell_length_b   7.98062782
_cell_length_c   5.33297043
_cell_angle_alpha   88.43310783
_cell_angle_beta   90.00007645
_cell_angle_gamma   90.00019795
_symmetry_Int_Tables_number   1
_chemical_formula_structural   MnZn2WO6
_chemical_formula_sum   'Mn2 Zn4 W2 O12'
_cell_volume   226.28299620
_cell_formula_units_Z   2
loop_
 _symmetry_equiv_pos_site_id
 _symmetry_equiv_pos_as_xyz
  1  'x, y, z'
loop_
 _atom_site_type_symbol
 _atom_site_label
 _atom_site_symmetry_multiplicity
 _atom_site_fract_x
 _atom_site_fract_y
 _atom_site_fract_z
 _atom_site_occupancy
  Mn  Mn0  1  0.50037900  0.49970400  0.00038100  1
  Mn  Mn1  1  0.99932500  0.99991800  0.50055200  1
  Zn  Zn0  1  0.02497400  0.26009700  0.01589300  1
  Zn  Zn1  1  0.52492900  0.23994500  0.48402600  1
  Zn  Zn2  1  0.97510100  0.73994000  0.98402900  1
  Zn  Zn3  1  0.47506000  0.76009500  0.51588900  1
  W  W0  1  0.00007400  0.50002100  0.49994900  1
  W  W1  1  0.49991300  0.99998700  0.99994400  1
  O  O0  1  0.31073400  0.41363900  0.64105400  1
  O  O1  1  0.81074700  0.08641800  0.85884300  1
  O  O2  1  0.68930700  0.58641200  0.35884100  1
  O  O3  1  0.18931600  0.91364600  0.14105600  1
  O  O4  1  0.16031100  0.55411300  0.18132600  1
  O  O5  1  0.66026200  0.94591800  0.31855700  1
  O  O6  1  0.83976600  0.44592100  0.81856400  1
  O  O7  1  0.33971300  0.05411400  0.68131600  1
  O  O8  1  0.39698800  0.22806100  0.11827100  1
  O  O9  1  0.89695800  0.27199500  0.38162100  1
  O  O10  1  0.10306000  0.72805500  0.61827200  1
  O  O11  1  0.60308300  0.77200100  0.88162000  1
loop_
_geom_bond_atom_site_label_1
_geom_bond_atom_site_label_2
_geom_bond_distance
_geom_bond_site_symmetry_2
Mn0 O6 2.098950 1_554
Mn0 O4 2.100988 1_555
Mn0 O2 2.283713 1_555
Mn0 O0 2.287637 1_554
Mn0 O8 2.307127 1_555
Mn0 O11 2.312275 1_554
Mn1 O5 2.098284 1_555
Mn1 O7 2.101629 1_665
Mn1 O1 2.281596 1_565
Mn1 O3 2.289750 1_655
Mn1 O10 2.308980 1_655
Mn1 O9 2.310444 1_565
O0 W0 1.934762 1_555
O0 Zn1 1.996040 1_555
O1 W1 1.935677 1_545
O1 Zn0 1.996097 1_656
O2 W0 1.935279 1_655
O2 Zn3 1.996182 1_555
O3 W1 1.934375 1_554
O3 Zn2 1.996159 1_454
O4 W0 1.939043 1_555
O4 Zn2 2.047310 1_454
O5 W1 1.939222 1_554
O5 Zn3 2.047355 1_555
O6 W0 1.939185 1_655
O6 Zn0 2.047372 1_656
O7 W1 1.939035 1_545
O7 Zn1 2.047326 1_555
O8 W1 2.018351 1_544
O8 Zn0 2.066604 1_555
O8 Zn1 2.070472 1_555
O9 W0 2.018276 1_655
O9 Zn1 2.066731 1_555
O9 Zn0 2.070477 1_655
O10 W0 2.018137 1_555
O10 Zn3 2.066543 1_555
O10 Zn2 2.070516 1_455
O11 W1 2.018060 1_555
O11 Zn2 2.066691 1_555
O11 Zn3 2.070507 1_555
