# generated using pymatgen
data_Yb5(Si5Ir2)2
_symmetry_space_group_name_H-M   'P 1'
_cell_length_a   12.62069800
_cell_length_b   12.62069800
_cell_length_c   4.30154400
_cell_angle_alpha   90.00000000
_cell_angle_beta   90.00000000
_cell_angle_gamma   90.00000000
_symmetry_Int_Tables_number   1
_chemical_formula_structural   Yb5(Si5Ir2)2
_chemical_formula_sum   'Yb10 Si20 Ir8'
_cell_volume   685.15860887
_cell_formula_units_Z   2
loop_
 _symmetry_equiv_pos_site_id
 _symmetry_equiv_pos_as_xyz
  1  'x, y, z'
loop_
 _atom_site_type_symbol
 _atom_site_label
 _atom_site_symmetry_multiplicity
 _atom_site_fract_x
 _atom_site_fract_y
 _atom_site_fract_z
 _atom_site_occupancy
  Yb  Yb0  1  0.11307500  0.61307500  0.50000000  1
  Yb  Yb1  1  0.88692500  0.38692500  0.50000000  1
  Yb  Yb2  1  0.61307500  0.88692500  0.50000000  1
  Yb  Yb3  1  0.38692500  0.11307500  0.50000000  1
  Yb  Yb4  1  0.67338600  0.17338600  0.50000000  1
  Yb  Yb5  1  0.32661400  0.82661400  0.50000000  1
  Yb  Yb6  1  0.17338600  0.32661400  0.50000000  1
  Yb  Yb7  1  0.82661400  0.67338600  0.50000000  1
  Yb  Yb8  1  0.00000000  0.00000000  0.00000000  1
  Yb  Yb9  1  0.50000000  0.50000000  0.00000000  1
  Si  Si0  1  0.56664500  0.06664500  0.00000000  1
  Si  Si1  1  0.43335500  0.93335500  0.00000000  1
  Si  Si2  1  0.06664500  0.43335500  0.00000000  1
  Si  Si3  1  0.93335500  0.56664500  0.00000000  1
  Si  Si4  1  0.19723300  0.16329300  0.00000000  1
  Si  Si5  1  0.80276700  0.83670700  0.00000000  1
  Si  Si6  1  0.16329300  0.80276700  0.00000000  1
  Si  Si7  1  0.69723300  0.33670700  0.00000000  1
  Si  Si8  1  0.83670700  0.19723300  0.00000000  1
  Si  Si9  1  0.30276700  0.66329300  0.00000000  1
  Si  Si10  1  0.66329300  0.69723300  0.00000000  1
  Si  Si11  1  0.33670700  0.30276700  0.00000000  1
  Si  Si12  1  0.00308100  0.15149700  0.50000000  1
  Si  Si13  1  0.99691900  0.84850300  0.50000000  1
  Si  Si14  1  0.15149700  0.99691900  0.50000000  1
  Si  Si15  1  0.50308100  0.34850300  0.50000000  1
  Si  Si16  1  0.84850300  0.00308100  0.50000000  1
  Si  Si17  1  0.49691900  0.65149700  0.50000000  1
  Si  Si18  1  0.65149700  0.50308100  0.50000000  1
  Si  Si19  1  0.34850300  0.49691900  0.50000000  1
  Ir  Ir0  1  0.01791600  0.24544400  0.00000000  1
  Ir  Ir1  1  0.98208400  0.75455600  0.00000000  1
  Ir  Ir2  1  0.24544400  0.98208400  0.00000000  1
  Ir  Ir3  1  0.51791600  0.25455600  0.00000000  1
  Ir  Ir4  1  0.75455600  0.01791600  0.00000000  1
  Ir  Ir5  1  0.48208400  0.74544400  0.00000000  1
  Ir  Ir6  1  0.74544400  0.51791600  0.00000000  1
  Ir  Ir7  1  0.25455600  0.48208400  0.00000000  1
loop_
_geom_bond_atom_site_label_1
_geom_bond_atom_site_label_2
_geom_bond_distance
_geom_bond_site_symmetry_2
Si0 Si1 2.379008 1_545
Si0 Yb4 2.873225 1_554
Si0 Yb4 2.873225 1_555
Si0 Yb3 3.180234 1_554
Si0 Yb3 3.180234 1_555
Si0 Yb2 3.180234 1_544
Si0 Yb2 3.180234 1_545
Si1 Yb5 2.873225 1_554
Si1 Yb5 2.873225 1_555
Si1 Yb3 3.180234 1_565
Si1 Yb3 3.180234 1_564
Si1 Yb2 3.180234 1_554
Si1 Yb2 3.180234 1_555
Si2 Si3 2.379008 1_455
Si2 Yb6 2.873225 1_554
Si2 Yb6 2.873225 1_555
Si2 Yb1 3.180234 1_455
Si2 Yb1 3.180234 1_454
Si2 Yb0 3.180234 1_555
Si2 Yb0 3.180234 1_554
Si3 Yb7 2.873225 1_555
Si3 Yb7 2.873225 1_554
Si3 Yb1 3.180234 1_554
Si3 Yb1 3.180234 1_555
Si3 Yb0 3.180234 1_655
Si3 Yb0 3.180234 1_654
Si4 Yb6 2.994169 1_554
Si4 Yb6 2.994169 1_555
Si4 Yb8 3.231625 1_555
Si4 Yb3 3.280085 1_555
Si4 Yb3 3.280085 1_554
Si5 Yb7 2.994169 1_554
Si5 Yb7 2.994169 1_555
Si5 Yb8 3.231625 1_665
Si5 Yb2 3.280085 1_554
Si5 Yb2 3.280085 1_555
Si6 Si9 2.489382 1_555
Si6 Yb5 2.994169 1_554
Si6 Yb5 2.994169 1_555
Si6 Yb8 3.231625 1_565
Si6 Yb0 3.280085 1_555
Si6 Yb0 3.280085 1_554
Si7 Si8 2.489382 1_555
Si7 Yb4 2.994169 1_554
Si7 Yb4 2.994169 1_555
Si7 Yb9 3.231625 1_555
Si7 Yb1 3.280085 1_555
Si7 Yb1 3.280085 1_554
Si8 Yb4 2.994169 1_554
Si8 Yb4 2.994169 1_555
Si8 Yb8 3.231625 1_655
Si8 Yb1 3.280085 1_554
Si8 Yb1 3.280085 1_555
Si9 Yb5 2.994169 1_555
Si9 Yb5 2.994169 1_554
Si9 Yb9 3.231625 1_555
Si9 Yb0 3.280085 1_554
Si9 Yb0 3.280085 1_555
Si10 Si5 2.489382 1_555
Si10 Yb7 2.994169 1_554
Si10 Yb7 2.994169 1_555
Si10 Yb9 3.231625 1_555
Si10 Yb2 3.280085 1_554
Si10 Yb2 3.280085 1_555
Si11 Si4 2.489382 1_555
Si11 Yb6 2.994169 1_555
Si11 Yb6 2.994169 1_554
Si11 Yb9 3.231625 1_555
Si11 Yb3 3.280085 1_555
Si11 Yb3 3.280085 1_554
Si12 Si14 2.704532 1_545
Si12 Si16 2.704532 1_455
Si12 Yb8 2.878032 1_556
Si12 Yb8 2.878032 1_555
Si12 Yb6 3.082908 1_555
Si12 Yb1 3.313229 1_455
Si13 Si16 2.704532 1_565
Si13 Si14 2.704532 1_655
Si13 Yb8 2.878032 1_666
Si13 Yb8 2.878032 1_665
Si13 Yb7 3.082908 1_555
Si13 Yb0 3.313229 1_655
Si14 Yb8 2.878032 1_565
Si14 Yb8 2.878032 1_566
Si14 Yb5 3.082908 1_555
Si14 Yb3 3.313229 1_565
Si15 Si18 2.704532 1_555
Si15 Si19 2.704532 1_555
Si15 Yb9 2.878032 1_555
Si15 Yb9 2.878032 1_556
Si15 Yb4 3.082908 1_555
Si15 Yb3 3.313229 1_555
Si16 Yb8 2.878032 1_656
Si16 Yb8 2.878032 1_655
Si16 Yb4 3.082908 1_555
Si16 Yb2 3.313229 1_545
Si17 Si18 2.704532 1_555
Si17 Si19 2.704532 1_555
Si17 Yb9 2.878032 1_555
Si17 Yb9 2.878032 1_556
Si17 Yb5 3.082908 1_555
Si17 Yb2 3.313229 1_555
Si18 Yb9 2.878032 1_555
Si18 Yb9 2.878032 1_556
Si18 Yb7 3.082908 1_555
Si18 Yb1 3.313229 1_555
Si19 Yb9 2.878032 1_555
Si19 Yb9 2.878032 1_556
Si19 Yb6 3.082908 1_555
Si19 Yb0 3.313229 1_555
Ir0 Si8 2.366541 1_455
Ir0 Si2 2.450011 1_555
Ir0 Si12 2.463068 1_554
Ir0 Si12 2.463068 1_555
Ir0 Si4 2.489299 1_555
Ir0 Yb6 3.086301 1_555
Ir0 Yb6 3.086301 1_554
Ir0 Yb8 3.105916 1_555
Ir0 Yb1 3.247647 1_455
Ir0 Yb1 3.247647 1_454
Ir1 Si6 2.366541 1_655
Ir1 Si3 2.450011 1_555
Ir1 Si13 2.463068 1_555
Ir1 Si13 2.463068 1_554
Ir1 Si5 2.489299 1_555
Ir1 Yb7 3.086301 1_555
Ir1 Yb7 3.086301 1_554
Ir1 Yb8 3.105916 1_665
Ir1 Yb0 3.247647 1_655
Ir1 Yb0 3.247647 1_654
Ir2 Si4 2.366541 1_565
Ir2 Si1 2.450011 1_555
Ir2 Si14 2.463068 1_555
Ir2 Si14 2.463068 1_554
Ir2 Si6 2.489299 1_555
Ir2 Yb5 3.086301 1_555
Ir2 Yb5 3.086301 1_554
Ir2 Yb8 3.105916 1_565
Ir2 Yb3 3.247647 1_565
Ir2 Yb3 3.247647 1_564
Ir3 Si11 2.366541 1_555
Ir3 Si0 2.450011 1_555
Ir3 Si15 2.463068 1_554
Ir3 Si15 2.463068 1_555
Ir3 Si7 2.489299 1_555
Ir3 Yb4 3.086301 1_555
Ir3 Yb4 3.086301 1_554
Ir3 Yb9 3.105916 1_555
Ir3 Yb3 3.247647 1_555
Ir3 Yb3 3.247647 1_554
Ir4 Si5 2.366541 1_545
Ir4 Si0 2.450011 1_555
Ir4 Si16 2.463068 1_554
Ir4 Si16 2.463068 1_555
Ir4 Si8 2.489299 1_555
Ir4 Yb4 3.086301 1_555
Ir4 Yb4 3.086301 1_554
Ir4 Yb8 3.105916 1_655
Ir4 Yb2 3.247647 1_544
Ir4 Yb2 3.247647 1_545
Ir5 Si10 2.366541 1_555
Ir5 Si1 2.450011 1_555
Ir5 Si17 2.463068 1_554
Ir5 Si17 2.463068 1_555
Ir5 Si9 2.489299 1_555
Ir5 Yb5 3.086301 1_554
Ir5 Yb5 3.086301 1_555
Ir5 Yb9 3.105916 1_555
Ir5 Yb2 3.247647 1_554
Ir5 Yb2 3.247647 1_555
Ir6 Si7 2.366541 1_555
Ir6 Si3 2.450011 1_555
Ir6 Si18 2.463068 1_554
Ir6 Si18 2.463068 1_555
Ir6 Si10 2.489299 1_555
Ir6 Yb7 3.086301 1_555
Ir6 Yb7 3.086301 1_554
Ir6 Yb9 3.105916 1_555
Ir6 Yb1 3.247647 1_554
Ir6 Yb1 3.247647 1_555
Ir7 Si9 2.366541 1_555
Ir7 Si2 2.450011 1_555
Ir7 Si19 2.463068 1_554
Ir7 Si19 2.463068 1_555
Ir7 Si11 2.489299 1_555
Ir7 Yb6 3.086301 1_555
Ir7 Yb6 3.086301 1_554
Ir7 Yb9 3.105916 1_555
Ir7 Yb0 3.247647 1_555
Ir7 Yb0 3.247647 1_554
