# generated using pymatgen
data_RbCuAg2(CN)4
_symmetry_space_group_name_H-M   'P 1'
_cell_length_a   7.81211000
_cell_length_b   7.76554500
_cell_length_c   7.96870587
_cell_angle_alpha   90.00000000
_cell_angle_beta   102.81895155
_cell_angle_gamma   90.00000000
_symmetry_Int_Tables_number   1
_chemical_formula_structural   RbCuAg2(CN)4
_chemical_formula_sum   'Rb2 Cu2 Ag4 C8 N8'
_cell_volume   471.37501943
_cell_formula_units_Z   2
loop_
 _symmetry_equiv_pos_site_id
 _symmetry_equiv_pos_as_xyz
  1  'x, y, z'
loop_
 _atom_site_type_symbol
 _atom_site_label
 _atom_site_symmetry_multiplicity
 _atom_site_fract_x
 _atom_site_fract_y
 _atom_site_fract_z
 _atom_site_occupancy
  Rb  Rb0  1  0.50000000  0.75361600  0.25000000  1
  Rb  Rb1  1  0.50000000  0.24638400  0.75000000  1
  Cu  Cu0  1  0.50000000  0.74362600  0.75000000  1
  Cu  Cu1  1  0.50000000  0.25637400  0.25000000  1
  Ag  Ag0  1  0.00000000  0.00000000  0.00000000  1
  Ag  Ag1  1  0.00000000  0.00000000  0.50000000  1
  Ag  Ag2  1  0.00000000  0.56364200  0.25000000  1
  Ag  Ag3  1  0.00000000  0.43635800  0.75000000  1
  C  C0  1  0.21559400  0.92385800  0.91003300  1
  C  C1  1  0.78440600  0.92385800  0.58996700  1
  C  C2  1  0.78440600  0.07614200  0.08996700  1
  C  C3  1  0.21559400  0.07614200  0.41003300  1
  C  C4  1  0.21416000  0.58204300  0.45536900  1
  C  C5  1  0.78584000  0.58204300  0.04463100  1
  C  C6  1  0.78584000  0.41795700  0.54463100  1
  C  C7  1  0.21416000  0.41795700  0.95536900  1
  N  N0  1  0.33672100  0.87476300  0.85825600  1
  N  N1  1  0.66327900  0.87476300  0.64174400  1
  N  N2  1  0.66327900  0.12523700  0.14174400  1
  N  N3  1  0.33672100  0.12523700  0.35825600  1
  N  N4  1  0.33518900  0.61167500  0.56904200  1
  N  N5  1  0.66481100  0.61167500  0.93095800  1
  N  N6  1  0.66481100  0.38832500  0.43095800  1
  N  N7  1  0.33518900  0.38832500  0.06904200  1
loop_
_geom_bond_atom_site_label_1
_geom_bond_atom_site_label_2
_geom_bond_distance
_geom_bond_site_symmetry_2
Cu0 N0 1.973965 1_555
Cu0 N1 1.973965 1_555
Cu0 N5 1.990773 1_555
Cu0 N4 1.990773 1_555
Cu1 N3 1.973965 1_555
Cu1 N2 1.973965 1_555
Cu1 N6 1.990773 1_555
Cu1 N7 1.990773 1_555
Ag0 C0 2.058173 1_544
Ag0 C2 2.058173 1_455
Ag1 C3 2.058173 1_555
Ag1 C1 2.058173 1_445
Ag2 C4 2.069480 1_555
Ag2 C5 2.069480 1_455
Ag3 C7 2.069480 1_555
Ag3 C6 2.069480 1_455
C0 N0 1.176536 1_555
C0 Rb0 3.369342 1_556
C1 N1 1.176536 1_555
C1 Rb0 3.369342 1_555
C2 N2 1.176536 1_555
C2 Rb1 3.369342 1_554
C3 N3 1.176536 1_555
C3 Rb1 3.369342 1_555
C4 N4 1.177872 1_555
C4 Rb0 3.325860 1_555
C5 N5 1.177872 1_554
C5 Rb0 3.325860 1_555
C6 N6 1.177872 1_555
C6 Rb1 3.325860 1_555
C7 N7 1.177872 1_556
C7 Rb1 3.325860 1_555
N0 Rb0 3.238846 1_556
N0 Rb1 3.344782 1_565
N1 Rb0 3.238846 1_555
N1 Rb1 3.344782 1_565
N2 Rb1 3.238846 1_554
N2 Rb0 3.344782 1_545
N3 Rb1 3.238846 1_555
N3 Rb0 3.344782 1_545
N4 Rb0 3.284621 1_555
N4 Rb1 3.310589 1_555
N5 Rb0 3.284621 1_556
N5 Rb1 3.310589 1_555
N6 Rb1 3.284621 1_555
N6 Rb0 3.310589 1_555
N7 Rb1 3.284621 1_554
N7 Rb0 3.310589 1_555
