# generated using pymatgen
data_K2U3MnO11
_symmetry_space_group_name_H-M   'P 1'
_cell_length_a   6.87526599
_cell_length_b   6.87526600
_cell_length_c   13.17538223
_cell_angle_alpha   74.87573652
_cell_angle_beta   74.87573783
_cell_angle_gamma   59.99999994
_symmetry_Int_Tables_number   1
_chemical_formula_structural   K2U3MnO11
_chemical_formula_sum   'K4 U6 Mn2 O22'
_cell_volume   514.29262362
_cell_formula_units_Z   2
loop_
 _symmetry_equiv_pos_site_id
 _symmetry_equiv_pos_as_xyz
  1  'x, y, z'
loop_
 _atom_site_type_symbol
 _atom_site_label
 _atom_site_symmetry_multiplicity
 _atom_site_fract_x
 _atom_site_fract_y
 _atom_site_fract_z
 _atom_site_occupancy
  K  K0  1  0.32817100  0.32817100  0.01548800  1
  K  K1  1  0.82817100  0.82817100  0.51548800  1
  K  K2  1  0.67182900  0.67182900  0.98451200  1
  K  K3  1  0.17182900  0.17182900  0.48451200  1
  U  U0  1  0.25000000  0.88673100  0.25000000  1
  U  U1  1  0.61326900  0.25000000  0.25000000  1
  U  U2  1  0.88673100  0.61326900  0.25000000  1
  U  U3  1  0.38673100  0.75000000  0.75000000  1
  U  U4  1  0.11326900  0.38673100  0.75000000  1
  U  U5  1  0.75000000  0.11326900  0.75000000  1
  Mn  Mn0  1  0.50000000  0.50000000  0.50000000  1
  Mn  Mn1  1  0.00000000  0.00000000  0.00000000  1
  O  O0  1  0.74808900  0.20689500  0.59823600  1
  O  O1  1  0.44678000  0.74808900  0.59823600  1
  O  O2  1  0.20689500  0.44678000  0.59823600  1
  O  O3  1  0.70689500  0.24808900  0.09823600  1
  O  O4  1  0.94678000  0.70689500  0.09823600  1
  O  O5  1  0.24808900  0.94678000  0.09823600  1
  O  O6  1  0.25191100  0.79310500  0.40176400  1
  O  O7  1  0.55322000  0.25191100  0.40176400  1
  O  O8  1  0.79310500  0.55322000  0.40176400  1
  O  O9  1  0.29310500  0.75191100  0.90176400  1
  O  O10  1  0.05322000  0.29310500  0.90176400  1
  O  O11  1  0.75191100  0.05322000  0.90176400  1
  O  O12  1  0.25000000  0.50124800  0.25000000  1
  O  O13  1  0.99875200  0.25000000  0.25000000  1
  O  O14  1  0.50124800  0.99875200  0.25000000  1
  O  O15  1  0.00124800  0.75000000  0.75000000  1
  O  O16  1  0.49875200  0.00124800  0.75000000  1
  O  O17  1  0.75000000  0.49875200  0.75000000  1
  O  O18  1  0.40584900  0.40584900  0.78245300  1
  O  O19  1  0.90584900  0.90584900  0.28245300  1
  O  O20  1  0.59415100  0.59415100  0.21754700  1
  O  O21  1  0.09415100  0.09415100  0.71754700  1
loop_
_geom_bond_atom_site_label_1
_geom_bond_atom_site_label_2
_geom_bond_distance
_geom_bond_site_symmetry_2
K0 O9 2.828236 1_554
K0 O11 2.828238 1_554
K0 O10 2.828242 1_554
K0 O3 2.829518 1_555
K0 O4 2.829521 1_455
K0 O5 2.829524 1_545
K0 O18 2.927668 1_554
K1 O6 2.828236 1_655
K1 O7 2.828238 1_565
K1 O8 2.828242 1_555
K1 O0 2.829518 1_565
K1 O2 2.829520 1_655
K1 O1 2.829524 1_555
K1 O19 2.927668 1_555
K2 O3 2.828236 1_556
K2 O5 2.828238 1_556
K2 O4 2.828242 1_556
K2 O9 2.829518 1_555
K2 O10 2.829521 1_655
K2 O11 2.829524 1_565
K2 O20 2.927668 1_556
K3 O0 2.828236 1_455
K3 O1 2.828238 1_545
K3 O2 2.828242 1_555
K3 O6 2.829518 1_545
K3 O8 2.829520 1_455
K3 O7 2.829524 1_555
K3 O21 2.927668 1_555
Mn0 O6 2.235889 1_555
Mn0 O0 2.235889 1_555
Mn0 O7 2.235889 1_555
Mn0 O1 2.235889 1_555
Mn0 O8 2.235889 1_555
Mn0 O2 2.235889 1_555
Mn1 O5 2.235889 1_545
Mn1 O11 2.235889 1_454
Mn1 O10 2.235889 1_554
Mn1 O4 2.235889 1_445
Mn1 O3 2.235889 1_455
Mn1 O9 2.235889 1_544
O0 U5 1.935542 1_555
O1 U3 1.935542 1_555
O2 U4 1.935542 1_555
O3 U1 1.935542 1_555
O4 U2 1.935542 1_555
O5 U0 1.935542 1_555
O6 U0 1.935542 1_555
O7 U1 1.935542 1_555
O8 U2 1.935542 1_555
O9 U3 1.935542 1_555
O10 U4 1.935542 1_555
O11 U5 1.935542 1_555
O12 U1 2.215280 1_555
O12 U2 2.215280 1_455
O12 U0 2.650298 1_555
O13 U0 2.215280 1_645
O13 U2 2.215280 1_555
O13 U1 2.650298 1_555
O14 U0 2.215280 1_555
O14 U1 2.215280 1_565
O14 U2 2.650298 1_555
O15 U5 2.215280 1_465
O15 U4 2.215280 1_555
O15 U3 2.650298 1_555
O16 U5 2.215280 1_555
O16 U3 2.215280 1_545
O16 U4 2.650298 1_555
O17 U4 2.215280 1_655
O17 U3 2.215280 1_555
O17 U5 2.650298 1_555
O18 U4 2.233619 1_555
O18 U3 2.233619 1_555
O18 U5 2.233619 1_555
O19 U1 2.233619 1_565
O19 U2 2.233619 1_555
O19 U0 2.233619 1_655
O20 U2 2.233619 1_555
O20 U1 2.233619 1_555
O20 U0 2.233619 1_555
O21 U3 2.233619 1_545
O21 U4 2.233619 1_555
O21 U5 2.233619 1_455
