# generated using pymatgen
data_KNaTi4(BiO6)2
_symmetry_space_group_name_H-M   'P 1'
_cell_length_a   5.76605161
_cell_length_b   5.76605161
_cell_length_c   7.77402300
_cell_angle_alpha   90.00000000
_cell_angle_beta   90.00000000
_cell_angle_gamma   95.15831599
_symmetry_Int_Tables_number   1
_chemical_formula_structural   KNaTi4(BiO6)2
_chemical_formula_sum   'K1 Na1 Ti4 Bi2 O12'
_cell_volume   257.41890584
_cell_formula_units_Z   1
loop_
 _symmetry_equiv_pos_site_id
 _symmetry_equiv_pos_as_xyz
  1  'x, y, z'
loop_
 _atom_site_type_symbol
 _atom_site_label
 _atom_site_symmetry_multiplicity
 _atom_site_fract_x
 _atom_site_fract_y
 _atom_site_fract_z
 _atom_site_occupancy
  K  K0  1  0.98492600  0.01507400  0.50000000  1
  Na  Na0  1  0.46744900  0.53255100  0.00000000  1
  Ti  Ti0  1  0.97757700  0.52243300  0.75258700  1
  Ti  Ti1  1  0.47756700  0.02242300  0.75258700  1
  Ti  Ti2  1  0.97757700  0.52243300  0.24741300  1
  Ti  Ti3  1  0.47756700  0.02242300  0.24741300  1
  Bi  Bi0  1  0.93092800  0.06907200  0.00000000  1
  Bi  Bi1  1  0.42799500  0.57200500  0.50000000  1
  O  O0  1  0.27584400  0.72415600  0.74348000  1
  O  O1  1  0.77209500  0.22790500  0.76276800  1
  O  O2  1  0.27584400  0.72415600  0.25652000  1
  O  O3  1  0.77209500  0.22790500  0.23723200  1
  O  O4  1  0.02203800  0.46737500  0.00000000  1
  O  O5  1  0.53262500  0.97796200  0.00000000  1
  O  O6  1  0.03329100  0.49026500  0.50000000  1
  O  O7  1  0.50973500  0.96670900  0.50000000  1
  O  O8  1  0.77074600  0.72732300  0.75517100  1
  O  O9  1  0.27267700  0.22925400  0.75517100  1
  O  O10  1  0.77074600  0.72732300  0.24482900  1
  O  O11  1  0.27267700  0.22925400  0.24482900  1
loop_
_geom_bond_atom_site_label_1
_geom_bond_atom_site_label_2
_geom_bond_distance
_geom_bond_site_symmetry_2
K0 O7 2.729073 1_545
K0 O6 2.729073 1_655
K0 O1 2.730513 1_555
K0 O3 2.730513 1_555
K0 O8 2.800838 1_545
K0 O10 2.800838 1_545
K0 O11 2.800838 1_655
K0 O9 2.800838 1_655
K0 O7 3.063764 1_645
K0 O6 3.063764 1_645
K0 O2 3.117114 1_645
K0 O0 3.117114 1_645
Na0 O4 2.561963 1_555
Na0 O5 2.561963 1_555
Na0 O2 2.576329 1_555
Na0 O0 2.576329 1_554
Na0 O9 2.754828 1_554
Na0 O10 2.754828 1_555
Na0 O11 2.754828 1_555
Na0 O8 2.754828 1_554
Bi0 O1 2.286830 1_554
Bi0 O3 2.286830 1_555
Bi0 O4 2.309452 1_655
Bi0 O5 2.309452 1_545
Bi1 O6 2.282302 1_555
Bi1 O7 2.282302 1_555
Bi1 O0 2.293580 1_555
Bi1 O2 2.293580 1_555
O0 Ti0 1.988971 1_455
O0 Ti1 1.988971 1_565
O1 Ti1 1.983015 1_555
O1 Ti0 1.983015 1_555
O2 Ti2 1.988971 1_455
O2 Ti3 1.988971 1_565
O3 Ti3 1.983015 1_555
O3 Ti2 1.983015 1_555
O4 Ti0 1.969921 1_454
O4 Ti2 1.969921 1_455
O5 Ti1 1.969921 1_564
O5 Ti3 1.969921 1_565
O6 Ti2 2.001028 1_455
O6 Ti0 2.001028 1_455
O7 Ti3 2.001028 1_565
O7 Ti1 2.001028 1_565
O8 Ti0 1.752645 1_555
O8 Ti1 2.504135 1_565
O9 Ti1 1.752645 1_555
O9 Ti0 2.504135 1_455
O10 Ti2 1.752645 1_555
O10 Ti3 2.504135 1_565
O11 Ti3 1.752645 1_555
O11 Ti2 2.504135 1_455
