# generated using pymatgen
data_Ba2Y2Co3CuO10
_symmetry_space_group_name_H-M   'P 1'
_cell_length_a   8.64367812
_cell_length_b   8.64367812
_cell_length_c   8.64367812
_cell_angle_alpha   142.66509656
_cell_angle_beta   142.66509656
_cell_angle_gamma   53.82820493
_symmetry_Int_Tables_number   1
_chemical_formula_structural   Ba2Y2Co3CuO10
_chemical_formula_sum   'Ba2 Y2 Co3 Cu1 O10'
_cell_volume   235.97765158
_cell_formula_units_Z   1
loop_
 _symmetry_equiv_pos_site_id
 _symmetry_equiv_pos_as_xyz
  1  'x, y, z'
loop_
 _atom_site_type_symbol
 _atom_site_label
 _atom_site_symmetry_multiplicity
 _atom_site_fract_x
 _atom_site_fract_y
 _atom_site_fract_z
 _atom_site_occupancy
  Ba  Ba0  1  0.99876800  0.49876800  0.50000000  1
  Ba  Ba1  1  0.49876800  0.99876800  0.50000000  1
  Y  Y0  1  0.24829000  0.74829000  0.50000000  1
  Y  Y1  1  0.74829000  0.24829000  0.50000000  1
  Co  Co0  1  0.86887600  0.86887600  0.00000000  1
  Co  Co1  1  0.13512700  0.13512700  0.00000000  1
  Co  Co2  1  0.62540600  0.62540600  0.00000000  1
  Cu  Cu0  1  0.35623100  0.35623100  0.00000000  1
  O  O0  1  0.59728400  0.59728400  0.50745700  1
  O  O1  1  0.08982700  0.08982700  0.49254300  1
  O  O2  1  0.59728400  0.08982700  0.00000000  1
  O  O3  1  0.08982700  0.59728400  0.00000000  1
  O  O4  1  0.41258800  0.41258800  0.50686100  1
  O  O5  1  0.90572700  0.90572700  0.49313900  1
  O  O6  1  0.41258800  0.90572700  0.00000000  1
  O  O7  1  0.90572700  0.41258800  0.00000000  1
  O  O8  1  0.50854900  0.50854900  0.00000000  1
  O  O9  1  0.00084100  0.00084100  0.00000000  1
loop_
_geom_bond_atom_site_label_1
_geom_bond_atom_site_label_2
_geom_bond_distance
_geom_bond_site_symmetry_2
Ba0 O9 2.766809 1_655
Ba0 O9 2.766809 1_666
Ba0 O8 2.770729 1_555
Ba0 O8 2.770729 1_656
Ba0 O2 3.090698 1_555
Ba0 O0 3.090698 1_555
Ba0 O3 3.090698 1_656
Ba0 O1 3.090698 1_655
Ba0 O6 3.152860 1_656
Ba0 O5 3.152860 1_555
Ba0 O7 3.152860 1_555
Ba0 O4 3.152860 1_655
Ba1 O9 2.766809 1_565
Ba1 O9 2.766809 1_666
Ba1 O8 2.770729 1_555
Ba1 O8 2.770729 1_566
Ba1 O2 3.090698 1_566
Ba1 O3 3.090698 1_555
Ba1 O1 3.090698 1_565
Ba1 O0 3.090698 1_555
Ba1 O7 3.152860 1_566
Ba1 O6 3.152860 1_555
Ba1 O4 3.152860 1_565
Ba1 O5 3.152860 1_555
Co0 O1 1.966251 1_665
Co0 O0 1.966251 1_554
Co0 O3 1.966251 1_655
Co0 O2 1.966251 1_565
Co0 O9 2.034227 1_665
Co1 O5 2.017442 1_444
Co1 O7 2.017442 1_455
Co1 O4 2.017442 1_555
Co1 O6 2.017442 1_545
Co1 O9 2.070005 1_555
Co2 O8 1.801339 1_555
Co2 O6 1.998370 1_555
Co2 O7 1.998370 1_555
Co2 O5 1.998370 1_555
Co2 O4 1.998370 1_554
Cu0 O0 1.995066 1_555
Cu0 O1 1.995066 1_554
Cu0 O2 1.995066 1_555
Cu0 O3 1.995066 1_555
Cu0 O8 2.347966 1_555
O0 Y0 2.446318 1_555
O0 Y1 2.446318 1_555
O1 Y0 2.446318 1_545
O1 Y1 2.446318 1_455
O2 Y0 2.446318 1_544
O2 Y1 2.446318 1_555
O3 Y0 2.446318 1_555
O3 Y1 2.446318 1_454
O4 Y0 2.390735 1_555
O4 Y1 2.390735 1_555
O5 Y0 2.390735 1_655
O5 Y1 2.390735 1_565
O6 Y1 2.390735 1_565
O6 Y0 2.390735 1_554
O7 Y0 2.390735 1_655
O7 Y1 2.390735 1_554
