# generated using pymatgen
data_Li9Mn2Co5O16
_symmetry_space_group_name_H-M   'P 1'
_cell_length_a   3.02697700
_cell_length_b   9.77727421
_cell_length_c   9.99806221
_cell_angle_alpha   87.26156939
_cell_angle_beta   88.00629233
_cell_angle_gamma   83.00996595
_symmetry_Int_Tables_number   1
_chemical_formula_structural   Li9Mn2Co5O16
_chemical_formula_sum   'Li9 Mn2 Co5 O16'
_cell_volume   293.23847313
_cell_formula_units_Z   1
loop_
 _symmetry_equiv_pos_site_id
 _symmetry_equiv_pos_as_xyz
  1  'x, y, z'
loop_
 _atom_site_type_symbol
 _atom_site_label
 _atom_site_symmetry_multiplicity
 _atom_site_fract_x
 _atom_site_fract_y
 _atom_site_fract_z
 _atom_site_occupancy
  Li  Li0  1  0.61839100  0.25215600  0.43605200  1
  Li  Li1  1  0.87604000  0.74620200  0.31173100  1
  Li  Li2  1  0.12099000  0.25399800  0.18836400  1
  Li  Li3  1  0.37942400  0.74285200  0.06410000  1
  Li  Li4  1  0.62057600  0.25714800  0.93590000  1
  Li  Li5  1  0.87901000  0.74600200  0.81163600  1
  Li  Li6  1  0.12396000  0.25379800  0.68826900  1
  Li  Li7  1  0.38160900  0.74784400  0.56394800  1
  Li  Li8  1  0.00000000  0.50000000  0.00000000  1
  Mn  Mn0  1  0.76076300  0.00042100  0.62704600  1
  Mn  Mn1  1  0.23923700  0.99957900  0.37295400  1
  Co  Co0  1  0.00000000  0.50000000  0.50000000  1
  Co  Co1  1  0.49969300  0.50079900  0.24159700  1
  Co  Co2  1  0.74199600  0.99893900  0.12253600  1
  Co  Co3  1  0.25800400  0.00106100  0.87746400  1
  Co  Co4  1  0.50030700  0.49920100  0.75840300  1
  O  O0  1  0.15790500  0.11851600  0.52790200  1
  O  O1  1  0.45105500  0.60897600  0.39906000  1
  O  O2  1  0.64794400  0.11614600  0.27632400  1
  O  O3  1  0.91418700  0.61408000  0.16461900  1
  O  O4  1  0.19593000  0.11711900  0.02854100  1
  O  O5  1  0.44116500  0.61483500  0.88778600  1
  O  O6  1  0.71204800  0.11529100  0.78247000  1
  O  O7  1  0.90782300  0.61341500  0.65216100  1
  O  O8  1  0.09217700  0.38658500  0.34783900  1
  O  O9  1  0.28795200  0.88470900  0.21753000  1
  O  O10  1  0.55883500  0.38516500  0.11221400  1
  O  O11  1  0.80407000  0.88288100  0.97145900  1
  O  O12  1  0.08581300  0.38592000  0.83538100  1
  O  O13  1  0.35205600  0.88385400  0.72367600  1
  O  O14  1  0.54894500  0.39102400  0.60094000  1
  O  O15  1  0.84209500  0.88148400  0.47209800  1
loop_
_geom_bond_atom_site_label_1
_geom_bond_atom_site_label_2
_geom_bond_distance
_geom_bond_site_symmetry_2
Li0 O2 2.119135 1_555
Li0 O8 2.126011 1_555
Li0 O0 2.165165 1_655
Li0 O14 2.173873 1_555
Li0 O0 2.175565 1_555
Li0 O8 2.195936 1_655
Li1 O3 1.994705 1_555
Li1 O1 2.108879 1_555
Li1 O9 2.117304 1_655
Li1 O15 2.118709 1_555
Li1 O1 2.239963 1_655
Li1 O9 2.301706 1_555
Li2 O10 2.056959 1_555
Li2 O8 2.095388 1_555
Li2 O4 2.121578 1_555
Li2 O10 2.141400 1_455
Li2 O2 2.143679 1_555
Li2 O2 2.215671 1_455
Li3 O9 2.105660 1_555
Li3 O11 2.146835 1_554
Li3 O3 2.170640 1_555
Li3 O3 2.188736 1_455
Li3 O5 2.200001 1_554
Li3 O11 2.275121 1_454
Li4 O6 2.105660 1_555
Li4 O4 2.146835 1_556
Li4 O12 2.170640 1_555
Li4 O12 2.188736 1_655
Li4 O10 2.200001 1_556
Li4 O4 2.275121 1_656
Li5 O5 2.056959 1_555
Li5 O7 2.095388 1_555
Li5 O11 2.121578 1_555
Li5 O5 2.141400 1_655
Li5 O13 2.143679 1_555
Li5 O13 2.215671 1_655
Li6 O12 1.994705 1_555
Li6 O14 2.108879 1_555
Li6 O6 2.117304 1_455
Li6 O0 2.118709 1_555
Li6 O14 2.239963 1_455
Li6 O6 2.301706 1_555
Li7 O13 2.119135 1_555
Li7 O7 2.126011 1_555
Li7 O15 2.165165 1_455
Li7 O1 2.173873 1_555
Li7 O15 2.175565 1_555
Li7 O7 2.195936 1_455
Li8 O3 2.023762 1_455
Li8 O12 2.023762 1_554
Li8 O10 2.107827 1_455
Li8 O5 2.107827 1_554
Li8 O10 2.220404 1_555
Li8 O5 2.220404 1_454
Mn0 O6 1.951504 1_555
Mn0 O15 1.971998 1_545
Mn0 O0 1.976484 1_655
Mn0 O13 1.979304 1_545
Mn0 O13 2.225850 1_645
Mn0 O0 2.269244 1_555
Mn1 O9 1.951504 1_555
Mn1 O0 1.971998 1_565
Mn1 O15 1.976484 1_455
Mn1 O2 1.979304 1_565
Mn1 O2 2.225850 1_465
Mn1 O15 2.269244 1_555
Co0 O8 1.917874 1_555
Co0 O7 1.917874 1_455
Co0 O1 2.042877 1_555
Co0 O14 2.042877 1_455
Co0 O1 2.120810 1_455
Co0 O14 2.120810 1_555
Co1 O10 1.748711 1_555
Co1 O3 1.892838 1_555
Co1 O1 1.929749 1_555
Co1 O8 2.006915 1_555
Co1 O3 2.120339 1_455
Co1 O8 2.263512 1_655
Co2 O11 1.922653 1_554
Co2 O2 1.953700 1_565
Co2 O9 2.054204 1_555
Co2 O4 2.073433 1_665
Co2 O9 2.106917 1_655
Co2 O4 2.118945 1_565
Co3 O4 1.922653 1_556
Co3 O13 1.953700 1_545
Co3 O6 2.054204 1_555
Co3 O11 2.073433 1_445
Co3 O6 2.106917 1_455
Co3 O11 2.118945 1_545
Co4 O5 1.748711 1_555
Co4 O12 1.892838 1_555
Co4 O14 1.929749 1_555
Co4 O7 2.006915 1_555
Co4 O12 2.120339 1_655
Co4 O7 2.263512 1_455
