# generated using pymatgen
data_Rb2Li(OsO3)2
_symmetry_space_group_name_H-M   'P 1'
_cell_length_a   5.56026524
_cell_length_b   5.55764717
_cell_length_c   8.23638256
_cell_angle_alpha   70.15233812
_cell_angle_beta   70.15503366
_cell_angle_gamma   60.04332456
_symmetry_Int_Tables_number   1
_chemical_formula_structural   Rb2Li(OsO3)2
_chemical_formula_sum   'Rb2 Li1 Os2 O6'
_cell_volume   202.85860181
_cell_formula_units_Z   1
loop_
 _symmetry_equiv_pos_site_id
 _symmetry_equiv_pos_as_xyz
  1  'x, y, z'
loop_
 _atom_site_type_symbol
 _atom_site_label
 _atom_site_symmetry_multiplicity
 _atom_site_fract_x
 _atom_site_fract_y
 _atom_site_fract_z
 _atom_site_occupancy
  Rb  Rb0  1  0.89768300  0.89807200  0.30501700  1
  Rb  Rb1  1  0.11118200  0.11061000  0.66942300  1
  Li  Li0  1  0.76196300  0.76177400  0.71675200  1
  Os  Os0  1  0.66198800  0.66175000  0.01514100  1
  Os  Os1  1  0.33425400  0.33435300  0.99743200  1
  O  O0  1  0.46142700  0.64746000  0.85167400  1
  O  O1  1  0.04094200  0.46164400  0.85142500  1
  O  O2  1  0.64732800  0.04087900  0.85173500  1
  O  O3  1  0.53995000  0.35619500  0.14219700  1
  O  O4  1  0.35595400  0.96116500  0.14213900  1
  O  O5  1  0.96114200  0.53990100  0.14225100  1
loop_
_geom_bond_atom_site_label_1
_geom_bond_atom_site_label_2
_geom_bond_distance
_geom_bond_site_symmetry_2
Li0 O1 1.935635 1_655
Li0 O2 1.936728 1_565
Li0 O0 1.936757 1_555
Li0 Os0 2.260840 1_556
O0 Os1 2.050189 1_555
O0 Os0 2.059882 1_556
O0 Rb1 2.650717 1_565
O1 Os1 2.051371 1_555
O1 Os0 2.060057 1_456
O1 Rb1 2.652013 1_555
O2 Os1 2.050806 1_555
O2 Os0 2.057923 1_546
O2 Rb1 2.651524 1_655
O3 Os0 1.975170 1_555
O3 Os1 1.976701 1_554
O3 Rb0 2.583066 1_545
O4 Os0 1.975928 1_555
O4 Os1 1.976337 1_564
O4 Rb0 2.582150 1_455
O5 Os0 1.974194 1_555
O5 Os1 1.977375 1_654
O5 Rb0 2.583335 1_555
