# generated using pymatgen
data_LiV4OF11
_symmetry_space_group_name_H-M   'P 1'
_cell_length_a   5.24496000
_cell_length_b   5.49708912
_cell_length_c   17.22917987
_cell_angle_alpha   84.29377073
_cell_angle_beta   82.09178378
_cell_angle_gamma   61.70368312
_symmetry_Int_Tables_number   1
_chemical_formula_structural   LiV4OF11
_chemical_formula_sum   'Li2 V8 O2 F22'
_cell_volume   432.90085590
_cell_formula_units_Z   2
loop_
 _symmetry_equiv_pos_site_id
 _symmetry_equiv_pos_as_xyz
  1  'x, y, z'
loop_
 _atom_site_type_symbol
 _atom_site_label
 _atom_site_symmetry_multiplicity
 _atom_site_fract_x
 _atom_site_fract_y
 _atom_site_fract_z
 _atom_site_occupancy
  Li  Li0  1  0.27940500  0.39954500  0.06157500  1
  Li  Li1  1  0.63872700  0.76916300  0.92900100  1
  V  V0  1  0.23524400  0.25646200  0.24653500  1
  V  V1  1  0.12149600  0.13030000  0.62242600  1
  V  V2  1  0.01636300  0.98314900  0.99921300  1
  V  V3  1  0.49809800  0.50348400  0.49769100  1
  V  V4  1  0.37196900  0.40511200  0.87594100  1
  V  V5  1  0.65388400  0.60348800  0.13279000  1
  V  V6  1  0.74658200  0.75887300  0.74750000  1
  V  V7  1  0.86605200  0.87762300  0.37279200  1
  O  O0  1  0.03407100  0.40045500  0.15523500  1
  O  O1  1  0.30984300  0.68861200  0.93886400  1
  F  F0  1  0.03621600  0.03124600  0.28367500  1
  F  F1  1  0.04591900  0.43634200  0.68989300  1
  F  F2  1  0.28081800  0.29139600  0.53374000  1
  F  F3  1  0.47499000  0.09315100  0.33923600  1
  F  F4  1  0.23174000  0.81138000  0.08985400  1
  F  F5  1  0.23875400  0.21597500  0.97110200  1
  F  F6  1  0.26445500  0.66261600  0.40885900  1
  F  F7  1  0.46173200  0.46116200  0.22056100  1
  F  F8  1  0.19739100  0.81360900  0.56425800  1
  F  F9  1  0.45967100  0.05693800  0.81948100  1
  F  F10  1  0.68482000  0.30701700  0.05987200  1
  F  F11  1  0.79699400  0.18372800  0.43869700  1
  F  F12  1  0.55378400  0.94446700  0.18008500  1
  F  F13  1  0.52817100  0.54704800  0.78166900  1
  F  F14  1  0.72699800  0.34603900  0.59121700  1
  F  F15  1  0.79020300  0.76392800  0.02579000  1
  F  F16  1  0.77907600  0.15244100  0.91016300  1
  F  F17  1  0.51915800  0.91884300  0.65775300  1
  F  F18  1  0.70326200  0.71999100  0.46631500  1
  F  F19  1  0.93327900  0.56587600  0.31516100  1
  F  F20  1  0.95133900  0.59952200  0.84592600  1
  F  F21  1  0.96140300  0.96623500  0.71648700  1
loop_
_geom_bond_atom_site_label_1
_geom_bond_atom_site_label_2
_geom_bond_distance
_geom_bond_site_symmetry_2
Li0 O0 1.919348 1_555
Li0 O1 2.549498 1_554
Li1 O1 1.956792 1_555
O0 V5 1.840624 1_455
O0 V0 1.905672 1_555
O1 V4 1.862119 1_555
O1 V2 1.898297 1_555
F0 V0 1.978840 1_555
F0 V7 1.986663 1_445
F1 V6 1.968655 1_455
F1 V1 1.992088 1_555
F2 V1 1.974435 1_555
F2 V3 1.991137 1_555
F3 V7 1.957341 1_545
F3 V0 2.033555 1_555
F4 V2 1.946136 1_554
F4 V5 2.153903 1_555
F4 Li0 2.252631 1_555
F5 Li0 2.025278 1_556
F5 V4 2.071666 1_555
F5 V2 2.090410 1_545
F5 Li1 2.451604 1_545
F6 V3 1.960341 1_555
F6 V7 2.004824 1_455
F7 V0 1.974458 1_555
F7 V5 2.001887 1_555
F8 V1 1.942592 1_565
F8 V3 2.012740 1_555
F9 V6 2.010011 1_545
F9 V4 2.057537 1_555
F9 Li1 2.330359 1_545
F10 Li0 1.934297 1_555
F10 V2 2.054392 1_644
F10 V5 2.088307 1_555
F11 V3 1.970969 1_555
F11 V7 1.985173 1_545
F12 V5 1.925096 1_555
F12 V0 2.047207 1_565
F13 V4 1.976347 1_555
F13 V6 1.989344 1_555
F14 V1 1.956986 1_655
F14 V3 2.014168 1_555
F15 Li1 1.935526 1_554
F15 V2 2.040829 1_654
F15 V5 2.144629 1_555
F15 Li0 2.508593 1_655
F16 V2 1.977974 1_645
F16 V4 2.051345 1_555
F16 Li1 2.520908 1_545
F17 V6 1.956978 1_555
F17 V1 1.995490 1_565
F18 V3 1.947517 1_555
F18 V7 2.030132 1_555
F19 V7 1.927739 1_555
F19 V0 2.032257 1_655
F20 Li1 1.943379 1_555
F20 V6 2.027381 1_555
F20 V4 2.060475 1_655
F21 V6 1.945564 1_555
F21 V1 2.048815 1_665
