# generated using pymatgen
data_Li3Ti3VO8
_symmetry_space_group_name_H-M   'P 1'
_cell_length_a   5.91910092
_cell_length_b   10.50179271
_cell_length_c   10.30808571
_cell_angle_alpha   79.29689590
_cell_angle_beta   73.31331571
_cell_angle_gamma   90.00518023
_symmetry_Int_Tables_number   1
_chemical_formula_structural   Li3Ti3VO8
_chemical_formula_sum   'Li12 Ti12 V4 O32'
_cell_volume   602.12953484
_cell_formula_units_Z   4
loop_
 _symmetry_equiv_pos_site_id
 _symmetry_equiv_pos_as_xyz
  1  'x, y, z'
loop_
 _atom_site_type_symbol
 _atom_site_label
 _atom_site_symmetry_multiplicity
 _atom_site_fract_x
 _atom_site_fract_y
 _atom_site_fract_z
 _atom_site_occupancy
  Li  Li0  1  0.74897700  0.25150200  0.99922800  1
  Li  Li1  1  0.25165600  0.74901500  0.00024500  1
  Li  Li2  1  0.50100400  0.49848300  0.50077700  1
  Li  Li3  1  0.99835800  0.00099600  0.49977800  1
  Li  Li4  1  0.99820500  0.49850400  0.50078100  1
  Li  Li5  1  0.50183300  0.00100700  0.49977300  1
  Li  Li6  1  0.74813100  0.74900200  0.00025400  1
  Li  Li7  1  0.25181300  0.25148000  0.99922300  1
  Li  Li8  1  0.12500600  0.87504800  0.75000000  1
  Li  Li9  1  0.62499300  0.37496500  0.75000000  1
  Li  Li10  1  0.87423800  0.12553000  0.25157500  1
  Li  Li11  1  0.37577300  0.62445500  0.24842100  1
  Ti  Ti0  1  0.37909000  0.12740700  0.74731000  1
  Ti  Ti1  1  0.87084300  0.62273400  0.75241800  1
  Ti  Ti2  1  0.12501300  0.37490200  0.25016300  1
  Ti  Ti3  1  0.62505400  0.87493700  0.25010300  1
  Ti  Ti4  1  0.12488700  0.87494200  0.25008800  1
  Ti  Ti5  1  0.62485700  0.37492200  0.25013600  1
  Ti  Ti6  1  0.87346300  0.12732300  0.74737500  1
  Ti  Ti7  1  0.37680300  0.62279400  0.75239500  1
  Ti  Ti8  1  0.24862500  0.24802500  0.50251000  1
  Ti  Ti9  1  0.74779800  0.75004700  0.50414500  1
  Ti  Ti10  1  0.00131100  0.50193600  0.99768700  1
  Ti  Ti11  1  0.50228600  0.00000800  0.99565000  1
  V  V0  1  0.74900100  0.24910300  0.50194700  1
  V  V1  1  0.50099300  0.50089400  0.99804900  1
  V  V2  1  0.24979800  0.75001700  0.50030100  1
  V  V3  1  0.00019500  0.00000100  0.99970300  1
  O  O0  1  0.43584100  0.81897800  0.12826200  1
  O  O1  1  0.93585000  0.32050500  0.12835700  1
  O  O2  1  0.18704000  0.06930500  0.62603200  1
  O  O3  1  0.68603600  0.56752800  0.62812400  1
  O  O4  1  0.31417800  0.42962000  0.37159800  1
  O  O5  1  0.81418800  0.93122100  0.37167800  1
  O  O6  1  0.06290400  0.68046600  0.87401900  1
  O  O7  1  0.56393000  0.18238800  0.87197100  1
  O  O8  1  0.80957700  0.94988900  0.88059500  1
  O  O9  1  0.30330700  0.44842900  0.87742100  1
  O  O10  1  0.55500000  0.20148100  0.37683600  1
  O  O11  1  0.05909200  0.70155800  0.37953100  1
  O  O12  1  0.31005400  0.94999300  0.88058700  1
  O  O13  1  0.81933300  0.44851800  0.87738700  1
  O  O14  1  0.06803100  0.20143400  0.37685000  1
  O  O15  1  0.56135800  0.70150100  0.37957600  1
  O  O16  1  0.18467100  0.57659600  0.63073400  1
  O  O17  1  0.68304400  0.06926700  0.63387100  1
  O  O18  1  0.93426900  0.82480000  0.13144900  1
  O  O19  1  0.43312800  0.32277900  0.13368100  1
  O  O20  1  0.44031700  0.80012800  0.61947100  1
  O  O21  1  0.94653300  0.30173000  0.62258100  1
  O  O22  1  0.19107100  0.04834500  0.12043000  1
  O  O23  1  0.69514200  0.54843500  0.12310200  1
  O  O24  1  0.94001600  0.80001500  0.61949200  1
  O  O25  1  0.43085500  0.30167400  0.62262400  1
  O  O26  1  0.68848700  0.04838100  0.12037800  1
  O  O27  1  0.18185400  0.54847200  0.12307000  1
  O  O28  1  0.06534900  0.17343600  0.86922200  1
  O  O29  1  0.56697400  0.68076300  0.86607600  1
  O  O30  1  0.81684200  0.42723300  0.36637500  1
  O  O31  1  0.31571900  0.92515100  0.36858800  1
loop_
_geom_bond_atom_site_label_1
_geom_bond_atom_site_label_2
_geom_bond_distance
_geom_bond_site_symmetry_2
Li0 O7 2.150793 1_555
Li0 O1 2.173485 1_556
Li0 O13 2.183104 1_555
Li0 O19 2.207703 1_556
Li0 O28 2.223060 1_655
Li0 O26 2.234194 1_556
Li1 O6 2.154543 1_554
Li1 O0 2.157763 1_555
Li1 O29 2.189989 1_554
Li1 O12 2.209901 1_554
Li1 O27 2.217699 1_555
Li1 O18 2.221003 1_455
Li2 O3 2.151166 1_555
Li2 O4 2.173061 1_555
Li2 O25 2.181266 1_555
Li2 O30 2.207295 1_555
Li2 O16 2.222926 1_555
Li2 O15 2.233451 1_555
Li3 O2 2.153367 1_655
Li3 O5 2.157508 1_545
Li3 O17 2.189711 1_555
Li3 O24 2.210123 1_545
Li3 O14 2.217115 1_655
Li3 O31 2.221134 1_645
Li4 O3 2.150237 1_555
Li4 O4 2.173085 1_655
Li4 O21 2.180798 1_555
Li4 O30 2.207104 1_555
Li4 O16 2.223095 1_655
Li4 O11 2.233942 1_655
Li5 O2 2.152791 1_555
Li5 O5 2.157920 1_545
Li5 O17 2.189628 1_555
Li5 O20 2.209158 1_545
Li5 O10 2.217488 1_555
Li5 O31 2.220875 1_545
Li6 O6 2.153720 1_654
Li6 O0 2.158179 1_555
Li6 O29 2.190003 1_554
Li6 O8 2.209093 1_554
Li6 O23 2.218010 1_555
Li6 O18 2.220767 1_555
Li7 O7 2.149949 1_555
Li7 O1 2.173491 1_456
Li7 O9 2.182378 1_555
Li7 O19 2.207494 1_556
Li7 O28 2.223247 1_555
Li7 O22 2.234516 1_556
Li8 O2 2.166025 1_565
Li8 O6 2.169059 1_555
Li8 O20 2.205467 1_555
Li8 O8 2.205841 1_455
Li8 O24 2.206630 1_455
Li8 O12 2.207092 1_555
Li9 O3 2.143339 1_555
Li9 O7 2.143817 1_555
Li9 O25 2.208747 1_555
Li9 O21 2.208810 1_555
Li9 O9 2.210520 1_555
Li9 O13 2.210928 1_555
Li10 O5 2.152177 1_545
Li10 O1 2.169496 1_555
Li10 O14 2.202640 1_655
Li10 O10 2.203556 1_555
Li10 O22 2.225517 1_655
Li10 O26 2.225977 1_555
Li11 O0 2.154271 1_555
Li11 O4 2.168116 1_555
Li11 O27 2.204174 1_555
Li11 O23 2.204675 1_555
Li11 O11 2.224349 1_555
Li11 O15 2.224451 1_555
O0 Ti4 2.063274 1_555
O0 Ti3 2.063715 1_555
O0 Ti11 2.088888 1_564
O1 Ti2 2.056737 1_655
O1 Ti5 2.056832 1_555
O1 Ti10 2.083666 1_654
O2 Ti8 2.030384 1_555
O2 Ti0 2.080079 1_555
O2 Ti6 2.081078 1_455
O3 Ti1 2.062751 1_555
O3 Ti7 2.063478 1_555
O3 Ti9 2.064610 1_555
O4 Ti2 2.054939 1_555
O4 Ti5 2.055329 1_555
O4 Ti8 2.086091 1_555
O5 Ti3 2.062500 1_555
O5 Ti4 2.062525 1_655
O5 Ti9 2.089437 1_555
O6 Ti10 2.029381 1_555
O6 Ti1 2.081262 1_455
O6 Ti7 2.082140 1_555
O7 Ti11 2.062200 1_555
O7 Ti0 2.065079 1_555
O7 Ti6 2.065303 1_555
O8 Ti11 1.996293 1_565
O8 V3 2.023079 1_665
O8 Ti6 2.062075 1_565
O9 Ti7 2.001150 1_555
O9 Ti10 2.008549 1_555
O9 V1 2.075774 1_555
O10 Ti5 2.000120 1_555
O10 Ti8 2.022874 1_555
O10 V0 2.078911 1_555
O11 Ti4 2.011600 1_555
O11 V2 2.031062 1_555
O11 Ti9 2.046543 1_455
O12 Ti11 1.995913 1_565
O12 V3 2.023300 1_565
O12 Ti0 2.062154 1_565
O13 Ti1 1.999670 1_555
O13 Ti10 2.009494 1_655
O13 V1 2.075693 1_555
O14 Ti2 2.000278 1_555
O14 Ti8 2.022470 1_555
O14 V0 2.078687 1_455
O15 Ti3 2.012164 1_555
O15 V2 2.031475 1_555
O15 Ti9 2.045340 1_555
O16 V2 2.016408 1_555
O16 Ti7 2.036272 1_555
O16 Ti1 2.036308 1_455
O17 Ti6 2.008277 1_555
O17 Ti0 2.008550 1_555
O17 V0 2.075941 1_555
O18 Ti3 2.019135 1_555
O18 Ti4 2.019257 1_655
O18 V3 2.036986 1_664
O19 Ti2 2.013504 1_555
O19 Ti5 2.013754 1_555
O19 V1 2.078674 1_554
O20 Ti9 1.998043 1_555
O20 V2 2.023167 1_555
O20 Ti7 2.059915 1_555
O21 Ti6 2.000437 1_555
O21 Ti8 2.008945 1_655
O21 V0 2.075795 1_555
O22 Ti4 2.012739 1_545
O22 V3 2.030996 1_554
O22 Ti11 2.046335 1_554
O23 Ti5 2.002229 1_555
O23 Ti10 2.020693 1_654
O23 V1 2.078756 1_554
O24 Ti9 1.998030 1_555
O24 V2 2.023232 1_655
O24 Ti1 2.059475 1_555
O25 Ti0 1.998794 1_555
O25 Ti8 2.009937 1_555
O25 V0 2.075680 1_555
O26 Ti3 2.013384 1_545
O26 V3 2.031391 1_654
O26 Ti11 2.045018 1_554
O27 Ti2 2.002964 1_555
O27 Ti10 2.019656 1_554
O27 V1 2.078502 1_554
O28 V3 2.016742 1_555
O28 Ti6 2.036460 1_455
O28 Ti0 2.036464 1_555
O29 Ti7 2.008292 1_555
O29 Ti1 2.008566 1_555
O29 V1 2.076433 1_555
O30 Ti2 2.013510 1_655
O30 Ti5 2.013744 1_555
O30 V0 2.078518 1_555
O31 Ti3 2.019272 1_555
O31 Ti4 2.019281 1_555
O31 V2 2.036287 1_555
