# generated using pymatgen
data_BaMgAl3P2(HO7)2
_symmetry_space_group_name_H-M   'P 1'
_cell_length_a   6.87823679
_cell_length_b   6.87828045
_cell_length_c   8.12783711
_cell_angle_alpha   66.42579013
_cell_angle_beta   113.57448695
_cell_angle_gamma   119.29622786
_symmetry_Int_Tables_number   1
_chemical_formula_structural   BaMgAl3P2(HO7)2
_chemical_formula_sum   'Ba1 Mg1 Al3 P2 H2 O14'
_cell_volume   297.15983108
_cell_formula_units_Z   1
loop_
 _symmetry_equiv_pos_site_id
 _symmetry_equiv_pos_as_xyz
  1  'x, y, z'
loop_
 _atom_site_type_symbol
 _atom_site_label
 _atom_site_symmetry_multiplicity
 _atom_site_fract_x
 _atom_site_fract_y
 _atom_site_fract_z
 _atom_site_occupancy
  Ba  Ba0  1  0.02882800  0.97116700  0.08579800  1
  Mg  Mg0  1  0.77192000  0.22807900  0.32194400  1
  Al  Al0  1  0.02295000  0.97704800  0.59548200  1
  Al  Al1  1  0.51419800  0.94164100  0.59372700  1
  Al  Al2  1  0.05835700  0.48579600  0.59372900  1
  P  P0  1  0.29416000  0.70584500  0.91664900  1
  P  P1  1  0.66354500  0.33645600  0.98703600  1
  H  H0  1  0.39242900  0.60757600  0.48955400  1
  H  H1  1  0.65329800  0.34669900  0.61457500  1
  O  O0  1  0.35756200  0.64245000  0.12247800  1
  O  O1  1  0.59873000  0.40127100  0.77951600  1
  O  O2  1  0.14251100  0.85749000  0.83053000  1
  O  O3  1  0.81295400  0.18704700  0.09372200  1
  O  O4  1  0.14646000  0.48871700  0.83036800  1
  O  O5  1  0.51128800  0.85354500  0.83036800  1
  O  O6  1  0.46565100  0.19373100  0.09268900  1
  O  O7  1  0.80627300  0.53434700  0.09269100  1
  O  O8  1  0.31434300  0.68565200  0.50091900  1
  O  O9  1  0.71290900  0.28709100  0.55789600  1
  O  O10  1  0.72480000  0.92882600  0.52801200  1
  O  O11  1  0.07117400  0.27519500  0.52801600  1
  O  O12  1  0.00078300  0.77453600  0.47625800  1
  O  O13  1  0.22545800  0.99921100  0.47625700  1
loop_
_geom_bond_atom_site_label_1
_geom_bond_atom_site_label_2
_geom_bond_distance
_geom_bond_site_symmetry_2
Ba0 O3 2.593159 1_465
Ba0 O7 2.608963 1_455
Ba0 O6 2.608969 1_565
Ba0 O2 2.953158 1_554
Ba0 O13 2.956204 1_555
Ba0 O12 2.956220 1_555
Ba0 O5 3.201589 1_454
Ba0 O4 3.201666 1_564
Mg0 O10 2.042266 1_545
Mg0 O11 2.042269 1_655
Mg0 O3 2.125003 1_555
Mg0 O6 2.165843 1_555
Mg0 O7 2.165847 1_555
Mg0 O9 2.326778 1_555
Al0 O2 1.775057 1_555
Al0 O11 1.787890 1_565
Al0 O10 1.787894 1_455
Al0 O13 1.912104 1_555
Al0 O12 1.912114 1_555
Al1 O5 1.775855 1_555
Al1 O10 1.781265 1_555
Al1 O8 1.850180 1_555
Al1 O13 1.990771 1_555
Al1 O9 2.045819 1_565
Al2 O4 1.775853 1_555
Al2 O11 1.781263 1_555
Al2 O8 1.850171 1_555
Al2 O12 1.990798 1_555
Al2 O9 2.045789 1_455
H0 O8 0.973161 1_555
H1 O9 1.007533 1_555
O0 P0 1.482599 1_554
O1 P1 1.494654 1_555
O2 P0 1.600842 1_555
O3 P1 1.572298 1_554
O4 P0 1.592904 1_555
O5 P0 1.592902 1_555
O6 P1 1.583302 1_554
O7 P1 1.583297 1_554
O12 O13 1.561782 1_555
