# generated using pymatgen
data_LaZnFeMoO6
_symmetry_space_group_name_H-M   'P 1'
_cell_length_a   5.53464777
_cell_length_b   7.77597074
_cell_length_c   5.96970040
_cell_angle_alpha   89.86284095
_cell_angle_beta   90.02479067
_cell_angle_gamma   89.42667366
_symmetry_Int_Tables_number   1
_chemical_formula_structural   LaZnFeMoO6
_chemical_formula_sum   'La2 Zn2 Fe2 Mo2 O12'
_cell_volume   256.90591741
_cell_formula_units_Z   2
loop_
 _symmetry_equiv_pos_site_id
 _symmetry_equiv_pos_as_xyz
  1  'x, y, z'
loop_
 _atom_site_type_symbol
 _atom_site_label
 _atom_site_symmetry_multiplicity
 _atom_site_fract_x
 _atom_site_fract_y
 _atom_site_fract_z
 _atom_site_occupancy
  La  La0  1  0.97879400  0.24742600  0.06987500  1
  La  La1  1  0.47934600  0.74817300  0.43080800  1
  Zn  Zn0  1  0.47709100  0.25368800  0.38624900  1
  Zn  Zn1  1  0.97774400  0.75347800  0.11297100  1
  Fe  Fe0  1  0.49555100  0.50440900  0.97392200  1
  Fe  Fe1  1  0.99491200  0.00362200  0.52491400  1
  Mo  Mo0  1  0.99982800  0.49659800  0.52928900  1
  Mo  Mo1  1  0.49931200  0.99684600  0.97000200  1
  O  O0  1  0.63329200  0.75217300  0.03341400  1
  O  O1  1  0.13287200  0.25180500  0.46807100  1
  O  O2  1  0.20343100  0.94170600  0.18301000  1
  O  O3  1  0.70319000  0.44205300  0.31655700  1
  O  O4  1  0.17578100  0.54973500  0.21238200  1
  O  O5  1  0.67527500  0.04955000  0.28846500  1
  O  O6  1  0.90895300  0.74789500  0.49376800  1
  O  O7  1  0.40761200  0.24751300  0.00631000  1
  O  O8  1  0.30451100  0.55242000  0.67859800  1
  O  O9  1  0.80413300  0.05311600  0.82152200  1
  O  O10  1  0.32395300  0.95354800  0.71718600  1
  O  O11  1  0.82441700  0.45424800  0.78268700  1
loop_
_geom_bond_atom_site_label_1
_geom_bond_atom_site_label_2
_geom_bond_distance
_geom_bond_site_symmetry_2
La0 O9 2.335433 1_554
La0 O7 2.403669 1_655
La0 O11 2.492743 1_554
La0 O1 2.525518 1_655
La0 O3 2.598499 1_555
La0 O5 2.633689 1_555
La0 O4 2.738330 1_655
La0 O2 2.754224 1_645
La1 O8 2.336966 1_555
La1 O6 2.407064 1_555
La1 O10 2.489902 1_555
La1 O0 2.521265 1_555
La1 O2 2.593534 1_555
La1 O4 2.638881 1_555
La1 O5 2.726186 1_565
La1 O3 2.759664 1_555
Fe0 O7 2.069403 1_556
Fe0 O8 2.086344 1_555
Fe0 O0 2.109870 1_556
Fe0 O11 2.181312 1_555
Fe0 O4 2.296740 1_556
Fe0 O3 2.391993 1_556
Fe1 O6 2.058099 1_545
Fe1 O9 2.096431 1_555
Fe1 O1 2.109295 1_655
Fe1 O10 2.183445 1_645
Fe1 O5 2.287440 1_555
Fe1 O2 2.392753 1_645
Mo0 O11 1.828811 1_555
Mo0 O8 1.960035 1_655
Mo0 O6 2.023515 1_555
Mo0 O1 2.067512 1_655
Mo0 O3 2.121988 1_555
Mo0 O4 2.168882 1_655
Mo1 O10 1.827791 1_555
Mo1 O9 1.958970 1_565
Mo1 O7 2.021431 1_566
Mo1 O0 2.069062 1_556
Mo1 O2 2.120321 1_556
Mo1 O5 2.177345 1_566
O0 Zn1 1.964619 1_555
O1 Zn0 1.967144 1_555
O2 Zn1 1.978994 1_455
O3 Zn0 1.979560 1_555
O4 Zn1 2.005925 1_455
O5 Zn0 2.008430 1_555
O6 Zn1 2.305448 1_555
O7 Zn0 2.301020 1_555
