# generated using pymatgen
data_Mg14ZrNi
_symmetry_space_group_name_H-M   'P 1'
_cell_length_a   6.36827733
_cell_length_b   6.13624376
_cell_length_c   9.99341952
_cell_angle_alpha   90.00000000
_cell_angle_beta   90.00000000
_cell_angle_gamma   118.80186226
_symmetry_Int_Tables_number   1
_chemical_formula_structural   Mg14ZrNi
_chemical_formula_sum   'Mg14 Zr1 Ni1'
_cell_volume   342.20555300
_cell_formula_units_Z   1
loop_
 _symmetry_equiv_pos_site_id
 _symmetry_equiv_pos_as_xyz
  1  'x, y, z'
loop_
 _atom_site_type_symbol
 _atom_site_label
 _atom_site_symmetry_multiplicity
 _atom_site_fract_x
 _atom_site_fract_y
 _atom_site_fract_z
 _atom_site_occupancy
  Mg  Mg0  1  0.16889265  0.33444582  0.62500000  1
  Mg  Mg1  1  0.16389985  0.83194943  0.62500000  1
  Mg  Mg2  1  0.63638934  0.30583660  0.12500000  1
  Mg  Mg3  1  0.66482014  0.33667068  0.62500000  1
  Mg  Mg4  1  0.63638934  0.83055174  0.12500000  1
  Mg  Mg5  1  0.66482014  0.82814846  0.62500000  1
  Mg  Mg6  1  0.33392562  0.16490595  0.36688334  1
  Mg  Mg7  1  0.33392562  0.16490595  0.88311666  1
  Mg  Mg8  1  0.33392562  0.66902067  0.36688334  1
  Mg  Mg9  1  0.33392562  0.66902067  0.88311666  1
  Mg  Mg10  1  0.83799119  0.16899609  0.38030118  1
  Mg  Mg11  1  0.83799119  0.16899609  0.86969882  1
  Mg  Mg12  1  0.86351277  0.68175689  0.34828864  1
  Mg  Mg13  1  0.86351277  0.68175689  0.90171136  1
  Zr  Zr0  1  0.13839022  0.31919461  0.12500000  1
  Ni  Ni0  1  0.18768792  0.84384346  0.12500000  1
loop_
_geom_bond_atom_site_label_1
_geom_bond_atom_site_label_2
_geom_bond_distance
_geom_bond_site_symmetry_2
Mg0 Mg10 3.064269 1_455
Mg0 Mg11 3.064269 1_455
Mg0 Mg1 3.068248 1_545
Mg0 Mg1 3.068248 1_555
Mg0 Mg7 3.145479 1_555
Mg0 Mg6 3.145479 1_555
Mg0 Mg8 3.145485 1_555
Mg0 Mg9 3.145485 1_555
Mg0 Mg5 3.151649 1_555
Mg0 Mg3 3.151649 1_555
Mg0 Mg5 3.216673 1_445
Mg0 Mg3 3.216673 1_455
Mg1 Mg8 3.141444 1_555
Mg1 Mg9 3.141444 1_555
Mg1 Mg7 3.141450 1_565
Mg1 Mg6 3.141450 1_565
Mg1 Mg3 3.167107 1_455
Mg1 Mg5 3.167107 1_455
Mg1 Mg3 3.201301 1_565
Mg1 Mg5 3.201302 1_555
Mg1 Mg12 3.233701 1_455
Mg1 Mg13 3.233701 1_455
Mg2 Ni0 2.897631 1_545
Mg2 Zr0 3.158207 1_655
Mg2 Zr0 3.211691 1_555
Mg3 Mg5 3.015827 1_555
Mg3 Mg5 3.120416 1_545
Mg3 Mg6 3.172521 1_555
Mg3 Mg7 3.172521 1_555
Mg4 Ni0 2.897631 1_555
Mg4 Zr0 3.158207 1_665
Mg4 Zr0 3.211690 1_555
Mg5 Mg8 3.172521 1_555
Mg5 Mg9 3.172521 1_555
Mg6 Ni0 2.970492 1_545
Mg6 Zr0 3.070170 1_555
Mg7 Ni0 2.970492 1_546
Mg7 Zr0 3.070170 1_556
Mg8 Ni0 2.970486 1_555
Mg8 Zr0 3.070176 1_555
Mg9 Ni0 2.970486 1_556
Mg9 Zr0 3.070176 1_556
Mg10 Zr0 3.052785 1_655
Mg10 Mg3 3.057447 1_555
Mg10 Mg5 3.057454 1_545
Mg10 Mg12 3.088042 1_545
Mg10 Mg12 3.088042 1_555
Mg10 Mg2 3.146651 1_555
Mg10 Mg4 3.146657 1_545
Mg10 Mg8 3.173250 1_655
Mg10 Mg6 3.173250 1_655
Mg10 Mg8 3.200823 1_545
Mg10 Mg6 3.200823 1_555
Mg11 Zr0 3.052785 1_656
Mg11 Mg3 3.057447 1_555
Mg11 Mg5 3.057454 1_545
Mg11 Mg13 3.088042 1_545
Mg11 Mg13 3.088042 1_555
Mg11 Mg2 3.146651 1_556
Mg11 Mg4 3.146657 1_546
Mg11 Mg9 3.173250 1_655
Mg11 Mg7 3.173250 1_655
Mg11 Mg9 3.200823 1_545
Mg11 Mg7 3.200823 1_555
Mg12 Ni0 2.872608 1_655
Mg12 Mg5 3.339171 1_555
Mg12 Mg3 3.339176 1_555
Mg13 Ni0 2.872608 1_656
Mg13 Mg5 3.339171 1_555
Mg13 Mg3 3.339176 1_555
Ni0 Zr0 3.080431 1_555
Ni0 Zr0 3.080431 1_565
