# generated using pymatgen
data_SbN
_symmetry_space_group_name_H-M   'P 1'
_cell_length_a   16.08323688
_cell_length_b   15.75571302
_cell_length_c   15.93783668
_cell_angle_alpha   89.31665733
_cell_angle_beta   87.00568722
_cell_angle_gamma   87.06706614
_symmetry_Int_Tables_number   1
_chemical_formula_structural   SbN
_chemical_formula_sum   'Sb50 N50'
_cell_volume   4027.72314722
_cell_formula_units_Z   50
loop_
 _symmetry_equiv_pos_site_id
 _symmetry_equiv_pos_as_xyz
  1  'x, y, z'
loop_
 _atom_site_type_symbol
 _atom_site_label
 _atom_site_symmetry_multiplicity
 _atom_site_fract_x
 _atom_site_fract_y
 _atom_site_fract_z
 _atom_site_occupancy
  Sb  Sb0  1  0.51715328  0.22268301  0.70430925  1
  Sb  Sb1  1  0.48515355  0.45937150  0.46418107  1
  Sb  Sb2  1  0.57059066  0.54984963  0.27662260  1
  Sb  Sb3  1  0.62838912  0.74252428  0.42119861  1
  Sb  Sb4  1  0.30412563  0.02762911  0.35032755  1
  Sb  Sb5  1  0.88162022  0.28304045  0.31338547  1
  Sb  Sb6  1  0.16524466  0.89489720  0.71353126  1
  Sb  Sb7  1  0.83734487  0.08087537  0.45078566  1
  Sb  Sb8  1  0.68628580  0.15178368  0.36549167  1
  Sb  Sb9  1  0.18944031  0.27999686  0.60227517  1
  Sb  Sb10  1  0.39512487  0.42259968  0.29240639  1
  Sb  Sb11  1  0.53622776  0.73865324  0.27218286  1
  Sb  Sb12  1  0.52922480  0.35167167  0.13731148  1
  Sb  Sb13  1  0.61626834  0.95567022  0.37552050  1
  Sb  Sb14  1  0.25086899  0.76838515  0.60192236  1
  Sb  Sb15  1  0.35439257  0.29769693  0.82740665  1
  Sb  Sb16  1  0.84358004  0.52174631  0.49098463  1
  Sb  Sb17  1  0.67377344  0.14756783  0.63326213  1
  Sb  Sb18  1  0.31789715  0.16481661  0.66268479  1
  Sb  Sb19  1  0.22519323  0.95301437  0.51732011  1
  Sb  Sb20  1  0.97631686  0.80477244  0.35261430  1
  Sb  Sb21  1  0.20660167  0.50213988  0.53119781  1
  Sb  Sb22  1  0.30881056  0.17803825  0.21261671  1
  Sb  Sb23  1  0.11048308  0.14336203  0.43186633  1
  Sb  Sb24  1  0.73664163  0.26120267  0.22244608  1
  Sb  Sb25  1  0.08046196  0.76113772  0.48959892  1
  Sb  Sb26  1  0.66485552  0.52603725  0.07044902  1
  Sb  Sb27  1  0.73790176  0.31136222  0.60348793  1
  Sb  Sb28  1  0.72153448  0.35891836  0.37610468  1
  Sb  Sb29  1  0.73765555  0.94124647  0.49360789  1
  Sb  Sb30  1  0.08758799  0.07100238  0.20035191  1
  Sb  Sb31  1  0.06764969  0.58649001  0.43906415  1
  Sb  Sb32  1  0.93476246  0.98807885  0.32072073  1
  Sb  Sb33  1  0.30773234  0.26080403  0.41889572  1
  Sb  Sb34  1  0.25688339  0.62167393  0.40506927  1
  Sb  Sb35  1  0.59276662  0.40356804  0.67858148  1
  Sb  Sb36  1  0.65674351  0.56532927  0.47068409  1
  Sb  Sb37  1  0.37693277  0.38882280  0.65715168  1
  Sb  Sb38  1  0.44890829  0.72237354  0.43328548  1
  Sb  Sb39  1  0.49444418  0.29566632  0.38918764  1
  Sb  Sb40  1  0.56571486  0.34546758  0.91220224  1
  Sb  Sb41  1  0.72650488  0.34770483  0.01857979  1
  Sb  Sb42  1  0.49951900  0.51503646  0.03078572  1
  Sb  Sb43  1  0.72481827  0.26057616  0.78377658  1
  Sb  Sb44  1  0.76994370  0.52637420  0.32716181  1
  Sb  Sb45  1  0.14187668  0.23292018  0.26735862  1
  Sb  Sb46  1  0.90270332  0.73796971  0.51178874  1
  Sb  Sb47  1  0.43812728  0.89320980  0.51137636  1
  Sb  Sb48  1  0.33265231  0.94024223  0.69924886  1
  Sb  Sb49  1  0.21888925  0.45542221  0.35414557  1
  N  N0  1  0.91475989  0.47518567  0.71023179  1
  N  N1  1  0.07993723  0.40166692  0.07537365  1
  N  N2  1  0.60617483  0.30613820  0.04157228  1
  N  N3  1  0.55908981  0.48573942  0.15098383  1
  N  N4  1  0.37302520  0.88000488  0.98381314  1
  N  N5  1  0.98666688  0.58621900  0.88999496  1
  N  N6  1  0.92869712  0.87888604  0.03429250  1
  N  N7  1  0.12425939  0.69915330  0.12664850  1
  N  N8  1  0.92538885  0.41515735  0.74665974  1
  N  N9  1  0.70593037  0.99489043  0.07467527  1
  N  N10  1  0.76585553  0.52403996  0.84565857  1
  N  N11  1  0.16189049  0.61823055  0.70891866  1
  N  N12  1  0.67600811  0.61672327  0.68341825  1
  N  N13  1  0.01575681  0.40559465  0.05184953  1
  N  N14  1  0.19855111  0.04645924  0.42917198  1
  N  N15  1  0.78090864  0.55445527  0.90527900  1
  N  N16  1  0.32040819  0.92592394  0.97002339  1
  N  N17  1  0.82489854  0.98994911  0.75771715  1
  N  N18  1  0.63413308  0.05885167  0.30475445  1
  N  N19  1  0.30993374  0.58119232  0.14629506  1
  N  N20  1  0.04587939  0.05342985  0.31920844  1
  N  N21  1  0.90714634  0.39842359  0.24023117  1
  N  N22  1  0.96613268  0.44164331  0.25260081  1
  N  N23  1  0.89123678  0.85142442  0.08778559  1
  N  N24  1  0.32032659  0.29068763  0.60074371  1
  N  N25  1  0.69216258  0.83435671  0.82801110  1
  N  N26  1  0.30403601  0.19727309  0.78426369  1
  N  N27  1  0.33421517  0.15687716  0.33754104  1
  N  N28  1  0.10343868  0.67216659  0.18877213  1
  N  N29  1  0.88324075  0.00514879  0.72108482  1
  N  N30  1  0.14222791  0.54758514  0.71081562  1
  N  N31  1  0.34430141  0.97324745  0.46639482  1
  N  N32  1  0.91804301  0.23628306  0.97211043  1
  N  N33  1  0.74273738  0.62927303  0.69098981  1
  N  N34  1  0.01238552  0.61492566  0.94607338  1
  N  N35  1  0.17950001  0.69196898  0.70897624  1
  N  N36  1  0.49854168  0.33408320  0.63126021  1
  N  N37  1  0.35953851  0.84317776  0.61001496  1
  N  N38  1  0.93953171  0.19575468  0.02534240  1
  N  N39  1  0.71317900  0.76719961  0.84078680  1
  N  N40  1  0.46152777  0.51979845  0.34686015  1
  N  N41  1  0.20025120  0.22530775  0.48646601  1
  N  N42  1  0.92998093  0.60951170  0.49044722  1
  N  N43  1  0.59506916  0.30279337  0.77332738  1
  N  N44  1  0.69170594  0.34856177  0.89393217  1
  N  N45  1  0.20334087  0.10627036  0.23794224  1
  N  N46  1  0.31421329  0.64348079  0.17784265  1
  N  N47  1  0.22438280  0.99559086  0.64348698  1
  N  N48  1  0.74036769  0.05248406  0.05686886  1
  N  N49  1  0.01997928  0.48697604  0.25973816  1
loop_
_geom_bond_atom_site_label_1
_geom_bond_atom_site_label_2
_geom_bond_distance
_geom_bond_site_symmetry_2
Sb0 Sb17 2.908075 1_555
Sb1 Sb39 2.849402 1_555
Sb1 Sb36 3.304439 1_555
Sb2 Sb44 3.347678 1_555
Sb3 Sb36 2.911890 1_555
Sb3 Sb38 2.916297 1_555
Sb7 Sb8 3.004954 1_555
Sb10 Sb39 2.964369 1_555
Sb10 Sb49 2.973293 1_555
Sb11 Sb3 2.867378 1_555
Sb11 Sb38 2.876667 1_555
Sb11 Sb2 2.998387 1_555
Sb13 Sb29 2.780922 1_555
Sb13 Sb3 3.425707 1_555
Sb14 Sb25 3.358383 1_555
Sb16 Sb44 2.921440 1_555
Sb16 Sb36 3.080742 1_555
Sb17 Sb27 2.853242 1_555
Sb17 Sb43 3.171132 1_555
Sb20 Sb25 2.876313 1_655
Sb20 Sb46 2.948799 1_555
Sb20 Sb32 2.974769 1_555
Sb21 Sb34 2.852658 1_555
Sb21 Sb49 2.918899 1_555
Sb24 Sb5 2.846592 1_555
Sb24 Sb28 2.901097 1_555
Sb24 Sb8 2.946504 1_555
Sb25 Sb31 2.896762 1_555
Sb25 Sb46 2.903431 1_455
Sb27 Sb35 2.897275 1_555
Sb27 Sb43 2.973258 1_555
Sb28 Sb44 2.876353 1_555
Sb28 Sb5 2.915846 1_555
Sb28 Sb8 3.348628 1_555
Sb29 Sb7 2.843777 1_565
Sb31 Sb34 3.139570 1_555
Sb32 Sb7 2.896236 1_565
Sb33 Sb39 3.091526 1_555
Sb34 Sb49 2.856532 1_555
Sb36 Sb44 2.899619 1_555
Sb38 Sb47 2.972147 1_555
N0 N8 1.114245 1_555
N1 N13 1.115005 1_555
N2 Sb12 2.027956 1_555
N2 Sb41 2.087692 1_555
N2 Sb40 2.264333 1_554
N3 Sb26 2.192531 1_555
N3 Sb12 2.205876 1_555
N3 Sb42 2.219529 1_555
N3 Sb2 2.273814 1_555
N10 N15 1.112631 1_555
N11 N30 1.172204 1_555
N11 N35 1.209843 1_555
N12 N33 1.114128 1_555
N14 Sb23 2.028060 1_555
N14 Sb19 2.067355 1_545
N14 Sb4 2.069940 1_555
N16 N4 1.113940 1_555
N17 N29 1.114053 1_565
N18 Sb13 1.991913 1_545
N18 Sb8 2.007200 1_555
N19 N46 1.114894 1_555
N20 Sb30 1.997201 1_555
N20 Sb32 2.106603 1_445
N20 Sb23 2.591812 1_555
N21 N22 1.221244 1_555
N21 Sb5 2.192863 1_555
N22 N49 1.161304 1_655
N23 N6 1.114126 1_555
N24 Sb37 2.071354 1_555
N24 Sb9 2.119228 1_555
N24 Sb18 2.205978 1_555
N25 N39 1.113892 1_555
N26 Sb15 1.961508 1_555
N26 Sb18 2.008169 1_555
N27 Sb22 2.073040 1_555
N27 Sb33 2.113155 1_555
N27 Sb4 2.122093 1_555
N28 N7 1.114964 1_555
N31 Sb47 2.068352 1_555
N31 Sb19 2.079414 1_555
N31 Sb4 2.145708 1_565
N32 N38 1.114500 1_556
N34 N5 1.114406 1_455
N35 Sb14 2.359259 1_555
N36 Sb35 2.091127 1_555
N36 Sb0 2.111790 1_555
N36 Sb37 2.119216 1_555
N37 Sb48 2.113859 1_555
N37 Sb47 2.134306 1_555
N37 Sb14 2.167461 1_555
N40 Sb2 2.102696 1_555
N40 Sb10 2.129549 1_555
N40 Sb1 2.131167 1_555
N41 Sb9 2.041705 1_555
N41 Sb33 2.085866 1_555
N41 Sb23 2.203970 1_555
N42 Sb16 2.009564 1_555
N42 Sb46 2.077135 1_555
N42 Sb31 2.332420 1_655
N43 Sb0 2.170827 1_555
N43 Sb43 2.171744 1_555
N43 Sb35 2.178366 1_555
N43 Sb40 2.338330 1_555
N44 Sb40 2.035034 1_555
N44 Sb41 2.091603 1_556
N44 Sb43 2.274308 1_555
N45 Sb30 2.088992 1_555
N45 Sb22 2.105423 1_555
N45 Sb45 2.225063 1_555
N45 Sb4 2.723213 1_555
N47 Sb19 2.126532 1_555
N47 Sb48 2.137830 1_555
N47 Sb6 2.160816 1_555
N48 N9 1.113373 1_545
