# generated using pymatgen
data_Ta2MoIr
_symmetry_space_group_name_H-M   'P 1'
_cell_length_a   4.52055750
_cell_length_b   4.52055750
_cell_length_c   4.52055750
_cell_angle_alpha   60.00000000
_cell_angle_beta   60.00000000
_cell_angle_gamma   60.00000000
_symmetry_Int_Tables_number   1
_chemical_formula_structural   Ta2MoIr
_chemical_formula_sum   'Ta2 Mo1 Ir1'
_cell_volume   65.32222873
_cell_formula_units_Z   1
loop_
 _symmetry_equiv_pos_site_id
 _symmetry_equiv_pos_as_xyz
  1  'x, y, z'
loop_
 _atom_site_type_symbol
 _atom_site_label
 _atom_site_symmetry_multiplicity
 _atom_site_fract_x
 _atom_site_fract_y
 _atom_site_fract_z
 _atom_site_occupancy
  Ta  Ta0  1  0.25000000  0.25000000  0.25000000  1
  Ta  Ta1  1  0.75000000  0.75000000  0.75000000  1
  Mo  Mo0  1  0.00000000  0.00000000  0.00000000  1
  Ir  Ir0  1  0.50000000  0.50000000  0.50000000  1
loop_
_geom_bond_atom_site_label_1
_geom_bond_atom_site_label_2
_geom_bond_distance
_geom_bond_site_symmetry_2
Mo0 Ta1 2.768265 1_444
Mo0 Ta1 2.768265 1_445
Mo0 Ta0 2.768265 1_555
Mo0 Ta0 2.768265 1_554
Mo0 Ta1 2.768265 1_454
Mo0 Ta1 2.768265 1_544
Mo0 Ta0 2.768265 1_455
Mo0 Ta0 2.768265 1_545
Ir0 Ta1 2.768265 1_554
Ir0 Ta0 2.768265 1_555
Ir0 Ta0 2.768265 1_556
Ir0 Ta1 2.768265 1_555
Ir0 Ta1 2.768265 1_455
Ir0 Ta1 2.768265 1_545
Ir0 Ta0 2.768265 1_655
Ir0 Ta0 2.768265 1_565
