# generated using pymatgen
data_Fe5(O4F)2
_symmetry_space_group_name_H-M   'P 1'
_cell_length_a   4.66136000
_cell_length_b   7.59680631
_cell_length_c   9.81417641
_cell_angle_alpha   70.27645324
_cell_angle_beta   86.76822650
_cell_angle_gamma   88.28465039
_symmetry_Int_Tables_number   1
_chemical_formula_structural   Fe5(O4F)2
_chemical_formula_sum   'Fe10 O16 F4'
_cell_volume   326.60277149
_cell_formula_units_Z   2
loop_
 _symmetry_equiv_pos_site_id
 _symmetry_equiv_pos_as_xyz
  1  'x, y, z'
loop_
 _atom_site_type_symbol
 _atom_site_label
 _atom_site_symmetry_multiplicity
 _atom_site_fract_x
 _atom_site_fract_y
 _atom_site_fract_z
 _atom_site_occupancy
  Fe  Fe0  1  0.50000000  0.50000000  0.50000000  1
  Fe  Fe1  1  0.52686300  0.70463400  0.91225300  1
  Fe  Fe2  1  0.52473600  0.90772700  0.30897100  1
  Fe  Fe3  1  0.47526400  0.09227300  0.69102900  1
  Fe  Fe4  1  0.47313700  0.29536600  0.08774700  1
  Fe  Fe5  1  0.01109200  0.19792400  0.40592700  1
  Fe  Fe6  1  0.00303100  0.59670900  0.20361200  1
  Fe  Fe7  1  0.00000000  0.00000000  0.00000000  1
  Fe  Fe8  1  0.99696900  0.40329100  0.79638800  1
  Fe  Fe9  1  0.98890800  0.80207600  0.59407300  1
  O  O0  1  0.18877800  0.02851400  0.57924600  1
  O  O1  1  0.17773400  0.23767900  0.96832800  1
  O  O2  1  0.18590800  0.43633500  0.37352800  1
  O  O3  1  0.31167500  0.73767900  0.47922200  1
  O  O4  1  0.30452300  0.14109700  0.27320300  1
  O  O5  1  0.30040800  0.33801700  0.67525400  1
  O  O6  1  0.30907000  0.93783600  0.88153800  1
  O  O7  1  0.30794600  0.53880000  0.07870400  1
  O  O8  1  0.69959200  0.66198300  0.32474600  1
  O  O9  1  0.69093000  0.06216400  0.11846200  1
  O  O10  1  0.69205400  0.46120000  0.92129600  1
  O  O11  1  0.69547700  0.85890300  0.72679700  1
  O  O12  1  0.68832500  0.26232100  0.52077800  1
  O  O13  1  0.82226600  0.76232100  0.03167200  1
  O  O14  1  0.81122200  0.97148600  0.42075400  1
  O  O15  1  0.81409200  0.56366500  0.62647200  1
  F  F0  1  0.20408500  0.84159000  0.18354000  1
  F  F1  1  0.19996700  0.64060900  0.78181000  1
  F  F2  1  0.80003300  0.35939100  0.21819000  1
  F  F3  1  0.79591500  0.15841000  0.81646000  1
loop_
_geom_bond_atom_site_label_1
_geom_bond_atom_site_label_2
_geom_bond_distance
_geom_bond_site_symmetry_2
Fe0 O3 1.936278 1_555
Fe0 O12 1.936278 1_555
Fe0 O8 1.948769 1_555
Fe0 O5 1.948769 1_555
Fe0 O15 2.137896 1_555
Fe0 O2 2.137896 1_555
Fe1 O11 1.938578 1_555
Fe1 O7 1.948578 1_556
Fe1 O6 1.956127 1_555
Fe1 O10 1.957667 1_555
Fe1 O13 2.006605 1_556
Fe2 O14 1.945262 1_555
Fe2 O4 1.957445 1_565
Fe2 O3 1.969719 1_555
Fe2 O9 1.970499 1_565
Fe2 O8 1.975235 1_555
Fe3 O0 1.945262 1_555
Fe3 O11 1.957445 1_545
Fe3 O12 1.969719 1_555
Fe3 O6 1.970499 1_545
Fe3 O5 1.975235 1_555
Fe4 O4 1.938578 1_555
Fe4 O10 1.948578 1_554
Fe4 O9 1.956127 1_555
Fe4 O7 1.957667 1_555
Fe4 O1 2.006605 1_554
Fe5 O2 1.927661 1_555
Fe5 O14 1.939070 1_445
Fe5 O0 1.962935 1_555
Fe5 O4 1.974142 1_555
Fe5 O12 1.977466 1_455
Fe6 O2 1.928380 1_555
Fe6 O13 1.950446 1_455
Fe6 O8 1.956057 1_455
Fe6 O7 1.961262 1_555
Fe7 O1 1.930000 1_554
Fe7 O13 1.930000 1_445
Fe7 O9 1.947113 1_455
Fe7 O6 1.947113 1_544
Fe8 O15 1.928380 1_555
Fe8 O1 1.950446 1_655
Fe8 O5 1.956057 1_655
Fe8 O10 1.961262 1_555
Fe9 O15 1.927661 1_555
Fe9 O0 1.939070 1_665
Fe9 O14 1.962935 1_555
Fe9 O11 1.974142 1_555
Fe9 O3 1.977466 1_655
F0 Fe6 2.052827 1_555
F0 Fe7 2.063833 1_565
F0 Fe2 2.161414 1_555
F1 Fe8 2.019634 1_455
F1 Fe9 2.115174 1_455
F1 Fe1 2.209515 1_555
F2 Fe6 2.019634 1_655
F2 Fe5 2.115174 1_655
F2 Fe4 2.209515 1_555
F3 Fe8 2.052827 1_555
F3 Fe7 2.063833 1_656
F3 Fe3 2.161414 1_555
