# generated using pymatgen
data_LiCSN
_symmetry_space_group_name_H-M   'P 1'
_cell_length_a   3.85878300
_cell_length_b   5.34539600
_cell_length_c   12.34309100
_cell_angle_alpha   90.00000000
_cell_angle_beta   90.00000000
_cell_angle_gamma   90.00000000
_symmetry_Int_Tables_number   1
_chemical_formula_structural   LiCSN
_chemical_formula_sum   'Li4 C4 S4 N4'
_cell_volume   254.59752165
_cell_formula_units_Z   4
loop_
 _symmetry_equiv_pos_site_id
 _symmetry_equiv_pos_as_xyz
  1  'x, y, z'
loop_
 _atom_site_type_symbol
 _atom_site_label
 _atom_site_symmetry_multiplicity
 _atom_site_fract_x
 _atom_site_fract_y
 _atom_site_fract_z
 _atom_site_occupancy
  Li  Li0  1  0.25000000  0.43864100  0.90123400  1
  Li  Li1  1  0.25000000  0.06135900  0.40123400  1
  Li  Li2  1  0.75000000  0.56135900  0.09876600  1
  Li  Li3  1  0.75000000  0.93864100  0.59876600  1
  C  C0  1  0.25000000  0.38955700  0.60946800  1
  C  C1  1  0.25000000  0.11044300  0.10946800  1
  C  C2  1  0.75000000  0.61044300  0.39053200  1
  C  C3  1  0.75000000  0.88955700  0.89053200  1
  S  S0  1  0.25000000  0.63771000  0.68582700  1
  S  S1  1  0.25000000  0.86229000  0.18582700  1
  S  S2  1  0.75000000  0.36229000  0.31417300  1
  S  S3  1  0.75000000  0.13771000  0.81417300  1
  N  N0  1  0.25000000  0.20581500  0.55471500  1
  N  N1  1  0.25000000  0.29418500  0.05471500  1
  N  N2  1  0.75000000  0.79418500  0.44528500  1
  N  N3  1  0.75000000  0.70581500  0.94528500  1
loop_
_geom_bond_atom_site_label_1
_geom_bond_atom_site_label_2
_geom_bond_distance
_geom_bond_site_symmetry_2
Li0 N1 2.045756 1_556
Li0 N3 2.461261 1_555
Li0 N3 2.461261 1_455
Li0 S3 2.732197 1_455
Li0 S3 2.732197 1_555
Li0 S0 2.863821 1_555
Li1 N0 2.045756 1_555
Li1 N2 2.461261 1_545
Li1 N2 2.461261 1_445
Li1 S2 2.732197 1_455
Li1 S2 2.732197 1_555
Li1 S1 2.863821 1_545
Li2 N3 2.045756 1_554
Li2 N1 2.461261 1_655
Li2 N1 2.461261 1_555
Li2 S1 2.732197 1_555
Li2 S1 2.732197 1_655
Li2 S2 2.863821 1_555
Li3 N2 2.045756 1_555
Li3 N0 2.461261 1_565
Li3 N0 2.461261 1_665
Li3 S0 2.732197 1_655
Li3 S0 2.732197 1_555
Li3 S3 2.863821 1_565
C0 N0 1.192225 1_555
C0 S0 1.627224 1_555
C1 N1 1.192225 1_555
C1 S1 1.627224 1_545
C2 N2 1.192225 1_555
C2 S2 1.627224 1_555
C3 N3 1.192225 1_555
C3 S3 1.627224 1_565
