# generated using pymatgen
data_Eu2As3Pt
_symmetry_space_group_name_H-M   'P 1'
_cell_length_a   4.42990006
_cell_length_b   4.42990006
_cell_length_c   8.46865300
_cell_angle_alpha   90.00000000
_cell_angle_beta   90.00000000
_cell_angle_gamma   120.00000082
_symmetry_Int_Tables_number   1
_chemical_formula_structural   Eu2As3Pt
_chemical_formula_sum   'Eu2 As3 Pt1'
_cell_volume   143.92386801
_cell_formula_units_Z   1
loop_
 _symmetry_equiv_pos_site_id
 _symmetry_equiv_pos_as_xyz
  1  'x, y, z'
loop_
 _atom_site_type_symbol
 _atom_site_label
 _atom_site_symmetry_multiplicity
 _atom_site_fract_x
 _atom_site_fract_y
 _atom_site_fract_z
 _atom_site_occupancy
  Eu  Eu0  1  0.33333300  0.66666700  0.24171500  1
  Eu  Eu1  1  0.33333300  0.66666700  0.75828500  1
  As  As0  1  0.66666700  0.33333300  0.50000000  1
  As  As1  1  0.00000000  0.00000000  0.00000000  1
  As  As2  1  0.00000000  0.00000000  0.50000000  1
  Pt  Pt0  1  0.66666700  0.33333300  0.00000000  1
loop_
_geom_bond_atom_site_label_1
_geom_bond_atom_site_label_2
_geom_bond_distance
_geom_bond_site_symmetry_2
Eu0 Pt0 3.275902 1_455
Eu0 Pt0 3.275902 1_565
Eu0 Pt0 3.275908 1_555
Eu1 Pt0 3.275902 1_456
Eu1 Pt0 3.275902 1_566
Eu1 Pt0 3.275908 1_556
As0 As2 2.557601 1_655
As0 As2 2.557605 1_665
As0 As2 2.557605 1_555
As0 Eu0 3.365371 1_545
As0 Eu1 3.365371 1_545
As0 Eu0 3.365371 1_655
As0 Eu1 3.365371 1_655
As0 Eu0 3.365377 1_555
As0 Eu1 3.365377 1_555
As1 Pt0 2.557601 1_455
As1 Pt0 2.557605 1_555
As1 Pt0 2.557605 1_445
As1 Eu1 3.275902 1_544
As1 Eu0 3.275902 1_545
As1 Eu1 3.275905 1_554
As1 Eu0 3.275905 1_445
As1 Eu0 3.275905 1_555
As1 Eu1 3.275905 1_444
As2 Eu0 3.365371 1_545
As2 Eu1 3.365371 1_545
As2 Eu0 3.365374 1_555
As2 Eu0 3.365374 1_445
As2 Eu1 3.365374 1_555
As2 Eu1 3.365374 1_445
