# generated using pymatgen
data_ZnAg(PO3)3
_symmetry_space_group_name_H-M   'P 1'
_cell_length_a   10.15163100
_cell_length_b   10.89338800
_cell_length_c   14.17462600
_cell_angle_alpha   90.00000000
_cell_angle_beta   90.00000000
_cell_angle_gamma   90.00000000
_symmetry_Int_Tables_number   1
_chemical_formula_structural   ZnAg(PO3)3
_chemical_formula_sum   'Zn8 Ag8 P24 O72'
_cell_volume   1567.51030507
_cell_formula_units_Z   8
loop_
 _symmetry_equiv_pos_site_id
 _symmetry_equiv_pos_as_xyz
  1  'x, y, z'
loop_
 _atom_site_type_symbol
 _atom_site_label
 _atom_site_symmetry_multiplicity
 _atom_site_fract_x
 _atom_site_fract_y
 _atom_site_fract_z
 _atom_site_occupancy
  Zn  Zn0  1  0.50000000  0.00000000  0.50000000  1
  Zn  Zn1  1  0.50000000  0.00000000  0.00000000  1
  Zn  Zn2  1  0.00000000  0.00000000  0.50000000  1
  Zn  Zn3  1  0.00000000  0.00000000  0.00000000  1
  Zn  Zn4  1  0.03267900  0.50000000  0.25000000  1
  Zn  Zn5  1  0.46732100  0.50000000  0.75000000  1
  Zn  Zn6  1  0.96732100  0.50000000  0.75000000  1
  Zn  Zn7  1  0.53267900  0.50000000  0.25000000  1
  Ag  Ag0  1  0.47824400  0.75196200  0.12363000  1
  Ag  Ag1  1  0.47824400  0.24803800  0.37637000  1
  Ag  Ag2  1  0.02175600  0.75196200  0.87637000  1
  Ag  Ag3  1  0.02175600  0.24803800  0.62363000  1
  Ag  Ag4  1  0.52175600  0.24803800  0.87637000  1
  Ag  Ag5  1  0.52175600  0.75196200  0.62363000  1
  Ag  Ag6  1  0.97824400  0.24803800  0.12363000  1
  Ag  Ag7  1  0.97824400  0.75196200  0.37637000  1
  P  P0  1  0.28502200  0.52842100  0.39901600  1
  P  P1  1  0.28502200  0.47157900  0.10098400  1
  P  P2  1  0.21497800  0.52842100  0.60098400  1
  P  P3  1  0.21497800  0.47157900  0.89901600  1
  P  P4  1  0.71497800  0.47157900  0.60098400  1
  P  P5  1  0.71497800  0.52842100  0.89901600  1
  P  P6  1  0.78502200  0.47157900  0.39901600  1
  P  P7  1  0.78502200  0.52842100  0.10098400  1
  P  P8  1  0.44898600  0.74836000  0.37395200  1
  P  P9  1  0.44898600  0.25164000  0.12604800  1
  P  P10  1  0.05101400  0.74836000  0.62604800  1
  P  P11  1  0.05101400  0.25164000  0.87395200  1
  P  P12  1  0.55101400  0.25164000  0.62604800  1
  P  P13  1  0.55101400  0.74836000  0.87395200  1
  P  P14  1  0.94898600  0.25164000  0.37395200  1
  P  P15  1  0.94898600  0.74836000  0.12604800  1
  P  P16  1  0.26191500  0.95439100  0.35136400  1
  P  P17  1  0.26191500  0.04560900  0.14863600  1
  P  P18  1  0.23808500  0.95439100  0.64863600  1
  P  P19  1  0.23808500  0.04560900  0.85136400  1
  P  P20  1  0.73808500  0.04560900  0.64863600  1
  P  P21  1  0.73808500  0.95439100  0.85136400  1
  P  P22  1  0.76191500  0.04560900  0.35136400  1
  P  P23  1  0.76191500  0.95439100  0.14863600  1
  O  O0  1  0.25000000  0.53169600  0.00000000  1
  O  O1  1  0.25000000  0.46830400  0.50000000  1
  O  O2  1  0.75000000  0.46830400  0.00000000  1
  O  O3  1  0.75000000  0.53169600  0.50000000  1
  O  O4  1  0.16108800  0.56643700  0.34974000  1
  O  O5  1  0.16108800  0.43356300  0.15026000  1
  O  O6  1  0.33891200  0.56643700  0.65026000  1
  O  O7  1  0.33891200  0.43356300  0.84974000  1
  O  O8  1  0.83891200  0.43356300  0.65026000  1
  O  O9  1  0.83891200  0.56643700  0.84974000  1
  O  O10  1  0.66108800  0.43356300  0.34974000  1
  O  O11  1  0.66108800  0.56643700  0.15026000  1
  O  O12  1  0.37930200  0.55691300  0.15026000  1
  O  O13  1  0.37930200  0.44308700  0.34974000  1
  O  O14  1  0.12069800  0.55691300  0.84974000  1
  O  O15  1  0.12069800  0.44308700  0.65026000  1
  O  O16  1  0.62069800  0.44308700  0.84974000  1
  O  O17  1  0.62069800  0.55691300  0.65026000  1
  O  O18  1  0.87930200  0.44308700  0.15026000  1
  O  O19  1  0.87930200  0.55691300  0.34974000  1
  O  O20  1  0.36226400  0.65102900  0.43343400  1
  O  O21  1  0.36226400  0.34897100  0.06656600  1
  O  O22  1  0.13773600  0.65102900  0.56656600  1
  O  O23  1  0.13773600  0.34897100  0.93343400  1
  O  O24  1  0.63773600  0.34897100  0.56656600  1
  O  O25  1  0.63773600  0.65102900  0.93343400  1
  O  O26  1  0.86226400  0.34897100  0.43343400  1
  O  O27  1  0.97583100  0.31709000  0.79784200  1
  O  O28  1  0.86226400  0.65102900  0.06656600  1
  O  O29  1  0.52310000  0.17665300  0.05458000  1
  O  O30  1  0.97690000  0.82334700  0.55458000  1
  O  O31  1  0.97690000  0.17665300  0.94542000  1
  O  O32  1  0.47690000  0.17665300  0.55458000  1
  O  O33  1  0.47690000  0.82334700  0.94542000  1
  O  O34  1  0.02310000  0.17665300  0.44542000  1
  O  O35  1  0.02310000  0.82334700  0.05458000  1
  O  O36  1  0.02416900  0.68291000  0.20215800  1
  O  O37  1  0.02416900  0.31709000  0.29784200  1
  O  O38  1  0.47583100  0.68291000  0.79784200  1
  O  O39  1  0.47583100  0.31709000  0.70215800  1
  O  O40  1  0.71016100  0.00000000  0.25000000  1
  O  O41  1  0.78983900  0.00000000  0.75000000  1
  O  O42  1  0.28983900  0.00000000  0.75000000  1
  O  O43  1  0.21016100  0.00000000  0.25000000  1
  O  O44  1  0.64130800  0.91816400  0.09353900  1
  O  O45  1  0.64130800  0.08183600  0.40646100  1
  O  O46  1  0.85869200  0.91816400  0.90646100  1
  O  O47  1  0.85869200  0.08183600  0.59353900  1
  O  O48  1  0.35869200  0.08183600  0.90646100  1
  O  O49  1  0.35869200  0.91816400  0.59353900  1
  O  O50  1  0.14130800  0.08183600  0.09353900  1
  O  O51  1  0.14130800  0.91816400  0.40646100  1
  O  O52  1  0.85765900  0.95571600  0.39389200  1
  O  O53  1  0.85765900  0.04428400  0.10610800  1
  O  O54  1  0.64234100  0.95571600  0.60610800  1
  O  O55  1  0.64234100  0.04428400  0.89389200  1
  O  O56  1  0.14234100  0.04428400  0.60610800  1
  O  O57  1  0.14234100  0.95571600  0.89389200  1
  O  O58  1  0.35765900  0.04428400  0.39389200  1
  O  O59  1  0.35765900  0.95571600  0.10610800  1
  O  O60  1  0.83962500  0.83071200  0.17976100  1
  O  O61  1  0.83962500  0.16928800  0.32023900  1
  O  O62  1  0.66037500  0.83071200  0.82023900  1
  O  O63  1  0.66037500  0.16928800  0.67976100  1
  O  O64  1  0.16037500  0.16928800  0.82023900  1
  O  O65  1  0.16037500  0.83071200  0.67976100  1
  O  O66  1  0.33962500  0.16928800  0.17976100  1
  O  O67  1  0.33962500  0.83071200  0.32023900  1
  O  O68  1  0.52416900  0.68291000  0.29784200  1
  O  O69  1  0.52416900  0.31709000  0.20215800  1
  O  O70  1  0.97583100  0.68291000  0.70215800  1
  O  O71  1  0.52310000  0.82334700  0.44542000  1
loop_
_geom_bond_atom_site_label_1
_geom_bond_atom_site_label_2
_geom_bond_distance
_geom_bond_site_symmetry_2
Ag0 O12 2.380313 1_555
Ag0 O44 2.489996 1_555
Ag0 O59 2.546898 1_555
Ag0 O68 2.623178 1_555
Ag0 O33 2.643079 1_554
Ag0 O11 2.769884 1_555
Ag1 O13 2.380313 1_555
Ag1 O45 2.489996 1_555
Ag1 O58 2.546898 1_555
Ag1 O69 2.623178 1_555
Ag1 O32 2.643079 1_555
Ag1 O10 2.769884 1_555
Ag2 O14 2.380313 1_555
Ag2 O46 2.489996 1_455
Ag2 O57 2.546898 1_555
Ag2 O70 2.623178 1_455
Ag2 O35 2.643079 1_556
Ag2 O9 2.769884 1_455
Ag3 O15 2.380313 1_555
Ag3 O47 2.489996 1_455
Ag3 O56 2.546898 1_555
Ag3 O27 2.623178 1_455
Ag3 O34 2.643079 1_555
Ag3 O8 2.769884 1_455
Ag4 O16 2.380313 1_555
Ag4 O48 2.489996 1_555
Ag4 O55 2.546898 1_555
Ag4 O39 2.623178 1_555
Ag4 O29 2.643079 1_556
Ag4 O7 2.769884 1_555
Ag5 O17 2.380313 1_555
Ag5 O49 2.489996 1_555
Ag5 O54 2.546898 1_555
Ag5 O38 2.623178 1_555
Ag5 O71 2.643079 1_555
Ag5 O6 2.769884 1_555
Ag6 O18 2.380313 1_555
Ag6 O50 2.489996 1_655
Ag6 O53 2.546898 1_555
Ag6 O37 2.623178 1_655
Ag6 O31 2.643079 1_554
Ag6 O5 2.769884 1_655
Ag7 O19 2.380313 1_555
Ag7 O51 2.489996 1_655
Ag7 O52 2.546898 1_555
Ag7 O36 2.623178 1_655
Ag7 O30 2.643079 1_555
Ag7 O4 2.769884 1_655
O0 P1 1.613754 1_555
O0 P3 1.613754 1_554
O1 P2 1.613754 1_555
O1 P0 1.613754 1_555
O2 P7 1.613754 1_555
O2 P5 1.613754 1_554
O3 P4 1.613754 1_555
O3 P6 1.613754 1_555
O4 P0 1.497416 1_555
O4 Zn4 2.054705 1_555
O5 P1 1.497416 1_555
O5 Zn4 2.054705 1_555
O6 P2 1.497416 1_555
O6 Zn5 2.054705 1_555
O7 P3 1.497416 1_555
O7 Zn5 2.054705 1_555
O8 P4 1.497416 1_555
O8 Zn6 2.054705 1_555
O9 P5 1.497416 1_555
O9 Zn6 2.054705 1_555
O10 P6 1.497416 1_555
O10 Zn7 2.054705 1_555
O11 P7 1.497416 1_555
O11 Zn7 2.054705 1_555
O12 P1 1.505989 1_555
O12 Zn7 2.192594 1_555
O13 P0 1.505989 1_555
O13 Zn7 2.192594 1_555
O14 P3 1.505989 1_555
O14 Zn6 2.192594 1_455
O15 P2 1.505989 1_555
O15 Zn6 2.192594 1_455
O16 P5 1.505989 1_555
O16 Zn5 2.192594 1_555
O17 P4 1.505989 1_555
O17 Zn5 2.192594 1_555
O18 P7 1.505989 1_555
O18 Zn4 2.192594 1_655
O19 P6 1.505989 1_555
O19 Zn4 2.192594 1_655
O20 P8 1.615577 1_555
O20 P0 1.623806 1_555
O21 P9 1.615577 1_555
O21 P1 1.623806 1_555
O22 P10 1.615577 1_555
O22 P2 1.623806 1_555
O23 P11 1.615577 1_555
O23 P3 1.623806 1_555
O24 P12 1.615577 1_555
O24 P4 1.623806 1_555
O25 P13 1.615577 1_555
O25 P5 1.623806 1_555
O26 P14 1.615577 1_555
O26 P6 1.623806 1_555
O27 P11 1.501574 1_655
O27 Zn6 2.106522 1_555
O28 P15 1.615577 1_555
O28 P7 1.623806 1_555
O29 P9 1.503187 1_555
O29 Zn1 2.087259 1_555
O30 P10 1.503187 1_655
O30 Zn2 2.087259 1_665
O31 P11 1.503187 1_655
O31 Zn3 2.087259 1_656
O32 P12 1.503187 1_555
O32 Zn0 2.087259 1_555
O33 P13 1.503187 1_555
O33 Zn1 2.087259 1_566
O34 P14 1.503187 1_455
O34 Zn2 2.087259 1_555
O35 P15 1.503187 1_455
O35 Zn3 2.087259 1_565
O36 P15 1.501574 1_455
O36 Zn4 2.106522 1_555
O37 P14 1.501574 1_455
O37 Zn4 2.106522 1_555
O38 P13 1.501574 1_555
O38 Zn5 2.106522 1_555
O39 P12 1.501574 1_555
O39 Zn5 2.106522 1_555
O40 P23 1.608497 1_545
O40 P22 1.608497 1_555
O41 P21 1.608497 1_545
O41 P20 1.608497 1_555
O42 P18 1.608497 1_545
O42 P19 1.608497 1_555
O43 P16 1.608497 1_545
O43 P17 1.608497 1_555
O44 P23 1.504898 1_555
O44 Zn1 2.147205 1_565
O45 P22 1.504898 1_555
O45 Zn0 2.147205 1_555
O46 P21 1.504898 1_555
O46 Zn3 2.147205 1_666
O47 P20 1.504898 1_555
O47 Zn2 2.147205 1_655
O48 P19 1.504898 1_555
O48 Zn1 2.147205 1_556
O49 P18 1.504898 1_555
O49 Zn0 2.147205 1_565
O50 P17 1.504898 1_555
O50 Zn3 2.147205 1_555
O51 P16 1.504898 1_555
O51 Zn2 2.147205 1_565
O52 P22 1.505657 1_565
O52 Zn2 2.140761 1_665
O53 P23 1.505657 1_545
O53 Zn3 2.140761 1_655
O54 P20 1.505657 1_565
O54 Zn0 2.140761 1_565
O55 P21 1.505657 1_545
O55 Zn1 2.140761 1_556
O56 P18 1.505657 1_545
O56 Zn2 2.140761 1_555
O57 P19 1.505657 1_565
O57 Zn3 2.140761 1_566
O58 P16 1.505657 1_545
O58 Zn0 2.140761 1_555
O59 P17 1.505657 1_565
O59 Zn1 2.140761 1_565
O60 P15 1.617706 1_555
O60 P23 1.622391 1_555
O61 P14 1.617706 1_555
O61 P22 1.622391 1_555
O62 P13 1.617706 1_555
O62 P21 1.622391 1_555
O63 P12 1.617706 1_555
O63 P20 1.622391 1_555
O64 P11 1.617706 1_555
O64 P19 1.622391 1_555
O65 P10 1.617706 1_555
O65 P18 1.622391 1_555
O66 P9 1.617706 1_555
O66 P17 1.622391 1_555
O67 P8 1.617706 1_555
O67 P16 1.622391 1_555
O68 P8 1.501574 1_555
O68 Zn7 2.106522 1_555
O69 P9 1.501574 1_555
O69 Zn7 2.106522 1_555
O70 P10 1.501574 1_655
O70 Zn6 2.106522 1_555
O71 P8 1.503187 1_555
O71 Zn0 2.087259 1_565
