# generated using pymatgen
data_Tm2Mn12P7
_symmetry_space_group_name_H-M   'P 1'
_cell_length_a   3.58140800
_cell_length_b   9.25400759
_cell_length_c   9.25788740
_cell_angle_alpha   119.94937174
_cell_angle_beta   90.00000000
_cell_angle_gamma   90.00000000
_symmetry_Int_Tables_number   1
_chemical_formula_structural   Tm2Mn12P7
_chemical_formula_sum   'Tm2 Mn12 P7'
_cell_volume   265.85664012
_cell_formula_units_Z   1
loop_
 _symmetry_equiv_pos_site_id
 _symmetry_equiv_pos_as_xyz
  1  'x, y, z'
loop_
 _atom_site_type_symbol
 _atom_site_label
 _atom_site_symmetry_multiplicity
 _atom_site_fract_x
 _atom_site_fract_y
 _atom_site_fract_z
 _atom_site_occupancy
  Tm  Tm0  1  0.00000000  0.66636900  0.33314200  1
  Tm  Tm1  1  0.50000000  0.33332200  0.66662300  1
  Mn  Mn0  1  0.00000000  0.37660900  0.95089200  1
  Mn  Mn1  1  0.00000000  0.04921200  0.42588200  1
  Mn  Mn2  1  0.00000000  0.57384000  0.62301200  1
  Mn  Mn3  1  0.00000000  0.88008800  0.72319300  1
  Mn  Mn4  1  0.00000000  0.27730100  0.15720300  1
  Mn  Mn5  1  0.00000000  0.84283400  0.11982600  1
  Mn  Mn6  1  0.50000000  0.95526200  0.56314700  1
  Mn  Mn7  1  0.50000000  0.43703100  0.39216000  1
  Mn  Mn8  1  0.50000000  0.60755300  0.04473200  1
  Mn  Mn9  1  0.50000000  0.12485400  0.89690900  1
  Mn  Mn10  1  0.50000000  0.10360100  0.22806000  1
  Mn  Mn11  1  0.50000000  0.77196100  0.87521800  1
  P  P0  1  0.00000000  0.12133000  0.70936000  1
  P  P1  1  0.00000000  0.29083700  0.41177600  1
  P  P2  1  0.00000000  0.58782600  0.87863800  1
  P  P3  1  0.50000000  0.71851500  0.59047700  1
  P  P4  1  0.50000000  0.40939400  0.12826900  1
  P  P5  1  0.50000000  0.87181400  0.28125700  1
  P  P6  1  0.00000000  0.00044800  0.00022400  1
loop_
_geom_bond_atom_site_label_1
_geom_bond_atom_site_label_2
_geom_bond_distance
_geom_bond_site_symmetry_2
Mn0 P0 2.303570 1_555
Mn0 P4 2.344745 1_456
Mn0 P4 2.344745 1_556
Mn0 P2 2.360805 1_555
Mn1 P1 2.303976 1_555
Mn1 P5 2.345135 1_545
Mn1 P5 2.345135 1_445
Mn1 P0 2.363073 1_555
Mn2 P2 2.304673 1_555
Mn2 P3 2.343595 1_455
Mn2 P3 2.343595 1_555
Mn2 P1 2.359950 1_555
Mn3 P6 2.228482 1_566
Mn3 P3 2.262206 1_455
Mn3 P3 2.262206 1_555
Mn3 P0 2.299069 1_565
Mn4 P6 2.226717 1_555
Mn4 P4 2.258218 1_555
Mn4 P4 2.258218 1_455
Mn4 P1 2.296839 1_555
Mn5 P6 2.228445 1_565
Mn5 P5 2.260955 1_555
Mn5 P5 2.260955 1_455
Mn5 P2 2.300753 1_554
Mn6 P0 2.307292 1_565
Mn6 P0 2.307292 1_665
Mn6 P5 2.322649 1_555
Mn6 P3 2.327522 1_555
Mn7 P1 2.305471 1_555
Mn7 P1 2.305471 1_655
Mn7 P3 2.319692 1_555
Mn7 P4 2.325973 1_555
Mn8 P2 2.307407 1_654
Mn8 P2 2.307407 1_554
Mn8 P4 2.318798 1_555
Mn8 P5 2.329917 1_555
Mn9 P4 2.426905 1_556
Mn9 P0 2.483125 1_655
Mn9 P0 2.483125 1_555
Mn9 P6 2.558578 1_656
Mn9 P6 2.558578 1_556
Mn10 P5 2.428611 1_545
Mn10 P1 2.481760 1_555
Mn10 P1 2.481760 1_655
Mn10 P6 2.560569 1_555
Mn10 P6 2.560569 1_655
Mn11 P3 2.427313 1_555
Mn11 P2 2.482954 1_555
Mn11 P2 2.482954 1_655
Mn11 P6 2.563877 1_666
Mn11 P6 2.563877 1_566
P0 Tm1 2.826079 1_555
P0 Tm1 2.826079 1_455
P1 Tm1 2.828697 1_455
P1 Tm1 2.828697 1_555
P2 Tm1 2.826735 1_555
P2 Tm1 2.826735 1_455
P3 Tm0 2.822646 1_555
P3 Tm0 2.822646 1_655
P4 Tm0 2.820577 1_555
P4 Tm0 2.820577 1_655
P5 Tm0 2.822004 1_555
P5 Tm0 2.822004 1_655
