# generated using pymatgen
data_Rb3GdF6
_symmetry_space_group_name_H-M   'P 1'
_cell_length_a   7.07157272
_cell_length_b   7.07157272
_cell_length_c   7.07157272
_cell_angle_alpha   117.85608423
_cell_angle_beta   117.85608423
_cell_angle_gamma   93.75529891
_symmetry_Int_Tables_number   1
_chemical_formula_structural   Rb3GdF6
_chemical_formula_sum   'Rb3 Gd1 F6'
_cell_volume   257.55817556
_cell_formula_units_Z   1
loop_
 _symmetry_equiv_pos_site_id
 _symmetry_equiv_pos_as_xyz
  1  'x, y, z'
loop_
 _atom_site_type_symbol
 _atom_site_label
 _atom_site_symmetry_multiplicity
 _atom_site_fract_x
 _atom_site_fract_y
 _atom_site_fract_z
 _atom_site_occupancy
  Rb  Rb0  1  0.75000000  0.25000000  0.50000000  1
  Rb  Rb1  1  0.25000000  0.75000000  0.50000000  1
  Rb  Rb2  1  0.50000000  0.50000000  0.00000000  1
  Gd  Gd0  1  0.00000000  0.00000000  0.00000000  1
  F  F0  1  0.00000000  0.30407300  0.30407300  1
  F  F1  1  0.00000000  0.69592700  0.69592700  1
  F  F2  1  0.30407300  0.00000000  0.30407300  1
  F  F3  1  0.69592700  0.00000000  0.69592700  1
  F  F4  1  0.23356100  0.23356100  0.00000000  1
  F  F5  1  0.76643900  0.76643900  0.00000000  1
loop_
_geom_bond_atom_site_label_1
_geom_bond_atom_site_label_2
_geom_bond_distance
_geom_bond_site_symmetry_2
F0 Gd0 2.219574 1_555
F0 Rb0 2.808355 1_455
F0 Rb1 2.808355 1_555
F1 Gd0 2.219574 1_566
F1 Rb0 2.808355 1_455
F1 Rb1 2.808355 1_555
F2 Gd0 2.219574 1_555
F2 Rb1 2.808355 1_545
F2 Rb0 2.808355 1_555
F3 Gd0 2.219574 1_656
F3 Rb0 2.808355 1_555
F3 Rb1 2.808355 1_545
F4 Gd0 2.257990 1_555
F4 Rb2 2.575844 1_555
F5 Gd0 2.257990 1_665
F5 Rb2 2.575844 1_555
