# generated using pymatgen
data_Sr(BO4)2
_symmetry_space_group_name_H-M   'P 1'
_cell_length_a   15.66210900
_cell_length_b   8.36242800
_cell_length_c   10.69395505
_cell_angle_alpha   62.31483034
_cell_angle_beta   90.00000000
_cell_angle_gamma   90.00000000
_symmetry_Int_Tables_number   1
_chemical_formula_structural   Sr(BO4)2
_chemical_formula_sum   'Sr8 B16 O64'
_cell_volume   1240.27039669
_cell_formula_units_Z   8
loop_
 _symmetry_equiv_pos_site_id
 _symmetry_equiv_pos_as_xyz
  1  'x, y, z'
loop_
 _atom_site_type_symbol
 _atom_site_label
 _atom_site_symmetry_multiplicity
 _atom_site_fract_x
 _atom_site_fract_y
 _atom_site_fract_z
 _atom_site_occupancy
  Sr  Sr0  1  0.83188200  0.99101900  0.77153700  1
  Sr  Sr1  1  0.66811800  0.99101900  0.27153700  1
  Sr  Sr2  1  0.16811800  0.00898100  0.22846300  1
  Sr  Sr3  1  0.33188200  0.00898100  0.72846300  1
  Sr  Sr4  1  0.58879200  0.51846500  0.73099700  1
  Sr  Sr5  1  0.91120800  0.51846500  0.23099700  1
  Sr  Sr6  1  0.41120800  0.48153500  0.26900300  1
  Sr  Sr7  1  0.08879200  0.48153500  0.76900300  1
  B  B0  1  0.00646900  0.23307200  0.57861600  1
  B  B1  1  0.49353100  0.23307200  0.07861600  1
  B  B2  1  0.99353100  0.76692800  0.42138400  1
  B  B3  1  0.50646900  0.76692800  0.92138400  1
  B  B4  1  0.97757500  0.21476900  0.07183200  1
  B  B5  1  0.52242500  0.21476900  0.57183200  1
  B  B6  1  0.02242500  0.78523100  0.92816800  1
  B  B7  1  0.47757500  0.78523100  0.42816800  1
  B  B8  1  0.73808900  0.28432000  0.43260300  1
  B  B9  1  0.76191100  0.28432000  0.93260300  1
  B  B10  1  0.26191100  0.71568000  0.56739700  1
  B  B11  1  0.23808900  0.71568000  0.06739700  1
  B  B12  1  0.77652100  0.72417700  0.57273100  1
  B  B13  1  0.72347900  0.72417700  0.07273100  1
  B  B14  1  0.22347900  0.27582300  0.42726900  1
  B  B15  1  0.27652100  0.27582300  0.92726900  1
  O  O0  1  0.57615100  0.71481900  0.86183800  1
  O  O1  1  0.92384900  0.71481900  0.36183800  1
  O  O2  1  0.42384900  0.28518100  0.13816200  1
  O  O3  1  0.07615100  0.28518100  0.63816200  1
  O  O4  1  0.98507900  0.66849700  0.57185500  1
  O  O5  1  0.51492100  0.66849700  0.07185500  1
  O  O6  1  0.01492100  0.33150300  0.42814500  1
  O  O7  1  0.48507900  0.33150300  0.92814500  1
  O  O8  1  0.92359100  0.30140000  0.59825800  1
  O  O9  1  0.57640900  0.30140000  0.09825800  1
  O  O10  1  0.07640900  0.69860000  0.40174200  1
  O  O11  1  0.42359100  0.69860000  0.90174200  1
  O  O12  1  0.98106200  0.04641400  0.63584400  1
  O  O13  1  0.51893800  0.04641400  0.13584400  1
  O  O14  1  0.01893800  0.95358600  0.36415600  1
  O  O15  1  0.48106200  0.95358600  0.86415600  1
  O  O16  1  0.00037600  0.97389600  0.87000400  1
  O  O17  1  0.49962400  0.97389600  0.37000400  1
  O  O18  1  0.99962400  0.02610400  0.12999600  1
  O  O19  1  0.50037600  0.02610400  0.62999600  1
  O  O20  1  0.93637500  0.71986200  0.92392300  1
  O  O21  1  0.56362500  0.71986200  0.42392300  1
  O  O22  1  0.06362500  0.28013800  0.07607700  1
  O  O23  1  0.43637500  0.28013800  0.57607700  1
  O  O24  1  0.95554200  0.30939600  0.92327500  1
  O  O25  1  0.54445800  0.30939600  0.42327500  1
  O  O26  1  0.04445800  0.69060400  0.07672500  1
  O  O27  1  0.45554200  0.69060400  0.57672500  1
  O  O28  1  0.91667400  0.28424500  0.13348500  1
  O  O29  1  0.58332600  0.28424500  0.63348500  1
  O  O30  1  0.08332600  0.71575500  0.86651500  1
  O  O31  1  0.41667400  0.71575500  0.36651500  1
  O  O32  1  0.74166200  0.47443500  0.86735900  1
  O  O33  1  0.75833800  0.47443500  0.36735900  1
  O  O34  1  0.25833800  0.52556500  0.13264100  1
  O  O35  1  0.24166200  0.52556500  0.63264100  1
  O  O36  1  0.82331400  0.21245800  0.87418700  1
  O  O37  1  0.67668600  0.21245800  0.37418700  1
  O  O38  1  0.17668600  0.78754200  0.12581300  1
  O  O39  1  0.32331400  0.78754200  0.62581300  1
  O  O40  1  0.77709700  0.19291100  0.08234400  1
  O  O41  1  0.72290300  0.19291100  0.58234400  1
  O  O42  1  0.22290300  0.80708900  0.91765600  1
  O  O43  1  0.27709700  0.80708900  0.41765600  1
  O  O44  1  0.82300600  0.22728300  0.40853300  1
  O  O45  1  0.67699400  0.22728300  0.90853300  1
  O  O46  1  0.17699400  0.77271700  0.59146700  1
  O  O47  1  0.32300600  0.77271700  0.09146700  1
  O  O48  1  0.69537900  0.81390800  0.92762300  1
  O  O49  1  0.80462100  0.81390800  0.42762300  1
  O  O50  1  0.30462100  0.18609200  0.07237700  1
  O  O51  1  0.19537900  0.18609200  0.57237700  1
  O  O52  1  0.82853500  0.78869700  0.64825400  1
  O  O53  1  0.67146500  0.78869700  0.14825400  1
  O  O54  1  0.17146500  0.21130300  0.35174600  1
  O  O55  1  0.32853500  0.21130300  0.85174600  1
  O  O56  1  0.69174500  0.79859200  0.57991500  1
  O  O57  1  0.80825500  0.79859200  0.07991500  1
  O  O58  1  0.30825500  0.20140800  0.42008500  1
  O  O59  1  0.19174500  0.20140800  0.92008500  1
  O  O60  1  0.75061300  0.53903900  0.13228300  1
  O  O61  1  0.74938700  0.53903900  0.63228300  1
  O  O62  1  0.24938700  0.46096100  0.86771700  1
  O  O63  1  0.25061300  0.46096100  0.36771700  1
loop_
_geom_bond_atom_site_label_1
_geom_bond_atom_site_label_2
_geom_bond_distance
_geom_bond_site_symmetry_2
B0 O3 1.429791 1_555
B0 O6 1.433033 1_555
B0 O12 1.442801 1_455
B0 O8 1.472091 1_455
B1 O2 1.429791 1_555
B1 O7 1.433033 1_554
B1 O13 1.442801 1_555
B1 O9 1.472091 1_555
B2 O1 1.429791 1_555
B2 O4 1.433033 1_555
B2 O14 1.442801 1_655
B2 O10 1.472091 1_655
B3 O0 1.429791 1_555
B3 O5 1.433033 1_556
B3 O15 1.442801 1_555
B3 O11 1.472091 1_555
B4 O28 1.427583 1_555
B4 O18 1.443396 1_555
B4 O24 1.449465 1_554
B4 O22 1.462977 1_655
B5 O29 1.427583 1_555
B5 O19 1.443396 1_555
B5 O25 1.449465 1_555
B5 O23 1.462977 1_555
B6 O30 1.427583 1_555
B6 O16 1.443396 1_555
B6 O26 1.449465 1_556
B6 O20 1.462977 1_455
B7 O31 1.427583 1_555
B7 O17 1.443396 1_555
B7 O27 1.449465 1_555
B7 O21 1.462977 1_555
B8 O37 1.423054 1_555
B8 O41 1.437948 1_555
B8 O33 1.443671 1_555
B8 O44 1.475359 1_555
B9 O36 1.423054 1_555
B9 O40 1.437948 1_556
B9 O32 1.443671 1_555
B9 O45 1.475359 1_555
B10 O39 1.423054 1_555
B10 O43 1.437948 1_555
B10 O35 1.443671 1_555
B10 O46 1.475359 1_555
B11 O38 1.423054 1_555
B11 O42 1.437948 1_554
B11 O34 1.443671 1_555
B11 O47 1.475359 1_555
B12 O52 1.418435 1_555
B12 O61 1.437680 1_555
B12 O49 1.443179 1_555
B12 O56 1.483424 1_555
B13 O53 1.418435 1_555
B13 O60 1.437680 1_555
B13 O48 1.443179 1_554
B13 O57 1.483424 1_555
B14 O54 1.418435 1_555
B14 O63 1.437680 1_555
B14 O51 1.443179 1_555
B14 O58 1.483424 1_555
B15 O55 1.418435 1_555
B15 O62 1.437680 1_555
B15 O50 1.443179 1_556
B15 O59 1.483424 1_555
O0 Sr4 2.613048 1_555
O1 Sr5 2.613048 1_555
O2 Sr6 2.613048 1_555
O3 Sr7 2.613048 1_555
O4 Sr7 2.542620 1_655
O5 Sr6 2.542620 1_555
O6 Sr5 2.542620 1_455
O7 Sr4 2.542620 1_555
O8 Sr0 2.786478 1_545
O9 Sr1 2.786478 1_545
O10 Sr2 2.786478 1_565
O11 Sr3 2.786478 1_565
O12 Sr0 2.674836 1_545
O13 Sr1 2.674836 1_545
O14 Sr2 2.674836 1_565
O15 Sr3 2.674836 1_565
O16 Sr0 2.820173 1_455
O17 Sr1 2.820173 1_555
O18 Sr2 2.820173 1_655
O19 Sr3 2.820173 1_555
O20 Sr0 2.653687 1_555
O20 Sr5 2.938751 1_556
O21 Sr1 2.653687 1_555
O21 Sr4 2.938751 1_555
O22 Sr2 2.653687 1_555
O22 Sr7 2.938751 1_554
O23 Sr3 2.653687 1_555
O23 Sr6 2.938751 1_555
O24 Sr7 2.634885 1_655
O25 Sr6 2.634885 1_555
O26 Sr5 2.634885 1_455
O27 Sr4 2.634885 1_555
O28 Sr5 2.613224 1_555
O29 Sr4 2.613224 1_555
O30 Sr7 2.613224 1_555
O31 Sr6 2.613224 1_555
O32 Sr4 2.737818 1_555
O33 Sr5 2.737818 1_555
O34 Sr6 2.737818 1_555
O35 Sr7 2.737818 1_555
O36 Sr0 2.557529 1_545
O37 Sr1 2.557529 1_545
O38 Sr2 2.557529 1_565
O39 Sr3 2.557529 1_565
O40 Sr1 2.585159 1_545
O41 Sr0 2.585159 1_545
O42 Sr3 2.585159 1_565
O43 Sr2 2.585159 1_565
O44 Sr5 2.673250 1_555
O45 Sr4 2.673250 1_555
O46 Sr7 2.673250 1_555
O47 Sr6 2.673250 1_555
O48 Sr0 2.693186 1_555
O49 Sr1 2.693186 1_555
O50 Sr2 2.693186 1_555
O51 Sr3 2.693186 1_555
O52 Sr0 2.583820 1_555
O53 Sr1 2.583820 1_555
O54 Sr2 2.583820 1_555
O55 Sr3 2.583820 1_555
O56 Sr4 2.679740 1_555
O56 Sr1 2.944589 1_555
O57 Sr5 2.679740 1_555
O57 Sr0 2.944589 1_554
O58 Sr6 2.679740 1_555
O58 Sr3 2.944589 1_555
O59 Sr7 2.679740 1_555
O59 Sr2 2.944589 1_556
O60 Sr5 2.702171 1_555
O61 Sr4 2.702171 1_555
O62 Sr7 2.702171 1_555
O63 Sr6 2.702171 1_555
