# generated using pymatgen
data_TmLu3
_symmetry_space_group_name_H-M   'P 1'
_cell_length_a   7.06539592
_cell_length_b   7.06526267
_cell_length_c   5.45537304
_cell_angle_alpha   90.00039562
_cell_angle_beta   89.99935124
_cell_angle_gamma   120.00034294
_symmetry_Int_Tables_number   1
_chemical_formula_structural   TmLu3
_chemical_formula_sum   'Tm2 Lu6'
_cell_volume   235.84050688
_cell_formula_units_Z   2
loop_
 _symmetry_equiv_pos_site_id
 _symmetry_equiv_pos_as_xyz
  1  'x, y, z'
loop_
 _atom_site_type_symbol
 _atom_site_label
 _atom_site_symmetry_multiplicity
 _atom_site_fract_x
 _atom_site_fract_y
 _atom_site_fract_z
 _atom_site_occupancy
  Tm  Tm0  1  0.33334289  0.66666322  0.74999832  1
  Tm  Tm1  1  0.66665024  0.33332966  0.25000376  1
  Lu  Lu0  1  0.16646682  0.33291091  0.25001025  1
  Lu  Lu1  1  0.66706930  0.83352197  0.25000407  1
  Lu  Lu2  1  0.16645436  0.83353290  0.24998438  1
  Lu  Lu3  1  0.83354310  0.66710249  0.74999236  1
  Lu  Lu4  1  0.33292162  0.16647590  0.74999449  1
  Lu  Lu5  1  0.83355068  0.16646494  0.75001237  1
loop_
_geom_bond_atom_site_label_1
_geom_bond_atom_site_label_2
_geom_bond_distance
_geom_bond_site_symmetry_2
Lu0 Lu4 3.404230 1_555
Lu0 Lu4 3.404333 1_554
Lu0 Lu5 3.404377 1_455
Lu0 Lu5 3.404389 1_454
Lu0 Tm0 3.407369 1_555
Lu0 Tm0 3.407478 1_554
Lu0 Lu2 3.528193 1_545
Lu0 Lu1 3.528359 1_445
Lu0 Tm1 3.532516 1_555
Lu0 Tm1 3.532882 1_455
Lu0 Lu1 3.536933 1_555
Lu0 Lu2 3.537070 1_555
Lu1 Lu3 3.404260 1_555
Lu1 Lu3 3.404328 1_554
Lu1 Lu5 3.404424 1_564
Lu1 Lu5 3.404492 1_565
Lu1 Tm0 3.407312 1_555
Lu1 Tm0 3.407392 1_554
Lu1 Lu2 3.528315 1_655
Lu1 Tm1 3.532511 1_555
Lu1 Tm1 3.532754 1_565
Lu1 Lu2 3.537081 1_555
Lu2 Lu3 3.404345 1_454
Lu2 Lu3 3.404385 1_455
Lu2 Lu4 3.404416 1_564
Lu2 Lu4 3.404500 1_565
Lu2 Tm0 3.407385 1_554
Lu2 Tm0 3.407541 1_555
Lu2 Tm1 3.532621 1_565
Lu2 Tm1 3.532673 1_455
Lu3 Tm1 3.407447 1_555
Lu3 Tm1 3.407551 1_556
Lu3 Lu5 3.528100 1_565
Lu3 Lu4 3.528237 1_665
Lu3 Tm0 3.532562 1_555
Lu3 Tm0 3.532836 1_655
Lu3 Lu4 3.537055 1_555
Lu3 Lu5 3.537163 1_555
Lu4 Tm1 3.407305 1_555
Lu4 Tm1 3.407415 1_556
Lu4 Lu5 3.528215 1_455
Lu4 Tm0 3.532468 1_555
Lu4 Tm0 3.532797 1_545
Lu4 Lu5 3.537181 1_555
Lu5 Tm1 3.407434 1_556
Lu5 Tm1 3.407544 1_555
Lu5 Tm0 3.532614 1_655
Lu5 Tm0 3.532681 1_545
