# generated using pymatgen
data_Li2Si2NiO6
_symmetry_space_group_name_H-M   'P 1'
_cell_length_a   5.57208075
_cell_length_b   5.57120242
_cell_length_c   18.81683841
_cell_angle_alpha   91.32076989
_cell_angle_beta   89.39498175
_cell_angle_gamma   62.82402008
_symmetry_Int_Tables_number   1
_chemical_formula_structural   Li2Si2NiO6
_chemical_formula_sum   'Li8 Si8 Ni4 O24'
_cell_volume   519.36674064
_cell_formula_units_Z   4
loop_
 _symmetry_equiv_pos_site_id
 _symmetry_equiv_pos_as_xyz
  1  'x, y, z'
loop_
 _atom_site_type_symbol
 _atom_site_label
 _atom_site_symmetry_multiplicity
 _atom_site_fract_x
 _atom_site_fract_y
 _atom_site_fract_z
 _atom_site_occupancy
  Li  Li0  1  0.60169240  0.74000834  0.44124964  1
  Li  Li1  1  0.60358576  0.74198380  0.94131426  1
  Li  Li2  1  0.26088634  0.39546859  0.18956893  1
  Li  Li3  1  0.26212391  0.39417770  0.69051112  1
  Li  Li4  1  0.73883813  0.60427536  0.31039173  1
  Li  Li5  1  0.73960235  0.60640768  0.80932788  1
  Li  Li6  1  0.39724053  0.25750805  0.05824787  1
  Li  Li7  1  0.39714696  0.25830384  0.55899946  1
  Si  Si0  1  0.13995874  0.80286261  0.31605686  1
  Si  Si1  1  0.13999172  0.80667506  0.81601172  1
  Si  Si2  1  0.19587738  0.86058553  0.06619630  1
  Si  Si3  1  0.19340788  0.85930076  0.56659356  1
  Si  Si4  1  0.80171196  0.13705329  0.43390432  1
  Si  Si5  1  0.80426519  0.14123033  0.93370339  1
  Si  Si6  1  0.86132928  0.19698304  0.18407539  1
  Si  Si7  1  0.85988548  0.19882302  0.68403522  1
  Ni  Ni0  1  0.25833216  0.25755487  0.87382905  1
  Ni  Ni1  1  0.74609440  0.74010448  0.62330462  1
  Ni  Ni2  1  0.25699666  0.25469699  0.37342262  1
  Ni  Ni3  1  0.74339002  0.74408453  0.12575291  1
  O  O0  1  0.88351025  0.88318606  0.37402544  1
  O  O1  1  0.88376411  0.88732806  0.87412420  1
  O  O2  1  0.11649741  0.11520223  0.12563596  1
  O  O3  1  0.11315479  0.11745492  0.62467791  1
  O  O4  1  0.00139938  0.00130634  0.25033713  1
  O  O5  1  0.00348577  0.00868877  0.75084192  1
  O  O6  1  -0.00027815  0.00008216  0.00004468  1
  O  O7  1  -0.01021487  -0.00675721  0.50122101  1
  O  O8  1  0.37414030  0.86254900  0.35159959  1
  O  O9  1  0.37526800  0.86475441  0.85141016  1
  O  O10  1  0.13301156  0.62643280  0.09978386  1
  O  O11  1  0.13827062  0.62333408  0.60171302  1
  O  O12  1  0.86829162  0.37028898  0.40150256  1
  O  O13  1  0.86797697  0.37485079  0.90054376  1
  O  O14  1  0.62732013  0.13533334  0.14920970  1
  O  O15  1  0.62801358  0.13076308  0.65048381  1
  O  O16  1  0.23555753  0.48957559  0.29268110  1
  O  O17  1  0.23143829  0.49390254  0.79258629  1
  O  O18  1  0.50898923  0.77002547  0.04397758  1
  O  O19  1  0.50463536  0.76762919  0.54283682  1
  O  O20  1  0.48733508  0.22955926  0.45541787  1
  O  O21  1  0.49109330  0.23243531  0.95593584  1
  O  O22  1  0.76939876  0.50996529  0.20722494  1
  O  O23  1  0.76558376  0.51402165  0.70568800  1
loop_
_geom_bond_atom_site_label_1
_geom_bond_atom_site_label_2
_geom_bond_distance
_geom_bond_site_symmetry_2
Li0 O19 1.964374 1_555
Li0 O12 2.029615 1_555
Li0 O8 2.055977 1_555
Li0 O0 2.418884 1_555
Li0 O20 2.508216 1_565
Li1 O18 1.980771 1_556
Li1 O13 2.023308 1_555
Li1 O9 2.062077 1_555
Li1 O1 2.419022 1_555
Li1 O21 2.516317 1_565
Li2 O16 1.984712 1_555
Li2 O14 2.014837 1_555
Li2 O10 2.075061 1_555
Li2 O2 2.369374 1_555
Li2 O22 2.528348 1_455
Li3 O17 1.970842 1_555
Li3 O15 2.015224 1_555
Li3 O11 2.053281 1_555
Li3 O3 2.388087 1_555
Li3 O23 2.543507 1_455
Li4 O22 1.984408 1_555
Li4 O8 2.011355 1_555
Li4 O12 2.104541 1_555
Li4 O0 2.361543 1_555
Li4 O16 2.556372 1_655
Li5 O23 1.992174 1_555
Li5 O9 2.016038 1_555
Li5 O13 2.099284 1_555
Li5 O1 2.379575 1_555
Li5 O17 2.531068 1_655
Li6 O21 1.974579 1_554
Li6 O10 2.034814 1_555
Li6 O14 2.083136 1_555
Li6 O2 2.412653 1_555
Li6 O18 2.500772 1_545
Li7 O20 1.992111 1_555
Li7 O11 2.020656 1_555
Li7 O15 2.095546 1_555
Li7 O3 2.405169 1_555
Li7 O19 2.527114 1_545
Ni0 O21 1.993786 1_555
Ni0 O17 2.002667 1_555
Ni0 O9 2.010133 1_545
Ni0 O13 2.018454 1_455
Ni1 O23 1.992484 1_555
Ni1 O19 1.997902 1_555
Ni1 O11 2.008493 1_655
Ni1 O15 2.016151 1_565
Ni2 O20 1.983683 1_555
Ni2 O16 1.996886 1_555
Ni2 O8 2.004523 1_545
Ni2 O12 2.017687 1_455
Ni3 O18 1.993694 1_555
Ni3 O22 1.999176 1_555
Ni3 O14 2.006540 1_565
Ni3 O10 2.011131 1_655
O0 Si0 1.671060 1_655
O0 Si4 1.674659 1_565
O1 Si1 1.671644 1_655
O1 Si5 1.672732 1_565
O2 Si6 1.670485 1_455
O2 Si2 1.673947 1_545
O3 Si3 1.671160 1_545
O3 Si7 1.674393 1_455
O4 Si0 1.628231 1_545
O4 Si6 1.630398 1_455
O5 Si1 1.627991 1_545
O5 Si7 1.628187 1_455
O6 Si2 1.626490 1_545
O6 Si5 1.629265 1_454
O7 Si4 1.628649 1_455
O7 Si3 1.629641 1_545
O8 Si0 1.632515 1_555
O9 Si1 1.631877 1_555
O10 Si2 1.635433 1_555
O11 Si3 1.632180 1_555
O12 Si4 1.633982 1_555
O13 Si5 1.632240 1_555
O14 Si6 1.632590 1_555
O15 Si7 1.632584 1_555
O16 Si0 1.622956 1_555
O17 Si1 1.624533 1_555
O18 Si2 1.626063 1_555
O19 Si3 1.622387 1_555
O20 Si4 1.627515 1_555
O21 Si5 1.625772 1_555
O22 Si6 1.623876 1_555
O23 Si7 1.626471 1_555
