# generated using pymatgen
data_LiTa2Te4Br10O
_symmetry_space_group_name_H-M   'P 1'
_cell_length_a   7.39962018
_cell_length_b   9.17980613
_cell_length_c   10.08467187
_cell_angle_alpha   84.93201995
_cell_angle_beta   91.95448168
_cell_angle_gamma   74.41243412
_symmetry_Int_Tables_number   1
_chemical_formula_structural   LiTa2Te4Br10O
_chemical_formula_sum   'Li1 Ta2 Te4 Br10 O1'
_cell_volume   656.05277675
_cell_formula_units_Z   1
loop_
 _symmetry_equiv_pos_site_id
 _symmetry_equiv_pos_as_xyz
  1  'x, y, z'
loop_
 _atom_site_type_symbol
 _atom_site_label
 _atom_site_symmetry_multiplicity
 _atom_site_fract_x
 _atom_site_fract_y
 _atom_site_fract_z
 _atom_site_occupancy
  Li  Li0  1  0.11780900  0.24559800  0.31107800  1
  Ta  Ta0  1  0.48889400  0.37322500  0.36819300  1
  Ta  Ta1  1  0.50967500  0.63362700  0.64214200  1
  Te  Te0  1  0.91001700  0.83241000  0.01196300  1
  Te  Te1  1  0.06941100  0.20447700  0.97363600  1
  Te  Te2  1  0.18493200  0.93416500  0.13857400  1
  Te  Te3  1  0.79540400  0.10225000  0.84899700  1
  Br  Br0  1  0.43770400  0.18753400  0.17757700  1
  Br  Br1  1  0.61257000  0.52132800  0.19317500  1
  Br  Br2  1  0.14716900  0.52659200  0.29108500  1
  Br  Br3  1  0.81359700  0.18826300  0.42128700  1
  Br  Br4  1  0.67882900  0.77109200  0.48734400  1
  Br  Br5  1  0.34925500  0.19847000  0.52185000  1
  Br  Br6  1  0.19558700  0.79653700  0.55714500  1
  Br  Br7  1  0.84185600  0.45091600  0.72169700  1
  Br  Br8  1  0.37084400  0.47406400  0.80147700  1
  Br  Br9  1  0.53157800  0.80839500  0.82402900  1
  O  O0  1  0.50320400  0.49391200  0.50249600  1
loop_
_geom_bond_atom_site_label_1
_geom_bond_atom_site_label_2
_geom_bond_distance
_geom_bond_site_symmetry_2
Li0 Te2 3.408936 1_545
Li0 Te1 3.473842 1_554
Te0 Te3 2.759133 1_564
Te0 Te2 2.774132 1_655
Te1 Te3 2.761993 1_455
Te1 Te2 2.772846 1_546
Br0 Li0 2.714025 1_555
Br0 Ta0 2.760555 1_555
Br0 Te1 3.318789 1_554
Br0 Te2 3.392979 1_545
Br1 Ta0 2.481132 1_555
Br2 Ta0 2.596156 1_555
Br2 Li0 2.637004 1_555
Br3 Ta0 2.549836 1_555
Br3 Li0 2.698805 1_655
Br4 Ta1 2.496032 1_555
Br5 Ta0 2.569674 1_555
Br5 Li0 2.613289 1_555
Br6 Ta1 2.478409 1_555
Br7 Ta1 2.628836 1_555
Br7 Te1 3.324737 1_655
Br8 Ta1 2.507636 1_555
Br9 Ta1 2.569843 1_555
Br9 Te0 3.394976 1_556
O0 Ta0 1.841573 1_555
O0 Ta1 1.994499 1_555
