# generated using pymatgen
data_Li6Mn3CoO10
_symmetry_space_group_name_H-M   'P 1'
_cell_length_a   11.00619461
_cell_length_b   11.00619461
_cell_length_c   5.87858563
_cell_angle_alpha   82.42968902
_cell_angle_beta   82.42968902
_cell_angle_gamma   15.07019757
_symmetry_Int_Tables_number   1
_chemical_formula_structural   Li6Mn3CoO10
_chemical_formula_sum   'Li6 Mn3 Co1 O10'
_cell_volume   183.50814113
_cell_formula_units_Z   1
loop_
 _symmetry_equiv_pos_site_id
 _symmetry_equiv_pos_as_xyz
  1  'x, y, z'
loop_
 _atom_site_type_symbol
 _atom_site_label
 _atom_site_symmetry_multiplicity
 _atom_site_fract_x
 _atom_site_fract_y
 _atom_site_fract_z
 _atom_site_occupancy
  Li  Li0  1  0.40281000  0.40281000  0.29825100  1
  Li  Li1  1  0.19231900  0.19231900  0.91383500  1
  Li  Li2  1  0.78820700  0.78820700  0.10985800  1
  Li  Li3  1  0.59827800  0.59827800  0.70803900  1
  Li  Li4  1  0.01369700  0.01369700  0.48692800  1
  Li  Li5  1  0.60092900  0.60092900  0.19291000  1
  Mn  Mn0  1  0.00774600  0.00774600  0.99893500  1
  Mn  Mn1  1  0.79732100  0.79732100  0.59778100  1
  Mn  Mn2  1  0.40155900  0.40155900  0.80098700  1
  Co  Co0  1  0.18548100  0.18548100  0.39507000  1
  O  O0  1  0.49969600  0.49969600  0.22375500  1
  O  O1  1  0.29881400  0.29881400  0.82335800  1
  O  O2  1  0.90874000  0.90874000  0.02318700  1
  O  O3  1  0.71018900  0.71018900  0.62528300  1
  O  O4  1  0.10373000  0.10373000  0.45701300  1
  O  O5  1  0.30462900  0.30462900  0.37382400  1
  O  O6  1  0.09126900  0.09126900  0.95681900  1
  O  O7  1  0.69863800  0.69863800  0.16319800  1
  O  O8  1  0.50258600  0.50258600  0.77371700  1
  O  O9  1  0.89336100  0.89336100  0.57725400  1
loop_
_geom_bond_atom_site_label_1
_geom_bond_atom_site_label_2
_geom_bond_distance
_geom_bond_site_symmetry_2
Li0 O0 2.101394 1_555
Li0 O5 2.129518 1_555
Li0 O2 2.158435 1_545
Li0 O2 2.158435 1_455
Li0 O9 2.173882 1_455
Li0 O9 2.173882 1_545
Li1 O7 2.074769 1_456
Li1 O7 2.074769 1_546
Li1 O6 2.185959 1_555
Li1 O3 2.221864 1_545
Li1 O3 2.221864 1_455
Li1 O1 2.314129 1_555
Li2 O7 1.938014 1_555
Li2 O5 2.183393 1_655
Li2 O5 2.183393 1_565
Li2 O1 2.206718 1_564
Li2 O1 2.206718 1_654
Li2 O2 2.611882 1_555
Li3 O6 2.045931 1_565
Li3 O6 2.045931 1_655
Li3 O4 2.056253 1_565
Li3 O4 2.056253 1_655
Li3 O8 2.072546 1_555
Li3 O3 2.425908 1_555
Li4 O4 1.949167 1_555
Li4 O0 2.166914 1_455
Li4 O0 2.166914 1_545
Li4 O8 2.208056 1_545
Li4 O8 2.208056 1_455
Li4 O9 2.609075 1_445
Li5 O6 2.032602 1_564
Li5 O6 2.032602 1_654
Li5 O7 2.116117 1_555
Li5 O4 2.126602 1_655
Li5 O4 2.126602 1_565
Li5 O0 2.192419 1_555
Mn0 O6 1.806507 1_555
Mn0 O0 1.949077 1_456
Mn0 O0 1.949077 1_546
Mn0 O8 1.971862 1_545
Mn0 O8 1.971862 1_455
Mn0 O2 2.146250 1_446
Mn1 O3 1.886753 1_555
Mn1 O5 1.945763 1_655
Mn1 O5 1.945763 1_565
Mn1 O1 1.963180 1_565
Mn1 O1 1.963180 1_655
Mn1 O9 2.083214 1_555
Mn2 O2 1.966783 1_546
Mn2 O2 1.966783 1_456
Mn2 O9 1.976725 1_545
Mn2 O9 1.976725 1_455
Mn2 O8 2.189112 1_555
Mn2 O1 2.228472 1_555
Co0 O4 1.772732 1_555
Co0 O7 1.979764 1_455
Co0 O7 1.979764 1_545
Co0 O3 2.097430 1_545
Co0 O3 2.097430 1_455
