# generated using pymatgen
data_Mn2Fe9N8
_symmetry_space_group_name_H-M   'P 1'
_cell_length_a   8.87390030
_cell_length_b   3.79246126
_cell_length_c   6.02678568
_cell_angle_alpha   89.99999496
_cell_angle_beta   69.28602340
_cell_angle_gamma   77.66152727
_symmetry_Int_Tables_number   1
_chemical_formula_structural   Mn2Fe9N8
_chemical_formula_sum   'Mn2 Fe9 N8'
_cell_volume   184.69687704
_cell_formula_units_Z   1
loop_
 _symmetry_equiv_pos_site_id
 _symmetry_equiv_pos_as_xyz
  1  'x, y, z'
loop_
 _atom_site_type_symbol
 _atom_site_label
 _atom_site_symmetry_multiplicity
 _atom_site_fract_x
 _atom_site_fract_y
 _atom_site_fract_z
 _atom_site_occupancy
  Mn  Mn0  1  0.35623737  0.82188132  0.78509748  1
  Mn  Mn1  1  0.64376263  0.17811868  0.21490252  1
  Fe  Fe0  1  0.00000000  0.50000000  0.50000000  1
  Fe  Fe1  1  0.02981099  0.98509450  0.75361616  1
  Fe  Fe2  1  0.97018901  0.01490550  0.24638384  1
  Fe  Fe3  1  0.69928230  0.65035885  0.49085244  1
  Fe  Fe4  1  0.30071770  0.34964115  0.50914756  1
  Fe  Fe5  1  0.84070683  0.57964659  0.98302667  1
  Fe  Fe6  1  0.15929317  0.42035341  0.01697333  1
  Fe  Fe7  1  0.40606557  0.79696721  0.18798801  1
  Fe  Fe8  1  0.59393443  0.20303279  0.81201199  1
  N  N0  1  0.20984922  0.89507589  0.08831745  1
  N  N1  1  0.79015078  0.10492411  0.91168255  1
  N  N2  1  0.28101643  0.85949229  0.53391545  1
  N  N3  1  0.71898357  0.14050771  0.46608455  1
  N  N4  1  0.55340302  0.72329799  0.82021438  1
  N  N5  1  0.44659698  0.27670201  0.17978562  1
  N  N6  1  0.92832139  0.53583930  0.24635035  1
  N  N7  1  0.07167861  0.46416070  0.75364965  1
loop_
_geom_bond_atom_site_label_1
_geom_bond_atom_site_label_2
_geom_bond_distance
_geom_bond_site_symmetry_2
Mn0 N4 1.796708 1_555
Mn0 N0 1.808497 1_556
Mn0 N2 1.852481 1_555
Mn1 N5 1.796708 1_555
Mn1 N1 1.808497 1_554
Mn1 N3 1.852481 1_555
Fe0 N6 1.846851 1_455
Fe0 N7 1.846851 1_555
Fe1 N7 1.930667 1_555
Fe1 N7 1.930667 1_565
Fe1 N1 1.946980 1_465
Fe1 N2 2.099410 1_555
Fe2 N6 1.930667 1_555
Fe2 N6 1.930667 1_545
Fe2 N0 1.946980 1_645
Fe2 N3 2.099410 1_555
Fe3 N3 1.904908 1_565
Fe3 N3 1.904911 1_555
Fe3 N4 1.929171 1_555
Fe3 N6 1.998758 1_555
Fe4 N2 1.904908 1_545
Fe4 N2 1.904911 1_555
Fe4 N5 1.929171 1_555
Fe4 N7 1.998758 1_555
Fe5 N7 1.978838 1_655
Fe5 N6 1.992053 1_556
Fe5 N1 2.027091 1_565
Fe5 N1 2.027095 1_555
Fe6 N6 1.978838 1_455
Fe6 N7 1.992053 1_554
Fe6 N0 2.027091 1_545
Fe6 N0 2.027095 1_555
Fe7 N5 1.925878 1_555
Fe7 N5 1.925882 1_565
Fe7 N2 1.971065 1_555
Fe7 N0 1.998520 1_555
Fe7 N4 2.119950 1_554
Fe8 N4 1.925878 1_555
Fe8 N4 1.925882 1_545
Fe8 N3 1.971065 1_555
Fe8 N1 1.998520 1_555
Fe8 N5 2.119950 1_556
