# generated using pymatgen
data_NdAl4
_symmetry_space_group_name_H-M   'P 1'
_cell_length_a   4.43143200
_cell_length_b   8.66144996
_cell_length_c   8.66144996
_cell_angle_alpha   81.97299868
_cell_angle_beta   75.17820464
_cell_angle_gamma   75.17820464
_symmetry_Int_Tables_number   1
_chemical_formula_structural   NdAl4
_chemical_formula_sum   'Nd3 Al12'
_cell_volume   309.71275514
_cell_formula_units_Z   3
loop_
 _symmetry_equiv_pos_site_id
 _symmetry_equiv_pos_as_xyz
  1  'x, y, z'
loop_
 _atom_site_type_symbol
 _atom_site_label
 _atom_site_symmetry_multiplicity
 _atom_site_fract_x
 _atom_site_fract_y
 _atom_site_fract_z
 _atom_site_occupancy
  Nd  Nd0  1  0.00000000  0.98819600  0.01180400  1
  Nd  Nd1  1  0.33118600  0.68748200  0.65014500  1
  Nd  Nd2  1  0.66881400  0.34985500  0.31251800  1
  Al  Al0  1  0.00000000  0.40876100  0.59123900  1
  Al  Al1  1  0.00000000  0.63232400  0.36767600  1
  Al  Al2  1  0.50000000  0.75838200  0.24161800  1
  Al  Al3  1  0.50000000  0.27798800  0.72201200  1
  Al  Al4  1  0.84634900  0.39869100  0.90861200  1
  Al  Al5  1  0.15365100  0.09138800  0.60130900  1
  Al  Al6  1  0.67737800  0.71337700  0.93186600  1
  Al  Al7  1  0.32262200  0.06813400  0.28662300  1
  Al  Al8  1  0.65222100  0.95975000  0.73580800  1
  Al  Al9  1  0.34777900  0.26419200  0.04025000  1
  Al  Al10  1  0.81824800  0.94249200  0.42101200  1
  Al  Al11  1  0.18175200  0.57898800  0.05750800  1
loop_
_geom_bond_atom_site_label_1
_geom_bond_atom_site_label_2
_geom_bond_distance
_geom_bond_site_symmetry_2
Al0 Al1 2.540070 1_555
Al0 Al4 2.652081 1_455
Al0 Al5 2.652081 1_555
Al0 Al3 2.667777 1_555
Al0 Al3 2.667777 1_455
Al0 Nd1 3.283607 1_555
Al0 Nd2 3.283607 1_455
Al0 Nd1 3.283610 1_455
Al0 Nd2 3.283610 1_555
Al1 Al2 2.638316 1_455
Al1 Al2 2.638316 1_555
Al1 Al10 2.669948 1_455
Al1 Al11 2.669948 1_555
Al1 Nd1 3.300037 1_555
Al1 Nd2 3.300037 1_455
Al1 Nd1 3.300040 1_455
Al1 Nd2 3.300040 1_555
Al2 Al7 2.650307 1_565
Al2 Al6 2.650307 1_554
Al2 Nd0 3.424500 1_655
Al2 Nd0 3.424500 1_555
Al2 Nd1 3.425077 1_555
Al2 Nd2 3.425077 1_555
Al3 Al8 2.658010 1_545
Al3 Al9 2.658010 1_556
Al3 Al5 2.936469 1_655
Al3 Al4 2.936469 1_455
Al3 Al4 2.936472 1_555
Al3 Al5 2.936472 1_555
Al3 Nd1 3.433820 1_555
Al3 Nd2 3.433820 1_555
Al4 Al6 2.657501 1_555
Al4 Al9 2.682446 1_656
Al4 Al9 2.682450 1_556
Al4 Nd2 3.374252 1_556
Al4 Nd0 3.476950 1_646
Al5 Al7 2.657501 1_555
Al5 Al8 2.682446 1_445
Al5 Al8 2.682450 1_545
Al5 Nd1 3.374252 1_545
Al5 Nd0 3.476950 1_546
Al6 Al8 2.532383 1_555
Al6 Nd1 3.256092 1_555
Al6 Nd1 3.256092 1_655
Al6 Nd0 3.301086 1_556
Al6 Nd0 3.301089 1_656
Al7 Al9 2.532383 1_555
Al7 Nd2 3.256092 1_455
Al7 Nd2 3.256092 1_555
Al7 Nd0 3.301086 1_645
Al7 Nd0 3.301089 1_545
Al8 Nd0 3.224001 1_556
Al8 Nd0 3.224001 1_656
Al8 Nd1 3.298617 1_655
Al8 Nd1 3.298620 1_555
Al9 Nd0 3.224001 1_645
Al9 Nd0 3.224001 1_545
Al9 Nd2 3.298617 1_455
Al9 Nd2 3.298620 1_555
Al10 Al8 2.651255 1_555
Al10 Al7 2.663535 1_565
Al10 Al7 2.663539 1_665
Al10 Al5 3.006948 1_665
Al10 Al5 3.006951 1_565
Al10 Nd0 3.417377 1_655
Al10 Nd2 3.459456 1_565
Al10 Nd1 3.535421 1_655
Al10 Nd1 3.535424 1_555
Al11 Al9 2.651255 1_555
Al11 Al6 2.663535 1_554
Al11 Al6 2.663539 1_454
Al11 Al4 3.006948 1_454
Al11 Al4 3.006951 1_554
Al11 Nd0 3.417377 1_555
Al11 Nd1 3.459456 1_554
Al11 Nd2 3.535421 1_455
Al11 Nd2 3.535424 1_555
