# generated using pymatgen
data_Sc2InCu2
_symmetry_space_group_name_H-M   'P 1'
_cell_length_a   14.34921202
_cell_length_b   14.34921202
_cell_length_c   6.98159928
_cell_angle_alpha   90.00000000
_cell_angle_beta   90.00000000
_cell_angle_gamma   90.00000000
_symmetry_Int_Tables_number   1
_chemical_formula_structural   Sc2InCu2
_chemical_formula_sum   'Sc32 In16 Cu32'
_cell_volume   1437.51049302
_cell_formula_units_Z   16
loop_
 _symmetry_equiv_pos_site_id
 _symmetry_equiv_pos_as_xyz
  1  'x, y, z'
loop_
 _atom_site_type_symbol
 _atom_site_label
 _atom_site_symmetry_multiplicity
 _atom_site_fract_x
 _atom_site_fract_y
 _atom_site_fract_z
 _atom_site_occupancy
  Sc  Sc0_0  1  0.08367402  0.16632598  0.00000000  1
  Sc  Sc0_1  1  0.08367402  0.16632598  0.50000000  1
  Sc  Sc0_2  1  0.08367402  0.66632598  0.00000000  1
  Sc  Sc0_3  1  0.08367402  0.66632598  0.50000000  1
  Sc  Sc0_4  1  0.58367402  0.16632598  0.00000000  1
  Sc  Sc0_5  1  0.58367402  0.16632598  0.50000000  1
  Sc  Sc0_6  1  0.58367402  0.66632598  0.00000000  1
  Sc  Sc0_7  1  0.58367402  0.66632598  0.50000000  1
  Sc  Sc1_0  1  0.41632598  0.33367402  0.00000000  1
  Sc  Sc1_1  1  0.41632598  0.33367402  0.50000000  1
  Sc  Sc1_2  1  0.41632598  0.83367402  0.00000000  1
  Sc  Sc1_3  1  0.41632598  0.83367402  0.50000000  1
  Sc  Sc1_4  1  0.91632598  0.33367402  0.00000000  1
  Sc  Sc1_5  1  0.91632598  0.33367402  0.50000000  1
  Sc  Sc1_6  1  0.91632598  0.83367402  0.00000000  1
  Sc  Sc1_7  1  0.91632598  0.83367402  0.50000000  1
  Sc  Sc2_0  1  0.33367402  0.08367402  0.00000000  1
  Sc  Sc2_1  1  0.33367402  0.08367402  0.50000000  1
  Sc  Sc2_2  1  0.33367402  0.58367402  0.00000000  1
  Sc  Sc2_3  1  0.33367402  0.58367402  0.50000000  1
  Sc  Sc2_4  1  0.83367402  0.08367402  0.00000000  1
  Sc  Sc2_5  1  0.83367402  0.08367402  0.50000000  1
  Sc  Sc2_6  1  0.83367402  0.58367402  0.00000000  1
  Sc  Sc2_7  1  0.83367402  0.58367402  0.50000000  1
  Sc  Sc3_0  1  0.16632598  0.41632598  0.00000000  1
  Sc  Sc3_1  1  0.16632598  0.41632598  0.50000000  1
  Sc  Sc3_2  1  0.16632598  0.91632598  0.00000000  1
  Sc  Sc3_3  1  0.16632598  0.91632598  0.50000000  1
  Sc  Sc3_4  1  0.66632598  0.41632598  0.00000000  1
  Sc  Sc3_5  1  0.66632598  0.41632598  0.50000000  1
  Sc  Sc3_6  1  0.66632598  0.91632598  0.00000000  1
  Sc  Sc3_7  1  0.66632598  0.91632598  0.50000000  1
  In  In0_0  1  0.00000000  0.00000000  0.25000000  1
  In  In0_1  1  0.00000000  0.00000000  0.75000000  1
  In  In0_2  1  0.00000000  0.50000000  0.25000000  1
  In  In0_3  1  0.00000000  0.50000000  0.75000000  1
  In  In0_4  1  0.50000000  0.00000000  0.25000000  1
  In  In0_5  1  0.50000000  0.00000000  0.75000000  1
  In  In0_6  1  0.50000000  0.50000000  0.25000000  1
  In  In0_7  1  0.50000000  0.50000000  0.75000000  1
  In  In1_0  1  0.25000000  0.25000000  0.25000000  1
  In  In1_1  1  0.25000000  0.25000000  0.75000000  1
  In  In1_2  1  0.25000000  0.75000000  0.25000000  1
  In  In1_3  1  0.25000000  0.75000000  0.75000000  1
  In  In1_4  1  0.75000000  0.25000000  0.25000000  1
  In  In1_5  1  0.75000000  0.25000000  0.75000000  1
  In  In1_6  1  0.75000000  0.75000000  0.25000000  1
  In  In1_7  1  0.75000000  0.75000000  0.75000000  1
  Cu  Cu0_0  1  0.18814254  0.06185746  0.25000000  1
  Cu  Cu0_1  1  0.18814254  0.06185746  0.75000000  1
  Cu  Cu0_2  1  0.18814254  0.56185746  0.25000000  1
  Cu  Cu0_3  1  0.18814254  0.56185746  0.75000000  1
  Cu  Cu0_4  1  0.68814254  0.06185746  0.25000000  1
  Cu  Cu0_5  1  0.68814254  0.06185746  0.75000000  1
  Cu  Cu0_6  1  0.68814254  0.56185746  0.25000000  1
  Cu  Cu0_7  1  0.68814254  0.56185746  0.75000000  1
  Cu  Cu1_0  1  0.31185746  0.43814254  0.25000000  1
  Cu  Cu1_1  1  0.31185746  0.43814254  0.75000000  1
  Cu  Cu1_2  1  0.31185746  0.93814254  0.25000000  1
  Cu  Cu1_3  1  0.31185746  0.93814254  0.75000000  1
  Cu  Cu1_4  1  0.81185746  0.43814254  0.25000000  1
  Cu  Cu1_5  1  0.81185746  0.43814254  0.75000000  1
  Cu  Cu1_6  1  0.81185746  0.93814254  0.25000000  1
  Cu  Cu1_7  1  0.81185746  0.93814254  0.75000000  1
  Cu  Cu2_0  1  0.43814254  0.18814254  0.25000000  1
  Cu  Cu2_1  1  0.43814254  0.18814254  0.75000000  1
  Cu  Cu2_2  1  0.43814254  0.68814254  0.25000000  1
  Cu  Cu2_3  1  0.43814254  0.68814254  0.75000000  1
  Cu  Cu2_4  1  0.93814254  0.18814254  0.25000000  1
  Cu  Cu2_5  1  0.93814254  0.18814254  0.75000000  1
  Cu  Cu2_6  1  0.93814254  0.68814254  0.25000000  1
  Cu  Cu2_7  1  0.93814254  0.68814254  0.75000000  1
  Cu  Cu3_0  1  0.06185746  0.31185746  0.25000000  1
  Cu  Cu3_1  1  0.06185746  0.31185746  0.75000000  1
  Cu  Cu3_2  1  0.06185746  0.81185746  0.25000000  1
  Cu  Cu3_3  1  0.06185746  0.81185746  0.75000000  1
  Cu  Cu3_4  1  0.56185746  0.31185746  0.25000000  1
  Cu  Cu3_5  1  0.56185746  0.31185746  0.75000000  1
  Cu  Cu3_6  1  0.56185746  0.81185746  0.25000000  1
  Cu  Cu3_7  1  0.56185746  0.81185746  0.75000000  1
loop_
_geom_bond_atom_site_label_1
_geom_bond_atom_site_label_2
_geom_bond_distance
_geom_bond_site_symmetry_2
In0_0 Sc3_2 3.191250 1_545
In0_0 Sc1_6 3.191250 1_445
In0_0 Sc3_3 3.191250 1_545
In0_0 Sc1_7 3.191250 1_445
In0_0 Sc0_0 3.191250 1_555
In0_0 Sc2_4 3.191250 1_455
In0_0 Sc0_1 3.191250 1_555
In0_0 Sc2_5 3.191250 1_455
In0_0 In0_1 3.490800 1_555
In0_0 In0_1 3.490800 1_554
In0_1 Sc3_2 3.191250 1_546
In0_1 Sc1_6 3.191250 1_446
In0_1 Sc3_3 3.191250 1_545
In0_1 Sc1_7 3.191250 1_445
In0_1 Sc0_0 3.191250 1_556
In0_1 Sc2_4 3.191250 1_456
In0_1 Sc0_1 3.191250 1_555
In0_1 Sc2_5 3.191250 1_455
In0_2 Sc1_4 3.191250 1_455
In0_2 Sc1_5 3.191250 1_455
In0_2 Sc0_2 3.191250 1_555
In0_2 Sc2_7 3.191250 1_455
In0_2 Sc3_0 3.191250 1_555
In0_2 Sc0_3 3.191250 1_555
In0_2 Sc2_6 3.191250 1_455
In0_2 Sc3_1 3.191250 1_555
In0_2 In0_3 3.490800 1_554
In0_2 In0_3 3.490800 1_555
In0_3 Sc1_5 3.191250 1_455
In0_3 Sc1_4 3.191250 1_456
In0_3 Sc2_7 3.191250 1_455
In0_3 Sc0_3 3.191250 1_555
In0_3 Sc3_0 3.191250 1_556
In0_3 Sc2_6 3.191250 1_456
In0_3 Sc0_2 3.191250 1_556
In0_3 Sc3_1 3.191250 1_555
In0_4 Sc3_6 3.191250 1_545
In0_4 Sc3_7 3.191250 1_545
In0_4 Sc1_3 3.191250 1_545
In0_4 Sc0_4 3.191250 1_555
In0_4 Sc2_0 3.191250 1_555
In0_4 Sc2_1 3.191250 1_555
In0_4 Sc0_5 3.191250 1_555
In0_4 Sc1_2 3.191250 1_545
In0_4 In0_5 3.490800 1_555
In0_4 In0_5 3.490800 1_554
In0_5 Sc3_6 3.191250 1_546
In0_5 Sc3_7 3.191250 1_545
In0_5 Sc2_1 3.191250 1_555
In0_5 Sc2_0 3.191250 1_556
In0_5 Sc0_4 3.191250 1_556
In0_5 Sc1_2 3.191250 1_546
In0_5 Sc0_5 3.191250 1_555
In0_5 Sc1_3 3.191250 1_545
In0_6 Sc0_6 3.191250 1_555
In0_6 Sc3_5 3.191250 1_555
In0_6 Sc1_1 3.191250 1_555
In0_6 Sc3_4 3.191250 1_555
In0_6 Sc2_2 3.191250 1_555
In0_6 Sc1_0 3.191250 1_555
In0_6 Sc2_3 3.191250 1_555
In0_6 Sc0_7 3.191250 1_555
In0_6 In0_7 3.490800 1_555
In0_6 In0_7 3.490800 1_554
In0_7 Sc0_6 3.191250 1_556
In0_7 Sc3_5 3.191250 1_555
In0_7 Sc1_1 3.191250 1_555
In0_7 Sc2_2 3.191250 1_556
In0_7 Sc2_3 3.191250 1_555
In0_7 Sc1_0 3.191250 1_556
In0_7 Sc3_4 3.191250 1_556
In0_7 Sc0_7 3.191250 1_555
In1_0 Sc3_1 3.191250 1_555
In1_0 Sc3_0 3.191250 1_555
In1_0 Sc0_0 3.191250 1_555
In1_0 Sc2_0 3.191250 1_555
In1_0 Sc2_1 3.191250 1_555
In1_0 Sc1_1 3.191250 1_555
In1_0 Sc0_1 3.191250 1_555
In1_0 Sc1_0 3.191250 1_555
In1_0 In1_1 3.490800 1_554
In1_0 In1_1 3.490800 1_555
In1_1 Sc3_0 3.191250 1_556
In1_1 Sc3_1 3.191250 1_555
In1_1 Sc0_0 3.191250 1_556
In1_1 Sc2_0 3.191250 1_556
In1_1 Sc1_1 3.191250 1_555
In1_1 Sc0_1 3.191250 1_555
In1_1 Sc2_1 3.191250 1_555
In1_1 Sc1_0 3.191250 1_556
In1_2 Sc3_3 3.191250 1_555
In1_2 Sc3_2 3.191250 1_555
In1_2 Sc1_2 3.191250 1_555
In1_2 Sc1_3 3.191250 1_555
In1_2 Sc0_3 3.191250 1_555
In1_2 Sc0_2 3.191250 1_555
In1_2 Sc2_2 3.191250 1_555
In1_2 Sc2_3 3.191250 1_555
In1_2 In1_3 3.490800 1_555
In1_2 In1_3 3.490800 1_554
In1_3 Sc1_2 3.191250 1_556
In1_3 Sc3_3 3.191250 1_555
In1_3 Sc1_3 3.191250 1_555
In1_3 Sc3_2 3.191250 1_556
In1_3 Sc0_3 3.191250 1_555
In1_3 Sc0_2 3.191250 1_556
In1_3 Sc2_2 3.191250 1_556
In1_3 Sc2_3 3.191250 1_555
In1_4 Sc2_4 3.191250 1_555
In1_4 Sc2_5 3.191250 1_555
In1_4 Sc1_4 3.191250 1_555
In1_4 Sc1_5 3.191250 1_555
In1_4 Sc3_5 3.191250 1_555
In1_4 Sc3_4 3.191250 1_555
In1_4 Sc0_4 3.191250 1_555
In1_4 Sc0_5 3.191250 1_555
In1_4 In1_5 3.490800 1_554
In1_4 In1_5 3.490800 1_555
In1_5 Sc2_4 3.191250 1_556
In1_5 Sc2_5 3.191250 1_555
In1_5 Sc1_4 3.191250 1_556
In1_5 Sc1_5 3.191250 1_555
In1_5 Sc3_4 3.191250 1_556
In1_5 Sc3_5 3.191250 1_555
In1_5 Sc0_4 3.191250 1_556
In1_5 Sc0_5 3.191250 1_555
In1_6 Sc1_7 3.191250 1_555
In1_6 Sc1_6 3.191250 1_555
In1_6 Sc3_7 3.191250 1_555
In1_6 Sc2_7 3.191250 1_555
In1_6 Sc2_6 3.191250 1_555
In1_6 Sc3_6 3.191250 1_555
In1_6 Sc0_7 3.191250 1_555
In1_6 Sc0_6 3.191250 1_555
In1_6 In1_7 3.490800 1_554
In1_6 In1_7 3.490800 1_555
In1_7 Sc1_7 3.191250 1_555
In1_7 Sc1_6 3.191250 1_556
In1_7 Sc3_6 3.191250 1_556
In1_7 Sc3_7 3.191250 1_555
In1_7 Sc2_7 3.191250 1_555
In1_7 Sc2_6 3.191250 1_556
In1_7 Sc0_7 3.191250 1_555
In1_7 Sc0_6 3.191250 1_556
Cu0_0 Cu1_2 2.510528 1_545
Cu0_0 Sc3_2 2.739573 1_545
Cu0_0 Sc3_3 2.739573 1_545
Cu0_0 Sc2_0 2.739573 1_555
Cu0_0 Sc2_1 2.739573 1_555
Cu0_0 Sc0_1 2.746028 1_555
Cu0_0 Sc0_0 2.746028 1_555
Cu0_0 In1_0 2.841867 1_555
Cu0_0 In0_0 2.841867 1_555
Cu0_1 Cu1_3 2.510528 1_545
Cu0_1 Sc3_2 2.739573 1_546
Cu0_1 Sc3_3 2.739573 1_545
Cu0_1 Sc2_0 2.739573 1_556
Cu0_1 Sc2_1 2.739573 1_555
Cu0_1 Sc0_1 2.746028 1_555
Cu0_1 Sc0_0 2.746028 1_556
Cu0_1 In0_1 2.841867 1_555
Cu0_1 In1_1 2.841867 1_555
Cu0_2 Cu1_0 2.510528 1_555
Cu0_2 Sc2_2 2.739573 1_555
Cu0_2 Sc2_3 2.739573 1_555
Cu0_2 Sc3_1 2.739573 1_555
Cu0_2 Sc3_0 2.739573 1_555
Cu0_2 Sc0_2 2.746028 1_555
Cu0_2 Sc0_3 2.746028 1_555
Cu0_2 In0_2 2.841867 1_555
Cu0_2 In1_2 2.841867 1_555
Cu0_3 Cu1_1 2.510528 1_555
Cu0_3 Sc2_2 2.739573 1_556
Cu0_3 Sc2_3 2.739573 1_555
Cu0_3 Sc3_0 2.739573 1_556
Cu0_3 Sc3_1 2.739573 1_555
Cu0_3 Sc0_3 2.746028 1_555
Cu0_3 Sc0_2 2.746028 1_556
Cu0_3 In0_3 2.841867 1_555
Cu0_3 In1_3 2.841867 1_555
Cu0_4 Cu1_6 2.510528 1_545
Cu0_4 Sc3_6 2.739573 1_545
Cu0_4 Sc3_7 2.739573 1_545
Cu0_4 Sc2_4 2.739573 1_555
Cu0_4 Sc2_5 2.739573 1_555
Cu0_4 Sc0_5 2.746028 1_555
Cu0_4 Sc0_4 2.746028 1_555
Cu0_4 In1_4 2.841867 1_555
Cu0_4 In0_4 2.841867 1_555
Cu0_5 Cu1_7 2.510528 1_545
Cu0_5 Sc3_6 2.739573 1_546
Cu0_5 Sc3_7 2.739573 1_545
Cu0_5 Sc2_4 2.739573 1_556
Cu0_5 Sc2_5 2.739573 1_555
Cu0_5 Sc0_4 2.746028 1_556
Cu0_5 Sc0_5 2.746028 1_555
Cu0_5 In1_5 2.841867 1_555
Cu0_5 In0_5 2.841867 1_555
Cu0_6 Cu1_4 2.510528 1_555
Cu0_6 Sc2_6 2.739573 1_555
Cu0_6 Sc2_7 2.739573 1_555
Cu0_6 Sc3_5 2.739573 1_555
Cu0_6 Sc3_4 2.739573 1_555
Cu0_6 Sc0_7 2.746028 1_555
Cu0_6 Sc0_6 2.746028 1_555
Cu0_6 In1_6 2.841867 1_555
Cu0_6 In0_6 2.841867 1_555
Cu0_7 Cu1_5 2.510528 1_555
Cu0_7 Sc2_6 2.739573 1_556
Cu0_7 Sc2_7 2.739573 1_555
Cu0_7 Sc3_4 2.739573 1_556
Cu0_7 Sc3_5 2.739573 1_555
Cu0_7 Sc0_7 2.746028 1_555
Cu0_7 Sc0_6 2.746028 1_556
Cu0_7 In1_7 2.841867 1_555
Cu0_7 In0_7 2.841867 1_555
Cu1_0 Sc2_2 2.739573 1_555
Cu1_0 Sc2_3 2.739573 1_555
Cu1_0 Sc3_0 2.739573 1_555
Cu1_0 Sc3_1 2.739573 1_555
Cu1_0 Sc1_1 2.746028 1_555
Cu1_0 Sc1_0 2.746028 1_555
Cu1_0 In0_6 2.841867 1_555
Cu1_0 In1_0 2.841867 1_555
Cu1_1 Sc2_2 2.739573 1_556
Cu1_1 Sc2_3 2.739573 1_555
Cu1_1 Sc3_0 2.739573 1_556
Cu1_1 Sc3_1 2.739573 1_555
Cu1_1 Sc1_1 2.746028 1_555
Cu1_1 Sc1_0 2.746028 1_556
Cu1_1 In0_7 2.841867 1_555
Cu1_1 In1_1 2.841867 1_555
Cu1_2 Sc2_1 2.739573 1_565
Cu1_2 Sc2_0 2.739573 1_565
Cu1_2 Sc3_2 2.739573 1_555
Cu1_2 Sc3_3 2.739573 1_555
Cu1_2 Sc1_2 2.746028 1_555
Cu1_2 Sc1_3 2.746028 1_555
Cu1_2 In0_4 2.841867 1_565
Cu1_2 In1_2 2.841867 1_555
Cu1_3 Sc2_1 2.739573 1_565
Cu1_3 Sc2_0 2.739573 1_566
Cu1_3 Sc3_3 2.739573 1_555
Cu1_3 Sc3_2 2.739573 1_556
Cu1_3 Sc1_3 2.746028 1_555
Cu1_3 Sc1_2 2.746028 1_556
Cu1_3 In0_5 2.841867 1_565
Cu1_3 In1_3 2.841867 1_555
Cu1_4 Sc2_7 2.739573 1_555
Cu1_4 Sc2_6 2.739573 1_555
Cu1_4 Sc3_5 2.739573 1_555
Cu1_4 Sc3_4 2.739573 1_555
Cu1_4 Sc1_5 2.746028 1_555
Cu1_4 Sc1_4 2.746028 1_555
Cu1_4 In0_2 2.841867 1_655
Cu1_4 In1_4 2.841867 1_555
Cu1_5 Sc2_7 2.739573 1_555
Cu1_5 Sc2_6 2.739573 1_556
Cu1_5 Sc3_4 2.739573 1_556
Cu1_5 Sc3_5 2.739573 1_555
Cu1_5 Sc1_5 2.746028 1_555
Cu1_5 Sc1_4 2.746028 1_556
Cu1_5 In0_3 2.841867 1_655
Cu1_5 In1_5 2.841867 1_555
Cu1_6 Sc2_4 2.739573 1_565
Cu1_6 Sc2_5 2.739573 1_565
Cu1_6 Sc3_7 2.739573 1_555
Cu1_6 Sc3_6 2.739573 1_555
Cu1_6 Sc1_6 2.746028 1_555
Cu1_6 Sc1_7 2.746028 1_555
Cu1_6 In1_6 2.841867 1_555
Cu1_6 In0_0 2.841867 1_665
Cu1_7 Sc2_4 2.739573 1_566
Cu1_7 Sc2_5 2.739573 1_565
Cu1_7 Sc3_6 2.739573 1_556
Cu1_7 Sc3_7 2.739573 1_555
Cu1_7 Sc1_7 2.746028 1_555
Cu1_7 Sc1_6 2.746028 1_556
Cu1_7 In0_1 2.841867 1_665
Cu1_7 In1_7 2.841867 1_555
Cu2_0 Cu3_4 2.510528 1_555
Cu2_0 Sc0_5 2.739573 1_555
Cu2_0 Sc0_4 2.739573 1_555
Cu2_0 Sc1_1 2.739573 1_555
Cu2_0 Sc1_0 2.739573 1_555
Cu2_0 Sc2_0 2.746028 1_555
Cu2_0 Sc2_1 2.746028 1_555
Cu2_0 In0_4 2.841867 1_555
Cu2_0 In1_0 2.841867 1_555
Cu2_1 Cu3_5 2.510528 1_555
Cu2_1 Sc0_5 2.739573 1_555
Cu2_1 Sc0_4 2.739573 1_556
Cu2_1 Sc1_1 2.739573 1_555
Cu2_1 Sc1_0 2.739573 1_556
Cu2_1 Sc2_0 2.746028 1_556
Cu2_1 Sc2_1 2.746028 1_555
Cu2_1 In0_5 2.841867 1_555
Cu2_1 In1_1 2.841867 1_555
Cu2_2 Cu3_6 2.510528 1_555
Cu2_2 Sc1_3 2.739573 1_555
Cu2_2 Sc1_2 2.739573 1_555
Cu2_2 Sc0_7 2.739573 1_555
Cu2_2 Sc0_6 2.739573 1_555
Cu2_2 Sc2_2 2.746028 1_555
Cu2_2 Sc2_3 2.746028 1_555
Cu2_2 In0_6 2.841867 1_555
Cu2_2 In1_2 2.841867 1_555
Cu2_3 Cu3_7 2.510528 1_555
Cu2_3 Sc1_3 2.739573 1_555
Cu2_3 Sc1_2 2.739573 1_556
Cu2_3 Sc0_7 2.739573 1_555
Cu2_3 Sc0_6 2.739573 1_556
Cu2_3 Sc2_2 2.746028 1_556
Cu2_3 Sc2_3 2.746028 1_555
Cu2_3 In0_7 2.841867 1_555
Cu2_3 In1_3 2.841867 1_555
Cu2_4 Cu3_0 2.510528 1_655
Cu2_4 Sc0_0 2.739573 1_655
Cu2_4 Sc0_1 2.739573 1_655
Cu2_4 Sc1_5 2.739573 1_555
Cu2_4 Sc1_4 2.739573 1_555
Cu2_4 Sc2_4 2.746028 1_555
Cu2_4 Sc2_5 2.746028 1_555
Cu2_4 In1_4 2.841867 1_555
Cu2_4 In0_0 2.841867 1_655
Cu2_5 Cu3_1 2.510528 1_655
Cu2_5 Sc0_0 2.739573 1_656
Cu2_5 Sc0_1 2.739573 1_655
Cu2_5 Sc1_5 2.739573 1_555
Cu2_5 Sc1_4 2.739573 1_556
Cu2_5 Sc2_5 2.746028 1_555
Cu2_5 Sc2_4 2.746028 1_556
Cu2_5 In1_5 2.841867 1_555
Cu2_5 In0_1 2.841867 1_655
Cu2_6 Cu3_2 2.510528 1_655
Cu2_6 Sc0_2 2.739573 1_655
Cu2_6 Sc0_3 2.739573 1_655
Cu2_6 Sc1_6 2.739573 1_555
Cu2_6 Sc1_7 2.739573 1_555
Cu2_6 Sc2_6 2.746028 1_555
Cu2_6 Sc2_7 2.746028 1_555
Cu2_6 In1_6 2.841867 1_555
Cu2_6 In0_2 2.841867 1_655
Cu2_7 Cu3_3 2.510528 1_655
Cu2_7 Sc0_3 2.739573 1_655
Cu2_7 Sc0_2 2.739573 1_656
Cu2_7 Sc1_7 2.739573 1_555
Cu2_7 Sc1_6 2.739573 1_556
Cu2_7 Sc2_6 2.746028 1_556
Cu2_7 Sc2_7 2.746028 1_555
Cu2_7 In1_7 2.841867 1_555
Cu2_7 In0_3 2.841867 1_655
Cu3_0 Sc1_4 2.739573 1_455
Cu3_0 Sc1_5 2.739573 1_455
Cu3_0 Sc0_1 2.739573 1_555
Cu3_0 Sc0_0 2.739573 1_555
Cu3_0 Sc3_0 2.746028 1_555
Cu3_0 Sc3_1 2.746028 1_555
Cu3_0 In0_2 2.841867 1_555
Cu3_0 In1_0 2.841867 1_555
Cu3_1 Sc1_4 2.739573 1_456
Cu3_1 Sc1_5 2.739573 1_455
Cu3_1 Sc0_0 2.739573 1_556
Cu3_1 Sc0_1 2.739573 1_555
Cu3_1 Sc3_0 2.746028 1_556
Cu3_1 Sc3_1 2.746028 1_555
Cu3_1 In0_3 2.841867 1_555
Cu3_1 In1_1 2.841867 1_555
Cu3_2 Sc1_7 2.739573 1_455
Cu3_2 Sc1_6 2.739573 1_455
Cu3_2 Sc0_2 2.739573 1_555
Cu3_2 Sc0_3 2.739573 1_555
Cu3_2 Sc3_3 2.746028 1_555
Cu3_2 Sc3_2 2.746028 1_555
Cu3_2 In1_2 2.841867 1_555
Cu3_2 In0_0 2.841867 1_565
Cu3_3 Sc1_7 2.739573 1_455
Cu3_3 Sc1_6 2.739573 1_456
Cu3_3 Sc0_2 2.739573 1_556
Cu3_3 Sc0_3 2.739573 1_555
Cu3_3 Sc3_2 2.746028 1_556
Cu3_3 Sc3_3 2.746028 1_555
Cu3_3 In0_1 2.841867 1_565
Cu3_3 In1_3 2.841867 1_555
Cu3_4 Sc0_5 2.739573 1_555
Cu3_4 Sc0_4 2.739573 1_555
Cu3_4 Sc1_1 2.739573 1_555
Cu3_4 Sc1_0 2.739573 1_555
Cu3_4 Sc3_5 2.746028 1_555
Cu3_4 Sc3_4 2.746028 1_555
Cu3_4 In0_6 2.841867 1_555
Cu3_4 In1_4 2.841867 1_555
Cu3_5 Sc0_4 2.739573 1_556
Cu3_5 Sc0_5 2.739573 1_555
Cu3_5 Sc1_0 2.739573 1_556
Cu3_5 Sc1_1 2.739573 1_555
Cu3_5 Sc3_4 2.746028 1_556
Cu3_5 Sc3_5 2.746028 1_555
Cu3_5 In0_7 2.841867 1_555
Cu3_5 In1_5 2.841867 1_555
Cu3_6 Sc0_7 2.739573 1_555
Cu3_6 Sc1_2 2.739573 1_555
Cu3_6 Sc0_6 2.739573 1_555
Cu3_6 Sc1_3 2.739573 1_555
Cu3_6 Sc3_7 2.746028 1_555
Cu3_6 Sc3_6 2.746028 1_555
Cu3_6 In0_4 2.841867 1_565
Cu3_6 In1_6 2.841867 1_555
Cu3_7 Sc0_7 2.739573 1_555
Cu3_7 Sc1_3 2.739573 1_555
Cu3_7 Sc0_6 2.739573 1_556
Cu3_7 Sc1_2 2.739573 1_556
Cu3_7 Sc3_6 2.746028 1_556
Cu3_7 Sc3_7 2.746028 1_555
Cu3_7 In0_5 2.841867 1_565
Cu3_7 In1_7 2.841867 1_555
