# generated using pymatgen
data_Zr5Ir3
_symmetry_space_group_name_H-M   'P 1'
_cell_length_a   8.04264881
_cell_length_b   8.04264881
_cell_length_c   5.52127897
_cell_angle_alpha   90.00000000
_cell_angle_beta   90.00000000
_cell_angle_gamma   119.99998709
_symmetry_Int_Tables_number   1
_chemical_formula_structural   Zr5Ir3
_chemical_formula_sum   'Zr10 Ir6'
_cell_volume   309.29193077
_cell_formula_units_Z   2
loop_
 _symmetry_equiv_pos_site_id
 _symmetry_equiv_pos_as_xyz
  1  'x, y, z'
loop_
 _atom_site_type_symbol
 _atom_site_label
 _atom_site_symmetry_multiplicity
 _atom_site_fract_x
 _atom_site_fract_y
 _atom_site_fract_z
 _atom_site_occupancy
  Zr  Zr0  1  0.66666700  0.33333300  -0.00000000  1
  Zr  Zr1  1  0.33333300  0.66666700  -0.00000000  1
  Zr  Zr2  1  0.33333300  0.66666700  0.50000000  1
  Zr  Zr3  1  0.66666700  0.33333300  0.50000000  1
  Zr  Zr4  1  0.75700087  0.75700087  0.75000000  1
  Zr  Zr5  1  0.24299913  -0.00000000  0.75000000  1
  Zr  Zr6  1  -0.00000000  0.24299913  0.75000000  1
  Zr  Zr7  1  0.24299913  0.24299913  0.25000000  1
  Zr  Zr8  1  0.75700087  0.00000000  0.25000000  1
  Zr  Zr9  1  0.00000000  0.75700087  0.25000000  1
  Ir  Ir0  1  0.39737497  0.39737497  0.75000000  1
  Ir  Ir1  1  0.60262503  -0.00000000  0.75000000  1
  Ir  Ir2  1  -0.00000000  0.60262503  0.75000000  1
  Ir  Ir3  1  0.60262503  0.60262503  0.25000000  1
  Ir  Ir4  1  0.39737497  0.00000000  0.25000000  1
  Ir  Ir5  1  0.00000000  0.39737497  0.25000000  1
loop_
_geom_bond_atom_site_label_1
_geom_bond_atom_site_label_2
_geom_bond_distance
_geom_bond_site_symmetry_2
Zr0 Zr3 2.760639 1_554
Zr0 Zr3 2.760639 1_555
Zr0 Zr6 3.401170 1_654
Zr0 Zr8 3.401170 1_555
Zr0 Zr9 3.401176 1_655
Zr0 Zr5 3.401176 1_554
Zr0 Zr7 3.401178 1_555
Zr0 Zr4 3.401178 1_554
Zr1 Zr2 2.760639 1_555
Zr1 Zr2 2.760639 1_554
Zr1 Zr5 3.401170 1_564
Zr1 Zr9 3.401170 1_555
Zr1 Zr6 3.401176 1_554
Zr1 Zr8 3.401176 1_565
Zr1 Zr7 3.401178 1_555
Zr1 Zr4 3.401178 1_554
Zr2 Zr5 3.401170 1_565
Zr2 Zr9 3.401170 1_555
Zr2 Zr6 3.401176 1_555
Zr2 Zr8 3.401176 1_565
Zr2 Zr7 3.401178 1_555
Zr2 Zr4 3.401178 1_555
Zr3 Zr6 3.401170 1_655
Zr3 Zr8 3.401170 1_555
Zr3 Zr9 3.401176 1_655
Zr3 Zr5 3.401176 1_555
Zr3 Zr7 3.401178 1_555
Zr3 Zr4 3.401178 1_555
Zr4 Zr9 3.382402 1_656
Zr4 Zr8 3.382402 1_565
Zr4 Zr8 3.382402 1_566
Zr4 Zr9 3.382402 1_655
Zr4 Zr5 3.385045 1_665
Zr4 Zr6 3.385045 1_665
Zr5 Zr7 3.382402 1_555
Zr5 Zr7 3.382402 1_556
Zr5 Zr9 3.382402 1_546
Zr5 Zr9 3.382402 1_545
Zr5 Zr6 3.385045 1_555
Zr6 Zr7 3.382402 1_555
Zr6 Zr7 3.382402 1_556
Zr6 Zr8 3.382402 1_456
Zr6 Zr8 3.382402 1_455
Zr7 Zr9 3.385045 1_545
Zr7 Zr8 3.385045 1_455
Zr8 Zr9 3.385045 1_645
Ir0 Zr5 2.790622 1_555
Ir0 Zr6 2.790622 1_555
Ir0 Zr2 2.824341 1_555
Ir0 Zr3 2.824341 1_555
Ir0 Zr0 2.824341 1_556
Ir0 Zr1 2.824341 1_556
Ir0 Zr4 2.892345 1_555
Ir0 Zr7 3.026992 1_556
Ir0 Zr7 3.026992 1_555
Ir0 Ir3 3.216539 1_555
Ir0 Ir3 3.216539 1_556
Ir1 Zr4 2.790621 1_545
Ir1 Zr6 2.790622 1_655
Ir1 Zr3 2.824334 1_555
Ir1 Zr0 2.824334 1_556
Ir1 Zr1 2.824337 1_546
Ir1 Zr2 2.824337 1_545
Ir1 Zr5 2.892345 1_555
Ir1 Zr8 3.026992 1_556
Ir1 Zr8 3.026992 1_555
Ir1 Ir4 3.216538 1_555
Ir1 Ir4 3.216538 1_556
Ir2 Zr4 2.790621 1_455
Ir2 Zr5 2.790622 1_565
Ir2 Zr2 2.824334 1_555
Ir2 Zr1 2.824334 1_556
Ir2 Zr3 2.824337 1_455
Ir2 Zr0 2.824337 1_456
Ir2 Zr6 2.892345 1_555
Ir2 Zr9 3.026992 1_556
Ir2 Zr9 3.026992 1_555
Ir2 Ir5 3.216538 1_556
Ir2 Ir5 3.216538 1_555
Ir3 Zr9 2.790622 1_655
Ir3 Zr8 2.790622 1_565
Ir3 Zr2 2.824341 1_555
Ir3 Zr3 2.824341 1_555
Ir3 Zr0 2.824341 1_555
Ir3 Zr1 2.824341 1_555
Ir3 Zr7 2.892345 1_555
Ir3 Zr4 3.026992 1_555
Ir3 Zr4 3.026992 1_554
Ir4 Zr7 2.790621 1_555
Ir4 Zr9 2.790622 1_545
Ir4 Zr2 2.824334 1_545
Ir4 Zr1 2.824334 1_545
Ir4 Zr3 2.824337 1_555
Ir4 Zr0 2.824337 1_555
Ir4 Zr8 2.892345 1_555
Ir4 Zr5 3.026992 1_555
Ir4 Zr5 3.026992 1_554
Ir5 Zr7 2.790621 1_555
Ir5 Zr8 2.790622 1_455
Ir5 Zr3 2.824334 1_455
Ir5 Zr0 2.824334 1_455
Ir5 Zr1 2.824337 1_555
Ir5 Zr2 2.824337 1_555
Ir5 Zr9 2.892345 1_555
Ir5 Zr6 3.026992 1_554
Ir5 Zr6 3.026992 1_555
