# generated using pymatgen
data_Mg2TiIrO6
_symmetry_space_group_name_H-M   'P 1'
_cell_length_a   5.32752300
_cell_length_b   5.15097900
_cell_length_c   9.09215121
_cell_angle_alpha   55.84325871
_cell_angle_beta   90.00000000
_cell_angle_gamma   90.00000000
_symmetry_Int_Tables_number   1
_chemical_formula_structural   Mg2TiIrO6
_chemical_formula_sum   'Mg4 Ti2 Ir2 O12'
_cell_volume   206.46775696
_cell_formula_units_Z   2
loop_
 _symmetry_equiv_pos_site_id
 _symmetry_equiv_pos_as_xyz
  1  'x, y, z'
loop_
 _atom_site_type_symbol
 _atom_site_label
 _atom_site_symmetry_multiplicity
 _atom_site_fract_x
 _atom_site_fract_y
 _atom_site_fract_z
 _atom_site_occupancy
  Mg  Mg0  1  0.94240700  0.23999400  0.75007000  1
  Mg  Mg1  1  0.44240700  0.76000600  0.74993000  1
  Mg  Mg2  1  0.55759300  0.23999400  0.25007000  1
  Mg  Mg3  1  0.05759300  0.76000600  0.24993000  1
  Ti  Ti0  1  0.50000000  0.00000000  0.00000000  1
  Ti  Ti1  1  0.00000000  0.00000000  0.50000000  1
  Ir  Ir0  1  0.50000000  0.50000000  0.50000000  1
  Ir  Ir1  1  0.00000000  0.50000000  0.00000000  1
  O  O0  1  0.43572000  0.62124600  0.24816200  1
  O  O1  1  0.18958900  0.89201200  0.93023000  1
  O  O2  1  0.18354900  0.24902300  0.56656300  1
  O  O3  1  0.68354900  0.75097700  0.93343700  1
  O  O4  1  0.68958900  0.10798800  0.56977000  1
  O  O5  1  0.93572000  0.37875400  0.25183800  1
  O  O6  1  0.06428000  0.62124600  0.74816200  1
  O  O7  1  0.31041100  0.89201200  0.43023000  1
  O  O8  1  0.31645100  0.24902300  0.06656300  1
  O  O9  1  0.81041100  0.10798800  0.06977000  1
  O  O10  1  0.81645100  0.75097700  0.43343700  1
  O  O11  1  0.56428000  0.37875400  0.75183800  1
loop_
_geom_bond_atom_site_label_1
_geom_bond_atom_site_label_2
_geom_bond_distance
_geom_bond_site_symmetry_2
Mg0 O6 2.059176 1_655
Mg0 O1 2.081631 1_645
Mg0 O2 2.085487 1_655
Mg0 O11 2.140598 1_555
Mg0 O4 2.493091 1_555
Mg0 O3 2.512091 1_545
Mg0 O10 2.675292 1_555
Mg0 O9 2.680799 1_556
Mg1 O11 2.059176 1_555
Mg1 O4 2.081631 1_565
Mg1 O3 2.085487 1_555
Mg1 O6 2.140598 1_555
Mg1 O1 2.493091 1_555
Mg1 O2 2.512091 1_565
Mg1 O8 2.675292 1_556
Mg1 O7 2.680799 1_555
Mg2 O0 2.059176 1_555
Mg2 O7 2.081631 1_545
Mg2 O8 2.085487 1_555
Mg2 O5 2.140598 1_555
Mg2 O9 2.493091 1_555
Mg2 O10 2.512091 1_545
Mg2 O3 2.675292 1_554
Mg2 O4 2.680799 1_555
Mg3 O5 2.059176 1_455
Mg3 O9 2.081631 1_465
Mg3 O10 2.085487 1_455
Mg3 O0 2.140598 1_555
Mg3 O7 2.493091 1_555
Mg3 O8 2.512091 1_565
Mg3 O2 2.675292 1_555
Mg3 O1 2.680799 1_554
Ir0 O2 2.000310 1_555
Ir0 O10 2.000310 1_555
Ir0 O7 2.015333 1_555
Ir0 O4 2.015333 1_555
Ir0 O11 2.035796 1_555
Ir0 O0 2.035796 1_555
Ir1 O8 2.000310 1_555
Ir1 O3 2.000310 1_454
Ir1 O1 2.015333 1_554
Ir1 O9 2.015333 1_455
Ir1 O5 2.035796 1_455
Ir1 O6 2.035796 1_554
O0 Ti0 2.017779 1_565
O1 Ti0 1.960318 1_566
O2 Ti1 1.959477 1_555
O3 Ti0 1.959477 1_566
O4 Ti1 1.960318 1_655
O5 Ti1 2.017779 1_655
O6 Ti1 2.017779 1_565
O7 Ti1 1.960318 1_565
O8 Ti0 1.959477 1_555
O9 Ti0 1.960318 1_555
O10 Ti1 1.959477 1_665
O11 Ti0 2.017779 1_556
