# generated using pymatgen
data_SrAl(OF2)2
_symmetry_space_group_name_H-M   'P 1'
_cell_length_a   10.83169800
_cell_length_b   5.27818800
_cell_length_c   8.95305247
_cell_angle_alpha   75.00315027
_cell_angle_beta   90.00000000
_cell_angle_gamma   90.00000000
_symmetry_Int_Tables_number   1
_chemical_formula_structural   SrAl(OF2)2
_chemical_formula_sum   'Sr4 Al4 O8 F16'
_cell_volume   494.42759695
_cell_formula_units_Z   4
loop_
 _symmetry_equiv_pos_site_id
 _symmetry_equiv_pos_as_xyz
  1  'x, y, z'
loop_
 _atom_site_type_symbol
 _atom_site_label
 _atom_site_symmetry_multiplicity
 _atom_site_fract_x
 _atom_site_fract_y
 _atom_site_fract_z
 _atom_site_occupancy
  Sr  Sr0  1  0.30740300  0.87274600  0.54639400  1
  Sr  Sr1  1  0.80740300  0.12725400  0.95360600  1
  Sr  Sr2  1  0.69259700  0.12725400  0.45360600  1
  Sr  Sr3  1  0.19259700  0.87274600  0.04639400  1
  Al  Al0  1  0.02746700  0.20109400  0.29435000  1
  Al  Al1  1  0.52746700  0.79890600  0.20565000  1
  Al  Al2  1  0.97253300  0.79890600  0.70565000  1
  Al  Al3  1  0.47253300  0.20109400  0.79435000  1
  O  O0  1  0.97208600  0.89003500  0.47923700  1
  O  O1  1  0.47208600  0.10996500  0.02076300  1
  O  O2  1  0.02791400  0.10996500  0.52076300  1
  O  O3  1  0.52791400  0.89003500  0.97923700  1
  O  O4  1  0.28701000  0.39818000  0.48541100  1
  O  O5  1  0.78701000  0.60182000  0.01458900  1
  O  O6  1  0.71299000  0.60182000  0.51458900  1
  O  O7  1  0.21299000  0.39818000  0.98541100  1
  F  F0  1  0.09716700  0.50530200  0.23252900  1
  F  F1  1  0.59716700  0.49469800  0.26747100  1
  F  F2  1  0.90283300  0.49469800  0.76747100  1
  F  F3  1  0.40283300  0.50530200  0.73252900  1
  F  F4  1  0.17324200  0.02319700  0.30631100  1
  F  F5  1  0.67324200  0.97680300  0.19368900  1
  F  F6  1  0.82675800  0.97680300  0.69368900  1
  F  F7  1  0.32675800  0.02319700  0.80631100  1
  F  F8  1  0.87573700  0.31848000  0.30571100  1
  F  F9  1  0.37573700  0.68152000  0.19428900  1
  F  F10  1  0.12426300  0.68152000  0.69428900  1
  F  F11  1  0.62426300  0.31848000  0.80571100  1
  F  F12  1  0.99033400  0.09109300  0.12964500  1
  F  F13  1  0.49033400  0.90890700  0.37035500  1
  F  F14  1  0.00966600  0.90890700  0.87035500  1
  F  F15  1  0.50966600  0.09109300  0.62964500  1
loop_
_geom_bond_atom_site_label_1
_geom_bond_atom_site_label_2
_geom_bond_distance
_geom_bond_site_symmetry_2
Al0 F0 1.730478 1_555
Al0 F12 1.765349 1_455
Al0 F8 1.768592 1_455
Al0 F4 1.826010 1_555
Al0 O2 1.958535 1_555
Al0 O0 2.094985 1_445
Al1 F1 1.730478 1_555
Al1 F13 1.765349 1_555
Al1 F9 1.768592 1_555
Al1 F5 1.826010 1_555
Al1 O3 1.958535 1_554
Al1 O1 2.094985 1_565
Al2 F2 1.730478 1_555
Al2 F14 1.765349 1_655
Al2 F10 1.768592 1_655
Al2 F6 1.826010 1_555
Al2 O0 1.958535 1_555
Al2 O2 2.094985 1_665
Al3 F3 1.730478 1_555
Al3 F15 1.765349 1_555
Al3 F11 1.768592 1_555
Al3 F7 1.826010 1_555
Al3 O1 1.958535 1_556
Al3 O3 2.094985 1_545
O0 O2 1.440412 1_665
O1 O3 1.440412 1_544
O4 Sr0 2.693447 1_545
O4 Sr0 2.707201 1_555
O5 Sr1 2.693447 1_564
O5 Sr1 2.707201 1_554
O6 Sr2 2.693447 1_565
O6 Sr2 2.707201 1_555
O7 Sr3 2.693447 1_546
O7 Sr3 2.707201 1_556
F0 Sr3 2.436054 1_555
F1 Sr2 2.436054 1_555
F2 Sr1 2.436054 1_555
F3 Sr0 2.436054 1_555
F4 Sr0 2.545434 1_545
F4 Sr3 2.654447 1_545
F5 Sr1 2.545434 1_564
F5 Sr2 2.654447 1_565
F6 Sr2 2.545434 1_565
F6 Sr1 2.654447 1_565
F7 Sr3 2.545434 1_546
F7 Sr0 2.654447 1_545
F8 Sr2 2.452649 1_555
F9 Sr3 2.452649 1_555
F10 Sr0 2.452649 1_555
F11 Sr1 2.452649 1_555
F12 Sr1 2.508177 1_554
F12 Sr3 2.669858 1_645
F13 Sr0 2.508177 1_555
F13 Sr2 2.669858 1_565
F14 Sr3 2.508177 1_556
F14 Sr1 2.669858 1_465
F15 Sr2 2.508177 1_555
F15 Sr0 2.669858 1_545
