# generated using pymatgen
data_TmNiPb
_symmetry_space_group_name_H-M   'P 1'
_cell_length_a   4.38843200
_cell_length_b   7.10266900
_cell_length_c   8.05688600
_cell_angle_alpha   90.00000000
_cell_angle_beta   90.00000000
_cell_angle_gamma   90.00000000
_symmetry_Int_Tables_number   1
_chemical_formula_structural   TmNiPb
_chemical_formula_sum   'Tm4 Ni4 Pb4'
_cell_volume   251.12975212
_cell_formula_units_Z   4
loop_
 _symmetry_equiv_pos_site_id
 _symmetry_equiv_pos_as_xyz
  1  'x, y, z'
loop_
 _atom_site_type_symbol
 _atom_site_label
 _atom_site_symmetry_multiplicity
 _atom_site_fract_x
 _atom_site_fract_y
 _atom_site_fract_z
 _atom_site_occupancy
  Tm  Tm0  1  0.25000000  0.51259700  0.18806600  1
  Tm  Tm1  1  0.75000000  0.48740300  0.81193400  1
  Tm  Tm2  1  0.75000000  0.98740300  0.68806600  1
  Tm  Tm3  1  0.25000000  0.01259700  0.31193400  1
  Ni  Ni0  1  0.25000000  0.76646600  0.89520400  1
  Ni  Ni1  1  0.75000000  0.23353400  0.10479600  1
  Ni  Ni2  1  0.75000000  0.73353400  0.39520400  1
  Ni  Ni3  1  0.25000000  0.26646600  0.60479600  1
  Pb  Pb0  1  0.25000000  0.67324800  0.57493000  1
  Pb  Pb1  1  0.75000000  0.32675200  0.42507000  1
  Pb  Pb2  1  0.75000000  0.82675200  0.07493000  1
  Pb  Pb3  1  0.25000000  0.17324800  0.92507000  1
loop_
_geom_bond_atom_site_label_1
_geom_bond_atom_site_label_2
_geom_bond_distance
_geom_bond_site_symmetry_2
Ni0 Pb2 2.663593 1_456
Ni0 Pb2 2.663593 1_556
Ni0 Pb0 2.664000 1_555
Ni0 Pb3 2.899241 1_565
Ni0 Tm0 2.969654 1_556
Ni0 Tm1 3.032058 1_555
Ni0 Tm1 3.032058 1_455
Ni0 Tm2 3.172111 1_555
Ni0 Tm2 3.172111 1_455
Ni1 Pb3 2.663593 1_654
Ni1 Pb3 2.663593 1_554
Ni1 Pb1 2.664000 1_555
Ni1 Pb2 2.899241 1_545
Ni1 Tm1 2.969654 1_554
Ni1 Tm0 3.032058 1_555
Ni1 Tm0 3.032058 1_655
Ni1 Tm3 3.172111 1_655
Ni1 Tm3 3.172111 1_555
Ni2 Pb0 2.663593 1_655
Ni2 Pb0 2.663593 1_555
Ni2 Pb2 2.664000 1_555
Ni2 Pb1 2.899241 1_555
Ni2 Tm2 2.969654 1_555
Ni2 Tm3 3.032058 1_565
Ni2 Tm3 3.032058 1_665
Ni2 Tm0 3.172111 1_555
Ni2 Tm0 3.172111 1_655
Ni3 Pb1 2.663593 1_455
Ni3 Pb1 2.663593 1_555
Ni3 Pb3 2.664000 1_555
Ni3 Pb0 2.899241 1_555
Ni3 Tm3 2.969654 1_555
Ni3 Tm2 3.032058 1_445
Ni3 Tm2 3.032058 1_545
Ni3 Tm1 3.172111 1_555
Ni3 Tm1 3.172111 1_455
Pb0 Tm1 3.194247 1_555
Pb0 Tm1 3.194247 1_455
Pb0 Tm3 3.209256 1_565
Pb0 Tm2 3.259499 1_455
Pb0 Tm2 3.259499 1_555
Pb0 Tm0 3.319214 1_555
Pb1 Tm0 3.194247 1_555
Pb1 Tm0 3.194247 1_655
Pb1 Tm2 3.209256 1_545
Pb1 Tm3 3.259499 1_655
Pb1 Tm3 3.259499 1_555
Pb1 Tm1 3.319214 1_555
Pb2 Tm3 3.194247 1_565
Pb2 Tm3 3.194247 1_665
Pb2 Tm1 3.209256 1_554
Pb2 Tm0 3.259499 1_655
Pb2 Tm0 3.259499 1_555
Pb2 Tm2 3.319214 1_554
Pb3 Tm2 3.194247 1_445
Pb3 Tm2 3.194247 1_545
Pb3 Tm0 3.209256 1_556
Pb3 Tm1 3.259499 1_455
Pb3 Tm1 3.259499 1_555
Pb3 Tm3 3.319214 1_556
