# generated using pymatgen
data_LaZnNi2
_symmetry_space_group_name_H-M   'P 1'
_cell_length_a   5.30870441
_cell_length_b   5.30870441
_cell_length_c   16.24386800
_cell_angle_alpha   90.00000000
_cell_angle_beta   90.00000000
_cell_angle_gamma   120.00000512
_symmetry_Int_Tables_number   1
_chemical_formula_structural   LaZnNi2
_chemical_formula_sum   'La6 Zn6 Ni12'
_cell_volume   396.45796729
_cell_formula_units_Z   6
loop_
 _symmetry_equiv_pos_site_id
 _symmetry_equiv_pos_as_xyz
  1  'x, y, z'
loop_
 _atom_site_type_symbol
 _atom_site_label
 _atom_site_symmetry_multiplicity
 _atom_site_fract_x
 _atom_site_fract_y
 _atom_site_fract_z
 _atom_site_occupancy
  La  La0  1  0.33333300  0.66666700  0.75000000  1
  La  La1  1  0.66666700  0.33333300  0.25000000  1
  La  La2  1  0.33333300  0.66666700  0.54314100  1
  La  La3  1  0.66666700  0.33333300  0.45685900  1
  La  La4  1  0.66666700  0.33333300  0.04314100  1
  La  La5  1  0.33333300  0.66666700  0.95685900  1
  Zn  Zn0  1  0.00000000  0.00000000  0.25000000  1
  Zn  Zn1  1  0.00000000  0.00000000  0.75000000  1
  Zn  Zn2  1  0.33333300  0.66666700  0.25000000  1
  Zn  Zn3  1  0.66666700  0.33333300  0.75000000  1
  Zn  Zn4  1  0.00000000  0.00000000  0.00000000  1
  Zn  Zn5  1  0.00000000  0.00000000  0.50000000  1
  Ni  Ni0  1  0.16583200  0.33166300  0.12700200  1
  Ni  Ni1  1  0.83416800  0.66833700  0.87299800  1
  Ni  Ni2  1  0.66833700  0.83416800  0.12700200  1
  Ni  Ni3  1  0.83416800  0.66833700  0.62700200  1
  Ni  Ni4  1  0.33166300  0.16583200  0.87299800  1
  Ni  Ni5  1  0.16583200  0.33166300  0.37299800  1
  Ni  Ni6  1  0.16583200  0.83416800  0.12700200  1
  Ni  Ni7  1  0.33166300  0.16583200  0.62700200  1
  Ni  Ni8  1  0.83416800  0.16583200  0.87299800  1
  Ni  Ni9  1  0.66833700  0.83416800  0.37299800  1
  Ni  Ni10  1  0.83416800  0.16583200  0.62700200  1
  Ni  Ni11  1  0.16583200  0.83416800  0.37299800  1
loop_
_geom_bond_atom_site_label_1
_geom_bond_atom_site_label_2
_geom_bond_distance
_geom_bond_site_symmetry_2
La0 Zn3 3.064979 1_455
La0 Zn3 3.064979 1_565
La0 Zn1 3.064979 1_565
La0 Zn1 3.064983 1_665
La0 Zn1 3.064983 1_555
La0 Zn3 3.064988 1_555
La0 Ni10 3.322273 1_565
La0 Ni8 3.322273 1_455
La0 Ni10 3.322273 1_455
La0 Ni8 3.322273 1_565
La0 Ni7 3.322274 1_555
La0 Ni3 3.322274 1_555
La0 Ni4 3.322274 1_555
La0 Ni1 3.322274 1_555
La0 Ni3 3.322274 1_455
La0 Ni4 3.322274 1_565
La0 Ni7 3.322274 1_565
La0 Ni1 3.322274 1_455
La0 La2 3.360190 1_555
La0 La5 3.360190 1_555
La1 Zn2 3.064979 1_545
La1 Zn2 3.064979 1_655
La1 Zn0 3.064979 1_655
La1 Zn0 3.064983 1_555
La1 Zn0 3.064983 1_665
La1 Zn2 3.064988 1_555
La1 Ni11 3.322273 1_655
La1 Ni6 3.322273 1_545
La1 Ni11 3.322273 1_545
La1 Ni6 3.322273 1_655
La1 Ni5 3.322274 1_555
La1 Ni0 3.322274 1_555
La1 Ni2 3.322274 1_555
La1 Ni9 3.322274 1_555
La1 Ni2 3.322274 1_545
La1 Ni9 3.322274 1_545
La1 Ni5 3.322274 1_655
La1 Ni0 3.322274 1_655
La1 La3 3.360190 1_555
La1 La4 3.360190 1_555
La2 Ni10 2.983506 1_455
La2 Ni10 2.983506 1_565
La2 Ni3 2.983506 1_555
La2 Ni7 2.983506 1_555
La2 Ni7 2.983506 1_565
La2 Ni3 2.983506 1_455
La2 Zn5 3.144071 1_565
La2 Zn5 3.144075 1_555
La2 Zn5 3.144075 1_665
La2 Ni11 3.163951 1_555
La2 Ni5 3.163955 1_555
La2 Ni9 3.163955 1_555
La3 Ni11 2.983506 1_655
La3 Ni11 2.983506 1_545
La3 Ni5 2.983506 1_555
La3 Ni9 2.983506 1_555
La3 Ni5 2.983506 1_655
La3 Ni9 2.983506 1_545
La3 Zn5 3.144071 1_655
La3 Zn5 3.144075 1_555
La3 Zn5 3.144075 1_665
La3 Ni10 3.163951 1_555
La3 Ni7 3.163955 1_555
La3 Ni3 3.163955 1_555
La4 Ni6 2.983506 1_545
La4 Ni6 2.983506 1_655
La4 Ni2 2.983506 1_555
La4 Ni0 2.983506 1_555
La4 Ni2 2.983506 1_545
La4 Ni0 2.983506 1_655
La4 Zn4 3.144071 1_655
La4 Zn4 3.144075 1_665
La4 Zn4 3.144075 1_555
La4 Ni8 3.163951 1_554
La4 Ni1 3.163955 1_554
La4 Ni4 3.163955 1_554
La5 Ni8 2.983506 1_455
La5 Ni8 2.983506 1_565
La5 Ni4 2.983506 1_555
La5 Ni1 2.983506 1_555
La5 Ni1 2.983506 1_455
La5 Ni4 2.983506 1_565
La5 Zn4 3.144071 1_566
La5 Zn4 3.144075 1_556
La5 Zn4 3.144075 1_666
La5 Ni6 3.163951 1_556
La5 Ni2 3.163955 1_556
La5 Ni0 3.163955 1_556
Ni0 Zn0 2.513346 1_555
Ni0 Zn2 2.522694 1_555
Ni0 Zn4 2.565353 1_555
Ni0 Ni2 2.641054 1_445
Ni0 Ni6 2.641054 1_545
Ni0 Ni2 2.667650 1_555
Ni0 Ni6 2.667651 1_555
Ni1 Zn1 2.513346 1_665
Ni1 Zn3 2.522694 1_555
Ni1 Zn4 2.565353 1_666
Ni1 Ni4 2.641054 1_665
Ni1 Ni8 2.641054 1_565
Ni1 Ni4 2.667650 1_555
Ni1 Ni8 2.667651 1_555
Ni2 Zn0 2.513346 1_665
Ni2 Zn2 2.522694 1_555
Ni2 Zn4 2.565353 1_665
Ni2 Ni6 2.641054 1_655
Ni2 Ni6 2.667651 1_555
Ni3 Zn1 2.513346 1_665
Ni3 Zn3 2.522694 1_555
Ni3 Zn5 2.565353 1_665
Ni3 Ni7 2.641054 1_665
Ni3 Ni7 2.667650 1_555
Ni4 Zn1 2.513346 1_555
Ni4 Zn3 2.522694 1_555
Ni4 Zn4 2.565353 1_556
Ni4 Ni8 2.641054 1_455
Ni4 Ni8 2.667651 1_555
Ni5 Zn0 2.513346 1_555
Ni5 Zn2 2.522694 1_555
Ni5 Zn5 2.565353 1_555
Ni5 Ni9 2.641054 1_445
Ni5 Ni9 2.667650 1_555
Ni6 Zn0 2.513349 1_565
Ni6 Zn2 2.522689 1_555
Ni6 Zn4 2.565356 1_565
Ni7 Zn1 2.513346 1_555
Ni7 Zn3 2.522694 1_555
Ni7 Zn5 2.565353 1_555
Ni8 Zn1 2.513349 1_655
Ni8 Zn3 2.522689 1_555
Ni8 Zn4 2.565356 1_656
Ni9 Zn0 2.513346 1_665
Ni9 Zn2 2.522694 1_555
Ni9 Zn5 2.565353 1_665
Ni10 Zn1 2.513349 1_655
Ni10 Zn3 2.522689 1_555
Ni10 Zn5 2.565356 1_655
Ni10 Ni7 2.641054 1_655
Ni10 Ni3 2.641054 1_545
Ni10 Ni7 2.667651 1_555
Ni10 Ni3 2.667651 1_555
Ni11 Zn0 2.513349 1_565
Ni11 Zn2 2.522689 1_555
Ni11 Zn5 2.565356 1_565
Ni11 Ni5 2.641054 1_565
Ni11 Ni9 2.641054 1_455
Ni11 Ni5 2.667651 1_555
Ni11 Ni9 2.667651 1_555
