# generated using pymatgen
data_Li2Al2P2O9F
_symmetry_space_group_name_H-M   'P 1'
_cell_length_a   5.11198400
_cell_length_b   5.21204535
_cell_length_c   7.05367062
_cell_angle_alpha   106.39771899
_cell_angle_beta   107.89432922
_cell_angle_gamma   99.22272971
_symmetry_Int_Tables_number   1
_chemical_formula_structural   Li2Al2P2O9F
_chemical_formula_sum   'Li2 Al2 P2 O9 F1'
_cell_volume   165.17136843
_cell_formula_units_Z   1
loop_
 _symmetry_equiv_pos_site_id
 _symmetry_equiv_pos_as_xyz
  1  'x, y, z'
loop_
 _atom_site_type_symbol
 _atom_site_label
 _atom_site_symmetry_multiplicity
 _atom_site_fract_x
 _atom_site_fract_y
 _atom_site_fract_z
 _atom_site_occupancy
  Li  Li0  1  0.72882700  0.37244700  0.80313400  1
  Li  Li1  1  0.26779000  0.62455800  0.19673800  1
  Al  Al0  1  0.00061100  0.00182700  0.99752800  1
  Al  Al1  1  0.99552100  0.99663700  0.50027400  1
  P  P0  1  0.67789200  0.35329500  0.24095900  1
  P  P1  1  0.32086700  0.64761000  0.75875600  1
  O  O0  1  0.12780800  0.67840300  0.89425200  1
  O  O1  1  0.87824000  0.32664300  0.11156900  1
  O  O2  1  0.69874300  0.66487500  0.34768800  1
  O  O3  1  0.29449800  0.33284300  0.65510800  1
  O  O4  1  0.36137200  0.23702800  0.08729100  1
  O  O5  1  0.63942200  0.76305800  0.91063700  1
  O  O6  1  0.25228900  0.78944200  0.59395100  1
  O  O7  1  0.74761900  0.20394500  0.39984500  1
  O  O8  1  0.90603500  0.06468300  0.74215900  1
  F  F0  1  0.10246600  0.94270600  0.26011100  1
loop_
_geom_bond_atom_site_label_1
_geom_bond_atom_site_label_2
_geom_bond_distance
_geom_bond_site_symmetry_2
Li0 O8 1.973417 1_555
Li0 O3 2.090273 1_555
Li0 O5 2.137359 1_555
Li0 O0 2.165439 1_655
Li0 O1 2.168903 1_556
Li1 O2 2.077253 1_555
Li1 O1 2.117661 1_455
Li1 O4 2.135609 1_555
Li1 O0 2.146491 1_554
Al0 O4 1.850481 1_556
Al0 O8 1.853239 1_455
Al0 O5 1.863037 1_445
Al0 F0 1.891463 1_546
Al0 O0 1.934983 1_545
Al0 O1 1.945328 1_456
Al1 O8 1.853665 1_565
Al1 O2 1.885455 1_555
Al1 O7 1.895963 1_565
Al1 F0 1.896621 1_655
Al1 O3 1.906444 1_665
Al1 O6 1.910493 1_655
O0 P1 1.567487 1_555
O1 P0 1.565136 1_555
O2 P0 1.555738 1_555
O3 P1 1.560617 1_555
O4 P0 1.548304 1_555
O5 P1 1.552895 1_555
O6 P1 1.529233 1_555
O7 P0 1.524806 1_555
F0 Li1 1.981557 1_555
