# generated using pymatgen
data_MgGa5
_symmetry_space_group_name_H-M   'P 1'
_cell_length_a   11.11458794
_cell_length_b   11.11458794
_cell_length_c   13.15075844
_cell_angle_alpha   72.20118463
_cell_angle_beta   72.20118463
_cell_angle_gamma   34.63410799
_symmetry_Int_Tables_number   1
_chemical_formula_structural   MgGa5
_chemical_formula_sum   'Mg8 Ga40'
_cell_volume   874.68775239
_cell_formula_units_Z   8
loop_
 _symmetry_equiv_pos_site_id
 _symmetry_equiv_pos_as_xyz
  1  'x, y, z'
loop_
 _atom_site_type_symbol
 _atom_site_label
 _atom_site_symmetry_multiplicity
 _atom_site_fract_x
 _atom_site_fract_y
 _atom_site_fract_z
 _atom_site_occupancy
  Mg  Mg0_0  1  0.30794881  0.30794881  0.13613032  1
  Mg  Mg0_1  1  0.30794881  0.30794881  0.63613032  1
  Mg  Mg0_2  1  0.30794881  0.80794881  0.13613032  1
  Mg  Mg0_3  1  0.30794881  0.80794881  0.63613032  1
  Mg  Mg0_4  1  0.80794881  0.30794881  0.13613032  1
  Mg  Mg0_5  1  0.80794881  0.30794881  0.63613032  1
  Mg  Mg0_6  1  0.80794881  0.80794881  0.13613032  1
  Mg  Mg0_7  1  0.80794881  0.80794881  0.63613032  1
  Ga  Ga0_0  1  0.49674458  0.49674458  0.00251198  1
  Ga  Ga0_1  1  0.49674458  0.49674458  0.50251198  1
  Ga  Ga0_2  1  0.49674458  0.99674458  0.00251198  1
  Ga  Ga0_3  1  0.49674458  0.99674458  0.50251198  1
  Ga  Ga0_4  1  0.99674457  0.49674458  0.00251198  1
  Ga  Ga0_5  1  0.99674458  0.49674458  0.50251198  1
  Ga  Ga0_6  1  0.99674458  0.99674458  0.00251198  1
  Ga  Ga0_7  1  0.99674458  0.99674458  0.50251198  1
  Ga  Ga1_0  1  0.16676078  0.16676078  0.16870090  1
  Ga  Ga1_1  1  0.16676078  0.16676078  0.66870090  1
  Ga  Ga1_2  1  0.16676078  0.66676078  0.16870090  1
  Ga  Ga1_3  1  0.16676078  0.66676078  0.66870090  1
  Ga  Ga1_4  1  0.66676078  0.16676078  0.16870090  1
  Ga  Ga1_5  1  0.66676078  0.16676078  0.66870090  1
  Ga  Ga1_6  1  0.66676078  0.66676078  0.16870090  1
  Ga  Ga1_7  1  0.66676078  0.66676078  0.66870090  1
  Ga  Ga2_0  1  0.47274972  0.47274972  0.30790581  1
  Ga  Ga2_1  1  0.47274972  0.47274972  0.80790581  1
  Ga  Ga2_2  1  0.47274972  0.97274972  0.30790581  1
  Ga  Ga2_3  1  0.47274972  0.97274972  0.80790581  1
  Ga  Ga2_4  1  0.97274972  0.47274972  0.30790581  1
  Ga  Ga2_5  1  0.97274971  0.47274971  0.80790581  1
  Ga  Ga2_6  1  0.97274972  0.97274972  0.30790581  1
  Ga  Ga2_7  1  0.97274972  0.97274972  0.80790581  1
  Ga  Ga3_0  1  0.33208004  0.33208004  0.33895681  1
  Ga  Ga3_1  1  0.33208004  0.33208004  0.83895680  1
  Ga  Ga3_2  1  0.33208004  0.83208004  0.33895681  1
  Ga  Ga3_3  1  0.33208004  0.83208004  0.83895681  1
  Ga  Ga3_4  1  0.83208004  0.33208004  0.33895681  1
  Ga  Ga3_5  1  0.83208004  0.33208004  0.83895681  1
  Ga  Ga3_6  1  0.83208004  0.83208004  0.33895681  1
  Ga  Ga3_7  1  0.83208004  0.83208004  0.83895681  1
  Ga  Ga4_0  1  0.14038309  0.14038308  0.46246071  1
  Ga  Ga4_1  1  0.14038309  0.14038309  0.96246071  1
  Ga  Ga4_2  1  0.14038309  0.64038309  0.46246071  1
  Ga  Ga4_3  1  0.14038309  0.64038309  0.96246071  1
  Ga  Ga4_4  1  0.64038308  0.14038309  0.46246071  1
  Ga  Ga4_5  1  0.64038308  0.14038309  0.96246071  1
  Ga  Ga4_6  1  0.64038309  0.64038309  0.46246071  1
  Ga  Ga4_7  1  0.64038309  0.64038309  0.96246071  1
loop_
_geom_bond_atom_site_label_1
_geom_bond_atom_site_label_2
_geom_bond_distance
_geom_bond_site_symmetry_2
Mg0_0 Mg0_6 3.308358 1_455
Mg0_0 Mg0_6 3.308358 1_545
Mg0_1 Mg0_7 3.308358 1_455
Mg0_1 Mg0_7 3.308358 1_545
Mg0_2 Mg0_4 3.308358 1_555
Mg0_2 Mg0_4 3.308358 1_465
Mg0_3 Mg0_5 3.308358 1_555
Mg0_3 Mg0_5 3.308358 1_465
Ga0_0 Ga2_1 2.764674 1_554
Ga0_0 Ga1_2 2.831659 1_555
Ga0_0 Ga1_4 2.831659 1_555
Ga0_0 Ga3_5 2.854429 1_554
Ga0_0 Ga3_3 2.854429 1_554
Ga0_0 Ga4_7 2.922502 1_554
Ga0_0 Ga4_3 2.978222 1_554
Ga0_0 Ga4_5 2.978222 1_554
Ga0_0 Mg0_4 2.995423 1_555
Ga0_0 Mg0_2 2.995423 1_555
Ga0_1 Ga2_0 2.764674 1_555
Ga0_1 Ga1_3 2.831659 1_555
Ga0_1 Ga1_5 2.831659 1_555
Ga0_1 Ga3_4 2.854429 1_555
Ga0_1 Ga3_2 2.854429 1_555
Ga0_1 Ga4_6 2.922502 1_555
Ga0_1 Ga4_2 2.978222 1_555
Ga0_1 Ga4_4 2.978222 1_555
Ga0_1 Mg0_5 2.995423 1_555
Ga0_1 Mg0_3 2.995423 1_555
Ga0_2 Ga2_3 2.764674 1_554
Ga0_2 Ga1_6 2.831659 1_555
Ga0_2 Ga1_0 2.831659 1_565
Ga0_2 Ga3_1 2.854429 1_564
Ga0_2 Ga3_7 2.854429 1_554
Ga0_2 Ga4_5 2.922502 1_564
Ga0_2 Ga4_7 2.978222 1_554
Ga0_2 Ga4_1 2.978222 1_564
Ga0_2 Mg0_0 2.995423 1_565
Ga0_2 Mg0_6 2.995423 1_555
Ga0_3 Ga2_2 2.764674 1_555
Ga0_3 Ga1_7 2.831659 1_555
Ga0_3 Ga1_1 2.831659 1_565
Ga0_3 Ga3_6 2.854429 1_555
Ga0_3 Ga3_0 2.854429 1_565
Ga0_3 Ga4_4 2.922502 1_565
Ga0_3 Ga4_6 2.978222 1_555
Ga0_3 Ga4_0 2.978222 1_565
Ga0_3 Mg0_1 2.995423 1_565
Ga0_3 Mg0_7 2.995423 1_555
Ga0_4 Ga2_5 2.764674 1_554
Ga0_4 Ga1_6 2.831659 1_555
Ga0_4 Ga1_0 2.831659 1_655
Ga0_4 Ga3_7 2.854429 1_554
Ga0_4 Ga3_1 2.854429 1_654
Ga0_4 Ga4_3 2.922502 1_654
Ga0_4 Ga4_7 2.978222 1_554
Ga0_4 Ga4_1 2.978222 1_654
Ga0_4 Mg0_0 2.995423 1_655
Ga0_4 Mg0_6 2.995423 1_555
Ga0_5 Ga2_4 2.764674 1_555
Ga0_5 Ga1_7 2.831659 1_555
Ga0_5 Ga1_1 2.831659 1_655
Ga0_5 Ga3_0 2.854429 1_655
Ga0_5 Ga3_6 2.854429 1_555
Ga0_5 Ga4_2 2.922502 1_655
Ga0_5 Ga4_6 2.978222 1_555
Ga0_5 Ga4_0 2.978222 1_655
Ga0_5 Mg0_1 2.995423 1_655
Ga0_5 Mg0_7 2.995423 1_555
Ga0_6 Ga2_7 2.764674 1_554
Ga0_6 Ga1_2 2.831659 1_655
Ga0_6 Ga1_4 2.831659 1_565
Ga0_6 Ga3_5 2.854429 1_564
Ga0_6 Ga3_3 2.854429 1_654
Ga0_6 Ga4_1 2.922502 1_664
Ga0_6 Ga4_3 2.978222 1_654
Ga0_6 Ga4_5 2.978222 1_564
Ga0_6 Mg0_4 2.995423 1_565
Ga0_6 Mg0_2 2.995423 1_655
Ga0_7 Ga2_6 2.764674 1_555
Ga0_7 Ga1_3 2.831659 1_655
Ga0_7 Ga1_5 2.831659 1_565
Ga0_7 Ga3_4 2.854429 1_565
Ga0_7 Ga3_2 2.854429 1_655
Ga0_7 Ga4_0 2.922502 1_665
Ga0_7 Ga4_2 2.978222 1_655
Ga0_7 Ga4_4 2.978222 1_565
Ga0_7 Mg0_5 2.995423 1_565
Ga0_7 Mg0_3 2.995423 1_655
Ga1_0 Mg0_0 2.887738 1_555
Ga1_0 Ga3_2 2.898654 1_545
Ga1_0 Ga3_4 2.898654 1_455
Ga1_0 Ga4_1 2.939677 1_554
Ga1_0 Mg0_2 2.980836 1_545
Ga1_0 Mg0_4 2.980836 1_455
Ga1_0 Ga2_4 2.981988 1_455
Ga1_0 Ga2_2 2.981988 1_545
Ga1_1 Mg0_1 2.887738 1_555
Ga1_1 Ga3_3 2.898654 1_545
Ga1_1 Ga3_5 2.898654 1_455
Ga1_1 Ga4_0 2.939677 1_555
Ga1_1 Mg0_3 2.980836 1_545
Ga1_1 Mg0_5 2.980836 1_455
Ga1_1 Ga2_5 2.981988 1_455
Ga1_1 Ga2_3 2.981988 1_545
Ga1_2 Mg0_2 2.887738 1_555
Ga1_2 Ga3_6 2.898654 1_455
Ga1_2 Ga3_0 2.898654 1_555
Ga1_2 Ga4_3 2.939677 1_554
Ga1_2 Mg0_6 2.980836 1_455
Ga1_2 Mg0_0 2.980836 1_555
Ga1_2 Ga2_0 2.981988 1_555
Ga1_2 Ga2_6 2.981988 1_455
Ga1_3 Mg0_3 2.887738 1_555
Ga1_3 Ga3_1 2.898654 1_555
Ga1_3 Ga3_7 2.898654 1_455
Ga1_3 Ga4_2 2.939677 1_555
Ga1_3 Mg0_7 2.980836 1_455
Ga1_3 Mg0_1 2.980836 1_555
Ga1_3 Ga2_1 2.981988 1_555
Ga1_3 Ga2_7 2.981988 1_455
Ga1_4 Mg0_4 2.887738 1_555
Ga1_4 Ga3_6 2.898654 1_545
Ga1_4 Ga3_0 2.898654 1_555
Ga1_4 Ga4_5 2.939677 1_554
Ga1_4 Mg0_6 2.980836 1_545
Ga1_4 Mg0_0 2.980836 1_555
Ga1_4 Ga2_0 2.981988 1_555
Ga1_4 Ga2_6 2.981988 1_545
Ga1_5 Mg0_5 2.887738 1_555
Ga1_5 Ga3_1 2.898654 1_555
Ga1_5 Ga3_7 2.898654 1_545
Ga1_5 Ga4_4 2.939677 1_555
Ga1_5 Mg0_7 2.980836 1_545
Ga1_5 Mg0_1 2.980836 1_555
Ga1_5 Ga2_1 2.981988 1_555
Ga1_5 Ga2_7 2.981988 1_545
Ga1_6 Mg0_6 2.887738 1_555
Ga1_6 Ga3_2 2.898654 1_555
Ga1_6 Ga3_4 2.898654 1_555
Ga1_6 Ga4_7 2.939677 1_554
Ga1_6 Mg0_2 2.980836 1_555
Ga1_6 Mg0_4 2.980836 1_555
Ga1_6 Ga2_4 2.981988 1_555
Ga1_6 Ga2_2 2.981988 1_555
Ga1_7 Mg0_7 2.887738 1_555
Ga1_7 Ga3_3 2.898654 1_555
Ga1_7 Ga3_5 2.898654 1_555
Ga1_7 Ga4_6 2.939677 1_555
Ga1_7 Mg0_3 2.980836 1_555
Ga1_7 Mg0_5 2.980836 1_555
Ga1_7 Ga2_5 2.981988 1_555
Ga1_7 Ga2_3 2.981988 1_555
Ga2_0 Ga4_2 2.765440 1_555
Ga2_0 Ga4_4 2.765440 1_555
Ga2_0 Ga3_0 2.880579 1_555
Ga2_0 Mg0_4 2.914246 1_555
Ga2_0 Mg0_2 2.914246 1_555
Ga2_0 Ga3_4 2.982099 1_555
Ga2_0 Ga3_2 2.982099 1_555
Ga2_1 Ga4_3 2.765440 1_555
Ga2_1 Ga4_5 2.765440 1_555
Ga2_1 Ga3_1 2.880579 1_555
Ga2_1 Mg0_5 2.914246 1_555
Ga2_1 Mg0_3 2.914246 1_555
Ga2_1 Ga3_5 2.982099 1_555
Ga2_1 Ga3_3 2.982099 1_555
Ga2_2 Ga4_6 2.765440 1_555
Ga2_2 Ga4_0 2.765440 1_565
Ga2_2 Ga3_2 2.880579 1_555
Ga2_2 Mg0_0 2.914246 1_565
Ga2_2 Mg0_6 2.914246 1_555
Ga2_2 Ga3_0 2.982099 1_565
Ga2_2 Ga3_6 2.982099 1_555
Ga2_3 Ga4_1 2.765440 1_565
Ga2_3 Ga4_7 2.765440 1_555
Ga2_3 Ga3_3 2.880579 1_555
Ga2_3 Mg0_1 2.914246 1_565
Ga2_3 Mg0_7 2.914246 1_555
Ga2_3 Ga3_1 2.982099 1_565
Ga2_3 Ga3_7 2.982099 1_555
Ga2_4 Ga4_6 2.765440 1_555
Ga2_4 Ga4_0 2.765440 1_655
Ga2_4 Ga3_4 2.880579 1_555
Ga2_4 Mg0_0 2.914246 1_655
Ga2_4 Mg0_6 2.914246 1_555
Ga2_4 Ga3_0 2.982099 1_655
Ga2_4 Ga3_6 2.982099 1_555
Ga2_5 Ga4_7 2.765440 1_555
Ga2_5 Ga4_1 2.765440 1_655
Ga2_5 Ga3_5 2.880579 1_555
Ga2_5 Mg0_1 2.914246 1_655
Ga2_5 Mg0_7 2.914246 1_555
Ga2_5 Ga3_1 2.982099 1_655
Ga2_5 Ga3_7 2.982099 1_555
Ga2_6 Ga4_2 2.765440 1_655
Ga2_6 Ga4_4 2.765440 1_565
Ga2_6 Ga3_6 2.880579 1_555
Ga2_6 Mg0_4 2.914246 1_565
Ga2_6 Mg0_2 2.914246 1_655
Ga2_6 Ga3_4 2.982099 1_565
Ga2_6 Ga3_2 2.982099 1_655
Ga2_7 Ga4_3 2.765440 1_655
Ga2_7 Ga4_5 2.765440 1_565
Ga2_7 Ga3_7 2.880579 1_555
Ga2_7 Mg0_5 2.914246 1_565
Ga2_7 Mg0_3 2.914246 1_655
Ga2_7 Ga3_5 2.982099 1_565
Ga2_7 Ga3_3 2.982099 1_655
Ga3_0 Ga4_4 2.862164 1_555
Ga3_0 Ga4_2 2.862164 1_555
Ga3_0 Mg0_0 2.872556 1_555
Ga3_1 Ga4_5 2.862164 1_555
Ga3_1 Ga4_3 2.862164 1_555
Ga3_1 Mg0_1 2.872556 1_555
Ga3_2 Ga4_6 2.862164 1_555
Ga3_2 Ga4_0 2.862164 1_565
Ga3_2 Mg0_2 2.872556 1_555
Ga3_3 Ga4_1 2.862164 1_565
Ga3_3 Ga4_7 2.862164 1_555
Ga3_3 Mg0_3 2.872556 1_555
Ga3_4 Ga4_0 2.862164 1_655
Ga3_4 Ga4_6 2.862164 1_555
Ga3_4 Mg0_4 2.872556 1_555
Ga3_5 Ga4_1 2.862164 1_655
Ga3_5 Ga4_7 2.862164 1_555
Ga3_5 Mg0_5 2.872556 1_555
Ga3_6 Ga4_4 2.862164 1_565
Ga3_6 Ga4_2 2.862164 1_655
Ga3_6 Mg0_6 2.872556 1_555
Ga3_7 Ga4_5 2.862164 1_565
Ga3_7 Ga4_3 2.862164 1_655
Ga3_7 Mg0_7 2.872556 1_555
Ga4_0 Mg0_3 2.907616 1_545
Ga4_0 Mg0_5 2.907616 1_455
Ga4_1 Mg0_2 2.907616 1_546
Ga4_1 Mg0_4 2.907616 1_456
Ga4_2 Mg0_7 2.907616 1_455
Ga4_2 Mg0_1 2.907616 1_555
Ga4_3 Mg0_6 2.907616 1_456
Ga4_3 Mg0_0 2.907616 1_556
Ga4_4 Mg0_1 2.907616 1_555
Ga4_4 Mg0_7 2.907616 1_545
Ga4_5 Mg0_6 2.907616 1_546
Ga4_5 Mg0_0 2.907616 1_556
Ga4_6 Mg0_3 2.907616 1_555
Ga4_6 Mg0_5 2.907616 1_555
Ga4_7 Mg0_2 2.907616 1_556
Ga4_7 Mg0_4 2.907616 1_556
