# generated using pymatgen
data_SrCaMn2O5
_symmetry_space_group_name_H-M   'P 1'
_cell_length_a   11.04211579
_cell_length_b   11.16680613
_cell_length_c   17.58989265
_cell_angle_alpha   108.49793532
_cell_angle_beta   108.40463216
_cell_angle_gamma   90.01717249
_symmetry_Int_Tables_number   1
_chemical_formula_structural   SrCaMn2O5
_chemical_formula_sum   'Sr16 Ca16 Mn32 O80'
_cell_volume   1939.45594835
_cell_formula_units_Z   16
loop_
 _symmetry_equiv_pos_site_id
 _symmetry_equiv_pos_as_xyz
  1  'x, y, z'
loop_
 _atom_site_type_symbol
 _atom_site_label
 _atom_site_symmetry_multiplicity
 _atom_site_fract_x
 _atom_site_fract_y
 _atom_site_fract_z
 _atom_site_occupancy
  Sr  Sr0  1  0.30883000  0.55983400  0.61123100  1
  Sr  Sr1  1  0.80754500  0.05665900  0.60872100  1
  Sr  Sr2  1  0.81065500  0.55864500  0.61119100  1
  Sr  Sr3  1  0.19583100  0.43900100  0.38631800  1
  Sr  Sr4  1  0.20101400  0.44258600  0.89406900  1
  Sr  Sr5  1  0.69635300  0.43941300  0.38620800  1
  Sr  Sr6  1  0.69764300  0.93756400  0.38591200  1
  Sr  Sr7  1  0.70214600  0.94113700  0.89386900  1
  Sr  Sr8  1  0.06098200  0.29985600  0.61057900  1
  Sr  Sr9  1  0.06002700  0.80228600  0.60981100  1
  Sr  Sr10  1  0.55911400  0.30114700  0.61082600  1
  Sr  Sr11  1  0.55920900  0.80175700  0.60968700  1
  Sr  Sr12  1  0.44584500  0.19709500  0.38635600  1
  Sr  Sr13  1  0.45141300  0.20171400  0.89221700  1
  Sr  Sr14  1  0.94711900  0.19624200  0.38632200  1
  Sr  Sr15  1  0.95034000  0.20189900  0.89344800  1
  Ca  Ca0  1  0.30522200  0.06358400  0.10449000  1
  Ca  Ca1  1  0.30695300  0.05898400  0.60399000  1
  Ca  Ca2  1  0.30543800  0.56403000  0.10578700  1
  Ca  Ca3  1  0.80378700  0.06355300  0.10406400  1
  Ca  Ca4  1  0.80703600  0.56303500  0.10618900  1
  Ca  Ca5  1  0.20171100  0.93614600  0.39194400  1
  Ca  Ca6  1  0.20438500  0.93872700  0.89957000  1
  Ca  Ca7  1  0.70334900  0.43960500  0.90007400  1
  Ca  Ca8  1  0.05399200  0.29113200  0.10497100  1
  Ca  Ca9  1  0.05594500  0.79176200  0.10481600  1
  Ca  Ca10  1  0.55286300  0.29072100  0.10347600  1
  Ca  Ca11  1  0.55542200  0.79092500  0.10292500  1
  Ca  Ca12  1  0.44811400  0.70420600  0.39200400  1
  Ca  Ca13  1  0.45145300  0.70948700  0.89832400  1
  Ca  Ca14  1  0.95019000  0.70474200  0.39202700  1
  Ca  Ca15  1  0.95395800  0.71025700  0.89957800  1
  Mn  Mn0  1  0.00971000  0.00062300  0.00373100  1
  Mn  Mn1  1  0.00470000  0.99797200  0.49734300  1
  Mn  Mn2  1  0.00717500  0.50258400  0.00330700  1
  Mn  Mn3  1  0.00227800  0.49966700  0.49761500  1
  Mn  Mn4  1  0.50794600  0.00080500  0.00282200  1
  Mn  Mn5  1  0.50219200  0.99860800  0.49744100  1
  Mn  Mn6  1  0.50842200  0.50225900  0.00299700  1
  Mn  Mn7  1  0.50190400  0.49900400  0.49722700  1
  Mn  Mn8  1  0.25814000  0.25212500  0.00365900  1
  Mn  Mn9  1  0.25342200  0.24799600  0.49855700  1
  Mn  Mn10  1  0.25834300  0.75230200  0.00300800  1
  Mn  Mn11  1  0.25260000  0.74897900  0.49692900  1
  Mn  Mn12  1  0.75830100  0.25397200  0.00466500  1
  Mn  Mn13  1  0.75289800  0.24912600  0.49835600  1
  Mn  Mn14  1  0.75844700  0.74955900  0.00171900  1
  Mn  Mn15  1  0.75257500  0.74697300  0.49628300  1
  Mn  Mn16  1  0.10476900  0.08539100  0.24355800  1
  Mn  Mn17  1  0.11844200  0.09318100  0.75564500  1
  Mn  Mn18  1  0.10525400  0.59837300  0.24487200  1
  Mn  Mn19  1  0.11473400  0.60417300  0.75662200  1
  Mn  Mn20  1  0.60326200  0.08551200  0.24147800  1
  Mn  Mn21  1  0.60876600  0.09984200  0.75185200  1
  Mn  Mn22  1  0.60367200  0.59217700  0.24318800  1
  Mn  Mn23  1  0.61289100  0.59647600  0.75909500  1
  Mn  Mn24  1  0.35328500  0.40834100  0.24342000  1
  Mn  Mn25  1  0.36828600  0.40819100  0.75618500  1
  Mn  Mn26  1  0.35070900  0.89767700  0.24406700  1
  Mn  Mn27  1  0.35979000  0.90497700  0.75387200  1
  Mn  Mn28  1  0.85458500  0.40911400  0.24438700  1
  Mn  Mn29  1  0.86018000  0.41512000  0.75958500  1
  Mn  Mn30  1  0.85877900  0.89619000  0.24165900  1
  Mn  Mn31  1  0.86793800  0.90317800  0.75422600  1
  O  O0  1  0.12840400  0.11835000  0.49383100  1
  O  O1  1  0.12996300  0.12118400  0.99490200  1
  O  O2  1  0.12088400  0.62369500  0.48943800  1
  O  O3  1  0.12495500  0.62610200  0.99322900  1
  O  O4  1  0.62492000  0.12226600  0.49434300  1
  O  O5  1  0.62919000  0.12592000  0.99794200  1
  O  O6  1  0.62195900  0.62298700  0.49159200  1
  O  O7  1  0.62678700  0.62140700  0.99061700  1
  O  O8  1  0.13751800  0.38290000  0.01722700  1
  O  O9  1  0.12920500  0.37550900  0.50270900  1
  O  O10  1  0.13838100  0.88013600  0.01309200  1
  O  O11  1  0.13095900  0.87609400  0.49903500  1
  O  O12  1  0.63940100  0.38456300  0.01669400  1
  O  O13  1  0.62842100  0.37547100  0.50084600  1
  O  O14  1  0.63645400  0.87799000  0.01346000  1
  O  O15  1  0.62526700  0.87106300  0.49747200  1
  O  O16  1  0.37143100  0.11616800  0.49174400  1
  O  O17  1  0.37521100  0.11781400  0.99337900  1
  O  O18  1  0.37577500  0.62396800  0.49273000  1
  O  O19  1  0.38011500  0.62447600  0.99395500  1
  O  O20  1  0.87756200  0.12159800  0.49666600  1
  O  O21  1  0.87967200  0.12249200  0.99746600  1
  O  O22  1  0.87525100  0.62232800  0.49186600  1
  O  O23  1  0.87555400  0.61843800  0.98991500  1
  O  O24  1  0.38766500  0.38553900  0.01556000  1
  O  O25  1  0.37851000  0.37617000  0.50192400  1
  O  O26  1  0.38777600  0.88355500  0.01424600  1
  O  O27  1  0.37787700  0.87850300  0.50273900  1
  O  O28  1  0.88534100  0.38573000  0.01416900  1
  O  O29  1  0.87840700  0.37572800  0.50125700  1
  O  O30  1  0.88990900  0.88199500  0.01505000  1
  O  O31  1  0.88050300  0.87333200  0.49898500  1
  O  O32  1  0.08686700  0.09010000  0.13335900  1
  O  O33  1  0.08707100  0.07488900  0.64028200  1
  O  O34  1  0.07517500  0.59608900  0.13114300  1
  O  O35  1  0.07176600  0.58350400  0.63892600  1
  O  O36  1  0.58005500  0.09232500  0.13153700  1
  O  O37  1  0.57459800  0.07850200  0.63526800  1
  O  O38  1  0.57822800  0.59606900  0.13173000  1
  O  O39  1  0.57636400  0.57985700  0.64341500  1
  O  O40  1  0.42967800  0.41765800  0.35687400  1
  O  O41  1  0.44900800  0.41543600  0.87328100  1
  O  O42  1  0.43198200  0.91325700  0.35895200  1
  O  O43  1  0.44904200  0.91337700  0.87025500  1
  O  O44  1  0.93082100  0.41720300  0.35762700  1
  O  O45  1  0.94563700  0.41502700  0.87267600  1
  O  O46  1  0.93749200  0.91442100  0.35747800  1
  O  O47  1  0.94954600  0.91092100  0.87173800  1
  O  O48  1  0.33425900  0.29120200  0.13328600  1
  O  O49  1  0.32963100  0.30134100  0.63938400  1
  O  O50  1  0.32531100  0.78681200  0.13145900  1
  O  O51  1  0.31945900  0.80372800  0.63835800  1
  O  O52  1  0.83627100  0.29362300  0.13455500  1
  O  O53  1  0.82586000  0.31579400  0.64435200  1
  O  O54  1  0.83148100  0.78357500  0.12924200  1
  O  O55  1  0.82420500  0.80651400  0.63666600  1
  O  O56  1  0.18109100  0.18888200  0.35721300  1
  O  O57  1  0.19450200  0.20617900  0.87061300  1
  O  O58  1  0.19125300  0.69773000  0.35965600  1
  O  O59  1  0.20319000  0.71281400  0.87296100  1
  O  O60  1  0.68166100  0.18337700  0.35622000  1
  O  O61  1  0.68852200  0.20922200  0.87005000  1
  O  O62  1  0.69007800  0.68726700  0.35753000  1
  O  O63  1  0.70283000  0.70725600  0.87200100  1
  O  O64  1  0.42460800  0.05852100  0.23808300  1
  O  O65  1  0.42675700  0.06611100  0.74516000  1
  O  O66  1  0.42626200  0.57788900  0.24627200  1
  O  O67  1  0.43869500  0.58308900  0.76216300  1
  O  O68  1  0.92599900  0.06202100  0.23692000  1
  O  O69  1  0.94276800  0.06721500  0.75255200  1
  O  O70  1  0.92661500  0.57741000  0.24748200  1
  O  O71  1  0.93690900  0.57968900  0.76373700  1
  O  O72  1  0.17400200  0.42830500  0.23796100  1
  O  O73  1  0.19040700  0.44183800  0.75384400  1
  O  O74  1  0.17368900  0.91740400  0.24584000  1
  O  O75  1  0.18696600  0.92719500  0.76256500  1
  O  O76  1  0.67301200  0.42407200  0.23671000  1
  O  O77  1  0.68290600  0.43013000  0.76275000  1
  O  O78  1  0.67934600  0.92155600  0.23720600  1
  O  O79  1  0.69261900  0.94193400  0.75422400  1
loop_
_geom_bond_atom_site_label_1
_geom_bond_atom_site_label_2
_geom_bond_distance
_geom_bond_site_symmetry_2
Ca0 O64 2.321907 1_555
Ca0 O48 2.428983 1_555
Ca0 O10 2.492552 1_545
Ca0 O26 2.506416 1_545
Ca0 O1 2.511283 1_554
Ca0 O17 2.547211 1_554
Ca0 O32 2.614783 1_555
Ca0 O36 2.920587 1_555
Ca1 O65 2.392222 1_555
Ca1 O27 2.539911 1_545
Ca1 O0 2.546510 1_555
Ca1 O16 2.549566 1_555
Ca1 O49 2.570343 1_555
Ca1 O11 2.587572 1_545
Ca1 O33 2.690928 1_555
Ca1 O37 2.825101 1_555
Ca2 O66 2.363417 1_555
Ca2 O50 2.380188 1_555
Ca2 O8 2.475944 1_555
Ca2 O24 2.493936 1_555
Ca2 O3 2.598498 1_554
Ca2 O19 2.621364 1_554
Ca2 O34 2.721610 1_555
Ca2 O38 2.904695 1_555
Ca3 O68 2.305778 1_555
Ca3 O52 2.453661 1_555
Ca3 O5 2.497927 1_554
Ca3 O14 2.508085 1_545
Ca3 O30 2.528520 1_545
Ca3 O21 2.534948 1_554
Ca3 O36 2.663797 1_555
Ca3 O32 3.001579 1_655
Ca4 O54 2.366247 1_555
Ca4 O70 2.370785 1_555
Ca4 O12 2.458335 1_555
Ca4 O28 2.477682 1_555
Ca4 O7 2.608763 1_554
Ca4 O23 2.630200 1_554
Ca4 O38 2.708022 1_555
Ca4 O34 2.858543 1_655
Ca5 O74 2.429144 1_555
Ca5 O16 2.513179 1_565
Ca5 O11 2.517730 1_555
Ca5 O27 2.529688 1_555
Ca5 O58 2.534347 1_555
Ca5 O0 2.571015 1_565
Ca5 O42 2.775851 1_555
Ca5 O46 2.779888 1_455
Ca5 O56 3.065416 1_565
Ca6 O75 2.317667 1_555
Ca6 O59 2.414588 1_555
Ca6 O17 2.493707 1_565
Ca6 O1 2.518271 1_565
Ca6 O10 2.587342 1_556
Ca6 O26 2.599835 1_556
Ca6 O47 2.699554 1_455
Ca6 O43 2.903750 1_555
Ca7 O77 2.321716 1_555
Ca7 O61 2.450964 1_555
Ca7 O7 2.484410 1_555
Ca7 O23 2.489736 1_555
Ca7 O28 2.578418 1_556
Ca7 O12 2.607452 1_556
Ca7 O41 2.695453 1_555
Ca7 O45 2.862841 1_555
Ca8 O72 2.311330 1_555
Ca8 O32 2.453152 1_555
Ca8 O8 2.486920 1_555
Ca8 O21 2.503409 1_454
Ca8 O28 2.515661 1_455
Ca8 O1 2.597847 1_554
Ca8 O52 2.613828 1_455
Ca8 O48 2.975221 1_555
Ca9 O74 2.359275 1_555
Ca9 O34 2.369432 1_555
Ca9 O30 2.460173 1_455
Ca9 O10 2.518479 1_555
Ca9 O3 2.548856 1_554
Ca9 O23 2.602297 1_454
Ca9 O54 2.652062 1_455
Ca9 O50 2.864595 1_555
Ca10 O76 2.300207 1_555
Ca10 O36 2.417168 1_555
Ca10 O24 2.469594 1_555
Ca10 O12 2.505371 1_555
Ca10 O5 2.522725 1_554
Ca10 O17 2.559835 1_554
Ca10 O48 2.626616 1_555
Ca11 O78 2.313208 1_555
Ca11 O38 2.382036 1_555
Ca11 O14 2.466124 1_555
Ca11 O26 2.476192 1_555
Ca11 O19 2.504031 1_554
Ca11 O7 2.591885 1_554
Ca11 O50 2.744105 1_555
Ca11 O54 2.940448 1_555
Ca12 O66 2.435938 1_555
Ca12 O15 2.500558 1_555
Ca12 O6 2.542028 1_555
Ca12 O18 2.545693 1_555
Ca12 O42 2.572034 1_555
Ca12 O27 2.594789 1_555
Ca12 O58 2.707070 1_555
Ca12 O62 2.914198 1_555
Ca12 O40 3.054125 1_555
Ca13 O67 2.321661 1_555
Ca13 O43 2.476558 1_555
Ca13 O19 2.490141 1_555
Ca13 O7 2.526046 1_555
Ca13 O14 2.604300 1_556
Ca13 O26 2.611816 1_556
Ca13 O59 2.636990 1_555
Ca13 O63 2.953638 1_555
Ca14 O70 2.416992 1_555
Ca14 O2 2.500656 1_655
Ca14 O31 2.518625 1_555
Ca14 O11 2.555075 1_655
Ca14 O22 2.560953 1_555
Ca14 O46 2.592419 1_555
Ca14 O62 2.734913 1_555
Ca14 O58 2.888715 1_655
Ca14 O44 3.067040 1_555
Ca15 O71 2.318577 1_555
Ca15 O47 2.438145 1_555
Ca15 O3 2.486207 1_655
Ca15 O23 2.495549 1_555
Ca15 O30 2.596099 1_556
Ca15 O10 2.599825 1_656
Ca15 O63 2.658218 1_555
Ca15 O59 2.935275 1_655
Mn0 O10 1.962150 1_545
Mn0 O1 1.965091 1_554
Mn0 O30 1.969017 1_445
Mn0 O21 1.980497 1_454
Mn0 O32 2.061657 1_555
Mn0 O47 2.094068 1_444
Mn1 O0 1.944607 1_565
Mn1 O11 1.948721 1_555
Mn1 O31 1.966757 1_455
Mn1 O20 1.969223 1_465
Mn1 O46 2.205460 1_455
Mn1 O33 2.252064 1_565
Mn2 O23 1.954435 1_454
Mn2 O28 1.966858 1_455
Mn2 O8 1.975830 1_555
Mn2 O3 1.981151 1_554
Mn2 O34 2.038109 1_555
Mn2 O45 2.070172 1_454
Mn3 O22 1.962979 1_455
Mn3 O9 1.973647 1_555
Mn3 O2 1.974432 1_555
Mn3 O29 1.975068 1_455
Mn3 O44 2.206295 1_455
Mn3 O35 2.227617 1_555
Mn4 O26 1.962063 1_545
Mn4 O17 1.966768 1_554
Mn4 O5 1.974654 1_554
Mn4 O14 1.981362 1_545
Mn4 O36 2.048767 1_555
Mn4 O43 2.100241 1_544
Mn5 O16 1.952290 1_565
Mn5 O4 1.959469 1_565
Mn5 O27 1.962336 1_555
Mn5 O15 1.968917 1_555
Mn5 O37 2.171605 1_565
Mn5 O42 2.185713 1_555
Mn6 O12 1.964479 1_555
Mn6 O7 1.971911 1_554
Mn6 O19 1.972759 1_554
Mn6 O24 1.973178 1_555
Mn6 O38 2.052123 1_555
Mn6 O41 2.056013 1_554
Mn7 O6 1.962900 1_555
Mn7 O13 1.964525 1_555
Mn7 O25 1.971459 1_555
Mn7 O18 1.973544 1_555
Mn7 O40 2.211200 1_555
Mn7 O39 2.301037 1_555
Mn8 O1 1.970562 1_554
Mn8 O24 1.980070 1_555
Mn8 O17 1.982410 1_554
Mn8 O8 1.986027 1_555
Mn8 O48 2.062552 1_555
Mn8 O57 2.105545 1_554
Mn9 O25 1.962981 1_555
Mn9 O0 1.964303 1_555
Mn9 O16 1.966529 1_555
Mn9 O9 1.978039 1_555
Mn9 O49 2.224018 1_555
Mn9 O56 2.226964 1_555
Mn10 O10 1.952613 1_555
Mn10 O19 1.965446 1_554
Mn10 O26 1.966326 1_555
Mn10 O3 1.967213 1_554
Mn10 O50 2.047607 1_555
Mn10 O59 2.068368 1_554
Mn11 O18 1.950193 1_555
Mn11 O11 1.954373 1_555
Mn11 O27 1.957485 1_555
Mn11 O2 1.962337 1_555
Mn11 O58 2.169526 1_555
Mn11 O51 2.232148 1_555
Mn12 O28 1.963452 1_555
Mn12 O12 1.968720 1_555
Mn12 O5 1.968810 1_554
Mn12 O21 1.989514 1_554
Mn12 O52 2.067153 1_555
Mn12 O61 2.132384 1_554
Mn13 O29 1.957124 1_555
Mn13 O4 1.970062 1_555
Mn13 O13 1.970193 1_555
Mn13 O20 1.980894 1_555
Mn13 O60 2.236432 1_555
Mn13 O53 2.297448 1_555
Mn14 O23 1.958799 1_554
Mn14 O7 1.960035 1_554
Mn14 O14 1.975585 1_555
Mn14 O30 1.978134 1_555
Mn14 O54 2.035461 1_555
Mn14 O63 2.058548 1_554
Mn15 O22 1.943528 1_555
Mn15 O6 1.963428 1_555
Mn15 O15 1.974347 1_555
Mn15 O31 1.975484 1_555
Mn15 O62 2.186586 1_555
Mn15 O55 2.211293 1_555
Mn16 O56 1.874038 1_555
Mn16 O32 1.903134 1_555
Mn16 O68 1.952748 1_455
Mn16 O74 2.032002 1_545
Mn17 O33 1.890117 1_555
Mn17 O57 1.922202 1_555
Mn17 O69 1.942401 1_455
Mn17 O75 2.027010 1_545
Mn18 O58 1.891164 1_555
Mn18 O34 1.913361 1_555
Mn18 O70 2.002897 1_455
Mn18 O72 2.027395 1_555
Mn19 O35 1.908100 1_555
Mn19 O59 1.943025 1_555
Mn19 O73 1.989269 1_555
Mn19 O71 2.030410 1_455
Mn20 O60 1.874515 1_555
Mn20 O36 1.895173 1_555
Mn20 O64 1.974806 1_555
Mn20 O78 2.004249 1_545
Mn21 O37 1.898896 1_555
Mn21 O61 1.954958 1_555
Mn21 O79 1.997912 1_545
Mn21 O65 2.004224 1_555
Mn22 O62 1.874973 1_555
Mn22 O38 1.905460 1_555
Mn22 O66 1.984545 1_555
Mn22 O76 2.010798 1_555
Mn23 O39 1.891991 1_555
Mn23 O63 1.911987 1_555
Mn23 O67 1.948224 1_555
Mn23 O77 2.024252 1_555
Mn24 O40 1.873549 1_555
Mn24 O48 1.908660 1_555
Mn24 O72 1.967689 1_555
Mn24 O66 2.037100 1_555
Mn25 O49 1.928038 1_555
Mn25 O41 1.943800 1_555
Mn25 O73 1.989971 1_555
Mn25 O67 2.060843 1_555
Mn26 O42 1.884408 1_555
Mn26 O50 1.904661 1_555
Mn26 O74 1.976018 1_555
Mn26 O64 2.018981 1_565
Mn27 O51 1.890968 1_555
Mn27 O43 1.942953 1_555
Mn27 O75 1.971593 1_555
Mn27 O65 2.013373 1_565
Mn28 O44 1.873863 1_555
Mn28 O52 1.899646 1_555
Mn28 O76 1.977249 1_555
Mn28 O70 2.018486 1_555
Mn29 O53 1.889563 1_555
Mn29 O45 1.914049 1_555
Mn29 O77 1.981416 1_555
Mn29 O71 1.993784 1_555
Mn30 O46 1.888349 1_555
Mn30 O54 1.904707 1_555
Mn30 O78 1.982023 1_555
Mn30 O68 2.030580 1_565
Mn31 O55 1.904521 1_555
Mn31 O47 1.949990 1_555
Mn31 O79 1.983797 1_555
Mn31 O69 2.021798 1_565
O0 Sr14 2.644659 1_455
O0 Sr8 2.684159 1_555
O1 Sr15 2.591849 1_455
O2 Sr3 2.608400 1_555
O2 Sr9 2.670537 1_555
O2 Sr0 2.750986 1_555
O3 Sr4 2.570048 1_555
O4 Sr12 2.617758 1_555
O4 Sr6 2.647367 1_545
O4 Sr1 2.650528 1_555
O4 Sr10 2.657097 1_555
O5 Sr13 2.592850 1_555
O5 Sr7 2.606390 1_545
O6 Sr5 2.620028 1_555
O6 Sr11 2.656823 1_555
O6 Sr2 2.734133 1_555
O8 Sr15 2.731496 1_454
O8 Sr4 2.739313 1_554
O9 Sr8 2.607822 1_555
O9 Sr0 2.632142 1_555
O9 Sr14 2.653114 1_455
O9 Sr3 2.665937 1_555
O11 Sr9 2.659313 1_555
O12 Sr13 2.750044 1_554
O13 Sr10 2.640121 1_555
O13 Sr12 2.641239 1_555
O13 Sr5 2.647089 1_555
O13 Sr2 2.648103 1_555
O14 Sr7 2.711639 1_554
O15 Sr11 2.627782 1_555
O15 Sr6 2.637326 1_555
O15 Sr1 2.666964 1_565
O16 Sr12 2.636793 1_555
O16 Sr10 2.731312 1_555
O17 Sr13 2.599037 1_555
O18 Sr3 2.629386 1_555
O18 Sr11 2.655406 1_555
O18 Sr0 2.706295 1_555
O19 Sr4 2.581205 1_555
O20 Sr1 2.622491 1_555
O20 Sr6 2.641723 1_545
O20 Sr8 2.642613 1_655
O20 Sr14 2.649429 1_555
O21 Sr7 2.581635 1_545
O21 Sr15 2.583306 1_555
O22 Sr5 2.607478 1_555
O22 Sr9 2.680398 1_655
O22 Sr2 2.704087 1_555
O24 Sr4 2.702570 1_554
O24 Sr13 2.748741 1_554
O25 Sr0 2.632109 1_555
O25 Sr10 2.637309 1_555
O25 Sr3 2.648086 1_555
O25 Sr12 2.657041 1_555
O27 Sr11 2.632127 1_555
O28 Sr15 2.726814 1_554
O29 Sr2 2.622840 1_555
O29 Sr5 2.643384 1_555
O29 Sr8 2.658345 1_655
O29 Sr14 2.660523 1_555
O30 Sr7 2.716941 1_554
O31 Sr9 2.627052 1_655
O31 Sr6 2.630128 1_555
O31 Sr1 2.653540 1_565
O33 Sr8 2.721246 1_555
O33 Sr9 2.916523 1_545
O33 Sr1 2.953369 1_455
O35 Sr9 2.645751 1_555
O35 Sr2 2.766478 1_455
O35 Sr0 2.807742 1_555
O35 Sr8 3.042303 1_555
O37 Sr10 2.650950 1_555
O37 Sr1 2.753263 1_555
O37 Sr11 2.975011 1_545
O39 Sr11 2.718466 1_555
O39 Sr2 2.812728 1_555
O39 Sr0 2.821469 1_555
O39 Sr10 2.974881 1_555
O40 Sr12 2.668216 1_555
O40 Sr3 2.785522 1_555
O40 Sr5 2.820792 1_555
O41 Sr13 2.511243 1_555
O41 Sr4 2.878675 1_555
O42 Sr6 2.818363 1_555
O42 Sr12 3.047223 1_565
O43 Sr7 2.695236 1_555
O43 Sr13 3.117908 1_565
O44 Sr14 2.666183 1_555
O44 Sr5 2.785760 1_555
O44 Sr3 2.804657 1_655
O45 Sr15 2.517991 1_555
O45 Sr4 2.728388 1_655
O46 Sr6 2.843589 1_555
O46 Sr14 3.020788 1_565
O47 Sr7 2.883912 1_555
O47 Sr15 3.148704 1_565
O49 Sr10 2.734314 1_555
O49 Sr8 2.846469 1_555
O49 Sr0 3.076641 1_555
O51 Sr0 2.607456 1_555
O51 Sr9 2.746872 1_555
O51 Sr11 2.845930 1_555
O53 Sr1 2.752465 1_555
O53 Sr10 2.809239 1_555
O53 Sr8 2.834108 1_655
O53 Sr2 2.943609 1_555
O55 Sr2 2.656101 1_555
O55 Sr9 2.787237 1_655
O55 Sr11 2.810205 1_555
O55 Sr1 2.982042 1_565
O56 Sr3 2.670091 1_555
O56 Sr14 2.784307 1_455
O56 Sr12 2.800253 1_555
O57 Sr4 2.536640 1_555
O57 Sr13 2.743345 1_555
O57 Sr15 2.851017 1_455
O58 Sr3 3.068345 1_555
O59 Sr4 3.156068 1_555
O60 Sr5 2.732718 1_555
O60 Sr14 2.804366 1_555
O60 Sr12 2.811601 1_555
O60 Sr6 2.947954 1_545
O61 Sr13 2.771137 1_555
O61 Sr15 2.793611 1_555
O61 Sr7 3.149044 1_545
O62 Sr6 2.675153 1_555
O62 Sr5 2.963714 1_555
O63 Sr7 2.516624 1_555
O64 Sr12 2.510859 1_555
O65 Sr13 2.475436 1_555
O67 Sr0 2.516040 1_555
O68 Sr14 2.514057 1_555
O69 Sr15 2.432089 1_555
O69 Sr1 2.463619 1_555
O71 Sr2 2.536980 1_555
O72 Sr3 2.507450 1_555
O73 Sr4 2.429429 1_555
O73 Sr8 2.468985 1_555
O75 Sr9 2.524350 1_555
O76 Sr5 2.509384 1_555
O77 Sr10 2.516785 1_555
O78 Sr6 2.506861 1_555
O79 Sr7 2.428057 1_555
O79 Sr11 2.488475 1_555
