# generated using pymatgen
data_Sm2VFeO6
_symmetry_space_group_name_H-M   'P 1'
_cell_length_a   5.68134600
_cell_length_b   5.43488000
_cell_length_c   9.53251431
_cell_angle_alpha   55.22557290
_cell_angle_beta   90.00000000
_cell_angle_gamma   90.00000000
_symmetry_Int_Tables_number   1
_chemical_formula_structural   Sm2VFeO6
_chemical_formula_sum   'Sm4 V2 Fe2 O12'
_cell_volume   241.77166486
_cell_formula_units_Z   2
loop_
 _symmetry_equiv_pos_site_id
 _symmetry_equiv_pos_as_xyz
  1  'x, y, z'
loop_
 _atom_site_type_symbol
 _atom_site_label
 _atom_site_symmetry_multiplicity
 _atom_site_fract_x
 _atom_site_fract_y
 _atom_site_fract_z
 _atom_site_occupancy
  Sm  Sm0  1  0.56275500  0.73302400  0.75024400  1
  Sm  Sm1  1  0.06275500  0.26697600  0.74975600  1
  Sm  Sm2  1  0.43724500  0.26697600  0.24975600  1
  Sm  Sm3  1  0.93724500  0.73302400  0.25024400  1
  V  V0  1  0.00000000  0.00000000  0.50000000  1
  V  V1  1  0.50000000  0.00000000  0.00000000  1
  Fe  Fe0  1  0.00000000  0.50000000  0.00000000  1
  Fe  Fe1  1  0.50000000  0.50000000  0.50000000  1
  O  O0  1  0.79902000  0.25013300  0.94697100  1
  O  O1  1  0.29902000  0.74986700  0.55302900  1
  O  O2  1  0.20103500  0.35731800  0.44656400  1
  O  O3  1  0.70103500  0.64268200  0.05343600  1
  O  O4  1  0.20098000  0.74986700  0.05302900  1
  O  O5  1  0.70098000  0.25013300  0.44697100  1
  O  O6  1  0.79896500  0.64268200  0.55343600  1
  O  O7  1  0.29896500  0.35731800  0.94656400  1
  O  O8  1  0.96733800  0.85007300  0.75184400  1
  O  O9  1  0.46733800  0.14992700  0.74815600  1
  O  O10  1  0.03266200  0.14992700  0.24815600  1
  O  O11  1  0.53266200  0.85007300  0.25184400  1
loop_
_geom_bond_atom_site_label_1
_geom_bond_atom_site_label_2
_geom_bond_distance
_geom_bond_site_symmetry_2
Fe0 O10 2.028851 1_555
Fe0 O8 2.028851 1_454
Fe0 O4 2.046100 1_555
Fe0 O0 2.046100 1_454
Fe0 O3 2.048503 1_455
Fe0 O7 2.048503 1_554
Fe1 O9 2.028851 1_555
Fe1 O11 2.028851 1_555
Fe1 O1 2.046100 1_555
Fe1 O5 2.046100 1_555
Fe1 O6 2.048503 1_555
Fe1 O2 2.048503 1_555
O0 V1 2.050799 1_556
O0 Sm1 2.364618 1_655
O0 Sm0 2.567529 1_555
O0 Sm3 2.757696 1_546
O1 V0 2.050799 1_565
O1 Sm0 2.364618 1_555
O1 Sm1 2.567529 1_555
O1 Sm2 2.757696 1_565
O2 V0 2.051068 1_555
O2 Sm3 2.357705 1_455
O2 Sm2 2.571464 1_555
O2 Sm1 2.755485 1_555
O3 V1 2.051068 1_565
O3 Sm2 2.357705 1_555
O3 Sm3 2.571464 1_555
O3 Sm0 2.755485 1_554
O4 V1 2.050799 1_565
O4 Sm3 2.364618 1_455
O4 Sm2 2.567529 1_555
O4 Sm1 2.757696 1_564
O5 V0 2.050799 1_655
O5 Sm2 2.364618 1_555
O5 Sm3 2.567529 1_555
O5 Sm0 2.757696 1_545
O6 V0 2.051068 1_665
O6 Sm1 2.357705 1_655
O6 Sm0 2.571464 1_555
O6 Sm3 2.755485 1_555
O7 V1 2.051068 1_556
O7 Sm0 2.357705 1_555
O7 Sm1 2.571464 1_555
O7 Sm2 2.755485 1_556
O8 V0 2.056789 1_665
O8 Sm1 2.318782 1_665
O8 Sm0 2.387349 1_555
O9 V1 2.056789 1_556
O9 Sm0 2.318782 1_545
O9 Sm1 2.387349 1_555
O10 V0 2.056789 1_555
O10 Sm3 2.318782 1_445
O10 Sm2 2.387349 1_555
O11 V1 2.056789 1_565
O11 Sm2 2.318782 1_565
O11 Sm3 2.387349 1_555
