# generated using pymatgen
data_Sr(GeAu)2
_symmetry_space_group_name_H-M   'P 1'
_cell_length_a   4.55086652
_cell_length_b   4.55086630
_cell_length_c   6.09483526
_cell_angle_alpha   111.92163248
_cell_angle_beta   111.92162453
_cell_angle_gamma   90.00000171
_symmetry_Int_Tables_number   1
_chemical_formula_structural   Sr(GeAu)2
_chemical_formula_sum   'Sr1 Ge2 Au2'
_cell_volume   107.19864181
_cell_formula_units_Z   1
loop_
 _symmetry_equiv_pos_site_id
 _symmetry_equiv_pos_as_xyz
  1  'x, y, z'
loop_
 _atom_site_type_symbol
 _atom_site_label
 _atom_site_symmetry_multiplicity
 _atom_site_fract_x
 _atom_site_fract_y
 _atom_site_fract_z
 _atom_site_occupancy
  Sr  Sr0  1  0.00000000  0.00000000  0.00000000  1
  Ge  Ge0  1  0.62132824  0.62132824  0.24265749  1
  Ge  Ge1  1  0.37867176  0.37867176  0.75734251  1
  Au  Au0  1  0.25000000  0.75000000  0.50000000  1
  Au  Au1  1  0.75000000  0.25000000  0.50000000  1
loop_
_geom_bond_atom_site_label_1
_geom_bond_atom_site_label_2
_geom_bond_distance
_geom_bond_site_symmetry_2
Ge0 Ge1 2.512030 1_554
Ge0 Sr0 3.454380 1_555
Ge0 Sr0 3.454384 1_655
Ge0 Sr0 3.454384 1_565
Ge0 Sr0 3.454387 1_665
Ge1 Sr0 3.454380 1_666
Ge1 Sr0 3.454384 1_566
Ge1 Sr0 3.454384 1_656
Ge1 Sr0 3.454387 1_556
Au0 Ge0 2.636642 1_555
Au0 Ge1 2.636642 1_555
Au0 Ge1 2.636645 1_565
Au0 Ge0 2.636646 1_455
Au0 Sr0 3.446092 1_555
Au0 Sr0 3.446092 1_666
Au0 Sr0 3.446092 1_566
Au0 Sr0 3.446092 1_565
Au1 Ge1 2.636642 1_555
Au1 Ge0 2.636642 1_555
Au1 Ge0 2.636645 1_545
Au1 Ge1 2.636646 1_655
Au1 Sr0 3.446092 1_666
Au1 Sr0 3.446092 1_555
Au1 Sr0 3.446092 1_655
Au1 Sr0 3.446092 1_656
