# generated using pymatgen
data_Nd4Fe
_symmetry_space_group_name_H-M   'P 1'
_cell_length_a   7.78096342
_cell_length_b   7.78096342
_cell_length_c   7.78096342
_cell_angle_alpha   60.00000000
_cell_angle_beta   60.00000000
_cell_angle_gamma   60.00000000
_symmetry_Int_Tables_number   1
_chemical_formula_structural   Nd4Fe
_chemical_formula_sum   'Nd8 Fe2'
_cell_volume   333.10804635
_cell_formula_units_Z   2
loop_
 _symmetry_equiv_pos_site_id
 _symmetry_equiv_pos_as_xyz
  1  'x, y, z'
loop_
 _atom_site_type_symbol
 _atom_site_label
 _atom_site_symmetry_multiplicity
 _atom_site_fract_x
 _atom_site_fract_y
 _atom_site_fract_z
 _atom_site_occupancy
  Nd  Nd0  1  0.61605800  0.61605800  0.61605800  1
  Nd  Nd1  1  0.15182700  0.61605800  0.61605800  1
  Nd  Nd2  1  0.61605800  0.15182700  0.61605800  1
  Nd  Nd3  1  0.59817300  0.13394200  0.13394200  1
  Nd  Nd4  1  0.13394200  0.13394200  0.13394200  1
  Nd  Nd5  1  0.61605800  0.61605800  0.15182700  1
  Nd  Nd6  1  0.13394200  0.59817300  0.13394200  1
  Nd  Nd7  1  0.13394200  0.13394200  0.59817300  1
  Fe  Fe0  1  0.00000000  0.00000000  0.00000000  1
  Fe  Fe1  1  0.75000000  0.75000000  0.75000000  1
loop_
_geom_bond_atom_site_label_1
_geom_bond_atom_site_label_2
_geom_bond_distance
_geom_bond_site_symmetry_2
Fe0 Nd4 2.552853 1_555
Fe0 Nd7 2.552859 1_554
Fe0 Nd6 2.552859 1_545
Fe0 Nd3 2.552859 1_455
Fe1 Nd0 2.552853 1_555
Fe1 Nd1 2.552859 1_655
Fe1 Nd5 2.552859 1_556
Fe1 Nd2 2.552859 1_565
