# generated using pymatgen
data_K6Nb11O30
_symmetry_space_group_name_H-M   'P 1'
_cell_length_a   13.02950200
_cell_length_b   13.02950200
_cell_length_c   3.96251700
_cell_angle_alpha   90.00000000
_cell_angle_beta   90.00000000
_cell_angle_gamma   90.41085517
_symmetry_Int_Tables_number   1
_chemical_formula_structural   K6Nb11O30
_chemical_formula_sum   'K6 Nb11 O30'
_cell_volume   672.69098295
_cell_formula_units_Z   1
loop_
 _symmetry_equiv_pos_site_id
 _symmetry_equiv_pos_as_xyz
  1  'x, y, z'
loop_
 _atom_site_type_symbol
 _atom_site_label
 _atom_site_symmetry_multiplicity
 _atom_site_fract_x
 _atom_site_fract_y
 _atom_site_fract_z
 _atom_site_occupancy
  K  K0  1  0.32677400  0.31837200  0.50000000  1
  K  K1  1  0.68162800  0.67322600  0.50000000  1
  K  K2  1  0.16456100  0.83543900  0.50000000  1
  K  K3  1  0.82994300  0.17005700  0.50000000  1
  K  K4  1  0.50200900  0.00892600  0.50000000  1
  K  K5  1  0.99107400  0.49799100  0.50000000  1
  Nb  Nb0  1  0.19275200  0.57069200  0.00000000  1
  Nb  Nb1  1  0.79639600  0.41790300  0.00000000  1
  Nb  Nb2  1  0.28881700  0.08805300  0.00000000  1
  Nb  Nb3  1  0.72275900  0.93082000  0.00000000  1
  Nb  Nb4  1  0.91194700  0.71118300  0.00000000  1
  Nb  Nb5  1  0.06918000  0.27724100  0.00000000  1
  Nb  Nb6  1  0.42930800  0.80724800  0.00000000  1
  Nb  Nb7  1  0.58209700  0.20360400  0.00000000  1
  Nb  Nb8  1  0.51585400  0.48414600  0.00000000  1
  Nb  Nb9  1  0.01033100  0.98966900  0.00000000  1
  Nb  Nb10  1  0.38016600  0.61983400  0.50000000  1
  O  O0  1  0.49420100  0.34474700  0.00000000  1
  O  O1  1  0.48449400  0.64924700  0.00000000  1
  O  O2  1  0.00093600  0.84369500  0.00000000  1
  O  O3  1  0.99732500  0.15555800  0.00000000  1
  O  O4  1  0.15630500  0.99906400  0.00000000  1
  O  O5  1  0.84444200  0.00267400  0.00000000  1
  O  O6  1  0.65525300  0.50579900  0.00000000  1
  O  O7  1  0.35075300  0.51550600  0.00000000  1
  O  O8  1  0.42002500  0.76903400  0.50000000  1
  O  O9  1  0.57413800  0.20944000  0.50000000  1
  O  O10  1  0.07871100  0.29778300  0.50000000  1
  O  O11  1  0.92595200  0.70719400  0.50000000  1
  O  O12  1  0.70221700  0.92128900  0.50000000  1
  O  O13  1  0.29280600  0.07404800  0.50000000  1
  O  O14  1  0.23096600  0.57997500  0.50000000  1
  O  O15  1  0.79056000  0.42586200  0.50000000  1
  O  O16  1  0.29473600  0.70526400  0.00000000  1
  O  O17  1  0.71130600  0.28869400  0.00000000  1
  O  O18  1  0.21408000  0.21597000  0.00000000  1
  O  O19  1  0.78403000  0.78592000  0.00000000  1
  O  O20  1  0.48920000  0.51080000  0.50000000  1
  O  O21  1  0.99830400  0.00169600  0.50000000  1
  O  O22  1  0.56247800  0.85661200  0.00000000  1
  O  O23  1  0.42976700  0.14149200  0.00000000  1
  O  O24  1  0.93103100  0.35911300  0.00000000  1
  O  O25  1  0.07154400  0.64184100  0.00000000  1
  O  O26  1  0.64088700  0.06896900  0.00000000  1
  O  O27  1  0.35815900  0.92845600  0.00000000  1
  O  O28  1  0.14338800  0.43752200  0.00000000  1
  O  O29  1  0.85850800  0.57023300  0.00000000  1
loop_
_geom_bond_atom_site_label_1
_geom_bond_atom_site_label_2
_geom_bond_distance
_geom_bond_site_symmetry_2
K0 O18 2.798847 1_556
K0 O18 2.798847 1_555
K0 O0 2.965069 1_556
K0 O0 2.965069 1_555
K0 O7 3.257143 1_556
K0 O7 3.257143 1_555
K1 O19 2.798847 1_555
K1 O19 2.798847 1_556
K1 O6 2.965069 1_556
K1 O6 2.965069 1_555
K1 O1 3.257143 1_555
K1 O1 3.257143 1_556
K2 O4 2.912982 1_555
K2 O4 2.912982 1_556
K2 O2 2.912982 1_555
K2 O2 2.912982 1_556
K2 O21 3.074499 1_465
K2 O16 3.117733 1_556
K2 O16 3.117733 1_555
K3 O3 2.953528 1_556
K3 O3 2.953528 1_555
K3 O5 2.953537 1_556
K3 O5 2.953537 1_555
K3 O17 2.956101 1_555
K3 O17 2.956101 1_556
K3 O21 3.113407 1_555
K4 O9 2.770142 1_555
K4 O26 2.791318 1_556
K4 O26 2.791318 1_555
K4 O23 2.796098 1_556
K4 O23 2.796098 1_555
K4 O12 2.855070 1_545
K4 O13 2.860626 1_555
K4 O22 2.916694 1_545
K4 O22 2.916694 1_546
K4 O27 2.917104 1_545
K4 O27 2.917104 1_546
K5 O15 2.770142 1_555
K5 O24 2.791318 1_555
K5 O24 2.791318 1_556
K5 O29 2.796098 1_555
K5 O29 2.796098 1_556
K5 O10 2.855070 1_655
K5 O11 2.860626 1_555
K5 O28 2.916694 1_656
K5 O28 2.916694 1_655
K5 O25 2.917104 1_655
K5 O25 2.917104 1_656
Nb0 O25 1.836986 1_555
Nb0 O28 1.846183 1_555
Nb0 O14 2.046232 1_555
Nb0 O14 2.046232 1_554
Nb0 O7 2.185497 1_555
Nb0 O16 2.192426 1_555
Nb1 O24 1.919205 1_555
Nb1 O15 1.985456 1_555
Nb1 O15 1.985456 1_554
Nb1 O17 2.009147 1_555
Nb1 O29 2.138055 1_555
Nb1 O6 2.173428 1_555
Nb2 O18 1.936338 1_555
Nb2 O23 1.959397 1_555
Nb2 O13 1.990357 1_555
Nb2 O13 1.990357 1_554
Nb2 O4 2.072852 1_545
Nb2 O27 2.273199 1_545
Nb3 O5 1.835466 1_565
Nb3 O12 2.002990 1_554
Nb3 O12 2.002990 1_555
Nb3 O19 2.055090 1_555
Nb3 O26 2.098938 1_565
Nb3 O22 2.295052 1_555
Nb4 O19 1.936338 1_555
Nb4 O29 1.959397 1_555
Nb4 O11 1.990357 1_554
Nb4 O11 1.990357 1_555
Nb4 O2 2.072852 1_655
Nb4 O25 2.273199 1_655
Nb5 O3 1.835473 1_455
Nb5 O10 2.002990 1_554
Nb5 O10 2.002990 1_555
Nb5 O18 2.055090 1_555
Nb5 O24 2.098938 1_455
Nb5 O28 2.295052 1_555
Nb6 O27 1.836986 1_555
Nb6 O22 1.846183 1_555
Nb6 O8 2.046232 1_554
Nb6 O8 2.046232 1_555
Nb6 O1 2.185497 1_555
Nb6 O16 2.192426 1_555
Nb7 O26 1.919205 1_555
Nb7 O9 1.985456 1_555
Nb7 O9 1.985456 1_554
Nb7 O17 2.009147 1_555
Nb7 O23 2.138055 1_555
Nb7 O0 2.173428 1_555
Nb8 O6 1.836080 1_555
Nb8 O0 1.836080 1_555
Nb8 O20 2.041650 1_555
Nb8 O20 2.041650 1_554
Nb8 O1 2.192523 1_555
Nb8 O7 2.192523 1_555
Nb9 O4 1.905028 1_555
Nb9 O2 1.905028 1_555
Nb9 O21 1.993703 1_464
Nb9 O21 1.993703 1_465
Nb9 O5 2.169294 1_465
Nb9 O3 2.169295 1_465
Nb10 O14 2.008577 1_555
Nb10 O8 2.008577 1_555
Nb10 O20 2.016305 1_555
Nb10 O7 2.431583 1_556
Nb10 O7 2.431583 1_555
Nb10 O1 2.431583 1_556
Nb10 O1 2.431583 1_555
Nb10 O16 2.534005 1_555
Nb10 O16 2.534005 1_556
