# generated using pymatgen
data_Ca2MgV10(H8O11)4
_symmetry_space_group_name_H-M   'P 1'
_cell_length_a   11.23812687
_cell_length_b   11.23812687
_cell_length_c   10.88593212
_cell_angle_alpha   64.31526953
_cell_angle_beta   64.31526953
_cell_angle_gamma   52.81729783
_symmetry_Int_Tables_number   1
_chemical_formula_structural   Ca2MgV10(H8O11)4
_chemical_formula_sum   'Ca2 Mg1 V10 H32 O44'
_cell_volume   958.55990848
_cell_formula_units_Z   1
loop_
 _symmetry_equiv_pos_site_id
 _symmetry_equiv_pos_as_xyz
  1  'x, y, z'
loop_
 _atom_site_type_symbol
 _atom_site_label
 _atom_site_symmetry_multiplicity
 _atom_site_fract_x
 _atom_site_fract_y
 _atom_site_fract_z
 _atom_site_occupancy
  Ca  Ca0  1  0.27034400  0.27034400  0.08014300  1
  Ca  Ca1  1  0.72965600  0.72965600  0.91985700  1
  Mg  Mg0  1  0.50000000  0.50000000  0.50000000  1
  V  V0  1  0.16568800  0.83431200  0.00000000  1
  V  V1  1  0.83431200  0.16568800  0.00000000  1
  V  V2  1  0.04542200  0.04542200  0.20194200  1
  V  V3  1  0.95457800  0.95457800  0.79805800  1
  V  V4  1  0.15560200  0.15560200  0.87576100  1
  V  V5  1  0.84439800  0.84439800  0.12423900  1
  V  V6  1  0.04650600  0.73203500  0.32434700  1
  V  V7  1  0.73203500  0.04650600  0.32434700  1
  V  V8  1  0.95349400  0.26796500  0.67565300  1
  V  V9  1  0.26796500  0.95349400  0.67565300  1
  H  H0  1  0.28773200  0.44415200  0.52922000  1
  H  H1  1  0.44415200  0.28773200  0.52922000  1
  H  H2  1  0.71226800  0.55584800  0.47078000  1
  H  H3  1  0.55584800  0.71226800  0.47078000  1
  H  H4  1  0.37589900  0.52905900  0.77143200  1
  H  H5  1  0.52905900  0.37589900  0.77143200  1
  H  H6  1  0.62410100  0.47094100  0.22856800  1
  H  H7  1  0.47094100  0.62410100  0.22856800  1
  H  H8  1  0.01365000  0.50993200  0.25182300  1
  H  H9  1  0.50993200  0.01365000  0.25182300  1
  H  H10  1  0.98635000  0.49006800  0.74817700  1
  H  H11  1  0.49006800  0.98635000  0.74817700  1
  H  H12  1  0.03630900  0.34907800  0.34541400  1
  H  H13  1  0.34907800  0.03630900  0.34541400  1
  H  H14  1  0.96369100  0.65092200  0.65458600  1
  H  H15  1  0.65092200  0.96369100  0.65458600  1
  H  H16  1  0.23817800  0.77084300  0.56878900  1
  H  H17  1  0.77084300  0.23817800  0.56878900  1
  H  H18  1  0.76182200  0.22915700  0.43121100  1
  H  H19  1  0.22915700  0.76182200  0.43121100  1
  H  H20  1  0.12008700  0.53761700  0.84886500  1
  H  H21  1  0.53761700  0.12008700  0.84886500  1
  H  H22  1  0.87991300  0.46238300  0.15113500  1
  H  H23  1  0.46238300  0.87991300  0.15113500  1
  H  H24  1  0.12152400  0.61938300  0.93539700  1
  H  H25  1  0.61938300  0.12152400  0.93539700  1
  H  H26  1  0.87847600  0.38061700  0.06460300  1
  H  H27  1  0.38061700  0.87847600  0.06460300  1
  H  H28  1  0.32282100  0.47979500  0.13400200  1
  H  H29  1  0.47979500  0.32282100  0.13400200  1
  H  H30  1  0.67717900  0.52020500  0.86599800  1
  H  H31  1  0.52020500  0.67717900  0.86599800  1
  O  O0  1  0.22578700  0.22578700  0.91373200  1
  O  O1  1  0.77421300  0.77421300  0.08626800  1
  O  O2  1  0.04699300  0.04699300  0.86363500  1
  O  O3  1  0.95300700  0.95300700  0.13636500  1
  O  O4  1  0.04073600  0.79117900  0.96653800  1
  O  O5  1  0.79117900  0.04073600  0.96653800  1
  O  O6  1  0.95926400  0.20882100  0.03346200  1
  O  O7  1  0.20882100  0.95926400  0.03346200  1
  O  O8  1  0.21792400  0.68187200  0.14428400  1
  O  O9  1  0.68187200  0.21792400  0.14428400  1
  O  O10  1  0.78207600  0.31812800  0.85571600  1
  O  O11  1  0.31812800  0.78207600  0.85571600  1
  O  O12  1  0.12230900  0.12230900  0.21944800  1
  O  O13  1  0.87769100  0.87769100  0.78055200  1
  O  O14  1  0.12152900  0.84982900  0.31377000  1
  O  O15  1  0.84982900  0.12152900  0.31377000  1
  O  O16  1  0.87847100  0.15017100  0.68623000  1
  O  O17  1  0.15017100  0.87847100  0.68623000  1
  O  O18  1  0.04207800  0.31465100  0.75041000  1
  O  O19  1  0.31465100  0.04207800  0.75041000  1
  O  O20  1  0.95792200  0.68534900  0.24959000  1
  O  O21  1  0.68534900  0.95792200  0.24959000  1
  O  O22  1  0.85541500  0.85541500  0.42409000  1
  O  O23  1  0.14458500  0.14458500  0.57591000  1
  O  O24  1  0.12478500  0.57567300  0.44268500  1
  O  O25  1  0.57567300  0.12478500  0.44268500  1
  O  O26  1  0.87521500  0.42432700  0.55731500  1
  O  O27  1  0.42432700  0.87521500  0.55731500  1
  O  O28  1  0.38261000  0.38261000  0.56244900  1
  O  O29  1  0.61739000  0.61739000  0.43755100  1
  O  O30  1  0.48036300  0.48036300  0.71280600  1
  O  O31  1  0.51963700  0.51963700  0.28719400  1
  O  O32  1  0.04460900  0.40726400  0.24717800  1
  O  O33  1  0.40726400  0.04460900  0.24717800  1
  O  O34  1  0.95539100  0.59273600  0.75282200  1
  O  O35  1  0.59273600  0.95539100  0.75282200  1
  O  O36  1  0.29329600  0.70670400  0.50000000  1
  O  O37  1  0.70670400  0.29329600  0.50000000  1
  O  O38  1  0.17402000  0.51891200  0.91203400  1
  O  O39  1  0.51891200  0.17402000  0.91203400  1
  O  O40  1  0.82598000  0.48108800  0.08796600  1
  O  O41  1  0.48108800  0.82598000  0.08796600  1
  O  O42  1  0.37667400  0.37667400  0.11857700  1
  O  O43  1  0.62332600  0.62332600  0.88142300  1
loop_
_geom_bond_atom_site_label_1
_geom_bond_atom_site_label_2
_geom_bond_distance
_geom_bond_site_symmetry_2
Ca0 O42 2.371404 1_555
Ca0 O0 2.378833 1_554
Ca0 O32 2.412075 1_555
Ca0 O33 2.412075 1_555
Ca0 O39 2.440274 1_554
Ca0 O38 2.440274 1_554
Ca0 O12 2.608944 1_555
Ca1 O43 2.371404 1_555
Ca1 O1 2.378833 1_556
Ca1 O35 2.412075 1_555
Ca1 O34 2.412075 1_555
Ca1 O40 2.440274 1_556
Ca1 O41 2.440274 1_556
Ca1 O13 2.608944 1_555
Mg0 O36 2.066373 1_555
Mg0 O37 2.066373 1_555
Mg0 O28 2.119382 1_555
Mg0 O29 2.119382 1_555
Mg0 O31 2.153266 1_555
Mg0 O30 2.153266 1_555
H0 O28 0.985997 1_555
H1 O28 0.985997 1_555
H2 O29 0.985997 1_555
H3 O29 0.985997 1_555
H4 O30 0.980683 1_555
H5 O30 0.980683 1_555
H6 O31 0.980683 1_555
H7 O31 0.980683 1_555
H8 O32 1.002476 1_555
H8 O20 1.660850 1_455
H9 O33 1.002476 1_555
H9 O21 1.660850 1_545
H10 O34 1.002476 1_555
H10 O18 1.660850 1_655
H11 O35 1.002476 1_555
H11 O19 1.660850 1_565
H12 O32 0.980297 1_555
H13 O33 0.980297 1_555
H14 O34 0.980297 1_555
H15 O35 0.980297 1_555
H16 O36 0.995052 1_555
H16 O17 1.695294 1_555
H17 O37 0.995052 1_555
H17 O16 1.695294 1_555
H18 O37 0.995052 1_555
H18 O15 1.695294 1_555
H19 O36 0.995052 1_555
H19 O14 1.695294 1_555
H20 O38 0.983059 1_555
H21 O39 0.983059 1_555
H22 O40 0.983059 1_555
H23 O41 0.983059 1_555
H24 O38 1.000659 1_555
H24 O4 1.687753 1_555
H25 O39 1.000659 1_555
H25 O5 1.687753 1_555
H26 O40 1.000659 1_555
H26 O6 1.687753 1_555
H27 O41 1.000659 1_555
H27 O7 1.687753 1_555
H28 O42 0.985052 1_555
H29 O42 0.985052 1_555
H30 O43 0.985052 1_555
H31 O43 0.985052 1_555
O0 V4 1.652968 1_555
O1 V5 1.652968 1_555
O2 V0 2.117283 1_546
O2 V1 2.117283 1_456
O2 V4 2.253221 1_555
O2 V3 2.292592 1_445
O2 V9 2.400704 1_545
O2 V8 2.400704 1_455
O3 V0 2.117283 1_655
O3 V1 2.117283 1_565
O3 V5 2.253221 1_555
O3 V2 2.292592 1_665
O3 V7 2.400704 1_565
O3 V6 2.400704 1_655
O4 V0 1.938739 1_556
O4 V3 2.035716 1_455
O4 V5 2.045677 1_456
O5 V1 1.938739 1_556
O5 V3 2.035716 1_545
O5 V5 2.045677 1_546
O6 V1 1.938739 1_555
O6 V2 2.035716 1_655
O6 V4 2.045677 1_654
O7 V0 1.938739 1_555
O7 V2 2.035716 1_565
O7 V4 2.045677 1_564
O8 V0 1.731378 1_555
O8 V6 2.059866 1_555
O9 V1 1.731378 1_555
O9 V7 2.059866 1_555
O10 V1 1.731378 1_556
O10 V8 2.059866 1_555
O11 V0 1.731378 1_556
O11 V9 2.059866 1_555
O12 V2 1.648469 1_555
O13 V3 1.648469 1_555
O14 V2 1.831859 1_565
O14 V6 1.899813 1_555
O15 V2 1.831859 1_655
O15 V7 1.899813 1_555
O16 V3 1.831859 1_545
O16 V8 1.899813 1_555
O17 V3 1.831859 1_455
O17 V9 1.899813 1_555
O18 V4 1.822920 1_555
O18 V8 1.905862 1_455
O19 V4 1.822920 1_555
O19 V9 1.905862 1_545
O20 V5 1.822920 1_555
O20 V6 1.905862 1_655
O21 V5 1.822920 1_555
O21 V7 1.905862 1_565
O22 V6 1.843350 1_655
O22 V7 1.843350 1_565
O23 V9 1.843350 1_545
O23 V8 1.843350 1_455
O24 V6 1.634880 1_555
O25 V7 1.634880 1_555
O26 V8 1.634880 1_555
O27 V9 1.634880 1_555
