# generated using pymatgen
data_Mg(NiS2)4
_symmetry_space_group_name_H-M   'P 1'
_cell_length_a   7.05904804
_cell_length_b   7.05904804
_cell_length_c   7.05904747
_cell_angle_alpha   57.11275692
_cell_angle_beta   57.11275692
_cell_angle_gamma   57.11275193
_symmetry_Int_Tables_number   1
_chemical_formula_structural   Mg(NiS2)4
_chemical_formula_sum   'Mg1 Ni4 S8'
_cell_volume   232.17796008
_cell_formula_units_Z   1
loop_
 _symmetry_equiv_pos_site_id
 _symmetry_equiv_pos_as_xyz
  1  'x, y, z'
loop_
 _atom_site_type_symbol
 _atom_site_label
 _atom_site_symmetry_multiplicity
 _atom_site_fract_x
 _atom_site_fract_y
 _atom_site_fract_z
 _atom_site_occupancy
  Mg  Mg0  1  0.50000000  0.50000000  0.50000000  1
  Ni  Ni0  1  0.00000000  0.50000000  0.50000000  1
  Ni  Ni1  1  0.50000000  0.00000000  0.50000000  1
  Ni  Ni2  1  0.50000000  0.50000000  0.00000000  1
  Ni  Ni3  1  0.00000000  0.00000000  0.00000000  1
  S  S0  1  0.27417500  0.76051400  0.76051400  1
  S  S1  1  0.23948600  0.23948600  0.72582500  1
  S  S2  1  0.72582500  0.23948600  0.23948600  1
  S  S3  1  0.23948600  0.72582500  0.23948600  1
  S  S4  1  0.26677600  0.26677600  0.26677600  1
  S  S5  1  0.73322400  0.73322400  0.73322400  1
  S  S6  1  0.76051400  0.27417500  0.76051400  1
  S  S7  1  0.76051400  0.76051400  0.27417500  1
loop_
_geom_bond_atom_site_label_1
_geom_bond_atom_site_label_2
_geom_bond_distance
_geom_bond_site_symmetry_2
Mg0 S6 2.571058 1_555
Mg0 S0 2.571058 1_555
Mg0 S2 2.571058 1_555
Mg0 S3 2.571058 1_555
Mg0 S7 2.571058 1_555
Mg0 S1 2.571058 1_555
Ni0 S1 2.268885 1_555
Ni0 S7 2.268885 1_455
Ni0 S3 2.268885 1_555
Ni0 S6 2.268885 1_455
Ni0 S5 2.275277 1_455
Ni0 S4 2.275277 1_555
Ni1 S1 2.268885 1_555
Ni1 S7 2.268885 1_545
Ni1 S2 2.268885 1_555
Ni1 S0 2.268885 1_545
Ni1 S4 2.275277 1_555
Ni1 S5 2.275277 1_545
Ni2 S3 2.268885 1_555
Ni2 S2 2.268885 1_555
Ni2 S6 2.268885 1_554
Ni2 S0 2.268885 1_554
Ni2 S5 2.275277 1_554
Ni2 S4 2.275277 1_555
Ni3 S2 2.336438 1_455
Ni3 S3 2.336438 1_545
Ni3 S6 2.336438 1_454
Ni3 S0 2.336438 1_544
Ni3 S1 2.336438 1_554
Ni3 S7 2.336438 1_445
