# generated using pymatgen
data_Al2SiO5
_symmetry_space_group_name_H-M   'P 1'
_cell_length_a   5.45691194
_cell_length_b   13.81138869
_cell_length_c   10.55905605
_cell_angle_alpha   123.34500352
_cell_angle_beta   93.27897432
_cell_angle_gamma   103.25748100
_symmetry_Int_Tables_number   1
_chemical_formula_structural   Al2SiO5
_chemical_formula_sum   'Al8 Si4 O20'
_cell_volume   630.43517977
_cell_formula_units_Z   4
loop_
 _symmetry_equiv_pos_site_id
 _symmetry_equiv_pos_as_xyz
  1  'x, y, z'
loop_
 _atom_site_type_symbol
 _atom_site_label
 _atom_site_symmetry_multiplicity
 _atom_site_fract_x
 _atom_site_fract_y
 _atom_site_fract_z
 _atom_site_occupancy
  Al  Al0  1  0.68982200  0.80615200  0.30369900  1
  Al  Al1  1  0.14951100  0.10641300  0.85786300  1
  Al  Al2  1  0.77019200  0.21306000  0.83507700  1
  Al  Al3  1  0.22980800  0.78694000  0.16492300  1
  Al  Al4  1  0.96089800  0.82282100  0.61131200  1
  Al  Al5  1  0.85048900  0.89358700  0.14213700  1
  Al  Al6  1  0.03910200  0.17717900  0.38868800  1
  Al  Al7  1  0.31017800  0.19384800  0.69630100  1
  Si  Si0  1  0.35489100  0.73145300  0.41994700  1
  Si  Si1  1  0.96480300  0.55680600  0.44700500  1
  Si  Si2  1  0.03519700  0.44319400  0.55299500  1
  Si  Si3  1  0.64510900  0.26854700  0.58005300  1
  O  O0  1  0.98911200  0.84112000  0.26397100  1
  O  O1  1  0.88784300  0.23727500  0.01211900  1
  O  O2  1  0.31617400  0.20324500  0.53342100  1
  O  O3  1  0.11215700  0.76272500  0.98788100  1
  O  O4  1  0.16778400  0.24320400  0.03783500  1
  O  O5  1  0.34243200  0.70606300  0.24081800  1
  O  O6  1  0.65756800  0.29393700  0.75918200  1
  O  O7  1  0.22182300  0.83290600  0.52136900  1
  O  O8  1  0.01088800  0.15888000  0.73602900  1
  O  O9  1  0.25510900  0.60798300  0.41051600  1
  O  O10  1  0.77817700  0.16709400  0.47863100  1
  O  O11  1  0.00831800  0.04115900  0.21791400  1
  O  O12  1  0.74489100  0.39201700  0.58948400  1
  O  O13  1  0.68382600  0.79675500  0.46657900  1
  O  O14  1  0.83221600  0.75679600  0.96216500  1
  O  O15  1  0.10745800  0.32133100  0.42654200  1
  O  O16  1  0.99168200  0.95884100  0.78208600  1
  O  O17  1  0.89254200  0.67866900  0.57345700  1
  O  O18  1  0.43620100  0.12800500  0.78190800  1
  O  O19  1  0.56379900  0.87199500  0.21809200  1
loop_
_geom_bond_atom_site_label_1
_geom_bond_atom_site_label_2
_geom_bond_distance
_geom_bond_site_symmetry_2
Al0 O0 1.736631 1_555
Al0 O13 1.796026 1_555
Al0 O19 1.799002 1_555
Al0 O5 1.894846 1_555
Al1 O16 1.690957 1_445
Al1 O4 1.770738 1_556
Al1 O18 1.836334 1_555
Al1 O8 1.979197 1_555
Al2 O1 1.759424 1_556
Al2 O8 1.768190 1_655
Al2 O18 1.786847 1_555
Al2 O6 1.873576 1_555
Al3 O3 1.759424 1_554
Al3 O0 1.768190 1_455
Al3 O19 1.786847 1_555
Al3 O5 1.873576 1_555
Al4 O16 1.704549 1_555
Al4 O17 1.740747 1_555
Al4 O7 1.777033 1_655
Al4 O13 1.905866 1_555
Al5 O11 1.690957 1_665
Al5 O14 1.770738 1_554
Al5 O19 1.836334 1_555
Al5 O0 1.979197 1_555
Al6 O11 1.704549 1_555
Al6 O15 1.740751 1_555
Al6 O10 1.777033 1_455
Al6 O2 1.905866 1_555
Al7 O8 1.736631 1_555
Al7 O2 1.796026 1_555
Al7 O18 1.799002 1_555
Al7 O6 1.894846 1_555
O2 Si3 1.716382 1_555
O5 Si0 1.717642 1_555
O6 Si3 1.717642 1_555
O7 Si0 1.594830 1_555
O9 Si0 1.611102 1_555
O9 Si1 1.735886 1_455
O10 Si3 1.594830 1_555
O12 Si3 1.611102 1_555
O12 Si2 1.735886 1_655
O13 Si0 1.716382 1_555
O15 Si2 1.632532 1_555
O17 Si1 1.632529 1_555
