# generated using pymatgen
data_Sr3TaCoO7
_symmetry_space_group_name_H-M   'P 1'
_cell_length_a   5.59441857
_cell_length_b   11.15751096
_cell_length_c   11.19226999
_cell_angle_alpha   89.99873853
_cell_angle_beta   89.99635805
_cell_angle_gamma   75.55282699
_symmetry_Int_Tables_number   1
_chemical_formula_structural   Sr3TaCoO7
_chemical_formula_sum   'Sr12 Ta4 Co4 O28'
_cell_volume   676.52742496
_cell_formula_units_Z   4
loop_
 _symmetry_equiv_pos_site_id
 _symmetry_equiv_pos_as_xyz
  1  'x, y, z'
loop_
 _atom_site_type_symbol
 _atom_site_label
 _atom_site_symmetry_multiplicity
 _atom_site_fract_x
 _atom_site_fract_y
 _atom_site_fract_z
 _atom_site_occupancy
  Sr  Sr0  1  0.51923900  0.96140600  0.49886300  1
  Sr  Sr1  1  0.01934900  0.96141600  0.75117200  1
  Sr  Sr2  1  0.51924100  0.96144400  0.99884800  1
  Sr  Sr3  1  0.01914000  0.96142900  0.25111300  1
  Sr  Sr4  1  0.80846100  0.38393200  0.25017900  1
  Sr  Sr5  1  0.30849400  0.38391500  0.49980600  1
  Sr  Sr6  1  0.80855900  0.38390800  0.75022400  1
  Sr  Sr7  1  0.30853900  0.38388500  0.99978200  1
  Sr  Sr8  1  0.68443900  0.63288700  0.49882700  1
  Sr  Sr9  1  0.18457300  0.63283100  0.75128100  1
  Sr  Sr10  1  0.68449500  0.63281500  0.99874000  1
  Sr  Sr11  1  0.18441600  0.63286600  0.25114900  1
  Ta  Ta0  1  0.90167400  0.19665800  0.50012300  1
  Ta  Ta1  1  0.40163400  0.19680600  0.74977800  1
  Ta  Ta2  1  0.90158100  0.19685800  0.00020300  1
  Ta  Ta3  1  0.40162200  0.19670900  0.24989500  1
  Co  Co0  1  0.60935900  0.78632700  0.74803000  1
  Co  Co1  1  0.10940300  0.78627800  0.00191500  1
  Co  Co2  1  0.60935100  0.78636100  0.24812900  1
  Co  Co3  1  0.10939300  0.78634700  0.50189000  1
  O  O0  1  0.69956900  0.60200100  0.24944100  1
  O  O1  1  0.19959400  0.60206500  0.50057400  1
  O  O2  1  0.69965200  0.60200800  0.74938800  1
  O  O3  1  0.19966500  0.60190700  0.00059800  1
  O  O4  1  0.80510000  0.39010400  0.49844300  1
  O  O5  1  0.30502000  0.39017000  0.75166100  1
  O  O6  1  0.80506700  0.39016600  0.99834900  1
  O  O7  1  0.30511400  0.39009600  0.25154200  1
  O  O8  1  0.98941200  0.01951300  0.50224900  1
  O  O9  1  0.48939600  0.01957900  0.74797000  1
  O  O10  1  0.98939600  0.01960900  0.00203900  1
  O  O11  1  0.48945500  0.01953500  0.24773500  1
  O  O12  1  0.33013900  0.80756900  0.38261000  1
  O  O13  1  0.85962400  0.80545000  0.61756100  1
  O  O14  1  0.33029800  0.80742100  0.88234200  1
  O  O15  1  0.85976000  0.80537200  0.11779800  1
  O  O16  1  0.83016400  0.80750600  0.36747800  1
  O  O17  1  0.35981000  0.80536600  0.63234300  1
  O  O18  1  0.83027700  0.80746400  0.86757300  1
  O  O19  1  0.35959400  0.80544600  0.13235900  1
  O  O20  1  0.14706700  0.20546000  0.37491800  1
  O  O21  1  0.64577200  0.20858300  0.62508300  1
  O  O22  1  0.14694800  0.20566500  0.87489700  1
  O  O23  1  0.64567200  0.20858400  0.12511100  1
  O  O24  1  0.64711200  0.20546000  0.37508400  1
  O  O25  1  0.14564200  0.20856200  0.62489700  1
  O  O26  1  0.64689300  0.20568100  0.87510500  1
  O  O27  1  0.14582600  0.20858700  0.12490400  1
loop_
_geom_bond_atom_site_label_1
_geom_bond_atom_site_label_2
_geom_bond_distance
_geom_bond_site_symmetry_2
Co0 O18 1.875867 1_555
Co0 O17 1.876943 1_555
Co0 O2 1.991583 1_555
Co0 O13 2.070475 1_555
Co0 O14 2.137485 1_555
Co0 O9 2.520310 1_565
Co1 O14 1.875918 1_554
Co1 O15 1.878673 1_455
Co1 O3 1.992143 1_555
Co1 O19 2.070256 1_555
Co1 O18 2.138036 1_454
Co1 O10 2.521164 1_465
Co2 O16 1.873939 1_555
Co2 O19 1.878380 1_555
Co2 O0 1.992025 1_555
Co2 O15 2.069612 1_555
Co2 O12 2.139318 1_555
Co2 O11 2.519470 1_565
Co3 O12 1.873260 1_555
Co3 O13 1.877533 1_455
Co3 O1 1.991182 1_555
Co3 O17 2.070763 1_555
Co3 O16 2.139013 1_455
Co3 O8 2.519387 1_465
O0 Sr4 2.356183 1_555
O0 Sr8 2.811076 1_555
O0 Sr11 2.815945 1_555
O0 Sr11 2.818222 1_655
O0 Sr10 2.825595 1_554
O1 Sr5 2.357059 1_555
O1 Sr11 2.811396 1_555
O1 Sr8 2.816025 1_455
O1 Sr8 2.818037 1_555
O1 Sr9 2.825605 1_555
O2 Sr6 2.356522 1_555
O2 Sr10 2.810597 1_555
O2 Sr9 2.815611 1_555
O2 Sr9 2.818478 1_655
O2 Sr8 2.824121 1_555
O3 Sr7 2.355679 1_554
O3 Sr9 2.810354 1_554
O3 Sr10 2.815990 1_454
O3 Sr10 2.818311 1_554
O3 Sr11 2.824117 1_555
O4 Ta0 2.090209 1_555
O4 Sr8 2.623198 1_555
O4 Sr4 2.779439 1_555
O4 Sr5 2.796290 1_555
O4 Sr5 2.799810 1_655
O4 Sr6 2.818797 1_555
O5 Ta1 2.089346 1_555
O5 Sr9 2.621881 1_555
O5 Sr7 2.777868 1_555
O5 Sr6 2.795708 1_455
O5 Sr6 2.800439 1_555
O5 Sr5 2.819640 1_555
O6 Ta2 2.088737 1_556
O6 Sr10 2.621751 1_555
O6 Sr6 2.777906 1_555
O6 Sr7 2.796138 1_555
O6 Sr7 2.800018 1_655
O6 Sr4 2.819354 1_556
O7 Ta3 2.089568 1_555
O7 Sr11 2.623058 1_555
O7 Sr5 2.779440 1_555
O7 Sr4 2.796479 1_455
O7 Sr4 2.799608 1_555
O7 Sr7 2.818566 1_554
O8 Ta0 1.914146 1_555
O8 Sr1 2.855856 1_645
O8 Sr0 2.862064 1_545
O8 Sr0 2.872040 1_645
O8 Sr3 2.879999 1_645
O9 Ta1 1.914991 1_555
O9 Sr0 2.858052 1_545
O9 Sr1 2.861630 1_545
O9 Sr1 2.872686 1_645
O9 Sr2 2.877295 1_545
O10 Ta2 1.915232 1_555
O10 Sr3 2.857700 1_645
O10 Sr2 2.862232 1_544
O10 Sr2 2.872089 1_644
O10 Sr1 2.877319 1_644
O11 Ta3 1.914464 1_555
O11 Sr2 2.855455 1_544
O11 Sr3 2.862828 1_545
O11 Sr3 2.871268 1_645
O11 Sr0 2.880011 1_545
O12 Sr3 2.578773 1_555
O12 Sr0 2.581588 1_555
O12 Sr11 2.724380 1_555
O12 Sr8 2.737134 1_555
O13 Sr0 2.601120 1_555
O13 Sr1 2.615180 1_655
O13 Sr8 2.715767 1_555
O13 Sr9 2.739947 1_655
O14 Sr1 2.577294 1_555
O14 Sr2 2.584103 1_555
O14 Sr9 2.720973 1_555
O14 Sr10 2.737332 1_555
O15 Sr2 2.603614 1_554
O15 Sr3 2.613070 1_655
O15 Sr10 2.717731 1_554
O15 Sr11 2.736214 1_655
O16 Sr0 2.577986 1_555
O16 Sr3 2.582451 1_655
O16 Sr8 2.722866 1_555
O16 Sr11 2.737255 1_655
O17 Sr1 2.602534 1_555
O17 Sr0 2.614013 1_555
O17 Sr9 2.716690 1_555
O17 Sr8 2.736906 1_555
O18 Sr2 2.578045 1_555
O18 Sr1 2.583212 1_655
O18 Sr10 2.722184 1_555
O18 Sr9 2.737151 1_655
O19 Sr3 2.601720 1_555
O19 Sr2 2.614478 1_554
O19 Sr11 2.716102 1_555
O19 Sr10 2.739190 1_554
O20 Ta0 1.981175 1_455
O20 Ta3 1.981400 1_555
O20 Sr4 2.760583 1_455
O20 Sr5 2.762501 1_555
O21 Ta1 1.979838 1_555
O21 Ta0 1.981918 1_555
O21 Sr6 2.739886 1_555
O21 Sr5 2.740738 1_555
O22 Ta2 1.981884 1_456
O22 Ta1 1.982520 1_555
O22 Sr6 2.758190 1_455
O22 Sr7 2.760846 1_555
O23 Ta3 1.980454 1_555
O23 Ta2 1.981787 1_555
O23 Sr4 2.739678 1_555
O23 Sr7 2.740435 1_554
O24 Ta3 1.981431 1_555
O24 Ta0 1.981605 1_555
O24 Sr5 2.760339 1_555
O24 Sr4 2.762426 1_555
O25 Ta0 1.980255 1_455
O25 Ta1 1.981988 1_555
O25 Sr5 2.739931 1_555
O25 Sr6 2.740474 1_455
O26 Ta1 1.981920 1_555
O26 Ta2 1.982539 1_556
O26 Sr7 2.757797 1_555
O26 Sr6 2.760996 1_555
O27 Ta2 1.980307 1_455
O27 Ta3 1.981928 1_555
O27 Sr7 2.739222 1_554
O27 Sr4 2.740975 1_455
