# generated using pymatgen
data_Be15(Nb3Cu4)2
_symmetry_space_group_name_H-M   'P 1'
_cell_length_a   7.64601132
_cell_length_b   7.64601050
_cell_length_c   7.64601117
_cell_angle_alpha   60.00156580
_cell_angle_beta   60.00155188
_cell_angle_gamma   60.00156953
_symmetry_Int_Tables_number   1
_chemical_formula_structural   Be15(Nb3Cu4)2
_chemical_formula_sum   'Be15 Nb6 Cu8'
_cell_volume   316.08591307
_cell_formula_units_Z   1
loop_
 _symmetry_equiv_pos_site_id
 _symmetry_equiv_pos_as_xyz
  1  'x, y, z'
loop_
 _atom_site_type_symbol
 _atom_site_label
 _atom_site_symmetry_multiplicity
 _atom_site_fract_x
 _atom_site_fract_y
 _atom_site_fract_z
 _atom_site_occupancy
  Be  Be0  1  0.32628449  0.32628383  0.32628466  1
  Be  Be1  1  0.67371537  0.67371483  0.67371548  1
  Be  Be2  1  0.32631026  0.32630921  0.02109784  1
  Be  Be3  1  0.32630957  0.02109796  0.32631001  1
  Be  Be4  1  0.67369078  0.67368997  0.97890189  1
  Be  Be5  1  0.67369045  0.97890188  0.67369065  1
  Be  Be6  1  0.02109788  0.32630917  0.32631025  1
  Be  Be7  1  0.97890166  0.67368998  0.67369088  1
  Be  Be8  1  0.50000514  0.00000417  0.99999526  1
  Be  Be9  1  0.99999701  0.49999479  0.50000492  1
  Be  Be10  1  0.00000084  0.49999886  0.00000135  1
  Be  Be11  1  0.50000087  0.00000057  0.50000110  1
  Be  Be12  1  0.99999521  0.00000448  0.50000521  1
  Be  Be13  1  0.50000487  0.49999465  0.99999733  1
  Be  Be14  1  0.99999936  0.00000211  0.99999995  1
  Nb  Nb0  1  0.69344883  0.30655022  0.30655263  1
  Nb  Nb1  1  0.30655240  0.69344767  0.69344934  1
  Nb  Nb2  1  0.30654979  0.69344928  0.30655013  1
  Nb  Nb3  1  0.69344790  0.30655210  0.69344800  1
  Nb  Nb4  1  0.30655220  0.30655045  0.69344904  1
  Nb  Nb5  1  0.69344963  0.69344803  0.30655237  1
  Cu  Cu0  1  0.12295286  0.12295485  0.12295211  1
  Cu  Cu1  1  0.87704630  0.87704962  0.87704567  1
  Cu  Cu2  1  0.12294544  0.12294795  0.63115362  1
  Cu  Cu3  1  0.12294681  0.63115235  0.12294652  1
  Cu  Cu4  1  0.87705024  0.87705338  0.36884766  1
  Cu  Cu5  1  0.87705123  0.36884634  0.87705222  1
  Cu  Cu6  1  0.63115327  0.12294805  0.12294532  1
  Cu  Cu7  1  0.36884736  0.87705325  0.87705057  1
loop_
_geom_bond_atom_site_label_1
_geom_bond_atom_site_label_2
_geom_bond_distance
_geom_bond_site_symmetry_2
Be0 Be11 2.211210 1_555
Be0 Be13 2.211221 1_554
Be0 Be9 2.211222 1_455
Be0 Cu2 2.331780 1_555
Be0 Cu6 2.331780 1_555
Be0 Cu3 2.331783 1_555
Be0 Be3 2.333262 1_555
Be0 Be6 2.333266 1_555
Be0 Be2 2.333266 1_555
Be0 Nb2 2.665024 1_555
Be0 Nb0 2.665028 1_555
Be0 Nb4 2.665028 1_555
Be1 Be9 2.211197 1_555
Be1 Be13 2.211198 1_555
Be1 Be11 2.211210 1_565
Be1 Cu5 2.331770 1_555
Be1 Cu4 2.331771 1_555
Be1 Cu7 2.331772 1_555
Be1 Be7 2.333269 1_555
Be1 Be4 2.333270 1_555
Be1 Be5 2.333273 1_555
Be1 Nb5 2.665013 1_555
Be1 Nb1 2.665014 1_555
Be1 Nb3 2.665018 1_555
Be2 Be8 2.211214 1_554
Be2 Cu6 2.331756 1_555
Be2 Cu3 2.331761 1_555
Be2 Cu0 2.331843 1_555
Be2 Be3 2.333707 1_555
Be2 Be6 2.333712 1_555
Be2 Nb1 2.664804 1_554
Be2 Nb3 2.664805 1_554
Be2 Nb4 2.664851 1_554
Be3 Be8 2.211255 1_554
Be3 Cu2 2.331768 1_555
Be3 Cu6 2.331769 1_555
Be3 Cu0 2.331855 1_555
Be3 Be6 2.333705 1_555
Be3 Nb1 2.664814 1_545
Be3 Nb5 2.664816 1_545
Be3 Nb2 2.664862 1_545
Be4 Be8 2.211251 1_565
Be4 Cu5 2.331768 1_555
Be4 Cu7 2.331773 1_555
Be4 Cu1 2.331859 1_555
Be4 Be7 2.333701 1_555
Be4 Be5 2.333706 1_555
Be4 Nb2 2.664814 1_556
Be4 Nb0 2.664817 1_556
Be4 Nb5 2.664864 1_556
Be5 Be8 2.211210 1_565
Be5 Cu4 2.331759 1_555
Be5 Cu7 2.331760 1_555
Be5 Cu1 2.331843 1_555
Be5 Be7 2.333706 1_555
Be5 Nb0 2.664802 1_565
Be5 Nb4 2.664804 1_565
Be5 Nb3 2.664853 1_565
Be6 Be9 2.210992 1_455
Be6 Cu2 2.331758 1_555
Be6 Cu3 2.331762 1_555
Be6 Cu0 2.331845 1_555
Be6 Nb5 2.664805 1_455
Be6 Nb3 2.664806 1_455
Be6 Nb0 2.664852 1_455
Be7 Be9 2.211020 1_555
Be7 Cu5 2.331770 1_555
Be7 Cu4 2.331772 1_555
Be7 Cu1 2.331857 1_555
Be7 Nb2 2.664812 1_655
Be7 Nb4 2.664816 1_655
Be7 Nb1 2.664863 1_655
Be8 Cu6 2.354102 1_556
Be8 Cu1 2.354169 1_545
Be8 Cu7 2.354174 1_545
Be8 Cu0 2.354239 1_556
Be8 Nb3 2.771572 1_555
Be8 Nb4 2.771604 1_555
Be8 Nb5 2.771638 1_546
Be8 Nb2 2.771669 1_546
Be9 Cu2 2.354207 1_655
Be9 Cu5 2.354209 1_555
Be9 Cu3 2.354279 1_655
Be9 Cu4 2.354280 1_555
Be9 Nb3 2.771551 1_555
Be9 Nb5 2.771581 1_555
Be9 Nb4 2.771597 1_655
Be9 Nb2 2.771623 1_655
Be10 Be6 2.211225 1_555
Be10 Be2 2.211227 1_555
Be10 Be4 2.211239 1_454
Be10 Be7 2.211241 1_454
Be10 Cu3 2.354119 1_555
Be10 Cu5 2.354160 1_454
Be10 Cu0 2.354187 1_555
Be10 Cu1 2.354229 1_454
Be10 Nb5 2.771619 1_455
Be10 Nb1 2.771621 1_554
Be10 Nb0 2.771622 1_455
Be10 Nb4 2.771623 1_554
Be11 Be5 2.210994 1_545
Be11 Be3 2.211021 1_555
Be11 Cu4 2.354223 1_545
Be11 Cu7 2.354223 1_545
Be11 Cu2 2.354260 1_555
Be11 Cu6 2.354262 1_555
Be11 Nb0 2.771576 1_555
Be11 Nb4 2.771577 1_555
Be11 Nb5 2.771599 1_545
Be11 Nb1 2.771600 1_545
Be12 Be6 2.211212 1_655
Be12 Be5 2.211212 1_545
Be12 Be3 2.211252 1_655
Be12 Be7 2.211253 1_545
Be12 Cu2 2.354103 1_655
Be12 Cu1 2.354164 1_545
Be12 Cu4 2.354175 1_545
Be12 Cu0 2.354244 1_655
Be12 Nb3 2.771570 1_555
Be12 Nb0 2.771603 1_555
Be12 Nb1 2.771638 1_645
Be12 Nb2 2.771669 1_645
Be13 Be2 2.210992 1_556
Be13 Be4 2.211020 1_555
Be13 Cu5 2.354204 1_555
Be13 Cu6 2.354205 1_556
Be13 Cu3 2.354277 1_556
Be13 Cu7 2.354281 1_555
Be13 Nb3 2.771552 1_555
Be13 Nb1 2.771584 1_555
Be13 Nb0 2.771597 1_556
Be13 Nb2 2.771624 1_556
Be14 Cu5 2.302718 1_555
Be14 Cu6 2.302730 1_556
Be14 Cu2 2.302731 1_655
Be14 Cu0 2.302734 1_656
Be14 Cu4 2.302740 1_546
Be14 Cu7 2.302742 1_645
Be14 Cu1 2.302743 1_545
Be14 Cu3 2.302753 1_646
Nb0 Nb3 2.958210 1_555
Nb0 Nb5 2.958227 1_555
Nb0 Nb4 2.958285 1_555
Nb0 Nb2 2.958305 1_555
Nb1 Nb4 2.958222 1_555
Nb1 Nb2 2.958240 1_555
Nb1 Nb3 2.958278 1_555
Nb1 Nb5 2.958289 1_555
Nb2 Nb5 2.958244 1_555
Nb2 Nb4 2.958303 1_555
Nb3 Nb4 2.958211 1_555
Nb3 Nb5 2.958279 1_555
Cu0 Cu5 2.658980 1_454
Cu0 Cu7 2.658988 1_544
Cu0 Cu4 2.658993 1_445
Cu0 Nb4 2.734360 1_554
Cu0 Nb0 2.734366 1_455
Cu0 Nb2 2.734374 1_545
Cu1 Cu2 2.658957 1_665
Cu1 Cu6 2.658960 1_566
Cu1 Cu3 2.658979 1_656
Cu1 Nb3 2.734359 1_565
Cu1 Nb1 2.734380 1_655
Cu1 Nb5 2.734383 1_556
Cu2 Cu5 2.658954 1_455
Cu2 Cu7 2.658965 1_545
Cu2 Nb4 2.734296 1_555
Cu2 Nb3 2.734327 1_455
Cu2 Nb1 2.734343 1_545
Cu3 Cu7 2.658978 1_554
Cu3 Cu4 2.658982 1_455
Cu3 Nb2 2.734287 1_555
Cu3 Nb5 2.734323 1_455
Cu3 Nb1 2.734323 1_554
Cu4 Cu6 2.658968 1_565
Cu4 Nb5 2.734274 1_555
Cu4 Nb0 2.734321 1_565
Cu4 Nb2 2.734336 1_655
Cu5 Cu6 2.658950 1_556
Cu5 Nb3 2.734279 1_555
Cu5 Nb0 2.734343 1_556
Cu5 Nb4 2.734347 1_655
Cu6 Nb0 2.734298 1_555
Cu6 Nb3 2.734325 1_554
Cu6 Nb5 2.734340 1_545
Cu7 Nb1 2.734278 1_555
Cu7 Nb4 2.734324 1_565
Cu7 Nb2 2.734336 1_556
