# generated using pymatgen
data_ZnS
_symmetry_space_group_name_H-M   'P 1'
_cell_length_a   11.88412324
_cell_length_b   13.77204717
_cell_length_c   14.13430780
_cell_angle_alpha   91.79098788
_cell_angle_beta   93.57506762
_cell_angle_gamma   90.74888787
_symmetry_Int_Tables_number   1
_chemical_formula_structural   ZnS
_chemical_formula_sum   'Zn50 S50'
_cell_volume   2307.45254053
_cell_formula_units_Z   50
loop_
 _symmetry_equiv_pos_site_id
 _symmetry_equiv_pos_as_xyz
  1  'x, y, z'
loop_
 _atom_site_type_symbol
 _atom_site_label
 _atom_site_symmetry_multiplicity
 _atom_site_fract_x
 _atom_site_fract_y
 _atom_site_fract_z
 _atom_site_occupancy
  Zn  Zn0  1  0.31162130  0.79979675  0.15347632  1
  Zn  Zn1  1  0.05849785  0.94292386  0.94199769  1
  Zn  Zn2  1  0.54420737  0.00933566  0.81153556  1
  Zn  Zn3  1  0.17317369  0.26097420  0.27615969  1
  Zn  Zn4  1  0.01655289  0.71798666  0.25339735  1
  Zn  Zn5  1  0.38593107  0.41551721  0.42538135  1
  Zn  Zn6  1  0.13762816  0.21432501  0.70277111  1
  Zn  Zn7  1  0.88284737  0.82917789  0.93706292  1
  Zn  Zn8  1  0.90790038  0.56209105  0.78409635  1
  Zn  Zn9  1  0.11094617  0.29487388  0.53156368  1
  Zn  Zn10  1  0.58437067  0.12899750  0.58473773  1
  Zn  Zn11  1  0.97702561  0.96966162  0.57586620  1
  Zn  Zn12  1  0.25866078  0.32648970  0.81099785  1
  Zn  Zn13  1  0.19917304  0.54073126  0.55962561  1
  Zn  Zn14  1  0.89665637  0.50484966  0.48006154  1
  Zn  Zn15  1  0.59947840  0.22188646  0.41099261  1
  Zn  Zn16  1  0.23057270  0.16751906  0.09200148  1
  Zn  Zn17  1  0.86712423  0.08390238  0.68113449  1
  Zn  Zn18  1  0.34455487  0.90639051  0.89238847  1
  Zn  Zn19  1  0.18422096  0.37338032  0.11926790  1
  Zn  Zn20  1  0.12636576  0.71288680  0.86312335  1
  Zn  Zn21  1  0.61556827  0.90698369  0.40590183  1
  Zn  Zn22  1  0.85133822  0.33265219  0.64172783  1
  Zn  Zn23  1  0.76927919  0.02994284  0.36432929  1
  Zn  Zn24  1  0.16327777  0.12239183  0.54867078  1
  Zn  Zn25  1  0.74248662  0.01641959  0.54097725  1
  Zn  Zn26  1  0.75078169  0.84999173  0.20958332  1
  Zn  Zn27  1  0.61896718  0.72002601  0.82876740  1
  Zn  Zn28  1  0.30914895  0.96455892  0.63669039  1
  Zn  Zn29  1  0.51197449  0.08980590  0.18328352  1
  Zn  Zn30  1  0.65873332  0.47650486  0.95541985  1
  Zn  Zn31  1  0.73010947  0.57738377  0.64607133  1
  Zn  Zn32  1  0.38680224  0.21918451  0.98232402  1
  Zn  Zn33  1  0.86368177  0.01053361  0.96220774  1
  Zn  Zn34  1  0.38737727  0.06056036  0.41753503  1
  Zn  Zn35  1  0.17527802  0.20381966  0.91678722  1
  Zn  Zn36  1  0.90492328  0.43272123  0.18513855  1
  Zn  Zn37  1  0.35519632  0.60280170  0.94836529  1
  Zn  Zn38  1  0.11036880  0.51128011  0.71039531  1
  Zn  Zn39  1  0.75306530  0.73197913  0.42746910  1
  Zn  Zn40  1  0.01133548  0.39425005  0.81850313  1
  Zn  Zn41  1  0.61581850  0.45170729  0.39038945  1
  Zn  Zn42  1  0.37607247  0.31197267  0.19591217  1
  Zn  Zn43  1  0.82244488  0.66380572  0.05325996  1
  Zn  Zn44  1  0.98455994  0.12939539  0.20730400  1
  Zn  Zn45  1  0.60237346  0.39566956  0.17345066  1
  Zn  Zn46  1  0.51661505  0.78918662  0.61485963  1
  Zn  Zn47  1  0.51711293  0.86054470  0.04206203  1
  Zn  Zn48  1  0.27942994  0.66802212  0.36822373  1
  Zn  Zn49  1  0.93267744  0.66184199  0.64185980  1
  S  S0  1  0.36859332  0.10960615  0.56946888  1
  S  S1  1  0.35455053  0.83781817  0.52044955  1
  S  S2  1  0.71127645  0.01780284  0.19057959  1
  S  S3  1  0.94821154  0.74827899  0.40729238  1
  S  S4  1  0.25548682  0.60215633  0.81007942  1
  S  S5  1  0.20152564  0.36185161  0.40600598  1
  S  S6  1  0.82313037  0.08942803  0.10642163  1
  S  S7  1  0.42906252  0.70609854  0.06343555  1
  S  S8  1  0.68525583  0.78142490  0.96605396  1
  S  S9  1  0.94493645  0.23378612  0.74683067  1
  S  S10  1  0.77580048  0.44132653  0.83728470  1
  S  S11  1  0.75589881  0.37785262  0.28974316  1
  S  S12  1  0.48100990  0.01059066  0.96152422  1
  S  S13  1  0.19460767  0.53022085  0.18465704  1
  S  S14  1  0.09622651  0.76350893  0.70446804  1
  S  S15  1  0.74117991  0.22826969  0.30341540  1
  S  S16  1  0.55083034  0.35171625  0.50584964  1
  S  S17  1  0.01094530  0.29878951  0.16532499  1
  S  S18  1  0.68351065  0.84527624  0.55599898  1
  S  S19  1  0.06226515  0.01684013  0.43495243  1
  S  S20  1  0.94208506  0.11566613  0.37293680  1
  S  S21  1  0.69061161  0.18753302  0.82751574  1
  S  S22  1  0.19954239  0.78161211  0.27901771  1
  S  S23  1  0.04255745  0.10355587  0.97124805  1
  S  S24  1  0.69664203  0.41175017  0.69956975  1
  S  S25  1  0.41276172  0.89814554  0.39645048  1
  S  S26  1  0.44155627  0.17079013  0.31531369  1
  S  S27  1  0.92276017  0.34738939  0.50037101  1
  S  S28  1  0.56122894  0.64543432  0.69693848  1
  S  S29  1  0.46516739  0.46212141  0.26893991  1
  S  S30  1  0.53123603  0.24255882  0.10275601  1
  S  S31  1  0.94070497  0.83173087  0.67052386  1
  S  S32  1  0.75511963  0.04526020  0.81988681  1
  S  S33  1  0.63662368  0.77130928  0.30026539  1
  S  S34  1  0.35942952  0.58026306  0.48268241  1
  S  S35  1  0.44601646  0.34276195  0.86977727  1
  S  S36  1  0.74613875  0.51525371  0.09994530  1
  S  S37  1  0.14303431  0.37390380  0.94589756  1
  S  S38  1  0.17612478  0.09621266  0.22581567  1
  S  S39  1  0.90379227  0.79853381  0.13803855  1
  S  S40  1  0.02061001  0.63540368  0.49290068  1
  S  S41  1  0.20053605  0.83948550  0.96604934  1
  S  S42  1  0.43062633  0.88205069  0.74844508  1
  S  S43  1  0.44803122  0.92857521  0.18016322  1
  S  S44  1  0.71994447  0.57438921  0.47646403  1
  S  S45  1  0.13616311  0.02694177  0.69090863  1
  S  S46  1  0.02450545  0.56672611  0.17342108  1
  S  S47  1  0.94590415  0.66744059  0.91773527  1
  S  S48  1  0.46898140  0.45889045  0.97112513  1
  S  S49  1  0.53999328  0.16511031  0.74520594  1
loop_
_geom_bond_atom_site_label_1
_geom_bond_atom_site_label_2
_geom_bond_distance
_geom_bond_site_symmetry_2
S0 Zn34 2.256282 1_555
S0 Zn28 2.357469 1_545
S0 Zn24 2.448676 1_555
S0 Zn10 2.569657 1_555
S1 S25 2.113719 1_555
S1 Zn46 2.389094 1_555
S1 Zn28 2.448088 1_555
S2 S6 2.095530 1_555
S2 Zn26 2.384365 1_545
S2 Zn23 2.508868 1_555
S2 Zn29 2.577057 1_555
S3 S40 2.154914 1_655
S3 Zn39 2.362841 1_555
S3 Zn4 2.395335 1_655
S4 Zn37 2.221343 1_555
S4 Zn20 2.318519 1_555
S4 Zn38 2.460920 1_555
S5 Zn3 2.272267 1_555
S5 Zn5 2.300883 1_555
S5 Zn9 2.339592 1_555
S6 Zn33 2.359130 1_554
S6 Zn44 2.366179 1_555
S7 Zn37 2.254858 1_554
S7 Zn0 2.323517 1_555
S7 Zn47 2.394144 1_555
S8 Zn27 2.188687 1_555
S8 Zn7 2.492178 1_555
S8 Zn47 2.566297 1_556
S8 Zn43 2.597029 1_556
S9 Zn22 2.293039 1_555
S9 Zn17 2.387785 1_555
S9 Zn6 2.426332 1_655
S9 Zn40 2.499488 1_655
S10 S24 2.133501 1_555
S10 Zn30 2.283665 1_555
S10 Zn8 2.439872 1_555
S10 Zn40 2.907796 1_655
S11 S15 2.081221 1_555
S11 Zn45 2.398700 1_555
S11 Zn41 2.465510 1_555
S11 Zn36 2.500991 1_555
S12 Zn2 2.292450 1_555
S12 Zn18 2.301715 1_545
S12 Zn47 2.420619 1_546
S13 S46 2.087110 1_555
S13 Zn19 2.321448 1_555
S14 S31 2.119414 1_455
S14 Zn20 2.376373 1_555
S14 Zn49 2.481568 1_455
S15 Zn15 2.340814 1_555
S15 Zn23 2.906568 1_555
S16 Zn15 2.302757 1_555
S16 Zn41 2.329370 1_555
S16 Zn5 2.394896 1_555
S17 Zn36 2.267306 1_455
S17 Zn19 2.423463 1_555
S17 Zn44 2.446104 1_455
S17 Zn3 2.478490 1_555
S18 Zn46 2.329951 1_555
S18 Zn21 2.406662 1_555
S18 Zn25 2.469492 1_565
S18 Zn39 2.542054 1_555
S19 S20 2.151713 1_455
S19 Zn24 2.388602 1_555
S19 Zn11 2.393863 1_445
S20 Zn23 2.350007 1_555
S20 Zn44 2.438006 1_555
S21 S49 2.087154 1_555
S21 S32 2.115397 1_555
S22 Zn48 2.225129 1_555
S22 Zn0 2.302019 1_555
S22 Zn4 2.336725 1_555
S23 Zn1 2.250408 1_545
S23 Zn35 2.268909 1_555
S23 Zn33 2.461952 1_455
S23 Zn16 2.839108 1_556
S24 Zn22 2.327876 1_555
S24 Zn31 2.460703 1_555
S25 Zn34 2.273809 1_565
S25 Zn21 2.406820 1_555
S26 Zn34 2.243716 1_555
S26 Zn15 2.331475 1_555
S26 Zn29 2.348588 1_555
S26 Zn42 2.704676 1_555
S27 Zn14 2.219604 1_555
S27 Zn22 2.232913 1_555
S27 Zn9 2.378720 1_655
S28 Zn27 2.168071 1_555
S28 Zn31 2.368607 1_555
S28 Zn46 2.375029 1_555
S29 Zn45 2.356736 1_555
S29 Zn41 2.410705 1_555
S29 Zn42 2.477013 1_555
S29 Zn5 2.553550 1_555
S30 Zn32 2.352525 1_554
S30 Zn45 2.424025 1_555
S30 Zn29 2.437850 1_555
S30 Zn42 2.513572 1_555
S31 Zn49 2.361698 1_555
S31 Zn11 2.407121 1_555
S32 Zn33 2.385880 1_555
S32 Zn17 2.504684 1_555
S32 Zn2 2.543291 1_555
S33 Zn26 2.218750 1_555
S33 Zn39 2.282777 1_555
S33 Zn21 2.380699 1_555
S34 Zn48 2.223138 1_555
S34 Zn13 2.318299 1_555
S34 Zn5 2.416325 1_555
S35 S48 2.116829 1_555
S35 Zn12 2.332947 1_555
S35 Zn32 2.489940 1_555
S36 Zn30 2.278025 1_554
S36 Zn43 2.356659 1_555
S36 Zn36 2.482135 1_555
S36 Zn45 2.639239 1_555
S37 Zn40 2.337081 1_555
S37 Zn35 2.405386 1_555
S37 Zn19 2.469017 1_556
S37 Zn12 2.494502 1_555
S38 Zn16 2.283088 1_555
S38 Zn44 2.328198 1_455
S38 Zn3 2.358107 1_555
S39 Zn26 2.247133 1_555
S39 Zn43 2.341571 1_555
S39 Zn4 2.358880 1_655
S39 Zn7 2.880776 1_554
S40 Zn14 2.304934 1_455
S40 Zn49 2.427730 1_455
S40 Zn13 2.644276 1_555
S41 Zn1 2.239607 1_555
S41 Zn18 2.259055 1_555
S41 Zn20 2.361057 1_555
S42 Zn2 2.319576 1_565
S42 Zn18 2.350294 1_555
S42 Zn28 2.396053 1_555
S42 Zn46 2.523659 1_555
S43 Zn29 2.335704 1_565
S43 Zn47 2.338296 1_555
S43 Zn0 2.392176 1_555
S44 Zn14 2.317835 1_555
S44 Zn39 2.334624 1_555
S44 Zn41 2.344182 1_555
S44 Zn31 2.391825 1_555
S45 Zn28 2.398570 1_545
S45 Zn24 2.471561 1_555
S45 Zn11 2.517997 1_445
S45 Zn6 2.580618 1_555
S46 Zn36 2.330855 1_455
S46 Zn4 2.344700 1_555
S47 Zn8 2.362652 1_555
S47 Zn7 2.372524 1_555
S47 Zn20 2.405943 1_655
S47 Zn43 2.485779 1_556
S48 Zn30 2.290154 1_555
S48 Zn37 2.432247 1_555
S49 Zn2 2.367825 1_555
S49 Zn10 2.399026 1_555
