# generated using pymatgen
data_SrZn2Fe16O27
_symmetry_space_group_name_H-M   'P 1'
_cell_length_a   6.00978210
_cell_length_b   6.00978210
_cell_length_c   33.28514600
_cell_angle_alpha   90.00000000
_cell_angle_beta   90.00000000
_cell_angle_gamma   120.00000111
_symmetry_Int_Tables_number   1
_chemical_formula_structural   SrZn2Fe16O27
_chemical_formula_sum   'Sr2 Zn4 Fe32 O54'
_cell_volume   1041.11461939
_cell_formula_units_Z   2
loop_
 _symmetry_equiv_pos_site_id
 _symmetry_equiv_pos_as_xyz
  1  'x, y, z'
loop_
 _atom_site_type_symbol
 _atom_site_label
 _atom_site_symmetry_multiplicity
 _atom_site_fract_x
 _atom_site_fract_y
 _atom_site_fract_z
 _atom_site_occupancy
  Sr  Sr0  1  0.00000000  0.00000000  0.25000000  1
  Sr  Sr1  1  0.00000000  0.00000000  0.75000000  1
  Zn  Zn0  1  0.00000000  0.00000000  0.05755700  1
  Zn  Zn1  1  0.00000000  0.00000000  0.94244300  1
  Zn  Zn2  1  0.00000000  0.00000000  0.55755700  1
  Zn  Zn3  1  0.00000000  0.00000000  0.44244300  1
  Fe  Fe0  1  0.33333300  0.66666700  0.59463800  1
  Fe  Fe1  1  0.66666700  0.33333300  0.40536200  1
  Fe  Fe2  1  0.66666700  0.33333300  0.09463800  1
  Fe  Fe3  1  0.33333300  0.66666700  0.90536200  1
  Fe  Fe4  1  0.16386700  0.32773400  0.15126200  1
  Fe  Fe5  1  0.83613300  0.67226600  0.84873800  1
  Fe  Fe6  1  0.67226600  0.83613300  0.15126200  1
  Fe  Fe7  1  0.83613300  0.67226600  0.65126200  1
  Fe  Fe8  1  0.32773400  0.16386700  0.84873800  1
  Fe  Fe9  1  0.16386700  0.32773400  0.34873800  1
  Fe  Fe10  1  0.16386700  0.83613300  0.15126200  1
  Fe  Fe11  1  0.32773400  0.16386700  0.65126200  1
  Fe  Fe12  1  0.83613300  0.16386700  0.84873800  1
  Fe  Fe13  1  0.67226600  0.83613300  0.34873800  1
  Fe  Fe14  1  0.83613300  0.16386700  0.65126200  1
  Fe  Fe15  1  0.16386700  0.83613300  0.34873800  1
  Fe  Fe16  1  0.33333300  0.66666700  0.25000000  1
  Fe  Fe17  1  0.66666700  0.33333300  0.75000000  1
  Fe  Fe18  1  0.33333300  0.66666700  0.07401000  1
  Fe  Fe19  1  0.66666700  0.33333300  0.92599000  1
  Fe  Fe20  1  0.66666700  0.33333300  0.57401000  1
  Fe  Fe21  1  0.33333300  0.66666700  0.42599000  1
  Fe  Fe22  1  0.33333300  0.66666700  0.70873200  1
  Fe  Fe23  1  0.66666700  0.33333300  0.29126800  1
  Fe  Fe24  1  0.66666700  0.33333300  0.20873200  1
  Fe  Fe25  1  0.33333300  0.66666700  0.79126800  1
  Fe  Fe26  1  0.50000000  0.00000000  0.00000000  1
  Fe  Fe27  1  0.00000000  0.50000000  0.00000000  1
  Fe  Fe28  1  0.50000000  0.00000000  0.50000000  1
  Fe  Fe29  1  0.50000000  0.50000000  0.00000000  1
  Fe  Fe30  1  0.00000000  0.50000000  0.50000000  1
  Fe  Fe31  1  0.50000000  0.50000000  0.50000000  1
  O  O0  1  0.18040400  0.36080800  0.03487800  1
  O  O1  1  0.81959600  0.63919200  0.96512200  1
  O  O2  1  0.63919200  0.81959600  0.03487800  1
  O  O3  1  0.81959600  0.63919200  0.53487800  1
  O  O4  1  0.36080800  0.18040400  0.96512200  1
  O  O5  1  0.18040400  0.36080800  0.46512200  1
  O  O6  1  0.18040400  0.81959600  0.03487800  1
  O  O7  1  0.36080800  0.18040400  0.53487800  1
  O  O8  1  0.81959600  0.18040400  0.96512200  1
  O  O9  1  0.63919200  0.81959600  0.46512200  1
  O  O10  1  0.81959600  0.18040400  0.53487800  1
  O  O11  1  0.18040400  0.81959600  0.46512200  1
  O  O12  1  0.51548300  0.03096700  0.25000000  1
  O  O13  1  0.48451700  0.96903300  0.75000000  1
  O  O14  1  0.96903300  0.48451700  0.25000000  1
  O  O15  1  0.03096700  0.51548300  0.75000000  1
  O  O16  1  0.51548300  0.48451700  0.25000000  1
  O  O17  1  0.48451700  0.51548300  0.75000000  1
  O  O18  1  0.16272900  0.32545800  0.68064000  1
  O  O19  1  0.83727100  0.67454200  0.31936000  1
  O  O20  1  0.67454200  0.83727100  0.68064000  1
  O  O21  1  0.83727100  0.67454200  0.18064000  1
  O  O22  1  0.32545800  0.16272900  0.31936000  1
  O  O23  1  0.16272900  0.32545800  0.81936000  1
  O  O24  1  0.16272900  0.83727100  0.68064000  1
  O  O25  1  0.32545800  0.16272900  0.18064000  1
  O  O26  1  0.83727100  0.16272900  0.31936000  1
  O  O27  1  0.67454200  0.83727100  0.81936000  1
  O  O28  1  0.83727100  0.16272900  0.18064000  1
  O  O29  1  0.16272900  0.83727100  0.81936000  1
  O  O30  1  0.33333300  0.66666700  0.53471800  1
  O  O31  1  0.66666700  0.33333300  0.46528200  1
  O  O32  1  0.66666700  0.33333300  0.03471800  1
  O  O33  1  0.33333300  0.66666700  0.96528200  1
  O  O34  1  0.48874900  0.97749700  0.11060000  1
  O  O35  1  0.51125100  0.02250300  0.88940000  1
  O  O36  1  0.02250300  0.51125100  0.11060000  1
  O  O37  1  0.51125100  0.02250300  0.61060000  1
  O  O38  1  0.97749700  0.48874900  0.88940000  1
  O  O39  1  0.48874900  0.97749700  0.38940000  1
  O  O40  1  0.48874900  0.51125100  0.11060000  1
  O  O41  1  0.97749700  0.48874900  0.61060000  1
  O  O42  1  0.51125100  0.48874900  0.88940000  1
  O  O43  1  0.02250300  0.51125100  0.38940000  1
  O  O44  1  0.51125100  0.48874900  0.61060000  1
  O  O45  1  0.48874900  0.51125100  0.38940000  1
  O  O46  1  0.00000000  0.00000000  0.11631200  1
  O  O47  1  0.00000000  0.00000000  0.88368800  1
  O  O48  1  0.00000000  0.00000000  0.61631200  1
  O  O49  1  0.00000000  0.00000000  0.38368800  1
  O  O50  1  0.33333300  0.66666700  0.18039100  1
  O  O51  1  0.66666700  0.33333300  0.81960900  1
  O  O52  1  0.66666700  0.33333300  0.68039100  1
  O  O53  1  0.33333300  0.66666700  0.31960900  1
loop_
_geom_bond_atom_site_label_1
_geom_bond_atom_site_label_2
_geom_bond_distance
_geom_bond_site_symmetry_2
Fe0 O37 1.926695 1_565
Fe0 O41 1.926695 1_455
Fe0 O44 1.926695 1_555
Fe0 O30 1.994446 1_555
Fe1 O43 1.926695 1_655
Fe1 O39 1.926695 1_545
Fe1 O45 1.926695 1_555
Fe1 O31 1.994446 1_555
Fe2 O36 1.926695 1_655
Fe2 O34 1.926695 1_545
Fe2 O40 1.926695 1_555
Fe2 O32 1.994446 1_555
Fe3 O35 1.926695 1_565
Fe3 O38 1.926695 1_455
Fe3 O42 1.926695 1_555
Fe3 O33 1.994446 1_555
Fe4 O28 1.961033 1_455
Fe4 O25 1.961033 1_555
Fe4 O50 2.012912 1_555
Fe4 O46 2.064661 1_555
Fe4 O36 2.169547 1_555
Fe4 O40 2.169550 1_555
Fe5 O29 1.961033 1_655
Fe5 O27 1.961033 1_555
Fe5 O51 2.012912 1_555
Fe5 O47 2.064661 1_665
Fe5 O38 2.169547 1_555
Fe5 O42 2.169550 1_555
Fe6 O28 1.961033 1_565
Fe6 O21 1.961033 1_555
Fe6 O50 2.012912 1_555
Fe6 O46 2.064661 1_665
Fe6 O34 2.169547 1_555
Fe6 O40 2.169550 1_555
Fe7 O24 1.961033 1_655
Fe7 O20 1.961033 1_555
Fe7 O52 2.012912 1_555
Fe7 O48 2.064661 1_665
Fe7 O41 2.169547 1_555
Fe7 O44 2.169550 1_555
Fe8 O29 1.961033 1_545
Fe8 O23 1.961033 1_555
Fe8 O51 2.012912 1_555
Fe8 O47 2.064661 1_555
Fe8 O35 2.169547 1_555
Fe8 O42 2.169550 1_555
Fe9 O26 1.961033 1_455
Fe9 O22 1.961033 1_555
Fe9 O53 2.012912 1_555
Fe9 O49 2.064661 1_555
Fe9 O43 2.169547 1_555
Fe9 O45 2.169550 1_555
Fe10 O21 1.961033 1_455
Fe10 O25 1.961033 1_565
Fe10 O50 2.012907 1_555
Fe10 O46 2.064661 1_565
Fe10 O34 2.169551 1_555
Fe10 O36 2.169551 1_555
Fe11 O24 1.961033 1_545
Fe11 O18 1.961033 1_555
Fe11 O52 2.012912 1_555
Fe11 O48 2.064661 1_555
Fe11 O37 2.169547 1_555
Fe11 O44 2.169550 1_555
Fe12 O27 1.961033 1_545
Fe12 O23 1.961033 1_655
Fe12 O51 2.012907 1_555
Fe12 O47 2.064661 1_655
Fe12 O35 2.169551 1_555
Fe12 O38 2.169551 1_555
Fe13 O26 1.961033 1_565
Fe13 O19 1.961033 1_555
Fe13 O53 2.012912 1_555
Fe13 O49 2.064661 1_665
Fe13 O39 2.169547 1_555
Fe13 O45 2.169550 1_555
Fe14 O20 1.961033 1_545
Fe14 O18 1.961033 1_655
Fe14 O52 2.012907 1_555
Fe14 O48 2.064661 1_655
Fe14 O37 2.169551 1_555
Fe14 O41 2.169551 1_555
Fe15 O19 1.961033 1_455
Fe15 O22 1.961033 1_565
Fe15 O53 2.012907 1_555
Fe15 O49 2.064661 1_565
Fe15 O43 2.169551 1_555
Fe15 O39 2.169551 1_555
Fe16 O14 1.896044 1_455
Fe16 O12 1.896044 1_565
Fe16 O16 1.896045 1_555
Fe16 O53 2.316946 1_555
Fe16 O50 2.316946 1_555
Fe17 O15 1.896044 1_655
Fe17 O13 1.896044 1_545
Fe17 O17 1.896045 1_555
Fe17 O51 2.316946 1_555
Fe17 O52 2.316946 1_555
Fe18 O34 2.024948 1_555
Fe18 O36 2.024948 1_555
Fe18 O40 2.024956 1_555
Fe18 O6 2.056845 1_555
Fe18 O2 2.056849 1_555
Fe18 O0 2.056849 1_555
Fe19 O38 2.024948 1_555
Fe19 O35 2.024948 1_555
Fe19 O42 2.024956 1_555
Fe19 O8 2.056845 1_555
Fe19 O4 2.056849 1_555
Fe19 O1 2.056849 1_555
Fe20 O37 2.024948 1_555
Fe20 O41 2.024948 1_555
Fe20 O44 2.024956 1_555
Fe20 O10 2.056845 1_555
Fe20 O3 2.056849 1_555
Fe20 O7 2.056849 1_555
Fe21 O39 2.024948 1_555
Fe21 O43 2.024948 1_555
Fe21 O45 2.024956 1_555
Fe21 O11 2.056845 1_555
Fe21 O9 2.056849 1_555
Fe21 O5 2.056849 1_555
Fe22 O24 2.006985 1_555
Fe22 O18 2.006989 1_555
Fe22 O20 2.006989 1_555
Fe22 O15 2.088862 1_555
Fe22 O13 2.088862 1_555
Fe22 O17 2.088870 1_555
Fe23 O26 2.006985 1_555
Fe23 O19 2.006989 1_555
Fe23 O22 2.006989 1_555
Fe23 O12 2.088862 1_555
Fe23 O14 2.088862 1_555
Fe23 O16 2.088870 1_555
Fe24 O28 2.006985 1_555
Fe24 O21 2.006989 1_555
Fe24 O25 2.006989 1_555
Fe24 O12 2.088862 1_555
Fe24 O14 2.088862 1_555
Fe24 O16 2.088870 1_555
Fe25 O29 2.006985 1_555
Fe25 O23 2.006989 1_555
Fe25 O27 2.006989 1_555
Fe25 O15 2.088862 1_555
Fe25 O13 2.088862 1_555
Fe25 O17 2.088870 1_555
Fe26 O8 2.032214 1_554
Fe26 O6 2.032214 1_545
Fe26 O4 2.032214 1_554
Fe26 O2 2.032214 1_545
Fe26 O32 2.084510 1_555
Fe26 O33 2.084510 1_544
Fe27 O8 2.032214 1_454
Fe27 O6 2.032214 1_555
Fe27 O1 2.032214 1_454
Fe27 O0 2.032214 1_555
Fe27 O32 2.084510 1_455
Fe27 O33 2.084510 1_554
Fe28 O10 2.032214 1_555
Fe28 O11 2.032214 1_545
Fe28 O7 2.032214 1_555
Fe28 O9 2.032214 1_545
Fe28 O31 2.084510 1_555
Fe28 O30 2.084510 1_545
Fe29 O4 2.032214 1_554
Fe29 O1 2.032214 1_554
Fe29 O0 2.032214 1_555
Fe29 O2 2.032214 1_555
Fe29 O32 2.084514 1_555
Fe29 O33 2.084514 1_554
Fe30 O10 2.032214 1_455
Fe30 O11 2.032214 1_555
Fe30 O3 2.032214 1_455
Fe30 O5 2.032214 1_555
Fe30 O31 2.084510 1_455
Fe30 O30 2.084510 1_555
Fe31 O7 2.032214 1_555
Fe31 O3 2.032214 1_555
Fe31 O5 2.032214 1_555
Fe31 O9 2.032214 1_555
Fe31 O30 2.084514 1_555
Fe31 O31 2.084514 1_555
O0 Zn0 2.023915 1_555
O1 Zn1 2.023915 1_665
O2 Zn0 2.023915 1_665
O3 Zn2 2.023915 1_665
O4 Zn1 2.023915 1_555
O5 Zn3 2.023915 1_555
O6 Zn0 2.023915 1_565
O7 Zn2 2.023915 1_555
O8 Zn1 2.023915 1_655
O9 Zn3 2.023915 1_665
O10 Zn2 2.023915 1_655
O11 Zn3 2.023915 1_565
O12 Sr0 3.009207 1_555
O12 Sr0 3.009213 1_655
O13 Sr1 3.009207 1_665
O13 Sr1 3.009213 1_565
O14 Sr0 3.009207 1_665
O14 Sr0 3.009213 1_655
O15 Sr1 3.009207 1_555
O15 Sr1 3.009213 1_565
O16 Sr0 3.009210 1_665
O16 Sr0 3.009210 1_555
O17 Sr1 3.009210 1_555
O17 Sr1 3.009210 1_665
O18 Sr1 2.863416 1_555
O19 Sr0 2.863416 1_665
O20 Sr1 2.863416 1_665
O21 Sr0 2.863416 1_665
O22 Sr0 2.863416 1_555
O23 Sr1 2.863416 1_555
O24 Sr1 2.863416 1_565
O25 Sr0 2.863416 1_555
O26 Sr0 2.863416 1_655
O27 Sr1 2.863416 1_665
O28 Sr0 2.863416 1_655
O29 Sr1 2.863416 1_565
O46 Zn0 1.955669 1_555
O47 Zn1 1.955669 1_555
O48 Zn2 1.955669 1_555
O49 Zn3 1.955669 1_555
