# generated using pymatgen
data_CeP2
_symmetry_space_group_name_H-M   'P 1'
_cell_length_a   8.61516839
_cell_length_b   8.53391464
_cell_length_c   9.11064054
_cell_angle_alpha   118.04118051
_cell_angle_beta   118.32996977
_cell_angle_gamma   89.78704968
_symmetry_Int_Tables_number   1
_chemical_formula_structural   CeP2
_chemical_formula_sum   'Ce8 P16'
_cell_volume   499.20945886
_cell_formula_units_Z   8
loop_
 _symmetry_equiv_pos_site_id
 _symmetry_equiv_pos_as_xyz
  1  'x, y, z'
loop_
 _atom_site_type_symbol
 _atom_site_label
 _atom_site_symmetry_multiplicity
 _atom_site_fract_x
 _atom_site_fract_y
 _atom_site_fract_z
 _atom_site_occupancy
  Ce  Ce0  1  0.24404700  0.09305200  0.91583700  1
  Ce  Ce1  1  0.32821000  0.67721500  0.08416300  1
  Ce  Ce2  1  0.72522000  0.47505300  0.08402100  1
  Ce  Ce3  1  0.64120000  0.89103200  0.91597900  1
  Ce  Ce4  1  0.88202200  0.49295000  0.55215100  1
  Ce  Ce5  1  0.32987100  0.44079900  0.44784900  1
  Ce  Ce6  1  0.70785600  0.12242100  0.61680400  1
  Ce  Ce7  1  0.09105200  0.00561700  0.38319600  1
  P  P0  1  0.11955300  0.62597700  0.25144900  1
  P  P1  1  0.86810400  0.87452700  0.74855100  1
  P  P2  1  0.00667200  0.30550900  0.05894000  1
  P  P3  1  0.94773100  0.74656900  0.94106000  1
  P  P4  1  0.26491100  0.70706600  0.74418300  1
  P  P5  1  0.52072800  0.46288400  0.25581700  1
  P  P6  1  0.92984300  0.24200400  0.23231300  1
  P  P7  1  0.69753000  0.50969100  0.76768700  1
  P  P8  1  0.06156600  0.73234200  0.49170600  1
  P  P9  1  0.56986000  0.74063600  0.50829400  1
  P  P10  1  0.34342700  0.06379900  0.26147100  1
  P  P11  1  0.08195600  0.30232800  0.73852900  1
  P  P12  1  0.71102500  0.86277100  0.25049400  1
  P  P13  1  0.46053200  0.11227700  0.74950600  1
  P  P14  1  0.59714800  0.09834700  0.25521300  1
  P  P15  1  0.34193500  0.34313400  0.74478700  1
loop_
_geom_bond_atom_site_label_1
_geom_bond_atom_site_label_2
_geom_bond_distance
_geom_bond_site_symmetry_2
Ce0 P11 2.881340 1_555
Ce0 P13 2.952993 1_555
Ce0 P4 2.957581 1_545
Ce0 P10 2.981599 1_556
Ce0 P1 2.996355 1_445
Ce0 P5 3.015646 1_556
Ce0 P2 3.074029 1_556
Ce0 P14 3.123892 1_556
Ce0 P8 3.156800 1_545
Ce1 P10 2.881340 1_565
Ce1 P12 2.952985 1_555
Ce1 P5 2.957573 1_555
Ce1 P11 2.981599 1_554
Ce1 P0 2.996351 1_555
Ce1 P4 3.015641 1_554
Ce1 P3 3.074036 1_454
Ce1 P15 3.123892 1_554
Ce1 P9 3.156800 1_555
Ce2 P2 2.866014 1_655
Ce2 P5 2.887125 1_555
Ce2 P7 2.932265 1_554
Ce2 P13 2.942473 1_554
Ce2 P12 2.952602 1_555
Ce2 P15 2.965355 1_554
Ce2 P0 2.965463 1_655
Ce2 P6 3.021289 1_555
Ce2 P8 3.029519 1_655
Ce3 P3 2.865999 1_555
Ce3 P4 2.887135 1_555
Ce3 P6 2.932262 1_566
Ce3 P12 2.942478 1_556
Ce3 P13 2.952602 1_565
Ce3 P14 2.965360 1_566
Ce3 P1 2.965453 1_555
Ce3 P7 3.021286 1_555
Ce3 P9 3.029516 1_555
Ce4 P11 2.880428 1_655
Ce4 P5 2.902075 1_555
Ce4 P3 2.907644 1_555
Ce4 P6 2.917629 1_555
Ce4 P1 2.922718 1_555
Ce4 P8 2.959599 1_655
Ce4 P4 2.973647 1_655
Ce4 P7 3.016536 1_555
Ce4 P14 3.142698 1_555
Ce5 P10 2.880428 1_555
Ce5 P4 2.902072 1_555
Ce5 P2 2.907641 1_555
Ce5 P7 2.917629 1_555
Ce5 P0 2.922725 1_555
Ce5 P9 2.959599 1_555
Ce5 P5 2.973650 1_555
Ce5 P6 3.016536 1_455
Ce5 P15 3.142697 1_555
Ce6 P14 2.861380 1_555
Ce6 P13 2.924710 1_555
Ce6 P1 2.935135 1_545
Ce6 P7 2.943215 1_555
Ce6 P9 2.981776 1_545
Ce6 P11 3.003000 1_655
Ce6 P12 3.030110 1_545
Ce6 P10 3.070841 1_555
Ce6 P2 3.092714 1_656
Ce7 P15 2.861380 1_555
Ce7 P12 2.924718 1_445
Ce7 P0 2.935127 1_545
Ce7 P6 2.943216 1_455
Ce7 P8 2.981775 1_545
Ce7 P10 3.003000 1_555
Ce7 P13 3.030115 1_555
Ce7 P11 3.070841 1_555
Ce7 P3 3.092712 1_444
P0 P8 2.243022 1_555
P0 P2 2.322146 1_555
P1 P9 2.243021 1_555
P1 P3 2.322140 1_555
P2 P6 2.241994 1_455
P3 P7 2.241989 1_555
P4 P8 2.246266 1_555
P5 P9 2.246261 1_555
P10 P14 2.237630 1_555
P11 P15 2.237630 1_555
P12 P14 2.224882 1_565
P13 P15 2.224886 1_555
