# generated using pymatgen
data_KMg6BO7
_symmetry_space_group_name_H-M   'P 1'
_cell_length_a   7.85516686
_cell_length_b   4.78614032
_cell_length_c   4.78614032
_cell_angle_alpha   90.00000000
_cell_angle_beta   90.00000000
_cell_angle_gamma   90.00000000
_symmetry_Int_Tables_number   1
_chemical_formula_structural   KMg6BO7
_chemical_formula_sum   'K1 Mg6 B1 O7'
_cell_volume   179.93940041
_cell_formula_units_Z   1
loop_
 _symmetry_equiv_pos_site_id
 _symmetry_equiv_pos_as_xyz
  1  'x, y, z'
loop_
 _atom_site_type_symbol
 _atom_site_label
 _atom_site_symmetry_multiplicity
 _atom_site_fract_x
 _atom_site_fract_y
 _atom_site_fract_z
 _atom_site_occupancy
  K  K0  1  0.00129484  -0.00000000  0.00000000  1
  Mg  Mg0  1  0.00413752  0.50000000  0.50000000  1
  Mg  Mg1  1  0.49621955  0.50000000  0.50000000  1
  Mg  Mg2  1  0.25555515  0.00000000  0.50000000  1
  Mg  Mg3  1  0.74346660  -0.00000000  0.50000000  1
  Mg  Mg4  1  0.25555515  0.50000000  -0.00000000  1
  Mg  Mg5  1  0.74346660  0.50000000  0.00000000  1
  B  B0  1  0.50064464  -0.00000000  0.00000000  1
  O  O0  1  0.33060869  -0.00000000  -0.00000000  1
  O  O1  1  0.67149074  -0.00000000  -0.00000000  1
  O  O2  1  0.75024691  0.50000000  0.50000000  1
  O  O3  1  0.99922649  0.00000000  0.50000000  1
  O  O4  1  0.49943031  0.00000000  0.50000000  1
  O  O5  1  0.99922649  0.50000000  0.00000000  1
  O  O6  1  0.49943031  0.50000000  -0.00000000  1
loop_
_geom_bond_atom_site_label_1
_geom_bond_atom_site_label_2
_geom_bond_distance
_geom_bond_site_symmetry_2
K0 O3 2.393125 1_454
K0 O3 2.393125 1_455
K0 O5 2.393125 1_445
K0 O5 2.393125 1_455
K0 O0 2.586815 1_555
K0 O1 2.590666 1_455
Mg0 O2 1.994353 1_455
Mg0 O3 2.393381 1_455
Mg0 O5 2.393381 1_456
Mg0 O5 2.393381 1_455
Mg0 O3 2.393381 1_465
Mg1 O2 1.995427 1_555
Mg1 O6 2.393203 1_556
Mg1 O6 2.393203 1_555
Mg1 O4 2.393203 1_555
Mg1 O4 2.393203 1_565
Mg2 O4 1.915680 1_555
Mg2 O3 2.013504 1_455
Mg2 O0 2.464622 1_556
Mg2 O0 2.464622 1_555
Mg3 O4 1.916946 1_555
Mg3 O3 2.009037 1_555
Mg3 O2 2.393663 1_545
Mg3 O2 2.393663 1_555
Mg3 O1 2.458951 1_556
Mg3 O1 2.458951 1_555
Mg4 O6 1.915680 1_555
Mg4 O5 2.013504 1_455
Mg4 O0 2.464622 1_555
Mg4 O0 2.464622 1_565
Mg5 O6 1.916946 1_555
Mg5 O5 2.009037 1_555
Mg5 O2 2.393663 1_554
Mg5 O2 2.393663 1_555
Mg5 O1 2.458951 1_565
Mg5 O1 2.458951 1_555
B0 O0 1.335661 1_555
B0 O1 1.342025 1_555
