# generated using pymatgen
data_Mg4Si7
_symmetry_space_group_name_H-M   'P 1'
_cell_length_a   4.31402200
_cell_length_b   6.84830337
_cell_length_c   13.63836050
_cell_angle_alpha   85.55892121
_cell_angle_beta   89.76994850
_cell_angle_gamma   89.07296863
_symmetry_Int_Tables_number   1
_chemical_formula_structural   Mg4Si7
_chemical_formula_sum   'Mg8 Si14'
_cell_volume   401.66414161
_cell_formula_units_Z   2
loop_
 _symmetry_equiv_pos_site_id
 _symmetry_equiv_pos_as_xyz
  1  'x, y, z'
loop_
 _atom_site_type_symbol
 _atom_site_label
 _atom_site_symmetry_multiplicity
 _atom_site_fract_x
 _atom_site_fract_y
 _atom_site_fract_z
 _atom_site_occupancy
  Mg  Mg0  1  0.20959000  0.04708600  0.92426500  1
  Mg  Mg1  1  0.20247500  0.36575000  0.50814200  1
  Mg  Mg2  1  0.72762900  0.21652600  0.33870200  1
  Mg  Mg3  1  0.68823200  0.53251200  0.65780900  1
  Mg  Mg4  1  0.19880800  0.49266400  0.84528000  1
  Mg  Mg5  1  0.68774000  0.68022600  0.19157600  1
  Mg  Mg6  1  0.68102600  0.68794100  0.42470100  1
  Mg  Mg7  1  0.72260500  0.04167300  0.58294900  1
  Si  Si0  1  0.69980100  0.31441500  0.95864000  1
  Si  Si1  1  0.70185400  0.66072200  0.96551400  1
  Si  Si2  1  0.19832600  0.69231900  0.04959600  1
  Si  Si3  1  0.20375100  0.39039100  0.15491600  1
  Si  Si4  1  0.18095100  0.73504400  0.56027800  1
  Si  Si5  1  0.24397400  0.01101700  0.44286400  1
  Si  Si6  1  0.71515700  0.18249900  0.12826400  1
  Si  Si7  1  0.71598400  0.83833000  0.80638500  1
  Si  Si8  1  0.20784200  0.21392700  0.69889400  1
  Si  Si9  1  0.22379800  0.98776700  0.13389400  1
  Si  Si10  1  0.21410200  0.50261600  0.31721700  1
  Si  Si11  1  0.71062600  0.20015800  0.79545900  1
  Si  Si12  1  0.21710000  0.85341100  0.72018200  1
  Si  Si13  1  0.14131300  0.85667100  0.29805300  1
loop_
_geom_bond_atom_site_label_1
_geom_bond_atom_site_label_2
_geom_bond_distance
_geom_bond_site_symmetry_2
Mg0 Si9 2.857162 1_546
Mg0 Si2 2.861264 1_546
Mg0 Si0 2.882689 1_555
Mg0 Si0 2.898699 1_455
Mg0 Si11 2.913846 1_455
Mg0 Si11 2.935053 1_555
Mg0 Si7 3.102843 1_545
Mg0 Si7 3.105624 1_445
Mg0 Mg4 3.156056 1_555
Mg0 Si12 3.174418 1_545
Mg0 Si8 3.195174 1_555
Mg1 Si5 2.654401 1_555
Mg1 Si4 2.679666 1_555
Mg1 Si10 2.698863 1_555
Mg1 Si8 2.725878 1_555
Mg2 Si5 2.848491 1_555
Mg2 Si10 2.892750 1_655
Mg2 Si6 2.898187 1_555
Mg2 Si5 2.928317 1_655
Mg2 Si10 2.933966 1_555
Mg2 Si13 3.102719 1_645
Mg3 Si4 2.828119 1_655
Mg3 Si11 2.836675 1_555
Mg3 Si4 2.849865 1_555
Mg3 Si7 3.028843 1_555
Mg3 Si8 3.052315 1_555
Mg3 Si8 3.124323 1_655
Mg3 Si12 3.132920 1_555
Mg3 Mg4 3.307094 1_555
Mg3 Mg4 3.373575 1_655
Mg4 Si0 2.863696 1_555
Mg4 Si8 2.866769 1_555
Mg4 Si0 2.877609 1_455
Mg4 Si12 2.893608 1_555
Mg4 Si1 2.965453 1_455
Mg4 Si1 3.020721 1_555
Mg4 Si11 3.044425 1_455
Mg4 Si11 3.066796 1_555
Mg4 Si7 3.143013 1_455
Mg4 Si2 3.197530 1_556
Mg4 Si7 3.290884 1_555
Mg5 Si13 2.787249 1_655
Mg5 Si2 2.866446 1_555
Mg5 Si10 2.884476 1_555
Mg5 Si2 2.924896 1_655
Mg5 Si9 2.946210 1_555
Mg5 Si3 2.974120 1_555
Mg5 Si3 3.024392 1_655
Mg5 Si10 3.031667 1_655
Mg5 Si13 3.045957 1_555
Mg5 Si1 3.096636 1_554
Mg5 Si9 3.207653 1_655
Mg6 Si13 2.828293 1_655
Mg6 Si10 2.865606 1_555
Mg6 Si4 2.866173 1_555
Mg6 Si4 2.884656 1_655
Mg6 Si5 2.908211 1_565
Mg6 Si10 3.035604 1_655
Mg6 Si13 3.062018 1_555
Mg7 Si5 2.839987 1_555
Mg7 Si4 2.894165 1_645
Mg7 Si8 2.944393 1_655
Mg7 Si5 2.960645 1_655
Mg7 Si8 2.999917 1_555
Mg7 Si12 3.047197 1_645
Mg7 Si12 3.099266 1_545
Mg7 Si11 3.172520 1_555
Si0 Si1 2.380871 1_555
Si0 Si11 2.415585 1_555
Si0 Si6 2.418252 1_556
Si1 Si7 2.405346 1_555
Si1 Si2 2.454028 1_656
Si1 Si2 2.466504 1_556
Si2 Si9 2.407515 1_555
Si2 Si3 2.424433 1_555
Si3 Si6 2.604863 1_455
Si3 Si6 2.645473 1_555
Si3 Si9 2.794074 1_545
Si4 Si5 2.398859 1_565
Si6 Si9 2.520301 1_545
Si6 Si9 2.547558 1_645
Si10 Si3 2.399521 1_555
Si10 Si13 2.433896 1_555
Si11 Si7 2.470578 1_545
Si11 Si8 2.511773 1_655
Si11 Si8 2.538718 1_555
Si12 Si4 2.391239 1_555
Si12 Si7 2.453392 1_555
Si12 Si7 2.456494 1_455
Si12 Si8 2.463201 1_565
Si13 Si5 2.357847 1_565
Si13 Si9 2.374403 1_555
