# generated using pymatgen
data_Y(SiPt)2
_symmetry_space_group_name_H-M   'P 1'
_cell_length_a   4.15981619
_cell_length_b   4.15981619
_cell_length_c   9.90821607
_cell_angle_alpha   90.00000000
_cell_angle_beta   90.00000000
_cell_angle_gamma   90.00000000
_symmetry_Int_Tables_number   1
_chemical_formula_structural   Y(SiPt)2
_chemical_formula_sum   'Y2 Si4 Pt4'
_cell_volume   171.45247173
_cell_formula_units_Z   2
loop_
 _symmetry_equiv_pos_site_id
 _symmetry_equiv_pos_as_xyz
  1  'x, y, z'
loop_
 _atom_site_type_symbol
 _atom_site_label
 _atom_site_symmetry_multiplicity
 _atom_site_fract_x
 _atom_site_fract_y
 _atom_site_fract_z
 _atom_site_occupancy
  Y  Y0  1  0.00000000  0.50000000  0.25351007  1
  Y  Y1  1  0.50000000  -0.00000000  0.74647782  1
  Si  Si0  1  0.00000000  -0.00000000  0.49999405  1
  Si  Si1  1  0.50000000  0.50000000  0.49999405  1
  Si  Si2  1  -0.00000000  0.50000000  0.86540124  1
  Si  Si3  1  0.50000000  -0.00000000  0.13461841  1
  Pt  Pt0  1  -0.00000000  0.00000000  0.00000507  1
  Pt  Pt1  1  0.50000000  0.50000000  0.00000507  1
  Pt  Pt2  1  0.00000000  0.50000000  0.62466413  1
  Pt  Pt3  1  0.50000000  0.00000000  0.37533008  1
loop_
_geom_bond_atom_site_label_1
_geom_bond_atom_site_label_2
_geom_bond_distance
_geom_bond_site_symmetry_2
Si0 Y1 3.207870 1_555
Si0 Y1 3.207870 1_455
Si0 Y0 3.207871 1_545
Si0 Y0 3.207871 1_555
Si1 Y1 3.207870 1_565
Si1 Y1 3.207870 1_555
Si1 Y0 3.207871 1_655
Si1 Y0 3.207871 1_555
Si2 Y1 3.168670 1_555
Si2 Y1 3.168670 1_465
Si2 Y1 3.168670 1_455
Si2 Y1 3.168670 1_565
Si3 Y0 3.168553 1_645
Si3 Y0 3.168553 1_545
Si3 Y0 3.168553 1_655
Si3 Y0 3.168553 1_555
Pt0 Si2 2.470775 1_554
Pt0 Si2 2.470775 1_544
Pt0 Si3 2.470826 1_455
Pt0 Si3 2.470826 1_555
Pt0 Y0 3.261145 1_545
Pt0 Y0 3.261145 1_555
Pt0 Y1 3.261315 1_554
Pt0 Y1 3.261315 1_454
Pt1 Si2 2.470775 1_554
Pt1 Si2 2.470775 1_654
Pt1 Si3 2.470826 1_565
Pt1 Si3 2.470826 1_555
Pt1 Y0 3.261145 1_655
Pt1 Y0 3.261145 1_555
Pt1 Y1 3.261315 1_554
Pt1 Y1 3.261315 1_564
Pt2 Si2 2.385275 1_555
Pt2 Si1 2.419066 1_455
Pt2 Si1 2.419066 1_555
Pt2 Si0 2.419066 1_565
Pt2 Si0 2.419066 1_555
Pt2 Y1 3.179431 1_565
Pt2 Y1 3.179431 1_555
Pt2 Y1 3.179431 1_465
Pt2 Y1 3.179431 1_455
Pt3 Si3 2.385023 1_555
Pt3 Si0 2.419035 1_555
Pt3 Si0 2.419035 1_655
Pt3 Si1 2.419035 1_555
Pt3 Si1 2.419035 1_545
Pt3 Y0 3.179454 1_545
Pt3 Y0 3.179454 1_655
Pt3 Y0 3.179454 1_645
Pt3 Y0 3.179454 1_555
