# generated using pymatgen
data_Mn3GeN
_symmetry_space_group_name_H-M   'P 1'
_cell_length_a   5.49984066
_cell_length_b   5.49984066
_cell_length_c   5.49984066
_cell_angle_alpha   123.08104743
_cell_angle_beta   123.08104743
_cell_angle_gamma   84.74148246
_symmetry_Int_Tables_number   1
_chemical_formula_structural   Mn3GeN
_chemical_formula_sum   'Mn6 Ge2 N2'
_cell_volume   111.64270551
_cell_formula_units_Z   2
loop_
 _symmetry_equiv_pos_site_id
 _symmetry_equiv_pos_as_xyz
  1  'x, y, z'
loop_
 _atom_site_type_symbol
 _atom_site_label
 _atom_site_symmetry_multiplicity
 _atom_site_fract_x
 _atom_site_fract_y
 _atom_site_fract_z
 _atom_site_occupancy
  Mn  Mn0  1  0.68628000  0.18628000  0.87256100  1
  Mn  Mn1  1  0.31372000  0.81372000  0.12743900  1
  Mn  Mn2  1  0.18628000  0.31372000  0.50000000  1
  Mn  Mn3  1  0.81372000  0.68628000  0.50000000  1
  Mn  Mn4  1  0.25000000  0.25000000  0.00000000  1
  Mn  Mn5  1  0.75000000  0.75000000  0.00000000  1
  Ge  Ge0  1  0.75000000  0.25000000  0.50000000  1
  Ge  Ge1  1  0.25000000  0.75000000  0.50000000  1
  N  N0  1  0.00000000  0.00000000  0.00000000  1
  N  N1  1  0.50000000  0.50000000  0.00000000  1
loop_
_geom_bond_atom_site_label_1
_geom_bond_atom_site_label_2
_geom_bond_distance
_geom_bond_site_symmetry_2
Mn0 N0 1.912489 1_656
Mn0 N1 1.912489 1_556
Mn1 N0 1.912489 1_565
Mn1 N1 1.912489 1_555
Mn2 N1 1.912490 1_556
Mn2 N0 1.912490 1_555
Mn3 N0 1.912490 1_666
Mn3 N1 1.912490 1_555
Mn4 N1 2.031640 1_555
Mn4 N0 2.031640 1_555
Mn5 N0 2.031640 1_665
Mn5 N1 2.031640 1_555
Ge0 Mn1 2.456502 1_545
Ge0 Mn3 2.456503 1_555
Ge0 Mn2 2.456503 1_655
Ge0 Mn0 2.456509 1_555
Ge0 Mn5 2.620878 1_545
Ge0 Mn5 2.620878 1_556
Ge0 Mn4 2.620878 1_656
Ge0 Mn4 2.620878 1_555
Ge1 Mn0 2.456502 1_565
Ge1 Mn3 2.456503 1_455
Ge1 Mn2 2.456503 1_555
Ge1 Mn1 2.456509 1_555
Ge1 Mn5 2.620878 1_455
Ge1 Mn5 2.620878 1_556
Ge1 Mn4 2.620878 1_566
Ge1 Mn4 2.620878 1_555
