# generated using pymatgen
data_Mn8HO16
_symmetry_space_group_name_H-M   'P 1'
_cell_length_a   5.91599200
_cell_length_b   9.93422300
_cell_length_c   14.09502493
_cell_angle_alpha   45.18366931
_cell_angle_beta   90.00000000
_cell_angle_gamma   90.00000000
_symmetry_Int_Tables_number   1
_chemical_formula_structural   Mn8HO16
_chemical_formula_sum   'Mn16 H2 O32'
_cell_volume   587.62473605
_cell_formula_units_Z   2
loop_
 _symmetry_equiv_pos_site_id
 _symmetry_equiv_pos_as_xyz
  1  'x, y, z'
loop_
 _atom_site_type_symbol
 _atom_site_label
 _atom_site_symmetry_multiplicity
 _atom_site_fract_x
 _atom_site_fract_y
 _atom_site_fract_z
 _atom_site_occupancy
  Mn  Mn0  1  0.88343800  0.17940500  0.16533500  1
  Mn  Mn1  1  0.37765600  0.18189100  0.16586600  1
  Mn  Mn2  1  0.87055900  0.48298900  0.34855600  1
  Mn  Mn3  1  0.37077400  0.48158800  0.35478800  1
  Mn  Mn4  1  0.37189300  0.51589500  0.64817600  1
  Mn  Mn5  1  0.88022000  0.51345800  0.65000100  1
  Mn  Mn6  1  0.37342100  0.81784900  0.83331000  1
  Mn  Mn7  1  0.87394900  0.81703300  0.83389800  1
  Mn  Mn8  1  0.11656200  0.17940500  0.66533500  1
  Mn  Mn9  1  0.62234400  0.18189100  0.66586600  1
  Mn  Mn10  1  0.12944100  0.48298900  0.84855600  1
  Mn  Mn11  1  0.62922600  0.48158800  0.85478800  1
  Mn  Mn12  1  0.11978000  0.51345800  0.15000100  1
  Mn  Mn13  1  0.62810700  0.51589500  0.14817600  1
  Mn  Mn14  1  0.12605100  0.81703300  0.33389800  1
  Mn  Mn15  1  0.62657900  0.81784900  0.33331000  1
  H  H0  1  0.66234300  0.79311100  0.59692000  1
  H  H1  1  0.33765700  0.79311100  0.09692000  1
  O  O0  1  0.12359400  0.71293400  0.95708000  1
  O  O1  1  0.62386200  0.71241500  0.95454800  1
  O  O2  1  0.11288500  0.37494300  0.66115300  1
  O  O3  1  0.62765400  0.38134100  0.66224900  1
  O  O4  1  0.12072600  0.61560100  0.34183300  1
  O  O5  1  0.62201400  0.61896300  0.33819000  1
  O  O6  1  0.13114000  0.28502400  0.04264900  1
  O  O7  1  0.62844400  0.28890400  0.04337900  1
  O  O8  1  0.37613800  0.71241500  0.45454800  1
  O  O9  1  0.87640600  0.71293400  0.45708000  1
  O  O10  1  0.37234600  0.38134100  0.16224900  1
  O  O11  1  0.88711500  0.37494300  0.16115300  1
  O  O12  1  0.87927400  0.61560100  0.84183300  1
  O  O13  1  0.37798600  0.61896300  0.83819000  1
  O  O14  1  0.86886000  0.28502400  0.54264900  1
  O  O15  1  0.37155600  0.28890400  0.54337900  1
  O  O16  1  0.87054900  0.04875900  0.79391300  1
  O  O17  1  0.37127800  0.04953100  0.79375600  1
  O  O18  1  0.38322000  0.36550100  0.84163600  1
  O  O19  1  0.87572000  0.36198200  0.84272000  1
  O  O20  1  0.37687500  0.94908500  0.20462200  1
  O  O21  1  0.87678400  0.94360900  0.20695100  1
  O  O22  1  0.87605300  0.63677000  0.15714600  1
  O  O23  1  0.35783400  0.65657100  0.15411800  1
  O  O24  1  0.12945100  0.04875900  0.29391300  1
  O  O25  1  0.62872200  0.04953100  0.29375600  1
  O  O26  1  0.12428000  0.36198200  0.34272000  1
  O  O27  1  0.61678000  0.36550100  0.34163600  1
  O  O28  1  0.12321600  0.94360900  0.70695100  1
  O  O29  1  0.62312500  0.94908500  0.70462200  1
  O  O30  1  0.12394700  0.63677000  0.65714600  1
  O  O31  1  0.64216600  0.65657100  0.65411800  1
loop_
_geom_bond_atom_site_label_1
_geom_bond_atom_site_label_2
_geom_bond_distance
_geom_bond_site_symmetry_2
Mn0 O11 1.901555 1_555
Mn0 O6 1.918575 1_655
Mn0 O24 1.942010 1_655
Mn0 O7 1.943691 1_555
Mn0 O21 1.973768 1_545
Mn0 O25 1.979817 1_555
Mn1 O6 1.919515 1_555
Mn1 O7 1.929968 1_555
Mn1 O10 1.946037 1_555
Mn1 O24 1.948800 1_555
Mn1 O25 1.960413 1_555
Mn1 O20 1.966285 1_545
Mn2 O5 1.931276 1_555
Mn2 O4 1.938787 1_655
Mn2 O14 1.941061 1_555
Mn2 O27 1.945842 1_555
Mn2 O22 1.950283 1_555
Mn2 O26 1.960680 1_655
Mn3 O15 1.886085 1_555
Mn3 O4 1.910845 1_555
Mn3 O5 1.917366 1_555
Mn3 O27 1.945194 1_555
Mn3 O26 1.962691 1_555
Mn3 O23 2.024038 1_555
Mn4 O3 1.934355 1_555
Mn4 O8 1.936381 1_555
Mn4 O30 1.955392 1_555
Mn4 O18 1.982227 1_555
Mn4 O2 1.995248 1_555
Mn4 O31 2.163705 1_555
Mn5 O2 1.872934 1_655
Mn5 O3 1.914568 1_555
Mn5 O9 1.930165 1_555
Mn5 O30 1.940035 1_655
Mn5 O19 1.970193 1_555
Mn5 O31 2.030844 1_555
Mn6 O1 1.920749 1_555
Mn6 O13 1.928103 1_555
Mn6 O0 1.936746 1_555
Mn6 O28 1.946091 1_555
Mn6 O17 1.949209 1_565
Mn6 O29 1.959206 1_555
Mn7 O1 1.915613 1_555
Mn7 O12 1.924133 1_555
Mn7 O0 1.932392 1_655
Mn7 O28 1.945698 1_655
Mn7 O16 1.946387 1_565
Mn7 O29 1.968093 1_555
Mn8 O2 1.901555 1_555
Mn8 O14 1.918575 1_455
Mn8 O16 1.942010 1_455
Mn8 O15 1.943691 1_555
Mn8 O28 1.973768 1_545
Mn8 O17 1.979817 1_555
Mn9 O14 1.919515 1_555
Mn9 O15 1.929968 1_555
Mn9 O3 1.946037 1_555
Mn9 O16 1.948800 1_555
Mn9 O17 1.960413 1_555
Mn9 O29 1.966285 1_545
Mn10 O13 1.931276 1_555
Mn10 O12 1.938787 1_455
Mn10 O6 1.941061 1_556
Mn10 O18 1.945842 1_555
Mn10 O30 1.950283 1_555
Mn10 O19 1.960680 1_455
Mn11 O7 1.886085 1_556
Mn11 O12 1.910845 1_555
Mn11 O13 1.917366 1_555
Mn11 O18 1.945194 1_555
Mn11 O19 1.962691 1_555
Mn11 O31 2.024038 1_555
Mn12 O11 1.872934 1_455
Mn12 O10 1.914568 1_555
Mn12 O0 1.930165 1_554
Mn12 O22 1.940035 1_455
Mn12 O26 1.970193 1_555
Mn12 O23 2.030844 1_555
Mn13 O10 1.934355 1_555
Mn13 O1 1.936381 1_554
Mn13 O22 1.955392 1_555
Mn13 O27 1.982227 1_555
Mn13 O11 1.995248 1_555
Mn13 O23 2.163705 1_555
Mn14 O8 1.915613 1_555
Mn14 O4 1.924133 1_555
Mn14 O9 1.932392 1_455
Mn14 O21 1.945698 1_455
Mn14 O24 1.946387 1_565
Mn14 O20 1.968093 1_555
Mn15 O8 1.920749 1_555
Mn15 O5 1.928103 1_555
Mn15 O9 1.936746 1_555
Mn15 O21 1.946091 1_555
Mn15 O25 1.949209 1_565
Mn15 O20 1.959206 1_555
H0 O31 0.981089 1_555
H1 O23 0.981089 1_555
