# generated using pymatgen
data_Li2MnCoO4
_symmetry_space_group_name_H-M   'P 1'
_cell_length_a   3.06168197
_cell_length_b   6.05189633
_cell_length_c   8.10163830
_cell_angle_alpha   89.31154466
_cell_angle_beta   89.07445628
_cell_angle_gamma   94.89096413
_symmetry_Int_Tables_number   1
_chemical_formula_structural   Li2MnCoO4
_chemical_formula_sum   'Li4 Mn2 Co2 O8'
_cell_volume   149.53547507
_cell_formula_units_Z   2
loop_
 _symmetry_equiv_pos_site_id
 _symmetry_equiv_pos_as_xyz
  1  'x, y, z'
loop_
 _atom_site_type_symbol
 _atom_site_label
 _atom_site_symmetry_multiplicity
 _atom_site_fract_x
 _atom_site_fract_y
 _atom_site_fract_z
 _atom_site_occupancy
  Li  Li0  1  0.99748900  0.50121700  0.00316100  1
  Li  Li1  1  0.50302100  0.24811000  0.24671300  1
  Li  Li2  1  0.49825200  0.74906100  0.75359000  1
  Li  Li3  1  0.99985400  0.99788000  0.49604600  1
  Mn  Mn0  1  0.51144800  0.24934400  0.75159400  1
  Mn  Mn1  1  0.99985200  0.50351100  0.49866000  1
  Co  Co0  1  0.00601800  0.99542500  0.00117500  1
  Co  Co1  1  0.48674600  0.75122100  0.24797600  1
  O  O0  1  0.52344500  0.23538800  0.99071400  1
  O  O1  1  0.02499300  0.51414000  0.25786300  1
  O  O2  1  0.95513800  0.98734300  0.23934800  1
  O  O3  1  0.47956500  0.76174100  0.01358700  1
  O  O4  1  0.97666900  0.49510700  0.74057300  1
  O  O5  1  0.53322800  0.25806600  0.51034100  1
  O  O6  1  0.47029900  0.74484700  0.48551200  1
  O  O7  1  0.03398100  0.00759900  0.76314800  1
loop_
_geom_bond_atom_site_label_1
_geom_bond_atom_site_label_2
_geom_bond_distance
_geom_bond_site_symmetry_2
Li0 O1 2.068725 1_655
Li0 O3 2.069272 1_655
Li0 O0 2.077322 1_554
Li0 O4 2.130047 1_554
Li0 O3 2.330816 1_555
Li0 O0 2.373144 1_654
Li1 O0 2.076494 1_554
Li1 O5 2.140661 1_555
Li1 O1 2.173384 1_655
Li1 O2 2.186843 1_545
Li1 O2 2.204989 1_445
Li1 O1 2.267879 1_555
Li2 O3 2.108751 1_556
Li2 O4 2.124659 1_455
Li2 O7 2.171144 1_665
Li2 O6 2.175307 1_555
Li2 O7 2.203006 1_565
Li2 O4 2.213932 1_555
Li3 O2 2.087762 1_555
Li3 O6 2.136635 1_555
Li3 O7 2.169431 1_665
Li3 O5 2.175228 1_665
Li3 O6 2.191380 1_655
Li3 O5 2.217328 1_565
Mn0 O0 1.939167 1_555
Mn0 O5 1.954530 1_555
Mn0 O4 1.969869 1_555
Mn0 O7 1.978329 1_555
Mn0 O7 2.260375 1_655
Mn0 O4 2.306024 1_455
Mn1 O1 1.951197 1_655
Mn1 O4 1.959922 1_555
Mn1 O6 1.962585 1_655
Mn1 O5 1.971505 1_555
Mn1 O6 2.275708 1_555
Mn1 O5 2.301612 1_655
Co0 O7 1.929169 1_564
Co0 O2 1.933056 1_455
Co0 O3 2.052026 1_455
Co0 O0 2.055783 1_564
Co0 O3 2.112619 1_555
Co0 O0 2.160112 1_464
Co1 O3 1.899782 1_555
Co1 O6 1.924113 1_555
Co1 O1 1.926498 1_555
Co1 O2 1.936068 1_555
Co1 O2 2.256965 1_455
Co1 O1 2.277155 1_655
