# generated using pymatgen
data_La(HoS2)3
_symmetry_space_group_name_H-M   'P 1'
_cell_length_a   3.99546752
_cell_length_b   11.06462533
_cell_length_c   11.32744309
_cell_angle_alpha   71.14983379
_cell_angle_beta   90.00000000
_cell_angle_gamma   90.00000000
_symmetry_Int_Tables_number   1
_chemical_formula_structural   La(HoS2)3
_chemical_formula_sum   'La2 Ho6 S12'
_cell_volume   473.90977997
_cell_formula_units_Z   2
loop_
 _symmetry_equiv_pos_site_id
 _symmetry_equiv_pos_as_xyz
  1  'x, y, z'
loop_
 _atom_site_type_symbol
 _atom_site_label
 _atom_site_symmetry_multiplicity
 _atom_site_fract_x
 _atom_site_fract_y
 _atom_site_fract_z
 _atom_site_occupancy
  La  La0  1  0.75000000  0.55089709  0.80463522  1
  La  La1  1  0.25000000  0.44910291  0.19536478  1
  Ho  Ho0  1  0.75000000  0.17858722  0.99892621  1
  Ho  Ho1  1  0.25000000  0.82141278  0.00107379  1
  Ho  Ho2  1  0.75000000  0.94480654  0.66655686  1
  Ho  Ho3  1  0.25000000  0.05519346  0.33344314  1
  Ho  Ho4  1  0.75000000  0.66142836  0.41168675  1
  Ho  Ho5  1  0.25000000  0.33857164  0.58831325  1
  S  S0  1  0.75000000  0.97813297  0.88870275  1
  S  S1  1  0.25000000  0.02186703  0.11129725  1
  S  S2  1  0.75000000  0.30198835  0.74885523  1
  S  S3  1  0.25000000  0.69801165  0.25114477  1
  S  S4  1  0.75000000  0.89312836  0.44323231  1
  S  S5  1  0.25000000  0.10687164  0.55676769  1
  S  S6  1  0.75000000  0.41782838  0.40837069  1
  S  S7  1  0.25000000  0.58217162  0.59162931  1
  S  S8  1  0.75000000  0.23010647  0.22981556  1
  S  S9  1  0.25000000  0.76989353  0.77018444  1
  S  S10  1  0.75000000  0.62107569  0.03665989  1
  S  S11  1  0.25000000  0.37892431  0.96334011  1
loop_
_geom_bond_atom_site_label_1
_geom_bond_atom_site_label_2
_geom_bond_distance
_geom_bond_site_symmetry_2
La0 S11 2.938198 1_555
La0 S11 2.938198 1_655
La0 S10 2.971430 1_556
La0 S2 3.018056 1_555
La0 S7 3.064771 1_555
La0 S7 3.064771 1_655
La0 S9 3.066541 1_555
La0 S9 3.066541 1_655
La1 S10 2.938198 1_555
La1 S10 2.938198 1_455
La1 S11 2.971430 1_554
La1 S3 3.018056 1_555
La1 S6 3.064771 1_555
La1 S6 3.064771 1_455
La1 S8 3.066541 1_455
La1 S8 3.066541 1_555
Ho0 S1 2.681752 1_556
Ho0 S1 2.681752 1_656
Ho0 S2 2.718275 1_555
Ho0 S8 2.851066 1_556
Ho0 S0 2.875348 1_545
Ho0 S11 2.913691 1_555
Ho0 S11 2.913691 1_655
Ho1 S0 2.681752 1_454
Ho1 S0 2.681752 1_554
Ho1 S3 2.718275 1_555
Ho1 S9 2.851066 1_554
Ho1 S1 2.875348 1_565
Ho1 S10 2.913691 1_455
Ho1 S10 2.913691 1_555
Ho2 S0 2.658487 1_555
Ho2 S5 2.704079 1_665
Ho2 S5 2.704079 1_565
Ho2 S9 2.765212 1_655
Ho2 S9 2.765212 1_555
Ho2 S4 2.767854 1_555
Ho3 S1 2.658487 1_555
Ho3 S4 2.704079 1_445
Ho3 S4 2.704079 1_545
Ho3 S8 2.765212 1_455
Ho3 S8 2.765212 1_555
Ho3 S5 2.767854 1_555
Ho4 S3 2.643138 1_555
Ho4 S3 2.643138 1_655
Ho4 S4 2.700383 1_555
Ho4 S6 2.707712 1_555
Ho4 S7 2.785598 1_655
Ho4 S7 2.785598 1_555
Ho5 S2 2.643138 1_455
Ho5 S2 2.643138 1_555
Ho5 S5 2.700383 1_555
Ho5 S7 2.707712 1_555
Ho5 S6 2.785598 1_455
Ho5 S6 2.785598 1_555
