# generated using pymatgen
data_Cu(RhS2)2
_symmetry_space_group_name_H-M   'P 1'
_cell_length_a   6.92968651
_cell_length_b   6.92968618
_cell_length_c   6.92968699
_cell_angle_alpha   60.00000094
_cell_angle_beta   60.00000253
_cell_angle_gamma   59.99999164
_symmetry_Int_Tables_number   1
_chemical_formula_structural   Cu(RhS2)2
_chemical_formula_sum   'Cu2 Rh4 S8'
_cell_volume   235.30207644
_cell_formula_units_Z   2
loop_
 _symmetry_equiv_pos_site_id
 _symmetry_equiv_pos_as_xyz
  1  'x, y, z'
loop_
 _atom_site_type_symbol
 _atom_site_label
 _atom_site_symmetry_multiplicity
 _atom_site_fract_x
 _atom_site_fract_y
 _atom_site_fract_z
 _atom_site_occupancy
  Cu  Cu0  1  0.87500000  0.87500000  0.87500000  1
  Cu  Cu1  1  0.12500000  0.12500000  0.12500000  1
  Rh  Rh0  1  0.50000000  0.50000000  0.00000000  1
  Rh  Rh1  1  0.50000000  0.50000000  0.50000000  1
  Rh  Rh2  1  0.00000000  0.50000000  0.50000000  1
  Rh  Rh3  1  0.50000000  -0.00000000  0.50000000  1
  S  S0  1  0.74120023  0.74120023  0.74120023  1
  S  S1  1  0.25879977  0.25879977  0.72360070  1
  S  S2  1  0.25879977  0.72360070  0.25879977  1
  S  S3  1  0.72360070  0.25879977  0.25879977  1
  S  S4  1  0.74120023  0.27639930  0.74120023  1
  S  S5  1  0.27639930  0.74120023  0.74120023  1
  S  S6  1  0.25879977  0.25879977  0.25879977  1
  S  S7  1  0.74120023  0.74120023  0.27639930  1
loop_
_geom_bond_atom_site_label_1
_geom_bond_atom_site_label_2
_geom_bond_distance
_geom_bond_site_symmetry_2
Cu0 S4 2.271143 1_565
Cu0 S5 2.271143 1_655
Cu0 S0 2.271144 1_555
Cu0 S7 2.271144 1_556
Cu1 S2 2.271143 1_545
Cu1 S3 2.271143 1_455
Cu1 S6 2.271144 1_555
Cu1 S1 2.271144 1_554
Rh0 S3 2.366920 1_555
Rh0 S5 2.366920 1_554
Rh0 S2 2.366920 1_555
Rh0 S4 2.366920 1_554
Rh0 S0 2.366920 1_554
Rh0 S6 2.366920 1_555
Rh1 S3 2.366920 1_555
Rh1 S5 2.366920 1_555
Rh1 S4 2.366920 1_555
Rh1 S2 2.366920 1_555
Rh1 S7 2.366920 1_555
Rh1 S1 2.366920 1_555
Rh2 S6 2.366920 1_555
Rh2 S0 2.366920 1_455
Rh2 S7 2.366920 1_455
Rh2 S1 2.366920 1_555
Rh2 S4 2.366920 1_455
Rh2 S2 2.366920 1_555
Rh3 S0 2.366920 1_545
Rh3 S6 2.366920 1_555
Rh3 S7 2.366920 1_545
Rh3 S1 2.366920 1_555
Rh3 S5 2.366920 1_545
Rh3 S3 2.366920 1_555
