# generated using pymatgen
data_MgSi2
_symmetry_space_group_name_H-M   'P 1'
_cell_length_a   5.63564849
_cell_length_b   5.63564849
_cell_length_c   7.48603042
_cell_angle_alpha   83.65103057
_cell_angle_beta   83.65103057
_cell_angle_gamma   63.11055997
_symmetry_Int_Tables_number   1
_chemical_formula_structural   MgSi2
_chemical_formula_sum   'Mg4 Si8'
_cell_volume   210.26071965
_cell_formula_units_Z   4
loop_
 _symmetry_equiv_pos_site_id
 _symmetry_equiv_pos_as_xyz
  1  'x, y, z'
loop_
 _atom_site_type_symbol
 _atom_site_label
 _atom_site_symmetry_multiplicity
 _atom_site_fract_x
 _atom_site_fract_y
 _atom_site_fract_z
 _atom_site_occupancy
  Mg  Mg0  1  0.61409800  0.61409800  0.74551500  1
  Mg  Mg1  1  0.91790700  0.91790700  0.18370700  1
  Mg  Mg2  1  0.38590200  0.38590200  0.25448500  1
  Mg  Mg3  1  0.08209300  0.08209300  0.81629300  1
  Si  Si0  1  0.85909100  0.45191400  0.12441100  1
  Si  Si1  1  0.06763100  0.66122600  0.55382700  1
  Si  Si2  1  0.14090900  0.54808600  0.87558900  1
  Si  Si3  1  0.93236900  0.33877400  0.44617300  1
  Si  Si4  1  0.66122600  0.06763100  0.55382700  1
  Si  Si5  1  0.45191400  0.85909100  0.12441100  1
  Si  Si6  1  0.33877400  0.93236900  0.44617300  1
  Si  Si7  1  0.54808600  0.14090900  0.87558900  1
loop_
_geom_bond_atom_site_label_1
_geom_bond_atom_site_label_2
_geom_bond_distance
_geom_bond_site_symmetry_2
Mg0 Si6 2.830010 1_555
Mg0 Si3 2.830010 1_555
Mg0 Si1 2.895027 1_655
Mg0 Si4 2.895027 1_565
Mg0 Si7 2.905331 1_555
Mg0 Si2 2.905331 1_555
Mg0 Mg3 3.005171 1_655
Mg0 Mg3 3.005171 1_565
Mg0 Si7 3.075916 1_565
Mg0 Si2 3.075916 1_655
Mg0 Si0 3.152509 1_556
Mg0 Si5 3.152509 1_556
Mg1 Si5 2.863324 1_655
Mg1 Si0 2.863324 1_565
Mg1 Si5 2.877751 1_555
Mg1 Si0 2.877751 1_555
Mg1 Si1 3.001336 1_655
Mg1 Si4 3.001336 1_565
Mg1 Mg2 3.005171 1_565
Mg1 Mg2 3.005171 1_655
Mg1 Si2 3.048999 1_654
Mg1 Si7 3.048999 1_564
Mg2 Si4 2.830010 1_555
Mg2 Si1 2.830010 1_555
Mg2 Si3 2.895027 1_455
Mg2 Si6 2.895027 1_545
Mg2 Si5 2.905331 1_555
Mg2 Si0 2.905331 1_555
Mg2 Si5 3.075916 1_545
Mg2 Si0 3.075916 1_455
Mg2 Si7 3.152509 1_554
Mg2 Si2 3.152509 1_554
Mg3 Si7 2.863324 1_455
Mg3 Si2 2.863324 1_545
Mg3 Si2 2.877751 1_555
Mg3 Si7 2.877751 1_555
Mg3 Si3 3.001336 1_455
Mg3 Si6 3.001336 1_545
Mg3 Si5 3.048999 1_546
Mg3 Si0 3.048999 1_456
Si0 Si5 2.401736 1_555
Si0 Si3 2.453808 1_555
Si0 Si2 2.487345 1_654
Si1 Si4 2.397182 1_465
Si1 Si2 2.453808 1_555
Si1 Si3 2.499132 1_455
Si1 Si6 2.624275 1_555
Si2 Si7 2.401736 1_555
Si3 Si6 2.397182 1_645
Si3 Si4 2.624275 1_555
Si4 Si7 2.453808 1_555
Si4 Si6 2.499132 1_545
Si5 Si6 2.453808 1_555
Si5 Si7 2.487345 1_564
