# generated using pymatgen
data_CeHfMg30O32
_symmetry_space_group_name_H-M   'P 1'
_cell_length_a   8.67387900
_cell_length_b   8.67387900
_cell_length_c   8.71977600
_cell_angle_alpha   90.00000000
_cell_angle_beta   90.00000000
_cell_angle_gamma   90.00000000
_symmetry_Int_Tables_number   1
_chemical_formula_structural   CeHfMg30O32
_chemical_formula_sum   'Ce1 Hf1 Mg30 O32'
_cell_volume   656.04260972
_cell_formula_units_Z   1
loop_
 _symmetry_equiv_pos_site_id
 _symmetry_equiv_pos_as_xyz
  1  'x, y, z'
loop_
 _atom_site_type_symbol
 _atom_site_label
 _atom_site_symmetry_multiplicity
 _atom_site_fract_x
 _atom_site_fract_y
 _atom_site_fract_z
 _atom_site_occupancy
  Ce  Ce0  1  0.00000000  0.00000000  0.00000000  1
  Hf  Hf0  1  0.00000000  0.00000000  0.50000000  1
  Mg  Mg0  1  0.00000000  0.50000000  0.00000000  1
  Mg  Mg1  1  0.00000000  0.50000000  0.50000000  1
  Mg  Mg2  1  0.50000000  0.00000000  0.00000000  1
  Mg  Mg3  1  0.50000000  0.00000000  0.50000000  1
  Mg  Mg4  1  0.50000000  0.50000000  0.00000000  1
  Mg  Mg5  1  0.50000000  0.50000000  0.50000000  1
  Mg  Mg6  1  0.00000000  0.25967100  0.25234000  1
  Mg  Mg7  1  0.00000000  0.25967100  0.74766000  1
  Mg  Mg8  1  0.00000000  0.74032900  0.25234000  1
  Mg  Mg9  1  0.00000000  0.74032900  0.74766000  1
  Mg  Mg10  1  0.50000000  0.25163200  0.25009200  1
  Mg  Mg11  1  0.50000000  0.25163200  0.74990800  1
  Mg  Mg12  1  0.50000000  0.74836800  0.25009200  1
  Mg  Mg13  1  0.50000000  0.74836800  0.74990800  1
  Mg  Mg14  1  0.25967100  0.00000000  0.25234000  1
  Mg  Mg15  1  0.25967100  0.00000000  0.74766000  1
  Mg  Mg16  1  0.25163200  0.50000000  0.25009200  1
  Mg  Mg17  1  0.25163200  0.50000000  0.74990800  1
  Mg  Mg18  1  0.74032900  0.00000000  0.25234000  1
  Mg  Mg19  1  0.74032900  0.00000000  0.74766000  1
  Mg  Mg20  1  0.74836800  0.50000000  0.25009200  1
  Mg  Mg21  1  0.74836800  0.50000000  0.74990800  1
  Mg  Mg22  1  0.25789600  0.25789600  0.00000000  1
  Mg  Mg23  1  0.25601600  0.25601600  0.50000000  1
  Mg  Mg24  1  0.25789600  0.74210400  0.00000000  1
  Mg  Mg25  1  0.25601600  0.74398400  0.50000000  1
  Mg  Mg26  1  0.74210400  0.25789600  0.00000000  1
  Mg  Mg27  1  0.74398400  0.25601600  0.50000000  1
  Mg  Mg28  1  0.74210400  0.74210400  0.00000000  1
  Mg  Mg29  1  0.74398400  0.74398400  0.50000000  1
  O  O0  1  0.26977800  0.00000000  0.00000000  1
  O  O1  1  0.25430500  0.00000000  0.50000000  1
  O  O2  1  0.25338100  0.50000000  0.00000000  1
  O  O3  1  0.25055800  0.50000000  0.50000000  1
  O  O4  1  0.73022200  0.00000000  0.00000000  1
  O  O5  1  0.74569500  0.00000000  0.50000000  1
  O  O6  1  0.74661900  0.50000000  0.00000000  1
  O  O7  1  0.74944200  0.50000000  0.50000000  1
  O  O8  1  0.24997900  0.24997900  0.25043200  1
  O  O9  1  0.24997900  0.24997900  0.74956800  1
  O  O10  1  0.24997900  0.75002100  0.25043200  1
  O  O11  1  0.24997900  0.75002100  0.74956800  1
  O  O12  1  0.75002100  0.24997900  0.25043200  1
  O  O13  1  0.75002100  0.24997900  0.74956800  1
  O  O14  1  0.75002100  0.75002100  0.25043200  1
  O  O15  1  0.75002100  0.75002100  0.74956800  1
  O  O16  1  0.00000000  0.00000000  0.26004900  1
  O  O17  1  0.00000000  0.00000000  0.73995100  1
  O  O18  1  0.00000000  0.50000000  0.25364600  1
  O  O19  1  0.00000000  0.50000000  0.74635400  1
  O  O20  1  0.50000000  0.00000000  0.25364600  1
  O  O21  1  0.50000000  0.00000000  0.74635400  1
  O  O22  1  0.50000000  0.50000000  0.25094300  1
  O  O23  1  0.50000000  0.50000000  0.74905700  1
  O  O24  1  0.00000000  0.26977800  0.00000000  1
  O  O25  1  0.00000000  0.25430500  0.50000000  1
  O  O26  1  0.00000000  0.73022200  0.00000000  1
  O  O27  1  0.00000000  0.74569500  0.50000000  1
  O  O28  1  0.50000000  0.25338100  0.00000000  1
  O  O29  1  0.50000000  0.25055800  0.50000000  1
  O  O30  1  0.50000000  0.74661900  0.00000000  1
  O  O31  1  0.50000000  0.74944200  0.50000000  1
loop_
_geom_bond_atom_site_label_1
_geom_bond_atom_site_label_2
_geom_bond_distance
_geom_bond_site_symmetry_2
Ce0 O16 2.267569 1_555
Ce0 O17 2.267569 1_554
Ce0 O0 2.340022 1_555
Ce0 O24 2.340022 1_555
Ce0 O4 2.340022 1_455
Ce0 O26 2.340022 1_545
Hf0 O17 2.092319 1_555
Hf0 O16 2.092319 1_555
Hf0 O5 2.205811 1_455
Hf0 O25 2.205811 1_555
Hf0 O27 2.205811 1_545
Hf0 O1 2.205811 1_555
Mg0 O26 1.996918 1_555
Mg0 O24 1.996918 1_555
Mg0 O2 2.197796 1_555
Mg0 O6 2.197796 1_455
Mg0 O18 2.211736 1_555
Mg0 O19 2.211736 1_554
Mg1 O27 2.131129 1_555
Mg1 O25 2.131129 1_555
Mg1 O19 2.148152 1_555
Mg1 O18 2.148152 1_555
Mg1 O3 2.173310 1_555
Mg1 O7 2.173310 1_455
Mg2 O4 1.996918 1_555
Mg2 O0 1.996918 1_555
Mg2 O28 2.197796 1_555
Mg2 O30 2.197796 1_545
Mg2 O20 2.211736 1_555
Mg2 O21 2.211736 1_554
Mg3 O1 2.131129 1_555
Mg3 O5 2.131129 1_555
Mg3 O21 2.148152 1_555
Mg3 O20 2.148152 1_555
Mg3 O29 2.173310 1_555
Mg3 O31 2.173310 1_545
Mg4 O30 2.139143 1_555
Mg4 O6 2.139143 1_555
Mg4 O2 2.139143 1_555
Mg4 O28 2.139143 1_555
Mg4 O22 2.188167 1_555
Mg4 O23 2.188167 1_554
Mg5 O7 2.163630 1_555
Mg5 O31 2.163630 1_555
Mg5 O3 2.163630 1_555
Mg5 O29 2.163630 1_555
Mg5 O23 2.171721 1_555
Mg5 O22 2.171721 1_555
Mg6 O18 2.084616 1_555
Mg6 O25 2.160041 1_555
Mg6 O8 2.169980 1_555
Mg6 O12 2.169980 1_455
Mg6 O24 2.202094 1_555
Mg6 O16 2.253358 1_555
Mg7 O19 2.084616 1_555
Mg7 O25 2.160041 1_555
Mg7 O9 2.169980 1_555
Mg7 O13 2.169980 1_455
Mg7 O24 2.202094 1_556
Mg7 O17 2.253358 1_555
Mg8 O18 2.084616 1_555
Mg8 O27 2.160041 1_555
Mg8 O10 2.169980 1_555
Mg8 O14 2.169980 1_455
Mg8 O26 2.202094 1_555
Mg8 O16 2.253358 1_565
Mg9 O19 2.084616 1_555
Mg9 O27 2.160041 1_555
Mg9 O11 2.169980 1_555
Mg9 O15 2.169980 1_455
Mg9 O26 2.202094 1_556
Mg9 O17 2.253358 1_565
Mg10 O22 2.154327 1_555
Mg10 O12 2.168701 1_555
Mg10 O8 2.168701 1_555
Mg10 O29 2.179162 1_555
Mg10 O28 2.180799 1_555
Mg10 O20 2.182846 1_555
Mg11 O23 2.154327 1_555
Mg11 O13 2.168701 1_555
Mg11 O9 2.168701 1_555
Mg11 O29 2.179162 1_555
Mg11 O28 2.180799 1_556
Mg11 O21 2.182846 1_555
Mg12 O22 2.154327 1_555
Mg12 O14 2.168701 1_555
Mg12 O10 2.168701 1_555
Mg12 O31 2.179162 1_555
Mg12 O30 2.180799 1_555
Mg12 O20 2.182846 1_565
Mg13 O23 2.154327 1_555
Mg13 O15 2.168701 1_555
Mg13 O11 2.168701 1_555
Mg13 O31 2.179162 1_555
Mg13 O30 2.180799 1_556
Mg13 O21 2.182846 1_565
Mg14 O20 2.084616 1_555
Mg14 O1 2.160041 1_555
Mg14 O8 2.169980 1_555
Mg14 O10 2.169980 1_545
Mg14 O0 2.202094 1_555
Mg14 O16 2.253358 1_555
Mg15 O21 2.084616 1_555
Mg15 O1 2.160041 1_555
Mg15 O9 2.169980 1_555
Mg15 O11 2.169980 1_545
Mg15 O0 2.202094 1_556
Mg15 O17 2.253358 1_555
Mg16 O22 2.154327 1_555
Mg16 O10 2.168701 1_555
Mg16 O8 2.168701 1_555
Mg16 O3 2.179162 1_555
Mg16 O2 2.180799 1_555
Mg16 O18 2.182846 1_555
Mg17 O23 2.154327 1_555
Mg17 O11 2.168701 1_555
Mg17 O9 2.168701 1_555
Mg17 O3 2.179162 1_555
Mg17 O2 2.180799 1_556
Mg17 O19 2.182846 1_555
Mg18 O20 2.084616 1_555
Mg18 O5 2.160041 1_555
Mg18 O12 2.169980 1_555
Mg18 O14 2.169980 1_545
Mg18 O4 2.202094 1_555
Mg18 O16 2.253358 1_655
Mg19 O21 2.084616 1_555
Mg19 O5 2.160041 1_555
Mg19 O13 2.169980 1_555
Mg19 O15 2.169980 1_545
Mg19 O4 2.202094 1_556
Mg19 O17 2.253358 1_655
Mg20 O22 2.154327 1_555
Mg20 O14 2.168701 1_555
Mg20 O12 2.168701 1_555
Mg20 O7 2.179162 1_555
Mg20 O6 2.180799 1_555
Mg20 O18 2.182846 1_655
Mg21 O23 2.154327 1_555
Mg21 O15 2.168701 1_555
Mg21 O13 2.168701 1_555
Mg21 O7 2.179162 1_555
Mg21 O6 2.180799 1_556
Mg21 O19 2.182846 1_655
Mg22 O28 2.100346 1_555
Mg22 O2 2.100346 1_555
Mg22 O8 2.185869 1_555
Mg22 O9 2.185869 1_554
Mg22 O24 2.239332 1_555
Mg22 O0 2.239332 1_555
Mg23 O3 2.116817 1_555
Mg23 O29 2.116817 1_555
Mg23 O8 2.177437 1_555
Mg23 O9 2.177437 1_555
Mg23 O1 2.220701 1_555
Mg23 O25 2.220701 1_555
Mg24 O30 2.100346 1_555
Mg24 O2 2.100346 1_555
Mg24 O10 2.185869 1_555
Mg24 O11 2.185869 1_554
Mg24 O0 2.239332 1_565
Mg24 O26 2.239332 1_555
Mg25 O3 2.116817 1_555
Mg25 O31 2.116817 1_555
Mg25 O11 2.177437 1_555
Mg25 O10 2.177437 1_555
Mg25 O27 2.220701 1_555
Mg25 O1 2.220701 1_565
Mg26 O6 2.100346 1_555
Mg26 O28 2.100346 1_555
Mg26 O13 2.185869 1_554
Mg26 O12 2.185869 1_555
Mg26 O24 2.239332 1_655
Mg26 O4 2.239332 1_555
Mg27 O29 2.116817 1_555
Mg27 O7 2.116817 1_555
Mg27 O13 2.177437 1_555
Mg27 O12 2.177437 1_555
Mg27 O5 2.220701 1_555
Mg27 O25 2.220701 1_655
Mg28 O30 2.100346 1_555
Mg28 O6 2.100346 1_555
Mg28 O14 2.185869 1_555
Mg28 O15 2.185869 1_554
Mg28 O4 2.239332 1_565
Mg28 O26 2.239332 1_655
Mg29 O7 2.116817 1_555
Mg29 O31 2.116817 1_555
Mg29 O14 2.177437 1_555
Mg29 O15 2.177437 1_555
Mg29 O27 2.220701 1_655
Mg29 O5 2.220701 1_565
