# generated using pymatgen
data_Rb2CoO3
_symmetry_space_group_name_H-M   'P 1'
_cell_length_a   5.33099604
_cell_length_b   6.26305425
_cell_length_c   6.26305176
_cell_angle_alpha   108.78973372
_cell_angle_beta   90.00004550
_cell_angle_gamma   90.00002768
_symmetry_Int_Tables_number   1
_chemical_formula_structural   Rb2CoO3
_chemical_formula_sum   'Rb4 Co2 O6'
_cell_volume   197.96851147
_cell_formula_units_Z   2
loop_
 _symmetry_equiv_pos_site_id
 _symmetry_equiv_pos_as_xyz
  1  'x, y, z'
loop_
 _atom_site_type_symbol
 _atom_site_label
 _atom_site_symmetry_multiplicity
 _atom_site_fract_x
 _atom_site_fract_y
 _atom_site_fract_z
 _atom_site_occupancy
  Rb  Rb0  1  0.74082723  0.18318264  0.50555323  1
  Rb  Rb1  1  0.24082820  0.49444041  0.81681074  1
  Rb  Rb2  1  0.74082677  0.50555302  0.18318446  1
  Rb  Rb3  1  0.24082773  0.81681033  0.49444125  1
  Co  Co0  1  0.73971042  0.92750088  0.92750200  1
  Co  Co1  1  0.23970937  0.07250356  0.07250582  1
  O  O0  1  0.23881484  0.31777104  0.31776233  1
  O  O1  1  0.73881679  0.68221600  0.68220266  1
  O  O2  1  0.98992776  0.11781361  0.88155011  1
  O  O3  1  0.48988907  0.11846644  0.88220097  1
  O  O4  1  0.98992821  0.88154327  0.11781547  1
  O  O5  1  0.48988961  0.88219681  0.11847098  1
loop_
_geom_bond_atom_site_label_1
_geom_bond_atom_site_label_2
_geom_bond_distance
_geom_bond_site_symmetry_2
Co0 O1 1.788835 1_555
Co0 O3 1.871701 1_565
Co0 O5 1.871720 1_556
Co0 O2 1.871854 1_565
Co0 O4 1.871871 1_556
Co1 O0 1.788615 1_555
Co1 O2 1.871527 1_454
Co1 O4 1.871545 1_445
Co1 O3 1.871703 1_554
Co1 O5 1.871718 1_545
O0 Rb3 2.960645 1_555
O0 Rb1 2.960696 1_555
O0 Rb2 3.127300 1_455
O0 Rb0 3.127350 1_455
O0 Rb2 3.145531 1_555
O0 Rb0 3.145584 1_555
O1 Rb2 2.960517 1_555
O1 Rb0 2.960604 1_555
O1 Rb3 3.127285 1_555
O1 Rb1 3.127358 1_555
O1 Rb3 3.145507 1_655
O1 Rb1 3.145583 1_655
O2 Rb0 2.845636 1_555
O2 Rb1 2.851957 1_655
O2 Rb2 2.876510 1_556
O2 Rb3 2.876937 1_645
O3 Rb1 2.845469 1_555
O3 Rb0 2.852107 1_555
O3 Rb3 2.876542 1_545
O3 Rb2 2.876893 1_556
O4 Rb2 2.845603 1_555
O4 Rb3 2.851932 1_655
O4 Rb0 2.876515 1_565
O4 Rb1 2.876917 1_654
O5 Rb3 2.845441 1_555
O5 Rb2 2.852076 1_555
O5 Rb1 2.876540 1_554
O5 Rb0 2.876881 1_565
