# generated using pymatgen
data_SrYGa3O7
_symmetry_space_group_name_H-M   'P 1'
_cell_length_a   8.01826145
_cell_length_b   8.01826145
_cell_length_c   5.29835200
_cell_angle_alpha   90.00000000
_cell_angle_beta   90.00000000
_cell_angle_gamma   91.64901029
_symmetry_Int_Tables_number   1
_chemical_formula_structural   SrYGa3O7
_chemical_formula_sum   'Sr2 Y2 Ga6 O14'
_cell_volume   340.50331141
_cell_formula_units_Z   2
loop_
 _symmetry_equiv_pos_site_id
 _symmetry_equiv_pos_as_xyz
  1  'x, y, z'
loop_
 _atom_site_type_symbol
 _atom_site_label
 _atom_site_symmetry_multiplicity
 _atom_site_fract_x
 _atom_site_fract_y
 _atom_site_fract_z
 _atom_site_occupancy
  Sr  Sr0  1  0.16254100  0.83745900  0.49153700  1
  Sr  Sr1  1  0.83745900  0.16254100  0.49153700  1
  Y  Y0  1  0.65961500  0.65961500  0.51789400  1
  Y  Y1  1  0.34038500  0.34038500  0.51789400  1
  Ga  Ga0  1  0.36085400  0.63914600  0.03529500  1
  Ga  Ga1  1  0.84984400  0.84984400  0.96735400  1
  Ga  Ga2  1  0.63914600  0.36085400  0.03529500  1
  Ga  Ga3  1  0.15015600  0.15015600  0.96735400  1
  Ga  Ga4  1  0.50000000  0.00000000  0.99175000  1
  Ga  Ga5  1  0.00000000  0.50000000  0.99175000  1
  O  O0  1  0.00000000  0.00000000  0.82434800  1
  O  O1  1  0.50000000  0.50000000  0.22146700  1
  O  O2  1  0.37637800  0.62362200  0.69187400  1
  O  O3  1  0.84055000  0.84055000  0.30809200  1
  O  O4  1  0.62362200  0.37637800  0.69187400  1
  O  O5  1  0.15945000  0.15945000  0.30809200  1
  O  O6  1  0.41840800  0.83541600  0.20438600  1
  O  O7  1  0.89828600  0.65515700  0.78226300  1
  O  O8  1  0.58159200  0.16458400  0.20438600  1
  O  O9  1  0.10171400  0.34484300  0.78226300  1
  O  O10  1  0.34484300  0.10171400  0.78226300  1
  O  O11  1  0.83541600  0.41840800  0.20438600  1
  O  O12  1  0.65515700  0.89828600  0.78226300  1
  O  O13  1  0.16458400  0.58159200  0.20438600  1
loop_
_geom_bond_atom_site_label_1
_geom_bond_atom_site_label_2
_geom_bond_distance
_geom_bond_site_symmetry_2
Ga0 O2 1.828305 1_554
Ga0 O13 1.857547 1_555
Ga0 O6 1.857547 1_555
Ga0 O1 1.879960 1_555
Ga1 O3 1.808335 1_556
Ga1 O0 1.841157 1_665
Ga1 O12 1.893245 1_555
Ga1 O7 1.893245 1_555
Ga2 O4 1.828305 1_554
Ga2 O8 1.857547 1_555
Ga2 O11 1.857547 1_555
Ga2 O1 1.879960 1_555
Ga3 O5 1.808335 1_556
Ga3 O0 1.841157 1_555
Ga3 O10 1.893245 1_555
Ga3 O9 1.893245 1_555
Ga4 O6 1.840963 1_546
Ga4 O8 1.840963 1_556
Ga4 O12 1.871701 1_545
Ga4 O10 1.871701 1_555
Ga5 O11 1.840963 1_456
Ga5 O13 1.840963 1_556
Ga5 O7 1.871701 1_455
Ga5 O9 1.871701 1_555
O0 Sr1 2.569888 1_455
O0 Sr0 2.569888 1_545
O1 Y0 2.376634 1_555
O1 Y1 2.376634 1_555
O2 Y0 2.460294 1_555
O2 Y1 2.460294 1_555
O2 Sr0 2.678731 1_555
O3 Y0 2.307396 1_555
O3 Sr1 2.759480 1_565
O3 Sr0 2.759480 1_655
O4 Y0 2.460294 1_555
O4 Y1 2.460294 1_555
O4 Sr1 2.678731 1_555
O5 Y1 2.307396 1_555
O5 Sr0 2.759480 1_545
O5 Sr1 2.759480 1_455
O6 Sr0 2.554612 1_555
O6 Y0 2.940016 1_555
O7 Y0 2.372674 1_555
O7 Sr0 2.969978 1_655
O8 Sr1 2.554612 1_555
O8 Y1 2.940016 1_555
O9 Y1 2.372674 1_555
O9 Sr1 2.969978 1_455
O10 Y1 2.372674 1_555
O10 Sr0 2.969978 1_545
O11 Sr1 2.554612 1_555
O11 Y0 2.940016 1_555
O12 Y0 2.372674 1_555
O12 Sr1 2.969978 1_565
O13 Sr0 2.554612 1_555
O13 Y1 2.940016 1_555
