# generated using pymatgen
data_LiTa4O12
_symmetry_space_group_name_H-M   'P 1'
_cell_length_a   6.85587402
_cell_length_b   6.85589080
_cell_length_c   6.85589696
_cell_angle_alpha   109.46904996
_cell_angle_beta   109.46579063
_cell_angle_gamma   109.47897997
_symmetry_Int_Tables_number   1
_chemical_formula_structural   LiTa4O12
_chemical_formula_sum   'Li1 Ta4 O12'
_cell_volume   248.06657830
_cell_formula_units_Z   1
loop_
 _symmetry_equiv_pos_site_id
 _symmetry_equiv_pos_as_xyz
  1  'x, y, z'
loop_
 _atom_site_type_symbol
 _atom_site_label
 _atom_site_symmetry_multiplicity
 _atom_site_fract_x
 _atom_site_fract_y
 _atom_site_fract_z
 _atom_site_occupancy
  Li  Li0  1  0.00000700  0.00000700  0.00000200  1
  Ta  Ta0  1  0.99999600  0.49998400  0.99997200  1
  Ta  Ta1  1  0.00002000  0.00003800  0.50002100  1
  Ta  Ta2  1  0.49999000  0.49997600  0.50000100  1
  Ta  Ta3  1  0.49999400  0.00000100  0.00000500  1
  O  O0  1  0.24044600  0.98949600  0.74904800  1
  O  O1  1  0.01050500  0.25094400  0.75955500  1
  O  O2  1  0.24044900  0.49140200  0.25095300  1
  O  O3  1  0.25095300  0.75955800  0.01051200  1
  O  O4  1  0.50859900  0.74904800  0.75954500  1
  O  O5  1  0.25095000  0.24044300  0.49138900  1
  O  O6  1  0.74904100  0.75954300  0.50859000  1
  O  O7  1  0.49139800  0.25095700  0.24044600  1
  O  O8  1  0.74905300  0.24045300  0.98950500  1
  O  O9  1  0.75955200  0.50860100  0.74904600  1
  O  O10  1  0.98949800  0.74904400  0.24045700  1
  O  O11  1  0.75955000  0.01050500  0.25095200  1
loop_
_geom_bond_atom_site_label_1
_geom_bond_atom_site_label_2
_geom_bond_distance
_geom_bond_site_symmetry_2
O0 Ta1 1.980701 1_565
O0 Ta3 1.980713 1_566
O1 Ta1 1.980460 1_555
O1 Ta0 1.980507 1_455
O2 Ta2 1.980768 1_555
O2 Ta0 1.980780 1_454
O3 Ta3 1.980357 1_565
O3 Ta0 1.980364 1_454
O4 Ta2 1.980661 1_555
O4 Ta3 1.980708 1_566
O5 Ta2 1.980237 1_555
O5 Ta1 1.980269 1_555
O6 Ta2 1.980507 1_555
O6 Ta1 1.980554 1_665
O7 Ta2 1.980571 1_555
O7 Ta3 1.980611 1_555
O8 Ta0 1.980412 1_555
O8 Ta3 1.980436 1_556
O9 Ta2 1.980648 1_555
O9 Ta0 1.980662 1_555
O10 Ta1 1.980779 1_665
O10 Ta0 1.980803 1_554
O11 Ta3 1.980711 1_555
O11 Ta1 1.980732 1_655
