# generated using pymatgen
data_Co3(W5C2)2
_symmetry_space_group_name_H-M   'P 1'
_cell_length_a   7.96177936
_cell_length_b   7.96177936
_cell_length_c   8.07569700
_cell_angle_alpha   90.00000000
_cell_angle_beta   90.00000000
_cell_angle_gamma   119.99999468
_symmetry_Int_Tables_number   1
_chemical_formula_structural   Co3(W5C2)2
_chemical_formula_sum   'Co6 W20 C8'
_cell_volume   443.33390571
_cell_formula_units_Z   2
loop_
 _symmetry_equiv_pos_site_id
 _symmetry_equiv_pos_as_xyz
  1  'x, y, z'
loop_
 _atom_site_type_symbol
 _atom_site_label
 _atom_site_symmetry_multiplicity
 _atom_site_fract_x
 _atom_site_fract_y
 _atom_site_fract_z
 _atom_site_occupancy
  Co  Co0  1  0.46846800  0.53153200  0.25000000  1
  Co  Co1  1  0.46846800  0.93693700  0.25000000  1
  Co  Co2  1  0.06306300  0.53153200  0.25000000  1
  Co  Co3  1  0.53153200  0.46846800  0.75000000  1
  Co  Co4  1  0.53153200  0.06306300  0.75000000  1
  Co  Co5  1  0.93693700  0.46846800  0.75000000  1
  W  W0  1  0.11789300  0.88210700  0.25000000  1
  W  W1  1  0.11789300  0.23578500  0.25000000  1
  W  W2  1  0.76421500  0.88210700  0.25000000  1
  W  W3  1  0.88210700  0.11789300  0.75000000  1
  W  W4  1  0.88210700  0.76421500  0.75000000  1
  W  W5  1  0.23578500  0.11789300  0.75000000  1
  W  W6  1  0.21073700  0.78926300  0.93887900  1
  W  W7  1  0.21073700  0.42147500  0.93887900  1
  W  W8  1  0.57852500  0.78926300  0.93887900  1
  W  W9  1  0.78926300  0.21073700  0.06112100  1
  W  W10  1  0.78926300  0.57852500  0.06112100  1
  W  W11  1  0.42147500  0.21073700  0.06112100  1
  W  W12  1  0.78926300  0.21073700  0.43887900  1
  W  W13  1  0.78926300  0.57852500  0.43887900  1
  W  W14  1  0.42147500  0.21073700  0.43887900  1
  W  W15  1  0.21073700  0.78926300  0.56112100  1
  W  W16  1  0.21073700  0.42147500  0.56112100  1
  W  W17  1  0.57852500  0.78926300  0.56112100  1
  W  W18  1  0.00000000  0.00000000  0.50000000  1
  W  W19  1  0.00000000  0.00000000  0.00000000  1
  C  C0  1  0.50000000  0.50000000  0.50000000  1
  C  C1  1  0.50000000  0.00000000  0.50000000  1
  C  C2  1  0.00000000  0.50000000  0.50000000  1
  C  C3  1  0.50000000  0.50000000  0.00000000  1
  C  C4  1  0.50000000  0.00000000  0.00000000  1
  C  C5  1  0.00000000  0.50000000  0.00000000  1
  C  C6  1  0.33333300  0.66666700  0.25000000  1
  C  C7  1  0.66666700  0.33333300  0.75000000  1
loop_
_geom_bond_atom_site_label_1
_geom_bond_atom_site_label_2
_geom_bond_distance
_geom_bond_site_symmetry_2
Co0 W1 2.600562 1_555
Co0 W2 2.600562 1_555
Co1 W0 2.600556 1_555
Co1 W2 2.600571 1_555
Co2 W0 2.600556 1_555
Co2 W1 2.600571 1_555
Co3 W4 2.600562 1_555
Co3 W5 2.600562 1_555
Co4 W3 2.600556 1_555
Co4 W5 2.600571 1_555
Co5 W3 2.600556 1_555
Co5 W4 2.600571 1_555
W0 W19 2.592138 1_565
W0 W18 2.592138 1_565
W1 W18 2.592134 1_555
W1 W19 2.592134 1_555
W10 W19 2.947734 1_665
W11 W19 2.947734 1_555
W12 W18 2.947726 1_655
W13 W18 2.947734 1_665
W14 W18 2.947734 1_555
W15 W18 2.947726 1_565
W16 W18 2.947734 1_555
W17 W18 2.947734 1_665
W18 W4 2.592134 1_445
W18 W5 2.592134 1_555
W18 W2 2.592134 1_445
W18 W3 2.592138 1_455
W19 W4 2.592134 1_444
W19 W5 2.592134 1_554
W19 W2 2.592134 1_445
W19 W3 2.592138 1_454
W19 W9 2.947726 1_455
W19 W6 2.947726 1_544
W19 W7 2.947734 1_554
W19 W8 2.947734 1_444
C0 Co0 2.065220 1_555
C0 Co3 2.065220 1_555
C0 W17 2.121009 1_555
C0 W13 2.121009 1_555
C0 W16 2.121009 1_555
C0 W14 2.121009 1_555
C1 Co4 2.065219 1_555
C1 Co1 2.065219 1_545
C1 W14 2.121001 1_555
C1 W17 2.121001 1_545
C1 W12 2.121007 1_555
C1 W15 2.121007 1_545
C2 Co2 2.065219 1_555
C2 Co5 2.065219 1_455
C2 W16 2.121001 1_555
C2 W13 2.121001 1_455
C2 W15 2.121007 1_555
C2 W12 2.121007 1_455
C3 Co0 2.065220 1_555
C3 Co3 2.065220 1_554
C3 W10 2.121009 1_555
C3 W8 2.121009 1_554
C3 W11 2.121009 1_555
C3 W7 2.121009 1_554
C4 Co4 2.065219 1_554
C4 Co1 2.065219 1_545
C4 W11 2.121001 1_555
C4 W8 2.121001 1_544
C4 W9 2.121007 1_555
C4 W6 2.121007 1_544
C5 Co2 2.065219 1_555
C5 Co5 2.065219 1_454
C5 W7 2.121001 1_554
C5 W10 2.121001 1_455
C5 W6 2.121007 1_554
C5 W9 2.121007 1_455
C6 Co0 1.863539 1_555
C6 Co1 1.863540 1_555
C6 Co2 1.863540 1_555
C7 Co3 1.863539 1_555
C7 Co5 1.863540 1_555
C7 Co4 1.863540 1_555
