# generated using pymatgen
data_Ho3Np
_symmetry_space_group_name_H-M   'P 1'
_cell_length_a   7.01601369
_cell_length_b   7.01601369
_cell_length_c   5.62613700
_cell_angle_alpha   90.00000000
_cell_angle_beta   90.00000000
_cell_angle_gamma   119.99999708
_symmetry_Int_Tables_number   1
_chemical_formula_structural   Ho3Np
_chemical_formula_sum   'Ho6 Np2'
_cell_volume   239.84010376
_cell_formula_units_Z   2
loop_
 _symmetry_equiv_pos_site_id
 _symmetry_equiv_pos_as_xyz
  1  'x, y, z'
loop_
 _atom_site_type_symbol
 _atom_site_label
 _atom_site_symmetry_multiplicity
 _atom_site_fract_x
 _atom_site_fract_y
 _atom_site_fract_z
 _atom_site_occupancy
  Ho  Ho0  1  0.83125200  0.16874800  0.75000000  1
  Ho  Ho1  1  0.33749700  0.16874800  0.75000000  1
  Ho  Ho2  1  0.66250300  0.83125200  0.25000000  1
  Ho  Ho3  1  0.83125200  0.66250300  0.75000000  1
  Ho  Ho4  1  0.16874800  0.83125200  0.25000000  1
  Ho  Ho5  1  0.16874800  0.33749700  0.25000000  1
  Np  Np0  1  0.33333300  0.66666700  0.75000000  1
  Np  Np1  1  0.66666700  0.33333300  0.25000000  1
loop_
_geom_bond_atom_site_label_1
_geom_bond_atom_site_label_2
_geom_bond_distance
_geom_bond_site_symmetry_2
Ho0 Np1 3.451603 1_556
Ho0 Np1 3.451603 1_555
Ho0 Ho3 3.464192 1_555
Ho0 Ho1 3.464192 1_555
Ho0 Ho5 3.481161 1_655
Ho0 Ho5 3.481161 1_656
Ho0 Ho2 3.481161 1_545
Ho0 Ho2 3.481161 1_546
Ho0 Np0 3.508098 1_545
Ho0 Np0 3.508098 1_655
Ho0 Ho1 3.551822 1_655
Ho0 Ho3 3.551822 1_545
Ho1 Np1 3.451603 1_556
Ho1 Np1 3.451603 1_555
Ho1 Ho3 3.464192 1_555
Ho1 Ho4 3.481161 1_545
Ho1 Ho4 3.481161 1_546
Ho1 Ho5 3.481168 1_556
Ho1 Ho5 3.481168 1_555
Ho1 Np0 3.508091 1_545
Ho1 Np0 3.508105 1_555
Ho1 Ho3 3.551822 1_445
Ho2 Np0 3.451603 1_555
Ho2 Np0 3.451603 1_554
Ho2 Ho4 3.464192 1_555
Ho2 Ho5 3.464192 1_555
Ho2 Ho3 3.481168 1_555
Ho2 Ho3 3.481168 1_554
Ho2 Np1 3.508091 1_565
Ho2 Np1 3.508105 1_555
Ho2 Ho4 3.551822 1_655
Ho2 Ho5 3.551822 1_665
Ho3 Np1 3.451603 1_555
Ho3 Np1 3.451603 1_556
Ho3 Ho4 3.481161 1_656
Ho3 Ho4 3.481161 1_655
Ho3 Np0 3.508091 1_655
Ho3 Np0 3.508105 1_555
Ho4 Np0 3.451603 1_555
Ho4 Np0 3.451603 1_554
Ho4 Ho5 3.464192 1_555
Ho4 Np1 3.508098 1_455
Ho4 Np1 3.508098 1_565
Ho4 Ho5 3.551822 1_565
Ho5 Np0 3.451603 1_554
Ho5 Np0 3.451603 1_555
Ho5 Np1 3.508091 1_455
Ho5 Np1 3.508105 1_555
