# generated using pymatgen
data_CaBiNO5
_symmetry_space_group_name_H-M   'P 1'
_cell_length_a   7.89261555
_cell_length_b   7.89261555
_cell_length_c   7.89261555
_cell_angle_alpha   152.36094609
_cell_angle_beta   146.83772910
_cell_angle_gamma   43.69625662
_symmetry_Int_Tables_number   1
_chemical_formula_structural   CaBiNO5
_chemical_formula_sum   'Ca1 Bi1 N1 O5'
_cell_volume   124.42742044
_cell_formula_units_Z   1
loop_
 _symmetry_equiv_pos_site_id
 _symmetry_equiv_pos_as_xyz
  1  'x, y, z'
loop_
 _atom_site_type_symbol
 _atom_site_label
 _atom_site_symmetry_multiplicity
 _atom_site_fract_x
 _atom_site_fract_y
 _atom_site_fract_z
 _atom_site_occupancy
  Ca  Ca0  1  0.82262700  0.82262700  0.00000000  1
  Bi  Bi0  1  0.18345600  0.18345600  0.00000000  1
  N  N0  1  0.50620600  0.50620600  0.00000000  1
  O  O0  1  0.26515700  0.76515700  0.50000000  1
  O  O1  1  0.73866900  0.23866900  0.50000000  1
  O  O2  1  0.79056000  0.54817600  0.24238400  1
  O  O3  1  0.30579300  0.54817600  0.75761600  1
  O  O4  1  0.41853400  0.41853400  0.00000000  1
loop_
_geom_bond_atom_site_label_1
_geom_bond_atom_site_label_2
_geom_bond_distance
_geom_bond_site_symmetry_2
Ca0 O1 2.251085 1_554
Ca0 O1 2.251085 1_565
Ca0 O0 2.404583 1_554
Ca0 O0 2.404583 1_655
Bi0 O0 2.233186 1_555
Bi0 O0 2.233186 1_544
Bi0 O1 2.393204 1_454
Bi0 O1 2.393204 1_555
N0 O2 1.253112 1_555
N0 O3 1.253113 1_554
N0 O4 1.284521 1_555
