# generated using pymatgen
data_LaZrTa3O11
_symmetry_space_group_name_H-M   'P 1'
_cell_length_a   6.34843937
_cell_length_b   6.34843937
_cell_length_c   12.58478536
_cell_angle_alpha   89.89927990
_cell_angle_beta   89.89927990
_cell_angle_gamma   119.81924614
_symmetry_Int_Tables_number   1
_chemical_formula_structural   LaZrTa3O11
_chemical_formula_sum   'La2 Zr2 Ta6 O22'
_cell_volume   440.04376523
_cell_formula_units_Z   2
loop_
 _symmetry_equiv_pos_site_id
 _symmetry_equiv_pos_as_xyz
  1  'x, y, z'
loop_
 _atom_site_type_symbol
 _atom_site_label
 _atom_site_symmetry_multiplicity
 _atom_site_fract_x
 _atom_site_fract_y
 _atom_site_fract_z
 _atom_site_occupancy
  La  La0  1  0.33138500  0.66861500  0.50000000  1
  La  La1  1  0.66697100  0.33302900  0.00000000  1
  Zr  Zr0  1  0.00014400  0.63952500  0.74920400  1
  Zr  Zr1  1  0.36047500  0.99985600  0.25079600  1
  Ta  Ta0  1  0.64294600  0.99748100  0.74942000  1
  Ta  Ta1  1  0.35848600  0.35589400  0.75126700  1
  Ta  Ta2  1  0.00251900  0.35705400  0.25058000  1
  Ta  Ta3  1  0.64410600  0.64151400  0.24873300  1
  Ta  Ta4  1  0.33016400  0.66983600  0.00000000  1
  Ta  Ta5  1  0.66565700  0.33434300  0.50000000  1
  O  O0  1  0.00140300  0.24447800  0.75040500  1
  O  O1  1  0.25495800  0.01228200  0.74914200  1
  O  O2  1  0.74742800  0.75833400  0.75025500  1
  O  O3  1  0.98771800  0.74504200  0.25085800  1
  O  O4  1  0.75552200  0.99859700  0.24959500  1
  O  O5  1  0.24166600  0.25257200  0.24974500  1
  O  O6  1  0.62083900  0.56292000  0.40539100  1
  O  O7  1  0.93812000  0.37070700  0.40443800  1
  O  O8  1  0.43224600  0.05373200  0.41499000  1
  O  O9  1  0.37815100  0.94554100  0.08565700  1
  O  O10  1  0.06004100  0.43327700  0.09556200  1
  O  O11  1  0.56482000  0.62279400  0.09435100  1
  O  O12  1  0.37720600  0.43518000  0.90564900  1
  O  O13  1  0.05445900  0.62184900  0.91434300  1
  O  O14  1  0.56672300  0.93995900  0.90443800  1
  O  O15  1  0.62929300  0.06188000  0.59556200  1
  O  O16  1  0.94626800  0.56775400  0.58501000  1
  O  O17  1  0.43708000  0.37916100  0.59460900  1
  O  O18  1  0.34014200  0.66881700  0.70875000  1
  O  O19  1  0.66152100  0.32922700  0.79119000  1
  O  O20  1  0.67077300  0.33847900  0.20881000  1
  O  O21  1  0.33118300  0.65985800  0.29125000  1
loop_
_geom_bond_atom_site_label_1
_geom_bond_atom_site_label_2
_geom_bond_distance
_geom_bond_site_symmetry_2
La0 O8 2.442029 1_565
La0 O16 2.442029 1_455
La0 O6 2.542821 1_555
La0 O17 2.542821 1_555
La0 O15 2.564935 1_565
La0 O7 2.564935 1_455
La0 O21 2.627749 1_555
La0 O18 2.627749 1_555
La1 O9 2.464393 1_545
La1 O13 2.464393 1_654
La1 O11 2.530969 1_555
La1 O12 2.530969 1_554
La1 O14 2.551879 1_544
La1 O10 2.551879 1_655
La1 O19 2.628113 1_554
La1 O20 2.628113 1_555
O0 Ta1 2.011167 1_555
O0 Ta0 2.022088 1_445
O0 Zr0 2.511935 1_555
O1 Ta1 1.940513 1_555
O1 Zr0 2.099918 1_545
O1 Ta0 2.511175 1_545
O2 Ta0 1.935594 1_555
O2 Zr0 2.084813 1_655
O2 Ta1 2.519959 1_555
O3 Ta3 1.940513 1_555
O3 Zr1 2.099918 1_655
O3 Ta2 2.511175 1_655
O4 Ta3 2.011167 1_555
O4 Ta2 2.022088 1_665
O4 Zr1 2.511935 1_555
O5 Ta2 1.935594 1_555
O5 Zr1 2.084813 1_545
O5 Ta3 2.519959 1_555
O6 Ta5 2.002501 1_555
O6 Ta3 2.019859 1_555
O7 Ta2 1.989183 1_655
O7 Ta5 2.021411 1_555
O8 Ta5 1.975038 1_555
O8 Zr1 2.108360 1_545
O9 Ta4 1.948298 1_555
O9 Zr1 2.119139 1_555
O10 Ta2 1.997957 1_555
O10 Ta4 2.016815 1_555
O11 Ta3 1.996737 1_555
O11 Ta4 2.041007 1_555
O12 Ta1 1.996737 1_555
O12 Ta4 2.041007 1_556
O13 Ta4 1.948298 1_556
O13 Zr0 2.119139 1_555
O14 Ta0 1.997957 1_555
O14 Ta4 2.016815 1_556
O15 Ta0 1.989183 1_545
O15 Ta5 2.021411 1_555
O16 Ta5 1.975038 1_555
O16 Zr0 2.108360 1_655
O17 Ta5 2.002501 1_555
O17 Ta1 2.019859 1_555
O18 Ta0 2.080630 1_555
O18 Ta1 2.114922 1_555
O18 Zr0 2.132913 1_555
O19 Ta1 2.075837 1_555
O19 Ta0 2.117280 1_545
O19 Zr0 2.135837 1_655
O20 Ta3 2.075837 1_555
O20 Ta2 2.117280 1_655
O20 Zr1 2.135837 1_545
O21 Ta2 2.080630 1_555
O21 Ta3 2.114922 1_555
O21 Zr1 2.132913 1_555
