# generated using pymatgen
data_ZrZnN2
_symmetry_space_group_name_H-M   'P 1'
_cell_length_a   3.28125544
_cell_length_b   3.28125511
_cell_length_c   5.28227338
_cell_angle_alpha   90.00000000
_cell_angle_beta   90.00000000
_cell_angle_gamma   120.00001728
_symmetry_Int_Tables_number   1
_chemical_formula_structural   ZrZnN2
_chemical_formula_sum   'Zr1 Zn1 N2'
_cell_volume   49.25286162
_cell_formula_units_Z   1
loop_
 _symmetry_equiv_pos_site_id
 _symmetry_equiv_pos_as_xyz
  1  'x, y, z'
loop_
 _atom_site_type_symbol
 _atom_site_label
 _atom_site_symmetry_multiplicity
 _atom_site_fract_x
 _atom_site_fract_y
 _atom_site_fract_z
 _atom_site_occupancy
  Zr  Zr0  1  -0.00000000  0.00000000  0.00213068  1
  Zn  Zn0  1  0.66666700  0.33333300  0.45002818  1
  N  N0  1  0.33333300  0.66666700  0.26048738  1
  N  N1  1  0.66666700  0.33333300  0.81732377  1
loop_
_geom_bond_atom_site_label_1
_geom_bond_atom_site_label_2
_geom_bond_distance
_geom_bond_site_symmetry_2
N0 Zn0 2.142728 1_565
N0 Zn0 2.142728 1_455
N0 Zn0 2.142734 1_555
N0 Zr0 2.334804 1_565
N0 Zr0 2.334805 1_555
N0 Zr0 2.334806 1_665
N1 Zn0 1.940156 1_555
N1 Zr0 2.131159 1_656
N1 Zr0 2.131161 1_666
N1 Zr0 2.131161 1_556
