# generated using pymatgen
data_YTi3Se2ClO8
_symmetry_space_group_name_H-M   'P 1'
_cell_length_a   6.91564300
_cell_length_b   7.18591014
_cell_length_c   10.48892109
_cell_angle_alpha   85.23767120
_cell_angle_beta   84.30041182
_cell_angle_gamma   81.65217183
_symmetry_Int_Tables_number   1
_chemical_formula_structural   YTi3Se2ClO8
_chemical_formula_sum   'Y2 Ti6 Se4 Cl2 O16'
_cell_volume   511.92920010
_cell_formula_units_Z   2
loop_
 _symmetry_equiv_pos_site_id
 _symmetry_equiv_pos_as_xyz
  1  'x, y, z'
loop_
 _atom_site_type_symbol
 _atom_site_label
 _atom_site_symmetry_multiplicity
 _atom_site_fract_x
 _atom_site_fract_y
 _atom_site_fract_z
 _atom_site_occupancy
  Y  Y0  1  0.24263900  0.73755200  0.23521200  1
  Y  Y1  1  0.73228100  0.24002800  0.73834100  1
  Ti  Ti0  1  0.94793200  0.50411100  0.05452800  1
  Ti  Ti1  1  0.99026900  0.51005000  0.50332600  1
  Ti  Ti2  1  0.96244900  0.07349000  0.00946100  1
  Ti  Ti3  1  0.29517000  0.34870300  0.82364600  1
  Ti  Ti4  1  0.69541800  0.77482200  0.28570100  1
  Ti  Ti5  1  0.92307200  0.01769200  0.46181700  1
  Se  Se0  1  0.63205200  0.27744900  0.12140000  1
  Se  Se1  1  0.59054200  0.82321200  0.94850300  1
  Se  Se2  1  0.61623200  0.12873700  0.33565000  1
  Se  Se3  1  0.61982600  0.79026300  0.66113700  1
  Cl  Cl0  1  0.20423000  0.59004000  0.65745800  1
  Cl  Cl1  1  0.09024800  0.23415500  0.17876300  1
  O  O0  1  0.92383500  0.67254700  0.17842700  1
  O  O1  1  0.54676200  0.82555600  0.11980800  1
  O  O2  1  0.42499100  0.17928800  0.71942800  1
  O  O3  1  0.17000000  0.52592400  0.96975400  1
  O  O4  1  0.75360900  0.55924900  0.64896200  1
  O  O5  1  0.81359400  0.94351700  0.63816700  1
  O  O6  1  0.02627900  0.24193300  0.87804400  1
  O  O7  1  0.15600000  0.90163500  0.04088700  1
  O  O8  1  0.15104100  0.94146200  0.38595900  1
  O  O9  1  0.75893500  0.99034900  0.91293800  1
  O  O10  1  0.85286600  0.74999400  0.42783500  1
  O  O11  1  0.92704900  0.25990700  0.53280300  1
  O  O12  1  0.76284300  0.62541400  0.93877700  1
  O  O13  1  0.16008600  0.49746400  0.37232500  1
  O  O14  1  0.51850200  0.38801600  0.87804200  1
  O  O15  1  0.51124900  0.64744000  0.34290100  1
loop_
_geom_bond_atom_site_label_1
_geom_bond_atom_site_label_2
_geom_bond_distance
_geom_bond_site_symmetry_2
Se0 Se2 2.406333 1_555
Se0 Ti2 2.743706 1_555
Se0 Ti0 2.907934 1_555
Se2 Ti5 2.604158 1_555
Se2 Ti4 2.608085 1_545
Cl0 Ti3 2.416750 1_555
Cl0 Ti1 2.451509 1_455
Cl1 Ti0 2.389659 1_455
Cl1 Ti2 2.493180 1_455
O0 Ti0 1.827903 1_555
O0 Ti4 1.936144 1_555
O0 Y0 2.457616 1_655
O1 Se1 1.793307 1_554
O1 Ti4 2.087747 1_555
O1 Y0 2.458055 1_555
O2 Ti3 1.786539 1_555
O2 Y1 2.261279 1_555
O3 Ti0 1.717338 1_456
O3 Ti3 2.111915 1_555
O4 Se3 1.787126 1_555
O4 Ti1 2.135923 1_555
O4 Y1 2.424105 1_555
O5 Se3 1.840337 1_555
O5 Ti5 1.988491 1_565
O5 Y1 2.422104 1_565
O6 Ti2 1.821334 1_456
O6 Ti3 2.122025 1_555
O6 Y1 2.623816 1_455
O6 Ti0 2.711663 1_456
O7 Ti2 1.722048 1_465
O7 Y0 2.354173 1_555
O8 Ti5 1.729486 1_465
O8 Y0 2.228153 1_555
O9 Se1 1.784164 1_555
O9 Ti2 1.997602 1_566
O9 Y1 2.456064 1_565
O10 Ti4 1.913601 1_555
O10 Ti1 1.987424 1_555
O10 Ti5 2.117223 1_565
O11 Ti1 1.904424 1_555
O11 Ti5 1.953907 1_555
O11 Y1 2.431133 1_555
O12 Se1 1.720078 1_555
O12 Ti0 1.918661 1_556
O13 Ti1 1.716011 1_455
O13 Y0 2.254257 1_555
O14 Ti3 1.766142 1_555
O14 Y1 2.199019 1_555
O15 Ti4 1.707502 1_555
O15 Y0 2.256531 1_555
