# generated using pymatgen
data_Eu(GePt)2
_symmetry_space_group_name_H-M   'P 1'
_cell_length_a   4.40131791
_cell_length_b   4.40753872
_cell_length_c   9.92779580
_cell_angle_alpha   90.33175851
_cell_angle_beta   90.00000000
_cell_angle_gamma   90.00000000
_symmetry_Int_Tables_number   1
_chemical_formula_structural   Eu(GePt)2
_chemical_formula_sum   'Eu2 Ge4 Pt4'
_cell_volume   192.58587487
_cell_formula_units_Z   2
loop_
 _symmetry_equiv_pos_site_id
 _symmetry_equiv_pos_as_xyz
  1  'x, y, z'
loop_
 _atom_site_type_symbol
 _atom_site_label
 _atom_site_symmetry_multiplicity
 _atom_site_fract_x
 _atom_site_fract_y
 _atom_site_fract_z
 _atom_site_occupancy
  Eu  Eu0  1  0.75000000  0.74853048  0.25458465  1
  Eu  Eu1  1  0.25000000  0.25141617  0.74541091  1
  Ge  Ge0  1  0.75000000  0.76393937  0.87329164  1
  Ge  Ge1  1  0.25000000  0.23620698  0.12656175  1
  Ge  Ge2  1  0.75000000  0.25088798  0.50020181  1
  Ge  Ge3  1  0.25000000  0.74903239  0.50001423  1
  Pt  Pt0  1  0.75000000  0.75255609  0.62329410  1
  Pt  Pt1  1  0.25000000  0.24735268  0.37671533  1
  Pt  Pt2  1  0.75000000  0.26821975  0.00055446  1
  Pt  Pt3  1  0.25000000  0.73185812  -0.00062788  1
loop_
_geom_bond_atom_site_label_1
_geom_bond_atom_site_label_2
_geom_bond_distance
_geom_bond_site_symmetry_2
Eu0 Ge3 3.283251 1_555
Eu0 Ge3 3.283251 1_655
Eu0 Pt2 3.283305 1_555
Eu0 Ge2 3.284198 1_565
Eu0 Ge2 3.289198 1_555
Eu0 Ge1 3.333180 1_565
Eu0 Ge1 3.333180 1_665
Eu0 Pt1 3.334052 1_565
Eu0 Pt1 3.334052 1_665
Eu0 Pt1 3.350157 1_655
Eu0 Pt1 3.350157 1_555
Eu0 Pt3 3.356452 1_555
Eu0 Pt3 3.356452 1_655
Eu0 Ge1 3.394704 1_555
Eu0 Ge1 3.394704 1_655
Eu0 Pt2 3.416694 1_565
Eu1 Ge2 3.281627 1_455
Eu1 Ge2 3.281627 1_555
Eu1 Ge3 3.282659 1_545
Eu1 Pt3 3.283152 1_556
Eu1 Ge3 3.287489 1_555
Eu1 Ge0 3.332067 1_445
Eu1 Ge0 3.332067 1_545
Eu1 Pt0 3.334112 1_445
Eu1 Pt0 3.334112 1_545
Eu1 Pt0 3.349996 1_555
Eu1 Pt0 3.349996 1_455
Eu1 Pt2 3.355945 1_556
Eu1 Pt2 3.355945 1_456
Eu1 Ge0 3.394765 1_455
Eu1 Ge0 3.394765 1_555
Eu1 Pt3 3.415796 1_546
Ge0 Pt0 2.482141 1_555
Ge0 Pt2 2.530227 1_556
Ge0 Pt3 2.536080 1_656
Ge0 Pt3 2.536080 1_556
Ge0 Pt2 2.550268 1_566
Ge1 Pt1 2.483675 1_555
Ge1 Pt3 2.529599 1_555
Ge1 Pt2 2.535703 1_455
Ge1 Pt2 2.535703 1_555
Ge1 Pt3 2.550174 1_545
Ge2 Pt1 2.519101 1_555
Ge2 Pt1 2.519101 1_655
Ge2 Pt0 2.519663 1_545
Ge2 Pt0 2.520146 1_555
Ge3 Pt0 2.518104 1_555
Ge3 Pt0 2.518104 1_455
Ge3 Pt1 2.520624 1_565
Ge3 Pt1 2.521176 1_555
