# generated using pymatgen
data_MgAg14(PbO3)6
_symmetry_space_group_name_H-M   'P 1'
_cell_length_a   9.08901966
_cell_length_b   8.95184834
_cell_length_c   8.79319796
_cell_angle_alpha   72.02934903
_cell_angle_beta   106.18165753
_cell_angle_gamma   106.74511900
_symmetry_Int_Tables_number   1
_chemical_formula_structural   MgAg14(PbO3)6
_chemical_formula_sum   'Mg1 Ag14 Pb6 O18'
_cell_volume   637.38138917
_cell_formula_units_Z   1
loop_
 _symmetry_equiv_pos_site_id
 _symmetry_equiv_pos_as_xyz
  1  'x, y, z'
loop_
 _atom_site_type_symbol
 _atom_site_label
 _atom_site_symmetry_multiplicity
 _atom_site_fract_x
 _atom_site_fract_y
 _atom_site_fract_z
 _atom_site_occupancy
  Mg  Mg0  1  0.37703822  0.36886412  0.36926232  1
  Ag  Ag0  1  0.82890441  0.14508385  0.69280311  1
  Ag  Ag1  1  0.16889401  0.32510345  0.85828691  1
  Ag  Ag2  1  0.64379270  0.81950193  0.82438997  1
  Ag  Ag3  1  0.50427720  0.01160416  0.48662928  1
  Ag  Ag4  1  0.05353154  0.91921383  0.90314772  1
  Ag  Ag5  1  0.23971835  0.76069792  0.73655672  1
  Ag  Ag6  1  0.41178890  0.60118720  0.61494387  1
  Ag  Ag7  1  0.69882280  0.38324430  0.41969430  1
  Ag  Ag8  1  0.74326415  0.22429065  0.21843104  1
  Ag  Ag9  1  0.95495381  0.09461170  0.09989119  1
  Ag  Ag10  1  0.04762984  0.52211665  0.52083821  1
  Ag  Ag11  1  0.82611526  0.67275579  0.16184908  1
  Ag  Ag12  1  0.15545320  0.84712184  0.31301697  1
  Ag  Ag13  1  0.50075726  0.48841676  0.01489279  1
  Pb  Pb0  1  0.49304102  0.16450241  0.83374412  1
  Pb  Pb1  1  0.82348754  0.49118710  0.83210515  1
  Pb  Pb2  1  0.12717108  0.14999909  0.51505065  1
  Pb  Pb3  1  0.81601933  0.82440043  0.49119050  1
  Pb  Pb4  1  0.14399578  0.51876853  0.14901995  1
  Pb  Pb5  1  0.49111002  0.83390116  0.16169974  1
  O  O0  1  0.76661114  0.21832190  0.87084824  1
  O  O1  1  0.55855169  0.43265490  0.82184262  1
  O  O2  1  0.86285420  0.09114395  0.48413365  1
  O  O3  1  0.23196447  0.14315396  0.79698140  1
  O  O4  1  0.83444763  0.76325142  0.76904469  1
  O  O5  1  0.46506989  0.88953244  0.88366437  1
  O  O6  1  0.09449565  0.52107036  0.88720097  1
  O  O7  1  0.47138828  0.21127181  0.55087003  1
  O  O8  1  0.83456873  0.56328088  0.56284465  1
  O  O9  1  0.51450747  0.09498373  0.10296920  1
  O  O10  1  0.22153204  0.46226943  0.43216009  1
  O  O11  1  0.88587687  0.48148207  0.11042095  1
  O  O12  1  0.55167014  0.81084744  0.43493045  1
  O  O13  1  0.17066697  0.26211241  0.23196784  1
  O  O14  1  0.76096510  0.85826000  0.21541757  1
  O  O15  1  0.43165877  0.55975926  0.18995408  1
  O  O16  1  0.08080921  0.88512182  0.50364266  1
  O  O17  1  0.22201836  0.78262934  0.13107995  1
loop_
_geom_bond_atom_site_label_1
_geom_bond_atom_site_label_2
_geom_bond_distance
_geom_bond_site_symmetry_2
Mg0 O7 1.954333 1_555
Mg0 O15 1.984310 1_555
Mg0 O13 2.075057 1_555
Mg0 O10 2.098759 1_555
Ag0 O0 2.131378 1_555
Ag0 O2 2.154824 1_555
Ag1 O3 2.127019 1_555
Ag1 O6 2.157300 1_555
Ag2 O5 2.136287 1_555
Ag2 O4 2.148786 1_555
Ag3 O7 2.151337 1_555
Ag3 O12 2.163626 1_545
Ag4 O3 2.309991 1_565
Ag4 O4 2.325944 1_455
Ag4 O17 2.390226 1_556
Ag5 O5 2.298097 1_555
Ag5 O16 2.322042 1_555
Ag5 O6 2.384955 1_555
Ag6 O1 2.340657 1_555
Ag6 O12 2.357545 1_555
Ag6 O10 2.359048 1_555
Ag7 O8 2.223633 1_555
Ag7 O7 2.524493 1_555
Ag8 O9 2.203505 1_555
Ag8 O11 2.345245 1_555
Ag8 O2 2.381910 1_555
Ag9 O13 2.356386 1_655
Ag9 O0 2.451039 1_554
Ag9 O14 2.477839 1_545
Ag10 O10 2.196823 1_555
Ag10 O8 2.217248 1_455
Ag11 O14 2.129528 1_555
Ag11 O11 2.140556 1_555
Ag12 O16 2.122345 1_555
Ag12 O17 2.137617 1_555
Ag13 O15 2.132720 1_555
Ag13 O1 2.139551 1_554
O0 Pb1 2.281858 1_555
O0 Pb0 2.340022 1_555
O1 Pb0 2.276798 1_555
O1 Pb1 2.293950 1_555
O2 Pb2 2.262287 1_655
O2 Pb3 2.285705 1_545
O3 Pb0 2.262981 1_555
O3 Pb2 2.383395 1_555
O4 Pb3 2.301420 1_555
O4 Pb1 2.303609 1_555
O5 Pb5 2.296799 1_556
O5 Pb0 2.313250 1_565
O6 Pb4 2.214010 1_556
O6 Pb1 2.325675 1_455
O7 Pb0 2.352244 1_555
O8 Pb3 2.269011 1_555
O8 Pb1 2.277069 1_555
O9 Pb5 2.191877 1_545
O9 Pb0 2.221066 1_554
O10 Pb4 2.324117 1_555
O10 Pb2 2.605904 1_555
O11 Pb4 2.214817 1_655
O11 Pb1 2.332813 1_554
O12 Pb5 2.267229 1_555
O12 Pb3 2.288857 1_555
O13 Pb4 2.248957 1_555
O13 Pb2 2.477496 1_555
O14 Pb3 2.275976 1_555
O14 Pb5 2.322956 1_555
O15 Pb5 2.304492 1_555
O15 Pb4 2.470695 1_555
O16 Pb3 2.288142 1_455
O16 Pb2 2.314606 1_565
O17 Pb4 2.230300 1_555
O17 Pb5 2.308107 1_555
