# generated using pymatgen
data_Mg30CrCO32
_symmetry_space_group_name_H-M   'P 1'
_cell_length_a   8.49537300
_cell_length_b   8.49537300
_cell_length_c   8.57246600
_cell_angle_alpha   90.00000000
_cell_angle_beta   90.00000000
_cell_angle_gamma   90.00000000
_symmetry_Int_Tables_number   1
_chemical_formula_structural   Mg30CrCO32
_chemical_formula_sum   'Mg30 Cr1 C1 O32'
_cell_volume   618.68655043
_cell_formula_units_Z   1
loop_
 _symmetry_equiv_pos_site_id
 _symmetry_equiv_pos_as_xyz
  1  'x, y, z'
loop_
 _atom_site_type_symbol
 _atom_site_label
 _atom_site_symmetry_multiplicity
 _atom_site_fract_x
 _atom_site_fract_y
 _atom_site_fract_z
 _atom_site_occupancy
  Mg  Mg0  1  0.00000000  0.50000000  0.00000000  1
  Mg  Mg1  1  0.50000000  0.00000000  0.00000000  1
  Mg  Mg2  1  0.00000000  0.00000000  0.50000000  1
  Mg  Mg3  1  0.00000000  0.50000000  0.50000000  1
  Mg  Mg4  1  0.50000000  0.00000000  0.50000000  1
  Mg  Mg5  1  0.50000000  0.50000000  0.50000000  1
  Mg  Mg6  1  0.25288100  0.25288100  0.00000000  1
  Mg  Mg7  1  0.25288100  0.74711900  0.00000000  1
  Mg  Mg8  1  0.74711900  0.25288100  0.00000000  1
  Mg  Mg9  1  0.74711900  0.74711900  0.00000000  1
  Mg  Mg10  1  0.24986800  0.24986800  0.50000000  1
  Mg  Mg11  1  0.24986800  0.75013200  0.50000000  1
  Mg  Mg12  1  0.75013200  0.24986800  0.50000000  1
  Mg  Mg13  1  0.75013200  0.75013200  0.50000000  1
  Mg  Mg14  1  0.00000000  0.24962200  0.25152100  1
  Mg  Mg15  1  0.00000000  0.75037800  0.25152100  1
  Mg  Mg16  1  0.50000000  0.25173500  0.24831800  1
  Mg  Mg17  1  0.50000000  0.74826500  0.24831800  1
  Mg  Mg18  1  0.00000000  0.24962200  0.74847900  1
  Mg  Mg19  1  0.00000000  0.75037800  0.74847900  1
  Mg  Mg20  1  0.50000000  0.25173500  0.75168200  1
  Mg  Mg21  1  0.50000000  0.74826500  0.75168200  1
  Mg  Mg22  1  0.24962200  0.00000000  0.25152100  1
  Mg  Mg23  1  0.25173500  0.50000000  0.24831800  1
  Mg  Mg24  1  0.75037800  0.00000000  0.25152100  1
  Mg  Mg25  1  0.74826500  0.50000000  0.24831800  1
  Mg  Mg26  1  0.24962200  0.00000000  0.74847900  1
  Mg  Mg27  1  0.25173500  0.50000000  0.75168200  1
  Mg  Mg28  1  0.75037800  0.00000000  0.74847900  1
  Mg  Mg29  1  0.74826500  0.50000000  0.75168200  1
  Cr  Cr0  1  0.00000000  0.00000000  0.00000000  1
  C  C0  1  0.50000000  0.50000000  0.00000000  1
  O  O0  1  0.00000000  0.00000000  0.26470600  1
  O  O1  1  0.00000000  0.50000000  0.24913600  1
  O  O2  1  0.50000000  0.00000000  0.24913600  1
  O  O3  1  0.50000000  0.50000000  0.25138800  1
  O  O4  1  0.00000000  0.00000000  0.73529400  1
  O  O5  1  0.00000000  0.50000000  0.75086400  1
  O  O6  1  0.50000000  0.00000000  0.75086400  1
  O  O7  1  0.50000000  0.50000000  0.74861200  1
  O  O8  1  0.25038800  0.25038800  0.24866500  1
  O  O9  1  0.25038800  0.74961200  0.24866500  1
  O  O10  1  0.74961200  0.25038800  0.24866500  1
  O  O11  1  0.74961200  0.74961200  0.24866500  1
  O  O12  1  0.25038800  0.25038800  0.75133500  1
  O  O13  1  0.25038800  0.74961200  0.75133500  1
  O  O14  1  0.74961200  0.25038800  0.75133500  1
  O  O15  1  0.74961200  0.74961200  0.75133500  1
  O  O16  1  0.00000000  0.25149900  0.00000000  1
  O  O17  1  0.00000000  0.74850100  0.00000000  1
  O  O18  1  0.50000000  0.24837700  0.00000000  1
  O  O19  1  0.50000000  0.75162300  0.00000000  1
  O  O20  1  0.00000000  0.25217800  0.50000000  1
  O  O21  1  0.00000000  0.74782200  0.50000000  1
  O  O22  1  0.50000000  0.25088800  0.50000000  1
  O  O23  1  0.50000000  0.74911200  0.50000000  1
  O  O24  1  0.25149900  0.00000000  0.00000000  1
  O  O25  1  0.24837700  0.50000000  0.00000000  1
  O  O26  1  0.74850100  0.00000000  0.00000000  1
  O  O27  1  0.75162300  0.50000000  0.00000000  1
  O  O28  1  0.25217800  0.00000000  0.50000000  1
  O  O29  1  0.25088800  0.50000000  0.50000000  1
  O  O30  1  0.74782200  0.00000000  0.50000000  1
  O  O31  1  0.74911200  0.50000000  0.50000000  1
loop_
_geom_bond_atom_site_label_1
_geom_bond_atom_site_label_2
_geom_bond_distance
_geom_bond_site_symmetry_2
Mg0 O27 2.110055 1_455
Mg0 O25 2.110055 1_555
Mg0 O17 2.111109 1_555
Mg0 O16 2.111109 1_555
Mg0 O1 2.135710 1_555
Mg0 O5 2.135710 1_554
Mg1 O19 2.110055 1_545
Mg1 O18 2.110055 1_555
Mg1 O26 2.111109 1_555
Mg1 O24 2.111109 1_555
Mg1 O2 2.135710 1_555
Mg1 O6 2.135710 1_554
Mg2 O4 2.017050 1_555
Mg2 O0 2.017050 1_555
Mg2 O30 2.142346 1_455
Mg2 O21 2.142346 1_545
Mg2 O20 2.142346 1_555
Mg2 O28 2.142346 1_555
Mg3 O21 2.105340 1_555
Mg3 O20 2.105340 1_555
Mg3 O31 2.131387 1_455
Mg3 O29 2.131387 1_555
Mg3 O1 2.150523 1_555
Mg3 O5 2.150523 1_555
Mg4 O30 2.105340 1_555
Mg4 O28 2.105340 1_555
Mg4 O23 2.131387 1_545
Mg4 O22 2.131387 1_555
Mg4 O2 2.150523 1_555
Mg4 O6 2.150523 1_555
Mg5 O31 2.116299 1_555
Mg5 O22 2.116299 1_555
Mg5 O23 2.116299 1_555
Mg5 O29 2.116299 1_555
Mg5 O3 2.131218 1_555
Mg5 O7 2.131218 1_555
Mg6 O25 2.099717 1_555
Mg6 O18 2.099717 1_555
Mg6 O8 2.131883 1_555
Mg6 O12 2.131883 1_554
Mg6 O24 2.148351 1_555
Mg6 O16 2.148351 1_555
Mg7 O25 2.099717 1_555
Mg7 O19 2.099717 1_555
Mg7 O9 2.131883 1_555
Mg7 O13 2.131883 1_554
Mg7 O24 2.148351 1_565
Mg7 O17 2.148351 1_555
Mg8 O18 2.099717 1_555
Mg8 O27 2.099717 1_555
Mg8 O10 2.131883 1_555
Mg8 O14 2.131883 1_554
Mg8 O26 2.148351 1_555
Mg8 O16 2.148351 1_655
Mg9 O19 2.099717 1_555
Mg9 O27 2.099717 1_555
Mg9 O11 2.131883 1_555
Mg9 O15 2.131883 1_554
Mg9 O17 2.148351 1_655
Mg9 O26 2.148351 1_565
Mg10 O20 2.122813 1_555
Mg10 O28 2.122813 1_555
Mg10 O22 2.124982 1_555
Mg10 O29 2.124982 1_555
Mg10 O12 2.154570 1_555
Mg10 O8 2.154570 1_555
Mg11 O21 2.122813 1_555
Mg11 O28 2.122813 1_565
Mg11 O23 2.124982 1_555
Mg11 O29 2.124982 1_555
Mg11 O13 2.154570 1_555
Mg11 O9 2.154570 1_555
Mg12 O20 2.122813 1_655
Mg12 O30 2.122813 1_555
Mg12 O22 2.124982 1_555
Mg12 O31 2.124982 1_555
Mg12 O10 2.154570 1_555
Mg12 O14 2.154570 1_555
Mg13 O21 2.122813 1_655
Mg13 O30 2.122813 1_565
Mg13 O23 2.124982 1_555
Mg13 O31 2.124982 1_555
Mg13 O11 2.154570 1_555
Mg13 O15 2.154570 1_555
Mg14 O0 2.123642 1_555
Mg14 O1 2.127153 1_555
Mg14 O8 2.127290 1_555
Mg14 O10 2.127290 1_455
Mg14 O20 2.130188 1_555
Mg14 O16 2.156214 1_555
Mg15 O0 2.123642 1_565
Mg15 O1 2.127153 1_555
Mg15 O9 2.127290 1_555
Mg15 O11 2.127290 1_455
Mg15 O21 2.130188 1_555
Mg15 O17 2.156214 1_555
Mg16 O3 2.109268 1_555
Mg16 O10 2.120580 1_555
Mg16 O8 2.120580 1_555
Mg16 O18 2.128889 1_555
Mg16 O2 2.138594 1_555
Mg16 O22 2.157547 1_555
Mg17 O3 2.109268 1_555
Mg17 O11 2.120580 1_555
Mg17 O9 2.120580 1_555
Mg17 O19 2.128889 1_555
Mg17 O2 2.138594 1_565
Mg17 O23 2.157547 1_555
Mg18 O4 2.123642 1_555
Mg18 O5 2.127153 1_555
Mg18 O12 2.127290 1_555
Mg18 O14 2.127290 1_455
Mg18 O20 2.130188 1_555
Mg18 O16 2.156214 1_556
Mg19 O4 2.123642 1_565
Mg19 O5 2.127153 1_555
Mg19 O13 2.127290 1_555
Mg19 O15 2.127290 1_455
Mg19 O21 2.130188 1_555
Mg19 O17 2.156214 1_556
Mg20 O7 2.109268 1_555
Mg20 O14 2.120580 1_555
Mg20 O12 2.120580 1_555
Mg20 O18 2.128889 1_556
Mg20 O6 2.138594 1_555
Mg20 O22 2.157547 1_555
Mg21 O7 2.109268 1_555
Mg21 O15 2.120580 1_555
Mg21 O13 2.120580 1_555
Mg21 O19 2.128889 1_556
Mg21 O6 2.138594 1_565
Mg21 O23 2.157547 1_555
Mg22 O0 2.123642 1_555
Mg22 O2 2.127153 1_555
Mg22 O8 2.127290 1_555
Mg22 O9 2.127290 1_545
Mg22 O28 2.130188 1_555
Mg22 O24 2.156214 1_555
Mg23 O3 2.109268 1_555
Mg23 O9 2.120580 1_555
Mg23 O8 2.120580 1_555
Mg23 O25 2.128889 1_555
Mg23 O1 2.138594 1_555
Mg23 O29 2.157547 1_555
Mg24 O0 2.123642 1_655
Mg24 O2 2.127153 1_555
Mg24 O10 2.127290 1_555
Mg24 O11 2.127290 1_545
Mg24 O30 2.130188 1_555
Mg24 O26 2.156214 1_555
Mg25 O3 2.109268 1_555
Mg25 O11 2.120580 1_555
Mg25 O10 2.120580 1_555
Mg25 O27 2.128889 1_555
Mg25 O1 2.138594 1_655
Mg25 O31 2.157547 1_555
Mg26 O4 2.123642 1_555
Mg26 O6 2.127153 1_555
Mg26 O12 2.127290 1_555
Mg26 O13 2.127290 1_545
Mg26 O28 2.130188 1_555
Mg26 O24 2.156214 1_556
Mg27 O7 2.109268 1_555
Mg27 O13 2.120580 1_555
Mg27 O12 2.120580 1_555
Mg27 O25 2.128889 1_556
Mg27 O5 2.138594 1_555
Mg27 O29 2.157547 1_555
Mg28 O4 2.123642 1_655
Mg28 O6 2.127153 1_555
Mg28 O14 2.127290 1_555
Mg28 O15 2.127290 1_545
Mg28 O30 2.130188 1_555
Mg28 O26 2.156214 1_556
Mg29 O7 2.109268 1_555
Mg29 O15 2.120580 1_555
Mg29 O14 2.120580 1_555
Mg29 O27 2.128889 1_556
Mg29 O5 2.138594 1_655
Mg29 O31 2.157547 1_555
Cr0 O24 2.136578 1_555
Cr0 O16 2.136578 1_555
Cr0 O26 2.136578 1_455
Cr0 O17 2.136578 1_545
Cr0 O4 2.269183 1_554
Cr0 O0 2.269183 1_555
C0 O27 2.137631 1_555
C0 O25 2.137631 1_555
C0 O18 2.137631 1_555
C0 O19 2.137631 1_555
C0 O7 2.155015 1_554
C0 O3 2.155015 1_555
