# generated using pymatgen
data_CsLi4(BO2)5
_symmetry_space_group_name_H-M   'P 1'
_cell_length_a   9.49722000
_cell_length_b   7.02004000
_cell_length_c   16.29024086
_cell_angle_alpha   81.94900197
_cell_angle_beta   90.00000000
_cell_angle_gamma   90.00000000
_symmetry_Int_Tables_number   1
_chemical_formula_structural   CsLi4(BO2)5
_chemical_formula_sum   'Cs4 Li16 B20 O40'
_cell_volume   1075.37977297
_cell_formula_units_Z   4
loop_
 _symmetry_equiv_pos_site_id
 _symmetry_equiv_pos_as_xyz
  1  'x, y, z'
loop_
 _atom_site_type_symbol
 _atom_site_label
 _atom_site_symmetry_multiplicity
 _atom_site_fract_x
 _atom_site_fract_y
 _atom_site_fract_z
 _atom_site_occupancy
  Cs  Cs0  1  0.20249800  0.59475800  0.86802200  1
  Cs  Cs1  1  0.70249800  0.40524200  0.63197800  1
  Cs  Cs2  1  0.79750200  0.40524200  0.13197800  1
  Cs  Cs3  1  0.29750200  0.59475800  0.36802200  1
  Li  Li0  1  0.72252700  0.96116300  0.81982400  1
  Li  Li1  1  0.22252700  0.03883700  0.68017600  1
  Li  Li2  1  0.27747300  0.03883700  0.18017600  1
  Li  Li3  1  0.77747300  0.96116300  0.31982400  1
  Li  Li4  1  0.14455900  0.04879100  0.03167000  1
  Li  Li5  1  0.64455900  0.95120900  0.46833000  1
  Li  Li6  1  0.85544100  0.95120900  0.96833000  1
  Li  Li7  1  0.35544100  0.04879100  0.53167000  1
  Li  Li8  1  0.41989600  0.00241200  0.92739400  1
  Li  Li9  1  0.91989600  0.99758800  0.57260600  1
  Li  Li10  1  0.58010400  0.99758800  0.07260600  1
  Li  Li11  1  0.08010400  0.00241200  0.42739400  1
  Li  Li12  1  0.59257700  0.72305300  0.94389900  1
  Li  Li13  1  0.09257700  0.27694700  0.55610100  1
  Li  Li14  1  0.40742300  0.27694700  0.05610100  1
  Li  Li15  1  0.90742300  0.72305300  0.44389900  1
  B  B0  1  0.80112500  0.57038800  0.89466100  1
  B  B1  1  0.30112500  0.42961200  0.60533900  1
  B  B2  1  0.19887500  0.42961200  0.10533900  1
  B  B3  1  0.69887500  0.57038800  0.39466100  1
  B  B4  1  0.37419700  0.74784900  0.64412800  1
  B  B5  1  0.87419700  0.25215100  0.85587200  1
  B  B6  1  0.62580300  0.25215100  0.35587200  1
  B  B7  1  0.12580300  0.74784900  0.14412800  1
  B  B8  1  0.11459400  0.09156100  0.87378600  1
  B  B9  1  0.61459400  0.90843900  0.62621400  1
  B  B10  1  0.88540600  0.90843900  0.12621400  1
  B  B11  1  0.38540600  0.09156100  0.37378600  1
  B  B12  1  0.35563600  0.71891700  0.06528600  1
  B  B13  1  0.85563600  0.28108300  0.43471400  1
  B  B14  1  0.64436400  0.28108300  0.93471400  1
  B  B15  1  0.14436400  0.71891700  0.56528600  1
  B  B16  1  0.49910500  0.85685800  0.76541400  1
  B  B17  1  0.99910500  0.14314200  0.73458600  1
  B  B18  1  0.50089500  0.14314200  0.23458600  1
  B  B19  1  0.00089500  0.85685800  0.26541400  1
  O  O0  1  0.81420000  0.75836100  0.89947000  1
  O  O1  1  0.31420000  0.24163900  0.60053000  1
  O  O2  1  0.18580000  0.24163900  0.10053000  1
  O  O3  1  0.68580000  0.75836100  0.39947000  1
  O  O4  1  0.22113200  0.02770600  0.92290800  1
  O  O5  1  0.72113200  0.97229400  0.57709200  1
  O  O6  1  0.77886800  0.97229400  0.07709200  1
  O  O7  1  0.27886800  0.02770600  0.42290800  1
  O  O8  1  0.37558100  0.80660000  0.72798400  1
  O  O9  1  0.87558100  0.19340000  0.77201600  1
  O  O10  1  0.62441900  0.19340000  0.27201600  1
  O  O11  1  0.12441900  0.80660000  0.22798400  1
  O  O12  1  0.31636700  0.52506300  0.06129900  1
  O  O13  1  0.81636700  0.47493700  0.43870100  1
  O  O14  1  0.68363300  0.47493700  0.93870100  1
  O  O15  1  0.18363300  0.52506300  0.56129900  1
  O  O16  1  0.47372200  0.79213600  0.02971200  1
  O  O17  1  0.97372200  0.20786400  0.47028800  1
  O  O18  1  0.52627800  0.20786400  0.97028800  1
  O  O19  1  0.02627800  0.79213600  0.52971200  1
  O  O20  1  0.26065600  0.82476000  0.10653900  1
  O  O21  1  0.76065600  0.17524000  0.39346100  1
  O  O22  1  0.73934400  0.17524000  0.89346100  1
  O  O23  1  0.23934400  0.82476000  0.60653900  1
  O  O24  1  0.88743600  0.46166800  0.85127800  1
  O  O25  1  0.38743600  0.53833200  0.64872200  1
  O  O26  1  0.11256400  0.53833200  0.14872200  1
  O  O27  1  0.61256400  0.46166800  0.35127800  1
  O  O28  1  0.98966300  0.15445000  0.90783600  1
  O  O29  1  0.48966300  0.84555000  0.59216400  1
  O  O30  1  0.01033700  0.84555000  0.09216400  1
  O  O31  1  0.51033700  0.15445000  0.40783600  1
  O  O32  1  0.61980600  0.90074900  0.71377700  1
  O  O33  1  0.11980600  0.09925100  0.78622300  1
  O  O34  1  0.38019400  0.09925100  0.28622300  1
  O  O35  1  0.88019400  0.90074900  0.21377700  1
  O  O36  1  0.51345600  0.86818700  0.84596200  1
  O  O37  1  0.01345600  0.13181300  0.65403800  1
  O  O38  1  0.48654400  0.13181300  0.15403800  1
  O  O39  1  0.98654400  0.86818700  0.34596200  1
loop_
_geom_bond_atom_site_label_1
_geom_bond_atom_site_label_2
_geom_bond_distance
_geom_bond_site_symmetry_2
Cs0 O8 3.027791 1_555
Cs0 O24 3.157853 1_455
Cs0 O4 3.290798 1_565
Cs0 O12 3.300095 1_556
Cs1 O9 3.027791 1_555
Cs1 O25 3.157853 1_555
Cs1 O5 3.290798 1_545
Cs1 O13 3.300095 1_555
Cs2 O10 3.027791 1_555
Cs2 O26 3.157853 1_655
Cs2 O6 3.290798 1_545
Cs2 O14 3.300095 1_554
Cs3 O11 3.027791 1_555
Cs3 O27 3.157853 1_555
Cs3 O7 3.290798 1_565
Cs3 O15 3.300095 1_555
Li0 O0 1.987674 1_555
Li0 O22 2.056191 1_565
Li0 O32 2.078745 1_555
Li0 O36 2.114721 1_555
Li0 O9 2.240919 1_565
Li1 O1 1.987674 1_555
Li1 O23 2.056191 1_545
Li1 O33 2.078745 1_555
Li1 O37 2.114721 1_555
Li1 O8 2.240919 1_545
Li2 O2 1.987674 1_555
Li2 O20 2.056191 1_545
Li2 O34 2.078745 1_555
Li2 O38 2.114721 1_555
Li2 O11 2.240919 1_545
Li3 O3 1.987674 1_555
Li3 O21 2.056191 1_565
Li3 O35 2.078745 1_555
Li3 O39 2.114721 1_555
Li3 O10 2.240919 1_565
Li4 O2 1.915693 1_555
Li4 O4 1.939939 1_554
Li4 O30 2.058614 1_545
Li4 O20 2.153916 1_545
Li4 O28 2.522809 1_454
Li5 O3 1.915693 1_555
Li5 O5 1.939939 1_555
Li5 O31 2.058614 1_565
Li5 O21 2.153916 1_565
Li5 O29 2.522809 1_555
Li6 O0 1.915693 1_555
Li6 O6 1.939939 1_556
Li6 O28 2.058614 1_565
Li6 O22 2.153916 1_565
Li6 O30 2.522809 1_656
Li7 O1 1.915693 1_555
Li7 O7 1.939939 1_555
Li7 O29 2.058614 1_545
Li7 O23 2.153916 1_545
Li7 O31 2.522809 1_555
Li8 O4 1.896488 1_555
Li8 O36 1.946087 1_545
Li8 O18 1.967612 1_555
Li8 O16 2.128219 1_546
Li9 O5 1.896488 1_555
Li9 O37 1.946087 1_665
Li9 O19 1.967612 1_655
Li9 O17 2.128219 1_565
Li10 O6 1.896488 1_555
Li10 O38 1.946087 1_565
Li10 O16 1.967612 1_555
Li10 O18 2.128219 1_564
Li11 O7 1.896488 1_555
Li11 O39 1.946087 1_445
Li11 O17 1.967612 1_455
Li11 O19 2.128219 1_545
Li12 O16 1.911393 1_556
Li12 O36 1.921650 1_555
Li12 O14 1.957074 1_555
Li12 O0 2.228274 1_555
Li13 O17 1.911393 1_455
Li13 O37 1.921650 1_555
Li13 O15 1.957074 1_555
Li13 O1 2.228274 1_555
Li14 O18 1.911393 1_554
Li14 O38 1.921650 1_555
Li14 O12 1.957074 1_555
Li14 O2 2.228274 1_555
Li15 O19 1.911393 1_655
Li15 O39 1.921650 1_555
Li15 O13 1.957074 1_555
Li15 O3 2.228274 1_555
B0 O0 1.338581 1_555
B0 O24 1.380208 1_555
B0 O14 1.440191 1_555
B1 O1 1.338581 1_555
B1 O25 1.380208 1_555
B1 O15 1.440191 1_555
B2 O2 1.338581 1_555
B2 O26 1.380208 1_555
B2 O12 1.440191 1_555
B3 O3 1.338581 1_555
B3 O27 1.380208 1_555
B3 O13 1.440191 1_555
B4 O25 1.467611 1_555
B4 O8 1.481262 1_555
B4 O23 1.487993 1_555
B4 O29 1.492280 1_555
B5 O24 1.467611 1_555
B5 O9 1.481262 1_555
B5 O22 1.487993 1_555
B5 O28 1.492280 1_555
B6 O27 1.467611 1_555
B6 O10 1.481262 1_555
B6 O21 1.487993 1_555
B6 O31 1.492280 1_555
B7 O26 1.467611 1_555
B7 O11 1.481262 1_555
B7 O20 1.487993 1_555
B7 O30 1.492280 1_555
B8 O4 1.328371 1_555
B8 O28 1.406752 1_455
B8 O33 1.420731 1_555
B9 O5 1.328371 1_555
B9 O29 1.406752 1_555
B9 O32 1.420731 1_555
B10 O6 1.328371 1_555
B10 O30 1.406752 1_655
B10 O35 1.420731 1_555
B11 O7 1.328371 1_555
B11 O31 1.406752 1_555
B11 O34 1.420731 1_555
B12 O16 1.332039 1_555
B12 O20 1.399017 1_555
B12 O12 1.421272 1_555
B13 O17 1.332039 1_555
B13 O21 1.399017 1_555
B13 O13 1.421272 1_555
B14 O18 1.332039 1_555
B14 O22 1.399017 1_555
B14 O14 1.421272 1_555
B15 O19 1.332039 1_555
B15 O23 1.399017 1_555
B15 O15 1.421272 1_555
B16 O36 1.332614 1_555
B16 O8 1.390240 1_555
B16 O32 1.429678 1_555
B17 O37 1.332614 1_655
B17 O9 1.390240 1_555
B17 O33 1.429678 1_655
B18 O38 1.332614 1_555
B18 O10 1.390240 1_555
B18 O34 1.429678 1_555
B19 O39 1.332614 1_455
B19 O11 1.390240 1_555
B19 O35 1.429678 1_455
