# generated using pymatgen
data_Y3TaO7
_symmetry_space_group_name_H-M   'P 1'
_cell_length_a   6.44925603
_cell_length_b   6.44925603
_cell_length_c   7.43658817
_cell_angle_alpha   90.00000000
_cell_angle_beta   90.00000000
_cell_angle_gamma   108.90163995
_symmetry_Int_Tables_number   1
_chemical_formula_structural   Y3TaO7
_chemical_formula_sum   'Y6 Ta2 O14'
_cell_volume   292.63012543
_cell_formula_units_Z   2
loop_
 _symmetry_equiv_pos_site_id
 _symmetry_equiv_pos_as_xyz
  1  'x, y, z'
loop_
 _atom_site_type_symbol
 _atom_site_label
 _atom_site_symmetry_multiplicity
 _atom_site_fract_x
 _atom_site_fract_y
 _atom_site_fract_z
 _atom_site_occupancy
  Y  Y0  1  0.99975206  0.53455899  0.24217329  1
  Y  Y1  1  0.00024794  0.46544101  0.74217329  1
  Y  Y2  1  0.53455899  0.99975206  0.75782671  1
  Y  Y3  1  0.46544101  0.00024794  0.25782671  1
  Y  Y4  1  0.46885231  0.46885231  -0.00000000  1
  Y  Y5  1  0.53114769  0.53114769  0.50000000  1
  Ta  Ta0  1  0.99829302  0.99829302  -0.00000000  1
  Ta  Ta1  1  0.00170698  0.00170698  0.50000000  1
  O  O0  1  0.93309688  0.06690312  0.75000000  1
  O  O1  1  0.06690312  0.93309688  0.25000000  1
  O  O2  1  0.36063610  0.63936390  0.25000000  1
  O  O3  1  0.63936390  0.36063610  0.75000000  1
  O  O4  1  0.37111602  0.62888398  0.75000000  1
  O  O5  1  0.62888398  0.37111602  0.25000000  1
  O  O6  1  0.32786419  0.08185693  0.97566653  1
  O  O7  1  0.67213581  0.91814307  0.47566653  1
  O  O8  1  0.30970551  0.05287952  0.54208580  1
  O  O9  1  0.69029449  0.94712048  0.04208580  1
  O  O10  1  0.05287952  0.30970551  0.45791420  1
  O  O11  1  0.94712048  0.69029449  0.95791420  1
  O  O12  1  0.91814307  0.67213581  0.52433347  1
  O  O13  1  0.08185693  0.32786419  0.02433347  1
loop_
_geom_bond_atom_site_label_1
_geom_bond_atom_site_label_2
_geom_bond_distance
_geom_bond_site_symmetry_2
O0 Ta0 1.987348 1_546
O0 Ta1 1.987348 1_655
O0 Y1 2.464968 1_655
O0 Y2 2.464968 1_545
O1 Ta1 1.987348 1_565
O1 Ta0 1.987348 1_455
O1 Y3 2.464968 1_565
O1 Y0 2.464968 1_455
O2 Y3 2.204081 1_565
O2 Y0 2.204081 1_455
O2 Y5 2.376980 1_555
O2 Y4 2.376980 1_555
O3 Y2 2.204081 1_545
O3 Y1 2.204081 1_655
O3 Y4 2.376980 1_556
O3 Y5 2.376980 1_555
O4 Y1 2.280757 1_555
O4 Y2 2.280757 1_555
O4 Y5 2.310936 1_555
O4 Y4 2.310936 1_556
O5 Y3 2.280757 1_555
O5 Y0 2.280757 1_555
O5 Y5 2.310936 1_555
O5 Y4 2.310936 1_555
O6 Ta0 2.024536 1_446
O6 Y2 2.266940 1_545
O6 Y4 2.370314 1_556
O6 Y3 2.402022 1_556
O7 Ta1 2.024536 1_665
O7 Y3 2.266940 1_565
O7 Y5 2.370314 1_555
O7 Y2 2.402022 1_555
O8 Ta1 1.930746 1_555
O8 Y2 2.261909 1_545
O8 Y3 2.411124 1_555
O8 Y5 2.966062 1_555
O9 Ta0 1.930746 1_555
O9 Y3 2.261909 1_565
O9 Y2 2.411124 1_554
O9 Y4 2.966062 1_555
O10 Ta1 1.930746 1_555
O10 Y0 2.261909 1_455
O10 Y1 2.411124 1_555
O10 Y5 2.966062 1_555
O11 Ta0 1.930746 1_556
O11 Y1 2.261909 1_655
O11 Y0 2.411124 1_556
O11 Y4 2.966062 1_556
O12 Ta1 2.024536 1_665
O12 Y1 2.266940 1_655
O12 Y5 2.370314 1_555
O12 Y0 2.402022 1_555
O13 Ta0 2.024536 1_445
O13 Y0 2.266940 1_455
O13 Y4 2.370314 1_555
O13 Y1 2.402022 1_554
