# generated using pymatgen
data_KMg3V3CuO12
_symmetry_space_group_name_H-M   'P 1'
_cell_length_a   8.90868053
_cell_length_b   8.90868053
_cell_length_c   6.96251282
_cell_angle_alpha   75.22290418
_cell_angle_beta   75.22290418
_cell_angle_gamma   92.54162296
_symmetry_Int_Tables_number   1
_chemical_formula_structural   KMg3V3CuO12
_chemical_formula_sum   'K2 Mg6 V6 Cu2 O24'
_cell_volume   513.07992976
_cell_formula_units_Z   2
loop_
 _symmetry_equiv_pos_site_id
 _symmetry_equiv_pos_as_xyz
  1  'x, y, z'
loop_
 _atom_site_type_symbol
 _atom_site_label
 _atom_site_symmetry_multiplicity
 _atom_site_fract_x
 _atom_site_fract_y
 _atom_site_fract_z
 _atom_site_occupancy
  K  K0  1  0.51497900  0.48502100  0.25000000  1
  K  K1  1  0.48502100  0.51497900  0.75000000  1
  Mg  Mg0  1  0.55331700  0.87609900  0.37483000  1
  Mg  Mg1  1  0.44668300  0.12390100  0.62517000  1
  Mg  Mg2  1  0.12390100  0.44668300  0.12517000  1
  Mg  Mg3  1  0.87609900  0.55331700  0.87483000  1
  Mg  Mg4  1  0.24061100  0.75938900  0.25000000  1
  Mg  Mg5  1  0.75938900  0.24061100  0.75000000  1
  V  V0  1  0.38058200  0.14757800  0.12195900  1
  V  V1  1  0.61941800  0.85242200  0.87804100  1
  V  V2  1  0.85242200  0.61941800  0.37804100  1
  V  V3  1  0.14757800  0.38058200  0.62195900  1
  V  V4  1  0.78814600  0.21185400  0.25000000  1
  V  V5  1  0.21185400  0.78814600  0.75000000  1
  Cu  Cu0  1  0.99721500  0.00278500  0.25000000  1
  Cu  Cu1  1  0.00278500  0.99721500  0.75000000  1
  O  O0  1  0.67329300  0.68384100  0.38724100  1
  O  O1  1  0.32670700  0.31615900  0.61275900  1
  O  O2  1  0.31615900  0.32670700  0.11275900  1
  O  O3  1  0.68384100  0.67329300  0.88724100  1
  O  O4  1  0.77270500  0.01064900  0.26781100  1
  O  O5  1  0.22729500  0.98935100  0.73218900  1
  O  O6  1  0.98935100  0.22729500  0.23218900  1
  O  O7  1  0.01064900  0.77270500  0.76781100  1
  O  O8  1  0.67892000  0.24763400  0.47822900  1
  O  O9  1  0.32108000  0.75236600  0.52177100  1
  O  O10  1  0.75236600  0.32108000  0.02177100  1
  O  O11  1  0.24763400  0.67892000  0.97822900  1
  O  O12  1  0.22093300  0.00360600  0.17718100  1
  O  O13  1  0.77906700  0.99639400  0.82281900  1
  O  O14  1  0.99639400  0.77906700  0.32281900  1
  O  O15  1  0.00360600  0.22093300  0.67718100  1
  O  O16  1  0.47182200  0.09891700  0.32151000  1
  O  O17  1  0.52817800  0.90108300  0.67849000  1
  O  O18  1  0.90108300  0.52817800  0.17849000  1
  O  O19  1  0.09891700  0.47182200  0.82151000  1
  O  O20  1  0.48679000  0.83094600  0.12165900  1
  O  O21  1  0.51321000  0.16905400  0.87834100  1
  O  O22  1  0.16905400  0.51321000  0.37834100  1
  O  O23  1  0.83094600  0.48679000  0.62165900  1
loop_
_geom_bond_atom_site_label_1
_geom_bond_atom_site_label_2
_geom_bond_distance
_geom_bond_site_symmetry_2
K0 O3 2.670667 1_554
K0 O1 2.670667 1_555
K0 O0 2.714538 1_555
K0 O2 2.714538 1_555
K0 O8 2.978939 1_555
K0 O10 2.978939 1_555
K0 O20 3.022747 1_555
K0 O22 3.022747 1_555
K1 O0 2.670667 1_555
K1 O2 2.670667 1_556
K1 O3 2.714538 1_555
K1 O1 2.714538 1_555
K1 O11 2.978939 1_555
K1 O9 2.978939 1_555
K1 O23 3.022747 1_555
K1 O21 3.022747 1_555
Mg0 O0 2.053631 1_555
Mg0 O4 2.098958 1_565
Mg0 O20 2.119829 1_555
Mg0 O16 2.120044 1_565
Mg0 O17 2.138369 1_555
Mg0 O9 2.164464 1_555
Mg1 O1 2.053631 1_555
Mg1 O5 2.098958 1_545
Mg1 O21 2.119829 1_555
Mg1 O17 2.120044 1_545
Mg1 O16 2.138369 1_555
Mg1 O8 2.164464 1_555
Mg2 O2 2.053631 1_555
Mg2 O6 2.098958 1_455
Mg2 O22 2.119829 1_555
Mg2 O18 2.120044 1_455
Mg2 O19 2.138369 1_554
Mg2 O11 2.164464 1_554
Mg3 O3 2.053631 1_555
Mg3 O7 2.098958 1_655
Mg3 O23 2.119829 1_555
Mg3 O19 2.120044 1_655
Mg3 O18 2.138369 1_556
Mg3 O10 2.164464 1_556
Mg4 O14 2.130192 1_455
Mg4 O12 2.130192 1_565
Mg4 O22 2.144856 1_555
Mg4 O20 2.144856 1_555
Mg4 O9 2.175735 1_555
Mg4 O11 2.175735 1_554
Mg5 O15 2.130192 1_655
Mg5 O13 2.130192 1_545
Mg5 O21 2.144856 1_555
Mg5 O23 2.144856 1_555
Mg5 O10 2.175735 1_556
Mg5 O8 2.175735 1_555
Cu0 O14 1.926301 1_545
Cu0 O12 1.926301 1_655
Cu0 O4 1.977618 1_555
Cu0 O6 1.977618 1_555
Cu1 O13 1.926301 1_455
Cu1 O15 1.926301 1_565
Cu1 O7 1.977618 1_555
Cu1 O5 1.977618 1_555
O0 V2 1.711116 1_555
O1 V3 1.711116 1_555
O2 V0 1.711116 1_555
O3 V1 1.711116 1_555
O4 V4 1.761616 1_555
O5 V5 1.761616 1_555
O6 V4 1.761616 1_555
O7 V5 1.761616 1_555
O8 V4 1.752326 1_555
O9 V5 1.752326 1_555
O10 V4 1.752326 1_555
O11 V5 1.752326 1_555
O12 V0 1.767321 1_555
O13 V1 1.767321 1_555
O14 V2 1.767321 1_555
O15 V3 1.767321 1_555
O16 V0 1.754730 1_555
O17 V1 1.754730 1_555
O18 V2 1.754730 1_555
O19 V3 1.754730 1_555
O20 V1 1.761188 1_554
O21 V0 1.761188 1_556
O22 V3 1.761188 1_555
O23 V2 1.761188 1_555
