# generated using pymatgen
data_Cs2MoO4
_symmetry_space_group_name_H-M   'P 1'
_cell_length_a   6.41380400
_cell_length_b   8.74006300
_cell_length_c   13.27036300
_cell_angle_alpha   90.00000000
_cell_angle_beta   90.00000000
_cell_angle_gamma   90.00000000
_symmetry_Int_Tables_number   1
_chemical_formula_structural   Cs2MoO4
_chemical_formula_sum   'Cs8 Mo4 O16'
_cell_volume   743.89741587
_cell_formula_units_Z   4
loop_
 _symmetry_equiv_pos_site_id
 _symmetry_equiv_pos_as_xyz
  1  'x, y, z'
loop_
 _atom_site_type_symbol
 _atom_site_label
 _atom_site_symmetry_multiplicity
 _atom_site_fract_x
 _atom_site_fract_y
 _atom_site_fract_z
 _atom_site_occupancy
  Cs  Cs0  1  0.25000000  0.47887700  0.84543500  1
  Cs  Cs1  1  0.75000000  0.97887700  0.65456500  1
  Cs  Cs2  1  0.25000000  0.02112300  0.34543500  1
  Cs  Cs3  1  0.75000000  0.52112300  0.15456500  1
  Cs  Cs4  1  0.25000000  0.82988300  0.06757000  1
  Cs  Cs5  1  0.75000000  0.32988300  0.43243000  1
  Cs  Cs6  1  0.25000000  0.67011700  0.56757000  1
  Cs  Cs7  1  0.75000000  0.17011700  0.93243000  1
  Mo  Mo0  1  0.25000000  0.27521400  0.10661000  1
  Mo  Mo1  1  0.75000000  0.77521400  0.39339000  1
  Mo  Mo2  1  0.25000000  0.22478600  0.60661000  1
  Mo  Mo3  1  0.75000000  0.72478600  0.89339000  1
  O  O0  1  0.25000000  0.48058100  0.08857000  1
  O  O1  1  0.75000000  0.98058100  0.41143000  1
  O  O2  1  0.25000000  0.01941900  0.58857000  1
  O  O3  1  0.75000000  0.51941900  0.91143000  1
  O  O4  1  0.25000000  0.18519300  0.98404500  1
  O  O5  1  0.75000000  0.68519300  0.51595500  1
  O  O6  1  0.25000000  0.31480700  0.48404500  1
  O  O7  1  0.75000000  0.81480700  0.01595500  1
  O  O8  1  0.97758800  0.78596400  0.82573600  1
  O  O9  1  0.02241200  0.28596400  0.67426400  1
  O  O10  1  0.52241200  0.71403600  0.32573600  1
  O  O11  1  0.47758800  0.21403600  0.17426400  1
  O  O12  1  0.02241200  0.21403600  0.17426400  1
  O  O13  1  0.97758800  0.71403600  0.32573600  1
  O  O14  1  0.47758800  0.28596400  0.67426400  1
  O  O15  1  0.52241200  0.78596400  0.82573600  1
loop_
_geom_bond_atom_site_label_1
_geom_bond_atom_site_label_2
_geom_bond_distance
_geom_bond_site_symmetry_2
Cs0 O4 3.157841 1_555
Cs0 O9 3.183284 1_555
Cs0 O14 3.183284 1_555
Cs0 O15 3.213203 1_555
Cs0 O8 3.213203 1_455
Cs0 O0 3.226524 1_556
Cs0 O3 3.343167 1_455
Cs0 O3 3.343167 1_555
Cs1 O5 3.157841 1_555
Cs1 O8 3.183284 1_555
Cs1 O15 3.183284 1_555
Cs1 O14 3.213203 1_565
Cs1 O9 3.213203 1_665
Cs1 O1 3.226524 1_555
Cs1 O2 3.343167 1_665
Cs1 O2 3.343167 1_565
Cs2 O6 3.157841 1_555
Cs2 O11 3.183284 1_555
Cs2 O12 3.183284 1_555
Cs2 O13 3.213203 1_445
Cs2 O10 3.213203 1_545
Cs2 O2 3.226524 1_555
Cs2 O1 3.343167 1_545
Cs2 O1 3.343167 1_445
Cs3 O7 3.157841 1_555
Cs3 O10 3.183284 1_555
Cs3 O13 3.183284 1_555
Cs3 O11 3.213203 1_555
Cs3 O12 3.213203 1_655
Cs3 O3 3.226524 1_554
Cs3 O0 3.343167 1_555
Cs3 O0 3.343167 1_655
Cs4 O0 3.065614 1_555
Cs4 O7 3.281880 1_555
Cs4 O7 3.281880 1_455
Cs4 O4 3.297313 1_564
Cs4 O15 3.674121 1_554
Cs4 O8 3.674121 1_454
Cs5 O1 3.065614 1_545
Cs5 O6 3.281880 1_555
Cs5 O6 3.281880 1_655
Cs5 O5 3.297313 1_555
Cs5 O14 3.674121 1_555
Cs5 O9 3.674121 1_655
Cs6 O2 3.065614 1_565
Cs6 O5 3.281880 1_555
Cs6 O5 3.281880 1_455
Cs6 O6 3.297313 1_555
Cs6 O13 3.674121 1_455
Cs6 O10 3.674121 1_555
Cs7 O3 3.065614 1_555
Cs7 O4 3.281880 1_555
Cs7 O4 3.281880 1_655
Cs7 O7 3.297313 1_546
Cs7 O11 3.674121 1_556
Cs7 O12 3.674121 1_656
Mo0 O12 1.795181 1_555
Mo0 O11 1.795181 1_555
Mo0 O4 1.806788 1_554
Mo0 O0 1.810815 1_555
Mo1 O10 1.795181 1_555
Mo1 O13 1.795181 1_555
Mo1 O5 1.806788 1_555
Mo1 O1 1.810815 1_555
Mo2 O9 1.795181 1_555
Mo2 O14 1.795181 1_555
Mo2 O6 1.806788 1_555
Mo2 O2 1.810815 1_555
Mo3 O8 1.795181 1_555
Mo3 O15 1.795181 1_555
Mo3 O7 1.806788 1_556
Mo3 O3 1.810815 1_555
