# generated using pymatgen
data_SrLaMg14
_symmetry_space_group_name_H-M   'P 1'
_cell_length_a   6.81614012
_cell_length_b   6.81613950
_cell_length_c   10.41770372
_cell_angle_alpha   90.00000000
_cell_angle_beta   90.00000000
_cell_angle_gamma   120.00000302
_symmetry_Int_Tables_number   1
_chemical_formula_structural   SrLaMg14
_chemical_formula_sum   'Sr1 La1 Mg14'
_cell_volume   419.15977641
_cell_formula_units_Z   1
loop_
 _symmetry_equiv_pos_site_id
 _symmetry_equiv_pos_as_xyz
  1  'x, y, z'
loop_
 _atom_site_type_symbol
 _atom_site_label
 _atom_site_symmetry_multiplicity
 _atom_site_fract_x
 _atom_site_fract_y
 _atom_site_fract_z
 _atom_site_occupancy
  Sr  Sr0  1  0.16666700  0.33333300  0.62500000  1
  La  La0  1  0.16666700  0.33333300  0.12500000  1
  Mg  Mg0  1  0.17428310  0.83714105  0.12500000  1
  Mg  Mg1  1  0.17431237  0.83715568  0.62500000  1
  Mg  Mg2  1  0.66285895  0.32571690  0.12500000  1
  Mg  Mg3  1  0.66284432  0.32568763  0.62500000  1
  Mg  Mg4  1  0.66285895  0.83714105  0.12500000  1
  Mg  Mg5  1  0.66284432  0.83715568  0.62500000  1
  Mg  Mg6  1  0.34186291  0.15813709  0.37276502  1
  Mg  Mg7  1  0.34186291  0.15813709  0.87723498  1
  Mg  Mg8  1  0.34186291  0.68372681  0.37276502  1
  Mg  Mg9  1  0.34186291  0.68372681  0.87723498  1
  Mg  Mg10  1  0.81627319  0.15813709  0.37276502  1
  Mg  Mg11  1  0.81627319  0.15813709  0.87723498  1
  Mg  Mg12  1  0.83333300  0.66666700  0.37399057  1
  Mg  Mg13  1  0.83333300  0.66666700  0.87600943  1
loop_
_geom_bond_atom_site_label_1
_geom_bond_atom_site_label_2
_geom_bond_distance
_geom_bond_site_symmetry_2
La0 Mg6 3.307620 1_555
La0 Mg7 3.307620 1_554
La0 Mg8 3.307627 1_555
La0 Mg9 3.307627 1_554
La0 Mg10 3.307627 1_455
La0 Mg11 3.307627 1_454
La0 Mg0 3.408366 1_555
La0 Mg4 3.408366 1_555
La0 Mg4 3.408366 1_445
La0 Mg0 3.408366 1_545
La0 Mg2 3.408367 1_455
La0 Mg2 3.408367 1_555
Mg0 Mg9 3.202334 1_554
Mg0 Mg8 3.202334 1_555
Mg0 Mg7 3.202340 1_564
Mg0 Mg6 3.202340 1_565
Mg0 Mg12 3.283135 1_455
Mg0 Mg13 3.283135 1_454
Mg0 Mg2 3.330201 1_565
Mg0 Mg4 3.330201 1_555
Mg0 Mg2 3.485938 1_455
Mg0 Mg4 3.485939 1_455
Mg1 Mg8 3.239932 1_555
Mg1 Mg9 3.239932 1_555
Mg1 Mg7 3.239938 1_565
Mg1 Mg6 3.239938 1_565
Mg1 Mg12 3.299882 1_455
Mg1 Mg13 3.299882 1_455
Mg1 Mg3 3.329902 1_565
Mg1 Mg5 3.329902 1_555
Mg1 Sr0 3.408369 1_555
Mg1 Sr0 3.408369 1_565
Mg1 Mg3 3.486238 1_455
Mg1 Mg5 3.486238 1_455
Mg2 Mg7 3.202340 1_554
Mg2 Mg6 3.202340 1_555
Mg2 Mg4 3.330201 1_545
Mg2 Mg4 3.485938 1_555
Mg3 Mg6 3.239938 1_555
Mg3 Mg7 3.239938 1_555
Mg3 Mg5 3.329902 1_545
Mg3 Sr0 3.408369 1_655
Mg3 Sr0 3.408369 1_555
Mg3 Mg5 3.486238 1_555
Mg4 Mg8 3.202341 1_555
Mg4 Mg9 3.202341 1_554
Mg5 Mg9 3.239939 1_555
Mg5 Mg8 3.239939 1_555
Mg5 Sr0 3.408369 1_555
Mg5 Sr0 3.408369 1_665
Mg6 Mg8 3.233647 1_545
Mg6 Sr0 3.344086 1_555
Mg7 Mg9 3.233647 1_545
Mg7 Sr0 3.344086 1_555
Mg8 Sr0 3.344093 1_555
Mg9 Sr0 3.344093 1_555
Mg10 Mg2 3.202334 1_555
Mg10 Mg4 3.202340 1_545
Mg10 Mg8 3.233647 1_545
Mg10 Mg6 3.233647 1_555
Mg10 Mg3 3.239932 1_555
Mg10 Mg5 3.239939 1_545
Mg10 Sr0 3.344093 1_655
Mg10 Mg12 3.409581 1_545
Mg10 Mg12 3.409581 1_555
Mg11 Mg2 3.202334 1_556
Mg11 Mg4 3.202340 1_546
Mg11 Mg9 3.233647 1_545
Mg11 Mg7 3.233647 1_555
Mg11 Mg3 3.239932 1_555
Mg11 Mg5 3.239939 1_545
Mg11 Sr0 3.344093 1_655
Mg11 Mg13 3.409581 1_545
Mg11 Mg13 3.409581 1_555
Mg12 Mg4 3.283128 1_555
Mg12 Mg2 3.283135 1_555
Mg12 Mg5 3.299875 1_555
Mg12 Mg3 3.299882 1_555
Mg12 Mg6 3.409581 1_555
Mg12 Mg6 3.409581 1_665
Mg12 Mg8 3.409581 1_555
Mg12 Mg8 3.409581 1_655
Mg13 Mg4 3.283128 1_556
Mg13 Mg2 3.283135 1_556
Mg13 Mg5 3.299875 1_555
Mg13 Mg3 3.299882 1_555
Mg13 Mg7 3.409581 1_555
Mg13 Mg7 3.409581 1_665
Mg13 Mg9 3.409581 1_555
Mg13 Mg9 3.409581 1_655
