# generated using pymatgen
data_Li3Mn8O16
_symmetry_space_group_name_H-M   'P 1'
_cell_length_a   5.94702500
_cell_length_b   5.94702500
_cell_length_c   8.36063500
_cell_angle_alpha   90.00000000
_cell_angle_beta   90.00000000
_cell_angle_gamma   90.00000000
_symmetry_Int_Tables_number   1
_chemical_formula_structural   Li3Mn8O16
_chemical_formula_sum   'Li3 Mn8 O16'
_cell_volume   295.69146720
_cell_formula_units_Z   1
loop_
 _symmetry_equiv_pos_site_id
 _symmetry_equiv_pos_as_xyz
  1  'x, y, z'
loop_
 _atom_site_type_symbol
 _atom_site_label
 _atom_site_symmetry_multiplicity
 _atom_site_fract_x
 _atom_site_fract_y
 _atom_site_fract_z
 _atom_site_occupancy
  Li  Li0  1  0.00000000  0.00000000  0.50000000  1
  Li  Li1  1  0.50000000  0.00000000  0.75066500  1
  Li  Li2  1  0.00000000  0.50000000  0.24933500  1
  Mn  Mn0  1  0.50000000  0.75086300  0.37701100  1
  Mn  Mn1  1  0.00000000  0.25097400  0.87154600  1
  Mn  Mn2  1  0.25097400  0.00000000  0.12845400  1
  Mn  Mn3  1  0.75086300  0.50000000  0.62298900  1
  Mn  Mn4  1  0.74902600  0.00000000  0.12845400  1
  Mn  Mn5  1  0.24913700  0.50000000  0.62298900  1
  Mn  Mn6  1  0.50000000  0.24913700  0.37701100  1
  Mn  Mn7  1  0.00000000  0.74902600  0.87154600  1
  O  O0  1  0.50000000  0.27285300  0.60869900  1
  O  O1  1  0.00000000  0.78185900  0.11356300  1
  O  O2  1  0.27285300  0.50000000  0.39130100  1
  O  O3  1  0.78185900  0.00000000  0.88643700  1
  O  O4  1  0.72714700  0.50000000  0.39130100  1
  O  O5  1  0.21814100  0.00000000  0.88643700  1
  O  O6  1  0.50000000  0.72714700  0.60869900  1
  O  O7  1  0.00000000  0.21814100  0.11356300  1
  O  O8  1  0.50000000  0.21565700  0.14429500  1
  O  O9  1  0.00000000  0.72618800  0.63550400  1
  O  O10  1  0.72618800  0.00000000  0.36449600  1
  O  O11  1  0.21565700  0.50000000  0.85570500  1
  O  O12  1  0.27381200  0.00000000  0.36449600  1
  O  O13  1  0.78434300  0.50000000  0.85570500  1
  O  O14  1  0.50000000  0.78434300  0.14429500  1
  O  O15  1  0.00000000  0.27381200  0.63550400  1
loop_
_geom_bond_atom_site_label_1
_geom_bond_atom_site_label_2
_geom_bond_distance
_geom_bond_site_symmetry_2
Li0 O15 1.983693 1_555
Li0 O9 1.983693 1_545
Li0 O12 1.983693 1_555
Li0 O10 1.983693 1_455
Li1 O6 2.010430 1_545
Li1 O0 2.010430 1_555
Li1 O3 2.024417 1_555
Li1 O5 2.024417 1_555
Li2 O4 2.010430 1_455
Li2 O2 2.010430 1_555
Li2 O1 2.024417 1_555
Li2 O7 2.024417 1_555
Mn0 O6 1.942187 1_555
Mn0 O14 1.955815 1_555
Mn0 O12 2.003890 1_565
Mn0 O10 2.003890 1_565
Mn0 O2 2.016134 1_555
Mn0 O4 2.016134 1_555
Mn1 O11 1.963580 1_555
Mn1 O13 1.963580 1_455
Mn1 O15 1.978129 1_555
Mn1 O5 1.981455 1_555
Mn1 O3 1.981455 1_455
Mn1 O7 2.032815 1_556
Mn2 O14 1.963580 1_545
Mn2 O8 1.963580 1_555
Mn2 O12 1.978129 1_555
Mn2 O7 1.981455 1_555
Mn2 O1 1.981455 1_545
Mn2 O5 2.032815 1_554
Mn3 O4 1.942187 1_555
Mn3 O13 1.955815 1_555
Mn3 O15 2.003890 1_655
Mn3 O9 2.003890 1_655
Mn3 O0 2.016134 1_555
Mn3 O6 2.016134 1_555
Mn4 O8 1.963580 1_555
Mn4 O14 1.963580 1_545
Mn4 O10 1.978129 1_555
Mn4 O7 1.981455 1_655
Mn4 O1 1.981455 1_645
Mn4 O3 2.032815 1_554
Mn5 O2 1.942187 1_555
Mn5 O11 1.955815 1_555
Mn5 O9 2.003890 1_555
Mn5 O15 2.003890 1_555
Mn5 O0 2.016134 1_555
Mn5 O6 2.016134 1_555
Mn6 O0 1.942187 1_555
Mn6 O8 1.955815 1_555
Mn6 O10 2.003890 1_555
Mn6 O12 2.003890 1_555
Mn6 O4 2.016134 1_555
Mn6 O2 2.016134 1_555
Mn7 O13 1.963580 1_455
Mn7 O11 1.963580 1_555
Mn7 O9 1.978129 1_555
Mn7 O5 1.981455 1_565
Mn7 O3 1.981455 1_465
Mn7 O1 2.032815 1_556
