# generated using pymatgen
data_U12FeNi
_symmetry_space_group_name_H-M   'P 1'
_cell_length_a   5.19789500
_cell_length_b   7.65391354
_cell_length_c   7.65391354
_cell_angle_alpha   96.62090492
_cell_angle_beta   109.84994278
_cell_angle_gamma   70.15005722
_symmetry_Int_Tables_number   1
_chemical_formula_structural   U12FeNi
_chemical_formula_sum   'U12 Fe1 Ni1'
_cell_volume   269.39581041
_cell_formula_units_Z   1
loop_
 _symmetry_equiv_pos_site_id
 _symmetry_equiv_pos_as_xyz
  1  'x, y, z'
loop_
 _atom_site_type_symbol
 _atom_site_label
 _atom_site_symmetry_multiplicity
 _atom_site_fract_x
 _atom_site_fract_y
 _atom_site_fract_z
 _atom_site_occupancy
  U  U0  1  0.09381600  0.50000000  0.68763200  1
  U  U1  1  0.90618400  0.50000000  0.31236800  1
  U  U2  1  0.59381600  0.31236800  0.50000000  1
  U  U3  1  0.40618400  0.68763200  0.50000000  1
  U  U4  1  0.27889200  0.11503700  0.67873200  1
  U  U5  1  0.71519700  0.88496300  0.32126800  1
  U  U6  1  0.78480300  0.32126800  0.88496300  1
  U  U7  1  0.22110800  0.67873200  0.11503700  1
  U  U8  1  0.60016000  0.67873200  0.88496300  1
  U  U9  1  0.39392900  0.32126800  0.11503700  1
  U  U10  1  0.89984000  0.88496300  0.67873200  1
  U  U11  1  0.10607100  0.11503700  0.32126800  1
  Fe  Fe0  1  0.25000000  0.00000000  0.00000000  1
  Ni  Ni0  1  0.75000000  0.00000000  0.00000000  1
loop_
_geom_bond_atom_site_label_1
_geom_bond_atom_site_label_2
_geom_bond_distance
_geom_bond_site_symmetry_2
U0 U1 2.701585 1_455
U0 U10 2.772192 1_455
U0 U4 2.772192 1_555
U0 U6 3.216941 1_455
U0 U8 3.216941 1_555
U0 U3 3.225493 1_555
U0 U2 3.225493 1_555
U0 U2 3.225493 1_455
U0 U3 3.225494 1_455
U0 U8 3.241669 1_455
U0 U6 3.241669 1_555
U0 U9 3.335197 1_556
U0 U7 3.335197 1_556
U1 U5 2.772192 1_555
U1 U11 2.772192 1_655
U1 U9 3.216941 1_655
U1 U7 3.216942 1_555
U1 U2 3.225493 1_555
U1 U3 3.225493 1_555
U1 U3 3.225493 1_655
U1 U2 3.225494 1_655
U1 U7 3.241669 1_655
U1 U9 3.241669 1_555
U1 U6 3.335197 1_554
U1 U8 3.335197 1_554
U2 U3 2.701585 1_555
U2 U6 2.772192 1_555
U2 U9 2.772192 1_555
U2 U4 3.216942 1_655
U2 U4 3.241669 1_555
U2 U5 3.335197 1_545
U3 U8 2.772192 1_555
U3 U7 2.772192 1_555
U3 U5 3.216941 1_555
U3 U5 3.241669 1_455
U3 U4 3.335197 1_565
U6 U8 2.573623 1_555
U7 U9 2.573623 1_555
U10 U5 2.573623 1_555
U10 U3 3.216941 1_655
U10 U3 3.241669 1_555
U10 U2 3.335197 1_565
U11 U4 2.573623 1_555
U11 U2 3.216941 1_555
U11 U2 3.241669 1_455
U11 U3 3.335197 1_545
Fe0 Ni0 2.598947 1_555
Fe0 Ni0 2.598947 1_455
Fe0 U7 2.772025 1_545
Fe0 U4 2.772025 1_554
Fe0 U9 2.772025 1_555
Fe0 U11 2.772025 1_555
Fe0 U8 2.772025 1_544
Fe0 U10 2.772025 1_444
Fe0 U5 2.772025 1_545
Fe0 U6 2.772025 1_454
Ni0 U6 2.786391 1_554
Ni0 U5 2.786391 1_545
Ni0 U10 2.786391 1_544
Ni0 U8 2.786391 1_544
Ni0 U9 2.786391 1_555
Ni0 U11 2.786391 1_655
Ni0 U7 2.786391 1_645
Ni0 U4 2.786391 1_554
