# generated using pymatgen
data_Zr6Pb(OF11)2
_symmetry_space_group_name_H-M   'P 1'
_cell_length_a   7.63415597
_cell_length_b   7.63415597
_cell_length_c   15.25012500
_cell_angle_alpha   90.00000000
_cell_angle_beta   90.00000000
_cell_angle_gamma   119.99999976
_symmetry_Int_Tables_number   1
_chemical_formula_structural   Zr6Pb(OF11)2
_chemical_formula_sum   'Zr12 Pb2 O4 F44'
_cell_volume   769.70816509
_cell_formula_units_Z   2
loop_
 _symmetry_equiv_pos_site_id
 _symmetry_equiv_pos_as_xyz
  1  'x, y, z'
loop_
 _atom_site_type_symbol
 _atom_site_label
 _atom_site_symmetry_multiplicity
 _atom_site_fract_x
 _atom_site_fract_y
 _atom_site_fract_z
 _atom_site_occupancy
  Zr  Zr0  1  0.82702700  0.17297300  0.60960200  1
  Zr  Zr1  1  0.34594600  0.17297300  0.60960200  1
  Zr  Zr2  1  0.82702700  0.65405400  0.60960200  1
  Zr  Zr3  1  0.17865100  0.82134900  0.38727700  1
  Zr  Zr4  1  0.64269800  0.82134900  0.38727700  1
  Zr  Zr5  1  0.17865100  0.35730200  0.38727700  1
  Zr  Zr6  1  0.17297300  0.82702700  0.10960200  1
  Zr  Zr7  1  0.65405400  0.82702700  0.10960200  1
  Zr  Zr8  1  0.17297300  0.34594600  0.10960200  1
  Zr  Zr9  1  0.82134900  0.17865100  0.88727700  1
  Zr  Zr10  1  0.35730200  0.17865100  0.88727700  1
  Zr  Zr11  1  0.82134900  0.64269800  0.88727700  1
  Pb  Pb0  1  0.66666700  0.33333300  0.24293700  1
  Pb  Pb1  1  0.33333300  0.66666700  0.74293700  1
  O  O0  1  0.66666700  0.33333300  0.59000100  1
  O  O1  1  0.33333300  0.66666700  0.41081800  1
  O  O2  1  0.33333300  0.66666700  0.09000100  1
  O  O3  1  0.66666700  0.33333300  0.91081800  1
  F  F0  1  0.32974800  0.99836800  0.49850400  1
  F  F1  1  0.66862100  0.67025200  0.49850400  1
  F  F2  1  0.00163200  0.33137900  0.49850400  1
  F  F3  1  0.66862100  0.99836800  0.49850400  1
  F  F4  1  0.00163200  0.67025200  0.49850400  1
  F  F5  1  0.32974800  0.33137900  0.49850400  1
  F  F6  1  0.67025200  0.00163200  0.99850400  1
  F  F7  1  0.33137900  0.32974800  0.99850400  1
  F  F8  1  0.99836800  0.66862100  0.99850400  1
  F  F9  1  0.33137900  0.00163200  0.99850400  1
  F  F10  1  0.99836800  0.32974800  0.99850400  1
  F  F11  1  0.67025200  0.66862100  0.99850400  1
  F  F12  1  0.87653300  0.12346700  0.16054200  1
  F  F13  1  0.24693500  0.12346700  0.16054200  1
  F  F14  1  0.87653300  0.75306500  0.16054200  1
  F  F15  1  0.11309500  0.88690500  0.85320200  1
  F  F16  1  0.77381000  0.88690500  0.85320200  1
  F  F17  1  0.11309500  0.22619000  0.85320200  1
  F  F18  1  0.12346700  0.87653300  0.66054200  1
  F  F19  1  0.75306500  0.87653300  0.66054200  1
  F  F20  1  0.12346700  0.24693500  0.66054200  1
  F  F21  1  0.88690500  0.11309500  0.35320200  1
  F  F22  1  0.22619000  0.11309500  0.35320200  1
  F  F23  1  0.88690500  0.77381000  0.35320200  1
  F  F24  1  0.80450900  0.19549100  0.74967900  1
  F  F25  1  0.39098300  0.19549100  0.74967900  1
  F  F26  1  0.80450900  0.60901700  0.74967900  1
  F  F27  1  0.19549100  0.80450900  0.24967900  1
  F  F28  1  0.60901700  0.80450900  0.24967900  1
  F  F29  1  0.19549100  0.39098300  0.24967900  1
  F  F30  1  0.49329200  0.50670800  0.64683800  1
  F  F31  1  0.01341700  0.50670800  0.64683800  1
  F  F32  1  0.49329200  0.98658300  0.64683800  1
  F  F33  1  0.50742500  0.49257500  0.35042900  1
  F  F34  1  0.98515000  0.49257500  0.35042900  1
  F  F35  1  0.50742500  0.01485000  0.35042900  1
  F  F36  1  0.50670800  0.49329200  0.14683800  1
  F  F37  1  0.98658300  0.49329200  0.14683800  1
  F  F38  1  0.50670800  0.01341700  0.14683800  1
  F  F39  1  0.49257500  0.50742500  0.85042900  1
  F  F40  1  0.01485000  0.50742500  0.85042900  1
  F  F41  1  0.49257500  0.98515000  0.85042900  1
  F  F42  1  0.00000000  0.00000000  0.53909500  1
  F  F43  1  0.00000000  0.00000000  0.03909500  1
loop_
_geom_bond_atom_site_label_1
_geom_bond_atom_site_label_2
_geom_bond_distance
_geom_bond_site_symmetry_2
O0 Zr0 2.141365 1_555
O0 Zr2 2.141372 1_555
O0 Zr1 2.141372 1_555
O1 Zr3 2.076589 1_555
O1 Zr4 2.076595 1_555
O1 Zr5 2.076595 1_555
O2 Zr6 2.141365 1_555
O2 Zr7 2.141372 1_555
O2 Zr8 2.141372 1_555
O3 Zr9 2.076589 1_555
O3 Zr11 2.076595 1_555
O3 Zr10 2.076595 1_555
F0 Zr3 2.115460 1_555
F0 Zr1 2.120792 1_565
F1 Zr4 2.115462 1_555
F1 Zr2 2.120787 1_555
F2 Zr5 2.115458 1_555
F2 Zr0 2.120790 1_455
F3 Zr4 2.115458 1_555
F3 Zr0 2.120790 1_565
F4 Zr3 2.115460 1_555
F4 Zr2 2.120792 1_455
F5 Zr5 2.115462 1_555
F5 Zr1 2.120787 1_555
F6 Zr9 2.115460 1_555
F6 Zr7 2.120792 1_546
F7 Zr10 2.115462 1_555
F7 Zr8 2.120787 1_556
F8 Zr11 2.115458 1_555
F8 Zr6 2.120790 1_656
F9 Zr10 2.115458 1_555
F9 Zr6 2.120790 1_546
F10 Zr9 2.115460 1_555
F10 Zr8 2.120792 1_656
F11 Zr11 2.115462 1_555
F11 Zr7 2.120787 1_556
F12 Zr7 2.183111 1_545
F12 Zr8 2.183111 1_655
F13 Zr6 2.183109 1_545
F13 Zr8 2.183116 1_555
F14 Zr6 2.183109 1_655
F14 Zr7 2.183116 1_555
F15 Zr10 2.134013 1_565
F15 Zr11 2.134013 1_455
F16 Zr11 2.134013 1_555
F16 Zr9 2.134013 1_565
F17 Zr10 2.134013 1_555
F17 Zr9 2.134013 1_455
F18 Zr2 2.183111 1_455
F18 Zr1 2.183111 1_565
F19 Zr0 2.183109 1_565
F19 Zr2 2.183116 1_555
F20 Zr0 2.183109 1_455
F20 Zr1 2.183116 1_555
F21 Zr5 2.134013 1_655
F21 Zr4 2.134013 1_545
F22 Zr5 2.134013 1_555
F22 Zr3 2.134013 1_545
F23 Zr4 2.134013 1_555
F23 Zr3 2.134013 1_655
F24 Zr9 2.110168 1_555
F24 Zr0 2.156843 1_555
F25 Zr10 2.110169 1_555
F25 Zr1 2.156844 1_555
F26 Zr11 2.110169 1_555
F26 Zr2 2.156844 1_555
F27 Zr3 2.110168 1_555
F27 Zr6 2.156843 1_555
F28 Zr4 2.110169 1_555
F28 Zr7 2.156844 1_555
F29 Zr5 2.110169 1_555
F29 Zr8 2.156844 1_555
F30 Zr2 2.283216 1_555
F30 Zr1 2.283216 1_555
F30 Pb1 2.573206 1_555
F31 Zr0 2.283216 1_455
F31 Zr2 2.283222 1_455
F31 Pb1 2.573195 1_555
F32 Zr0 2.283216 1_565
F32 Zr1 2.283222 1_565
F32 Pb1 2.573195 1_555
F33 Zr5 2.256084 1_555
F33 Zr4 2.256084 1_555
F33 Pb0 2.668486 1_555
F34 Zr5 2.256084 1_655
F34 Zr3 2.256084 1_655
F34 Pb0 2.668480 1_555
F35 Zr4 2.256084 1_545
F35 Zr3 2.256084 1_545
F35 Pb0 2.668480 1_555
F36 Zr7 2.283216 1_555
F36 Zr8 2.283216 1_555
F36 Pb0 2.573206 1_555
F37 Zr6 2.283216 1_655
F37 Zr8 2.283222 1_655
F37 Pb0 2.573195 1_555
F38 Zr6 2.283216 1_545
F38 Zr7 2.283222 1_545
F38 Pb0 2.573195 1_555
F39 Zr11 2.256084 1_555
F39 Zr10 2.256084 1_555
F39 Pb1 2.668486 1_555
F40 Zr11 2.256084 1_455
F40 Zr9 2.256084 1_455
F40 Pb1 2.668480 1_555
F41 Zr10 2.256084 1_565
F41 Zr9 2.256084 1_565
F41 Pb1 2.668480 1_555
F42 Zr0 2.527316 1_455
F42 Zr1 2.527316 1_555
F42 Zr2 2.527316 1_445
F43 Zr6 2.527316 1_545
F43 Zr8 2.527316 1_555
F43 Zr7 2.527316 1_445
