# generated using pymatgen
data_Li9Mn2Co5O16
_symmetry_space_group_name_H-M   'P 1'
_cell_length_a   2.87677690
_cell_length_b   39.56362131
_cell_length_c   2.97391991
_cell_angle_alpha   86.65106459
_cell_angle_beta   118.92520843
_cell_angle_gamma   87.91647621
_symmetry_Int_Tables_number   1
_chemical_formula_structural   Li9Mn2Co5O16
_chemical_formula_sum   'Li9 Mn2 Co5 O16'
_cell_volume   294.93859733
_cell_formula_units_Z   1
loop_
 _symmetry_equiv_pos_site_id
 _symmetry_equiv_pos_as_xyz
  1  'x, y, z'
loop_
 _atom_site_type_symbol
 _atom_site_label
 _atom_site_symmetry_multiplicity
 _atom_site_fract_x
 _atom_site_fract_y
 _atom_site_fract_z
 _atom_site_occupancy
  Li  Li0  1  0.24971576  0.06242783  0.56185934  1
  Li  Li1  1  0.73985598  0.19180775  0.67151971  1
  Li  Li2  1  0.25727544  0.31157768  0.82612856  1
  Li  Li3  1  0.74979597  0.43683884  0.93643078  1
  Li  Li4  1  0.25062291  0.56232134  0.06356715  1
  Li  Li5  1  0.74993477  0.68777098  0.18764052  1
  Li  Li6  1  0.25100044  0.81190490  0.31390579  1
  Li  Li7  1  0.75312512  0.93558890  0.44183914  1
  Li  Li8  1  0.00042195  0.25003118  0.25087507  1
  Mn  Mn0  1  0.00115140  0.99956159  0.00186439  1
  Mn  Mn1  1  0.49641864  0.12522302  0.11806029  1
  Co  Co0  1  0.49884008  0.37529610  0.37297625  1
  Co  Co1  1  0.00122028  0.49967855  0.50211911  1
  Co  Co2  1  0.49991876  0.62524196  0.62507948  1
  Co  Co3  1  0.99987208  0.74998894  0.74973311  1
  Co  Co4  1  0.50207886  0.87418673  0.87834446  1
  O  O0  1  0.60140960  0.02880890  0.23162811  1
  O  O1  1  0.11083805  0.15228062  0.37395672  1
  O  O2  1  0.62294720  0.28215051  0.52804492  1
  O  O3  1  0.12883230  0.40396969  0.66163429  1
  O  O4  1  0.62805716  0.52873834  0.78485266  1
  O  O5  1  0.12626040  0.65422191  0.90674270  1
  O  O6  1  0.63340104  0.77891844  0.04572052  1
  O  O7  1  0.12859228  0.90369282  0.16087738  1
  O  O8  1  0.89109959  0.09625800  0.87845718  1
  O  O9  1  0.37733104  0.21875903  0.97342110  1
  O  O10  1  0.86797013  0.34787071  0.08381096  1
  O  O11  1  0.37318178  0.47088380  0.21724737  1
  O  O12  1  0.87151519  0.59633415  0.33936453  1
  O  O13  1  0.36597860  0.72116052  0.45311771  1
  O  O14  1  0.87296400  0.84555007  0.59147807  1
  O  O15  1  0.39837322  0.97095621  0.76770265  1
loop_
_geom_bond_atom_site_label_1
_geom_bond_atom_site_label_2
_geom_bond_distance
_geom_bond_site_symmetry_2
Li0 O0 2.098427 1_556
Li0 O8 2.130700 1_454
Li0 O8 2.174555 1_555
Li0 O8 2.174555 1_455
Li0 O0 2.184757 1_555
Li0 O0 2.184757 1_455
Li1 O9 1.991853 1_555
Li1 O9 1.991853 1_655
Li1 O9 2.025053 1_554
Li1 O1 2.299741 1_656
Li1 O1 2.306853 1_555
Li1 O1 2.306853 1_655
Li2 O2 2.044877 1_555
Li2 O2 2.044877 1_455
Li2 O2 2.079023 1_556
Li2 O10 2.178332 1_456
Li2 O10 2.178332 1_556
Li2 O10 2.304476 1_455
Li3 O3 2.104990 1_555
Li3 O3 2.104990 1_655
Li3 O11 2.141513 1_656
Li3 O11 2.141513 1_556
Li3 O3 2.196768 1_656
Li3 O11 2.208684 1_555
Li4 O4 2.127367 1_554
Li4 O4 2.127367 1_454
Li4 O12 2.135536 1_555
Li4 O12 2.135536 1_455
Li4 O4 2.203325 1_555
Li4 O12 2.218402 1_454
Li5 O13 2.108972 1_555
Li5 O13 2.108972 1_655
Li5 O5 2.128744 1_554
Li5 O5 2.128744 1_654
Li5 O5 2.198072 1_655
Li5 O13 2.227003 1_554
Li6 O6 2.101289 1_455
Li6 O6 2.101289 1_555
Li6 O14 2.127802 1_455
Li6 O14 2.127802 1_555
Li6 O14 2.207002 1_454
Li6 O6 2.213077 1_556
Li7 O7 2.086724 1_555
Li7 O7 2.086724 1_655
Li7 O15 2.146626 1_554
Li7 O7 2.164044 1_656
Li7 O15 2.224828 1_655
Li7 O15 2.224828 1_555
Li8 O9 2.067471 1_454
Li8 O9 2.067471 1_554
Li8 O2 2.088387 1_555
Li8 O2 2.088387 1_455
Li8 O9 2.159119 1_555
Li8 O2 2.176561 1_454
Mn0 O15 1.959433 1_454
Mn0 O15 1.959433 1_554
Mn0 O0 1.970786 1_565
Mn0 O0 1.970786 1_465
Mn0 O15 2.204782 1_555
Mn0 O0 2.225712 1_464
Mn1 O1 1.944454 1_655
Mn1 O1 1.944454 1_555
Mn1 O8 1.973205 1_554
Mn1 O8 1.973205 1_454
Mn1 O1 2.129731 1_554
Mn1 O8 2.198876 1_555
Co0 O10 1.988237 1_455
Co0 O10 1.988237 1_555
Co0 O3 2.016620 1_655
Co0 O3 2.016620 1_555
Co0 O10 2.061686 1_556
Co0 O3 2.085370 1_554
Co1 O11 2.015342 1_555
Co1 O11 2.015342 1_455
Co1 O4 2.019305 1_555
Co1 O4 2.019305 1_455
Co1 O11 2.095890 1_556
Co1 O4 2.105463 1_454
Co2 O5 2.016258 1_555
Co2 O5 2.016258 1_655
Co2 O12 2.018929 1_455
Co2 O12 2.018929 1_555
Co2 O12 2.096134 1_556
Co2 O5 2.106327 1_554
Co3 O13 2.029071 1_555
Co3 O13 2.029071 1_655
Co3 O6 2.030750 1_556
Co3 O6 2.030750 1_656
Co3 O13 2.070881 1_656
Co3 O6 2.074142 1_555
Co4 O14 2.013791 1_455
Co4 O14 2.013791 1_555
Co4 O7 2.029737 1_556
Co4 O7 2.029737 1_656
Co4 O14 2.088613 1_556
Co4 O7 2.114227 1_555
