# generated using pymatgen
data_Tl4Pd15Pb
_symmetry_space_group_name_H-M   'P 1'
_cell_length_a   4.10547500
_cell_length_b   4.10547500
_cell_length_c   20.48827500
_cell_angle_alpha   90.00000000
_cell_angle_beta   90.00000000
_cell_angle_gamma   90.00000000
_symmetry_Int_Tables_number   1
_chemical_formula_structural   Tl4Pd15Pb
_chemical_formula_sum   'Tl4 Pd15 Pb1'
_cell_volume   345.32833800
_cell_formula_units_Z   1
loop_
 _symmetry_equiv_pos_site_id
 _symmetry_equiv_pos_as_xyz
  1  'x, y, z'
loop_
 _atom_site_type_symbol
 _atom_site_label
 _atom_site_symmetry_multiplicity
 _atom_site_fract_x
 _atom_site_fract_y
 _atom_site_fract_z
 _atom_site_occupancy
  Tl  Tl0  1  0.00000000  0.00000000  0.20054200  1
  Tl  Tl1  1  0.00000000  0.00000000  0.39995900  1
  Tl  Tl2  1  0.00000000  0.00000000  0.60004100  1
  Tl  Tl3  1  0.00000000  0.00000000  0.79945800  1
  Pd  Pd0  1  0.50000000  0.50000000  0.00000000  1
  Pd  Pd1  1  0.50000000  0.50000000  0.19957200  1
  Pd  Pd2  1  0.50000000  0.50000000  0.39998700  1
  Pd  Pd3  1  0.50000000  0.50000000  0.60001300  1
  Pd  Pd4  1  0.50000000  0.50000000  0.80042800  1
  Pd  Pd5  1  0.50000000  0.00000000  0.10019700  1
  Pd  Pd6  1  0.50000000  0.00000000  0.30019900  1
  Pd  Pd7  1  0.50000000  0.00000000  0.50000000  1
  Pd  Pd8  1  0.50000000  0.00000000  0.69980100  1
  Pd  Pd9  1  0.50000000  0.00000000  0.89980300  1
  Pd  Pd10  1  0.00000000  0.50000000  0.10019700  1
  Pd  Pd11  1  0.00000000  0.50000000  0.30019900  1
  Pd  Pd12  1  0.00000000  0.50000000  0.50000000  1
  Pd  Pd13  1  0.00000000  0.50000000  0.69980100  1
  Pd  Pd14  1  0.00000000  0.50000000  0.89980300  1
  Pb  Pb0  1  0.00000000  0.00000000  0.00000000  1
loop_
_geom_bond_atom_site_label_1
_geom_bond_atom_site_label_2
_geom_bond_distance
_geom_bond_site_symmetry_2
Pd0 Pd5 2.903098 1_565
Pd0 Pd10 2.903098 1_655
Pd0 Pd10 2.903098 1_555
Pd0 Pd5 2.903098 1_555
Pd0 Pd9 2.903098 1_564
Pd0 Pd14 2.903098 1_654
Pd0 Pd14 2.903098 1_554
Pd0 Pd9 2.903098 1_554
Pd1 Pd5 2.891214 1_565
Pd1 Pd10 2.891214 1_555
Pd1 Pd5 2.891214 1_555
Pd1 Pd10 2.891214 1_655
Pd1 Tl0 2.903077 1_555
Pd1 Tl0 2.903077 1_565
Pd1 Tl0 2.903077 1_655
Pd1 Tl0 2.903077 1_665
Pd1 Pd11 2.909335 1_655
Pd1 Pd6 2.909335 1_555
Pd1 Pd6 2.909335 1_565
Pd1 Pd11 2.909335 1_555
Pd2 Pd6 2.897179 1_555
Pd2 Pd6 2.897179 1_565
Pd2 Pd7 2.900434 1_555
Pd2 Pd7 2.900434 1_565
Pd2 Tl1 2.903009 1_555
Pd2 Tl1 2.903009 1_655
Pd2 Tl1 2.903009 1_565
Pd2 Tl1 2.903009 1_665
Pd3 Pd8 2.897179 1_555
Pd3 Pd8 2.897179 1_565
Pd3 Pd7 2.900434 1_555
Pd3 Pd7 2.900434 1_565
Pd3 Tl2 2.903009 1_555
Pd3 Tl2 2.903009 1_565
Pd3 Tl2 2.903009 1_665
Pd3 Tl2 2.903009 1_655
Pd4 Pd9 2.891214 1_555
Pd4 Pd9 2.891214 1_565
Pd4 Tl3 2.903077 1_565
Pd4 Tl3 2.903077 1_655
Pd4 Tl3 2.903077 1_665
Pd4 Tl3 2.903077 1_555
Pd4 Pd8 2.909335 1_555
Pd4 Pd8 2.909335 1_565
Pd5 Tl0 2.905243 1_655
Pd5 Tl0 2.905243 1_555
Pd6 Tl0 2.895286 1_555
Pd6 Tl0 2.895286 1_655
Pd6 Tl1 2.896774 1_655
Pd6 Tl1 2.896774 1_555
Pd7 Tl2 2.900839 1_655
Pd7 Tl2 2.900839 1_555
Pd7 Tl1 2.900839 1_555
Pd7 Tl1 2.900839 1_655
Pd8 Tl3 2.895286 1_555
Pd8 Tl3 2.895286 1_655
Pd8 Tl2 2.896774 1_555
Pd8 Tl2 2.896774 1_655
Pd9 Tl3 2.905243 1_555
Pd9 Tl3 2.905243 1_655
Pd10 Pd5 2.903009 1_565
Pd10 Pd5 2.903009 1_455
Pd10 Pd5 2.903009 1_465
Pd10 Pd5 2.903009 1_555
Pd10 Tl0 2.905243 1_555
Pd10 Tl0 2.905243 1_565
Pd11 Tl0 2.895286 1_555
Pd11 Tl0 2.895286 1_565
Pd11 Tl1 2.896774 1_555
Pd11 Tl1 2.896774 1_565
Pd11 Pd2 2.897179 1_555
Pd11 Pd2 2.897179 1_455
Pd11 Pd6 2.903009 1_565
Pd11 Pd6 2.903009 1_555
Pd11 Pd6 2.903009 1_455
Pd11 Pd6 2.903009 1_465
Pd12 Pd2 2.900434 1_455
Pd12 Pd2 2.900434 1_555
Pd12 Pd3 2.900434 1_455
Pd12 Pd3 2.900434 1_555
Pd12 Tl2 2.900839 1_555
Pd12 Tl2 2.900839 1_565
Pd12 Tl1 2.900839 1_555
Pd12 Tl1 2.900839 1_565
Pd12 Pd7 2.903009 1_455
Pd12 Pd7 2.903009 1_555
Pd12 Pd7 2.903009 1_465
Pd12 Pd7 2.903009 1_565
Pd13 Tl3 2.895286 1_555
Pd13 Tl3 2.895286 1_565
Pd13 Tl2 2.896774 1_555
Pd13 Tl2 2.896774 1_565
Pd13 Pd3 2.897179 1_455
Pd13 Pd3 2.897179 1_555
Pd13 Pd8 2.903009 1_565
Pd13 Pd8 2.903009 1_465
Pd13 Pd8 2.903009 1_455
Pd13 Pd8 2.903009 1_555
Pd13 Pd4 2.909335 1_555
Pd13 Pd4 2.909335 1_455
Pd14 Pd4 2.891214 1_455
Pd14 Pd4 2.891214 1_555
Pd14 Pd9 2.903009 1_565
Pd14 Pd9 2.903009 1_555
Pd14 Pd9 2.903009 1_455
Pd14 Pd9 2.903009 1_465
Pd14 Tl3 2.905243 1_555
Pd14 Tl3 2.905243 1_565
Pb0 Pd0 2.903009 1_555
Pb0 Pd0 2.903009 1_455
Pb0 Pd0 2.903009 1_545
Pb0 Pd0 2.903009 1_445
Pb0 Pd10 2.903098 1_555
Pb0 Pd5 2.903098 1_455
Pb0 Pd5 2.903098 1_555
Pb0 Pd10 2.903098 1_545
Pb0 Pd14 2.903098 1_554
Pb0 Pd14 2.903098 1_544
Pb0 Pd9 2.903098 1_454
Pb0 Pd9 2.903098 1_554
