# generated using pymatgen
data_Pr(InCu)6
_symmetry_space_group_name_H-M   'P 1'
_cell_length_a   7.13018608
_cell_length_b   7.13018608
_cell_length_c   7.13018608
_cell_angle_alpha   133.80612653
_cell_angle_beta   99.23638848
_cell_angle_gamma   98.46884295
_symmetry_Int_Tables_number   1
_chemical_formula_structural   Pr(InCu)6
_chemical_formula_sum   'Pr1 In6 Cu6'
_cell_volume   240.63077727
_cell_formula_units_Z   1
loop_
 _symmetry_equiv_pos_site_id
 _symmetry_equiv_pos_as_xyz
  1  'x, y, z'
loop_
 _atom_site_type_symbol
 _atom_site_label
 _atom_site_symmetry_multiplicity
 _atom_site_fract_x
 _atom_site_fract_y
 _atom_site_fract_z
 _atom_site_occupancy
  Pr  Pr0  1  0.00000000  0.00000000  0.00000000  1
  In  In0  1  0.66073000  0.00000000  0.66073000  1
  In  In1  1  0.33927000  0.00000000  0.33927000  1
  In  In2  1  0.65564500  0.65564500  0.00000000  1
  In  In3  1  0.34435500  0.34435500  0.00000000  1
  In  In4  1  0.18784200  0.68784200  0.50000000  1
  In  In5  1  0.81215800  0.31215800  0.50000000  1
  Cu  Cu0  1  0.00000000  0.00000000  0.50000000  1
  Cu  Cu1  1  0.00000000  0.50000000  0.00000000  1
  Cu  Cu2  1  0.50000000  0.50000000  0.50000000  1
  Cu  Cu3  1  0.50000000  0.00000000  0.00000000  1
  Cu  Cu4  1  0.23707400  0.50000000  0.73707400  1
  Cu  Cu5  1  0.76292600  0.50000000  0.26292600  1
loop_
_geom_bond_atom_site_label_1
_geom_bond_atom_site_label_2
_geom_bond_distance
_geom_bond_site_symmetry_2
In0 In1 2.969963 1_555
In0 Pr0 3.134509 1_656
In1 Pr0 3.134509 1_555
In2 Pr0 3.206473 1_665
In3 Pr0 3.206473 1_555
In4 Pr0 3.298944 1_566
In4 Pr0 3.298944 1_555
In5 Pr0 3.298944 1_666
In5 Pr0 3.298944 1_655
Cu0 Cu4 2.718313 1_555
Cu0 Cu5 2.718313 1_445
Cu0 In5 2.761492 1_455
Cu0 In4 2.761492 1_545
Cu0 Cu1 2.797086 1_556
Cu0 Cu1 2.797086 1_545
Cu0 In0 2.838168 1_455
Cu0 In1 2.838168 1_555
Cu0 In2 2.839501 1_445
Cu0 In3 2.839501 1_556
Cu0 Pr0 3.565093 1_555
Cu0 Pr0 3.565093 1_556
Cu1 Cu4 2.718313 1_554
Cu1 Cu5 2.718313 1_455
Cu1 In4 2.761492 1_555
Cu1 In5 2.761492 1_454
Cu1 In1 2.838168 1_565
Cu1 In0 2.838168 1_454
Cu1 In2 2.839501 1_455
Cu1 In3 2.839501 1_555
Cu1 Pr0 3.565093 1_565
Cu1 Pr0 3.565093 1_555
Cu2 Cu4 2.718313 1_555
Cu2 Cu5 2.718313 1_555
Cu2 In4 2.761492 1_555
Cu2 In5 2.761492 1_555
Cu2 Cu3 2.797086 1_555
Cu2 Cu3 2.797086 1_566
Cu2 In0 2.838168 1_565
Cu2 In1 2.838168 1_555
Cu2 In2 2.839501 1_556
Cu2 In3 2.839501 1_555
Cu2 Pr0 3.565093 1_555
Cu2 Pr0 3.565093 1_666
Cu3 Cu5 2.718313 1_555
Cu3 Cu4 2.718313 1_544
Cu3 In4 2.761492 1_544
Cu3 In5 2.761492 1_555
Cu3 In0 2.838168 1_554
Cu3 In1 2.838168 1_555
Cu3 In2 2.839501 1_545
Cu3 In3 2.839501 1_555
Cu3 Pr0 3.565093 1_555
Cu3 Pr0 3.565093 1_655
Cu4 In5 2.803008 1_455
Cu4 In4 2.803008 1_555
Cu4 In3 2.828659 1_556
Cu4 In2 2.828659 1_556
Cu4 In1 2.952148 1_566
Cu4 In1 2.952148 1_555
Cu4 Pr0 3.552633 1_555
Cu4 Pr0 3.552633 1_566
Cu5 In5 2.803008 1_555
Cu5 In4 2.803008 1_655
Cu5 In3 2.828659 1_555
Cu5 In2 2.828659 1_555
Cu5 In0 2.952148 1_565
Cu5 In0 2.952148 1_554
Cu5 Pr0 3.552633 1_666
Cu5 Pr0 3.552633 1_655
