# generated using pymatgen
data_Li3Fe3O8
_symmetry_space_group_name_H-M   'P 1'
_cell_length_a   5.89395222
_cell_length_b   10.17280175
_cell_length_c   5.84040486
_cell_angle_alpha   73.34096428
_cell_angle_beta   119.67349083
_cell_angle_gamma   105.85119531
_symmetry_Int_Tables_number   1
_chemical_formula_structural   Li3Fe3O8
_chemical_formula_sum   'Li6 Fe6 O16'
_cell_volume   287.84182828
_cell_formula_units_Z   2
loop_
 _symmetry_equiv_pos_site_id
 _symmetry_equiv_pos_as_xyz
  1  'x, y, z'
loop_
 _atom_site_type_symbol
 _atom_site_label
 _atom_site_symmetry_multiplicity
 _atom_site_fract_x
 _atom_site_fract_y
 _atom_site_fract_z
 _atom_site_occupancy
  Li  Li0  1  0.49822000  0.49979500  0.50246900  1
  Li  Li1  1  0.00122900  0.99927400  0.99749000  1
  Li  Li2  1  0.70099800  0.07819100  0.31056000  1
  Li  Li3  1  0.20076400  0.57816400  0.81201900  1
  Li  Li4  1  0.79872600  0.42093800  0.18953000  1
  Li  Li5  1  0.29916600  0.92097100  0.68830700  1
  Fe  Fe0  1  0.74979300  0.74955300  0.25008400  1
  Fe  Fe1  1  0.24959800  0.24952800  0.74976500  1
  Fe  Fe2  1  0.24972100  0.24949600  0.25009900  1
  Fe  Fe3  1  0.74984300  0.74946800  0.75025100  1
  Fe  Fe4  1  0.75015300  0.24964700  0.75009500  1
  Fe  Fe5  1  0.25026100  0.74953800  0.25032500  1
  O  O0  1  0.90267500  0.14816500  0.10329500  1
  O  O1  1  0.40518900  0.64620700  0.60809100  1
  O  O2  1  0.59693900  0.35097800  0.39669500  1
  O  O3  1  0.09456000  0.85278400  0.89220300  1
  O  O4  1  0.36562700  0.13214700  0.63743200  1
  O  O5  1  0.86163100  0.63309800  0.09306600  1
  O  O6  1  0.13420200  0.36695800  0.86268300  1
  O  O7  1  0.63830000  0.86593600  0.40731500  1
  O  O8  1  0.35066400  0.14317200  0.10130100  1
  O  O9  1  0.84989100  0.64245300  0.60369200  1
  O  O10  1  0.90399400  0.14638500  0.65086600  1
  O  O11  1  0.39751000  0.64739100  0.15006300  1
  O  O12  1  0.14899700  0.35581000  0.39880100  1
  O  O13  1  0.65001700  0.85641900  0.89665400  1
  O  O14  1  0.59565000  0.35273300  0.84915300  1
  O  O15  1  0.10236500  0.85181600  0.35021900  1
loop_
_geom_bond_atom_site_label_1
_geom_bond_atom_site_label_2
_geom_bond_distance
_geom_bond_site_symmetry_2
Li0 O1 2.051192 1_555
Li0 O14 2.061289 1_555
Li0 O11 2.085259 1_555
Li0 O12 2.091947 1_555
Li0 O2 2.094114 1_555
Li0 O9 2.094570 1_555
Li1 O3 2.051727 1_555
Li1 O10 2.061336 1_465
Li1 O15 2.085727 1_556
Li1 O8 2.092307 1_566
Li1 O13 2.093815 1_455
Li1 O0 2.094291 1_466
Li2 O10 1.961034 1_555
Li2 O0 1.963007 1_555
Li2 O8 1.994509 1_555
Li2 O7 2.046813 1_545
Li3 O11 1.955203 1_556
Li3 O1 1.960087 1_555
Li3 O9 1.994024 1_455
Li3 O6 2.036596 1_555
Li4 O14 1.961430 1_554
Li4 O2 1.963056 1_555
Li4 O12 1.994860 1_655
Li4 O5 2.045846 1_555
Li5 O15 1.955054 1_555
Li5 O3 1.960826 1_555
Li5 O13 1.995086 1_555
Li5 O4 2.036241 1_565
Fe0 O13 1.910297 1_554
Fe0 O9 1.911776 1_555
Fe0 O11 1.923764 1_555
Fe0 O15 1.925386 1_655
Fe0 O7 2.079096 1_555
Fe0 O5 2.080126 1_555
Fe1 O12 1.896915 1_555
Fe1 O10 1.897051 1_455
Fe1 O14 1.899114 1_555
Fe1 O8 1.899540 1_556
Fe1 O4 1.914016 1_555
Fe1 O6 1.914213 1_555
Fe2 O0 1.897402 1_455
Fe2 O2 1.898610 1_555
Fe2 O12 1.917321 1_555
Fe2 O8 1.918719 1_555
Fe2 O4 2.091953 1_555
Fe2 O6 2.092844 1_554
Fe3 O1 1.893076 1_555
Fe3 O3 1.893474 1_655
Fe3 O5 1.898744 1_556
Fe3 O7 1.899664 1_555
Fe3 O13 1.908458 1_555
Fe3 O9 1.910561 1_555
Fe4 O0 1.891843 1_556
Fe4 O2 1.892449 1_555
Fe4 O10 1.910801 1_555
Fe4 O14 1.911761 1_555
Fe4 O6 2.116794 1_655
Fe4 O4 2.119604 1_555
Fe5 O11 1.876322 1_555
Fe5 O15 1.878775 1_555
Fe5 O1 1.918508 1_555
Fe5 O3 1.920037 1_554
Fe5 O7 2.130805 1_555
Fe5 O5 2.133530 1_455
