# generated using pymatgen
data_Y2Zn3
_symmetry_space_group_name_H-M   'P 1'
_cell_length_a   5.59866139
_cell_length_b   5.61842219
_cell_length_c   19.46941802
_cell_angle_alpha   89.99548583
_cell_angle_beta   90.00030552
_cell_angle_gamma   119.80438388
_symmetry_Int_Tables_number   1
_chemical_formula_structural   Y2Zn3
_chemical_formula_sum   'Y8 Zn12'
_cell_volume   531.41629146
_cell_formula_units_Z   4
loop_
 _symmetry_equiv_pos_site_id
 _symmetry_equiv_pos_as_xyz
  1  'x, y, z'
loop_
 _atom_site_type_symbol
 _atom_site_label
 _atom_site_symmetry_multiplicity
 _atom_site_fract_x
 _atom_site_fract_y
 _atom_site_fract_z
 _atom_site_occupancy
  Y  Y0  1  0.00001200  0.99955900  0.58439500  1
  Y  Y1  1  0.00006700  0.00097900  0.41569800  1
  Y  Y2  1  0.99996500  0.00045400  0.08424800  1
  Y  Y3  1  0.99993900  0.99905600  0.91555800  1
  Y  Y4  1  0.66723700  0.33487300  0.63245200  1
  Y  Y5  1  0.33273600  0.66522200  0.36765200  1
  Y  Y6  1  0.33265700  0.66500000  0.13237300  1
  Y  Y7  1  0.66726900  0.33481700  0.86759300  1
  Zn  Zn0  1  0.50028700  0.50017600  0.99991300  1
  Zn  Zn1  1  0.99992300  0.50031800  0.99996000  1
  Zn  Zn2  1  0.49987400  0.99999600  0.00008400  1
  Zn  Zn3  1  0.49983500  0.49976300  0.49989700  1
  Zn  Zn4  1  0.99986000  0.49958900  0.49995200  1
  Zn  Zn5  1  0.50022900  0.00019100  0.50006900  1
  Zn  Zn6  1  0.85127300  0.70212100  0.74998600  1
  Zn  Zn7  1  0.84974200  0.14836500  0.75005800  1
  Zn  Zn8  1  0.29823300  0.14776400  0.75004200  1
  Zn  Zn9  1  0.14876800  0.29785900  0.25000200  1
  Zn  Zn10  1  0.15026200  0.85165900  0.25004500  1
  Zn  Zn11  1  0.70183100  0.85224100  0.25002300  1
loop_
_geom_bond_atom_site_label_1
_geom_bond_atom_site_label_2
_geom_bond_distance
_geom_bond_site_symmetry_2
Y0 Zn5 3.244791 1_565
Y0 Zn5 3.245724 1_465
Y0 Zn4 3.254534 1_455
Y0 Zn4 3.255332 1_465
Y0 Zn3 3.258342 1_565
Y0 Zn3 3.258406 1_455
Y0 Y1 3.284441 1_565
Y0 Y4 3.372816 1_455
Y0 Y4 3.373934 1_565
Y0 Y4 3.374201 1_465
Y0 Zn6 3.534948 1_455
Y0 Zn8 3.535579 1_565
Y0 Zn7 3.536867 1_465
Y1 Zn5 3.243029 1_455
Y1 Zn4 3.246943 1_455
Y1 Zn5 3.248375 1_555
Y1 Zn3 3.252011 1_555
Y1 Zn3 3.258874 1_445
Y1 Zn4 3.259213 1_445
Y1 Y5 3.370683 1_555
Y1 Y5 3.374388 1_445
Y1 Y5 3.375722 1_545
Y1 Zn9 3.535699 1_555
Y1 Zn11 3.536110 1_445
Y1 Zn10 3.537565 1_545
Y2 Zn2 3.242991 1_545
Y2 Zn2 3.244334 1_645
Y2 Zn1 3.252739 1_554
Y2 Zn1 3.254080 1_544
Y2 Zn0 3.256767 1_654
Y2 Zn0 3.256781 1_544
Y2 Y3 3.284306 1_544
Y2 Y6 3.372686 1_655
Y2 Y6 3.374622 1_545
Y2 Y6 3.374750 1_645
Y2 Zn11 3.537576 1_545
Y2 Zn9 3.538009 1_655
Y2 Zn10 3.539149 1_645
Y3 Zn2 3.244647 1_656
Y3 Zn1 3.248261 1_555
Y3 Zn2 3.249816 1_556
Y3 Zn0 3.253289 1_555
Y3 Zn0 3.260655 1_665
Y3 Zn1 3.260802 1_565
Y3 Y7 3.370385 1_555
Y3 Y7 3.373875 1_665
Y3 Y7 3.375221 1_565
Y3 Zn8 3.533298 1_665
Y3 Zn6 3.533838 1_555
Y3 Zn7 3.534703 1_565
Y4 Zn6 2.905646 1_555
Y4 Zn7 2.906696 1_555
Y4 Zn8 2.907800 1_555
Y4 Zn3 3.042983 1_555
Y4 Zn4 3.043963 1_555
Y4 Zn5 3.050598 1_555
Y5 Zn10 2.906406 1_555
Y5 Zn9 2.907770 1_555
Y5 Zn11 2.908664 1_555
Y5 Zn3 3.038551 1_555
Y5 Zn4 3.041320 1_455
Y5 Zn5 3.051907 1_565
Y6 Zn9 2.906534 1_555
Y6 Zn10 2.907974 1_555
Y6 Zn11 2.909344 1_555
Y6 Zn0 3.041964 1_554
Y6 Zn1 3.042921 1_454
Y6 Zn2 3.049630 1_555
Y7 Zn7 2.905482 1_555
Y7 Zn6 2.906686 1_555
Y7 Zn8 2.907408 1_555
Y7 Zn0 3.039363 1_555
Y7 Zn1 3.041959 1_555
Y7 Zn2 3.052496 1_546
Zn0 Zn1 2.796896 1_555
Zn0 Zn1 2.801765 1_455
Zn0 Zn2 2.809076 1_546
Zn0 Zn2 2.809352 1_556
Zn1 Zn2 2.811524 1_656
Zn1 Zn2 2.813621 1_546
Zn3 Zn4 2.798705 1_455
Zn3 Zn4 2.799957 1_555
Zn3 Zn5 2.807905 1_555
Zn3 Zn5 2.810522 1_565
Zn4 Zn5 2.809837 1_555
Zn4 Zn5 2.815308 1_665
Zn6 Zn8 2.510492 1_665
Zn6 Zn7 2.511459 1_565
Zn6 Zn7 3.106984 1_555
Zn6 Zn8 3.114666 1_555
Zn7 Zn8 2.512629 1_655
Zn7 Zn8 3.086035 1_555
Zn10 Zn9 2.511108 1_565
Zn10 Zn11 2.512240 1_455
Zn10 Zn11 3.086424 1_555
Zn10 Zn9 3.107333 1_555
Zn11 Zn9 2.510357 1_665
Zn11 Zn9 3.114801 1_555
