# generated using pymatgen
data_TbSi2RuRh
_symmetry_space_group_name_H-M   'P 1'
_cell_length_a   5.70476818
_cell_length_b   5.70476818
_cell_length_c   5.70476818
_cell_angle_alpha   137.58787721
_cell_angle_beta   137.58787721
_cell_angle_gamma   61.53477355
_symmetry_Int_Tables_number   1
_chemical_formula_structural   TbSi2RuRh
_chemical_formula_sum   'Tb1 Si2 Ru1 Rh1'
_cell_volume   83.49238712
_cell_formula_units_Z   1
loop_
 _symmetry_equiv_pos_site_id
 _symmetry_equiv_pos_as_xyz
  1  'x, y, z'
loop_
 _atom_site_type_symbol
 _atom_site_label
 _atom_site_symmetry_multiplicity
 _atom_site_fract_x
 _atom_site_fract_y
 _atom_site_fract_z
 _atom_site_occupancy
  Tb  Tb0  1  0.00000000  0.00000000  0.00000000  1
  Si  Si0  1  0.62694500  0.62694500  0.00000000  1
  Si  Si1  1  0.37305500  0.37305500  0.00000000  1
  Ru  Ru0  1  0.75000000  0.25000000  0.50000000  1
  Rh  Rh0  1  0.25000000  0.75000000  0.50000000  1
loop_
_geom_bond_atom_site_label_1
_geom_bond_atom_site_label_2
_geom_bond_distance
_geom_bond_site_symmetry_2
Si0 Si1 2.489051 1_555
Si0 Tb0 3.172585 1_554
Si0 Tb0 3.172585 1_565
Si0 Tb0 3.172585 1_666
Si0 Tb0 3.172585 1_655
Si1 Tb0 3.172585 1_554
Si1 Tb0 3.172585 1_565
Si1 Tb0 3.172585 1_666
Si1 Tb0 3.172585 1_655
Ru0 Si1 2.390314 1_555
Ru0 Si0 2.390314 1_545
Ru0 Si0 2.390314 1_556
Ru0 Si1 2.390314 1_656
Ru0 Tb0 3.203936 1_666
Ru0 Tb0 3.203936 1_656
Ru0 Tb0 3.203936 1_655
Ru0 Tb0 3.203936 1_555
Rh0 Si1 2.390314 1_566
Rh0 Si0 2.390314 1_455
Rh0 Si0 2.390314 1_556
Rh0 Si1 2.390314 1_555
Rh0 Tb0 3.203936 1_666
Rh0 Tb0 3.203936 1_565
Rh0 Tb0 3.203936 1_566
Rh0 Tb0 3.203936 1_555
