# generated using pymatgen
data_CoC4(NCl2)2
_symmetry_space_group_name_H-M   'P 1'
_cell_length_a   12.19491900
_cell_length_b   7.61489100
_cell_length_c   15.12639760
_cell_angle_alpha   87.90801394
_cell_angle_beta   90.00000000
_cell_angle_gamma   90.00000000
_symmetry_Int_Tables_number   1
_chemical_formula_structural   CoC4(NCl2)2
_chemical_formula_sum   'Co4 C16 N8 Cl16'
_cell_volume   1403.74613434
_cell_formula_units_Z   4
loop_
 _symmetry_equiv_pos_site_id
 _symmetry_equiv_pos_as_xyz
  1  'x, y, z'
loop_
 _atom_site_type_symbol
 _atom_site_label
 _atom_site_symmetry_multiplicity
 _atom_site_fract_x
 _atom_site_fract_y
 _atom_site_fract_z
 _atom_site_occupancy
  Co  Co0  1  0.79425400  0.81975100  0.58318100  1
  Co  Co1  1  0.29425400  0.18024900  0.91681900  1
  Co  Co2  1  0.20574600  0.18024900  0.41681900  1
  Co  Co3  1  0.70574600  0.81975100  0.08318100  1
  C  C0  1  0.95270900  0.22859500  0.77247500  1
  C  C1  1  0.45270900  0.77140500  0.72752500  1
  C  C2  1  0.04729100  0.77140500  0.22752500  1
  C  C3  1  0.54729100  0.22859500  0.27247500  1
  C  C4  1  0.59879800  0.22769400  0.34150600  1
  C  C5  1  0.09879800  0.77230600  0.15849400  1
  C  C6  1  0.40120200  0.77230600  0.65849400  1
  C  C7  1  0.90120200  0.22769400  0.84150600  1
  C  C8  1  0.02865400  0.29400800  0.62251000  1
  C  C9  1  0.52865400  0.70599200  0.87749000  1
  C  C10  1  0.97134600  0.70599200  0.37749000  1
  C  C11  1  0.47134600  0.29400800  0.12251000  1
  C  C12  1  0.72596200  0.29370800  0.46418100  1
  C  C13  1  0.22596200  0.70629200  0.03581900  1
  C  C14  1  0.27403800  0.70629200  0.53581900  1
  C  C15  1  0.77403800  0.29370800  0.96418100  1
  N  N0  1  0.99808200  0.25195600  0.69538000  1
  N  N1  1  0.49808200  0.74804400  0.80462000  1
  N  N2  1  0.00191800  0.74804400  0.30462000  1
  N  N3  1  0.50191800  0.25195600  0.19538000  1
  N  N4  1  0.66145800  0.25126600  0.40930500  1
  N  N5  1  0.16145800  0.74873400  0.09069500  1
  N  N6  1  0.33854200  0.74873400  0.59069500  1
  N  N7  1  0.83854200  0.25126600  0.90930500  1
  Cl  Cl0  1  0.96841200  0.82457100  0.58768900  1
  Cl  Cl1  1  0.46841200  0.17542900  0.91231100  1
  Cl  Cl2  1  0.03158800  0.17542900  0.41231100  1
  Cl  Cl3  1  0.53158800  0.82457100  0.08768900  1
  Cl  Cl4  1  0.73040600  0.04971400  0.64169900  1
  Cl  Cl5  1  0.23040600  0.95028600  0.85830100  1
  Cl  Cl6  1  0.26959400  0.95028600  0.35830100  1
  Cl  Cl7  1  0.76959400  0.04971400  0.14169900  1
  Cl  Cl8  1  0.73699700  0.80959300  0.44942300  1
  Cl  Cl9  1  0.23699700  0.19040700  0.05057700  1
  Cl  Cl10  1  0.26300300  0.19040700  0.55057700  1
  Cl  Cl11  1  0.76300300  0.80959300  0.94942300  1
  Cl  Cl12  1  0.73960400  0.59257000  0.65716500  1
  Cl  Cl13  1  0.23960400  0.40743000  0.84283500  1
  Cl  Cl14  1  0.26039600  0.40743000  0.34283500  1
  Cl  Cl15  1  0.76039600  0.59257000  0.15716500  1
loop_
_geom_bond_atom_site_label_1
_geom_bond_atom_site_label_2
_geom_bond_distance
_geom_bond_site_symmetry_2
C0 C7 1.218358 1_555
C0 N0 1.297156 1_555
C1 C6 1.218358 1_555
C1 N1 1.297156 1_555
C2 C5 1.218358 1_555
C2 N2 1.297156 1_555
C3 C4 1.218358 1_555
C3 N3 1.297156 1_555
C4 N4 1.296658 1_555
C5 N5 1.296658 1_555
C6 N6 1.296658 1_555
C7 N7 1.296658 1_555
C8 N0 1.196139 1_455
C9 N1 1.196139 1_555
C10 N2 1.196139 1_655
C11 N3 1.196139 1_555
C12 N4 1.196594 1_555
C13 N5 1.196594 1_555
C14 N6 1.196594 1_555
C15 N7 1.196594 1_555
Cl0 Co0 2.125297 1_555
Cl1 Co1 2.125297 1_555
Cl2 Co2 2.125297 1_555
Cl3 Co3 2.125297 1_555
Cl4 Co0 2.137625 1_545
Cl5 Co1 2.137625 1_565
Cl6 Co2 2.137625 1_565
Cl7 Co3 2.137625 1_545
Cl8 Co0 2.144435 1_555
Cl9 Co1 2.144435 1_554
Cl10 Co2 2.144435 1_555
Cl11 Co3 2.144435 1_556
Cl12 Co0 2.132600 1_555
Cl13 Co1 2.132600 1_555
Cl14 Co2 2.132600 1_555
Cl15 Co3 2.132600 1_555
