# generated using pymatgen
data_Nd2TiO5
_symmetry_space_group_name_H-M   'P 1'
_cell_length_a   3.83661725
_cell_length_b   10.76026844
_cell_length_c   11.48523313
_cell_angle_alpha   90.00000000
_cell_angle_beta   90.00000000
_cell_angle_gamma   90.00000000
_symmetry_Int_Tables_number   1
_chemical_formula_structural   Nd2TiO5
_chemical_formula_sum   'Nd8 Ti4 O20'
_cell_volume   474.14524122
_cell_formula_units_Z   4
loop_
 _symmetry_equiv_pos_site_id
 _symmetry_equiv_pos_as_xyz
  1  'x, y, z'
loop_
 _atom_site_type_symbol
 _atom_site_label
 _atom_site_symmetry_multiplicity
 _atom_site_fract_x
 _atom_site_fract_y
 _atom_site_fract_z
 _atom_site_occupancy
  Nd  Nd0  1  0.75000000  0.10538515  0.71968650  1
  Nd  Nd1  1  0.25000000  0.89461485  0.28031350  1
  Nd  Nd2  1  0.75000000  0.60538515  0.78031350  1
  Nd  Nd3  1  0.25000000  0.39461485  0.21968650  1
  Nd  Nd4  1  0.25000000  0.36245189  0.55638102  1
  Nd  Nd5  1  0.75000000  0.63754811  0.44361898  1
  Nd  Nd6  1  0.25000000  0.86245189  0.94361898  1
  Nd  Nd7  1  0.75000000  0.13754811  0.05638102  1
  Ti  Ti0  1  0.25000000  0.31672159  0.87575400  1
  Ti  Ti1  1  0.75000000  0.68327841  0.12424600  1
  Ti  Ti2  1  0.25000000  0.81672159  0.62424600  1
  Ti  Ti3  1  0.75000000  0.18327841  0.37575400  1
  O  O0  1  0.25000000  0.47793307  0.84060209  1
  O  O1  1  0.75000000  0.52206693  0.15939791  1
  O  O2  1  0.25000000  0.97793307  0.65939791  1
  O  O3  1  0.75000000  0.02206693  0.34060209  1
  O  O4  1  0.25000000  0.23312684  0.72943562  1
  O  O5  1  0.75000000  0.76687316  0.27056438  1
  O  O6  1  0.25000000  0.73312684  0.77056438  1
  O  O7  1  0.75000000  0.26687316  0.22943562  1
  O  O8  1  0.75000000  0.26335428  0.87851180  1
  O  O9  1  0.25000000  0.73664572  0.12148820  1
  O  O10  1  0.75000000  0.76335428  0.62148820  1
  O  O11  1  0.25000000  0.23664572  0.37851180  1
  O  O12  1  0.25000000  0.00886122  0.10379368  1
  O  O13  1  0.75000000  0.99113878  0.89620632  1
  O  O14  1  0.25000000  0.50886122  0.39620632  1
  O  O15  1  0.75000000  0.49113878  0.60379368  1
  O  O16  1  0.25000000  0.27690224  0.03600558  1
  O  O17  1  0.75000000  0.72309776  0.96399442  1
  O  O18  1  0.25000000  0.77690224  0.46399442  1
  O  O19  1  0.75000000  0.22309776  0.53600558  1
loop_
_geom_bond_atom_site_label_1
_geom_bond_atom_site_label_2
_geom_bond_distance
_geom_bond_site_symmetry_2
Nd0 O4 2.362582 1_655
Nd0 O4 2.362582 1_555
Nd0 O13 2.370963 1_545
Nd0 O2 2.457673 1_545
Nd0 O2 2.457673 1_645
Nd0 O19 2.460653 1_555
Nd0 O8 2.493350 1_555
Nd1 O5 2.362582 1_555
Nd1 O5 2.362582 1_455
Nd1 O12 2.370963 1_565
Nd1 O3 2.457673 1_565
Nd1 O3 2.457673 1_465
Nd1 O18 2.460653 1_555
Nd1 O9 2.493350 1_555
Nd2 O6 2.362582 1_555
Nd2 O6 2.362582 1_655
Nd2 O15 2.370963 1_555
Nd2 O0 2.457673 1_655
Nd2 O0 2.457673 1_555
Nd2 O17 2.460653 1_555
Nd2 O10 2.493350 1_555
Nd3 O7 2.362582 1_455
Nd3 O7 2.362582 1_555
Nd3 O14 2.370963 1_555
Nd3 O1 2.457673 1_455
Nd3 O1 2.457673 1_555
Nd3 O16 2.460653 1_555
Nd3 O11 2.493350 1_555
Nd4 O14 2.422021 1_555
Nd4 O4 2.426297 1_555
Nd4 O15 2.427725 1_455
Nd4 O15 2.427725 1_555
Nd4 O19 2.446045 1_455
Nd4 O19 2.446045 1_555
Nd4 O11 2.450682 1_555
Nd5 O15 2.422021 1_555
Nd5 O5 2.426297 1_555
Nd5 O14 2.427725 1_555
Nd5 O14 2.427725 1_655
Nd5 O18 2.446045 1_555
Nd5 O18 2.446045 1_655
Nd5 O10 2.450682 1_555
Nd6 O12 2.422021 1_566
Nd6 O6 2.426297 1_555
Nd6 O13 2.427725 1_555
Nd6 O13 2.427725 1_455
Nd6 O17 2.446045 1_455
Nd6 O17 2.446045 1_555
Nd6 O9 2.450682 1_556
Nd7 O13 2.422021 1_544
Nd7 O7 2.426297 1_555
Nd7 O12 2.427725 1_555
Nd7 O12 2.427725 1_655
Nd7 O16 2.446045 1_655
Nd7 O16 2.446045 1_555
Nd7 O8 2.450682 1_554
O0 Ti0 1.781041 1_555
O1 Ti1 1.781041 1_555
O2 Ti2 1.781041 1_555
O3 Ti3 1.781041 1_555
O4 Ti0 1.906092 1_555
O5 Ti1 1.906092 1_555
O6 Ti2 1.906092 1_555
O7 Ti3 1.906092 1_555
O8 Ti0 2.002666 1_655
O8 Ti0 2.002666 1_555
O9 Ti1 2.002666 1_555
O9 Ti1 2.002666 1_455
O10 Ti2 2.002666 1_655
O10 Ti2 2.002666 1_555
O11 Ti3 2.002666 1_555
O11 Ti3 2.002666 1_455
O16 Ti0 1.889741 1_554
O17 Ti1 1.889741 1_556
O18 Ti2 1.889741 1_555
O19 Ti3 1.889741 1_555
