# generated using pymatgen
data_ZrCrS4
_symmetry_space_group_name_H-M   'P 1'
_cell_length_a   7.07174138
_cell_length_b   7.07192755
_cell_length_c   6.93337426
_cell_angle_alpha   60.67477503
_cell_angle_beta   60.67391470
_cell_angle_gamma   62.40883383
_symmetry_Int_Tables_number   1
_chemical_formula_structural   ZrCrS4
_chemical_formula_sum   'Zr2 Cr2 S8'
_cell_volume   251.94026170
_cell_formula_units_Z   2
loop_
 _symmetry_equiv_pos_site_id
 _symmetry_equiv_pos_as_xyz
  1  'x, y, z'
loop_
 _atom_site_type_symbol
 _atom_site_label
 _atom_site_symmetry_multiplicity
 _atom_site_fract_x
 _atom_site_fract_y
 _atom_site_fract_z
 _atom_site_occupancy
  Zr  Zr0  1  0.99989800  0.49974000  0.50017300  1
  Zr  Zr1  1  0.50004500  0.00000600  0.49995800  1
  Cr  Cr0  1  0.50004200  0.50006600  0.49987700  1
  Cr  Cr1  1  0.49990300  0.50026800  0.00001500  1
  S  S0  1  0.74305800  0.74300700  0.76700500  1
  S  S1  1  0.25697600  0.25690700  0.75311400  1
  S  S2  1  0.28295800  0.72974500  0.24381000  1
  S  S3  1  0.72972100  0.28307900  0.24365300  1
  S  S4  1  0.71685300  0.27031500  0.75630500  1
  S  S5  1  0.27027100  0.71693500  0.75627500  1
  S  S6  1  0.25707700  0.25694400  0.23294700  1
  S  S7  1  0.74319300  0.74299100  0.24685600  1
loop_
_geom_bond_atom_site_label_1
_geom_bond_atom_site_label_2
_geom_bond_distance
_geom_bond_site_symmetry_2
Cr0 S2 2.383771 1_555
Cr0 S3 2.384083 1_555
Cr0 S4 2.384261 1_555
Cr0 S5 2.384393 1_555
Cr0 S7 2.411428 1_555
Cr0 S1 2.412195 1_555
Cr1 S2 2.384317 1_555
Cr1 S5 2.384876 1_554
Cr1 S3 2.385251 1_555
Cr1 S4 2.386346 1_554
Cr1 S0 2.410430 1_554
Cr1 S6 2.411740 1_555
S0 Zr1 2.571403 1_565
S0 Zr0 2.571551 1_555
S1 Zr0 2.571156 1_455
S1 Zr1 2.571300 1_555
S2 Zr0 2.551633 1_455
S3 Zr1 2.550181 1_555
S4 Zr0 2.548850 1_555
S5 Zr1 2.550627 1_565
S6 Zr1 2.570988 1_555
S6 Zr0 2.571262 1_455
S7 Zr0 2.571076 1_555
S7 Zr1 2.571631 1_565
