# generated using pymatgen
data_Mg2ClO3
_symmetry_space_group_name_H-M   'P 1'
_cell_length_a   7.85620722
_cell_length_b   3.97199988
_cell_length_c   7.32744584
_cell_angle_alpha   89.24023381
_cell_angle_beta   80.81271942
_cell_angle_gamma   90.02895430
_symmetry_Int_Tables_number   1
_chemical_formula_structural   Mg2ClO3
_chemical_formula_sum   'Mg4 Cl2 O6'
_cell_volume   225.69803001
_cell_formula_units_Z   2
loop_
 _symmetry_equiv_pos_site_id
 _symmetry_equiv_pos_as_xyz
  1  'x, y, z'
loop_
 _atom_site_type_symbol
 _atom_site_label
 _atom_site_symmetry_multiplicity
 _atom_site_fract_x
 _atom_site_fract_y
 _atom_site_fract_z
 _atom_site_occupancy
  Mg  Mg0  1  0.12092800  0.74779000  0.56781300  1
  Mg  Mg1  1  0.87907200  0.25221000  0.43218700  1
  Mg  Mg2  1  0.38223900  0.24818300  0.58545100  1
  Mg  Mg3  1  0.61776100  0.75181700  0.41454900  1
  Cl  Cl0  1  0.54134100  0.40615700  0.12663600  1
  Cl  Cl1  1  0.45865900  0.59384300  0.87336400  1
  O  O0  1  0.11013100  0.24529100  0.67003800  1
  O  O1  1  0.88986900  0.75470900  0.32996200  1
  O  O2  1  0.37659700  0.75043600  0.56782600  1
  O  O3  1  0.62340300  0.24956400  0.43217400  1
  O  O4  1  0.13815200  0.25066700  0.45392100  1
  O  O5  1  0.86184800  0.74933300  0.54607900  1
loop_
_geom_bond_atom_site_label_1
_geom_bond_atom_site_label_2
_geom_bond_distance
_geom_bond_site_symmetry_2
Mg0 O2 2.008626 1_555
Mg0 O5 2.066807 1_455
Mg0 O0 2.119406 1_555
Mg0 O0 2.119498 1_565
Mg0 O4 2.149793 1_555
Mg0 O4 2.150335 1_565
Mg1 O3 2.008626 1_555
Mg1 O4 2.066807 1_655
Mg1 O1 2.119406 1_555
Mg1 O1 2.119498 1_545
Mg1 O5 2.149793 1_555
Mg1 O5 2.150335 1_545
Mg2 O2 1.983906 1_545
Mg2 O2 1.998387 1_555
Mg2 O3 2.042405 1_555
Mg2 O0 2.128591 1_555
Mg2 O4 2.279489 1_555
Mg3 O3 1.983906 1_565
Mg3 O3 1.998387 1_555
Mg3 O2 2.042405 1_555
Mg3 O1 2.128591 1_555
Mg3 O5 2.279489 1_555
Cl0 Mg3 2.678917 1_555
Cl1 Mg2 2.678917 1_555
O0 O4 1.563470 1_555
O1 O5 1.563470 1_555
