# generated using pymatgen
data_LaCrS2O
_symmetry_space_group_name_H-M   'P 1'
_cell_length_a   3.75736200
_cell_length_b   8.52884800
_cell_length_c   11.29895700
_cell_angle_alpha   90.00000000
_cell_angle_beta   90.00000000
_cell_angle_gamma   90.00000000
_symmetry_Int_Tables_number   1
_chemical_formula_structural   LaCrS2O
_chemical_formula_sum   'La4 Cr4 S8 O4'
_cell_volume   362.08603004
_cell_formula_units_Z   4
loop_
 _symmetry_equiv_pos_site_id
 _symmetry_equiv_pos_as_xyz
  1  'x, y, z'
loop_
 _atom_site_type_symbol
 _atom_site_label
 _atom_site_symmetry_multiplicity
 _atom_site_fract_x
 _atom_site_fract_y
 _atom_site_fract_z
 _atom_site_occupancy
  La  La0  1  0.25000100  0.54622100  0.35224000  1
  La  La1  1  0.74999900  0.45377900  0.64776000  1
  La  La2  1  0.25000100  0.04622000  0.14776000  1
  La  La3  1  0.74999900  0.95377900  0.85224000  1
  Cr  Cr0  1  0.25000100  0.66968400  0.02848000  1
  Cr  Cr1  1  0.74999900  0.33031600  0.97152000  1
  Cr  Cr2  1  0.25000100  0.16968400  0.47152000  1
  Cr  Cr3  1  0.74999900  0.83031600  0.52847900  1
  S  S0  1  0.74999900  0.24246300  0.33091200  1
  S  S1  1  0.25000100  0.75753700  0.66908800  1
  S  S2  1  0.25000100  0.25753800  0.83091200  1
  S  S3  1  0.74999900  0.74246300  0.16908800  1
  S  S4  1  0.74999900  0.59715400  0.89817300  1
  S  S5  1  0.25000100  0.40284700  0.10182700  1
  S  S6  1  0.25000100  0.90284600  0.39817300  1
  S  S7  1  0.74999900  0.09715400  0.60182700  1
  O  O0  1  0.25000100  0.88734800  0.96361800  1
  O  O1  1  0.74999900  0.11265200  0.03638200  1
  O  O2  1  0.25000100  0.38734800  0.53638200  1
  O  O3  1  0.74999900  0.61265200  0.46361800  1
loop_
_geom_bond_atom_site_label_1
_geom_bond_atom_site_label_2
_geom_bond_distance
_geom_bond_site_symmetry_2
La0 O3 2.331123 1_555
La0 O3 2.331136 1_455
La0 O2 2.482938 1_555
La0 S5 3.082339 1_555
La0 S6 3.085561 1_555
La0 S0 3.209244 1_555
La0 S0 3.209252 1_455
La0 S3 3.257802 1_555
La0 S3 3.257811 1_455
La1 O2 2.331123 1_555
La1 O2 2.331136 1_655
La1 O3 2.482938 1_555
La1 S4 3.082342 1_555
La1 S7 3.085561 1_555
La1 S1 3.209244 1_555
La1 S1 3.209252 1_655
La1 S2 3.257797 1_555
La1 S2 3.257806 1_655
La2 O1 2.331125 1_555
La2 O1 2.331138 1_455
La2 O0 2.482934 1_544
La2 S6 3.082339 1_545
La2 S5 3.085578 1_555
La2 S3 3.209237 1_545
La2 S3 3.209245 1_445
La2 S0 3.257806 1_555
La2 S0 3.257815 1_455
La3 O0 2.331123 1_555
La3 O0 2.331136 1_655
La3 O1 2.482938 1_566
La3 S7 3.082342 1_565
La3 S4 3.085561 1_555
La3 S2 3.209250 1_565
La3 S2 3.209259 1_665
La3 S1 3.257802 1_555
La3 S1 3.257811 1_655
Cr0 O0 1.995848 1_554
Cr0 S5 2.422011 1_555
Cr0 S4 2.465734 1_554
Cr0 S4 2.465745 1_454
Cr0 S3 2.537470 1_555
Cr0 S3 2.537481 1_455
Cr1 O1 1.995848 1_556
Cr1 S4 2.422019 1_555
Cr1 S5 2.465736 1_556
Cr1 S5 2.465747 1_656
Cr1 S2 2.537467 1_555
Cr1 S2 2.537479 1_655
Cr2 O2 1.995848 1_555
Cr2 S6 2.422019 1_545
Cr2 S7 2.465734 1_555
Cr2 S7 2.465745 1_455
Cr2 S0 2.537470 1_555
Cr2 S0 2.537481 1_455
Cr3 O3 1.995844 1_555
Cr3 S7 2.422023 1_565
Cr3 S6 2.465727 1_555
Cr3 S6 2.465738 1_655
Cr3 S1 2.537477 1_555
Cr3 S1 2.537488 1_655
