# generated using pymatgen
data_BaSrTiBiO6
_symmetry_space_group_name_H-M   'P 1'
_cell_length_a   5.93530031
_cell_length_b   5.93530031
_cell_length_c   5.93530031
_cell_angle_alpha   60.00000000
_cell_angle_beta   60.00000000
_cell_angle_gamma   60.00000000
_symmetry_Int_Tables_number   1
_chemical_formula_structural   BaSrTiBiO6
_chemical_formula_sum   'Ba1 Sr1 Ti1 Bi1 O6'
_cell_volume   147.84719753
_cell_formula_units_Z   1
loop_
 _symmetry_equiv_pos_site_id
 _symmetry_equiv_pos_as_xyz
  1  'x, y, z'
loop_
 _atom_site_type_symbol
 _atom_site_label
 _atom_site_symmetry_multiplicity
 _atom_site_fract_x
 _atom_site_fract_y
 _atom_site_fract_z
 _atom_site_occupancy
  Ba  Ba0  1  0.75000000  0.75000000  0.75000000  1
  Sr  Sr0  1  0.25000000  0.25000000  0.25000000  1
  Ti  Ti0  1  0.50000000  0.50000000  0.50000000  1
  Bi  Bi0  1  -0.00000000  -0.00000000  -0.00000000  1
  O  O0  1  0.73539253  0.26460747  0.26460747  1
  O  O1  1  0.26460747  0.73539253  0.73539253  1
  O  O2  1  0.73539253  0.26460747  0.73539253  1
  O  O3  1  0.26460747  0.73539253  0.26460747  1
  O  O4  1  0.73539253  0.73539253  0.26460747  1
  O  O5  1  0.26460747  0.26460747  0.73539253  1
loop_
_geom_bond_atom_site_label_1
_geom_bond_atom_site_label_2
_geom_bond_distance
_geom_bond_site_symmetry_2
Ba0 O2 2.970182 1_555
Ba0 O4 2.970182 1_555
Ba0 O0 2.970182 1_556
Ba0 O1 2.970182 1_555
Ba0 O3 2.970182 1_556
Ba0 O4 2.970182 1_556
Ba0 O0 2.970182 1_565
Ba0 O3 2.970182 1_655
Ba0 O5 2.970182 1_565
Ba0 O5 2.970182 1_655
Ba0 O1 2.970182 1_655
Ba0 O2 2.970182 1_565
Bi0 O4 2.221057 1_445
Bi0 O2 2.221057 1_454
Bi0 O1 2.221057 1_544
Bi0 O3 2.221057 1_545
Bi0 O5 2.221057 1_554
Bi0 O0 2.221057 1_455
O0 Ti0 1.975834 1_555
O0 Sr0 2.970182 1_655
O0 Sr0 2.970182 1_555
O1 Ti0 1.975834 1_555
O1 Sr0 2.970182 1_565
O1 Sr0 2.970182 1_556
O2 Ti0 1.975834 1_555
O2 Sr0 2.970182 1_556
O2 Sr0 2.970182 1_655
O3 Ti0 1.975834 1_555
O3 Sr0 2.970182 1_565
O3 Sr0 2.970182 1_555
O4 Ti0 1.975834 1_555
O4 Sr0 2.970182 1_655
O4 Sr0 2.970182 1_565
O5 Ti0 1.975834 1_555
O5 Sr0 2.970182 1_556
O5 Sr0 2.970182 1_555
