# generated using pymatgen
data_Dy2Au5F21
_symmetry_space_group_name_H-M   'P 1'
_cell_length_a   8.10779400
_cell_length_b   9.19203393
_cell_length_c   12.15973612
_cell_angle_alpha   89.14093033
_cell_angle_beta   88.92043854
_cell_angle_gamma   88.90685492
_symmetry_Int_Tables_number   1
_chemical_formula_structural   Dy2Au5F21
_chemical_formula_sum   'Dy4 Au10 F42'
_cell_volume   905.80725090
_cell_formula_units_Z   2
loop_
 _symmetry_equiv_pos_site_id
 _symmetry_equiv_pos_as_xyz
  1  'x, y, z'
loop_
 _atom_site_type_symbol
 _atom_site_label
 _atom_site_symmetry_multiplicity
 _atom_site_fract_x
 _atom_site_fract_y
 _atom_site_fract_z
 _atom_site_occupancy
  Dy  Dy0  1  0.17186200  0.31727700  0.49587500  1
  Dy  Dy1  1  0.82813800  0.68272300  0.50412500  1
  Dy  Dy2  1  0.16558400  0.18145700  0.00065100  1
  Dy  Dy3  1  0.83441600  0.81854300  0.99934900  1
  Au  Au0  1  0.94117400  0.01451500  0.29563600  1
  Au  Au1  1  0.05882600  0.98548500  0.70436400  1
  Au  Au2  1  0.05830600  0.50818200  0.79070900  1
  Au  Au3  1  0.94169400  0.49181800  0.20929100  1
  Au  Au4  1  0.51837700  0.24962400  0.24499600  1
  Au  Au5  1  0.48162300  0.75037600  0.75500400  1
  Au  Au6  1  0.32610900  0.72239800  0.40461400  1
  Au  Au7  1  0.67389100  0.27760200  0.59538600  1
  Au  Au8  1  0.33663800  0.77661000  0.09344000  1
  Au  Au9  1  0.66336200  0.22339000  0.90656000  1
  F  F0  1  0.02444300  0.13176000  0.41646400  1
  F  F1  1  0.97555700  0.86824000  0.58353600  1
  F  F2  1  0.09649100  0.74340200  0.08909400  1
  F  F3  1  0.90350900  0.25659800  0.91090600  1
  F  F4  1  0.34289300  0.22845600  0.36003700  1
  F  F5  1  0.65710700  0.77154400  0.63996300  1
  F  F6  1  0.08137300  0.11881900  0.18790700  1
  F  F7  1  0.91862700  0.88118100  0.81209300  1
  F  F8  1  0.68477300  0.24348700  0.35793300  1
  F  F9  1  0.31522700  0.75651300  0.64206700  1
  F  F10  1  0.08489500  0.73588300  0.38564200  1
  F  F11  1  0.91510500  0.26411700  0.61435800  1
  F  F12  1  0.08546400  0.38649600  0.31238000  1
  F  F13  1  0.91453600  0.61350400  0.68762000  1
  F  F14  1  0.19691100  0.39966100  0.89663000  1
  F  F15  1  0.80308900  0.60033900  0.10337000  1
  F  F16  1  0.32671900  0.51447800  0.45441600  1
  F  F17  1  0.67328100  0.48552200  0.54558400  1
  F  F18  1  0.69772200  0.27053500  0.13801400  1
  F  F19  1  0.30227800  0.72946500  0.86198600  1
  F  F20  1  0.05575700  0.38746000  0.08914000  1
  F  F21  1  0.94424300  0.61254000  0.91086000  1
  F  F22  1  0.18528000  0.40742200  0.67373500  1
  F  F23  1  0.81472000  0.59257800  0.32626500  1
  F  F24  1  0.43291000  0.27946700  0.57557000  1
  F  F25  1  0.56709000  0.72053300  0.42443000  1
  F  F26  1  0.15758000  0.10333700  0.81860500  1
  F  F27  1  0.84242000  0.89666300  0.18139500  1
  F  F28  1  0.35730600  0.58784800  0.16574700  1
  F  F29  1  0.64269400  0.41215200  0.83425300  1
  F  F30  1  0.32249200  0.97579700  0.02667900  1
  F  F31  1  0.67750800  0.02420300  0.97332100  1
  F  F32  1  0.66855100  0.08074400  0.65412600  1
  F  F33  1  0.33144900  0.91925600  0.34587400  1
  F  F34  1  0.19765900  0.09262400  0.59712400  1
  F  F35  1  0.80234100  0.90737600  0.40287600  1
  F  F36  1  0.57685200  0.80239100  0.10068900  1
  F  F37  1  0.42314800  0.19760900  0.89931100  1
  F  F38  1  0.35909100  0.25335900  0.12246800  1
  F  F39  1  0.64090900  0.74664100  0.87753200  1
  F  F40  1  0.00000000  0.00000000  0.00000000  1
  F  F41  1  0.00000000  0.50000000  0.50000000  1
loop_
_geom_bond_atom_site_label_1
_geom_bond_atom_site_label_2
_geom_bond_distance
_geom_bond_site_symmetry_2
Dy0 F41 2.162354 1_555
Dy0 F16 2.269788 1_555
Dy0 F4 2.286635 1_555
Dy0 F0 2.332302 1_555
Dy0 F22 2.332785 1_555
Dy0 F24 2.361923 1_555
Dy0 F34 2.395995 1_555
Dy0 F12 2.423495 1_555
Dy0 F11 2.559835 1_455
Dy1 F41 2.162354 1_655
Dy1 F17 2.269788 1_555
Dy1 F5 2.286635 1_555
Dy1 F1 2.332302 1_555
Dy1 F23 2.332785 1_555
Dy1 F25 2.361923 1_555
Dy1 F35 2.395995 1_555
Dy1 F13 2.423495 1_555
Dy1 F10 2.559835 1_655
Dy2 F40 2.161192 1_555
Dy2 F30 2.279871 1_545
Dy2 F38 2.291058 1_555
Dy2 F26 2.339845 1_554
Dy2 F20 2.344572 1_555
Dy2 F14 2.370369 1_554
Dy2 F37 2.410560 1_554
Dy2 F6 2.428876 1_555
Dy2 F3 2.488315 1_454
Dy3 F40 2.161192 1_666
Dy3 F31 2.279871 1_565
Dy3 F39 2.291058 1_555
Dy3 F27 2.339845 1_556
Dy3 F21 2.344572 1_555
Dy3 F15 2.370369 1_556
Dy3 F36 2.410560 1_556
Dy3 F7 2.428876 1_555
Dy3 F2 2.488315 1_656
Au0 F27 1.965824 1_545
Au0 F6 1.968535 1_655
Au0 F35 1.971254 1_545
Au0 F0 1.971942 1_655
Au1 F26 1.965824 1_565
Au1 F7 1.968535 1_455
Au1 F34 1.971254 1_565
Au1 F1 1.971942 1_455
Au2 F13 1.960352 1_455
Au2 F21 1.966529 1_455
Au2 F22 1.971990 1_555
Au2 F14 1.972323 1_555
Au3 F12 1.960352 1_655
Au3 F20 1.966529 1_655
Au3 F23 1.971990 1_555
Au3 F15 1.972323 1_555
Au4 F8 1.942617 1_555
Au4 F18 1.943062 1_555
Au4 F4 1.986560 1_555
Au4 F38 1.989510 1_555
Au5 F9 1.942617 1_555
Au5 F19 1.943062 1_555
Au5 F5 1.986560 1_555
Au5 F39 1.989510 1_555
Au6 F33 1.936362 1_555
Au6 F25 1.972846 1_555
Au6 F10 1.974916 1_555
Au6 F16 1.996124 1_555
Au7 F32 1.936362 1_555
Au7 F24 1.972846 1_555
Au7 F11 1.974916 1_555
Au7 F17 1.996124 1_555
Au8 F28 1.939185 1_555
Au8 F36 1.970229 1_555
Au8 F2 1.978398 1_555
Au8 F30 1.993843 1_555
Au9 F29 1.939185 1_555
Au9 F37 1.970229 1_555
Au9 F3 1.978398 1_555
Au9 F31 1.993843 1_555
