# generated using pymatgen
data_K3Fe(CO2)6
_symmetry_space_group_name_H-M   'P 1'
_cell_length_a   13.96027343
_cell_length_b   13.96027343
_cell_length_c   13.96027343
_cell_angle_alpha   90.00000000
_cell_angle_beta   90.00000000
_cell_angle_gamma   90.00000000
_symmetry_Int_Tables_number   1
_chemical_formula_structural   K3Fe(CO2)6
_chemical_formula_sum   'K24 Fe8 C48 O96'
_cell_volume   2720.70699856
_cell_formula_units_Z   8
loop_
 _symmetry_equiv_pos_site_id
 _symmetry_equiv_pos_as_xyz
  1  'x, y, z'
loop_
 _atom_site_type_symbol
 _atom_site_label
 _atom_site_symmetry_multiplicity
 _atom_site_fract_x
 _atom_site_fract_y
 _atom_site_fract_z
 _atom_site_occupancy
  K  K0  1  0.17011624  0.17011624  0.17011624  1
  K  K1  1  0.32988376  0.82988376  0.67011624  1
  K  K2  1  0.82988376  0.67011624  0.32988376  1
  K  K3  1  0.67011624  0.32988376  0.82988376  1
  K  K4  1  0.57988376  0.57988376  0.57988376  1
  K  K5  1  0.42011624  0.07988376  0.92011624  1
  K  K6  1  0.92011624  0.42011624  0.07988376  1
  K  K7  1  0.07988376  0.92011624  0.42011624  1
  K  K8  1  0.99004274  0.37500000  0.75995726  1
  K  K9  1  0.50995726  0.62500000  0.25995726  1
  K  K10  1  0.00995726  0.87500000  0.74004274  1
  K  K11  1  0.49004274  0.12500000  0.24004274  1
  K  K12  1  0.37500000  0.75995726  0.99004274  1
  K  K13  1  0.62500000  0.25995726  0.50995726  1
  K  K14  1  0.87500000  0.74004274  0.00995726  1
  K  K15  1  0.12500000  0.24004274  0.49004274  1
  K  K16  1  0.75995726  0.99004274  0.37500000  1
  K  K17  1  0.25995726  0.50995726  0.62500000  1
  K  K18  1  0.74004274  0.00995726  0.87500000  1
  K  K19  1  0.24004274  0.49004274  0.12500000  1
  K  K20  1  0.12500000  0.62500000  0.87500000  1
  K  K21  1  0.37500000  0.37500000  0.37500000  1
  K  K22  1  0.87500000  0.12500000  0.62500000  1
  K  K23  1  0.62500000  0.87500000  0.12500000  1
  Fe  Fe0  1  0.01143276  0.01143276  0.01143276  1
  Fe  Fe1  1  0.48856724  0.98856724  0.51143276  1
  Fe  Fe2  1  0.98856724  0.51143276  0.48856724  1
  Fe  Fe3  1  0.51143276  0.48856724  0.98856724  1
  Fe  Fe4  1  0.73856724  0.73856724  0.73856724  1
  Fe  Fe5  1  0.26143276  0.23856724  0.76143276  1
  Fe  Fe6  1  0.76143276  0.26143276  0.23856724  1
  Fe  Fe7  1  0.23856724  0.76143276  0.26143276  1
  C  C0  1  0.23190021  0.29790831  0.95566825  1
  C  C1  1  0.26809979  0.70209169  0.45566825  1
  C  C2  1  0.76809979  0.79790831  0.54433175  1
  C  C3  1  0.73190021  0.20209169  0.04433175  1
  C  C4  1  0.29790831  0.95566825  0.23190021  1
  C  C5  1  0.70209169  0.45566825  0.26809979  1
  C  C6  1  0.79790831  0.54433175  0.76809979  1
  C  C7  1  0.20209169  0.04433175  0.73190021  1
  C  C8  1  0.95566825  0.23190021  0.29790831  1
  C  C9  1  0.45566825  0.26809979  0.70209169  1
  C  C10  1  0.54433175  0.76809979  0.79790831  1
  C  C11  1  0.04433175  0.73190021  0.20209169  1
  C  C12  1  0.51809979  0.79433175  0.45209169  1
  C  C13  1  0.48190021  0.29433175  0.04790831  1
  C  C14  1  0.98190021  0.20566825  0.95209169  1
  C  C15  1  0.01809979  0.70566825  0.54790831  1
  C  C16  1  0.45209169  0.51809979  0.79433175  1
  C  C17  1  0.04790831  0.48190021  0.29433175  1
  C  C18  1  0.95209169  0.98190021  0.20566825  1
  C  C19  1  0.54790831  0.01809979  0.70566825  1
  C  C20  1  0.79433175  0.45209169  0.51809979  1
  C  C21  1  0.29433175  0.04790831  0.48190021  1
  C  C22  1  0.20566825  0.95209169  0.98190021  1
  C  C23  1  0.70566825  0.54790831  0.01809979  1
  C  C24  1  0.19340750  0.38171251  0.89335762  1
  C  C25  1  0.30659250  0.61828749  0.39335762  1
  C  C26  1  0.80659250  0.88171251  0.60664238  1
  C  C27  1  0.69340750  0.11828749  0.10664238  1
  C  C28  1  0.38171251  0.89335762  0.19340750  1
  C  C29  1  0.61828749  0.39335762  0.30659250  1
  C  C30  1  0.88171251  0.60664238  0.80659250  1
  C  C31  1  0.11828749  0.10664238  0.69340750  1
  C  C32  1  0.89335762  0.19340750  0.38171251  1
  C  C33  1  0.39335762  0.30659250  0.61828749  1
  C  C34  1  0.60664238  0.80659250  0.88171251  1
  C  C35  1  0.10664238  0.69340750  0.11828749  1
  C  C36  1  0.55659250  0.85664238  0.36828749  1
  C  C37  1  0.44340750  0.35664238  0.13171251  1
  C  C38  1  0.94340750  0.14335762  0.86828749  1
  C  C39  1  0.05659250  0.64335762  0.63171251  1
  C  C40  1  0.36828749  0.55659250  0.85664238  1
  C  C41  1  0.13171251  0.44340750  0.35664238  1
  C  C42  1  0.86828749  0.94340750  0.14335762  1
  C  C43  1  0.63171251  0.05659250  0.64335762  1
  C  C44  1  0.85664238  0.36828749  0.55659250  1
  C  C45  1  0.35664238  0.13171251  0.44340750  1
  C  C46  1  0.14335762  0.86828749  0.94340750  1
  C  C47  1  0.64335762  0.63171251  0.05659250  1
  O  O0  1  0.23650923  0.30701210  0.04415627  1
  O  O1  1  0.26349077  0.69298790  0.54415627  1
  O  O2  1  0.76349077  0.80701210  0.45584373  1
  O  O3  1  0.73650923  0.19298790  0.95584373  1
  O  O4  1  0.30701210  0.04415627  0.23650923  1
  O  O5  1  0.69298790  0.54415627  0.26349077  1
  O  O6  1  0.80701210  0.45584373  0.76349077  1
  O  O7  1  0.19298790  0.95584373  0.73650923  1
  O  O8  1  0.04415627  0.23650923  0.30701210  1
  O  O9  1  0.54415627  0.26349077  0.69298790  1
  O  O10  1  0.45584373  0.76349077  0.80701210  1
  O  O11  1  0.95584373  0.73650923  0.19298790  1
  O  O12  1  0.51349077  0.70584373  0.44298790  1
  O  O13  1  0.48650923  0.20584373  0.05701210  1
  O  O14  1  0.98650923  0.29415627  0.94298790  1
  O  O15  1  0.01349077  0.79415627  0.55701210  1
  O  O16  1  0.44298790  0.51349077  0.70584373  1
  O  O17  1  0.05701210  0.48650923  0.20584373  1
  O  O18  1  0.94298790  0.98650923  0.29415627  1
  O  O19  1  0.55701210  0.01349077  0.79415627  1
  O  O20  1  0.70584373  0.44298790  0.51349077  1
  O  O21  1  0.20584373  0.05701210  0.48650923  1
  O  O22  1  0.29415627  0.94298790  0.98650923  1
  O  O23  1  0.79415627  0.55701210  0.01349077  1
  O  O24  1  0.25579685  0.22296405  0.90685392  1
  O  O25  1  0.24420315  0.77703595  0.40685392  1
  O  O26  1  0.74420315  0.72296405  0.59314608  1
  O  O27  1  0.75579685  0.27703595  0.09314608  1
  O  O28  1  0.22296405  0.90685392  0.25579685  1
  O  O29  1  0.77703595  0.40685392  0.24420315  1
  O  O30  1  0.72296405  0.59314608  0.74420315  1
  O  O31  1  0.27703595  0.09314608  0.75579685  1
  O  O32  1  0.90685392  0.25579685  0.22296405  1
  O  O33  1  0.40685392  0.24420315  0.77703595  1
  O  O34  1  0.59314608  0.74420315  0.72296405  1
  O  O35  1  0.09314608  0.75579685  0.27703595  1
  O  O36  1  0.49420315  0.84314608  0.52703595  1
  O  O37  1  0.50579685  0.34314608  0.97296405  1
  O  O38  1  0.00579685  0.15685392  0.02703595  1
  O  O39  1  0.99420315  0.65685392  0.47296405  1
  O  O40  1  0.52703595  0.49420315  0.84314608  1
  O  O41  1  0.97296405  0.50579685  0.34314608  1
  O  O42  1  0.02703595  0.00579685  0.15685392  1
  O  O43  1  0.47296405  0.99420315  0.65685392  1
  O  O44  1  0.84314608  0.52703595  0.49420315  1
  O  O45  1  0.34314608  0.97296405  0.50579685  1
  O  O46  1  0.15685392  0.02703595  0.00579685  1
  O  O47  1  0.65685392  0.47296405  0.99420315  1
  O  O48  1  0.15571281  0.45159820  0.93267603  1
  O  O49  1  0.34428719  0.54840180  0.43267603  1
  O  O50  1  0.84428719  0.95159820  0.56732397  1
  O  O51  1  0.65571281  0.04840180  0.06732397  1
  O  O52  1  0.45159820  0.93267603  0.15571281  1
  O  O53  1  0.54840180  0.43267603  0.34428719  1
  O  O54  1  0.95159820  0.56732397  0.84428719  1
  O  O55  1  0.04840180  0.06732397  0.65571281  1
  O  O56  1  0.93267603  0.15571281  0.45159820  1
  O  O57  1  0.43267603  0.34428719  0.54840180  1
  O  O58  1  0.56732397  0.84428719  0.95159820  1
  O  O59  1  0.06732397  0.65571281  0.04840180  1
  O  O60  1  0.59428719  0.81732397  0.29840180  1
  O  O61  1  0.40571281  0.31732397  0.20159820  1
  O  O62  1  0.90571281  0.18267603  0.79840180  1
  O  O63  1  0.09428719  0.68267603  0.70159820  1
  O  O64  1  0.29840180  0.59428719  0.81732397  1
  O  O65  1  0.20159820  0.40571281  0.31732397  1
  O  O66  1  0.79840180  0.90571281  0.18267603  1
  O  O67  1  0.70159820  0.09428719  0.68267603  1
  O  O68  1  0.81732397  0.29840180  0.59428719  1
  O  O69  1  0.31732397  0.20159820  0.40571281  1
  O  O70  1  0.18267603  0.79840180  0.90571281  1
  O  O71  1  0.68267603  0.70159820  0.09428719  1
  O  O72  1  0.20313290  0.36915891  0.80104053  1
  O  O73  1  0.29686710  0.63084109  0.30104053  1
  O  O74  1  0.79686710  0.86915891  0.69895947  1
  O  O75  1  0.70313290  0.13084109  0.19895947  1
  O  O76  1  0.36915891  0.80104053  0.20313290  1
  O  O77  1  0.63084109  0.30104053  0.29686710  1
  O  O78  1  0.86915891  0.69895947  0.79686710  1
  O  O79  1  0.13084109  0.19895947  0.70313290  1
  O  O80  1  0.80104053  0.20313290  0.36915891  1
  O  O81  1  0.30104053  0.29686710  0.63084109  1
  O  O82  1  0.69895947  0.79686710  0.86915891  1
  O  O83  1  0.19895947  0.70313290  0.13084109  1
  O  O84  1  0.54686710  0.94895947  0.38084109  1
  O  O85  1  0.45313290  0.44895947  0.11915891  1
  O  O86  1  0.95313290  0.05104053  0.88084109  1
  O  O87  1  0.04686710  0.55104053  0.61915891  1
  O  O88  1  0.38084109  0.54686710  0.94895947  1
  O  O89  1  0.11915891  0.45313290  0.44895947  1
  O  O90  1  0.88084109  0.95313290  0.05104053  1
  O  O91  1  0.61915891  0.04686710  0.55104053  1
  O  O92  1  0.94895947  0.38084109  0.54686710  1
  O  O93  1  0.44895947  0.11915891  0.45313290  1
  O  O94  1  0.05104053  0.88084109  0.95313290  1
  O  O95  1  0.55104053  0.61915891  0.04686710  1
loop_
_geom_bond_atom_site_label_1
_geom_bond_atom_site_label_2
_geom_bond_distance
_geom_bond_site_symmetry_2
K0 O0 2.757443 1_555
K0 O4 2.757443 1_555
K0 O8 2.757443 1_555
K0 O46 3.047330 1_555
K0 O42 3.047330 1_555
K0 O38 3.047330 1_555
K1 O10 2.757443 1_555
K1 O1 2.757443 1_555
K1 O7 2.757443 1_555
K1 O36 3.047330 1_555
K1 O43 3.047330 1_555
K1 O45 3.047330 1_555
K2 O2 2.757443 1_555
K2 O5 2.757443 1_555
K2 O11 2.757443 1_555
K2 O44 3.047330 1_555
K2 O41 3.047330 1_555
K2 O39 3.047330 1_555
K3 O6 2.757443 1_555
K3 O9 2.757443 1_555
K3 O3 2.757443 1_555
K3 O40 3.047330 1_555
K3 O37 3.047330 1_555
K3 O47 3.047330 1_555
K4 O12 2.757443 1_555
K4 O16 2.757443 1_555
K4 O20 2.757443 1_555
K4 O34 3.047330 1_555
K4 O30 3.047330 1_555
K4 O26 3.047330 1_555
K5 O13 2.757443 1_556
K5 O22 2.757443 1_545
K5 O19 2.757443 1_555
K5 O24 3.047330 1_555
K5 O33 3.047330 1_555
K5 O31 3.047330 1_555
K6 O17 2.757443 1_655
K6 O14 2.757443 1_554
K6 O23 2.757443 1_555
K6 O32 3.047330 1_555
K6 O29 3.047330 1_555
K6 O27 3.047330 1_555
K7 O21 2.757443 1_565
K7 O18 2.757443 1_455
K7 O15 2.757443 1_555
K7 O28 3.047330 1_555
K7 O25 3.047330 1_555
K7 O35 3.047330 1_555
K8 O14 2.793744 1_555
K8 O6 2.793744 1_555
K8 O62 2.980380 1_555
K8 O54 2.980380 1_555
K8 O92 3.030678 1_555
K8 O72 3.030678 1_655
K8 O87 3.245379 1_655
K8 O79 3.245379 1_655
K9 O5 2.793744 1_555
K9 O12 2.793744 1_555
K9 O60 2.980380 1_555
K9 O53 2.980380 1_555
K9 O73 3.030678 1_555
K9 O95 3.030678 1_555
K9 O76 3.245379 1_555
K9 O85 3.245379 1_555
K10 O7 2.793744 1_555
K10 O15 2.793744 1_555
K10 O55 2.980380 1_565
K10 O63 2.980380 1_555
K10 O94 3.030678 1_555
K10 O74 3.030678 1_455
K10 O78 3.245379 1_455
K10 O86 3.245379 1_465
K11 O13 2.793744 1_555
K11 O4 2.793744 1_555
K11 O61 2.980380 1_555
K11 O52 2.980380 1_545
K11 O75 3.030678 1_555
K11 O93 3.030678 1_555
K11 O77 3.245379 1_555
K11 O84 3.245379 1_545
K12 O10 2.793744 1_555
K12 O22 2.793744 1_555
K12 O58 2.980380 1_555
K12 O70 2.980380 1_555
K12 O76 3.030678 1_556
K12 O88 3.030678 1_555
K12 O95 3.245379 1_556
K12 O83 3.245379 1_556
K13 O20 2.793744 1_555
K13 O9 2.793744 1_555
K13 O57 2.980380 1_555
K13 O68 2.980380 1_555
K13 O77 3.030678 1_555
K13 O91 3.030678 1_555
K13 O93 3.245379 1_555
K13 O80 3.245379 1_555
K14 O23 2.793744 1_555
K14 O11 2.793744 1_555
K14 O59 2.980380 1_655
K14 O71 2.980380 1_555
K14 O90 3.030678 1_555
K14 O78 3.030678 1_554
K14 O82 3.245379 1_554
K14 O94 3.245379 1_654
K15 O8 2.793744 1_555
K15 O21 2.793744 1_555
K15 O56 2.980380 1_455
K15 O69 2.980380 1_555
K15 O79 3.030678 1_555
K15 O89 3.030678 1_555
K15 O92 3.245379 1_455
K15 O81 3.245379 1_555
K16 O18 2.793744 1_555
K16 O2 2.793744 1_555
K16 O50 2.980380 1_555
K16 O66 2.980380 1_555
K16 O80 3.030678 1_565
K16 O84 3.030678 1_555
K16 O91 3.245379 1_565
K16 O75 3.245379 1_565
K17 O1 2.793744 1_555
K17 O16 2.793744 1_555
K17 O64 2.980380 1_555
K17 O49 2.980380 1_555
K17 O81 3.030678 1_555
K17 O87 3.030678 1_555
K17 O72 3.245379 1_555
K17 O89 3.245379 1_555
K18 O19 2.793744 1_555
K18 O3 2.793744 1_555
K18 O51 2.980380 1_556
K18 O67 2.980380 1_555
K18 O82 3.030678 1_545
K18 O86 3.030678 1_555
K18 O74 3.245379 1_545
K18 O90 3.245379 1_546
K19 O0 2.793744 1_555
K19 O17 2.793744 1_555
K19 O48 2.980380 1_554
K19 O65 2.980380 1_555
K19 O83 3.030678 1_555
K19 O85 3.030678 1_555
K19 O88 3.245379 1_554
K19 O73 3.245379 1_555
K20 O59 2.586910 1_556
K20 O64 2.586910 1_555
K20 O48 2.586910 1_555
K20 O70 2.586910 1_555
K20 O54 2.586910 1_455
K20 O63 2.586910 1_555
K21 O61 2.586910 1_555
K21 O65 2.586910 1_555
K21 O69 2.586910 1_555
K21 O57 2.586910 1_555
K21 O49 2.586910 1_555
K21 O53 2.586910 1_555
K22 O55 2.586910 1_655
K22 O68 2.586910 1_555
K22 O56 2.586910 1_555
K22 O67 2.586910 1_555
K22 O62 2.586910 1_555
K22 O50 2.586910 1_545
K23 O51 2.586910 1_565
K23 O60 2.586910 1_555
K23 O52 2.586910 1_555
K23 O66 2.586910 1_555
K23 O71 2.586910 1_555
K23 O58 2.586910 1_554
Fe0 O38 2.043287 1_555
Fe0 O42 2.043287 1_555
Fe0 O46 2.043287 1_555
Fe0 O86 2.071670 1_454
Fe0 O94 2.071670 1_544
Fe0 O90 2.071670 1_445
Fe1 O43 2.043287 1_555
Fe1 O36 2.043287 1_555
Fe1 O45 2.043287 1_555
Fe1 O93 2.071670 1_565
Fe1 O91 2.071670 1_565
Fe1 O84 2.071670 1_555
Fe2 O39 2.043287 1_555
Fe2 O44 2.043287 1_555
Fe2 O41 2.043287 1_555
Fe2 O89 2.071670 1_655
Fe2 O87 2.071670 1_655
Fe2 O92 2.071670 1_555
Fe3 O47 2.043287 1_555
Fe3 O40 2.043287 1_555
Fe3 O37 2.043287 1_555
Fe3 O85 2.071670 1_556
Fe3 O95 2.071670 1_556
Fe3 O88 2.071670 1_555
Fe4 O26 2.043287 1_555
Fe4 O30 2.043287 1_555
Fe4 O34 2.043287 1_555
Fe4 O82 2.071670 1_555
Fe4 O74 2.071670 1_555
Fe4 O78 2.071670 1_555
Fe5 O24 2.043287 1_555
Fe5 O31 2.043287 1_555
Fe5 O33 2.043287 1_555
Fe5 O72 2.071670 1_555
Fe5 O79 2.071670 1_555
Fe5 O81 2.071670 1_555
Fe6 O32 2.043287 1_555
Fe6 O29 2.043287 1_555
Fe6 O27 2.043287 1_555
Fe6 O80 2.071670 1_555
Fe6 O77 2.071670 1_555
Fe6 O75 2.071670 1_555
Fe7 O28 2.043287 1_555
Fe7 O25 2.043287 1_555
Fe7 O35 2.043287 1_555
Fe7 O76 2.071670 1_555
Fe7 O83 2.071670 1_555
Fe7 O73 2.071670 1_555
C0 O0 1.243503 1_556
C0 O24 1.292402 1_555
C1 O1 1.243503 1_555
C1 O25 1.292402 1_555
C2 O2 1.243503 1_555
C2 O26 1.292402 1_555
C3 O3 1.243503 1_554
C3 O27 1.292402 1_555
C4 O4 1.243503 1_565
C4 O28 1.292402 1_555
C5 O5 1.243503 1_555
C5 O29 1.292402 1_555
C6 O6 1.243503 1_555
C6 O30 1.292402 1_555
C7 O7 1.243503 1_545
C7 O31 1.292402 1_555
C8 O8 1.243503 1_655
C8 O32 1.292402 1_555
C9 O9 1.243503 1_555
C9 O33 1.292402 1_555
C10 O10 1.243503 1_555
C10 O34 1.292402 1_555
C11 O11 1.243503 1_455
C11 O35 1.292402 1_555
C12 O12 1.243503 1_555
C12 O36 1.292402 1_555
C13 O13 1.243503 1_555
C13 O37 1.292402 1_554
C14 O14 1.243503 1_555
C14 O38 1.292402 1_656
C15 O15 1.243503 1_555
C15 O39 1.292402 1_455
C16 O16 1.243503 1_555
C16 O40 1.292402 1_555
C17 O17 1.243503 1_555
C17 O41 1.292402 1_455
C18 O18 1.243503 1_555
C18 O42 1.292402 1_665
C19 O19 1.243503 1_555
C19 O43 1.292402 1_545
C20 O20 1.243503 1_555
C20 O44 1.292402 1_555
C21 O21 1.243503 1_555
C21 O45 1.292402 1_545
C22 O22 1.243503 1_555
C22 O46 1.292402 1_566
C23 O23 1.243503 1_555
C23 O47 1.292402 1_554
C24 O48 1.236949 1_555
C24 O72 1.307700 1_555
C25 O49 1.236949 1_555
C25 O73 1.307700 1_555
C26 O50 1.236949 1_555
C26 O74 1.307700 1_555
C27 O51 1.236949 1_555
C27 O75 1.307700 1_555
C28 O52 1.236949 1_555
C28 O76 1.307700 1_555
C29 O53 1.236949 1_555
C29 O77 1.307700 1_555
C30 O54 1.236949 1_555
C30 O78 1.307700 1_555
C31 O55 1.236949 1_555
C31 O79 1.307700 1_555
C32 O56 1.236949 1_555
C32 O80 1.307700 1_555
C33 O57 1.236949 1_555
C33 O81 1.307700 1_555
C34 O58 1.236949 1_555
C34 O82 1.307700 1_555
C35 O59 1.236949 1_555
C35 O83 1.307700 1_555
C36 O60 1.236949 1_555
C36 O84 1.307700 1_555
C37 O61 1.236949 1_555
C37 O85 1.307700 1_555
C38 O62 1.236949 1_555
C38 O86 1.307700 1_555
C39 O63 1.236949 1_555
C39 O87 1.307700 1_555
C40 O64 1.236949 1_555
C40 O88 1.307700 1_555
C41 O65 1.236949 1_555
C41 O89 1.307700 1_555
C42 O66 1.236949 1_555
C42 O90 1.307700 1_555
C43 O67 1.236949 1_555
C43 O91 1.307700 1_555
C44 O68 1.236949 1_555
C44 O92 1.307700 1_555
C45 O69 1.236949 1_555
C45 O93 1.307700 1_555
C46 O70 1.236949 1_555
C46 O94 1.307700 1_555
C47 O71 1.236949 1_555
C47 O95 1.307700 1_555
