# generated using pymatgen
data_Mg2Bi
_symmetry_space_group_name_H-M   'P 1'
_cell_length_a   10.57022086
_cell_length_b   6.80997060
_cell_length_c   34.72069434
_cell_angle_alpha   90.00000000
_cell_angle_beta   90.00000000
_cell_angle_gamma   90.00000000
_symmetry_Int_Tables_number   1
_chemical_formula_structural   Mg2Bi
_chemical_formula_sum   'Mg64 Bi32'
_cell_volume   2499.29603570
_cell_formula_units_Z   32
loop_
 _symmetry_equiv_pos_site_id
 _symmetry_equiv_pos_as_xyz
  1  'x, y, z'
loop_
 _atom_site_type_symbol
 _atom_site_label
 _atom_site_symmetry_multiplicity
 _atom_site_fract_x
 _atom_site_fract_y
 _atom_site_fract_z
 _atom_site_occupancy
  Mg  Mg0_0  1  0.00000000  0.00000000  0.00296005  1
  Mg  Mg0_1  1  0.00000000  0.00000000  0.50296005  1
  Mg  Mg0_2  1  0.00000000  0.50000000  0.00296005  1
  Mg  Mg0_3  1  0.00000000  0.50000000  0.50296005  1
  Mg  Mg0_4  1  0.50000000  0.00000000  0.00296005  1
  Mg  Mg0_5  1  0.50000000  0.00000000  0.50296005  1
  Mg  Mg0_6  1  0.50000000  0.50000000  0.00296005  1
  Mg  Mg0_7  1  0.50000000  0.50000000  0.50296005  1
  Mg  Mg1_0  1  0.00000000  0.25000000  0.08133216  1
  Mg  Mg1_1  1  0.00000000  0.25000000  0.58133216  1
  Mg  Mg1_2  1  0.00000000  0.75000000  0.08133216  1
  Mg  Mg1_3  1  0.00000000  0.75000000  0.58133216  1
  Mg  Mg1_4  1  0.50000000  0.25000000  0.08133216  1
  Mg  Mg1_5  1  0.50000000  0.25000000  0.58133216  1
  Mg  Mg1_6  1  0.50000000  0.75000000  0.08133216  1
  Mg  Mg1_7  1  0.50000000  0.75000000  0.58133216  1
  Mg  Mg2_0  1  0.00000000  0.00000000  0.16547925  1
  Mg  Mg2_1  1  0.00000000  0.00000000  0.66547925  1
  Mg  Mg2_2  1  0.00000000  0.50000000  0.16547925  1
  Mg  Mg2_3  1  0.00000000  0.50000000  0.66547925  1
  Mg  Mg2_4  1  0.50000000  0.00000000  0.16547925  1
  Mg  Mg2_5  1  0.50000000  0.00000000  0.66547925  1
  Mg  Mg2_6  1  0.50000000  0.50000000  0.16547925  1
  Mg  Mg2_7  1  0.50000000  0.50000000  0.66547925  1
  Mg  Mg3_0  1  0.25000000  0.25000000  0.02776658  1
  Mg  Mg3_1  1  0.25000000  0.25000000  0.52776658  1
  Mg  Mg3_2  1  0.25000000  0.75000000  0.02776658  1
  Mg  Mg3_3  1  0.25000000  0.75000000  0.52776658  1
  Mg  Mg3_4  1  0.75000000  0.25000000  0.02776658  1
  Mg  Mg3_5  1  0.75000000  0.25000000  0.52776658  1
  Mg  Mg3_6  1  0.75000000  0.75000000  0.02776658  1
  Mg  Mg3_7  1  0.75000000  0.75000000  0.52776658  1
  Mg  Mg4_0  1  0.00000000  0.25000000  0.25296005  1
  Mg  Mg4_1  1  0.00000000  0.25000000  0.75296005  1
  Mg  Mg4_2  1  0.00000000  0.75000000  0.25296005  1
  Mg  Mg4_3  1  0.00000000  0.75000000  0.75296005  1
  Mg  Mg4_4  1  0.50000000  0.25000000  0.25296005  1
  Mg  Mg4_5  1  0.50000000  0.25000000  0.75296005  1
  Mg  Mg4_6  1  0.50000000  0.75000000  0.25296005  1
  Mg  Mg4_7  1  0.50000000  0.75000000  0.75296005  1
  Mg  Mg5_0  1  0.00000000  0.00000000  0.33133216  1
  Mg  Mg5_1  1  0.00000000  0.00000000  0.83133216  1
  Mg  Mg5_2  1  0.00000000  0.50000000  0.33133216  1
  Mg  Mg5_3  1  0.00000000  0.50000000  0.83133216  1
  Mg  Mg5_4  1  0.50000000  0.00000000  0.33133216  1
  Mg  Mg5_5  1  0.50000000  0.00000000  0.83133216  1
  Mg  Mg5_6  1  0.50000000  0.50000000  0.33133216  1
  Mg  Mg5_7  1  0.50000000  0.50000000  0.83133216  1
  Mg  Mg6_0  1  0.00000000  0.25000000  0.41547925  1
  Mg  Mg6_1  1  0.00000000  0.25000000  0.91547925  1
  Mg  Mg6_2  1  0.00000000  0.75000000  0.41547925  1
  Mg  Mg6_3  1  0.00000000  0.75000000  0.91547925  1
  Mg  Mg6_4  1  0.50000000  0.25000000  0.41547925  1
  Mg  Mg6_5  1  0.50000000  0.25000000  0.91547925  1
  Mg  Mg6_6  1  0.50000000  0.75000000  0.41547925  1
  Mg  Mg6_7  1  0.50000000  0.75000000  0.91547925  1
  Mg  Mg7_0  1  0.25000000  0.00000000  0.27776658  1
  Mg  Mg7_1  1  0.25000000  0.00000000  0.77776658  1
  Mg  Mg7_2  1  0.25000000  0.50000000  0.27776658  1
  Mg  Mg7_3  1  0.25000000  0.50000000  0.77776658  1
  Mg  Mg7_4  1  0.75000000  0.00000000  0.27776658  1
  Mg  Mg7_5  1  0.75000000  0.00000000  0.77776658  1
  Mg  Mg7_6  1  0.75000000  0.50000000  0.27776658  1
  Mg  Mg7_7  1  0.75000000  0.50000000  0.77776658  1
  Bi  Bi0_0  1  0.25000000  0.25000000  0.20144133  1
  Bi  Bi0_1  1  0.25000000  0.25000000  0.70144133  1
  Bi  Bi0_2  1  0.25000000  0.75000000  0.20144133  1
  Bi  Bi0_3  1  0.25000000  0.75000000  0.70144133  1
  Bi  Bi0_4  1  0.75000000  0.25000000  0.20144133  1
  Bi  Bi0_5  1  0.75000000  0.25000000  0.70144133  1
  Bi  Bi0_6  1  0.75000000  0.75000000  0.20144133  1
  Bi  Bi0_7  1  0.75000000  0.75000000  0.70144133  1
  Bi  Bi1_0  1  0.25000000  0.00000000  0.10435414  1
  Bi  Bi1_1  1  0.25000000  0.00000000  0.60435414  1
  Bi  Bi1_2  1  0.25000000  0.50000000  0.10435414  1
  Bi  Bi1_3  1  0.25000000  0.50000000  0.60435414  1
  Bi  Bi1_4  1  0.75000000  0.00000000  0.10435414  1
  Bi  Bi1_5  1  0.75000000  0.00000000  0.60435414  1
  Bi  Bi1_6  1  0.75000000  0.50000000  0.10435414  1
  Bi  Bi1_7  1  0.75000000  0.50000000  0.60435414  1
  Bi  Bi2_0  1  0.25000000  0.00000000  0.45144133  1
  Bi  Bi2_1  1  0.25000000  0.00000000  0.95144133  1
  Bi  Bi2_2  1  0.25000000  0.50000000  0.45144133  1
  Bi  Bi2_3  1  0.25000000  0.50000000  0.95144133  1
  Bi  Bi2_4  1  0.75000000  0.00000000  0.45144133  1
  Bi  Bi2_5  1  0.75000000  0.00000000  0.95144133  1
  Bi  Bi2_6  1  0.75000000  0.50000000  0.45144133  1
  Bi  Bi2_7  1  0.75000000  0.50000000  0.95144133  1
  Bi  Bi3_0  1  0.25000000  0.25000000  0.35435414  1
  Bi  Bi3_1  1  0.25000000  0.25000000  0.85435414  1
  Bi  Bi3_2  1  0.25000000  0.75000000  0.35435414  1
  Bi  Bi3_3  1  0.25000000  0.75000000  0.85435414  1
  Bi  Bi3_4  1  0.75000000  0.25000000  0.35435414  1
  Bi  Bi3_5  1  0.75000000  0.25000000  0.85435414  1
  Bi  Bi3_6  1  0.75000000  0.75000000  0.35435414  1
  Bi  Bi3_7  1  0.75000000  0.75000000  0.85435414  1
loop_
_geom_bond_atom_site_label_1
_geom_bond_atom_site_label_2
_geom_bond_distance
_geom_bond_site_symmetry_2
Mg0_0 Mg1_2 3.209837 1_545
Mg0_0 Mg1_0 3.209837 1_555
Mg0_0 Mg3_0 3.259358 1_555
Mg0_0 Mg3_4 3.259358 1_455
Mg0_0 Mg3_6 3.259358 1_445
Mg0_0 Mg3_2 3.259358 1_545
Mg0_0 Mg0_2 3.404985 1_555
Mg0_0 Mg0_2 3.404985 1_545
Mg0_0 Mg6_1 3.481989 1_554
Mg0_0 Mg6_3 3.481989 1_544
Mg0_1 Mg1_1 3.209837 1_555
Mg0_1 Mg1_3 3.209837 1_545
Mg0_1 Mg3_1 3.259358 1_555
Mg0_1 Mg3_5 3.259358 1_455
Mg0_1 Mg3_3 3.259358 1_545
Mg0_1 Mg3_7 3.259358 1_445
Mg0_1 Mg0_3 3.404985 1_555
Mg0_1 Mg0_3 3.404985 1_545
Mg0_1 Mg6_2 3.481989 1_545
Mg0_1 Mg6_0 3.481989 1_555
Mg0_2 Mg1_2 3.209837 1_555
Mg0_2 Mg1_0 3.209837 1_555
Mg0_2 Mg3_0 3.259358 1_555
Mg0_2 Mg3_4 3.259358 1_455
Mg0_2 Mg3_2 3.259358 1_555
Mg0_2 Mg3_6 3.259358 1_455
Mg0_2 Mg6_1 3.481989 1_554
Mg0_2 Mg6_3 3.481989 1_554
Mg0_3 Mg1_1 3.209837 1_555
Mg0_3 Mg1_3 3.209837 1_555
Mg0_3 Mg3_1 3.259358 1_555
Mg0_3 Mg3_5 3.259358 1_455
Mg0_3 Mg3_3 3.259358 1_555
Mg0_3 Mg3_7 3.259358 1_455
Mg0_3 Mg6_0 3.481989 1_555
Mg0_3 Mg6_2 3.481989 1_555
Mg0_4 Mg1_4 3.209837 1_555
Mg0_4 Mg1_6 3.209837 1_545
Mg0_4 Mg3_0 3.259358 1_555
Mg0_4 Mg3_4 3.259358 1_555
Mg0_4 Mg3_2 3.259358 1_545
Mg0_4 Mg3_6 3.259358 1_545
Mg0_4 Mg0_6 3.404985 1_555
Mg0_4 Mg0_6 3.404985 1_545
Mg0_4 Mg6_5 3.481989 1_554
Mg0_4 Mg6_7 3.481989 1_544
Mg0_5 Mg1_5 3.209837 1_555
Mg0_5 Mg1_7 3.209837 1_545
Mg0_5 Mg3_7 3.259358 1_545
Mg0_5 Mg3_1 3.259358 1_555
Mg0_5 Mg3_5 3.259358 1_555
Mg0_5 Mg3_3 3.259358 1_545
Mg0_5 Mg0_7 3.404985 1_555
Mg0_5 Mg0_7 3.404985 1_545
Mg0_5 Mg6_4 3.481989 1_555
Mg0_5 Mg6_6 3.481989 1_545
Mg0_6 Mg1_4 3.209837 1_555
Mg0_6 Mg1_6 3.209837 1_555
Mg0_6 Mg3_0 3.259358 1_555
Mg0_6 Mg3_4 3.259358 1_555
Mg0_6 Mg3_2 3.259358 1_555
Mg0_6 Mg3_6 3.259358 1_555
Mg0_6 Mg6_5 3.481989 1_554
Mg0_6 Mg6_7 3.481989 1_554
Mg0_7 Mg1_5 3.209837 1_555
Mg0_7 Mg1_7 3.209837 1_555
Mg0_7 Mg3_1 3.259358 1_555
Mg0_7 Mg3_5 3.259358 1_555
Mg0_7 Mg3_3 3.259358 1_555
Mg0_7 Mg3_7 3.259358 1_555
Mg0_7 Mg6_4 3.481989 1_555
Mg0_7 Mg6_6 3.481989 1_555
Mg1_0 Mg3_0 3.231421 1_555
Mg1_0 Mg3_4 3.231421 1_455
Mg1_0 Mg2_2 3.381493 1_555
Mg1_0 Mg2_0 3.381493 1_555
Mg1_0 Mg1_2 3.404985 1_555
Mg1_0 Mg1_2 3.404985 1_545
Mg1_1 Mg3_1 3.231421 1_555
Mg1_1 Mg3_5 3.231421 1_455
Mg1_1 Mg2_3 3.381493 1_555
Mg1_1 Mg2_1 3.381493 1_555
Mg1_1 Mg1_3 3.404985 1_555
Mg1_1 Mg1_3 3.404985 1_545
Mg1_2 Mg3_2 3.231421 1_555
Mg1_2 Mg3_6 3.231421 1_455
Mg1_2 Mg2_0 3.381493 1_565
Mg1_2 Mg2_2 3.381493 1_555
Mg1_3 Mg3_7 3.231421 1_455
Mg1_3 Mg3_3 3.231421 1_555
Mg1_3 Mg2_1 3.381493 1_565
Mg1_3 Mg2_3 3.381493 1_555
Mg1_4 Mg3_0 3.231421 1_555
Mg1_4 Mg3_4 3.231421 1_555
Mg1_4 Mg2_6 3.381493 1_555
Mg1_4 Mg2_4 3.381493 1_555
Mg1_4 Mg1_6 3.404985 1_555
Mg1_4 Mg1_6 3.404985 1_545
Mg1_5 Mg3_1 3.231421 1_555
Mg1_5 Mg3_5 3.231421 1_555
Mg1_5 Mg2_5 3.381493 1_555
Mg1_5 Mg2_7 3.381493 1_555
Mg1_5 Mg1_7 3.404985 1_555
Mg1_5 Mg1_7 3.404985 1_545
Mg1_6 Mg3_6 3.231421 1_555
Mg1_6 Mg3_2 3.231421 1_555
Mg1_6 Mg2_4 3.381493 1_565
Mg1_6 Mg2_6 3.381493 1_555
Mg1_7 Mg3_7 3.231421 1_555
Mg1_7 Mg3_3 3.231421 1_555
Mg1_7 Mg2_5 3.381493 1_565
Mg1_7 Mg2_7 3.381493 1_555
Mg2_0 Mg2_2 3.404985 1_555
Mg2_0 Mg2_2 3.404985 1_545
Mg2_0 Mg4_2 3.481989 1_545
Mg2_0 Mg4_0 3.481989 1_555
Mg2_1 Mg2_3 3.404985 1_555
Mg2_1 Mg2_3 3.404985 1_545
Mg2_1 Mg4_1 3.481989 1_555
Mg2_1 Mg4_3 3.481989 1_545
Mg2_2 Mg4_0 3.481989 1_555
Mg2_2 Mg4_2 3.481989 1_555
Mg2_3 Mg4_1 3.481989 1_555
Mg2_3 Mg4_3 3.481989 1_555
Mg2_4 Mg2_6 3.404985 1_555
Mg2_4 Mg2_6 3.404985 1_545
Mg2_4 Mg4_6 3.481989 1_545
Mg2_4 Mg4_4 3.481989 1_555
Mg2_5 Mg2_7 3.404985 1_555
Mg2_5 Mg2_7 3.404985 1_545
Mg2_5 Mg4_7 3.481989 1_545
Mg2_5 Mg4_5 3.481989 1_555
Mg2_6 Mg4_4 3.481989 1_555
Mg2_6 Mg4_6 3.481989 1_555
Mg2_7 Mg4_5 3.481989 1_555
Mg2_7 Mg4_7 3.481989 1_555
Mg3_0 Mg3_2 3.404985 1_555
Mg3_0 Mg3_2 3.404985 1_545
Mg3_1 Mg3_3 3.404985 1_555
Mg3_1 Mg3_3 3.404985 1_545
Mg3_4 Mg3_6 3.404985 1_545
Mg3_4 Mg3_6 3.404985 1_555
Mg3_5 Mg3_7 3.404985 1_545
Mg3_5 Mg3_7 3.404985 1_555
Mg4_0 Mg5_0 3.209837 1_555
Mg4_0 Mg5_2 3.209837 1_555
Mg4_0 Mg7_2 3.259358 1_555
Mg4_0 Mg7_0 3.259358 1_555
Mg4_0 Mg7_4 3.259358 1_455
Mg4_0 Mg7_6 3.259358 1_455
Mg4_0 Mg4_2 3.404985 1_555
Mg4_0 Mg4_2 3.404985 1_545
Mg4_1 Mg5_3 3.209837 1_555
Mg4_1 Mg5_1 3.209837 1_555
Mg4_1 Mg7_7 3.259358 1_455
Mg4_1 Mg7_5 3.259358 1_455
Mg4_1 Mg7_1 3.259358 1_555
Mg4_1 Mg7_3 3.259358 1_555
Mg4_1 Mg4_3 3.404985 1_555
Mg4_1 Mg4_3 3.404985 1_545
Mg4_2 Mg5_0 3.209837 1_565
Mg4_2 Mg5_2 3.209837 1_555
Mg4_2 Mg7_2 3.259358 1_555
Mg4_2 Mg7_6 3.259358 1_455
Mg4_2 Mg7_4 3.259358 1_465
Mg4_2 Mg7_0 3.259358 1_565
Mg4_3 Mg5_1 3.209837 1_565
Mg4_3 Mg5_3 3.209837 1_555
Mg4_3 Mg7_5 3.259358 1_465
Mg4_3 Mg7_1 3.259358 1_565
Mg4_3 Mg7_3 3.259358 1_555
Mg4_3 Mg7_7 3.259358 1_455
Mg4_4 Mg5_4 3.209837 1_555
Mg4_4 Mg5_6 3.209837 1_555
Mg4_4 Mg7_4 3.259358 1_555
Mg4_4 Mg7_2 3.259358 1_555
Mg4_4 Mg7_0 3.259358 1_555
Mg4_4 Mg7_6 3.259358 1_555
Mg4_4 Mg4_6 3.404985 1_545
Mg4_4 Mg4_6 3.404985 1_555
Mg4_5 Mg5_7 3.209837 1_555
Mg4_5 Mg5_5 3.209837 1_555
Mg4_5 Mg7_7 3.259358 1_555
Mg4_5 Mg7_1 3.259358 1_555
Mg4_5 Mg7_5 3.259358 1_555
Mg4_5 Mg7_3 3.259358 1_555
Mg4_5 Mg4_7 3.404985 1_545
Mg4_5 Mg4_7 3.404985 1_555
Mg4_6 Mg5_4 3.209837 1_565
Mg4_6 Mg5_6 3.209837 1_555
Mg4_6 Mg7_6 3.259358 1_555
Mg4_6 Mg7_4 3.259358 1_565
Mg4_6 Mg7_0 3.259358 1_565
Mg4_6 Mg7_2 3.259358 1_555
Mg4_7 Mg5_5 3.209837 1_565
Mg4_7 Mg5_7 3.209837 1_555
Mg4_7 Mg7_1 3.259358 1_565
Mg4_7 Mg7_5 3.259358 1_565
Mg4_7 Mg7_3 3.259358 1_555
Mg4_7 Mg7_7 3.259358 1_555
Mg5_0 Mg7_0 3.231421 1_555
Mg5_0 Mg7_4 3.231421 1_455
Mg5_0 Mg6_0 3.381493 1_555
Mg5_0 Mg6_2 3.381493 1_545
Mg5_0 Mg5_2 3.404985 1_555
Mg5_0 Mg5_2 3.404985 1_545
Mg5_1 Mg7_1 3.231421 1_555
Mg5_1 Mg7_5 3.231421 1_455
Mg5_1 Mg6_1 3.381493 1_555
Mg5_1 Mg6_3 3.381493 1_545
Mg5_1 Mg5_3 3.404985 1_555
Mg5_1 Mg5_3 3.404985 1_545
Mg5_2 Mg7_6 3.231421 1_455
Mg5_2 Mg7_2 3.231421 1_555
Mg5_2 Mg6_0 3.381493 1_555
Mg5_2 Mg6_2 3.381493 1_555
Mg5_3 Mg7_3 3.231421 1_555
Mg5_3 Mg7_7 3.231421 1_455
Mg5_3 Mg6_1 3.381493 1_555
Mg5_3 Mg6_3 3.381493 1_555
Mg5_4 Mg7_4 3.231421 1_555
Mg5_4 Mg7_0 3.231421 1_555
Mg5_4 Mg6_4 3.381493 1_555
Mg5_4 Mg6_6 3.381493 1_545
Mg5_4 Mg5_6 3.404985 1_555
Mg5_4 Mg5_6 3.404985 1_545
Mg5_5 Mg7_1 3.231421 1_555
Mg5_5 Mg7_5 3.231421 1_555
Mg5_5 Mg6_5 3.381493 1_555
Mg5_5 Mg6_7 3.381493 1_545
Mg5_5 Mg5_7 3.404985 1_555
Mg5_5 Mg5_7 3.404985 1_545
Mg5_6 Mg7_2 3.231421 1_555
Mg5_6 Mg7_6 3.231421 1_555
Mg5_6 Mg6_4 3.381493 1_555
Mg5_6 Mg6_6 3.381493 1_555
Mg5_7 Mg7_7 3.231421 1_555
Mg5_7 Mg7_3 3.231421 1_555
Mg5_7 Mg6_5 3.381493 1_555
Mg5_7 Mg6_7 3.381493 1_555
Mg6_0 Mg6_2 3.404985 1_555
Mg6_0 Mg6_2 3.404985 1_545
Mg6_1 Mg6_3 3.404985 1_545
Mg6_1 Mg6_3 3.404985 1_555
Mg6_4 Mg6_6 3.404985 1_545
Mg6_4 Mg6_6 3.404985 1_555
Mg6_5 Mg6_7 3.404985 1_545
Mg6_5 Mg6_7 3.404985 1_555
Mg7_0 Mg7_2 3.404985 1_555
Mg7_0 Mg7_2 3.404985 1_545
Mg7_1 Mg7_3 3.404985 1_555
Mg7_1 Mg7_3 3.404985 1_545
Mg7_4 Mg7_6 3.404985 1_555
Mg7_4 Mg7_6 3.404985 1_545
Mg7_5 Mg7_7 3.404985 1_555
Mg7_5 Mg7_7 3.404985 1_545
Bi0_0 Mg7_0 3.149814 1_555
Bi0_0 Mg7_2 3.149814 1_555
Bi0_0 Mg4_0 3.191047 1_555
Bi0_0 Mg4_4 3.191047 1_555
Bi0_0 Mg2_6 3.382403 1_555
Bi0_0 Mg2_4 3.382403 1_555
Bi0_0 Mg2_2 3.382403 1_555
Bi0_0 Mg2_0 3.382403 1_555
Bi0_0 Bi0_2 3.404985 1_545
Bi0_0 Bi0_2 3.404985 1_555
Bi0_1 Mg7_3 3.149814 1_555
Bi0_1 Mg7_1 3.149814 1_555
Bi0_1 Mg4_1 3.191047 1_555
Bi0_1 Mg4_5 3.191047 1_555
Bi0_1 Mg2_1 3.382403 1_555
Bi0_1 Mg2_7 3.382403 1_555
Bi0_1 Mg2_5 3.382403 1_555
Bi0_1 Mg2_3 3.382403 1_555
Bi0_1 Bi0_3 3.404985 1_555
Bi0_1 Bi0_3 3.404985 1_545
Bi0_2 Mg7_0 3.149814 1_565
Bi0_2 Mg7_2 3.149814 1_555
Bi0_2 Mg4_2 3.191047 1_555
Bi0_2 Mg4_6 3.191047 1_555
Bi0_2 Mg2_0 3.382403 1_565
Bi0_2 Mg2_4 3.382403 1_565
Bi0_2 Mg2_2 3.382403 1_555
Bi0_2 Mg2_6 3.382403 1_555
Bi0_3 Mg7_3 3.149814 1_555
Bi0_3 Mg7_1 3.149814 1_565
Bi0_3 Mg4_7 3.191047 1_555
Bi0_3 Mg4_3 3.191047 1_555
Bi0_3 Mg2_5 3.382403 1_565
Bi0_3 Mg2_1 3.382403 1_565
Bi0_3 Mg2_3 3.382403 1_555
Bi0_3 Mg2_7 3.382403 1_555
Bi0_4 Mg7_6 3.149814 1_555
Bi0_4 Mg7_4 3.149814 1_555
Bi0_4 Mg4_4 3.191047 1_555
Bi0_4 Mg4_0 3.191047 1_655
Bi0_4 Mg2_6 3.382403 1_555
Bi0_4 Mg2_0 3.382403 1_655
Bi0_4 Mg2_4 3.382403 1_555
Bi0_4 Mg2_2 3.382403 1_655
Bi0_4 Bi0_6 3.404985 1_545
Bi0_4 Bi0_6 3.404985 1_555
Bi0_5 Mg7_7 3.149814 1_555
Bi0_5 Mg7_5 3.149814 1_555
Bi0_5 Mg4_5 3.191047 1_555
Bi0_5 Mg4_1 3.191047 1_655
Bi0_5 Mg2_7 3.382403 1_555
Bi0_5 Mg2_1 3.382403 1_655
Bi0_5 Mg2_5 3.382403 1_555
Bi0_5 Mg2_3 3.382403 1_655
Bi0_5 Bi0_7 3.404985 1_545
Bi0_5 Bi0_7 3.404985 1_555
Bi0_6 Mg7_4 3.149814 1_565
Bi0_6 Mg7_6 3.149814 1_555
Bi0_6 Mg4_2 3.191047 1_655
Bi0_6 Mg4_6 3.191047 1_555
Bi0_6 Mg2_0 3.382403 1_665
Bi0_6 Mg2_4 3.382403 1_565
Bi0_6 Mg2_2 3.382403 1_655
Bi0_6 Mg2_6 3.382403 1_555
Bi0_7 Mg7_5 3.149814 1_565
Bi0_7 Mg7_7 3.149814 1_555
Bi0_7 Mg4_3 3.191047 1_655
Bi0_7 Mg4_7 3.191047 1_555
Bi0_7 Mg2_5 3.382403 1_565
Bi0_7 Mg2_1 3.382403 1_665
Bi0_7 Mg2_3 3.382403 1_655
Bi0_7 Mg2_7 3.382403 1_555
Bi1_0 Mg3_0 3.157480 1_555
Bi1_0 Mg3_2 3.157480 1_545
Bi1_0 Mg1_4 3.243535 1_555
Bi1_0 Mg1_0 3.243535 1_555
Bi1_0 Mg1_2 3.243535 1_545
Bi1_0 Mg1_6 3.243535 1_545
Bi1_0 Mg2_4 3.389289 1_555
Bi1_0 Mg2_0 3.389289 1_555
Bi1_0 Bi1_2 3.404985 1_555
Bi1_0 Bi1_2 3.404985 1_545
Bi1_1 Mg3_1 3.157480 1_555
Bi1_1 Mg3_3 3.157480 1_545
Bi1_1 Mg1_1 3.243535 1_555
Bi1_1 Mg1_5 3.243535 1_555
Bi1_1 Mg1_3 3.243535 1_545
Bi1_1 Mg1_7 3.243535 1_545
Bi1_1 Mg2_5 3.389289 1_555
Bi1_1 Mg2_1 3.389289 1_555
Bi1_1 Bi1_3 3.404985 1_555
Bi1_1 Bi1_3 3.404985 1_545
Bi1_2 Mg3_0 3.157480 1_555
Bi1_2 Mg3_2 3.157480 1_555
Bi1_2 Mg1_4 3.243535 1_555
Bi1_2 Mg1_0 3.243535 1_555
Bi1_2 Mg1_6 3.243535 1_555
Bi1_2 Mg1_2 3.243535 1_555
Bi1_2 Mg2_6 3.389289 1_555
Bi1_2 Mg2_2 3.389289 1_555
Bi1_3 Mg3_1 3.157480 1_555
Bi1_3 Mg3_3 3.157480 1_555
Bi1_3 Mg1_1 3.243535 1_555
Bi1_3 Mg1_5 3.243535 1_555
Bi1_3 Mg1_3 3.243535 1_555
Bi1_3 Mg1_7 3.243535 1_555
Bi1_3 Mg2_7 3.389289 1_555
Bi1_3 Mg2_3 3.389289 1_555
Bi1_4 Mg3_4 3.157480 1_555
Bi1_4 Mg3_6 3.157480 1_545
Bi1_4 Mg1_4 3.243535 1_555
Bi1_4 Mg1_0 3.243535 1_655
Bi1_4 Mg1_6 3.243535 1_545
Bi1_4 Mg1_2 3.243535 1_645
Bi1_4 Mg2_0 3.389289 1_655
Bi1_4 Mg2_4 3.389289 1_555
Bi1_4 Bi1_6 3.404985 1_555
Bi1_4 Bi1_6 3.404985 1_545
Bi1_5 Mg3_5 3.157480 1_555
Bi1_5 Mg3_7 3.157480 1_545
Bi1_5 Mg1_1 3.243535 1_655
Bi1_5 Mg1_5 3.243535 1_555
Bi1_5 Mg1_3 3.243535 1_645
Bi1_5 Mg1_7 3.243535 1_545
Bi1_5 Mg2_1 3.389289 1_655
Bi1_5 Mg2_5 3.389289 1_555
Bi1_5 Bi1_7 3.404985 1_555
Bi1_5 Bi1_7 3.404985 1_545
Bi1_6 Mg3_4 3.157480 1_555
Bi1_6 Mg3_6 3.157480 1_555
Bi1_6 Mg1_4 3.243535 1_555
Bi1_6 Mg1_0 3.243535 1_655
Bi1_6 Mg1_2 3.243535 1_655
Bi1_6 Mg1_6 3.243535 1_555
Bi1_6 Mg2_6 3.389289 1_555
Bi1_6 Mg2_2 3.389289 1_655
Bi1_7 Mg3_5 3.157480 1_555
Bi1_7 Mg3_7 3.157480 1_555
Bi1_7 Mg1_5 3.243535 1_555
Bi1_7 Mg1_1 3.243535 1_655
Bi1_7 Mg1_7 3.243535 1_555
Bi1_7 Mg1_3 3.243535 1_655
Bi1_7 Mg2_7 3.389289 1_555
Bi1_7 Mg2_3 3.389289 1_655
Bi2_0 Mg3_3 3.149814 1_545
Bi2_0 Mg3_1 3.149814 1_555
Bi2_0 Mg0_5 3.191047 1_555
Bi2_0 Mg0_1 3.191047 1_555
Bi2_0 Mg6_2 3.382403 1_545
Bi2_0 Mg6_0 3.382403 1_555
Bi2_0 Mg6_4 3.382403 1_555
Bi2_0 Mg6_6 3.382403 1_545
Bi2_0 Bi2_2 3.404985 1_555
Bi2_0 Bi2_2 3.404985 1_545
Bi2_1 Mg3_0 3.149814 1_556
Bi2_1 Mg3_2 3.149814 1_546
Bi2_1 Mg0_0 3.191047 1_556
Bi2_1 Mg0_4 3.191047 1_556
Bi2_1 Mg6_1 3.382403 1_555
Bi2_1 Mg6_5 3.382403 1_555
Bi2_1 Mg6_3 3.382403 1_545
Bi2_1 Mg6_7 3.382403 1_545
Bi2_1 Bi2_3 3.404985 1_555
Bi2_1 Bi2_3 3.404985 1_545
Bi2_2 Mg3_1 3.149814 1_555
Bi2_2 Mg3_3 3.149814 1_555
Bi2_2 Mg0_3 3.191047 1_555
Bi2_2 Mg0_7 3.191047 1_555
Bi2_2 Mg6_0 3.382403 1_555
Bi2_2 Mg6_4 3.382403 1_555
Bi2_2 Mg6_6 3.382403 1_555
Bi2_2 Mg6_2 3.382403 1_555
Bi2_3 Mg3_0 3.149814 1_556
Bi2_3 Mg3_2 3.149814 1_556
Bi2_3 Mg0_6 3.191047 1_556
Bi2_3 Mg0_2 3.191047 1_556
Bi2_3 Mg6_1 3.382403 1_555
Bi2_3 Mg6_5 3.382403 1_555
Bi2_3 Mg6_3 3.382403 1_555
Bi2_3 Mg6_7 3.382403 1_555
Bi2_4 Mg3_5 3.149814 1_555
Bi2_4 Mg3_7 3.149814 1_545
Bi2_4 Mg0_5 3.191047 1_555
Bi2_4 Mg0_1 3.191047 1_655
Bi2_4 Mg6_0 3.382403 1_655
Bi2_4 Mg6_4 3.382403 1_555
Bi2_4 Mg6_6 3.382403 1_545
Bi2_4 Mg6_2 3.382403 1_645
Bi2_4 Bi2_6 3.404985 1_555
Bi2_4 Bi2_6 3.404985 1_545
Bi2_5 Mg3_4 3.149814 1_556
Bi2_5 Mg3_6 3.149814 1_546
Bi2_5 Mg0_0 3.191047 1_656
Bi2_5 Mg0_4 3.191047 1_556
Bi2_5 Mg6_1 3.382403 1_655
Bi2_5 Mg6_3 3.382403 1_645
Bi2_5 Mg6_5 3.382403 1_555
Bi2_5 Mg6_7 3.382403 1_545
Bi2_5 Bi2_7 3.404985 1_555
Bi2_5 Bi2_7 3.404985 1_545
Bi2_6 Mg3_5 3.149814 1_555
Bi2_6 Mg3_7 3.149814 1_555
Bi2_6 Mg0_3 3.191047 1_655
Bi2_6 Mg0_7 3.191047 1_555
Bi2_6 Mg6_0 3.382403 1_655
Bi2_6 Mg6_4 3.382403 1_555
Bi2_6 Mg6_2 3.382403 1_655
Bi2_6 Mg6_6 3.382403 1_555
Bi2_7 Mg3_4 3.149814 1_556
Bi2_7 Mg3_6 3.149814 1_556
Bi2_7 Mg0_6 3.191047 1_556
Bi2_7 Mg0_2 3.191047 1_656
Bi2_7 Mg6_1 3.382403 1_655
Bi2_7 Mg6_5 3.382403 1_555
Bi2_7 Mg6_7 3.382403 1_555
Bi2_7 Mg6_3 3.382403 1_655
Bi3_0 Mg7_0 3.157480 1_555
Bi3_0 Mg7_2 3.157480 1_555
Bi3_0 Mg5_6 3.243535 1_555
Bi3_0 Mg5_0 3.243535 1_555
Bi3_0 Mg5_4 3.243535 1_555
Bi3_0 Mg5_2 3.243535 1_555
Bi3_0 Mg6_0 3.389289 1_555
Bi3_0 Mg6_4 3.389289 1_555
Bi3_0 Bi3_2 3.404985 1_555
Bi3_0 Bi3_2 3.404985 1_545
Bi3_1 Mg7_1 3.157480 1_555
Bi3_1 Mg7_3 3.157480 1_555
Bi3_1 Mg5_3 3.243535 1_555
Bi3_1 Mg5_1 3.243535 1_555
Bi3_1 Mg5_7 3.243535 1_555
Bi3_1 Mg5_5 3.243535 1_555
Bi3_1 Mg6_1 3.389289 1_555
Bi3_1 Mg6_5 3.389289 1_555
Bi3_1 Bi3_3 3.404985 1_545
Bi3_1 Bi3_3 3.404985 1_555
Bi3_2 Mg7_0 3.157480 1_565
Bi3_2 Mg7_2 3.157480 1_555
Bi3_2 Mg5_0 3.243535 1_565
Bi3_2 Mg5_2 3.243535 1_555
Bi3_2 Mg5_6 3.243535 1_555
Bi3_2 Mg5_4 3.243535 1_565
Bi3_2 Mg6_6 3.389289 1_555
Bi3_2 Mg6_2 3.389289 1_555
Bi3_3 Mg7_3 3.157480 1_555
Bi3_3 Mg7_1 3.157480 1_565
Bi3_3 Mg5_3 3.243535 1_555
Bi3_3 Mg5_1 3.243535 1_565
Bi3_3 Mg5_5 3.243535 1_565
Bi3_3 Mg5_7 3.243535 1_555
Bi3_3 Mg6_3 3.389289 1_555
Bi3_3 Mg6_7 3.389289 1_555
Bi3_4 Mg7_6 3.157480 1_555
Bi3_4 Mg7_4 3.157480 1_555
Bi3_4 Mg5_6 3.243535 1_555
Bi3_4 Mg5_0 3.243535 1_655
Bi3_4 Mg5_4 3.243535 1_555
Bi3_4 Mg5_2 3.243535 1_655
Bi3_4 Mg6_4 3.389289 1_555
Bi3_4 Mg6_0 3.389289 1_655
Bi3_4 Bi3_6 3.404985 1_555
Bi3_4 Bi3_6 3.404985 1_545
Bi3_5 Mg7_7 3.157480 1_555
Bi3_5 Mg7_5 3.157480 1_555
Bi3_5 Mg5_1 3.243535 1_655
Bi3_5 Mg5_7 3.243535 1_555
Bi3_5 Mg5_5 3.243535 1_555
Bi3_5 Mg5_3 3.243535 1_655
Bi3_5 Mg6_1 3.389289 1_655
Bi3_5 Mg6_5 3.389289 1_555
Bi3_5 Bi3_7 3.404985 1_545
Bi3_5 Bi3_7 3.404985 1_555
Bi3_6 Mg7_6 3.157480 1_555
Bi3_6 Mg7_4 3.157480 1_565
Bi3_6 Mg5_2 3.243535 1_655
Bi3_6 Mg5_0 3.243535 1_665
Bi3_6 Mg5_6 3.243535 1_555
Bi3_6 Mg5_4 3.243535 1_565
Bi3_6 Mg6_6 3.389289 1_555
Bi3_6 Mg6_2 3.389289 1_655
Bi3_7 Mg7_5 3.157480 1_565
Bi3_7 Mg7_7 3.157480 1_555
Bi3_7 Mg5_3 3.243535 1_655
Bi3_7 Mg5_5 3.243535 1_565
Bi3_7 Mg5_1 3.243535 1_665
Bi3_7 Mg5_7 3.243535 1_555
Bi3_7 Mg6_7 3.389289 1_555
Bi3_7 Mg6_3 3.389289 1_655
