# generated using pymatgen
data_Li3RuN2
_symmetry_space_group_name_H-M   'P 1'
_cell_length_a   8.44894373
_cell_length_b   9.75599974
_cell_length_c   9.75599933
_cell_angle_alpha   89.99999738
_cell_angle_beta   125.26438954
_cell_angle_gamma   54.73561215
_symmetry_Int_Tables_number   1
_chemical_formula_structural   Li3RuN2
_chemical_formula_sum   'Li24 Ru8 N16'
_cell_volume   464.28572778
_cell_formula_units_Z   8
loop_
 _symmetry_equiv_pos_site_id
 _symmetry_equiv_pos_as_xyz
  1  'x, y, z'
loop_
 _atom_site_type_symbol
 _atom_site_label
 _atom_site_symmetry_multiplicity
 _atom_site_fract_x
 _atom_site_fract_y
 _atom_site_fract_z
 _atom_site_occupancy
  Li  Li0  1  0.22697285  0.03536621  0.98861965  1
  Li  Li1  1  0.77302715  0.76233906  0.51138035  1
  Li  Li2  1  0.77302715  0.46463379  0.76164680  1
  Li  Li3  1  0.22697285  0.73766094  0.73835320  1
  Li  Li4  1  0.24973356  0.76164680  0.27371941  1
  Li  Li5  1  0.75026644  0.73835320  0.02398586  1
  Li  Li6  1  0.24973356  0.98861965  0.47601414  1
  Li  Li7  1  0.75026644  0.51138035  0.22628059  1
  Li  Li8  1  0.70229473  0.02398586  0.73766094  1
  Li  Li9  1  0.70229473  0.27371941  0.46463379  1
  Li  Li10  1  0.29770527  0.22628059  0.76233906  1
  Li  Li11  1  0.29770527  0.47601414  0.03536621  1
  Li  Li12  1  0.77302715  0.96463379  0.01138035  1
  Li  Li13  1  0.22697285  0.23766094  0.48861965  1
  Li  Li14  1  0.22697285  0.53536621  0.23835320  1
  Li  Li15  1  0.77302715  0.26233906  0.26164680  1
  Li  Li16  1  0.75026644  0.23835320  0.72628059  1
  Li  Li17  1  0.24973356  0.26164680  0.97601414  1
  Li  Li18  1  0.75026644  0.01138035  0.52398586  1
  Li  Li19  1  0.24973356  0.48861965  0.77371941  1
  Li  Li20  1  0.29770527  0.97601414  0.26233906  1
  Li  Li21  1  0.29770527  0.72628059  0.53536621  1
  Li  Li22  1  0.70229473  0.77371941  0.23766094  1
  Li  Li23  1  0.70229473  0.52398586  0.96463379  1
  Ru  Ru0  1  0.23094797  0.00000000  0.73094797  1
  Ru  Ru1  1  0.76905203  0.73094797  0.76905203  1
  Ru  Ru2  1  0.76905203  0.50000000  0.50000000  1
  Ru  Ru3  1  0.23094797  0.76905203  0.00000000  1
  Ru  Ru4  1  0.76905203  1.00000000  0.26905203  1
  Ru  Ru5  1  0.23094797  0.26905203  0.23094797  1
  Ru  Ru6  1  0.23094797  0.50000000  0.50000000  1
  Ru  Ru7  1  0.76905203  0.23094797  1.00000000  1
  N  N0  1  0.00000000  -0.00000000  0.50000000  1
  N  N1  1  0.00000000  0.50000000  0.00000000  1
  N  N2  1  0.00000000  0.50000000  0.50000000  1
  N  N3  1  0.00000000  -0.00000000  0.00000000  1
  N  N4  1  0.50000000  0.98022472  0.75000000  1
  N  N5  1  0.50000000  0.51977528  0.25000000  1
  N  N6  1  0.00000000  0.25000000  0.73022472  1
  N  N7  1  -0.00000000  0.75000000  0.76977528  1
  N  N8  1  0.53954955  0.73022472  0.51977528  1
  N  N9  1  0.46045045  0.76977528  0.98022472  1
  N  N10  1  0.50000000  0.01977528  0.25000000  1
  N  N11  1  0.50000000  0.48022472  0.75000000  1
  N  N12  1  -0.00000000  0.75000000  0.26977528  1
  N  N13  1  0.00000000  0.25000000  0.23022472  1
  N  N14  1  0.46045045  0.26977528  0.48022472  1
  N  N15  1  0.53954955  0.23022472  0.01977528  1
loop_
_geom_bond_atom_site_label_1
_geom_bond_atom_site_label_2
_geom_bond_distance
_geom_bond_site_symmetry_2
Li0 N6 2.048956 1_555
Li0 N10 2.156274 1_556
Li0 N3 2.195165 1_556
Li0 N9 2.212771 1_545
Li1 N7 2.048956 1_655
Li1 N10 2.156273 1_565
Li1 N2 2.195165 1_655
Li1 N8 2.212777 1_555
Li2 N6 2.048956 1_655
Li2 N11 2.156274 1_555
Li2 N1 2.195165 1_656
Li2 N8 2.212765 1_555
Li3 N7 2.048956 1_555
Li3 N11 2.156274 1_555
Li3 N0 2.195165 1_565
Li3 N9 2.212772 1_555
Li4 N8 2.048952 1_555
Li4 N12 2.156274 1_555
Li4 N3 2.195165 1_565
Li4 N5 2.212769 1_555
Li5 N9 2.048947 1_554
Li5 N12 2.156274 1_655
Li5 N1 2.195165 1_655
Li5 N4 2.212769 1_554
Li6 N8 2.048953 1_555
Li6 N13 2.156273 1_565
Li6 N0 2.195165 1_565
Li6 N4 2.212769 1_555
Li7 N9 2.048957 1_554
Li7 N13 2.156274 1_655
Li7 N2 2.195165 1_655
Li7 N5 2.212769 1_555
Li8 N4 2.048956 1_545
Li8 N14 2.156277 1_555
Li8 N3 2.195165 1_656
Li8 N7 2.212769 1_645
Li9 N5 2.048956 1_555
Li9 N14 2.156265 1_555
Li9 N0 2.195165 1_655
Li9 N6 2.212769 1_655
Li10 N4 2.048956 1_545
Li10 N15 2.156271 1_556
Li10 N2 2.195165 1_555
Li10 N6 2.212769 1_555
Li11 N5 2.048956 1_555
Li11 N15 2.156271 1_555
Li11 N1 2.195165 1_555
Li11 N7 2.212769 1_554
Li12 N12 2.048956 1_655
Li12 N4 2.156274 1_554
Li12 N3 2.195165 1_665
Li12 N15 2.212771 1_565
Li13 N13 2.048956 1_555
Li13 N4 2.156273 1_545
Li13 N2 2.195165 1_555
Li13 N14 2.212777 1_555
Li14 N12 2.048956 1_555
Li14 N5 2.156274 1_555
Li14 N1 2.195165 1_555
Li14 N14 2.212765 1_555
Li15 N13 2.048956 1_655
Li15 N5 2.156274 1_555
Li15 N0 2.195165 1_655
Li15 N15 2.212772 1_555
Li16 N14 2.048952 1_555
Li16 N6 2.156274 1_655
Li16 N3 2.195165 1_656
Li16 N11 2.212769 1_555
Li17 N15 2.048947 1_556
Li17 N6 2.156274 1_555
Li17 N1 2.195165 1_556
Li17 N10 2.212769 1_556
Li18 N14 2.048953 1_555
Li18 N7 2.156273 1_645
Li18 N0 2.195165 1_655
Li18 N10 2.212769 1_555
Li19 N15 2.048957 1_556
Li19 N7 2.156274 1_555
Li19 N2 2.195165 1_555
Li19 N11 2.212769 1_555
Li20 N10 2.048956 1_565
Li20 N8 2.156277 1_555
Li20 N3 2.195165 1_565
Li20 N13 2.212769 1_565
Li21 N11 2.048956 1_555
Li21 N8 2.156265 1_555
Li21 N0 2.195165 1_565
Li21 N12 2.212769 1_555
Li22 N10 2.048956 1_565
Li22 N9 2.156271 1_554
Li22 N2 2.195165 1_655
Li22 N12 2.212769 1_655
Li23 N11 2.048956 1_555
Li23 N9 2.156271 1_555
Li23 N1 2.195165 1_656
Li23 N13 2.212769 1_656
N0 Ru0 1.951266 1_555
N0 Ru4 1.951266 1_445
N1 Ru5 1.951266 1_555
N1 Ru1 1.951266 1_454
N2 Ru6 1.951266 1_555
N2 Ru2 1.951266 1_455
N3 Ru7 1.951266 1_454
N3 Ru3 1.951266 1_545
N4 Ru0 2.060324 1_565
N4 Ru1 2.060324 1_555
N5 Ru3 2.060323 1_555
N5 Ru2 2.060323 1_555
N6 Ru2 2.060323 1_455
N6 Ru0 2.060324 1_555
N7 Ru3 2.060323 1_556
N7 Ru1 2.060324 1_455
N8 Ru1 2.060326 1_555
N8 Ru2 2.060327 1_555
N9 Ru0 2.060320 1_565
N9 Ru3 2.060332 1_556
N10 Ru4 2.060324 1_545
N10 Ru5 2.060324 1_555
N11 Ru7 2.060323 1_555
N11 Ru6 2.060323 1_555
N12 Ru6 2.060323 1_555
N12 Ru4 2.060324 1_455
N13 Ru7 2.060323 1_454
N13 Ru5 2.060324 1_555
N14 Ru5 2.060326 1_555
N14 Ru6 2.060327 1_555
N15 Ru4 2.060320 1_545
N15 Ru7 2.060332 1_554
