# generated using pymatgen
data_Rb2Li(OsO3)2
_symmetry_space_group_name_H-M   'P 1'
_cell_length_a   5.50041621
_cell_length_b   5.50116857
_cell_length_c   7.15076049
_cell_angle_alpha   67.39049066
_cell_angle_beta   67.38430123
_cell_angle_gamma   59.98986372
_symmetry_Int_Tables_number   1
_chemical_formula_structural   Rb2Li(OsO3)2
_chemical_formula_sum   'Rb2 Li1 Os2 O6'
_cell_volume   167.88817804
_cell_formula_units_Z   1
loop_
 _symmetry_equiv_pos_site_id
 _symmetry_equiv_pos_as_xyz
  1  'x, y, z'
loop_
 _atom_site_type_symbol
 _atom_site_label
 _atom_site_symmetry_multiplicity
 _atom_site_fract_x
 _atom_site_fract_y
 _atom_site_fract_z
 _atom_site_occupancy
  Rb  Rb0  1  0.84538700  0.84531600  0.46401500  1
  Rb  Rb1  1  0.15461400  0.15468200  0.53598500  1
  Li  Li0  1  0.00000000  0.00000000  0.00000000  1
  Os  Os0  1  0.66533900  0.66532400  0.00392400  1
  Os  Os1  1  0.33466200  0.33467400  0.99607800  1
  O  O0  1  0.43116400  0.67852200  0.83995200  1
  O  O1  1  0.05029100  0.43103600  0.83999800  1
  O  O2  1  0.67862900  0.05017800  0.83998700  1
  O  O3  1  0.56883700  0.32147800  0.16004800  1
  O  O4  1  0.32137300  0.94982200  0.16001200  1
  O  O5  1  0.94970800  0.56896300  0.16000300  1
loop_
_geom_bond_atom_site_label_1
_geom_bond_atom_site_label_2
_geom_bond_distance
_geom_bond_site_symmetry_2
Li0 O2 2.309702 1_454
Li0 O4 2.309706 1_545
Li0 O1 2.309735 1_554
Li0 O5 2.309743 1_445
Li0 O3 2.309789 1_455
Li0 O0 2.309791 1_544
O0 Os1 2.007738 1_555
O0 Os0 2.010406 1_556
O0 Rb1 2.842391 1_565
O0 Rb0 2.956966 1_555
O1 Os1 2.007878 1_555
O1 Os0 2.010336 1_456
O1 Rb1 2.841755 1_555
O1 Rb0 2.956761 1_455
O2 Os1 2.007947 1_555
O2 Os0 2.010592 1_546
O2 Rb1 2.842200 1_655
O2 Rb0 2.956082 1_545
O3 Os0 2.007727 1_555
O3 Os1 2.010400 1_554
O3 Rb0 2.842395 1_545
O3 Rb1 2.956970 1_555
O4 Os0 2.007940 1_555
O4 Os1 2.010577 1_564
O4 Rb0 2.842211 1_455
O4 Rb1 2.956081 1_565
O5 Os0 2.007865 1_555
O5 Os1 2.010340 1_654
O5 Rb0 2.841749 1_555
O5 Rb1 2.956760 1_655
