# generated using pymatgen
data_ErN7O15
_symmetry_space_group_name_H-M   'P 1'
_cell_length_a   11.34557150
_cell_length_b   11.34557150
_cell_length_c   9.48534700
_cell_angle_alpha   90.00000000
_cell_angle_beta   90.00000000
_cell_angle_gamma   119.99999711
_symmetry_Int_Tables_number   1
_chemical_formula_structural   ErN7O15
_chemical_formula_sum   'Er3 N21 O45'
_cell_volume   1057.39346508
_cell_formula_units_Z   3
loop_
 _symmetry_equiv_pos_site_id
 _symmetry_equiv_pos_as_xyz
  1  'x, y, z'
loop_
 _atom_site_type_symbol
 _atom_site_label
 _atom_site_symmetry_multiplicity
 _atom_site_fract_x
 _atom_site_fract_y
 _atom_site_fract_z
 _atom_site_occupancy
  Er  Er0  1  0.33094700  0.00000000  0.33333300  1
  Er  Er1  1  0.00000000  0.33094700  0.66666700  1
  Er  Er2  1  0.66905300  0.66905300  0.00000000  1
  N  N0  1  0.10015000  0.36095000  0.37535000  1
  N  N1  1  0.63905000  0.73920000  0.70868300  1
  N  N2  1  0.26080000  0.89985000  0.04201600  1
  N  N3  1  0.08210600  0.00000000  0.33333300  1
  N  N4  1  0.00000000  0.08210600  0.66666700  1
  N  N5  1  0.91789400  0.91789400  0.00000000  1
  N  N6  1  0.24890200  0.58179900  0.72683700  1
  N  N7  1  0.41820100  0.66710300  0.06017000  1
  N  N8  1  0.33289700  0.75109800  0.39350300  1
  N  N9  1  0.45283700  0.45283700  0.50000000  1
  N  N10  1  0.54716300  0.00000000  0.83333300  1
  N  N11  1  0.00000000  0.54716300  0.16666700  1
  N  N12  1  0.58179900  0.24890200  0.27316300  1
  N  N13  1  0.75109800  0.33289700  0.60649700  1
  N  N14  1  0.66710300  0.41820100  0.93983000  1
  N  N15  1  0.36095000  0.10015000  0.62465000  1
  N  N16  1  0.89985000  0.26080000  0.95798400  1
  N  N17  1  0.73920000  0.63905000  0.29131700  1
  N  N18  1  0.72753900  0.00000000  0.33333300  1
  N  N19  1  0.00000000  0.72753900  0.66666700  1
  N  N20  1  0.27246100  0.27246100  0.00000000  1
  O  O0  1  0.33523500  0.15625300  0.52164000  1
  O  O1  1  0.84374700  0.17898200  0.85497400  1
  O  O2  1  0.82101800  0.66476500  0.18830700  1
  O  O3  1  0.37311700  0.13884900  0.74612900  1
  O  O4  1  0.86115100  0.23426700  0.07946200  1
  O  O5  1  0.76573300  0.62688300  0.41279600  1
  O  O6  1  0.57512200  0.13837900  0.31297500  1
  O  O7  1  0.86162100  0.43674300  0.64630800  1
  O  O8  1  0.56325700  0.42487800  0.97964200  1
  O  O9  1  0.00248800  0.37686000  0.92195700  1
  O  O10  1  0.62314000  0.62562800  0.25529100  1
  O  O11  1  0.37437200  0.99751200  0.58862400  1
  O  O12  1  0.46805100  0.24447000  0.25475600  1
  O  O13  1  0.75553000  0.22358100  0.58808900  1
  O  O14  1  0.77641900  0.53194900  0.92142200  1
  O  O15  1  0.08537500  0.18373400  0.73697300  1
  O  O16  1  0.81626600  0.90164100  0.07030700  1
  O  O17  1  0.09835900  0.91462500  0.40364000  1
  O  O18  1  0.13884900  0.37311700  0.25387100  1
  O  O19  1  0.62688300  0.76573300  0.58720400  1
  O  O20  1  0.23426700  0.86115100  0.92053800  1
  O  O21  1  0.15625300  0.33523500  0.47836000  1
  O  O22  1  0.66476500  0.82101800  0.81169300  1
  O  O23  1  0.17898200  0.84374700  0.14502600  1
  O  O24  1  0.64627100  0.33789200  0.58192700  1
  O  O25  1  0.66210800  0.30838000  0.91526000  1
  O  O26  1  0.69162000  0.35372900  0.24859400  1
  O  O27  1  0.13837900  0.57512200  0.68702500  1
  O  O28  1  0.42487800  0.56325700  0.02035800  1
  O  O29  1  0.43674300  0.86162100  0.35369200  1
  O  O30  1  0.02563400  0.02563400  0.00000000  1
  O  O31  1  0.97436600  0.00000000  0.33333300  1
  O  O32  1  0.00000000  0.97436600  0.66666700  1
  O  O33  1  0.99751200  0.37437200  0.41137600  1
  O  O34  1  0.62562800  0.62314000  0.74470900  1
  O  O35  1  0.37686000  0.00248800  0.07804300  1
  O  O36  1  0.33789200  0.64627100  0.41807300  1
  O  O37  1  0.35372900  0.69162000  0.75140600  1
  O  O38  1  0.30838000  0.66210800  0.08474000  1
  O  O39  1  0.18373400  0.08537500  0.26302700  1
  O  O40  1  0.91462500  0.09835900  0.59636000  1
  O  O41  1  0.90164100  0.81626600  0.92969300  1
  O  O42  1  0.24447000  0.46805100  0.74524400  1
  O  O43  1  0.53194900  0.77641900  0.07857800  1
  O  O44  1  0.22358100  0.75553000  0.41191100  1
loop_
_geom_bond_atom_site_label_1
_geom_bond_atom_site_label_2
_geom_bond_distance
_geom_bond_site_symmetry_2
Er0 O39 2.406326 1_555
Er0 O17 2.406328 1_545
Er0 O6 2.414000 1_555
Er0 O29 2.414001 1_545
Er0 O35 2.474100 1_555
Er0 O11 2.474109 1_545
Er0 O0 2.499845 1_555
Er0 O23 2.499845 1_545
Er0 O12 2.520681 1_555
Er0 O44 2.520684 1_545
Er1 O15 2.406326 1_555
Er1 O40 2.406328 1_455
Er1 O27 2.414000 1_555
Er1 O7 2.414001 1_455
Er1 O9 2.474100 1_555
Er1 O33 2.474109 1_455
Er1 O21 2.499845 1_555
Er1 O1 2.499845 1_455
Er1 O42 2.520681 1_555
Er1 O13 2.520684 1_455
Er2 O16 2.406328 1_555
Er2 O41 2.406328 1_554
Er2 O28 2.414000 1_555
Er2 O8 2.414000 1_554
Er2 O10 2.474109 1_555
Er2 O34 2.474109 1_554
Er2 O2 2.499845 1_555
Er2 O22 2.499845 1_554
Er2 O43 2.520684 1_555
Er2 O14 2.520684 1_554
N0 O18 1.216121 1_555
N0 O21 1.276981 1_555
N0 O33 1.293568 1_455
N1 O19 1.216124 1_555
N1 O22 1.276981 1_555
N1 O34 1.293568 1_555
N2 O20 1.216112 1_554
N2 O23 1.276981 1_555
N2 O35 1.293571 1_565
N3 O31 1.222372 1_455
N3 O39 1.263164 1_555
N3 O17 1.263169 1_545
N4 O32 1.222372 1_545
N4 O15 1.263164 1_555
N4 O40 1.263169 1_455
N5 O30 1.222372 1_665
N5 O41 1.263169 1_554
N5 O16 1.263169 1_555
N6 O37 1.240723 1_555
N6 O27 1.275043 1_555
N6 O42 1.278125 1_555
N7 O38 1.240720 1_555
N7 O28 1.275043 1_555
N7 O43 1.278126 1_555
N8 O36 1.240731 1_555
N8 O29 1.275040 1_555
N8 O44 1.278126 1_555
N12 O26 1.240723 1_555
N12 O6 1.275043 1_555
N12 O12 1.278125 1_555
N13 O24 1.240731 1_555
N13 O7 1.275040 1_555
N13 O13 1.278126 1_555
N14 O25 1.240720 1_555
N14 O8 1.275043 1_555
N14 O14 1.278126 1_555
N15 O3 1.216121 1_555
N15 O0 1.276981 1_555
N15 O11 1.293568 1_545
N16 O4 1.216112 1_556
N16 O1 1.276981 1_555
N16 O9 1.293571 1_655
N17 O5 1.216124 1_555
N17 O2 1.276981 1_555
N17 O10 1.293568 1_555
