# generated using pymatgen
data_Li6Mn(FeO3)2
_symmetry_space_group_name_H-M   'P 1'
_cell_length_a   3.22447477
_cell_length_b   8.36736427
_cell_length_c   11.04129476
_cell_angle_alpha   106.03715593
_cell_angle_beta   82.77531152
_cell_angle_gamma   99.91318935
_symmetry_Int_Tables_number   1
_chemical_formula_structural   Li6Mn(FeO3)2
_chemical_formula_sum   'Li12 Mn2 Fe4 O12'
_cell_volume   281.06629527
_cell_formula_units_Z   2
loop_
 _symmetry_equiv_pos_site_id
 _symmetry_equiv_pos_as_xyz
  1  'x, y, z'
loop_
 _atom_site_type_symbol
 _atom_site_label
 _atom_site_symmetry_multiplicity
 _atom_site_fract_x
 _atom_site_fract_y
 _atom_site_fract_z
 _atom_site_occupancy
  Li  Li0  1  0.79163600  0.79317900  0.19216800  1
  Li  Li1  1  0.29321500  0.29393100  0.69186000  1
  Li  Li2  1  0.80536000  0.44691500  0.82455300  1
  Li  Li3  1  0.30603200  0.94772100  0.32408900  1
  Li  Li4  1  0.65357700  0.61587500  0.32570200  1
  Li  Li5  1  0.15579400  0.11651900  0.82559900  1
  Li  Li6  1  0.97072800  0.62955400  0.69082000  1
  Li  Li7  1  0.47377400  0.13033000  0.19115300  1
  Li  Li8  1  0.13995900  0.45925100  0.19194400  1
  Li  Li9  1  0.64065000  0.95872600  0.69251500  1
  Li  Li10  1  0.47372500  0.78391100  0.82613200  1
  Li  Li11  1  0.97607100  0.28451700  0.32677700  1
  Mn  Mn0  1  0.80723700  0.11907700  0.50612000  1
  Mn  Mn1  1  0.30553000  0.62082300  0.00569300  1
  Fe  Fe0  1  0.97369500  0.95691800  0.01091900  1
  Fe  Fe1  1  0.47131500  0.45740800  0.51087900  1
  Fe  Fe2  1  0.64232200  0.28748100  0.00952600  1
  Fe  Fe3  1  0.14226000  0.78890700  0.50920200  1
  O  O0  1  0.85575300  0.38379000  0.62857400  1
  O  O1  1  0.35459200  0.88428000  0.12893300  1
  O  O2  1  0.23949200  0.35772100  0.88337400  1
  O  O3  1  0.73974700  0.85780700  0.38288300  1
  O  O4  1  0.70508400  0.54500900  0.13044100  1
  O  O5  1  0.20591100  0.04504000  0.63099800  1
  O  O6  1  0.90266500  0.69284100  0.88539300  1
  O  O7  1  0.40473800  0.19327900  0.38627100  1
  O  O8  1  0.04192500  0.21883000  0.13279900  1
  O  O9  1  0.53968900  0.71870200  0.63207100  1
  O  O10  1  0.08976600  0.53183400  0.39179900  1
  O  O11  1  0.59323300  0.03147100  0.89149900  1
loop_
_geom_bond_atom_site_label_1
_geom_bond_atom_site_label_2
_geom_bond_distance
_geom_bond_site_symmetry_2
Li0 O1 1.965321 1_655
Li0 O4 1.980079 1_555
Li0 O1 1.991457 1_555
Li0 O3 2.016913 1_555
Li1 O0 1.961044 1_555
Li1 O5 1.985038 1_555
Li1 O0 1.986635 1_455
Li1 O2 2.025431 1_555
Li2 O2 1.947962 1_655
Li2 O2 1.951650 1_555
Li2 O6 1.962397 1_555
Li2 O0 2.072995 1_555
Li3 O3 1.950309 1_555
Li3 O3 1.954561 1_455
Li3 O7 1.960798 1_565
Li3 O1 2.064249 1_555
Li4 O3 1.928220 1_555
Li4 O10 1.960068 1_555
Li4 O10 1.971686 1_655
Li4 O4 2.065127 1_555
Li5 O2 1.922867 1_555
Li5 O11 1.958562 1_455
Li5 O11 1.978693 1_555
Li5 O5 2.058256 1_555
Li6 O9 1.939074 1_555
Li6 O9 1.959535 1_655
Li6 O0 1.964502 1_555
Li6 O6 2.058347 1_555
Li7 O8 1.935670 1_555
Li7 O8 1.954303 1_655
Li7 O1 1.967429 1_545
Li7 O7 2.064222 1_555
Li8 O8 1.918436 1_555
Li8 O4 1.948722 1_455
Li8 O4 1.950475 1_555
Li8 O10 2.113747 1_555
Li9 O9 1.916737 1_555
Li9 O5 1.951184 1_565
Li9 O5 1.952304 1_665
Li9 O11 2.104644 1_565
Li10 O6 1.946223 1_555
Li10 O6 1.971994 1_455
Li10 O11 1.982242 1_565
Li10 O9 2.052662 1_555
Li11 O7 1.947729 1_655
Li11 O7 1.973995 1_555
Li11 O10 1.978970 1_655
Li11 O8 2.051763 1_655
Mn0 O3 2.223774 1_545
Mn0 O7 2.232566 1_555
Mn0 O0 2.244496 1_555
Mn0 O5 2.264821 1_655
Mn0 O7 2.291136 1_655
Mn0 O5 2.330323 1_555
Mn1 O6 2.227254 1_454
Mn1 O2 2.232485 1_554
Mn1 O1 2.238944 1_555
Mn1 O4 2.273752 1_555
Mn1 O6 2.287848 1_554
Mn1 O4 2.331801 1_455
Fe0 O1 2.161683 1_655
Fe0 O11 2.181181 1_564
Fe0 O8 2.222851 1_665
Fe0 O6 2.251518 1_554
Fe0 O1 2.327657 1_555
Fe0 O11 2.341225 1_664
Fe1 O0 2.171441 1_555
Fe1 O10 2.180182 1_555
Fe1 O9 2.216088 1_555
Fe1 O7 2.248172 1_555
Fe1 O0 2.319567 1_455
Fe1 O10 2.336363 1_655
Fe2 O11 2.169047 1_554
Fe2 O4 2.189733 1_555
Fe2 O8 2.229517 1_655
Fe2 O2 2.267805 1_554
Fe2 O8 2.305824 1_555
Fe2 O2 2.319778 1_654
Fe3 O10 2.173732 1_555
Fe3 O5 2.183862 1_565
Fe3 O9 2.228129 1_555
Fe3 O3 2.262599 1_455
Fe3 O9 2.311932 1_455
Fe3 O3 2.318476 1_555
