# generated using pymatgen
data_Li2FeCo3O8
_symmetry_space_group_name_H-M   'P 1'
_cell_length_a   5.83133294
_cell_length_b   5.89437538
_cell_length_c   10.23323793
_cell_angle_alpha   89.78769600
_cell_angle_beta   106.48465960
_cell_angle_gamma   119.79622135
_symmetry_Int_Tables_number   1
_chemical_formula_structural   Li2FeCo3O8
_chemical_formula_sum   'Li4 Fe2 Co6 O16'
_cell_volume   288.67902944
_cell_formula_units_Z   2
loop_
 _symmetry_equiv_pos_site_id
 _symmetry_equiv_pos_as_xyz
  1  'x, y, z'
loop_
 _atom_site_type_symbol
 _atom_site_label
 _atom_site_symmetry_multiplicity
 _atom_site_fract_x
 _atom_site_fract_y
 _atom_site_fract_z
 _atom_site_occupancy
  Li  Li0  1  0.88013600  0.44678900  0.31503400  1
  Li  Li1  1  0.87215200  0.93071300  0.81604000  1
  Li  Li2  1  0.12784800  0.06928700  0.18396000  1
  Li  Li3  1  0.11986500  0.55321200  0.68496600  1
  Fe  Fe0  1  0.50011300  0.76166100  0.24749800  1
  Fe  Fe1  1  0.49988500  0.23833400  0.75250100  1
  Co  Co0  1  0.50000000  0.00000000  0.49999900  1
  Co  Co1  1  0.50000000  0.50000100  0.50000000  1
  Co  Co2  1  0.00000000  0.00000100  0.50000000  1
  Co  Co3  1  0.50000000  0.50000000  0.99999900  1
  Co  Co4  1  0.50000000  0.00000000  0.00000000  1
  Co  Co5  1  0.00000000  0.50000000  0.00000000  1
  O  O0  1  0.27345200  0.12959700  0.39314000  1
  O  O1  1  0.27219900  0.64643900  0.89498100  1
  O  O2  1  0.72780400  0.35356300  0.10501900  1
  O  O3  1  0.72654800  0.87040500  0.60685900  1
  O  O4  1  0.74889700  0.10218100  0.39704800  1
  O  O5  1  0.73947500  0.59054300  0.88362500  1
  O  O6  1  0.75045900  0.66142800  0.38699300  1
  O  O7  1  0.72943700  0.12550100  0.88764900  1
  O  O8  1  0.29339400  0.66784900  0.38453100  1
  O  O9  1  0.28578900  0.12643000  0.88540400  1
  O  O10  1  0.71421000  0.87356800  0.11459600  1
  O  O11  1  0.70660600  0.33215100  0.61546900  1
  O  O12  1  0.27056100  0.87449800  0.11235200  1
  O  O13  1  0.24954300  0.33857400  0.61300800  1
  O  O14  1  0.26052500  0.40945600  0.11637500  1
  O  O15  1  0.25110300  0.89782000  0.60295200  1
loop_
_geom_bond_atom_site_label_1
_geom_bond_atom_site_label_2
_geom_bond_distance
_geom_bond_site_symmetry_2
Li0 O8 1.981038 1_655
Li0 O6 1.997105 1_555
Li0 O2 2.037158 1_555
Li0 O4 2.054989 1_555
Li1 O5 1.961876 1_555
Li1 O7 1.962086 1_565
Li1 O9 1.980319 1_665
Li1 O3 2.025747 1_555
Li2 O14 1.961871 1_555
Li2 O12 1.962076 1_545
Li2 O10 1.980324 1_445
Li2 O0 2.025737 1_555
Li3 O11 1.981043 1_455
Li3 O13 1.997100 1_555
Li3 O1 2.037158 1_555
Li3 O15 2.054989 1_555
Fe0 O12 1.993543 1_555
Fe0 O10 1.995483 1_555
Fe0 O8 2.004099 1_555
Fe0 O14 2.033829 1_555
Fe0 O6 2.046022 1_555
Fe0 O4 2.084285 1_565
Fe1 O7 1.993538 1_555
Fe1 O9 1.995488 1_555
Fe1 O11 2.004097 1_555
Fe1 O5 2.033850 1_555
Fe1 O13 2.046023 1_555
Fe1 O15 2.084257 1_545
Co0 O8 1.883031 1_545
Co0 O11 1.883040 1_555
Co0 O4 1.890379 1_555
Co0 O15 1.890395 1_545
Co0 O3 1.923911 1_545
Co0 O0 1.923916 1_555
Co1 O6 1.986211 1_555
Co1 O13 1.986211 1_555
Co1 O3 2.009762 1_555
Co1 O0 2.009766 1_555
Co1 O8 2.048075 1_555
Co1 O11 2.048084 1_555
Co2 O4 1.900800 1_455
Co2 O15 1.900804 1_545
Co2 O6 1.900924 1_445
Co2 O13 1.900928 1_555
Co2 O3 2.023568 1_445
Co2 O0 2.023576 1_555
Co3 O5 1.962530 1_555
Co3 O14 1.962546 1_556
Co3 O1 1.996767 1_555
Co3 O2 1.996778 1_556
Co3 O10 2.058732 1_556
Co3 O9 2.058732 1_555
Co4 O7 1.882062 1_554
Co4 O12 1.882078 1_545
Co4 O9 1.891625 1_554
Co4 O10 1.891629 1_545
Co4 O1 1.928160 1_544
Co4 O2 1.928168 1_555
Co5 O5 1.945603 1_454
Co5 O14 1.945607 1_555
Co5 O2 2.004742 1_455
Co5 O1 2.004755 1_554
Co5 O12 2.052305 1_555
Co5 O7 2.052307 1_454
