# generated using pymatgen
data_NdErFe17
_symmetry_space_group_name_H-M   'P 1'
_cell_length_a   8.52208243
_cell_length_b   8.52208243
_cell_length_c   8.27315600
_cell_angle_alpha   90.00000000
_cell_angle_beta   90.00000000
_cell_angle_gamma   120.00000333
_symmetry_Int_Tables_number   1
_chemical_formula_structural   NdErFe17
_chemical_formula_sum   'Nd2 Er2 Fe34'
_cell_volume   520.34728361
_cell_formula_units_Z   2
loop_
 _symmetry_equiv_pos_site_id
 _symmetry_equiv_pos_as_xyz
  1  'x, y, z'
loop_
 _atom_site_type_symbol
 _atom_site_label
 _atom_site_symmetry_multiplicity
 _atom_site_fract_x
 _atom_site_fract_y
 _atom_site_fract_z
 _atom_site_occupancy
  Nd  Nd0  1  0.33333300  0.66666700  0.75000000  1
  Nd  Nd1  1  0.66666700  0.33333300  0.25000000  1
  Er  Er0  1  0.00000000  0.00000000  0.25000000  1
  Er  Er1  1  0.00000000  0.00000000  0.75000000  1
  Fe  Fe0  1  0.32766200  0.36937300  0.25000000  1
  Fe  Fe1  1  0.63062700  0.95829000  0.25000000  1
  Fe  Fe2  1  0.04171000  0.67233800  0.25000000  1
  Fe  Fe3  1  0.63062700  0.67233800  0.25000000  1
  Fe  Fe4  1  0.04171000  0.36937300  0.25000000  1
  Fe  Fe5  1  0.32766200  0.95829000  0.25000000  1
  Fe  Fe6  1  0.67233800  0.63062700  0.75000000  1
  Fe  Fe7  1  0.36937300  0.04171000  0.75000000  1
  Fe  Fe8  1  0.95829000  0.32766200  0.75000000  1
  Fe  Fe9  1  0.36937300  0.32766200  0.75000000  1
  Fe  Fe10  1  0.95829000  0.63062700  0.75000000  1
  Fe  Fe11  1  0.67233800  0.04171000  0.75000000  1
  Fe  Fe12  1  0.16477200  0.83522800  0.51483500  1
  Fe  Fe13  1  0.16477200  0.32954400  0.51483500  1
  Fe  Fe14  1  0.67045600  0.83522800  0.51483500  1
  Fe  Fe15  1  0.83522800  0.16477200  0.48516500  1
  Fe  Fe16  1  0.83522800  0.67045600  0.48516500  1
  Fe  Fe17  1  0.32954400  0.16477200  0.48516500  1
  Fe  Fe18  1  0.83522800  0.16477200  0.01483500  1
  Fe  Fe19  1  0.83522800  0.67045600  0.01483500  1
  Fe  Fe20  1  0.32954400  0.16477200  0.01483500  1
  Fe  Fe21  1  0.16477200  0.83522800  0.98516500  1
  Fe  Fe22  1  0.16477200  0.32954400  0.98516500  1
  Fe  Fe23  1  0.67045600  0.83522800  0.98516500  1
  Fe  Fe24  1  0.33333300  0.66666700  0.39272900  1
  Fe  Fe25  1  0.66666700  0.33333300  0.60727100  1
  Fe  Fe26  1  0.66666700  0.33333300  0.89272900  1
  Fe  Fe27  1  0.33333300  0.66666700  0.10727100  1
  Fe  Fe28  1  0.50000000  0.50000000  0.50000000  1
  Fe  Fe29  1  0.50000000  0.00000000  0.50000000  1
  Fe  Fe30  1  0.00000000  0.50000000  0.50000000  1
  Fe  Fe31  1  0.50000000  0.50000000  0.00000000  1
  Fe  Fe32  1  0.50000000  0.00000000  0.00000000  1
  Fe  Fe33  1  0.00000000  0.50000000  0.00000000  1
loop_
_geom_bond_atom_site_label_1
_geom_bond_atom_site_label_2
_geom_bond_distance
_geom_bond_site_symmetry_2
Er0 Fe5 2.986001 1_545
Er0 Fe2 2.986001 1_545
Er0 Fe0 2.986006 1_555
Er0 Fe3 2.986006 1_445
Er0 Fe4 2.986009 1_555
Er0 Fe1 2.986009 1_445
Er0 Fe17 3.114567 1_555
Er0 Fe20 3.114567 1_555
Er0 Fe16 3.114567 1_445
Er0 Fe19 3.114567 1_445
Er0 Fe15 3.114567 1_455
Er0 Fe18 3.114567 1_455
Er0 Fe13 3.273517 1_555
Er0 Fe14 3.273517 1_445
Er0 Fe22 3.273517 1_554
Er0 Fe23 3.273517 1_444
Er0 Fe12 3.273517 1_545
Er0 Fe21 3.273517 1_544
Er1 Fe8 2.986001 1_455
Er1 Fe11 2.986001 1_455
Er1 Fe9 2.986006 1_555
Er1 Fe6 2.986006 1_445
Er1 Fe7 2.986009 1_555
Er1 Fe10 2.986009 1_445
Er1 Fe22 3.114567 1_555
Er1 Fe13 3.114567 1_555
Er1 Fe23 3.114567 1_445
Er1 Fe14 3.114567 1_445
Er1 Fe21 3.114567 1_545
Er1 Fe12 3.114567 1_545
Er1 Fe20 3.273517 1_556
Er1 Fe19 3.273517 1_446
Er1 Fe17 3.273517 1_555
Er1 Fe16 3.273517 1_445
Er1 Fe18 3.273517 1_456
Er1 Fe15 3.273517 1_455
Fe0 Fe4 2.436907 1_555
Fe0 Fe28 2.457464 1_555
Fe0 Fe31 2.457464 1_555
Fe0 Fe13 2.524203 1_555
Fe0 Fe22 2.524203 1_554
Fe0 Fe3 2.581893 1_555
Fe0 Fe17 2.617947 1_555
Fe0 Fe20 2.617947 1_555
Fe0 Fe24 2.773657 1_555
Fe0 Fe27 2.773657 1_555
Fe0 Nd1 3.054201 1_555
Fe1 Fe3 2.436907 1_555
Fe1 Fe32 2.457461 1_565
Fe1 Fe29 2.457461 1_565
Fe1 Fe14 2.524207 1_555
Fe1 Fe23 2.524207 1_554
Fe1 Fe5 2.581893 1_555
Fe1 Fe15 2.617944 1_565
Fe1 Fe18 2.617944 1_565
Fe1 Fe24 2.773657 1_555
Fe1 Fe27 2.773657 1_555
Fe1 Nd1 3.054184 1_565
Fe2 Fe5 2.436906 1_555
Fe2 Fe33 2.457465 1_555
Fe2 Fe30 2.457465 1_555
Fe2 Fe21 2.524204 1_554
Fe2 Fe4 2.581893 1_555
Fe2 Fe24 2.773657 1_555
Fe2 Fe27 2.773657 1_555
Fe2 Nd1 3.054191 1_455
Fe3 Fe31 2.457464 1_555
Fe3 Nd1 3.054201 1_555
Fe4 Nd1 3.054184 1_455
Fe5 Nd1 3.054191 1_565
Fe6 Fe9 2.581893 1_555
Fe6 Nd0 3.054201 1_555
Fe7 Fe9 2.436907 1_555
Fe7 Nd0 3.054184 1_545
Fe8 Nd0 3.054191 1_655
Fe9 Nd0 3.054201 1_555
Fe10 Fe6 2.436907 1_555
Fe10 Fe30 2.457461 1_655
Fe10 Fe33 2.457461 1_656
Fe10 Fe19 2.524207 1_556
Fe10 Fe16 2.524207 1_555
Fe10 Fe8 2.581893 1_555
Fe10 Fe21 2.617944 1_655
Fe10 Fe12 2.617944 1_655
Fe10 Fe25 2.773657 1_555
Fe10 Fe26 2.773657 1_555
Fe10 Nd0 3.054184 1_655
Fe11 Fe8 2.436906 1_555
Fe11 Fe29 2.457465 1_555
Fe11 Fe32 2.457465 1_556
Fe11 Fe18 2.524204 1_556
Fe11 Fe15 2.524204 1_555
Fe11 Fe7 2.581893 1_555
Fe11 Fe23 2.617941 1_545
Fe11 Fe14 2.617941 1_545
Fe11 Fe25 2.773657 1_555
Fe11 Fe26 2.773657 1_555
Fe11 Nd0 3.054191 1_545
Fe12 Fe17 2.444502 1_565
Fe12 Fe16 2.444502 1_455
Fe12 Fe30 2.477257 1_555
Fe12 Fe29 2.477257 1_565
Fe12 Fe5 2.524204 1_555
Fe12 Fe2 2.524204 1_555
Fe12 Fe7 2.617944 1_565
Fe12 Fe24 2.685335 1_555
Fe12 Nd0 3.158434 1_555
Fe13 Fe15 2.444502 1_455
Fe13 Fe17 2.444502 1_555
Fe13 Fe28 2.477257 1_555
Fe13 Fe30 2.477257 1_555
Fe13 Fe4 2.524207 1_555
Fe13 Fe8 2.617941 1_455
Fe13 Fe9 2.617947 1_555
Fe13 Fe24 2.685342 1_555
Fe13 Nd0 3.158440 1_555
Fe14 Fe15 2.444502 1_565
Fe14 Fe16 2.444502 1_555
Fe14 Fe28 2.477257 1_555
Fe14 Fe29 2.477257 1_565
Fe14 Fe3 2.524203 1_555
Fe14 Fe6 2.617947 1_555
Fe14 Fe24 2.685342 1_555
Fe14 Nd0 3.158440 1_555
Fe15 Fe30 2.477257 1_655
Fe15 Fe29 2.477257 1_555
Fe15 Fe8 2.524204 1_555
Fe15 Fe4 2.617944 1_655
Fe15 Fe25 2.685335 1_555
Fe15 Nd1 3.158434 1_555
Fe16 Fe28 2.477257 1_555
Fe16 Fe30 2.477257 1_655
Fe16 Fe6 2.524203 1_555
Fe16 Fe2 2.617941 1_655
Fe16 Fe3 2.617947 1_555
Fe16 Fe25 2.685342 1_555
Fe16 Nd1 3.158440 1_555
Fe17 Fe28 2.477257 1_555
Fe17 Fe29 2.477257 1_555
Fe17 Fe9 2.524203 1_555
Fe17 Fe7 2.524207 1_555
Fe17 Fe5 2.617941 1_545
Fe17 Fe25 2.685342 1_555
Fe17 Nd1 3.158440 1_555
Fe18 Fe22 2.444502 1_654
Fe18 Fe23 2.444502 1_544
Fe18 Fe33 2.477257 1_655
Fe18 Fe32 2.477257 1_555
Fe18 Fe8 2.524204 1_554
Fe18 Fe4 2.617944 1_655
Fe18 Fe26 2.685335 1_554
Fe18 Nd1 3.158434 1_555
Fe19 Fe21 2.444502 1_654
Fe19 Fe23 2.444502 1_554
Fe19 Fe31 2.477257 1_555
Fe19 Fe33 2.477257 1_655
Fe19 Fe6 2.524203 1_554
Fe19 Fe2 2.617941 1_655
Fe19 Fe3 2.617947 1_555
Fe19 Fe26 2.685342 1_554
Fe19 Nd1 3.158440 1_555
Fe20 Fe21 2.444502 1_544
Fe20 Fe22 2.444502 1_554
Fe20 Fe31 2.477257 1_555
Fe20 Fe32 2.477257 1_555
Fe20 Fe9 2.524203 1_554
Fe20 Fe7 2.524207 1_554
Fe20 Fe5 2.617941 1_545
Fe20 Fe26 2.685342 1_554
Fe20 Nd1 3.158440 1_555
Fe21 Fe32 2.477257 1_566
Fe21 Fe33 2.477257 1_556
Fe21 Fe5 2.524204 1_556
Fe21 Fe7 2.617944 1_565
Fe21 Fe27 2.685335 1_556
Fe21 Nd0 3.158434 1_555
Fe22 Fe31 2.477257 1_556
Fe22 Fe33 2.477257 1_556
Fe22 Fe4 2.524207 1_556
Fe22 Fe8 2.617941 1_455
Fe22 Fe9 2.617947 1_555
Fe22 Fe27 2.685342 1_556
Fe22 Nd0 3.158440 1_555
Fe23 Fe31 2.477257 1_556
Fe23 Fe32 2.477257 1_566
Fe23 Fe3 2.524203 1_556
Fe23 Fe6 2.617947 1_555
Fe23 Fe27 2.685342 1_556
Fe23 Nd0 3.158440 1_555
Fe24 Fe27 2.361639 1_555
Fe24 Fe29 2.615291 1_565
Fe24 Fe30 2.615291 1_555
Fe24 Fe28 2.615298 1_555
Fe24 Fe4 2.773657 1_555
Fe24 Fe3 2.773657 1_555
Fe24 Fe5 2.773657 1_555
Fe24 Nd0 2.955759 1_555
Fe25 Fe26 2.361639 1_555
Fe25 Fe30 2.615291 1_655
Fe25 Fe29 2.615291 1_555
Fe25 Fe28 2.615298 1_555
Fe25 Fe7 2.773657 1_555
Fe25 Fe6 2.773657 1_555
Fe25 Fe9 2.773657 1_555
Fe25 Fe8 2.773657 1_555
Fe25 Nd1 2.955759 1_555
Fe26 Fe33 2.615291 1_656
Fe26 Fe32 2.615291 1_556
Fe26 Fe31 2.615298 1_556
Fe26 Fe7 2.773657 1_555
Fe26 Fe6 2.773657 1_555
Fe26 Fe9 2.773657 1_555
Fe26 Fe8 2.773657 1_555
Fe26 Nd1 2.955759 1_556
Fe27 Fe32 2.615291 1_565
Fe27 Fe33 2.615291 1_555
Fe27 Fe31 2.615298 1_555
Fe27 Fe4 2.773657 1_555
Fe27 Fe3 2.773657 1_555
Fe27 Fe5 2.773657 1_555
Fe27 Nd0 2.955759 1_554
Fe28 Fe6 2.457464 1_555
Fe28 Fe3 2.457464 1_555
Fe28 Fe9 2.457464 1_555
Fe28 Nd1 3.214032 1_555
Fe28 Nd0 3.214032 1_555
Fe29 Fe7 2.457461 1_555
Fe29 Fe5 2.457465 1_545
Fe29 Nd1 3.214026 1_555
Fe29 Nd0 3.214026 1_545
Fe30 Fe4 2.457461 1_555
Fe30 Fe8 2.457465 1_455
Fe30 Nd1 3.214026 1_455
Fe30 Nd0 3.214026 1_555
Fe31 Fe6 2.457464 1_554
Fe31 Fe9 2.457464 1_554
Fe31 Nd1 3.214032 1_555
Fe31 Nd0 3.214032 1_554
Fe32 Fe7 2.457461 1_554
Fe32 Fe5 2.457465 1_545
Fe32 Nd1 3.214026 1_555
Fe32 Nd0 3.214026 1_544
Fe33 Fe4 2.457461 1_555
Fe33 Fe8 2.457465 1_454
Fe33 Nd0 3.214026 1_554
Fe33 Nd1 3.214026 1_455
