# generated using pymatgen
data_SrSn7N10
_symmetry_space_group_name_H-M   'P 1'
_cell_length_a   7.84515803
_cell_length_b   8.04988000
_cell_length_c   11.45072442
_cell_angle_alpha   90.00000000
_cell_angle_beta   105.74015265
_cell_angle_gamma   90.00000000
_symmetry_Int_Tables_number   1
_chemical_formula_structural   SrSn7N10
_chemical_formula_sum   'Sr2 Sn14 N20'
_cell_volume   696.02629875
_cell_formula_units_Z   2
loop_
 _symmetry_equiv_pos_site_id
 _symmetry_equiv_pos_as_xyz
  1  'x, y, z'
loop_
 _atom_site_type_symbol
 _atom_site_label
 _atom_site_symmetry_multiplicity
 _atom_site_fract_x
 _atom_site_fract_y
 _atom_site_fract_z
 _atom_site_occupancy
  Sr  Sr0  1  0.96896100  0.97197300  0.67890400  1
  Sr  Sr1  1  0.96896100  0.02802700  0.17890400  1
  Sn  Sn0  1  0.54226700  0.96982100  0.82208900  1
  Sn  Sn1  1  0.54226700  0.03017900  0.32208900  1
  Sn  Sn2  1  0.34160000  0.02419600  0.01667900  1
  Sn  Sn3  1  0.34160000  0.97580400  0.51667900  1
  Sn  Sn4  1  0.11416000  0.39413700  0.07065300  1
  Sn  Sn5  1  0.11416000  0.60586300  0.57065300  1
  Sn  Sn6  1  0.66550500  0.35134200  0.99655100  1
  Sn  Sn7  1  0.66550500  0.64865800  0.49655100  1
  Sn  Sn8  1  0.84438200  0.61976800  0.81217400  1
  Sn  Sn9  1  0.84438200  0.38023200  0.31217400  1
  Sn  Sn10  1  0.30067300  0.62358400  0.88142000  1
  Sn  Sn11  1  0.30067300  0.37641600  0.38142000  1
  Sn  Sn12  1  0.48764200  0.36441300  0.68713100  1
  Sn  Sn13  1  0.48764200  0.63558700  0.18713100  1
  N  N0  1  0.76479100  0.86065800  0.80590800  1
  N  N1  1  0.76479100  0.13934200  0.30590800  1
  N  N2  1  0.57712500  0.11069600  0.98202400  1
  N  N3  1  0.57712500  0.88930400  0.48202400  1
  N  N4  1  0.30281400  0.87816400  0.85618300  1
  N  N5  1  0.30281400  0.12183600  0.35618300  1
  N  N6  1  0.12558800  0.14908900  0.02908300  1
  N  N7  1  0.12558800  0.85091100  0.52908300  1
  N  N8  1  0.29030400  0.50619800  0.72233400  1
  N  N9  1  0.29030400  0.49380200  0.22233400  1
  N  N10  1  0.42263800  0.11858800  0.67360400  1
  N  N11  1  0.42263800  0.88141200  0.17360400  1
  N  N12  1  0.89330300  0.35989400  0.13847000  1
  N  N13  1  0.89330300  0.64010600  0.63847000  1
  N  N14  1  0.08077300  0.58529900  0.94450500  1
  N  N15  1  0.08077300  0.41470100  0.44450500  1
  N  N16  1  0.71274800  0.40088000  0.82858000  1
  N  N17  1  0.71274800  0.59912000  0.32858000  1
  N  N18  1  0.50702500  0.54376800  0.02300900  1
  N  N19  1  0.50702500  0.45623200  0.52300900  1
loop_
_geom_bond_atom_site_label_1
_geom_bond_atom_site_label_2
_geom_bond_distance
_geom_bond_site_symmetry_2
N0 Sn0 2.007390 1_555
N0 Sn8 2.032478 1_555
N0 Sr0 2.597557 1_555
N1 Sn1 2.007390 1_555
N1 Sn9 2.032478 1_555
N1 Sr1 2.597557 1_555
N2 Sn6 2.049017 1_555
N2 Sn0 2.107843 1_545
N2 Sn2 2.110508 1_556
N3 Sn7 2.049017 1_555
N3 Sn1 2.107843 1_565
N3 Sn3 2.110508 1_555
N4 Sn10 2.070317 1_555
N4 Sn2 2.132739 1_566
N4 Sn0 2.150265 1_555
N4 Sr0 2.943854 1_455
N5 Sn11 2.070317 1_555
N5 Sn3 2.132739 1_545
N5 Sn1 2.150265 1_555
N5 Sr1 2.943854 1_455
N6 Sn2 2.008326 1_555
N6 Sn4 2.036898 1_555
N6 Sr1 2.558598 1_455
N7 Sn3 2.008326 1_555
N7 Sn5 2.036898 1_555
N7 Sr0 2.558598 1_455
N8 Sn10 2.034096 1_555
N8 Sn12 2.049517 1_555
N8 Sn5 2.065852 1_555
N9 Sn11 2.034096 1_555
N9 Sn13 2.049517 1_555
N9 Sn4 2.065852 1_555
N10 Sn12 2.038896 1_555
N10 Sn3 2.081911 1_545
N10 Sn0 2.083285 1_545
N11 Sn13 2.038896 1_555
N11 Sn2 2.081911 1_565
N11 Sn1 2.083285 1_565
N12 Sn6 2.064875 1_554
N12 Sn4 2.100268 1_655
N12 Sn9 2.131792 1_555
N12 Sr1 2.748531 1_555
N13 Sn7 2.064875 1_555
N13 Sn5 2.100268 1_655
N13 Sn8 2.131792 1_555
N13 Sr0 2.748531 1_555
N14 Sn10 2.066171 1_555
N14 Sn8 2.070677 1_455
N14 Sn4 2.077949 1_556
N15 Sn11 2.066171 1_555
N15 Sn9 2.070677 1_455
N15 Sn5 2.077949 1_555
N16 Sn12 2.067950 1_555
N16 Sn8 2.076467 1_555
N16 Sn6 2.093461 1_555
N17 Sn13 2.067950 1_555
N17 Sn9 2.076467 1_555
N17 Sn7 2.093461 1_555
N18 Sn10 2.058673 1_554
N18 Sn6 2.059458 1_554
N18 Sn13 2.063084 1_555
N19 Sn11 2.058673 1_555
N19 Sn7 2.059458 1_555
N19 Sn12 2.063084 1_555
