# generated using pymatgen
data_Ba3Co2WO9
_symmetry_space_group_name_H-M   'P 1'
_cell_length_a   5.87301149
_cell_length_b   5.87301149
_cell_length_c   14.27138700
_cell_angle_alpha   90.00000000
_cell_angle_beta   90.00000000
_cell_angle_gamma   119.99999426
_symmetry_Int_Tables_number   1
_chemical_formula_structural   Ba3Co2WO9
_chemical_formula_sum   'Ba6 Co4 W2 O18'
_cell_volume   426.30314931
_cell_formula_units_Z   2
loop_
 _symmetry_equiv_pos_site_id
 _symmetry_equiv_pos_as_xyz
  1  'x, y, z'
loop_
 _atom_site_type_symbol
 _atom_site_label
 _atom_site_symmetry_multiplicity
 _atom_site_fract_x
 _atom_site_fract_y
 _atom_site_fract_z
 _atom_site_occupancy
  Ba  Ba0  1  0.33333300  0.66666700  0.40890400  1
  Ba  Ba1  1  0.66666700  0.33333300  0.60140700  1
  Ba  Ba2  1  0.66666700  0.33333300  0.90890400  1
  Ba  Ba3  1  0.33333300  0.66666700  0.10140700  1
  Ba  Ba4  1  0.00000000  0.00000000  0.24663700  1
  Ba  Ba5  1  0.00000000  0.00000000  0.74663700  1
  Co  Co0  1  0.00000000  0.00000000  0.50073600  1
  Co  Co1  1  0.00000000  0.00000000  0.00073600  1
  Co  Co2  1  0.33333300  0.66666700  0.63817300  1
  Co  Co3  1  0.66666700  0.33333300  0.13817300  1
  W  W0  1  0.66666700  0.33333300  0.34106200  1
  W  W1  1  0.33333300  0.66666700  0.84106200  1
  O  O0  1  0.16960100  0.83039900  0.58376300  1
  O  O1  1  0.16960100  0.33920300  0.58376300  1
  O  O2  1  0.66079700  0.83039900  0.58376300  1
  O  O3  1  0.82567000  0.17433000  0.41565500  1
  O  O4  1  0.82567000  0.65134000  0.41565500  1
  O  O5  1  0.34866000  0.17433000  0.41565500  1
  O  O6  1  0.83039900  0.16960100  0.08376300  1
  O  O7  1  0.83039900  0.66079700  0.08376300  1
  O  O8  1  0.33920300  0.16960100  0.08376300  1
  O  O9  1  0.17433000  0.82567000  0.91565500  1
  O  O10  1  0.17433000  0.34866000  0.91565500  1
  O  O11  1  0.65134000  0.82567000  0.91565500  1
  O  O12  1  0.51336300  0.48663700  0.25500200  1
  O  O13  1  0.51336300  0.02672600  0.25500200  1
  O  O14  1  0.97327400  0.48663700  0.25500200  1
  O  O15  1  0.48663700  0.51336300  0.75500200  1
  O  O16  1  0.48663700  0.97327400  0.75500200  1
  O  O17  1  0.02672600  0.51336300  0.75500200  1
loop_
_geom_bond_atom_site_label_1
_geom_bond_atom_site_label_2
_geom_bond_distance
_geom_bond_site_symmetry_2
Ba0 O13 2.859703 1_565
Ba0 O14 2.859703 1_455
Ba0 O12 2.859706 1_555
Ba0 O4 2.939117 1_455
Ba0 O5 2.939117 1_565
Ba0 O3 2.939120 1_455
Ba0 O3 2.939120 1_565
Ba0 O5 2.939123 1_555
Ba0 O4 2.939123 1_555
Ba0 O0 3.000241 1_555
Ba0 O2 3.000241 1_555
Ba0 O1 3.000241 1_555
Ba1 O16 2.856339 1_545
Ba1 O17 2.856339 1_655
Ba1 O15 2.856342 1_555
Ba1 O2 2.947427 1_545
Ba1 O1 2.947427 1_655
Ba1 O0 2.947433 1_545
Ba1 O0 2.947433 1_655
Ba1 O2 2.947439 1_555
Ba1 O1 2.947439 1_555
Ba1 O3 3.105410 1_555
Ba1 O5 3.105413 1_555
Ba1 O4 3.105413 1_555
Ba2 O17 2.859703 1_655
Ba2 O16 2.859703 1_545
Ba2 O15 2.859706 1_555
Ba2 O11 2.939117 1_545
Ba2 O10 2.939117 1_655
Ba2 O9 2.939120 1_545
Ba2 O9 2.939120 1_655
Ba2 O11 2.939123 1_555
Ba2 O10 2.939123 1_555
Ba2 O6 3.000241 1_556
Ba2 O7 3.000241 1_556
Ba2 O8 3.000241 1_556
Ba3 O14 2.856339 1_455
Ba3 O13 2.856339 1_565
Ba3 O12 2.856342 1_555
Ba3 O7 2.947427 1_455
Ba3 O8 2.947427 1_565
Ba3 O6 2.947433 1_455
Ba3 O6 2.947433 1_565
Ba3 O8 2.947439 1_555
Ba3 O7 2.947439 1_555
Ba3 O9 3.105410 1_554
Ba3 O10 3.105413 1_554
Ba3 O11 3.105413 1_554
Ba4 O6 2.894731 1_455
Ba4 O8 2.894734 1_555
Ba4 O7 2.894734 1_445
Ba4 O13 2.942073 1_455
Ba4 O14 2.942073 1_455
Ba4 O14 2.942073 1_445
Ba4 O13 2.942073 1_555
Ba4 O12 2.942074 1_555
Ba4 O12 2.942074 1_445
Ba4 O3 2.993841 1_455
Ba4 O4 2.993842 1_445
Ba4 O5 2.993842 1_555
Ba5 O0 2.894731 1_545
Ba5 O1 2.894734 1_555
Ba5 O2 2.894734 1_445
Ba5 O17 2.942073 1_545
Ba5 O16 2.942073 1_545
Ba5 O17 2.942073 1_555
Ba5 O16 2.942073 1_445
Ba5 O15 2.942074 1_555
Ba5 O15 2.942074 1_445
Ba5 O9 2.993841 1_545
Ba5 O11 2.993842 1_445
Ba5 O10 2.993842 1_555
Co0 O0 2.092957 1_545
Co0 O2 2.092962 1_445
Co0 O1 2.092962 1_555
Co0 O3 2.149209 1_455
Co0 O4 2.149209 1_445
Co0 O5 2.149209 1_555
Co1 O6 2.092957 1_455
Co1 O8 2.092962 1_555
Co1 O7 2.092962 1_445
Co1 O9 2.149209 1_544
Co1 O11 2.149209 1_444
Co1 O10 2.149209 1_554
Co2 O0 1.837657 1_555
Co2 O2 1.837658 1_555
Co2 O1 1.837658 1_555
Co2 O17 2.282945 1_555
Co2 O16 2.282945 1_555
Co2 O15 2.282948 1_555
Co3 O6 1.837657 1_555
Co3 O7 1.837658 1_555
Co3 O8 1.837658 1_555
Co3 O13 2.282945 1_555
Co3 O14 2.282945 1_555
Co3 O12 2.282948 1_555
O3 W0 1.936325 1_555
O4 W0 1.936329 1_555
O5 W0 1.936329 1_555
O9 W1 1.936325 1_555
O10 W1 1.936329 1_555
O11 W1 1.936329 1_555
O12 W0 1.985041 1_555
O13 W0 1.985037 1_555
O14 W0 1.985037 1_555
O15 W1 1.985041 1_555
O16 W1 1.985037 1_555
O17 W1 1.985037 1_555
