# generated using pymatgen
data_Ce2MgSe4
_symmetry_space_group_name_H-M   'P 1'
_cell_length_a   8.43308300
_cell_length_b   7.66636800
_cell_length_c   12.41797200
_cell_angle_alpha   90.00000000
_cell_angle_beta   90.00000000
_cell_angle_gamma   90.00000000
_symmetry_Int_Tables_number   1
_chemical_formula_structural   Ce2MgSe4
_chemical_formula_sum   'Ce8 Mg4 Se16'
_cell_volume   802.83576878
_cell_formula_units_Z   4
loop_
 _symmetry_equiv_pos_site_id
 _symmetry_equiv_pos_as_xyz
  1  'x, y, z'
loop_
 _atom_site_type_symbol
 _atom_site_label
 _atom_site_symmetry_multiplicity
 _atom_site_fract_x
 _atom_site_fract_y
 _atom_site_fract_z
 _atom_site_occupancy
  Ce  Ce0  1  0.04355300  0.75000000  0.31300500  1
  Ce  Ce1  1  0.95644700  0.25000000  0.68699500  1
  Ce  Ce2  1  0.45644700  0.25000000  0.81300500  1
  Ce  Ce3  1  0.54355300  0.75000000  0.18699500  1
  Ce  Ce4  1  0.06837000  0.25000000  0.03050900  1
  Ce  Ce5  1  0.93163000  0.75000000  0.96949100  1
  Ce  Ce6  1  0.43163000  0.75000000  0.53050900  1
  Ce  Ce7  1  0.56837000  0.25000000  0.46949100  1
  Mg  Mg0  1  0.18386600  0.25000000  0.41323700  1
  Mg  Mg1  1  0.81613400  0.75000000  0.58676300  1
  Mg  Mg2  1  0.31613400  0.75000000  0.91323700  1
  Mg  Mg3  1  0.68386600  0.25000000  0.08676300  1
  Se  Se0  1  0.14470700  0.49728300  0.84312500  1
  Se  Se1  1  0.85529300  0.50271700  0.15687500  1
  Se  Se2  1  0.35529300  0.50271700  0.34312500  1
  Se  Se3  1  0.64470700  0.49728300  0.65687500  1
  Se  Se4  1  0.64470700  0.00271700  0.65687500  1
  Se  Se5  1  0.35529300  0.99728300  0.34312500  1
  Se  Se6  1  0.85529300  0.99728300  0.15687500  1
  Se  Se7  1  0.14470700  0.00271700  0.84312500  1
  Se  Se8  1  0.89854500  0.25000000  0.45194600  1
  Se  Se9  1  0.10145500  0.75000000  0.54805400  1
  Se  Se10  1  0.60145500  0.75000000  0.95194600  1
  Se  Se11  1  0.39854500  0.25000000  0.04805400  1
  Se  Se12  1  0.21223800  0.75000000  0.10907800  1
  Se  Se13  1  0.78776200  0.25000000  0.89092200  1
  Se  Se14  1  0.28776200  0.25000000  0.60907800  1
  Se  Se15  1  0.71223800  0.75000000  0.39092200  1
loop_
_geom_bond_atom_site_label_1
_geom_bond_atom_site_label_2
_geom_bond_distance
_geom_bond_site_symmetry_2
Ce0 Se12 2.904557 1_555
Ce0 Se15 2.956800 1_455
Ce0 Se9 2.959393 1_555
Ce0 Se6 3.142204 1_455
Ce0 Se1 3.142204 1_455
Ce0 Se5 3.262680 1_555
Ce0 Se2 3.262680 1_555
Ce1 Se13 2.904557 1_555
Ce1 Se14 2.956800 1_655
Ce1 Se8 2.959393 1_555
Ce1 Se7 3.142204 1_655
Ce1 Se0 3.142204 1_655
Ce1 Se4 3.262680 1_555
Ce1 Se3 3.262680 1_555
Ce2 Se14 2.904557 1_555
Ce2 Se13 2.956800 1_555
Ce2 Se11 2.959393 1_556
Ce2 Se3 3.142204 1_555
Ce2 Se4 3.142204 1_555
Ce2 Se7 3.262680 1_555
Ce2 Se0 3.262680 1_555
Ce3 Se15 2.904557 1_555
Ce3 Se12 2.956800 1_555
Ce3 Se10 2.959393 1_554
Ce3 Se5 3.142204 1_555
Ce3 Se2 3.142204 1_555
Ce3 Se6 3.262680 1_555
Ce3 Se1 3.262680 1_555
Ce4 Se11 2.792904 1_555
Ce4 Se13 2.933332 1_454
Ce4 Se7 3.069680 1_554
Ce4 Se0 3.069680 1_554
Ce4 Se1 3.073248 1_455
Ce4 Se6 3.073248 1_445
Ce5 Se10 2.792904 1_555
Ce5 Se12 2.933332 1_656
Ce5 Se6 3.069680 1_556
Ce5 Se1 3.069680 1_556
Ce5 Se0 3.073248 1_655
Ce5 Se7 3.073248 1_665
Ce6 Se9 2.792904 1_555
Ce6 Se15 2.933332 1_555
Ce6 Se5 3.069680 1_555
Ce6 Se2 3.069680 1_555
Ce6 Se3 3.073248 1_555
Ce6 Se4 3.073248 1_565
Ce7 Se8 2.792904 1_555
Ce7 Se14 2.933332 1_555
Ce7 Se3 3.069680 1_555
Ce7 Se4 3.069680 1_555
Ce7 Se2 3.073248 1_555
Ce7 Se5 3.073248 1_545
Mg0 Se8 2.453681 1_455
Mg0 Se2 2.569350 1_555
Mg0 Se5 2.569350 1_545
Mg0 Se14 2.584963 1_555
Mg1 Se9 2.453681 1_655
Mg1 Se3 2.569350 1_555
Mg1 Se4 2.569350 1_565
Mg1 Se15 2.584963 1_555
Mg2 Se10 2.453681 1_555
Mg2 Se0 2.569350 1_555
Mg2 Se7 2.569350 1_565
Mg2 Se12 2.584963 1_556
Mg3 Se11 2.453681 1_555
Mg3 Se1 2.569350 1_555
Mg3 Se6 2.569350 1_545
Mg3 Se13 2.584963 1_554
