# generated using pymatgen
data_HfMg30SiO32
_symmetry_space_group_name_H-M   'P 1'
_cell_length_a   8.63978800
_cell_length_b   8.63978800
_cell_length_c   8.60373600
_cell_angle_alpha   90.00000000
_cell_angle_beta   90.00000000
_cell_angle_gamma   90.00000000
_symmetry_Int_Tables_number   1
_chemical_formula_structural   HfMg30SiO32
_chemical_formula_sum   'Hf1 Mg30 Si1 O32'
_cell_volume   642.23393271
_cell_formula_units_Z   1
loop_
 _symmetry_equiv_pos_site_id
 _symmetry_equiv_pos_as_xyz
  1  'x, y, z'
loop_
 _atom_site_type_symbol
 _atom_site_label
 _atom_site_symmetry_multiplicity
 _atom_site_fract_x
 _atom_site_fract_y
 _atom_site_fract_z
 _atom_site_occupancy
  Hf  Hf0  1  0.00000000  0.00000000  0.50000000  1
  Mg  Mg0  1  0.50000000  0.00000000  0.00000000  1
  Mg  Mg1  1  0.50000000  0.00000000  0.50000000  1
  Mg  Mg2  1  0.00000000  0.50000000  0.00000000  1
  Mg  Mg3  1  0.00000000  0.50000000  0.50000000  1
  Mg  Mg4  1  0.50000000  0.50000000  0.00000000  1
  Mg  Mg5  1  0.50000000  0.50000000  0.50000000  1
  Mg  Mg6  1  0.25638700  0.00000000  0.24418900  1
  Mg  Mg7  1  0.25638700  0.00000000  0.75581100  1
  Mg  Mg8  1  0.74361300  0.00000000  0.24418900  1
  Mg  Mg9  1  0.74361300  0.00000000  0.75581100  1
  Mg  Mg10  1  0.25109400  0.50000000  0.24842700  1
  Mg  Mg11  1  0.25109400  0.50000000  0.75157300  1
  Mg  Mg12  1  0.74890600  0.50000000  0.24842700  1
  Mg  Mg13  1  0.74890600  0.50000000  0.75157300  1
  Mg  Mg14  1  0.00000000  0.25638700  0.24418900  1
  Mg  Mg15  1  0.00000000  0.25638700  0.75581100  1
  Mg  Mg16  1  0.50000000  0.25109400  0.24842700  1
  Mg  Mg17  1  0.50000000  0.25109400  0.75157300  1
  Mg  Mg18  1  0.00000000  0.74361300  0.24418900  1
  Mg  Mg19  1  0.00000000  0.74361300  0.75581100  1
  Mg  Mg20  1  0.50000000  0.74890600  0.24842700  1
  Mg  Mg21  1  0.50000000  0.74890600  0.75157300  1
  Mg  Mg22  1  0.25195800  0.25195800  0.00000000  1
  Mg  Mg23  1  0.25595200  0.25595200  0.50000000  1
  Mg  Mg24  1  0.74804200  0.25195800  0.00000000  1
  Mg  Mg25  1  0.74404800  0.25595200  0.50000000  1
  Mg  Mg26  1  0.25195800  0.74804200  0.00000000  1
  Mg  Mg27  1  0.25595200  0.74404800  0.50000000  1
  Mg  Mg28  1  0.74804200  0.74804200  0.00000000  1
  Mg  Mg29  1  0.74404800  0.74404800  0.50000000  1
  Si  Si0  1  0.00000000  0.00000000  0.00000000  1
  O  O0  1  0.00000000  0.26820800  0.00000000  1
  O  O1  1  0.00000000  0.24902000  0.50000000  1
  O  O2  1  0.50000000  0.25224900  0.00000000  1
  O  O3  1  0.50000000  0.24976200  0.50000000  1
  O  O4  1  0.00000000  0.73179200  0.00000000  1
  O  O5  1  0.00000000  0.75098000  0.50000000  1
  O  O6  1  0.50000000  0.74775100  0.00000000  1
  O  O7  1  0.50000000  0.75023800  0.50000000  1
  O  O8  1  0.24906000  0.24906000  0.25067900  1
  O  O9  1  0.24906000  0.24906000  0.74932100  1
  O  O10  1  0.75094000  0.24906000  0.25067900  1
  O  O11  1  0.75094000  0.24906000  0.74932100  1
  O  O12  1  0.24906000  0.75094000  0.25067900  1
  O  O13  1  0.24906000  0.75094000  0.74932100  1
  O  O14  1  0.75094000  0.75094000  0.25067900  1
  O  O15  1  0.75094000  0.75094000  0.74932100  1
  O  O16  1  0.00000000  0.00000000  0.25516100  1
  O  O17  1  0.00000000  0.00000000  0.74483900  1
  O  O18  1  0.50000000  0.00000000  0.25393900  1
  O  O19  1  0.50000000  0.00000000  0.74606100  1
  O  O20  1  0.00000000  0.50000000  0.25393900  1
  O  O21  1  0.00000000  0.50000000  0.74606100  1
  O  O22  1  0.50000000  0.50000000  0.25171300  1
  O  O23  1  0.50000000  0.50000000  0.74828700  1
  O  O24  1  0.26820800  0.00000000  0.00000000  1
  O  O25  1  0.24902000  0.00000000  0.50000000  1
  O  O26  1  0.73179200  0.00000000  0.00000000  1
  O  O27  1  0.75098000  0.00000000  0.50000000  1
  O  O28  1  0.25224900  0.50000000  0.00000000  1
  O  O29  1  0.24976200  0.50000000  0.50000000  1
  O  O30  1  0.74775100  0.50000000  0.00000000  1
  O  O31  1  0.75023800  0.50000000  0.50000000  1
loop_
_geom_bond_atom_site_label_1
_geom_bond_atom_site_label_2
_geom_bond_distance
_geom_bond_site_symmetry_2
Hf0 O16 2.106530 1_555
Hf0 O17 2.106530 1_555
Hf0 O1 2.151480 1_555
Hf0 O25 2.151480 1_555
Hf0 O5 2.151480 1_545
Hf0 O27 2.151480 1_455
Mg0 O24 2.002634 1_555
Mg0 O26 2.002634 1_555
Mg0 O6 2.179378 1_545
Mg0 O2 2.179378 1_555
Mg0 O19 2.184824 1_554
Mg0 O18 2.184824 1_555
Mg1 O18 2.117044 1_555
Mg1 O19 2.117044 1_555
Mg1 O3 2.157891 1_555
Mg1 O7 2.157891 1_545
Mg1 O25 2.168414 1_555
Mg1 O27 2.168414 1_555
Mg2 O0 2.002634 1_555
Mg2 O4 2.002634 1_555
Mg2 O30 2.179378 1_455
Mg2 O28 2.179378 1_555
Mg2 O21 2.184824 1_554
Mg2 O20 2.184824 1_555
Mg3 O21 2.117044 1_555
Mg3 O20 2.117044 1_555
Mg3 O29 2.157891 1_555
Mg3 O31 2.157891 1_455
Mg3 O5 2.168414 1_555
Mg3 O1 2.168414 1_555
Mg4 O2 2.140516 1_555
Mg4 O28 2.140516 1_555
Mg4 O30 2.140516 1_555
Mg4 O6 2.140516 1_555
Mg4 O23 2.165672 1_554
Mg4 O22 2.165672 1_555
Mg5 O22 2.136196 1_555
Mg5 O23 2.136196 1_555
Mg5 O3 2.162003 1_555
Mg5 O7 2.162003 1_555
Mg5 O29 2.162003 1_555
Mg5 O31 2.162003 1_555
Mg6 O24 2.103419 1_555
Mg6 O18 2.106436 1_555
Mg6 O12 2.153481 1_545
Mg6 O8 2.153481 1_555
Mg6 O25 2.201850 1_555
Mg6 O16 2.217140 1_555
Mg7 O24 2.103419 1_556
Mg7 O19 2.106436 1_555
Mg7 O13 2.153481 1_545
Mg7 O9 2.153481 1_555
Mg7 O25 2.201850 1_555
Mg7 O17 2.217140 1_555
Mg8 O26 2.103419 1_555
Mg8 O18 2.106436 1_555
Mg8 O14 2.153481 1_545
Mg8 O10 2.153481 1_555
Mg8 O27 2.201850 1_555
Mg8 O16 2.217140 1_655
Mg9 O26 2.103419 1_556
Mg9 O19 2.106436 1_555
Mg9 O15 2.153481 1_545
Mg9 O11 2.153481 1_555
Mg9 O27 2.201850 1_555
Mg9 O17 2.217140 1_655
Mg10 O28 2.137424 1_555
Mg10 O22 2.150681 1_555
Mg10 O29 2.164498 1_555
Mg10 O8 2.168226 1_555
Mg10 O12 2.168226 1_555
Mg10 O20 2.169917 1_555
Mg11 O28 2.137424 1_556
Mg11 O23 2.150681 1_555
Mg11 O29 2.164498 1_555
Mg11 O9 2.168226 1_555
Mg11 O13 2.168226 1_555
Mg11 O21 2.169917 1_555
Mg12 O30 2.137424 1_555
Mg12 O22 2.150681 1_555
Mg12 O31 2.164498 1_555
Mg12 O10 2.168226 1_555
Mg12 O14 2.168226 1_555
Mg12 O20 2.169917 1_655
Mg13 O30 2.137424 1_556
Mg13 O23 2.150681 1_555
Mg13 O31 2.164498 1_555
Mg13 O11 2.168226 1_555
Mg13 O15 2.168226 1_555
Mg13 O21 2.169917 1_655
Mg14 O0 2.103419 1_555
Mg14 O20 2.106436 1_555
Mg14 O10 2.153481 1_455
Mg14 O8 2.153481 1_555
Mg14 O1 2.201850 1_555
Mg14 O16 2.217140 1_555
Mg15 O0 2.103419 1_556
Mg15 O21 2.106436 1_555
Mg15 O11 2.153481 1_455
Mg15 O9 2.153481 1_555
Mg15 O1 2.201850 1_555
Mg15 O17 2.217140 1_555
Mg16 O2 2.137424 1_555
Mg16 O22 2.150681 1_555
Mg16 O3 2.164498 1_555
Mg16 O8 2.168226 1_555
Mg16 O10 2.168226 1_555
Mg16 O18 2.169917 1_555
Mg17 O2 2.137424 1_556
Mg17 O23 2.150681 1_555
Mg17 O3 2.164498 1_555
Mg17 O9 2.168226 1_555
Mg17 O11 2.168226 1_555
Mg17 O19 2.169917 1_555
Mg18 O4 2.103419 1_555
Mg18 O20 2.106436 1_555
Mg18 O14 2.153481 1_455
Mg18 O12 2.153481 1_555
Mg18 O5 2.201850 1_555
Mg18 O16 2.217140 1_565
Mg19 O4 2.103419 1_556
Mg19 O21 2.106436 1_555
Mg19 O15 2.153481 1_455
Mg19 O13 2.153481 1_555
Mg19 O5 2.201850 1_555
Mg19 O17 2.217140 1_565
Mg20 O6 2.137424 1_555
Mg20 O22 2.150681 1_555
Mg20 O7 2.164498 1_555
Mg20 O12 2.168226 1_555
Mg20 O14 2.168226 1_555
Mg20 O18 2.169917 1_565
Mg21 O6 2.137424 1_556
Mg21 O23 2.150681 1_555
Mg21 O7 2.164498 1_555
Mg21 O13 2.168226 1_555
Mg21 O15 2.168226 1_555
Mg21 O19 2.169917 1_565
Mg22 O2 2.143032 1_555
Mg22 O28 2.143032 1_555
Mg22 O8 2.157067 1_555
Mg22 O9 2.157067 1_554
Mg22 O0 2.181386 1_555
Mg22 O24 2.181386 1_555
Mg23 O3 2.109201 1_555
Mg23 O29 2.109201 1_555
Mg23 O8 2.146744 1_555
Mg23 O9 2.146744 1_555
Mg23 O25 2.212182 1_555
Mg23 O1 2.212182 1_555
Mg24 O2 2.143032 1_555
Mg24 O30 2.143032 1_555
Mg24 O11 2.157067 1_554
Mg24 O10 2.157067 1_555
Mg24 O26 2.181386 1_555
Mg24 O0 2.181386 1_655
Mg25 O31 2.109201 1_555
Mg25 O3 2.109201 1_555
Mg25 O10 2.146744 1_555
Mg25 O11 2.146744 1_555
Mg25 O1 2.212182 1_655
Mg25 O27 2.212182 1_555
Mg26 O6 2.143032 1_555
Mg26 O28 2.143032 1_555
Mg26 O12 2.157067 1_555
Mg26 O13 2.157067 1_554
Mg26 O24 2.181386 1_565
Mg26 O4 2.181386 1_555
Mg27 O7 2.109201 1_555
Mg27 O29 2.109201 1_555
Mg27 O13 2.146744 1_555
Mg27 O12 2.146744 1_555
Mg27 O25 2.212182 1_565
Mg27 O5 2.212182 1_555
Mg28 O6 2.143032 1_555
Mg28 O30 2.143032 1_555
Mg28 O14 2.157067 1_555
Mg28 O15 2.157067 1_554
Mg28 O26 2.181386 1_565
Mg28 O4 2.181386 1_655
Mg29 O31 2.109201 1_555
Mg29 O7 2.109201 1_555
Mg29 O14 2.146744 1_555
Mg29 O15 2.146744 1_555
Mg29 O27 2.212182 1_565
Mg29 O5 2.212182 1_655
O0 Si0 2.317260 1_555
O4 Si0 2.317260 1_565
O16 Si0 2.195338 1_555
O17 Si0 2.195338 1_556
O24 Si0 2.317260 1_555
O26 Si0 2.317260 1_655
