# generated using pymatgen
data_RbP4(WO4)8
_symmetry_space_group_name_H-M   'P 1'
_cell_length_a   9.58046324
_cell_length_b   9.58046324
_cell_length_c   10.45242430
_cell_angle_alpha   68.81044272
_cell_angle_beta   68.81044272
_cell_angle_gamma   47.58507306
_symmetry_Int_Tables_number   1
_chemical_formula_structural   RbP4(WO4)8
_chemical_formula_sum   'Rb1 P4 W8 O32'
_cell_volume   650.68414085
_cell_formula_units_Z   1
loop_
 _symmetry_equiv_pos_site_id
 _symmetry_equiv_pos_as_xyz
  1  'x, y, z'
loop_
 _atom_site_type_symbol
 _atom_site_label
 _atom_site_symmetry_multiplicity
 _atom_site_fract_x
 _atom_site_fract_y
 _atom_site_fract_z
 _atom_site_occupancy
  Rb  Rb0  1  0.50000000  0.50000000  0.00000000  1
  P  P0  1  0.62142500  0.02341900  0.11634100  1
  P  P1  1  0.37857500  0.97658100  0.88365900  1
  P  P2  1  0.97658100  0.37857500  0.88365900  1
  P  P3  1  0.02341900  0.62142500  0.11634100  1
  W  W0  1  0.61818200  0.11960300  0.41105400  1
  W  W1  1  0.38181800  0.88039700  0.58894600  1
  W  W2  1  0.88039700  0.38181800  0.58894600  1
  W  W3  1  0.11960300  0.61818200  0.41105400  1
  W  W4  1  0.35760900  0.85936800  0.24046700  1
  W  W5  1  0.64239100  0.14063200  0.75953300  1
  W  W6  1  0.14063200  0.64239100  0.75953300  1
  W  W7  1  0.85936800  0.35760900  0.24046700  1
  O  O0  1  0.60962800  0.12007000  0.21252000  1
  O  O1  1  0.39037200  0.87993000  0.78748000  1
  O  O2  1  0.87993000  0.39037200  0.78748000  1
  O  O3  1  0.12007000  0.60962800  0.21252000  1
  O  O4  1  0.80425100  0.80425100  0.13431600  1
  O  O5  1  0.19574900  0.19574900  0.86568400  1
  O  O6  1  0.45616300  0.01827600  0.15231800  1
  O  O7  1  0.54383700  0.98172400  0.84768200  1
  O  O8  1  0.98172400  0.54383700  0.84768200  1
  O  O9  1  0.01827600  0.45616300  0.15231800  1
  O  O10  1  0.62248900  0.62248900  0.21914100  1
  O  O11  1  0.37751100  0.37751100  0.78085900  1
  O  O12  1  0.63025400  0.63025400  0.60003800  1
  O  O13  1  0.36974600  0.36974600  0.39996200  1
  O  O14  1  0.89145000  0.89145000  0.76021800  1
  O  O15  1  0.10855000  0.10855000  0.23978200  1
  O  O16  1  0.36976000  0.86111400  0.41799600  1
  O  O17  1  0.63024000  0.13888600  0.58200400  1
  O  O18  1  0.13888600  0.63024000  0.58200400  1
  O  O19  1  0.86111400  0.36976000  0.41799600  1
  O  O20  1  0.35794400  0.87711700  0.03336400  1
  O  O21  1  0.64205600  0.12288300  0.96663600  1
  O  O22  1  0.12288300  0.64205600  0.96663600  1
  O  O23  1  0.87711700  0.35794400  0.03336400  1
  O  O24  1  0.73373600  0.25496700  0.30414000  1
  O  O25  1  0.26626400  0.74503300  0.69586000  1
  O  O26  1  0.74503300  0.26626400  0.69586000  1
  O  O27  1  0.25496700  0.73373600  0.30414000  1
  O  O28  1  0.50000000  0.00000000  0.50000000  1
  O  O29  1  0.00000000  0.50000000  0.50000000  1
  O  O30  1  0.87316800  0.87316800  0.39895100  1
  O  O31  1  0.12683200  0.12683200  0.60104900  1
loop_
_geom_bond_atom_site_label_1
_geom_bond_atom_site_label_2
_geom_bond_distance
_geom_bond_site_symmetry_2
O0 P0 1.526577 1_555
O0 W0 2.104463 1_555
O0 Rb0 3.157657 1_555
O1 P1 1.526577 1_555
O1 W1 2.104463 1_555
O1 Rb0 3.157657 1_556
O2 P2 1.526577 1_555
O2 W2 2.104463 1_555
O2 Rb0 3.157657 1_556
O3 P3 1.526577 1_555
O3 W3 2.104463 1_555
O3 Rb0 3.157657 1_555
O4 P0 1.582252 1_565
O4 P3 1.582252 1_655
O5 P1 1.582252 1_545
O5 P2 1.582252 1_455
O6 P0 1.520548 1_555
O6 W4 2.086707 1_545
O7 P1 1.520548 1_555
O7 W5 2.086707 1_565
O8 P2 1.520548 1_555
O8 W6 2.086707 1_655
O9 P3 1.520548 1_555
O9 W7 2.086707 1_455
O10 W4 1.956427 1_555
O10 W7 1.956427 1_555
O11 W6 1.956427 1_555
O11 W5 1.956427 1_555
O12 W1 1.930200 1_555
O12 W2 1.930200 1_555
O13 W3 1.930200 1_555
O13 W0 1.930200 1_555
O14 W5 1.925718 1_565
O14 W6 1.925718 1_655
O15 W7 1.925718 1_455
O15 W4 1.925718 1_545
O16 W4 1.907443 1_555
O16 W1 1.912308 1_555
O17 W5 1.907443 1_555
O17 W0 1.912308 1_555
O18 W6 1.907443 1_555
O18 W3 1.912308 1_555
O19 W7 1.907443 1_555
O19 W2 1.912308 1_555
O20 P1 1.532387 1_554
O20 W4 2.108219 1_555
O20 Rb0 2.993644 1_555
O21 P0 1.532387 1_556
O21 W5 2.108219 1_555
O21 Rb0 2.993644 1_556
O22 P3 1.532387 1_556
O22 W6 2.108219 1_555
O22 Rb0 2.993644 1_556
O23 P2 1.532387 1_554
O23 W7 2.108219 1_555
O23 Rb0 2.993644 1_555
O24 W7 1.844737 1_555
O24 W0 2.037387 1_555
O25 W6 1.844737 1_555
O25 W1 2.037387 1_555
O26 W5 1.844737 1_555
O26 W2 2.037387 1_555
O27 W4 1.844737 1_555
O27 W3 2.037387 1_555
O28 W0 1.917903 1_555
O28 W1 1.917903 1_545
O29 W3 1.917903 1_555
O29 W2 1.917903 1_455
O30 W0 1.941639 1_565
O30 W3 1.941639 1_655
O31 W2 1.941639 1_455
O31 W1 1.941639 1_545
