# generated using pymatgen
data_Li3MnCr3O8
_symmetry_space_group_name_H-M   'P 1'
_cell_length_a   10.32100753
_cell_length_b   10.32099945
_cell_length_c   14.60925249
_cell_angle_alpha   19.32594088
_cell_angle_beta   19.32589881
_cell_angle_gamma   33.30940721
_symmetry_Int_Tables_number   1
_chemical_formula_structural   Li3MnCr3O8
_chemical_formula_sum   'Li3 Mn1 Cr3 O8'
_cell_volume   147.60655655
_cell_formula_units_Z   1
loop_
 _symmetry_equiv_pos_site_id
 _symmetry_equiv_pos_as_xyz
  1  'x, y, z'
loop_
 _atom_site_type_symbol
 _atom_site_label
 _atom_site_symmetry_multiplicity
 _atom_site_fract_x
 _atom_site_fract_y
 _atom_site_fract_z
 _atom_site_occupancy
  Li  Li0  1  0.00000200  0.50000100  0.49999800  1
  Li  Li1  1  0.50000200  0.00000200  0.49999800  1
  Li  Li2  1  0.50000200  0.50000100  0.49999800  1
  Mn  Mn0  1  0.00000100  0.99999100  0.00000700  1
  Cr  Cr0  1  0.00000200  0.49999700  0.00000100  1
  Cr  Cr1  1  0.49999400  0.00000200  0.00000400  1
  Cr  Cr2  1  0.49998300  0.50000500  0.00000700  1
  O  O0  1  0.99999500  0.99999100  0.25915200  1
  O  O1  1  0.99998000  0.52251800  0.24670200  1
  O  O2  1  0.52251900  0.99997800  0.24670300  1
  O  O3  1  0.00001100  0.00000900  0.74084400  1
  O  O4  1  0.47745900  0.47745600  0.29175700  1
  O  O5  1  0.00002500  0.47748600  0.75329100  1
  O  O6  1  0.47748600  0.00002400  0.75329200  1
  O  O7  1  0.52253900  0.52254000  0.70824700  1
loop_
_geom_bond_atom_site_label_1
_geom_bond_atom_site_label_2
_geom_bond_distance
_geom_bond_site_symmetry_2
Li0 O4 2.172230 1_555
Li0 O7 2.172238 1_455
Li0 O2 2.172369 1_446
Li0 O6 2.172374 1_564
Li0 O0 2.177544 1_455
Li0 O3 2.177552 1_555
Li1 O4 2.172212 1_555
Li1 O7 2.172237 1_545
Li1 O1 2.172360 1_446
Li1 O5 2.172383 1_654
Li1 O0 2.177553 1_545
Li1 O3 2.177554 1_555
Li2 O2 2.172201 1_555
Li2 O1 2.172202 1_555
Li2 O6 2.172205 1_555
Li2 O5 2.172211 1_555
Li2 O3 2.177658 1_664
Li2 O0 2.177658 1_446
Mn0 O6 1.937714 1_564
Mn0 O1 1.937727 1_455
Mn0 O7 1.937749 1_455
Mn0 O5 1.937752 1_564
Mn0 O2 1.937763 1_455
Mn0 O4 1.937790 1_564
Cr0 O0 2.022719 1_445
Cr0 O3 2.022729 1_564
Cr0 O6 2.036929 1_455
Cr0 O7 2.036934 1_554
Cr0 O2 2.036949 1_554
Cr0 O4 2.036959 1_455
Cr1 O0 2.022702 1_445
Cr1 O3 2.022739 1_654
Cr1 O5 2.036914 1_545
Cr1 O7 2.036926 1_554
Cr1 O1 2.036964 1_554
Cr1 O4 2.036983 1_545
Cr2 O3 2.022736 1_555
Cr2 O0 2.022764 1_554
Cr2 O1 2.036908 1_455
Cr2 O6 2.036939 1_564
Cr2 O2 2.037011 1_545
Cr2 O5 2.037039 1_654
