# generated using pymatgen
data_CeZnIn
_symmetry_space_group_name_H-M   'P 1'
_cell_length_a   4.76732969
_cell_length_b   4.76732969
_cell_length_c   7.36590442
_cell_angle_alpha   90.00000000
_cell_angle_beta   90.00000000
_cell_angle_gamma   119.99998234
_symmetry_Int_Tables_number   1
_chemical_formula_structural   CeZnIn
_chemical_formula_sum   'Ce2 Zn2 In2'
_cell_volume   144.97968834
_cell_formula_units_Z   2
loop_
 _symmetry_equiv_pos_site_id
 _symmetry_equiv_pos_as_xyz
  1  'x, y, z'
loop_
 _atom_site_type_symbol
 _atom_site_label
 _atom_site_symmetry_multiplicity
 _atom_site_fract_x
 _atom_site_fract_y
 _atom_site_fract_z
 _atom_site_occupancy
  Ce  Ce0  1  0.00000000  -0.00000000  -0.00001599  1
  Ce  Ce1  1  0.00000000  -0.00000000  0.50001620  1
  Zn  Zn0  1  0.33333300  0.66666700  0.75044163  1
  Zn  Zn1  1  0.66666700  0.33333300  0.24955874  1
  In  In0  1  0.33333300  0.66666700  0.24972580  1
  In  In1  1  0.66666700  0.33333300  0.75027461  1
loop_
_geom_bond_atom_site_label_1
_geom_bond_atom_site_label_2
_geom_bond_distance
_geom_bond_site_symmetry_2
Ce0 Zn0 3.309747 1_544
Ce0 Zn0 3.309751 1_554
Ce0 Zn0 3.309751 1_444
Ce0 Zn1 3.309879 1_455
Ce0 Zn1 3.309883 1_445
Ce0 Zn1 3.309883 1_555
Ce0 In1 3.310430 1_454
Ce0 In1 3.310434 1_554
Ce0 In1 3.310434 1_444
Ce0 In0 3.310563 1_545
Ce0 In0 3.310567 1_555
Ce0 In0 3.310567 1_445
Ce1 In1 3.312679 1_455
Ce1 In1 3.312683 1_445
Ce1 In1 3.312683 1_555
Ce1 In0 3.312810 1_545
Ce1 In0 3.312814 1_555
Ce1 In0 3.312814 1_445
Ce1 Zn0 3.313364 1_545
Ce1 Zn0 3.313368 1_445
Ce1 Zn0 3.313368 1_555
Ce1 Zn1 3.313495 1_455
Ce1 Zn1 3.313499 1_445
Ce1 Zn1 3.313499 1_555
In0 Zn1 2.752417 1_455
In0 Zn1 2.752417 1_565
In0 Zn1 2.752425 1_555
In1 Zn0 2.752417 1_545
In1 Zn0 2.752417 1_655
In1 Zn0 2.752425 1_555
