# generated using pymatgen
data_Y4Mo4O11
_symmetry_space_group_name_H-M   'P 1'
_cell_length_a   5.65273747
_cell_length_b   10.68622410
_cell_length_c   15.84593136
_cell_angle_alpha   90.00000000
_cell_angle_beta   90.00000000
_cell_angle_gamma   90.00000000
_symmetry_Int_Tables_number   1
_chemical_formula_structural   Y4Mo4O11
_chemical_formula_sum   'Y16 Mo16 O44'
_cell_volume   957.19597524
_cell_formula_units_Z   4
loop_
 _symmetry_equiv_pos_site_id
 _symmetry_equiv_pos_as_xyz
  1  'x, y, z'
loop_
 _atom_site_type_symbol
 _atom_site_label
 _atom_site_symmetry_multiplicity
 _atom_site_fract_x
 _atom_site_fract_y
 _atom_site_fract_z
 _atom_site_occupancy
  Y  Y0  1  0.50000000  0.31486455  0.27645397  1
  Y  Y1  1  0.50000000  0.68513545  0.72354603  1
  Y  Y2  1  0.50000000  0.81486455  0.22354603  1
  Y  Y3  1  0.50000000  0.18513545  0.77645397  1
  Y  Y4  1  0.50000000  0.07846642  0.09872336  1
  Y  Y5  1  0.50000000  0.92153358  0.90127664  1
  Y  Y6  1  0.50000000  0.57846642  0.40127664  1
  Y  Y7  1  0.50000000  0.42153358  0.59872336  1
  Y  Y8  1  -0.00000000  0.09712138  0.23720177  1
  Y  Y9  1  -0.00000000  0.90287862  0.76279823  1
  Y  Y10  1  -0.00000000  0.59712138  0.26279823  1
  Y  Y11  1  -0.00000000  0.40287862  0.73720177  1
  Y  Y12  1  -0.00000000  0.88241659  0.07709772  1
  Y  Y13  1  -0.00000000  0.11758341  0.92290228  1
  Y  Y14  1  -0.00000000  0.38241659  0.42290228  1
  Y  Y15  1  -0.00000000  0.61758341  0.57709772  1
  Mo  Mo0  1  0.27345290  0.36672809  0.08439210  1
  Mo  Mo1  1  0.27345290  0.63327191  0.91560790  1
  Mo  Mo2  1  0.72654710  0.86672809  0.41560790  1
  Mo  Mo3  1  0.72654710  0.13327191  0.58439210  1
  Mo  Mo4  1  0.72654710  0.63327191  0.91560790  1
  Mo  Mo5  1  0.72654710  0.36672809  0.08439210  1
  Mo  Mo6  1  0.27345290  0.13327191  0.58439210  1
  Mo  Mo7  1  0.27345290  0.86672809  0.41560790  1
  Mo  Mo8  1  0.50000000  0.59158273  0.06801562  1
  Mo  Mo9  1  0.50000000  0.40841727  0.93198438  1
  Mo  Mo10  1  0.50000000  0.09158273  0.43198438  1
  Mo  Mo11  1  0.50000000  0.90841727  0.56801562  1
  Mo  Mo12  1  -0.00000000  0.58261375  0.05971957  1
  Mo  Mo13  1  -0.00000000  0.41738625  0.94028043  1
  Mo  Mo14  1  -0.00000000  0.08261375  0.44028043  1
  Mo  Mo15  1  -0.00000000  0.91738625  0.55971957  1
  O  O0  1  0.24584050  0.00000000  -0.00000000  1
  O  O1  1  0.75415950  0.50000000  0.50000000  1
  O  O2  1  0.75415950  0.00000000  -0.00000000  1
  O  O3  1  0.24584050  0.50000000  0.50000000  1
  O  O4  1  -0.00000000  0.22958315  0.52395042  1
  O  O5  1  -0.00000000  0.77041685  0.47604958  1
  O  O6  1  -0.00000000  0.72958315  0.97604958  1
  O  O7  1  -0.00000000  0.27041685  0.02395042  1
  O  O8  1  -0.00000000  0.04874195  0.65274560  1
  O  O9  1  -0.00000000  0.95125805  0.34725440  1
  O  O10  1  -0.00000000  0.54874195  0.84725440  1
  O  O11  1  -0.00000000  0.45125805  0.15274560  1
  O  O12  1  0.50000000  0.24395353  0.51354421  1
  O  O13  1  0.50000000  0.75604647  0.48645579  1
  O  O14  1  0.50000000  0.74395353  0.98645579  1
  O  O15  1  0.50000000  0.25604647  0.01354421  1
  O  O16  1  0.50000000  0.04022742  0.66443019  1
  O  O17  1  0.50000000  0.95977258  0.33556981  1
  O  O18  1  0.75895677  0.31424389  0.86340689  1
  O  O19  1  0.50000000  0.54022742  0.83556981  1
  O  O20  1  0.24727961  0.95930380  0.17325510  1
  O  O21  1  0.24727961  0.04069620  0.82674490  1
  O  O22  1  0.75272039  0.45930380  0.32674490  1
  O  O23  1  0.75272039  0.54069620  0.67325510  1
  O  O24  1  0.75272039  0.04069620  0.82674490  1
  O  O25  1  0.75272039  0.95930380  0.17325510  1
  O  O26  1  0.24727961  0.54069620  0.67325510  1
  O  O27  1  0.24727961  0.45930380  0.32674490  1
  O  O28  1  0.24104323  0.68575611  0.13659311  1
  O  O29  1  0.24104323  0.31424389  0.86340689  1
  O  O30  1  0.75895677  0.18575611  0.36340689  1
  O  O31  1  0.75895677  0.81424389  0.63659311  1
  O  O32  1  0.26307056  0.22584579  0.17387290  1
  O  O33  1  0.26307056  0.77415421  0.82612710  1
  O  O34  1  0.73692944  0.72584579  0.32612710  1
  O  O35  1  0.73692944  0.27415421  0.67387290  1
  O  O36  1  0.73692944  0.77415421  0.82612710  1
  O  O37  1  0.73692944  0.22584579  0.17387290  1
  O  O38  1  0.26307056  0.27415421  0.67387290  1
  O  O39  1  0.26307056  0.72584579  0.32612710  1
  O  O40  1  0.24104323  0.18575611  0.36340689  1
  O  O41  1  0.24104323  0.81424389  0.63659311  1
  O  O42  1  0.75895677  0.68575611  0.13659311  1
  O  O43  1  0.50000000  0.45977258  0.16443019  1
loop_
_geom_bond_atom_site_label_1
_geom_bond_atom_site_label_2
_geom_bond_distance
_geom_bond_site_symmetry_2
Mo0 O43 2.058426 1_555
Mo0 O32 2.068921 1_555
Mo0 O15 2.073464 1_555
Mo0 O7 2.089478 1_555
Mo0 O11 2.092484 1_555
Mo1 O19 2.058426 1_555
Mo1 O33 2.068921 1_555
Mo1 O14 2.073464 1_555
Mo1 O6 2.089478 1_555
Mo1 O10 2.092484 1_555
Mo2 O17 2.058426 1_555
Mo2 O34 2.068921 1_555
Mo2 O13 2.073464 1_555
Mo2 O5 2.089478 1_655
Mo2 O9 2.092484 1_655
Mo3 O16 2.058426 1_555
Mo3 O35 2.068921 1_555
Mo3 O12 2.073464 1_555
Mo3 O4 2.089478 1_655
Mo3 O8 2.092484 1_655
Mo4 O19 2.058426 1_555
Mo4 O36 2.068921 1_555
Mo4 O14 2.073464 1_555
Mo4 O6 2.089478 1_655
Mo4 O10 2.092484 1_655
Mo5 O43 2.058426 1_555
Mo5 O37 2.068921 1_555
Mo5 O15 2.073464 1_555
Mo5 O7 2.089478 1_655
Mo5 O11 2.092484 1_655
Mo6 O16 2.058426 1_555
Mo6 O38 2.068921 1_555
Mo6 O12 2.073464 1_555
Mo6 O4 2.089478 1_555
Mo6 O8 2.092484 1_555
Mo7 O17 2.058426 1_555
Mo7 O39 2.068921 1_555
Mo7 O13 2.073464 1_555
Mo7 O5 2.089478 1_555
Mo7 O9 2.092484 1_555
Mo8 O43 2.078011 1_555
Mo8 O14 2.078830 1_554
Mo8 O42 2.082395 1_555
Mo8 O28 2.082395 1_555
Mo9 O19 2.078011 1_555
Mo9 O15 2.078830 1_556
Mo9 O29 2.082395 1_555
Mo9 O18 2.082395 1_555
Mo10 O17 2.078011 1_545
Mo10 O12 2.078830 1_555
Mo10 O40 2.082395 1_555
Mo10 O30 2.082395 1_555
Mo11 O16 2.078011 1_565
Mo11 O13 2.078830 1_555
Mo11 O41 2.082395 1_555
Mo11 O31 2.082395 1_555
Mo12 O11 2.035507 1_555
Mo12 O6 2.055345 1_554
Mo12 O28 2.134303 1_555
Mo12 O42 2.134303 1_455
Mo13 O10 2.035507 1_555
Mo13 O7 2.055345 1_556
Mo13 O29 2.134303 1_555
Mo13 O18 2.134303 1_455
Mo14 O9 2.035507 1_545
Mo14 O4 2.055345 1_555
Mo14 O40 2.134303 1_555
Mo14 O30 2.134303 1_455
Mo15 O8 2.035507 1_565
Mo15 O5 2.055345 1_555
Mo15 O31 2.134303 1_455
Mo15 O41 2.134303 1_555
O0 Y12 2.236638 1_545
O0 Y13 2.236638 1_554
O0 Y4 2.283513 1_555
O0 Y5 2.283513 1_544
O1 Y14 2.236638 1_655
O1 Y15 2.236638 1_655
O1 Y6 2.283513 1_555
O1 Y7 2.283513 1_555
O2 Y13 2.236638 1_654
O2 Y12 2.236638 1_645
O2 Y4 2.283513 1_555
O2 Y5 2.283513 1_544
O3 Y14 2.236638 1_555
O3 Y15 2.236638 1_555
O3 Y6 2.283513 1_555
O3 Y7 2.283513 1_555
O4 Y14 2.287188 1_555
O5 Y15 2.287188 1_555
O6 Y12 2.287188 1_556
O7 Y13 2.287188 1_554
O8 Y9 2.338968 1_545
O9 Y8 2.338968 1_565
O10 Y11 2.338968 1_555
O11 Y10 2.338968 1_555
O12 Y7 2.328716 1_555
O13 Y6 2.328716 1_555
O14 Y5 2.328716 1_555
O15 Y4 2.328716 1_555
O16 Y3 2.355625 1_555
O17 Y2 2.355625 1_555
O18 Y3 2.438185 1_555
O18 Y11 2.598661 1_655
O18 Y13 2.676172 1_655
O19 Y1 2.355625 1_555
O20 Y12 2.224998 1_555
O20 Y4 2.248811 1_565
O20 Y2 2.249061 1_555
O20 Y8 2.269278 1_565
O21 Y13 2.224998 1_555
O21 Y5 2.248811 1_545
O21 Y3 2.249061 1_555
O21 Y9 2.269278 1_545
O22 Y14 2.224998 1_655
O22 Y6 2.248811 1_555
O22 Y0 2.249061 1_555
O22 Y10 2.269278 1_655
O23 Y15 2.224998 1_655
O23 Y7 2.248811 1_555
O23 Y1 2.249061 1_555
O23 Y11 2.269278 1_655
O24 Y13 2.224998 1_655
O24 Y5 2.248811 1_545
O24 Y3 2.249061 1_555
O24 Y9 2.269278 1_645
O25 Y12 2.224998 1_655
O25 Y4 2.248811 1_565
O25 Y2 2.249061 1_555
O25 Y8 2.269278 1_665
O26 Y15 2.224998 1_555
O26 Y7 2.248811 1_555
O26 Y1 2.249061 1_555
O26 Y11 2.269278 1_555
O27 Y14 2.224998 1_555
O27 Y6 2.248811 1_555
O27 Y0 2.249061 1_555
O27 Y10 2.269278 1_555
O28 Y2 2.438185 1_555
O28 Y10 2.598661 1_555
O28 Y12 2.676172 1_555
O29 Y3 2.438185 1_555
O29 Y11 2.598661 1_555
O29 Y13 2.676172 1_555
O30 Y0 2.438185 1_555
O30 Y8 2.598661 1_655
O30 Y14 2.676172 1_655
O31 Y1 2.438185 1_555
O31 Y9 2.598661 1_655
O31 Y15 2.676172 1_655
O32 Y8 2.260666 1_555
O32 Y0 2.311033 1_555
O32 Y4 2.385826 1_555
O33 Y9 2.260666 1_555
O33 Y1 2.311033 1_555
O33 Y5 2.385826 1_555
O34 Y10 2.260666 1_655
O34 Y2 2.311033 1_555
O34 Y6 2.385826 1_555
O35 Y11 2.260666 1_655
O35 Y3 2.311033 1_555
O35 Y7 2.385826 1_555
O36 Y9 2.260666 1_655
O36 Y1 2.311033 1_555
O36 Y5 2.385826 1_555
O37 Y8 2.260666 1_655
O37 Y0 2.311033 1_555
O37 Y4 2.385826 1_555
O38 Y11 2.260666 1_555
O38 Y3 2.311033 1_555
O38 Y7 2.385826 1_555
O39 Y10 2.260666 1_555
O39 Y2 2.311033 1_555
O39 Y6 2.385826 1_555
O40 Y0 2.438185 1_555
O40 Y8 2.598661 1_555
O40 Y14 2.676172 1_555
O41 Y1 2.438185 1_555
O41 Y9 2.598661 1_555
O41 Y15 2.676172 1_555
O42 Y2 2.438185 1_555
O42 Y10 2.598661 1_655
O42 Y12 2.676172 1_655
O43 Y0 2.355625 1_555
