# generated using pymatgen
data_NaCeNb2O6
_symmetry_space_group_name_H-M   'P 1'
_cell_length_a   5.73452808
_cell_length_b   5.73452808
_cell_length_c   5.73452808
_cell_angle_alpha   60.00000000
_cell_angle_beta   60.00000000
_cell_angle_gamma   60.00000000
_symmetry_Int_Tables_number   1
_chemical_formula_structural   NaCeNb2O6
_chemical_formula_sum   'Na1 Ce1 Nb2 O6'
_cell_volume   133.34540429
_cell_formula_units_Z   1
loop_
 _symmetry_equiv_pos_site_id
 _symmetry_equiv_pos_as_xyz
  1  'x, y, z'
loop_
 _atom_site_type_symbol
 _atom_site_label
 _atom_site_symmetry_multiplicity
 _atom_site_fract_x
 _atom_site_fract_y
 _atom_site_fract_z
 _atom_site_occupancy
  Na  Na0  1  0.50000000  0.50000000  0.50000000  1
  Ce  Ce0  1  0.00000000  -0.00000000  -0.00000000  1
  Nb  Nb0  1  0.25000000  0.25000000  0.25000000  1
  Nb  Nb1  1  0.75000000  0.75000000  0.75000000  1
  O  O0  1  0.00000000  -0.00000000  0.50000000  1
  O  O1  1  0.50000000  0.50000000  -0.00000000  1
  O  O2  1  0.00000000  0.50000000  0.50000000  1
  O  O3  1  0.50000000  -0.00000000  -0.00000000  1
  O  O4  1  0.00000000  0.50000000  -0.00000000  1
  O  O5  1  0.50000000  -0.00000000  0.50000000  1
loop_
_geom_bond_atom_site_label_1
_geom_bond_atom_site_label_2
_geom_bond_distance
_geom_bond_site_symmetry_2
Na0 O2 2.867264 1_555
Na0 O3 2.867264 1_556
Na0 O3 2.867264 1_565
Na0 O0 2.867264 1_655
Na0 O4 2.867264 1_655
Na0 O4 2.867264 1_556
Na0 O1 2.867264 1_555
Na0 O0 2.867264 1_565
Na0 O1 2.867264 1_556
Na0 O5 2.867264 1_555
Na0 O5 2.867264 1_565
Na0 O2 2.867264 1_655
Ce0 O2 2.867264 1_545
Ce0 O1 2.867264 1_455
Ce0 O3 2.867264 1_555
Ce0 O4 2.867264 1_555
Ce0 O5 2.867264 1_455
Ce0 O5 2.867264 1_554
Ce0 O2 2.867264 1_554
Ce0 O4 2.867264 1_545
Ce0 O3 2.867264 1_455
Ce0 O1 2.867264 1_545
Ce0 O0 2.867264 1_555
Ce0 O0 2.867264 1_554
Nb0 O3 2.027462 1_555
Nb0 O2 2.027462 1_555
Nb0 O0 2.027462 1_555
Nb0 O4 2.027462 1_555
Nb0 O1 2.027462 1_555
Nb0 O5 2.027462 1_555
Nb1 O5 2.027462 1_565
Nb1 O1 2.027462 1_556
Nb1 O0 2.027462 1_665
Nb1 O4 2.027462 1_656
Nb1 O3 2.027462 1_566
Nb1 O2 2.027462 1_655
