# generated using pymatgen
data_EuMgNi
_symmetry_space_group_name_H-M   'P 1'
_cell_length_a   6.80349000
_cell_length_b   6.80349000
_cell_length_c   6.80349000
_cell_angle_alpha   90.00000000
_cell_angle_beta   90.00000000
_cell_angle_gamma   90.00000000
_symmetry_Int_Tables_number   1
_chemical_formula_structural   EuMgNi
_chemical_formula_sum   'Eu4 Mg4 Ni4'
_cell_volume   314.91638132
_cell_formula_units_Z   4
loop_
 _symmetry_equiv_pos_site_id
 _symmetry_equiv_pos_as_xyz
  1  'x, y, z'
loop_
 _atom_site_type_symbol
 _atom_site_label
 _atom_site_symmetry_multiplicity
 _atom_site_fract_x
 _atom_site_fract_y
 _atom_site_fract_z
 _atom_site_occupancy
  Eu  Eu0  1  0.17940800  0.67940800  0.82059200  1
  Eu  Eu1  1  0.67940800  0.82059200  0.17940800  1
  Eu  Eu2  1  0.82059200  0.17940800  0.67940800  1
  Eu  Eu3  1  0.32059200  0.32059200  0.32059200  1
  Mg  Mg0  1  0.84573100  0.34573100  0.15426900  1
  Mg  Mg1  1  0.34573100  0.15426900  0.84573100  1
  Mg  Mg2  1  0.15426900  0.84573100  0.34573100  1
  Mg  Mg3  1  0.65426900  0.65426900  0.65426900  1
  Ni  Ni0  1  0.45464900  0.95464900  0.54535100  1
  Ni  Ni1  1  0.95464900  0.54535100  0.45464900  1
  Ni  Ni2  1  0.54535100  0.45464900  0.95464900  1
  Ni  Ni3  1  0.04535100  0.04535100  0.04535100  1
loop_
_geom_bond_atom_site_label_1
_geom_bond_atom_site_label_2
_geom_bond_distance
_geom_bond_site_symmetry_2
Eu0 Ni3 3.060831 1_566
Eu0 Ni1 3.060831 1_455
Eu0 Ni2 3.060831 1_555
Eu0 Ni0 3.243437 1_555
Eu0 Mg2 3.427422 1_555
Eu0 Mg1 3.427422 1_565
Eu0 Mg3 3.427422 1_555
Eu0 Mg3 3.751594 1_455
Eu0 Mg2 3.751594 1_556
Eu0 Mg1 3.751594 1_555
Eu0 Mg0 3.932047 1_456
Eu1 Ni3 3.060831 1_665
Eu1 Ni2 3.060831 1_554
Eu1 Ni0 3.060831 1_555
Eu1 Ni1 3.243437 1_555
Eu1 Mg0 3.427422 1_555
Eu1 Mg2 3.427422 1_655
Eu1 Mg3 3.427422 1_555
Eu1 Mg3 3.751594 1_554
Eu1 Mg0 3.751594 1_565
Eu1 Mg2 3.751594 1_555
Eu1 Mg1 3.932047 1_564
Eu2 Ni3 3.060831 1_656
Eu2 Ni0 3.060831 1_545
Eu2 Ni1 3.060831 1_555
Eu2 Ni2 3.243437 1_555
Eu2 Mg1 3.427422 1_555
Eu2 Mg0 3.427422 1_556
Eu2 Mg3 3.427422 1_555
Eu2 Mg3 3.751594 1_545
Eu2 Mg1 3.751594 1_655
Eu2 Mg0 3.751594 1_555
Eu2 Mg2 3.932047 1_645
Eu3 Ni0 3.060831 1_545
Eu3 Ni2 3.060831 1_554
Eu3 Ni1 3.060831 1_455
Eu3 Ni3 3.243437 1_555
Eu3 Mg0 3.427422 1_455
Eu3 Mg1 3.427422 1_554
Eu3 Mg2 3.427422 1_545
Eu3 Mg1 3.751594 1_555
Eu3 Mg0 3.751594 1_555
Eu3 Mg2 3.751594 1_555
Eu3 Mg3 3.932047 1_555
Mg0 Ni1 2.563205 1_555
Mg0 Ni2 2.563205 1_554
Mg0 Ni3 2.563205 1_655
Mg1 Ni2 2.563205 1_555
Mg1 Ni0 2.563205 1_545
Mg1 Ni3 2.563205 1_556
Mg2 Ni0 2.563205 1_555
Mg2 Ni1 2.563205 1_455
Mg2 Ni3 2.563205 1_565
Mg3 Ni2 2.563205 1_555
Mg3 Ni0 2.563205 1_555
Mg3 Ni1 2.563205 1_555
