# generated using pymatgen
data_NaCaBO3
_symmetry_space_group_name_H-M   'P 1'
_cell_length_a   3.53596700
_cell_length_b   10.28442276
_cell_length_c   16.25734782
_cell_angle_alpha   90.06729277
_cell_angle_beta   90.00000000
_cell_angle_gamma   90.00000000
_symmetry_Int_Tables_number   1
_chemical_formula_structural   NaCaBO3
_chemical_formula_sum   'Na8 Ca8 B8 O24'
_cell_volume   591.20421543
_cell_formula_units_Z   8
loop_
 _symmetry_equiv_pos_site_id
 _symmetry_equiv_pos_as_xyz
  1  'x, y, z'
loop_
 _atom_site_type_symbol
 _atom_site_label
 _atom_site_symmetry_multiplicity
 _atom_site_fract_x
 _atom_site_fract_y
 _atom_site_fract_z
 _atom_site_occupancy
  Na  Na0  1  0.21332300  0.24749200  0.08130000  1
  Na  Na1  1  0.20391000  0.25988900  0.41680800  1
  Na  Na2  1  0.79609000  0.75988900  0.91680800  1
  Na  Na3  1  0.78667700  0.74749200  0.58130000  1
  Na  Na4  1  0.37795000  0.75513500  0.75142800  1
  Na  Na5  1  0.62205000  0.25513500  0.25142800  1
  Na  Na6  1  0.23668600  0.03195100  0.90048100  1
  Na  Na7  1  0.76331400  0.53195100  0.40048100  1
  Ca  Ca0  1  0.53024500  0.24386400  0.75270500  1
  Ca  Ca1  1  0.46975500  0.74386400  0.25270500  1
  Ca  Ca2  1  0.23431600  0.03252300  0.60024600  1
  Ca  Ca3  1  0.23454600  0.46550700  0.90137000  1
  Ca  Ca4  1  0.24093800  0.46762000  0.59480400  1
  Ca  Ca5  1  0.75906200  0.96762000  0.09480400  1
  Ca  Ca6  1  0.76545400  0.96550700  0.40137000  1
  Ca  Ca7  1  0.76568400  0.53252300  0.10024600  1
  B  B0  1  0.31922300  0.74843900  0.04255100  1
  B  B1  1  0.32001100  0.75243300  0.46164100  1
  B  B2  1  0.67998900  0.25243300  0.96164100  1
  B  B3  1  0.68077700  0.24843900  0.54255100  1
  B  B4  1  0.83946400  0.97305500  0.74688300  1
  B  B5  1  0.83544400  0.52236800  0.75022000  1
  B  B6  1  0.16455600  0.02236800  0.25022000  1
  B  B7  1  0.16053600  0.47305500  0.24688300  1
  O  O0  1  0.03390100  0.09167200  0.74316600  1
  O  O1  1  0.04460300  0.40722500  0.75054800  1
  O  O2  1  0.95539700  0.90722500  0.25054800  1
  O  O3  1  0.96609900  0.59167200  0.24316600  1
  O  O4  1  0.48145600  0.25408500  0.88912700  1
  O  O5  1  0.46377200  0.24686800  0.61323600  1
  O  O6  1  0.53622800  0.74686800  0.11323600  1
  O  O7  1  0.51854400  0.75408500  0.38912700  1
  O  O8  1  0.76248800  0.91046400  0.81907800  1
  O  O9  1  0.73477400  0.91870500  0.66989900  1
  O  O10  1  0.73850200  0.57900100  0.82585000  1
  O  O11  1  0.73872800  0.57916400  0.67529500  1
  O  O12  1  0.26127200  0.07916400  0.17529500  1
  O  O13  1  0.26149800  0.07900100  0.32585000  1
  O  O14  1  0.26522600  0.41870500  0.16989900  1
  O  O15  1  0.23751200  0.41046400  0.31907800  1
  O  O16  1  0.22574200  0.86722100  0.00813900  1
  O  O17  1  0.22628000  0.87502300  0.49576900  1
  O  O18  1  0.23332200  0.63033500  0.00413900  1
  O  O19  1  0.24987200  0.63996100  0.50531700  1
  O  O20  1  0.75012800  0.13996100  0.00531700  1
  O  O21  1  0.76667800  0.13033500  0.50413900  1
  O  O22  1  0.77372000  0.37502300  0.99576900  1
  O  O23  1  0.77425800  0.36722100  0.50813900  1
loop_
_geom_bond_atom_site_label_1
_geom_bond_atom_site_label_2
_geom_bond_distance
_geom_bond_site_symmetry_2
Na0 O14 2.280996 1_555
Na0 O12 2.316674 1_555
Na0 O20 2.329859 1_455
Na0 O22 2.464603 1_454
Na0 O20 2.519641 1_555
Na0 O22 2.754009 1_554
Na1 O15 2.223144 1_555
Na1 O13 2.383796 1_555
Na1 O23 2.393185 1_455
Na1 O21 2.487103 1_455
Na1 O23 2.736141 1_555
Na1 O21 2.784828 1_555
Na2 O8 2.223144 1_555
Na2 O10 2.383796 1_555
Na2 O16 2.393185 1_656
Na2 O18 2.487103 1_656
Na2 O16 2.736141 1_556
Na2 O18 2.784828 1_556
Na3 O9 2.280996 1_555
Na3 O11 2.316674 1_555
Na3 O19 2.329859 1_655
Na3 O17 2.464603 1_655
Na3 O19 2.519641 1_555
Na3 O17 2.754009 1_555
Na4 O8 2.367738 1_555
Na4 O9 2.486735 1_555
Na4 O10 2.525013 1_555
Na4 O11 2.535613 1_555
Na5 O15 2.367738 1_555
Na5 O14 2.486735 1_555
Na5 O13 2.525013 1_555
Na5 O12 2.535613 1_555
Na6 O16 2.437608 1_546
Na6 O4 2.450139 1_555
Na6 O8 2.473872 1_445
Na6 O8 2.601009 1_545
Na6 O20 2.663505 1_456
Na6 O20 2.725875 1_556
Na6 O0 2.726904 1_555
Na7 O23 2.437608 1_555
Na7 O7 2.450139 1_555
Na7 O15 2.473872 1_655
Na7 O15 2.601009 1_555
Na7 O19 2.663505 1_655
Na7 O19 2.725875 1_555
Na7 O3 2.726904 1_555
Ca0 O4 2.226919 1_555
Ca0 O5 2.279792 1_555
Ca0 O0 2.356602 1_555
Ca0 O0 2.375920 1_655
Ca0 O1 2.402673 1_555
Ca0 O1 2.476263 1_655
Ca1 O7 2.226919 1_555
Ca1 O6 2.279792 1_555
Ca1 O3 2.356602 1_555
Ca1 O3 2.375920 1_455
Ca1 O2 2.402673 1_555
Ca1 O2 2.476263 1_455
Ca2 O17 2.345859 1_545
Ca2 O5 2.358227 1_555
Ca2 O9 2.403251 1_445
Ca2 O9 2.405633 1_545
Ca2 O21 2.488188 1_455
Ca2 O0 2.503513 1_555
Ca2 O21 2.645813 1_555
Ca3 O4 2.351309 1_555
Ca3 O18 2.378728 1_556
Ca3 O22 2.424813 1_455
Ca3 O10 2.439191 1_455
Ca3 O10 2.459385 1_555
Ca3 O1 2.611331 1_555
Ca3 O22 2.619028 1_555
Ca4 O19 2.294572 1_555
Ca4 O23 2.402270 1_455
Ca4 O5 2.422091 1_555
Ca4 O11 2.474472 1_555
Ca4 O11 2.485614 1_455
Ca4 O23 2.569845 1_555
Ca4 O1 2.698592 1_555
Ca5 O20 2.294572 1_565
Ca5 O16 2.402270 1_655
Ca5 O6 2.422091 1_555
Ca5 O12 2.474472 1_565
Ca5 O12 2.485614 1_665
Ca5 O16 2.569845 1_555
Ca5 O2 2.698592 1_555
Ca6 O7 2.351309 1_555
Ca6 O21 2.378728 1_565
Ca6 O17 2.424813 1_655
Ca6 O13 2.439191 1_665
Ca6 O13 2.459385 1_565
Ca6 O2 2.611331 1_555
Ca6 O17 2.619028 1_555
Ca7 O22 2.345859 1_554
Ca7 O6 2.358227 1_555
Ca7 O14 2.403251 1_655
Ca7 O14 2.405633 1_555
Ca7 O18 2.488188 1_655
Ca7 O3 2.503513 1_555
Ca7 O18 2.645813 1_555
B0 O6 1.381896 1_555
B0 O16 1.384256 1_555
B0 O18 1.398492 1_555
B0 Na2 2.652660 1_554
B1 O7 1.372195 1_555
B1 O19 1.380433 1_555
B1 O17 1.416183 1_555
B1 Na3 2.551477 1_555
B2 O4 1.372195 1_555
B2 O20 1.380433 1_556
B2 O22 1.416183 1_555
B2 Na0 2.551477 1_556
B3 O5 1.381896 1_555
B3 O23 1.384256 1_555
B3 O21 1.398492 1_555
B3 Na1 2.652660 1_555
B4 O8 1.366673 1_555
B4 O0 1.401673 1_665
B4 O9 1.419231 1_555
B5 O11 1.394108 1_555
B5 O1 1.396174 1_655
B5 O10 1.402437 1_555
B6 O12 1.394108 1_555
B6 O2 1.396174 1_445
B6 O13 1.402437 1_555
B7 O15 1.366673 1_555
B7 O3 1.401673 1_455
B7 O14 1.419231 1_555
