# generated using pymatgen
data_SrMg2
_symmetry_space_group_name_H-M   'P 1'
_cell_length_a   9.74451896
_cell_length_b   9.74451896
_cell_length_c   5.48487100
_cell_angle_alpha   90.00000000
_cell_angle_beta   90.00000000
_cell_angle_gamma   157.26672771
_symmetry_Int_Tables_number   1
_chemical_formula_structural   SrMg2
_chemical_formula_sum   'Sr2 Mg4'
_cell_volume   201.26637172
_cell_formula_units_Z   2
loop_
 _symmetry_equiv_pos_site_id
 _symmetry_equiv_pos_as_xyz
  1  'x, y, z'
loop_
 _atom_site_type_symbol
 _atom_site_label
 _atom_site_symmetry_multiplicity
 _atom_site_fract_x
 _atom_site_fract_y
 _atom_site_fract_z
 _atom_site_occupancy
  Sr  Sr0  1  0.10036000  0.89964000  0.50000000  1
  Sr  Sr1  1  0.79202200  0.20797800  0.50000000  1
  Mg  Mg0  1  0.98020600  0.01979400  0.00000000  1
  Mg  Mg1  1  0.34879500  0.65120500  0.00000000  1
  Mg  Mg2  1  0.66820200  0.33179800  0.00000000  1
  Mg  Mg3  1  0.44374900  0.55625100  0.50000000  1
loop_
_geom_bond_atom_site_label_1
_geom_bond_atom_site_label_2
_geom_bond_distance
_geom_bond_site_symmetry_2
Mg0 Mg1 3.161122 1_545
Mg0 Mg1 3.161122 1_655
Mg0 Mg3 3.419728 1_545
Mg0 Mg3 3.419728 1_544
Mg0 Mg3 3.419728 1_655
Mg0 Mg3 3.419728 1_654
Mg0 Sr0 3.576514 1_644
Mg0 Sr0 3.576514 1_645
Mg1 Mg3 3.288238 1_554
Mg1 Mg3 3.288238 1_555
Mg1 Sr1 3.519375 1_455
Mg1 Sr1 3.519375 1_564
Mg1 Sr1 3.519375 1_565
Mg1 Sr1 3.519375 1_454
Mg2 Sr0 3.590204 1_654
Mg2 Sr0 3.590204 1_655
Mg2 Sr0 3.590204 1_545
Mg2 Sr0 3.590204 1_544
Mg2 Sr1 3.621874 1_554
Mg2 Sr1 3.621874 1_555
Mg3 Sr1 3.477450 1_455
Mg3 Sr1 3.477450 1_565
Mg3 Sr0 3.555618 1_545
Mg3 Sr0 3.555618 1_655
