# generated using pymatgen
data_Ba5Hf2N6
_symmetry_space_group_name_H-M   'P 1'
_cell_length_a   6.76065813
_cell_length_b   7.47593269
_cell_length_c   14.96414338
_cell_angle_alpha   89.99999939
_cell_angle_beta   95.29358311
_cell_angle_gamma   123.56617759
_symmetry_Int_Tables_number   1
_chemical_formula_structural   Ba5Hf2N6
_chemical_formula_sum   'Ba10 Hf4 N12'
_cell_volume   626.32800078
_cell_formula_units_Z   2
loop_
 _symmetry_equiv_pos_site_id
 _symmetry_equiv_pos_as_xyz
  1  'x, y, z'
loop_
 _atom_site_type_symbol
 _atom_site_label
 _atom_site_symmetry_multiplicity
 _atom_site_fract_x
 _atom_site_fract_y
 _atom_site_fract_z
 _atom_site_occupancy
  Ba  Ba0  1  0.07847600  0.76958500  0.97900900  1
  Ba  Ba1  1  0.92152400  0.69110900  0.52099100  1
  Ba  Ba2  1  0.92152400  0.23041500  0.02099100  1
  Ba  Ba3  1  0.07847600  0.30889100  0.47900900  1
  Ba  Ba4  1  0.30965000  0.10577900  0.70593500  1
  Ba  Ba5  1  0.69035000  0.79612900  0.79406500  1
  Ba  Ba6  1  0.69035000  0.89422100  0.29406500  1
  Ba  Ba7  1  0.30965000  0.20387100  0.20593500  1
  Ba  Ba8  1  0.00000000  0.40807800  0.75000000  1
  Ba  Ba9  1  0.00000000  0.59192200  0.25000000  1
  Hf  Hf0  1  0.55128800  0.90346200  0.57719100  1
  Hf  Hf1  1  0.44871200  0.35217400  0.92280900  1
  Hf  Hf2  1  0.44871200  0.09653800  0.42280900  1
  Hf  Hf3  1  0.55128800  0.64782600  0.07719100  1
  N  N0  1  0.87923800  0.96043900  0.62074600  1
  N  N1  1  0.12076200  0.08120100  0.87925400  1
  N  N2  1  0.12076200  0.03956100  0.37925400  1
  N  N3  1  0.87923800  0.91879900  0.12074600  1
  N  N4  1  0.29079100  0.74528600  0.66206600  1
  N  N5  1  0.70920900  0.45449500  0.83793400  1
  N  N6  1  0.70920900  0.25471400  0.33793400  1
  N  N7  1  0.29079100  0.54550500  0.16206600  1
  N  N8  1  0.60188900  0.20257600  0.55615900  1
  N  N9  1  0.39811100  0.60068700  0.94384100  1
  N  N10  1  0.39811100  0.79742400  0.44384100  1
  N  N11  1  0.60188900  0.39931300  0.05615900  1
loop_
_geom_bond_atom_site_label_1
_geom_bond_atom_site_label_2
_geom_bond_distance
_geom_bond_site_symmetry_2
Ba0 N1 2.660722 1_565
Ba0 N5 2.960157 1_455
Ba0 N3 3.121850 1_456
Ba0 N9 3.125385 1_555
Ba0 N11 3.193843 1_456
Ba1 N0 2.660722 1_555
Ba1 N4 2.960157 1_655
Ba1 N2 3.121850 1_665
Ba1 N8 3.125385 1_555
Ba1 N10 3.193843 1_655
Ba2 N3 2.660722 1_545
Ba2 N7 2.960157 1_655
Ba2 N1 3.121850 1_654
Ba2 N11 3.125385 1_555
Ba2 N9 3.193843 1_654
Ba3 N2 2.660722 1_555
Ba3 N6 2.960157 1_455
Ba3 N0 3.121850 1_445
Ba3 N10 3.125385 1_555
Ba3 N8 3.193843 1_455
Ba4 N0 2.663138 1_445
Ba4 N4 2.704612 1_545
Ba4 N8 2.947292 1_555
Ba4 N1 2.956818 1_555
Ba4 N5 3.036956 1_555
Ba5 N1 2.663138 1_665
Ba5 N5 2.704612 1_555
Ba5 N9 2.947292 1_555
Ba5 N0 2.956818 1_555
Ba5 N4 3.036956 1_555
Ba6 N2 2.663138 1_665
Ba6 N6 2.704612 1_565
Ba6 N10 2.947292 1_555
Ba6 N3 2.956818 1_555
Ba6 N7 3.036956 1_555
Ba7 N3 2.663138 1_445
Ba7 N7 2.704612 1_555
Ba7 N11 2.947292 1_555
Ba7 N2 2.956818 1_555
Ba7 N6 3.036956 1_555
Ba8 N4 2.636004 1_555
Ba8 N5 2.636004 1_455
Ba8 N1 3.506300 1_555
Ba8 N0 3.506300 1_445
Ba9 N6 2.636004 1_455
Ba9 N7 2.636004 1_555
Ba9 N3 3.506300 1_455
Ba9 N2 3.506300 1_565
Hf0 N0 2.052085 1_555
Hf0 N4 2.054960 1_555
Hf0 N8 2.095335 1_565
Hf0 N10 2.096104 1_555
Hf1 N1 2.052085 1_555
Hf1 N5 2.054960 1_555
Hf1 N9 2.095335 1_555
Hf1 N11 2.096104 1_556
Hf2 N2 2.052085 1_555
Hf2 N6 2.054960 1_555
Hf2 N10 2.095335 1_545
Hf2 N8 2.096104 1_555
Hf3 N3 2.052085 1_555
Hf3 N7 2.054960 1_555
Hf3 N11 2.095335 1_555
Hf3 N9 2.096104 1_554
