# generated using pymatgen
data_NaDyO2
_symmetry_space_group_name_H-M   'P 1'
_cell_length_a   5.81551079
_cell_length_b   5.81551079
_cell_length_c   5.81551013
_cell_angle_alpha   33.96254077
_cell_angle_beta   33.96254077
_cell_angle_gamma   33.96254268
_symmetry_Int_Tables_number   1
_chemical_formula_structural   NaDyO2
_chemical_formula_sum   'Na1 Dy1 O2'
_cell_volume   54.71146016
_cell_formula_units_Z   1
loop_
 _symmetry_equiv_pos_site_id
 _symmetry_equiv_pos_as_xyz
  1  'x, y, z'
loop_
 _atom_site_type_symbol
 _atom_site_label
 _atom_site_symmetry_multiplicity
 _atom_site_fract_x
 _atom_site_fract_y
 _atom_site_fract_z
 _atom_site_occupancy
  Na  Na0  1  0.00000000  0.00000000  -0.00000000  1
  Dy  Dy0  1  0.50000000  0.50000000  0.50000000  1
  O  O0  1  0.23808465  0.23808465  0.23808465  1
  O  O1  1  0.76191535  0.76191535  0.76191535  1
loop_
_geom_bond_atom_site_label_1
_geom_bond_atom_site_label_2
_geom_bond_distance
_geom_bond_site_symmetry_2
Na0 O0 2.508743 1_554
Na0 O1 2.508743 1_445
Na0 O1 2.508744 1_544
Na0 O0 2.508744 1_455
Na0 O1 2.508744 1_454
Na0 O0 2.508744 1_545
Dy0 O1 2.285246 1_554
Dy0 O0 2.285246 1_556
Dy0 O1 2.285246 1_545
Dy0 O1 2.285246 1_455
Dy0 O0 2.285246 1_655
Dy0 O0 2.285246 1_565
