# generated using pymatgen
data_Mn3ReO6
_symmetry_space_group_name_H-M   'P 1'
_cell_length_a   5.34687061
_cell_length_b   5.45652883
_cell_length_c   7.86214660
_cell_angle_alpha   90.00167287
_cell_angle_beta   90.00894289
_cell_angle_gamma   90.06329147
_symmetry_Int_Tables_number   1
_chemical_formula_structural   Mn3ReO6
_chemical_formula_sum   'Mn6 Re2 O12'
_cell_volume   229.38076462
_cell_formula_units_Z   2
loop_
 _symmetry_equiv_pos_site_id
 _symmetry_equiv_pos_as_xyz
  1  'x, y, z'
loop_
 _atom_site_type_symbol
 _atom_site_label
 _atom_site_symmetry_multiplicity
 _atom_site_fract_x
 _atom_site_fract_y
 _atom_site_fract_z
 _atom_site_occupancy
  Mn  Mn0  1  0.50144300  0.00147000  0.50341200  1
  Mn  Mn1  1  0.99840900  0.50148900  0.99658300  1
  Mn  Mn2  1  0.00200800  0.95635900  0.75686000  1
  Mn  Mn3  1  0.49803300  0.45633900  0.74318300  1
  Mn  Mn4  1  0.49426400  0.54895600  0.25813800  1
  Mn  Mn5  1  0.00573900  0.04924800  0.24171700  1
  Re  Re0  1  0.99736400  0.50075700  0.49857600  1
  Re  Re1  1  0.50267600  0.00091300  0.00153300  1
  O  O0  1  0.15732100  0.79749800  0.42453700  1
  O  O1  1  0.65603400  0.69980200  0.92398900  1
  O  O2  1  0.84390600  0.19970300  0.57598600  1
  O  O3  1  0.34275800  0.29747100  0.07549700  1
  O  O4  1  0.30365500  0.32470400  0.44225100  1
  O  O5  1  0.81650000  0.16460600  0.94846200  1
  O  O6  1  0.68350600  0.66447800  0.55161900  1
  O  O7  1  0.19634700  0.82474300  0.05768900  1
  O  O8  1  0.62291500  0.92844600  0.23341400  1
  O  O9  1  0.11931900  0.57724300  0.73172100  1
  O  O10  1  0.38068700  0.07732200  0.76823200  1
  O  O11  1  0.87711500  0.42845100  0.26660100  1
loop_
_geom_bond_atom_site_label_1
_geom_bond_atom_site_label_2
_geom_bond_distance
_geom_bond_site_symmetry_2
Mn0 O4 2.112914 1_555
Mn0 O6 2.115745 1_545
Mn0 O2 2.200858 1_555
Mn0 O10 2.219031 1_555
Mn0 O0 2.236933 1_545
Mn0 O8 2.255591 1_545
Mn1 O7 2.111333 1_656
Mn1 O5 2.112839 1_555
Mn1 O1 2.202726 1_555
Mn1 O9 2.219237 1_655
Mn1 O3 2.240181 1_656
Mn1 O11 2.255247 1_556
Mn2 O2 2.121832 1_465
Mn2 O10 2.130783 1_565
Mn2 O5 2.132402 1_465
Mn2 O9 2.171342 1_555
Mn3 O1 2.120444 1_555
Mn3 O6 2.130669 1_555
Mn3 O9 2.132277 1_555
Mn3 O10 2.169507 1_555
Mn4 O3 2.144361 1_555
Mn4 O4 2.151537 1_555
Mn4 O11 2.151779 1_555
Mn4 O8 2.189903 1_555
Mn5 O0 2.147580 1_545
Mn5 O8 2.150714 1_445
Mn5 O7 2.153103 1_545
Mn5 O11 2.189915 1_455
O0 Re0 1.920733 1_455
O1 Re1 1.935628 1_566
O2 Re0 1.933750 1_555
O3 Re1 1.921183 1_555
O4 Re0 1.950554 1_455
O5 Re1 1.945361 1_556
O6 Re0 1.947231 1_555
O7 Re1 1.948968 1_565
O8 Re1 1.973207 1_565
O9 Re0 1.989555 1_455
O10 Re1 1.990981 1_556
O11 Re0 1.973426 1_555
