# generated using pymatgen
data_GeO2
_symmetry_space_group_name_H-M   'P 1'
_cell_length_a   2.90467400
_cell_length_b   4.42882200
_cell_length_c   4.52662600
_cell_angle_alpha   90.00000000
_cell_angle_beta   90.00000000
_cell_angle_gamma   90.00000000
_symmetry_Int_Tables_number   1
_chemical_formula_structural   GeO2
_chemical_formula_sum   'Ge2 O4'
_cell_volume   58.23180294
_cell_formula_units_Z   2
loop_
 _symmetry_equiv_pos_site_id
 _symmetry_equiv_pos_as_xyz
  1  'x, y, z'
loop_
 _atom_site_type_symbol
 _atom_site_label
 _atom_site_symmetry_multiplicity
 _atom_site_fract_x
 _atom_site_fract_y
 _atom_site_fract_z
 _atom_site_occupancy
  Ge  Ge0  1  0.50000000  0.50000000  0.50000000  1
  Ge  Ge1  1  0.00000000  0.00000000  0.00000000  1
  O  O0  1  0.50000000  0.79527100  0.18151600  1
  O  O1  1  0.50000000  0.20472900  0.81848400  1
  O  O2  1  0.00000000  0.70472900  0.68151600  1
  O  O3  1  0.00000000  0.29527100  0.31848400  1
loop_
_geom_bond_atom_site_label_1
_geom_bond_atom_site_label_2
_geom_bond_distance
_geom_bond_site_symmetry_2
Ge0 O2 1.899084 1_655
Ge0 O3 1.899084 1_555
Ge0 O3 1.899084 1_655
Ge0 O2 1.899084 1_555
Ge0 O0 1.946398 1_555
Ge0 O1 1.946398 1_555
Ge1 O1 1.899084 1_454
Ge1 O0 1.899084 1_545
Ge1 O1 1.899084 1_554
Ge1 O0 1.899084 1_445
Ge1 O2 1.946398 1_544
Ge1 O3 1.946398 1_555
