# generated using pymatgen
data_Ba2YMn3O7
_symmetry_space_group_name_H-M   'P 1'
_cell_length_a   5.65283589
_cell_length_b   12.51557786
_cell_length_c   5.65271721
_cell_angle_alpha   77.50615789
_cell_angle_beta   92.40067973
_cell_angle_gamma   77.50599821
_symmetry_Int_Tables_number   1
_chemical_formula_structural   Ba2YMn3O7
_chemical_formula_sum   'Ba4 Y2 Mn6 O14'
_cell_volume   379.55083382
_cell_formula_units_Z   2
loop_
 _symmetry_equiv_pos_site_id
 _symmetry_equiv_pos_as_xyz
  1  'x, y, z'
loop_
 _atom_site_type_symbol
 _atom_site_label
 _atom_site_symmetry_multiplicity
 _atom_site_fract_x
 _atom_site_fract_y
 _atom_site_fract_z
 _atom_site_occupancy
  Ba  Ba0  1  0.58976800  0.82044600  0.08978100  1
  Ba  Ba1  1  0.08977200  0.82044900  0.58976900  1
  Ba  Ba2  1  0.91117300  0.17764300  0.41118500  1
  Ba  Ba3  1  0.41118400  0.17764400  0.91118500  1
  Y  Y0  1  0.74937000  0.50124400  0.24939700  1
  Y  Y1  1  0.24939300  0.50124700  0.74937800  1
  Mn  Mn0  1  0.00060100  0.99876300  0.00061700  1
  Mn  Mn1  1  0.49970700  0.00062900  0.49971800  1
  Mn  Mn2  1  0.83052200  0.33911400  0.83039000  1
  Mn  Mn3  1  0.17229400  0.65542600  0.17228000  1
  Mn  Mn4  1  0.67339700  0.65319400  0.67342100  1
  Mn  Mn5  1  0.32399500  0.35190500  0.32398200  1
  O  O0  1  0.76189100  0.00011100  0.23800700  1
  O  O1  1  0.23800000  0.00011100  0.76189900  1
  O  O2  1  0.94035500  0.61798600  0.94036000  1
  O  O3  1  0.44165900  0.61799100  0.44166200  1
  O  O4  1  0.55178000  0.38210600  0.55179100  1
  O  O5  1  0.06607100  0.38213200  0.06607700  1
  O  O6  1  0.93860500  0.62011300  0.44128800  1
  O  O7  1  0.44128100  0.62011100  0.93861100  1
  O  O8  1  0.54842100  0.37996900  0.07162600  1
  O  O9  1  0.07162100  0.37997000  0.54842200  1
  O  O10  1  0.08262200  0.83474000  0.08262400  1
  O  O11  1  0.58492900  0.83012200  0.58493400  1
  O  O12  1  0.91786200  0.16427900  0.91786700  1
  O  O13  1  0.41372600  0.17255100  0.41373200  1
loop_
_geom_bond_atom_site_label_1
_geom_bond_atom_site_label_2
_geom_bond_distance
_geom_bond_site_symmetry_2
Ba0 O11 2.828644 1_555
Ba0 O11 2.828753 1_554
Ba0 O10 2.831520 1_555
Ba0 O10 2.831524 1_655
Ba0 O0 2.898017 1_565
Ba0 O1 2.898089 1_564
Ba0 O7 3.082023 1_554
Ba0 O6 3.082209 1_555
Ba0 O3 3.155076 1_555
Ba0 O2 3.155174 1_554
Ba1 O11 2.828715 1_555
Ba1 O11 2.828798 1_455
Ba1 O10 2.831458 1_556
Ba1 O10 2.831463 1_555
Ba1 O1 2.898005 1_565
Ba1 O0 2.898049 1_465
Ba1 O6 3.082013 1_455
Ba1 O7 3.082260 1_555
Ba1 O3 3.155119 1_555
Ba1 O2 3.155196 1_455
Ba2 O13 2.827025 1_555
Ba2 O13 2.827108 1_655
Ba2 O12 2.830817 1_554
Ba2 O12 2.830824 1_555
Ba2 O0 2.879318 1_555
Ba2 O1 2.879511 1_655
Ba2 O9 3.101837 1_655
Ba2 O8 3.101916 1_555
Ba2 O4 3.173847 1_555
Ba2 O5 3.174090 1_655
Ba3 O13 2.827001 1_555
Ba3 O13 2.827013 1_556
Ba3 O12 2.830861 1_555
Ba3 O12 2.830900 1_455
Ba3 O1 2.879359 1_555
Ba3 O0 2.879488 1_556
Ba3 O8 3.101793 1_556
Ba3 O9 3.101952 1_555
Ba3 O4 3.173809 1_555
Ba3 O5 3.174081 1_556
Mn0 O0 1.942541 1_465
Mn0 O1 1.942610 1_564
Mn0 O10 1.949990 1_555
Mn0 O12 1.967740 1_464
Mn1 O11 2.027075 1_545
Mn1 O13 2.043897 1_555
Mn1 O1 2.137458 1_555
Mn1 O0 2.137486 1_555
Mn2 O5 2.075976 1_656
Mn2 O4 2.076312 1_555
Mn2 O12 2.078529 1_555
Mn2 O9 2.188675 1_655
Mn2 O8 2.189748 1_556
Mn3 O2 2.011185 1_454
Mn3 O3 2.011267 1_555
Mn3 O7 2.093357 1_554
Mn3 O6 2.093515 1_455
Mn3 O10 2.131777 1_555
Mn4 O3 1.995525 1_555
Mn4 O2 1.995538 1_555
Mn4 O7 2.066763 1_555
Mn4 O6 2.066900 1_555
Mn4 O11 2.103411 1_555
Mn5 O5 1.933625 1_555
Mn5 O4 1.934273 1_555
Mn5 O8 1.973662 1_555
Mn5 O9 1.973793 1_555
Mn5 O13 2.132253 1_555
O2 Y1 2.467398 1_655
O2 Y0 2.467420 1_556
O3 Y1 2.467299 1_555
O3 Y0 2.467302 1_555
O4 Y1 2.484043 1_555
O4 Y0 2.484054 1_555
O5 Y0 2.484003 1_455
O5 Y1 2.484017 1_554
O6 Y0 2.413244 1_555
O6 Y1 2.413397 1_655
O7 Y1 2.413178 1_555
O7 Y0 2.413391 1_556
O8 Y0 2.431920 1_555
O8 Y1 2.432075 1_554
O9 Y1 2.431964 1_555
O9 Y0 2.432064 1_455
