# generated using pymatgen
data_HfMg14SbO16
_symmetry_space_group_name_H-M   'P 1'
_cell_length_a   8.54909114
_cell_length_b   9.66345454
_cell_length_c   4.28629122
_cell_angle_alpha   90.00000000
_cell_angle_beta   90.00000000
_cell_angle_gamma   90.00000000
_symmetry_Int_Tables_number   1
_chemical_formula_structural   HfMg14SbO16
_chemical_formula_sum   'Hf1 Mg14 Sb1 O16'
_cell_volume   354.10660666
_cell_formula_units_Z   1
loop_
 _symmetry_equiv_pos_site_id
 _symmetry_equiv_pos_as_xyz
  1  'x, y, z'
loop_
 _atom_site_type_symbol
 _atom_site_label
 _atom_site_symmetry_multiplicity
 _atom_site_fract_x
 _atom_site_fract_y
 _atom_site_fract_z
 _atom_site_occupancy
  Hf  Hf0  1  -0.00000000  0.50000000  0.00000000  1
  Mg  Mg0  1  0.50000000  -0.00000000  0.00000000  1
  Mg  Mg1  1  0.50000000  0.50000000  0.00000000  1
  Mg  Mg2  1  -0.00000000  0.23745345  0.50000000  1
  Mg  Mg3  1  -0.00000000  0.76254655  0.50000000  1
  Mg  Mg4  1  0.50000000  0.25036655  0.50000000  1
  Mg  Mg5  1  0.50000000  0.74963345  0.50000000  1
  Mg  Mg6  1  0.26288266  -0.00000000  0.50000000  1
  Mg  Mg7  1  0.26000760  0.50000000  0.50000000  1
  Mg  Mg8  1  0.73711734  -0.00000000  0.50000000  1
  Mg  Mg9  1  0.73999240  0.50000000  0.50000000  1
  Mg  Mg10  1  0.25185426  0.24183110  -0.00000000  1
  Mg  Mg11  1  0.25185426  0.75816890  -0.00000000  1
  Mg  Mg12  1  0.74814574  0.24183110  0.00000000  1
  Mg  Mg13  1  0.74814574  0.75816890  0.00000000  1
  Sb  Sb0  1  -0.00000000  -0.00000000  0.00000000  1
  O  O0  1  0.27284953  -0.00000000  -0.00000000  1
  O  O1  1  0.25395525  0.50000000  -0.00000000  1
  O  O2  1  0.72715047  -0.00000000  0.00000000  1
  O  O3  1  0.74604475  0.50000000  0.00000000  1
  O  O4  1  0.24820152  0.24327843  0.50000000  1
  O  O5  1  0.24820152  0.75672157  0.50000000  1
  O  O6  1  0.75179848  0.24327843  0.50000000  1
  O  O7  1  0.75179848  0.75672157  0.50000000  1
  O  O8  1  -0.00000000  -0.00000000  0.50000000  1
  O  O9  1  -0.00000000  0.50000000  0.50000000  1
  O  O10  1  0.50000000  -0.00000000  0.50000000  1
  O  O11  1  0.50000000  0.50000000  0.50000000  1
  O  O12  1  -0.00000000  0.29456010  0.00000000  1
  O  O13  1  -0.00000000  0.70543990  -0.00000000  1
  O  O14  1  0.50000000  0.25862374  0.00000000  1
  O  O15  1  0.50000000  0.74137626  -0.00000000  1
loop_
_geom_bond_atom_site_label_1
_geom_bond_atom_site_label_2
_geom_bond_distance
_geom_bond_site_symmetry_2
Hf0 O12 1.985259 1_555
Hf0 O13 1.985259 1_555
Hf0 O9 2.143146 1_554
Hf0 O9 2.143146 1_555
Hf0 O3 2.171087 1_455
Hf0 O1 2.171087 1_555
Mg0 O2 1.941930 1_555
Mg0 O0 1.941930 1_555
Mg0 O10 2.143146 1_555
Mg0 O10 2.143146 1_554
Mg0 O14 2.499199 1_555
Mg0 O15 2.499199 1_545
Mg1 O1 2.103459 1_555
Mg1 O3 2.103459 1_555
Mg1 O11 2.143146 1_554
Mg1 O11 2.143146 1_555
Mg1 O14 2.332529 1_555
Mg1 O15 2.332529 1_555
Mg2 O6 2.122644 1_455
Mg2 O4 2.122644 1_555
Mg2 O12 2.213054 1_556
Mg2 O12 2.213054 1_555
Mg2 O8 2.294621 1_555
Mg2 O9 2.537107 1_555
Mg3 O7 2.122644 1_455
Mg3 O5 2.122644 1_555
Mg3 O13 2.213054 1_555
Mg3 O13 2.213054 1_556
Mg3 O8 2.294621 1_565
Mg3 O9 2.537107 1_555
Mg4 O14 2.144631 1_555
Mg4 O14 2.144631 1_556
Mg4 O4 2.153738 1_555
Mg4 O6 2.153738 1_555
Mg4 O11 2.412321 1_555
Mg4 O10 2.419406 1_555
Mg5 O15 2.144631 1_556
Mg5 O15 2.144631 1_555
Mg5 O5 2.153738 1_555
Mg5 O7 2.153738 1_555
Mg5 O11 2.412321 1_555
Mg5 O10 2.419406 1_565
Mg6 O10 2.027138 1_555
Mg6 O0 2.144839 1_555
Mg6 O0 2.144839 1_556
Mg6 O8 2.247408 1_555
Mg6 O4 2.354258 1_555
Mg6 O5 2.354258 1_545
Mg7 O11 2.051717 1_555
Mg7 O1 2.143770 1_555
Mg7 O1 2.143770 1_556
Mg7 O9 2.222829 1_555
Mg7 O5 2.482870 1_555
Mg7 O4 2.482870 1_555
Mg8 O10 2.027138 1_555
Mg8 O2 2.144839 1_555
Mg8 O2 2.144839 1_556
Mg8 O8 2.247408 1_655
Mg8 O6 2.354258 1_555
Mg8 O7 2.354258 1_545
Mg9 O11 2.051717 1_555
Mg9 O3 2.143770 1_556
Mg9 O3 2.143770 1_555
Mg9 O9 2.222829 1_655
Mg9 O7 2.482870 1_555
Mg9 O6 2.482870 1_555
Mg10 O14 2.127618 1_555
Mg10 O4 2.143419 1_554
Mg10 O4 2.143419 1_555
Mg10 O12 2.212596 1_555
Mg10 O0 2.343807 1_555
Mg10 O1 2.494868 1_555
Mg11 O15 2.127618 1_555
Mg11 O5 2.143419 1_554
Mg11 O5 2.143419 1_555
Mg11 O13 2.212596 1_555
Mg11 O0 2.343807 1_565
Mg11 O1 2.494868 1_555
Mg12 O14 2.127618 1_555
Mg12 O6 2.143419 1_555
Mg12 O6 2.143419 1_554
Mg12 O12 2.212596 1_655
Mg12 O2 2.343807 1_555
Mg12 O3 2.494868 1_555
Mg13 O15 2.127618 1_555
Mg13 O7 2.143419 1_555
Mg13 O7 2.143419 1_554
Mg13 O13 2.212596 1_655
Mg13 O2 2.343807 1_565
Mg13 O3 2.494868 1_555
O0 Sb0 2.332615 1_555
O2 Sb0 2.332615 1_655
O8 Sb0 2.143146 1_555
O8 Sb0 2.143146 1_556
