# generated using pymatgen
data_SrLa2BeO5
_symmetry_space_group_name_H-M   'P 1'
_cell_length_a   6.73537500
_cell_length_b   7.40085000
_cell_length_c   9.79103900
_cell_angle_alpha   90.00000000
_cell_angle_beta   90.00000000
_cell_angle_gamma   90.00000000
_symmetry_Int_Tables_number   1
_chemical_formula_structural   SrLa2BeO5
_chemical_formula_sum   'Sr4 La8 Be4 O20'
_cell_volume   488.05881723
_cell_formula_units_Z   4
loop_
 _symmetry_equiv_pos_site_id
 _symmetry_equiv_pos_as_xyz
  1  'x, y, z'
loop_
 _atom_site_type_symbol
 _atom_site_label
 _atom_site_symmetry_multiplicity
 _atom_site_fract_x
 _atom_site_fract_y
 _atom_site_fract_z
 _atom_site_occupancy
  Sr  Sr0  1  0.58300900  0.98176600  0.67534400  1
  Sr  Sr1  1  0.41699100  0.48176600  0.32465600  1
  Sr  Sr2  1  0.08300900  0.48176600  0.82465600  1
  Sr  Sr3  1  0.91699100  0.98176600  0.17534400  1
  La  La0  1  0.09591900  0.74614100  0.52381900  1
  La  La1  1  0.40408100  0.74614100  0.02381900  1
  La  La2  1  0.90408100  0.24614100  0.47618100  1
  La  La3  1  0.59591900  0.24614100  0.97618100  1
  La  La4  1  0.92507300  0.52790400  0.17227100  1
  La  La5  1  0.07492700  0.02790400  0.82772900  1
  La  La6  1  0.42507300  0.02790400  0.32772900  1
  La  La7  1  0.57492700  0.52790400  0.67227100  1
  Be  Be0  1  0.69245900  0.74929800  0.40057000  1
  Be  Be1  1  0.80754100  0.74929800  0.90057000  1
  Be  Be2  1  0.30754100  0.24929800  0.59943000  1
  Be  Be3  1  0.19245900  0.24929800  0.09943000  1
  O  O0  1  0.01602800  0.74913800  0.99029000  1
  O  O1  1  0.48397200  0.74913800  0.49029000  1
  O  O2  1  0.98397200  0.24913800  0.00971000  1
  O  O3  1  0.51602800  0.24913800  0.50971000  1
  O  O4  1  0.31108100  0.05974800  0.06750600  1
  O  O5  1  0.19620500  0.44014600  0.56687300  1
  O  O6  1  0.68891900  0.55974800  0.93249400  1
  O  O7  1  0.80379500  0.94014600  0.43312700  1
  O  O8  1  0.69620500  0.94014600  0.93312700  1
  O  O9  1  0.81108100  0.55974800  0.43249400  1
  O  O10  1  0.30379500  0.44014600  0.06687300  1
  O  O11  1  0.18891900  0.05974800  0.56750600  1
  O  O12  1  0.16280000  0.74572300  0.27797900  1
  O  O13  1  0.33720000  0.74572300  0.77797900  1
  O  O14  1  0.83720000  0.24572300  0.72202100  1
  O  O15  1  0.66280000  0.24572300  0.22202100  1
  O  O16  1  0.63540800  0.75013700  0.23058300  1
  O  O17  1  0.86459200  0.75013700  0.73058300  1
  O  O18  1  0.36459200  0.25013700  0.76941700  1
  O  O19  1  0.13540800  0.25013700  0.26941700  1
loop_
_geom_bond_atom_site_label_1
_geom_bond_atom_site_label_2
_geom_bond_distance
_geom_bond_site_symmetry_2
La0 O5 2.400514 1_555
La0 O11 2.441756 1_565
La0 O12 2.448820 1_555
La0 O9 2.526474 1_455
La0 O17 2.554761 1_455
La0 O7 2.592552 1_455
La0 O1 2.634312 1_555
La0 O13 2.972138 1_555
La1 O10 2.400514 1_555
La1 O4 2.441756 1_565
La1 O13 2.448820 1_554
La1 O6 2.526474 1_554
La1 O16 2.554761 1_555
La1 O8 2.592552 1_554
La1 O0 2.634312 1_554
La1 O12 2.972138 1_555
La2 O7 2.400514 1_545
La2 O9 2.441756 1_555
La2 O14 2.448820 1_555
La2 O11 2.526474 1_655
La2 O19 2.554761 1_655
La2 O5 2.592552 1_655
La2 O3 2.634312 1_555
La2 O15 2.972138 1_555
La3 O8 2.400514 1_545
La3 O6 2.441756 1_555
La3 O15 2.448820 1_556
La3 O4 2.526474 1_556
La3 O18 2.554761 1_555
La3 O10 2.592552 1_556
La3 O2 2.634312 1_556
La3 O14 2.972138 1_555
La4 O0 2.496170 1_654
La4 O12 2.496733 1_655
La4 O16 2.614853 1_555
La4 O2 2.635735 1_555
La4 O9 2.671439 1_555
La4 O19 2.671639 1_655
La4 O15 2.778335 1_555
La4 O10 2.827281 1_655
La4 O6 2.845530 1_554
La5 O2 2.496170 1_456
La5 O14 2.496733 1_455
La5 O18 2.614853 1_555
La5 O0 2.635735 1_545
La5 O11 2.671439 1_555
La5 O17 2.671639 1_445
La5 O13 2.778335 1_545
La5 O8 2.827281 1_445
La5 O4 2.845530 1_556
La6 O3 2.496170 1_555
La6 O15 2.496733 1_555
La6 O19 2.614853 1_555
La6 O1 2.635735 1_545
La6 O4 2.671439 1_555
La6 O16 2.671639 1_545
La6 O12 2.778335 1_545
La6 O7 2.827281 1_545
La6 O11 2.845530 1_555
La7 O1 2.496170 1_555
La7 O13 2.496733 1_555
La7 O17 2.614853 1_555
La7 O3 2.635735 1_555
La7 O6 2.671439 1_555
La7 O18 2.671639 1_555
La7 O14 2.778335 1_555
La7 O5 2.827281 1_555
La7 O9 2.845530 1_555
Be0 O7 1.630621 1_555
Be0 O9 1.644378 1_555
Be0 O1 1.656371 1_555
Be0 O16 1.708143 1_555
Be1 O8 1.630621 1_555
Be1 O6 1.644378 1_555
Be1 O0 1.656371 1_655
Be1 O17 1.708143 1_555
Be2 O5 1.630621 1_555
Be2 O11 1.644378 1_555
Be2 O3 1.656371 1_555
Be2 O18 1.708143 1_555
Be3 O10 1.630621 1_555
Be3 O4 1.644378 1_555
Be3 O2 1.656371 1_455
Be3 O19 1.708143 1_555
O0 Sr3 2.586870 1_456
O0 Sr2 2.597904 1_555
O1 Sr0 2.586870 1_555
O1 Sr1 2.597904 1_555
O2 Sr2 2.586870 1_654
O2 Sr3 2.597904 1_545
O3 Sr1 2.586870 1_555
O3 Sr0 2.597904 1_545
O4 Sr3 2.914350 1_445
O5 Sr2 2.654534 1_555
O5 Sr1 2.816124 1_555
O6 Sr2 2.914350 1_655
O7 Sr3 2.654534 1_555
O7 Sr0 2.816124 1_555
O8 Sr0 2.654534 1_555
O8 Sr3 2.816124 1_556
O9 Sr1 2.914350 1_555
O10 Sr1 2.654534 1_555
O10 Sr2 2.816124 1_554
O11 Sr0 2.914350 1_545
O12 Sr3 2.608183 1_455
O12 Sr1 2.637468 1_555
O13 Sr0 2.608183 1_555
O13 Sr2 2.637468 1_555
O14 Sr2 2.608183 1_655
O14 Sr0 2.637468 1_545
O15 Sr1 2.608183 1_555
O15 Sr3 2.637468 1_545
O16 Sr3 2.613071 1_555
O16 Sr1 2.637699 1_555
O17 Sr0 2.613071 1_555
O17 Sr2 2.637699 1_655
O18 Sr2 2.613071 1_555
O18 Sr0 2.637699 1_545
O19 Sr1 2.613071 1_555
O19 Sr3 2.637699 1_445
