# generated using pymatgen
data_Mn3Cr3B8
_symmetry_space_group_name_H-M   'P 1'
_cell_length_a   2.95455700
_cell_length_b   2.94757000
_cell_length_c   12.93342600
_cell_angle_alpha   90.00000000
_cell_angle_beta   90.00000000
_cell_angle_gamma   90.00000000
_symmetry_Int_Tables_number   1
_chemical_formula_structural   Mn3Cr3B8
_chemical_formula_sum   'Mn3 Cr3 B8'
_cell_volume   112.63414927
_cell_formula_units_Z   1
loop_
 _symmetry_equiv_pos_site_id
 _symmetry_equiv_pos_as_xyz
  1  'x, y, z'
loop_
 _atom_site_type_symbol
 _atom_site_label
 _atom_site_symmetry_multiplicity
 _atom_site_fract_x
 _atom_site_fract_y
 _atom_site_fract_z
 _atom_site_occupancy
  Mn  Mn0  1  0.00000000  0.00000000  0.81397700  1
  Mn  Mn1  1  0.50000000  0.00000000  0.00101700  1
  Mn  Mn2  1  0.00000000  0.50000000  0.50052100  1
  Cr  Cr0  1  0.00000000  0.00000000  0.18582100  1
  Cr  Cr1  1  0.50000000  0.50000000  0.68593200  1
  Cr  Cr2  1  0.50000000  0.50000000  0.31385000  1
  B  B0  1  0.50000000  0.00000000  0.43414900  1
  B  B1  1  0.00000000  0.50000000  0.93274300  1
  B  B2  1  0.00000000  0.50000000  0.06555800  1
  B  B3  1  0.50000000  0.00000000  0.56682200  1
  B  B4  1  0.00000000  0.00000000  0.35999000  1
  B  B5  1  0.50000000  0.50000000  0.85816100  1
  B  B6  1  0.50000000  0.50000000  0.13984500  1
  B  B7  1  0.00000000  0.00000000  0.64161400  1
loop_
_geom_bond_atom_site_label_1
_geom_bond_atom_site_label_2
_geom_bond_distance
_geom_bond_site_symmetry_2
B0 B3 1.715916 1_555
B0 B4 1.761330 1_655
B0 B4 1.761330 1_555
B0 Cr2 2.143082 1_555
B0 Cr2 2.143082 1_545
B0 Mn2 2.256385 1_645
B0 Mn2 2.256385 1_555
B0 Mn2 2.256385 1_545
B0 Mn2 2.256385 1_655
B1 B2 1.717753 1_556
B1 B5 1.764315 1_555
B1 B5 1.764315 1_455
B1 Mn0 2.128731 1_555
B1 Mn0 2.128731 1_565
B1 Mn1 2.265858 1_566
B1 Mn1 2.265858 1_556
B1 Mn1 2.265858 1_466
B1 Mn1 2.265858 1_456
B2 B6 1.762232 1_555
B2 B6 1.762232 1_455
B2 Cr0 2.142744 1_565
B2 Cr0 2.142744 1_555
B2 Mn1 2.247483 1_555
B2 Mn1 2.247483 1_565
B2 Mn1 2.247483 1_465
B2 Mn1 2.247483 1_455
B3 B7 1.765801 1_655
B3 B7 1.765801 1_555
B3 Cr1 2.131944 1_545
B3 Cr1 2.131944 1_555
B3 Mn2 2.256036 1_655
B3 Mn2 2.256036 1_645
B3 Mn2 2.256036 1_555
B3 Mn2 2.256036 1_545
B4 Cr2 2.170369 1_455
B4 Cr2 2.170369 1_445
B4 Cr2 2.170369 1_555
B4 Cr2 2.170369 1_545
B4 Cr0 2.252602 1_555
B4 Mn2 2.339983 1_555
B4 Mn2 2.339983 1_545
B5 Mn0 2.163550 1_565
B5 Mn0 2.163550 1_655
B5 Mn0 2.163550 1_665
B5 Mn0 2.163550 1_555
B5 Cr1 2.227511 1_555
B5 Mn1 2.363415 1_556
B5 Mn1 2.363415 1_566
B6 Cr0 2.169787 1_565
B6 Cr0 2.169787 1_655
B6 Cr0 2.169787 1_555
B6 Cr0 2.169787 1_665
B6 Cr2 2.250481 1_555
B6 Mn1 2.322916 1_555
B6 Mn1 2.322916 1_565
B7 Cr1 2.164009 1_445
B7 Cr1 2.164009 1_545
B7 Cr1 2.164009 1_455
B7 Cr1 2.164009 1_555
B7 Mn0 2.229244 1_555
B7 Mn2 2.345633 1_545
B7 Mn2 2.345633 1_555
