# generated using pymatgen
data_Sr3NbCoO7
_symmetry_space_group_name_H-M   'P 1'
_cell_length_a   5.61875463
_cell_length_b   11.08236283
_cell_length_c   5.61779014
_cell_angle_alpha   75.31229590
_cell_angle_beta   89.99828380
_cell_angle_gamma   90.00249321
_symmetry_Int_Tables_number   1
_chemical_formula_structural   Sr3NbCoO7
_chemical_formula_sum   'Sr6 Nb2 Co2 O14'
_cell_volume   338.38343315
_cell_formula_units_Z   2
loop_
 _symmetry_equiv_pos_site_id
 _symmetry_equiv_pos_as_xyz
  1  'x, y, z'
loop_
 _atom_site_type_symbol
 _atom_site_label
 _atom_site_symmetry_multiplicity
 _atom_site_fract_x
 _atom_site_fract_y
 _atom_site_fract_z
 _atom_site_occupancy
  Sr  Sr0  1  0.99999200  0.38351900  0.30829900  1
  Sr  Sr1  1  0.49998000  0.38354600  0.80831800  1
  Sr  Sr2  1  0.50000100  0.63451800  0.18267700  1
  Sr  Sr3  1  0.99996600  0.63448400  0.68266600  1
  Sr  Sr4  1  0.49999600  0.96189800  0.01907100  1
  Sr  Sr5  1  0.99999800  0.96216300  0.51890600  1
  Nb  Nb0  1  0.49996800  0.19501700  0.40250700  1
  Nb  Nb1  1  0.99998500  0.19501200  0.90251900  1
  Co  Co0  1  0.00000400  0.78855100  0.10569200  1
  Co  Co1  1  0.49997900  0.78859200  0.60570300  1
  O  O0  1  0.50002300  0.01594600  0.49189700  1
  O  O1  1  0.99998500  0.01592700  0.99194400  1
  O  O2  1  0.00003400  0.60302300  0.19863100  1
  O  O3  1  0.50002500  0.60306400  0.69862900  1
  O  O4  1  0.50002200  0.39113100  0.30422500  1
  O  O5  1  0.00001400  0.39111200  0.80423700  1
  O  O6  1  0.76328100  0.80787000  0.85969900  1
  O  O7  1  0.23672600  0.80787200  0.33248600  1
  O  O8  1  0.73650100  0.80777900  0.35952700  1
  O  O9  1  0.26352400  0.80779900  0.83269600  1
  O  O10  1  0.74978400  0.20530400  0.64745800  1
  O  O11  1  0.25010900  0.20530400  0.14736100  1
  O  O12  1  0.75027100  0.20529800  0.14751500  1
  O  O13  1  0.24983100  0.20526800  0.64733600  1
loop_
_geom_bond_atom_site_label_1
_geom_bond_atom_site_label_2
_geom_bond_distance
_geom_bond_site_symmetry_2
Nb0 O0 1.919680 1_555
Nb0 O11 1.988895 1_555
Nb0 O10 1.989096 1_555
Nb0 O13 1.989742 1_555
Nb0 O12 1.989987 1_555
Nb0 O4 2.102385 1_555
Nb1 O1 1.919830 1_555
Nb1 O12 1.988817 1_556
Nb1 O13 1.988966 1_655
Nb1 O11 1.989899 1_656
Nb1 O10 1.989908 1_555
Nb1 O5 2.102235 1_655
Co0 O6 1.890720 1_454
Co0 O7 1.891209 1_555
Co0 O2 1.988900 1_555
Co0 O9 2.103287 1_554
Co0 O8 2.103546 1_455
Co0 O1 2.437520 1_464
Co1 O9 1.890540 1_555
Co1 O8 1.890683 1_555
Co1 O3 1.988900 1_555
Co1 O7 2.103153 1_555
Co1 O6 2.103587 1_555
Co1 O0 2.437284 1_565
O0 Sr4 2.867261 1_545
O0 Sr5 2.867823 1_545
O0 Sr5 2.868039 1_445
O0 Sr4 2.868801 1_546
O1 Sr5 2.867032 1_545
O1 Sr5 2.867803 1_546
O1 Sr4 2.868372 1_546
O1 Sr4 2.868553 1_646
O2 Sr0 2.353130 1_455
O2 Sr3 2.827795 1_455
O2 Sr2 2.829391 1_555
O2 Sr2 2.829795 1_455
O2 Sr3 2.830346 1_454
O3 Sr1 2.353280 1_555
O3 Sr2 2.827839 1_556
O3 Sr3 2.829151 1_555
O3 Sr3 2.829844 1_455
O3 Sr2 2.830284 1_555
O4 Sr2 2.609161 1_555
O4 Sr1 2.808392 1_554
O4 Sr0 2.810398 1_555
O4 Sr0 2.810727 1_455
O4 Sr1 2.811751 1_555
O5 Sr3 2.609000 1_455
O5 Sr0 2.808591 1_455
O5 Sr1 2.810362 1_555
O5 Sr1 2.810735 1_455
O5 Sr0 2.811557 1_456
O6 Sr4 2.584376 1_556
O6 Sr5 2.588011 1_555
O6 Sr2 2.720890 1_556
O6 Sr3 2.723813 1_555
O7 Sr4 2.584095 1_555
O7 Sr5 2.588043 1_455
O7 Sr2 2.721677 1_555
O7 Sr3 2.723007 1_455
O8 Sr4 2.585539 1_555
O8 Sr5 2.587976 1_555
O8 Sr2 2.721588 1_555
O8 Sr3 2.721708 1_555
O9 Sr4 2.585491 1_556
O9 Sr5 2.587974 1_455
O9 Sr2 2.721143 1_556
O9 Sr3 2.722745 1_455
O10 Sr1 2.755730 1_555
O10 Sr0 2.756596 1_555
O11 Sr1 2.755460 1_554
O11 Sr0 2.756610 1_455
O12 Sr0 2.755028 1_555
O12 Sr1 2.757286 1_554
O13 Sr0 2.755551 1_455
O13 Sr1 2.757326 1_555
