# generated using pymatgen
data_BaCaEuNbO6
_symmetry_space_group_name_H-M   'P 1'
_cell_length_a   8.51315023
_cell_length_b   8.47068210
_cell_length_c   8.48319306
_cell_angle_alpha   90.00000000
_cell_angle_beta   90.00000000
_cell_angle_gamma   90.00000000
_symmetry_Int_Tables_number   1
_chemical_formula_structural   BaCaEuNbO6
_chemical_formula_sum   'Ba4 Ca4 Eu4 Nb4 O24'
_cell_volume   611.74162354
_cell_formula_units_Z   4
loop_
 _symmetry_equiv_pos_site_id
 _symmetry_equiv_pos_as_xyz
  1  'x, y, z'
loop_
 _atom_site_type_symbol
 _atom_site_label
 _atom_site_symmetry_multiplicity
 _atom_site_fract_x
 _atom_site_fract_y
 _atom_site_fract_z
 _atom_site_occupancy
  Ba  Ba0  1  -0.00000000  0.00000000  0.00000000  1
  Ba  Ba1  1  0.50000000  0.50000000  0.50000000  1
  Ba  Ba2  1  0.50000000  0.00000000  0.50000000  1
  Ba  Ba3  1  -0.00000000  0.50000000  0.00000000  1
  Ca  Ca0  1  0.75000000  0.75000000  0.75000000  1
  Ca  Ca1  1  0.25000000  0.25000000  0.75000000  1
  Ca  Ca2  1  0.25000000  0.75000000  0.25000000  1
  Ca  Ca3  1  0.75000000  0.25000000  0.25000000  1
  Eu  Eu0  1  -0.00000000  0.50000000  0.50000000  1
  Eu  Eu1  1  0.50000000  0.50000000  0.00000000  1
  Eu  Eu2  1  0.50000000  0.00000000  0.00000000  1
  Eu  Eu3  1  -0.00000000  0.00000000  0.50000000  1
  Nb  Nb0  1  0.25000000  0.25000000  0.25000000  1
  Nb  Nb1  1  0.75000000  0.75000000  0.25000000  1
  Nb  Nb2  1  0.75000000  0.25000000  0.75000000  1
  Nb  Nb3  1  0.25000000  0.75000000  0.75000000  1
  O  O0  1  0.01733603  0.18899717  0.28695634  1
  O  O1  1  0.98266397  0.81100283  0.28695634  1
  O  O2  1  0.98266397  0.18899717  0.71304366  1
  O  O3  1  0.01733603  0.81100283  0.71304366  1
  O  O4  1  0.30633452  0.01771700  0.20259880  1
  O  O5  1  0.30633452  0.98228300  0.79740120  1
  O  O6  1  0.69366548  0.98228300  0.20259880  1
  O  O7  1  0.69366548  0.01771700  0.79740120  1
  O  O8  1  0.21959184  0.28318449  0.01597175  1
  O  O9  1  0.78040816  0.28318449  0.98402825  1
  O  O10  1  0.21959184  0.71681551  0.98402825  1
  O  O11  1  0.78040816  0.71681551  0.01597175  1
  O  O12  1  0.48266397  0.31100283  0.21304366  1
  O  O13  1  0.51733603  0.68899717  0.21304366  1
  O  O14  1  0.51733603  0.31100283  0.78695634  1
  O  O15  1  0.48266397  0.68899717  0.78695634  1
  O  O16  1  0.19366548  0.48228300  0.29740120  1
  O  O17  1  0.19366548  0.51771700  0.70259880  1
  O  O18  1  0.80633452  0.51771700  0.29740120  1
  O  O19  1  0.80633452  0.48228300  0.70259880  1
  O  O20  1  0.28040816  0.21681551  0.48402825  1
  O  O21  1  0.71959184  0.21681551  0.51597175  1
  O  O22  1  0.28040816  0.78318449  0.51597175  1
  O  O23  1  0.71959184  0.78318449  0.48402825  1
loop_
_geom_bond_atom_site_label_1
_geom_bond_atom_site_label_2
_geom_bond_distance
_geom_bond_site_symmetry_2
Ba0 O0 2.917297 1_555
Ba0 O2 2.917297 1_454
Ba0 O3 2.917297 1_544
Ba0 O1 2.917297 1_445
Ba0 O9 3.044201 1_454
Ba0 O10 3.044201 1_544
Ba0 O8 3.044201 1_555
Ba0 O11 3.044201 1_445
Ba0 O4 3.126883 1_555
Ba0 O5 3.126883 1_544
Ba0 O7 3.126883 1_454
Ba0 O6 3.126883 1_445
Ba1 O13 2.917297 1_555
Ba1 O14 2.917297 1_555
Ba1 O15 2.917297 1_555
Ba1 O12 2.917297 1_555
Ba1 O21 3.044201 1_555
Ba1 O22 3.044201 1_555
Ba1 O23 3.044201 1_555
Ba1 O20 3.044201 1_555
Ba1 O17 3.126883 1_555
Ba1 O19 3.126883 1_555
Ba1 O16 3.126883 1_555
Ba1 O18 3.126883 1_555
Ba2 O20 2.624136 1_555
Ba2 O22 2.624136 1_545
Ba2 O21 2.624136 1_555
Ba2 O23 2.624136 1_545
Ba2 O7 3.017587 1_555
Ba2 O6 3.017587 1_545
Ba2 O5 3.017587 1_545
Ba2 O4 3.017587 1_555
Ba3 O11 2.624136 1_455
Ba3 O9 2.624136 1_454
Ba3 O8 2.624136 1_555
Ba3 O10 2.624136 1_554
Ba3 O16 3.017587 1_555
Ba3 O18 3.017587 1_455
Ba3 O19 3.017587 1_454
Ba3 O17 3.017587 1_554
Ca0 O23 2.288421 1_555
Ca0 O11 2.288421 1_556
Ca0 O19 2.352523 1_555
Ca0 O7 2.352523 1_565
Ca0 O15 2.354760 1_555
Ca0 O3 2.354760 1_655
Ca1 O20 2.288421 1_555
Ca1 O8 2.288421 1_556
Ca1 O17 2.352523 1_555
Ca1 O5 2.352523 1_545
Ca1 O2 2.354760 1_455
Ca1 O14 2.354760 1_555
Ca2 O22 2.288421 1_555
Ca2 O10 2.288421 1_554
Ca2 O16 2.352523 1_555
Ca2 O4 2.352523 1_565
Ca2 O1 2.354760 1_455
Ca2 O13 2.354760 1_555
Ca3 O21 2.288421 1_555
Ca3 O9 2.288421 1_554
Ca3 O18 2.352523 1_555
Ca3 O6 2.352523 1_545
Ca3 O12 2.354760 1_555
Ca3 O0 2.354760 1_655
Eu0 O19 2.386341 1_455
Eu0 O18 2.386341 1_455
Eu0 O17 2.386341 1_555
Eu0 O16 2.386341 1_555
Eu1 O14 2.418899 1_554
Eu1 O12 2.418899 1_555
Eu1 O13 2.418899 1_555
Eu1 O15 2.418899 1_554
Eu1 O11 3.014943 1_555
Eu1 O8 3.014943 1_555
Eu1 O9 3.014943 1_554
Eu1 O10 3.014943 1_554
Eu2 O7 2.386341 1_554
Eu2 O5 2.386341 1_544
Eu2 O4 2.386341 1_555
Eu2 O6 2.386341 1_545
Eu3 O2 2.418899 1_455
Eu3 O0 2.418899 1_555
Eu3 O3 2.418899 1_545
Eu3 O1 2.418899 1_445
Eu3 O22 3.014943 1_545
Eu3 O21 3.014943 1_455
Eu3 O23 3.014943 1_445
Eu3 O20 3.014943 1_555
Nb0 O20 2.021749 1_555
Nb0 O8 2.021749 1_555
Nb0 O4 2.064734 1_555
Nb0 O16 2.064734 1_555
Nb0 O0 2.070867 1_555
Nb0 O12 2.070867 1_555
Nb1 O23 2.021749 1_555
Nb1 O11 2.021749 1_555
Nb1 O18 2.064734 1_555
Nb1 O6 2.064734 1_555
Nb1 O13 2.070867 1_555
Nb1 O1 2.070867 1_555
Nb2 O21 2.021749 1_555
Nb2 O9 2.021749 1_555
Nb2 O7 2.064734 1_555
Nb2 O19 2.064734 1_555
Nb2 O14 2.070867 1_555
Nb2 O2 2.070867 1_555
Nb3 O22 2.021749 1_555
Nb3 O10 2.021749 1_555
Nb3 O5 2.064734 1_555
Nb3 O17 2.064734 1_555
Nb3 O3 2.070867 1_555
Nb3 O15 2.070867 1_555
