# generated using pymatgen
data_Ba3TaN3
_symmetry_space_group_name_H-M   'P 1'
_cell_length_a   8.36657800
_cell_length_b   8.36668839
_cell_length_c   5.85945800
_cell_angle_alpha   90.00000000
_cell_angle_beta   90.00000000
_cell_angle_gamma   119.99876308
_symmetry_Int_Tables_number   1
_chemical_formula_structural   Ba3TaN3
_chemical_formula_sum   'Ba6 Ta2 N6'
_cell_volume   355.21798697
_cell_formula_units_Z   2
loop_
 _symmetry_equiv_pos_site_id
 _symmetry_equiv_pos_as_xyz
  1  'x, y, z'
loop_
 _atom_site_type_symbol
 _atom_site_label
 _atom_site_symmetry_multiplicity
 _atom_site_fract_x
 _atom_site_fract_y
 _atom_site_fract_z
 _atom_site_occupancy
  Ba  Ba0  1  0.88832100  0.63830700  0.25000000  1
  Ba  Ba1  1  0.74998600  0.11167800  0.25000000  1
  Ba  Ba2  1  0.36169000  0.25001300  0.25000000  1
  Ba  Ba3  1  0.11167900  0.36169300  0.75000000  1
  Ba  Ba4  1  0.25001400  0.88832200  0.75000000  1
  Ba  Ba5  1  0.63831000  0.74998700  0.75000000  1
  Ta  Ta0  1  0.66666600  0.33335100  0.75000000  1
  Ta  Ta1  1  0.33333400  0.66664900  0.25000000  1
  N  N0  1  0.86042000  0.59220100  0.75000000  1
  N  N1  1  0.73178500  0.13956800  0.75000000  1
  N  N2  1  0.40779000  0.26821300  0.75000000  1
  N  N3  1  0.13958000  0.40779900  0.25000000  1
  N  N4  1  0.26821500  0.86043200  0.25000000  1
  N  N5  1  0.59221000  0.73178700  0.25000000  1
loop_
_geom_bond_atom_site_label_1
_geom_bond_atom_site_label_2
_geom_bond_distance
_geom_bond_site_symmetry_2
Ba0 N4 2.765763 1_655
Ba0 N5 2.947367 1_555
Ba0 N0 2.948994 1_554
Ba0 N0 2.948994 1_555
Ba1 N5 2.765759 1_545
Ba1 N3 2.947474 1_655
Ba1 N1 2.948980 1_555
Ba1 N1 2.948980 1_554
Ba2 N3 2.765720 1_555
Ba2 N4 2.947361 1_545
Ba2 N2 2.948989 1_554
Ba2 N2 2.948989 1_555
Ba3 N1 2.765763 1_455
Ba3 N2 2.947367 1_555
Ba3 N3 2.948994 1_555
Ba3 N3 2.948994 1_556
Ba4 N2 2.765759 1_565
Ba4 N0 2.947474 1_455
Ba4 N4 2.948980 1_555
Ba4 N4 2.948980 1_556
Ba5 N0 2.765720 1_555
Ba5 N1 2.947361 1_565
Ba5 N5 2.948989 1_555
Ba5 N5 2.948989 1_556
N0 Ta0 1.951291 1_555
N1 Ta0 1.951619 1_555
N2 Ta0 1.951361 1_555
N3 Ta1 1.951291 1_555
N4 Ta1 1.951619 1_555
N5 Ta1 1.951361 1_555
