# generated using pymatgen
data_Yb2PbSe4
_symmetry_space_group_name_H-M   'P 1'
_cell_length_a   4.35946800
_cell_length_b   12.29130700
_cell_length_c   15.65177200
_cell_angle_alpha   90.00000000
_cell_angle_beta   90.00000000
_cell_angle_gamma   90.00000000
_symmetry_Int_Tables_number   1
_chemical_formula_structural   Yb2PbSe4
_chemical_formula_sum   'Yb8 Pb4 Se16'
_cell_volume   838.67765694
_cell_formula_units_Z   4
loop_
 _symmetry_equiv_pos_site_id
 _symmetry_equiv_pos_as_xyz
  1  'x, y, z'
loop_
 _atom_site_type_symbol
 _atom_site_label
 _atom_site_symmetry_multiplicity
 _atom_site_fract_x
 _atom_site_fract_y
 _atom_site_fract_z
 _atom_site_occupancy
  Yb  Yb0  1  0.75000000  0.00842800  0.13021600  1
  Yb  Yb1  1  0.75000000  0.50842800  0.36978400  1
  Yb  Yb2  1  0.25000000  0.99157200  0.86978400  1
  Yb  Yb3  1  0.25000000  0.49157200  0.63021600  1
  Yb  Yb4  1  0.75000000  0.14087300  0.59182200  1
  Yb  Yb5  1  0.75000000  0.64087300  0.90817800  1
  Yb  Yb6  1  0.25000000  0.85912700  0.40817800  1
  Yb  Yb7  1  0.25000000  0.35912700  0.09182200  1
  Pb  Pb0  1  0.75000000  0.68540100  0.18930500  1
  Pb  Pb1  1  0.75000000  0.18540100  0.31069500  1
  Pb  Pb2  1  0.25000000  0.31459900  0.81069500  1
  Pb  Pb3  1  0.25000000  0.81459900  0.68930500  1
  Se  Se0  1  0.75000000  0.34235300  0.67575500  1
  Se  Se1  1  0.75000000  0.84235300  0.82424500  1
  Se  Se2  1  0.25000000  0.65764700  0.32424500  1
  Se  Se3  1  0.25000000  0.15764700  0.17575500  1
  Se  Se4  1  0.75000000  0.31249200  0.95905900  1
  Se  Se5  1  0.75000000  0.81249200  0.54094100  1
  Se  Se6  1  0.25000000  0.68750800  0.04094100  1
  Se  Se7  1  0.25000000  0.18750800  0.45905900  1
  Se  Se8  1  0.75000000  0.45628600  0.18261700  1
  Se  Se9  1  0.75000000  0.95628600  0.31738300  1
  Se  Se10  1  0.25000000  0.54371400  0.81738300  1
  Se  Se11  1  0.25000000  0.04371400  0.68261700  1
  Se  Se12  1  0.75000000  0.11619400  0.95480700  1
  Se  Se13  1  0.75000000  0.61619400  0.54519300  1
  Se  Se14  1  0.25000000  0.88380600  0.04519300  1
  Se  Se15  1  0.25000000  0.38380600  0.45480700  1
loop_
_geom_bond_atom_site_label_1
_geom_bond_atom_site_label_2
_geom_bond_distance
_geom_bond_site_symmetry_2
Pb0 Se8 2.818068 1_555
Pb0 Se2 3.054238 1_555
Pb0 Se2 3.054238 1_655
Pb0 Se6 3.185017 1_555
Pb0 Se6 3.185017 1_655
Pb1 Se9 2.818068 1_545
Pb1 Se3 3.054238 1_655
Pb1 Se3 3.054238 1_555
Pb1 Se7 3.185017 1_555
Pb1 Se7 3.185017 1_655
Pb2 Se10 2.818068 1_555
Pb2 Se0 3.054238 1_455
Pb2 Se0 3.054238 1_555
Pb2 Se4 3.185017 1_555
Pb2 Se4 3.185017 1_455
Pb3 Se11 2.818068 1_565
Pb3 Se1 3.054238 1_555
Pb3 Se1 3.054238 1_455
Pb3 Se5 3.185017 1_555
Pb3 Se5 3.185017 1_455
Se0 Yb4 2.803324 1_555
Se0 Yb3 2.936526 1_555
Se0 Yb3 2.936526 1_655
Se1 Yb5 2.803324 1_555
Se1 Yb2 2.936526 1_555
Se1 Yb2 2.936526 1_655
Se2 Yb6 2.803324 1_555
Se2 Yb1 2.936526 1_455
Se2 Yb1 2.936526 1_555
Se3 Yb7 2.803324 1_555
Se3 Yb0 2.936526 1_455
Se3 Yb0 2.936526 1_555
Se4 Yb7 3.065581 1_656
Se4 Yb7 3.065581 1_556
Se5 Yb6 3.065581 1_655
Se5 Yb6 3.065581 1_555
Se6 Yb5 3.065581 1_554
Se6 Yb5 3.065581 1_454
Se7 Yb4 3.065581 1_455
Se7 Yb4 3.065581 1_555
Se8 Yb7 2.863025 1_555
Se8 Yb7 2.863025 1_655
Se8 Yb1 2.998781 1_555
Se9 Yb6 2.863025 1_655
Se9 Yb6 2.863025 1_555
Se9 Yb0 2.998781 1_565
Se10 Yb5 2.863025 1_555
Se10 Yb5 2.863025 1_455
Se10 Yb3 2.998781 1_555
Se11 Yb4 2.863025 1_555
Se11 Yb4 2.863025 1_455
Se11 Yb2 2.998781 1_545
Se12 Se4 2.413677 1_555
Se12 Yb2 2.977998 1_645
Se12 Yb2 2.977998 1_545
Se12 Yb0 3.048292 1_556
Se13 Se5 2.413677 1_555
Se13 Yb3 2.977998 1_555
Se13 Yb3 2.977998 1_655
Se13 Yb1 3.048292 1_555
Se14 Se6 2.413677 1_555
Se14 Yb0 2.977998 1_565
Se14 Yb0 2.977998 1_465
Se14 Yb2 3.048292 1_554
Se15 Se7 2.413677 1_555
Se15 Yb1 2.977998 1_455
Se15 Yb1 2.977998 1_555
Se15 Yb3 3.048292 1_555
