# generated using pymatgen
data_AlIn(CuSe2)2
_symmetry_space_group_name_H-M   'P 1'
_cell_length_a   7.02125949
_cell_length_b   7.02125949
_cell_length_c   7.02125949
_cell_angle_alpha   131.55472631
_cell_angle_beta   131.55472631
_cell_angle_gamma   70.93320399
_symmetry_Int_Tables_number   1
_chemical_formula_structural   AlIn(CuSe2)2
_chemical_formula_sum   'Al1 In1 Cu2 Se4'
_cell_volume   189.81886994
_cell_formula_units_Z   1
loop_
 _symmetry_equiv_pos_site_id
 _symmetry_equiv_pos_as_xyz
  1  'x, y, z'
loop_
 _atom_site_type_symbol
 _atom_site_label
 _atom_site_symmetry_multiplicity
 _atom_site_fract_x
 _atom_site_fract_y
 _atom_site_fract_z
 _atom_site_occupancy
  Al  Al0  1  0.75000000  0.25000000  0.50000000  1
  In  In0  1  0.50000000  0.50000000  0.00000000  1
  Cu  Cu0  1  0.25000000  0.75000000  0.50000000  1
  Cu  Cu1  1  0.00000000  0.00000000  0.00000000  1
  Se  Se0  1  0.10123200  0.10456700  0.46999600  1
  Se  Se1  1  0.63457100  0.63123600  0.53000400  1
  Se  Se2  1  0.36876400  0.89876800  0.00333500  1
  Se  Se3  1  0.89543300  0.36542900  0.99666500  1
loop_
_geom_bond_atom_site_label_1
_geom_bond_atom_site_label_2
_geom_bond_distance
_geom_bond_site_symmetry_2
Al0 Se3 2.434603 1_555
Al0 Se0 2.434603 1_655
Al0 Se1 2.434603 1_555
Al0 Se2 2.434603 1_545
In0 Se3 2.635313 1_554
In0 Se1 2.635313 1_555
In0 Se2 2.635313 1_555
In0 Se0 2.635313 1_554
Cu0 Se1 2.457233 1_555
Cu0 Se2 2.457233 1_556
Cu0 Se3 2.457233 1_454
Cu0 Se0 2.457233 1_565
Cu1 Se0 2.439042 1_555
Cu1 Se2 2.439042 1_545
Cu1 Se1 2.439042 1_444
Cu1 Se3 2.439042 1_454
