# generated using pymatgen
data_Li9Mn2Co5O16
_symmetry_space_group_name_H-M   'P 1'
_cell_length_a   5.81636900
_cell_length_b   6.56590098
_cell_length_c   7.75538603
_cell_angle_alpha   89.15484273
_cell_angle_beta   100.17752240
_cell_angle_gamma   102.99756988
_symmetry_Int_Tables_number   1
_chemical_formula_structural   Li9Mn2Co5O16
_chemical_formula_sum   'Li9 Mn2 Co5 O16'
_cell_volume   283.95036417
_cell_formula_units_Z   1
loop_
 _symmetry_equiv_pos_site_id
 _symmetry_equiv_pos_as_xyz
  1  'x, y, z'
loop_
 _atom_site_type_symbol
 _atom_site_label
 _atom_site_symmetry_multiplicity
 _atom_site_fract_x
 _atom_site_fract_y
 _atom_site_fract_z
 _atom_site_occupancy
  Li  Li0  1  0.13015300  0.13406100  0.38202600  1
  Li  Li1  1  0.62109100  0.61939700  0.87330300  1
  Li  Li2  1  0.36719800  0.86210500  0.61337200  1
  Li  Li3  1  0.87494400  0.37935000  0.12933200  1
  Li  Li4  1  0.63280200  0.13789500  0.38662800  1
  Li  Li5  1  0.12505600  0.62065000  0.87066800  1
  Li  Li6  1  0.86984700  0.86593900  0.61797400  1
  Li  Li7  1  0.37890900  0.38060300  0.12669700  1
  Li  Li8  1  0.50000000  0.50000000  0.50000000  1
  Mn  Mn0  1  0.00000000  0.00000000  0.00000000  1
  Mn  Mn1  1  0.50000000  0.00000000  0.00000000  1
  Co  Co0  1  0.24995400  0.73143100  0.26096200  1
  Co  Co1  1  0.75004600  0.26856900  0.73903800  1
  Co  Co2  1  0.00000000  0.50000000  0.50000000  1
  Co  Co3  1  0.74435100  0.74049800  0.26357400  1
  Co  Co4  1  0.25564900  0.25950200  0.73642600  1
  O  O0  1  0.80565200  0.05727900  0.16317800  1
  O  O1  1  0.29086600  0.55141900  0.67858800  1
  O  O2  1  0.05488500  0.79470700  0.43819200  1
  O  O3  1  0.55338500  0.29066900  0.93540000  1
  O  O4  1  0.30323500  0.04699200  0.16799200  1
  O  O5  1  0.81772700  0.54577200  0.68325900  1
  O  O6  1  0.56613200  0.81976100  0.42116900  1
  O  O7  1  0.06042200  0.28768000  0.92923000  1
  O  O8  1  0.43386800  0.18023900  0.57883100  1
  O  O9  1  0.93957800  0.71232000  0.07077000  1
  O  O10  1  0.69676500  0.95300800  0.83200800  1
  O  O11  1  0.18227300  0.45422800  0.31674100  1
  O  O12  1  0.94511500  0.20529300  0.56180800  1
  O  O13  1  0.44661500  0.70933100  0.06460000  1
  O  O14  1  0.19434800  0.94272100  0.83682200  1
  O  O15  1  0.70913400  0.44858100  0.32141200  1
loop_
_geom_bond_atom_site_label_1
_geom_bond_atom_site_label_2
_geom_bond_distance
_geom_bond_site_symmetry_2
Li0 O12 2.024114 1_455
Li0 O8 2.088537 1_555
Li0 O11 2.122172 1_555
Li0 O2 2.223981 1_545
Li0 O4 2.230029 1_555
Li0 O0 2.272072 1_455
Li1 O13 2.099289 1_556
Li1 O5 2.139968 1_555
Li1 O9 2.160020 1_556
Li1 O10 2.165603 1_555
Li1 O3 2.167878 1_555
Li1 O1 2.185856 1_555
Li2 O2 2.031097 1_555
Li2 O8 2.059421 1_565
Li2 O1 2.062954 1_555
Li2 O6 2.098686 1_555
Li2 O14 2.275113 1_555
Li2 O10 2.296157 1_555
Li3 O15 2.020066 1_555
Li3 O11 2.063270 1_655
Li3 O0 2.083475 1_555
Li3 O3 2.154304 1_554
Li3 O9 2.188293 1_555
Li3 O7 2.201292 1_654
Li4 O12 2.031097 1_555
Li4 O6 2.059421 1_545
Li4 O15 2.062954 1_555
Li4 O8 2.098686 1_555
Li4 O0 2.275113 1_555
Li4 O4 2.296157 1_555
Li5 O1 2.020066 1_555
Li5 O5 2.063270 1_455
Li5 O14 2.083475 1_555
Li5 O13 2.154304 1_556
Li5 O7 2.188293 1_555
Li5 O9 2.201292 1_456
Li6 O2 2.024114 1_655
Li6 O6 2.088537 1_555
Li6 O5 2.122172 1_555
Li6 O12 2.223981 1_565
Li6 O10 2.230029 1_555
Li6 O14 2.272072 1_655
Li7 O3 2.099289 1_554
Li7 O11 2.139968 1_555
Li7 O7 2.160020 1_554
Li7 O4 2.165603 1_555
Li7 O13 2.167878 1_555
Li7 O15 2.185856 1_555
Li8 O15 2.075041 1_555
Li8 O1 2.075041 1_555
Li8 O11 2.088063 1_555
Li8 O5 2.088063 1_555
Li8 O6 2.147482 1_555
Li8 O8 2.147482 1_555
Mn0 O14 1.931729 1_544
Mn0 O0 1.931729 1_455
Mn0 O9 1.931731 1_445
Mn0 O7 1.931731 1_554
Mn0 O4 1.964267 1_555
Mn0 O10 1.964267 1_444
Mn1 O3 1.936493 1_554
Mn1 O13 1.936493 1_545
Mn1 O10 1.949362 1_544
Mn1 O4 1.949362 1_555
Mn1 O0 1.954914 1_555
Mn1 O14 1.954914 1_544
Co0 O11 1.835614 1_555
Co0 O6 1.999013 1_555
Co0 O2 2.032025 1_555
Co0 O13 2.084548 1_555
Co0 O9 2.100695 1_455
Co0 O4 2.157526 1_565
Co1 O5 1.835614 1_555
Co1 O8 1.999013 1_555
Co1 O12 2.032025 1_555
Co1 O3 2.084548 1_555
Co1 O7 2.100695 1_655
Co1 O10 2.157526 1_545
Co2 O1 1.955301 1_555
Co2 O15 1.955301 1_455
Co2 O2 1.955716 1_555
Co2 O12 1.955716 1_455
Co2 O5 1.980559 1_455
Co2 O11 1.980559 1_555
Co3 O6 1.883699 1_555
Co3 O15 1.935819 1_555
Co3 O2 2.020780 1_655
Co3 O9 2.064496 1_555
Co3 O13 2.080278 1_555
Co3 O0 2.185476 1_565
Co4 O8 1.883699 1_555
Co4 O1 1.935819 1_555
Co4 O12 2.020780 1_455
Co4 O7 2.064496 1_555
Co4 O3 2.080278 1_555
Co4 O14 2.185476 1_545
