# generated using pymatgen
data_YOs3
_symmetry_space_group_name_H-M   'P 1'
_cell_length_a   5.84253412
_cell_length_b   5.84253412
_cell_length_c   4.63755800
_cell_angle_alpha   90.00000000
_cell_angle_beta   90.00000000
_cell_angle_gamma   120.00000131
_symmetry_Int_Tables_number   1
_chemical_formula_structural   YOs3
_chemical_formula_sum   'Y2 Os6'
_cell_volume   137.09527724
_cell_formula_units_Z   2
loop_
 _symmetry_equiv_pos_site_id
 _symmetry_equiv_pos_as_xyz
  1  'x, y, z'
loop_
 _atom_site_type_symbol
 _atom_site_label
 _atom_site_symmetry_multiplicity
 _atom_site_fract_x
 _atom_site_fract_y
 _atom_site_fract_z
 _atom_site_occupancy
  Y  Y0  1  0.33333300  0.66666700  0.75000000  1
  Y  Y1  1  0.66666700  0.33333300  0.25000000  1
  Os  Os0  1  0.15648700  0.31297300  0.25000000  1
  Os  Os1  1  0.68702700  0.84351300  0.25000000  1
  Os  Os2  1  0.15648700  0.84351300  0.25000000  1
  Os  Os3  1  0.84351300  0.68702700  0.75000000  1
  Os  Os4  1  0.31297300  0.15648700  0.75000000  1
  Os  Os5  1  0.84351300  0.15648700  0.75000000  1
loop_
_geom_bond_atom_site_label_1
_geom_bond_atom_site_label_2
_geom_bond_distance
_geom_bond_site_symmetry_2
Os0 Y1 2.923083 1_555
Os0 Y1 2.923083 1_455
Os0 Y0 2.929071 1_555
Os0 Y0 2.929071 1_554
Os1 Y1 2.923083 1_555
Os1 Y1 2.923083 1_565
Os1 Y0 2.929071 1_555
Os1 Y0 2.929071 1_554
Os2 Y1 2.923083 1_455
Os2 Y1 2.923083 1_565
Os2 Y0 2.929065 1_555
Os2 Y0 2.929065 1_554
Os3 Y0 2.923083 1_555
Os3 Y0 2.923083 1_655
Os3 Y1 2.929071 1_556
Os3 Y1 2.929071 1_555
Os4 Y0 2.923083 1_555
Os4 Y0 2.923083 1_545
Os4 Y1 2.929071 1_556
Os4 Y1 2.929071 1_555
Os5 Y0 2.923083 1_545
Os5 Y0 2.923083 1_655
Os5 Y1 2.929065 1_556
Os5 Y1 2.929065 1_555
