# generated using pymatgen
data_HfCrCuS4
_symmetry_space_group_name_H-M   'P 1'
_cell_length_a   11.31416000
_cell_length_b   3.54936100
_cell_length_c   12.72772100
_cell_angle_alpha   90.00000000
_cell_angle_beta   90.00000000
_cell_angle_gamma   90.00000000
_symmetry_Int_Tables_number   1
_chemical_formula_structural   HfCrCuS4
_chemical_formula_sum   'Hf4 Cr4 Cu4 S16'
_cell_volume   511.12030678
_cell_formula_units_Z   4
loop_
 _symmetry_equiv_pos_site_id
 _symmetry_equiv_pos_as_xyz
  1  'x, y, z'
loop_
 _atom_site_type_symbol
 _atom_site_label
 _atom_site_symmetry_multiplicity
 _atom_site_fract_x
 _atom_site_fract_y
 _atom_site_fract_z
 _atom_site_occupancy
  Hf  Hf0  1  0.93697200  0.75000000  0.88624400  1
  Hf  Hf1  1  0.56302800  0.25000000  0.38624400  1
  Hf  Hf2  1  0.10983200  0.25000000  0.57813400  1
  Hf  Hf3  1  0.39016800  0.75000000  0.07813400  1
  Cr  Cr0  1  0.04249900  0.25000000  0.11790800  1
  Cr  Cr1  1  0.45750100  0.75000000  0.61790800  1
  Cr  Cr2  1  0.93192300  0.75000000  0.40837000  1
  Cr  Cr3  1  0.56807700  0.25000000  0.90837000  1
  Cu  Cu0  1  0.27740500  0.25000000  0.35731300  1
  Cu  Cu1  1  0.69625000  0.75000000  0.67626300  1
  Cu  Cu2  1  0.22259500  0.75000000  0.85731300  1
  Cu  Cu3  1  0.80375000  0.25000000  0.17626300  1
  S  S0  1  0.07975000  0.75000000  0.71837900  1
  S  S1  1  0.95711000  0.25000000  0.29016400  1
  S  S2  1  0.42025000  0.25000000  0.21837900  1
  S  S3  1  0.54289000  0.75000000  0.79016400  1
  S  S4  1  0.08754300  0.25000000  0.93712800  1
  S  S5  1  0.89034300  0.75000000  0.07667100  1
  S  S6  1  0.41245700  0.75000000  0.43712800  1
  S  S7  1  0.60965700  0.25000000  0.57667100  1
  S  S8  1  0.14009600  0.75000000  0.43495700  1
  S  S9  1  0.89698700  0.25000000  0.53426900  1
  S  S10  1  0.35990400  0.25000000  0.93495700  1
  S  S11  1  0.60301300  0.75000000  0.03426900  1
  S  S12  1  0.17513100  0.75000000  0.15027700  1
  S  S13  1  0.79126700  0.25000000  0.83392200  1
  S  S14  1  0.32486900  0.25000000  0.65027700  1
  S  S15  1  0.70873300  0.75000000  0.33392200  1
loop_
_geom_bond_atom_site_label_1
_geom_bond_atom_site_label_2
_geom_bond_distance
_geom_bond_site_symmetry_2
Hf0 S5 2.480455 1_556
Hf0 S13 2.512094 1_565
Hf0 S13 2.512094 1_555
Hf0 S4 2.543841 1_655
Hf0 S4 2.543841 1_665
Hf0 S0 2.678499 1_655
Hf1 S7 2.480455 1_555
Hf1 S15 2.512094 1_555
Hf1 S15 2.512094 1_545
Hf1 S6 2.543841 1_545
Hf1 S6 2.543841 1_555
Hf1 S2 2.678499 1_555
Hf2 S9 2.472033 1_455
Hf2 S0 2.539991 1_545
Hf2 S0 2.539991 1_555
Hf2 S8 2.566627 1_545
Hf2 S8 2.566627 1_555
Hf2 S14 2.600467 1_555
Hf3 S11 2.472033 1_555
Hf3 S2 2.539991 1_555
Hf3 S2 2.539991 1_565
Hf3 S10 2.566627 1_554
Hf3 S10 2.566627 1_564
Hf3 S12 2.600467 1_555
Cr0 S4 2.356682 1_554
Cr0 S12 2.360314 1_555
Cr0 S12 2.360314 1_545
Cr0 S1 2.395849 1_455
Cr0 S5 2.527565 1_445
Cr0 S5 2.527565 1_455
Cr1 S6 2.356682 1_555
Cr1 S14 2.360314 1_555
Cr1 S14 2.360314 1_565
Cr1 S3 2.395849 1_555
Cr1 S7 2.527565 1_565
Cr1 S7 2.527565 1_555
Cr2 S1 2.343971 1_565
Cr2 S1 2.343971 1_555
Cr2 S8 2.379487 1_655
Cr2 S9 2.423518 1_565
Cr2 S9 2.423518 1_555
Cr2 S15 2.697134 1_555
Cr3 S3 2.343971 1_555
Cr3 S3 2.343971 1_545
Cr3 S10 2.379487 1_555
Cr3 S11 2.423518 1_546
Cr3 S11 2.423518 1_556
Cr3 S13 2.697134 1_555
Cu0 S2 2.395609 1_555
Cu0 S6 2.552695 1_555
Cu0 S6 2.552695 1_545
Cu0 S8 2.557257 1_555
Cu0 S8 2.557257 1_545
Cu1 S3 2.261048 1_555
Cu1 S7 2.390839 1_565
Cu1 S7 2.390839 1_555
Cu1 S13 2.886486 1_565
Cu1 S13 2.886486 1_555
Cu2 S0 2.395609 1_555
Cu2 S4 2.552695 1_555
Cu2 S4 2.552695 1_565
Cu2 S10 2.557257 1_555
Cu2 S10 2.557257 1_565
Cu3 S1 2.261048 1_555
Cu3 S5 2.390839 1_545
Cu3 S5 2.390839 1_555
Cu3 S15 2.886486 1_555
Cu3 S15 2.886486 1_545
