# generated using pymatgen
data_Er2Fe17C3
_symmetry_space_group_name_H-M   'P 1'
_cell_length_a   8.35400500
_cell_length_b   8.60338031
_cell_length_c   8.60338031
_cell_angle_alpha   120.00000241
_cell_angle_beta   90.00000000
_cell_angle_gamma   90.00000000
_symmetry_Int_Tables_number   1
_chemical_formula_structural   Er2Fe17C3
_chemical_formula_sum   'Er4 Fe34 C6'
_cell_volume   535.50507957
_cell_formula_units_Z   2
loop_
 _symmetry_equiv_pos_site_id
 _symmetry_equiv_pos_as_xyz
  1  'x, y, z'
loop_
 _atom_site_type_symbol
 _atom_site_label
 _atom_site_symmetry_multiplicity
 _atom_site_fract_x
 _atom_site_fract_y
 _atom_site_fract_z
 _atom_site_occupancy
  Er  Er0  1  0.75000000  0.66666700  0.33333300  1
  Er  Er1  1  0.25000000  0.33333300  0.66666700  1
  Er  Er2  1  0.75000000  0.00000000  0.00000000  1
  Er  Er3  1  0.25000000  0.00000000  0.00000000  1
  Fe  Fe0  1  0.75000000  0.62143100  0.67382200  1
  Fe  Fe1  1  0.25000000  0.37856900  0.32617800  1
  Fe  Fe2  1  0.75000000  0.05239100  0.37856900  1
  Fe  Fe3  1  0.25000000  0.94760900  0.32617800  1
  Fe  Fe4  1  0.25000000  0.94760900  0.62143100  1
  Fe  Fe5  1  0.75000000  0.05239100  0.67382200  1
  Fe  Fe6  1  0.75000000  0.32617800  0.94760900  1
  Fe  Fe7  1  0.25000000  0.67382200  0.62143100  1
  Fe  Fe8  1  0.25000000  0.67382200  0.05239100  1
  Fe  Fe9  1  0.75000000  0.32617800  0.37856900  1
  Fe  Fe10  1  0.25000000  0.37856900  0.05239100  1
  Fe  Fe11  1  0.75000000  0.62143100  0.94760900  1
  Fe  Fe12  1  0.39301400  0.66666700  0.33333300  1
  Fe  Fe13  1  0.60698600  0.33333300  0.66666700  1
  Fe  Fe14  1  0.89301400  0.33333300  0.66666700  1
  Fe  Fe15  1  0.10698600  0.66666700  0.33333300  1
  Fe  Fe16  1  0.97986100  0.83183700  0.16816300  1
  Fe  Fe17  1  0.02013900  0.16816300  0.83183700  1
  Fe  Fe18  1  0.97986100  0.33632600  0.16816300  1
  Fe  Fe19  1  0.47986100  0.16816300  0.83183700  1
  Fe  Fe20  1  0.02013900  0.66367400  0.83183700  1
  Fe  Fe21  1  0.52013900  0.83183700  0.16816300  1
  Fe  Fe22  1  0.97986100  0.83183700  0.66367400  1
  Fe  Fe23  1  0.47986100  0.66367400  0.83183700  1
  Fe  Fe24  1  0.02013900  0.16816300  0.33632600  1
  Fe  Fe25  1  0.52013900  0.33632600  0.16816300  1
  Fe  Fe26  1  0.47986100  0.16816300  0.33632600  1
  Fe  Fe27  1  0.52013900  0.83183700  0.66367400  1
  Fe  Fe28  1  0.00000000  0.50000000  0.50000000  1
  Fe  Fe29  1  0.00000000  0.00000000  0.50000000  1
  Fe  Fe30  1  0.50000000  0.50000000  0.50000000  1
  Fe  Fe31  1  0.00000000  0.50000000  0.00000000  1
  Fe  Fe32  1  0.50000000  0.00000000  0.50000000  1
  Fe  Fe33  1  0.50000000  0.50000000  0.00000000  1
  C  C0  1  0.75000000  0.83454200  0.16545800  1
  C  C1  1  0.25000000  0.16545800  0.83454200  1
  C  C2  1  0.75000000  0.33091700  0.16545800  1
  C  C3  1  0.25000000  0.66908300  0.83454200  1
  C  C4  1  0.75000000  0.83454200  0.66908300  1
  C  C5  1  0.25000000  0.16545800  0.33091700  1
loop_
_geom_bond_atom_site_label_1
_geom_bond_atom_site_label_2
_geom_bond_distance
_geom_bond_site_symmetry_2
Er0 Fe12 2.982263 1_555
Er0 Fe15 2.982263 1_655
Er0 Fe32 3.244997 1_565
Er0 Fe33 3.244997 1_555
Er0 Fe29 3.244997 1_665
Er0 Fe31 3.244997 1_655
Er0 Fe28 3.245003 1_655
Er0 Fe30 3.245003 1_555
Er1 Fe14 2.982263 1_455
Er1 Fe13 2.982263 1_555
Er1 Fe32 3.244997 1_555
Er1 Fe29 3.244997 1_555
Er1 Fe31 3.244997 1_556
Er1 Fe33 3.244997 1_556
Er1 Fe28 3.245003 1_555
Er1 Fe30 3.245003 1_555
Fe0 Fe30 2.475345 1_555
Fe0 Fe28 2.475345 1_655
Fe0 Fe13 2.724363 1_555
Fe0 Fe14 2.724363 1_555
Fe1 Fe30 2.475345 1_555
Fe1 Fe28 2.475345 1_555
Fe1 Fe15 2.724363 1_555
Fe1 Fe12 2.724363 1_555
Fe2 Fe32 2.475345 1_555
Fe2 Fe29 2.475345 1_655
Fe3 Fe32 2.475345 1_565
Fe10 Fe33 2.475345 1_555
Fe10 Fe31 2.475345 1_555
Fe10 Fe15 2.724360 1_555
Fe10 Fe12 2.724360 1_555
Fe11 Fe33 2.475345 1_556
Fe11 Fe31 2.475345 1_656
Fe11 Fe14 2.724360 1_555
Fe11 Fe13 2.724360 1_555
Fe12 Fe15 2.389479 1_555
Fe12 Fe33 2.639503 1_555
Fe12 Fe32 2.639503 1_565
Fe12 Fe30 2.639510 1_555
Fe12 Fe21 2.680624 1_555
Fe12 Fe27 2.680631 1_555
Fe12 Fe25 2.680631 1_555
Fe12 Fe8 2.724356 1_555
Fe12 Fe3 2.724356 1_555
Fe12 Fe4 2.724360 1_555
Fe12 Fe7 2.724363 1_555
Fe13 Fe14 2.389479 1_555
Fe13 Fe32 2.639503 1_555
Fe13 Fe33 2.639503 1_556
Fe13 Fe30 2.639510 1_555
Fe13 Fe19 2.680624 1_555
Fe13 Fe23 2.680631 1_555
Fe13 Fe26 2.680631 1_555
Fe13 Fe5 2.724356 1_555
Fe13 Fe6 2.724356 1_555
Fe13 Fe2 2.724360 1_555
Fe13 Fe9 2.724363 1_555
Fe14 Fe29 2.639503 1_655
Fe14 Fe31 2.639503 1_656
Fe14 Fe28 2.639510 1_655
Fe14 Fe17 2.680624 1_655
Fe14 Fe20 2.680631 1_655
Fe14 Fe24 2.680631 1_655
Fe14 Fe5 2.724356 1_555
Fe14 Fe6 2.724356 1_555
Fe14 Fe2 2.724360 1_555
Fe14 Fe9 2.724363 1_555
Fe15 Fe29 2.639503 1_565
Fe15 Fe31 2.639503 1_555
Fe15 Fe28 2.639510 1_555
Fe15 Fe16 2.680624 1_455
Fe15 Fe22 2.680631 1_455
Fe15 Fe18 2.680631 1_455
Fe15 Fe8 2.724356 1_555
Fe15 Fe3 2.724356 1_555
Fe15 Fe4 2.724360 1_555
Fe15 Fe7 2.724363 1_555
Fe16 Fe31 2.478226 1_655
Fe16 Fe29 2.478226 1_665
Fe17 Fe29 2.478226 1_555
Fe17 Fe31 2.478226 1_556
Fe18 Fe28 2.478226 1_655
Fe18 Fe31 2.478226 1_655
Fe19 Fe32 2.478226 1_555
Fe19 Fe33 2.478226 1_556
Fe20 Fe28 2.478226 1_555
Fe20 Fe31 2.478226 1_556
Fe21 Fe33 2.478226 1_555
Fe21 Fe32 2.478226 1_565
Fe22 Fe28 2.478226 1_655
Fe22 Fe29 2.478226 1_665
Fe23 Fe30 2.478226 1_555
Fe23 Fe33 2.478226 1_556
Fe24 Fe28 2.478226 1_555
Fe24 Fe29 2.478226 1_555
Fe25 Fe30 2.478226 1_555
Fe25 Fe33 2.478226 1_555
Fe26 Fe30 2.478226 1_555
Fe26 Fe32 2.478226 1_555
Fe27 Fe30 2.478226 1_555
Fe27 Fe32 2.478226 1_565
Fe28 Fe7 2.475345 1_555
Fe28 Fe9 2.475345 1_455
Fe29 Fe5 2.475345 1_455
Fe29 Fe3 2.475345 1_545
Fe29 Fe4 2.475345 1_545
Fe30 Fe7 2.475345 1_555
Fe30 Fe9 2.475345 1_555
Fe31 Fe8 2.475345 1_555
Fe31 Fe6 2.475345 1_454
Fe32 Fe5 2.475345 1_555
Fe32 Fe4 2.475345 1_545
Fe33 Fe8 2.475345 1_555
Fe33 Fe6 2.475345 1_554
C0 Fe2 1.854192 1_565
C0 Fe11 1.854192 1_554
C0 Fe16 1.920683 1_555
C0 Fe21 1.920683 1_555
C0 Er2 2.465571 1_565
C0 Er0 2.501588 1_555
C1 Fe10 1.854192 1_556
C1 Fe4 1.854192 1_545
C1 Fe19 1.920683 1_555
C1 Fe17 1.920683 1_555
C1 Er3 2.465571 1_556
C1 Er1 2.501588 1_555
C2 Fe6 1.854188 1_554
C2 Fe9 1.854197 1_555
C2 Fe18 1.920683 1_555
C2 Fe25 1.920683 1_555
C2 Er2 2.465578 1_555
C2 Er0 2.501588 1_555
C3 Fe8 1.854188 1_556
C3 Fe7 1.854197 1_555
C3 Fe23 1.920683 1_555
C3 Fe20 1.920683 1_555
C3 Er3 2.465578 1_566
C3 Er1 2.501588 1_555
C4 Fe5 1.854188 1_565
C4 Fe0 1.854197 1_555
C4 Fe22 1.920683 1_555
C4 Fe27 1.920683 1_555
C4 Er2 2.465578 1_566
C4 Er0 2.501588 1_555
C5 Fe3 1.854188 1_545
C5 Fe1 1.854197 1_555
C5 Fe26 1.920683 1_555
C5 Fe24 1.920683 1_555
C5 Er3 2.465578 1_555
C5 Er1 2.501588 1_555
