# generated using pymatgen
data_Ta3N
_symmetry_space_group_name_H-M   'P 1'
_cell_length_a   6.06444798
_cell_length_b   6.06444798
_cell_length_c   15.04827400
_cell_angle_alpha   90.00000000
_cell_angle_beta   90.00000000
_cell_angle_gamma   119.99999974
_symmetry_Int_Tables_number   1
_chemical_formula_structural   Ta3N
_chemical_formula_sum   'Ta24 N8'
_cell_volume   479.29166073
_cell_formula_units_Z   8
loop_
 _symmetry_equiv_pos_site_id
 _symmetry_equiv_pos_as_xyz
  1  'x, y, z'
loop_
 _atom_site_type_symbol
 _atom_site_label
 _atom_site_symmetry_multiplicity
 _atom_site_fract_x
 _atom_site_fract_y
 _atom_site_fract_z
 _atom_site_occupancy
  Ta  Ta0_0  1  0.00000000  0.00000000  0.25000000  1
  Ta  Ta0_1  1  0.00000000  0.00000000  0.75000000  1
  Ta  Ta0_2  1  0.00000000  0.50000000  0.25000000  1
  Ta  Ta0_3  1  0.00000000  0.50000000  0.75000000  1
  Ta  Ta0_4  1  0.50000000  0.00000000  0.25000000  1
  Ta  Ta0_5  1  0.50000000  0.00000000  0.75000000  1
  Ta  Ta0_6  1  0.50000000  0.50000000  0.25000000  1
  Ta  Ta0_7  1  0.50000000  0.50000000  0.75000000  1
  Ta  Ta1_0  1  0.16666650  0.33333350  0.08696500  1
  Ta  Ta1_1  1  0.16666650  0.33333350  0.58696500  1
  Ta  Ta1_2  1  0.16666650  0.83333350  0.08696500  1
  Ta  Ta1_3  1  0.16666650  0.83333350  0.58696500  1
  Ta  Ta1_4  1  0.66666650  0.33333350  0.08696500  1
  Ta  Ta1_5  1  0.66666650  0.33333350  0.58696500  1
  Ta  Ta1_6  1  0.66666650  0.83333350  0.08696500  1
  Ta  Ta1_7  1  0.66666650  0.83333350  0.58696500  1
  Ta  Ta2_0  1  0.33333350  0.16666650  0.41303500  1
  Ta  Ta2_1  1  0.33333350  0.16666650  0.91303500  1
  Ta  Ta2_2  1  0.33333350  0.66666650  0.41303500  1
  Ta  Ta2_3  1  0.33333350  0.66666650  0.91303500  1
  Ta  Ta2_4  1  0.83333350  0.16666650  0.41303500  1
  Ta  Ta2_5  1  0.83333350  0.16666650  0.91303500  1
  Ta  Ta2_6  1  0.83333350  0.66666650  0.41303500  1
  Ta  Ta2_7  1  0.83333350  0.66666650  0.91303500  1
  N  N0_0  1  0.00000000  0.00000000  0.00000000  1
  N  N0_1  1  0.00000000  0.00000000  0.50000000  1
  N  N0_2  1  0.00000000  0.50000000  0.00000000  1
  N  N0_3  1  0.00000000  0.50000000  0.50000000  1
  N  N0_4  1  0.50000000  0.00000000  0.00000000  1
  N  N0_5  1  0.50000000  0.00000000  0.50000000  1
  N  N0_6  1  0.50000000  0.50000000  0.00000000  1
  N  N0_7  1  0.50000000  0.50000000  0.50000000  1
loop_
_geom_bond_atom_site_label_1
_geom_bond_atom_site_label_2
_geom_bond_distance
_geom_bond_site_symmetry_2
Ta0_0 Ta2_4 3.013957 1_455
Ta0_0 Ta1_2 3.013957 1_545
Ta0_0 Ta1_6 3.013959 1_445
Ta0_0 Ta1_0 3.013959 1_555
Ta0_0 Ta2_6 3.013959 1_445
Ta0_0 Ta2_0 3.013959 1_555
Ta0_0 Ta0_4 3.032224 1_555
Ta0_0 Ta0_2 3.032224 1_555
Ta0_0 Ta0_2 3.032224 1_545
Ta0_0 Ta0_4 3.032224 1_455
Ta0_0 Ta0_6 3.032224 1_555
Ta0_0 Ta0_6 3.032224 1_445
Ta0_1 Ta2_5 3.013957 1_455
Ta0_1 Ta1_3 3.013957 1_545
Ta0_1 Ta1_7 3.013959 1_445
Ta0_1 Ta1_1 3.013959 1_555
Ta0_1 Ta2_1 3.013959 1_555
Ta0_1 Ta2_7 3.013959 1_445
Ta0_1 Ta0_5 3.032224 1_555
Ta0_1 Ta0_3 3.032224 1_555
Ta0_1 Ta0_5 3.032224 1_455
Ta0_1 Ta0_3 3.032224 1_545
Ta0_1 Ta0_7 3.032224 1_445
Ta0_1 Ta0_7 3.032224 1_555
Ta0_2 Ta2_6 3.013957 1_455
Ta0_2 Ta1_0 3.013957 1_555
Ta0_2 Ta1_2 3.013959 1_555
Ta0_2 Ta1_4 3.013959 1_455
Ta0_2 Ta2_2 3.013959 1_555
Ta0_2 Ta2_4 3.013959 1_455
Ta0_2 Ta0_6 3.032224 1_555
Ta0_2 Ta0_6 3.032224 1_455
Ta0_2 Ta0_4 3.032224 1_565
Ta0_2 Ta0_4 3.032224 1_455
Ta0_3 Ta2_7 3.013957 1_455
Ta0_3 Ta1_1 3.013957 1_555
Ta0_3 Ta1_3 3.013959 1_555
Ta0_3 Ta2_5 3.013959 1_455
Ta0_3 Ta2_3 3.013959 1_555
Ta0_3 Ta1_5 3.013959 1_455
Ta0_3 Ta0_7 3.032224 1_455
Ta0_3 Ta0_7 3.032224 1_555
Ta0_3 Ta0_5 3.032224 1_565
Ta0_3 Ta0_5 3.032224 1_455
Ta0_4 Ta2_0 3.013957 1_555
Ta0_4 Ta1_6 3.013957 1_545
Ta0_4 Ta1_4 3.013959 1_555
Ta0_4 Ta1_2 3.013959 1_545
Ta0_4 Ta2_2 3.013959 1_545
Ta0_4 Ta2_4 3.013959 1_555
Ta0_4 Ta0_6 3.032224 1_555
Ta0_4 Ta0_6 3.032224 1_545
Ta0_5 Ta2_1 3.013957 1_555
Ta0_5 Ta1_7 3.013957 1_545
Ta0_5 Ta1_5 3.013959 1_555
Ta0_5 Ta1_3 3.013959 1_545
Ta0_5 Ta2_5 3.013959 1_555
Ta0_5 Ta2_3 3.013959 1_545
Ta0_5 Ta0_7 3.032224 1_555
Ta0_5 Ta0_7 3.032224 1_545
Ta0_6 Ta1_4 3.013957 1_555
Ta0_6 Ta2_2 3.013957 1_555
Ta0_6 Ta1_6 3.013959 1_555
Ta0_6 Ta2_0 3.013959 1_555
Ta0_6 Ta1_0 3.013959 1_555
Ta0_6 Ta2_6 3.013959 1_555
Ta0_7 Ta2_3 3.013957 1_555
Ta0_7 Ta1_5 3.013957 1_555
Ta0_7 Ta2_1 3.013959 1_555
Ta0_7 Ta1_1 3.013959 1_555
Ta0_7 Ta1_7 3.013959 1_555
Ta0_7 Ta2_7 3.013959 1_555
N0_0 Ta2_5 2.185729 1_454
N0_0 Ta1_2 2.185729 1_545
N0_0 Ta1_6 2.185732 1_445
N0_0 Ta1_0 2.185732 1_555
N0_0 Ta2_1 2.185732 1_554
N0_0 Ta2_7 2.185732 1_444
N0_1 Ta2_4 2.185729 1_455
N0_1 Ta1_3 2.185729 1_545
N0_1 Ta1_7 2.185732 1_445
N0_1 Ta1_1 2.185732 1_555
N0_1 Ta2_6 2.185732 1_445
N0_1 Ta2_0 2.185732 1_555
N0_2 Ta2_7 2.185729 1_454
N0_2 Ta1_0 2.185729 1_555
N0_2 Ta2_3 2.185732 1_554
N0_2 Ta2_5 2.185732 1_454
N0_2 Ta1_2 2.185732 1_555
N0_2 Ta1_4 2.185732 1_455
N0_3 Ta2_6 2.185729 1_455
N0_3 Ta1_1 2.185729 1_555
N0_3 Ta1_3 2.185732 1_555
N0_3 Ta2_2 2.185732 1_555
N0_3 Ta2_4 2.185732 1_455
N0_3 Ta1_5 2.185732 1_455
N0_4 Ta2_1 2.185729 1_554
N0_4 Ta1_6 2.185729 1_545
N0_4 Ta1_2 2.185732 1_545
N0_4 Ta2_5 2.185732 1_554
N0_4 Ta2_3 2.185732 1_544
N0_4 Ta1_4 2.185732 1_555
N0_5 Ta2_0 2.185729 1_555
N0_5 Ta1_7 2.185729 1_545
N0_5 Ta1_5 2.185732 1_555
N0_5 Ta1_3 2.185732 1_545
N0_5 Ta2_2 2.185732 1_545
N0_5 Ta2_4 2.185732 1_555
N0_6 Ta1_4 2.185729 1_555
N0_6 Ta2_3 2.185729 1_554
N0_6 Ta2_1 2.185732 1_554
N0_6 Ta2_7 2.185732 1_554
N0_6 Ta1_6 2.185732 1_555
N0_6 Ta1_0 2.185732 1_555
N0_7 Ta2_2 2.185729 1_555
N0_7 Ta1_5 2.185729 1_555
N0_7 Ta2_0 2.185732 1_555
N0_7 Ta1_1 2.185732 1_555
N0_7 Ta2_6 2.185732 1_555
N0_7 Ta1_7 2.185732 1_555
