# generated using pymatgen
data_Ba2Nd2Al3(B4O9)3
_symmetry_space_group_name_H-M   'P 1'
_cell_length_a   4.67410640
_cell_length_b   4.67410640
_cell_length_c   26.07708900
_cell_angle_alpha   90.00000000
_cell_angle_beta   90.00000000
_cell_angle_gamma   120.00000569
_symmetry_Int_Tables_number   1
_chemical_formula_structural   Ba2Nd2Al3(B4O9)3
_chemical_formula_sum   'Ba2 Nd2 Al3 B12 O27'
_cell_volume   493.38609424
_cell_formula_units_Z   1
loop_
 _symmetry_equiv_pos_site_id
 _symmetry_equiv_pos_as_xyz
  1  'x, y, z'
loop_
 _atom_site_type_symbol
 _atom_site_label
 _atom_site_symmetry_multiplicity
 _atom_site_fract_x
 _atom_site_fract_y
 _atom_site_fract_z
 _atom_site_occupancy
  Ba  Ba0  1  0.00000000  0.00000000  0.14906100  1
  Ba  Ba1  1  0.00000000  0.00000000  0.85093900  1
  Nd  Nd0  1  0.00000000  0.00000000  0.30056400  1
  Nd  Nd1  1  0.00000000  0.00000000  0.69943600  1
  Al  Al0  1  0.37351500  0.37351500  0.50000000  1
  Al  Al1  1  0.62648500  0.00000000  0.50000000  1
  Al  Al2  1  0.00000000  0.62648500  0.50000000  1
  B  B0  1  0.66666700  0.33333300  0.77261200  1
  B  B1  1  0.66666700  0.33333300  0.22738800  1
  B  B2  1  0.33333300  0.66666700  0.77261200  1
  B  B3  1  0.33333300  0.66666700  0.22738800  1
  B  B4  1  0.66666700  0.33333300  0.61094200  1
  B  B5  1  0.66666700  0.33333300  0.38905800  1
  B  B6  1  0.33333300  0.66666700  0.61094200  1
  B  B7  1  0.33333300  0.66666700  0.38905800  1
  B  B8  1  0.66666700  0.33333300  0.94431100  1
  B  B9  1  0.66666700  0.33333300  0.05568900  1
  B  B10  1  0.33333300  0.66666700  0.94431100  1
  B  B11  1  0.33333300  0.66666700  0.05568900  1
  O  O0  1  0.66666700  0.33333300  0.82442000  1
  O  O1  1  0.66666700  0.33333300  0.17558000  1
  O  O2  1  0.33333300  0.66666700  0.82442000  1
  O  O3  1  0.33333300  0.66666700  0.17558000  1
  O  O4  1  0.58297200  0.58297200  0.74587100  1
  O  O5  1  0.41702800  0.00000000  0.74587100  1
  O  O6  1  0.00000000  0.41702800  0.74587100  1
  O  O7  1  0.58297200  0.58297200  0.25412900  1
  O  O8  1  0.41702800  0.00000000  0.25412900  1
  O  O9  1  0.00000000  0.41702800  0.25412900  1
  O  O10  1  0.66666700  0.33333300  0.54467100  1
  O  O11  1  0.66666700  0.33333300  0.45532900  1
  O  O12  1  0.33333300  0.66666700  0.54467100  1
  O  O13  1  0.33333300  0.66666700  0.45532900  1
  O  O14  1  0.57830400  0.57830400  0.94329700  1
  O  O15  1  0.42169600  0.00000000  0.94329700  1
  O  O16  1  0.00000000  0.42169600  0.94329700  1
  O  O17  1  0.57830400  0.57830400  0.05670300  1
  O  O18  1  0.42169600  0.00000000  0.05670300  1
  O  O19  1  0.00000000  0.42169600  0.05670300  1
  O  O20  1  0.58902400  0.58902400  0.62463500  1
  O  O21  1  0.41097600  0.00000000  0.62463500  1
  O  O22  1  0.00000000  0.41097600  0.62463500  1
  O  O23  1  0.58902400  0.58902400  0.37536500  1
  O  O24  1  0.41097600  0.00000000  0.37536500  1
  O  O25  1  0.00000000  0.41097600  0.37536500  1
  O  O26  1  0.00000000  0.00000000  0.50000000  1
loop_
_geom_bond_atom_site_label_1
_geom_bond_atom_site_label_2
_geom_bond_distance
_geom_bond_site_symmetry_2
Ba0 O3 2.785792 1_545
Ba0 O1 2.785792 1_455
Ba0 O3 2.785795 1_445
Ba0 O1 2.785795 1_555
Ba0 O1 2.785795 1_445
Ba0 O3 2.785795 1_555
Ba0 O17 3.112165 1_445
Ba0 O19 3.112165 1_555
Ba0 O18 3.112165 1_555
Ba1 O0 2.785792 1_455
Ba1 O2 2.785792 1_545
Ba1 O2 2.785795 1_555
Ba1 O2 2.785795 1_445
Ba1 O0 2.785795 1_555
Ba1 O0 2.785795 1_445
Ba1 O14 3.112165 1_445
Ba1 O15 3.112165 1_555
Ba1 O16 3.112165 1_555
Nd0 O7 2.294725 1_445
Nd0 O9 2.294725 1_555
Nd0 O8 2.294725 1_555
Nd0 O23 2.737671 1_445
Nd0 O25 2.737671 1_555
Nd0 O24 2.737671 1_555
Nd1 O4 2.294725 1_445
Nd1 O5 2.294725 1_555
Nd1 O6 2.294725 1_555
Nd1 O20 2.737671 1_445
Nd1 O22 2.737671 1_555
Nd1 O21 2.737671 1_555
Al0 O26 1.745849 1_555
Al0 O11 1.878058 1_555
Al0 O12 1.878058 1_555
Al0 O13 1.878058 1_555
Al0 O10 1.878058 1_555
Al1 O26 1.745849 1_655
Al1 O11 1.878055 1_555
Al1 O10 1.878055 1_555
Al1 O13 1.878056 1_545
Al1 O12 1.878056 1_545
Al2 O26 1.745849 1_565
Al2 O13 1.878055 1_555
Al2 O12 1.878055 1_555
Al2 O10 1.878056 1_455
Al2 O11 1.878056 1_455
B0 O0 1.351002 1_555
B0 O6 1.567568 1_655
B0 O5 1.567569 1_555
B0 O4 1.567572 1_555
B1 O1 1.351002 1_555
B1 O9 1.567568 1_655
B1 O8 1.567569 1_555
B1 O7 1.567572 1_555
B2 O2 1.351002 1_555
B2 O5 1.567568 1_565
B2 O6 1.567569 1_555
B2 O4 1.567572 1_555
B3 O3 1.351002 1_555
B3 O8 1.567568 1_565
B3 O9 1.567569 1_555
B3 O7 1.567572 1_555
B4 O22 1.456450 1_655
B4 O21 1.456452 1_555
B4 O20 1.456455 1_555
B4 O10 1.728155 1_555
B5 O25 1.456450 1_655
B5 O24 1.456452 1_555
B5 O23 1.456455 1_555
B5 O11 1.728155 1_555
B6 O21 1.456450 1_565
B6 O22 1.456452 1_555
B6 O20 1.456455 1_555
B6 O12 1.728155 1_555
B7 O24 1.456450 1_565
B7 O25 1.456452 1_555
B7 O23 1.456455 1_555
B7 O13 1.728155 1_555
B8 O16 1.398305 1_655
B8 O15 1.398306 1_555
B8 O14 1.398309 1_555
B9 O19 1.398305 1_655
B9 O18 1.398306 1_555
B9 O17 1.398309 1_555
B10 O15 1.398305 1_565
B10 O16 1.398306 1_555
B10 O14 1.398309 1_555
B11 O18 1.398305 1_565
B11 O19 1.398306 1_555
B11 O17 1.398309 1_555
