# generated using pymatgen
data_HoFe10Mo2N
_symmetry_space_group_name_H-M   'P 1'
_cell_length_a   4.76594600
_cell_length_b   6.56814585
_cell_length_c   6.56814585
_cell_angle_alpha   98.03357044
_cell_angle_beta   111.27271863
_cell_angle_gamma   68.72728137
_symmetry_Int_Tables_number   1
_chemical_formula_structural   HoFe10Mo2N
_chemical_formula_sum   'Ho1 Fe10 Mo2 N1'
_cell_volume   178.53395813
_cell_formula_units_Z   1
loop_
 _symmetry_equiv_pos_site_id
 _symmetry_equiv_pos_as_xyz
  1  'x, y, z'
loop_
 _atom_site_type_symbol
 _atom_site_label
 _atom_site_symmetry_multiplicity
 _atom_site_fract_x
 _atom_site_fract_y
 _atom_site_fract_z
 _atom_site_occupancy
  Ho  Ho0  1  0.00000000  0.00000000  0.00000000  1
  Fe  Fe0  1  0.72023200  0.77976800  0.22023200  1
  Fe  Fe1  1  0.27976800  0.22023200  0.77976800  1
  Fe  Fe2  1  0.50000000  0.77883700  0.77883700  1
  Fe  Fe3  1  0.50000000  0.22116300  0.22116300  1
  Fe  Fe4  1  0.50000000  0.00000000  0.50000000  1
  Fe  Fe5  1  0.00000000  0.00000000  0.50000000  1
  Fe  Fe6  1  0.50000000  0.50000000  0.00000000  1
  Fe  Fe7  1  0.00000000  0.50000000  0.00000000  1
  Fe  Fe8  1  0.64016600  0.35983400  0.64016600  1
  Fe  Fe9  1  0.35983400  0.64016600  0.35983400  1
  Mo  Mo0  1  0.00000000  0.35865900  0.35865900  1
  Mo  Mo1  1  0.00000000  0.64134100  0.64134100  1
  N  N0  1  0.50000000  0.00000000  0.00000000  1
loop_
_geom_bond_atom_site_label_1
_geom_bond_atom_site_label_2
_geom_bond_distance
_geom_bond_site_symmetry_2
Ho0 N0 2.382973 1_555
Ho0 N0 2.382973 1_455
Ho0 Mo1 3.089947 1_544
Ho0 Mo0 3.089947 1_555
Fe0 N0 1.915194 1_565
Fe0 Fe6 2.474993 1_555
Fe0 Fe5 2.474993 1_665
Fe0 Fe7 2.474993 1_655
Fe0 Fe4 2.474993 1_565
Fe0 Fe9 2.674396 1_655
Fe0 Fe9 2.674396 1_555
Fe0 Mo0 2.720652 1_655
Fe0 Mo1 2.720652 1_655
Fe1 N0 1.915194 1_556
Fe1 Fe7 2.474993 1_556
Fe1 Fe4 2.474993 1_555
Fe1 Fe5 2.474993 1_555
Fe1 Fe6 2.474993 1_556
Fe1 Fe8 2.674396 1_555
Fe1 Fe8 2.674396 1_455
Fe1 Mo0 2.720652 1_555
Fe1 Mo1 2.720652 1_555
Fe2 N0 1.905381 1_566
Fe2 Fe4 2.491569 1_565
Fe2 Fe7 2.491569 1_656
Fe2 Fe6 2.491569 1_556
Fe2 Fe5 2.491569 1_565
Fe2 Mo1 2.661157 1_555
Fe2 Mo1 2.661157 1_655
Fe2 Fe9 2.693810 1_555
Fe2 Fe8 2.693810 1_555
Fe3 N0 1.905381 1_555
Fe3 Fe4 2.491569 1_555
Fe3 Fe5 2.491569 1_655
Fe3 Fe7 2.491569 1_555
Fe3 Fe6 2.491569 1_555
Fe3 Mo0 2.661157 1_555
Fe3 Mo0 2.661157 1_655
Fe3 Fe9 2.693810 1_555
Fe3 Fe8 2.693810 1_555
Fe4 Fe5 2.382973 1_555
Fe4 Fe5 2.382973 1_655
Fe4 Fe9 2.640242 1_545
Fe4 Fe8 2.640242 1_555
Fe4 Mo0 2.650006 1_555
Fe4 Mo1 2.650006 1_645
Fe4 Ho0 3.284073 1_555
Fe4 Ho0 3.284073 1_656
Fe5 Fe8 2.640242 1_455
Fe5 Fe9 2.640242 1_545
Fe5 Mo1 2.650006 1_545
Fe5 Mo0 2.650006 1_555
Fe5 Ho0 3.284073 1_555
Fe5 Ho0 3.284073 1_556
Fe6 Fe7 2.382973 1_655
Fe6 Fe7 2.382973 1_555
Fe6 Fe9 2.640242 1_555
Fe6 Fe8 2.640242 1_554
Fe6 Mo1 2.650006 1_554
Fe6 Mo0 2.650006 1_655
Fe6 Ho0 3.284073 1_655
Fe6 Ho0 3.284073 1_565
Fe7 Fe8 2.640242 1_454
Fe7 Fe9 2.640242 1_555
Fe7 Mo1 2.650006 1_554
Fe7 Mo0 2.650006 1_555
Fe7 Ho0 3.284073 1_555
Fe7 Ho0 3.284073 1_565
Fe8 Fe9 2.437839 1_555
Fe8 Mo0 2.940595 1_655
Fe8 Mo1 2.940595 1_555
Fe8 Mo1 2.940595 1_655
Fe8 Mo0 2.940595 1_555
Fe8 Ho0 3.129209 1_656
Fe9 Mo0 2.940595 1_655
Fe9 Mo0 2.940595 1_555
Fe9 Mo1 2.940595 1_555
Fe9 Mo1 2.940595 1_655
Fe9 Ho0 3.129209 1_565
Mo0 Mo1 2.435384 1_555
