# generated using pymatgen
data_Pd3N
_symmetry_space_group_name_H-M   'P 1'
_cell_length_a   6.77209349
_cell_length_b   6.77209349
_cell_length_c   6.77209349
_cell_angle_alpha   109.47122063
_cell_angle_beta   109.47122063
_cell_angle_gamma   109.47122063
_symmetry_Int_Tables_number   1
_chemical_formula_structural   Pd3N
_chemical_formula_sum   'Pd12 N4'
_cell_volume   239.08203536
_cell_formula_units_Z   4
loop_
 _symmetry_equiv_pos_site_id
 _symmetry_equiv_pos_as_xyz
  1  'x, y, z'
loop_
 _atom_site_type_symbol
 _atom_site_label
 _atom_site_symmetry_multiplicity
 _atom_site_fract_x
 _atom_site_fract_y
 _atom_site_fract_z
 _atom_site_occupancy
  Pd  Pd0  1  0.18924600  0.87646500  0.68721900  1
  Pd  Pd1  1  0.81075400  0.12353500  0.31278100  1
  Pd  Pd2  1  0.81075400  0.49797300  0.68721900  1
  Pd  Pd3  1  0.18924600  0.50202700  0.31278100  1
  Pd  Pd4  1  0.87646500  0.68721900  0.18924600  1
  Pd  Pd5  1  0.12353500  0.31278100  0.81075400  1
  Pd  Pd6  1  0.49797300  0.68721900  0.81075400  1
  Pd  Pd7  1  0.50202700  0.31278100  0.18924600  1
  Pd  Pd8  1  0.68721900  0.18924600  0.87646500  1
  Pd  Pd9  1  0.31278100  0.81075400  0.12353500  1
  Pd  Pd10  1  0.68721900  0.81075400  0.49797300  1
  Pd  Pd11  1  0.31278100  0.18924600  0.50202700  1
  N  N0  1  0.00000000  0.00000000  0.50000000  1
  N  N1  1  0.50000000  0.00000000  0.00000000  1
  N  N2  1  0.00000000  0.50000000  0.00000000  1
  N  N3  1  0.50000000  0.50000000  0.50000000  1
loop_
_geom_bond_atom_site_label_1
_geom_bond_atom_site_label_2
_geom_bond_distance
_geom_bond_site_symmetry_2
N0 Pd1 2.070866 1_455
N0 Pd4 2.070866 1_445
N0 Pd11 2.070866 1_555
N0 Pd10 2.070866 1_445
N0 Pd5 2.070866 1_555
N0 Pd0 2.070866 1_545
N1 Pd9 2.070866 1_545
N1 Pd0 2.070866 1_544
N1 Pd6 2.070866 1_544
N1 Pd7 2.070866 1_555
N1 Pd1 2.070866 1_555
N1 Pd8 2.070866 1_554
N2 Pd5 2.070866 1_554
N2 Pd8 2.070866 1_454
N2 Pd3 2.070866 1_555
N2 Pd2 2.070866 1_454
N2 Pd9 2.070866 1_555
N2 Pd4 2.070866 1_455
N3 Pd3 2.070866 1_555
N3 Pd10 2.070866 1_555
N3 Pd7 2.070866 1_555
N3 Pd6 2.070866 1_555
N3 Pd11 2.070866 1_555
N3 Pd2 2.070866 1_555
