# generated using pymatgen
data_SrCaGdBiO6
_symmetry_space_group_name_H-M   'P 1'
_cell_length_a   8.53944167
_cell_length_b   8.54037437
_cell_length_c   8.52631700
_cell_angle_alpha   90.00000000
_cell_angle_beta   90.00000000
_cell_angle_gamma   90.00000000
_symmetry_Int_Tables_number   1
_chemical_formula_structural   SrCaGdBiO6
_chemical_formula_sum   'Sr4 Ca4 Gd4 Bi4 O24'
_cell_volume   621.82454413
_cell_formula_units_Z   4
loop_
 _symmetry_equiv_pos_site_id
 _symmetry_equiv_pos_as_xyz
  1  'x, y, z'
loop_
 _atom_site_type_symbol
 _atom_site_label
 _atom_site_symmetry_multiplicity
 _atom_site_fract_x
 _atom_site_fract_y
 _atom_site_fract_z
 _atom_site_occupancy
  Sr  Sr0  1  0.50000000  -0.00000000  0.50000000  1
  Sr  Sr1  1  0.50000000  -0.00000000  -0.00000000  1
  Sr  Sr2  1  -0.00000000  0.50000000  -0.00000000  1
  Sr  Sr3  1  -0.00000000  -0.00000000  0.50000000  1
  Ca  Ca0  1  -0.00000000  0.50000000  0.50000000  1
  Ca  Ca1  1  0.50000000  0.50000000  -0.00000000  1
  Ca  Ca2  1  -0.00000000  -0.00000000  0.00000000  1
  Ca  Ca3  1  0.50000000  0.50000000  0.50000000  1
  Gd  Gd0  1  0.24972578  0.25210689  0.25027312  1
  Gd  Gd1  1  0.75027422  0.74789311  0.25027312  1
  Gd  Gd2  1  0.75027422  0.25210689  0.74972688  1
  Gd  Gd3  1  0.24972578  0.74789311  0.74972688  1
  Bi  Bi0  1  0.75051537  0.74762542  0.74977027  1
  Bi  Bi1  1  0.24948463  0.25237458  0.74977027  1
  Bi  Bi2  1  0.24948463  0.74762542  0.25022973  1
  Bi  Bi3  1  0.75051537  0.25237458  0.25022973  1
  O  O0  1  0.99260509  0.20125214  0.28467027  1
  O  O1  1  0.00739491  0.79874786  0.28467027  1
  O  O2  1  0.00739491  0.20125214  0.71532973  1
  O  O3  1  0.99260509  0.79874786  0.71532973  1
  O  O4  1  0.28722494  0.99155637  0.20420701  1
  O  O5  1  0.28722494  0.00844363  0.79579299  1
  O  O6  1  0.71277506  0.00844363  0.20420701  1
  O  O7  1  0.71277506  0.99155637  0.79579299  1
  O  O8  1  0.20170859  0.28728810  0.99261280  1
  O  O9  1  0.79829141  0.28728810  0.00738720  1
  O  O10  1  0.20170859  0.71271190  0.00738720  1
  O  O11  1  0.79829141  0.71271190  0.99261280  1
  O  O12  1  0.50887831  0.30923623  0.20558632  1
  O  O13  1  0.49112169  0.69076377  0.20558632  1
  O  O14  1  0.49112169  0.30923623  0.79441368  1
  O  O15  1  0.50887831  0.69076377  0.79441368  1
  O  O16  1  0.20321999  0.50772050  0.30737117  1
  O  O17  1  0.20321999  0.49227950  0.69262883  1
  O  O18  1  0.79678001  0.49227950  0.30737117  1
  O  O19  1  0.79678001  0.50772050  0.69262883  1
  O  O20  1  0.30141649  0.21445800  0.50791266  1
  O  O21  1  0.69858351  0.21445800  0.49208734  1
  O  O22  1  0.30141649  0.78554200  0.49208734  1
  O  O23  1  0.69858351  0.78554200  0.50791266  1
loop_
_geom_bond_atom_site_label_1
_geom_bond_atom_site_label_2
_geom_bond_distance
_geom_bond_site_symmetry_2
Ca0 O19 2.390279 1_455
Ca0 O17 2.390279 1_555
Ca0 O16 2.390279 1_555
Ca0 O18 2.390279 1_455
Ca1 O14 2.394297 1_554
Ca1 O15 2.394297 1_554
Ca1 O13 2.394297 1_555
Ca1 O12 2.394297 1_555
Ca2 O2 2.974794 1_554
Ca2 O1 2.974794 1_545
Ca2 O0 2.974794 1_455
Ca2 O3 2.974794 1_444
Ca2 O8 2.998466 1_554
Ca2 O9 2.998466 1_455
Ca2 O11 2.998466 1_444
Ca2 O10 2.998466 1_545
Ca2 O5 3.008768 1_554
Ca2 O7 3.008768 1_444
Ca2 O6 3.008768 1_455
Ca2 O4 3.008768 1_545
Ca3 O23 2.971062 1_555
Ca3 O22 2.971062 1_555
Ca3 O20 2.971062 1_555
Ca3 O21 2.971062 1_555
Ca3 O15 2.993568 1_555
Ca3 O14 2.993568 1_555
Ca3 O13 2.993568 1_555
Ca3 O12 2.993568 1_555
Ca3 O19 3.020717 1_555
Ca3 O16 3.020717 1_555
Ca3 O17 3.020717 1_555
Ca3 O18 3.020717 1_555
Gd0 O8 2.254939 1_554
Gd0 O0 2.257344 1_455
Gd0 O20 2.263579 1_555
Gd0 O16 2.271645 1_555
Gd0 O4 2.282175 1_545
Gd0 O12 2.297971 1_555
Gd1 O11 2.254939 1_554
Gd1 O1 2.257344 1_655
Gd1 O23 2.263579 1_555
Gd1 O18 2.271645 1_555
Gd1 O6 2.282175 1_565
Gd1 O13 2.297971 1_555
Gd2 O9 2.254939 1_556
Gd2 O2 2.257344 1_655
Gd2 O21 2.263579 1_555
Gd2 O19 2.271645 1_555
Gd2 O7 2.282175 1_545
Gd2 O14 2.297971 1_555
Gd3 O10 2.254939 1_556
Gd3 O3 2.257344 1_455
Gd3 O22 2.263579 1_555
Gd3 O17 2.271645 1_555
Gd3 O5 2.282175 1_565
Gd3 O15 2.297971 1_555
Bi0 O11 2.131324 1_555
Bi0 O3 2.133220 1_555
Bi0 O23 2.134012 1_555
Bi0 O19 2.142744 1_555
Bi0 O7 2.144254 1_555
Bi0 O15 2.153723 1_555
Bi1 O8 2.131324 1_555
Bi1 O2 2.133220 1_555
Bi1 O20 2.134012 1_555
Bi1 O17 2.142744 1_555
Bi1 O5 2.144254 1_555
Bi1 O14 2.153723 1_555
Bi2 O10 2.131324 1_555
Bi2 O1 2.133220 1_555
Bi2 O22 2.134012 1_555
Bi2 O16 2.142744 1_555
Bi2 O4 2.144254 1_555
Bi2 O13 2.153723 1_555
Bi3 O9 2.131324 1_555
Bi3 O0 2.133220 1_555
Bi3 O21 2.134012 1_555
Bi3 O18 2.142744 1_555
Bi3 O6 2.144254 1_555
Bi3 O12 2.153723 1_555
O0 Sr3 2.515738 1_655
O1 Sr3 2.515738 1_565
O2 Sr3 2.515738 1_555
O3 Sr3 2.515738 1_665
O4 Sr1 2.517571 1_565
O4 Sr0 3.109216 1_565
O5 Sr1 2.517571 1_556
O5 Sr0 3.109216 1_555
O6 Sr1 2.517571 1_555
O6 Sr0 3.109216 1_555
O7 Sr1 2.517571 1_566
O7 Sr0 3.109216 1_565
O8 Sr2 2.504212 1_556
O9 Sr2 2.504212 1_655
O10 Sr2 2.504212 1_555
O11 Sr2 2.504212 1_656
O20 Sr0 2.496967 1_555
O20 Sr3 3.159785 1_555
O21 Sr0 2.496967 1_555
O21 Sr3 3.159785 1_655
O22 Sr0 2.496967 1_565
O22 Sr3 3.159785 1_565
O23 Sr0 2.496967 1_565
O23 Sr3 3.159785 1_665
