# generated using pymatgen
data_Al2O3
_symmetry_space_group_name_H-M   'P 1'
_cell_length_a   10.57881240
_cell_length_b   10.50506360
_cell_length_c   10.18303842
_cell_angle_alpha   89.57302067
_cell_angle_beta   95.25196330
_cell_angle_gamma   88.96079304
_symmetry_Int_Tables_number   1
_chemical_formula_structural   Al2O3
_chemical_formula_sum   'Al40 O60'
_cell_volume   1126.66877546
_cell_formula_units_Z   20
loop_
 _symmetry_equiv_pos_site_id
 _symmetry_equiv_pos_as_xyz
  1  'x, y, z'
loop_
 _atom_site_type_symbol
 _atom_site_label
 _atom_site_symmetry_multiplicity
 _atom_site_fract_x
 _atom_site_fract_y
 _atom_site_fract_z
 _atom_site_occupancy
  Al  Al0  1  0.57361100  0.52109400  0.76919300  1
  Al  Al1  1  0.72351300  0.66182100  0.55114500  1
  Al  Al2  1  0.31866300  0.02252100  0.57911000  1
  Al  Al3  1  0.53493400  0.56572600  0.03486200  1
  Al  Al4  1  0.82432500  0.45278300  0.33200400  1
  Al  Al5  1  0.15769600  0.74565100  0.52831200  1
  Al  Al6  1  0.39309300  0.34922400  0.51336600  1
  Al  Al7  1  0.97531000  0.22108100  0.31313000  1
  Al  Al8  1  0.30781800  0.42094500  0.21072700  1
  Al  Al9  1  0.86939100  0.44299100  0.78617400  1
  Al  Al10  1  0.41631400  0.63581200  0.34564100  1
  Al  Al11  1  0.22191200  0.56271600  0.98558700  1
  Al  Al12  1  0.56368700  0.36604100  0.29230200  1
  Al  Al13  1  0.91084800  0.89537900  0.70432600  1
  Al  Al14  1  0.67321400  0.78375900  0.85177200  1
  Al  Al15  1  0.12029100  0.77130200  0.79403800  1
  Al  Al16  1  0.53144200  0.10134000  0.32213200  1
  Al  Al17  1  0.19365000  0.49836100  0.69442100  1
  Al  Al18  1  0.38200900  0.73281900  0.83221100  1
  Al  Al19  1  0.63458100  0.97050300  0.60296700  1
  Al  Al20  1  0.73059900  0.15988800  0.81115300  1
  Al  Al21  1  0.99151000  0.42547700  0.10329100  1
  Al  Al22  1  0.97895500  0.48124300  0.53138300  1
  Al  Al23  1  0.00286500  0.81214800  0.24000400  1
  Al  Al24  1  0.28918500  0.88126700  0.33895400  1
  Al  Al25  1  0.68446600  0.36722500  0.59214200  1
  Al  Al26  1  0.83335800  0.00582800  0.97898500  1
  Al  Al27  1  0.75194400  0.23355400  0.15343600  1
  Al  Al28  1  0.47107000  0.02408900  0.85421000  1
  Al  Al29  1  0.48114700  0.75358800  0.57304300  1
  Al  Al30  1  0.77084700  0.99037000  0.37884200  1
  Al  Al31  1  0.50613600  0.86416500  0.15331200  1
  Al  Al32  1  0.74957500  0.80574500  0.15879800  1
  Al  Al33  1  0.38004200  0.35024400  0.82652400  1
  Al  Al34  1  0.36574000  0.14335200  0.05622500  1
  Al  Al35  1  0.20304000  0.99300700  0.86419600  1
  Al  Al36  1  0.11068100  0.03941500  0.14290400  1
  Al  Al37  1  0.28032900  0.19689700  0.33727600  1
  Al  Al38  1  0.92501900  0.66886900  0.95688300  1
  Al  Al39  1  0.13657500  0.54547400  0.33684600  1
  O  O0  1  0.11813000  0.14037800  0.28526400  1
  O  O1  1  0.22642800  0.37182700  0.35563900  1
  O  O2  1  0.00642800  0.45900300  0.70293300  1
  O  O3  1  0.66078900  0.79089200  0.66054700  1
  O  O4  1  0.69645600  0.38105800  0.42643100  1
  O  O5  1  0.83482800  0.02570700  0.80434400  1
  O  O6  1  0.94551700  0.34281000  0.43323500  1
  O  O7  1  0.30070600  0.17626900  0.51547900  1
  O  O8  1  0.59255900  0.20751500  0.20152600  1
  O  O9  1  0.13157000  0.54040300  0.51985200  1
  O  O10  1  0.41541800  0.19887200  0.90363200  1
  O  O11  1  0.05624400  0.93930900  0.80029600  1
  O  O12  1  0.81054400  0.93867500  0.55736500  1
  O  O13  1  0.90345300  0.49301800  0.95134700  1
  O  O14  1  0.23115500  0.66896700  0.71325500  1
  O  O15  1  0.59462700  0.07599600  0.74558400  1
  O  O16  1  0.64014100  0.07090000  0.46185200  1
  O  O17  1  0.32154500  0.25416100  0.16914400  1
  O  O18  1  0.78793100  0.29733600  0.73275500  1
  O  O19  1  0.20953000  0.91651200  0.49462900  1
  O  O20  1  0.83394600  0.13083800  0.30151700  1
  O  O21  1  0.96142700  0.98712200  0.08952100  1
  O  O22  1  0.08851900  0.66628600  0.92933900  1
  O  O23  1  0.85343800  0.76441500  0.82531200  1
  O  O24  1  0.53795000  0.37351700  0.65200300  1
  O  O25  1  0.62929900  0.94604500  0.25091600  1
  O  O26  1  0.57825700  0.68352100  0.45233400  1
  O  O27  1  0.73215600  0.52544800  0.68020400  1
  O  O28  1  0.08249400  0.71298700  0.36429200  1
  O  O29  1  0.36705300  0.03689300  0.30161200  1
  O  O30  1  0.72266200  0.88520700  0.99863300  1
  O  O31  1  0.26886700  0.58775800  0.24562900  1
  O  O32  1  0.45000200  0.47645700  0.40570800  1
  O  O33  1  0.02285800  0.77312500  0.63431500  1
  O  O34  1  0.84459100  0.57895000  0.46603400  1
  O  O35  1  0.93089800  0.27777500  0.14503500  1
  O  O36  1  0.90142300  0.72394700  0.11475600  1
  O  O37  1  0.33100100  0.71881100  0.47329400  1
  O  O38  1  0.15525000  0.44671200  0.08861400  1
  O  O39  1  0.60351200  0.71561500  0.13489100  1
  O  O40  1  0.40467200  0.79197300  0.25653500  1
  O  O41  1  0.51255100  0.43633300  0.89944200  1
  O  O42  1  0.24106800  0.44577100  0.86276000  1
  O  O43  1  0.74857900  0.16065300  0.98771600  1
  O  O44  1  0.31558300  0.03376700  0.75252000  1
  O  O45  1  0.26071700  0.83654200  0.88406600  1
  O  O46  1  0.37728600  0.63582400  0.97912600  1
  O  O47  1  0.85341400  0.86167400  0.29944600  1
  O  O48  1  0.47202700  0.46638100  0.16311000  1
  O  O49  1  0.72370700  0.40687500  0.19138700  1
  O  O50  1  0.20357300  0.08194100  0.01138500  1
  O  O51  1  0.46486800  0.92554300  0.56800200  1
  O  O52  1  0.46666600  0.64380900  0.70671300  1
  O  O53  1  0.50885300  0.85118000  0.84264700  1
  O  O54  1  0.30951000  0.38375500  0.65669100  1
  O  O55  1  0.97656800  0.50539200  0.25548900  1
  O  O56  1  0.45203600  0.99437500  0.03694600  1
  O  O57  1  0.64780600  0.62253700  0.90595300  1
  O  O58  1  0.46732800  0.25192300  0.38754500  1
  O  O59  1  0.15253800  0.89019700  0.21831400  1
loop_
_geom_bond_atom_site_label_1
_geom_bond_atom_site_label_2
_geom_bond_distance
_geom_bond_site_symmetry_2
Al0 O41 1.768996 1_555
Al0 O52 1.774740 1_555
Al0 O57 1.882412 1_555
Al0 O27 1.979070 1_555
Al0 O24 1.983991 1_555
Al1 O26 1.768181 1_555
Al1 O34 1.823092 1_555
Al1 O3 1.909204 1_555
Al1 O27 1.932115 1_555
Al2 O7 1.736470 1_555
Al2 O44 1.773898 1_555
Al2 O19 1.786673 1_545
Al2 O51 1.849179 1_545
Al3 O48 1.844321 1_555
Al3 O46 1.849769 1_554
Al3 O41 1.945547 1_554
Al3 O57 1.950948 1_554
Al3 O39 1.993303 1_555
Al4 O49 1.779273 1_555
Al4 O4 1.893781 1_555
Al4 O34 1.910261 1_555
Al4 O6 1.930689 1_555
Al4 O55 1.939584 1_555
Al5 O28 1.820843 1_555
Al5 O33 1.885406 1_555
Al5 O19 1.923790 1_555
Al5 O37 1.981473 1_555
Al5 O14 2.118099 1_555
Al5 O9 2.180089 1_555
Al6 O54 1.809976 1_555
Al6 O58 1.864860 1_555
Al6 O32 1.865190 1_555
Al6 O24 2.007474 1_555
Al6 O7 2.079539 1_555
Al6 O1 2.281525 1_555
Al7 O0 1.765671 1_655
Al7 O20 1.780403 1_555
Al7 O6 1.819247 1_555
Al7 O35 1.825610 1_555
Al8 O17 1.811973 1_555
Al8 O31 1.837619 1_555
Al8 O1 1.849993 1_555
Al8 O48 1.913481 1_555
Al8 O38 1.958620 1_555
Al8 O32 2.459074 1_555
Al9 O2 1.755015 1_655
Al9 O13 1.773166 1_555
Al9 O18 1.831443 1_555
Al9 O27 1.917317 1_555
Al10 O32 1.796308 1_555
Al10 O37 1.862150 1_555
Al10 O31 1.862914 1_555
Al10 O40 1.865394 1_555
Al10 O26 2.016191 1_555
Al11 O42 1.781844 1_555
Al11 O38 1.797388 1_556
Al11 O22 1.813891 1_555
Al11 O46 1.833208 1_555
Al12 O48 1.868355 1_555
Al12 O4 1.877015 1_555
Al12 O58 1.903914 1_555
Al12 O8 1.943515 1_555
Al12 O32 2.085432 1_555
Al12 O49 2.108055 1_555
Al13 O12 1.803879 1_555
Al13 O11 1.814141 1_655
Al13 O33 1.916981 1_655
Al13 O5 1.920754 1_565
Al13 O23 1.980277 1_555
Al14 O57 1.809648 1_555
Al14 O53 1.859643 1_555
Al14 O30 1.883253 1_555
Al14 O3 1.940436 1_555
Al14 O23 1.956951 1_555
Al15 O22 1.817652 1_555
Al15 O45 1.820427 1_555
Al15 O14 1.830833 1_555
Al15 O33 1.843926 1_555
Al15 O11 1.882627 1_555
Al16 O16 1.768952 1_555
Al16 O8 1.822501 1_555
Al16 O58 1.861604 1_555
Al16 O29 1.872050 1_555
Al16 O25 2.086335 1_545
Al17 O54 1.771699 1_555
Al17 O42 1.820369 1_555
Al17 O14 1.850206 1_555
Al17 O9 1.884257 1_555
Al17 O2 2.040044 1_555
Al18 O45 1.787289 1_555
Al18 O46 1.808779 1_555
Al18 O53 1.842357 1_555
Al18 O52 1.872563 1_555
Al18 O14 2.039867 1_555
Al19 O16 1.782091 1_565
Al19 O51 1.867996 1_555
Al19 O15 1.906633 1_565
Al19 O3 1.978774 1_555
Al19 O12 1.982555 1_555
Al20 O5 1.779485 1_555
Al20 O15 1.780582 1_555
Al20 O18 1.786967 1_555
Al20 O43 1.790677 1_555
Al21 O35 1.753714 1_555
Al21 O38 1.770153 1_655
Al21 O55 1.786391 1_555
Al21 O13 1.860369 1_554
Al22 O9 1.754024 1_655
Al22 O2 1.757618 1_655
Al22 O6 1.792890 1_555
Al22 O34 1.811217 1_555
Al23 O28 1.774792 1_555
Al23 O47 1.812935 1_455
Al23 O59 1.826605 1_555
Al23 O36 1.854697 1_455
Al23 O21 2.392657 1_455
Al24 O40 1.798546 1_555
Al24 O59 1.809938 1_555
Al24 O29 1.895484 1_565
Al24 O19 1.897929 1_555
Al24 O37 2.192404 1_555
Al25 O4 1.709053 1_555
Al25 O24 1.717028 1_555
Al25 O18 1.858912 1_555
Al25 O27 1.947098 1_555
Al26 O21 1.687890 1_546
Al26 O30 1.763493 1_545
Al26 O5 1.790564 1_555
Al26 O43 1.849712 1_555
Al27 O8 1.823040 1_555
Al27 O43 1.856013 1_554
Al27 O49 1.888278 1_555
Al27 O35 1.966719 1_555
Al27 O20 1.973063 1_555
Al28 O53 1.859697 1_545
Al28 O44 1.862460 1_555
Al28 O15 1.873744 1_555
Al28 O56 1.913845 1_546
Al28 O10 1.999993 1_555
Al29 O52 1.796491 1_555
Al29 O51 1.811376 1_555
Al29 O26 1.823532 1_555
Al29 O37 1.849145 1_555
Al29 O3 2.069126 1_555
Al30 O47 1.829516 1_555
Al30 O20 1.832398 1_565
Al30 O16 1.877310 1_565
Al30 O12 1.900870 1_555
Al30 O25 1.957867 1_555
Al31 O40 1.748233 1_555
Al31 O25 1.800453 1_555
Al31 O56 1.850950 1_555
Al31 O39 1.874303 1_555
Al32 O30 1.823184 1_554
Al32 O39 1.825085 1_555
Al32 O47 1.830596 1_555
Al32 O36 1.899346 1_555
Al32 O25 2.200503 1_555
Al33 O10 1.786404 1_555
Al33 O41 1.788765 1_555
Al33 O42 1.831925 1_555
Al33 O54 1.848433 1_555
Al34 O17 1.730437 1_555
Al34 O10 1.782680 1_554
Al34 O56 1.818454 1_545
Al34 O50 1.862489 1_555
Al35 O11 1.733625 1_555
Al35 O45 1.746699 1_555
Al35 O50 1.771688 1_566
Al35 O44 1.775705 1_565
Al36 O21 1.723102 1_445
Al36 O59 1.771320 1_545
Al36 O50 1.790759 1_555
Al36 O0 1.799353 1_555
Al37 O7 1.818572 1_555
Al37 O0 1.858098 1_555
Al37 O17 1.901074 1_555
Al37 O1 1.929688 1_555
Al37 O29 1.952691 1_555
Al37 O58 2.090470 1_555
Al38 O36 1.750325 1_556
Al38 O23 1.772727 1_555
Al38 O22 1.777152 1_655
Al38 O13 1.866099 1_555
Al39 O31 1.809161 1_555
Al39 O9 1.869538 1_555
Al39 O28 1.871410 1_555
Al39 O55 1.871670 1_455
Al39 O1 2.041164 1_555
