# generated using pymatgen
data_Ce3Al11
_symmetry_space_group_name_H-M   'P 1'
_cell_length_a   8.48992565
_cell_length_b   8.46692818
_cell_length_c   8.46563231
_cell_angle_alpha   150.17014382
_cell_angle_beta   107.53682878
_cell_angle_gamma   80.25326523
_symmetry_Int_Tables_number   1
_chemical_formula_structural   Ce3Al11
_chemical_formula_sum   'Ce3 Al11'
_cell_volume   283.14097328
_cell_formula_units_Z   1
loop_
 _symmetry_equiv_pos_site_id
 _symmetry_equiv_pos_as_xyz
  1  'x, y, z'
loop_
 _atom_site_type_symbol
 _atom_site_label
 _atom_site_symmetry_multiplicity
 _atom_site_fract_x
 _atom_site_fract_y
 _atom_site_fract_z
 _atom_site_occupancy
  Ce  Ce0  1  0.31700515  0.31499679  0.00138716  1
  Ce  Ce1  1  0.68534339  0.68595847  -0.00011274  1
  Ce  Ce2  1  0.00004427  0.99994705  0.00024427  1
  Al  Al0  1  0.70341756  0.33533875  0.36787501  1
  Al  Al1  1  0.29549191  0.66430802  0.63122349  1
  Al  Al2  1  0.96732028  0.33516426  0.63186741  1
  Al  Al3  1  0.03206114  0.66460508  0.36812779  1
  Al  Al4  1  0.71277784  0.50056479  0.21280205  1
  Al  Al5  1  0.28750053  0.49943264  0.78723616  1
  Al  Al6  1  0.41202318  0.13629642  0.27582241  1
  Al  Al7  1  0.58800007  0.86368072  0.72383707  1
  Al  Al8  1  0.85999355  0.13682357  0.72431842  1
  Al  Al9  1  0.13917131  0.86264516  0.27566149  1
  Al  Al10  1  0.49984983  0.00023727  0.49970701  1
loop_
_geom_bond_atom_site_label_1
_geom_bond_atom_site_label_2
_geom_bond_distance
_geom_bond_site_symmetry_2
Al0 Al7 2.638029 1_555
Al0 Al7 2.638740 1_544
Al0 Al4 2.640785 1_555
Al0 Al2 2.646049 1_555
Al0 Al6 2.745711 1_555
Al0 Ce1 3.199793 1_545
Al0 Ce1 3.200869 1_556
Al0 Ce2 3.325672 1_645
Al0 Ce2 3.327646 1_656
Al1 Al3 2.639811 1_555
Al1 Al6 2.641242 1_566
Al1 Al6 2.641329 1_555
Al1 Al5 2.642489 1_555
Al1 Al7 2.753393 1_555
Al1 Ce0 3.201216 1_566
Al1 Ce0 3.202150 1_555
Al1 Ce2 3.321534 1_556
Al1 Ce2 3.322202 1_545
Al2 Al9 2.638412 1_656
Al2 Al9 2.640336 1_645
Al2 Al5 2.646718 1_655
Al2 Al8 2.737021 1_555
Al2 Ce1 3.206609 1_545
Al2 Ce1 3.208038 1_556
Al2 Ce2 3.319824 1_645
Al2 Ce2 3.322145 1_656
Al3 Al8 2.638855 1_454
Al3 Al4 2.638940 1_455
Al3 Al8 2.640419 1_465
Al3 Al9 2.733842 1_555
Al3 Ce0 3.223585 1_566
Al3 Ce0 3.226475 1_555
Al3 Ce2 3.320429 1_556
Al3 Ce2 3.323003 1_545
Al4 Al8 2.804033 1_554
Al4 Al7 2.805857 1_555
Al4 Al8 2.806925 1_565
Al4 Al7 2.810490 1_544
Al4 Ce0 3.201012 1_555
Al4 Ce1 3.209248 1_555
Al4 Ce2 3.613117 1_656
Al4 Ce2 3.614380 1_645
Al5 Al6 2.806644 1_555
Al5 Al6 2.810790 1_566
Al5 Al9 2.811525 1_556
Al5 Al9 2.812638 1_545
Al5 Ce0 3.208407 1_556
Al5 Ce1 3.217534 1_556
Al5 Ce2 3.610967 1_545
Al5 Ce2 3.613640 1_556
Al6 Ce1 3.193308 1_545
Al6 Ce1 3.194750 1_556
Al6 Ce2 3.284197 1_545
Al6 Ce0 3.590800 1_555
Al7 Ce0 3.181079 1_566
Al7 Ce0 3.181723 1_555
Al7 Ce2 3.285363 1_656
Al7 Ce1 3.595117 1_556
Al8 Ce1 3.192159 1_556
Al8 Ce1 3.193672 1_545
Al8 Ce2 3.281734 1_646
Al8 Ce0 3.631794 1_656
Al9 Ce0 3.199045 1_555
Al9 Ce0 3.199371 1_566
Al9 Ce2 3.280412 1_555
Al9 Ce1 3.606230 1_455
Al10 Al6 2.849755 1_555
Al10 Al7 2.855628 1_545
Al10 Al8 2.860099 1_555
Al10 Al9 2.864500 1_545
Al10 Al5 3.042064 1_555
Al10 Al5 3.044869 1_544
Al10 Al4 3.048612 1_545
Al10 Al4 3.050065 1_556
Al10 Ce0 3.237912 1_556
Al10 Ce0 3.241191 1_545
Al10 Ce1 3.244439 1_545
Al10 Ce1 3.246815 1_556
