# generated using pymatgen
data_Sr2(BO2)11
_symmetry_space_group_name_H-M   'P 1'
_cell_length_a   20.95310800
_cell_length_b   6.71541000
_cell_length_c   6.74694107
_cell_angle_alpha   60.48476557
_cell_angle_beta   90.00000000
_cell_angle_gamma   90.00000000
_symmetry_Int_Tables_number   1
_chemical_formula_structural   Sr2(BO2)11
_chemical_formula_sum   'Sr4 B22 O44'
_cell_volume   826.15079384
_cell_formula_units_Z   2
loop_
 _symmetry_equiv_pos_site_id
 _symmetry_equiv_pos_as_xyz
  1  'x, y, z'
loop_
 _atom_site_type_symbol
 _atom_site_label
 _atom_site_symmetry_multiplicity
 _atom_site_fract_x
 _atom_site_fract_y
 _atom_site_fract_z
 _atom_site_occupancy
  Sr  Sr0  1  0.50599600  0.01824400  0.93099200  1
  Sr  Sr1  1  0.00599600  0.98175600  0.06900800  1
  Sr  Sr2  1  0.89404600  0.30651200  0.38056400  1
  Sr  Sr3  1  0.39404600  0.69348800  0.61943600  1
  B  B0  1  0.51800100  0.12374800  0.33970000  1
  B  B1  1  0.01800100  0.87625200  0.66030000  1
  B  B2  1  0.54197800  0.51911700  0.02695600  1
  B  B3  1  0.04197800  0.48088300  0.97304400  1
  B  B4  1  0.52220700  0.43517700  0.42487900  1
  B  B5  1  0.02220700  0.56482300  0.57512100  1
  B  B6  1  0.53835000  0.69665800  0.60313100  1
  B  B7  1  0.03835000  0.30334200  0.39686900  1
  B  B8  1  0.64025200  0.61730600  0.79467800  1
  B  B9  1  0.14025200  0.38269400  0.20532200  1
  B  B10  1  0.87856400  0.41363100  0.78717100  1
  B  B11  1  0.37856400  0.58636900  0.21282900  1
  B  B12  1  0.85254100  0.80519300  0.47127700  1
  B  B13  1  0.35254100  0.19480700  0.52872300  1
  B  B14  1  0.87237400  0.72555300  0.86987100  1
  B  B15  1  0.37237400  0.27444700  0.13012900  1
  B  B16  1  0.86092300  0.98725200  0.04726500  1
  B  B17  1  0.36092300  0.01274800  0.95273500  1
  B  B18  1  0.75643700  0.91577500  0.22213700  1
  B  B19  1  0.25643700  0.08422500  0.77786300  1
  B  B20  1  0.71177900  0.29573800  0.45529400  1
  B  B21  1  0.21177900  0.70426200  0.54470600  1
  O  O0  1  0.50899300  0.89767100  0.40203500  1
  O  O1  1  0.00899300  0.10232900  0.59796500  1
  O  O2  1  0.52098400  0.27733200  0.11131300  1
  O  O3  1  0.02098400  0.72266800  0.88868700  1
  O  O4  1  0.51865000  0.19924400  0.49773200  1
  O  O5  1  0.01865000  0.80075600  0.50226800  1
  O  O6  1  0.52489300  0.59008000  0.19805800  1
  O  O7  1  0.02489300  0.40992000  0.80194200  1
  O  O8  1  0.61158700  0.53071900  0.00326900  1
  O  O9  1  0.11158700  0.46928100  0.99673100  1
  O  O10  1  0.51051200  0.67931500  0.81282600  1
  O  O11  1  0.01051200  0.32068500  0.18717400  1
  O  O12  1  0.51581200  0.48640800  0.59628000  1
  O  O13  1  0.01581200  0.51359200  0.40372000  1
  O  O14  1  0.60730400  0.71210700  0.59472400  1
  O  O15  1  0.10730400  0.28789300  0.40527600  1
  O  O16  1  0.70607100  0.59649400  0.80758500  1
  O  O17  1  0.20607100  0.40350600  0.19241500  1
  O  O18  1  0.89092800  0.18891500  0.85145600  1
  O  O19  1  0.39092800  0.81108500  0.14854400  1
  O  O20  1  0.87693800  0.56736500  0.55922600  1
  O  O21  1  0.37693800  0.43263500  0.44077400  1
  O  O22  1  0.87234900  0.48847200  0.94582600  1
  O  O23  1  0.37234900  0.51152800  0.05417400  1
  O  O24  1  0.86691400  0.87840700  0.64368800  1
  O  O25  1  0.36691400  0.12159300  0.35631200  1
  O  O26  1  0.78273300  0.80785900  0.43617700  1
  O  O27  1  0.28273300  0.19214100  0.56382300  1
  O  O28  1  0.88478200  0.96887200  0.26059000  1
  O  O29  1  0.38478200  0.03112800  0.73941000  1
  O  O30  1  0.88318400  0.77772800  0.03958200  1
  O  O31  1  0.38318400  0.22227200  0.96041800  1
  O  O32  1  0.79173400  0.00093200  0.02616800  1
  O  O33  1  0.29173400  0.99906800  0.97383200  1
  O  O34  1  0.69029200  0.95655900  0.19715600  1
  O  O35  1  0.19029200  0.04344100  0.80284400  1
  O  O36  1  0.65127300  0.26796100  0.50001000  1
  O  O37  1  0.15127300  0.73203900  0.49999000  1
  O  O38  1  0.77383600  0.25698200  0.54336600  1
  O  O39  1  0.27383600  0.74301800  0.45663400  1
  O  O40  1  0.75819700  0.39108000  0.28072000  1
  O  O41  1  0.25819700  0.60892000  0.71928000  1
  O  O42  1  0.63658600  0.05264700  0.85752200  1
  O  O43  1  0.13658600  0.94735300  0.14247800  1
loop_
_geom_bond_atom_site_label_1
_geom_bond_atom_site_label_2
_geom_bond_distance
_geom_bond_site_symmetry_2
B0 O2 1.369724 1_555
B0 O0 1.374156 1_545
B0 O4 1.388055 1_555
B1 O3 1.369724 1_555
B1 O1 1.374156 1_565
B1 O5 1.388055 1_555
B2 O8 1.465141 1_555
B2 O10 1.465556 1_554
B2 O6 1.493309 1_555
B2 O2 1.497746 1_555
B3 O9 1.465141 1_555
B3 O11 1.465556 1_556
B3 O7 1.493309 1_555
B3 O3 1.497746 1_555
B4 O6 1.363336 1_555
B4 O12 1.365893 1_555
B4 O4 1.410710 1_555
B5 O7 1.363336 1_555
B5 O13 1.365893 1_555
B5 O5 1.410710 1_555
B6 O14 1.447630 1_555
B6 O10 1.480911 1_555
B6 O0 1.495602 1_555
B6 O12 1.510946 1_555
B7 O15 1.447630 1_555
B7 O11 1.480911 1_555
B7 O1 1.495602 1_555
B7 O13 1.510946 1_555
B8 O14 1.362227 1_555
B8 O8 1.368642 1_556
B8 O16 1.384585 1_555
B9 O15 1.362227 1_555
B9 O9 1.368642 1_554
B9 O17 1.384585 1_555
B10 O20 1.366675 1_555
B10 O18 1.373896 1_555
B10 O22 1.394801 1_555
B11 O21 1.366675 1_555
B11 O19 1.373896 1_555
B11 O23 1.394801 1_555
B12 O28 1.464812 1_555
B12 O26 1.480439 1_555
B12 O20 1.493456 1_555
B12 O24 1.499698 1_555
B13 O29 1.464812 1_555
B13 O27 1.480439 1_555
B13 O21 1.493456 1_555
B13 O25 1.499698 1_555
B14 O24 1.360924 1_555
B14 O30 1.371298 1_556
B14 O22 1.411908 1_555
B15 O25 1.360924 1_555
B15 O31 1.371298 1_554
B15 O23 1.411908 1_555
B16 O32 1.455169 1_565
B16 O28 1.470263 1_555
B16 O18 1.487198 1_564
B16 O30 1.507274 1_555
B17 O33 1.455169 1_545
B17 O29 1.470263 1_555
B17 O19 1.487198 1_546
B17 O31 1.507274 1_555
B18 O32 1.370107 1_565
B18 O26 1.372248 1_555
B18 O34 1.406689 1_555
B19 O33 1.370107 1_545
B19 O27 1.372248 1_555
B19 O35 1.406689 1_555
B20 O36 1.295243 1_555
B20 O38 1.399713 1_555
B20 O40 1.414266 1_555
B21 O37 1.295243 1_555
B21 O39 1.399713 1_555
B21 O41 1.414266 1_555
O0 Sr3 2.801923 1_555
O0 Sr0 2.867817 1_564
O1 Sr2 2.801923 1_455
O1 Sr1 2.867817 1_546
O2 Sr0 2.586820 1_554
O3 Sr1 2.586820 1_556
O4 Sr0 2.567449 1_555
O5 Sr1 2.567449 1_555
O6 Sr0 2.562430 1_564
O7 Sr1 2.562430 1_546
O10 Sr3 2.746700 1_555
O10 Sr0 2.759150 1_565
O11 Sr2 2.746700 1_455
O11 Sr1 2.759150 1_545
O12 Sr0 2.833864 1_555
O12 Sr3 2.946496 1_555
O13 Sr1 2.833864 1_555
O13 Sr2 2.946496 1_455
O18 Sr1 2.809075 1_646
O18 Sr2 2.872217 1_555
O19 Sr0 2.809075 1_564
O19 Sr3 2.872217 1_555
O20 Sr2 2.594354 1_555
O21 Sr3 2.594354 1_555
O22 Sr2 2.602251 1_556
O23 Sr3 2.602251 1_554
O24 Sr2 2.590577 1_565
O25 Sr3 2.590577 1_545
O28 Sr2 2.764481 1_565
O28 Sr1 2.831735 1_655
O29 Sr3 2.764481 1_545
O29 Sr0 2.831735 1_555
O30 Sr2 2.860931 1_555
O30 Sr1 2.967581 1_655
O31 Sr3 2.860931 1_555
O31 Sr0 2.967581 1_555
O38 Sr2 2.702108 1_555
O39 Sr3 2.702108 1_555
O40 Sr2 2.915766 1_555
O41 Sr3 2.915766 1_555
O42 Sr0 2.770091 1_555
O43 Sr1 2.770091 1_555
