# generated using pymatgen
data_Li15Ni8(PO4)12
_symmetry_space_group_name_H-M   'P 1'
_cell_length_a   8.76539700
_cell_length_b   8.86776031
_cell_length_c   12.26930301
_cell_angle_alpha   89.90576860
_cell_angle_beta   89.89018846
_cell_angle_gamma   89.82512270
_symmetry_Int_Tables_number   1
_chemical_formula_structural   Li15Ni8(PO4)12
_chemical_formula_sum   'Li15 Ni8 P12 O48'
_cell_volume   953.67857256
_cell_formula_units_Z   1
loop_
 _symmetry_equiv_pos_site_id
 _symmetry_equiv_pos_as_xyz
  1  'x, y, z'
loop_
 _atom_site_type_symbol
 _atom_site_label
 _atom_site_symmetry_multiplicity
 _atom_site_fract_x
 _atom_site_fract_y
 _atom_site_fract_z
 _atom_site_occupancy
  Li  Li0  1  0.77229800  0.28277400  0.18034700  1
  Li  Li1  1  0.26408200  0.70391700  0.18277300  1
  Li  Li2  1  0.42835000  0.94570900  0.21294600  1
  Li  Li3  1  0.92541900  0.55375200  0.28669900  1
  Li  Li4  1  0.43002400  0.44282800  0.28653200  1
  Li  Li5  1  0.25788200  0.20490800  0.31521900  1
  Li  Li6  1  0.76412500  0.80502400  0.31303500  1
  Li  Li7  1  0.23965800  0.20300400  0.68364500  1
  Li  Li8  1  0.73919000  0.79810600  0.68377400  1
  Li  Li9  1  0.07198200  0.44368700  0.71323400  1
  Li  Li10  1  0.57096100  0.55768000  0.71345500  1
  Li  Li11  1  0.57027600  0.05854800  0.78547600  1
  Li  Li12  1  0.07206000  0.94445500  0.78734700  1
  Li  Li13  1  0.73989900  0.29715200  0.81674100  1
  Li  Li14  1  0.23990300  0.70222500  0.81661800  1
  Ni  Ni0  1  0.45464600  0.24992800  0.10967000  1
  Ni  Ni1  1  0.95341000  0.75095300  0.10932800  1
  Ni  Ni2  1  0.45425700  0.74943700  0.39146200  1
  Ni  Ni3  1  0.95274600  0.24449100  0.38846500  1
  Ni  Ni4  1  0.54635400  0.25102700  0.61047200  1
  Ni  Ni5  1  0.04717900  0.75160200  0.60966800  1
  Ni  Ni6  1  0.04639200  0.25108900  0.89291100  1
  Ni  Ni7  1  0.54643500  0.74855300  0.89160700  1
  P  P0  1  0.74765000  0.04316100  0.99705200  1
  P  P1  1  0.24980200  0.95264500  0.99993600  1
  P  P2  1  0.60841600  0.60225600  0.14975900  1
  P  P3  1  0.59999000  0.10701800  0.35176100  1
  P  P4  1  0.10705900  0.89439300  0.34920900  1
  P  P5  1  0.24941600  0.45136900  0.50007000  1
  P  P6  1  0.75042100  0.54830000  0.50031100  1
  P  P7  1  0.89531500  0.10594300  0.64936300  1
  P  P8  1  0.39461200  0.89435400  0.64924800  1
  P  P9  1  0.39526100  0.39387400  0.85151500  1
  P  P10  1  0.89511800  0.60546500  0.85117000  1
  P  P11  1  0.10627300  0.39776400  0.15072700  1
  O  O0  1  0.57889700  0.64992700  0.03336700  1
  O  O1  1  0.07183300  0.34553100  0.03601200  1
  O  O2  1  0.16158400  0.84261500  0.07625100  1
  O  O3  1  0.66085500  0.15055400  0.07673100  1
  O  O4  1  0.35376700  0.04391700  0.07589300  1
  O  O5  1  0.84920900  0.94328100  0.06671100  1
  O  O6  1  0.59879200  0.42814000  0.16813400  1
  O  O7  1  0.09627700  0.57241300  0.16357000  1
  O  O8  1  0.26692800  0.34719200  0.19019700  1
  O  O9  1  0.76707200  0.65556200  0.19131300  1
  O  O10  1  0.97910300  0.33848800  0.22953500  1
  O  O11  1  0.47894600  0.67091800  0.22412300  1
  O  O12  1  0.98193500  0.81766100  0.27901000  1
  O  O13  1  0.47235800  0.17683300  0.27757600  1
  O  O14  1  0.26804200  0.84543400  0.30857200  1
  O  O15  1  0.75881000  0.16330500  0.31555200  1
  O  O16  1  0.09522200  0.06766500  0.33930200  1
  O  O17  1  0.59098100  0.93383600  0.33070100  1
  O  O18  1  0.35395800  0.54352000  0.42372500  1
  O  O19  1  0.85453900  0.45476400  0.42528800  1
  O  O20  1  0.66261400  0.65844600  0.42315900  1
  O  O21  1  0.16045800  0.34294600  0.42347100  1
  O  O22  1  0.57040800  0.14622900  0.47032200  1
  O  O23  1  0.07818100  0.84534300  0.46700000  1
  O  O24  1  0.92243000  0.15069600  0.53212300  1
  O  O25  1  0.42064300  0.85063600  0.53175900  1
  O  O26  1  0.33853500  0.34356400  0.57745100  1
  O  O27  1  0.83946500  0.65711500  0.57691700  1
  O  O28  1  0.64515900  0.45692600  0.57630200  1
  O  O29  1  0.14501900  0.54455700  0.57565400  1
  O  O30  1  0.40778100  0.06732200  0.67021200  1
  O  O31  1  0.90884300  0.93213300  0.66873000  1
  O  O32  1  0.73479200  0.15574900  0.69082000  1
  O  O33  1  0.23374700  0.84479000  0.69074700  1
  O  O34  1  0.02293100  0.17654500  0.72327400  1
  O  O35  1  0.52220300  0.82105000  0.72217800  1
  O  O36  1  0.52313900  0.32289800  0.77707300  1
  O  O37  1  0.02314500  0.67612900  0.77686600  1
  O  O38  1  0.23447100  0.34476600  0.81051200  1
  O  O39  1  0.73467100  0.65535600  0.80945600  1
  O  O40  1  0.90853200  0.43187000  0.83166400  1
  O  O41  1  0.40861900  0.56727200  0.83170600  1
  O  O42  1  0.14625400  0.04496800  0.92381900  1
  O  O43  1  0.63927600  0.95860600  0.91968400  1
  O  O44  1  0.83825700  0.15598600  0.92409500  1
  O  O45  1  0.33840100  0.84229500  0.92374800  1
  O  O46  1  0.42259300  0.34753300  0.96815200  1
  O  O47  1  0.92196700  0.65083300  0.96759700  1
loop_
_geom_bond_atom_site_label_1
_geom_bond_atom_site_label_2
_geom_bond_distance
_geom_bond_site_symmetry_2
Li0 O15 1.970391 1_555
Li0 O10 1.976090 1_555
Li0 O3 1.990431 1_555
Li0 O6 1.996349 1_555
Li1 O7 1.895149 1_555
Li1 O11 1.972285 1_555
Li1 O14 1.991283 1_555
Li1 O2 2.005126 1_555
Li2 O4 2.002335 1_565
Li2 O17 2.033974 1_555
Li2 O14 2.034604 1_555
Li2 O13 2.233742 1_565
Li2 O11 2.479099 1_555
Li3 O19 2.010531 1_555
Li3 O9 2.026405 1_555
Li3 O10 2.086847 1_555
Li3 O7 2.131797 1_655
Li3 O12 2.395286 1_555
Li4 O18 2.017976 1_555
Li4 O8 2.043822 1_555
Li4 O6 2.075279 1_555
Li4 O11 2.204598 1_555
Li4 O13 2.389344 1_555
Li5 O16 1.899772 1_555
Li5 O13 1.950323 1_555
Li5 O8 1.986203 1_555
Li5 O21 1.996575 1_555
Li6 O17 1.908948 1_555
Li6 O12 1.957024 1_555
Li6 O9 1.998465 1_555
Li6 O20 2.074491 1_555
Li7 O30 1.906680 1_555
Li7 O34 1.974619 1_555
Li7 O26 1.999837 1_555
Li7 O38 2.002778 1_555
Li8 O31 1.914956 1_555
Li8 O35 1.968617 1_555
Li8 O39 1.993869 1_555
Li8 O27 2.012185 1_555
Li9 O29 2.013389 1_555
Li9 O40 2.041427 1_455
Li9 O38 2.053786 1_555
Li9 O37 2.245019 1_555
Li9 O34 2.411849 1_555
Li10 O28 2.012507 1_555
Li10 O41 2.031965 1_555
Li10 O39 2.052854 1_555
Li10 O36 2.262384 1_555
Li10 O35 2.375549 1_555
Li11 O43 1.964287 1_545
Li11 O30 2.010335 1_555
Li11 O32 2.041840 1_555
Li11 O35 2.286549 1_545
Li11 O36 2.381184 1_555
Li12 O42 2.008406 1_565
Li12 O33 2.045435 1_555
Li12 O31 2.046028 1_455
Li12 O34 2.242736 1_565
Li12 O37 2.422726 1_555
Li13 O40 1.912623 1_555
Li13 O36 1.974711 1_555
Li13 O32 1.992042 1_555
Li13 O44 2.009382 1_555
Li14 O41 1.908661 1_555
Li14 O37 1.976847 1_555
Li14 O33 1.994916 1_555
Li14 O45 2.008030 1_555
Ni0 O46 1.959175 1_554
Ni0 O3 2.048317 1_555
Ni0 O4 2.074799 1_555
Ni0 O8 2.101290 1_555
Ni0 O6 2.151240 1_555
Ni0 O13 2.164357 1_555
Ni1 O47 1.973967 1_554
Ni1 O5 2.001454 1_555
Ni1 O2 2.039648 1_655
Ni1 O9 2.096301 1_555
Ni1 O7 2.122600 1_655
Ni1 O12 2.180280 1_555
Ni2 O25 1.963851 1_555
Ni2 O20 2.032361 1_555
Ni2 O18 2.066413 1_555
Ni2 O14 2.101960 1_555
Ni2 O17 2.161122 1_555
Ni2 O11 2.179239 1_555
Ni3 O24 1.965669 1_555
Ni3 O15 2.055182 1_555
Ni3 O21 2.067736 1_655
Ni3 O16 2.090585 1_655
Ni3 O19 2.100842 1_555
Ni3 O10 2.131811 1_555
Ni4 O22 1.966620 1_555
Ni4 O26 2.036766 1_555
Ni4 O28 2.065273 1_555
Ni4 O32 2.099737 1_555
Ni4 O36 2.151222 1_555
Ni4 O30 2.161286 1_555
Ni5 O23 1.955418 1_555
Ni5 O27 2.047360 1_455
Ni5 O29 2.066925 1_555
Ni5 O33 2.089022 1_555
Ni5 O31 2.132355 1_455
Ni5 O37 2.166853 1_555
Ni6 O1 1.959911 1_556
Ni6 O44 2.047356 1_455
Ni6 O42 2.059176 1_555
Ni6 O38 2.104566 1_555
Ni6 O40 2.140703 1_455
Ni6 O34 2.195036 1_555
Ni7 O0 1.966317 1_556
Ni7 O45 2.039795 1_555
Ni7 O43 2.064706 1_555
Ni7 O39 2.099850 1_555
Ni7 O41 2.145418 1_555
Ni7 O35 2.185449 1_555
O0 P2 1.511205 1_555
O1 P11 1.513699 1_555
O2 P1 1.557405 1_554
O3 P0 1.561169 1_554
O4 P1 1.537628 1_544
O5 P0 1.517570 1_564
O6 P2 1.562535 1_555
O7 P11 1.559180 1_555
O8 P11 1.554580 1_555
O9 P2 1.557211 1_555
O10 P11 1.565744 1_655
O11 P2 1.576304 1_555
O12 P4 1.554933 1_655
O13 P3 1.568809 1_555
O14 P4 1.556439 1_555
O15 P3 1.544554 1_555
O16 P4 1.544325 1_545
O17 P3 1.560004 1_565
O18 P5 1.543905 1_555
O19 P6 1.537157 1_555
O20 P6 1.561293 1_555
O21 P5 1.557578 1_555
O22 P3 1.517843 1_555
O23 P4 1.529415 1_555
O24 P7 1.510139 1_555
O25 P8 1.510080 1_555
O26 P5 1.555896 1_555
O27 P6 1.560166 1_555
O28 P6 1.541407 1_555
O29 P5 1.541075 1_555
O30 P8 1.560332 1_545
O31 P7 1.563309 1_565
O32 P7 1.558133 1_555
O33 P8 1.562354 1_555
O34 P7 1.573416 1_455
O35 P8 1.572099 1_555
O36 P9 1.574939 1_555
O37 P10 1.575319 1_455
O38 P9 1.560862 1_555
O39 P10 1.560065 1_555
O40 P10 1.562322 1_555
O41 P9 1.561062 1_555
O42 P1 1.537026 1_545
O43 P0 1.541374 1_565
O44 P0 1.559556 1_555
O45 P1 1.558871 1_555
O46 P9 1.507636 1_555
O47 P10 1.503844 1_555
