# generated using pymatgen
data_Eu2AgRh
_symmetry_space_group_name_H-M   'P 1'
_cell_length_a   5.17893633
_cell_length_b   5.17893633
_cell_length_c   5.17893633
_cell_angle_alpha   60.00000000
_cell_angle_beta   60.00000000
_cell_angle_gamma   60.00000000
_symmetry_Int_Tables_number   1
_chemical_formula_structural   Eu2AgRh
_chemical_formula_sum   'Eu2 Ag1 Rh1'
_cell_volume   98.22153529
_cell_formula_units_Z   1
loop_
 _symmetry_equiv_pos_site_id
 _symmetry_equiv_pos_as_xyz
  1  'x, y, z'
loop_
 _atom_site_type_symbol
 _atom_site_label
 _atom_site_symmetry_multiplicity
 _atom_site_fract_x
 _atom_site_fract_y
 _atom_site_fract_z
 _atom_site_occupancy
  Eu  Eu0  1  0.25000000  0.25000000  0.25000000  1
  Eu  Eu1  1  0.75000000  0.75000000  0.75000000  1
  Ag  Ag0  1  0.50000000  0.50000000  0.50000000  1
  Rh  Rh0  1  0.00000000  0.00000000  0.00000000  1
loop_
_geom_bond_atom_site_label_1
_geom_bond_atom_site_label_2
_geom_bond_distance
_geom_bond_site_symmetry_2
Eu0 Rh0 3.171438 1_565
Eu0 Rh0 3.171438 1_555
Eu0 Rh0 3.171438 1_556
Eu0 Rh0 3.171438 1_655
Eu1 Rh0 3.171438 1_665
Eu1 Rh0 3.171438 1_666
Eu1 Rh0 3.171438 1_656
Eu1 Rh0 3.171438 1_566
Ag0 Eu0 3.171438 1_565
Ag0 Eu1 3.171438 1_554
Ag0 Eu0 3.171438 1_555
Ag0 Eu0 3.171438 1_556
Ag0 Eu1 3.171438 1_555
Ag0 Eu1 3.171438 1_545
Ag0 Eu1 3.171438 1_455
Ag0 Eu0 3.171438 1_655
