# generated using pymatgen
data_V4CuO11
_symmetry_space_group_name_H-M   'P 1'
_cell_length_a   3.60292500
_cell_length_b   7.37867368
_cell_length_c   7.80042615
_cell_angle_alpha   105.23407505
_cell_angle_beta   103.35266578
_cell_angle_gamma   90.00000000
_symmetry_Int_Tables_number   1
_chemical_formula_structural   V4CuO11
_chemical_formula_sum   'V4 Cu1 O11'
_cell_volume   194.26975946
_cell_formula_units_Z   1
loop_
 _symmetry_equiv_pos_site_id
 _symmetry_equiv_pos_as_xyz
  1  'x, y, z'
loop_
 _atom_site_type_symbol
 _atom_site_label
 _atom_site_symmetry_multiplicity
 _atom_site_fract_x
 _atom_site_fract_y
 _atom_site_fract_z
 _atom_site_occupancy
  V  V0  1  0.08892700  0.13724700  0.17785300  1
  V  V1  1  0.53198700  0.45409600  0.06397400  1
  V  V2  1  0.75129400  0.46533400  0.50258800  1
  V  V3  1  0.30154100  0.13482100  0.60308100  1
  Cu  Cu0  1  0.41776000  0.79108800  0.83551900  1
  O  O0  1  0.50871000  0.66464300  0.01742000  1
  O  O1  1  0.42054600  0.30146100  0.84109200  1
  O  O2  1  0.05196200  0.39249000  0.10392300  1
  O  O3  1  0.17219500  0.01434100  0.34439000  1
  O  O4  1  0.67018100  0.58472600  0.34036100  1
  O  O5  1  0.60233700  0.21621900  0.20467300  1
  O  O6  1  0.24205800  0.38363100  0.48411600  1
  O  O7  1  0.85333600  0.63412100  0.70667200  1
  O  O8  1  0.79129100  0.20311000  0.58258200  1
  O  O9  1  0.98927500  0.96906000  0.97854900  1
  O  O10  1  0.33350400  0.93531100  0.66700700  1
loop_
_geom_bond_atom_site_label_1
_geom_bond_atom_site_label_2
_geom_bond_distance
_geom_bond_site_symmetry_2
Cu0 O0 1.863358 1_556
Cu0 O10 1.871697 1_555
Cu0 O7 2.220637 1_555
Cu0 O7 2.220640 1_455
Cu0 O9 2.319090 1_555
Cu0 O9 2.319090 1_455
O0 V1 1.683704 1_555
O1 V1 1.760921 1_556
O1 V3 1.890836 1_555
O2 V1 1.902174 1_555
O2 V1 1.902177 1_455
O2 V0 2.105381 1_555
O3 V0 1.743303 1_555
O3 V3 1.924137 1_555
O4 V2 1.696427 1_555
O4 V1 2.058432 1_555
O5 V0 1.887375 1_555
O5 V0 1.887375 1_655
O5 V1 2.287670 1_555
O5 V2 2.499248 1_555
O6 V2 1.892805 1_555
O6 V2 1.892805 1_455
O6 V3 2.254111 1_555
O6 V0 2.534854 1_555
O7 V2 1.705363 1_555
O8 V3 1.888307 1_555
O8 V3 1.888311 1_655
O8 V2 2.178711 1_555
O9 V0 1.677561 1_666
O10 V3 1.669820 1_565
