# generated using pymatgen
data_Mn2SnS4
_symmetry_space_group_name_H-M   'P 1'
_cell_length_a   7.25484076
_cell_length_b   7.25484076
_cell_length_c   7.25484076
_cell_angle_alpha   120.79201749
_cell_angle_beta   119.69206240
_cell_angle_gamma   89.58394221
_symmetry_Int_Tables_number   1
_chemical_formula_structural   Mn2SnS4
_chemical_formula_sum   'Mn4 Sn2 S8'
_cell_volume   268.97630330
_cell_formula_units_Z   2
loop_
 _symmetry_equiv_pos_site_id
 _symmetry_equiv_pos_as_xyz
  1  'x, y, z'
loop_
 _atom_site_type_symbol
 _atom_site_label
 _atom_site_symmetry_multiplicity
 _atom_site_fract_x
 _atom_site_fract_y
 _atom_site_fract_z
 _atom_site_occupancy
  Mn  Mn0  1  0.37875600  0.62875600  0.75000000  1
  Mn  Mn1  1  0.62124400  0.37124400  0.25000000  1
  Mn  Mn2  1  0.00000000  0.50000000  0.00000000  1
  Mn  Mn3  1  0.00000000  0.00000000  0.50000000  1
  Sn  Sn0  1  0.00000000  0.00000000  0.00000000  1
  Sn  Sn1  1  0.50000000  0.00000000  0.50000000  1
  S  S0  1  0.75849400  0.28190600  0.02341200  1
  S  S1  1  0.75849400  0.73508100  0.47658800  1
  S  S2  1  0.74986800  0.74043000  0.00943800  1
  S  S3  1  0.23099200  0.74043000  0.49056200  1
  S  S4  1  0.24150600  0.71809400  0.97658800  1
  S  S5  1  0.24150600  0.26491900  0.52341200  1
  S  S6  1  0.25013200  0.25957000  0.99056200  1
  S  S7  1  0.76900800  0.25957000  0.50943800  1
loop_
_geom_bond_atom_site_label_1
_geom_bond_atom_site_label_2
_geom_bond_distance
_geom_bond_site_symmetry_2
Mn0 S5 2.152941 1_555
Mn0 S4 2.152947 1_555
Mn0 S2 2.213130 1_556
Mn0 S3 2.213130 1_555
Mn1 S1 2.152941 1_555
Mn1 S0 2.152947 1_555
Mn1 S7 2.213130 1_555
Mn1 S6 2.213130 1_554
Mn2 S0 2.492462 1_455
Mn2 S4 2.492462 1_554
Mn2 S6 2.508997 1_554
Mn2 S3 2.508997 1_555
Mn2 S7 2.508997 1_454
Mn2 S2 2.508997 1_455
Mn3 S1 2.492467 1_445
Mn3 S5 2.492467 1_555
Mn3 S3 2.508997 1_545
Mn3 S2 2.508997 1_445
Mn3 S7 2.508997 1_455
Mn3 S6 2.508997 1_555
S0 Sn1 2.677415 1_554
S0 Sn0 2.677415 1_655
S1 Sn0 2.677415 1_666
S1 Sn1 2.677420 1_565
S2 Sn0 2.673698 1_665
S3 Sn1 2.673698 1_565
S4 Sn0 2.677415 1_566
S4 Sn1 2.677415 1_566
S5 Sn0 2.677415 1_555
S5 Sn1 2.677420 1_555
S6 Sn0 2.673698 1_556
S7 Sn1 2.673698 1_555
