# generated using pymatgen
data_SrFe2Se2O
_symmetry_space_group_name_H-M   'P 1'
_cell_length_a   4.11132654
_cell_length_b   6.70686461
_cell_length_c   9.98538570
_cell_angle_alpha   90.09200231
_cell_angle_beta   89.74140797
_cell_angle_gamma   89.97333908
_symmetry_Int_Tables_number   1
_chemical_formula_structural   SrFe2Se2O
_chemical_formula_sum   'Sr2 Fe4 Se4 O2'
_cell_volume   275.33493855
_cell_formula_units_Z   2
loop_
 _symmetry_equiv_pos_site_id
 _symmetry_equiv_pos_as_xyz
  1  'x, y, z'
loop_
 _atom_site_type_symbol
 _atom_site_label
 _atom_site_symmetry_multiplicity
 _atom_site_fract_x
 _atom_site_fract_y
 _atom_site_fract_z
 _atom_site_occupancy
  Sr  Sr0  1  0.49853900  0.99833900  0.50119400  1
  Sr  Sr1  1  0.99985100  0.00113200  0.00001500  1
  Fe  Fe0  1  0.50073500  0.37326200  0.83632500  1
  Fe  Fe1  1  0.99918100  0.62911100  0.33500300  1
  Fe  Fe2  1  0.50483600  0.36914000  0.16506300  1
  Fe  Fe3  1  0.00478400  0.62792200  0.66316700  1
  Se  Se0  1  0.49929700  0.74757800  0.19825500  1
  Se  Se1  1  0.49956000  0.74913000  0.79973500  1
  Se  Se2  1  0.00095400  0.25177100  0.69993700  1
  Se  Se3  1  0.99774600  0.25195100  0.30199500  1
  O  O0  1  0.49747100  0.21883200  0.99979400  1
  O  O1  1  0.99704400  0.78183100  0.49951800  1
loop_
_geom_bond_atom_site_label_1
_geom_bond_atom_site_label_2
_geom_bond_distance
_geom_bond_site_symmetry_2
Fe0 O0 1.934578 1_555
Fe0 Se1 2.547821 1_555
Fe0 Se2 2.591857 1_655
Fe0 Se2 2.600765 1_555
Fe1 O1 1.934498 1_555
Fe1 Se3 2.550432 1_555
Fe1 Se0 2.589056 1_655
Fe1 Se0 2.597484 1_555
Fe2 O0 1.932800 1_554
Fe2 Se0 2.559230 1_555
Fe2 Se3 2.573140 1_555
Fe2 Se3 2.610172 1_455
Fe3 O1 1.934601 1_455
Fe3 Se2 2.550001 1_555
Fe3 Se1 2.584843 1_555
Fe3 Se1 2.608505 1_455
Se0 Sr1 3.320049 1_565
Se0 Sr1 3.327304 1_465
Se0 Sr0 3.458685 1_555
Se1 Sr1 3.320503 1_466
Se1 Sr1 3.334105 1_566
Se1 Sr0 3.419997 1_555
Se2 Sr0 3.310854 1_545
Se2 Sr0 3.335198 1_445
Se2 Sr1 3.438056 1_456
Se3 Sr0 3.322538 1_545
Se3 Sr0 3.336671 1_645
Se3 Sr1 3.450496 1_555
O0 Sr1 2.514005 1_456
O0 Sr1 2.528868 1_556
O1 Sr0 2.511216 1_555
O1 Sr0 2.522484 1_655
