# generated using pymatgen
data_Sr2YOsO6
_symmetry_space_group_name_H-M   'P 1'
_cell_length_a   5.84643900
_cell_length_b   5.88542600
_cell_length_c   10.11591332
_cell_angle_alpha   90.00000000
_cell_angle_beta   125.10200567
_cell_angle_gamma   90.00000000
_symmetry_Int_Tables_number   1
_chemical_formula_structural   Sr2YOsO6
_chemical_formula_sum   'Sr4 Y2 Os2 O12'
_cell_volume   284.77150152
_cell_formula_units_Z   2
loop_
 _symmetry_equiv_pos_site_id
 _symmetry_equiv_pos_as_xyz
  1  'x, y, z'
loop_
 _atom_site_type_symbol
 _atom_site_label
 _atom_site_symmetry_multiplicity
 _atom_site_fract_x
 _atom_site_fract_y
 _atom_site_fract_z
 _atom_site_occupancy
  Sr  Sr0  1  0.25778800  0.03358600  0.75092800  1
  Sr  Sr1  1  0.25778800  0.46641400  0.25092800  1
  Sr  Sr2  1  0.74221200  0.96641400  0.24907200  1
  Sr  Sr3  1  0.74221200  0.53358600  0.74907200  1
  Y  Y0  1  0.00000000  0.50000000  0.50000000  1
  Y  Y1  1  0.00000000  0.00000000  0.00000000  1
  Os  Os0  1  0.50000000  0.00000000  0.50000000  1
  Os  Os1  1  0.50000000  0.50000000  0.00000000  1
  O  O0  1  0.19138800  0.48093700  0.76630300  1
  O  O1  1  0.19138800  0.01906300  0.26630300  1
  O  O2  1  0.80861200  0.51906300  0.23369700  1
  O  O3  1  0.80861200  0.98093700  0.73369700  1
  O  O4  1  0.73127600  0.19980600  0.46127700  1
  O  O5  1  0.73127600  0.30019400  0.96127700  1
  O  O6  1  0.26872400  0.80019400  0.53872300  1
  O  O7  1  0.26872400  0.69980600  0.03872300  1
  O  O8  1  0.65641100  0.72877300  0.45994100  1
  O  O9  1  0.65641100  0.77122700  0.95994100  1
  O  O10  1  0.34358900  0.27122700  0.54005900  1
  O  O11  1  0.34358900  0.22877300  0.04005900  1
loop_
_geom_bond_atom_site_label_1
_geom_bond_atom_site_label_2
_geom_bond_distance
_geom_bond_site_symmetry_2
O0 Os1 1.987778 1_556
O0 Y0 2.248342 1_555
O0 Sr3 2.548775 1_455
O0 Sr0 2.678850 1_555
O1 Os0 1.987778 1_555
O1 Y1 2.248342 1_555
O1 Sr2 2.548775 1_445
O1 Sr1 2.678850 1_555
O2 Os1 1.987778 1_555
O2 Y0 2.248342 1_655
O2 Sr1 2.548775 1_655
O2 Sr2 2.678850 1_555
O3 Os0 1.987778 1_565
O3 Y1 2.248342 1_666
O3 Sr0 2.548775 1_665
O3 Sr3 2.678850 1_555
O4 Os0 1.993418 1_555
O4 Y0 2.243976 1_655
O4 Sr2 2.580085 1_545
O4 Sr1 2.806880 1_555
O4 Sr0 2.940218 1_655
O5 Os1 1.993418 1_556
O5 Y1 2.243976 1_656
O5 Sr3 2.580085 1_555
O5 Sr0 2.806880 1_555
O5 Sr1 2.940218 1_656
O6 Os0 1.993418 1_565
O6 Y0 2.243976 1_555
O6 Sr0 2.580085 1_565
O6 Sr3 2.806880 1_555
O6 Sr2 2.940218 1_455
O7 Os1 1.993418 1_555
O7 Y1 2.243976 1_565
O7 Sr1 2.580085 1_555
O7 Sr2 2.806880 1_555
O7 Sr3 2.940218 1_454
O8 Os0 1.993673 1_565
O8 Y0 2.253012 1_655
O8 Sr1 2.572752 1_555
O8 Sr2 2.826419 1_555
O8 Sr3 2.904913 1_555
O9 Os1 1.993673 1_556
O9 Y1 2.253012 1_666
O9 Sr0 2.572752 1_565
O9 Sr3 2.826419 1_555
O9 Sr2 2.904913 1_556
O10 Os0 1.993673 1_555
O10 Y0 2.253012 1_555
O10 Sr3 2.572752 1_555
O10 Sr0 2.826419 1_555
O10 Sr1 2.904913 1_555
O11 Os1 1.993673 1_555
O11 Y1 2.253012 1_555
O11 Sr2 2.572752 1_545
O11 Sr1 2.826419 1_555
O11 Sr0 2.904913 1_554
