# generated using pymatgen
data_AgClO2
_symmetry_space_group_name_H-M   'P 1'
_cell_length_a   4.84887290
_cell_length_b   4.84887290
_cell_length_c   8.08441400
_cell_angle_alpha   90.00000000
_cell_angle_beta   90.00000000
_cell_angle_gamma   93.19115287
_symmetry_Int_Tables_number   1
_chemical_formula_structural   AgClO2
_chemical_formula_sum   'Ag2 Cl2 O4'
_cell_volume   189.78251331
_cell_formula_units_Z   2
loop_
 _symmetry_equiv_pos_site_id
 _symmetry_equiv_pos_as_xyz
  1  'x, y, z'
loop_
 _atom_site_type_symbol
 _atom_site_label
 _atom_site_symmetry_multiplicity
 _atom_site_fract_x
 _atom_site_fract_y
 _atom_site_fract_z
 _atom_site_occupancy
  Ag  Ag0  1  0.75000000  0.25000000  0.75745400  1
  Ag  Ag1  1  0.25000000  0.75000000  0.24254600  1
  Cl  Cl0  1  0.75000000  0.25000000  0.15941100  1
  Cl  Cl1  1  0.25000000  0.75000000  0.84058900  1
  O  O0  1  0.93595100  0.43595100  0.28223100  1
  O  O1  1  0.43595100  0.93595100  0.71776900  1
  O  O2  1  0.06404900  0.56404900  0.71776900  1
  O  O3  1  0.56404900  0.06404900  0.28223100  1
loop_
_geom_bond_atom_site_label_1
_geom_bond_atom_site_label_2
_geom_bond_distance
_geom_bond_site_symmetry_2
Ag0 O1 2.117192 1_545
Ag0 O2 2.117192 1_655
Ag1 O0 2.117192 1_455
Ag1 O3 2.117192 1_565
Cl0 O3 1.587875 1_555
Cl0 O0 1.587875 1_555
Cl1 O2 1.587875 1_555
Cl1 O1 1.587875 1_555
