# generated using pymatgen
data_Ca(BO5)2
_symmetry_space_group_name_H-M   'P 1'
_cell_length_a   5.90236800
_cell_length_b   7.56266100
_cell_length_c   9.49930465
_cell_angle_alpha   73.01353402
_cell_angle_beta   90.00000000
_cell_angle_gamma   90.00000000
_symmetry_Int_Tables_number   1
_chemical_formula_structural   Ca(BO5)2
_chemical_formula_sum   'Ca2 B4 O20'
_cell_volume   405.52758255
_cell_formula_units_Z   2
loop_
 _symmetry_equiv_pos_site_id
 _symmetry_equiv_pos_as_xyz
  1  'x, y, z'
loop_
 _atom_site_type_symbol
 _atom_site_label
 _atom_site_symmetry_multiplicity
 _atom_site_fract_x
 _atom_site_fract_y
 _atom_site_fract_z
 _atom_site_occupancy
  Ca  Ca0  1  0.92789400  0.00000000  0.25000000  1
  Ca  Ca1  1  0.07210600  0.00000000  0.75000000  1
  B  B0  1  0.35384000  0.89407700  0.11696700  1
  B  B1  1  0.35384000  0.10592300  0.38303300  1
  B  B2  1  0.64616000  0.10592300  0.88303300  1
  B  B3  1  0.64616000  0.89407700  0.61696700  1
  O  O0  1  0.26052400  0.00259000  0.98115200  1
  O  O1  1  0.26052400  0.99741000  0.51884800  1
  O  O2  1  0.73947600  0.99741000  0.01884800  1
  O  O3  1  0.73947600  0.00259000  0.48115200  1
  O  O4  1  0.20518600  0.81290000  0.21698800  1
  O  O5  1  0.20518600  0.18710000  0.28301200  1
  O  O6  1  0.79481400  0.18710000  0.78301200  1
  O  O7  1  0.79481400  0.81290000  0.71698800  1
  O  O8  1  0.28318000  0.60497800  0.93271700  1
  O  O9  1  0.28318000  0.39502200  0.56728300  1
  O  O10  1  0.71682000  0.39502200  0.06728300  1
  O  O11  1  0.71682000  0.60497800  0.43271700  1
  O  O12  1  0.58887700  0.87955700  0.14175200  1
  O  O13  1  0.58887700  0.12044300  0.35824800  1
  O  O14  1  0.41112300  0.12044300  0.85824800  1
  O  O15  1  0.41112300  0.87955700  0.64175200  1
  O  O16  1  0.20784600  0.54890400  0.56212000  1
  O  O17  1  0.20784600  0.45109600  0.93788000  1
  O  O18  1  0.79215400  0.45109600  0.43788000  1
  O  O19  1  0.79215400  0.54890400  0.06212000  1
loop_
_geom_bond_atom_site_label_1
_geom_bond_atom_site_label_2
_geom_bond_distance
_geom_bond_site_symmetry_2
Ca0 O5 2.244654 1_655
Ca0 O4 2.244654 1_645
Ca0 O2 2.466530 1_545
Ca0 O3 2.466530 1_555
Ca0 O13 2.537385 1_555
Ca0 O12 2.537385 1_545
Ca1 O6 2.244654 1_455
Ca1 O7 2.244654 1_445
Ca1 O0 2.466530 1_555
Ca1 O1 2.466530 1_545
Ca1 O14 2.537385 1_555
Ca1 O15 2.537385 1_545
B0 O4 1.307161 1_555
B0 O12 1.406028 1_555
B0 O0 1.422212 1_564
B1 O5 1.307161 1_555
B1 O13 1.406028 1_555
B1 O1 1.422212 1_545
B2 O6 1.307161 1_555
B2 O14 1.406028 1_555
B2 O2 1.422212 1_546
B3 O7 1.307161 1_555
B3 O15 1.406028 1_555
B3 O3 1.422212 1_565
O10 O19 1.233329 1_555
O11 O18 1.233329 1_555
O16 O9 1.233329 1_555
O17 O8 1.233329 1_555
