# generated using pymatgen
data_Mn2Si5N8
_symmetry_space_group_name_H-M   'P 1'
_cell_length_a   10.80003668
_cell_length_b   9.80955242
_cell_length_c   13.37527432
_cell_angle_alpha   90.00000000
_cell_angle_beta   90.00000000
_cell_angle_gamma   90.00000000
_symmetry_Int_Tables_number   1
_chemical_formula_structural   Mn2Si5N8
_chemical_formula_sum   'Mn16 Si40 N64'
_cell_volume   1417.02372201
_cell_formula_units_Z   8
loop_
 _symmetry_equiv_pos_site_id
 _symmetry_equiv_pos_as_xyz
  1  'x, y, z'
loop_
 _atom_site_type_symbol
 _atom_site_label
 _atom_site_symmetry_multiplicity
 _atom_site_fract_x
 _atom_site_fract_y
 _atom_site_fract_z
 _atom_site_occupancy
  Mn  Mn0  1  0.08553565  0.13622330  0.00496520  1
  Mn  Mn1  1  0.58553565  0.36377670  0.99503480  1
  Mn  Mn2  1  0.91446435  0.63622330  0.49503480  1
  Mn  Mn3  1  0.41446435  0.86377670  0.50496520  1
  Mn  Mn4  1  0.91446435  0.86377670  0.99503480  1
  Mn  Mn5  1  0.41446435  0.63622330  0.00496520  1
  Mn  Mn6  1  0.08553565  0.36377670  0.50496520  1
  Mn  Mn7  1  0.58553565  0.13622330  0.49503480  1
  Mn  Mn8  1  0.36114813  0.08698891  0.05872259  1
  Mn  Mn9  1  0.86114813  0.41301109  0.94127741  1
  Mn  Mn10  1  0.63885187  0.58698891  0.44127741  1
  Mn  Mn11  1  0.13885187  0.91301109  0.55872259  1
  Mn  Mn12  1  0.63885187  0.91301109  0.94127741  1
  Mn  Mn13  1  0.13885187  0.58698891  0.05872259  1
  Mn  Mn14  1  0.36114813  0.41301109  0.55872259  1
  Mn  Mn15  1  0.86114813  0.08698891  0.44127741  1
  Si  Si0  1  0.39606693  0.23693398  0.83766702  1
  Si  Si1  1  0.89606693  0.26306602  0.16233298  1
  Si  Si2  1  0.60393307  0.73693398  0.66233298  1
  Si  Si3  1  0.10393307  0.76306602  0.33766702  1
  Si  Si4  1  0.60393307  0.76306602  0.16233298  1
  Si  Si5  1  0.10393307  0.73693398  0.83766702  1
  Si  Si6  1  0.39606693  0.26306602  0.33766702  1
  Si  Si7  1  0.89606693  0.23693398  0.66233298  1
  Si  Si8  1  0.16096724  0.23902518  0.71795559  1
  Si  Si9  1  0.66096724  0.26097482  0.28204441  1
  Si  Si10  1  0.83903276  0.73902518  0.78204441  1
  Si  Si11  1  0.33903276  0.76097482  0.21795559  1
  Si  Si12  1  0.83903276  0.76097482  0.28204441  1
  Si  Si13  1  0.33903276  0.73902518  0.71795559  1
  Si  Si14  1  0.16096724  0.26097482  0.21795559  1
  Si  Si15  1  0.66096724  0.23902518  0.78204441  1
  Si  Si16  1  0.25278843  0.98177918  0.83458040  1
  Si  Si17  1  0.75278843  0.51822082  0.16541960  1
  Si  Si18  1  0.74721157  0.48177918  0.66541960  1
  Si  Si19  1  0.24721157  0.01822082  0.33458040  1
  Si  Si20  1  0.74721157  0.01822082  0.16541960  1
  Si  Si21  1  0.24721157  0.48177918  0.83458040  1
  Si  Si22  1  0.25278843  0.51822082  0.33458040  1
  Si  Si23  1  0.75278843  0.98177918  0.66541960  1
  Si  Si24  1  0.98240349  0.00555799  0.78571749  1
  Si  Si25  1  0.48240349  0.49444201  0.21428251  1
  Si  Si26  1  0.01759651  0.50555799  0.71428251  1
  Si  Si27  1  0.51759651  0.99444201  0.28571749  1
  Si  Si28  1  0.01759651  0.99444201  0.21428251  1
  Si  Si29  1  0.51759651  0.50555799  0.78571749  1
  Si  Si30  1  0.98240349  0.49444201  0.28571749  1
  Si  Si31  1  0.48240349  0.00555799  0.71428251  1
  Si  Si32  1  0.82341988  0.14348554  0.96416525  1
  Si  Si33  1  0.32341988  0.35651446  0.03583475  1
  Si  Si34  1  0.17658012  0.64348554  0.53583475  1
  Si  Si35  1  0.67658012  0.85651446  0.46416525  1
  Si  Si36  1  0.17658012  0.85651446  0.03583475  1
  Si  Si37  1  0.67658012  0.64348554  0.96416525  1
  Si  Si38  1  0.82341988  0.35651446  0.46416525  1
  Si  Si39  1  0.32341988  0.14348554  0.53583475  1
  N  N0  1  0.91638703  0.25513716  0.03505974  1
  N  N1  1  0.41638703  0.24486284  0.96494026  1
  N  N2  1  0.08361297  0.75513716  0.46494026  1
  N  N3  1  0.58361297  0.74486284  0.53505974  1
  N  N4  1  0.08361297  0.74486284  0.96494026  1
  N  N5  1  0.58361297  0.75513716  0.03505974  1
  N  N6  1  0.91638703  0.24486284  0.53505974  1
  N  N7  1  0.41638703  0.25513716  0.46494026  1
  N  N8  1  0.93756592  0.05002546  0.90364130  1
  N  N9  1  0.43756592  0.44997454  0.09635870  1
  N  N10  1  0.06243408  0.55002546  0.59635870  1
  N  N11  1  0.56243408  0.94997454  0.40364130  1
  N  N12  1  0.06243408  0.94997454  0.09635870  1
  N  N13  1  0.56243408  0.55002546  0.90364130  1
  N  N14  1  0.93756592  0.44997454  0.40364130  1
  N  N15  1  0.43756592  0.05002546  0.59635870  1
  N  N16  1  0.72674678  0.25788835  0.90013328  1
  N  N17  1  0.22674678  0.24211165  0.09986672  1
  N  N18  1  0.27325322  0.75788835  0.59986672  1
  N  N19  1  0.77325322  0.74211165  0.40013328  1
  N  N20  1  0.27325322  0.74211165  0.09986672  1
  N  N21  1  0.77325322  0.75788835  0.90013328  1
  N  N22  1  0.72674678  0.24211165  0.40013328  1
  N  N23  1  0.22674678  0.25788835  0.59986672  1
  N  N24  1  0.25753058  0.97321632  0.96340028  1
  N  N25  1  0.75753058  0.52678368  0.03659972  1
  N  N26  1  0.74246942  0.47321632  0.53659972  1
  N  N27  1  0.24246942  0.02678368  0.46340028  1
  N  N28  1  0.74246942  0.02678368  0.03659972  1
  N  N29  1  0.24246942  0.47321632  0.96340028  1
  N  N30  1  0.25753058  0.52678368  0.46340028  1
  N  N31  1  0.75753058  0.97321632  0.53659972  1
  N  N32  1  0.02128924  0.14655961  0.71098039  1
  N  N33  1  0.52128924  0.35344039  0.28901961  1
  N  N34  1  0.97871076  0.64655961  0.78901961  1
  N  N35  1  0.47871076  0.85344039  0.21098039  1
  N  N36  1  0.97871076  0.85344039  0.28901961  1
  N  N37  1  0.47871076  0.64655961  0.71098039  1
  N  N38  1  0.02128924  0.35344039  0.21098039  1
  N  N39  1  0.52128924  0.14655961  0.78901961  1
  N  N40  1  0.37320367  0.89912545  0.77209262  1
  N  N41  1  0.87320367  0.60087455  0.22790738  1
  N  N42  1  0.62679633  0.39912545  0.72790738  1
  N  N43  1  0.12679633  0.10087455  0.27209262  1
  N  N44  1  0.62679633  0.10087455  0.22790738  1
  N  N45  1  0.12679633  0.39912545  0.77209262  1
  N  N46  1  0.37320367  0.60087455  0.27209262  1
  N  N47  1  0.87320367  0.89912545  0.72790738  1
  N  N48  1  0.26021716  0.15360941  0.79979097  1
  N  N49  1  0.76021716  0.34639059  0.20020903  1
  N  N50  1  0.73978284  0.65360941  0.70020903  1
  N  N51  1  0.23978284  0.84639059  0.29979097  1
  N  N52  1  0.73978284  0.84639059  0.20020903  1
  N  N53  1  0.23978284  0.65360941  0.79979097  1
  N  N54  1  0.26021716  0.34639059  0.29979097  1
  N  N55  1  0.76021716  0.15360941  0.70020903  1
  N  N56  1  0.11665840  0.90459291  0.79028608  1
  N  N57  1  0.61665840  0.59540709  0.20971392  1
  N  N58  1  0.88334160  0.40459291  0.70971392  1
  N  N59  1  0.38334160  0.09540709  0.29028608  1
  N  N60  1  0.88334160  0.09540709  0.20971392  1
  N  N61  1  0.38334160  0.40459291  0.79028608  1
  N  N62  1  0.11665840  0.59540709  0.29028608  1
  N  N63  1  0.61665840  0.90459291  0.70971392  1
loop_
_geom_bond_atom_site_label_1
_geom_bond_atom_site_label_2
_geom_bond_distance
_geom_bond_site_symmetry_2
Mn0 N0 2.204533 1_455
Mn0 N12 2.212359 1_545
Mn0 N17 2.239649 1_555
Mn0 N8 2.259534 1_454
Mn0 N24 2.513255 1_544
Mn1 N1 2.204533 1_555
Mn1 N13 2.212359 1_555
Mn1 N16 2.239649 1_555
Mn1 N9 2.259534 1_556
Mn1 N25 2.513255 1_556
Mn2 N2 2.204533 1_655
Mn2 N14 2.212359 1_555
Mn2 N19 2.239649 1_555
Mn2 N10 2.259534 1_655
Mn2 N26 2.513255 1_555
Mn3 N3 2.204533 1_555
Mn3 N15 2.212359 1_565
Mn3 N18 2.239649 1_555
Mn3 N11 2.259534 1_555
Mn3 N27 2.513255 1_565
Mn4 N4 2.204533 1_655
Mn4 N8 2.212359 1_565
Mn4 N21 2.239649 1_555
Mn4 N12 2.259534 1_656
Mn4 N28 2.513255 1_566
Mn5 N5 2.204533 1_555
Mn5 N9 2.212359 1_555
Mn5 N20 2.239649 1_555
Mn5 N13 2.259534 1_554
Mn5 N29 2.513255 1_554
Mn6 N6 2.204533 1_455
Mn6 N10 2.212359 1_555
Mn6 N23 2.239649 1_555
Mn6 N14 2.259534 1_455
Mn6 N30 2.513255 1_555
Mn7 N7 2.204533 1_555
Mn7 N11 2.212359 1_545
Mn7 N22 2.239649 1_555
Mn7 N15 2.259534 1_555
Mn7 N31 2.513255 1_545
Mn8 N24 2.030625 1_544
Mn8 N1 2.080319 1_554
Mn8 N17 2.173784 1_555
Mn9 N25 2.030625 1_556
Mn9 N0 2.080319 1_556
Mn9 N16 2.173784 1_555
Mn10 N26 2.030625 1_555
Mn10 N3 2.080319 1_555
Mn10 N19 2.173784 1_555
Mn11 N27 2.030625 1_565
Mn11 N2 2.080319 1_555
Mn11 N18 2.173784 1_555
Mn12 N28 2.030625 1_566
Mn12 N5 2.080319 1_556
Mn12 N21 2.173784 1_555
Mn13 N29 2.030625 1_554
Mn13 N4 2.080319 1_554
Mn13 N20 2.173784 1_555
Mn14 N30 2.030625 1_555
Mn14 N7 2.080319 1_555
Mn14 N23 2.173784 1_555
Mn15 N31 2.030625 1_545
Mn15 N6 2.080319 1_555
Mn15 N22 2.173784 1_555
N0 Si1 1.718164 1_555
N0 Si32 1.762622 1_554
N1 Si0 1.718164 1_555
N1 Si33 1.762622 1_556
N2 Si3 1.718164 1_555
N2 Si34 1.762622 1_555
N3 Si2 1.718164 1_555
N3 Si35 1.762622 1_555
N4 Si5 1.718164 1_555
N4 Si36 1.762622 1_556
N5 Si4 1.718164 1_555
N5 Si37 1.762622 1_554
N6 Si7 1.718164 1_555
N6 Si38 1.762622 1_555
N7 Si6 1.718164 1_555
N7 Si39 1.762622 1_555
N8 Si24 1.706614 1_555
N8 Si32 1.736550 1_555
N9 Si25 1.706614 1_555
N9 Si33 1.736550 1_555
N10 Si26 1.706614 1_555
N10 Si34 1.736550 1_555
N11 Si27 1.706614 1_555
N11 Si35 1.736550 1_555
N12 Si28 1.706614 1_555
N12 Si36 1.736550 1_555
N13 Si29 1.706614 1_555
N13 Si37 1.736550 1_555
N14 Si30 1.706614 1_555
N14 Si38 1.736550 1_555
N15 Si31 1.706614 1_555
N15 Si39 1.736550 1_555
N16 Si15 1.741742 1_555
N16 Si32 1.755850 1_555
N17 Si14 1.741742 1_555
N17 Si33 1.755850 1_555
N18 Si13 1.741742 1_555
N18 Si34 1.755850 1_555
N19 Si12 1.741742 1_555
N19 Si35 1.755850 1_555
N20 Si11 1.741742 1_555
N20 Si36 1.755850 1_555
N21 Si10 1.741742 1_555
N21 Si37 1.755850 1_555
N22 Si9 1.741742 1_555
N22 Si38 1.755850 1_555
N23 Si8 1.741742 1_555
N23 Si39 1.755850 1_555
N24 Si16 1.725808 1_555
N24 Si36 1.735952 1_556
N25 Si17 1.725808 1_555
N25 Si37 1.735952 1_554
N26 Si18 1.725808 1_555
N26 Si38 1.735952 1_555
N27 Si19 1.725808 1_555
N27 Si39 1.735952 1_555
N28 Si20 1.725808 1_555
N28 Si32 1.735952 1_554
N29 Si21 1.725808 1_555
N29 Si33 1.735952 1_556
N30 Si22 1.725808 1_555
N30 Si34 1.735952 1_555
N31 Si23 1.725808 1_555
N31 Si35 1.735952 1_555
N32 Si7 1.743076 1_455
N32 Si24 1.757490 1_455
N32 Si8 1.762694 1_555
N33 Si6 1.743076 1_555
N33 Si25 1.757490 1_555
N33 Si9 1.762694 1_555
N34 Si5 1.743076 1_655
N34 Si26 1.757490 1_655
N34 Si10 1.762694 1_555
N35 Si4 1.743076 1_555
N35 Si27 1.757490 1_555
N35 Si11 1.762694 1_555
N36 Si3 1.743076 1_655
N36 Si28 1.757490 1_655
N36 Si12 1.762694 1_555
N37 Si2 1.743076 1_555
N37 Si29 1.757490 1_555
N37 Si13 1.762694 1_555
N38 Si1 1.743076 1_455
N38 Si30 1.757490 1_455
N38 Si14 1.762694 1_555
N39 Si0 1.743076 1_555
N39 Si31 1.757490 1_555
N39 Si15 1.762694 1_555
N40 Si16 1.745626 1_555
N40 Si31 1.754658 1_565
N40 Si13 1.768338 1_555
N41 Si17 1.745626 1_555
N41 Si30 1.754658 1_555
N41 Si12 1.768338 1_555
N42 Si18 1.745626 1_555
N42 Si29 1.754658 1_555
N42 Si15 1.768338 1_555
N43 Si19 1.745626 1_555
N43 Si28 1.754658 1_545
N43 Si14 1.768338 1_555
N44 Si20 1.745626 1_555
N44 Si27 1.754658 1_545
N44 Si9 1.768338 1_555
N45 Si21 1.745626 1_555
N45 Si26 1.754658 1_555
N45 Si8 1.768338 1_555
N46 Si22 1.745626 1_555
N46 Si25 1.754658 1_555
N46 Si11 1.768338 1_555
N47 Si23 1.745626 1_555
N47 Si24 1.754658 1_565
N47 Si10 1.768338 1_555
N48 Si8 1.746173 1_555
N48 Si16 1.750466 1_545
N48 Si0 1.754245 1_555
N49 Si9 1.746173 1_555
N49 Si17 1.750466 1_555
N49 Si1 1.754245 1_555
N50 Si10 1.746173 1_555
N50 Si18 1.750466 1_555
N50 Si2 1.754245 1_555
N51 Si11 1.746173 1_555
N51 Si19 1.750466 1_565
N51 Si3 1.754245 1_555
N52 Si12 1.746173 1_555
N52 Si20 1.750466 1_565
N52 Si4 1.754245 1_555
N53 Si13 1.746173 1_555
N53 Si21 1.750466 1_555
N53 Si5 1.754245 1_555
N54 Si14 1.746173 1_555
N54 Si22 1.750466 1_555
N54 Si6 1.754245 1_555
N55 Si15 1.746173 1_555
N55 Si23 1.750466 1_545
N55 Si7 1.754245 1_555
N56 Si16 1.756646 1_555
N56 Si24 1.757000 1_465
N56 Si5 1.767883 1_555
N57 Si17 1.756646 1_555
N57 Si25 1.757000 1_555
N57 Si4 1.767883 1_555
N58 Si18 1.756646 1_555
N58 Si26 1.757000 1_655
N58 Si7 1.767883 1_555
N59 Si19 1.756646 1_555
N59 Si27 1.757000 1_545
N59 Si6 1.767883 1_555
N60 Si20 1.756646 1_555
N60 Si28 1.757000 1_645
N60 Si1 1.767883 1_555
N61 Si21 1.756646 1_555
N61 Si29 1.757000 1_555
N61 Si0 1.767883 1_555
N62 Si22 1.756646 1_555
N62 Si30 1.757000 1_455
N62 Si3 1.767883 1_555
N63 Si23 1.756646 1_555
N63 Si31 1.757000 1_565
N63 Si2 1.767883 1_555
