# generated using pymatgen
data_Na2Fe2F7
_symmetry_space_group_name_H-M   'P 1'
_cell_length_a   7.44605847
_cell_length_b   7.44605847
_cell_length_c   25.06268983
_cell_angle_alpha   81.38097792
_cell_angle_beta   81.38097792
_cell_angle_gamma   60.53651624
_symmetry_Int_Tables_number   1
_chemical_formula_structural   Na2Fe2F7
_chemical_formula_sum   'Na16 Fe16 F56'
_cell_volume   1191.50360006
_cell_formula_units_Z   8
loop_
 _symmetry_equiv_pos_site_id
 _symmetry_equiv_pos_as_xyz
  1  'x, y, z'
loop_
 _atom_site_type_symbol
 _atom_site_label
 _atom_site_symmetry_multiplicity
 _atom_site_fract_x
 _atom_site_fract_y
 _atom_site_fract_z
 _atom_site_occupancy
  Na  Na0  1  0.00000000  0.00000000  0.00000000  1
  Na  Na1  1  0.00000000  0.00000000  0.50000000  1
  Na  Na2  1  0.50000000  0.50000000  0.00000000  1
  Na  Na3  1  0.50000000  0.50000000  0.50000000  1
  Na  Na4  1  0.00000000  0.50000000  0.50000000  1
  Na  Na5  1  0.50000000  0.00000000  0.00000000  1
  Na  Na6  1  0.78474300  0.21525700  0.25000000  1
  Na  Na7  1  0.21525700  0.78474300  0.75000000  1
  Na  Na8  1  0.78960500  0.70407200  0.25232100  1
  Na  Na9  1  0.29592800  0.21039500  0.24767900  1
  Na  Na10  1  0.21039500  0.29592800  0.74767900  1
  Na  Na11  1  0.70407200  0.78960500  0.75232100  1
  Na  Na12  1  0.13359100  0.11973700  0.12147700  1
  Na  Na13  1  0.88026300  0.86640900  0.37852300  1
  Na  Na14  1  0.86640900  0.88026300  0.87852300  1
  Na  Na15  1  0.11973700  0.13359100  0.62147700  1
  Fe  Fe0  1  0.62873100  0.61495700  0.12741600  1
  Fe  Fe1  1  0.38504300  0.37126900  0.37258400  1
  Fe  Fe2  1  0.37126900  0.38504300  0.87258400  1
  Fe  Fe3  1  0.61495700  0.62873100  0.62741600  1
  Fe  Fe4  1  0.13488500  0.61319700  0.12551800  1
  Fe  Fe5  1  0.38680300  0.86511500  0.37448200  1
  Fe  Fe6  1  0.86511500  0.38680300  0.87448200  1
  Fe  Fe7  1  0.61319700  0.13488500  0.62551800  1
  Fe  Fe8  1  0.00000000  0.50000000  0.00000000  1
  Fe  Fe9  1  0.50000000  0.00000000  0.50000000  1
  Fe  Fe10  1  0.24525200  0.75474800  0.25000000  1
  Fe  Fe11  1  0.75474800  0.24525200  0.75000000  1
  Fe  Fe12  1  0.63560600  0.11100500  0.12579100  1
  Fe  Fe13  1  0.88899500  0.36439400  0.37420900  1
  Fe  Fe14  1  0.36439400  0.88899500  0.87420900  1
  Fe  Fe15  1  0.11100500  0.63560600  0.62579100  1
  F  F0  1  0.74597500  0.58115300  0.04708100  1
  F  F1  1  0.41884700  0.25402500  0.45291900  1
  F  F2  1  0.25402500  0.41884700  0.95291900  1
  F  F3  1  0.58115300  0.74597500  0.54708100  1
  F  F4  1  0.52268600  0.63908300  0.20914800  1
  F  F5  1  0.36091700  0.47731400  0.29085200  1
  F  F6  1  0.47731400  0.36091700  0.79085200  1
  F  F7  1  0.63908300  0.52268600  0.70914800  1
  F  F8  1  0.72829600  0.29876700  0.14199200  1
  F  F9  1  0.70123300  0.27170400  0.35800800  1
  F  F10  1  0.27170400  0.70123300  0.85800800  1
  F  F11  1  0.29876700  0.72829600  0.64199200  1
  F  F12  1  0.53301200  0.92849800  0.11044100  1
  F  F13  1  0.07150200  0.46698800  0.38955900  1
  F  F14  1  0.46698800  0.07150200  0.88955900  1
  F  F15  1  0.92849800  0.53301200  0.61044100  1
  F  F16  1  0.13796800  0.57776300  0.04459900  1
  F  F17  1  0.42223700  0.86203200  0.45540100  1
  F  F18  1  0.86203200  0.42223700  0.95540100  1
  F  F19  1  0.57776300  0.13796800  0.54459900  1
  F  F20  1  0.13551600  0.63955600  0.20702700  1
  F  F21  1  0.36044400  0.86448400  0.29297300  1
  F  F22  1  0.86448400  0.36044400  0.79297300  1
  F  F23  1  0.63955600  0.13551600  0.70702700  1
  F  F24  1  0.93242800  0.92535500  0.10897700  1
  F  F25  1  0.07464500  0.06757200  0.39102300  1
  F  F26  1  0.06757200  0.07464500  0.89102300  1
  F  F27  1  0.92535500  0.93242800  0.60897700  1
  F  F28  1  0.33912200  0.30026300  0.14187300  1
  F  F29  1  0.69973700  0.66087800  0.35812700  1
  F  F30  1  0.66087800  0.69973700  0.85812700  1
  F  F31  1  0.30026300  0.33912200  0.64187300  1
  F  F32  1  0.91004000  0.52859900  0.15656000  1
  F  F33  1  0.47140100  0.08996000  0.34344000  1
  F  F34  1  0.08996000  0.47140100  0.84344000  1
  F  F35  1  0.52859900  0.91004000  0.65656000  1
  F  F36  1  0.35806100  0.69735700  0.09304900  1
  F  F37  1  0.30264300  0.64193900  0.40695100  1
  F  F38  1  0.64193900  0.30264300  0.90695100  1
  F  F39  1  0.69735700  0.35806100  0.59304900  1
  F  F40  1  0.12970000  0.20688700  0.03203100  1
  F  F41  1  0.79311300  0.87030000  0.46796900  1
  F  F42  1  0.87030000  0.79311300  0.96796900  1
  F  F43  1  0.20688700  0.12970000  0.53203100  1
  F  F44  1  0.97657200  0.86196100  0.29146200  1
  F  F45  1  0.13803900  0.02342800  0.20853800  1
  F  F46  1  0.02342800  0.13803900  0.70853800  1
  F  F47  1  0.86196100  0.97657200  0.79146200  1
  F  F48  1  0.64091200  0.02541600  0.20408100  1
  F  F49  1  0.97458400  0.35908800  0.29591900  1
  F  F50  1  0.35908800  0.97458400  0.79591900  1
  F  F51  1  0.02541600  0.64091200  0.70408100  1
  F  F52  1  0.63439400  0.18971500  0.04698700  1
  F  F53  1  0.81028500  0.36560600  0.45301300  1
  F  F54  1  0.36560600  0.81028500  0.95301300  1
  F  F55  1  0.18971500  0.63439400  0.54698700  1
loop_
_geom_bond_atom_site_label_1
_geom_bond_atom_site_label_2
_geom_bond_distance
_geom_bond_site_symmetry_2
F0 Fe8 1.937930 1_655
F0 Fe0 2.070800 1_555
F0 Na2 2.657493 1_555
F0 Na5 2.898112 1_565
F1 Fe9 1.937930 1_555
F1 Fe1 2.070800 1_555
F1 Na3 2.657493 1_555
F1 Na4 2.898112 1_555
F2 Fe8 1.937930 1_556
F2 Fe2 2.070800 1_555
F2 Na2 2.657493 1_556
F2 Na5 2.898112 1_556
F3 Fe9 1.937930 1_565
F3 Fe3 2.070800 1_555
F3 Na3 2.657493 1_555
F3 Na4 2.898112 1_655
F4 Fe10 1.984352 1_555
F4 Fe0 2.082729 1_555
F4 Na8 2.665097 1_555
F4 Na6 2.896145 1_555
F5 Fe10 1.984352 1_555
F5 Fe1 2.082729 1_555
F5 Na9 2.665097 1_555
F5 Na6 2.896145 1_555
F6 Fe11 1.984352 1_555
F6 Fe2 2.082729 1_555
F6 Na10 2.665097 1_555
F6 Na7 2.896145 1_555
F7 Fe11 1.984352 1_555
F7 Fe3 2.082729 1_555
F7 Na11 2.665097 1_555
F7 Na7 2.896145 1_555
F8 Fe12 1.949163 1_555
F8 Fe0 2.081454 1_555
F8 Na12 2.632800 1_655
F8 Na6 2.733205 1_555
F9 Fe13 1.949163 1_555
F9 Fe1 2.081454 1_555
F9 Na13 2.632800 1_545
F9 Na6 2.733205 1_555
F10 Fe14 1.949163 1_555
F10 Fe2 2.081454 1_555
F10 Na14 2.632800 1_455
F10 Na7 2.733205 1_555
F11 Fe15 1.949163 1_555
F11 Fe3 2.081454 1_555
F11 Na15 2.632800 1_565
F11 Na7 2.733205 1_555
F12 Fe12 1.960710 1_565
F12 Fe0 2.072636 1_555
F12 Na12 2.579700 1_565
F12 Na5 2.763857 1_565
F13 Fe13 1.960710 1_455
F13 Fe1 2.072636 1_555
F13 Na13 2.579700 1_455
F13 Na4 2.763857 1_555
F14 Fe14 1.960710 1_545
F14 Fe2 2.072636 1_555
F14 Na14 2.579700 1_545
F14 Na5 2.763857 1_556
F15 Fe15 1.960710 1_655
F15 Fe3 2.072636 1_555
F15 Na15 2.579700 1_655
F15 Na4 2.763857 1_655
F16 Fe8 1.939950 1_555
F16 Fe4 2.079323 1_555
F16 Na2 2.570388 1_555
F16 Na0 2.881498 1_565
F17 Fe9 1.939950 1_565
F17 Fe5 2.079323 1_555
F17 Na3 2.570388 1_555
F17 Na1 2.881498 1_565
F18 Fe8 1.939950 1_656
F18 Fe6 2.079323 1_555
F18 Na2 2.570388 1_556
F18 Na0 2.881498 1_656
F19 Fe9 1.939950 1_555
F19 Fe7 2.079323 1_555
F19 Na3 2.570388 1_555
F19 Na1 2.881498 1_655
F20 Fe10 1.947671 1_555
F20 Fe4 2.082229 1_555
F20 Na8 2.494675 1_455
F20 Na9 2.882778 1_555
F21 Fe10 1.947671 1_555
F21 Fe5 2.082229 1_555
F21 Na9 2.494675 1_565
F21 Na8 2.882778 1_555
F22 Fe11 1.947671 1_555
F22 Fe6 2.082229 1_555
F22 Na10 2.494675 1_655
F22 Na11 2.882778 1_555
F23 Fe11 1.947671 1_555
F23 Fe7 2.082229 1_555
F23 Na11 2.494675 1_545
F23 Na10 2.882778 1_555
F24 Fe12 1.965498 1_565
F24 Fe4 2.073293 1_655
F24 Na12 2.616479 1_665
F24 Na0 2.725813 1_665
F25 Fe13 1.965498 1_455
F25 Fe5 2.073293 1_545
F25 Na13 2.616479 1_445
F25 Na1 2.725813 1_555
F26 Fe14 1.965498 1_545
F26 Fe6 2.073293 1_455
F26 Na14 2.616479 1_445
F26 Na0 2.725813 1_556
F27 Fe15 1.965498 1_655
F27 Fe7 2.073293 1_565
F27 Na15 2.616479 1_665
F27 Na1 2.725813 1_665
F28 Fe12 1.965990 1_555
F28 Fe4 2.079625 1_555
F28 Na12 2.621918 1_555
F28 Na9 2.647150 1_555
F29 Fe13 1.965990 1_555
F29 Fe5 2.079625 1_555
F29 Na13 2.621918 1_555
F29 Na8 2.647150 1_555
F30 Fe14 1.965990 1_555
F30 Fe6 2.079625 1_555
F30 Na14 2.621918 1_555
F30 Na11 2.647150 1_555
F31 Fe15 1.965990 1_555
F31 Fe7 2.079625 1_555
F31 Na15 2.621918 1_555
F31 Na10 2.647150 1_555
F32 Fe4 2.074905 1_655
F32 Fe0 2.080224 1_555
F32 Na8 2.722800 1_555
F32 Na12 2.861953 1_655
F33 Fe5 2.074905 1_545
F33 Fe1 2.080224 1_555
F33 Na9 2.722800 1_555
F33 Na13 2.861953 1_545
F34 Fe6 2.074905 1_455
F34 Fe2 2.080224 1_555
F34 Na10 2.722800 1_555
F34 Na14 2.861953 1_455
F35 Fe7 2.074905 1_565
F35 Fe3 2.080224 1_555
F35 Na11 2.722800 1_555
F35 Na15 2.861953 1_565
F36 Fe4 2.069468 1_555
F36 Fe0 2.079837 1_555
F36 Na2 2.734152 1_555
F36 Na12 2.887244 1_565
F37 Fe5 2.069468 1_555
F37 Fe1 2.079837 1_555
F37 Na3 2.734152 1_555
F37 Na13 2.887244 1_455
F38 Fe6 2.069468 1_555
F38 Fe2 2.079837 1_555
F38 Na2 2.734152 1_556
F38 Na14 2.887244 1_545
F39 Fe7 2.069468 1_555
F39 Fe3 2.079837 1_555
F39 Na3 2.734152 1_555
F39 Na15 2.887244 1_655
F40 Fe8 1.993568 1_555
F40 Na12 2.238832 1_555
F40 Na0 2.452926 1_555
F40 Na5 2.479694 1_555
F41 Fe9 1.993568 1_565
F41 Na13 2.238832 1_555
F41 Na1 2.452926 1_665
F41 Na4 2.479694 1_655
F42 Fe8 1.993568 1_656
F42 Na14 2.238832 1_555
F42 Na0 2.452926 1_666
F42 Na5 2.479694 1_566
F43 Fe9 1.993568 1_555
F43 Na15 2.238832 1_555
F43 Na1 2.452926 1_555
F43 Na4 2.479694 1_555
F44 Fe10 1.942668 1_655
F44 Na13 2.192193 1_555
F44 Na6 2.443264 1_565
F44 Na8 2.578312 1_555
F45 Fe10 1.942668 1_545
F45 Na12 2.192193 1_555
F45 Na6 2.443264 1_455
F45 Na9 2.578312 1_555
F46 Fe11 1.942668 1_455
F46 Na15 2.192193 1_555
F46 Na7 2.443264 1_545
F46 Na10 2.578312 1_555
F47 Fe11 1.942668 1_565
F47 Na14 2.192193 1_555
F47 Na7 2.443264 1_655
F47 Na11 2.578312 1_555
F48 Fe12 1.970137 1_555
F48 Na8 2.311026 1_545
F48 Na9 2.412237 1_555
F48 Na6 2.610731 1_555
F49 Fe13 1.970137 1_555
F49 Na9 2.311026 1_655
F49 Na8 2.412237 1_555
F49 Na6 2.610731 1_555
F50 Fe14 1.970137 1_555
F50 Na10 2.311026 1_565
F50 Na11 2.412237 1_555
F50 Na7 2.610731 1_555
F51 Fe15 1.970137 1_555
F51 Na11 2.311026 1_455
F51 Na10 2.412237 1_555
F51 Na7 2.610731 1_555
F52 Fe12 1.974221 1_555
F52 Na2 2.233706 1_555
F52 Na0 2.558903 1_655
F52 Na5 2.574137 1_555
F53 Fe13 1.974221 1_555
F53 Na3 2.233706 1_555
F53 Na1 2.558903 1_655
F53 Na4 2.574137 1_655
F54 Fe14 1.974221 1_555
F54 Na2 2.233706 1_556
F54 Na0 2.558903 1_566
F54 Na5 2.574137 1_566
F55 Fe15 1.974221 1_555
F55 Na3 2.233706 1_555
F55 Na1 2.558903 1_565
F55 Na4 2.574137 1_555
