# generated using pymatgen
data_MnAl2Cu
_symmetry_space_group_name_H-M   'P 1'
_cell_length_a   5.61326000
_cell_length_b   5.61326000
_cell_length_c   13.36614600
_cell_angle_alpha   90.00000000
_cell_angle_beta   90.00000000
_cell_angle_gamma   90.00000000
_symmetry_Int_Tables_number   1
_chemical_formula_structural   MnAl2Cu
_chemical_formula_sum   'Mn8 Al16 Cu8'
_cell_volume   421.14972177
_cell_formula_units_Z   8
loop_
 _symmetry_equiv_pos_site_id
 _symmetry_equiv_pos_as_xyz
  1  'x, y, z'
loop_
 _atom_site_type_symbol
 _atom_site_label
 _atom_site_symmetry_multiplicity
 _atom_site_fract_x
 _atom_site_fract_y
 _atom_site_fract_z
 _atom_site_occupancy
  Mn  Mn0_0  1  0.25000000  0.25000000  0.25000000  1
  Mn  Mn0_1  1  0.25000000  0.25000000  0.75000000  1
  Mn  Mn0_2  1  0.25000000  0.75000000  0.25000000  1
  Mn  Mn0_3  1  0.25000000  0.75000000  0.75000000  1
  Mn  Mn0_4  1  0.75000000  0.25000000  0.25000000  1
  Mn  Mn0_5  1  0.75000000  0.25000000  0.75000000  1
  Mn  Mn0_6  1  0.75000000  0.75000000  0.25000000  1
  Mn  Mn0_7  1  0.75000000  0.75000000  0.75000000  1
  Al  Al0_0  1  0.00000000  0.00000000  0.37419400  1
  Al  Al0_1  1  0.00000000  0.00000000  0.87419400  1
  Al  Al0_2  1  0.00000000  0.50000000  0.37419400  1
  Al  Al0_3  1  0.00000000  0.50000000  0.87419400  1
  Al  Al0_4  1  0.50000000  0.00000000  0.37419400  1
  Al  Al0_5  1  0.50000000  0.00000000  0.87419400  1
  Al  Al0_6  1  0.50000000  0.50000000  0.37419400  1
  Al  Al0_7  1  0.50000000  0.50000000  0.87419400  1
  Al  Al1_0  1  0.00000000  0.00000000  0.12580600  1
  Al  Al1_1  1  0.00000000  0.00000000  0.62580600  1
  Al  Al1_2  1  0.00000000  0.50000000  0.12580600  1
  Al  Al1_3  1  0.00000000  0.50000000  0.62580600  1
  Al  Al1_4  1  0.50000000  0.00000000  0.12580600  1
  Al  Al1_5  1  0.50000000  0.00000000  0.62580600  1
  Al  Al1_6  1  0.50000000  0.50000000  0.12580600  1
  Al  Al1_7  1  0.50000000  0.50000000  0.62580600  1
  Cu  Cu0_0  1  0.25000000  0.25000000  0.00000000  1
  Cu  Cu0_1  1  0.25000000  0.25000000  0.50000000  1
  Cu  Cu0_2  1  0.25000000  0.75000000  0.00000000  1
  Cu  Cu0_3  1  0.25000000  0.75000000  0.50000000  1
  Cu  Cu0_4  1  0.75000000  0.25000000  0.00000000  1
  Cu  Cu0_5  1  0.75000000  0.25000000  0.50000000  1
  Cu  Cu0_6  1  0.75000000  0.75000000  0.00000000  1
  Cu  Cu0_7  1  0.75000000  0.75000000  0.50000000  1
loop_
_geom_bond_atom_site_label_1
_geom_bond_atom_site_label_2
_geom_bond_distance
_geom_bond_site_symmetry_2
Mn0_0 Mn0_2 2.806630 1_545
Mn0_0 Mn0_4 2.806630 1_555
Mn0_0 Mn0_4 2.806630 1_455
Mn0_0 Mn0_2 2.806630 1_555
Mn0_1 Mn0_5 2.806630 1_555
Mn0_1 Mn0_3 2.806630 1_555
Mn0_1 Mn0_3 2.806630 1_545
Mn0_1 Mn0_5 2.806630 1_455
Mn0_2 Mn0_6 2.806630 1_555
Mn0_2 Mn0_6 2.806630 1_455
Mn0_3 Mn0_7 2.806630 1_455
Mn0_3 Mn0_7 2.806630 1_555
Mn0_4 Mn0_6 2.806630 1_555
Mn0_4 Mn0_6 2.806630 1_545
Mn0_5 Mn0_7 2.806630 1_545
Mn0_5 Mn0_7 2.806630 1_555
Al0_0 Mn0_0 2.587309 1_555
Al0_0 Mn0_2 2.587309 1_545
Al0_0 Mn0_4 2.587309 1_455
Al0_0 Mn0_6 2.587309 1_445
Al0_0 Cu0_1 2.601186 1_555
Al0_0 Cu0_7 2.601186 1_445
Al0_0 Cu0_3 2.601186 1_545
Al0_0 Cu0_5 2.601186 1_455
Al0_0 Al0_2 2.806630 1_545
Al0_0 Al0_2 2.806630 1_555
Al0_0 Al0_4 2.806630 1_555
Al0_0 Al0_4 2.806630 1_455
Al0_1 Mn0_3 2.587309 1_545
Al0_1 Mn0_5 2.587309 1_455
Al0_1 Mn0_7 2.587309 1_445
Al0_1 Mn0_1 2.587309 1_555
Al0_1 Cu0_2 2.601186 1_546
Al0_1 Cu0_4 2.601186 1_456
Al0_1 Cu0_0 2.601186 1_556
Al0_1 Cu0_6 2.601186 1_446
Al0_1 Al0_5 2.806630 1_455
Al0_1 Al0_3 2.806630 1_555
Al0_1 Al0_3 2.806630 1_545
Al0_1 Al0_5 2.806630 1_555
Al0_2 Mn0_2 2.587309 1_555
Al0_2 Mn0_6 2.587309 1_455
Al0_2 Mn0_0 2.587309 1_555
Al0_2 Mn0_4 2.587309 1_455
Al0_2 Cu0_1 2.601186 1_555
Al0_2 Cu0_7 2.601186 1_455
Al0_2 Cu0_5 2.601186 1_455
Al0_2 Cu0_3 2.601186 1_555
Al0_2 Al0_6 2.806630 1_555
Al0_2 Al0_6 2.806630 1_455
Al0_3 Mn0_7 2.587309 1_455
Al0_3 Mn0_5 2.587309 1_455
Al0_3 Mn0_1 2.587309 1_555
Al0_3 Mn0_3 2.587309 1_555
Al0_3 Cu0_2 2.601186 1_556
Al0_3 Cu0_6 2.601186 1_456
Al0_3 Cu0_4 2.601186 1_456
Al0_3 Cu0_0 2.601186 1_556
Al0_3 Al0_7 2.806630 1_555
Al0_3 Al0_7 2.806630 1_455
Al0_4 Mn0_0 2.587309 1_555
Al0_4 Mn0_2 2.587309 1_545
Al0_4 Mn0_4 2.587309 1_555
Al0_4 Mn0_6 2.587309 1_545
Al0_4 Cu0_1 2.601186 1_555
Al0_4 Cu0_5 2.601186 1_555
Al0_4 Cu0_3 2.601186 1_545
Al0_4 Cu0_7 2.601186 1_545
Al0_4 Al0_6 2.806630 1_545
Al0_4 Al0_6 2.806630 1_555
Al0_5 Mn0_3 2.587309 1_545
Al0_5 Mn0_5 2.587309 1_555
Al0_5 Mn0_1 2.587309 1_555
Al0_5 Mn0_7 2.587309 1_545
Al0_5 Cu0_6 2.601186 1_546
Al0_5 Cu0_4 2.601186 1_556
Al0_5 Cu0_2 2.601186 1_546
Al0_5 Cu0_0 2.601186 1_556
Al0_5 Al0_7 2.806630 1_555
Al0_5 Al0_7 2.806630 1_545
Al0_6 Mn0_2 2.587309 1_555
Al0_6 Mn0_6 2.587309 1_555
Al0_6 Mn0_0 2.587309 1_555
Al0_6 Mn0_4 2.587309 1_555
Al0_6 Cu0_1 2.601186 1_555
Al0_6 Cu0_5 2.601186 1_555
Al0_6 Cu0_3 2.601186 1_555
Al0_6 Cu0_7 2.601186 1_555
Al0_7 Mn0_7 2.587309 1_555
Al0_7 Mn0_5 2.587309 1_555
Al0_7 Mn0_1 2.587309 1_555
Al0_7 Mn0_3 2.587309 1_555
Al0_7 Cu0_4 2.601186 1_556
Al0_7 Cu0_2 2.601186 1_556
Al0_7 Cu0_6 2.601186 1_556
Al0_7 Cu0_0 2.601186 1_556
Al1_0 Mn0_0 2.587309 1_555
Al1_0 Mn0_2 2.587309 1_545
Al1_0 Mn0_4 2.587309 1_455
Al1_0 Mn0_6 2.587309 1_445
Al1_0 Cu0_0 2.601186 1_555
Al1_0 Cu0_2 2.601186 1_545
Al1_0 Cu0_4 2.601186 1_455
Al1_0 Cu0_6 2.601186 1_445
Al1_0 Al1_4 2.806630 1_455
Al1_0 Al1_4 2.806630 1_555
Al1_0 Al1_2 2.806630 1_545
Al1_0 Al1_2 2.806630 1_555
Al1_1 Mn0_1 2.587309 1_555
Al1_1 Mn0_3 2.587309 1_545
Al1_1 Mn0_7 2.587309 1_445
Al1_1 Mn0_5 2.587309 1_455
Al1_1 Cu0_7 2.601186 1_445
Al1_1 Cu0_3 2.601186 1_545
Al1_1 Cu0_5 2.601186 1_455
Al1_1 Cu0_1 2.601186 1_555
Al1_1 Al1_3 2.806630 1_545
Al1_1 Al1_5 2.806630 1_555
Al1_1 Al1_3 2.806630 1_555
Al1_1 Al1_5 2.806630 1_455
Al1_2 Mn0_6 2.587309 1_455
Al1_2 Mn0_0 2.587309 1_555
Al1_2 Mn0_4 2.587309 1_455
Al1_2 Mn0_2 2.587309 1_555
Al1_2 Cu0_0 2.601186 1_555
Al1_2 Cu0_6 2.601186 1_455
Al1_2 Cu0_2 2.601186 1_555
Al1_2 Cu0_4 2.601186 1_455
Al1_2 Al1_6 2.806630 1_555
Al1_2 Al1_6 2.806630 1_455
Al1_3 Mn0_1 2.587309 1_555
Al1_3 Mn0_3 2.587309 1_555
Al1_3 Mn0_7 2.587309 1_455
Al1_3 Mn0_5 2.587309 1_455
Al1_3 Cu0_7 2.601186 1_455
Al1_3 Cu0_5 2.601186 1_455
Al1_3 Cu0_3 2.601186 1_555
Al1_3 Cu0_1 2.601186 1_555
Al1_3 Al1_7 2.806630 1_555
Al1_3 Al1_7 2.806630 1_455
Al1_4 Mn0_0 2.587309 1_555
Al1_4 Mn0_2 2.587309 1_545
Al1_4 Mn0_4 2.587309 1_555
Al1_4 Mn0_6 2.587309 1_545
Al1_4 Cu0_0 2.601186 1_555
Al1_4 Cu0_2 2.601186 1_545
Al1_4 Cu0_4 2.601186 1_555
Al1_4 Cu0_6 2.601186 1_545
Al1_4 Al1_6 2.806630 1_545
Al1_4 Al1_6 2.806630 1_555
Al1_5 Mn0_1 2.587309 1_555
Al1_5 Mn0_5 2.587309 1_555
Al1_5 Mn0_7 2.587309 1_545
Al1_5 Mn0_3 2.587309 1_545
Al1_5 Cu0_7 2.601186 1_545
Al1_5 Cu0_5 2.601186 1_555
Al1_5 Cu0_1 2.601186 1_555
Al1_5 Cu0_3 2.601186 1_545
Al1_5 Al1_7 2.806630 1_555
Al1_5 Al1_7 2.806630 1_545
Al1_6 Mn0_6 2.587309 1_555
Al1_6 Mn0_0 2.587309 1_555
Al1_6 Mn0_4 2.587309 1_555
Al1_6 Mn0_2 2.587309 1_555
Al1_6 Cu0_0 2.601186 1_555
Al1_6 Cu0_2 2.601186 1_555
Al1_6 Cu0_4 2.601186 1_555
Al1_6 Cu0_6 2.601186 1_555
Al1_7 Mn0_1 2.587309 1_555
Al1_7 Mn0_5 2.587309 1_555
Al1_7 Mn0_3 2.587309 1_555
Al1_7 Mn0_7 2.587309 1_555
Al1_7 Cu0_7 2.601186 1_555
Al1_7 Cu0_5 2.601186 1_555
Al1_7 Cu0_3 2.601186 1_555
Al1_7 Cu0_1 2.601186 1_555
Cu0_0 Cu0_2 2.806630 1_545
Cu0_0 Cu0_2 2.806630 1_555
Cu0_0 Cu0_4 2.806630 1_455
Cu0_0 Cu0_4 2.806630 1_555
Cu0_1 Cu0_5 2.806630 1_555
Cu0_1 Cu0_5 2.806630 1_455
Cu0_1 Cu0_3 2.806630 1_545
Cu0_1 Cu0_3 2.806630 1_555
Cu0_2 Cu0_6 2.806630 1_455
Cu0_2 Cu0_6 2.806630 1_555
Cu0_3 Cu0_7 2.806630 1_455
Cu0_3 Cu0_7 2.806630 1_555
Cu0_4 Cu0_6 2.806630 1_545
Cu0_4 Cu0_6 2.806630 1_555
Cu0_5 Cu0_7 2.806630 1_555
Cu0_5 Cu0_7 2.806630 1_545
