# generated using pymatgen
data_ErFe10Mo2N
_symmetry_space_group_name_H-M   'P 1'
_cell_length_a   4.74692200
_cell_length_b   6.56197232
_cell_length_c   6.56197232
_cell_angle_alpha   97.97570659
_cell_angle_beta   111.20459449
_cell_angle_gamma   68.79540551
_symmetry_Int_Tables_number   1
_chemical_formula_structural   ErFe10Mo2N
_chemical_formula_sum   'Er1 Fe10 Mo2 N1'
_cell_volume   177.65169128
_cell_formula_units_Z   1
loop_
 _symmetry_equiv_pos_site_id
 _symmetry_equiv_pos_as_xyz
  1  'x, y, z'
loop_
 _atom_site_type_symbol
 _atom_site_label
 _atom_site_symmetry_multiplicity
 _atom_site_fract_x
 _atom_site_fract_y
 _atom_site_fract_z
 _atom_site_occupancy
  Er  Er0  1  0.00000000  0.00000000  0.00000000  1
  Fe  Fe0  1  0.72017900  0.77982100  0.22017900  1
  Fe  Fe1  1  0.27982100  0.22017900  0.77982100  1
  Fe  Fe2  1  0.50000000  0.77882100  0.77882100  1
  Fe  Fe3  1  0.50000000  0.22117900  0.22117900  1
  Fe  Fe4  1  0.50000000  0.00000000  0.50000000  1
  Fe  Fe5  1  0.00000000  0.00000000  0.50000000  1
  Fe  Fe6  1  0.50000000  0.50000000  0.00000000  1
  Fe  Fe7  1  0.00000000  0.50000000  0.00000000  1
  Fe  Fe8  1  0.64038800  0.35961200  0.64038800  1
  Fe  Fe9  1  0.35961200  0.64038800  0.35961200  1
  Mo  Mo0  1  0.00000000  0.35794100  0.35794100  1
  Mo  Mo1  1  0.00000000  0.64205900  0.64205900  1
  N  N0  1  0.50000000  0.00000000  0.00000000  1
loop_
_geom_bond_atom_site_label_1
_geom_bond_atom_site_label_2
_geom_bond_distance
_geom_bond_site_symmetry_2
Er0 N0 2.373461 1_455
Er0 N0 2.373461 1_555
Er0 Mo0 3.082653 1_555
Er0 Mo1 3.082653 1_544
Er0 Fe9 3.125419 1_545
Er0 Fe8 3.125419 1_454
Er0 Fe6 3.280986 1_545
Er0 Fe5 3.280986 1_555
Er0 Fe5 3.280986 1_554
Er0 Fe6 3.280986 1_455
Er0 Fe4 3.280986 1_454
Er0 Fe7 3.280986 1_545
Er0 Fe7 3.280986 1_555
Er0 Fe4 3.280986 1_555
Fe0 N0 1.913595 1_565
Fe0 Fe7 2.472065 1_655
Fe0 Fe6 2.472065 1_555
Fe0 Fe5 2.472065 1_665
Fe0 Fe4 2.472065 1_565
Fe0 Fe9 2.664927 1_655
Fe0 Fe9 2.664927 1_555
Fe0 Mo0 2.722347 1_655
Fe0 Mo1 2.722347 1_655
Fe1 N0 1.913595 1_556
Fe1 Fe5 2.472065 1_555
Fe1 Fe4 2.472065 1_555
Fe1 Fe7 2.472065 1_556
Fe1 Fe6 2.472065 1_556
Fe1 Fe8 2.664927 1_455
Fe1 Fe8 2.664927 1_555
Fe1 Mo0 2.722347 1_555
Fe1 Mo1 2.722347 1_555
Fe2 N0 1.904834 1_566
Fe2 Fe7 2.488147 1_656
Fe2 Fe4 2.488147 1_565
Fe2 Fe6 2.488147 1_556
Fe2 Fe5 2.488147 1_565
Fe2 Mo1 2.649637 1_655
Fe2 Mo1 2.649637 1_555
Fe2 Fe8 2.693462 1_555
Fe2 Fe9 2.693462 1_555
Fe3 N0 1.904834 1_555
Fe3 Fe5 2.488147 1_655
Fe3 Fe6 2.488147 1_555
Fe3 Fe7 2.488147 1_555
Fe3 Fe4 2.488147 1_555
Fe3 Mo0 2.649637 1_655
Fe3 Mo0 2.649637 1_555
Fe3 Fe8 2.693462 1_555
Fe3 Fe9 2.693462 1_555
Fe4 Fe5 2.373461 1_555
Fe4 Fe5 2.373461 1_655
Fe4 Fe8 2.636564 1_555
Fe4 Fe9 2.636564 1_545
Fe4 Mo0 2.644510 1_555
Fe4 Mo1 2.644510 1_645
Fe5 Fe8 2.636564 1_455
Fe5 Fe9 2.636564 1_545
Fe5 Mo0 2.644510 1_555
Fe5 Mo1 2.644510 1_545
Fe6 Fe7 2.373461 1_655
Fe6 Fe7 2.373461 1_555
Fe6 Fe8 2.636564 1_554
Fe6 Fe9 2.636564 1_555
Fe6 Mo0 2.644510 1_655
Fe6 Mo1 2.644510 1_554
Fe7 Fe9 2.636564 1_555
Fe7 Fe8 2.636564 1_454
Fe7 Mo0 2.644510 1_555
Fe7 Mo1 2.644510 1_554
Fe8 Fe9 2.440248 1_555
Fe8 Mo1 2.935783 1_555
Fe8 Mo1 2.935783 1_655
Fe8 Mo0 2.935783 1_555
Fe8 Mo0 2.935783 1_655
Fe9 Mo1 2.935783 1_555
Fe9 Mo1 2.935783 1_655
Fe9 Mo0 2.935783 1_655
Fe9 Mo0 2.935783 1_555
Mo0 Mo1 2.446876 1_555
