# generated using pymatgen
data_YU(CuSi)4
_symmetry_space_group_name_H-M   'P 1'
_cell_length_a   3.97144100
_cell_length_b   3.97144100
_cell_length_c   9.98208000
_cell_angle_alpha   90.00000000
_cell_angle_beta   90.00000000
_cell_angle_gamma   90.00000000
_symmetry_Int_Tables_number   1
_chemical_formula_structural   YU(CuSi)4
_chemical_formula_sum   'Y1 U1 Cu4 Si4'
_cell_volume   157.44079577
_cell_formula_units_Z   1
loop_
 _symmetry_equiv_pos_site_id
 _symmetry_equiv_pos_as_xyz
  1  'x, y, z'
loop_
 _atom_site_type_symbol
 _atom_site_label
 _atom_site_symmetry_multiplicity
 _atom_site_fract_x
 _atom_site_fract_y
 _atom_site_fract_z
 _atom_site_occupancy
  Y  Y0  1  0.50000000  0.50000000  0.50000000  1
  U  U0  1  0.00000000  0.00000000  0.00000000  1
  Cu  Cu0  1  0.00000000  0.50000000  0.25105100  1
  Cu  Cu1  1  0.50000000  0.00000000  0.74894900  1
  Cu  Cu2  1  0.50000000  0.00000000  0.25105100  1
  Cu  Cu3  1  0.00000000  0.50000000  0.74894900  1
  Si  Si0  1  0.50000000  0.50000000  0.11604100  1
  Si  Si1  1  0.00000000  0.00000000  0.61923300  1
  Si  Si2  1  0.00000000  0.00000000  0.38076700  1
  Si  Si3  1  0.50000000  0.50000000  0.88395900  1
loop_
_geom_bond_atom_site_label_1
_geom_bond_atom_site_label_2
_geom_bond_distance
_geom_bond_site_symmetry_2
Cu0 Si2 2.370587 1_555
Cu0 Si2 2.370587 1_565
Cu0 Si0 2.399860 1_555
Cu0 Si0 2.399860 1_455
Cu0 Cu2 2.808233 1_455
Cu0 Cu2 2.808233 1_565
Cu0 Cu2 2.808233 1_555
Cu0 Cu2 2.808233 1_465
Cu0 Y0 3.180952 1_455
Cu0 Y0 3.180952 1_555
Cu0 U0 3.197370 1_555
Cu0 U0 3.197370 1_565
Cu1 Si1 2.370587 1_655
Cu1 Si1 2.370587 1_555
Cu1 Si3 2.399860 1_545
Cu1 Si3 2.399860 1_555
Cu1 Cu3 2.808233 1_645
Cu1 Cu3 2.808233 1_655
Cu1 Cu3 2.808233 1_555
Cu1 Cu3 2.808233 1_545
Cu1 Y0 3.180952 1_545
Cu1 Y0 3.180952 1_555
Cu1 U0 3.197370 1_556
Cu1 U0 3.197370 1_656
Cu2 Si2 2.370587 1_555
Cu2 Si2 2.370587 1_655
Cu2 Si0 2.399860 1_555
Cu2 Si0 2.399860 1_545
Cu2 Y0 3.180952 1_555
Cu2 Y0 3.180952 1_545
Cu2 U0 3.197370 1_555
Cu2 U0 3.197370 1_655
Cu3 Si1 2.370587 1_565
Cu3 Si1 2.370587 1_555
Cu3 Si3 2.399860 1_555
Cu3 Si3 2.399860 1_455
Cu3 Y0 3.180952 1_455
Cu3 Y0 3.180952 1_555
Cu3 U0 3.197370 1_556
Cu3 U0 3.197370 1_566
Si0 Si3 2.316661 1_554
Si0 U0 3.037746 1_555
Si0 U0 3.037746 1_565
Si0 U0 3.037746 1_655
Si0 U0 3.037746 1_665
Si1 Si2 2.380387 1_555
Si1 Y0 3.050038 1_455
Si1 Y0 3.050038 1_555
Si1 Y0 3.050038 1_445
Si1 Y0 3.050038 1_545
Si2 Y0 3.050038 1_555
Si2 Y0 3.050038 1_445
Si2 Y0 3.050038 1_545
Si2 Y0 3.050038 1_455
Si3 U0 3.037746 1_556
Si3 U0 3.037746 1_566
Si3 U0 3.037746 1_666
Si3 U0 3.037746 1_656
