# generated using pymatgen
data_VCu13As3S16
_symmetry_space_group_name_H-M   'P 1'
_cell_length_a   10.62156200
_cell_length_b   10.62156200
_cell_length_c   10.62156200
_cell_angle_alpha   90.00000000
_cell_angle_beta   90.00000000
_cell_angle_gamma   90.00000000
_symmetry_Int_Tables_number   1
_chemical_formula_structural   VCu13As3S16
_chemical_formula_sum   'V2 Cu26 As6 S32'
_cell_volume   1198.29891344
_cell_formula_units_Z   2
loop_
 _symmetry_equiv_pos_site_id
 _symmetry_equiv_pos_as_xyz
  1  'x, y, z'
loop_
 _atom_site_type_symbol
 _atom_site_label
 _atom_site_symmetry_multiplicity
 _atom_site_fract_x
 _atom_site_fract_y
 _atom_site_fract_z
 _atom_site_occupancy
  V  V0  1  0.50000000  0.50000000  0.50000000  1
  V  V1  1  0.00000000  0.00000000  0.00000000  1
  Cu  Cu0  1  0.50000000  0.50000000  0.24308100  1
  Cu  Cu1  1  0.50000000  0.75691900  0.50000000  1
  Cu  Cu2  1  0.24308100  0.50000000  0.50000000  1
  Cu  Cu3  1  0.50000000  0.24308100  0.50000000  1
  Cu  Cu4  1  0.75691900  0.50000000  0.50000000  1
  Cu  Cu5  1  0.50000000  0.50000000  0.75691900  1
  Cu  Cu6  1  0.00000000  0.74308100  0.00000000  1
  Cu  Cu7  1  0.00000000  0.00000000  0.25691900  1
  Cu  Cu8  1  0.74308100  0.00000000  0.00000000  1
  Cu  Cu9  1  0.00000000  0.00000000  0.74308100  1
  Cu  Cu10  1  0.25691900  0.00000000  0.00000000  1
  Cu  Cu11  1  0.00000000  0.25691900  0.00000000  1
  Cu  Cu12  1  0.24967300  0.75032700  0.24967300  1
  Cu  Cu13  1  0.75032700  0.24967300  0.24967300  1
  Cu  Cu14  1  0.24967300  0.24967300  0.75032700  1
  Cu  Cu15  1  0.75032700  0.75032700  0.75032700  1
  Cu  Cu16  1  0.74967300  0.74967300  0.25032700  1
  Cu  Cu17  1  0.25032700  0.74967300  0.74967300  1
  Cu  Cu18  1  0.74967300  0.25032700  0.74967300  1
  Cu  Cu19  1  0.25032700  0.25032700  0.25032700  1
  Cu  Cu20  1  0.00000000  0.50000000  0.25000000  1
  Cu  Cu21  1  0.50000000  0.75000000  0.00000000  1
  Cu  Cu22  1  0.25000000  0.00000000  0.50000000  1
  Cu  Cu23  1  0.50000000  0.25000000  0.00000000  1
  Cu  Cu24  1  0.75000000  0.00000000  0.50000000  1
  Cu  Cu25  1  0.00000000  0.50000000  0.75000000  1
  As  As0  1  0.50000000  0.00000000  0.25000000  1
  As  As1  1  0.00000000  0.75000000  0.50000000  1
  As  As2  1  0.25000000  0.50000000  0.00000000  1
  As  As3  1  0.00000000  0.25000000  0.50000000  1
  As  As4  1  0.75000000  0.50000000  0.00000000  1
  As  As5  1  0.50000000  0.00000000  0.75000000  1
  S  S0  1  0.37921300  0.62078700  0.37921300  1
  S  S1  1  0.62078700  0.37921300  0.37921300  1
  S  S2  1  0.37921300  0.37921300  0.62078700  1
  S  S3  1  0.62078700  0.62078700  0.62078700  1
  S  S4  1  0.87921300  0.87921300  0.12078700  1
  S  S5  1  0.12078700  0.87921300  0.87921300  1
  S  S6  1  0.87921300  0.12078700  0.87921300  1
  S  S7  1  0.12078700  0.12078700  0.12078700  1
  S  S8  1  0.37530500  0.87095500  0.12641200  1
  S  S9  1  0.12904500  0.87358800  0.37530500  1
  S  S10  1  0.12641200  0.62469500  0.12904500  1
  S  S11  1  0.62469500  0.12904500  0.12641200  1
  S  S12  1  0.87095500  0.12641200  0.37530500  1
  S  S13  1  0.87358800  0.37530500  0.12904500  1
  S  S14  1  0.37530500  0.12904500  0.87358800  1
  S  S15  1  0.12904500  0.12641200  0.62469500  1
  S  S16  1  0.12641200  0.37530500  0.87095500  1
  S  S17  1  0.62469500  0.87095500  0.87358800  1
  S  S18  1  0.87095500  0.87358800  0.62469500  1
  S  S19  1  0.87358800  0.62469500  0.87095500  1
  S  S20  1  0.87530500  0.62641200  0.37095500  1
  S  S21  1  0.62904500  0.87530500  0.37358800  1
  S  S22  1  0.62641200  0.62904500  0.12469500  1
  S  S23  1  0.12469500  0.62641200  0.62904500  1
  S  S24  1  0.37095500  0.87530500  0.62641200  1
  S  S25  1  0.37358800  0.62904500  0.87530500  1
  S  S26  1  0.87530500  0.37358800  0.62904500  1
  S  S27  1  0.62904500  0.12469500  0.62641200  1
  S  S28  1  0.62641200  0.37095500  0.87530500  1
  S  S29  1  0.12469500  0.37358800  0.37095500  1
  S  S30  1  0.37095500  0.12469500  0.37358800  1
  S  S31  1  0.37358800  0.37095500  0.12469500  1
loop_
_geom_bond_atom_site_label_1
_geom_bond_atom_site_label_2
_geom_bond_distance
_geom_bond_site_symmetry_2
Cu0 S22 2.294057 1_555
Cu0 S31 2.294057 1_555
Cu0 S1 2.320050 1_555
Cu0 S0 2.320050 1_555
Cu1 S24 2.294057 1_555
Cu1 S21 2.294057 1_555
Cu1 S3 2.320050 1_555
Cu1 S0 2.320050 1_555
Cu2 S23 2.294057 1_555
Cu2 S29 2.294057 1_555
Cu2 S0 2.320050 1_555
Cu2 S2 2.320050 1_555
Cu3 S27 2.294057 1_555
Cu3 S30 2.294057 1_555
Cu3 S1 2.320050 1_555
Cu3 S2 2.320050 1_555
Cu4 S20 2.294057 1_555
Cu4 S26 2.294057 1_555
Cu4 S3 2.320050 1_555
Cu4 S1 2.320050 1_555
Cu5 S28 2.294057 1_555
Cu5 S25 2.294057 1_555
Cu5 S3 2.320050 1_555
Cu5 S2 2.320050 1_555
Cu6 S10 2.294057 1_555
Cu6 S19 2.294057 1_454
Cu6 S5 2.320050 1_554
Cu6 S4 2.320050 1_455
Cu7 S9 2.294057 1_545
Cu7 S12 2.294057 1_455
Cu7 S7 2.320050 1_555
Cu7 S4 2.320050 1_445
Cu8 S11 2.294057 1_555
Cu8 S17 2.294057 1_544
Cu8 S4 2.320050 1_545
Cu8 S6 2.320050 1_554
Cu9 S15 2.294057 1_555
Cu9 S18 2.294057 1_445
Cu9 S6 2.320050 1_455
Cu9 S5 2.320050 1_545
Cu10 S14 2.294057 1_554
Cu10 S8 2.294057 1_545
Cu10 S7 2.320050 1_555
Cu10 S5 2.320050 1_544
Cu11 S13 2.294057 1_455
Cu11 S16 2.294057 1_554
Cu11 S7 2.320050 1_555
Cu11 S6 2.320050 1_454
Cu12 S10 2.266348 1_555
Cu12 S8 2.266348 1_555
Cu12 S9 2.266348 1_555
Cu12 S0 2.383158 1_555
Cu13 S11 2.266348 1_555
Cu13 S13 2.266348 1_555
Cu13 S12 2.266348 1_555
Cu13 S1 2.383158 1_555
Cu14 S15 2.266348 1_555
Cu14 S14 2.266348 1_555
Cu14 S16 2.266348 1_555
Cu14 S2 2.383158 1_555
Cu15 S18 2.266348 1_555
Cu15 S17 2.266348 1_555
Cu15 S19 2.266348 1_555
Cu15 S3 2.383158 1_555
Cu16 S22 2.266348 1_555
Cu16 S20 2.266348 1_555
Cu16 S21 2.266348 1_555
Cu16 S4 2.383158 1_555
Cu17 S23 2.266348 1_555
Cu17 S25 2.266348 1_555
Cu17 S24 2.266348 1_555
Cu17 S5 2.383158 1_555
Cu18 S27 2.266348 1_555
Cu18 S26 2.266348 1_555
Cu18 S28 2.266348 1_555
Cu18 S6 2.383158 1_555
Cu19 S30 2.266348 1_555
Cu19 S29 2.266348 1_555
Cu19 S31 2.266348 1_555
Cu19 S7 2.383158 1_555
Cu20 S20 2.282004 1_455
Cu20 S29 2.282004 1_555
Cu20 S10 2.282004 1_555
Cu20 S13 2.282004 1_455
Cu21 S8 2.282004 1_555
Cu21 S22 2.282004 1_555
Cu21 S17 2.282004 1_554
Cu21 S25 2.282004 1_554
Cu22 S24 2.282004 1_545
Cu22 S15 2.282004 1_555
Cu22 S30 2.282004 1_555
Cu22 S9 2.282004 1_545
Cu23 S28 2.282004 1_554
Cu23 S31 2.282004 1_555
Cu23 S11 2.282004 1_555
Cu23 S14 2.282004 1_554
Cu24 S12 2.282004 1_555
Cu24 S27 2.282004 1_555
Cu24 S21 2.282004 1_545
Cu24 S18 2.282004 1_545
Cu25 S16 2.282004 1_555
Cu25 S23 2.282004 1_555
Cu25 S19 2.282004 1_455
Cu25 S26 2.282004 1_455
As0 S21 2.314317 1_545
As0 S11 2.314317 1_555
As0 S30 2.314317 1_555
As0 S8 2.314317 1_545
As1 S9 2.314317 1_555
As1 S20 2.314317 1_455
As1 S23 2.314317 1_555
As1 S18 2.314317 1_455
As2 S25 2.314317 1_554
As2 S10 2.314317 1_555
As2 S31 2.314317 1_555
As2 S16 2.314317 1_554
As3 S26 2.314317 1_455
As3 S15 2.314317 1_555
As3 S29 2.314317 1_555
As3 S12 2.314317 1_455
As4 S13 2.314317 1_555
As4 S19 2.314317 1_554
As4 S28 2.314317 1_554
As4 S22 2.314317 1_555
As5 S14 2.314317 1_555
As5 S17 2.314317 1_545
As5 S24 2.314317 1_545
As5 S27 2.314317 1_555
S0 V0 2.222129 1_555
S1 V0 2.222129 1_555
S2 V0 2.222129 1_555
S3 V0 2.222129 1_555
S4 V1 2.222129 1_665
S5 V1 2.222129 1_566
S6 V1 2.222129 1_656
S7 V1 2.222129 1_555
