# generated using pymatgen
data_Gd4Ge3O13
_symmetry_space_group_name_H-M   'P 1'
_cell_length_a   6.74611698
_cell_length_b   9.45565745
_cell_length_c   10.16253079
_cell_angle_alpha   62.46437708
_cell_angle_beta   87.89114390
_cell_angle_gamma   69.77166835
_symmetry_Int_Tables_number   1
_chemical_formula_structural   Gd4Ge3O13
_chemical_formula_sum   'Gd8 Ge6 O26'
_cell_volume   533.44026484
_cell_formula_units_Z   2
loop_
 _symmetry_equiv_pos_site_id
 _symmetry_equiv_pos_as_xyz
  1  'x, y, z'
loop_
 _atom_site_type_symbol
 _atom_site_label
 _atom_site_symmetry_multiplicity
 _atom_site_fract_x
 _atom_site_fract_y
 _atom_site_fract_z
 _atom_site_occupancy
  Gd  Gd0  1  0.26203200  0.44032800  0.77522400  1
  Gd  Gd1  1  0.73796800  0.55967200  0.22477600  1
  Gd  Gd2  1  0.30412800  0.85074400  0.48965600  1
  Gd  Gd3  1  0.69587200  0.14925600  0.51034400  1
  Gd  Gd4  1  0.20457100  0.10716200  0.70147800  1
  Gd  Gd5  1  0.79542900  0.89283800  0.29852200  1
  Gd  Gd6  1  0.21722600  0.65624800  0.00575500  1
  Gd  Gd7  1  0.78277400  0.34375200  0.99424500  1
  Ge  Ge0  1  0.27504900  0.95518400  0.10914000  1
  Ge  Ge1  1  0.72495100  0.04481600  0.89086000  1
  Ge  Ge2  1  0.24785400  0.51974200  0.39696100  1
  Ge  Ge3  1  0.75214600  0.48025800  0.60303900  1
  Ge  Ge4  1  0.28333300  0.25790200  0.15949900  1
  Ge  Ge5  1  0.71666700  0.74209800  0.84050100  1
  O  O0  1  0.28024800  0.59057300  0.52658900  1
  O  O1  1  0.71975200  0.40942700  0.47341100  1
  O  O2  1  0.07463000  0.09052600  0.49894700  1
  O  O3  1  0.92537000  0.90947400  0.50105300  1
  O  O4  1  0.38378900  0.57204000  0.23629200  1
  O  O5  1  0.61621100  0.42796000  0.76370800  1
  O  O6  1  0.41405200  0.38145900  0.02160400  1
  O  O7  1  0.58594800  0.61854100  0.97839600  1
  O  O8  1  0.44826300  0.07443400  0.31792300  1
  O  O9  1  0.55173700  0.92556600  0.68207700  1
  O  O10  1  0.17304500  0.19265500  0.04199700  1
  O  O11  1  0.82695500  0.80734500  0.95800300  1
  O  O12  1  0.33357900  0.29270100  0.49510500  1
  O  O13  1  0.66642100  0.70729900  0.50489500  1
  O  O14  1  0.20796900  0.92132500  0.96315900  1
  O  O15  1  0.79203100  0.07867500  0.03684100  1
  O  O16  1  0.06655600  0.42737100  0.16041600  1
  O  O17  1  0.93344400  0.57262900  0.83958400  1
  O  O18  1  0.14001200  0.90665600  0.26678200  1
  O  O19  1  0.85998800  0.09334400  0.73321800  1
  O  O20  1  0.44720300  0.14946600  0.82951800  1
  O  O21  1  0.55279700  0.85053400  0.17048200  1
  O  O22  1  0.02465400  0.36733400  0.68832500  1
  O  O23  1  0.97534600  0.63266600  0.31167500  1
  O  O24  1  0.24856500  0.73460700  0.74756000  1
  O  O25  1  0.75143500  0.26539300  0.25243900  1
loop_
_geom_bond_atom_site_label_1
_geom_bond_atom_site_label_2
_geom_bond_distance
_geom_bond_site_symmetry_2
Gd0 O0 2.279642 1_555
Gd0 O22 2.291871 1_555
Gd0 O5 2.352686 1_555
Gd0 O17 2.374593 1_455
Gd0 O20 2.387641 1_555
Gd0 O6 2.477172 1_556
Gd0 O24 2.633234 1_555
Gd0 O10 2.859537 1_556
Gd1 O1 2.279642 1_555
Gd1 O23 2.291871 1_555
Gd1 O4 2.352686 1_555
Gd1 O16 2.374593 1_655
Gd1 O21 2.387641 1_555
Gd1 O7 2.477172 1_554
Gd1 O25 2.633238 1_555
Gd1 O11 2.859537 1_554
Gd2 O2 2.303535 1_565
Gd2 O18 2.303901 1_555
Gd2 O13 2.319136 1_555
Gd2 O0 2.373760 1_555
Gd2 O24 2.401460 1_555
Gd2 O3 2.430438 1_455
Gd2 O8 2.519798 1_565
Gd3 O3 2.303535 1_545
Gd3 O19 2.303901 1_555
Gd3 O12 2.319136 1_555
Gd3 O1 2.373760 1_555
Gd3 O25 2.401469 1_555
Gd3 O2 2.430438 1_655
Gd3 O9 2.519798 1_545
Gd4 O22 2.277317 1_555
Gd4 O2 2.357322 1_555
Gd4 O20 2.371314 1_555
Gd4 O19 2.375027 1_455
Gd4 O12 2.398622 1_555
Gd4 O14 2.411714 1_545
Gd4 O9 2.443456 1_545
Gd5 O23 2.277317 1_555
Gd5 O3 2.357322 1_555
Gd5 O21 2.371314 1_555
Gd5 O18 2.375027 1_655
Gd5 O13 2.398622 1_555
Gd5 O15 2.411714 1_565
Gd5 O8 2.443456 1_565
Gd6 O4 2.288170 1_555
Gd6 O14 2.316088 1_554
Gd6 O24 2.397612 1_554
Gd6 O6 2.404835 1_555
Gd6 O7 2.412313 1_554
Gd6 O11 2.461751 1_454
Gd6 O16 2.538850 1_555
Gd7 O5 2.288170 1_555
Gd7 O15 2.316088 1_556
Gd7 O25 2.397603 1_556
Gd7 O7 2.404835 1_555
Gd7 O6 2.412313 1_556
Gd7 O10 2.461751 1_656
Gd7 O17 2.538850 1_555
Ge0 O14 1.759806 1_554
Ge0 O18 1.763218 1_555
Ge0 O21 1.764106 1_555
Ge0 O10 1.878973 1_565
Ge1 O15 1.759806 1_556
Ge1 O19 1.763218 1_555
Ge1 O20 1.764106 1_555
Ge1 O11 1.878973 1_545
Ge2 O12 1.772627 1_555
Ge2 O0 1.780424 1_555
Ge2 O23 1.781881 1_455
Ge2 O4 1.791194 1_555
Ge3 O13 1.772627 1_555
Ge3 O1 1.780424 1_555
Ge3 O22 1.781881 1_655
Ge3 O5 1.791194 1_555
Ge4 O8 1.747629 1_555
Ge4 O16 1.760341 1_555
Ge4 O6 1.792805 1_555
Ge4 O10 1.850429 1_555
Ge5 O9 1.747629 1_555
Ge5 O17 1.760341 1_555
Ge5 O7 1.792805 1_555
Ge5 O11 1.850429 1_555
