# generated using pymatgen
data_HfMnGe2
_symmetry_space_group_name_H-M   'P 1'
_cell_length_a   7.99772657
_cell_length_b   9.34362835
_cell_length_c   10.25512711
_cell_angle_alpha   90.00000000
_cell_angle_beta   90.00000000
_cell_angle_gamma   90.00000000
_symmetry_Int_Tables_number   1
_chemical_formula_structural   HfMnGe2
_chemical_formula_sum   'Hf12 Mn12 Ge24'
_cell_volume   766.34293090
_cell_formula_units_Z   12
loop_
 _symmetry_equiv_pos_site_id
 _symmetry_equiv_pos_as_xyz
  1  'x, y, z'
loop_
 _atom_site_type_symbol
 _atom_site_label
 _atom_site_symmetry_multiplicity
 _atom_site_fract_x
 _atom_site_fract_y
 _atom_site_fract_z
 _atom_site_occupancy
  Hf  Hf0  1  0.24657678  0.82877667  0.45334690  1
  Hf  Hf1  1  0.24657678  0.17122333  0.54665310  1
  Hf  Hf2  1  0.75342322  0.32877667  0.04665310  1
  Hf  Hf3  1  0.75342322  0.67122333  0.95334690  1
  Hf  Hf4  1  0.75342322  0.17122333  0.54665310  1
  Hf  Hf5  1  0.75342322  0.82877667  0.45334690  1
  Hf  Hf6  1  0.24657678  0.67122333  0.95334690  1
  Hf  Hf7  1  0.24657678  0.32877667  0.04665310  1
  Hf  Hf8  1  -0.00000000  0.83444095  0.18093164  1
  Hf  Hf9  1  -0.00000000  0.16555905  0.81906836  1
  Hf  Hf10  1  -0.00000000  0.33444095  0.31906836  1
  Hf  Hf11  1  -0.00000000  0.66555905  0.68093164  1
  Mn  Mn0  1  0.25148743  0.58413276  0.25181935  1
  Mn  Mn1  1  0.25148743  0.41586724  0.74818065  1
  Mn  Mn2  1  0.74851257  0.08413276  0.24818065  1
  Mn  Mn3  1  0.74851257  0.91586724  0.75181935  1
  Mn  Mn4  1  0.74851257  0.41586724  0.74818065  1
  Mn  Mn5  1  0.74851257  0.58413276  0.25181935  1
  Mn  Mn6  1  0.25148743  0.91586724  0.75181935  1
  Mn  Mn7  1  0.25148743  0.08413276  0.24818065  1
  Mn  Mn8  1  0.24575318  0.50000000  0.50000000  1
  Mn  Mn9  1  0.75424682  0.00000000  -0.00000000  1
  Mn  Mn10  1  0.75424682  0.50000000  0.50000000  1
  Mn  Mn11  1  0.24575318  0.00000000  -0.00000000  1
  Ge  Ge0  1  0.34328599  0.83269740  0.18194711  1
  Ge  Ge1  1  0.34328599  0.16730260  0.81805289  1
  Ge  Ge2  1  0.65671401  0.33269740  0.31805289  1
  Ge  Ge3  1  0.65671401  0.66730260  0.68194711  1
  Ge  Ge4  1  0.65671401  0.16730260  0.81805289  1
  Ge  Ge5  1  0.65671401  0.83269740  0.18194711  1
  Ge  Ge6  1  0.34328599  0.66730260  0.68194711  1
  Ge  Ge7  1  0.34328599  0.33269740  0.31805289  1
  Ge  Ge8  1  0.50000000  0.53758117  0.11585538  1
  Ge  Ge9  1  0.50000000  0.46241883  0.88414462  1
  Ge  Ge10  1  0.50000000  0.03758117  0.38414462  1
  Ge  Ge11  1  0.50000000  0.96241883  0.61585538  1
  Ge  Ge12  1  -0.00000000  0.53992766  0.11686221  1
  Ge  Ge13  1  -0.00000000  0.46007234  0.88313779  1
  Ge  Ge14  1  -0.00000000  0.03992766  0.38313779  1
  Ge  Ge15  1  -0.00000000  0.96007234  0.61686221  1
  Ge  Ge16  1  0.50000000  0.62863728  0.40745580  1
  Ge  Ge17  1  0.50000000  0.37136272  0.59254420  1
  Ge  Ge18  1  0.50000000  0.12863728  0.09254420  1
  Ge  Ge19  1  0.50000000  0.87136272  0.90745580  1
  Ge  Ge20  1  -0.00000000  0.63239596  0.39979880  1
  Ge  Ge21  1  -0.00000000  0.36760404  0.60020120  1
  Ge  Ge22  1  -0.00000000  0.13239596  0.10020120  1
  Ge  Ge23  1  -0.00000000  0.86760404  0.89979880  1
loop_
_geom_bond_atom_site_label_1
_geom_bond_atom_site_label_2
_geom_bond_distance
_geom_bond_site_symmetry_2
Ge0 Ge5 2.506712 1_555
Ge0 Mn0 2.538986 1_555
Ge0 Mn7 2.553366 1_565
Ge0 Mn11 2.556100 1_565
Ge0 Hf8 2.745576 1_555
Ge0 Hf0 2.888943 1_555
Ge0 Hf6 2.893169 1_554
Ge1 Ge4 2.506712 1_555
Ge1 Mn1 2.538986 1_555
Ge1 Mn6 2.553366 1_545
Ge1 Mn11 2.556100 1_556
Ge1 Hf9 2.745576 1_555
Ge1 Hf1 2.888943 1_555
Ge1 Hf7 2.893169 1_556
Ge2 Ge7 2.506712 1_555
Ge2 Mn2 2.538986 1_555
Ge2 Mn5 2.553366 1_555
Ge2 Mn10 2.556100 1_555
Ge2 Hf10 2.745576 1_655
Ge2 Hf2 2.888943 1_555
Ge2 Hf4 2.893169 1_555
Ge3 Ge6 2.506712 1_555
Ge3 Mn3 2.538986 1_555
Ge3 Mn4 2.553366 1_555
Ge3 Mn10 2.556100 1_555
Ge3 Hf11 2.745576 1_655
Ge3 Hf3 2.888943 1_555
Ge3 Hf5 2.893169 1_555
Ge4 Mn4 2.538986 1_555
Ge4 Mn3 2.553366 1_545
Ge4 Mn9 2.556100 1_556
Ge4 Hf9 2.745576 1_655
Ge4 Hf4 2.888943 1_555
Ge4 Hf2 2.893169 1_556
Ge5 Mn5 2.538986 1_555
Ge5 Mn2 2.553366 1_565
Ge5 Mn9 2.556100 1_565
Ge5 Hf8 2.745576 1_655
Ge5 Hf5 2.888943 1_555
Ge5 Hf3 2.893169 1_554
Ge6 Mn6 2.538986 1_555
Ge6 Mn1 2.553366 1_555
Ge6 Mn8 2.556100 1_555
Ge6 Hf11 2.745576 1_555
Ge6 Hf6 2.888943 1_555
Ge6 Hf0 2.893169 1_555
Ge7 Mn7 2.538986 1_555
Ge7 Mn0 2.553366 1_555
Ge7 Mn8 2.556100 1_555
Ge7 Hf10 2.745576 1_555
Ge7 Hf7 2.888943 1_555
Ge7 Hf1 2.893169 1_555
Ge8 Mn0 2.466503 1_555
Ge8 Mn5 2.466503 1_555
Ge8 Ge9 2.477831 1_554
Ge8 Hf7 2.901374 1_555
Ge8 Hf2 2.901374 1_555
Ge8 Hf6 2.905957 1_554
Ge8 Hf3 2.905957 1_554
Ge9 Mn1 2.466503 1_555
Ge9 Mn4 2.466503 1_555
Ge9 Hf6 2.901374 1_555
Ge9 Hf3 2.901374 1_555
Ge9 Hf7 2.905957 1_556
Ge9 Hf2 2.905957 1_556
Ge10 Mn7 2.466503 1_555
Ge10 Mn2 2.466503 1_555
Ge10 Ge11 2.477831 1_545
Ge10 Hf0 2.901374 1_545
Ge10 Hf5 2.901374 1_545
Ge10 Hf1 2.905957 1_555
Ge10 Hf4 2.905957 1_555
Ge11 Mn6 2.466503 1_555
Ge11 Mn3 2.466503 1_555
Ge11 Hf1 2.901374 1_565
Ge11 Hf4 2.901374 1_565
Ge11 Hf0 2.905957 1_555
Ge11 Hf5 2.905957 1_555
Ge12 Mn5 2.476187 1_455
Ge12 Mn0 2.476187 1_555
Ge12 Ge13 2.510324 1_554
Ge12 Hf10 2.826020 1_555
Ge12 Hf8 2.829175 1_555
Ge12 Hf3 2.864590 1_454
Ge12 Hf6 2.864590 1_554
Ge12 Hf2 2.880937 1_455
Ge12 Hf7 2.880937 1_555
Ge13 Mn4 2.476187 1_455
Ge13 Mn1 2.476187 1_555
Ge13 Hf11 2.826020 1_555
Ge13 Hf9 2.829175 1_555
Ge13 Hf2 2.864590 1_456
Ge13 Hf7 2.864590 1_556
Ge13 Hf3 2.880937 1_455
Ge13 Hf6 2.880937 1_555
Ge14 Mn2 2.476187 1_455
Ge14 Mn7 2.476187 1_555
Ge14 Ge15 2.510324 1_545
Ge14 Hf8 2.826020 1_545
Ge14 Hf10 2.829175 1_555
Ge14 Hf4 2.864590 1_455
Ge14 Hf1 2.864590 1_555
Ge14 Hf5 2.880937 1_445
Ge14 Hf0 2.880937 1_545
Ge15 Mn3 2.476187 1_455
Ge15 Mn6 2.476187 1_555
Ge15 Hf9 2.826020 1_565
Ge15 Hf11 2.829175 1_555
Ge15 Hf0 2.864590 1_555
Ge15 Hf5 2.864590 1_455
Ge15 Hf4 2.880937 1_465
Ge15 Hf1 2.880937 1_565
Ge16 Mn10 2.545596 1_555
Ge16 Mn8 2.545596 1_555
Ge16 Mn0 2.582762 1_555
Ge16 Mn5 2.582762 1_555
Ge16 Hf0 2.797578 1_555
Ge16 Hf5 2.797578 1_555
Ge17 Mn10 2.545596 1_555
Ge17 Mn8 2.545596 1_555
Ge17 Mn1 2.582762 1_555
Ge17 Mn4 2.582762 1_555
Ge17 Hf1 2.797578 1_555
Ge17 Hf4 2.797578 1_555
Ge18 Mn11 2.545596 1_555
Ge18 Mn9 2.545596 1_555
Ge18 Mn7 2.582762 1_555
Ge18 Mn2 2.582762 1_555
Ge18 Hf7 2.797578 1_555
Ge18 Hf2 2.797578 1_555
Ge19 Mn11 2.545596 1_566
Ge19 Mn9 2.545596 1_566
Ge19 Mn6 2.582762 1_555
Ge19 Mn3 2.582762 1_555
Ge19 Hf6 2.797578 1_555
Ge19 Hf3 2.797578 1_555
Ge20 Mn8 2.539544 1_555
Ge20 Mn10 2.539544 1_455
Ge20 Mn5 2.559639 1_455
Ge20 Mn0 2.559639 1_555
Ge20 Hf5 2.749080 1_455
Ge20 Hf0 2.749080 1_555
Ge20 Hf11 2.899657 1_555
Ge20 Hf10 2.904474 1_555
Ge20 Hf8 2.932873 1_555
Ge21 Mn8 2.539544 1_555
Ge21 Mn10 2.539544 1_455
Ge21 Mn4 2.559639 1_455
Ge21 Mn1 2.559639 1_555
Ge21 Hf4 2.749080 1_455
Ge21 Hf1 2.749080 1_555
Ge21 Hf10 2.899657 1_555
Ge21 Hf11 2.904474 1_555
Ge21 Hf9 2.932873 1_555
Ge22 Mn11 2.539544 1_555
Ge22 Mn9 2.539544 1_455
Ge22 Mn2 2.559639 1_455
Ge22 Mn7 2.559639 1_555
Ge22 Hf2 2.749080 1_455
Ge22 Hf7 2.749080 1_555
Ge22 Hf9 2.899657 1_554
Ge22 Hf8 2.904474 1_545
Ge22 Hf10 2.932873 1_555
Ge23 Mn11 2.539544 1_566
Ge23 Mn9 2.539544 1_466
Ge23 Mn6 2.559639 1_555
Ge23 Mn3 2.559639 1_455
Ge23 Hf3 2.749080 1_455
Ge23 Hf6 2.749080 1_555
Ge23 Hf8 2.899657 1_556
Ge23 Hf9 2.904474 1_565
Ge23 Hf11 2.932873 1_555
