# generated using pymatgen
data_ZnH8C4(NO2)3
_symmetry_space_group_name_H-M   'P 1'
_cell_length_a   8.54136500
_cell_length_b   8.87624900
_cell_length_c   12.08353700
_cell_angle_alpha   90.00000000
_cell_angle_beta   90.00000000
_cell_angle_gamma   90.00000000
_symmetry_Int_Tables_number   1
_chemical_formula_structural   ZnH8C4(NO2)3
_chemical_formula_sum   'Zn4 H32 C16 N12 O24'
_cell_volume   916.11677174
_cell_formula_units_Z   4
loop_
 _symmetry_equiv_pos_site_id
 _symmetry_equiv_pos_as_xyz
  1  'x, y, z'
loop_
 _atom_site_type_symbol
 _atom_site_label
 _atom_site_symmetry_multiplicity
 _atom_site_fract_x
 _atom_site_fract_y
 _atom_site_fract_z
 _atom_site_occupancy
  Zn  Zn0  1  0.24826400  0.25063700  0.74977700  1
  Zn  Zn1  1  0.25173600  0.24936300  0.24977700  1
  Zn  Zn2  1  0.75173600  0.75063700  0.24977700  1
  Zn  Zn3  1  0.74826400  0.74936300  0.74977700  1
  H  H0  1  0.08473800  0.75073300  0.88054600  1
  H  H1  1  0.41659500  0.75608900  0.12080200  1
  H  H2  1  0.08340500  0.74391100  0.62080200  1
  H  H3  1  0.41526200  0.74926700  0.38054600  1
  H  H4  1  0.91659500  0.24391100  0.12080200  1
  H  H5  1  0.58473800  0.24926700  0.88054600  1
  H  H6  1  0.91526200  0.25073300  0.38054600  1
  H  H7  1  0.58340500  0.25608900  0.62080200  1
  H  H8  1  0.24547500  0.32498800  0.99792000  1
  H  H9  1  0.25452500  0.17501200  0.49792000  1
  H  H10  1  0.74547500  0.67501200  0.99792000  1
  H  H11  1  0.75452500  0.82498800  0.49792000  1
  H  H12  1  0.90994800  0.07221300  0.78419700  1
  H  H13  1  0.59685600  0.07132800  0.21475600  1
  H  H14  1  0.90314400  0.42867200  0.71475600  1
  H  H15  1  0.59005200  0.42778700  0.28419700  1
  H  H16  1  0.09685600  0.92867200  0.21475600  1
  H  H17  1  0.40994800  0.92778700  0.78419700  1
  H  H18  1  0.09005200  0.57221300  0.28419700  1
  H  H19  1  0.40314400  0.57132800  0.71475600  1
  H  H20  1  0.17583400  0.92878000  0.91603600  1
  H  H21  1  0.32664000  0.93388100  0.08335000  1
  H  H22  1  0.17336000  0.56611900  0.58335000  1
  H  H23  1  0.32416600  0.57122000  0.41603600  1
  H  H24  1  0.82664000  0.06611900  0.08335000  1
  H  H25  1  0.67583400  0.07122000  0.91603600  1
  H  H26  1  0.82416600  0.42878000  0.41603600  1
  H  H27  1  0.67336000  0.43388100  0.58335000  1
  H  H28  1  0.32840000  0.54150100  0.05037800  1
  H  H29  1  0.17160000  0.95849900  0.55037800  1
  H  H30  1  0.82840000  0.45849900  0.05037800  1
  H  H31  1  0.67160000  0.04150100  0.55037800  1
  C  C0  1  0.24889100  0.20083900  0.99869600  1
  C  C1  1  0.25110900  0.29916100  0.49869600  1
  C  C2  1  0.74889100  0.79916100  0.99869600  1
  C  C3  1  0.75110900  0.70083900  0.49869600  1
  C  C4  1  0.24942900  0.74344200  0.00181900  1
  C  C5  1  0.25057100  0.75655800  0.50181900  1
  C  C6  1  0.74942900  0.25655800  0.00181900  1
  C  C7  1  0.75057100  0.24344200  0.50181900  1
  C  C8  1  0.98232700  0.01281700  0.72165100  1
  C  C9  1  0.51993300  0.01441200  0.27616600  1
  C  C10  1  0.98006700  0.48558800  0.77616600  1
  C  C11  1  0.51767300  0.48718300  0.22165100  1
  C  C12  1  0.01993300  0.98558800  0.27616600  1
  C  C13  1  0.48232700  0.98718300  0.72165100  1
  C  C14  1  0.01767300  0.51281700  0.22165100  1
  C  C15  1  0.48006700  0.51441200  0.77616600  1
  N  N0  1  0.23314300  0.59198700  0.01170800  1
  N  N1  1  0.26685700  0.90801300  0.51170800  1
  N  N2  1  0.73314300  0.40801300  0.01170800  1
  N  N3  1  0.76685700  0.09198700  0.51170800  1
  N  N4  1  0.16225300  0.81432200  0.92660300  1
  N  N5  1  0.34227700  0.81921100  0.07226900  1
  N  N6  1  0.15772300  0.68078900  0.57226900  1
  N  N7  1  0.33774700  0.68567800  0.42660300  1
  N  N8  1  0.84227700  0.18078900  0.07226900  1
  N  N9  1  0.66225300  0.18567800  0.92660300  1
  N  N10  1  0.83774700  0.31432200  0.42660300  1
  N  N11  1  0.65772300  0.31921100  0.57226900  1
  O  O0  1  0.94095300  0.88140200  0.69200900  1
  O  O1  1  0.55837300  0.88225500  0.30672600  1
  O  O2  1  0.94162700  0.61774500  0.80672600  1
  O  O3  1  0.55904700  0.61859800  0.19200900  1
  O  O4  1  0.05837300  0.11774500  0.30672600  1
  O  O5  1  0.44095300  0.11859800  0.69200900  1
  O  O6  1  0.05904700  0.38140200  0.19200900  1
  O  O7  1  0.44162700  0.38225500  0.80672600  1
  O  O8  1  0.10266700  0.07878700  0.68394600  1
  O  O9  1  0.40037800  0.08352800  0.31057600  1
  O  O10  1  0.09962200  0.41647200  0.81057600  1
  O  O11  1  0.39733300  0.42121300  0.18394600  1
  O  O12  1  0.90037800  0.91647200  0.31057600  1
  O  O13  1  0.60266700  0.92121300  0.68394600  1
  O  O14  1  0.89733300  0.57878700  0.18394600  1
  O  O15  1  0.59962200  0.58352800  0.81057600  1
  O  O16  1  0.24081500  0.13246700  0.90616500  1
  O  O17  1  0.25965600  0.13373600  0.09160600  1
  O  O18  1  0.24034400  0.36626400  0.59160600  1
  O  O19  1  0.25918500  0.36753300  0.40616500  1
  O  O20  1  0.75965600  0.86626400  0.09160600  1
  O  O21  1  0.74081500  0.86753300  0.90616500  1
  O  O22  1  0.75918500  0.63246700  0.40616500  1
  O  O23  1  0.74034400  0.63373600  0.59160600  1
loop_
_geom_bond_atom_site_label_1
_geom_bond_atom_site_label_2
_geom_bond_distance
_geom_bond_site_symmetry_2
H0 N4 1.032795 1_555
H1 N5 1.029945 1_555
H2 N6 1.029945 1_555
H3 N7 1.032795 1_555
H4 N8 1.029945 1_555
H5 N9 1.032795 1_555
H6 N10 1.032795 1_555
H7 N11 1.029945 1_555
H20 N4 1.030500 1_555
H21 N5 1.035261 1_555
H22 N6 1.035261 1_555
H23 N7 1.030500 1_555
H24 N8 1.035261 1_555
H25 N9 1.030500 1_555
H26 N10 1.030500 1_555
H27 N11 1.035261 1_555
H28 N0 1.039781 1_555
H29 N1 1.039781 1_555
H30 N2 1.039781 1_555
H31 N3 1.039781 1_555
C0 H8 1.102404 1_555
C0 O16 1.274057 1_555
C0 O17 1.274219 1_556
C1 H9 1.102404 1_555
C1 O19 1.274057 1_555
C1 O18 1.274219 1_555
C2 H10 1.102404 1_555
C2 O21 1.274057 1_555
C2 O20 1.274219 1_556
C3 H11 1.102404 1_555
C3 O22 1.274057 1_555
C3 O23 1.274219 1_555
C4 N4 1.332784 1_554
C4 N5 1.343848 1_555
C4 N0 1.356802 1_555
C5 N7 1.332784 1_555
C5 N6 1.343848 1_555
C5 N1 1.356802 1_555
C6 N9 1.332784 1_554
C6 N8 1.343848 1_555
C6 N2 1.356802 1_555
C7 N10 1.332784 1_555
C7 N11 1.343848 1_555
C7 N3 1.356802 1_555
C8 H12 1.109659 1_555
C8 O8 1.267667 1_655
C8 O0 1.270368 1_545
C9 H13 1.112453 1_555
C9 O9 1.261757 1_555
C9 O1 1.272882 1_545
C10 H14 1.112453 1_555
C10 O10 1.261757 1_655
C10 O2 1.272882 1_555
C11 H15 1.109659 1_555
C11 O11 1.267667 1_555
C11 O3 1.270368 1_555
C12 H16 1.112453 1_555
C12 O12 1.261757 1_455
C12 O4 1.272882 1_565
C13 H17 1.109659 1_555
C13 O13 1.267667 1_555
C13 O5 1.270368 1_565
C14 H18 1.109659 1_555
C14 O14 1.267667 1_455
C14 O6 1.270368 1_555
C15 H19 1.112453 1_555
C15 O15 1.261757 1_555
C15 O7 1.272882 1_555
O0 Zn3 2.137667 1_555
O1 Zn2 2.136852 1_555
O2 Zn3 2.136852 1_555
O3 Zn2 2.137667 1_555
O4 Zn1 2.136852 1_555
O5 Zn0 2.137667 1_555
O6 Zn1 2.137667 1_555
O7 Zn0 2.136852 1_555
O8 Zn0 2.122758 1_555
O9 Zn1 2.078075 1_555
O10 Zn0 2.078075 1_555
O11 Zn1 2.122758 1_555
O12 Zn2 2.078075 1_555
O13 Zn3 2.122758 1_555
O14 Zn2 2.122758 1_555
O15 Zn3 2.078075 1_555
O16 Zn0 2.162243 1_555
O17 Zn1 2.170454 1_555
O18 Zn0 2.170454 1_555
O19 Zn1 2.162243 1_555
O20 Zn2 2.170454 1_555
O21 Zn3 2.162243 1_555
O22 Zn2 2.162243 1_555
O23 Zn3 2.170454 1_555
