# generated using pymatgen
data_Na3PSe4
_symmetry_space_group_name_H-M   'P 1'
_cell_length_a   6.29947173
_cell_length_b   6.29947173
_cell_length_c   6.29947173
_cell_angle_alpha   109.47122063
_cell_angle_beta   109.47122063
_cell_angle_gamma   109.47122063
_symmetry_Int_Tables_number   1
_chemical_formula_structural   Na3PSe4
_chemical_formula_sum   'Na3 P1 Se4'
_cell_volume   192.43785326
_cell_formula_units_Z   1
loop_
 _symmetry_equiv_pos_site_id
 _symmetry_equiv_pos_as_xyz
  1  'x, y, z'
loop_
 _atom_site_type_symbol
 _atom_site_label
 _atom_site_symmetry_multiplicity
 _atom_site_fract_x
 _atom_site_fract_y
 _atom_site_fract_z
 _atom_site_occupancy
  Na  Na0  1  0.00000000  0.50000000  0.50000000  1
  Na  Na1  1  0.50000000  0.00000000  0.50000000  1
  Na  Na2  1  0.50000000  0.50000000  0.00000000  1
  P  P0  1  0.00000000  0.00000000  0.00000000  1
  Se  Se0  1  0.35281839  -0.00000000  -0.00000000  1
  Se  Se1  1  0.00000000  0.35281839  -0.00000000  1
  Se  Se2  1  -0.00000000  -0.00000000  0.35281839  1
  Se  Se3  1  0.64718161  0.64718161  0.64718161  1
loop_
_geom_bond_atom_site_label_1
_geom_bond_atom_site_label_2
_geom_bond_distance
_geom_bond_site_symmetry_2
Na0 Se1 2.972135 1_555
Na0 Se2 2.972135 1_555
Na0 Se3 2.972135 1_455
Na0 Se0 2.972135 1_566
Na1 Se2 2.972135 1_555
Na1 Se0 2.972135 1_555
Na1 Se1 2.972135 1_656
Na1 Se3 2.972135 1_545
Na2 Se1 2.972135 1_555
Na2 Se0 2.972135 1_555
Na2 Se3 2.972135 1_554
Na2 Se2 2.972135 1_665
P0 Se2 2.222569 1_555
P0 Se1 2.222569 1_555
P0 Se0 2.222569 1_555
P0 Se3 2.222569 1_444
