# generated using pymatgen
data_Ce(NiSb)2
_symmetry_space_group_name_H-M   'P 1'
_cell_length_a   4.50104697
_cell_length_b   4.50104697
_cell_length_c   9.82257006
_cell_angle_alpha   90.00000000
_cell_angle_beta   90.00000000
_cell_angle_gamma   90.00000000
_symmetry_Int_Tables_number   1
_chemical_formula_structural   Ce(NiSb)2
_chemical_formula_sum   'Ce2 Ni4 Sb4'
_cell_volume   198.99960991
_cell_formula_units_Z   2
loop_
 _symmetry_equiv_pos_site_id
 _symmetry_equiv_pos_as_xyz
  1  'x, y, z'
loop_
 _atom_site_type_symbol
 _atom_site_label
 _atom_site_symmetry_multiplicity
 _atom_site_fract_x
 _atom_site_fract_y
 _atom_site_fract_z
 _atom_site_occupancy
  Ce  Ce0  1  -0.00000000  0.50000000  0.23889611  1
  Ce  Ce1  1  0.50000000  0.00000000  0.76110389  1
  Ni  Ni0  1  0.00000000  -0.00000000  0.00000000  1
  Ni  Ni1  1  0.50000000  0.50000000  -0.00000000  1
  Ni  Ni2  1  -0.00000000  0.50000000  0.61958693  1
  Ni  Ni3  1  0.50000000  0.00000000  0.38041307  1
  Sb  Sb0  1  0.00000000  -0.00000000  0.50000000  1
  Sb  Sb1  1  0.50000000  0.50000000  0.50000000  1
  Sb  Sb2  1  -0.00000000  0.50000000  0.87498048  1
  Sb  Sb3  1  0.50000000  0.00000000  0.12501952  1
loop_
_geom_bond_atom_site_label_1
_geom_bond_atom_site_label_2
_geom_bond_distance
_geom_bond_site_symmetry_2
Ce0 Ni0 3.251348 1_555
Ce0 Ni0 3.251348 1_565
Ce0 Ni1 3.251348 1_455
Ce0 Ni1 3.251348 1_555
Ce0 Sb3 3.373557 1_455
Ce0 Sb3 3.373557 1_555
Ce0 Sb3 3.373557 1_565
Ce0 Sb3 3.373557 1_465
Ce0 Sb0 3.412125 1_555
Ce0 Sb0 3.412125 1_565
Ce0 Sb1 3.412125 1_555
Ce0 Sb1 3.412125 1_455
Ce0 Ni3 3.473036 1_455
Ce0 Ni3 3.473036 1_555
Ce0 Ni3 3.473036 1_465
Ce0 Ni3 3.473036 1_565
Ce1 Ni0 3.251348 1_556
Ce1 Ni1 3.251348 1_556
Ce1 Ni0 3.251348 1_656
Ce1 Ni1 3.251348 1_546
Ce1 Sb2 3.373557 1_545
Ce1 Sb2 3.373557 1_655
Ce1 Sb2 3.373557 1_555
Ce1 Sb2 3.373557 1_645
Ce1 Sb0 3.412125 1_555
Ce1 Sb1 3.412125 1_545
Ce1 Sb1 3.412125 1_555
Ce1 Sb0 3.412125 1_655
Ce1 Ni2 3.473036 1_555
Ce1 Ni2 3.473036 1_545
Ce1 Ni2 3.473036 1_655
Ce1 Ni2 3.473036 1_645
Ni0 Sb2 2.563761 1_544
Ni0 Sb2 2.563761 1_554
Ni0 Sb3 2.563761 1_455
Ni0 Sb3 2.563761 1_555
Ni1 Sb2 2.563761 1_654
Ni1 Sb2 2.563761 1_554
Ni1 Sb3 2.563761 1_565
Ni1 Sb3 2.563761 1_555
Ni2 Sb2 2.508621 1_555
Ni2 Sb0 2.538634 1_565
Ni2 Sb1 2.538634 1_555
Ni2 Sb1 2.538634 1_455
Ni2 Sb0 2.538634 1_555
Ni3 Sb3 2.508621 1_555
Ni3 Sb0 2.538634 1_655
Ni3 Sb1 2.538634 1_545
Ni3 Sb1 2.538634 1_555
Ni3 Sb0 2.538634 1_555
