# generated using pymatgen
data_AlFe4
_symmetry_space_group_name_H-M   'P 1'
_cell_length_a   5.05571462
_cell_length_b   5.05571462
_cell_length_c   19.85924637
_cell_angle_alpha   84.91262952
_cell_angle_beta   84.91262952
_cell_angle_gamma   107.65935814
_symmetry_Int_Tables_number   1
_chemical_formula_structural   AlFe4
_chemical_formula_sum   'Al8 Fe32'
_cell_volume   478.19659566
_cell_formula_units_Z   8
loop_
 _symmetry_equiv_pos_site_id
 _symmetry_equiv_pos_as_xyz
  1  'x, y, z'
loop_
 _atom_site_type_symbol
 _atom_site_label
 _atom_site_symmetry_multiplicity
 _atom_site_fract_x
 _atom_site_fract_y
 _atom_site_fract_z
 _atom_site_occupancy
  Al  Al0_0  1  0.00000000  0.00000000  0.00000000  1
  Al  Al0_1  1  0.00000000  0.00000000  0.50000000  1
  Al  Al0_2  1  0.00000000  0.50000000  0.00000000  1
  Al  Al0_3  1  0.00000000  0.50000000  0.50000000  1
  Al  Al0_4  1  0.50000000  0.00000000  0.00000000  1
  Al  Al0_5  1  0.50000000  1.00000000  0.50000000  1
  Al  Al0_6  1  0.50000000  0.50000000  0.00000000  1
  Al  Al0_7  1  0.50000000  0.50000000  0.50000000  1
  Fe  Fe0_0  1  0.19974750  0.19974750  0.10050500  1
  Fe  Fe0_1  1  0.19974750  0.19974750  0.60050500  1
  Fe  Fe0_2  1  0.19974750  0.69974750  0.10050500  1
  Fe  Fe0_3  1  0.19974750  0.69974750  0.60050500  1
  Fe  Fe0_4  1  0.69974750  0.19974750  0.10050500  1
  Fe  Fe0_5  1  0.69974750  0.19974750  0.60050500  1
  Fe  Fe0_6  1  0.69974750  0.69974750  0.10050500  1
  Fe  Fe0_7  1  0.69974750  0.69974750  0.60050500  1
  Fe  Fe1_0  1  0.40011350  0.40011350  0.19977300  1
  Fe  Fe1_1  1  0.40011350  0.40011350  0.69977300  1
  Fe  Fe1_2  1  0.40011350  0.90011350  0.19977300  1
  Fe  Fe1_3  1  0.40011350  0.90011350  0.69977300  1
  Fe  Fe1_4  1  0.90011350  0.40011350  0.19977300  1
  Fe  Fe1_5  1  0.90011350  0.40011350  0.69977300  1
  Fe  Fe1_6  1  0.90011350  0.90011350  0.19977300  1
  Fe  Fe1_7  1  0.90011350  0.90011350  0.69977300  1
  Fe  Fe2_0  1  0.09988650  0.09988650  0.30022700  1
  Fe  Fe2_1  1  0.09988650  0.09988650  0.80022700  1
  Fe  Fe2_2  1  0.09988650  0.59988650  0.30022700  1
  Fe  Fe2_3  1  0.09988650  0.59988650  0.80022700  1
  Fe  Fe2_4  1  0.59988650  0.09988650  0.30022700  1
  Fe  Fe2_5  1  0.59988650  0.09988650  0.80022700  1
  Fe  Fe2_6  1  0.59988650  0.59988650  0.30022700  1
  Fe  Fe2_7  1  0.59988650  0.59988650  0.80022700  1
  Fe  Fe3_0  1  0.30025250  0.30025250  0.39949500  1
  Fe  Fe3_1  1  0.30025250  0.30025250  0.89949500  1
  Fe  Fe3_2  1  0.30025250  0.80025250  0.39949500  1
  Fe  Fe3_3  1  0.30025250  0.80025250  0.89949500  1
  Fe  Fe3_4  1  0.80025250  0.30025250  0.39949500  1
  Fe  Fe3_5  1  0.80025250  0.30025250  0.89949500  1
  Fe  Fe3_6  1  0.80025250  0.80025250  0.39949500  1
  Fe  Fe3_7  1  0.80025250  0.80025250  0.89949500  1
loop_
_geom_bond_atom_site_label_1
_geom_bond_atom_site_label_2
_geom_bond_distance
_geom_bond_site_symmetry_2
Al0_0 Fe3_1 2.473801 1_554
Al0_0 Fe3_7 2.473801 1_444
Al0_0 Fe0_6 2.473801 1_445
Al0_0 Fe0_0 2.473801 1_555
Al0_0 Al0_4 2.527857 1_455
Al0_0 Al0_4 2.527857 1_555
Al0_0 Al0_2 2.527857 1_555
Al0_0 Al0_2 2.527857 1_545
Al0_1 Fe3_6 2.473801 1_445
Al0_1 Fe3_0 2.473801 1_555
Al0_1 Fe0_1 2.473801 1_555
Al0_1 Fe0_7 2.473801 1_445
Al0_1 Al0_5 2.527857 1_545
Al0_1 Al0_3 2.527857 1_545
Al0_1 Al0_3 2.527857 1_555
Al0_1 Al0_5 2.527857 1_445
Al0_2 Fe3_3 2.473801 1_554
Al0_2 Fe3_5 2.473801 1_454
Al0_2 Fe0_4 2.473801 1_455
Al0_2 Fe0_2 2.473801 1_555
Al0_2 Al0_6 2.527857 1_555
Al0_2 Al0_6 2.527857 1_455
Al0_3 Fe3_2 2.473801 1_555
Al0_3 Fe3_4 2.473801 1_455
Al0_3 Fe0_5 2.473801 1_455
Al0_3 Fe0_3 2.473801 1_555
Al0_3 Al0_7 2.527857 1_455
Al0_3 Al0_7 2.527857 1_555
Al0_4 Fe3_3 2.473801 1_544
Al0_4 Fe3_5 2.473801 1_554
Al0_4 Fe0_4 2.473801 1_555
Al0_4 Fe0_2 2.473801 1_545
Al0_4 Al0_6 2.527857 1_545
Al0_4 Al0_6 2.527857 1_555
Al0_5 Fe3_2 2.473801 1_555
Al0_5 Fe3_4 2.473801 1_565
Al0_5 Fe0_3 2.473801 1_555
Al0_5 Fe0_5 2.473801 1_565
Al0_5 Al0_7 2.527857 1_565
Al0_5 Al0_7 2.527857 1_555
Al0_6 Fe3_1 2.473801 1_554
Al0_6 Fe3_7 2.473801 1_554
Al0_6 Fe0_6 2.473801 1_555
Al0_6 Fe0_0 2.473801 1_555
Al0_7 Fe3_6 2.473801 1_555
Al0_7 Fe3_0 2.473801 1_555
Al0_7 Fe0_7 2.473801 1_555
Al0_7 Fe0_1 2.473801 1_555
Fe0_0 Fe1_0 2.454472 1_555
Fe0_0 Fe1_6 2.454472 1_445
Fe0_0 Fe0_2 2.527857 1_545
Fe0_0 Fe0_4 2.527857 1_455
Fe0_0 Fe0_4 2.527857 1_555
Fe0_0 Fe0_2 2.527857 1_555
Fe0_1 Fe1_1 2.454472 1_555
Fe0_1 Fe1_7 2.454472 1_445
Fe0_1 Fe0_5 2.527857 1_455
Fe0_1 Fe0_3 2.527857 1_555
Fe0_1 Fe0_3 2.527857 1_545
Fe0_1 Fe0_5 2.527857 1_555
Fe0_2 Fe1_2 2.454472 1_555
Fe0_2 Fe1_4 2.454472 1_455
Fe0_2 Fe0_6 2.527857 1_555
Fe0_2 Fe0_6 2.527857 1_455
Fe0_3 Fe1_3 2.454472 1_555
Fe0_3 Fe1_5 2.454472 1_455
Fe0_3 Fe0_7 2.527857 1_555
Fe0_3 Fe0_7 2.527857 1_455
Fe0_4 Fe1_4 2.454472 1_555
Fe0_4 Fe1_2 2.454472 1_545
Fe0_4 Fe0_6 2.527857 1_555
Fe0_4 Fe0_6 2.527857 1_545
Fe0_5 Fe1_5 2.454472 1_555
Fe0_5 Fe1_3 2.454472 1_545
Fe0_5 Fe0_7 2.527857 1_545
Fe0_5 Fe0_7 2.527857 1_555
Fe0_6 Fe1_6 2.454472 1_555
Fe0_6 Fe1_0 2.454472 1_555
Fe0_7 Fe1_7 2.454472 1_555
Fe0_7 Fe1_1 2.454472 1_555
Fe1_0 Fe2_0 2.473003 1_555
Fe1_0 Fe2_6 2.473003 1_555
Fe1_0 Fe1_4 2.527857 1_455
Fe1_0 Fe1_2 2.527857 1_555
Fe1_0 Fe1_2 2.527857 1_545
Fe1_0 Fe1_4 2.527857 1_555
Fe1_1 Fe2_7 2.473003 1_555
Fe1_1 Fe2_1 2.473003 1_555
Fe1_1 Fe1_3 2.527857 1_545
Fe1_1 Fe1_5 2.527857 1_555
Fe1_1 Fe1_3 2.527857 1_555
Fe1_1 Fe1_5 2.527857 1_455
Fe1_2 Fe2_4 2.473003 1_565
Fe1_2 Fe2_2 2.473003 1_555
Fe1_2 Fe1_6 2.527857 1_555
Fe1_2 Fe1_6 2.527857 1_455
Fe1_3 Fe2_3 2.473003 1_555
Fe1_3 Fe2_5 2.473003 1_565
Fe1_3 Fe1_7 2.527857 1_455
Fe1_3 Fe1_7 2.527857 1_555
Fe1_4 Fe2_4 2.473003 1_555
Fe1_4 Fe2_2 2.473003 1_655
Fe1_4 Fe1_6 2.527857 1_545
Fe1_4 Fe1_6 2.527857 1_555
Fe1_5 Fe2_5 2.473003 1_555
Fe1_5 Fe2_3 2.473003 1_655
Fe1_5 Fe1_7 2.527857 1_545
Fe1_5 Fe1_7 2.527857 1_555
Fe1_6 Fe2_0 2.473003 1_665
Fe1_6 Fe2_6 2.473003 1_555
Fe1_7 Fe2_1 2.473003 1_665
Fe1_7 Fe2_7 2.473003 1_555
Fe2_0 Fe3_6 2.454472 1_445
Fe2_0 Fe3_0 2.454472 1_555
Fe2_0 Fe2_4 2.527857 1_455
Fe2_0 Fe2_2 2.527857 1_545
Fe2_0 Fe2_4 2.527857 1_555
Fe2_0 Fe2_2 2.527857 1_555
Fe2_1 Fe3_7 2.454472 1_445
Fe2_1 Fe3_1 2.454472 1_555
Fe2_1 Fe2_5 2.527857 1_455
Fe2_1 Fe2_3 2.527857 1_545
Fe2_1 Fe2_3 2.527857 1_555
Fe2_1 Fe2_5 2.527857 1_555
Fe2_2 Fe3_4 2.454472 1_455
Fe2_2 Fe3_2 2.454472 1_555
Fe2_2 Fe2_6 2.527857 1_555
Fe2_2 Fe2_6 2.527857 1_455
Fe2_3 Fe3_5 2.454472 1_455
Fe2_3 Fe3_3 2.454472 1_555
Fe2_3 Fe2_7 2.527857 1_555
Fe2_3 Fe2_7 2.527857 1_455
Fe2_4 Fe3_2 2.454472 1_545
Fe2_4 Fe3_4 2.454472 1_555
Fe2_4 Fe2_6 2.527857 1_545
Fe2_4 Fe2_6 2.527857 1_555
Fe2_5 Fe3_3 2.454472 1_545
Fe2_5 Fe3_5 2.454472 1_555
Fe2_5 Fe2_7 2.527857 1_555
Fe2_5 Fe2_7 2.527857 1_545
Fe2_6 Fe3_0 2.454472 1_555
Fe2_6 Fe3_6 2.454472 1_555
Fe2_7 Fe3_1 2.454472 1_555
Fe2_7 Fe3_7 2.454472 1_555
Fe3_0 Fe3_2 2.527857 1_545
Fe3_0 Fe3_4 2.527857 1_555
Fe3_0 Fe3_4 2.527857 1_455
Fe3_0 Fe3_2 2.527857 1_555
Fe3_1 Fe3_5 2.527857 1_455
Fe3_1 Fe3_3 2.527857 1_545
Fe3_1 Fe3_3 2.527857 1_555
Fe3_1 Fe3_5 2.527857 1_555
Fe3_2 Fe3_6 2.527857 1_455
Fe3_2 Fe3_6 2.527857 1_555
Fe3_3 Fe3_7 2.527857 1_555
Fe3_3 Fe3_7 2.527857 1_455
Fe3_4 Fe3_6 2.527857 1_545
Fe3_4 Fe3_6 2.527857 1_555
Fe3_5 Fe3_7 2.527857 1_545
Fe3_5 Fe3_7 2.527857 1_555
