# generated using pymatgen
data_RbMg30BiO32
_symmetry_space_group_name_H-M   'P 1'
_cell_length_a   8.70011700
_cell_length_b   8.70011700
_cell_length_c   8.68521200
_cell_angle_alpha   90.00000000
_cell_angle_beta   90.00000000
_cell_angle_gamma   90.00000000
_symmetry_Int_Tables_number   1
_chemical_formula_structural   RbMg30BiO32
_chemical_formula_sum   'Rb1 Mg30 Bi1 O32'
_cell_volume   657.40137775
_cell_formula_units_Z   1
loop_
 _symmetry_equiv_pos_site_id
 _symmetry_equiv_pos_as_xyz
  1  'x, y, z'
loop_
 _atom_site_type_symbol
 _atom_site_label
 _atom_site_symmetry_multiplicity
 _atom_site_fract_x
 _atom_site_fract_y
 _atom_site_fract_z
 _atom_site_occupancy
  Rb  Rb0  1  0.00000000  0.00000000  0.00000000  1
  Mg  Mg0  1  0.50000000  0.00000000  0.00000000  1
  Mg  Mg1  1  0.00000000  0.50000000  0.00000000  1
  Mg  Mg2  1  0.00000000  0.00000000  0.50000000  1
  Mg  Mg3  1  0.50000000  0.00000000  0.50000000  1
  Mg  Mg4  1  0.00000000  0.50000000  0.50000000  1
  Mg  Mg5  1  0.50000000  0.50000000  0.50000000  1
  Mg  Mg6  1  0.24453100  0.24453100  0.00000000  1
  Mg  Mg7  1  0.75546900  0.24453100  0.00000000  1
  Mg  Mg8  1  0.24453100  0.75546900  0.00000000  1
  Mg  Mg9  1  0.75546900  0.75546900  0.00000000  1
  Mg  Mg10  1  0.24862500  0.24862500  0.50000000  1
  Mg  Mg11  1  0.75137500  0.24862500  0.50000000  1
  Mg  Mg12  1  0.24862500  0.75137500  0.50000000  1
  Mg  Mg13  1  0.75137500  0.75137500  0.50000000  1
  Mg  Mg14  1  0.25176000  0.00000000  0.25360200  1
  Mg  Mg15  1  0.74824000  0.00000000  0.25360200  1
  Mg  Mg16  1  0.24174600  0.50000000  0.25715600  1
  Mg  Mg17  1  0.75825400  0.50000000  0.25715600  1
  Mg  Mg18  1  0.25176000  0.00000000  0.74639800  1
  Mg  Mg19  1  0.74824000  0.00000000  0.74639800  1
  Mg  Mg20  1  0.24174600  0.50000000  0.74284400  1
  Mg  Mg21  1  0.75825400  0.50000000  0.74284400  1
  Mg  Mg22  1  0.00000000  0.25176000  0.25360200  1
  Mg  Mg23  1  0.50000000  0.24174600  0.25715600  1
  Mg  Mg24  1  0.00000000  0.74824000  0.25360200  1
  Mg  Mg25  1  0.50000000  0.75825400  0.25715600  1
  Mg  Mg26  1  0.00000000  0.25176000  0.74639800  1
  Mg  Mg27  1  0.50000000  0.24174600  0.74284400  1
  Mg  Mg28  1  0.00000000  0.74824000  0.74639800  1
  Mg  Mg29  1  0.50000000  0.75825400  0.74284400  1
  Bi  Bi0  1  0.50000000  0.50000000  0.00000000  1
  O  O0  1  0.00000000  0.00000000  0.27897700  1
  O  O1  1  0.50000000  0.00000000  0.25808900  1
  O  O2  1  0.00000000  0.50000000  0.25808900  1
  O  O3  1  0.50000000  0.50000000  0.26668300  1
  O  O4  1  0.00000000  0.00000000  0.72102300  1
  O  O5  1  0.50000000  0.00000000  0.74191100  1
  O  O6  1  0.00000000  0.50000000  0.74191100  1
  O  O7  1  0.50000000  0.50000000  0.73331700  1
  O  O8  1  0.25078700  0.25078700  0.24891300  1
  O  O9  1  0.74921300  0.25078700  0.24891300  1
  O  O10  1  0.25078700  0.74921300  0.24891300  1
  O  O11  1  0.74921300  0.74921300  0.24891300  1
  O  O12  1  0.25078700  0.25078700  0.75108700  1
  O  O13  1  0.74921300  0.25078700  0.75108700  1
  O  O14  1  0.25078700  0.74921300  0.75108700  1
  O  O15  1  0.74921300  0.74921300  0.75108700  1
  O  O16  1  0.27764500  0.00000000  0.00000000  1
  O  O17  1  0.72235500  0.00000000  0.00000000  1
  O  O18  1  0.23717800  0.50000000  0.00000000  1
  O  O19  1  0.76282200  0.50000000  0.00000000  1
  O  O20  1  0.25570600  0.00000000  0.50000000  1
  O  O21  1  0.74429400  0.00000000  0.50000000  1
  O  O22  1  0.24954100  0.50000000  0.50000000  1
  O  O23  1  0.75045900  0.50000000  0.50000000  1
  O  O24  1  0.00000000  0.27764500  0.00000000  1
  O  O25  1  0.50000000  0.23717800  0.00000000  1
  O  O26  1  0.00000000  0.72235500  0.00000000  1
  O  O27  1  0.50000000  0.76282200  0.00000000  1
  O  O28  1  0.00000000  0.25570600  0.50000000  1
  O  O29  1  0.50000000  0.24954100  0.50000000  1
  O  O30  1  0.00000000  0.74429400  0.50000000  1
  O  O31  1  0.50000000  0.75045900  0.50000000  1
loop_
_geom_bond_atom_site_label_1
_geom_bond_atom_site_label_2
_geom_bond_distance
_geom_bond_site_symmetry_2
Mg0 O17 1.934515 1_555
Mg0 O16 1.934515 1_555
Mg0 O25 2.063476 1_555
Mg0 O27 2.063476 1_545
Mg0 O1 2.241558 1_555
Mg0 O5 2.241558 1_554
Mg1 O26 1.934515 1_555
Mg1 O24 1.934515 1_555
Mg1 O18 2.063476 1_555
Mg1 O19 2.063476 1_455
Mg1 O2 2.241558 1_555
Mg1 O6 2.241558 1_554
Mg2 O4 1.919632 1_555
Mg2 O0 1.919632 1_555
Mg2 O30 2.224672 1_545
Mg2 O21 2.224672 1_455
Mg2 O20 2.224672 1_555
Mg2 O28 2.224672 1_555
Mg3 O1 2.101048 1_555
Mg3 O5 2.101048 1_555
Mg3 O20 2.125386 1_555
Mg3 O21 2.125386 1_555
Mg3 O29 2.171036 1_555
Mg3 O31 2.171036 1_545
Mg4 O2 2.101048 1_555
Mg4 O6 2.101048 1_555
Mg4 O28 2.125386 1_555
Mg4 O30 2.125386 1_555
Mg4 O22 2.171036 1_555
Mg4 O23 2.171036 1_455
Mg5 O7 2.026408 1_555
Mg5 O3 2.026408 1_555
Mg5 O23 2.179023 1_555
Mg5 O31 2.179023 1_555
Mg5 O29 2.179023 1_555
Mg5 O22 2.179023 1_555
Mg6 O24 2.146866 1_555
Mg6 O16 2.146866 1_555
Mg6 O8 2.163232 1_555
Mg6 O12 2.163232 1_554
Mg6 O25 2.223531 1_555
Mg6 O18 2.223531 1_555
Mg7 O17 2.146866 1_555
Mg7 O24 2.146866 1_655
Mg7 O9 2.163232 1_555
Mg7 O13 2.163232 1_554
Mg7 O25 2.223531 1_555
Mg7 O19 2.223531 1_555
Mg8 O26 2.146866 1_555
Mg8 O16 2.146866 1_565
Mg8 O10 2.163232 1_555
Mg8 O14 2.163232 1_554
Mg8 O18 2.223531 1_555
Mg8 O27 2.223531 1_555
Mg9 O17 2.146866 1_565
Mg9 O26 2.146866 1_655
Mg9 O11 2.163232 1_555
Mg9 O15 2.163232 1_554
Mg9 O19 2.223531 1_555
Mg9 O27 2.223531 1_555
Mg10 O20 2.163944 1_555
Mg10 O28 2.163944 1_555
Mg10 O12 2.180906 1_555
Mg10 O8 2.180906 1_555
Mg10 O29 2.187006 1_555
Mg10 O22 2.187006 1_555
Mg11 O21 2.163944 1_555
Mg11 O28 2.163944 1_655
Mg11 O13 2.180906 1_555
Mg11 O9 2.180906 1_555
Mg11 O29 2.187006 1_555
Mg11 O23 2.187006 1_555
Mg12 O30 2.163944 1_555
Mg12 O20 2.163944 1_565
Mg12 O14 2.180906 1_555
Mg12 O10 2.180906 1_555
Mg12 O22 2.187006 1_555
Mg12 O31 2.187006 1_555
Mg13 O21 2.163944 1_565
Mg13 O30 2.163944 1_655
Mg13 O15 2.180906 1_555
Mg13 O11 2.180906 1_555
Mg13 O23 2.187006 1_555
Mg13 O31 2.187006 1_555
Mg14 O20 2.140294 1_555
Mg14 O1 2.160069 1_555
Mg14 O8 2.182273 1_555
Mg14 O10 2.182273 1_545
Mg14 O0 2.201401 1_555
Mg14 O16 2.214070 1_555
Mg15 O21 2.140294 1_555
Mg15 O1 2.160069 1_555
Mg15 O9 2.182273 1_555
Mg15 O11 2.182273 1_545
Mg15 O0 2.201401 1_655
Mg15 O17 2.214070 1_555
Mg16 O2 2.103234 1_555
Mg16 O22 2.110242 1_555
Mg16 O10 2.170789 1_555
Mg16 O8 2.170789 1_555
Mg16 O18 2.233808 1_555
Mg16 O3 2.248363 1_555
Mg17 O2 2.103234 1_655
Mg17 O23 2.110242 1_555
Mg17 O9 2.170789 1_555
Mg17 O11 2.170789 1_555
Mg17 O19 2.233808 1_555
Mg17 O3 2.248363 1_555
Mg18 O20 2.140294 1_555
Mg18 O5 2.160069 1_555
Mg18 O14 2.182273 1_545
Mg18 O12 2.182273 1_555
Mg18 O4 2.201401 1_555
Mg18 O16 2.214070 1_556
Mg19 O21 2.140294 1_555
Mg19 O5 2.160069 1_555
Mg19 O13 2.182273 1_555
Mg19 O15 2.182273 1_545
Mg19 O4 2.201401 1_655
Mg19 O17 2.214070 1_556
Mg20 O6 2.103234 1_555
Mg20 O22 2.110242 1_555
Mg20 O12 2.170789 1_555
Mg20 O14 2.170789 1_555
Mg20 O18 2.233808 1_556
Mg20 O7 2.248363 1_555
Mg21 O6 2.103234 1_655
Mg21 O23 2.110242 1_555
Mg21 O15 2.170789 1_555
Mg21 O13 2.170789 1_555
Mg21 O19 2.233808 1_556
Mg21 O7 2.248363 1_555
Mg22 O28 2.140294 1_555
Mg22 O2 2.160069 1_555
Mg22 O8 2.182273 1_555
Mg22 O9 2.182273 1_455
Mg22 O0 2.201401 1_555
Mg22 O24 2.214070 1_555
Mg23 O1 2.103234 1_555
Mg23 O29 2.110242 1_555
Mg23 O9 2.170789 1_555
Mg23 O8 2.170789 1_555
Mg23 O25 2.233808 1_555
Mg23 O3 2.248363 1_555
Mg24 O30 2.140294 1_555
Mg24 O2 2.160069 1_555
Mg24 O11 2.182273 1_455
Mg24 O10 2.182273 1_555
Mg24 O0 2.201401 1_565
Mg24 O26 2.214070 1_555
Mg25 O1 2.103234 1_565
Mg25 O31 2.110242 1_555
Mg25 O10 2.170789 1_555
Mg25 O11 2.170789 1_555
Mg25 O27 2.233808 1_555
Mg25 O3 2.248363 1_555
Mg26 O28 2.140294 1_555
Mg26 O6 2.160069 1_555
Mg26 O13 2.182273 1_455
Mg26 O12 2.182273 1_555
Mg26 O4 2.201401 1_555
Mg26 O24 2.214070 1_556
Mg27 O5 2.103234 1_555
Mg27 O29 2.110242 1_555
Mg27 O13 2.170789 1_555
Mg27 O12 2.170789 1_555
Mg27 O25 2.233808 1_556
Mg27 O7 2.248363 1_555
Mg28 O30 2.140294 1_555
Mg28 O6 2.160069 1_555
Mg28 O14 2.182273 1_555
Mg28 O15 2.182273 1_455
Mg28 O4 2.201401 1_565
Mg28 O26 2.214070 1_556
Mg29 O5 2.103234 1_565
Mg29 O31 2.110242 1_555
Mg29 O15 2.170789 1_555
Mg29 O14 2.170789 1_555
Mg29 O27 2.233808 1_556
Mg29 O7 2.248363 1_555
Bi0 O19 2.286582 1_555
Bi0 O27 2.286582 1_555
Bi0 O25 2.286582 1_555
Bi0 O18 2.286582 1_555
Bi0 O3 2.316198 1_555
Bi0 O7 2.316198 1_554
O0 Rb0 2.422974 1_555
O4 Rb0 2.422974 1_556
O16 Rb0 2.415544 1_555
O17 Rb0 2.415544 1_655
O24 Rb0 2.415544 1_555
O26 Rb0 2.415544 1_565
