# generated using pymatgen
data_Mg2In3WS8
_symmetry_space_group_name_H-M   'P 1'
_cell_length_a   7.49208726
_cell_length_b   7.59212118
_cell_length_c   7.49831257
_cell_angle_alpha   60.25672949
_cell_angle_beta   59.92363741
_cell_angle_gamma   60.41093900
_symmetry_Int_Tables_number   1
_chemical_formula_structural   Mg2In3WS8
_chemical_formula_sum   'Mg2 In3 W1 S8'
_cell_volume   302.92299794
_cell_formula_units_Z   1
loop_
 _symmetry_equiv_pos_site_id
 _symmetry_equiv_pos_as_xyz
  1  'x, y, z'
loop_
 _atom_site_type_symbol
 _atom_site_label
 _atom_site_symmetry_multiplicity
 _atom_site_fract_x
 _atom_site_fract_y
 _atom_site_fract_z
 _atom_site_occupancy
  Mg  Mg0  1  0.87381100  0.87794900  0.87422000  1
  Mg  Mg1  1  0.12628700  0.12194300  0.12569400  1
  In  In0  1  0.49965400  0.50025700  0.50025100  1
  In  In1  1  0.50054400  0.50016600  0.99947800  1
  In  In2  1  0.99936800  0.50020300  0.50006600  1
  W  W0  1  0.50059600  0.99978500  0.49959300  1
  S  S0  1  0.73224600  0.75992800  0.73251800  1
  S  S1  1  0.26798300  0.24054300  0.72399500  1
  S  S2  1  0.25634900  0.73060300  0.25638300  1
  S  S3  1  0.72389500  0.24001900  0.26830900  1
  S  S4  1  0.74353800  0.26930600  0.74310100  1
  S  S5  1  0.27558200  0.75998700  0.73213400  1
  S  S6  1  0.26783600  0.24036300  0.26789100  1
  S  S7  1  0.73231800  0.75894200  0.27636900  1
loop_
_geom_bond_atom_site_label_1
_geom_bond_atom_site_label_2
_geom_bond_distance
_geom_bond_site_symmetry_2
Mg0 S4 2.438616 1_565
Mg0 S5 2.463332 1_655
Mg0 S0 2.463624 1_555
Mg0 S7 2.464052 1_556
Mg1 S2 2.438515 1_545
Mg1 S1 2.461348 1_554
Mg1 S3 2.467155 1_455
Mg1 S6 2.468991 1_555
In0 S4 2.594597 1_555
In0 S2 2.597062 1_555
In0 S7 2.624943 1_555
In0 S1 2.625644 1_555
In0 S5 2.633816 1_555
In0 S3 2.636989 1_555
In1 S4 2.601187 1_555
In1 S2 2.601804 1_556
In1 S0 2.625019 1_555
In1 S6 2.630784 1_556
In1 S5 2.632478 1_555
In1 S3 2.632698 1_556
In2 S4 2.591359 1_555
In2 S2 2.594957 1_655
In2 S7 2.624573 1_555
In2 S1 2.634452 1_655
In2 S6 2.635825 1_655
In2 S0 2.635955 1_555
S0 W0 2.477891 1_555
S1 W0 2.485201 1_545
S3 W0 2.469780 1_545
S5 W0 2.476233 1_555
S6 W0 2.477534 1_545
S7 W0 2.479584 1_555
