# generated using pymatgen
data_AlPb3
_symmetry_space_group_name_H-M   'P 1'
_cell_length_a   6.06941398
_cell_length_b   6.06941398
_cell_length_c   6.06941398
_cell_angle_alpha   133.18029029
_cell_angle_beta   133.18029029
_cell_angle_gamma   68.37115447
_symmetry_Int_Tables_number   1
_chemical_formula_structural   AlPb3
_chemical_formula_sum   'Al1 Pb3'
_cell_volume   116.78096066
_cell_formula_units_Z   1
loop_
 _symmetry_equiv_pos_site_id
 _symmetry_equiv_pos_as_xyz
  1  'x, y, z'
loop_
 _atom_site_type_symbol
 _atom_site_label
 _atom_site_symmetry_multiplicity
 _atom_site_fract_x
 _atom_site_fract_y
 _atom_site_fract_z
 _atom_site_occupancy
  Al  Al0  1  0.00000000  0.00000000  0.00000000  1
  Pb  Pb0  1  0.75000000  0.25000000  0.50000000  1
  Pb  Pb1  1  0.25000000  0.75000000  0.50000000  1
  Pb  Pb2  1  0.50000000  0.50000000  0.00000000  1
loop_
_geom_bond_atom_site_label_1
_geom_bond_atom_site_label_2
_geom_bond_distance
_geom_bond_site_symmetry_2
Al0 Pb2 3.410253 1_545
Al0 Pb2 3.410253 1_444
Al0 Pb2 3.410253 1_455
Al0 Pb2 3.410253 1_556
Pb0 Pb1 3.410253 1_656
Pb0 Pb1 3.410253 1_544
Pb0 Pb1 3.410253 1_555
Pb0 Pb1 3.410253 1_645
Pb0 Pb2 3.480934 1_555
Pb0 Pb2 3.480934 1_545
Pb0 Pb2 3.480934 1_556
Pb0 Pb2 3.480934 1_656
Pb1 Pb2 3.480934 1_555
Pb1 Pb2 3.480934 1_566
Pb1 Pb2 3.480934 1_455
Pb1 Pb2 3.480934 1_556
