# generated using pymatgen
data_Y4Ga6FeGe6
_symmetry_space_group_name_H-M   'P 1'
_cell_length_a   7.51012034
_cell_length_b   7.51012034
_cell_length_c   7.51012034
_cell_angle_alpha   109.47122063
_cell_angle_beta   109.47122063
_cell_angle_gamma   109.47122063
_symmetry_Int_Tables_number   1
_chemical_formula_structural   Y4Ga6FeGe6
_chemical_formula_sum   'Y4 Ga6 Fe1 Ge6'
_cell_volume   326.07597195
_cell_formula_units_Z   1
loop_
 _symmetry_equiv_pos_site_id
 _symmetry_equiv_pos_as_xyz
  1  'x, y, z'
loop_
 _atom_site_type_symbol
 _atom_site_label
 _atom_site_symmetry_multiplicity
 _atom_site_fract_x
 _atom_site_fract_y
 _atom_site_fract_z
 _atom_site_occupancy
  Y  Y0  1  0.00000000  0.00000000  0.50000000  1
  Y  Y1  1  0.00000000  0.50000000  0.00000000  1
  Y  Y2  1  0.50000000  0.00000000  0.00000000  1
  Y  Y3  1  0.50000000  0.50000000  0.50000000  1
  Ga  Ga0  1  0.75000000  0.25000000  0.50000000  1
  Ga  Ga1  1  0.75000000  0.50000000  0.25000000  1
  Ga  Ga2  1  0.50000000  0.25000000  0.75000000  1
  Ga  Ga3  1  0.25000000  0.50000000  0.75000000  1
  Ga  Ga4  1  0.25000000  0.75000000  0.50000000  1
  Ga  Ga5  1  0.50000000  0.75000000  0.25000000  1
  Fe  Fe0  1  0.00000000  0.00000000  0.00000000  1
  Ge  Ge0  1  0.71163900  0.71163900  0.00000000  1
  Ge  Ge1  1  0.28836100  0.00000000  0.28836100  1
  Ge  Ge2  1  0.00000000  0.28836100  0.28836100  1
  Ge  Ge3  1  0.28836100  0.28836100  0.00000000  1
  Ge  Ge4  1  0.71163900  0.00000000  0.71163900  1
  Ge  Ge5  1  0.00000000  0.71163900  0.71163900  1
loop_
_geom_bond_atom_site_label_1
_geom_bond_atom_site_label_2
_geom_bond_distance
_geom_bond_site_symmetry_2
Ga0 Ge5 2.840521 1_655
Ga0 Ge4 2.840521 1_555
Ga0 Ge2 2.840521 1_655
Ga0 Ge1 2.840521 1_555
Ga0 Y2 3.065994 1_555
Ga0 Y3 3.065994 1_555
Ga0 Y1 3.065994 1_656
Ga0 Y0 3.065994 1_655
Ga1 Ge5 2.840521 1_655
Ga1 Ge0 2.840521 1_555
Ga1 Ge3 2.840521 1_555
Ga1 Ge2 2.840521 1_655
Ga1 Y2 3.065994 1_555
Ga1 Y1 3.065994 1_655
Ga1 Y3 3.065994 1_555
Ga1 Y0 3.065994 1_665
Ga2 Ge4 2.840521 1_555
Ga2 Ge1 2.840521 1_555
Ga2 Ge3 2.840521 1_556
Ga2 Ge0 2.840521 1_556
Ga2 Y2 3.065994 1_556
Ga2 Y3 3.065994 1_555
Ga2 Y0 3.065994 1_555
Ga2 Y1 3.065994 1_656
Ga3 Ge2 2.840521 1_555
Ga3 Ge3 2.840521 1_556
Ga3 Ge0 2.840521 1_556
Ga3 Ge5 2.840521 1_555
Ga3 Y1 3.065994 1_556
Ga3 Y3 3.065994 1_555
Ga3 Y0 3.065994 1_555
Ga3 Y2 3.065994 1_566
Ga4 Ge1 2.840521 1_565
Ga4 Ge5 2.840521 1_555
Ga4 Ge2 2.840521 1_555
Ga4 Ge4 2.840521 1_565
Ga4 Y1 3.065994 1_555
Ga4 Y3 3.065994 1_555
Ga4 Y0 3.065994 1_565
Ga4 Y2 3.065994 1_566
Ga5 Ge1 2.840521 1_565
Ga5 Ge4 2.840521 1_565
Ga5 Ge3 2.840521 1_555
Ga5 Ge0 2.840521 1_555
Ga5 Y1 3.065994 1_555
Ga5 Y3 3.065994 1_555
Ga5 Y2 3.065994 1_565
Ga5 Y0 3.065994 1_665
Fe0 Ge0 2.500649 1_445
Fe0 Ge1 2.500649 1_555
Fe0 Ge4 2.500649 1_454
Fe0 Ge5 2.500649 1_544
Fe0 Ge3 2.500649 1_555
Fe0 Ge2 2.500649 1_555
Ge0 Y3 3.083988 1_554
Ge0 Y1 3.083988 1_655
Ge0 Y2 3.083988 1_565
Ge0 Y0 3.083988 1_665
Ge1 Y3 3.083988 1_555
Ge1 Y1 3.083988 1_545
Ge1 Y2 3.083988 1_555
Ge1 Y0 3.083988 1_555
Ge2 Y2 3.083988 1_455
Ge2 Y1 3.083988 1_555
Ge2 Y3 3.083988 1_555
Ge2 Y0 3.083988 1_555
Ge3 Y2 3.083988 1_555
Ge3 Y3 3.083988 1_555
Ge3 Y0 3.083988 1_554
Ge3 Y1 3.083988 1_555
Ge4 Y3 3.083988 1_545
Ge4 Y2 3.083988 1_556
Ge4 Y1 3.083988 1_656
Ge4 Y0 3.083988 1_655
Ge5 Y1 3.083988 1_556
Ge5 Y3 3.083988 1_455
Ge5 Y0 3.083988 1_565
Ge5 Y2 3.083988 1_566
