# generated using pymatgen
data_CeMg2
_symmetry_space_group_name_H-M   'P 1'
_cell_length_a   17.24656706
_cell_length_b   17.24656706
_cell_length_c   11.31182000
_cell_angle_alpha   90.00000000
_cell_angle_beta   90.00000000
_cell_angle_gamma   158.98812844
_symmetry_Int_Tables_number   1
_chemical_formula_structural   CeMg2
_chemical_formula_sum   'Ce16 Mg32'
_cell_volume   1206.42774456
_cell_formula_units_Z   16
loop_
 _symmetry_equiv_pos_site_id
 _symmetry_equiv_pos_as_xyz
  1  'x, y, z'
loop_
 _atom_site_type_symbol
 _atom_site_label
 _atom_site_symmetry_multiplicity
 _atom_site_fract_x
 _atom_site_fract_y
 _atom_site_fract_z
 _atom_site_occupancy
  Ce  Ce0_0  1  0.06176700  0.43823300  0.25000000  1
  Ce  Ce0_1  1  0.06176700  0.43823300  0.75000000  1
  Ce  Ce0_2  1  0.06176700  0.93823300  0.25000000  1
  Ce  Ce0_3  1  0.06176700  0.93823300  0.75000000  1
  Ce  Ce0_4  1  0.56176700  0.43823300  0.25000000  1
  Ce  Ce0_5  1  0.56176700  0.43823300  0.75000000  1
  Ce  Ce0_6  1  0.56176700  0.93823300  0.25000000  1
  Ce  Ce0_7  1  0.56176700  0.93823300  0.75000000  1
  Ce  Ce1_0  1  0.38294550  0.11705450  0.25000000  1
  Ce  Ce1_1  1  0.38294550  0.11705450  0.75000000  1
  Ce  Ce1_2  1  0.38294550  0.61705450  0.25000000  1
  Ce  Ce1_3  1  0.38294550  0.61705450  0.75000000  1
  Ce  Ce1_4  1  0.88294550  0.11705450  0.25000000  1
  Ce  Ce1_5  1  0.88294550  0.11705450  0.75000000  1
  Ce  Ce1_6  1  0.88294550  0.61705450  0.25000000  1
  Ce  Ce1_7  1  0.88294550  0.61705450  0.75000000  1
  Mg  Mg0_0  1  0.49923450  0.00076550  0.00000000  1
  Mg  Mg0_1  1  0.49923450  0.00076550  0.50000000  1
  Mg  Mg0_2  1  0.49923450  0.50076550  0.00000000  1
  Mg  Mg0_3  1  0.49923450  0.50076550  0.50000000  1
  Mg  Mg0_4  1  0.99923450  0.00076550  0.00000000  1
  Mg  Mg0_5  1  0.99923450  0.00076550  0.50000000  1
  Mg  Mg0_6  1  0.99923450  0.50076550  0.00000000  1
  Mg  Mg0_7  1  0.99923450  0.50076550  0.50000000  1
  Mg  Mg1_0  1  0.16663500  0.33336500  0.00000000  1
  Mg  Mg1_1  1  0.16663500  0.33336500  0.50000000  1
  Mg  Mg1_2  1  0.16663500  0.83336500  0.00000000  1
  Mg  Mg1_3  1  0.16663500  0.83336500  0.50000000  1
  Mg  Mg1_4  1  0.66663500  0.33336500  0.00000000  1
  Mg  Mg1_5  1  0.66663500  0.33336500  0.50000000  1
  Mg  Mg1_6  1  0.66663500  0.83336500  0.00000000  1
  Mg  Mg1_7  1  0.66663500  0.83336500  0.50000000  1
  Mg  Mg2_0  1  0.33379800  0.16620200  0.00000000  1
  Mg  Mg2_1  1  0.33379800  0.16620200  0.50000000  1
  Mg  Mg2_2  1  0.33379800  0.66620200  0.00000000  1
  Mg  Mg2_3  1  0.33379800  0.66620200  0.50000000  1
  Mg  Mg2_4  1  0.83379800  0.16620200  0.00000000  1
  Mg  Mg2_5  1  0.83379800  0.16620200  0.50000000  1
  Mg  Mg2_6  1  0.83379800  0.66620200  0.00000000  1
  Mg  Mg2_7  1  0.83379800  0.66620200  0.50000000  1
  Mg  Mg3_0  1  0.22228650  0.27771350  0.25000000  1
  Mg  Mg3_1  1  0.22228650  0.27771350  0.75000000  1
  Mg  Mg3_2  1  0.22228650  0.77771350  0.25000000  1
  Mg  Mg3_3  1  0.22228650  0.77771350  0.75000000  1
  Mg  Mg3_4  1  0.72228650  0.27771350  0.25000000  1
  Mg  Mg3_5  1  0.72228650  0.27771350  0.75000000  1
  Mg  Mg3_6  1  0.72228650  0.77771350  0.25000000  1
  Mg  Mg3_7  1  0.72228650  0.77771350  0.75000000  1
loop_
_geom_bond_atom_site_label_1
_geom_bond_atom_site_label_2
_geom_bond_distance
_geom_bond_site_symmetry_2
Ce0_0 Ce1_2 2.880924 1_555
Ce0_0 Ce1_4 2.880924 1_455
Ce0_0 Ce0_6 3.144694 1_445
Ce0_0 Ce0_6 3.144694 1_555
Ce0_0 Mg2_4 3.320825 1_455
Ce0_0 Mg2_3 3.320825 1_555
Ce0_0 Mg2_5 3.320825 1_455
Ce0_0 Mg2_2 3.320825 1_555
Ce0_0 Mg3_2 3.417866 1_555
Ce0_0 Mg3_4 3.417866 1_455
Ce0_0 Mg0_7 3.534834 1_455
Ce0_0 Mg0_6 3.534834 1_455
Ce0_1 Ce1_3 2.880924 1_555
Ce0_1 Ce1_5 2.880924 1_455
Ce0_1 Ce0_7 3.144694 1_445
Ce0_1 Ce0_7 3.144694 1_555
Ce0_1 Mg2_2 3.320825 1_556
Ce0_1 Mg2_4 3.320825 1_456
Ce0_1 Mg2_5 3.320825 1_455
Ce0_1 Mg2_3 3.320825 1_555
Ce0_1 Mg3_3 3.417866 1_555
Ce0_1 Mg3_5 3.417866 1_455
Ce0_1 Mg0_6 3.534834 1_456
Ce0_1 Mg0_7 3.534834 1_455
Ce0_2 Ce1_0 2.880924 1_565
Ce0_2 Ce1_6 2.880924 1_455
Ce0_2 Ce0_4 3.144694 1_565
Ce0_2 Ce0_4 3.144694 1_455
Ce0_2 Mg2_0 3.320825 1_565
Ce0_2 Mg2_7 3.320825 1_455
Ce0_2 Mg2_1 3.320825 1_565
Ce0_2 Mg2_6 3.320825 1_455
Ce0_2 Mg3_0 3.417866 1_565
Ce0_2 Mg3_6 3.417866 1_455
Ce0_2 Mg0_4 3.534834 1_465
Ce0_2 Mg0_5 3.534834 1_465
Ce0_3 Ce1_1 2.880924 1_565
Ce0_3 Ce1_7 2.880924 1_455
Ce0_3 Ce0_5 3.144694 1_565
Ce0_3 Ce0_5 3.144694 1_455
Ce0_3 Mg2_6 3.320825 1_456
Ce0_3 Mg2_0 3.320825 1_566
Ce0_3 Mg2_7 3.320825 1_455
Ce0_3 Mg2_1 3.320825 1_565
Ce0_3 Mg3_1 3.417866 1_565
Ce0_3 Mg3_7 3.417866 1_455
Ce0_3 Mg0_4 3.534834 1_466
Ce0_3 Mg0_5 3.534834 1_465
Ce0_4 Ce1_0 2.880924 1_555
Ce0_4 Ce1_6 2.880924 1_555
Ce0_4 Mg2_0 3.320825 1_555
Ce0_4 Mg2_1 3.320825 1_555
Ce0_4 Mg2_6 3.320825 1_555
Ce0_4 Mg2_7 3.320825 1_555
Ce0_4 Mg3_0 3.417866 1_555
Ce0_4 Mg3_6 3.417866 1_555
Ce0_4 Mg0_2 3.534834 1_555
Ce0_4 Mg0_3 3.534834 1_555
Ce0_5 Ce1_1 2.880924 1_555
Ce0_5 Ce1_7 2.880924 1_555
Ce0_5 Mg2_0 3.320825 1_556
Ce0_5 Mg2_6 3.320825 1_556
Ce0_5 Mg2_1 3.320825 1_555
Ce0_5 Mg2_7 3.320825 1_555
Ce0_5 Mg3_1 3.417866 1_555
Ce0_5 Mg3_7 3.417866 1_555
Ce0_5 Mg0_2 3.534834 1_556
Ce0_5 Mg0_3 3.534834 1_555
Ce0_6 Ce1_2 2.880924 1_555
Ce0_6 Ce1_4 2.880924 1_565
Ce0_6 Mg2_5 3.320825 1_565
Ce0_6 Mg2_4 3.320825 1_565
Ce0_6 Mg2_3 3.320825 1_555
Ce0_6 Mg2_2 3.320825 1_555
Ce0_6 Mg3_2 3.417866 1_555
Ce0_6 Mg3_4 3.417866 1_565
Ce0_6 Mg0_0 3.534834 1_565
Ce0_6 Mg0_1 3.534834 1_565
Ce0_7 Ce1_3 2.880924 1_555
Ce0_7 Ce1_5 2.880924 1_565
Ce0_7 Mg2_4 3.320825 1_566
Ce0_7 Mg2_2 3.320825 1_556
Ce0_7 Mg2_5 3.320825 1_565
Ce0_7 Mg2_3 3.320825 1_555
Ce0_7 Mg3_3 3.417866 1_555
Ce0_7 Mg3_5 3.417866 1_565
Ce0_7 Mg0_0 3.534834 1_566
Ce0_7 Mg0_1 3.534834 1_565
Ce1_0 Ce1_6 3.144694 1_445
Ce1_0 Ce1_6 3.144694 1_555
Ce1_0 Mg2_0 3.282630 1_555
Ce1_0 Mg2_1 3.282630 1_555
Ce1_0 Mg3_4 3.413666 1_555
Ce1_0 Mg3_2 3.413666 1_545
Ce1_0 Mg1_3 3.431484 1_545
Ce1_0 Mg1_2 3.431484 1_545
Ce1_0 Mg1_5 3.431484 1_555
Ce1_0 Mg1_4 3.431484 1_555
Ce1_1 Ce1_7 3.144694 1_445
Ce1_1 Ce1_7 3.144694 1_555
Ce1_1 Mg2_0 3.282630 1_556
Ce1_1 Mg2_1 3.282630 1_555
Ce1_1 Mg3_5 3.413666 1_555
Ce1_1 Mg3_3 3.413666 1_545
Ce1_1 Mg1_2 3.431484 1_546
Ce1_1 Mg1_4 3.431484 1_556
Ce1_1 Mg1_3 3.431484 1_545
Ce1_1 Mg1_5 3.431484 1_555
Ce1_2 Ce1_4 3.144694 1_455
Ce1_2 Ce1_4 3.144694 1_565
Ce1_2 Mg2_3 3.282630 1_555
Ce1_2 Mg2_2 3.282630 1_555
Ce1_2 Mg3_6 3.413666 1_555
Ce1_2 Mg3_0 3.413666 1_555
Ce1_2 Mg1_0 3.431484 1_555
Ce1_2 Mg1_1 3.431484 1_555
Ce1_2 Mg1_6 3.431484 1_555
Ce1_2 Mg1_7 3.431484 1_555
Ce1_3 Ce1_5 3.144694 1_455
Ce1_3 Ce1_5 3.144694 1_565
Ce1_3 Mg2_2 3.282630 1_556
Ce1_3 Mg2_3 3.282630 1_555
Ce1_3 Mg3_7 3.413666 1_555
Ce1_3 Mg3_1 3.413666 1_555
Ce1_3 Mg1_0 3.431484 1_556
Ce1_3 Mg1_6 3.431484 1_556
Ce1_3 Mg1_1 3.431484 1_555
Ce1_3 Mg1_7 3.431484 1_555
Ce1_4 Mg2_4 3.282630 1_555
Ce1_4 Mg2_5 3.282630 1_555
Ce1_4 Mg3_6 3.413666 1_545
Ce1_4 Mg3_0 3.413666 1_655
Ce1_4 Mg1_6 3.431484 1_545
Ce1_4 Mg1_7 3.431484 1_545
Ce1_4 Mg1_1 3.431484 1_655
Ce1_4 Mg1_0 3.431484 1_655
Ce1_5 Mg2_4 3.282630 1_556
Ce1_5 Mg2_5 3.282630 1_555
Ce1_5 Mg3_7 3.413666 1_545
Ce1_5 Mg3_1 3.413666 1_655
Ce1_5 Mg1_6 3.431484 1_546
Ce1_5 Mg1_0 3.431484 1_656
Ce1_5 Mg1_7 3.431484 1_545
Ce1_5 Mg1_1 3.431484 1_655
Ce1_6 Mg2_6 3.282630 1_555
Ce1_6 Mg2_7 3.282630 1_555
Ce1_6 Mg3_4 3.413666 1_555
Ce1_6 Mg3_2 3.413666 1_655
Ce1_6 Mg1_3 3.431484 1_655
Ce1_6 Mg1_2 3.431484 1_655
Ce1_6 Mg1_5 3.431484 1_555
Ce1_6 Mg1_4 3.431484 1_555
Ce1_7 Mg2_6 3.282630 1_556
Ce1_7 Mg2_7 3.282630 1_555
Ce1_7 Mg3_5 3.413666 1_555
Ce1_7 Mg3_3 3.413666 1_655
Ce1_7 Mg1_2 3.431484 1_656
Ce1_7 Mg1_4 3.431484 1_556
Ce1_7 Mg1_3 3.431484 1_655
Ce1_7 Mg1_5 3.431484 1_555
Mg0_0 Mg0_6 3.144694 1_445
Mg0_0 Mg0_6 3.144694 1_555
Mg0_0 Mg1_2 3.212453 1_545
Mg0_0 Mg1_4 3.212453 1_555
Mg0_0 Mg2_4 3.270700 1_555
Mg0_0 Mg2_2 3.270700 1_545
Mg0_0 Mg3_3 3.362274 1_544
Mg0_0 Mg3_5 3.362274 1_554
Mg0_0 Mg3_4 3.362274 1_555
Mg0_0 Mg3_2 3.362274 1_545
Mg0_1 Mg0_7 3.144694 1_445
Mg0_1 Mg0_7 3.144694 1_555
Mg0_1 Mg1_5 3.212453 1_555
Mg0_1 Mg1_3 3.212453 1_545
Mg0_1 Mg2_5 3.270700 1_555
Mg0_1 Mg2_3 3.270700 1_545
Mg0_1 Mg3_4 3.362274 1_555
Mg0_1 Mg3_2 3.362274 1_545
Mg0_1 Mg3_3 3.362274 1_545
Mg0_1 Mg3_5 3.362274 1_555
Mg0_2 Mg0_4 3.144694 1_455
Mg0_2 Mg0_4 3.144694 1_565
Mg0_2 Mg1_0 3.212453 1_555
Mg0_2 Mg1_6 3.212453 1_555
Mg0_2 Mg2_0 3.270700 1_555
Mg0_2 Mg2_6 3.270700 1_555
Mg0_2 Mg3_1 3.362274 1_554
Mg0_2 Mg3_7 3.362274 1_554
Mg0_2 Mg3_0 3.362274 1_555
Mg0_2 Mg3_6 3.362274 1_555
Mg0_3 Mg0_5 3.144694 1_455
Mg0_3 Mg0_5 3.144694 1_565
Mg0_3 Mg1_1 3.212453 1_555
Mg0_3 Mg1_7 3.212453 1_555
Mg0_3 Mg2_1 3.270700 1_555
Mg0_3 Mg2_7 3.270700 1_555
Mg0_3 Mg3_0 3.362274 1_555
Mg0_3 Mg3_6 3.362274 1_555
Mg0_3 Mg3_1 3.362274 1_555
Mg0_3 Mg3_7 3.362274 1_555
Mg0_4 Mg1_0 3.212453 1_655
Mg0_4 Mg1_6 3.212453 1_545
Mg0_4 Mg2_0 3.270700 1_655
Mg0_4 Mg2_6 3.270700 1_545
Mg0_4 Mg3_1 3.362274 1_654
Mg0_4 Mg3_7 3.362274 1_544
Mg0_4 Mg3_0 3.362274 1_655
Mg0_4 Mg3_6 3.362274 1_545
Mg0_5 Mg1_1 3.212453 1_655
Mg0_5 Mg1_7 3.212453 1_545
Mg0_5 Mg2_1 3.270700 1_655
Mg0_5 Mg2_7 3.270700 1_545
Mg0_5 Mg3_0 3.362274 1_655
Mg0_5 Mg3_6 3.362274 1_545
Mg0_5 Mg3_1 3.362274 1_655
Mg0_5 Mg3_7 3.362274 1_545
Mg0_6 Mg1_4 3.212453 1_555
Mg0_6 Mg1_2 3.212453 1_655
Mg0_6 Mg2_4 3.270700 1_555
Mg0_6 Mg2_2 3.270700 1_655
Mg0_6 Mg3_3 3.362274 1_654
Mg0_6 Mg3_2 3.362274 1_655
Mg0_6 Mg3_5 3.362274 1_554
Mg0_6 Mg3_4 3.362274 1_555
Mg0_7 Mg1_5 3.212453 1_555
Mg0_7 Mg1_3 3.212453 1_655
Mg0_7 Mg2_5 3.270700 1_555
Mg0_7 Mg2_3 3.270700 1_655
Mg0_7 Mg3_2 3.362274 1_655
Mg0_7 Mg3_4 3.362274 1_555
Mg0_7 Mg3_3 3.362274 1_655
Mg0_7 Mg3_5 3.362274 1_555
Mg1_0 Mg1_6 3.144694 1_445
Mg1_0 Mg1_6 3.144694 1_555
Mg1_0 Mg2_2 3.219479 1_555
Mg1_0 Mg2_4 3.219479 1_455
Mg1_0 Mg3_1 3.399950 1_554
Mg1_0 Mg3_0 3.399950 1_555
Mg1_1 Mg1_7 3.144694 1_445
Mg1_1 Mg1_7 3.144694 1_555
Mg1_1 Mg2_3 3.219479 1_555
Mg1_1 Mg2_5 3.219479 1_455
Mg1_1 Mg3_0 3.399950 1_555
Mg1_1 Mg3_1 3.399950 1_555
Mg1_2 Mg1_4 3.144694 1_455
Mg1_2 Mg1_4 3.144694 1_565
Mg1_2 Mg2_6 3.219479 1_455
Mg1_2 Mg2_0 3.219479 1_565
Mg1_2 Mg3_3 3.399950 1_554
Mg1_2 Mg3_2 3.399950 1_555
Mg1_3 Mg1_5 3.144694 1_455
Mg1_3 Mg1_5 3.144694 1_565
Mg1_3 Mg2_7 3.219479 1_455
Mg1_3 Mg2_1 3.219479 1_565
Mg1_3 Mg3_2 3.399950 1_555
Mg1_3 Mg3_3 3.399950 1_555
Mg1_4 Mg2_6 3.219479 1_555
Mg1_4 Mg2_0 3.219479 1_555
Mg1_4 Mg3_5 3.399950 1_554
Mg1_4 Mg3_4 3.399950 1_555
Mg1_5 Mg2_7 3.219479 1_555
Mg1_5 Mg2_1 3.219479 1_555
Mg1_5 Mg3_4 3.399950 1_555
Mg1_5 Mg3_5 3.399950 1_555
Mg1_6 Mg2_4 3.219479 1_565
Mg1_6 Mg2_2 3.219479 1_555
Mg1_6 Mg3_7 3.399950 1_554
Mg1_6 Mg3_6 3.399950 1_555
Mg1_7 Mg2_5 3.219479 1_565
Mg1_7 Mg2_3 3.219479 1_555
Mg1_7 Mg3_6 3.399950 1_555
Mg1_7 Mg3_7 3.399950 1_555
Mg2_0 Mg2_6 3.144694 1_445
Mg2_0 Mg2_6 3.144694 1_555
Mg2_1 Mg2_7 3.144694 1_445
Mg2_1 Mg2_7 3.144694 1_555
Mg2_2 Mg2_4 3.144694 1_565
Mg2_2 Mg2_4 3.144694 1_455
Mg2_3 Mg2_5 3.144694 1_565
Mg2_3 Mg2_5 3.144694 1_455
Mg3_0 Mg3_6 3.144694 1_445
Mg3_0 Mg3_6 3.144694 1_555
Mg3_1 Mg3_7 3.144694 1_445
Mg3_1 Mg3_7 3.144694 1_555
Mg3_2 Mg3_4 3.144694 1_565
Mg3_2 Mg3_4 3.144694 1_455
Mg3_3 Mg3_5 3.144694 1_565
Mg3_3 Mg3_5 3.144694 1_455
