# generated using pymatgen
data_La2U3O11
_symmetry_space_group_name_H-M   'P 1'
_cell_length_a   10.19012682
_cell_length_b   10.19012682
_cell_length_c   10.19012682
_cell_angle_alpha   158.14879087
_cell_angle_beta   148.06830905
_cell_angle_gamma   39.02850160
_symmetry_Int_Tables_number   1
_chemical_formula_structural   La2U3O11
_chemical_formula_sum   'La2 U3 O11'
_cell_volume   207.98353077
_cell_formula_units_Z   1
loop_
 _symmetry_equiv_pos_site_id
 _symmetry_equiv_pos_as_xyz
  1  'x, y, z'
loop_
 _atom_site_type_symbol
 _atom_site_label
 _atom_site_symmetry_multiplicity
 _atom_site_fract_x
 _atom_site_fract_y
 _atom_site_fract_z
 _atom_site_occupancy
  La  La0  1  0.69976900  0.69976900  0.00000000  1
  La  La1  1  0.30023100  0.30023100  0.00000000  1
  U  U0  1  0.90649300  0.90649300  0.00000000  1
  U  U1  1  0.50000000  0.50000000  0.00000000  1
  U  U2  1  0.09350700  0.09350700  0.00000000  1
  O  O0  1  0.82900600  0.59507300  0.23393300  1
  O  O1  1  0.63886000  0.40492700  0.23393300  1
  O  O2  1  0.28415600  0.00000000  0.28415600  1
  O  O3  1  0.41243500  0.18557000  0.22686500  1
  O  O4  1  0.04129400  0.81443000  0.22686500  1
  O  O5  1  0.36114000  0.59507300  0.76606700  1
  O  O6  1  0.17099400  0.40492700  0.76606700  1
  O  O7  1  0.71584400  0.00000000  0.71584400  1
  O  O8  1  0.95870600  0.18557000  0.77313500  1
  O  O9  1  0.58756500  0.81443000  0.77313500  1
  O  O10  1  0.00000000  0.50000000  0.50000000  1
loop_
_geom_bond_atom_site_label_1
_geom_bond_atom_site_label_2
_geom_bond_distance
_geom_bond_site_symmetry_2
La0 O5 2.400950 1_554
La0 O0 2.400950 1_555
La0 O8 2.479732 1_565
La0 O3 2.479733 1_565
La0 O3 2.479733 1_554
La0 O8 2.479735 1_554
La0 O4 2.543378 1_655
La0 O9 2.543388 1_554
La1 O1 2.400950 1_555
La1 O6 2.400950 1_554
La1 O4 2.479732 1_544
La1 O9 2.479733 1_544
La1 O9 2.479733 1_555
La1 O4 2.479735 1_555
La1 O8 2.543378 1_454
La1 O3 2.543388 1_555
O0 U1 2.248374 1_555
O0 U2 2.440454 1_666
O0 U2 2.440454 1_655
O1 U1 2.248374 1_555
O1 U0 2.440454 1_556
O1 U0 2.440454 1_545
O2 U1 2.279103 1_545
O2 U1 2.279103 1_556
O2 U2 2.400815 1_555
O2 U0 2.400815 1_445
O3 U2 2.178298 1_555
O4 U0 2.178304 1_455
O5 U1 2.248374 1_556
O5 U2 2.440454 1_555
O5 U2 2.440454 1_566
O6 U1 2.248374 1_556
O6 U0 2.440454 1_456
O6 U0 2.440454 1_445
O7 U1 2.279103 1_545
O7 U1 2.279103 1_556
O7 U2 2.400815 1_656
O7 U0 2.400815 1_546
O8 U2 2.178304 1_656
O9 U0 2.178298 1_556
O10 U2 2.637549 1_566
O10 U2 2.637549 1_555
O10 U0 2.637549 1_445
O10 U0 2.637549 1_456
O10 U1 2.802940 1_455
O10 U1 2.802940 1_556
