# generated using pymatgen
data_Y2InN3
_symmetry_space_group_name_H-M   'P 1'
_cell_length_a   6.13316133
_cell_length_b   10.72240545
_cell_length_c   12.28891242
_cell_angle_alpha   89.99999931
_cell_angle_beta   93.71938102
_cell_angle_gamma   150.94260918
_symmetry_Int_Tables_number   1
_chemical_formula_structural   Y2InN3
_chemical_formula_sum   'Y8 In4 N12'
_cell_volume   388.98822018
_cell_formula_units_Z   4
loop_
 _symmetry_equiv_pos_site_id
 _symmetry_equiv_pos_as_xyz
  1  'x, y, z'
loop_
 _atom_site_type_symbol
 _atom_site_label
 _atom_site_symmetry_multiplicity
 _atom_site_fract_x
 _atom_site_fract_y
 _atom_site_fract_z
 _atom_site_occupancy
  Y  Y0  1  0.44599900  0.01485500  0.86595000  1
  Y  Y1  1  0.55400100  0.56885600  0.63405000  1
  Y  Y2  1  0.55400100  0.98514500  0.13405000  1
  Y  Y3  1  0.44599900  0.43114400  0.36595000  1
  Y  Y4  1  0.60510400  0.91567600  0.56651700  1
  Y  Y5  1  0.39489600  0.31057200  0.93348300  1
  Y  Y6  1  0.39489600  0.08432400  0.43348300  1
  Y  Y7  1  0.60510400  0.68942800  0.06651700  1
  In  In0  1  0.56702800  0.27840400  0.66540600  1
  In  In1  1  0.43297200  0.71137600  0.83459400  1
  In  In2  1  0.43297200  0.72159600  0.33459400  1
  In  In3  1  0.56702800  0.28862400  0.16540600  1
  N  N0  1  0.00000000  0.63868000  0.75000000  1
  N  N1  1  0.00000000  0.36132000  0.25000000  1
  N  N2  1  0.76649000  0.20170700  0.60337300  1
  N  N3  1  0.23351000  0.43521600  0.89662700  1
  N  N4  1  0.23351000  0.79829300  0.39662700  1
  N  N5  1  0.76649000  0.56478400  0.10337300  1
  N  N6  1  0.33759100  0.06104800  0.02142500  1
  N  N7  1  0.66240900  0.72345700  0.47857500  1
  N  N8  1  0.66240900  0.93895200  0.97857500  1
  N  N9  1  0.33759100  0.27654300  0.52142500  1
  N  N10  1  0.00000000  0.95067300  0.75000000  1
  N  N11  1  0.00000000  0.04932700  0.25000000  1
loop_
_geom_bond_atom_site_label_1
_geom_bond_atom_site_label_2
_geom_bond_distance
_geom_bond_site_symmetry_2
In0 N10 2.151148 1_545
In0 N2 2.152624 1_555
In0 N9 2.176945 1_555
In0 N0 2.182435 1_655
In1 N10 2.151148 1_655
In1 N3 2.152634 1_555
In1 N8 2.176945 1_555
In1 N0 2.182435 1_555
In2 N11 2.151148 1_665
In2 N4 2.152624 1_555
In2 N7 2.176945 1_555
In2 N1 2.182435 1_555
In3 N11 2.151148 1_555
In3 N5 2.152634 1_555
In3 N6 2.176945 1_555
In3 N1 2.182435 1_655
N0 Y1 2.446871 1_455
N0 Y0 2.446871 1_565
N0 Y5 3.081205 1_455
N0 Y4 3.081205 1_555
N1 Y3 2.446871 1_555
N1 Y2 2.446871 1_445
N1 Y7 3.081205 1_555
N1 Y6 3.081205 1_455
N2 Y4 2.285966 1_545
N2 Y1 2.343114 1_655
N2 Y6 2.346227 1_555
N3 Y5 2.285955 1_555
N3 Y0 2.343112 1_455
N3 Y7 2.346230 1_556
N4 Y6 2.285966 1_565
N4 Y3 2.343114 1_455
N4 Y4 2.346227 1_555
N5 Y7 2.285955 1_555
N5 Y2 2.343112 1_655
N5 Y5 2.346230 1_554
N6 Y0 2.253531 1_554
N6 Y7 2.322531 1_445
N6 Y2 2.447404 1_545
N6 Y5 2.618220 1_554
N7 Y1 2.253531 1_555
N7 Y6 2.322531 1_665
N7 Y3 2.447404 1_555
N7 Y4 2.618220 1_555
N8 Y2 2.253531 1_556
N8 Y5 2.322531 1_665
N8 Y0 2.447404 1_565
N8 Y7 2.618220 1_556
N9 Y3 2.253531 1_555
N9 Y4 2.322531 1_445
N9 Y1 2.447404 1_555
N9 Y6 2.618220 1_555
N10 Y0 2.487882 1_565
N10 Y1 2.487882 1_455
N10 Y4 2.965374 1_455
N10 Y5 2.965374 1_565
N11 Y2 2.487882 1_445
N11 Y3 2.487882 1_555
N11 Y6 2.965374 1_555
N11 Y7 2.965374 1_445
