# generated using pymatgen
data_ZnO
_symmetry_space_group_name_H-M   'P 1'
_cell_length_a   5.51757007
_cell_length_b   5.51757007
_cell_length_c   3.25877877
_cell_angle_alpha   90.00000000
_cell_angle_beta   90.00000000
_cell_angle_gamma   90.00000000
_symmetry_Int_Tables_number   1
_chemical_formula_structural   ZnO
_chemical_formula_sum   'Zn4 O4'
_cell_volume   99.20889048
_cell_formula_units_Z   4
loop_
 _symmetry_equiv_pos_site_id
 _symmetry_equiv_pos_as_xyz
  1  'x, y, z'
loop_
 _atom_site_type_symbol
 _atom_site_label
 _atom_site_symmetry_multiplicity
 _atom_site_fract_x
 _atom_site_fract_y
 _atom_site_fract_z
 _atom_site_occupancy
  Zn  Zn0  1  0.18197284  0.18197284  0.50000000  1
  Zn  Zn1  1  0.81802716  0.81802716  0.50000000  1
  Zn  Zn2  1  0.68197284  0.31802716  0.00000000  1
  Zn  Zn3  1  0.31802716  0.68197284  -0.00000000  1
  O  O0  1  0.81724723  0.18275277  0.50000000  1
  O  O1  1  0.18275277  0.81724723  0.50000000  1
  O  O2  1  0.68275277  0.68275277  -0.00000000  1
  O  O3  1  0.31724723  0.31724723  -0.00000000  1
loop_
_geom_bond_atom_site_label_1
_geom_bond_atom_site_label_2
_geom_bond_distance
_geom_bond_site_symmetry_2
O0 Zn2 1.941415 1_556
O0 Zn2 1.941415 1_555
O0 Zn0 2.012404 1_655
O0 Zn1 2.012404 1_545
O1 Zn3 1.941415 1_556
O1 Zn3 1.941415 1_555
O1 Zn0 2.012404 1_565
O1 Zn1 2.012404 1_455
O2 Zn1 1.941415 1_554
O2 Zn1 1.941415 1_555
O2 Zn3 2.012404 1_555
O2 Zn2 2.012404 1_555
O3 Zn0 1.941415 1_554
O3 Zn0 1.941415 1_555
O3 Zn3 2.012404 1_555
O3 Zn2 2.012404 1_555
