# generated using pymatgen
data_Sm3HoS4
_symmetry_space_group_name_H-M   'P 1'
_cell_length_a   13.23257984
_cell_length_b   13.23257984
_cell_length_c   13.23257824
_cell_angle_alpha   17.21669706
_cell_angle_beta   17.21669706
_cell_angle_gamma   17.21669529
_symmetry_Int_Tables_number   1
_chemical_formula_structural   Sm3HoS4
_chemical_formula_sum   'Sm3 Ho1 S4'
_cell_volume   177.11803865
_cell_formula_units_Z   1
loop_
 _symmetry_equiv_pos_site_id
 _symmetry_equiv_pos_as_xyz
  1  'x, y, z'
loop_
 _atom_site_type_symbol
 _atom_site_label
 _atom_site_symmetry_multiplicity
 _atom_site_fract_x
 _atom_site_fract_y
 _atom_site_fract_z
 _atom_site_occupancy
  Sm  Sm0  1  0.25099834  0.25099834  0.25099834  1
  Sm  Sm1  1  0.50000000  0.50000000  0.50000000  1
  Sm  Sm2  1  0.74900166  0.74900166  0.74900166  1
  Ho  Ho0  1  0.00000000  0.00000000  -0.00000000  1
  S  S0  1  0.37225353  0.37225353  0.37225353  1
  S  S1  1  0.12446309  0.12446309  0.12446309  1
  S  S2  1  0.62774647  0.62774647  0.62774647  1
  S  S3  1  0.87553691  0.87553691  0.87553691  1
loop_
_geom_bond_atom_site_label_1
_geom_bond_atom_site_label_2
_geom_bond_distance
_geom_bond_site_symmetry_2
Ho0 S0 2.747081 1_545
Ho0 S0 2.747081 1_455
Ho0 S2 2.747081 1_454
Ho0 S2 2.747081 1_544
Ho0 S0 2.747082 1_554
Ho0 S2 2.747082 1_445
S0 Sm2 2.848196 1_545
S0 Sm2 2.848196 1_455
S0 Sm2 2.848197 1_554
S1 Sm2 2.818500 1_454
S1 Sm2 2.818500 1_544
S1 Sm2 2.818501 1_445
S1 Sm1 2.820226 1_545
S1 Sm1 2.820226 1_455
S1 Sm1 2.820227 1_554
S2 Sm0 2.848196 1_565
S2 Sm0 2.848196 1_655
S2 Sm0 2.848197 1_556
S3 Sm0 2.818500 1_656
S3 Sm0 2.818500 1_566
S3 Sm0 2.818501 1_665
S3 Sm1 2.820226 1_655
S3 Sm1 2.820226 1_565
S3 Sm1 2.820227 1_556
