# generated using pymatgen
data_Ag6HgNO11
_symmetry_space_group_name_H-M   'P 1'
_cell_length_a   7.21974551
_cell_length_b   7.14953352
_cell_length_c   7.10363859
_cell_angle_alpha   60.86573284
_cell_angle_beta   59.88117534
_cell_angle_gamma   59.25309182
_symmetry_Int_Tables_number   1
_chemical_formula_structural   Ag6HgNO11
_chemical_formula_sum   'Ag6 Hg1 N1 O11'
_cell_volume   259.17312063
_cell_formula_units_Z   1
loop_
 _symmetry_equiv_pos_site_id
 _symmetry_equiv_pos_as_xyz
  1  'x, y, z'
loop_
 _atom_site_type_symbol
 _atom_site_label
 _atom_site_symmetry_multiplicity
 _atom_site_fract_x
 _atom_site_fract_y
 _atom_site_fract_z
 _atom_site_occupancy
  Ag  Ag0  1  0.49964800  0.99583600  0.50035200  1
  Ag  Ag1  1  0.49873600  0.49873600  0.00126400  1
  Ag  Ag2  1  0.50025600  0.00264200  0.99735800  1
  Ag  Ag3  1  0.99583600  0.49964800  0.00416400  1
  Ag  Ag4  1  0.99873600  0.99873600  0.50126400  1
  Ag  Ag5  1  0.00264200  0.50025600  0.49974400  1
  Hg  Hg0  1  0.00102300  0.00102300  0.99897700  1
  N  N0  1  0.47266200  0.47266200  0.52733800  1
  O  O0  1  0.57545000  0.14321200  0.14335300  1
  O  O1  1  0.13610000  0.14198400  0.14777400  1
  O  O2  1  0.14321200  0.57545000  0.13798400  1
  O  O3  1  0.14198400  0.13610000  0.57414100  1
  O  O4  1  0.42585900  0.85222600  0.85801600  1
  O  O5  1  0.86201600  0.85664700  0.85678800  1
  O  O6  1  0.85222600  0.42585900  0.86390000  1
  O  O7  1  0.85664700  0.86201600  0.42455000  1
  O  O8  1  0.42404600  0.64143700  0.35856300  1
  O  O9  1  0.34888400  0.34888400  0.65111600  1
  O  O10  1  0.64143700  0.42404600  0.57595400  1
loop_
_geom_bond_atom_site_label_1
_geom_bond_atom_site_label_2
_geom_bond_distance
_geom_bond_site_symmetry_2
Ag0 O0 2.106151 1_565
Ag0 O7 2.106152 1_555
Ag0 O4 2.110461 1_555
Ag0 O3 2.110461 1_565
Ag0 O9 2.712202 1_565
Ag1 O4 2.091183 1_554
Ag1 O6 2.091183 1_554
Ag1 O0 2.099965 1_555
Ag1 O2 2.099965 1_555
Ag2 O0 2.125593 1_556
Ag2 O5 2.125598 1_545
Ag2 O4 2.141370 1_545
Ag2 O1 2.141375 1_556
Ag2 O8 2.671969 1_546
Ag2 O9 2.715637 1_555
Ag3 O2 2.106145 1_655
Ag3 O5 2.106151 1_554
Ag3 O6 2.110455 1_554
Ag3 O1 2.110460 1_655
Ag3 O9 2.712202 1_654
Ag4 O3 2.091177 1_665
Ag4 O1 2.091182 1_665
Ag4 O7 2.099959 1_555
Ag4 O5 2.099964 1_555
Ag5 O2 2.125599 1_555
Ag5 O7 2.125599 1_455
Ag5 O6 2.141376 1_455
Ag5 O3 2.141376 1_555
Ag5 O10 2.671969 1_455
Ag5 O9 2.715637 1_555
Hg0 O1 2.482072 1_556
Hg0 O6 2.482077 1_455
Hg0 O3 2.482078 1_555
Hg0 O4 2.482078 1_545
Hg0 O5 2.486899 1_445
Hg0 O7 2.486905 1_446
Hg0 O2 2.486905 1_546
Hg0 O0 2.486905 1_456
N0 O8 1.263818 1_555
N0 O10 1.263818 1_555
N0 O9 1.271711 1_555
