# generated using pymatgen
data_BaSrTbWO6
_symmetry_space_group_name_H-M   'P 1'
_cell_length_a   5.99875074
_cell_length_b   5.97479398
_cell_length_c   8.42259734
_cell_angle_alpha   89.94162732
_cell_angle_beta   90.56293084
_cell_angle_gamma   90.32848669
_symmetry_Int_Tables_number   1
_chemical_formula_structural   BaSrTbWO6
_chemical_formula_sum   'Ba2 Sr2 Tb2 W2 O12'
_cell_volume   301.85716545
_cell_formula_units_Z   2
loop_
 _symmetry_equiv_pos_site_id
 _symmetry_equiv_pos_as_xyz
  1  'x, y, z'
loop_
 _atom_site_type_symbol
 _atom_site_label
 _atom_site_symmetry_multiplicity
 _atom_site_fract_x
 _atom_site_fract_y
 _atom_site_fract_z
 _atom_site_occupancy
  Ba  Ba0  1  0.50569254  0.52159156  0.24858628  1
  Ba  Ba1  1  0.49430746  0.47840844  0.75141372  1
  Sr  Sr0  1  0.99586670  0.02400053  0.25172606  1
  Sr  Sr1  1  0.00413330  0.97599947  0.74827394  1
  Tb  Tb0  1  -0.00000000  0.50000000  -0.00000000  1
  Tb  Tb1  1  0.50000000  -0.00000000  0.50000000  1
  W  W0  1  0.50000000  -0.00000000  -0.00000000  1
  W  W1  1  -0.00000000  0.50000000  0.50000000  1
  O  O0  1  0.23231294  0.20117064  0.96969666  1
  O  O1  1  0.25986078  0.70886101  0.52632426  1
  O  O2  1  0.76768706  0.79882936  0.03030334  1
  O  O3  1  0.74013922  0.29113899  0.47367574  1
  O  O4  1  0.28783221  0.73759912  0.96575992  1
  O  O5  1  0.20362826  0.22786415  0.53323233  1
  O  O6  1  0.71216779  0.26240088  0.03424008  1
  O  O7  1  0.79637174  0.77213585  0.46676767  1
  O  O8  1  0.43326587  0.99969136  0.23326335  1
  O  O9  1  0.05639923  0.49118184  0.26614810  1
  O  O10  1  0.56673413  0.00030864  0.76673665  1
  O  O11  1  0.94360077  0.50881816  0.73385190  1
loop_
_geom_bond_atom_site_label_1
_geom_bond_atom_site_label_2
_geom_bond_distance
_geom_bond_site_symmetry_2
Ba0 O6 2.695039 1_555
Ba0 O9 2.705762 1_555
Ba0 O3 2.726260 1_555
Ba0 O8 2.894419 1_555
Ba0 O7 2.927640 1_555
Ba0 O2 2.935077 1_555
Ba0 O1 2.998477 1_555
Ba0 O4 3.000012 1_554
Ba0 O8 3.148502 1_545
Ba1 O4 2.695039 1_555
Ba1 O11 2.705762 1_555
Ba1 O1 2.726260 1_555
Ba1 O10 2.894419 1_555
Ba1 O5 2.927640 1_555
Ba1 O0 2.935077 1_555
Ba1 O3 2.998477 1_555
Ba1 O6 3.000012 1_556
Ba1 O10 3.148502 1_565
O0 W0 2.025301 1_556
O0 Tb0 2.287244 1_556
O0 Sr1 2.663730 1_545
O0 Sr0 2.969652 1_456
O1 W1 2.001966 1_555
O1 Tb1 2.264267 1_565
O1 Sr1 2.913066 1_555
O2 W0 2.025301 1_565
O2 Tb0 2.287244 1_655
O2 Sr0 2.663730 1_565
O2 Sr1 2.969652 1_654
O3 W1 2.001966 1_655
O3 Tb1 2.264267 1_555
O3 Sr0 2.913066 1_555
O4 W0 2.032693 1_566
O4 Tb0 2.249568 1_556
O4 Sr1 2.870863 1_555
O5 W1 2.056527 1_555
O5 Tb1 2.265163 1_555
O5 Sr1 2.644532 1_545
O5 Sr0 2.930706 1_455
O6 W0 2.032693 1_555
O6 Tb0 2.249568 1_655
O6 Sr0 2.870863 1_555
O7 W1 2.056527 1_655
O7 Tb1 2.265163 1_565
O7 Sr0 2.644532 1_565
O7 Sr1 2.930706 1_655
O8 W0 2.008900 1_565
O8 Tb1 2.278128 1_565
O8 Sr0 2.634823 1_465
O9 W1 2.002557 1_555
O9 Tb0 2.264361 1_555
O9 Sr0 2.815357 1_455
O9 Sr0 3.208234 1_465
O10 W0 2.008900 1_556
O10 Tb1 2.278128 1_555
O10 Sr1 2.634823 1_645
O11 W1 2.002557 1_655
O11 Tb0 2.264361 1_656
O11 Sr1 2.815357 1_655
O11 Sr1 3.208234 1_645
