# generated using pymatgen
data_KAg3S2
_symmetry_space_group_name_H-M   'P 1'
_cell_length_a   9.43664971
_cell_length_b   9.43664971
_cell_length_c   9.43664971
_cell_angle_alpha   60.00000000
_cell_angle_beta   60.00000000
_cell_angle_gamma   60.00000000
_symmetry_Int_Tables_number   1
_chemical_formula_structural   KAg3S2
_chemical_formula_sum   'K4 Ag12 S8'
_cell_volume   594.20801382
_cell_formula_units_Z   4
loop_
 _symmetry_equiv_pos_site_id
 _symmetry_equiv_pos_as_xyz
  1  'x, y, z'
loop_
 _atom_site_type_symbol
 _atom_site_label
 _atom_site_symmetry_multiplicity
 _atom_site_fract_x
 _atom_site_fract_y
 _atom_site_fract_z
 _atom_site_occupancy
  K  K0  1  0.62500000  0.62500000  0.62500000  1
  K  K1  1  0.12500000  0.62500000  0.62500000  1
  K  K2  1  0.62500000  0.12500000  0.62500000  1
  K  K3  1  0.62500000  0.62500000  0.12500000  1
  Ag  Ag0  1  0.41027900  0.08972100  0.41027900  1
  Ag  Ag1  1  0.16027900  0.83972100  0.16027900  1
  Ag  Ag2  1  0.41027900  0.41027900  0.08972100  1
  Ag  Ag3  1  0.08972100  0.41027900  0.41027900  1
  Ag  Ag4  1  0.41027900  0.08972100  0.08972100  1
  Ag  Ag5  1  0.08972100  0.08972100  0.41027900  1
  Ag  Ag6  1  0.83972100  0.83972100  0.16027900  1
  Ag  Ag7  1  0.16027900  0.16027900  0.83972100  1
  Ag  Ag8  1  0.83972100  0.16027900  0.83972100  1
  Ag  Ag9  1  0.16027900  0.83972100  0.83972100  1
  Ag  Ag10  1  0.83972100  0.16027900  0.16027900  1
  Ag  Ag11  1  0.08972100  0.41027900  0.08972100  1
  S  S0  1  0.38634000  0.87122000  0.87122000  1
  S  S1  1  0.37878000  0.37878000  0.37878000  1
  S  S2  1  0.37878000  0.37878000  0.86366000  1
  S  S3  1  0.37878000  0.86366000  0.37878000  1
  S  S4  1  0.87122000  0.38634000  0.87122000  1
  S  S5  1  0.86366000  0.37878000  0.37878000  1
  S  S6  1  0.87122000  0.87122000  0.87122000  1
  S  S7  1  0.87122000  0.87122000  0.38634000  1
loop_
_geom_bond_atom_site_label_1
_geom_bond_atom_site_label_2
_geom_bond_distance
_geom_bond_site_symmetry_2
K0 S2 3.286688 1_555
K0 S5 3.286688 1_555
K0 S3 3.286688 1_555
K0 S4 3.286688 1_555
K0 S0 3.286688 1_555
K0 S7 3.286688 1_555
K1 S7 3.286688 1_455
K1 S4 3.286688 1_455
K1 S1 3.286688 1_555
K1 S2 3.286688 1_555
K1 S3 3.286688 1_555
K1 S6 3.286688 1_455
K2 S7 3.286688 1_545
K2 S0 3.286688 1_545
K2 S1 3.286688 1_555
K2 S5 3.286688 1_555
K2 S2 3.286688 1_555
K2 S6 3.286688 1_545
K3 S0 3.286688 1_554
K3 S1 3.286688 1_555
K3 S4 3.286688 1_554
K3 S5 3.286688 1_555
K3 S3 3.286688 1_555
K3 S6 3.286688 1_554
Ag0 S3 2.466588 1_545
Ag0 S1 2.466588 1_555
Ag1 S7 2.466588 1_455
Ag1 S0 2.466588 1_554
Ag2 S2 2.466588 1_554
Ag2 S1 2.466588 1_555
Ag3 S5 2.466588 1_455
Ag3 S1 2.466588 1_555
Ag4 S3 2.466588 1_545
Ag4 S2 2.466588 1_554
Ag5 S3 2.466588 1_545
Ag5 S5 2.466588 1_455
Ag6 S6 2.466588 1_554
Ag6 S7 2.466588 1_555
Ag7 S4 2.466588 1_455
Ag7 S0 2.466588 1_545
Ag8 S6 2.466588 1_545
Ag8 S4 2.466588 1_555
Ag9 S6 2.466588 1_455
Ag9 S0 2.466588 1_555
Ag10 S7 2.466588 1_545
Ag10 S4 2.466588 1_554
Ag11 S5 2.466588 1_455
Ag11 S2 2.466588 1_554
