# generated using pymatgen
data_Te4Mo2WS2
_symmetry_space_group_name_H-M   'P 1'
_cell_length_a   3.43634692
_cell_length_b   3.43634692
_cell_length_c   31.56085600
_cell_angle_alpha   90.00000000
_cell_angle_beta   90.00000000
_cell_angle_gamma   120.00001780
_symmetry_Int_Tables_number   1
_chemical_formula_structural   Te4Mo2WS2
_chemical_formula_sum   'Te4 Mo2 W1 S2'
_cell_volume   322.75526296
_cell_formula_units_Z   1
loop_
 _symmetry_equiv_pos_site_id
 _symmetry_equiv_pos_as_xyz
  1  'x, y, z'
loop_
 _atom_site_type_symbol
 _atom_site_label
 _atom_site_symmetry_multiplicity
 _atom_site_fract_x
 _atom_site_fract_y
 _atom_site_fract_z
 _atom_site_occupancy
  Te  Te0  1  0.33333300  0.66666700  0.05688400  1
  Te  Te1  1  0.33333300  0.66666700  0.51895300  1
  Te  Te2  1  0.33333300  0.66666700  0.17446200  1
  Te  Te3  1  0.33333300  0.66666700  0.63762900  1
  Mo  Mo0  1  0.00000000  0.00000000  0.11566200  1
  Mo  Mo1  1  0.33333300  0.66666700  0.34698300  1
  W  W0  1  0.00000000  0.00000000  0.57830600  1
  S  S0  1  0.00000000  0.00000000  0.39398900  1
  S  S1  1  0.00000000  0.00000000  0.29997300  1
loop_
_geom_bond_atom_site_label_1
_geom_bond_atom_site_label_2
_geom_bond_distance
_geom_bond_site_symmetry_2
Te1 W0 2.728580 1_565
Te1 W0 2.728582 1_665
Te1 W0 2.728582 1_555
Te3 W0 2.727930 1_565
Te3 W0 2.727932 1_665
Te3 W0 2.727932 1_555
Mo0 Te0 2.716153 1_545
Mo0 Te0 2.716155 1_555
Mo0 Te0 2.716155 1_445
Mo0 Te2 2.716628 1_545
Mo0 Te2 2.716629 1_555
Mo0 Te2 2.716629 1_445
Mo1 S0 2.477312 1_565
Mo1 S0 2.477313 1_665
Mo1 S0 2.477313 1_555
Mo1 S1 2.477387 1_565
Mo1 S1 2.477389 1_665
Mo1 S1 2.477389 1_555
