# generated using pymatgen
data_BaLa4TiCr4O15
_symmetry_space_group_name_H-M   'P 1'
_cell_length_a   5.58076100
_cell_length_b   7.91895736
_cell_length_c   14.80623165
_cell_angle_alpha   105.31937896
_cell_angle_beta   100.59767603
_cell_angle_gamma   90.85967616
_symmetry_Int_Tables_number   1
_chemical_formula_structural   BaLa4TiCr4O15
_chemical_formula_sum   'Ba2 La8 Ti2 Cr8 O30'
_cell_volume   618.93178619
_cell_formula_units_Z   2
loop_
 _symmetry_equiv_pos_site_id
 _symmetry_equiv_pos_as_xyz
  1  'x, y, z'
loop_
 _atom_site_type_symbol
 _atom_site_label
 _atom_site_symmetry_multiplicity
 _atom_site_fract_x
 _atom_site_fract_y
 _atom_site_fract_z
 _atom_site_occupancy
  Ba  Ba0  1  0.50116300  0.25130200  0.00265200  1
  Ba  Ba1  1  0.49883700  0.74869800  0.99734800  1
  La  La0  1  0.90106900  0.64900500  0.79817900  1
  La  La1  1  0.29940300  0.05018300  0.60015800  1
  La  La2  1  0.69999100  0.44784300  0.39707300  1
  La  La3  1  0.89923000  0.14892800  0.79801600  1
  La  La4  1  0.10077000  0.85107200  0.20198400  1
  La  La5  1  0.30000900  0.55215700  0.60292700  1
  La  La6  1  0.70059700  0.94981700  0.39984200  1
  La  La7  1  0.09893100  0.35099500  0.20182100  1
  Ti  Ti0  1  0.00000000  0.00000000  0.00000000  1
  Ti  Ti1  1  0.00000000  0.50000000  0.00000000  1
  Cr  Cr0  1  0.39515500  0.39935100  0.79730600  1
  Cr  Cr1  1  0.79977900  0.80023400  0.59840300  1
  Cr  Cr2  1  0.40323800  0.89845700  0.79726200  1
  Cr  Cr3  1  0.60484500  0.60064900  0.20269400  1
  Cr  Cr4  1  0.79871100  0.29835200  0.59848000  1
  Cr  Cr5  1  0.20128900  0.70164800  0.40152000  1
  Cr  Cr6  1  0.20022100  0.19976600  0.40159700  1
  Cr  Cr7  1  0.59676200  0.10154300  0.20273800  1
  O  O0  1  0.72281400  0.42396900  0.88820500  1
  O  O1  1  0.99196500  0.74046700  0.98165500  1
  O  O2  1  0.16482000  0.96444400  0.88791100  1
  O  O3  1  0.13019300  0.81460400  0.68315700  1
  O  O4  1  0.20454800  0.43102800  0.90459500  1
  O  O5  1  0.38723100  0.13731700  0.77401600  1
  O  O6  1  0.40258700  0.65455500  0.80832200  1
  O  O7  1  0.55640100  0.37060600  0.68425700  1
  O  O8  1  0.70000400  0.97322700  0.90485700  1
  O  O9  1  0.52813500  0.20564100  0.48580400  1
  O  O10  1  0.64904400  0.82513900  0.71308300  1
  O  O11  1  0.78526000  0.53560700  0.57094700  1
  O  O12  1  0.81404800  0.06434600  0.62860100  1
  O  O13  1  0.95431600  0.78059200  0.48466900  1
  O  O14  1  0.06713500  0.38800200  0.71175600  1
  O  O15  1  0.93286500  0.61199800  0.28824400  1
  O  O16  1  0.04568400  0.21940800  0.51533100  1
  O  O17  1  0.18595200  0.93565400  0.37139900  1
  O  O18  1  0.21474000  0.46439300  0.42905300  1
  O  O19  1  0.35095600  0.17486100  0.28691700  1
  O  O20  1  0.47186500  0.79435900  0.51419600  1
  O  O21  1  0.29999600  0.02677300  0.09514300  1
  O  O22  1  0.44359900  0.62939400  0.31574300  1
  O  O23  1  0.59741300  0.34544500  0.19167800  1
  O  O24  1  0.61276900  0.86268300  0.22598400  1
  O  O25  1  0.79545200  0.56897200  0.09540500  1
  O  O26  1  0.86980700  0.18539600  0.31684300  1
  O  O27  1  0.83518000  0.03555600  0.11208900  1
  O  O28  1  0.00803500  0.25953300  0.01834500  1
  O  O29  1  0.27718600  0.57603100  0.11179500  1
loop_
_geom_bond_atom_site_label_1
_geom_bond_atom_site_label_2
_geom_bond_distance
_geom_bond_site_symmetry_2
Ba0 O23 2.647621 1_555
Ba0 O4 2.674359 1_554
Ba0 O8 2.675190 1_544
Ba0 O28 2.793683 1_655
Ba0 O28 2.804369 1_555
Ba0 O21 2.844182 1_555
Ba0 O25 2.851769 1_555
Ba0 O0 2.866307 1_554
Ba0 O2 2.868739 1_544
Ba0 O29 3.070860 1_555
Ba0 O27 3.076778 1_555
Ba0 O5 3.202395 1_554
Ba1 O6 2.647621 1_555
Ba1 O25 2.674359 1_556
Ba1 O21 2.675190 1_566
Ba1 O1 2.793683 1_455
Ba1 O1 2.804369 1_555
Ba1 O8 2.844182 1_555
Ba1 O4 2.851769 1_555
Ba1 O29 2.866307 1_556
Ba1 O27 2.868739 1_566
Ba1 O0 3.070860 1_555
Ba1 O2 3.076778 1_555
Ba1 O24 3.202395 1_556
La0 O10 2.418015 1_555
La0 O14 2.421659 1_655
La0 O1 2.569863 1_555
La0 O2 2.754671 1_655
La0 O0 2.762564 1_555
La0 O6 2.774216 1_655
La0 O6 2.813780 1_555
La0 O7 2.849533 1_555
La0 O3 2.861092 1_655
La0 O4 2.978908 1_655
La0 O8 2.990232 1_555
La0 O11 3.182761 1_555
La1 O16 2.381249 1_555
La1 O20 2.407705 1_545
La1 O5 2.435155 1_555
La1 O3 2.732683 1_545
La1 O7 2.758700 1_555
La1 O9 2.803737 1_555
La1 O13 2.815484 1_445
La1 O12 2.816106 1_455
La1 O12 2.821246 1_555
La2 O26 2.407754 1_555
La2 O22 2.430465 1_555
La2 O11 2.435395 1_555
La2 O23 2.876870 1_555
La3 O12 2.372918 1_555
La3 O2 2.543534 1_645
La3 O0 2.550969 1_555
La3 O4 2.723602 1_655
La3 O8 2.727281 1_545
La3 O10 2.765553 1_545
La3 O14 2.785344 1_655
La3 O5 2.810328 1_655
La3 O5 2.810787 1_555
La4 O17 2.372918 1_555
La4 O27 2.543534 1_465
La4 O29 2.550969 1_555
La4 O25 2.723602 1_455
La4 O21 2.727281 1_565
La4 O19 2.765553 1_565
La4 O15 2.785344 1_455
La4 O24 2.810328 1_455
La4 O24 2.810787 1_555
La5 O3 2.407754 1_555
La5 O7 2.430465 1_555
La5 O18 2.435395 1_555
La5 O6 2.876870 1_555
La6 O13 2.381249 1_555
La6 O9 2.407705 1_565
La6 O24 2.435155 1_555
La6 O26 2.732683 1_565
La6 O22 2.758700 1_555
La6 O20 2.803737 1_555
La6 O16 2.815484 1_665
La6 O17 2.816106 1_655
La6 O17 2.821246 1_555
La7 O19 2.418015 1_555
La7 O15 2.421659 1_455
La7 O28 2.569863 1_555
La7 O27 2.754671 1_455
La7 O29 2.762564 1_555
La7 O23 2.774216 1_455
La7 O23 2.813780 1_555
La7 O22 2.849533 1_555
La7 O26 2.861092 1_455
La7 O25 2.978908 1_455
La7 O21 2.990232 1_555
La7 O18 3.182761 1_555
Cr0 O6 1.983276 1_555
Cr0 O7 2.005529 1_555
Cr0 O5 2.010021 1_555
Cr0 O14 2.011381 1_555
Cr0 O4 2.033942 1_555
Cr0 O0 2.034340 1_555
Cr1 O10 1.995767 1_555
Cr1 O13 2.000891 1_555
Cr1 O20 2.008268 1_555
Cr1 O3 2.013704 1_655
Cr1 O12 2.017020 1_565
Cr1 O11 2.023830 1_555
Cr2 O6 1.981025 1_555
Cr2 O5 2.010489 1_565
Cr2 O10 2.010660 1_555
Cr2 O3 2.011744 1_555
Cr2 O8 2.033001 1_555
Cr2 O2 2.037644 1_555
Cr3 O23 1.983276 1_555
Cr3 O22 2.005529 1_555
Cr3 O24 2.010021 1_555
Cr3 O15 2.011381 1_555
Cr3 O25 2.033942 1_555
Cr3 O29 2.034340 1_555
Cr4 O14 1.993941 1_655
Cr4 O9 1.998836 1_555
Cr4 O7 2.009967 1_555
Cr4 O16 2.012338 1_655
Cr4 O12 2.016816 1_555
Cr4 O11 2.024708 1_555
Cr5 O15 1.993941 1_455
Cr5 O20 1.998836 1_555
Cr5 O22 2.009967 1_555
Cr5 O13 2.012338 1_455
Cr5 O17 2.016816 1_555
Cr5 O18 2.024708 1_555
Cr6 O19 1.995767 1_555
Cr6 O16 2.000891 1_555
Cr6 O9 2.008268 1_555
Cr6 O26 2.013704 1_455
Cr6 O17 2.017020 1_545
Cr6 O18 2.023830 1_555
Cr7 O23 1.981025 1_555
Cr7 O24 2.010489 1_545
Cr7 O19 2.010660 1_555
Cr7 O26 2.011744 1_555
Cr7 O21 2.033001 1_555
Cr7 O27 2.037644 1_555
O0 Ti1 1.999737 1_656
O1 Ti1 1.993323 1_656
O1 Ti0 1.999385 1_666
O2 Ti0 2.000507 1_566
O4 Ti1 1.949609 1_556
O8 Ti0 1.948438 1_666
O21 Ti0 1.948438 1_555
O25 Ti1 1.949609 1_655
O27 Ti0 2.000507 1_655
O28 Ti1 1.993323 1_555
O28 Ti0 1.999385 1_555
O29 Ti1 1.999737 1_555
