# generated using pymatgen
data_LiNbWO7
_symmetry_space_group_name_H-M   'P 1'
_cell_length_a   7.44484963
_cell_length_b   7.44484963
_cell_length_c   7.44484963
_cell_angle_alpha   119.93465161
_cell_angle_beta   119.11609493
_cell_angle_gamma   90.82550337
_symmetry_Int_Tables_number   1
_chemical_formula_structural   LiNbWO7
_chemical_formula_sum   'Li2 Nb2 W2 O14'
_cell_volume   293.81994719
_cell_formula_units_Z   2
loop_
 _symmetry_equiv_pos_site_id
 _symmetry_equiv_pos_as_xyz
  1  'x, y, z'
loop_
 _atom_site_type_symbol
 _atom_site_label
 _atom_site_symmetry_multiplicity
 _atom_site_fract_x
 _atom_site_fract_y
 _atom_site_fract_z
 _atom_site_occupancy
  Li  Li0  1  0.00000000  0.50000000  0.00000000  1
  Li  Li1  1  0.00000000  0.00000000  0.50000000  1
  Nb  Nb0  1  0.00000000  0.00000000  0.00000000  1
  Nb  Nb1  1  0.50000000  0.00000000  0.50000000  1
  W  W0  1  0.50000000  0.00000000  0.00000000  1
  W  W1  1  0.50000000  0.50000000  0.50000000  1
  O  O0  1  0.96261400  0.71261400  0.25000000  1
  O  O1  1  0.03738600  0.28738600  0.75000000  1
  O  O2  1  0.55901000  0.94022300  0.24492400  1
  O  O3  1  0.19529900  0.94022300  0.88121300  1
  O  O4  1  0.55603800  0.30603800  0.25000000  1
  O  O5  1  0.19529900  0.31408600  0.25507600  1
  O  O6  1  0.55901000  0.31408600  0.61878700  1
  O  O7  1  0.17706000  0.92706000  0.25000000  1
  O  O8  1  0.44099000  0.05977700  0.75507600  1
  O  O9  1  0.80470100  0.05977700  0.11878700  1
  O  O10  1  0.44396200  0.69396200  0.75000000  1
  O  O11  1  0.80470100  0.68591400  0.74492400  1
  O  O12  1  0.44099000  0.68591400  0.38121300  1
  O  O13  1  0.82294000  0.07294000  0.75000000  1
loop_
_geom_bond_atom_site_label_1
_geom_bond_atom_site_label_2
_geom_bond_distance
_geom_bond_site_symmetry_2
Li0 O1 1.903592 1_554
Li0 O0 1.903592 1_455
Li1 O1 1.903592 1_555
Li1 O0 1.903592 1_445
Nb0 O11 1.992821 1_444
Nb0 O3 1.992821 1_544
Nb0 O5 1.992821 1_555
Nb0 O9 1.992821 1_455
Nb0 O7 2.034292 1_545
Nb0 O13 2.034292 1_454
Nb1 O8 1.992821 1_555
Nb1 O2 1.992821 1_545
Nb1 O12 1.992821 1_545
Nb1 O6 1.992821 1_555
Nb1 O7 2.034292 1_545
Nb1 O13 2.034292 1_555
O2 W0 1.936973 1_565
O3 W0 1.936973 1_566
O4 W0 1.952958 1_555
O4 W1 1.952958 1_555
O5 W1 1.936973 1_555
O6 W1 1.936973 1_555
O8 W0 1.936973 1_556
O9 W0 1.936973 1_555
O10 W1 1.952958 1_555
O10 W0 1.952958 1_566
O11 W1 1.936973 1_555
O12 W1 1.936973 1_555
