# generated using pymatgen
data_CsNb3(PO5)3
_symmetry_space_group_name_H-M   'P 1'
_cell_length_a   6.59513600
_cell_length_b   13.20715500
_cell_length_c   15.65481300
_cell_angle_alpha   90.00000000
_cell_angle_beta   90.00000000
_cell_angle_gamma   90.00000000
_symmetry_Int_Tables_number   1
_chemical_formula_structural   CsNb3(PO5)3
_chemical_formula_sum   'Cs4 Nb12 P12 O60'
_cell_volume   1363.58091684
_cell_formula_units_Z   4
loop_
 _symmetry_equiv_pos_site_id
 _symmetry_equiv_pos_as_xyz
  1  'x, y, z'
loop_
 _atom_site_type_symbol
 _atom_site_label
 _atom_site_symmetry_multiplicity
 _atom_site_fract_x
 _atom_site_fract_y
 _atom_site_fract_z
 _atom_site_occupancy
  Cs  Cs0  1  0.00000000  0.01642800  0.33221800  1
  Cs  Cs1  1  0.50000000  0.48357200  0.83221800  1
  Cs  Cs2  1  0.50000000  0.51642800  0.16778200  1
  Cs  Cs3  1  0.00000000  0.98357200  0.66778200  1
  Nb  Nb0  1  0.50000000  0.85442000  0.52660700  1
  Nb  Nb1  1  0.00000000  0.64558000  0.02660700  1
  Nb  Nb2  1  0.00000000  0.35442000  0.97339300  1
  Nb  Nb3  1  0.00000000  0.57303500  0.63668600  1
  Nb  Nb4  1  0.50000000  0.79359300  0.76844700  1
  Nb  Nb5  1  0.50000000  0.20640700  0.23155300  1
  Nb  Nb6  1  0.00000000  0.42696500  0.36331400  1
  Nb  Nb7  1  0.00000000  0.29359300  0.73155300  1
  Nb  Nb8  1  0.50000000  0.92696500  0.13668600  1
  Nb  Nb9  1  0.50000000  0.07303500  0.86331400  1
  Nb  Nb10  1  0.50000000  0.14558000  0.47339300  1
  Nb  Nb11  1  0.00000000  0.70640700  0.26844700  1
  P  P0  1  0.50000000  0.27818500  0.00859100  1
  P  P1  1  0.00000000  0.22181500  0.50859100  1
  P  P2  1  0.00000000  0.73792600  0.80657700  1
  P  P3  1  0.50000000  0.58647800  0.56967000  1
  P  P4  1  0.50000000  0.41352200  0.43033000  1
  P  P5  1  0.00000000  0.08647800  0.93033000  1
  P  P6  1  0.50000000  0.76207400  0.30657700  1
  P  P7  1  0.00000000  0.26207400  0.19342300  1
  P  P8  1  0.00000000  0.77818500  0.49140900  1
  P  P9  1  0.00000000  0.91352200  0.06967000  1
  P  P10  1  0.50000000  0.23792600  0.69342300  1
  P  P11  1  0.50000000  0.72181500  0.99140900  1
  O  O0  1  0.00000000  0.35561900  0.25797600  1
  O  O1  1  0.68542200  0.30377500  0.71511300  1
  O  O2  1  0.50000000  0.31056300  0.47123400  1
  O  O3  1  0.00000000  0.32634900  0.46147000  1
  O  O4  1  0.19511000  0.93697100  0.11985800  1
  O  O5  1  0.31457800  0.30377500  0.71511300  1
  O  O6  1  0.50000000  0.82634900  0.03853000  1
  O  O7  1  0.50000000  0.33286200  0.26467500  1
  O  O8  1  0.50000000  0.68943700  0.52876600  1
  O  O9  1  0.00000000  0.44138300  0.66571500  1
  O  O10  1  0.00000000  0.35703700  0.85025800  1
  O  O11  1  0.80489000  0.06302900  0.88014200  1
  O  O12  1  0.00000000  0.16713800  0.76467500  1
  O  O13  1  0.00000000  0.81056300  0.02876600  1
  O  O14  1  0.81463800  0.84211200  0.51989700  1
  O  O15  1  0.50000000  0.18725100  0.60638800  1
  O  O16  1  0.50000000  0.85703700  0.64974200  1
  O  O17  1  0.19511000  0.06302900  0.88014200  1
  O  O18  1  0.81457800  0.19622500  0.21511300  1
  O  O19  1  0.50000000  0.66713800  0.73532500  1
  O  O20  1  0.50000000  0.73937000  0.89564100  1
  O  O21  1  0.50000000  0.26063000  0.10435900  1
  O  O22  1  0.18536200  0.15788800  0.48010300  1
  O  O23  1  0.30489000  0.43697100  0.38014200  1
  O  O24  1  0.81463800  0.15788800  0.48010300  1
  O  O25  1  0.50000000  0.50000000  0.50000000  1
  O  O26  1  0.18542200  0.19622500  0.21511300  1
  O  O27  1  0.80489000  0.93697100  0.11985800  1
  O  O28  1  0.68542200  0.69622500  0.28488700  1
  O  O29  1  0.68536200  0.65788800  0.01989700  1
  O  O30  1  0.50000000  0.14296300  0.35025800  1
  O  O31  1  0.50000000  0.14438100  0.75797600  1
  O  O32  1  0.50000000  0.05861700  0.16571500  1
  O  O33  1  0.50000000  0.94138300  0.83428500  1
  O  O34  1  0.00000000  0.68725100  0.89361200  1
  O  O35  1  0.31463800  0.65788800  0.01989700  1
  O  O36  1  0.69511000  0.43697100  0.38014200  1
  O  O37  1  0.00000000  0.23937000  0.60435900  1
  O  O38  1  0.31457800  0.69622500  0.28488700  1
  O  O39  1  0.31463800  0.34211200  0.98010300  1
  O  O40  1  0.30489000  0.56302900  0.61985800  1
  O  O41  1  0.18542200  0.80377500  0.78488700  1
  O  O42  1  0.00000000  0.76063000  0.39564100  1
  O  O43  1  0.50000000  0.00000000  0.50000000  1
  O  O44  1  0.00000000  0.50000000  0.00000000  1
  O  O45  1  0.81457800  0.80377500  0.78488700  1
  O  O46  1  0.18536200  0.84211200  0.51989700  1
  O  O47  1  0.50000000  0.17365100  0.96147000  1
  O  O48  1  0.00000000  0.83286200  0.23532500  1
  O  O49  1  0.00000000  0.55861700  0.33428500  1
  O  O50  1  0.00000000  0.64438100  0.74202400  1
  O  O51  1  0.50000000  0.85561900  0.24202400  1
  O  O52  1  0.00000000  0.18943700  0.97123400  1
  O  O53  1  0.00000000  0.64296300  0.14974200  1
  O  O54  1  0.00000000  0.00000000  0.00000000  1
  O  O55  1  0.00000000  0.67365100  0.53853000  1
  O  O56  1  0.00000000  0.31274900  0.10638800  1
  O  O57  1  0.68536200  0.34211200  0.98010300  1
  O  O58  1  0.69511000  0.56302900  0.61985800  1
  O  O59  1  0.50000000  0.81274900  0.39361200  1
loop_
_geom_bond_atom_site_label_1
_geom_bond_atom_site_label_2
_geom_bond_distance
_geom_bond_site_symmetry_2
Cs0 O48 2.859799 1_545
Cs0 O24 3.216319 1_455
Cs0 O22 3.216319 1_555
Cs0 O18 3.239604 1_455
Cs0 O26 3.239604 1_555
Cs1 O19 2.859799 1_555
Cs1 O57 3.216319 1_555
Cs1 O39 3.216319 1_555
Cs1 O5 3.239604 1_555
Cs1 O1 3.239604 1_555
Cs2 O7 2.859799 1_555
Cs2 O29 3.216319 1_555
Cs2 O35 3.216319 1_555
Cs2 O38 3.239604 1_555
Cs2 O28 3.239604 1_555
Cs3 O12 2.859799 1_565
Cs3 O46 3.216319 1_555
Cs3 O14 3.216319 1_455
Cs3 O45 3.239604 1_455
Cs3 O41 3.239604 1_555
Nb0 O16 1.927965 1_555
Nb0 O43 1.967298 1_565
Nb0 O46 2.084087 1_555
Nb0 O14 2.084087 1_555
Nb0 O59 2.153524 1_555
Nb0 O8 2.179218 1_555
Nb1 O53 1.927965 1_555
Nb1 O44 1.967298 1_555
Nb1 O29 2.084087 1_455
Nb1 O35 2.084087 1_555
Nb1 O34 2.153524 1_554
Nb1 O13 2.179218 1_555
Nb2 O10 1.927965 1_555
Nb2 O44 1.967298 1_556
Nb2 O39 2.084087 1_555
Nb2 O57 2.084087 1_455
Nb2 O56 2.153524 1_556
Nb2 O52 2.179218 1_555
Nb3 O9 1.797155 1_555
Nb3 O50 1.899274 1_555
Nb3 O55 2.031509 1_555
Nb3 O40 2.032276 1_555
Nb3 O58 2.032276 1_455
Nb4 O19 1.748751 1_555
Nb4 O16 2.038479 1_555
Nb4 O45 2.094907 1_555
Nb4 O41 2.094907 1_555
Nb4 O20 2.116061 1_555
Nb4 O33 2.207297 1_555
Nb5 O7 1.748751 1_555
Nb5 O30 2.038479 1_555
Nb5 O26 2.094907 1_555
Nb5 O18 2.094907 1_555
Nb5 O21 2.116061 1_555
Nb5 O32 2.207297 1_555
Nb6 O49 1.797155 1_555
Nb6 O0 1.899274 1_555
Nb6 O3 2.031509 1_555
Nb6 O36 2.032276 1_455
Nb6 O23 2.032276 1_555
Nb7 O12 1.748751 1_555
Nb7 O10 2.038479 1_555
Nb7 O5 2.094907 1_555
Nb7 O1 2.094907 1_455
Nb7 O37 2.116061 1_555
Nb7 O9 2.207297 1_555
Nb8 O32 1.797155 1_565
Nb8 O51 1.899274 1_555
Nb8 O6 2.031509 1_555
Nb8 O4 2.032276 1_555
Nb8 O27 2.032276 1_555
Nb9 O33 1.797155 1_545
Nb9 O31 1.899274 1_555
Nb9 O47 2.031509 1_555
Nb9 O11 2.032276 1_555
Nb9 O17 2.032276 1_555
Nb10 O30 1.927965 1_555
Nb10 O43 1.967298 1_555
Nb10 O24 2.084087 1_555
Nb10 O22 2.084087 1_555
Nb10 O15 2.153524 1_555
Nb10 O2 2.179218 1_555
Nb11 O48 1.748751 1_555
Nb11 O53 2.038479 1_555
Nb11 O28 2.094907 1_455
Nb11 O38 2.094907 1_555
Nb11 O42 2.116061 1_555
Nb11 O49 2.207297 1_555
O0 P7 1.596124 1_555
O1 P10 1.538532 1_555
O2 P4 1.503025 1_555
O3 P1 1.565313 1_555
O4 P9 1.539157 1_555
O5 P10 1.538532 1_555
O6 P11 1.565313 1_554
O8 P3 1.503025 1_555
O11 P5 1.539157 1_655
O13 P9 1.503025 1_555
O14 P8 1.551193 1_655
O15 P10 1.518018 1_555
O17 P5 1.539157 1_555
O18 P7 1.538532 1_655
O20 P11 1.517052 1_555
O21 P0 1.517052 1_555
O22 P1 1.551193 1_555
O23 P4 1.539157 1_555
O24 P1 1.551193 1_655
O25 P4 1.579247 1_555
O25 P3 1.579247 1_555
O26 P7 1.538532 1_555
O27 P9 1.539157 1_655
O28 P6 1.538532 1_555
O29 P11 1.551193 1_554
O31 P10 1.596124 1_555
O34 P2 1.518018 1_555
O35 P11 1.551193 1_554
O36 P4 1.539157 1_555
O37 P1 1.517052 1_555
O38 P6 1.538532 1_555
O39 P0 1.551193 1_556
O40 P3 1.539157 1_555
O41 P2 1.538532 1_555
O42 P8 1.517052 1_555
O45 P2 1.538532 1_655
O46 P8 1.551193 1_555
O47 P0 1.565313 1_556
O50 P2 1.596124 1_555
O51 P6 1.596124 1_555
O52 P5 1.503025 1_555
O54 P5 1.579247 1_554
O54 P9 1.579247 1_545
O55 P8 1.565313 1_555
O56 P7 1.518018 1_555
O57 P0 1.551193 1_556
O58 P3 1.539157 1_555
O59 P6 1.518018 1_555
