# generated using pymatgen
data_Hf2Pt3
_symmetry_space_group_name_H-M   'P 1'
_cell_length_a   7.73878704
_cell_length_b   7.73878704
_cell_length_c   7.73878704
_cell_angle_alpha   154.20292718
_cell_angle_beta   154.20292718
_cell_angle_gamma   36.80472091
_symmetry_Int_Tables_number   1
_chemical_formula_structural   Hf2Pt3
_chemical_formula_sum   'Hf2 Pt3'
_cell_volume   87.65338615
_cell_formula_units_Z   1
loop_
 _symmetry_equiv_pos_site_id
 _symmetry_equiv_pos_as_xyz
  1  'x, y, z'
loop_
 _atom_site_type_symbol
 _atom_site_label
 _atom_site_symmetry_multiplicity
 _atom_site_fract_x
 _atom_site_fract_y
 _atom_site_fract_z
 _atom_site_occupancy
  Hf  Hf0  1  0.88905206  0.88905206  -0.00000000  1
  Hf  Hf1  1  0.11094794  0.11094794  0.00000000  1
  Pt  Pt0  1  0.50000000  0.50000000  -0.00000000  1
  Pt  Pt1  1  0.30555562  0.30555562  0.00000000  1
  Pt  Pt2  1  0.69444438  0.69444438  -0.00000000  1
loop_
_geom_bond_atom_site_label_1
_geom_bond_atom_site_label_2
_geom_bond_distance
_geom_bond_site_symmetry_2
Hf0 Pt1 2.733517 1_655
Hf0 Pt1 2.733517 1_565
Hf0 Pt1 2.733517 1_666
Hf0 Pt1 2.733517 1_554
Hf0 Pt2 2.858027 1_555
Hf0 Pt0 2.936559 1_666
Hf0 Pt0 2.936559 1_655
Hf0 Pt0 2.936559 1_554
Hf0 Pt0 2.936559 1_565
Hf1 Pt2 2.733517 1_545
Hf1 Pt2 2.733517 1_444
Hf1 Pt2 2.733517 1_455
Hf1 Pt2 2.733517 1_556
Hf1 Pt1 2.858027 1_555
Hf1 Pt0 2.936559 1_444
Hf1 Pt0 2.936559 1_455
Hf1 Pt0 2.936559 1_545
Hf1 Pt0 2.936559 1_556
Pt0 Pt1 2.855629 1_555
Pt0 Pt2 2.855629 1_555
Pt1 Pt2 2.937890 1_545
Pt1 Pt2 2.937890 1_455
Pt1 Pt2 2.937890 1_444
Pt1 Pt2 2.937890 1_556
