# generated using pymatgen
data_Li5Mn(CoO4)2
_symmetry_space_group_name_H-M   'P 1'
_cell_length_a   4.95334100
_cell_length_b   5.11978942
_cell_length_c   5.90683803
_cell_angle_alpha   107.33776342
_cell_angle_beta   89.53348752
_cell_angle_gamma   100.28128193
_symmetry_Int_Tables_number   1
_chemical_formula_structural   Li5Mn(CoO4)2
_chemical_formula_sum   'Li5 Mn1 Co2 O8'
_cell_volume   140.53379506
_cell_formula_units_Z   1
loop_
 _symmetry_equiv_pos_site_id
 _symmetry_equiv_pos_as_xyz
  1  'x, y, z'
loop_
 _atom_site_type_symbol
 _atom_site_label
 _atom_site_symmetry_multiplicity
 _atom_site_fract_x
 _atom_site_fract_y
 _atom_site_fract_z
 _atom_site_occupancy
  Li  Li0  1  0.24454400  0.50290200  0.38125300  1
  Li  Li1  1  0.75545600  0.49709800  0.61874700  1
  Li  Li2  1  0.24715200  0.49796800  0.87052600  1
  Li  Li3  1  0.75284800  0.50203200  0.12947400  1
  Li  Li4  1  0.00000000  0.00000000  0.50000000  1
  Mn  Mn0  1  0.00000000  0.00000000  0.00000000  1
  Co  Co0  1  0.49908500  0.00049800  0.25990400  1
  Co  Co1  1  0.50091500  0.99950200  0.74009600  1
  O  O0  1  0.39534300  0.23532300  0.55727000  1
  O  O1  1  0.86096600  0.21819700  0.82412200  1
  O  O2  1  0.35576600  0.22678200  0.05226000  1
  O  O3  1  0.86417000  0.22506400  0.28805600  1
  O  O4  1  0.13903400  0.78180300  0.17587800  1
  O  O5  1  0.60465700  0.76467700  0.44273000  1
  O  O6  1  0.13583000  0.77493600  0.71194400  1
  O  O7  1  0.64423400  0.77321800  0.94774000  1
loop_
_geom_bond_atom_site_label_1
_geom_bond_atom_site_label_2
_geom_bond_distance
_geom_bond_site_symmetry_2
Li0 O5 1.994243 1_555
Li0 O3 2.114207 1_455
Li0 O6 2.162040 1_555
Li0 O2 2.168331 1_555
Li0 O0 2.177735 1_555
Li0 O4 2.256738 1_555
Li1 O0 1.994243 1_555
Li1 O6 2.114207 1_655
Li1 O3 2.162040 1_555
Li1 O7 2.168331 1_555
Li1 O5 2.177735 1_555
Li1 O1 2.256738 1_555
Li2 O6 2.066753 1_555
Li2 O4 2.086060 1_556
Li2 O2 2.129281 1_556
Li2 O1 2.140679 1_455
Li2 O0 2.148970 1_555
Li2 O7 2.169025 1_555
Li3 O3 2.066753 1_555
Li3 O1 2.086060 1_554
Li3 O7 2.129281 1_554
Li3 O4 2.140679 1_655
Li3 O5 2.148970 1_555
Li3 O2 2.169025 1_555
Li4 O5 2.080022 1_445
Li4 O0 2.080022 1_555
Li4 O4 2.089528 1_545
Li4 O1 2.089528 1_455
Li4 O3 2.120840 1_455
Li4 O6 2.120840 1_545
Mn0 O2 1.900976 1_555
Mn0 O7 1.900976 1_444
Mn0 O6 1.940384 1_544
Mn0 O3 1.940384 1_455
Mn0 O1 1.944095 1_454
Mn0 O4 1.944095 1_545
Co0 O4 1.910787 1_545
Co0 O0 1.934414 1_555
Co0 O3 1.941282 1_555
Co0 O5 1.977138 1_545
Co0 O7 2.066197 1_544
Co0 O2 2.122537 1_555
Co1 O1 1.910787 1_565
Co1 O5 1.934414 1_555
Co1 O6 1.941282 1_555
Co1 O0 1.977138 1_565
Co1 O2 2.066197 1_566
Co1 O7 2.122537 1_555
