# generated using pymatgen
data_RbMg6Ni
_symmetry_space_group_name_H-M   'P 1'
_cell_length_a   8.14321932
_cell_length_b   8.14321932
_cell_length_c   4.48915200
_cell_angle_alpha   90.00000000
_cell_angle_beta   90.00000000
_cell_angle_gamma   134.15984666
_symmetry_Int_Tables_number   1
_chemical_formula_structural   RbMg6Ni
_chemical_formula_sum   'Rb1 Mg6 Ni1'
_cell_volume   213.55873882
_cell_formula_units_Z   1
loop_
 _symmetry_equiv_pos_site_id
 _symmetry_equiv_pos_as_xyz
  1  'x, y, z'
loop_
 _atom_site_type_symbol
 _atom_site_label
 _atom_site_symmetry_multiplicity
 _atom_site_fract_x
 _atom_site_fract_y
 _atom_site_fract_z
 _atom_site_occupancy
  Rb  Rb0  1  0.78853800  0.21146200  0.00000000  1
  Mg  Mg0  1  0.21628600  0.29872500  0.50000000  1
  Mg  Mg1  1  0.70127500  0.78371400  0.50000000  1
  Mg  Mg2  1  0.17895500  0.82104500  0.50000000  1
  Mg  Mg3  1  0.34845300  0.17446400  0.00000000  1
  Mg  Mg4  1  0.82553600  0.65154700  0.00000000  1
  Mg  Mg5  1  0.34299300  0.65700700  0.00000000  1
  Ni  Ni0  1  0.59796400  0.40203600  0.50000000  1
loop_
_geom_bond_atom_site_label_1
_geom_bond_atom_site_label_2
_geom_bond_distance
_geom_bond_site_symmetry_2
Mg0 Ni0 2.593207 1_555
Mg0 Mg5 3.228087 1_556
Mg0 Mg5 3.228087 1_555
Mg0 Rb0 3.771912 1_456
Mg0 Rb0 3.771912 1_455
Mg1 Ni0 2.593207 1_555
Mg1 Mg5 3.228087 1_556
Mg1 Mg5 3.228087 1_555
Mg1 Rb0 3.771912 1_566
Mg1 Rb0 3.771912 1_565
Mg2 Mg3 3.113065 1_565
Mg2 Mg3 3.113065 1_566
Mg2 Mg4 3.113065 1_455
Mg2 Mg4 3.113065 1_456
Mg2 Mg5 3.330618 1_556
Mg2 Mg5 3.330618 1_555
Mg2 Ni0 3.396097 1_455
Mg2 Ni0 3.396097 1_565
Mg3 Ni0 2.711892 1_555
Mg3 Ni0 2.711892 1_554
Mg3 Rb0 3.380733 1_555
Mg4 Ni0 2.711892 1_555
Mg4 Ni0 2.711892 1_554
Mg4 Rb0 3.380733 1_555
Mg5 Rb0 3.274862 1_565
Mg5 Rb0 3.274862 1_455
Ni0 Rb0 3.634616 1_555
Ni0 Rb0 3.634616 1_556
