# generated using pymatgen
data_Mn6AgP7O24
_symmetry_space_group_name_H-M   'P 1'
_cell_length_a   5.43810381
_cell_length_b   6.65635985
_cell_length_c   27.12596300
_cell_angle_alpha   90.00000000
_cell_angle_beta   90.00000000
_cell_angle_gamma   107.45383866
_symmetry_Int_Tables_number   1
_chemical_formula_structural   Mn6AgP7O24
_chemical_formula_sum   'Mn12 Ag2 P14 O48'
_cell_volume   936.69697944
_cell_formula_units_Z   2
loop_
 _symmetry_equiv_pos_site_id
 _symmetry_equiv_pos_as_xyz
  1  'x, y, z'
loop_
 _atom_site_type_symbol
 _atom_site_label
 _atom_site_symmetry_multiplicity
 _atom_site_fract_x
 _atom_site_fract_y
 _atom_site_fract_z
 _atom_site_occupancy
  Mn  Mn0  1  0.81163800  0.31433100  0.45484600  1
  Mn  Mn1  1  0.18836100  0.68566900  0.95484600  1
  Mn  Mn2  1  0.81163800  0.31433100  0.04515400  1
  Mn  Mn3  1  0.18836100  0.68566900  0.54515400  1
  Mn  Mn4  1  0.79369300  0.91360600  0.59766500  1
  Mn  Mn5  1  0.20630700  0.08639400  0.09766500  1
  Mn  Mn6  1  0.12759300  0.27934100  0.81713200  1
  Mn  Mn7  1  0.20630700  0.08639400  0.40233500  1
  Mn  Mn8  1  0.87240700  0.72066000  0.18286800  1
  Mn  Mn9  1  0.12759300  0.27934100  0.68286800  1
  Mn  Mn10  1  0.79369300  0.91360600  0.90233500  1
  Mn  Mn11  1  0.87240700  0.72066000  0.31713200  1
  Ag  Ag0  1  0.77360200  0.58686500  0.75000000  1
  Ag  Ag1  1  0.22639700  0.41313400  0.25000000  1
  P  P0  1  0.31537500  0.61804600  0.10900400  1
  P  P1  1  0.68462600  0.38195300  0.60900400  1
  P  P2  1  0.68462600  0.38195300  0.89099600  1
  P  P3  1  0.31537500  0.61804600  0.39099600  1
  P  P4  1  0.25056400  0.80904100  0.83216700  1
  P  P5  1  0.74943700  0.19095900  0.33216800  1
  P  P6  1  0.74943700  0.19095900  0.16783200  1
  P  P7  1  0.25056400  0.80904100  0.66783200  1
  P  P8  1  0.45220100  0.91288300  0.25000000  1
  P  P9  1  0.54779800  0.08711600  0.75000000  1
  P  P10  1  0.70643600  0.79510700  0.02446000  1
  P  P11  1  0.29356500  0.20489300  0.97554000  1
  P  P12  1  0.70643600  0.79510700  0.47554000  1
  P  P13  1  0.29356500  0.20489300  0.52446000  1
  O  O0  1  0.85168700  0.63032200  0.02262300  1
  O  O1  1  0.14831400  0.36967800  0.52262300  1
  O  O2  1  0.14831400  0.36967800  0.97737700  1
  O  O3  1  0.85168700  0.63032200  0.47737700  1
  O  O4  1  0.59020000  0.82523700  0.97423400  1
  O  O5  1  0.40979900  0.17476300  0.47423400  1
  O  O6  1  0.40979900  0.17476300  0.02576600  1
  O  O7  1  0.59020000  0.82523700  0.52576600  1
  O  O8  1  0.86909000  0.00296700  0.04768900  1
  O  O9  1  0.13090900  0.99703300  0.54768900  1
  O  O10  1  0.13090900  0.99703300  0.95231100  1
  O  O11  1  0.86909000  0.00296700  0.45231100  1
  O  O12  1  0.44951700  0.71270600  0.05745700  1
  O  O13  1  0.55048300  0.28729600  0.55745700  1
  O  O14  1  0.14144700  0.39715700  0.09487900  1
  O  O15  1  0.44951700  0.71270600  0.44254300  1
  O  O16  1  0.83597600  0.20127800  0.75000000  1
  O  O17  1  0.16402300  0.79872100  0.25000000  1
  O  O18  1  0.37009500  0.22667300  0.75000000  1
  O  O19  1  0.62990400  0.77332700  0.25000000  1
  O  O20  1  0.49552700  0.93429600  0.70375800  1
  O  O21  1  0.50447200  0.06570300  0.20375800  1
  O  O22  1  0.50447200  0.06570300  0.29624300  1
  O  O23  1  0.49552700  0.93429600  0.79624200  1
  O  O24  1  0.51441100  0.61402600  0.14736900  1
  O  O25  1  0.48558800  0.38597400  0.64736900  1
  O  O26  1  0.48558800  0.38597400  0.85263100  1
  O  O27  1  0.51441100  0.61402600  0.35263100  1
  O  O28  1  0.07098700  0.94792400  0.66475200  1
  O  O29  1  0.92901200  0.05207600  0.16475200  1
  O  O30  1  0.92901200  0.05207600  0.33524800  1
  O  O31  1  0.07098700  0.94792400  0.83524800  1
  O  O32  1  0.39126800  0.79271000  0.61997200  1
  O  O33  1  0.60873200  0.20729000  0.11997200  1
  O  O34  1  0.60873200  0.20729000  0.38002800  1
  O  O35  1  0.39126800  0.79271000  0.88002800  1
  O  O36  1  0.12313100  0.59976100  0.69374800  1
  O  O37  1  0.87686800  0.40023800  0.19374800  1
  O  O38  1  0.87686800  0.40023800  0.30625200  1
  O  O39  1  0.12313100  0.59976100  0.80625200  1
  O  O40  1  0.15448300  0.76601000  0.12273000  1
  O  O41  1  0.84551600  0.23399000  0.62273000  1
  O  O42  1  0.84551600  0.23399000  0.87727000  1
  O  O43  1  0.15448300  0.76601000  0.37727000  1
  O  O44  1  0.14144700  0.39715700  0.40512100  1
  O  O45  1  0.85855200  0.60284300  0.90512100  1
  O  O46  1  0.85855200  0.60284300  0.59487900  1
  O  O47  1  0.55048300  0.28729600  0.94254300  1
loop_
_geom_bond_atom_site_label_1
_geom_bond_atom_site_label_2
_geom_bond_distance
_geom_bond_site_symmetry_2
Mn0 O3 2.137815 1_555
Mn0 O5 2.167285 1_555
Mn0 O44 2.178744 1_655
Mn0 O11 2.187748 1_555
Mn0 O34 2.317865 1_555
Mn0 O1 2.542314 1_655
Mn1 O2 2.137817 1_555
Mn1 O4 2.167285 1_555
Mn1 O45 2.178744 1_455
Mn1 O10 2.187748 1_555
Mn1 O35 2.317867 1_555
Mn1 O0 2.542307 1_456
Mn2 O0 2.137815 1_555
Mn2 O6 2.167285 1_555
Mn2 O14 2.178744 1_655
Mn2 O8 2.187748 1_555
Mn2 O33 2.317865 1_555
Mn2 O2 2.542314 1_654
Mn3 O1 2.137817 1_555
Mn3 O7 2.167285 1_555
Mn3 O46 2.178744 1_455
Mn3 O9 2.187748 1_555
Mn3 O32 2.317867 1_555
Mn3 O3 2.542307 1_455
Mn4 O41 2.174654 1_565
Mn4 O32 2.178651 1_555
Mn4 O46 2.201519 1_555
Mn4 O9 2.213177 1_655
Mn4 O7 2.232467 1_555
Mn4 O28 2.330480 1_655
Mn5 O40 2.174653 1_545
Mn5 O33 2.178651 1_555
Mn5 O14 2.201521 1_555
Mn5 O8 2.213181 1_455
Mn5 O6 2.232464 1_555
Mn5 O29 2.330484 1_455
Mn6 O26 2.095763 1_555
Mn6 O39 2.160487 1_555
Mn6 O31 2.189853 1_545
Mn6 O42 2.197166 1_455
Mn6 O18 2.335693 1_555
Mn6 O16 2.367847 1_455
Mn7 O43 2.174653 1_545
Mn7 O34 2.178651 1_555
Mn7 O44 2.201521 1_555
Mn7 O11 2.213181 1_455
Mn7 O5 2.232464 1_555
Mn7 O30 2.330484 1_455
Mn8 O24 2.095768 1_555
Mn8 O37 2.160498 1_555
Mn8 O29 2.189847 1_565
Mn8 O40 2.197163 1_655
Mn8 O19 2.335694 1_555
Mn8 O17 2.367844 1_655
Mn9 O25 2.095763 1_555
Mn9 O36 2.160487 1_555
Mn9 O28 2.189853 1_545
Mn9 O41 2.197166 1_455
Mn9 O18 2.335693 1_555
Mn9 O16 2.367847 1_455
Mn10 O42 2.174654 1_565
Mn10 O35 2.178651 1_555
Mn10 O45 2.201519 1_555
Mn10 O10 2.213177 1_655
Mn10 O4 2.232467 1_555
Mn10 O31 2.330480 1_655
Mn11 O27 2.095768 1_555
Mn11 O38 2.160498 1_555
Mn11 O30 2.189847 1_565
Mn11 O43 2.197163 1_655
Mn11 O19 2.335694 1_555
Mn11 O17 2.367844 1_655
Ag0 O39 2.418838 1_655
Ag0 O36 2.418838 1_655
Ag0 O16 2.687891 1_555
Ag0 O18 2.721652 1_555
Ag1 O38 2.418838 1_455
Ag1 O37 2.418838 1_455
Ag1 O17 2.687891 1_555
Ag1 O19 2.721656 1_555
O0 P10 1.532731 1_555
O1 P13 1.532731 1_555
O2 P11 1.532731 1_555
O3 P12 1.532731 1_555
O4 P10 1.540142 1_556
O5 P13 1.540137 1_555
O6 P11 1.540137 1_554
O7 P12 1.540142 1_555
O8 P10 1.536102 1_545
O9 P13 1.536106 1_565
O10 P11 1.536106 1_565
O11 P12 1.536102 1_545
O12 P10 1.610695 1_555
O12 P0 1.615105 1_555
O13 P13 1.610692 1_555
O13 P1 1.615102 1_555
O14 P0 1.539160 1_555
O15 P12 1.610695 1_555
O15 P3 1.615105 1_555
O16 P9 1.522830 1_555
O17 P8 1.522830 1_555
O18 P9 1.528171 1_555
O19 P8 1.528165 1_555
O20 P9 1.586036 1_565
O20 P7 1.659264 1_555
O21 P8 1.586036 1_545
O21 P6 1.659273 1_555
O22 P8 1.586057 1_545
O22 P5 1.659257 1_555
O23 P9 1.586036 1_565
O23 P4 1.659248 1_555
O24 P0 1.507536 1_555
O25 P1 1.507545 1_555
O26 P2 1.507545 1_555
O27 P3 1.507536 1_555
O28 P7 1.535194 1_555
O29 P6 1.535185 1_555
O30 P5 1.535185 1_555
O31 P4 1.535196 1_555
O32 P7 1.527297 1_555
O33 P6 1.527300 1_555
O34 P5 1.527300 1_555
O35 P4 1.527320 1_555
O36 P7 1.528369 1_555
O37 P6 1.528362 1_555
O38 P5 1.528362 1_555
O39 P4 1.528357 1_555
O40 P0 1.546328 1_555
O41 P1 1.546314 1_555
O42 P2 1.546314 1_555
O43 P3 1.546328 1_555
O44 P3 1.539160 1_555
O45 P2 1.539162 1_555
O46 P1 1.539162 1_555
O47 P11 1.610692 1_555
O47 P2 1.615102 1_555
