# generated using pymatgen
data_PrPt2
_symmetry_space_group_name_H-M   'P 1'
_cell_length_a   5.50894901
_cell_length_b   5.50894968
_cell_length_c   5.50894859
_cell_angle_alpha   59.99998804
_cell_angle_beta   59.99998399
_cell_angle_gamma   59.99999694
_symmetry_Int_Tables_number   1
_chemical_formula_structural   PrPt2
_chemical_formula_sum   'Pr2 Pt4'
_cell_volume   118.22006059
_cell_formula_units_Z   2
loop_
 _symmetry_equiv_pos_site_id
 _symmetry_equiv_pos_as_xyz
  1  'x, y, z'
loop_
 _atom_site_type_symbol
 _atom_site_label
 _atom_site_symmetry_multiplicity
 _atom_site_fract_x
 _atom_site_fract_y
 _atom_site_fract_z
 _atom_site_occupancy
  Pr  Pr0  1  0.87500000  0.87500000  0.87500000  1
  Pr  Pr1  1  0.12500000  0.12500000  0.12500000  1
  Pt  Pt0  1  0.50000000  0.50000000  0.50000000  1
  Pt  Pt1  1  0.50000000  0.50000000  -0.00000000  1
  Pt  Pt2  1  0.00000000  0.50000000  0.50000000  1
  Pt  Pt3  1  0.50000000  0.00000000  0.50000000  1
loop_
_geom_bond_atom_site_label_1
_geom_bond_atom_site_label_2
_geom_bond_distance
_geom_bond_site_symmetry_2
Pr0 Pt0 3.229907 1_556
Pr0 Pt3 3.229907 1_566
Pr0 Pt3 3.229907 1_665
Pr0 Pt2 3.229907 1_656
Pr0 Pt0 3.229907 1_655
Pr0 Pt2 3.229908 1_665
Pr0 Pt0 3.229908 1_565
Pr0 Pt1 3.229908 1_656
Pr0 Pt3 3.229908 1_565
Pr0 Pt1 3.229908 1_556
Pr0 Pt2 3.229908 1_655
Pr0 Pt1 3.229908 1_566
Pr1 Pt0 3.229907 1_554
Pr1 Pt3 3.229907 1_554
Pr1 Pt3 3.229907 1_455
Pr1 Pt2 3.229907 1_554
Pr1 Pt0 3.229907 1_455
Pr1 Pt2 3.229908 1_545
Pr1 Pt0 3.229908 1_545
Pr1 Pt1 3.229908 1_455
Pr1 Pt3 3.229908 1_555
Pr1 Pt1 3.229908 1_555
Pr1 Pt2 3.229908 1_555
Pr1 Pt1 3.229908 1_545
Pt0 Pt1 2.754474 1_555
Pt0 Pt1 2.754474 1_556
Pt0 Pt2 2.754475 1_555
Pt0 Pt2 2.754475 1_655
Pt0 Pt3 2.754475 1_555
Pt0 Pt3 2.754475 1_565
Pt1 Pt2 2.754474 1_555
Pt1 Pt2 2.754474 1_654
Pt1 Pt3 2.754474 1_555
Pt1 Pt3 2.754474 1_564
Pt2 Pt3 2.754475 1_555
Pt2 Pt3 2.754475 1_465
