# generated using pymatgen
data_MgTi
_symmetry_space_group_name_H-M   'P 1'
_cell_length_a   4.77778300
_cell_length_b   6.01551200
_cell_length_c   8.32334109
_cell_angle_alpha   79.58979162
_cell_angle_beta   90.00000000
_cell_angle_gamma   90.00000000
_symmetry_Int_Tables_number   1
_chemical_formula_structural   MgTi
_chemical_formula_sum   'Mg6 Ti6'
_cell_volume   235.28184929
_cell_formula_units_Z   6
loop_
 _symmetry_equiv_pos_site_id
 _symmetry_equiv_pos_as_xyz
  1  'x, y, z'
loop_
 _atom_site_type_symbol
 _atom_site_label
 _atom_site_symmetry_multiplicity
 _atom_site_fract_x
 _atom_site_fract_y
 _atom_site_fract_z
 _atom_site_occupancy
  Mg  Mg0  1  0.25000000  0.46819100  0.61210100  1
  Mg  Mg1  1  0.25000000  0.97659000  0.60892300  1
  Mg  Mg2  1  0.75000000  0.53180900  0.38789900  1
  Mg  Mg3  1  0.75000000  0.02341000  0.39107700  1
  Mg  Mg4  1  0.25000000  0.31117100  0.26718200  1
  Mg  Mg5  1  0.75000000  0.68882900  0.73281800  1
  Ti  Ti0  1  0.25000000  0.81601000  0.24127100  1
  Ti  Ti1  1  0.75000000  0.86904500  0.04752600  1
  Ti  Ti2  1  0.75000000  0.34972000  0.04836300  1
  Ti  Ti3  1  0.25000000  0.65028000  0.95163700  1
  Ti  Ti4  1  0.25000000  0.13095500  0.95247400  1
  Ti  Ti5  1  0.75000000  0.18399000  0.75872900  1
loop_
_geom_bond_atom_site_label_1
_geom_bond_atom_site_label_2
_geom_bond_distance
_geom_bond_site_symmetry_2
Mg0 Mg1 2.962126 1_545
Mg0 Mg5 2.993309 1_555
Mg0 Mg5 2.993309 1_455
Mg0 Mg2 3.012895 1_455
Mg0 Mg2 3.012895 1_555
Mg0 Mg1 3.053611 1_555
Mg0 Ti5 3.060232 1_555
Mg0 Ti5 3.060232 1_455
Mg0 Ti4 3.172466 1_555
Mg0 Mg4 3.180269 1_555
Mg0 Ti3 3.210172 1_555
Mg0 Ti0 3.401568 1_555
Mg1 Mg3 2.981491 1_465
Mg1 Mg3 2.981491 1_565
Mg1 Mg5 3.020195 1_455
Mg1 Mg5 3.020195 1_555
Mg1 Ti5 3.062722 1_465
Mg1 Ti5 3.062722 1_565
Mg1 Ti3 3.156968 1_555
Mg1 Ti4 3.162049 1_565
Mg1 Mg4 3.173753 1_565
Mg1 Ti0 3.371279 1_555
Mg2 Mg3 2.962126 1_565
Mg2 Mg4 2.993309 1_555
Mg2 Mg4 2.993309 1_655
Mg2 Mg3 3.053611 1_555
Mg2 Ti0 3.060232 1_555
Mg2 Ti0 3.060232 1_655
Mg2 Ti1 3.172466 1_555
Mg2 Mg5 3.180269 1_555
Mg2 Ti2 3.210172 1_555
Mg2 Ti5 3.401568 1_555
Mg3 Mg4 3.020195 1_555
Mg3 Mg4 3.020195 1_655
Mg3 Ti0 3.062722 1_545
Mg3 Ti0 3.062722 1_645
Mg3 Ti2 3.156968 1_555
Mg3 Ti1 3.162049 1_545
Mg3 Mg5 3.173753 1_545
Mg3 Ti5 3.371279 1_555
Mg4 Ti2 2.987490 1_555
Mg4 Ti2 2.987490 1_455
Mg4 Ti0 3.005390 1_555
Mg4 Ti4 3.010458 1_554
Mg4 Ti3 3.020429 1_554
Mg4 Ti0 3.025062 1_545
Mg5 Ti3 2.987490 1_655
Mg5 Ti3 2.987490 1_555
Mg5 Ti5 3.005390 1_555
Mg5 Ti1 3.010458 1_556
Mg5 Ti2 3.020429 1_556
Mg5 Ti5 3.025062 1_565
Ti0 Ti3 2.770207 1_554
Ti0 Ti4 2.778777 1_564
Ti0 Ti1 2.867605 1_555
Ti0 Ti1 2.867605 1_455
Ti1 Ti5 2.778777 1_564
Ti1 Ti4 2.892150 1_564
Ti1 Ti4 2.892150 1_664
Ti1 Ti2 2.892773 1_565
Ti1 Ti3 2.907778 1_554
Ti1 Ti3 2.907778 1_654
Ti1 Ti2 3.122754 1_555
Ti2 Ti5 2.770207 1_554
Ti2 Ti4 2.907778 1_554
Ti2 Ti4 2.907778 1_654
Ti2 Ti3 3.016267 1_654
Ti2 Ti3 3.016267 1_554
Ti3 Ti4 2.892773 1_565
Ti3 Ti4 3.122754 1_555
Ti4 Ti5 2.867605 1_455
Ti4 Ti5 2.867605 1_555
