# generated using pymatgen
data_RbLuSe2
_symmetry_space_group_name_H-M   'P 1'
_cell_length_a   8.27591642
_cell_length_b   8.27591642
_cell_length_c   8.27591638
_cell_angle_alpha   28.94288424
_cell_angle_beta   28.94288424
_cell_angle_gamma   28.94288635
_symmetry_Int_Tables_number   1
_chemical_formula_structural   RbLuSe2
_chemical_formula_sum   'Rb1 Lu1 Se2'
_cell_volume   117.40440438
_cell_formula_units_Z   1
loop_
 _symmetry_equiv_pos_site_id
 _symmetry_equiv_pos_as_xyz
  1  'x, y, z'
loop_
 _atom_site_type_symbol
 _atom_site_label
 _atom_site_symmetry_multiplicity
 _atom_site_fract_x
 _atom_site_fract_y
 _atom_site_fract_z
 _atom_site_occupancy
  Rb  Rb0  1  -0.00000000  -0.00000000  0.00000000  1
  Lu  Lu0  1  0.50000000  0.50000000  0.50000000  1
  Se  Se0  1  0.23048956  0.23048956  0.23048956  1
  Se  Se1  1  0.76951044  0.76951044  0.76951044  1
loop_
_geom_bond_atom_site_label_1
_geom_bond_atom_site_label_2
_geom_bond_distance
_geom_bond_site_symmetry_2
Rb0 Se0 3.417567 1_554
Rb0 Se1 3.417567 1_445
Rb0 Se0 3.417567 1_455
Rb0 Se1 3.417567 1_544
Rb0 Se0 3.417567 1_545
Rb0 Se1 3.417567 1_454
Lu0 Se1 2.829258 1_554
Lu0 Se0 2.829258 1_556
Lu0 Se1 2.829259 1_545
Lu0 Se1 2.829259 1_455
Lu0 Se0 2.829259 1_565
Lu0 Se0 2.829259 1_655
