# generated using pymatgen
data_PrMgSe3
_symmetry_space_group_name_H-M   'P 1'
_cell_length_a   7.37673564
_cell_length_b   7.37673564
_cell_length_c   6.88559159
_cell_angle_alpha   76.46579677
_cell_angle_beta   76.46579677
_cell_angle_gamma   115.88671336
_symmetry_Int_Tables_number   1
_chemical_formula_structural   PrMgSe3
_chemical_formula_sum   'Pr2 Mg2 Se6'
_cell_volume   302.55383843
_cell_formula_units_Z   2
loop_
 _symmetry_equiv_pos_site_id
 _symmetry_equiv_pos_as_xyz
  1  'x, y, z'
loop_
 _atom_site_type_symbol
 _atom_site_label
 _atom_site_symmetry_multiplicity
 _atom_site_fract_x
 _atom_site_fract_y
 _atom_site_fract_z
 _atom_site_occupancy
  Pr  Pr0  1  0.80620000  0.80620000  0.31372900  1
  Pr  Pr1  1  0.19380000  0.19380000  0.68627100  1
  Mg  Mg0  1  0.33257400  0.66742600  0.00000000  1
  Mg  Mg1  1  0.66742600  0.33257400  0.00000000  1
  Se  Se0  1  0.24083500  0.89511600  0.21688800  1
  Se  Se1  1  0.75916500  0.10488400  0.78311200  1
  Se  Se2  1  0.10488400  0.75916500  0.78311200  1
  Se  Se3  1  0.89511600  0.24083500  0.21688800  1
  Se  Se4  1  0.52911500  0.52911500  0.74860500  1
  Se  Se5  1  0.47088500  0.47088500  0.25139500  1
loop_
_geom_bond_atom_site_label_1
_geom_bond_atom_site_label_2
_geom_bond_distance
_geom_bond_site_symmetry_2
Pr0 Se4 2.818616 1_555
Pr0 Se5 2.841176 1_555
Pr0 Se3 2.848305 1_565
Pr0 Se0 2.848305 1_655
Pr1 Se5 2.818616 1_555
Pr1 Se4 2.841176 1_555
Pr1 Se2 2.848305 1_545
Pr1 Se1 2.848305 1_455
Mg0 Se5 2.661389 1_555
Mg0 Se4 2.661389 1_554
Mg0 Se2 2.683805 1_554
Mg0 Se0 2.683805 1_555
Mg0 Se3 3.037123 1_455
Mg0 Se1 3.037123 1_564
Mg1 Se5 2.661389 1_555
Mg1 Se4 2.661389 1_554
Mg1 Se1 2.683805 1_554
Mg1 Se3 2.683805 1_555
Mg1 Se0 3.037123 1_545
Mg1 Se2 3.037123 1_654
