# generated using pymatgen
data_Ba4Ca(RhO3)4
_symmetry_space_group_name_H-M   'P 1'
_cell_length_a   6.02826447
_cell_length_b   6.04171724
_cell_length_c   10.62170570
_cell_angle_alpha   87.64748961
_cell_angle_beta   92.47418448
_cell_angle_gamma   122.01464191
_symmetry_Int_Tables_number   1
_chemical_formula_structural   Ba4Ca(RhO3)4
_chemical_formula_sum   'Ba4 Ca1 Rh4 O12'
_cell_volume   327.63718431
_cell_formula_units_Z   1
loop_
 _symmetry_equiv_pos_site_id
 _symmetry_equiv_pos_as_xyz
  1  'x, y, z'
loop_
 _atom_site_type_symbol
 _atom_site_label
 _atom_site_symmetry_multiplicity
 _atom_site_fract_x
 _atom_site_fract_y
 _atom_site_fract_z
 _atom_site_occupancy
  Ba  Ba0  1  0.66847500  0.32971000  0.72560300  1
  Ba  Ba1  1  0.25979900  0.74041900  0.30257300  1
  Ba  Ba2  1  0.97257300  0.02697300  0.49946200  1
  Ba  Ba3  1  0.03041800  0.96880400  0.91140100  1
  Ca  Ca0  1  0.51883900  0.47829100  0.14292800  1
  Rh  Rh0  1  0.35177900  0.64893000  0.87846300  1
  Rh  Rh1  1  0.63888900  0.36140200  0.40249800  1
  Rh  Rh2  1  0.78872400  0.21202500  0.09896600  1
  Rh  Rh3  1  0.32381900  0.67440200  0.61578300  1
  O  O0  1  0.17121500  0.37260200  0.74410600  1
  O  O1  1  0.79101100  0.20912400  0.27895300  1
  O  O2  1  0.30919700  0.20774500  0.30066300  1
  O  O3  1  0.62612900  0.82803700  0.74348000  1
  O  O4  1  0.18435300  0.81417000  0.74053800  1
  O  O5  1  0.78998600  0.69035200  0.30064300  1
  O  O6  1  0.49930200  0.00567100  0.50524300  1
  O  O7  1  0.53275000  0.47188100  0.94074400  1
  O  O8  1  0.49899600  0.95844400  0.00160000  1
  O  O9  1  0.49569500  0.49564100  0.53172800  1
  O  O10  1  0.99224800  0.50267800  0.50583800  1
  O  O11  1  0.04538500  0.50269900  0.00379000  1
loop_
_geom_bond_atom_site_label_1
_geom_bond_atom_site_label_2
_geom_bond_distance
_geom_bond_site_symmetry_2
Ba0 O9 2.661385 1_555
Ba0 O7 2.774333 1_555
Ba0 O10 2.894981 1_555
Ba0 O6 2.899040 1_555
Ba0 O0 2.900116 1_655
Ba0 O3 2.902509 1_545
Ba0 O4 2.933490 1_545
Ba0 O4 2.933931 1_655
Ba0 O0 3.157554 1_555
Ba0 O3 3.167309 1_555
Ba1 O6 2.616971 1_565
Ba1 O10 2.629757 1_455
Ba1 O2 2.676813 1_565
Ba1 O5 2.683318 1_455
Ba1 O1 2.955145 1_565
Ba1 O1 2.956303 1_455
Ba2 O5 2.754243 1_545
Ba2 O2 2.756858 1_655
Ba2 O6 2.790183 1_555
Ba2 O10 2.816526 1_555
Ba2 O9 2.932346 1_655
Ba2 O1 2.956185 1_555
Ba2 O9 2.982764 1_545
Ba2 O0 3.173708 1_655
Ba2 O3 3.174004 1_545
Ba2 O10 3.229962 1_545
Ba2 O6 3.243213 1_655
Ba2 O4 3.320779 1_645
Ba3 O4 2.496288 1_555
Ba3 O3 2.719534 1_455
Ba3 O0 2.721882 1_565
Ba3 O7 2.926639 1_455
Ba3 O7 2.956828 1_565
Ba3 O8 2.974843 1_556
Ba3 O11 2.989365 1_556
Ca0 O7 2.155522 1_554
Ca0 O5 2.199753 1_555
Ca0 O2 2.200841 1_555
O0 Rh0 2.035525 1_555
O0 Rh3 2.038272 1_555
O1 Rh2 1.910651 1_555
O1 Rh1 2.122960 1_555
O2 Rh1 1.980510 1_555
O3 Rh3 2.029497 1_555
O3 Rh0 2.035111 1_555
O4 Rh3 2.028947 1_555
O4 Rh0 2.232075 1_555
O5 Rh1 1.984732 1_555
O6 Rh3 2.042754 1_545
O6 Rh1 2.118363 1_555
O7 Rh0 1.972024 1_555
O8 Rh2 1.898485 1_565
O8 Rh0 2.082340 1_554
O9 Rh1 2.055004 1_555
O9 Rh3 2.093463 1_555
O10 Rh3 2.033361 1_655
O10 Rh1 2.101941 1_555
O11 Rh2 1.899566 1_455
O11 Rh0 2.085584 1_554
