# generated using pymatgen
data_KSi4O9
_symmetry_space_group_name_H-M   'P 1'
_cell_length_a   5.24789938
_cell_length_b   5.24789938
_cell_length_c   7.72658400
_cell_angle_alpha   90.00000000
_cell_angle_beta   90.00000000
_cell_angle_gamma   119.99999218
_symmetry_Int_Tables_number   1
_chemical_formula_structural   KSi4O9
_chemical_formula_sum   'K1 Si4 O9'
_cell_volume   184.28466410
_cell_formula_units_Z   1
loop_
 _symmetry_equiv_pos_site_id
 _symmetry_equiv_pos_as_xyz
  1  'x, y, z'
loop_
 _atom_site_type_symbol
 _atom_site_label
 _atom_site_symmetry_multiplicity
 _atom_site_fract_x
 _atom_site_fract_y
 _atom_site_fract_z
 _atom_site_occupancy
  K  K0  1  0.00000000  0.00000000  0.50000000  1
  Si  Si0  1  0.66666700  0.33333300  0.79337600  1
  Si  Si1  1  0.33333300  0.66666700  0.20662400  1
  Si  Si2  1  0.33333300  0.66666700  0.79337600  1
  Si  Si3  1  0.66666700  0.33333300  0.20662400  1
  O  O0  1  0.50000000  0.50000000  0.71121200  1
  O  O1  1  0.50000000  0.50000000  0.28878800  1
  O  O2  1  0.00000000  0.50000000  0.71121200  1
  O  O3  1  0.00000000  0.50000000  0.28878800  1
  O  O4  1  0.50000000  0.00000000  0.71121200  1
  O  O5  1  0.50000000  0.00000000  0.28878800  1
  O  O6  1  0.00000000  0.00000000  0.00000000  1
  O  O7  1  0.66666700  0.33333300  0.00000000  1
  O  O8  1  0.33333300  0.66666700  0.00000000  1
loop_
_geom_bond_atom_site_label_1
_geom_bond_atom_site_label_2
_geom_bond_distance
_geom_bond_site_symmetry_2
K0 O4 3.090043 1_455
K0 O2 3.090043 1_545
K0 O4 3.090043 1_555
K0 O2 3.090043 1_555
K0 O5 3.090043 1_555
K0 O3 3.090043 1_555
K0 O5 3.090043 1_455
K0 O3 3.090043 1_545
K0 O0 3.090043 1_445
K0 O0 3.090043 1_555
K0 O1 3.090043 1_445
K0 O1 3.090043 1_555
O0 Si0 1.642582 1_555
O0 Si2 1.642582 1_555
O1 Si3 1.642582 1_555
O1 Si1 1.642582 1_555
O2 Si0 1.642578 1_455
O2 Si2 1.642578 1_555
O3 Si1 1.642578 1_555
O3 Si3 1.642578 1_455
O4 Si2 1.642578 1_545
O4 Si0 1.642578 1_555
O5 Si3 1.642578 1_555
O5 Si1 1.642578 1_545
O7 Si3 1.596498 1_555
O7 Si0 1.596498 1_554
O8 Si1 1.596498 1_555
O8 Si2 1.596498 1_554
