# generated using pymatgen
data_CsGaO2
_symmetry_space_group_name_H-M   'P 1'
_cell_length_a   5.84362056
_cell_length_b   11.73080346
_cell_length_c   16.69410231
_cell_angle_alpha   90.00000000
_cell_angle_beta   90.00000000
_cell_angle_gamma   90.00000000
_symmetry_Int_Tables_number   1
_chemical_formula_structural   CsGaO2
_chemical_formula_sum   'Cs16 Ga16 O32'
_cell_volume   1144.38679475
_cell_formula_units_Z   16
loop_
 _symmetry_equiv_pos_site_id
 _symmetry_equiv_pos_as_xyz
  1  'x, y, z'
loop_
 _atom_site_type_symbol
 _atom_site_label
 _atom_site_symmetry_multiplicity
 _atom_site_fract_x
 _atom_site_fract_y
 _atom_site_fract_z
 _atom_site_occupancy
  Cs  Cs0  1  0.29118804  0.25704225  0.18707163  1
  Cs  Cs1  1  0.70881196  0.74295775  0.81292837  1
  Cs  Cs2  1  0.20881196  0.74295775  0.68707163  1
  Cs  Cs3  1  0.70881196  0.75704225  0.31292837  1
  Cs  Cs4  1  0.79118804  0.25704225  0.31292837  1
  Cs  Cs5  1  0.29118804  0.24295775  0.68707163  1
  Cs  Cs6  1  0.79118804  0.24295775  0.81292837  1
  Cs  Cs7  1  0.20881196  0.75704225  0.18707163  1
  Cs  Cs8  1  0.25138063  0.00792584  0.06283732  1
  Cs  Cs9  1  0.74861937  0.99207416  0.93716268  1
  Cs  Cs10  1  0.24861937  0.99207416  0.56283732  1
  Cs  Cs11  1  0.74861937  0.50792584  0.43716268  1
  Cs  Cs12  1  0.75138063  0.00792584  0.43716268  1
  Cs  Cs13  1  0.25138063  0.49207416  0.56283732  1
  Cs  Cs14  1  0.75138063  0.49207416  0.93716268  1
  Cs  Cs15  1  0.24861937  0.50792584  0.06283732  1
  Ga  Ga0  1  0.25391543  0.00442266  0.31210919  1
  Ga  Ga1  1  0.74608457  0.99557734  0.68789081  1
  Ga  Ga2  1  0.24608457  0.99557734  0.81210919  1
  Ga  Ga3  1  0.74608457  0.50442266  0.18789081  1
  Ga  Ga4  1  0.75391543  0.00442266  0.18789081  1
  Ga  Ga5  1  0.25391543  0.49557734  0.81210919  1
  Ga  Ga6  1  0.75391543  0.49557734  0.68789081  1
  Ga  Ga7  1  0.24608457  0.50442266  0.31210919  1
  Ga  Ga8  1  0.27738509  0.25672942  0.43724794  1
  Ga  Ga9  1  0.72261491  0.74327058  0.56275206  1
  Ga  Ga10  1  0.22261491  0.74327058  0.93724794  1
  Ga  Ga11  1  0.72261491  0.75672942  0.06275206  1
  Ga  Ga12  1  0.77738509  0.25672942  0.06275206  1
  Ga  Ga13  1  0.27738509  0.24327058  0.93724794  1
  Ga  Ga14  1  0.77738509  0.24327058  0.56275206  1
  Ga  Ga15  1  0.22261491  0.75672942  0.43724794  1
  O  O0  1  0.03809405  0.48757124  0.22917279  1
  O  O1  1  0.96190595  0.51242876  0.77082721  1
  O  O2  1  0.46190595  0.51242876  0.72917279  1
  O  O3  1  0.96190595  0.98757124  0.27082721  1
  O  O4  1  0.53809405  0.48757124  0.27082721  1
  O  O5  1  0.03809405  0.01242876  0.72917279  1
  O  O6  1  0.53809405  0.01242876  0.77082721  1
  O  O7  1  0.46190595  0.98757124  0.22917279  1
  O  O8  1  0.06001466  0.27665538  0.01442087  1
  O  O9  1  0.93998534  0.72334462  0.98557913  1
  O  O10  1  0.43998534  0.72334462  0.51442087  1
  O  O11  1  0.93998534  0.77665538  0.48557913  1
  O  O12  1  0.56001466  0.27665538  0.48557913  1
  O  O13  1  0.06001466  0.22334462  0.51442087  1
  O  O14  1  0.56001466  0.22334462  0.98557913  1
  O  O15  1  0.43998534  0.77665538  0.01442087  1
  O  O16  1  0.29515630  0.14644599  0.35837533  1
  O  O17  1  0.70484370  0.85355401  0.64162467  1
  O  O18  1  0.20484370  0.85355401  0.85837533  1
  O  O19  1  0.70484370  0.64644599  0.14162467  1
  O  O20  1  0.79515630  0.14644599  0.14162467  1
  O  O21  1  0.29515630  0.35355401  0.85837533  1
  O  O22  1  0.79515630  0.35355401  0.64162467  1
  O  O23  1  0.20484370  0.64644599  0.35837533  1
  O  O24  1  0.19754811  0.39408010  0.38955178  1
  O  O25  1  0.80245189  0.60591990  0.61044822  1
  O  O26  1  0.30245189  0.60591990  0.88955178  1
  O  O27  1  0.80245189  0.89408010  0.11044822  1
  O  O28  1  0.69754811  0.39408010  0.11044822  1
  O  O29  1  0.19754811  0.10591990  0.88955178  1
  O  O30  1  0.69754811  0.10591990  0.61044822  1
  O  O31  1  0.30245189  0.89408010  0.38955178  1
loop_
_geom_bond_atom_site_label_1
_geom_bond_atom_site_label_2
_geom_bond_distance
_geom_bond_site_symmetry_2
Cs0 O28 3.139953 1_555
Cs0 O16 3.140378 1_555
Cs0 O0 3.161419 1_555
Cs0 O8 3.191426 1_555
Cs0 O20 3.265092 1_455
Cs0 O20 3.306334 1_555
Cs0 O4 3.368970 1_555
Cs0 O7 3.388486 1_545
Cs1 O26 3.139953 1_555
Cs1 O17 3.140378 1_555
Cs1 O1 3.161419 1_555
Cs1 O9 3.191426 1_555
Cs1 O18 3.265092 1_655
Cs1 O18 3.306334 1_555
Cs1 O2 3.368970 1_555
Cs1 O6 3.388486 1_565
Cs2 O25 3.139953 1_455
Cs2 O18 3.140378 1_555
Cs2 O2 3.161419 1_555
Cs2 O10 3.191426 1_555
Cs2 O17 3.265092 1_555
Cs2 O17 3.306334 1_455
Cs2 O1 3.368970 1_455
Cs2 O5 3.388486 1_565
Cs3 O31 3.139953 1_555
Cs3 O19 3.140378 1_555
Cs3 O3 3.161419 1_555
Cs3 O11 3.191426 1_555
Cs3 O23 3.265092 1_655
Cs3 O23 3.306334 1_555
Cs3 O7 3.368970 1_555
Cs3 O4 3.388486 1_555
Cs4 O24 3.139953 1_655
Cs4 O20 3.140378 1_555
Cs4 O4 3.161419 1_555
Cs4 O12 3.191426 1_555
Cs4 O16 3.265092 1_555
Cs4 O16 3.306334 1_655
Cs4 O0 3.368970 1_655
Cs4 O3 3.388486 1_545
Cs5 O30 3.139953 1_555
Cs5 O21 3.140378 1_555
Cs5 O5 3.161419 1_555
Cs5 O13 3.191426 1_555
Cs5 O22 3.265092 1_455
Cs5 O22 3.306334 1_555
Cs5 O6 3.368970 1_555
Cs5 O2 3.388486 1_555
Cs6 O29 3.139953 1_655
Cs6 O22 3.140378 1_555
Cs6 O6 3.161419 1_555
Cs6 O14 3.191426 1_555
Cs6 O21 3.265092 1_555
Cs6 O21 3.306334 1_655
Cs6 O5 3.368970 1_655
Cs6 O1 3.388486 1_555
Cs7 O27 3.139953 1_455
Cs7 O23 3.140378 1_555
Cs7 O7 3.161419 1_555
Cs7 O15 3.191426 1_555
Cs7 O19 3.265092 1_555
Cs7 O19 3.306334 1_455
Cs7 O3 3.368970 1_455
Cs7 O0 3.388486 1_555
Cs8 O15 3.037812 1_545
Cs8 O7 3.046509 1_545
Cs8 O27 3.049159 1_445
Cs8 O29 3.128735 1_554
Cs9 O14 3.037812 1_565
Cs9 O6 3.046509 1_565
Cs9 O29 3.049159 1_665
Cs9 O27 3.128735 1_556
Cs10 O13 3.037812 1_565
Cs10 O5 3.046509 1_565
Cs10 O30 3.049159 1_565
Cs10 O31 3.128735 1_555
Cs11 O12 3.037812 1_555
Cs11 O4 3.046509 1_555
Cs11 O24 3.049159 1_655
Cs11 O25 3.128735 1_555
Cs12 O11 3.037812 1_545
Cs12 O3 3.046509 1_545
Cs12 O31 3.049159 1_545
Cs12 O30 3.128735 1_555
Cs13 O10 3.037812 1_555
Cs13 O2 3.046509 1_555
Cs13 O25 3.049159 1_455
Cs13 O24 3.128735 1_555
Cs14 O9 3.037812 1_555
Cs14 O1 3.046509 1_555
Cs14 O26 3.049159 1_555
Cs14 O28 3.128735 1_556
Cs15 O8 3.037812 1_555
Cs15 O0 3.046509 1_555
Cs15 O28 3.049159 1_555
Cs15 O26 3.128735 1_554
Ga0 O3 1.850892 1_445
Ga0 O31 1.851312 1_545
Ga0 O16 1.852121 1_555
Ga0 O7 1.852915 1_545
Ga1 O5 1.850892 1_665
Ga1 O30 1.851312 1_565
Ga1 O17 1.852121 1_555
Ga1 O6 1.852915 1_565
Ga2 O6 1.850892 1_565
Ga2 O29 1.851312 1_565
Ga2 O18 1.852121 1_555
Ga2 O5 1.852915 1_565
Ga3 O0 1.850892 1_655
Ga3 O28 1.851312 1_555
Ga3 O19 1.852121 1_555
Ga3 O4 1.852915 1_555
Ga4 O7 1.850892 1_545
Ga4 O27 1.851312 1_545
Ga4 O20 1.852121 1_555
Ga4 O3 1.852915 1_545
Ga5 O1 1.850892 1_455
Ga5 O26 1.851312 1_555
Ga5 O21 1.852121 1_555
Ga5 O2 1.852915 1_555
Ga6 O2 1.850892 1_555
Ga6 O25 1.851312 1_555
Ga6 O22 1.852121 1_555
Ga6 O1 1.852915 1_555
Ga7 O4 1.850892 1_555
Ga7 O24 1.851312 1_555
Ga7 O23 1.852121 1_555
Ga7 O0 1.852915 1_555
Ga8 O16 1.848837 1_555
Ga8 O13 1.851124 1_555
Ga8 O12 1.852931 1_555
Ga8 O24 1.856808 1_555
Ga9 O17 1.848837 1_555
Ga9 O11 1.851124 1_555
Ga9 O10 1.852931 1_555
Ga9 O25 1.856808 1_555
Ga10 O18 1.848837 1_555
Ga10 O15 1.851124 1_556
Ga10 O9 1.852931 1_455
Ga10 O26 1.856808 1_555
Ga11 O19 1.848837 1_555
Ga11 O9 1.851124 1_554
Ga11 O15 1.852931 1_555
Ga11 O27 1.856808 1_555
Ga12 O20 1.848837 1_555
Ga12 O14 1.851124 1_554
Ga12 O8 1.852931 1_655
Ga12 O28 1.856808 1_555
Ga13 O21 1.848837 1_555
Ga13 O8 1.851124 1_556
Ga13 O14 1.852931 1_555
Ga13 O29 1.856808 1_555
Ga14 O22 1.848837 1_555
Ga14 O12 1.851124 1_555
Ga14 O13 1.852931 1_655
Ga14 O30 1.856808 1_555
Ga15 O23 1.848837 1_555
Ga15 O10 1.851124 1_555
Ga15 O11 1.852931 1_455
Ga15 O31 1.856808 1_555
