# generated using pymatgen
data_Sn4Rh
_symmetry_space_group_name_H-M   'P 1'
_cell_length_a   6.84336276
_cell_length_b   6.84336276
_cell_length_c   8.65228173
_cell_angle_alpha   90.00000000
_cell_angle_beta   90.00000000
_cell_angle_gamma   119.99998397
_symmetry_Int_Tables_number   1
_chemical_formula_structural   Sn4Rh
_chemical_formula_sum   'Sn12 Rh3'
_cell_volume   350.91382502
_cell_formula_units_Z   3
loop_
 _symmetry_equiv_pos_site_id
 _symmetry_equiv_pos_as_xyz
  1  'x, y, z'
loop_
 _atom_site_type_symbol
 _atom_site_label
 _atom_site_symmetry_multiplicity
 _atom_site_fract_x
 _atom_site_fract_y
 _atom_site_fract_z
 _atom_site_occupancy
  Sn  Sn0  1  0.76301345  0.26015322  0.56737188  1
  Sn  Sn1  1  0.49713977  0.23698655  0.23403888  1
  Sn  Sn2  1  0.50286023  0.73984678  0.43262812  1
  Sn  Sn3  1  0.73984678  0.50286023  0.90070488  1
  Sn  Sn4  1  0.26015322  0.76301345  0.76596112  1
  Sn  Sn5  1  0.23698655  0.49713977  0.09929512  1
  Sn  Sn6  1  0.37300643  0.37300643  0.66666700  1
  Sn  Sn7  1  -0.00000000  0.62699357  0.33333300  1
  Sn  Sn8  1  0.62699357  -0.00000000  -0.00000000  1
  Sn  Sn9  1  0.91748808  0.91748808  0.66666700  1
  Sn  Sn10  1  0.00000000  0.08251192  0.33333300  1
  Sn  Sn11  1  0.08251192  0.00000000  -0.00000000  1
  Rh  Rh0  1  0.68832621  0.68832621  0.16666700  1
  Rh  Rh1  1  -0.00000000  0.31167379  0.83333300  1
  Rh  Rh2  1  0.31167379  -0.00000000  0.50000000  1
loop_
_geom_bond_atom_site_label_1
_geom_bond_atom_site_label_2
_geom_bond_distance
_geom_bond_site_symmetry_2
Rh0 Sn2 2.734608 1_555
Rh0 Sn3 2.734615 1_554
Rh0 Sn5 2.747808 1_555
Rh0 Sn1 2.747808 1_555
Rh0 Sn7 2.774909 1_655
Rh0 Sn8 2.774913 1_565
Rh0 Sn10 2.855159 1_665
Rh0 Sn11 2.855163 1_665
Rh1 Sn0 2.734608 1_455
Rh1 Sn5 2.734616 1_556
Rh1 Sn3 2.747807 1_455
Rh1 Sn4 2.747808 1_555
Rh1 Sn6 2.774909 1_555
Rh1 Sn8 2.774914 1_456
Rh1 Sn9 2.855159 1_445
Rh1 Sn11 2.855163 1_556
Rh2 Sn4 2.734608 1_545
Rh2 Sn1 2.734608 1_555
Rh2 Sn2 2.747807 1_545
Rh2 Sn0 2.747808 1_555
Rh2 Sn6 2.774914 1_555
Rh2 Sn7 2.774914 1_545
Rh2 Sn10 2.855163 1_555
Rh2 Sn9 2.855163 1_445
