# generated using pymatgen
data_LuMg2V3S8
_symmetry_space_group_name_H-M   'P 1'
_cell_length_a   7.41375029
_cell_length_b   7.40750884
_cell_length_c   7.40624650
_cell_angle_alpha   59.50231418
_cell_angle_beta   59.52040746
_cell_angle_gamma   59.48221479
_symmetry_Int_Tables_number   1
_chemical_formula_structural   LuMg2V3S8
_chemical_formula_sum   'Lu1 Mg2 V3 S8'
_cell_volume   284.34322373
_cell_formula_units_Z   1
loop_
 _symmetry_equiv_pos_site_id
 _symmetry_equiv_pos_as_xyz
  1  'x, y, z'
loop_
 _atom_site_type_symbol
 _atom_site_label
 _atom_site_symmetry_multiplicity
 _atom_site_fract_x
 _atom_site_fract_y
 _atom_site_fract_z
 _atom_site_occupancy
  Lu  Lu0  1  0.50000606  0.50000359  0.49998487  1
  Mg  Mg0  1  0.87469902  0.87420616  0.87424266  1
  Mg  Mg1  1  0.12531235  0.12579076  0.12577258  1
  V  V0  1  0.50001390  0.50000679  0.99997731  1
  V  V1  1  0.99999495  0.49998109  0.50002332  1
  V  V2  1  0.49998118  0.00000259  0.50001678  1
  S  S0  1  0.73856702  0.73752000  0.73773495  1
  S  S1  1  0.24830302  0.24775618  0.72179579  1
  S  S2  1  0.24804178  0.72184704  0.24766449  1
  S  S3  1  0.72219629  0.24820850  0.24829844  1
  S  S4  1  0.75194772  0.27814194  0.75232201  1
  S  S5  1  0.27778778  0.75178162  0.75169627  1
  S  S6  1  0.26144231  0.26248906  0.26225871  1
  S  S7  1  0.75171061  0.75225967  0.27821285  1
loop_
_geom_bond_atom_site_label_1
_geom_bond_atom_site_label_2
_geom_bond_distance
_geom_bond_site_symmetry_2
Lu0 S3 2.638296 1_555
Lu0 S5 2.638321 1_555
Lu0 S1 2.643485 1_555
Lu0 S7 2.643569 1_555
Lu0 S4 2.643583 1_555
Lu0 S2 2.643629 1_555
Mg0 S5 2.430681 1_655
Mg0 S4 2.433575 1_565
Mg0 S7 2.434066 1_556
Mg0 S0 2.485526 1_555
Mg1 S3 2.430866 1_455
Mg1 S2 2.433649 1_545
Mg1 S1 2.434098 1_554
Mg1 S6 2.485456 1_555
S0 V1 2.484200 1_555
S0 V2 2.490110 1_565
S0 V0 2.490511 1_555
S1 V2 2.453643 1_555
S1 V1 2.457008 1_455
S2 V0 2.453739 1_554
S2 V1 2.457830 1_455
S3 V0 2.458806 1_554
S3 V2 2.459977 1_555
S4 V0 2.453682 1_555
S4 V1 2.457682 1_555
S5 V0 2.458806 1_555
S5 V2 2.459937 1_565
S6 V1 2.484239 1_455
S6 V2 2.490076 1_555
S6 V0 2.490643 1_554
S7 V2 2.453725 1_565
S7 V1 2.457087 1_555
