# generated using pymatgen
data_ThAsS
_symmetry_space_group_name_H-M   'P 1'
_cell_length_a   4.02688767
_cell_length_b   4.02688767
_cell_length_c   8.34641818
_cell_angle_alpha   90.00000000
_cell_angle_beta   90.00000000
_cell_angle_gamma   90.00000000
_symmetry_Int_Tables_number   1
_chemical_formula_structural   ThAsS
_chemical_formula_sum   'Th2 As2 S2'
_cell_volume   135.34405080
_cell_formula_units_Z   2
loop_
 _symmetry_equiv_pos_site_id
 _symmetry_equiv_pos_as_xyz
  1  'x, y, z'
loop_
 _atom_site_type_symbol
 _atom_site_label
 _atom_site_symmetry_multiplicity
 _atom_site_fract_x
 _atom_site_fract_y
 _atom_site_fract_z
 _atom_site_occupancy
  Th  Th0  1  0.75000000  0.75000000  0.72096824  1
  Th  Th1  1  0.25000000  0.25000000  0.27903176  1
  As  As0  1  0.75000000  0.25000000  0.00000000  1
  As  As1  1  0.25000000  0.75000000  0.00000000  1
  S  S0  1  0.75000000  0.75000000  0.36752614  1
  S  S1  1  0.25000000  0.25000000  0.63247386  1
loop_
_geom_bond_atom_site_label_1
_geom_bond_atom_site_label_2
_geom_bond_distance
_geom_bond_site_symmetry_2
As0 As1 2.847440 1_645
As0 As1 2.847440 1_555
As0 As1 2.847440 1_545
As0 As1 2.847440 1_655
As0 Th0 3.078604 1_544
As0 Th0 3.078604 1_554
As0 Th1 3.078604 1_655
As0 Th1 3.078604 1_555
As1 Th0 3.078604 1_454
As1 Th0 3.078604 1_554
As1 Th1 3.078604 1_565
As1 Th1 3.078604 1_555
S0 Th1 2.941676 1_555
S0 Th1 2.941676 1_655
S0 Th1 2.941676 1_665
S0 Th1 2.941676 1_565
S0 Th0 2.949976 1_555
S1 Th0 2.941676 1_455
S1 Th0 2.941676 1_555
S1 Th0 2.941676 1_445
S1 Th0 2.941676 1_545
S1 Th1 2.949976 1_555
