# generated using pymatgen
data_Ti7B8(IrRh2)2
_symmetry_space_group_name_H-M   'P 1'
_cell_length_a   3.19931200
_cell_length_b   9.26492600
_cell_length_c   9.26943789
_cell_angle_alpha   60.06778156
_cell_angle_beta   90.00000000
_cell_angle_gamma   90.00000000
_symmetry_Int_Tables_number   1
_chemical_formula_structural   Ti7B8(IrRh2)2
_chemical_formula_sum   'Ti7 B8 Ir2 Rh4'
_cell_volume   238.11064079
_cell_formula_units_Z   1
loop_
 _symmetry_equiv_pos_site_id
 _symmetry_equiv_pos_as_xyz
  1  'x, y, z'
loop_
 _atom_site_type_symbol
 _atom_site_label
 _atom_site_symmetry_multiplicity
 _atom_site_fract_x
 _atom_site_fract_y
 _atom_site_fract_z
 _atom_site_occupancy
  Ti  Ti0  1  0.00000000  0.99981400  0.00026400  1
  Ti  Ti1  1  0.00000000  0.27551700  0.08477400  1
  Ti  Ti2  1  0.00000000  0.63967000  0.27521600  1
  Ti  Ti3  1  0.00000000  0.08541000  0.63891900  1
  Ti  Ti4  1  0.00000000  0.72512500  0.91369200  1
  Ti  Ti5  1  0.00000000  0.36118400  0.72469200  1
  Ti  Ti6  1  0.00000000  0.91348800  0.36153700  1
  B  B0  1  0.50000000  0.21698100  0.93608400  1
  B  B1  1  0.50000000  0.84671300  0.21711300  1
  B  B2  1  0.50000000  0.93622600  0.84679000  1
  B  B3  1  0.50000000  0.78247600  0.06382000  1
  B  B4  1  0.50000000  0.15299500  0.78338200  1
  B  B5  1  0.50000000  0.06387800  0.15354000  1
  B  B6  1  0.00000000  0.33319200  0.33321200  1
  B  B7  1  0.00000000  0.66673500  0.66669300  1
  Ir  Ir0  1  0.50000000  0.15471600  0.35338200  1
  Ir  Ir1  1  0.50000000  0.49263300  0.15487600  1
  Rh  Rh0  1  0.50000000  0.35318600  0.49244800  1
  Rh  Rh1  1  0.50000000  0.84461900  0.64628800  1
  Rh  Rh2  1  0.50000000  0.50936100  0.84405700  1
  Rh  Rh3  1  0.50000000  0.64608200  0.50921700  1
loop_
_geom_bond_atom_site_label_1
_geom_bond_atom_site_label_2
_geom_bond_distance
_geom_bond_site_symmetry_2
B0 B4 1.786722 1_555
B0 B5 1.794925 1_556
B0 Ti1 2.344911 1_656
B0 Ti1 2.344911 1_556
B0 Ti5 2.360274 1_555
B0 Ti5 2.360274 1_655
B0 Rh2 2.399929 1_555
B0 Ti0 2.401370 1_546
B0 Ti0 2.401370 1_646
B1 B5 1.792275 1_565
B1 B3 1.793660 1_555
B1 Ti2 2.344695 1_655
B1 Ti2 2.344695 1_555
B1 Ti6 2.358044 1_555
B1 Ti6 2.358044 1_655
B1 Rh3 2.400800 1_555
B1 Ti0 2.401240 1_555
B1 Ti0 2.401240 1_655
B2 B4 1.789112 1_565
B2 B3 1.793446 1_556
B2 Ti3 2.350376 1_565
B2 Ti3 2.350376 1_665
B2 Ti4 2.357617 1_555
B2 Ti4 2.357617 1_655
B2 Rh1 2.397643 1_555
B2 Ti0 2.401296 1_656
B2 Ti0 2.401296 1_556
B3 Ti4 2.348554 1_654
B3 Ti4 2.348554 1_554
B3 Ti2 2.358364 1_555
B3 Ti2 2.358364 1_655
B3 Ir1 2.379437 1_555
B3 Ti0 2.403495 1_655
B3 Ti0 2.403495 1_555
B4 Ti5 2.351203 1_555
B4 Ti5 2.351203 1_655
B4 Ti3 2.362400 1_555
B4 Ti3 2.362400 1_655
B4 Rh0 2.391898 1_555
B4 Ti0 2.401534 1_546
B4 Ti0 2.401534 1_646
B5 Ti6 2.353014 1_545
B5 Ti6 2.353014 1_645
B5 Ti1 2.358540 1_555
B5 Ti1 2.358540 1_655
B5 Ir0 2.386544 1_555
B5 Ti0 2.402373 1_545
B5 Ti0 2.402373 1_645
B6 Ir0 2.240449 1_555
B6 Ir0 2.240449 1_455
B6 Ir1 2.244275 1_455
B6 Ir1 2.244275 1_555
B6 Rh0 2.246049 1_555
B6 Rh0 2.246049 1_455
B6 Ti3 2.609249 1_555
B6 Ti1 2.610905 1_555
B6 Ti2 2.613118 1_555
B7 Rh2 2.235073 1_455
B7 Rh2 2.235073 1_555
B7 Rh1 2.236015 1_555
B7 Rh1 2.236015 1_455
B7 Rh3 2.237190 1_555
B7 Rh3 2.237190 1_455
B7 Ti4 2.602060 1_555
B7 Ti6 2.602728 1_555
B7 Ti5 2.604658 1_555
Ir0 Ti1 2.688849 1_555
Ir0 Ti1 2.688849 1_655
Ir0 Ti6 2.718650 1_545
Ir0 Ti6 2.718650 1_645
Ir0 Rh1 2.800253 1_545
Ir0 Ti3 2.877593 1_555
Ir0 Ti3 2.877593 1_655
Ir1 Ti2 2.678717 1_655
Ir1 Ti2 2.678717 1_555
Ir1 Ti4 2.718648 1_554
Ir1 Ti4 2.718648 1_654
Ir1 Rh2 2.807000 1_554
Ir1 Ti1 2.886517 1_555
Ir1 Ti1 2.886517 1_655
Rh0 Ti3 2.682497 1_655
Rh0 Ti3 2.682497 1_555
Rh0 Ti5 2.712565 1_655
Rh0 Ti5 2.712565 1_555
Rh0 Ti2 2.885294 1_655
Rh0 Ti2 2.885294 1_555
Rh1 Ti4 2.681403 1_555
Rh1 Ti4 2.681403 1_655
Rh1 Ti3 2.718171 1_565
Rh1 Ti3 2.718171 1_665
Rh1 Ti6 2.872661 1_555
Rh1 Ti6 2.872661 1_655
Rh2 Ti5 2.680244 1_555
Rh2 Ti5 2.680244 1_655
Rh2 Ti1 2.721625 1_556
Rh2 Ti1 2.721625 1_656
Rh2 Ti4 2.873914 1_655
Rh2 Ti4 2.873914 1_555
Rh3 Ti6 2.680725 1_555
Rh3 Ti6 2.680725 1_655
Rh3 Ti2 2.719528 1_555
Rh3 Ti2 2.719528 1_655
Rh3 Ti5 2.873019 1_655
Rh3 Ti5 2.873019 1_555
