# generated using pymatgen
data_TiZnCu2
_symmetry_space_group_name_H-M   'P 1'
_cell_length_a   3.01992000
_cell_length_b   3.01992000
_cell_length_c   6.00909900
_cell_angle_alpha   90.00000000
_cell_angle_beta   90.00000000
_cell_angle_gamma   90.00000000
_symmetry_Int_Tables_number   1
_chemical_formula_structural   TiZnCu2
_chemical_formula_sum   'Ti1 Zn1 Cu2'
_cell_volume   54.80248296
_cell_formula_units_Z   1
loop_
 _symmetry_equiv_pos_site_id
 _symmetry_equiv_pos_as_xyz
  1  'x, y, z'
loop_
 _atom_site_type_symbol
 _atom_site_label
 _atom_site_symmetry_multiplicity
 _atom_site_fract_x
 _atom_site_fract_y
 _atom_site_fract_z
 _atom_site_occupancy
  Ti  Ti0  1  0.50000000  0.50000000  0.00000000  1
  Zn  Zn0  1  0.50000000  0.50000000  0.50000000  1
  Cu  Cu0  1  0.00000000  0.00000000  0.74602300  1
  Cu  Cu1  1  0.00000000  0.00000000  0.25397700  1
loop_
_geom_bond_atom_site_label_1
_geom_bond_atom_site_label_2
_geom_bond_distance
_geom_bond_site_symmetry_2
Cu0 Zn0 2.597221 1_445
Cu0 Zn0 2.597221 1_455
Cu0 Zn0 2.597221 1_555
Cu0 Zn0 2.597221 1_545
Cu0 Ti0 2.624721 1_546
Cu0 Ti0 2.624721 1_456
Cu0 Ti0 2.624721 1_556
Cu0 Ti0 2.624721 1_446
Cu1 Zn0 2.597221 1_455
Cu1 Zn0 2.597221 1_445
Cu1 Zn0 2.597221 1_555
Cu1 Zn0 2.597221 1_545
Cu1 Ti0 2.624721 1_455
Cu1 Ti0 2.624721 1_555
Cu1 Ti0 2.624721 1_545
Cu1 Ti0 2.624721 1_445
