# generated using pymatgen
data_PbWO4
_symmetry_space_group_name_H-M   'P 1'
_cell_length_a   5.57870700
_cell_length_b   5.61591112
_cell_length_c   7.21995131
_cell_angle_alpha   112.83771254
_cell_angle_beta   112.56008230
_cell_angle_gamma   89.98798157
_symmetry_Int_Tables_number   1
_chemical_formula_structural   PbWO4
_chemical_formula_sum   'Pb2 W2 O8'
_cell_volume   189.55234908
_cell_formula_units_Z   2
loop_
 _symmetry_equiv_pos_site_id
 _symmetry_equiv_pos_as_xyz
  1  'x, y, z'
loop_
 _atom_site_type_symbol
 _atom_site_label
 _atom_site_symmetry_multiplicity
 _atom_site_fract_x
 _atom_site_fract_y
 _atom_site_fract_z
 _atom_site_occupancy
  Pb  Pb0  1  0.87299700  0.61892800  0.75023200  1
  Pb  Pb1  1  0.12700300  0.38107200  0.24976800  1
  W  W0  1  0.62091000  0.87554100  0.25112100  1
  W  W1  1  0.37909000  0.12445900  0.74887900  1
  O  O0  1  0.43451000  0.80900700  0.57877000  1
  O  O1  1  0.84971100  0.72633300  0.41449300  1
  O  O2  1  0.69523600  0.34979700  0.91525900  1
  O  O3  1  0.76495800  0.93110000  0.08048700  1
  O  O4  1  0.23504200  0.06890000  0.91951300  1
  O  O5  1  0.30476400  0.65020300  0.08474100  1
  O  O6  1  0.15028900  0.27366700  0.58550700  1
  O  O7  1  0.56549000  0.19099300  0.42123000  1
loop_
_geom_bond_atom_site_label_1
_geom_bond_atom_site_label_2
_geom_bond_distance
_geom_bond_site_symmetry_2
O0 W1 1.828823 1_565
O0 Pb1 2.608572 1_555
O0 Pb0 2.712368 1_555
O1 W0 1.825986 1_555
O1 Pb0 2.673924 1_555
O1 Pb1 2.680927 1_655
O2 W1 1.830387 1_555
O2 Pb1 2.621605 1_656
O2 Pb0 2.644349 1_555
O3 W0 1.821814 1_555
O3 Pb0 2.641899 1_554
O3 Pb1 2.769381 1_665
O4 W1 1.821814 1_555
O4 Pb1 2.641899 1_556
O4 Pb0 2.769381 1_445
O5 W0 1.830387 1_555
O5 Pb0 2.621605 1_454
O5 Pb1 2.644349 1_555
O6 W1 1.825986 1_555
O6 Pb1 2.673924 1_555
O6 Pb0 2.680927 1_455
O7 W0 1.828823 1_545
O7 Pb0 2.608572 1_555
O7 Pb1 2.712368 1_555
