# generated using pymatgen
data_Eu(GaSe2)2
_symmetry_space_group_name_H-M   'P 1'
_cell_length_a   12.56551059
_cell_length_b   12.56551059
_cell_length_c   12.69051408
_cell_angle_alpha   105.16456817
_cell_angle_beta   105.16456817
_cell_angle_gamma   118.13889254
_symmetry_Int_Tables_number   1
_chemical_formula_structural   Eu(GaSe2)2
_chemical_formula_sum   'Eu8 Ga16 Se32'
_cell_volume   1520.95908102
_cell_formula_units_Z   8
loop_
 _symmetry_equiv_pos_site_id
 _symmetry_equiv_pos_as_xyz
  1  'x, y, z'
loop_
 _atom_site_type_symbol
 _atom_site_label
 _atom_site_symmetry_multiplicity
 _atom_site_fract_x
 _atom_site_fract_y
 _atom_site_fract_z
 _atom_site_occupancy
  Eu  Eu0  1  0.87307718  0.62307718  0.74615436  1
  Eu  Eu1  1  0.37692282  0.12692282  0.75384564  1
  Eu  Eu2  1  0.12692282  0.37692282  0.25384564  1
  Eu  Eu3  1  0.62307718  0.87307718  0.24615436  1
  Eu  Eu4  1  0.12500000  0.87500000  0.25000000  1
  Eu  Eu5  1  0.87500000  0.12500000  0.75000000  1
  Eu  Eu6  1  0.62500000  0.37500000  0.25000000  1
  Eu  Eu7  1  0.37500000  0.62500000  0.75000000  1
  Ga  Ga0  1  0.13391779  0.61122222  0.99887256  1
  Ga  Ga1  1  0.86495477  0.88765034  0.99887256  1
  Ga  Ga2  1  0.38877778  0.86608221  0.50112744  1
  Ga  Ga3  1  0.11234966  0.13504523  0.50112744  1
  Ga  Ga4  1  0.86608221  0.38877778  0.00112744  1
  Ga  Ga5  1  0.13504523  0.11234966  0.00112744  1
  Ga  Ga6  1  0.61122222  0.13391779  0.49887256  1
  Ga  Ga7  1  0.88765034  0.86495477  0.49887256  1
  Ga  Ga8  1  0.63822734  0.52952671  0.99956670  1
  Ga  Ga9  1  0.36133936  0.97003999  0.99956670  1
  Ga  Ga10  1  0.47047329  0.36177266  0.50043330  1
  Ga  Ga11  1  0.02996001  0.63866064  0.50043330  1
  Ga  Ga12  1  0.36177266  0.47047329  0.00043330  1
  Ga  Ga13  1  0.63866064  0.02996001  0.00043330  1
  Ga  Ga14  1  0.52952671  0.63822734  0.49956670  1
  Ga  Ga15  1  0.97003999  0.36133936  0.49956670  1
  Se  Se0  1  0.65493983  0.34215364  0.49736622  1
  Se  Se1  1  0.84242640  0.65521258  0.49736622  1
  Se  Se2  1  0.65784636  0.34506017  0.00263378  1
  Se  Se3  1  0.34478742  0.15757360  0.00263378  1
  Se  Se4  1  0.34506017  0.65784636  0.50263378  1
  Se  Se5  1  0.15757360  0.34478742  0.50263378  1
  Se  Se6  1  0.34215364  0.65493983  0.99736622  1
  Se  Se7  1  0.65521258  0.84242640  0.99736622  1
  Se  Se8  1  0.15183203  0.81457557  0.99812016  1
  Se  Se9  1  0.84628813  0.68354459  0.99812016  1
  Se  Se10  1  0.18542443  0.84816797  0.50187984  1
  Se  Se11  1  0.31645541  0.15371187  0.50187984  1
  Se  Se12  1  0.84816797  0.18542443  0.00187984  1
  Se  Se13  1  0.15371187  0.31645541  0.00187984  1
  Se  Se14  1  0.81457557  0.15183203  0.49812016  1
  Se  Se15  1  0.68354459  0.84628813  0.49812016  1
  Se  Se16  1  0.91640783  0.91662324  0.33010307  1
  Se  Se17  1  0.41369524  0.91347983  0.33010307  1
  Se  Se18  1  0.08337676  0.08359217  0.16989693  1
  Se  Se19  1  0.08652017  0.58630476  0.16989693  1
  Se  Se20  1  0.08359217  0.08337676  0.66989693  1
  Se  Se21  1  0.58630476  0.08652017  0.66989693  1
  Se  Se22  1  0.91662324  0.91640783  0.83010307  1
  Se  Se23  1  0.91347983  0.41369524  0.83010307  1
  Se  Se24  1  0.08415001  0.58402356  0.67058282  1
  Se  Se25  1  0.58643281  0.58655926  0.67058282  1
  Se  Se26  1  0.41597644  0.91584999  0.82941718  1
  Se  Se27  1  0.41344074  0.41356719  0.82941718  1
  Se  Se28  1  0.91584999  0.41597644  0.32941718  1
  Se  Se29  1  0.41356719  0.41344074  0.32941718  1
  Se  Se30  1  0.58402356  0.08415001  0.17058282  1
  Se  Se31  1  0.58655926  0.58643281  0.17058282  1
loop_
_geom_bond_atom_site_label_1
_geom_bond_atom_site_label_2
_geom_bond_distance
_geom_bond_site_symmetry_2
Eu0 Se8 3.232397 1_655
Eu0 Se9 3.232397 1_555
Eu0 Se0 3.233746 1_555
Eu0 Se1 3.233746 1_555
Eu0 Se25 3.241469 1_555
Eu0 Se24 3.241469 1_655
Eu0 Se22 3.279965 1_555
Eu0 Se23 3.279965 1_555
Eu1 Se11 3.232397 1_555
Eu1 Se10 3.232397 1_545
Eu1 Se2 3.233746 1_556
Eu1 Se3 3.233746 1_556
Eu1 Se26 3.241469 1_545
Eu1 Se27 3.241469 1_555
Eu1 Se20 3.279965 1_555
Eu1 Se21 3.279965 1_555
Eu2 Se12 3.232397 1_455
Eu2 Se13 3.232397 1_555
Eu2 Se4 3.233746 1_555
Eu2 Se5 3.233746 1_555
Eu2 Se29 3.241469 1_555
Eu2 Se28 3.241469 1_455
Eu2 Se19 3.279965 1_555
Eu2 Se18 3.279965 1_555
Eu3 Se15 3.232397 1_555
Eu3 Se14 3.232397 1_565
Eu3 Se6 3.233746 1_554
Eu3 Se7 3.233746 1_554
Eu3 Se31 3.241469 1_555
Eu3 Se30 3.241469 1_565
Eu3 Se17 3.279965 1_555
Eu3 Se16 3.279965 1_555
Eu4 Se9 3.231597 1_454
Eu4 Se11 3.231597 1_565
Eu4 Se8 3.231597 1_554
Eu4 Se10 3.231597 1_555
Eu4 Se16 3.253578 1_455
Eu4 Se18 3.253578 1_565
Eu4 Se19 3.253578 1_555
Eu4 Se17 3.253578 1_555
Eu5 Se13 3.231597 1_656
Eu5 Se15 3.231597 1_545
Eu5 Se12 3.231597 1_556
Eu5 Se14 3.231597 1_555
Eu5 Se22 3.253578 1_545
Eu5 Se23 3.253578 1_555
Eu5 Se20 3.253578 1_655
Eu5 Se21 3.253578 1_555
Eu6 Se2 3.220703 1_555
Eu6 Se0 3.220703 1_555
Eu6 Se3 3.220703 1_555
Eu6 Se1 3.220703 1_555
Eu6 Se28 3.265587 1_555
Eu6 Se29 3.265587 1_555
Eu6 Se30 3.265587 1_555
Eu6 Se31 3.265587 1_555
Eu7 Se6 3.220703 1_555
Eu7 Se4 3.220703 1_555
Eu7 Se5 3.220703 1_555
Eu7 Se7 3.220703 1_555
Eu7 Se25 3.265587 1_555
Eu7 Se26 3.265587 1_555
Eu7 Se27 3.265587 1_555
Eu7 Se24 3.265587 1_555
Ga0 Se6 2.413415 1_555
Ga0 Se19 2.453416 1_556
Ga0 Se23 2.459757 1_455
Ga0 Se8 2.459952 1_555
Ga1 Se7 2.413415 1_555
Ga1 Se18 2.453416 1_666
Ga1 Se22 2.459757 1_555
Ga1 Se9 2.459952 1_555
Ga2 Se4 2.413415 1_555
Ga2 Se17 2.453416 1_555
Ga2 Se21 2.459757 1_565
Ga2 Se10 2.459952 1_555
Ga3 Se5 2.413415 1_555
Ga3 Se16 2.453416 1_445
Ga3 Se20 2.459757 1_555
Ga3 Se11 2.459952 1_555
Ga4 Se2 2.413415 1_555
Ga4 Se23 2.453416 1_554
Ga4 Se19 2.459757 1_655
Ga4 Se12 2.459952 1_555
Ga5 Se3 2.413415 1_555
Ga5 Se22 2.453416 1_444
Ga5 Se18 2.459757 1_555
Ga5 Se13 2.459952 1_555
Ga6 Se0 2.413415 1_555
Ga6 Se21 2.453416 1_555
Ga6 Se17 2.459757 1_545
Ga6 Se14 2.459952 1_555
Ga7 Se1 2.413415 1_555
Ga7 Se20 2.453416 1_665
Ga7 Se16 2.459757 1_555
Ga7 Se15 2.459952 1_555
Ga8 Se9 2.419117 1_555
Ga8 Se31 2.450731 1_556
Ga8 Se2 2.452790 1_556
Ga8 Se27 2.458617 1_555
Ga9 Se8 2.419117 1_555
Ga9 Se30 2.450731 1_566
Ga9 Se3 2.452790 1_566
Ga9 Se26 2.458617 1_555
Ga10 Se11 2.419117 1_555
Ga10 Se29 2.450731 1_555
Ga10 Se0 2.452790 1_555
Ga10 Se25 2.458617 1_555
Ga11 Se10 2.419117 1_555
Ga11 Se28 2.450731 1_455
Ga11 Se1 2.452790 1_455
Ga11 Se24 2.458617 1_555
Ga12 Se13 2.419117 1_555
Ga12 Se27 2.450731 1_554
Ga12 Se6 2.452790 1_554
Ga12 Se31 2.458617 1_555
Ga13 Se12 2.419117 1_555
Ga13 Se26 2.450731 1_544
Ga13 Se7 2.452790 1_544
Ga13 Se30 2.458617 1_555
Ga14 Se15 2.419117 1_555
Ga14 Se25 2.450731 1_555
Ga14 Se4 2.452790 1_555
Ga14 Se29 2.458617 1_555
Ga15 Se14 2.419117 1_555
Ga15 Se24 2.450731 1_655
Ga15 Se5 2.452790 1_655
Ga15 Se28 2.458617 1_555
