# generated using pymatgen
data_Y5Bi3
_symmetry_space_group_name_H-M   'P 1'
_cell_length_a   12.09311500
_cell_length_b   9.55877500
_cell_length_c   8.33149200
_cell_angle_alpha   90.00000000
_cell_angle_beta   90.00000000
_cell_angle_gamma   90.00000000
_symmetry_Int_Tables_number   1
_chemical_formula_structural   Y5Bi3
_chemical_formula_sum   'Y20 Bi12'
_cell_volume   963.08186152
_cell_formula_units_Z   4
loop_
 _symmetry_equiv_pos_site_id
 _symmetry_equiv_pos_as_xyz
  1  'x, y, z'
loop_
 _atom_site_type_symbol
 _atom_site_label
 _atom_site_symmetry_multiplicity
 _atom_site_fract_x
 _atom_site_fract_y
 _atom_site_fract_z
 _atom_site_occupancy
  Y  Y0  1  0.56596900  0.05962400  0.30778700  1
  Y  Y1  1  0.06596900  0.44037600  0.19221300  1
  Y  Y2  1  0.43403100  0.55962400  0.69221300  1
  Y  Y3  1  0.93403100  0.94037600  0.80778700  1
  Y  Y4  1  0.43403100  0.94037600  0.69221300  1
  Y  Y5  1  0.93403100  0.55962400  0.80778700  1
  Y  Y6  1  0.56596900  0.44037600  0.30778700  1
  Y  Y7  1  0.06596900  0.05962400  0.19221300  1
  Y  Y8  1  0.72979600  0.25000000  0.66722800  1
  Y  Y9  1  0.22979600  0.25000000  0.83277200  1
  Y  Y10  1  0.27020400  0.75000000  0.33277200  1
  Y  Y11  1  0.77020400  0.75000000  0.16722800  1
  Y  Y12  1  0.50647600  0.25000000  0.97630500  1
  Y  Y13  1  0.00647600  0.25000000  0.52369500  1
  Y  Y14  1  0.49352400  0.75000000  0.02369500  1
  Y  Y15  1  0.99352400  0.75000000  0.47630500  1
  Y  Y16  1  0.78949700  0.25000000  0.15686300  1
  Y  Y17  1  0.28949700  0.25000000  0.34313700  1
  Y  Y18  1  0.21050300  0.75000000  0.84313700  1
  Y  Y19  1  0.71050300  0.75000000  0.65686300  1
  Bi  Bi0  1  0.97484600  0.25000000  0.90400400  1
  Bi  Bi1  1  0.47484600  0.25000000  0.59599600  1
  Bi  Bi2  1  0.02515400  0.75000000  0.09599600  1
  Bi  Bi3  1  0.52515400  0.75000000  0.40400400  1
  Bi  Bi4  1  0.82575900  0.00857000  0.43373800  1
  Bi  Bi5  1  0.32575900  0.49143000  0.06626200  1
  Bi  Bi6  1  0.17424100  0.50857000  0.56626200  1
  Bi  Bi7  1  0.67424100  0.99143000  0.93373800  1
  Bi  Bi8  1  0.17424100  0.99143000  0.56626200  1
  Bi  Bi9  1  0.67424100  0.50857000  0.93373800  1
  Bi  Bi10  1  0.82575900  0.49143000  0.43373800  1
  Bi  Bi11  1  0.32575900  0.00857000  0.06626200  1
loop_
_geom_bond_atom_site_label_1
_geom_bond_atom_site_label_2
_geom_bond_distance
_geom_bond_site_symmetry_2
Bi0 Y16 3.076075 1_556
Bi0 Y5 3.105740 1_555
Bi0 Y3 3.105740 1_545
Bi0 Y9 3.139738 1_655
Bi0 Y13 3.191546 1_655
Bi0 Y1 3.208062 1_656
Bi0 Y7 3.208062 1_656
Bi0 Y8 3.559969 1_555
Bi1 Y17 3.076075 1_555
Bi1 Y2 3.105740 1_555
Bi1 Y4 3.105740 1_545
Bi1 Y8 3.139738 1_555
Bi1 Y12 3.191546 1_555
Bi1 Y6 3.208062 1_555
Bi1 Y0 3.208062 1_555
Bi1 Y9 3.559969 1_555
Bi2 Y18 3.076075 1_554
Bi2 Y7 3.105740 1_565
Bi2 Y1 3.105740 1_555
Bi2 Y11 3.139738 1_455
Bi2 Y15 3.191546 1_455
Bi2 Y5 3.208062 1_454
Bi2 Y3 3.208062 1_454
Bi2 Y10 3.559969 1_555
Bi3 Y19 3.076075 1_555
Bi3 Y0 3.105740 1_565
Bi3 Y6 3.105740 1_555
Bi3 Y10 3.139738 1_555
Bi3 Y14 3.191546 1_555
Bi3 Y4 3.208062 1_555
Bi3 Y2 3.208062 1_555
Bi3 Y11 3.559969 1_555
Bi4 Y15 3.217247 1_545
Bi4 Y8 3.233703 1_555
Bi4 Y13 3.265525 1_655
Bi4 Y16 3.292320 1_555
Bi4 Y0 3.348045 1_555
Bi4 Y11 3.389767 1_545
Bi4 Y19 3.392242 1_545
Bi4 Y3 3.442551 1_545
Bi4 Y7 3.567314 1_655
Bi5 Y14 3.217247 1_555
Bi5 Y9 3.233703 1_554
Bi5 Y12 3.265525 1_554
Bi5 Y17 3.292320 1_555
Bi5 Y1 3.348045 1_555
Bi5 Y10 3.389767 1_555
Bi5 Y18 3.392242 1_554
Bi5 Y2 3.442551 1_554
Bi5 Y6 3.567314 1_555
Bi6 Y13 3.217247 1_555
Bi6 Y10 3.233703 1_555
Bi6 Y15 3.265525 1_455
Bi6 Y18 3.292320 1_555
Bi6 Y2 3.348045 1_555
Bi6 Y9 3.389767 1_555
Bi6 Y17 3.392242 1_555
Bi6 Y1 3.442551 1_555
Bi6 Y5 3.567314 1_455
Bi7 Y12 3.217247 1_565
Bi7 Y11 3.233703 1_556
Bi7 Y14 3.265525 1_556
Bi7 Y19 3.292320 1_555
Bi7 Y3 3.348045 1_555
Bi7 Y8 3.389767 1_565
Bi7 Y16 3.392242 1_566
Bi7 Y0 3.442551 1_566
Bi7 Y4 3.567314 1_555
Bi8 Y13 3.217247 1_565
Bi8 Y10 3.233703 1_555
Bi8 Y15 3.265525 1_455
Bi8 Y18 3.292320 1_555
Bi8 Y4 3.348045 1_555
Bi8 Y9 3.389767 1_565
Bi8 Y17 3.392242 1_565
Bi8 Y7 3.442551 1_565
Bi8 Y3 3.567314 1_455
Bi9 Y12 3.217247 1_555
Bi9 Y11 3.233703 1_556
Bi9 Y14 3.265525 1_556
Bi9 Y19 3.292320 1_555
Bi9 Y5 3.348045 1_555
Bi9 Y8 3.389767 1_555
Bi9 Y16 3.392242 1_556
Bi9 Y6 3.442551 1_556
Bi9 Y2 3.567314 1_555
Bi10 Y15 3.217247 1_555
Bi10 Y8 3.233703 1_555
Bi10 Y13 3.265525 1_655
Bi10 Y16 3.292320 1_555
Bi10 Y6 3.348045 1_555
Bi10 Y11 3.389767 1_555
Bi10 Y19 3.392242 1_555
Bi10 Y5 3.442551 1_555
Bi10 Y1 3.567314 1_655
Bi11 Y14 3.217247 1_545
Bi11 Y9 3.233703 1_554
Bi11 Y12 3.265525 1_554
Bi11 Y17 3.292320 1_555
Bi11 Y7 3.348045 1_555
Bi11 Y10 3.389767 1_545
Bi11 Y18 3.392242 1_544
Bi11 Y4 3.442551 1_544
Bi11 Y0 3.567314 1_555
