# generated using pymatgen
data_Ba2W(CO2)4
_symmetry_space_group_name_H-M   'P 1'
_cell_length_a   6.15299981
_cell_length_b   8.84209312
_cell_length_c   9.81749174
_cell_angle_alpha   64.64644347
_cell_angle_beta   85.00303488
_cell_angle_gamma   84.56252894
_symmetry_Int_Tables_number   1
_chemical_formula_structural   Ba2W(CO2)4
_chemical_formula_sum   'Ba4 W2 C8 O16'
_cell_volume   479.86408171
_cell_formula_units_Z   2
loop_
 _symmetry_equiv_pos_site_id
 _symmetry_equiv_pos_as_xyz
  1  'x, y, z'
loop_
 _atom_site_type_symbol
 _atom_site_label
 _atom_site_symmetry_multiplicity
 _atom_site_fract_x
 _atom_site_fract_y
 _atom_site_fract_z
 _atom_site_occupancy
  Ba  Ba0  1  0.21212400  0.14249100  0.56494300  1
  Ba  Ba1  1  0.78787600  0.85750900  0.43505700  1
  Ba  Ba2  1  0.71943800  0.47184400  0.20124200  1
  Ba  Ba3  1  0.28056200  0.52815600  0.79875800  1
  W  W0  1  0.75063100  0.04736700  0.00440700  1
  W  W1  1  0.24936900  0.95263300  0.99559300  1
  C  C0  1  0.38590900  0.21619800  0.18639300  1
  C  C1  1  0.61409100  0.78380200  0.81360700  1
  C  C2  1  0.32703700  0.68070500  0.37900900  1
  C  C3  1  0.67296300  0.31929500  0.62099100  1
  C  C4  1  0.13273400  0.22497200  0.18353200  1
  C  C5  1  0.86726600  0.77502800  0.81646800  1
  C  C6  1  0.17965700  0.58179000  0.32977400  1
  C  C7  1  0.82034300  0.41821000  0.67022600  1
  O  O0  1  0.02591500  0.14591600  0.30821100  1
  O  O1  1  0.97408500  0.85408400  0.69178900  1
  O  O2  1  0.47343600  0.13341500  0.31231900  1
  O  O3  1  0.52656400  0.86658500  0.68768100  1
  O  O4  1  0.26997800  0.45742700  0.30848200  1
  O  O5  1  0.73002200  0.54257300  0.69151800  1
  O  O6  1  0.49032900  0.30191200  0.06311300  1
  O  O7  1  0.50967100  0.69808800  0.93688700  1
  O  O8  1  0.24035800  0.74421500  0.46647100  1
  O  O9  1  0.75964200  0.25578500  0.53352900  1
  O  O10  1  0.47400100  0.31267600  0.66859900  1
  O  O11  1  0.52599900  0.68732400  0.33140100  1
  O  O12  1  0.04708800  0.31957700  0.06073900  1
  O  O13  1  0.95291200  0.68042300  0.93926100  1
  O  O14  1  0.02187600  0.37220100  0.68161400  1
  O  O15  1  0.97812400  0.62779900  0.31838600  1
loop_
_geom_bond_atom_site_label_1
_geom_bond_atom_site_label_2
_geom_bond_distance
_geom_bond_site_symmetry_2
Ba0 O1 2.805275 1_445
Ba0 O10 2.820107 1_555
Ba0 O0 2.845613 1_555
Ba0 O14 2.848848 1_555
Ba0 O3 2.853224 1_545
Ba0 O2 2.862519 1_555
Ba0 O9 2.864680 1_455
Ba0 O4 2.871894 1_555
Ba1 O0 2.805275 1_665
Ba1 O11 2.820107 1_555
Ba1 O1 2.845613 1_555
Ba1 O15 2.848848 1_555
Ba1 O2 2.853224 1_565
Ba1 O3 2.862519 1_555
Ba1 O8 2.864680 1_655
Ba1 O5 2.871894 1_555
Ba2 O15 2.801914 1_555
Ba2 O13 2.806484 1_554
Ba2 O7 2.837477 1_554
Ba2 O11 2.840770 1_555
Ba2 O4 2.866616 1_555
Ba2 O12 2.893335 1_655
Ba2 O6 2.926321 1_555
Ba2 O9 3.011099 1_555
Ba2 O0 3.112450 1_655
Ba2 O2 3.195486 1_555
Ba3 O14 2.801914 1_555
Ba3 O12 2.806484 1_556
Ba3 O6 2.837477 1_556
Ba3 O10 2.840770 1_555
Ba3 O5 2.866616 1_555
Ba3 O13 2.893335 1_455
Ba3 O7 2.926321 1_555
Ba3 O8 3.011099 1_555
Ba3 O1 3.112450 1_455
Ba3 O3 3.195486 1_555
C0 O2 1.272990 1_555
C0 O6 1.274083 1_555
C1 O3 1.272990 1_555
C1 O7 1.274083 1_555
C2 O11 1.269272 1_555
C2 O8 1.270237 1_555
C3 O10 1.269272 1_555
C3 O9 1.270237 1_555
C4 O12 1.262629 1_555
C4 O0 1.277904 1_555
C5 O13 1.262629 1_555
C5 O1 1.277904 1_555
C6 O15 1.266994 1_455
C6 O4 1.273786 1_555
C7 O14 1.266994 1_655
C7 O5 1.273786 1_555
O6 W0 2.868805 1_555
O7 W1 2.868805 1_555
