# generated using pymatgen
data_Li5Mg
_symmetry_space_group_name_H-M   'P 1'
_cell_length_a   6.12437220
_cell_length_b   6.12437220
_cell_length_c   30.64566082
_cell_angle_alpha   90.00000000
_cell_angle_beta   90.00000000
_cell_angle_gamma   120.00002374
_symmetry_Int_Tables_number   1
_chemical_formula_structural   Li5Mg
_chemical_formula_sum   'Li40 Mg8'
_cell_volume   995.45738074
_cell_formula_units_Z   8
loop_
 _symmetry_equiv_pos_site_id
 _symmetry_equiv_pos_as_xyz
  1  'x, y, z'
loop_
 _atom_site_type_symbol
 _atom_site_label
 _atom_site_symmetry_multiplicity
 _atom_site_fract_x
 _atom_site_fract_y
 _atom_site_fract_z
 _atom_site_occupancy
  Li  Li0_0  1  0.33333350  0.16666650  0.08488138  1
  Li  Li0_1  1  0.33333350  0.16666650  0.58488138  1
  Li  Li0_2  1  0.33333350  0.66666650  0.08488138  1
  Li  Li0_3  1  0.33333350  0.66666650  0.58488138  1
  Li  Li0_4  1  0.83333350  0.16666650  0.08488138  1
  Li  Li0_5  1  0.83333350  0.16666650  0.58488138  1
  Li  Li0_6  1  0.83333350  0.66666650  0.08488138  1
  Li  Li0_7  1  0.83333350  0.66666650  0.58488138  1
  Li  Li1_0  1  0.00000000  0.00000000  0.16668358  1
  Li  Li1_1  1  0.00000000  0.00000000  0.66668359  1
  Li  Li1_2  1  0.00000000  0.50000000  0.16668358  1
  Li  Li1_3  1  0.00000000  0.50000000  0.66668359  1
  Li  Li1_4  1  0.50000000  0.00000000  0.16668358  1
  Li  Li1_5  1  0.50000000  0.00000000  0.66668359  1
  Li  Li1_6  1  0.50000000  0.50000000  0.16668358  1
  Li  Li1_7  1  0.50000000  0.50000000  0.66668359  1
  Li  Li2_0  1  0.33333350  0.16666650  0.25000000  1
  Li  Li2_1  1  0.33333350  0.16666650  0.75000000  1
  Li  Li2_2  1  0.33333350  0.66666650  0.25000000  1
  Li  Li2_3  1  0.33333350  0.66666650  0.75000000  1
  Li  Li2_4  1  0.83333350  0.16666650  0.25000000  1
  Li  Li2_5  1  0.83333350  0.16666650  0.75000000  1
  Li  Li2_6  1  0.83333350  0.66666650  0.25000000  1
  Li  Li2_7  1  0.83333350  0.66666650  0.75000000  1
  Li  Li3_0  1  0.00000000  0.00000000  0.33331642  1
  Li  Li3_1  1  0.00000000  0.00000000  0.83331642  1
  Li  Li3_2  1  0.00000000  0.50000000  0.33331642  1
  Li  Li3_3  1  0.00000000  0.50000000  0.83331642  1
  Li  Li3_4  1  0.50000000  0.00000000  0.33331642  1
  Li  Li3_5  1  0.50000000  0.00000000  0.83331642  1
  Li  Li3_6  1  0.50000000  0.50000000  0.33331642  1
  Li  Li3_7  1  0.50000000  0.50000000  0.83331642  1
  Li  Li4_0  1  0.33333350  0.16666650  0.41511863  1
  Li  Li4_1  1  0.33333350  0.16666650  0.91511863  1
  Li  Li4_2  1  0.33333350  0.66666650  0.41511863  1
  Li  Li4_3  1  0.33333350  0.66666650  0.91511863  1
  Li  Li4_4  1  0.83333350  0.16666650  0.41511863  1
  Li  Li4_5  1  0.83333350  0.16666650  0.91511863  1
  Li  Li4_6  1  0.83333350  0.66666650  0.41511863  1
  Li  Li4_7  1  0.83333350  0.66666650  0.91511863  1
  Mg  Mg0_0  1  0.00000000  0.00000000  0.00000000  1
  Mg  Mg0_1  1  0.00000000  0.00000000  0.50000000  1
  Mg  Mg0_2  1  0.00000000  0.50000000  0.00000000  1
  Mg  Mg0_3  1  0.00000000  0.50000000  0.50000000  1
  Mg  Mg0_4  1  0.50000000  0.00000000  0.00000000  1
  Mg  Mg0_5  1  0.50000000  0.00000000  0.50000000  1
  Mg  Mg0_6  1  0.50000000  0.50000000  0.00000000  1
  Mg  Mg0_7  1  0.50000000  0.50000000  0.50000000  1
loop_
_geom_bond_atom_site_label_1
_geom_bond_atom_site_label_2
_geom_bond_distance
_geom_bond_site_symmetry_2
Li0_0 Li0_6 3.062185 1_445
Li0_0 Li0_6 3.062185 1_555
Li0_0 Li0_4 3.062186 1_555
Li0_0 Li0_2 3.062186 1_555
Li0_0 Li0_2 3.062186 1_545
Li0_0 Li0_4 3.062186 1_455
Li0_0 Li1_4 3.067591 1_555
Li0_0 Li1_6 3.067593 1_555
Li0_0 Li1_0 3.067593 1_555
Li0_0 Mg0_4 3.145177 1_555
Li0_0 Mg0_6 3.145178 1_555
Li0_0 Mg0_0 3.145178 1_555
Li0_1 Li0_7 3.062185 1_445
Li0_1 Li0_7 3.062185 1_555
Li0_1 Li0_5 3.062186 1_555
Li0_1 Li0_3 3.062186 1_555
Li0_1 Li0_5 3.062186 1_455
Li0_1 Li0_3 3.062186 1_545
Li0_1 Li1_5 3.067591 1_555
Li0_1 Li1_1 3.067593 1_555
Li0_1 Li1_7 3.067593 1_555
Li0_1 Mg0_5 3.145177 1_555
Li0_1 Mg0_7 3.145178 1_555
Li0_1 Mg0_1 3.145178 1_555
Li0_2 Li0_4 3.062185 1_565
Li0_2 Li0_4 3.062185 1_455
Li0_2 Li0_6 3.062186 1_455
Li0_2 Li0_6 3.062186 1_555
Li0_2 Li1_6 3.067591 1_555
Li0_2 Li1_2 3.067593 1_555
Li0_2 Li1_4 3.067593 1_565
Li0_2 Mg0_6 3.145177 1_555
Li0_2 Mg0_2 3.145178 1_555
Li0_2 Mg0_4 3.145178 1_565
Li0_3 Li0_5 3.062185 1_565
Li0_3 Li0_5 3.062185 1_455
Li0_3 Li0_7 3.062186 1_455
Li0_3 Li0_7 3.062186 1_555
Li0_3 Li1_7 3.067591 1_555
Li0_3 Li1_5 3.067593 1_565
Li0_3 Li1_3 3.067593 1_555
Li0_3 Mg0_7 3.145177 1_555
Li0_3 Mg0_3 3.145178 1_555
Li0_3 Mg0_5 3.145178 1_565
Li0_4 Li0_6 3.062186 1_555
Li0_4 Li0_6 3.062186 1_545
Li0_4 Li1_0 3.067591 1_655
Li0_4 Li1_4 3.067593 1_555
Li0_4 Li1_2 3.067593 1_655
Li0_4 Mg0_0 3.145177 1_655
Li0_4 Mg0_4 3.145178 1_555
Li0_4 Mg0_2 3.145178 1_655
Li0_5 Li0_7 3.062186 1_555
Li0_5 Li0_7 3.062186 1_545
Li0_5 Li1_1 3.067591 1_655
Li0_5 Li1_3 3.067593 1_655
Li0_5 Li1_5 3.067593 1_555
Li0_5 Mg0_1 3.145177 1_655
Li0_5 Mg0_5 3.145178 1_555
Li0_5 Mg0_3 3.145178 1_655
Li0_6 Li1_2 3.067591 1_655
Li0_6 Li1_0 3.067593 1_665
Li0_6 Li1_6 3.067593 1_555
Li0_6 Mg0_2 3.145177 1_655
Li0_6 Mg0_6 3.145178 1_555
Li0_6 Mg0_0 3.145178 1_665
Li0_7 Li1_3 3.067591 1_655
Li0_7 Li1_1 3.067593 1_665
Li0_7 Li1_7 3.067593 1_555
Li0_7 Mg0_3 3.145177 1_655
Li0_7 Mg0_1 3.145178 1_665
Li0_7 Mg0_7 3.145178 1_555
Li1_0 Li1_6 3.062185 1_555
Li1_0 Li1_6 3.062185 1_445
Li1_0 Li1_4 3.062186 1_455
Li1_0 Li1_4 3.062186 1_555
Li1_0 Li1_2 3.062186 1_545
Li1_0 Li1_2 3.062186 1_555
Li1_0 Li2_4 3.105628 1_455
Li1_0 Li2_0 3.105630 1_555
Li1_0 Li2_6 3.105630 1_445
Li1_1 Li1_7 3.062185 1_555
Li1_1 Li1_7 3.062185 1_445
Li1_1 Li1_3 3.062186 1_545
Li1_1 Li1_3 3.062186 1_555
Li1_1 Li1_5 3.062186 1_455
Li1_1 Li1_5 3.062186 1_555
Li1_1 Li2_5 3.105628 1_455
Li1_1 Li2_7 3.105630 1_445
Li1_1 Li2_1 3.105630 1_555
Li1_2 Li1_4 3.062185 1_455
Li1_2 Li1_4 3.062185 1_565
Li1_2 Li1_6 3.062186 1_555
Li1_2 Li1_6 3.062186 1_455
Li1_2 Li2_6 3.105628 1_455
Li1_2 Li2_2 3.105630 1_555
Li1_2 Li2_4 3.105630 1_455
Li1_3 Li1_5 3.062185 1_455
Li1_3 Li1_5 3.062185 1_565
Li1_3 Li1_7 3.062186 1_455
Li1_3 Li1_7 3.062186 1_555
Li1_3 Li2_7 3.105628 1_455
Li1_3 Li2_5 3.105630 1_455
Li1_3 Li2_3 3.105630 1_555
Li1_4 Li1_6 3.062186 1_545
Li1_4 Li1_6 3.062186 1_555
Li1_4 Li2_0 3.105628 1_555
Li1_4 Li2_4 3.105630 1_555
Li1_4 Li2_2 3.105630 1_545
Li1_5 Li1_7 3.062186 1_545
Li1_5 Li1_7 3.062186 1_555
Li1_5 Li2_1 3.105628 1_555
Li1_5 Li2_5 3.105630 1_555
Li1_5 Li2_3 3.105630 1_545
Li1_6 Li2_2 3.105628 1_555
Li1_6 Li2_0 3.105630 1_555
Li1_6 Li2_6 3.105630 1_555
Li1_7 Li2_3 3.105628 1_555
Li1_7 Li2_7 3.105630 1_555
Li1_7 Li2_1 3.105630 1_555
Li2_0 Li2_6 3.062185 1_445
Li2_0 Li2_6 3.062185 1_555
Li2_0 Li2_4 3.062186 1_555
Li2_0 Li2_2 3.062186 1_555
Li2_0 Li2_4 3.062186 1_455
Li2_0 Li2_2 3.062186 1_545
Li2_0 Li3_4 3.105628 1_555
Li2_0 Li3_6 3.105630 1_555
Li2_0 Li3_0 3.105630 1_555
Li2_1 Li2_7 3.062185 1_445
Li2_1 Li2_7 3.062185 1_555
Li2_1 Li2_3 3.062186 1_555
Li2_1 Li2_5 3.062186 1_555
Li2_1 Li2_5 3.062186 1_455
Li2_1 Li2_3 3.062186 1_545
Li2_1 Li3_5 3.105628 1_555
Li2_1 Li3_7 3.105630 1_555
Li2_1 Li3_1 3.105630 1_555
Li2_2 Li2_4 3.062185 1_565
Li2_2 Li2_4 3.062185 1_455
Li2_2 Li2_6 3.062186 1_455
Li2_2 Li2_6 3.062186 1_555
Li2_2 Li3_6 3.105628 1_555
Li2_2 Li3_2 3.105630 1_555
Li2_2 Li3_4 3.105630 1_565
Li2_3 Li2_5 3.062185 1_455
Li2_3 Li2_5 3.062185 1_565
Li2_3 Li2_7 3.062186 1_455
Li2_3 Li2_7 3.062186 1_555
Li2_3 Li3_7 3.105628 1_555
Li2_3 Li3_3 3.105630 1_555
Li2_3 Li3_5 3.105630 1_565
Li2_4 Li2_6 3.062186 1_555
Li2_4 Li2_6 3.062186 1_545
Li2_4 Li3_0 3.105628 1_655
Li2_4 Li3_2 3.105630 1_655
Li2_4 Li3_4 3.105630 1_555
Li2_5 Li2_7 3.062186 1_555
Li2_5 Li2_7 3.062186 1_545
Li2_5 Li3_1 3.105628 1_655
Li2_5 Li3_5 3.105630 1_555
Li2_5 Li3_3 3.105630 1_655
Li2_6 Li3_2 3.105628 1_655
Li2_6 Li3_6 3.105630 1_555
Li2_6 Li3_0 3.105630 1_665
Li2_7 Li3_3 3.105628 1_655
Li2_7 Li3_7 3.105630 1_555
Li2_7 Li3_1 3.105630 1_665
Li3_0 Li3_6 3.062185 1_555
Li3_0 Li3_6 3.062185 1_445
Li3_0 Li3_2 3.062186 1_545
Li3_0 Li3_2 3.062186 1_555
Li3_0 Li3_4 3.062186 1_455
Li3_0 Li3_4 3.062186 1_555
Li3_0 Li4_4 3.067591 1_455
Li3_0 Li4_0 3.067593 1_555
Li3_0 Li4_6 3.067593 1_445
Li3_1 Li3_7 3.062185 1_555
Li3_1 Li3_7 3.062185 1_445
Li3_1 Li3_3 3.062186 1_555
Li3_1 Li3_5 3.062186 1_555
Li3_1 Li3_3 3.062186 1_545
Li3_1 Li3_5 3.062186 1_455
Li3_1 Li4_5 3.067591 1_455
Li3_1 Li4_1 3.067593 1_555
Li3_1 Li4_7 3.067593 1_445
Li3_2 Li3_4 3.062185 1_455
Li3_2 Li3_4 3.062185 1_565
Li3_2 Li3_6 3.062186 1_555
Li3_2 Li3_6 3.062186 1_455
Li3_2 Li4_6 3.067591 1_455
Li3_2 Li4_2 3.067593 1_555
Li3_2 Li4_4 3.067593 1_455
Li3_3 Li3_5 3.062185 1_565
Li3_3 Li3_5 3.062185 1_455
Li3_3 Li3_7 3.062186 1_455
Li3_3 Li3_7 3.062186 1_555
Li3_3 Li4_7 3.067591 1_455
Li3_3 Li4_3 3.067593 1_555
Li3_3 Li4_5 3.067593 1_455
Li3_4 Li3_6 3.062186 1_545
Li3_4 Li3_6 3.062186 1_555
Li3_4 Li4_0 3.067591 1_555
Li3_4 Li4_4 3.067593 1_555
Li3_4 Li4_2 3.067593 1_545
Li3_5 Li3_7 3.062186 1_555
Li3_5 Li3_7 3.062186 1_545
Li3_5 Li4_1 3.067591 1_555
Li3_5 Li4_5 3.067593 1_555
Li3_5 Li4_3 3.067593 1_545
Li3_6 Li4_2 3.067591 1_555
Li3_6 Li4_6 3.067593 1_555
Li3_6 Li4_0 3.067593 1_555
Li3_7 Li4_3 3.067591 1_555
Li3_7 Li4_1 3.067593 1_555
Li3_7 Li4_7 3.067593 1_555
Li4_0 Li4_6 3.062185 1_445
Li4_0 Li4_6 3.062185 1_555
Li4_0 Li4_4 3.062186 1_555
Li4_0 Li4_2 3.062186 1_555
Li4_0 Li4_2 3.062186 1_545
Li4_0 Li4_4 3.062186 1_455
Li4_0 Mg0_5 3.145177 1_555
Li4_0 Mg0_1 3.145178 1_555
Li4_0 Mg0_7 3.145178 1_555
Li4_1 Li4_7 3.062185 1_445
Li4_1 Li4_7 3.062185 1_555
Li4_1 Li4_3 3.062186 1_555
Li4_1 Li4_5 3.062186 1_555
Li4_1 Li4_5 3.062186 1_455
Li4_1 Li4_3 3.062186 1_545
Li4_1 Mg0_4 3.145177 1_556
Li4_1 Mg0_6 3.145178 1_556
Li4_1 Mg0_0 3.145178 1_556
Li4_2 Li4_4 3.062185 1_565
Li4_2 Li4_4 3.062185 1_455
Li4_2 Li4_6 3.062186 1_455
Li4_2 Li4_6 3.062186 1_555
Li4_2 Mg0_7 3.145177 1_555
Li4_2 Mg0_3 3.145178 1_555
Li4_2 Mg0_5 3.145178 1_565
Li4_3 Li4_5 3.062185 1_455
Li4_3 Li4_5 3.062185 1_565
Li4_3 Li4_7 3.062186 1_455
Li4_3 Li4_7 3.062186 1_555
Li4_3 Mg0_6 3.145177 1_556
Li4_3 Mg0_2 3.145178 1_556
Li4_3 Mg0_4 3.145178 1_566
Li4_4 Li4_6 3.062186 1_555
Li4_4 Li4_6 3.062186 1_545
Li4_4 Mg0_1 3.145177 1_655
Li4_4 Mg0_5 3.145178 1_555
Li4_4 Mg0_3 3.145178 1_655
Li4_5 Li4_7 3.062186 1_555
Li4_5 Li4_7 3.062186 1_545
Li4_5 Mg0_0 3.145177 1_656
Li4_5 Mg0_2 3.145178 1_656
Li4_5 Mg0_4 3.145178 1_556
Li4_6 Mg0_3 3.145177 1_655
Li4_6 Mg0_1 3.145178 1_665
Li4_6 Mg0_7 3.145178 1_555
Li4_7 Mg0_2 3.145177 1_656
Li4_7 Mg0_0 3.145178 1_666
Li4_7 Mg0_6 3.145178 1_556
Mg0_0 Mg0_6 3.062185 1_555
Mg0_0 Mg0_6 3.062185 1_445
Mg0_0 Mg0_2 3.062186 1_555
Mg0_0 Mg0_4 3.062186 1_455
Mg0_0 Mg0_2 3.062186 1_545
Mg0_0 Mg0_4 3.062186 1_555
Mg0_1 Mg0_7 3.062185 1_445
Mg0_1 Mg0_7 3.062185 1_555
Mg0_1 Mg0_5 3.062186 1_555
Mg0_1 Mg0_3 3.062186 1_555
Mg0_1 Mg0_5 3.062186 1_455
Mg0_1 Mg0_3 3.062186 1_545
Mg0_2 Mg0_4 3.062185 1_455
Mg0_2 Mg0_4 3.062185 1_565
Mg0_2 Mg0_6 3.062186 1_455
Mg0_2 Mg0_6 3.062186 1_555
Mg0_3 Mg0_5 3.062185 1_455
Mg0_3 Mg0_5 3.062185 1_565
Mg0_3 Mg0_7 3.062186 1_455
Mg0_3 Mg0_7 3.062186 1_555
Mg0_4 Mg0_6 3.062186 1_555
Mg0_4 Mg0_6 3.062186 1_545
Mg0_5 Mg0_7 3.062186 1_545
Mg0_5 Mg0_7 3.062186 1_555
