# generated using pymatgen
data_Sr2Tl2O5
_symmetry_space_group_name_H-M   'P 1'
_cell_length_a   3.52276093
_cell_length_b   6.03649637
_cell_length_c   13.94110889
_cell_angle_alpha   89.99975599
_cell_angle_beta   90.00028567
_cell_angle_gamma   73.04387955
_symmetry_Int_Tables_number   1
_chemical_formula_structural   Sr2Tl2O5
_chemical_formula_sum   'Sr4 Tl4 O10'
_cell_volume   283.57196798
_cell_formula_units_Z   2
loop_
 _symmetry_equiv_pos_site_id
 _symmetry_equiv_pos_as_xyz
  1  'x, y, z'
loop_
 _atom_site_type_symbol
 _atom_site_label
 _atom_site_symmetry_multiplicity
 _atom_site_fract_x
 _atom_site_fract_y
 _atom_site_fract_z
 _atom_site_occupancy
  Sr  Sr0  1  0.96836814  0.06337755  0.26375861  1
  Sr  Sr1  1  0.03163032  0.93662112  0.76373792  1
  Sr  Sr2  1  0.21307179  0.57377314  0.11122349  1
  Sr  Sr3  1  0.78694438  0.42621595  0.61123926  1
  Tl  Tl0  1  0.48875947  0.02305559  0.99820508  1
  Tl  Tl1  1  0.51123724  0.97693836  0.49824290  1
  Tl  Tl2  1  0.76197974  0.47545737  0.89176653  1
  Tl  Tl3  1  0.23803642  0.52448656  0.39180157  1
  O  O0  1  0.87968290  0.24046728  0.44371101  1
  O  O1  1  0.16050148  0.67934895  0.53274969  1
  O  O2  1  0.83949998  0.32065990  0.03270176  1
  O  O3  1  0.12030593  0.75954651  0.94368280  1
  O  O4  1  0.31806879  0.36401126  0.25916228  1
  O  O5  1  0.68190195  0.63603226  0.75913555  1
  O  O6  1  0.59469357  0.81080590  0.36086620  1
  O  O7  1  0.44149484  0.11688898  0.63860517  1
  O  O8  1  0.55850719  0.88311720  0.13858925  1
  O  O9  1  0.40531587  0.18919812  0.86081893  1
loop_
_geom_bond_atom_site_label_1
_geom_bond_atom_site_label_2
_geom_bond_distance
_geom_bond_site_symmetry_2
O0 Tl1 2.448265 1_645
O0 Tl1 2.448993 1_545
O0 Tl3 2.512364 1_555
O0 Tl3 2.513803 1_655
O0 Sr3 2.570028 1_555
O0 Sr0 2.709125 1_555
O1 Tl3 2.158868 1_555
O1 Tl1 2.505930 1_555
O1 Tl1 2.508628 1_455
O1 Sr3 2.536797 1_555
O1 Sr3 2.537093 1_455
O2 Tl2 2.158540 1_554
O2 Tl0 2.505993 1_554
O2 Tl0 2.508637 1_654
O2 Sr2 2.536928 1_555
O2 Sr2 2.537232 1_655
O3 Tl0 2.448168 1_465
O3 Tl0 2.448876 1_565
O3 Tl2 2.512647 1_555
O3 Tl2 2.514113 1_455
O3 Sr2 2.570234 1_556
O3 Sr1 2.708983 1_555
O4 Tl3 2.068313 1_555
O4 Sr2 2.391768 1_555
O4 Sr0 2.473686 1_455
O4 Sr0 2.473983 1_555
O5 Tl2 2.068457 1_555
O5 Sr3 2.391429 1_555
O5 Sr1 2.473519 1_655
O5 Sr1 2.473791 1_555
O6 Tl1 2.141993 1_555
O6 Tl3 2.453252 1_555
O6 Tl3 2.454546 1_655
O6 Sr0 2.657207 1_565
O6 Sr0 2.657685 1_465
O7 Tl1 2.117100 1_545
O7 Sr3 2.537253 1_455
O7 Sr3 2.537422 1_555
O7 Sr1 2.688597 1_545
O7 Sr1 2.688806 1_645
O8 Tl0 2.117346 1_564
O8 Sr2 2.537342 1_655
O8 Sr2 2.537478 1_555
O8 Sr0 2.688891 1_565
O8 Sr0 2.689157 1_465
O9 Tl0 2.142127 1_555
O9 Tl2 2.452990 1_555
O9 Tl2 2.454408 1_455
O9 Sr1 2.657067 1_545
O9 Sr1 2.657499 1_645
