# generated using pymatgen
data_Rb3SiF7
_symmetry_space_group_name_H-M   'P 1'
_cell_length_a   7.89294496
_cell_length_b   7.89294496
_cell_length_c   5.78949022
_cell_angle_alpha   90.00000000
_cell_angle_beta   90.00000000
_cell_angle_gamma   90.00000000
_symmetry_Int_Tables_number   1
_chemical_formula_structural   Rb3SiF7
_chemical_formula_sum   'Rb6 Si2 F14'
_cell_volume   360.67702045
_cell_formula_units_Z   2
loop_
 _symmetry_equiv_pos_site_id
 _symmetry_equiv_pos_as_xyz
  1  'x, y, z'
loop_
 _atom_site_type_symbol
 _atom_site_label
 _atom_site_symmetry_multiplicity
 _atom_site_fract_x
 _atom_site_fract_y
 _atom_site_fract_z
 _atom_site_occupancy
  Rb  Rb0  1  0.19348177  0.69348177  0.50000000  1
  Rb  Rb1  1  0.69348177  0.80651823  0.50000000  1
  Rb  Rb2  1  0.30651823  0.19348177  0.50000000  1
  Rb  Rb3  1  0.80651823  0.30651823  0.50000000  1
  Rb  Rb4  1  0.50000000  0.50000000  -0.00000000  1
  Rb  Rb5  1  -0.00000000  -0.00000000  -0.00000000  1
  Si  Si0  1  -0.00000000  0.50000000  -0.00000000  1
  Si  Si1  1  0.50000000  -0.00000000  -0.00000000  1
  F  F0  1  0.39288415  0.89288415  0.79108830  1
  F  F1  1  0.60711585  0.10711585  0.79108830  1
  F  F2  1  0.10711585  0.39288415  0.79108830  1
  F  F3  1  0.89288415  0.60711585  0.79108830  1
  F  F4  1  0.39288415  0.89288415  0.20891170  1
  F  F5  1  0.89288415  0.60711585  0.20891170  1
  F  F6  1  0.10711585  0.39288415  0.20891170  1
  F  F7  1  0.60711585  0.10711585  0.20891170  1
  F  F8  1  -0.00000000  -0.00000000  0.50000000  1
  F  F9  1  0.50000000  0.50000000  0.50000000  1
  F  F10  1  0.84785860  0.34785860  -0.00000000  1
  F  F11  1  0.34785860  0.15214140  -0.00000000  1
  F  F12  1  0.65214140  0.84785860  -0.00000000  1
  F  F13  1  0.15214140  0.65214140  -0.00000000  1
loop_
_geom_bond_atom_site_label_1
_geom_bond_atom_site_label_2
_geom_bond_distance
_geom_bond_site_symmetry_2
F0 Si1 1.700728 1_566
F0 Rb0 2.791814 1_555
F0 Rb2 2.988980 1_565
F0 Rb1 2.988980 1_555
F1 Si1 1.700728 1_556
F1 Rb3 2.791814 1_555
F1 Rb2 2.988980 1_555
F1 Rb1 2.988980 1_545
F2 Si0 1.700728 1_556
F2 Rb2 2.791814 1_555
F2 Rb3 2.988980 1_455
F2 Rb0 2.988980 1_555
F3 Si0 1.700728 1_656
F3 Rb1 2.791814 1_555
F3 Rb3 2.988980 1_555
F3 Rb0 2.988980 1_655
F4 Si1 1.700728 1_565
F4 Rb0 2.791814 1_555
F4 Rb1 2.988980 1_555
F4 Rb2 2.988980 1_565
F5 Si0 1.700728 1_655
F5 Rb1 2.791814 1_555
F5 Rb3 2.988980 1_555
F5 Rb0 2.988980 1_655
F6 Si0 1.700728 1_555
F6 Rb2 2.791814 1_555
F6 Rb3 2.988980 1_455
F6 Rb0 2.988980 1_555
F7 Si1 1.700728 1_555
F7 Rb3 2.791814 1_555
F7 Rb1 2.988980 1_545
F7 Rb2 2.988980 1_555
F8 Rb3 2.861001 1_455
F8 Rb2 2.861001 1_555
F8 Rb0 2.861001 1_545
F8 Rb1 2.861001 1_445
F8 Rb5 2.894745 1_555
F8 Rb5 2.894745 1_556
F9 Rb0 2.861001 1_555
F9 Rb1 2.861001 1_555
F9 Rb2 2.861001 1_555
F9 Rb3 2.861001 1_555
F9 Rb4 2.894745 1_556
F9 Rb4 2.894745 1_555
F10 Si0 1.698249 1_655
F10 Rb3 2.931295 1_555
F10 Rb3 2.931295 1_554
F10 Rb5 2.996749 1_655
F10 Rb4 2.996749 1_555
F11 Si1 1.698249 1_555
F11 Rb2 2.931295 1_554
F11 Rb2 2.931295 1_555
F11 Rb5 2.996749 1_555
F11 Rb4 2.996749 1_555
F12 Si1 1.698249 1_565
F12 Rb1 2.931295 1_555
F12 Rb1 2.931295 1_554
F12 Rb4 2.996749 1_555
F12 Rb5 2.996749 1_665
F13 Si0 1.698249 1_555
F13 Rb0 2.931295 1_555
F13 Rb0 2.931295 1_554
F13 Rb5 2.996749 1_565
F13 Rb4 2.996749 1_555
