# generated using pymatgen
data_SrPrEuNbO6
_symmetry_space_group_name_H-M   'P 1'
_cell_length_a   8.54342667
_cell_length_b   8.55309382
_cell_length_c   8.55592848
_cell_angle_alpha   90.00000000
_cell_angle_beta   90.00000000
_cell_angle_gamma   90.00000000
_symmetry_Int_Tables_number   1
_chemical_formula_structural   SrPrEuNbO6
_chemical_formula_sum   'Sr4 Pr4 Eu4 Nb4 O24'
_cell_volume   625.20505046
_cell_formula_units_Z   4
loop_
 _symmetry_equiv_pos_site_id
 _symmetry_equiv_pos_as_xyz
  1  'x, y, z'
loop_
 _atom_site_type_symbol
 _atom_site_label
 _atom_site_symmetry_multiplicity
 _atom_site_fract_x
 _atom_site_fract_y
 _atom_site_fract_z
 _atom_site_occupancy
  Sr  Sr0  1  -0.00000000  0.50000000  0.50000000  1
  Sr  Sr1  1  0.50000000  0.50000000  -0.00000000  1
  Sr  Sr2  1  0.50000000  -0.00000000  0.00000000  1
  Sr  Sr3  1  -0.00000000  -0.00000000  0.50000000  1
  Pr  Pr0  1  0.25000000  0.25000000  0.25000000  1
  Pr  Pr1  1  0.75000000  0.75000000  0.25000000  1
  Pr  Pr2  1  0.75000000  0.25000000  0.75000000  1
  Pr  Pr3  1  0.25000000  0.75000000  0.75000000  1
  Eu  Eu0  1  0.50000000  -0.00000000  0.50000000  1
  Eu  Eu1  1  -0.00000000  0.50000000  -0.00000000  1
  Eu  Eu2  1  -0.00000000  -0.00000000  -0.00000000  1
  Eu  Eu3  1  0.50000000  0.50000000  0.50000000  1
  Nb  Nb0  1  0.75000000  0.75000000  0.75000000  1
  Nb  Nb1  1  0.25000000  0.25000000  0.75000000  1
  Nb  Nb2  1  0.25000000  0.75000000  0.25000000  1
  Nb  Nb3  1  0.75000000  0.25000000  0.25000000  1
  O  O0  1  0.97867403  0.20075612  0.28873813  1
  O  O1  1  0.02132597  0.79924388  0.28873813  1
  O  O2  1  0.02132597  0.20075612  0.71126187  1
  O  O3  1  0.97867403  0.79924388  0.71126187  1
  O  O4  1  0.28842119  0.97890606  0.20077598  1
  O  O5  1  0.28842119  0.02109394  0.79922402  1
  O  O6  1  0.71157881  0.02109394  0.20077598  1
  O  O7  1  0.71157881  0.97890606  0.79922402  1
  O  O8  1  0.19892451  0.29023230  0.97877396  1
  O  O9  1  0.80107549  0.29023230  0.02122604  1
  O  O10  1  0.19892451  0.70976770  0.02122604  1
  O  O11  1  0.80107549  0.70976770  0.97877396  1
  O  O12  1  0.52132597  0.29924388  0.21126187  1
  O  O13  1  0.47867403  0.70075612  0.21126187  1
  O  O14  1  0.47867403  0.29924388  0.78873813  1
  O  O15  1  0.52132597  0.70075612  0.78873813  1
  O  O16  1  0.21157881  0.52109394  0.29922402  1
  O  O17  1  0.21157881  0.47890606  0.70077598  1
  O  O18  1  0.78842119  0.47890606  0.29922402  1
  O  O19  1  0.78842119  0.52109394  0.70077598  1
  O  O20  1  0.30107549  0.20976770  0.52122604  1
  O  O21  1  0.69892451  0.20976770  0.47877396  1
  O  O22  1  0.30107549  0.79023230  0.47877396  1
  O  O23  1  0.69892451  0.79023230  0.52122604  1
loop_
_geom_bond_atom_site_label_1
_geom_bond_atom_site_label_2
_geom_bond_distance
_geom_bond_site_symmetry_2
Eu0 O21 2.477961 1_555
Eu0 O20 2.477961 1_555
Eu0 O23 2.477961 1_545
Eu0 O22 2.477961 1_545
Eu1 O11 2.477961 1_454
Eu1 O10 2.477961 1_555
Eu1 O8 2.477961 1_554
Eu1 O9 2.477961 1_455
Eu2 O6 3.009201 1_455
Eu2 O4 3.009201 1_545
Eu2 O5 3.009201 1_554
Eu2 O7 3.009201 1_444
Eu2 O9 3.013885 1_455
Eu2 O11 3.013885 1_444
Eu2 O10 3.013885 1_545
Eu2 O8 3.013885 1_554
Eu2 O0 3.014062 1_455
Eu2 O3 3.014062 1_444
Eu2 O2 3.014062 1_554
Eu2 O1 3.014062 1_545
Eu3 O18 3.009201 1_555
Eu3 O19 3.009201 1_555
Eu3 O16 3.009201 1_555
Eu3 O17 3.009201 1_555
Eu3 O21 3.013885 1_555
Eu3 O22 3.013885 1_555
Eu3 O20 3.013885 1_555
Eu3 O23 3.013885 1_555
Eu3 O12 3.014062 1_555
Eu3 O13 3.014062 1_555
Eu3 O15 3.014062 1_555
Eu3 O14 3.014062 1_555
Nb0 O3 2.025843 1_555
Nb0 O15 2.025843 1_555
Nb0 O7 2.029364 1_555
Nb0 O19 2.029364 1_555
Nb0 O23 2.034732 1_555
Nb0 O11 2.034732 1_555
Nb1 O2 2.025843 1_555
Nb1 O14 2.025843 1_555
Nb1 O5 2.029364 1_555
Nb1 O17 2.029364 1_555
Nb1 O20 2.034732 1_555
Nb1 O8 2.034732 1_555
Nb2 O1 2.025843 1_555
Nb2 O13 2.025843 1_555
Nb2 O16 2.029364 1_555
Nb2 O4 2.029364 1_555
Nb2 O10 2.034732 1_555
Nb2 O22 2.034732 1_555
Nb3 O0 2.025843 1_555
Nb3 O12 2.025843 1_555
Nb3 O6 2.029364 1_555
Nb3 O18 2.029364 1_555
Nb3 O21 2.034732 1_555
Nb3 O9 2.034732 1_555
O0 Pr0 2.379207 1_655
O0 Sr3 2.499757 1_655
O1 Pr1 2.379207 1_455
O1 Sr3 2.499757 1_565
O2 Pr2 2.379207 1_455
O2 Sr3 2.499757 1_555
O3 Pr3 2.379207 1_655
O3 Sr3 2.499757 1_665
O4 Pr0 2.379381 1_565
O4 Sr2 2.500184 1_565
O5 Pr3 2.379381 1_545
O5 Sr2 2.500184 1_556
O6 Pr1 2.379381 1_545
O6 Sr2 2.500184 1_555
O7 Pr2 2.379381 1_565
O7 Sr2 2.500184 1_566
O8 Pr0 2.386203 1_556
O9 Pr2 2.386203 1_554
O10 Pr3 2.386203 1_554
O11 Pr1 2.386203 1_556
O12 Pr0 2.379207 1_555
O12 Sr1 2.499757 1_555
O13 Pr1 2.379207 1_555
O13 Sr1 2.499757 1_555
O14 Pr2 2.379207 1_555
O14 Sr1 2.499757 1_556
O15 Pr3 2.379207 1_555
O15 Sr1 2.499757 1_556
O16 Pr0 2.379381 1_555
O16 Sr0 2.500184 1_555
O17 Pr3 2.379381 1_555
O17 Sr0 2.500184 1_555
O18 Pr1 2.379381 1_555
O18 Sr0 2.500184 1_655
O19 Pr2 2.379381 1_555
O19 Sr0 2.500184 1_655
O20 Pr0 2.386203 1_555
O21 Pr2 2.386203 1_555
O22 Pr3 2.386203 1_555
O23 Pr1 2.386203 1_555
