# generated using pymatgen
data_Ca2MgPt2
_symmetry_space_group_name_H-M   'P 1'
_cell_length_a   5.69246199
_cell_length_b   5.69246199
_cell_length_c   5.69246199
_cell_angle_alpha   135.70022983
_cell_angle_beta   118.23426640
_cell_angle_gamma   79.11879658
_symmetry_Int_Tables_number   1
_chemical_formula_structural   Ca2MgPt2
_chemical_formula_sum   'Ca2 Mg1 Pt2'
_cell_volume   110.08548044
_cell_formula_units_Z   1
loop_
 _symmetry_equiv_pos_site_id
 _symmetry_equiv_pos_as_xyz
  1  'x, y, z'
loop_
 _atom_site_type_symbol
 _atom_site_label
 _atom_site_symmetry_multiplicity
 _atom_site_fract_x
 _atom_site_fract_y
 _atom_site_fract_z
 _atom_site_occupancy
  Ca  Ca0  1  0.70002557  0.20002557  0.50000000  1
  Ca  Ca1  1  0.29997443  0.79997443  0.50000000  1
  Mg  Mg0  1  0.00000000  0.00000000  0.00000000  1
  Pt  Pt0  1  0.73213717  0.50000000  0.23213717  1
  Pt  Pt1  1  0.26786283  0.50000000  0.76786283  1
loop_
_geom_bond_atom_site_label_1
_geom_bond_atom_site_label_2
_geom_bond_distance
_geom_bond_site_symmetry_2
Ca0 Pt1 3.063140 1_655
Ca0 Pt0 3.063140 1_555
Ca0 Pt1 3.086908 1_544
Ca0 Pt1 3.086908 1_555
Ca0 Pt0 3.086908 1_545
Ca0 Pt0 3.086908 1_556
Ca0 Mg0 3.396902 1_655
Ca0 Mg0 3.396902 1_666
Ca0 Mg0 3.408769 1_656
Ca0 Mg0 3.408769 1_555
Ca0 Ca1 3.511399 1_545
Ca0 Ca1 3.730038 1_544
Ca0 Ca1 3.730038 1_656
Ca0 Ca1 3.730038 1_645
Ca0 Ca1 3.730038 1_555
Ca1 Pt0 3.063140 1_455
Ca1 Pt1 3.063140 1_555
Ca1 Pt0 3.086908 1_566
Ca1 Pt0 3.086908 1_555
Ca1 Pt1 3.086908 1_554
Ca1 Pt1 3.086908 1_565
Ca1 Mg0 3.396902 1_566
Ca1 Mg0 3.396902 1_555
Ca1 Mg0 3.408769 1_565
Ca1 Mg0 3.408769 1_666
Mg0 Pt1 2.656411 1_544
Mg0 Pt0 2.656411 1_455
Mg0 Pt1 2.656411 1_555
Mg0 Pt0 2.656411 1_444
Pt0 Pt1 2.713083 1_554
Pt0 Pt1 3.130624 1_655
