# generated using pymatgen
data_Mg4Si7
_symmetry_space_group_name_H-M   'P 1'
_cell_length_a   6.87027775
_cell_length_b   3.99151328
_cell_length_c   14.94277847
_cell_angle_alpha   99.08497456
_cell_angle_beta   103.63193420
_cell_angle_gamma   88.72268731
_symmetry_Int_Tables_number   1
_chemical_formula_structural   Mg4Si7
_chemical_formula_sum   'Mg8 Si14'
_cell_volume   393.18627253
_cell_formula_units_Z   2
loop_
 _symmetry_equiv_pos_site_id
 _symmetry_equiv_pos_as_xyz
  1  'x, y, z'
loop_
 _atom_site_type_symbol
 _atom_site_label
 _atom_site_symmetry_multiplicity
 _atom_site_fract_x
 _atom_site_fract_y
 _atom_site_fract_z
 _atom_site_occupancy
  Mg  Mg0  1  0.76595000  0.85077400  0.06544000  1
  Mg  Mg1  1  0.64487800  0.10373200  0.49374200  1
  Mg  Mg2  1  0.88198100  0.67295700  0.64880900  1
  Mg  Mg3  1  0.38901100  0.51984400  0.34227100  1
  Mg  Mg4  1  0.27716000  0.89835000  0.15744700  1
  Mg  Mg5  1  0.65366400  0.23930800  0.89720900  1
  Mg  Mg6  1  0.38296400  0.66980000  0.58077800  1
  Mg  Mg7  1  0.91801600  0.56011700  0.42102600  1
  Si  Si0  1  0.40299500  0.31925300  0.03551400  1
  Si  Si1  1  0.03778800  0.35458800  0.03763000  1
  Si  Si2  1  0.34499500  0.76080100  0.93527300  1
  Si  Si3  1  0.97576600  0.76424300  0.90421600  1
  Si  Si4  1  0.24195800  0.07856700  0.44570100  1
  Si  Si5  1  0.04872100  0.12421500  0.56000000  1
  Si  Si6  1  0.94871500  0.21865100  0.79638000  1
  Si  Si7  1  0.99827100  0.42293100  0.19686200  1
  Si  Si8  1  0.65773800  0.98774000  0.29959100  1
  Si  Si9  1  0.42320200  0.67011000  0.77801200  1
  Si  Si10  1  0.62140700  0.23878700  0.69226800  1
  Si  Si11  1  0.63198300  0.42120100  0.19079700  1
  Si  Si12  1  0.02155600  0.97578600  0.29633900  1
  Si  Si13  1  0.22763100  0.15188800  0.72106800  1
loop_
_geom_bond_atom_site_label_1
_geom_bond_atom_site_label_2
_geom_bond_distance
_geom_bond_site_symmetry_2
Mg0 Si1 2.743019 1_655
Mg0 Si1 2.915792 1_665
Mg0 Si7 2.963204 1_555
Mg0 Si7 2.981349 1_565
Mg0 Si11 2.985367 1_565
Mg0 Si11 3.032039 1_555
Mg0 Si3 3.058284 1_554
Mg0 Si0 3.073315 1_565
Mg0 Si2 3.074164 1_554
Mg0 Mg5 3.095692 1_564
Mg0 Mg5 3.178625 1_554
Mg0 Si0 3.213990 1_555
Mg1 Si4 2.690935 1_555
Mg1 Si5 2.715617 1_655
Mg1 Si8 2.886812 1_545
Mg1 Si10 2.972119 1_555
Mg2 Si5 2.749111 1_655
Mg2 Si10 2.769761 1_555
Mg2 Si6 2.805039 1_565
Mg2 Si5 2.807330 1_665
Mg2 Si10 2.938036 1_565
Mg2 Si13 2.966728 1_665
Mg2 Si6 3.018315 1_555
Mg3 Si4 2.816028 1_565
Mg3 Si4 2.861257 1_555
Mg3 Si8 2.877270 1_545
Mg3 Si8 2.896231 1_555
Mg3 Si7 3.018059 1_455
Mg3 Si12 3.086938 1_555
Mg3 Si11 3.087872 1_555
Mg4 Si1 2.857433 1_555
Mg4 Si7 2.892409 1_465
Mg4 Si8 2.942751 1_555
Mg4 Si0 2.943399 1_565
Mg4 Si7 2.943832 1_455
Mg4 Si0 2.955241 1_555
Mg4 Si1 2.955443 1_565
Mg4 Si12 2.996316 1_555
Mg4 Si11 3.055862 1_555
Mg4 Si11 3.141984 1_565
Mg5 Si6 2.789057 1_555
Mg5 Si9 2.855305 1_555
Mg5 Si3 2.875779 1_545
Mg5 Si9 2.897297 1_545
Mg5 Si1 2.952642 1_656
Mg5 Si0 2.963725 1_556
Mg5 Si10 3.017523 1_555
Mg5 Si2 3.025118 1_555
Mg5 Si3 3.053926 1_555
Mg5 Si2 3.092056 1_545
Mg6 Si4 2.778936 1_565
Mg6 Si10 2.812802 1_555
Mg6 Si4 2.873622 1_555
Mg6 Si10 2.881253 1_565
Mg6 Si5 2.883669 1_565
Mg6 Si9 2.894369 1_555
Mg6 Si13 2.987524 1_565
Mg6 Si5 3.128156 1_555
Mg7 Si5 2.814804 1_665
Mg7 Si5 2.887652 1_655
Mg7 Si12 2.895473 1_655
Mg7 Si4 2.903433 1_655
Mg7 Si12 2.931856 1_645
Mg7 Si8 2.952321 1_555
Mg7 Si4 2.991505 1_665
Mg7 Si8 3.008880 1_545
Si0 Si2 2.455538 1_554
Si0 Si11 2.456486 1_555
Si0 Si2 2.464755 1_544
Si0 Si1 2.517251 1_555
Si1 Si7 2.430172 1_455
Si1 Si3 2.725355 1_454
Si1 Si3 2.805217 1_444
Si2 Si3 2.469005 1_455
Si2 Si9 2.501938 1_555
Si3 Si6 2.478366 1_555
Si3 Si6 2.586043 1_565
Si4 Si5 2.381705 1_555
Si10 Si6 2.421940 1_555
Si10 Si9 2.545819 1_555
Si11 Si7 2.496820 1_555
Si11 Si8 2.531134 1_545
Si11 Si8 2.551304 1_555
Si12 Si4 2.363895 1_565
Si12 Si7 2.443885 1_455
Si12 Si7 2.476615 1_465
Si12 Si8 2.510676 1_455
Si13 Si9 2.416026 1_555
Si13 Si5 2.417306 1_555
Si13 Si6 2.430726 1_455
Si13 Si9 2.467797 1_545
