# generated using pymatgen
data_Rb2NiP2
_symmetry_space_group_name_H-M   'P 1'
_cell_length_a   7.77989188
_cell_length_b   7.77989188
_cell_length_c   5.73498390
_cell_angle_alpha   90.00000000
_cell_angle_beta   90.00000000
_cell_angle_gamma   129.22947159
_symmetry_Int_Tables_number   1
_chemical_formula_structural   Rb2NiP2
_chemical_formula_sum   'Rb4 Ni2 P4'
_cell_volume   268.88565352
_cell_formula_units_Z   2
loop_
 _symmetry_equiv_pos_site_id
 _symmetry_equiv_pos_as_xyz
  1  'x, y, z'
loop_
 _atom_site_type_symbol
 _atom_site_label
 _atom_site_symmetry_multiplicity
 _atom_site_fract_x
 _atom_site_fract_y
 _atom_site_fract_z
 _atom_site_occupancy
  Rb  Rb0  1  0.78745543  0.21254457  0.25000000  1
  Rb  Rb1  1  0.21254457  0.78745543  0.75000000  1
  Rb  Rb2  1  0.41294449  0.58705551  0.25000000  1
  Rb  Rb3  1  0.58705551  0.41294449  0.75000000  1
  Ni  Ni0  1  0.00000000  0.00000000  0.00000000  1
  Ni  Ni1  1  0.00000000  0.00000000  0.50000000  1
  P  P0  1  0.93253885  0.74285508  0.25000000  1
  P  P1  1  0.06746115  0.25714492  0.75000000  1
  P  P2  1  0.25714492  0.06746115  0.25000000  1
  P  P3  1  0.74285508  0.93253885  0.75000000  1
loop_
_geom_bond_atom_site_label_1
_geom_bond_atom_site_label_2
_geom_bond_distance
_geom_bond_site_symmetry_2
Ni0 P3 2.237243 1_444
Ni0 P1 2.237243 1_554
Ni0 P2 2.237243 1_555
Ni0 P0 2.237243 1_445
Ni0 Rb0 3.314022 1_455
Ni0 Rb1 3.314022 1_544
Ni1 P3 2.237243 1_445
Ni1 P2 2.237243 1_555
Ni1 P0 2.237243 1_445
Ni1 P1 2.237243 1_555
Ni1 Rb0 3.314022 1_455
Ni1 Rb1 3.314022 1_545
P0 P2 2.165292 1_665
P0 Rb2 3.407721 1_555
P0 Rb1 3.483148 1_654
P0 Rb1 3.483148 1_655
P0 Rb0 3.522164 1_555
P0 Rb3 3.648118 1_554
P0 Rb3 3.648118 1_555
P1 P3 2.165292 1_445
P1 Rb3 3.407721 1_555
P1 Rb0 3.483148 1_456
P1 Rb0 3.483148 1_455
P1 Rb1 3.522164 1_555
P1 Rb2 3.648118 1_555
P1 Rb2 3.648118 1_556
P2 Rb2 3.407721 1_555
P2 Rb1 3.483148 1_545
P2 Rb1 3.483148 1_544
P2 Rb0 3.522164 1_555
P2 Rb3 3.648118 1_554
P2 Rb3 3.648118 1_555
P3 Rb3 3.407721 1_555
P3 Rb0 3.483148 1_565
P3 Rb0 3.483148 1_566
P3 Rb1 3.522164 1_555
P3 Rb2 3.648118 1_555
P3 Rb2 3.648118 1_556
