# generated using pymatgen
data_Li9Mn2Co5O16
_symmetry_space_group_name_H-M   'P 1'
_cell_length_a   2.90804000
_cell_length_b   9.80382800
_cell_length_c   10.35329189
_cell_angle_alpha   80.39546221
_cell_angle_beta   90.00000000
_cell_angle_gamma   90.00000000
_symmetry_Int_Tables_number   1
_chemical_formula_structural   Li9Mn2Co5O16
_chemical_formula_sum   'Li9 Mn2 Co5 O16'
_cell_volume   291.03409363
_cell_formula_units_Z   1
loop_
 _symmetry_equiv_pos_site_id
 _symmetry_equiv_pos_as_xyz
  1  'x, y, z'
loop_
 _atom_site_type_symbol
 _atom_site_label
 _atom_site_symmetry_multiplicity
 _atom_site_fract_x
 _atom_site_fract_y
 _atom_site_fract_z
 _atom_site_occupancy
  Li  Li0  1  0.50000000  0.24974900  0.13403100  1
  Li  Li1  1  0.50000000  0.25034300  0.61884900  1
  Li  Li2  1  0.00000000  0.99896500  0.27293700  1
  Li  Li3  1  0.00000000  0.00103500  0.72706300  1
  Li  Li4  1  0.50000000  0.74965700  0.38115100  1
  Li  Li5  1  0.50000000  0.75025100  0.86596900  1
  Li  Li6  1  0.00000000  0.50000000  0.00000000  1
  Li  Li7  1  0.00000000  0.50000000  0.50000000  1
  Li  Li8  1  0.50000000  0.00000000  0.50000000  1
  Mn  Mn0  1  0.00000000  0.25053800  0.87368700  1
  Mn  Mn1  1  0.00000000  0.74946200  0.12631300  1
  Co  Co0  1  0.00000000  0.23183200  0.39217300  1
  Co  Co1  1  0.50000000  0.00000000  0.00000000  1
  Co  Co2  1  0.00000000  0.76816800  0.60782700  1
  Co  Co3  1  0.50000000  0.48970300  0.25272700  1
  Co  Co4  1  0.50000000  0.51029700  0.74727300  1
  O  O0  1  0.50000000  0.36027600  0.93110100  1
  O  O1  1  0.50000000  0.37209800  0.42723600  1
  O  O2  1  0.00000000  0.12785900  0.04161000  1
  O  O3  1  0.00000000  0.13421000  0.55516700  1
  O  O4  1  0.50000000  0.85722300  0.18466900  1
  O  O5  1  0.50000000  0.86478100  0.68597400  1
  O  O6  1  0.00000000  0.61317700  0.81172700  1
  O  O7  1  0.00000000  0.62227500  0.29440500  1
  O  O8  1  0.50000000  0.13521900  0.31402600  1
  O  O9  1  0.50000000  0.14277700  0.81533100  1
  O  O10  1  0.00000000  0.86579000  0.44483300  1
  O  O11  1  0.00000000  0.87214100  0.95839000  1
  O  O12  1  0.50000000  0.62790200  0.57276400  1
  O  O13  1  0.50000000  0.63972400  0.06889900  1
  O  O14  1  0.00000000  0.38682300  0.18827300  1
  O  O15  1  0.00000000  0.37772500  0.70559500  1
loop_
_geom_bond_atom_site_label_1
_geom_bond_atom_site_label_2
_geom_bond_distance
_geom_bond_site_symmetry_2
Li0 O8 2.008806 1_555
Li0 O14 2.118329 1_555
Li0 O14 2.118329 1_655
Li0 O0 2.197418 1_554
Li0 O2 2.199844 1_555
Li0 O2 2.199844 1_655
Li1 O3 2.023773 1_555
Li1 O3 2.023773 1_655
Li1 O9 2.129404 1_555
Li1 O1 2.137804 1_555
Li1 O15 2.203319 1_555
Li1 O15 2.203319 1_655
Li2 O10 2.024000 1_555
Li2 O8 2.066195 1_565
Li2 O8 2.066195 1_465
Li2 O4 2.303066 1_455
Li2 O4 2.303066 1_555
Li2 O2 2.514542 1_565
Li3 O3 2.024000 1_555
Li3 O5 2.066195 1_445
Li3 O5 2.066195 1_545
Li3 O9 2.303066 1_555
Li3 O9 2.303066 1_455
Li3 O11 2.514542 1_545
Li4 O10 2.023773 1_555
Li4 O10 2.023773 1_655
Li4 O4 2.129404 1_555
Li4 O12 2.137804 1_555
Li4 O7 2.203319 1_555
Li4 O7 2.203319 1_655
Li5 O5 2.008806 1_555
Li5 O6 2.118329 1_555
Li5 O6 2.118329 1_655
Li5 O13 2.197418 1_556
Li5 O11 2.199844 1_655
Li5 O11 2.199844 1_555
Li6 O14 2.075808 1_555
Li6 O6 2.075808 1_554
Li6 O13 2.196706 1_455
Li6 O13 2.196706 1_555
Li6 O0 2.196706 1_454
Li6 O0 2.196706 1_554
Li7 O12 2.137584 1_555
Li7 O12 2.137584 1_455
Li7 O1 2.137584 1_455
Li7 O1 2.137584 1_555
Li7 O15 2.261953 1_555
Li7 O7 2.261953 1_555
Li8 O10 2.102957 1_545
Li8 O10 2.102957 1_645
Li8 O3 2.102957 1_655
Li8 O3 2.102957 1_555
Li8 O5 2.147782 1_545
Li8 O8 2.147782 1_555
Mn0 O2 1.942001 1_556
Mn0 O9 1.951494 1_455
Mn0 O9 1.951494 1_555
Mn0 O0 1.959177 1_555
Mn0 O0 1.959177 1_455
Mn0 O15 1.964523 1_555
Mn1 O11 1.942001 1_554
Mn1 O4 1.951494 1_555
Mn1 O4 1.951494 1_455
Mn1 O13 1.959177 1_555
Mn1 O13 1.959177 1_455
Mn1 O7 1.964523 1_555
Co0 O3 1.795767 1_555
Co0 O8 1.980316 1_555
Co0 O8 1.980316 1_455
Co0 O1 2.074501 1_555
Co0 O1 2.074501 1_455
Co0 O14 2.386414 1_555
Co1 O2 2.012770 1_655
Co1 O2 2.012770 1_555
Co1 O11 2.012770 1_544
Co1 O11 2.012770 1_644
Co1 O4 2.172963 1_545
Co1 O9 2.172963 1_554
Co2 O10 1.795767 1_555
Co2 O5 1.980316 1_455
Co2 O5 1.980316 1_555
Co2 O12 2.074501 1_455
Co2 O12 2.074501 1_555
Co2 O6 2.386414 1_555
Co3 O14 1.949714 1_555
Co3 O14 1.949714 1_655
Co3 O1 1.974475 1_555
Co3 O7 2.043715 1_655
Co3 O7 2.043715 1_555
Co3 O13 2.202584 1_555
Co4 O6 1.949714 1_555
Co4 O6 1.949714 1_655
Co4 O12 1.974475 1_555
Co4 O15 2.043715 1_655
Co4 O15 2.043715 1_555
Co4 O0 2.202584 1_555
