# generated using pymatgen
data_SbO2
_symmetry_space_group_name_H-M   'P 1'
_cell_length_a   3.41272068
_cell_length_b   3.41272068
_cell_length_c   10.50920400
_cell_angle_alpha   90.00000000
_cell_angle_beta   90.00000000
_cell_angle_gamma   120.00001316
_symmetry_Int_Tables_number   1
_chemical_formula_structural   SbO2
_chemical_formula_sum   'Sb2 O4'
_cell_volume   105.99902842
_cell_formula_units_Z   2
loop_
 _symmetry_equiv_pos_site_id
 _symmetry_equiv_pos_as_xyz
  1  'x, y, z'
loop_
 _atom_site_type_symbol
 _atom_site_label
 _atom_site_symmetry_multiplicity
 _atom_site_fract_x
 _atom_site_fract_y
 _atom_site_fract_z
 _atom_site_occupancy
  Sb  Sb0  1  0.00000000  0.00000000  0.50000000  1
  Sb  Sb1  1  0.00000000  0.00000000  0.00000000  1
  O  O0  1  0.33333300  0.66666700  0.58875500  1
  O  O1  1  0.33333300  0.66666700  0.91124500  1
  O  O2  1  0.66666700  0.33333300  0.41124500  1
  O  O3  1  0.66666700  0.33333300  0.08875500  1
loop_
_geom_bond_atom_site_label_1
_geom_bond_atom_site_label_2
_geom_bond_distance
_geom_bond_site_symmetry_2
O0 Sb0 2.179960 1_565
O0 Sb0 2.179962 1_665
O0 Sb0 2.179962 1_555
O1 Sb1 2.179960 1_566
O1 Sb1 2.179962 1_666
O1 Sb1 2.179962 1_556
O2 Sb0 2.179960 1_655
O2 Sb0 2.179962 1_555
O2 Sb0 2.179962 1_665
O3 Sb1 2.179960 1_655
O3 Sb1 2.179962 1_665
O3 Sb1 2.179962 1_555
