# generated using pymatgen
data_Ba2CaCu(HgO3)2
_symmetry_space_group_name_H-M   'P 1'
_cell_length_a   4.27199200
_cell_length_b   4.27199200
_cell_length_c   12.08452400
_cell_angle_alpha   90.00000000
_cell_angle_beta   90.00000000
_cell_angle_gamma   90.00000000
_symmetry_Int_Tables_number   1
_chemical_formula_structural   Ba2CaCu(HgO3)2
_chemical_formula_sum   'Ba2 Ca1 Cu1 Hg2 O6'
_cell_volume   220.54154365
_cell_formula_units_Z   1
loop_
 _symmetry_equiv_pos_site_id
 _symmetry_equiv_pos_as_xyz
  1  'x, y, z'
loop_
 _atom_site_type_symbol
 _atom_site_label
 _atom_site_symmetry_multiplicity
 _atom_site_fract_x
 _atom_site_fract_y
 _atom_site_fract_z
 _atom_site_occupancy
  Ba  Ba0  1  0.50000000  0.50000000  0.19669000  1
  Ba  Ba1  1  0.50000000  0.50000000  0.80331000  1
  Ca  Ca0  1  0.50000000  0.50000000  0.50000000  1
  Cu  Cu0  1  0.00000000  0.00000000  0.00000000  1
  Hg  Hg0  1  0.00000000  0.00000000  0.36137500  1
  Hg  Hg1  1  0.00000000  0.00000000  0.63862500  1
  O  O0  1  0.00000000  0.50000000  0.37164400  1
  O  O1  1  0.00000000  0.50000000  0.62835600  1
  O  O2  1  0.50000000  0.00000000  0.37164400  1
  O  O3  1  0.50000000  0.00000000  0.62835600  1
  O  O4  1  0.00000000  0.00000000  0.14917800  1
  O  O5  1  0.00000000  0.00000000  0.85082200  1
loop_
_geom_bond_atom_site_label_1
_geom_bond_atom_site_label_2
_geom_bond_distance
_geom_bond_site_symmetry_2
Ba0 O2 3.005407 1_565
Ba0 O0 3.005407 1_655
Ba0 O0 3.005407 1_555
Ba0 O2 3.005407 1_555
Ba0 O4 3.074836 1_565
Ba0 O4 3.074836 1_655
Ba0 O4 3.074836 1_665
Ba0 O4 3.074836 1_555
Ba1 O1 3.005407 1_655
Ba1 O3 3.005407 1_555
Ba1 O3 3.005407 1_565
Ba1 O1 3.005407 1_555
Ba1 O5 3.074836 1_655
Ba1 O5 3.074836 1_565
Ba1 O5 3.074836 1_665
Ba1 O5 3.074836 1_555
Ca0 O1 2.639783 1_655
Ca0 O3 2.639783 1_555
Ca0 O3 2.639783 1_565
Ca0 O1 2.639783 1_555
Ca0 O0 2.639783 1_655
Ca0 O2 2.639783 1_565
Ca0 O0 2.639783 1_555
Ca0 O2 2.639783 1_555
Cu0 O4 1.802745 1_555
Cu0 O5 1.802745 1_554
Hg0 O2 2.139598 1_555
Hg0 O2 2.139598 1_455
Hg0 O0 2.139598 1_555
Hg0 O0 2.139598 1_545
Hg0 O4 2.564300 1_555
Hg1 O1 2.139598 1_545
Hg1 O3 2.139598 1_455
Hg1 O3 2.139598 1_555
Hg1 O1 2.139598 1_555
Hg1 O5 2.564300 1_555
