# generated using pymatgen
data_Ba3SrNb2O9
_symmetry_space_group_name_H-M   'P 1'
_cell_length_a   6.04945125
_cell_length_b   6.04938858
_cell_length_c   7.69933100
_cell_angle_alpha   90.00014732
_cell_angle_beta   89.99943256
_cell_angle_gamma   119.99941944
_symmetry_Int_Tables_number   1
_chemical_formula_structural   Ba3SrNb2O9
_chemical_formula_sum   'Ba3 Sr1 Nb2 O9'
_cell_volume   244.01337198
_cell_formula_units_Z   1
loop_
 _symmetry_equiv_pos_site_id
 _symmetry_equiv_pos_as_xyz
  1  'x, y, z'
loop_
 _atom_site_type_symbol
 _atom_site_label
 _atom_site_symmetry_multiplicity
 _atom_site_fract_x
 _atom_site_fract_y
 _atom_site_fract_z
 _atom_site_occupancy
  Ba  Ba0  1  0.00000000  0.00000000  0.00000000  1
  Ba  Ba1  1  0.33334800  0.66667400  0.70017700  1
  Ba  Ba2  1  0.66665200  0.33332600  0.29982300  1
  Sr  Sr0  1  0.00000000  0.00000000  0.50000000  1
  Nb  Nb0  1  0.33333100  0.66666500  0.16840000  1
  Nb  Nb1  1  0.66666900  0.33333500  0.83160000  1
  O  O0  1  0.64569900  0.82284500  0.30068900  1
  O  O1  1  0.17716300  0.82285300  0.30069300  1
  O  O2  1  0.17716000  0.35430300  0.30069300  1
  O  O3  1  0.35430100  0.17715500  0.69931100  1
  O  O4  1  0.82283700  0.17714700  0.69930700  1
  O  O5  1  0.82284000  0.64569700  0.69930700  1
  O  O6  1  0.50000000  0.50000000  0.00000000  1
  O  O7  1  0.50000000  0.00000000  0.00000000  1
  O  O8  1  0.00000000  0.50000000  0.00000000  1
loop_
_geom_bond_atom_site_label_1
_geom_bond_atom_site_label_2
_geom_bond_distance
_geom_bond_site_symmetry_2
Ba0 O0 2.967330 1_445
Ba0 O3 2.967330 1_554
Ba0 O2 2.967367 1_555
Ba0 O5 2.967367 1_444
Ba0 O1 2.967392 1_545
Ba0 O4 2.967392 1_454
Ba0 O8 3.024694 1_555
Ba0 O8 3.024694 1_545
Ba0 O7 3.024726 1_555
Ba0 O7 3.024726 1_455
Ba0 O6 3.024737 1_445
Ba0 O6 3.024737 1_555
Ba1 O7 2.894546 1_566
Ba1 O6 2.894548 1_556
Ba1 O8 2.894608 1_556
Ba1 O5 3.026609 1_555
Ba1 O4 3.026625 1_565
Ba1 O3 3.026665 1_555
Ba1 O3 3.026721 1_565
Ba1 O5 3.026849 1_455
Ba1 O4 3.026857 1_455
Ba2 O7 2.894546 1_555
Ba2 O6 2.894548 1_555
Ba2 O8 2.894608 1_655
Ba2 O2 3.026609 1_555
Ba2 O1 3.026625 1_545
Ba2 O0 3.026665 1_555
Ba2 O0 3.026721 1_545
Ba2 O2 3.026849 1_655
Ba2 O1 3.026857 1_655
Nb0 O1 1.927512 1_555
Nb0 O2 1.927548 1_555
Nb0 O0 1.927584 1_555
Nb0 O6 2.175011 1_555
Nb0 O7 2.175025 1_565
Nb0 O8 2.175036 1_555
Nb1 O4 1.927512 1_555
Nb1 O5 1.927548 1_555
Nb1 O3 1.927584 1_555
Nb1 O6 2.175011 1_556
Nb1 O7 2.175025 1_556
Nb1 O8 2.175036 1_656
O0 Sr0 2.408394 1_665
O1 Sr0 2.408371 1_565
O2 Sr0 2.408353 1_555
O3 Sr0 2.408394 1_555
O4 Sr0 2.408371 1_655
O5 Sr0 2.408353 1_665
