# generated using pymatgen
data_DySi3Ir
_symmetry_space_group_name_H-M   'P 1'
_cell_length_a   5.70865167
_cell_length_b   5.70865167
_cell_length_c   5.70865167
_cell_angle_alpha   137.16507379
_cell_angle_beta   137.16507379
_cell_angle_gamma   62.18416398
_symmetry_Int_Tables_number   1
_chemical_formula_structural   DySi3Ir
_chemical_formula_sum   'Dy1 Si3 Ir1'
_cell_volume   84.97159279
_cell_formula_units_Z   1
loop_
 _symmetry_equiv_pos_site_id
 _symmetry_equiv_pos_as_xyz
  1  'x, y, z'
loop_
 _atom_site_type_symbol
 _atom_site_label
 _atom_site_symmetry_multiplicity
 _atom_site_fract_x
 _atom_site_fract_y
 _atom_site_fract_z
 _atom_site_occupancy
  Dy  Dy0  1  0.00213684  0.00213684  0.00000000  1
  Si  Si0  1  0.41866306  0.41866306  -0.00000000  1
  Si  Si1  1  0.26902506  0.76902506  0.50000000  1
  Si  Si2  1  0.76902506  0.26902506  0.50000000  1
  Ir  Ir0  1  0.65615199  0.65615199  -0.00000000  1
loop_
_geom_bond_atom_site_label_1
_geom_bond_atom_site_label_2
_geom_bond_distance
_geom_bond_site_symmetry_2
Dy0 Si0 3.058916 1_556
Dy0 Si0 3.058916 1_455
Dy0 Si0 3.058916 1_545
Dy0 Si0 3.058916 1_444
Dy0 Si1 3.088686 1_545
Dy0 Si2 3.088686 1_455
Dy0 Si1 3.088686 1_444
Dy0 Si2 3.088686 1_444
Dy0 Ir0 3.310346 1_545
Dy0 Ir0 3.310346 1_444
Dy0 Ir0 3.310346 1_455
Dy0 Ir0 3.310346 1_556
Dy0 Si2 3.339812 1_454
Dy0 Si2 3.339812 1_555
Dy0 Si1 3.339812 1_544
Dy0 Si1 3.339812 1_555
Si0 Si1 2.546740 1_544
Si0 Si2 2.546740 1_454
Si0 Si2 2.546740 1_555
Si0 Si1 2.546740 1_555
Ir0 Si0 2.321947 1_555
Ir0 Si1 2.358668 1_655
Ir0 Si2 2.358668 1_565
Ir0 Si1 2.358668 1_554
Ir0 Si2 2.358668 1_554
