# generated using pymatgen
data_CoHO2
_symmetry_space_group_name_H-M   'P 1'
_cell_length_a   4.94574555
_cell_length_b   6.16244517
_cell_length_c   5.10196877
_cell_angle_alpha   94.84531948
_cell_angle_beta   95.04877089
_cell_angle_gamma   113.46248532
_symmetry_Int_Tables_number   1
_chemical_formula_structural   CoHO2
_chemical_formula_sum   'Co4 H4 O8'
_cell_volume   140.86704821
_cell_formula_units_Z   4
loop_
 _symmetry_equiv_pos_site_id
 _symmetry_equiv_pos_as_xyz
  1  'x, y, z'
loop_
 _atom_site_type_symbol
 _atom_site_label
 _atom_site_symmetry_multiplicity
 _atom_site_fract_x
 _atom_site_fract_y
 _atom_site_fract_z
 _atom_site_occupancy
  Co  Co0  1  0.99978100  0.75003800  0.50033700  1
  Co  Co1  1  0.00373200  0.49334400  0.99553300  1
  Co  Co2  1  0.00022800  0.25065300  0.50020400  1
  Co  Co3  1  0.99563900  0.00727700  0.00355900  1
  H  H0  1  0.46067100  0.11078500  0.74668900  1
  H  H1  1  0.54134700  0.63950200  0.75370000  1
  H  H2  1  0.45772000  0.86021900  0.24628500  1
  H  H3  1  0.53960000  0.38845400  0.25408300  1
  O  O0  1  0.22740100  0.05179500  0.70937300  1
  O  O1  1  0.21717800  0.55490100  0.70020300  1
  O  O2  1  0.22586700  0.80220900  0.20556000  1
  O  O3  1  0.21933000  0.30754500  0.20341300  1
  O  O4  1  0.78104900  0.19430100  0.79476100  1
  O  O5  1  0.77360200  0.69757900  0.79488500  1
  O  O6  1  0.78389300  0.94434500  0.29902200  1
  O  O7  1  0.77296300  0.44705300  0.29239200  1
loop_
_geom_bond_atom_site_label_1
_geom_bond_atom_site_label_2
_geom_bond_distance
_geom_bond_site_symmetry_2
Co0 O0 1.910335 1_665
Co0 O7 1.912635 1_555
Co0 O5 1.924615 1_555
Co0 O2 1.925332 1_655
Co0 O6 2.159068 1_555
Co0 O1 2.164634 1_655
Co1 O4 1.877403 1_455
Co1 O1 1.893746 1_555
Co1 O2 1.939361 1_556
Co1 O7 1.948303 1_456
Co1 O3 2.133330 1_556
Co1 O5 2.254037 1_455
Co2 O1 1.894712 1_555
Co2 O4 1.905062 1_455
Co2 O6 1.905927 1_445
Co2 O3 1.914673 1_555
Co2 O7 2.223201 1_455
Co2 O0 2.238124 1_555
Co3 O3 1.881531 1_655
Co3 O6 1.890161 1_545
Co3 O5 1.940063 1_544
Co3 O0 1.940069 1_654
Co3 O4 2.138211 1_554
Co3 O2 2.261624 1_645
H0 O0 1.055979 1_555
H0 O4 1.447965 1_555
H1 O5 1.053160 1_555
H1 O1 1.466317 1_555
H2 O2 1.051167 1_555
H2 O6 1.475658 1_555
H3 O7 1.056961 1_555
H3 O3 1.449713 1_555
