# generated using pymatgen
data_AlFe4(CuO4)3
_symmetry_space_group_name_H-M   'P 1'
_cell_length_a   6.42450034
_cell_length_b   6.42450034
_cell_length_c   6.42450034
_cell_angle_alpha   109.47122063
_cell_angle_beta   109.47122063
_cell_angle_gamma   109.47122063
_symmetry_Int_Tables_number   1
_chemical_formula_structural   AlFe4(CuO4)3
_chemical_formula_sum   'Al1 Fe4 Cu3 O12'
_cell_volume   204.12499086
_cell_formula_units_Z   1
loop_
 _symmetry_equiv_pos_site_id
 _symmetry_equiv_pos_as_xyz
  1  'x, y, z'
loop_
 _atom_site_type_symbol
 _atom_site_label
 _atom_site_symmetry_multiplicity
 _atom_site_fract_x
 _atom_site_fract_y
 _atom_site_fract_z
 _atom_site_occupancy
  Al  Al0  1  0.00000000  0.00000000  0.00000000  1
  Fe  Fe0  1  0.00000000  0.00000000  0.50000000  1
  Fe  Fe1  1  0.00000000  0.50000000  0.00000000  1
  Fe  Fe2  1  0.50000000  0.00000000  0.00000000  1
  Fe  Fe3  1  0.50000000  0.50000000  0.50000000  1
  Cu  Cu0  1  0.00000000  0.50000000  0.50000000  1
  Cu  Cu1  1  0.50000000  0.00000000  0.50000000  1
  Cu  Cu2  1  0.50000000  0.50000000  0.00000000  1
  O  O0  1  0.30537600  0.14306000  0.83768400  1
  O  O1  1  0.69462400  0.85694000  0.16231600  1
  O  O2  1  0.69462400  0.53230800  0.83768400  1
  O  O3  1  0.46769200  0.16231600  0.30537600  1
  O  O4  1  0.16231600  0.30537600  0.46769200  1
  O  O5  1  0.83768400  0.30537600  0.14306000  1
  O  O6  1  0.85694000  0.16231600  0.69462400  1
  O  O7  1  0.83768400  0.69462400  0.53230800  1
  O  O8  1  0.30537600  0.46769200  0.16231600  1
  O  O9  1  0.53230800  0.83768400  0.69462400  1
  O  O10  1  0.16231600  0.69462400  0.85694000  1
  O  O11  1  0.14306000  0.83768400  0.30537600  1
loop_
_geom_bond_atom_site_label_1
_geom_bond_atom_site_label_2
_geom_bond_distance
_geom_bond_site_symmetry_2
Al0 O1 2.565524 1_445
Al0 O6 2.565524 1_454
Al0 O7 2.565524 1_444
Al0 O10 2.565524 1_544
Al0 O8 2.565524 1_555
Al0 O9 2.565524 1_444
Al0 O4 2.565524 1_555
Al0 O3 2.565524 1_555
Al0 O2 2.565524 1_444
Al0 O0 2.565524 1_554
Al0 O5 2.565524 1_455
Al0 O11 2.565524 1_545
Fe0 O4 2.007832 1_555
Fe0 O7 2.007832 1_445
Fe0 O6 2.007832 1_455
Fe0 O1 2.007832 1_445
Fe0 O0 2.007832 1_555
Fe0 O11 2.007832 1_545
Fe1 O2 2.007832 1_454
Fe1 O10 2.007832 1_554
Fe1 O6 2.007832 1_454
Fe1 O8 2.007832 1_555
Fe1 O11 2.007832 1_555
Fe1 O5 2.007832 1_455
Fe2 O9 2.007832 1_544
Fe2 O5 2.007832 1_555
Fe2 O10 2.007832 1_544
Fe2 O1 2.007832 1_545
Fe2 O3 2.007832 1_555
Fe2 O0 2.007832 1_554
Fe3 O8 2.007832 1_555
Fe3 O3 2.007832 1_555
Fe3 O2 2.007832 1_555
Fe3 O9 2.007832 1_555
Fe3 O7 2.007832 1_555
Fe3 O4 2.007832 1_555
Cu0 O5 1.880012 1_455
Cu0 O7 1.880012 1_455
Cu0 O4 1.880012 1_555
Cu0 O10 1.880012 1_555
Cu1 O11 1.880012 1_545
Cu1 O3 1.880012 1_555
Cu1 O9 1.880012 1_545
Cu1 O6 1.880012 1_555
Cu2 O0 1.880012 1_554
Cu2 O2 1.880012 1_554
Cu2 O1 1.880012 1_555
Cu2 O8 1.880012 1_555
