# generated using pymatgen
data_PrPOs2C
_symmetry_space_group_name_H-M   'P 1'
_cell_length_a   5.87434922
_cell_length_b   5.87434922
_cell_length_c   7.14721800
_cell_angle_alpha   90.00000000
_cell_angle_beta   90.00000000
_cell_angle_gamma   140.53883479
_symmetry_Int_Tables_number   1
_chemical_formula_structural   PrPOs2C
_chemical_formula_sum   'Pr2 P2 Os4 C2'
_cell_volume   156.75079036
_cell_formula_units_Z   2
loop_
 _symmetry_equiv_pos_site_id
 _symmetry_equiv_pos_as_xyz
  1  'x, y, z'
loop_
 _atom_site_type_symbol
 _atom_site_label
 _atom_site_symmetry_multiplicity
 _atom_site_fract_x
 _atom_site_fract_y
 _atom_site_fract_z
 _atom_site_occupancy
  Pr  Pr0  1  0.54599600  0.45400400  0.25000000  1
  Pr  Pr1  1  0.45400400  0.54599600  0.75000000  1
  P  P0  1  0.26978400  0.73021600  0.25000000  1
  P  P1  1  0.73021600  0.26978400  0.75000000  1
  Os  Os0  1  0.83220900  0.16779100  0.05354200  1
  Os  Os1  1  0.16779100  0.83220900  0.94645800  1
  Os  Os2  1  0.16779100  0.83220900  0.55354200  1
  Os  Os3  1  0.83220900  0.16779100  0.44645800  1
  C  C0  1  0.00000000  0.00000000  0.00000000  1
  C  C1  1  0.00000000  0.00000000  0.50000000  1
loop_
_geom_bond_atom_site_label_1
_geom_bond_atom_site_label_2
_geom_bond_distance
_geom_bond_site_symmetry_2
P0 Pr0 3.054611 1_555
P0 Pr0 3.171415 1_455
P0 Pr0 3.171415 1_565
P1 Pr1 3.054611 1_555
P1 Pr1 3.171415 1_545
P1 Pr1 3.171415 1_655
Os0 P1 2.445175 1_554
Os0 P0 2.526087 1_545
Os0 P0 2.526087 1_655
Os1 P0 2.445175 1_556
Os1 P1 2.526087 1_455
Os1 P1 2.526087 1_565
Os2 P0 2.445175 1_555
Os2 P1 2.526087 1_455
Os2 P1 2.526087 1_565
Os3 P1 2.445175 1_555
Os3 P0 2.526087 1_655
Os3 P0 2.526087 1_545
C0 Os0 1.894639 1_455
C0 Os1 1.894639 1_544
C0 Pr1 2.717419 1_444
C0 Pr0 2.717419 1_445
C0 Pr1 2.717419 1_554
C0 Pr0 2.717419 1_555
C1 Os3 1.894639 1_455
C1 Os2 1.894639 1_545
C1 Pr0 2.717419 1_445
C1 Pr1 2.717419 1_445
C1 Pr0 2.717419 1_555
C1 Pr1 2.717419 1_555
