# generated using pymatgen
data_Ba3(CrN2)2
_symmetry_space_group_name_H-M   'P 1'
_cell_length_a   7.71859957
_cell_length_b   8.97219281
_cell_length_c   5.78108496
_cell_angle_alpha   89.99999700
_cell_angle_beta   91.54336664
_cell_angle_gamma   125.53541401
_symmetry_Int_Tables_number   1
_chemical_formula_structural   Ba3(CrN2)2
_chemical_formula_sum   'Ba6 Cr4 N8'
_cell_volume   325.61386518
_cell_formula_units_Z   2
loop_
 _symmetry_equiv_pos_site_id
 _symmetry_equiv_pos_as_xyz
  1  'x, y, z'
loop_
 _atom_site_type_symbol
 _atom_site_label
 _atom_site_symmetry_multiplicity
 _atom_site_fract_x
 _atom_site_fract_y
 _atom_site_fract_z
 _atom_site_occupancy
  Ba  Ba0  1  0.25662800  0.99731100  0.05866300  1
  Ba  Ba1  1  0.74337200  0.74068300  0.44133700  1
  Ba  Ba2  1  0.74337200  0.00268900  0.94133700  1
  Ba  Ba3  1  0.25662800  0.25931700  0.55866300  1
  Ba  Ba4  1  0.00000000  0.59932500  0.75000000  1
  Ba  Ba5  1  0.00000000  0.40067500  0.25000000  1
  Cr  Cr0  1  0.57248400  0.16308500  0.56064900  1
  Cr  Cr1  1  0.42751600  0.59060000  0.93935100  1
  Cr  Cr2  1  0.42751600  0.83691500  0.43935100  1
  Cr  Cr3  1  0.57248400  0.40940000  0.06064900  1
  N  N0  1  0.29212600  0.95077600  0.53357900  1
  N  N1  1  0.70787400  0.65865000  0.96642100  1
  N  N2  1  0.70787400  0.04922400  0.46642100  1
  N  N3  1  0.29212600  0.34135000  0.03357900  1
  N  N4  1  0.61380800  0.27623400  0.85044000  1
  N  N5  1  0.38619200  0.66242500  0.64956000  1
  N  N6  1  0.38619200  0.72376600  0.14956000  1
  N  N7  1  0.61380800  0.33757500  0.35044000  1
loop_
_geom_bond_atom_site_label_1
_geom_bond_atom_site_label_2
_geom_bond_distance
_geom_bond_site_symmetry_2
Ba0 N4 2.733371 1_564
Ba0 N0 2.807096 1_555
Ba0 N3 2.939958 1_565
Ba0 N0 3.105121 1_554
Ba0 N7 3.119625 1_565
Ba0 N6 3.181913 1_555
Ba0 N1 3.517882 1_454
Ba1 N5 2.733368 1_555
Ba1 N1 2.807096 1_554
Ba1 N2 2.939958 1_565
Ba1 N1 3.105120 1_555
Ba1 N6 3.119621 1_555
Ba1 N7 3.181904 1_555
Ba1 N0 3.517882 1_655
Ba2 N6 2.733371 1_546
Ba2 N2 2.807096 1_555
Ba2 N1 2.939958 1_545
Ba2 N2 3.105121 1_556
Ba2 N5 3.119625 1_545
Ba2 N4 3.181913 1_555
Ba2 N3 3.517882 1_656
Ba3 N7 2.733368 1_555
Ba3 N3 2.807096 1_556
Ba3 N0 2.939958 1_545
Ba3 N3 3.105120 1_555
Ba3 N4 3.119621 1_555
Ba3 N5 3.181904 1_555
Ba3 N2 3.517882 1_455
Ba4 N4 2.770332 1_455
Ba4 N5 2.770336 1_555
Ba4 N0 2.912025 1_555
Ba4 N1 2.912025 1_455
Ba5 N6 2.770332 1_555
Ba5 N7 2.770336 1_455
Ba5 N2 2.912025 1_455
Ba5 N3 2.912025 1_555
Cr0 N7 1.862775 1_555
Cr0 N0 1.877764 1_545
Cr0 N4 1.879847 1_555
Cr0 N2 1.924596 1_555
Cr1 N6 1.862775 1_556
Cr1 N1 1.877761 1_555
Cr1 N5 1.879847 1_555
Cr1 N3 1.924588 1_556
Cr2 N5 1.862775 1_555
Cr2 N2 1.877764 1_565
Cr2 N6 1.879847 1_555
Cr2 N0 1.924596 1_555
Cr3 N4 1.862775 1_554
Cr3 N3 1.877761 1_555
Cr3 N7 1.879847 1_555
Cr3 N1 1.924588 1_554
