# generated using pymatgen
data_La2(TlSn)3
_symmetry_space_group_name_H-M   'P 1'
_cell_length_a   4.78941752
_cell_length_b   4.82027173
_cell_length_c   9.80748521
_cell_angle_alpha   90.00000000
_cell_angle_beta   90.00000000
_cell_angle_gamma   90.00000000
_symmetry_Int_Tables_number   1
_chemical_formula_structural   La2(TlSn)3
_chemical_formula_sum   'La2 Tl3 Sn3'
_cell_volume   226.41848573
_cell_formula_units_Z   1
loop_
 _symmetry_equiv_pos_site_id
 _symmetry_equiv_pos_as_xyz
  1  'x, y, z'
loop_
 _atom_site_type_symbol
 _atom_site_label
 _atom_site_symmetry_multiplicity
 _atom_site_fract_x
 _atom_site_fract_y
 _atom_site_fract_z
 _atom_site_occupancy
  La  La0  1  -0.00000000  -0.00000000  0.25812142  1
  La  La1  1  -0.00000000  -0.00000000  0.74187858  1
  Tl  Tl0  1  -0.00000000  0.50000000  -0.00000000  1
  Tl  Tl1  1  0.50000000  -0.00000000  0.50000000  1
  Tl  Tl2  1  0.50000000  -0.00000000  -0.00000000  1
  Sn  Sn0  1  0.50000000  0.50000000  0.25501699  1
  Sn  Sn1  1  0.50000000  0.50000000  0.74498301  1
  Sn  Sn2  1  -0.00000000  0.50000000  0.50000000  1
loop_
_geom_bond_atom_site_label_1
_geom_bond_atom_site_label_2
_geom_bond_distance
_geom_bond_site_symmetry_2
La0 Tl1 3.370766 1_555
La0 Tl1 3.370766 1_455
La0 Sn2 3.381743 1_545
La0 Sn2 3.381743 1_555
La0 Sn0 3.397692 1_445
La0 Sn0 3.397692 1_555
La0 Sn0 3.397692 1_455
La0 Sn0 3.397692 1_545
La0 Tl2 3.484714 1_555
La0 Tl2 3.484714 1_455
La0 Tl0 3.495334 1_545
La0 Tl0 3.495334 1_555
La1 Tl1 3.370766 1_455
La1 Tl1 3.370766 1_555
La1 Sn2 3.381743 1_545
La1 Sn2 3.381743 1_555
La1 Sn1 3.397692 1_445
La1 Sn1 3.397692 1_555
La1 Sn1 3.397692 1_455
La1 Sn1 3.397692 1_545
La1 Tl2 3.484714 1_556
La1 Tl2 3.484714 1_456
La1 Tl0 3.495334 1_546
La1 Tl0 3.495334 1_556
Tl0 Tl2 3.397556 1_555
Tl0 Tl2 3.397556 1_565
Tl0 Tl2 3.397556 1_465
Tl0 Tl2 3.397556 1_455
Sn0 Sn2 3.392262 1_555
Sn0 Sn2 3.392262 1_655
Sn0 Tl1 3.403170 1_555
Sn0 Tl1 3.403170 1_565
Sn0 Tl0 3.462659 1_555
Sn0 Tl0 3.462659 1_655
Sn0 Tl2 3.473346 1_555
Sn0 Tl2 3.473346 1_565
Sn1 Sn2 3.392262 1_555
Sn1 Sn2 3.392262 1_655
Sn1 Tl1 3.403170 1_555
Sn1 Tl1 3.403170 1_565
Sn1 Tl0 3.462659 1_556
Sn1 Tl0 3.462659 1_656
Sn1 Tl2 3.473346 1_556
Sn1 Tl2 3.473346 1_566
Sn2 Tl1 3.397556 1_555
Sn2 Tl1 3.397556 1_565
Sn2 Tl1 3.397556 1_465
Sn2 Tl1 3.397556 1_455
