# generated using pymatgen
data_MgSi
_symmetry_space_group_name_H-M   'P 1'
_cell_length_a   5.56004800
_cell_length_b   5.93501574
_cell_length_c   13.81718030
_cell_angle_alpha   97.80358892
_cell_angle_beta   94.69959580
_cell_angle_gamma   89.50138177
_symmetry_Int_Tables_number   1
_chemical_formula_structural   MgSi
_chemical_formula_sum   'Mg12 Si12'
_cell_volume   450.21023903
_cell_formula_units_Z   12
loop_
 _symmetry_equiv_pos_site_id
 _symmetry_equiv_pos_as_xyz
  1  'x, y, z'
loop_
 _atom_site_type_symbol
 _atom_site_label
 _atom_site_symmetry_multiplicity
 _atom_site_fract_x
 _atom_site_fract_y
 _atom_site_fract_z
 _atom_site_occupancy
  Mg  Mg0  1  0.78020000  0.14470900  0.99373800  1
  Mg  Mg1  1  0.89714800  0.13224200  0.65768800  1
  Mg  Mg2  1  0.04944800  0.94239600  0.31647100  1
  Mg  Mg3  1  0.60504700  0.64384500  0.98021800  1
  Mg  Mg4  1  0.80068800  0.63134800  0.65437500  1
  Mg  Mg5  1  0.48792200  0.41796300  0.31627700  1
  Mg  Mg6  1  0.08178900  0.71552300  0.84981600  1
  Mg  Mg7  1  0.25521100  0.19107000  0.51427100  1
  Mg  Mg8  1  0.95993400  0.39915800  0.18684800  1
  Mg  Mg9  1  0.22226400  0.21532800  0.84977900  1
  Mg  Mg10  1  0.38288500  0.68877000  0.50682700  1
  Mg  Mg11  1  0.52012200  0.87856000  0.18244100  1
  Si  Si0  1  0.28077600  0.00771600  0.01898300  1
  Si  Si1  1  0.32963300  0.87506800  0.69397000  1
  Si  Si2  1  0.55094800  0.96293400  0.37924000  1
  Si  Si3  1  0.12136600  0.50349200  0.01846100  1
  Si  Si4  1  0.30964900  0.46428100  0.69234400  1
  Si  Si5  1  0.01615400  0.46434900  0.38263700  1
  Si  Si6  1  0.66487200  0.39529900  0.80434000  1
  Si  Si7  1  0.88093300  0.82852700  0.48475500  1
  Si  Si8  1  0.46073300  0.36422400  0.11962500  1
  Si  Si9  1  0.67913700  0.97981500  0.80721600  1
  Si  Si10  1  0.74095500  0.30788700  0.48415000  1
  Si  Si11  1  0.99210000  0.85789300  0.11787900  1
loop_
_geom_bond_atom_site_label_1
_geom_bond_atom_site_label_2
_geom_bond_distance
_geom_bond_site_symmetry_2
Mg0 Si9 2.646292 1_545
Mg0 Si11 2.766731 1_546
Mg0 Si8 2.780029 1_556
Mg0 Si3 2.831216 1_656
Mg0 Si0 2.899591 1_656
Mg0 Si0 2.961164 1_556
Mg1 Si9 2.737392 1_545
Mg1 Si6 2.783159 1_555
Mg1 Si7 2.786520 1_545
Mg1 Si10 2.812860 1_555
Mg1 Si1 2.882648 1_645
Mg1 Si4 3.002581 1_655
Mg2 Si11 2.714468 1_455
Mg2 Si7 2.745168 1_455
Mg2 Si2 2.850081 1_555
Mg2 Si2 2.967928 1_455
Mg2 Si5 3.108235 1_555
Mg2 Si5 3.116909 1_565
Mg3 Si6 2.709735 1_555
Mg3 Si0 2.824485 1_566
Mg3 Si8 2.872761 1_556
Mg3 Si11 2.929795 1_556
Mg3 Si3 2.932023 1_556
Mg3 Si3 3.007274 1_656
Mg4 Si6 2.808843 1_555
Mg4 Si10 2.825723 1_555
Mg4 Si7 2.826056 1_555
Mg4 Si9 2.866592 1_555
Mg4 Si4 3.019202 1_655
Mg4 Si4 3.022494 1_555
Mg4 Si1 3.034008 1_555
Mg5 Si8 2.684366 1_555
Mg5 Si10 2.765340 1_555
Mg5 Si5 2.847790 1_555
Mg5 Si2 2.957109 1_545
Mg5 Si5 3.007774 1_655
Mg5 Si2 3.247572 1_555
Mg6 Si3 2.787344 1_556
Mg6 Si9 2.791529 1_455
Mg6 Si4 2.846136 1_555
Mg6 Si0 2.864228 1_566
Mg6 Si1 2.914646 1_555
Mg6 Si6 2.982290 1_455
Mg7 Si4 2.752799 1_555
Mg7 Si2 2.792136 1_545
Mg7 Si5 2.841265 1_555
Mg7 Si10 2.871085 1_555
Mg7 Si10 2.945891 1_455
Mg7 Si7 2.971073 1_445
Mg8 Si5 2.673032 1_655
Mg8 Si3 2.710239 1_655
Mg8 Si8 2.853917 1_555
Mg8 Si8 3.003402 1_655
Mg8 Si11 3.015563 1_555
Mg8 Si11 3.232081 1_545
Mg9 Si0 2.782204 1_556
Mg9 Si3 2.790522 1_556
Mg9 Si6 2.841172 1_555
Mg9 Si1 2.842233 1_545
Mg9 Si4 2.865247 1_555
Mg9 Si9 2.951644 1_545
Mg10 Si1 2.709218 1_555
Mg10 Si2 2.775608 1_555
Mg10 Si5 2.780205 1_555
Mg10 Si7 2.908426 1_455
Mg10 Si7 2.948962 1_555
Mg10 Mg5 2.990446 1_555
Mg10 Si10 3.000570 1_555
Mg10 Mg4 3.011252 1_555
Mg10 Mg7 3.048552 1_565
Mg10 Mg7 3.061166 1_555
Mg10 Si4 3.101528 1_555
Mg11 Si2 2.688788 1_555
Mg11 Si0 2.723853 1_565
Mg11 Si11 2.836484 1_555
Mg11 Si11 2.996217 1_455
Mg11 Si8 3.071120 1_555
Mg11 Si8 3.128348 1_565
Si0 Si11 2.438911 1_445
Si0 Si8 2.534103 1_555
Si1 Si9 2.422759 1_555
Si1 Si4 2.438495 1_555
Si2 Si7 2.445432 1_555
Si3 Si8 2.460048 1_555
Si4 Si6 2.473919 1_555
Si5 Si7 2.558353 1_455
Si6 Si9 2.472093 1_545
Si10 Si5 2.429204 1_655
Si10 Si2 2.527759 1_545
Si11 Si3 2.485677 1_655
