# generated using pymatgen
data_CaV2O5
_symmetry_space_group_name_H-M   'P 1'
_cell_length_a   3.57288674
_cell_length_b   4.95768677
_cell_length_c   11.33323041
_cell_angle_alpha   90.00000000
_cell_angle_beta   90.00000000
_cell_angle_gamma   90.00000000
_symmetry_Int_Tables_number   1
_chemical_formula_structural   CaV2O5
_chemical_formula_sum   'Ca2 V4 O10'
_cell_volume   200.74838120
_cell_formula_units_Z   2
loop_
 _symmetry_equiv_pos_site_id
 _symmetry_equiv_pos_as_xyz
  1  'x, y, z'
loop_
 _atom_site_type_symbol
 _atom_site_label
 _atom_site_symmetry_multiplicity
 _atom_site_fract_x
 _atom_site_fract_y
 _atom_site_fract_z
 _atom_site_occupancy
  Ca  Ca0  1  0.75000000  0.85022625  0.25000000  1
  Ca  Ca1  1  0.24999900  0.14977275  0.75000000  1
  V  V0  1  0.24999900  0.38756188  0.09654284  1
  V  V1  1  0.75000000  0.61243712  0.90345716  1
  V  V2  1  0.75000000  0.61243712  0.59654284  1
  V  V3  1  0.24999900  0.38756188  0.40345716  1
  O  O0  1  0.75000000  0.45144397  0.75000000  1
  O  O1  1  0.24999900  0.54855503  0.25000000  1
  O  O2  1  0.75000000  0.53318238  0.07433286  1
  O  O3  1  0.24999900  0.46681862  0.92566614  1
  O  O4  1  0.75000000  0.53318238  0.42566614  1
  O  O5  1  0.24999900  0.46681862  0.57433386  1
  O  O6  1  0.24999900  0.05771589  0.37616561  1
  O  O7  1  0.75000000  0.94228511  0.62383439  1
  O  O8  1  0.75000000  0.94228511  0.87616461  1
  O  O9  1  0.24999900  0.05771589  0.12383539  1
loop_
_geom_bond_atom_site_label_1
_geom_bond_atom_site_label_2
_geom_bond_distance
_geom_bond_site_symmetry_2
Ca0 O1 2.329841 1_655
Ca0 O1 2.329847 1_555
Ca0 O9 2.508786 1_665
Ca0 O9 2.508791 1_565
Ca0 O6 2.508792 1_665
Ca0 O6 2.508797 1_565
Ca0 O4 2.536555 1_555
Ca0 O2 2.536564 1_555
Ca1 O0 2.329841 1_455
Ca1 O0 2.329847 1_555
Ca1 O8 2.508781 1_445
Ca1 O8 2.508787 1_545
Ca1 O7 2.508788 1_445
Ca1 O7 2.508793 1_545
Ca1 O5 2.536561 1_555
Ca1 O3 2.536561 1_555
O0 V1 1.913569 1_555
O0 V2 1.913569 1_555
O1 V3 1.913569 1_555
O1 V0 1.913569 1_555
O2 V0 1.943174 1_655
O2 V0 1.943180 1_555
O2 V1 1.976032 1_554
O3 V1 1.943169 1_455
O3 V1 1.943175 1_555
O3 V0 1.976045 1_556
O4 V3 1.943172 1_655
O4 V3 1.943179 1_555
O4 V2 1.976043 1_555
O5 V2 1.943169 1_455
O5 V2 1.943175 1_555
O5 V3 1.976045 1_555
O6 V3 1.664267 1_555
O7 V2 1.664277 1_555
O8 V1 1.664279 1_555
O9 V0 1.664269 1_555
