# generated using pymatgen
data_SmGdS3
_symmetry_space_group_name_H-M   'P 1'
_cell_length_a   3.96655604
_cell_length_b   7.40210746
_cell_length_c   15.38183537
_cell_angle_alpha   90.00000000
_cell_angle_beta   90.00000000
_cell_angle_gamma   90.00000000
_symmetry_Int_Tables_number   1
_chemical_formula_structural   SmGdS3
_chemical_formula_sum   'Sm4 Gd4 S12'
_cell_volume   451.62413102
_cell_formula_units_Z   4
loop_
 _symmetry_equiv_pos_site_id
 _symmetry_equiv_pos_as_xyz
  1  'x, y, z'
loop_
 _atom_site_type_symbol
 _atom_site_label
 _atom_site_symmetry_multiplicity
 _atom_site_fract_x
 _atom_site_fract_y
 _atom_site_fract_z
 _atom_site_occupancy
  Sm  Sm0  1  0.25000000  0.14269269  0.79637092  1
  Sm  Sm1  1  0.25000000  0.64269269  0.70362908  1
  Sm  Sm2  1  0.75000000  0.85730731  0.20362908  1
  Sm  Sm3  1  0.75000000  0.35730731  0.29637092  1
  Gd  Gd0  1  0.25000000  0.76696974  0.45677528  1
  Gd  Gd1  1  0.25000000  0.26696974  0.04322472  1
  Gd  Gd2  1  0.75000000  0.23303026  0.54322472  1
  Gd  Gd3  1  0.75000000  0.73303026  0.95677528  1
  S  S0  1  0.25000000  0.14886143  0.21768866  1
  S  S1  1  0.25000000  0.64886143  0.28231134  1
  S  S2  1  0.75000000  0.85113857  0.78231134  1
  S  S3  1  0.75000000  0.35113857  0.71768866  1
  S  S4  1  0.25000000  0.01021422  0.60750403  1
  S  S5  1  0.25000000  0.51021422  0.89249597  1
  S  S6  1  0.75000000  0.98978578  0.39249597  1
  S  S7  1  0.75000000  0.48978578  0.10750403  1
  S  S8  1  0.25000000  0.37461211  0.43426219  1
  S  S9  1  0.25000000  0.87461211  0.06573781  1
  S  S10  1  0.75000000  0.62538789  0.56573781  1
  S  S11  1  0.75000000  0.12538789  0.93426219  1
loop_
_geom_bond_atom_site_label_1
_geom_bond_atom_site_label_2
_geom_bond_distance
_geom_bond_site_symmetry_2
Gd0 S6 2.762463 1_555
Gd0 S6 2.762463 1_455
Gd0 S10 2.800148 1_555
Gd0 S10 2.800148 1_455
Gd0 S1 2.822391 1_555
Gd0 S8 2.924846 1_555
Gd0 S4 2.935515 1_565
Gd1 S7 2.762463 1_555
Gd1 S7 2.762463 1_455
Gd1 S11 2.800148 1_554
Gd1 S11 2.800148 1_454
Gd1 S0 2.822391 1_555
Gd1 S9 2.924846 1_545
Gd1 S5 2.935515 1_554
Gd2 S4 2.762463 1_655
Gd2 S4 2.762463 1_555
Gd2 S8 2.800148 1_555
Gd2 S8 2.800148 1_655
Gd2 S3 2.822391 1_555
Gd2 S10 2.924846 1_555
Gd2 S6 2.935515 1_545
Gd3 S5 2.762463 1_555
Gd3 S5 2.762463 1_655
Gd3 S9 2.800148 1_656
Gd3 S9 2.800148 1_556
Gd3 S2 2.822391 1_555
Gd3 S11 2.924846 1_565
Gd3 S7 2.935515 1_556
S0 Sm3 2.789054 1_555
S0 Sm3 2.789054 1_455
S0 Sm2 2.938983 1_545
S0 Sm2 2.938983 1_445
S1 Sm2 2.789054 1_555
S1 Sm2 2.789054 1_455
S1 Sm3 2.938983 1_555
S1 Sm3 2.938983 1_455
S2 Sm1 2.789054 1_655
S2 Sm1 2.789054 1_555
S2 Sm0 2.938983 1_565
S2 Sm0 2.938983 1_665
S3 Sm0 2.789054 1_655
S3 Sm0 2.789054 1_555
S3 Sm1 2.938983 1_555
S3 Sm1 2.938983 1_655
S4 Sm0 3.066160 1_555
S4 Sm1 3.096281 1_545
S5 Sm1 3.066160 1_555
S5 Sm0 3.096281 1_555
S6 Sm2 3.066160 1_555
S6 Sm3 3.096281 1_565
S7 Sm3 3.066160 1_555
S7 Sm2 3.096281 1_555
S8 Sm3 2.906635 1_455
S8 Sm3 2.906635 1_555
S9 Sm2 2.906635 1_455
S9 Sm2 2.906635 1_555
S10 Sm1 2.906635 1_655
S10 Sm1 2.906635 1_555
S11 Sm0 2.906635 1_655
S11 Sm0 2.906635 1_555
