# generated using pymatgen
data_NaEu2AlP3
_symmetry_space_group_name_H-M   'P 1'
_cell_length_a   8.03650772
_cell_length_b   8.03650772
_cell_length_c   11.45077055
_cell_angle_alpha   74.36233700
_cell_angle_beta   74.36233700
_cell_angle_gamma   67.26485156
_symmetry_Int_Tables_number   1
_chemical_formula_structural   NaEu2AlP3
_chemical_formula_sum   'Na4 Eu8 Al4 P12'
_cell_volume   645.35633095
_cell_formula_units_Z   4
loop_
 _symmetry_equiv_pos_site_id
 _symmetry_equiv_pos_as_xyz
  1  'x, y, z'
loop_
 _atom_site_type_symbol
 _atom_site_label
 _atom_site_symmetry_multiplicity
 _atom_site_fract_x
 _atom_site_fract_y
 _atom_site_fract_z
 _atom_site_occupancy
  Na  Na0  1  0.69678500  0.30321500  0.50000000  1
  Na  Na1  1  0.30321500  0.69678500  0.50000000  1
  Na  Na2  1  0.52286000  0.52286000  0.73966600  1
  Na  Na3  1  0.47714000  0.47714000  0.26033400  1
  Eu  Eu0  1  0.04280100  0.58224100  0.81924600  1
  Eu  Eu1  1  0.58224100  0.04280100  0.81924600  1
  Eu  Eu2  1  0.95719900  0.41775900  0.18075400  1
  Eu  Eu3  1  0.41775900  0.95719900  0.18075400  1
  Eu  Eu4  1  0.75587300  0.24412700  0.00000000  1
  Eu  Eu5  1  0.24412700  0.75587300  0.00000000  1
  Eu  Eu6  1  0.00000000  0.50000000  0.50000000  1
  Eu  Eu7  1  0.50000000  0.00000000  0.50000000  1
  Al  Al0  1  0.03036600  0.03036600  0.61637500  1
  Al  Al1  1  0.96963400  0.96963400  0.38362500  1
  Al  Al2  1  0.16499600  0.16499600  0.76575400  1
  Al  Al3  1  0.83500400  0.83500400  0.23424600  1
  P  P0  1  0.85767300  0.27246100  0.72854400  1
  P  P1  1  0.27246100  0.85767300  0.72854400  1
  P  P2  1  0.14232700  0.72753900  0.27145600  1
  P  P3  1  0.72753900  0.14232700  0.27145600  1
  P  P4  1  0.14265400  0.14265400  0.39906700  1
  P  P5  1  0.85734600  0.85734600  0.60093300  1
  P  P6  1  0.17332500  0.17332500  0.97743800  1
  P  P7  1  0.82667500  0.82667500  0.02256200  1
  P  P8  1  0.33853600  0.33853600  0.62977500  1
  P  P9  1  0.66146400  0.66146400  0.37022500  1
  P  P10  1  0.34109300  0.34109300  0.99436900  1
  P  P11  1  0.65890700  0.65890700  0.00563100  1
loop_
_geom_bond_atom_site_label_1
_geom_bond_atom_site_label_2
_geom_bond_distance
_geom_bond_site_symmetry_2
Na0 P9 2.804838 1_555
Na0 P8 2.804838 1_555
Na0 P0 3.132104 1_555
Na0 P3 3.132104 1_555
Na0 P4 3.292094 1_655
Na0 P5 3.292094 1_545
Na1 P9 2.804838 1_555
Na1 P8 2.804838 1_555
Na1 P1 3.132104 1_555
Na1 P2 3.132104 1_555
Na1 P4 3.292094 1_565
Na1 P5 3.292094 1_455
Na2 P0 2.659686 1_555
Na2 P1 2.659686 1_555
Na2 P8 3.110933 1_555
Na2 P10 3.135231 1_555
Na3 P3 2.659686 1_555
Na3 P2 2.659686 1_555
Na3 P9 3.110933 1_555
Na3 P11 3.135231 1_555
Eu0 P5 3.136985 1_455
Eu0 P7 3.153429 1_456
Eu0 P8 3.178773 1_555
Eu0 P11 3.184776 1_456
Eu0 P1 3.204651 1_555
Eu0 P6 3.214306 1_555
Eu0 P10 3.229430 1_555
Eu1 P5 3.136985 1_545
Eu1 P7 3.153429 1_546
Eu1 P8 3.178773 1_555
Eu1 P11 3.184776 1_546
Eu1 P0 3.204651 1_555
Eu1 P6 3.214306 1_555
Eu1 P10 3.229430 1_555
Eu2 P4 3.136985 1_655
Eu2 P6 3.153429 1_654
Eu2 P9 3.178773 1_555
Eu2 P10 3.184776 1_654
Eu2 P3 3.204651 1_555
Eu2 P7 3.214306 1_555
Eu2 P11 3.229430 1_555
Eu3 P4 3.136985 1_565
Eu3 P6 3.153429 1_564
Eu3 P9 3.178773 1_555
Eu3 P10 3.184776 1_564
Eu3 P2 3.204651 1_555
Eu3 P7 3.214306 1_555
Eu3 P11 3.229430 1_555
Eu4 P3 2.962204 1_555
Eu4 P0 2.962204 1_554
Eu4 P6 3.127630 1_654
Eu4 P7 3.127630 1_545
Eu4 P10 3.131109 1_554
Eu4 P11 3.131109 1_555
Eu5 P2 2.962204 1_555
Eu5 P1 2.962204 1_554
Eu5 P6 3.127630 1_564
Eu5 P7 3.127630 1_455
Eu5 P10 3.131109 1_554
Eu5 P11 3.131109 1_555
Eu6 P2 2.987293 1_555
Eu6 P0 2.987293 1_455
Eu6 P5 3.070448 1_455
Eu6 P4 3.070448 1_555
Eu6 P8 3.115326 1_555
Eu6 P9 3.115326 1_455
Eu7 P3 2.987293 1_555
Eu7 P1 2.987293 1_545
Eu7 P5 3.070448 1_545
Eu7 P4 3.070448 1_555
Eu7 P8 3.115326 1_555
Eu7 P9 3.115326 1_545
Al0 P5 2.378580 1_445
Al0 P1 2.379143 1_545
Al0 P0 2.379143 1_455
Al0 P4 2.455369 1_555
Al1 P4 2.378580 1_665
Al1 P2 2.379143 1_655
Al1 P3 2.379143 1_565
Al1 P5 2.455369 1_555
Al2 P8 2.340212 1_555
Al2 P0 2.397412 1_455
Al2 P1 2.397412 1_545
Al2 P6 2.462290 1_555
Al3 P9 2.340212 1_555
Al3 P2 2.397412 1_655
Al3 P3 2.397412 1_565
Al3 P7 2.462290 1_555
P10 P6 2.315202 1_555
P11 P7 2.315202 1_555
