# generated using pymatgen
data_LiTi2O4
_symmetry_space_group_name_H-M   'P 1'
_cell_length_a   8.20428523
_cell_length_b   3.91266200
_cell_length_c   8.90508036
_cell_angle_alpha   90.00000000
_cell_angle_beta   90.10062819
_cell_angle_gamma   90.00000000
_symmetry_Int_Tables_number   1
_chemical_formula_structural   LiTi2O4
_chemical_formula_sum   'Li4 Ti8 O16'
_cell_volume   285.85793777
_cell_formula_units_Z   4
loop_
 _symmetry_equiv_pos_site_id
 _symmetry_equiv_pos_as_xyz
  1  'x, y, z'
loop_
 _atom_site_type_symbol
 _atom_site_label
 _atom_site_symmetry_multiplicity
 _atom_site_fract_x
 _atom_site_fract_y
 _atom_site_fract_z
 _atom_site_occupancy
  Li  Li0  1  0.99880200  0.49999800  0.23989200  1
  Li  Li1  1  0.25131200  0.49999800  0.50494600  1
  Li  Li2  1  0.25202200  0.00000000  0.73978600  1
  Li  Li3  1  0.99824700  0.00000000  0.00477200  1
  Ti  Ti0  1  0.27042100  0.49999800  0.99529400  1
  Ti  Ti1  1  0.27158700  0.00000000  0.25802400  1
  Ti  Ti2  1  0.73692500  0.00000000  0.26145000  1
  Ti  Ti3  1  0.51315800  0.00000000  0.48929600  1
  Ti  Ti4  1  0.97858300  0.00000000  0.49227300  1
  Ti  Ti5  1  0.97958500  0.49999800  0.75505400  1
  Ti  Ti6  1  0.51308100  0.49999800  0.75509500  1
  Ti  Ti7  1  0.73646800  0.49999800  0.99577700  1
  O  O0  1  0.24193100  0.00000000  0.02324800  1
  O  O1  1  0.75566000  0.00000000  0.02602900  1
  O  O2  1  0.75634700  0.49999800  0.22545800  1
  O  O3  1  0.24238700  0.49999800  0.22830100  1
  O  O4  1  0.50037400  0.00000000  0.26268900  1
  O  O5  1  0.00068900  0.00000000  0.27289300  1
  O  O6  1  0.24916000  0.00000000  0.47827300  1
  O  O7  1  0.74972800  0.00000000  0.48795400  1
  O  O8  1  0.00778000  0.49999800  0.52349300  1
  O  O9  1  0.49348000  0.49999800  0.52511500  1
  O  O10  1  0.49452400  0.00000000  0.72466700  1
  O  O11  1  0.00776500  0.00000000  0.72829100  1
  O  O12  1  0.75037200  0.49999800  0.76995300  1
  O  O13  1  0.25047600  0.49999800  0.77535100  1
  O  O14  1  0.99949100  0.49999800  0.97559800  1
  O  O15  1  0.49965800  0.49999800  0.98101500  1
loop_
_geom_bond_atom_site_label_1
_geom_bond_atom_site_label_2
_geom_bond_distance
_geom_bond_site_symmetry_2
Li0 O5 1.978329 1_655
Li0 O5 1.978345 1_665
Li0 O2 1.993093 1_555
Li0 O3 2.001286 1_655
Li0 O14 2.353576 1_554
Li0 O8 2.526434 1_655
Li1 O6 1.970765 1_555
Li1 O6 1.970781 1_565
Li1 O9 1.994603 1_555
Li1 O8 2.005110 1_555
Li1 O13 2.408000 1_555
Li1 O3 2.464505 1_555
Li2 O13 1.981838 1_555
Li2 O13 1.981853 1_545
Li2 O10 1.994342 1_555
Li2 O11 2.006387 1_555
Li2 O6 2.328871 1_555
Li2 O0 2.525754 1_556
Li3 O14 1.973527 1_554
Li3 O14 1.973542 1_544
Li3 O1 1.999566 1_555
Li3 O0 2.005724 1_655
Li3 O5 2.387688 1_655
Li3 O11 2.463461 1_654
O0 Ti0 1.985952 1_554
O0 Ti0 1.985968 1_544
O0 Ti1 2.104384 1_555
O1 Ti7 1.981014 1_554
O1 Ti7 1.981030 1_544
O1 Ti2 2.102339 1_555
O2 Ti2 1.988843 1_555
O2 Ti2 1.988859 1_565
O2 Ti7 2.051534 1_554
O3 Ti1 1.988574 1_555
O3 Ti1 1.988590 1_565
O3 Ti0 2.088056 1_554
O4 Ti1 1.877421 1_555
O4 Ti2 1.940783 1_555
O4 Ti3 2.020493 1_555
O5 Ti4 1.962314 1_455
O5 Ti2 2.166214 1_455
O5 Ti1 2.226697 1_555
O6 Ti1 1.970268 1_555
O6 Ti3 2.167966 1_555
O6 Ti4 2.223608 1_455
O7 Ti4 1.877918 1_555
O7 Ti3 1.940946 1_555
O7 Ti2 2.019585 1_555
O8 Ti4 1.990387 1_455
O8 Ti4 1.990402 1_465
O8 Ti5 2.075407 1_455
O9 Ti3 1.988765 1_555
O9 Ti3 1.988781 1_565
O9 Ti6 2.054013 1_555
O10 Ti6 1.980822 1_555
O10 Ti6 1.980837 1_545
O10 Ti3 2.101833 1_555
O11 Ti5 1.984350 1_455
O11 Ti5 1.984366 1_445
O11 Ti4 2.114934 1_455
O12 Ti5 1.885436 1_555
O12 Ti6 1.951062 1_555
O12 Ti7 2.014414 1_555
O13 Ti0 1.965147 1_555
O13 Ti6 2.162340 1_555
O13 Ti5 2.229488 1_455
O14 Ti5 1.970455 1_555
O14 Ti7 2.165699 1_555
O14 Ti0 2.229389 1_655
O15 Ti0 1.885242 1_555
O15 Ti7 1.947069 1_555
O15 Ti6 2.015041 1_555
