# generated using pymatgen
data_LaEuPd2
_symmetry_space_group_name_H-M   'P 1'
_cell_length_a   5.16554797
_cell_length_b   5.16554797
_cell_length_c   5.16554797
_cell_angle_alpha   60.00000000
_cell_angle_beta   60.00000000
_cell_angle_gamma   60.00000000
_symmetry_Int_Tables_number   1
_chemical_formula_structural   LaEuPd2
_chemical_formula_sum   'La1 Eu1 Pd2'
_cell_volume   97.46174879
_cell_formula_units_Z   1
loop_
 _symmetry_equiv_pos_site_id
 _symmetry_equiv_pos_as_xyz
  1  'x, y, z'
loop_
 _atom_site_type_symbol
 _atom_site_label
 _atom_site_symmetry_multiplicity
 _atom_site_fract_x
 _atom_site_fract_y
 _atom_site_fract_z
 _atom_site_occupancy
  La  La0  1  0.00000000  0.00000000  0.00000000  1
  Eu  Eu0  1  0.50000000  0.50000000  0.50000000  1
  Pd  Pd0  1  0.25000000  0.25000000  0.25000000  1
  Pd  Pd1  1  0.75000000  0.75000000  0.75000000  1
loop_
_geom_bond_atom_site_label_1
_geom_bond_atom_site_label_2
_geom_bond_distance
_geom_bond_site_symmetry_2
La0 Pd1 3.163239 1_544
La0 Pd0 3.163239 1_455
La0 Pd1 3.163239 1_444
La0 Pd0 3.163239 1_555
La0 Pd1 3.163239 1_454
La0 Pd0 3.163239 1_545
La0 Pd1 3.163239 1_445
La0 Pd0 3.163239 1_554
Eu0 Pd0 3.163239 1_655
Eu0 Pd1 3.163239 1_455
Eu0 Pd0 3.163239 1_555
Eu0 Pd1 3.163239 1_555
Eu0 Pd1 3.163239 1_545
Eu0 Pd0 3.163239 1_556
Eu0 Pd1 3.163239 1_554
Eu0 Pd0 3.163239 1_565
