# generated using pymatgen
data_Na2Ca4ZrNbSi4(O8F)2
_symmetry_space_group_name_H-M   'P 1'
_cell_length_a   10.37053700
_cell_length_b   7.44006600
_cell_length_c   11.01525558
_cell_angle_alpha   70.84148089
_cell_angle_beta   90.00000000
_cell_angle_gamma   90.00000000
_symmetry_Int_Tables_number   1
_chemical_formula_structural   Na2Ca4ZrNbSi4(O8F)2
_chemical_formula_sum   'Na4 Ca8 Zr2 Nb2 Si8 O32 F4'
_cell_volume   802.83646195
_cell_formula_units_Z   2
loop_
 _symmetry_equiv_pos_site_id
 _symmetry_equiv_pos_as_xyz
  1  'x, y, z'
loop_
 _atom_site_type_symbol
 _atom_site_label
 _atom_site_symmetry_multiplicity
 _atom_site_fract_x
 _atom_site_fract_y
 _atom_site_fract_z
 _atom_site_occupancy
  Na  Na0  1  0.82737800  0.68751300  0.88160500  1
  Na  Na1  1  0.32737800  0.31248700  0.11839500  1
  Na  Na2  1  0.67226000  0.55190300  0.63231900  1
  Na  Na3  1  0.17226000  0.44809700  0.36768100  1
  Ca  Ca0  1  0.55912500  0.44563800  0.34900900  1
  Ca  Ca1  1  0.05912500  0.55436200  0.65099100  1
  Ca  Ca2  1  0.94360000  0.30124700  0.15814400  1
  Ca  Ca3  1  0.44360000  0.69875300  0.84185600  1
  Ca  Ca4  1  0.94432600  0.79549900  0.15016700  1
  Ca  Ca5  1  0.44432600  0.20450100  0.84983300  1
  Ca  Ca6  1  0.17663900  0.94607600  0.36857300  1
  Ca  Ca7  1  0.67663900  0.05392400  0.63142700  1
  Zr  Zr0  1  0.54402600  0.94943300  0.33988400  1
  Zr  Zr1  1  0.04402600  0.05056700  0.66011600  1
  Nb  Nb0  1  0.30476800  0.82653500  0.11891000  1
  Nb  Nb1  1  0.80476800  0.17346500  0.88109000  1
  Si  Si0  1  0.87237600  0.43785600  0.43926700  1
  Si  Si1  1  0.37237600  0.56214400  0.56073300  1
  Si  Si2  1  0.62957000  0.79737800  0.08386400  1
  Si  Si3  1  0.12957000  0.20262200  0.91613600  1
  Si  Si4  1  0.87201500  0.87510300  0.43366200  1
  Si  Si5  1  0.37201500  0.12489700  0.56633800  1
  Si  Si6  1  0.62441500  0.36527000  0.07337800  1
  Si  Si7  1  0.12441500  0.63473000  0.92662200  1
  O  O0  1  0.72396800  0.92737600  0.45842000  1
  O  O1  1  0.22396800  0.07262400  0.54158000  1
  O  O2  1  0.97517400  0.90726900  0.53849100  1
  O  O3  1  0.47517400  0.09273100  0.46150900  1
  O  O4  1  0.76164400  0.30889800  0.02101900  1
  O  O5  1  0.26164400  0.69110200  0.97898100  1
  O  O6  1  0.88361300  0.63876000  0.47679200  1
  O  O7  1  0.38361300  0.36124000  0.52320800  1
  O  O8  1  0.72969600  0.35128900  0.48732500  1
  O  O9  1  0.22969600  0.64871100  0.51267500  1
  O  O10  1  0.90051100  0.48385400  0.28760200  1
  O  O11  1  0.40051100  0.51614600  0.71239800  1
  O  O12  1  0.37518700  0.96536900  0.24433100  1
  O  O13  1  0.87518700  0.03463100  0.75566900  1
  O  O14  1  0.93208000  0.97644300  0.29156400  1
  O  O15  1  0.43208000  0.02355700  0.70843600  1
  O  O16  1  0.59587400  0.22944800  0.22181100  1
  O  O17  1  0.09587400  0.77055200  0.77818900  1
  O  O18  1  0.63055200  0.78687800  0.23473000  1
  O  O19  1  0.13055200  0.21312200  0.76527000  1
  O  O20  1  0.00240100  0.61546900  0.02130000  1
  O  O21  1  0.50240100  0.38453100  0.97870000  1
  O  O22  1  0.65233500  0.57642900  0.08902400  1
  O  O23  1  0.15233500  0.42357100  0.91097600  1
  O  O24  1  0.15679500  0.77095800  0.21908400  1
  O  O25  1  0.65679500  0.22904200  0.78091600  1
  O  O26  1  0.49391200  0.68083000  0.47357800  1
  O  O27  1  0.99391200  0.31917000  0.52642200  1
  O  O28  1  0.75963200  0.90573400  0.01082700  1
  O  O29  1  0.25963200  0.09426600  0.98917300  1
  O  O30  1  0.49409700  0.87718400  0.00904200  1
  O  O31  1  0.99409700  0.12281600  0.99095800  1
  F  F0  1  0.64973300  0.74493400  0.76027700  1
  F  F1  1  0.14973300  0.25506600  0.23972300  1
  F  F2  1  0.37929800  0.54509500  0.22536500  1
  F  F3  1  0.87929800  0.45490500  0.77463500  1
loop_
_geom_bond_atom_site_label_1
_geom_bond_atom_site_label_2
_geom_bond_distance
_geom_bond_site_symmetry_2
Na0 O20 2.325574 1_656
Na0 O13 2.547238 1_565
Na0 O28 2.583134 1_556
Na0 O4 2.814019 1_556
Na0 O22 2.821189 1_556
Na0 O17 2.995092 1_655
Na1 O21 2.325574 1_554
Na1 O12 2.547238 1_545
Na1 O29 2.583134 1_554
Na1 O5 2.814019 1_554
Na1 O23 2.821189 1_554
Na1 O16 2.995092 1_555
Na2 O25 2.427825 1_555
Na2 O26 2.509502 1_555
Na2 O8 2.588079 1_555
Na2 O6 2.725817 1_555
Na2 O0 2.872008 1_555
Na2 O11 2.938875 1_555
Na3 O24 2.427825 1_555
Na3 O27 2.509502 1_455
Na3 O9 2.588079 1_555
Na3 O7 2.725817 1_555
Na3 O1 2.872008 1_555
Na3 O10 2.938875 1_455
Ca0 F2 2.284487 1_555
Ca0 O8 2.289353 1_555
Ca0 O16 2.484908 1_555
Ca0 O18 2.545849 1_555
Ca0 O7 2.568730 1_555
Ca0 O26 2.641614 1_555
Ca0 O3 2.655565 1_555
Ca0 O22 2.872896 1_555
Ca1 F3 2.284487 1_455
Ca1 O9 2.289353 1_555
Ca1 O17 2.484908 1_555
Ca1 O19 2.545849 1_555
Ca1 O6 2.568730 1_455
Ca1 O27 2.641614 1_455
Ca1 O2 2.655565 1_455
Ca1 O23 2.872896 1_555
Ca2 F1 2.300589 1_655
Ca2 O10 2.313147 1_555
Ca2 O14 2.383872 1_545
Ca2 O4 2.406037 1_555
Ca2 O20 2.407584 1_655
Ca2 O31 2.651934 1_554
Ca3 F0 2.300589 1_555
Ca3 O11 2.313147 1_555
Ca3 O15 2.383872 1_565
Ca3 O5 2.406037 1_555
Ca3 O21 2.407584 1_555
Ca3 O30 2.651934 1_556
Ca4 O24 2.318124 1_655
Ca4 O20 2.328040 1_655
Ca4 O10 2.360196 1_555
Ca4 O14 2.372893 1_555
Ca4 O28 2.422990 1_555
Ca4 O31 2.543476 1_564
Ca5 O25 2.318124 1_555
Ca5 O21 2.328040 1_555
Ca5 O11 2.360196 1_555
Ca5 O15 2.372893 1_555
Ca5 O29 2.422990 1_555
Ca5 O30 2.543476 1_546
Ca6 F1 2.288153 1_565
Ca6 O9 2.326389 1_555
Ca6 O24 2.420648 1_555
Ca6 O1 2.436563 1_565
Ca6 O12 2.450367 1_555
Ca6 O14 2.660295 1_455
Ca6 O2 2.756276 1_455
Ca7 F0 2.288153 1_545
Ca7 O8 2.326389 1_555
Ca7 O25 2.420648 1_555
Ca7 O0 2.436563 1_545
Ca7 O13 2.450367 1_555
Ca7 O15 2.660295 1_555
Ca7 O3 2.756276 1_555
Nb0 O24 1.855790 1_555
Nb0 O29 2.088243 1_564
Nb0 O12 2.108458 1_555
Nb0 O5 2.147209 1_554
Nb0 O30 2.272096 1_555
Nb1 O25 1.855790 1_555
Nb1 O28 2.088243 1_546
Nb1 O13 2.108458 1_555
Nb1 O4 2.147209 1_556
Nb1 O31 2.272096 1_555
O0 Si4 1.628642 1_555
O0 Zr0 2.252435 1_555
O1 Si5 1.628642 1_555
O1 Zr1 2.252435 1_555
O2 Si4 1.648191 1_555
O2 Zr1 2.092584 1_665
O3 Si5 1.648191 1_555
O3 Zr0 2.092584 1_545
O4 Si6 1.640926 1_555
O5 Si7 1.640926 1_555
O6 Si4 1.668486 1_555
O6 Si0 1.680540 1_555
O7 Si5 1.668486 1_555
O7 Si1 1.680540 1_555
O8 Si0 1.631160 1_555
O9 Si1 1.631160 1_555
O10 Si0 1.618019 1_555
O11 Si1 1.618019 1_555
O12 Zr0 2.026282 1_555
O13 Zr1 2.026282 1_655
O14 Si4 1.622304 1_555
O15 Si5 1.622304 1_555
O16 Si6 1.642441 1_555
O16 Zr0 2.131306 1_545
O17 Si7 1.642441 1_555
O17 Zr1 2.131306 1_565
O18 Si2 1.637885 1_555
O18 Zr0 2.128149 1_555
O19 Si3 1.637885 1_555
O19 Zr1 2.128149 1_555
O20 Si7 1.615920 1_554
O21 Si6 1.615920 1_556
O22 Si2 1.643157 1_555
O22 Si6 1.661148 1_555
O23 Si3 1.643157 1_555
O23 Si7 1.661148 1_555
O26 Si1 1.653353 1_555
O26 Zr0 2.121524 1_555
O27 Si0 1.653353 1_555
O27 Zr1 2.121524 1_655
O28 Si2 1.640354 1_555
O29 Si3 1.640354 1_555
O30 Si2 1.638429 1_555
O31 Si3 1.638429 1_655
F0 Na0 2.233350 1_555
F0 Na2 2.330763 1_555
F1 Na1 2.233350 1_555
F1 Na3 2.330763 1_555
F2 Nb0 2.178386 1_555
F2 Na1 2.451899 1_555
F2 Na3 2.616444 1_555
F3 Nb1 2.178386 1_555
F3 Na0 2.451899 1_555
F3 Na2 2.616444 1_555
