# generated using pymatgen
data_Zn11(CN5)2
_symmetry_space_group_name_H-M   'P 1'
_cell_length_a   13.12998400
_cell_length_b   13.12998400
_cell_length_c   3.10476300
_cell_angle_alpha   90.00000000
_cell_angle_beta   90.00000000
_cell_angle_gamma   90.00000000
_symmetry_Int_Tables_number   1
_chemical_formula_structural   Zn11(CN5)2
_chemical_formula_sum   'Zn22 C4 N20'
_cell_volume   535.25021194
_cell_formula_units_Z   2
loop_
 _symmetry_equiv_pos_site_id
 _symmetry_equiv_pos_as_xyz
  1  'x, y, z'
loop_
 _atom_site_type_symbol
 _atom_site_label
 _atom_site_symmetry_multiplicity
 _atom_site_fract_x
 _atom_site_fract_y
 _atom_site_fract_z
 _atom_site_occupancy
  Zn  Zn0  1  0.50000000  0.50000000  0.50000000  1
  Zn  Zn1  1  0.00000000  0.00000000  0.00000000  1
  Zn  Zn2  1  0.99408800  0.78858000  0.50000000  1
  Zn  Zn3  1  0.00591200  0.21142000  0.50000000  1
  Zn  Zn4  1  0.50591200  0.28858000  0.00000000  1
  Zn  Zn5  1  0.49408800  0.71142000  0.00000000  1
  Zn  Zn6  1  0.78858000  0.99408800  0.50000000  1
  Zn  Zn7  1  0.21142000  0.00591200  0.50000000  1
  Zn  Zn8  1  0.28858000  0.50591200  0.00000000  1
  Zn  Zn9  1  0.71142000  0.49408800  0.00000000  1
  Zn  Zn10  1  0.66261300  0.66261300  0.50000000  1
  Zn  Zn11  1  0.33738700  0.33738700  0.50000000  1
  Zn  Zn12  1  0.83738700  0.16261300  0.00000000  1
  Zn  Zn13  1  0.16261300  0.83738700  0.00000000  1
  Zn  Zn14  1  0.39013200  0.90811900  0.50000000  1
  Zn  Zn15  1  0.60986800  0.09188100  0.50000000  1
  Zn  Zn16  1  0.10986800  0.40811900  0.00000000  1
  Zn  Zn17  1  0.89013200  0.59188100  0.00000000  1
  Zn  Zn18  1  0.90811900  0.39013200  0.50000000  1
  Zn  Zn19  1  0.09188100  0.60986800  0.50000000  1
  Zn  Zn20  1  0.40811900  0.10986800  0.00000000  1
  Zn  Zn21  1  0.59188100  0.89013200  0.00000000  1
  C  C0  1  0.30530800  0.69469200  0.50000000  1
  C  C1  1  0.69469200  0.30530800  0.50000000  1
  C  C2  1  0.19469200  0.19469200  0.00000000  1
  C  C3  1  0.80530800  0.80530800  0.00000000  1
  N  N0  1  0.08440900  0.91559100  0.50000000  1
  N  N1  1  0.91559100  0.08440900  0.50000000  1
  N  N2  1  0.41559100  0.41559100  0.00000000  1
  N  N3  1  0.58440900  0.58440900  0.00000000  1
  N  N4  1  0.48737800  0.17883100  0.50000000  1
  N  N5  1  0.51262200  0.82116900  0.50000000  1
  N  N6  1  0.01262200  0.67883100  0.00000000  1
  N  N7  1  0.98737800  0.32116900  0.00000000  1
  N  N8  1  0.17883100  0.48737800  0.50000000  1
  N  N9  1  0.82116900  0.51262200  0.50000000  1
  N  N10  1  0.67883100  0.01262200  0.00000000  1
  N  N11  1  0.32116900  0.98737800  0.00000000  1
  N  N12  1  0.23886900  0.76113100  0.50000000  1
  N  N13  1  0.76113100  0.23886900  0.50000000  1
  N  N14  1  0.26113100  0.26113100  0.00000000  1
  N  N15  1  0.73886900  0.73886900  0.00000000  1
  N  N16  1  0.37166300  0.62833700  0.50000000  1
  N  N17  1  0.62833700  0.37166300  0.50000000  1
  N  N18  1  0.12833700  0.12833700  0.00000000  1
  N  N19  1  0.87166300  0.87166300  0.00000000  1
loop_
_geom_bond_atom_site_label_1
_geom_bond_atom_site_label_2
_geom_bond_distance
_geom_bond_site_symmetry_2
C0 N16 1.232120 1_555
C0 N12 1.233679 1_555
C1 N17 1.232120 1_555
C1 N13 1.233679 1_555
C2 N18 1.232120 1_555
C2 N14 1.233679 1_555
C3 N19 1.232120 1_555
C3 N15 1.233679 1_555
N0 Zn2 2.046327 1_455
N0 Zn7 2.046327 1_565
N0 Zn13 2.125699 1_556
N0 Zn13 2.125699 1_555
N0 Zn1 2.206014 1_566
N0 Zn1 2.206014 1_565
N1 Zn6 2.046327 1_545
N1 Zn3 2.046327 1_655
N1 Zn12 2.125699 1_556
N1 Zn12 2.125699 1_555
N1 Zn1 2.206014 1_655
N1 Zn1 2.206014 1_656
N2 Zn8 2.046327 1_555
N2 Zn4 2.046327 1_555
N2 Zn11 2.125699 1_555
N2 Zn11 2.125699 1_554
N2 Zn0 2.206014 1_554
N2 Zn0 2.206014 1_555
N3 Zn5 2.046327 1_555
N3 Zn9 2.046327 1_555
N3 Zn10 2.125699 1_555
N3 Zn10 2.125699 1_554
N3 Zn0 2.206014 1_554
N3 Zn0 2.206014 1_555
N4 Zn15 1.972301 1_555
N4 Zn20 2.076724 1_555
N4 Zn20 2.076724 1_556
N4 Zn4 2.132040 1_555
N4 Zn4 2.132040 1_556
N5 Zn14 1.972301 1_555
N5 Zn21 2.076724 1_556
N5 Zn21 2.076724 1_555
N5 Zn5 2.132040 1_556
N5 Zn5 2.132040 1_555
N6 Zn17 1.972301 1_455
N6 Zn19 2.076724 1_555
N6 Zn19 2.076724 1_554
N6 Zn2 2.132040 1_454
N6 Zn2 2.132040 1_455
N7 Zn16 1.972301 1_655
N7 Zn18 2.076724 1_554
N7 Zn18 2.076724 1_555
N7 Zn3 2.132040 1_654
N7 Zn3 2.132040 1_655
N8 Zn19 1.972301 1_555
N8 Zn16 2.076724 1_555
N8 Zn16 2.076724 1_556
N8 Zn8 2.132040 1_556
N8 Zn8 2.132040 1_555
N9 Zn18 1.972301 1_555
N9 Zn17 2.076724 1_556
N9 Zn17 2.076724 1_555
N9 Zn9 2.132040 1_556
N9 Zn9 2.132040 1_555
N10 Zn21 1.972301 1_545
N10 Zn15 2.076724 1_555
N10 Zn15 2.076724 1_554
N10 Zn6 2.132040 1_544
N10 Zn6 2.132040 1_545
N11 Zn20 1.972301 1_565
N11 Zn14 2.076724 1_554
N11 Zn14 2.076724 1_555
N11 Zn7 2.132040 1_565
N11 Zn7 2.132040 1_564
N12 Zn13 2.101155 1_555
N12 Zn13 2.101155 1_556
N13 Zn12 2.101155 1_556
N13 Zn12 2.101155 1_555
N14 Zn11 2.101155 1_554
N14 Zn11 2.101155 1_555
N15 Zn10 2.101155 1_555
N15 Zn10 2.101155 1_554
N16 Zn0 2.383039 1_555
N16 Zn8 2.486717 1_556
N16 Zn8 2.486717 1_555
N16 Zn5 2.486717 1_555
N16 Zn5 2.486717 1_556
N17 Zn0 2.383039 1_555
N17 Zn4 2.486717 1_556
N17 Zn4 2.486717 1_555
N17 Zn9 2.486717 1_556
N17 Zn9 2.486717 1_555
N18 Zn1 2.383039 1_555
N18 Zn7 2.486717 1_554
N18 Zn3 2.486717 1_555
N18 Zn7 2.486717 1_555
N18 Zn3 2.486717 1_554
N19 Zn1 2.383039 1_665
N19 Zn6 2.486717 1_554
N19 Zn2 2.486717 1_555
N19 Zn2 2.486717 1_554
N19 Zn6 2.486717 1_555
