# generated using pymatgen
data_Rb3YV2O8
_symmetry_space_group_name_H-M   'P 1'
_cell_length_a   6.08180557
_cell_length_b   6.08180557
_cell_length_c   7.99080900
_cell_angle_alpha   90.00000000
_cell_angle_beta   90.00000000
_cell_angle_gamma   119.99999532
_symmetry_Int_Tables_number   1
_chemical_formula_structural   Rb3YV2O8
_chemical_formula_sum   'Rb3 Y1 V2 O8'
_cell_volume   255.96846629
_cell_formula_units_Z   1
loop_
 _symmetry_equiv_pos_site_id
 _symmetry_equiv_pos_as_xyz
  1  'x, y, z'
loop_
 _atom_site_type_symbol
 _atom_site_label
 _atom_site_symmetry_multiplicity
 _atom_site_fract_x
 _atom_site_fract_y
 _atom_site_fract_z
 _atom_site_occupancy
  Rb  Rb0  1  0.33333300  0.66666700  0.70145500  1
  Rb  Rb1  1  0.66666700  0.33333300  0.29854500  1
  Rb  Rb2  1  0.00000000  0.00000000  0.00000000  1
  Y  Y0  1  0.00000000  0.00000000  0.50000000  1
  V  V0  1  0.33333300  0.66666700  0.25531500  1
  V  V1  1  0.66666700  0.33333300  0.74468500  1
  O  O0  1  0.33333300  0.66666700  0.04477400  1
  O  O1  1  0.66666700  0.33333300  0.95522600  1
  O  O2  1  0.17547700  0.82452300  0.33143000  1
  O  O3  1  0.82452300  0.17547700  0.66857000  1
  O  O4  1  0.17547700  0.35095400  0.33143000  1
  O  O5  1  0.82452300  0.64904600  0.66857000  1
  O  O6  1  0.64904600  0.82452300  0.33143000  1
  O  O7  1  0.35095400  0.17547700  0.66857000  1
loop_
_geom_bond_atom_site_label_1
_geom_bond_atom_site_label_2
_geom_bond_distance
_geom_bond_site_symmetry_2
O0 V0 1.682393 1_555
O0 Rb0 2.743397 1_554
O0 Rb2 3.529509 1_565
O0 Rb2 3.529515 1_555
O0 Rb2 3.529515 1_665
O1 V1 1.682393 1_555
O1 Rb1 2.743397 1_556
O1 Rb2 3.529509 1_656
O1 Rb2 3.529515 1_666
O1 Rb2 3.529515 1_556
O2 V0 1.770598 1_555
O2 Y0 2.287202 1_565
O2 Rb1 3.053646 1_455
O2 Rb1 3.053646 1_565
O2 Rb2 3.229682 1_565
O2 Rb0 3.392307 1_555
O3 V1 1.770598 1_555
O3 Y0 2.287202 1_655
O3 Rb0 3.053646 1_545
O3 Rb0 3.053646 1_655
O3 Rb2 3.229682 1_656
O3 Rb1 3.392307 1_555
O4 V0 1.770603 1_555
O4 Y0 2.287202 1_555
O4 Rb1 3.053643 1_455
O4 Rb1 3.053649 1_555
O4 Rb2 3.229682 1_555
O4 Rb0 3.392310 1_555
O5 V1 1.770603 1_555
O5 Y0 2.287202 1_665
O5 Rb0 3.053643 1_655
O5 Rb0 3.053649 1_555
O5 Rb2 3.229682 1_666
O5 Rb1 3.392310 1_555
O6 V0 1.770603 1_555
O6 Y0 2.287202 1_665
O6 Rb1 3.053643 1_565
O6 Rb1 3.053649 1_555
O6 Rb2 3.229682 1_665
O6 Rb0 3.392310 1_555
O7 V1 1.770603 1_555
O7 Y0 2.287202 1_555
O7 Rb0 3.053643 1_545
O7 Rb0 3.053649 1_555
O7 Rb2 3.229682 1_556
O7 Rb1 3.392310 1_555
