# generated using pymatgen
data_SiO2
_symmetry_space_group_name_H-M   'P 1'
_cell_length_a   12.44098984
_cell_length_b   12.44098984
_cell_length_c   12.44098984
_cell_angle_alpha   144.87375019
_cell_angle_beta   110.25580126
_cell_angle_gamma   80.55514637
_symmetry_Int_Tables_number   1
_chemical_formula_structural   SiO2
_chemical_formula_sum   'Si18 O36'
_cell_volume   1013.82853677
_cell_formula_units_Z   18
loop_
 _symmetry_equiv_pos_site_id
 _symmetry_equiv_pos_as_xyz
  1  'x, y, z'
loop_
 _atom_site_type_symbol
 _atom_site_label
 _atom_site_symmetry_multiplicity
 _atom_site_fract_x
 _atom_site_fract_y
 _atom_site_fract_z
 _atom_site_occupancy
  Si  Si0  1  0.22656203  0.02017569  0.79361366  1
  Si  Si1  1  0.77343797  0.56705163  0.79361366  1
  Si  Si2  1  0.77343797  0.97982431  0.20638634  1
  Si  Si3  1  0.22656203  0.43294837  0.20638634  1
  Si  Si4  1  0.34614553  0.84614553  0.50000000  1
  Si  Si5  1  0.65385447  0.15385447  0.50000000  1
  Si  Si6  1  0.38278398  0.08364830  0.29913568  1
  Si  Si7  1  0.61721602  0.91635170  0.70086432  1
  Si  Si8  1  0.21548738  0.91635170  0.29913568  1
  Si  Si9  1  0.78451262  0.08364830  0.70086432  1
  Si  Si10  1  0.97319390  0.88156719  0.50448103  1
  Si  Si11  1  0.02680610  0.53128712  0.90837328  1
  Si  Si12  1  0.62291384  0.11843281  0.09162672  1
  Si  Si13  1  0.37708616  0.46871288  0.49551897  1
  Si  Si14  1  0.02680610  0.11843281  0.49551897  1
  Si  Si15  1  0.97319390  0.46871288  0.09162672  1
  Si  Si16  1  0.37708616  0.88156719  0.90837328  1
  Si  Si17  1  0.62291384  0.53128712  0.50448103  1
  O  O0  1  0.70256524  0.37850557  0.67594032  1
  O  O1  1  0.29743476  0.97337608  0.67594032  1
  O  O2  1  0.29743476  0.62149443  0.32405968  1
  O  O3  1  0.70256524  0.02662392  0.32405968  1
  O  O4  1  0.50000000  0.00000000  0.00000000  1
  O  O5  1  0.50000000  0.50000000  0.50000000  1
  O  O6  1  -0.00000000  0.00000000  0.50000000  1
  O  O7  1  -0.00000000  0.50000000  0.00000000  1
  O  O8  1  0.37335568  0.65604118  0.71731450  1
  O  O9  1  0.62664432  0.34395882  0.28268550  1
  O  O10  1  0.06127233  0.34395882  0.71731450  1
  O  O11  1  0.93872767  0.65604118  0.28268550  1
  O  O12  1  0.86509448  0.93830436  0.57477417  1
  O  O13  1  0.13490552  0.70968069  0.07321088  1
  O  O14  1  0.63646981  0.06169564  0.92678912  1
  O  O15  1  0.13490552  0.06169564  0.42522583  1
  O  O16  1  0.86509448  0.29031931  0.92678912  1
  O  O17  1  0.36353019  0.93830436  0.07321088  1
  O  O18  1  0.63646981  0.70968069  0.57477417  1
  O  O19  1  0.28899596  0.00000000  0.28899596  1
  O  O20  1  0.71100404  -0.00000000  0.71100404  1
  O  O21  1  0.75029592  0.75029592  -0.00000000  1
  O  O22  1  0.24970408  0.24970408  0.00000000  1
  O  O23  1  0.72945033  0.57051763  0.65875209  1
  O  O24  1  0.27054967  0.92930077  0.84106730  1
  O  O25  1  0.08823347  0.42948237  0.15893270  1
  O  O26  1  0.91176653  0.07069923  0.34124791  1
  O  O27  1  0.27054967  0.42948237  0.34124791  1
  O  O28  1  0.72945033  0.07069923  0.15893270  1
  O  O29  1  0.91176653  0.57051763  0.84106730  1
  O  O30  1  0.08823347  0.92930077  0.65875209  1
  O  O31  1  0.30413761  0.89548301  0.40865360  1
  O  O32  1  0.69586239  0.10451699  0.59134640  1
  O  O33  1  0.51317058  0.10451699  0.40865360  1
  O  O34  1  0.48682942  0.89548301  0.59134640  1
  O  O35  1  0.36353019  0.29031931  0.42522583  1
loop_
_geom_bond_atom_site_label_1
_geom_bond_atom_site_label_2
_geom_bond_distance
_geom_bond_site_symmetry_2
O0 Si1 1.609552 1_555
O0 Si5 1.612482 1_555
O1 Si0 1.609558 1_565
O1 Si4 1.612480 1_555
O2 Si3 1.609552 1_555
O2 Si4 1.612482 1_555
O3 Si2 1.609558 1_545
O3 Si5 1.612480 1_555
O4 Si16 1.610529 1_544
O4 Si12 1.610529 1_555
O5 Si13 1.610529 1_555
O5 Si17 1.610529 1_555
O6 Si10 1.610529 1_445
O6 Si14 1.610529 1_555
O7 Si11 1.610529 1_554
O7 Si15 1.610529 1_455
O8 Si13 1.606700 1_555
O8 Si16 1.606700 1_555
O9 Si12 1.606700 1_555
O9 Si17 1.606700 1_555
O10 Si11 1.606693 1_555
O10 Si14 1.606701 1_555
O11 Si15 1.606693 1_555
O11 Si10 1.606701 1_555
O12 Si10 1.601482 1_555
O12 Si9 1.609207 1_565
O13 Si11 1.601486 1_554
O13 Si8 1.609201 1_555
O14 Si12 1.601494 1_556
O14 Si7 1.609198 1_545
O15 Si14 1.601482 1_555
O15 Si8 1.609207 1_545
O16 Si15 1.601486 1_556
O16 Si9 1.609201 1_555
O17 Si16 1.601494 1_554
O17 Si6 1.609198 1_565
O18 Si17 1.601494 1_555
O18 Si7 1.609198 1_555
O19 Si8 1.594434 1_545
O19 Si6 1.594434 1_555
O20 Si7 1.594434 1_545
O20 Si9 1.594434 1_555
O21 Si2 1.610677 1_555
O21 Si1 1.610677 1_554
O22 Si0 1.610677 1_554
O22 Si3 1.610677 1_555
O23 Si1 1.609727 1_555
O23 Si17 1.611579 1_555
O24 Si0 1.609739 1_565
O24 Si16 1.611571 1_555
O25 Si3 1.609739 1_555
O25 Si15 1.611571 1_455
O26 Si2 1.609738 1_545
O26 Si14 1.611579 1_655
O27 Si3 1.609727 1_555
O27 Si13 1.611579 1_555
O28 Si2 1.609739 1_545
O28 Si12 1.611571 1_555
O29 Si1 1.609739 1_555
O29 Si11 1.611571 1_655
O30 Si0 1.609738 1_565
O30 Si10 1.611579 1_455
O31 Si4 1.601842 1_555
O31 Si8 1.607601 1_555
O32 Si5 1.601842 1_555
O32 Si9 1.607601 1_555
O33 Si5 1.601842 1_555
O33 Si6 1.607597 1_555
O34 Si4 1.601842 1_555
O34 Si7 1.607597 1_555
O35 Si13 1.601494 1_555
O35 Si6 1.609198 1_555
