# generated using pymatgen
data_BaYNi4O7
_symmetry_space_group_name_H-M   'P 1'
_cell_length_a   6.34741420
_cell_length_b   6.34741420
_cell_length_c   10.45600500
_cell_angle_alpha   90.00000000
_cell_angle_beta   90.00000000
_cell_angle_gamma   120.00000206
_symmetry_Int_Tables_number   1
_chemical_formula_structural   BaYNi4O7
_chemical_formula_sum   'Ba2 Y2 Ni8 O14'
_cell_volume   364.82961320
_cell_formula_units_Z   2
loop_
 _symmetry_equiv_pos_site_id
 _symmetry_equiv_pos_as_xyz
  1  'x, y, z'
loop_
 _atom_site_type_symbol
 _atom_site_label
 _atom_site_symmetry_multiplicity
 _atom_site_fract_x
 _atom_site_fract_y
 _atom_site_fract_z
 _atom_site_occupancy
  Ba  Ba0  1  0.66666700  0.33333300  0.49406600  1
  Ba  Ba1  1  0.33333300  0.66666700  0.99406600  1
  Y  Y0  1  0.66666700  0.33333300  0.88375200  1
  Y  Y1  1  0.33333300  0.66666700  0.38375200  1
  Ni  Ni0  1  0.82777900  0.17222100  0.19028500  1
  Ni  Ni1  1  0.65555700  0.82777900  0.69028500  1
  Ni  Ni2  1  0.17222100  0.34444300  0.69028500  1
  Ni  Ni3  1  0.82777900  0.65555700  0.19028500  1
  Ni  Ni4  1  0.34444300  0.17222100  0.19028500  1
  Ni  Ni5  1  0.17222100  0.82777900  0.69028500  1
  Ni  Ni6  1  0.00000000  0.00000000  0.44197000  1
  Ni  Ni7  1  0.00000000  0.00000000  0.94197000  1
  O  O0  1  0.83521000  0.16479000  0.00796400  1
  O  O1  1  0.67042100  0.83521000  0.50796400  1
  O  O2  1  0.16479000  0.32957900  0.50796400  1
  O  O3  1  0.83521000  0.67042100  0.00796400  1
  O  O4  1  0.32957900  0.16479000  0.00796400  1
  O  O5  1  0.16479000  0.83521000  0.50796400  1
  O  O6  1  0.00000000  0.00000000  0.74503500  1
  O  O7  1  0.00000000  0.00000000  0.24503500  1
  O  O8  1  0.50490100  0.49509900  0.25814200  1
  O  O9  1  0.00980100  0.50490100  0.75814200  1
  O  O10  1  0.49509900  0.99019900  0.75814200  1
  O  O11  1  0.50490100  0.00980100  0.25814200  1
  O  O12  1  0.49509900  0.50490100  0.75814200  1
  O  O13  1  0.99019900  0.49509900  0.25814200  1
loop_
_geom_bond_atom_site_label_1
_geom_bond_atom_site_label_2
_geom_bond_distance
_geom_bond_site_symmetry_2
Ba0 O11 3.041076 1_555
Ba0 O13 3.041076 1_555
Ba0 O8 3.041076 1_555
Ba0 O5 3.177099 1_655
Ba0 O5 3.177099 1_545
Ba0 O1 3.177099 1_555
Ba0 O2 3.177099 1_555
Ba0 O2 3.177099 1_655
Ba0 O1 3.177099 1_545
Ba0 O10 3.343938 1_545
Ba0 O9 3.343938 1_655
Ba0 O12 3.343944 1_555
Ba1 O10 3.041076 1_555
Ba1 O9 3.041076 1_555
Ba1 O12 3.041076 1_555
Ba1 O0 3.177099 1_566
Ba1 O0 3.177099 1_456
Ba1 O4 3.177099 1_556
Ba1 O3 3.177099 1_556
Ba1 O3 3.177099 1_456
Ba1 O4 3.177099 1_566
Ba1 O13 3.343938 1_456
Ba1 O11 3.343938 1_566
Ba1 O8 3.343944 1_556
Ni0 O0 1.908099 1_555
Ni0 O13 1.911440 1_555
Ni0 O11 1.911440 1_555
Ni0 O7 1.978055 1_655
Ni1 O1 1.908100 1_555
Ni1 O12 1.911440 1_555
Ni1 O10 1.911440 1_555
Ni1 O6 1.978060 1_665
Ni2 O2 1.908100 1_555
Ni2 O12 1.911440 1_555
Ni2 O9 1.911440 1_555
Ni2 O6 1.978060 1_555
Ni3 O3 1.908100 1_555
Ni3 O8 1.911440 1_555
Ni3 O13 1.911440 1_555
Ni3 O7 1.978060 1_665
Ni4 O4 1.908100 1_555
Ni4 O8 1.911440 1_555
Ni4 O11 1.911440 1_555
Ni4 O7 1.978060 1_555
Ni5 O5 1.908099 1_555
Ni5 O10 1.911440 1_555
Ni5 O9 1.911440 1_555
Ni5 O6 1.978055 1_565
Ni6 O1 1.938663 1_445
Ni6 O2 1.938663 1_555
Ni6 O5 1.938668 1_545
Ni6 O7 2.059153 1_555
Ni7 O3 1.938663 1_446
Ni7 O4 1.938663 1_556
Ni7 O0 1.938668 1_456
Ni7 O6 2.059153 1_555
O0 Y0 2.262803 1_554
O1 Y1 2.262812 1_555
O2 Y1 2.262812 1_555
O3 Y0 2.262812 1_554
O4 Y0 2.262812 1_554
O5 Y1 2.262803 1_555
O8 Y1 2.298437 1_555
O9 Y0 2.298428 1_455
O10 Y0 2.298428 1_565
O11 Y1 2.298428 1_545
O12 Y0 2.298437 1_555
O13 Y1 2.298428 1_655
