# generated using pymatgen
data_Na2ZnFe(PO4)2
_symmetry_space_group_name_H-M   'P 1'
_cell_length_a   9.08818600
_cell_length_b   5.08278500
_cell_length_c   8.58277672
_cell_angle_alpha   53.98156859
_cell_angle_beta   90.00000000
_cell_angle_gamma   90.00000000
_symmetry_Int_Tables_number   1
_chemical_formula_structural   Na2ZnFe(PO4)2
_chemical_formula_sum   'Na4 Zn2 Fe2 P4 O16'
_cell_volume   320.67334908
_cell_formula_units_Z   2
loop_
 _symmetry_equiv_pos_site_id
 _symmetry_equiv_pos_as_xyz
  1  'x, y, z'
loop_
 _atom_site_type_symbol
 _atom_site_label
 _atom_site_symmetry_multiplicity
 _atom_site_fract_x
 _atom_site_fract_y
 _atom_site_fract_z
 _atom_site_occupancy
  Na  Na0  1  0.85121400  0.28253100  0.24953600  1
  Na  Na1  1  0.35121400  0.71746900  0.25046400  1
  Na  Na2  1  0.14878600  0.71746900  0.75046400  1
  Na  Na3  1  0.64878600  0.28253100  0.74953600  1
  Zn  Zn0  1  0.50000000  0.00000000  0.50000000  1
  Zn  Zn1  1  0.00000000  0.00000000  0.00000000  1
  Fe  Fe0  1  0.50000000  0.50000000  0.00000000  1
  Fe  Fe1  1  0.00000000  0.50000000  0.50000000  1
  P  P0  1  0.67472300  0.78768000  0.25027600  1
  P  P1  1  0.17472300  0.21232000  0.24972400  1
  P  P2  1  0.32527700  0.21232000  0.74972400  1
  P  P3  1  0.82527700  0.78768000  0.75027600  1
  O  O0  1  0.84775900  0.79565400  0.24951200  1
  O  O1  1  0.34775900  0.20434600  0.25048800  1
  O  O2  1  0.15224100  0.20434600  0.75048800  1
  O  O3  1  0.65224100  0.79565400  0.74951200  1
  O  O4  1  0.62127000  0.11508300  0.06779600  1
  O  O5  1  0.12127000  0.88491700  0.43220400  1
  O  O6  1  0.37961000  0.24682900  0.56733800  1
  O  O7  1  0.87961000  0.75317100  0.93266200  1
  O  O8  1  0.37873000  0.88491700  0.93220400  1
  O  O9  1  0.87873000  0.11508300  0.56779600  1
  O  O10  1  0.62039000  0.75317100  0.43266200  1
  O  O11  1  0.12039000  0.24682900  0.06733800  1
  O  O12  1  0.61481800  0.50052100  0.25038800  1
  O  O13  1  0.11481800  0.49947900  0.24961200  1
  O  O14  1  0.38518200  0.49947900  0.74961200  1
  O  O15  1  0.88518200  0.50052100  0.75038800  1
loop_
_geom_bond_atom_site_label_1
_geom_bond_atom_site_label_2
_geom_bond_distance
_geom_bond_site_symmetry_2
Na0 O9 2.348209 1_555
Na0 O7 2.352465 1_554
Na0 O12 2.419278 1_555
Na0 O0 2.475011 1_545
Na0 O0 2.608162 1_555
Na0 O13 2.637439 1_655
Na1 O8 2.348209 1_554
Na1 O6 2.352465 1_555
Na1 O13 2.419278 1_555
Na1 O1 2.475011 1_565
Na1 O1 2.608162 1_555
Na1 O12 2.637439 1_555
Na2 O5 2.348209 1_555
Na2 O11 2.352465 1_556
Na2 O14 2.419278 1_555
Na2 O2 2.475011 1_565
Na2 O2 2.608162 1_555
Na2 O15 2.637439 1_455
Na3 O4 2.348209 1_556
Na3 O10 2.352465 1_555
Na3 O15 2.419278 1_555
Na3 O3 2.475011 1_545
Na3 O3 2.608162 1_555
Na3 O14 2.637439 1_555
Fe0 O4 2.010492 1_555
Fe0 O8 2.010492 1_554
Fe0 O3 2.234937 1_554
Fe0 O1 2.234937 1_555
Fe0 O12 2.390371 1_555
Fe0 O14 2.390371 1_554
Fe1 O9 2.010492 1_455
Fe1 O5 2.010492 1_555
Fe1 O2 2.234937 1_555
Fe1 O0 2.234937 1_455
Fe1 O13 2.390371 1_555
Fe1 O15 2.390371 1_455
O0 P0 1.573020 1_555
O0 Zn1 2.227830 1_665
O1 P1 1.573020 1_555
O1 Zn0 2.227830 1_555
O2 P2 1.573020 1_555
O2 Zn1 2.227830 1_556
O3 P3 1.573020 1_555
O3 Zn0 2.227830 1_565
O4 P0 1.546917 1_545
O5 P1 1.546917 1_565
O6 P2 1.549865 1_555
O6 Zn0 1.989438 1_555
O7 P3 1.549865 1_555
O7 Zn1 1.989438 1_666
O8 P2 1.546917 1_565
O9 P3 1.546917 1_545
O10 P0 1.549865 1_555
O10 Zn0 1.989438 1_565
O11 P1 1.549865 1_555
O11 Zn1 1.989438 1_555
O12 P0 1.557270 1_555
O12 Zn0 2.395982 1_555
O13 P1 1.557270 1_555
O13 Zn1 2.395982 1_565
O14 P2 1.557270 1_555
O14 Zn0 2.395982 1_565
O15 P3 1.557270 1_555
O15 Zn1 2.395982 1_656
