# generated using pymatgen
data_MgAg14(PbO3)6
_symmetry_space_group_name_H-M   'P 1'
_cell_length_a   9.04415660
_cell_length_b   8.77563595
_cell_length_c   8.95573341
_cell_angle_alpha   73.76851804
_cell_angle_beta   105.92673605
_cell_angle_gamma   106.13079583
_symmetry_Int_Tables_number   1
_chemical_formula_structural   MgAg14(PbO3)6
_chemical_formula_sum   'Mg1 Ag14 Pb6 O18'
_cell_volume   640.50988081
_cell_formula_units_Z   1
loop_
 _symmetry_equiv_pos_site_id
 _symmetry_equiv_pos_as_xyz
  1  'x, y, z'
loop_
 _atom_site_type_symbol
 _atom_site_label
 _atom_site_symmetry_multiplicity
 _atom_site_fract_x
 _atom_site_fract_y
 _atom_site_fract_z
 _atom_site_occupancy
  Mg  Mg0  1  0.85405331  0.99923277  0.87964991  1
  Ag  Ag0  1  0.80522918  0.22026910  0.59068918  1
  Ag  Ag1  1  0.17191471  0.33322271  0.83521674  1
  Ag  Ag2  1  0.58990369  0.76809941  0.80869392  1
  Ag  Ag3  1  0.49580949  0.00380168  0.49362326  1
  Ag  Ag4  1  0.13920190  0.90891673  0.92128746  1
  Ag  Ag5  1  0.23506105  0.72976169  0.73135323  1
  Ag  Ag6  1  0.42406534  0.57746992  0.58241590  1
  Ag  Ag7  1  0.58962207  0.42988154  0.42026338  1
  Ag  Ag8  1  0.72836142  0.26206098  0.23100463  1
  Ag  Ag9  1  0.94593548  0.07276816  0.17218547  1
  Ag  Ag10  1  0.01561527  0.52211349  0.49919567  1
  Ag  Ag11  1  0.83563065  0.66266186  0.17240950  1
  Ag  Ag12  1  0.17218522  0.83936072  0.33783358  1
  Ag  Ag13  1  0.49474681  0.46648977  0.02301359  1
  Pb  Pb0  1  0.49905448  0.15853859  0.83439961  1
  Pb  Pb1  1  0.83704767  0.49388505  0.84259387  1
  Pb  Pb2  1  0.17528231  0.17420583  0.49939445  1
  Pb  Pb3  1  0.83288033  0.84335588  0.50772072  1
  Pb  Pb4  1  0.17439834  0.49589842  0.17301459  1
  Pb  Pb5  1  0.49995390  0.83716011  0.16556313  1
  O  O0  1  0.76045082  0.18877337  0.83194358  1
  O  O1  1  0.54919776  0.42536556  0.82063624  1
  O  O2  1  0.90377965  0.12133254  0.45359875  1
  O  O3  1  0.22542120  0.14658583  0.76651359  1
  O  O4  1  0.84244299  0.82474057  0.77472692  1
  O  O5  1  0.45074313  0.88263576  0.89233277  1
  O  O6  1  0.11949735  0.51581298  0.90883300  1
  O  O7  1  0.44078933  0.19095745  0.56343881  1
  O  O8  1  0.82198096  0.57445117  0.55397303  1
  O  O9  1  0.52481910  0.10566399  0.09724984  1
  O  O10  1  0.19569987  0.44646171  0.44262088  1
  O  O11  1  0.91325449  0.47931216  0.12624058  1
  O  O12  1  0.56326429  0.81629583  0.43616013  1
  O  O13  1  0.16581461  0.23179977  0.23564854  1
  O  O14  1  0.76544935  0.85632523  0.21242004  1
  O  O15  1  0.44021338  0.55863795  0.19399334  1
  O  O16  1  0.10565783  0.89998133  0.52156714  1
  O  O17  1  0.23356627  0.76914639  0.15828304  1
loop_
_geom_bond_atom_site_label_1
_geom_bond_atom_site_label_2
_geom_bond_distance
_geom_bond_site_symmetry_2
Mg0 O0 1.962790 1_565
Mg0 O4 1.974767 1_555
Ag0 O2 2.163815 1_555
Ag0 O0 2.234461 1_555
Ag1 O6 2.100265 1_555
Ag1 O3 2.112470 1_555
Ag2 O5 2.190121 1_555
Ag2 O4 2.285220 1_555
Ag3 O7 2.129563 1_555
Ag3 O12 2.132639 1_545
Ag4 O17 2.206783 1_556
Ag4 O3 2.225487 1_565
Ag4 O4 2.641775 1_455
Ag5 O6 2.301505 1_555
Ag5 O16 2.307960 1_555
Ag5 O5 2.401470 1_555
Ag6 O10 2.284964 1_555
Ag6 O1 2.352952 1_555
Ag6 O12 2.365870 1_555
Ag7 O15 2.296652 1_555
Ag7 O8 2.333777 1_555
Ag7 O7 2.393379 1_555
Ag8 O9 2.238833 1_555
Ag8 O11 2.323989 1_555
Ag8 O2 2.448035 1_555
Ag9 O13 2.122815 1_655
Ag9 O14 2.149314 1_545
Ag10 O8 2.136100 1_455
Ag10 O10 2.142882 1_555
Ag11 O11 2.100391 1_555
Ag11 O14 2.117622 1_555
Ag12 O17 2.123069 1_555
Ag12 O16 2.136159 1_555
Ag13 O15 2.137812 1_555
Ag13 O1 2.147547 1_554
O0 Pb0 2.310113 1_555
O0 Pb1 2.595013 1_555
O1 Pb0 2.232286 1_555
O1 Pb1 2.468404 1_555
O2 Pb3 2.288510 1_545
O2 Pb2 2.309465 1_655
O3 Pb2 2.264684 1_555
O3 Pb0 2.360263 1_555
O4 Pb3 2.329839 1_555
O4 Pb1 2.784408 1_555
O5 Pb0 2.270842 1_565
O5 Pb5 2.302200 1_556
O6 Pb4 2.246574 1_556
O6 Pb1 2.423532 1_455
O7 Pb2 2.282952 1_555
O7 Pb0 2.289723 1_555
O8 Pb3 2.257587 1_555
O8 Pb1 2.457290 1_555
O9 Pb5 2.225344 1_545
O9 Pb0 2.226972 1_554
O10 Pb2 2.264562 1_555
O10 Pb4 2.293644 1_555
O11 Pb4 2.252769 1_655
O11 Pb1 2.418847 1_554
O12 Pb5 2.298452 1_555
O12 Pb3 2.306255 1_555
O13 Pb4 2.211165 1_555
O13 Pb2 2.255584 1_555
O14 Pb5 2.287381 1_555
O14 Pb3 2.522719 1_555
O15 Pb4 2.278695 1_555
O15 Pb5 2.307530 1_555
O16 Pb2 2.277414 1_565
O16 Pb3 2.352436 1_455
O17 Pb4 2.280938 1_555
O17 Pb5 2.302498 1_555
