# generated using pymatgen
data_K2PdS2
_symmetry_space_group_name_H-M   'P 1'
_cell_length_a   6.16638091
_cell_length_b   6.16638091
_cell_length_c   6.16638091
_cell_angle_alpha   145.92719612
_cell_angle_beta   109.26859858
_cell_angle_gamma   80.89040391
_symmetry_Int_Tables_number   1
_chemical_formula_structural   K2PdS2
_chemical_formula_sum   'K2 Pd1 S2'
_cell_volume   121.03504231
_cell_formula_units_Z   1
loop_
 _symmetry_equiv_pos_site_id
 _symmetry_equiv_pos_as_xyz
  1  'x, y, z'
loop_
 _atom_site_type_symbol
 _atom_site_label
 _atom_site_symmetry_multiplicity
 _atom_site_fract_x
 _atom_site_fract_y
 _atom_site_fract_z
 _atom_site_occupancy
  K  K0  1  0.69163551  0.19163551  0.50000000  1
  K  K1  1  0.30836449  0.80836449  0.50000000  1
  Pd  Pd0  1  0.00000000  -0.00000000  0.00000000  1
  S  S0  1  0.21718347  0.50000000  0.71718347  1
  S  S1  1  0.78281653  0.50000000  0.28281653  1
loop_
_geom_bond_atom_site_label_1
_geom_bond_atom_site_label_2
_geom_bond_distance
_geom_bond_site_symmetry_2
K0 S1 3.251820 1_545
K0 S0 3.251820 1_555
K0 S0 3.251820 1_544
K0 S1 3.251820 1_556
K0 S0 3.283232 1_655
K0 S1 3.283232 1_555
K0 Pd0 3.411763 1_655
K0 Pd0 3.411763 1_666
K1 S0 3.251820 1_565
K1 S1 3.251820 1_555
K1 S1 3.251820 1_566
K1 S0 3.251820 1_554
K1 S1 3.283232 1_455
K1 S0 3.283232 1_555
K1 Pd0 3.411763 1_555
K1 Pd0 3.411763 1_566
Pd0 S1 2.380599 1_444
Pd0 S0 2.380599 1_544
Pd0 S0 2.380599 1_555
Pd0 S1 2.380599 1_455
