# generated using pymatgen
data_CaTi2O4
_symmetry_space_group_name_H-M   'P 1'
_cell_length_a   6.38429998
_cell_length_b   6.38429998
_cell_length_c   20.70023384
_cell_angle_alpha   79.57173419
_cell_angle_beta   79.57173419
_cell_angle_gamma   57.58937039
_symmetry_Int_Tables_number   1
_chemical_formula_structural   CaTi2O4
_chemical_formula_sum   'Ca8 Ti16 O32'
_cell_volume   696.93924643
_cell_formula_units_Z   8
loop_
 _symmetry_equiv_pos_site_id
 _symmetry_equiv_pos_as_xyz
  1  'x, y, z'
loop_
 _atom_site_type_symbol
 _atom_site_label
 _atom_site_symmetry_multiplicity
 _atom_site_fract_x
 _atom_site_fract_y
 _atom_site_fract_z
 _atom_site_occupancy
  Ca  Ca0  1  0.66022200  0.66022200  0.02749600  1
  Ca  Ca1  1  0.12238400  0.12238400  0.12398500  1
  Ca  Ca2  1  0.91001800  0.91001800  0.28287900  1
  Ca  Ca3  1  0.37274300  0.37274300  0.37491000  1
  Ca  Ca4  1  0.62467200  0.62467200  0.62535300  1
  Ca  Ca5  1  0.49993500  0.49993500  0.49925600  1
  Ca  Ca6  1  0.87323700  0.87323700  0.87488900  1
  Ca  Ca7  1  0.74277300  0.74277300  0.75434000  1
  Ti  Ti0  1  0.62148200  0.12964700  0.12589700  1
  Ti  Ti1  1  0.25912300  0.25912300  0.24420300  1
  Ti  Ti2  1  0.12964700  0.62148200  0.12589700  1
  Ti  Ti3  1  0.15182300  0.15182300  0.53324000  1
  Ti  Ti4  1  0.87983200  0.37919700  0.37222000  1
  Ti  Ti5  1  0.60226300  0.60226300  0.21958000  1
  Ti  Ti6  1  0.39997600  0.39997600  0.78326600  1
  Ti  Ti7  1  0.37919700  0.87983200  0.37222000  1
  Ti  Ti8  1  0.11984200  0.62922400  0.62580400  1
  Ti  Ti9  1  0.85039900  0.85039900  0.46660500  1
  Ti  Ti10  1  0.62922400  0.11984200  0.62580400  1
  Ti  Ti11  1  0.89676300  0.34040600  0.88156500  1
  Ti  Ti12  1  0.34040600  0.89676300  0.88156500  1
  Ti  Ti13  1  0.09793000  0.09793000  0.71667100  1
  Ti  Ti14  1  0.00473500  0.00473500  0.99762600  1
  Ti  Ti15  1  0.35183600  0.35183600  0.97100900  1
  O  O0  1  0.26633700  0.80626200  0.06238400  1
  O  O1  1  0.92382800  0.92382800  0.17584000  1
  O  O2  1  0.80626200  0.26633700  0.06238400  1
  O  O3  1  0.83242900  0.83242900  0.06699500  1
  O  O4  1  0.44751100  0.44751100  0.19000900  1
  O  O5  1  0.51206300  0.06571000  0.31129400  1
  O  O6  1  0.44679400  0.94554300  0.18934000  1
  O  O7  1  0.17643800  0.17643800  0.43818300  1
  O  O8  1  0.06571000  0.51206300  0.31129400  1
  O  O9  1  0.32039900  0.32039900  0.06378000  1
  O  O10  1  0.08936400  0.08936400  0.31458700  1
  O  O11  1  0.94554300  0.44679400  0.18934000  1
  O  O12  1  0.81848400  0.28675000  0.56590900  1
  O  O13  1  0.70062300  0.70062300  0.43012500  1
  O  O14  1  0.72105300  0.18194600  0.43072800  1
  O  O15  1  0.42644400  0.42644400  0.68798900  1
  O  O16  1  0.28675000  0.81848400  0.56590900  1
  O  O17  1  0.57199500  0.57199500  0.31312400  1
  O  O18  1  0.30360900  0.30360900  0.56490300  1
  O  O19  1  0.18194600  0.72105300  0.43072800  1
  O  O20  1  0.94438000  0.94438000  0.68529800  1
  O  O21  1  0.07256700  0.53040100  0.81768400  1
  O  O22  1  0.96409000  0.43198200  0.68435800  1
  O  O23  1  0.67167100  0.67167100  0.91956800  1
  O  O24  1  0.53040100  0.07256700  0.81768400  1
  O  O25  1  0.82392900  0.82392900  0.56241800  1
  O  O26  1  0.54459800  0.54459800  0.81605400  1
  O  O27  1  0.43198200  0.96409000  0.68435800  1
  O  O28  1  0.19384700  0.19384700  0.94495200  1
  O  O29  1  0.19053500  0.69527800  0.94163700  1
  O  O30  1  0.07262500  0.07262500  0.81322800  1
  O  O31  1  0.69527800  0.19053500  0.94163700  1
loop_
_geom_bond_atom_site_label_1
_geom_bond_atom_site_label_2
_geom_bond_distance
_geom_bond_site_symmetry_2
Ca0 O0 2.188028 1_555
Ca0 O2 2.188028 1_555
Ca0 O23 2.211230 1_554
Ca0 O3 2.243333 1_555
Ca1 O0 2.250100 1_545
Ca1 O2 2.250100 1_455
Ca1 O1 2.259076 1_445
Ca1 O9 2.306944 1_555
Ca1 O11 2.312851 1_455
Ca1 O6 2.312851 1_545
Ca2 O5 2.180021 1_565
Ca2 O8 2.180021 1_655
Ca2 O1 2.189043 1_555
Ca2 O10 2.236594 1_665
Ca3 O5 2.238096 1_555
Ca3 O8 2.238096 1_555
Ca3 O14 2.297981 1_555
Ca3 O19 2.297981 1_555
Ca3 O7 2.313464 1_555
Ca3 O17 2.329999 1_555
Ca4 O12 2.290808 1_555
Ca4 O16 2.290808 1_555
Ca4 O22 2.292920 1_555
Ca4 O27 2.292920 1_555
Ca4 O15 2.326625 1_555
Ca4 O25 2.338507 1_555
Ca5 O12 2.293664 1_555
Ca5 O16 2.293664 1_555
Ca5 O19 2.317760 1_555
Ca5 O14 2.317760 1_555
Ca5 O18 2.332288 1_555
Ca5 O13 2.400690 1_555
Ca6 O23 2.254076 1_555
Ca6 O24 2.284579 1_565
Ca6 O21 2.284579 1_655
Ca6 O31 2.298105 1_565
Ca6 O29 2.298105 1_655
Ca6 O30 2.330376 1_665
Ca7 O24 2.299231 1_565
Ca7 O21 2.299231 1_655
Ca7 O27 2.307863 1_555
Ca7 O22 2.307863 1_555
Ca7 O26 2.319316 1_555
Ca7 O20 2.408313 1_555
O0 Ti2 2.002126 1_555
O0 Ti14 2.029516 1_564
O1 Ti0 2.008252 1_565
O1 Ti2 2.008252 1_655
O2 Ti0 2.002126 1_555
O2 Ti14 2.029516 1_654
O3 Ti0 2.098740 1_565
O3 Ti2 2.098740 1_655
O3 Ti14 2.153074 1_664
O4 Ti5 1.952215 1_555
O4 Ti1 2.173791 1_555
O4 Ti0 2.266784 1_555
O4 Ti2 2.266784 1_555
O5 Ti7 1.966818 1_545
O5 Ti1 2.028491 1_555
O6 Ti5 1.891185 1_555
O6 Ti1 2.119541 1_565
O6 Ti0 2.160139 1_565
O7 Ti3 1.929724 1_555
O7 Ti4 2.189618 1_455
O7 Ti7 2.189618 1_545
O8 Ti4 1.966818 1_455
O8 Ti1 2.028491 1_555
O9 Ti15 1.879509 1_554
O9 Ti2 2.156350 1_555
O9 Ti0 2.156350 1_555
O10 Ti7 2.050529 1_545
O10 Ti4 2.050529 1_455
O10 Ti1 2.141924 1_555
O11 Ti5 1.891185 1_555
O11 Ti1 2.119541 1_655
O11 Ti2 2.160139 1_655
O12 Ti3 1.858245 1_655
O12 Ti10 2.119498 1_555
O13 Ti9 1.975319 1_555
O13 Ti7 2.198633 1_555
O13 Ti4 2.198633 1_555
O14 Ti9 1.868978 1_545
O14 Ti4 2.110004 1_555
O15 Ti6 1.932930 1_555
O15 Ti8 2.181046 1_555
O15 Ti10 2.181046 1_555
O16 Ti3 1.858245 1_565
O16 Ti8 2.119498 1_555
O17 Ti5 1.895619 1_555
O17 Ti4 2.146183 1_555
O17 Ti7 2.146183 1_555
O18 Ti3 1.942726 1_555
O18 Ti8 2.255234 1_555
O18 Ti10 2.255234 1_555
O19 Ti9 1.868978 1_455
O19 Ti7 2.110004 1_555
O20 Ti13 1.958284 1_665
O20 Ti8 2.191208 1_655
O20 Ti10 2.191208 1_565
O21 Ti6 1.838496 1_555
O21 Ti11 2.195715 1_455
O22 Ti13 1.860890 1_655
O22 Ti8 2.096913 1_655
O23 Ti12 2.022833 1_555
O23 Ti11 2.022833 1_555
O24 Ti6 1.838496 1_555
O24 Ti12 2.195715 1_545
O25 Ti9 1.943899 1_555
O25 Ti10 2.150675 1_565
O25 Ti8 2.150675 1_655
O26 Ti6 1.879690 1_555
O26 Ti11 2.432132 1_555
O26 Ti12 2.432132 1_555
O27 Ti13 1.860890 1_565
O27 Ti10 2.096913 1_565
O28 Ti15 1.951967 1_555
O28 Ti14 2.171113 1_555
O28 Ti11 2.179132 1_455
O28 Ti12 2.179132 1_545
O29 Ti15 1.887166 1_555
O29 Ti12 2.103824 1_555
O29 Ti14 2.114855 1_565
O30 Ti13 1.959949 1_555
O30 Ti12 2.104112 1_545
O30 Ti11 2.104112 1_455
O31 Ti15 1.887166 1_555
O31 Ti11 2.103824 1_555
O31 Ti14 2.114855 1_655
