# generated using pymatgen
data_EuIn3
_symmetry_space_group_name_H-M   'P 1'
_cell_length_a   4.71854899
_cell_length_b   4.71854899
_cell_length_c   4.71854899
_cell_angle_alpha   90.00000000
_cell_angle_beta   90.00000000
_cell_angle_gamma   90.00000000
_symmetry_Int_Tables_number   1
_chemical_formula_structural   EuIn3
_chemical_formula_sum   'Eu1 In3'
_cell_volume   105.05709927
_cell_formula_units_Z   1
loop_
 _symmetry_equiv_pos_site_id
 _symmetry_equiv_pos_as_xyz
  1  'x, y, z'
loop_
 _atom_site_type_symbol
 _atom_site_label
 _atom_site_symmetry_multiplicity
 _atom_site_fract_x
 _atom_site_fract_y
 _atom_site_fract_z
 _atom_site_occupancy
  Eu  Eu0  1  -0.00000000  0.00000000  -0.00000000  1
  In  In0  1  -0.00000000  0.49999800  0.49999800  1
  In  In1  1  0.49999800  0.49999800  -0.00000000  1
  In  In2  1  0.49999800  -0.00000000  0.49999800  1
loop_
_geom_bond_atom_site_label_1
_geom_bond_atom_site_label_2
_geom_bond_distance
_geom_bond_site_symmetry_2
Eu0 In1 3.336505 1_555
Eu0 In2 3.336505 1_555
Eu0 In0 3.336505 1_555
Eu0 In1 3.336518 1_455
Eu0 In0 3.336518 1_545
Eu0 In2 3.336518 1_455
Eu0 In2 3.336518 1_554
Eu0 In1 3.336518 1_545
Eu0 In0 3.336518 1_554
Eu0 In0 3.336531 1_544
Eu0 In2 3.336531 1_454
Eu0 In1 3.336531 1_445
In0 In1 3.336505 1_555
In0 In2 3.336505 1_555
In0 In1 3.336518 1_455
In0 In2 3.336518 1_455
In0 In2 3.336518 1_565
In0 In1 3.336518 1_556
In0 In2 3.336531 1_465
In0 In1 3.336531 1_456
In1 In2 3.336505 1_555
In1 In2 3.336518 1_565
In1 In2 3.336518 1_554
In1 In2 3.336531 1_564
