# generated using pymatgen
data_Ba3Ta4NbO15
_symmetry_space_group_name_H-M   'P 1'
_cell_length_a   12.78284300
_cell_length_b   12.78284300
_cell_length_c   4.02491400
_cell_angle_alpha   90.00000000
_cell_angle_beta   90.00000000
_cell_angle_gamma   90.00000000
_symmetry_Int_Tables_number   1
_chemical_formula_structural   Ba3Ta4NbO15
_chemical_formula_sum   'Ba6 Ta8 Nb2 O30'
_cell_volume   657.67527504
_cell_formula_units_Z   2
loop_
 _symmetry_equiv_pos_site_id
 _symmetry_equiv_pos_as_xyz
  1  'x, y, z'
loop_
 _atom_site_type_symbol
 _atom_site_label
 _atom_site_symmetry_multiplicity
 _atom_site_fract_x
 _atom_site_fract_y
 _atom_site_fract_z
 _atom_site_occupancy
  Ba  Ba0  1  0.00000000  0.00000000  0.00000000  1
  Ba  Ba1  1  0.50000000  0.50000000  0.00000000  1
  Ba  Ba2  1  0.16927000  0.66927000  0.00000000  1
  Ba  Ba3  1  0.83073000  0.33073000  0.00000000  1
  Ba  Ba4  1  0.66927000  0.83073000  0.00000000  1
  Ba  Ba5  1  0.33073000  0.16927000  0.00000000  1
  Ta  Ta0  1  0.07536400  0.21362700  0.50000000  1
  Ta  Ta1  1  0.92463600  0.78637300  0.50000000  1
  Ta  Ta2  1  0.57536400  0.28637300  0.50000000  1
  Ta  Ta3  1  0.42463600  0.71362700  0.50000000  1
  Ta  Ta4  1  0.78637300  0.07536400  0.50000000  1
  Ta  Ta5  1  0.21362700  0.92463600  0.50000000  1
  Ta  Ta6  1  0.71362700  0.57536400  0.50000000  1
  Ta  Ta7  1  0.28637300  0.42463600  0.50000000  1
  Nb  Nb0  1  0.00000000  0.50000000  0.50000000  1
  Nb  Nb1  1  0.50000000  0.00000000  0.50000000  1
  O  O0  1  0.00000000  0.50000000  0.00000000  1
  O  O1  1  0.50000000  0.00000000  0.00000000  1
  O  O2  1  0.28173800  0.78173800  0.50000000  1
  O  O3  1  0.71826200  0.21826200  0.50000000  1
  O  O4  1  0.78173800  0.71826200  0.50000000  1
  O  O5  1  0.21826200  0.28173800  0.50000000  1
  O  O6  1  0.07712800  0.20897100  0.00000000  1
  O  O7  1  0.92287200  0.79102900  0.00000000  1
  O  O8  1  0.57712800  0.29102900  0.00000000  1
  O  O9  1  0.42287200  0.70897100  0.00000000  1
  O  O10  1  0.79102900  0.07712800  0.00000000  1
  O  O11  1  0.20897100  0.92287200  0.00000000  1
  O  O12  1  0.70897100  0.57712800  0.00000000  1
  O  O13  1  0.29102900  0.42287200  0.00000000  1
  O  O14  1  0.34159600  0.00765900  0.50000000  1
  O  O15  1  0.65840400  0.99234100  0.50000000  1
  O  O16  1  0.84159600  0.49234100  0.50000000  1
  O  O17  1  0.15840400  0.50765900  0.50000000  1
  O  O18  1  0.99234100  0.34159600  0.50000000  1
  O  O19  1  0.00765900  0.65840400  0.50000000  1
  O  O20  1  0.50765900  0.84159600  0.50000000  1
  O  O21  1  0.49234100  0.15840400  0.50000000  1
  O  O22  1  0.14003900  0.06819700  0.50000000  1
  O  O23  1  0.85996100  0.93180300  0.50000000  1
  O  O24  1  0.64003900  0.43180300  0.50000000  1
  O  O25  1  0.35996100  0.56819700  0.50000000  1
  O  O26  1  0.93180300  0.14003900  0.50000000  1
  O  O27  1  0.06819700  0.85996100  0.50000000  1
  O  O28  1  0.56819700  0.64003900  0.50000000  1
  O  O29  1  0.43180300  0.35996100  0.50000000  1
loop_
_geom_bond_atom_site_label_1
_geom_bond_atom_site_label_2
_geom_bond_distance
_geom_bond_site_symmetry_2
Ba0 O26 2.830968 1_454
Ba0 O22 2.830968 1_555
Ba0 O22 2.830968 1_554
Ba0 O26 2.830968 1_455
Ba0 O23 2.830968 1_445
Ba0 O23 2.830968 1_444
Ba0 O27 2.830968 1_544
Ba0 O27 2.830968 1_545
Ba0 O7 2.847380 1_445
Ba0 O6 2.847380 1_555
Ba0 O10 2.847380 1_455
Ba0 O11 2.847380 1_545
Ba1 O29 2.830968 1_555
Ba1 O29 2.830968 1_554
Ba1 O28 2.830968 1_555
Ba1 O24 2.830968 1_555
Ba1 O24 2.830968 1_554
Ba1 O25 2.830968 1_555
Ba1 O25 2.830968 1_554
Ba1 O28 2.830968 1_554
Ba1 O8 2.847380 1_555
Ba1 O12 2.847380 1_555
Ba1 O13 2.847380 1_555
Ba1 O9 2.847380 1_555
Ba2 O2 2.860720 1_554
Ba2 O2 2.860720 1_555
Ba2 O19 2.887387 1_555
Ba2 O19 2.887387 1_554
Ba2 O17 2.887387 1_554
Ba2 O17 2.887387 1_555
Ba3 O3 2.860720 1_554
Ba3 O3 2.860720 1_555
Ba3 O16 2.887387 1_555
Ba3 O16 2.887387 1_554
Ba3 O18 2.887387 1_554
Ba3 O18 2.887387 1_555
Ba4 O4 2.860720 1_554
Ba4 O4 2.860720 1_555
Ba4 O20 2.887387 1_554
Ba4 O15 2.887387 1_555
Ba4 O15 2.887387 1_554
Ba4 O20 2.887387 1_555
Ba5 O5 2.860720 1_554
Ba5 O5 2.860720 1_555
Ba5 O14 2.887387 1_554
Ba5 O21 2.887387 1_554
Ba5 O21 2.887387 1_555
Ba5 O14 2.887387 1_555
Nb0 O0 2.012457 1_555
Nb0 O0 2.012457 1_556
Nb0 O17 2.027219 1_555
Nb0 O18 2.027219 1_455
Nb0 O16 2.027219 1_455
Nb0 O19 2.027219 1_555
Nb1 O1 2.012457 1_556
Nb1 O1 2.012457 1_555
Nb1 O15 2.027219 1_545
Nb1 O21 2.027219 1_555
Nb1 O14 2.027219 1_555
Nb1 O20 2.027219 1_545
O2 Ta5 2.023526 1_555
O2 Ta3 2.023526 1_555
O3 Ta2 2.023526 1_555
O3 Ta4 2.023526 1_555
O4 Ta1 2.023526 1_555
O4 Ta6 2.023526 1_555
O5 Ta0 2.023526 1_555
O5 Ta7 2.023526 1_555
O6 Ta0 2.013463 1_554
O6 Ta0 2.013463 1_555
O7 Ta1 2.013463 1_554
O7 Ta1 2.013463 1_555
O8 Ta2 2.013463 1_554
O8 Ta2 2.013463 1_555
O9 Ta3 2.013463 1_555
O9 Ta3 2.013463 1_554
O10 Ta4 2.013463 1_555
O10 Ta4 2.013463 1_554
O11 Ta5 2.013463 1_554
O11 Ta5 2.013463 1_555
O12 Ta6 2.013463 1_555
O12 Ta6 2.013463 1_554
O13 Ta7 2.013463 1_554
O13 Ta7 2.013463 1_555
O14 Ta5 1.949913 1_545
O15 Ta4 1.949913 1_565
O16 Ta6 1.949913 1_555
O17 Ta7 1.949913 1_555
O18 Ta0 1.949913 1_655
O19 Ta1 1.949913 1_455
O20 Ta3 1.949913 1_555
O21 Ta2 1.949913 1_555
O22 Ta0 2.034551 1_555
O22 Ta5 2.062160 1_545
O23 Ta1 2.034551 1_555
O23 Ta4 2.062160 1_565
O24 Ta2 2.034551 1_555
O24 Ta6 2.062160 1_555
O25 Ta3 2.034551 1_555
O25 Ta7 2.062160 1_555
O26 Ta4 2.034551 1_555
O26 Ta0 2.062160 1_655
O27 Ta5 2.034551 1_555
O27 Ta1 2.062160 1_455
O28 Ta6 2.034551 1_555
O28 Ta3 2.062160 1_555
O29 Ta7 2.034551 1_555
O29 Ta2 2.062160 1_555
