# generated using pymatgen
data_Zn4P2O13
_symmetry_space_group_name_H-M   'P 1'
_cell_length_a   5.29879500
_cell_length_b   10.46367600
_cell_length_c   11.43120546
_cell_angle_alpha   58.65234875
_cell_angle_beta   90.00000000
_cell_angle_gamma   90.00000000
_symmetry_Int_Tables_number   1
_chemical_formula_structural   Zn4P2O13
_chemical_formula_sum   'Zn8 P4 O26'
_cell_volume   541.28346625
_cell_formula_units_Z   2
loop_
 _symmetry_equiv_pos_site_id
 _symmetry_equiv_pos_as_xyz
  1  'x, y, z'
loop_
 _atom_site_type_symbol
 _atom_site_label
 _atom_site_symmetry_multiplicity
 _atom_site_fract_x
 _atom_site_fract_y
 _atom_site_fract_z
 _atom_site_occupancy
  Zn  Zn0  1  0.00000000  0.00000000  0.50000000  1
  Zn  Zn1  1  0.00000000  0.00000000  0.00000000  1
  Zn  Zn2  1  0.04743100  0.00000000  0.75000000  1
  Zn  Zn3  1  0.95256900  0.00000000  0.25000000  1
  Zn  Zn4  1  0.69641200  0.71191100  0.00153700  1
  Zn  Zn5  1  0.69641200  0.28808900  0.49846300  1
  Zn  Zn6  1  0.30358800  0.28808900  0.99846300  1
  Zn  Zn7  1  0.30358800  0.71191100  0.50153700  1
  P  P0  1  0.51763600  0.80769700  0.70616000  1
  P  P1  1  0.51763600  0.19230300  0.79384000  1
  P  P2  1  0.48236400  0.19230300  0.29384000  1
  P  P3  1  0.48236400  0.80769700  0.20616000  1
  O  O0  1  0.28571700  0.91279100  0.66328000  1
  O  O1  1  0.28571700  0.08720900  0.83672000  1
  O  O2  1  0.71428300  0.08720900  0.33672000  1
  O  O3  1  0.71428300  0.91279100  0.16328000  1
  O  O4  1  0.76777600  0.90135100  0.66918700  1
  O  O5  1  0.76777600  0.09864900  0.83081300  1
  O  O6  1  0.23222400  0.09864900  0.33081300  1
  O  O7  1  0.23222400  0.90135100  0.16918700  1
  O  O8  1  0.52203800  0.69716400  0.86283200  1
  O  O9  1  0.52203800  0.30283600  0.63716800  1
  O  O10  1  0.47796200  0.30283600  0.13716800  1
  O  O11  1  0.47796200  0.69716400  0.36283200  1
  O  O12  1  0.52132000  0.72305300  0.62931600  1
  O  O13  1  0.52132000  0.27694700  0.87068400  1
  O  O14  1  0.47868000  0.27694700  0.37068400  1
  O  O15  1  0.47868000  0.72305300  0.12931600  1
  O  O16  1  0.97822000  0.84636600  0.94503300  1
  O  O17  1  0.97822000  0.15363400  0.55496700  1
  O  O18  1  0.02178000  0.15363400  0.05496700  1
  O  O19  1  0.02178000  0.84636600  0.44503300  1
  O  O20  1  0.89843200  0.50839900  0.14826500  1
  O  O21  1  0.89843200  0.49160100  0.35173500  1
  O  O22  1  0.10156800  0.49160100  0.85173500  1
  O  O23  1  0.10156800  0.50839900  0.64826500  1
  O  O24  1  0.97144800  0.50000000  0.75000000  1
  O  O25  1  0.02855200  0.50000000  0.25000000  1
loop_
_geom_bond_atom_site_label_1
_geom_bond_atom_site_label_2
_geom_bond_distance
_geom_bond_site_symmetry_2
O0 P0 1.548832 1_555
O0 Zn2 2.085867 1_565
O0 Zn0 2.199184 1_565
O1 P1 1.548832 1_555
O1 Zn2 2.085867 1_555
O1 Zn1 2.199184 1_556
O2 P2 1.548832 1_555
O2 Zn3 2.085867 1_555
O2 Zn0 2.199184 1_655
O3 P3 1.548832 1_555
O3 Zn3 2.085867 1_565
O3 Zn1 2.199184 1_665
O4 P0 1.569974 1_555
O4 Zn0 2.059838 1_665
O4 Zn2 2.259838 1_665
O5 P1 1.569974 1_555
O5 Zn1 2.059838 1_656
O5 Zn2 2.259838 1_655
O6 P2 1.569974 1_555
O6 Zn0 2.059838 1_555
O6 Zn3 2.259838 1_455
O7 P3 1.569974 1_555
O7 Zn1 2.059838 1_565
O7 Zn3 2.259838 1_465
O8 P0 1.546137 1_555
O8 Zn4 1.909481 1_556
O9 P1 1.546137 1_555
O9 Zn5 1.909481 1_555
O10 P2 1.546137 1_555
O10 Zn6 1.909481 1_554
O11 P3 1.546137 1_555
O11 Zn7 1.909481 1_555
O12 P0 1.538157 1_555
O12 Zn7 1.911908 1_555
O13 P1 1.538157 1_555
O13 Zn6 1.911908 1_555
O14 P2 1.538157 1_555
O14 Zn5 1.911908 1_555
O15 P3 1.538157 1_555
O15 Zn4 1.911908 1_555
O16 Zn4 1.918549 1_556
O16 Zn2 1.990040 1_665
O16 Zn1 2.010821 1_666
O17 Zn5 1.918549 1_555
O17 Zn2 1.990040 1_655
O17 Zn0 2.010821 1_655
O18 Zn6 1.918549 1_554
O18 Zn3 1.990040 1_455
O18 Zn1 2.010821 1_555
O19 Zn7 1.918549 1_555
O19 Zn3 1.990040 1_465
O19 Zn0 2.010821 1_565
O20 O25 1.315000 1_655
O20 Zn4 2.185774 1_555
O21 O25 1.315000 1_655
O21 Zn5 2.185774 1_555
O22 O24 1.315000 1_455
O22 Zn6 2.185774 1_555
O23 O24 1.315000 1_455
O23 Zn7 2.185774 1_555
