# generated using pymatgen
data_Mg6NbSb
_symmetry_space_group_name_H-M   'P 1'
_cell_length_a   5.04406400
_cell_length_b   6.34697900
_cell_length_c   10.68768600
_cell_angle_alpha   90.00000000
_cell_angle_beta   90.00000000
_cell_angle_gamma   90.00000000
_symmetry_Int_Tables_number   1
_chemical_formula_structural   Mg6NbSb
_chemical_formula_sum   'Mg12 Nb2 Sb2'
_cell_volume   342.16165323
_cell_formula_units_Z   2
loop_
 _symmetry_equiv_pos_site_id
 _symmetry_equiv_pos_as_xyz
  1  'x, y, z'
loop_
 _atom_site_type_symbol
 _atom_site_label
 _atom_site_symmetry_multiplicity
 _atom_site_fract_x
 _atom_site_fract_y
 _atom_site_fract_z
 _atom_site_occupancy
  Mg  Mg0  1  0.00000000  0.24443900  0.08128500  1
  Mg  Mg1  1  0.00000000  0.75556100  0.08128500  1
  Mg  Mg2  1  0.00000000  0.50000000  0.83469800  1
  Mg  Mg3  1  0.50000000  0.24483800  0.91565700  1
  Mg  Mg4  1  0.50000000  0.75516200  0.91565700  1
  Mg  Mg5  1  0.50000000  0.50000000  0.66634300  1
  Mg  Mg6  1  0.00000000  0.74443900  0.58128500  1
  Mg  Mg7  1  0.00000000  0.25556100  0.58128500  1
  Mg  Mg8  1  0.00000000  0.00000000  0.33469800  1
  Mg  Mg9  1  0.50000000  0.74483800  0.41565700  1
  Mg  Mg10  1  0.50000000  0.25516200  0.41565700  1
  Mg  Mg11  1  0.50000000  0.00000000  0.16634300  1
  Nb  Nb0  1  0.00000000  0.50000000  0.33222900  1
  Nb  Nb1  1  0.00000000  0.00000000  0.83222900  1
  Sb  Sb0  1  0.50000000  0.50000000  0.17284700  1
  Sb  Sb1  1  0.50000000  0.00000000  0.67284700  1
loop_
_geom_bond_atom_site_label_1
_geom_bond_atom_site_label_2
_geom_bond_distance
_geom_bond_site_symmetry_2
Mg0 Nb1 3.080965 1_554
Mg0 Mg3 3.081264 1_554
Mg0 Mg3 3.081264 1_454
Mg0 Mg2 3.094605 1_554
Mg0 Mg11 3.097427 1_455
Mg0 Mg11 3.097427 1_555
Mg0 Mg1 3.102898 1_545
Mg0 Mg8 3.121285 1_555
Mg0 Nb0 3.134357 1_555
Mg0 Sb0 3.154250 1_555
Mg0 Sb0 3.154250 1_455
Mg0 Mg1 3.244081 1_555
Mg1 Nb1 3.080965 1_564
Mg1 Mg4 3.081264 1_554
Mg1 Mg4 3.081264 1_454
Mg1 Mg2 3.094605 1_554
Mg1 Mg11 3.097427 1_565
Mg1 Mg11 3.097427 1_465
Mg1 Mg8 3.121285 1_565
Mg1 Nb0 3.134357 1_555
Mg1 Sb0 3.154250 1_555
Mg1 Sb0 3.154250 1_455
Mg2 Mg5 3.098099 1_455
Mg2 Mg5 3.098099 1_555
Mg2 Mg3 3.119637 1_555
Mg2 Mg4 3.119637 1_555
Mg2 Mg3 3.119637 1_455
Mg2 Mg4 3.119637 1_455
Mg2 Mg6 3.121285 1_555
Mg2 Mg7 3.121285 1_555
Mg2 Nb1 3.173599 1_555
Mg2 Nb1 3.173599 1_565
Mg3 Sb1 3.024778 1_555
Mg3 Nb1 3.093630 1_655
Mg3 Nb1 3.093630 1_555
Mg3 Mg4 3.107963 1_545
Mg3 Mg5 3.118148 1_555
Mg3 Sb0 3.190379 1_556
Mg3 Mg4 3.239016 1_555
Mg4 Sb1 3.024778 1_565
Mg4 Nb1 3.093630 1_565
Mg4 Nb1 3.093630 1_665
Mg4 Mg5 3.118148 1_555
Mg4 Sb0 3.190379 1_556
Mg5 Mg9 3.097298 1_555
Mg5 Mg7 3.097427 1_655
Mg5 Mg6 3.097427 1_555
Mg5 Mg7 3.097427 1_555
Mg5 Mg6 3.097427 1_655
Mg5 Sb1 3.174251 1_555
Mg5 Sb1 3.174251 1_565
Mg6 Nb0 3.080965 1_555
Mg6 Mg9 3.081264 1_455
Mg6 Mg9 3.081264 1_555
Mg6 Mg8 3.094605 1_565
Mg6 Mg7 3.102898 1_555
Mg6 Nb1 3.134357 1_565
Mg6 Sb1 3.154250 1_565
Mg6 Sb1 3.154250 1_465
Mg6 Mg7 3.244081 1_565
Mg7 Nb0 3.080965 1_555
Mg7 Mg8 3.094605 1_555
Mg7 Nb1 3.134357 1_555
Mg7 Sb1 3.154250 1_555
Mg7 Sb1 3.154250 1_455
Mg8 Mg9 3.119637 1_545
Mg8 Mg9 3.119637 1_445
Mg8 Nb0 3.173599 1_545
Mg8 Nb0 3.173599 1_555
Mg9 Sb0 3.024778 1_555
Mg9 Nb0 3.093630 1_555
Mg9 Nb0 3.093630 1_655
Mg9 Sb1 3.190379 1_565
Mg10 Sb0 3.024778 1_555
Mg10 Mg7 3.081264 1_555
Mg10 Mg7 3.081264 1_655
Mg10 Nb0 3.093630 1_555
Mg10 Nb0 3.093630 1_655
Mg10 Mg5 3.097298 1_555
Mg10 Mg9 3.107963 1_555
Mg10 Mg11 3.118148 1_555
Mg10 Mg8 3.119637 1_555
Mg10 Mg8 3.119637 1_655
Mg10 Sb1 3.190379 1_555
Mg10 Mg9 3.239016 1_545
Mg11 Mg4 3.097298 1_544
Mg11 Mg3 3.097298 1_554
Mg11 Mg8 3.098099 1_555
Mg11 Mg8 3.098099 1_655
Mg11 Mg9 3.118148 1_545
Mg11 Sb0 3.174251 1_545
Mg11 Sb0 3.174251 1_555
Nb0 Sb0 3.043403 1_455
Nb0 Sb0 3.043403 1_555
Nb1 Sb1 3.043403 1_455
Nb1 Sb1 3.043403 1_555
