# generated using pymatgen
data_Mg3Si4
_symmetry_space_group_name_H-M   'P 1'
_cell_length_a   4.86768400
_cell_length_b   7.85423206
_cell_length_c   8.08853372
_cell_angle_alpha   63.78699832
_cell_angle_beta   81.51601737
_cell_angle_gamma   74.71092943
_symmetry_Int_Tables_number   1
_chemical_formula_structural   Mg3Si4
_chemical_formula_sum   'Mg6 Si8'
_cell_volume   267.44579824
_cell_formula_units_Z   2
loop_
 _symmetry_equiv_pos_site_id
 _symmetry_equiv_pos_as_xyz
  1  'x, y, z'
loop_
 _atom_site_type_symbol
 _atom_site_label
 _atom_site_symmetry_multiplicity
 _atom_site_fract_x
 _atom_site_fract_y
 _atom_site_fract_z
 _atom_site_occupancy
  Mg  Mg0  1  0.21186700  0.16196000  0.28180900  1
  Mg  Mg1  1  0.58377800  0.23499400  0.87642300  1
  Mg  Mg2  1  0.73075900  0.61901300  0.54254400  1
  Mg  Mg3  1  0.23572900  0.73876300  0.27896500  1
  Mg  Mg4  1  0.62747900  0.44085900  0.15636500  1
  Mg  Mg5  1  0.25815000  0.96617700  0.80565400  1
  Si  Si0  1  0.18579800  0.68709600  0.68623700  1
  Si  Si1  1  0.77164100  0.01895700  0.26037700  1
  Si  Si2  1  0.79452400  0.26355700  0.52263700  1
  Si  Si3  1  0.25385600  0.35375200  0.50535700  1
  Si  Si4  1  0.02581300  0.38899200  0.88433200  1
  Si  Si5  1  0.10743900  0.60091700  0.02072900  1
  Si  Si6  1  0.75287700  0.94009900  0.59582600  1
  Si  Si7  1  0.71349100  0.83831700  0.08263500  1
loop_
_geom_bond_atom_site_label_1
_geom_bond_atom_site_label_2
_geom_bond_distance
_geom_bond_site_symmetry_2
Mg0 Si1 2.671096 1_555
Mg0 Si1 2.726619 1_455
Mg0 Si2 2.812264 1_455
Mg0 Si3 2.873696 1_555
Mg0 Si4 3.046156 1_554
Mg0 Si5 3.092729 1_555
Mg1 Si4 2.669890 1_555
Mg1 Si7 2.751385 1_546
Mg1 Si4 2.752875 1_655
Mg1 Si2 2.824810 1_555
Mg1 Si1 2.953752 1_556
Mg2 Si0 2.750427 1_555
Mg2 Si6 2.770247 1_555
Mg2 Si2 2.800355 1_555
Mg2 Si4 2.891431 1_655
Mg2 Si3 2.905946 1_655
Mg2 Si0 2.911407 1_655
Mg2 Si1 2.996360 1_565
Mg3 Si1 2.674888 1_465
Mg3 Si7 2.704431 1_555
Mg3 Si3 2.742347 1_555
Mg3 Si7 2.939619 1_455
Mg3 Si5 2.943513 1_555
Mg3 Si0 3.116171 1_555
Mg4 Si5 2.667342 1_555
Mg4 Si5 2.795799 1_655
Mg4 Si2 2.801145 1_555
Mg4 Si4 2.807757 1_654
Mg4 Si1 2.943801 1_555
Mg4 Si3 3.029739 1_555
Mg4 Si7 3.040901 1_555
Mg5 Si6 2.750043 1_555
Mg5 Si5 2.849422 1_556
Mg5 Si0 2.870478 1_555
Mg5 Si3 2.935350 1_565
Mg5 Si7 3.040426 1_556
Mg5 Si2 3.132078 1_465
Si0 Si6 2.426286 1_455
Si0 Si4 2.436200 1_555
Si0 Si5 2.477395 1_556
Si1 Si6 2.495197 1_545
Si1 Si7 2.508746 1_545
Si2 Si6 2.398611 1_545
Si2 Si3 2.485197 1_655
Si2 Si3 2.546681 1_555
Si4 Si5 2.499207 1_556
Si5 Si7 2.461807 1_455
