# generated using pymatgen
data_LaCe4
_symmetry_space_group_name_H-M   'P 1'
_cell_length_a   27.94518405
_cell_length_b   27.94518405
_cell_length_c   27.94518479
_cell_angle_alpha   13.96877273
_cell_angle_beta   13.96877273
_cell_angle_gamma   13.96877048
_symmetry_Int_Tables_number   1
_chemical_formula_structural   LaCe4
_chemical_formula_sum   'La8 Ce32'
_cell_volume   1106.74276763
_cell_formula_units_Z   8
loop_
 _symmetry_equiv_pos_site_id
 _symmetry_equiv_pos_as_xyz
  1  'x, y, z'
loop_
 _atom_site_type_symbol
 _atom_site_label
 _atom_site_symmetry_multiplicity
 _atom_site_fract_x
 _atom_site_fract_y
 _atom_site_fract_z
 _atom_site_occupancy
  La  La0_0  1  0.00000000  0.00000000  0.00000000  1
  La  La0_1  1  0.00000000  0.00000000  0.50000000  1
  La  La0_2  1  0.00000000  0.50000000  0.00000000  1
  La  La0_3  1  0.00000000  0.50000000  0.50000000  1
  La  La0_4  1  0.50000000  0.00000000  0.00000000  1
  La  La0_5  1  0.50000000  0.00000000  0.50000000  1
  La  La0_6  1  0.50000000  0.50000000  0.00000000  1
  La  La0_7  1  0.50000000  0.50000000  0.50000000  1
  Ce  Ce0_0  1  0.29902650  0.29902650  0.29902650  1
  Ce  Ce0_1  1  0.29902650  0.29902650  0.79902650  1
  Ce  Ce0_2  1  0.29902650  0.79902650  0.29902650  1
  Ce  Ce0_3  1  0.29902650  0.79902650  0.79902650  1
  Ce  Ce0_4  1  0.79902650  0.29902650  0.29902650  1
  Ce  Ce0_5  1  0.79902650  0.29902650  0.79902650  1
  Ce  Ce0_6  1  0.79902650  0.79902650  0.29902650  1
  Ce  Ce0_7  1  0.79902650  0.79902650  0.79902650  1
  Ce  Ce1_0  1  0.09973450  0.09973450  0.09973450  1
  Ce  Ce1_1  1  0.09973450  0.09973450  0.59973450  1
  Ce  Ce1_2  1  0.09973450  0.59973450  0.09973450  1
  Ce  Ce1_3  1  0.09973450  0.59973450  0.59973450  1
  Ce  Ce1_4  1  0.59973450  0.09973450  0.09973450  1
  Ce  Ce1_5  1  0.59973450  0.09973450  0.59973450  1
  Ce  Ce1_6  1  0.59973450  0.59973450  0.09973450  1
  Ce  Ce1_7  1  0.59973450  0.59973450  0.59973450  1
  Ce  Ce2_0  1  0.40026550  0.40026550  0.40026550  1
  Ce  Ce2_1  1  0.40026550  0.40026550  0.90026550  1
  Ce  Ce2_2  1  0.40026550  0.90026550  0.40026550  1
  Ce  Ce2_3  1  0.40026550  0.90026550  0.90026550  1
  Ce  Ce2_4  1  0.90026550  0.40026550  0.40026550  1
  Ce  Ce2_5  1  0.90026550  0.40026550  0.90026550  1
  Ce  Ce2_6  1  0.90026550  0.90026550  0.40026550  1
  Ce  Ce2_7  1  0.90026550  0.90026550  0.90026550  1
  Ce  Ce3_0  1  0.20097350  0.20097350  0.20097350  1
  Ce  Ce3_1  1  0.20097350  0.20097350  0.70097350  1
  Ce  Ce3_2  1  0.20097350  0.70097350  0.20097350  1
  Ce  Ce3_3  1  0.20097350  0.70097350  0.70097350  1
  Ce  Ce3_4  1  0.70097350  0.20097350  0.20097350  1
  Ce  Ce3_5  1  0.70097350  0.20097350  0.70097350  1
  Ce  Ce3_6  1  0.70097350  0.70097350  0.20097350  1
  Ce  Ce3_7  1  0.70097350  0.70097350  0.70097350  1
loop_
_geom_bond_atom_site_label_1
_geom_bond_atom_site_label_2
_geom_bond_distance
_geom_bond_site_symmetry_2
La0_0 La0_6 3.398102 1_545
La0_0 La0_6 3.398102 1_455
La0_0 La0_5 3.398103 1_455
La0_0 La0_5 3.398103 1_554
La0_0 La0_3 3.398103 1_554
La0_0 La0_3 3.398103 1_545
La0_1 La0_7 3.398102 1_545
La0_1 La0_7 3.398102 1_455
La0_1 La0_2 3.398103 1_555
La0_1 La0_4 3.398103 1_555
La0_1 La0_4 3.398103 1_456
La0_1 La0_2 3.398103 1_546
La0_2 La0_4 3.398102 1_465
La0_2 La0_4 3.398102 1_555
La0_2 La0_7 3.398103 1_554
La0_2 La0_7 3.398103 1_455
La0_3 La0_5 3.398102 1_465
La0_3 La0_5 3.398102 1_555
La0_3 La0_6 3.398103 1_456
La0_3 La0_6 3.398103 1_555
La0_4 La0_7 3.398103 1_554
La0_4 La0_7 3.398103 1_545
La0_5 La0_6 3.398103 1_555
La0_5 La0_6 3.398103 1_546
Ce0_0 Ce1_1 3.344048 1_555
Ce0_0 Ce1_4 3.344048 1_555
Ce0_0 Ce1_2 3.344048 1_555
Ce0_0 Ce0_6 3.398102 1_545
Ce0_0 Ce0_6 3.398102 1_455
Ce0_0 Ce0_5 3.398103 1_455
Ce0_0 Ce0_3 3.398103 1_545
Ce0_0 Ce0_3 3.398103 1_554
Ce0_0 Ce0_5 3.398103 1_554
Ce0_0 La0_6 3.458046 1_555
Ce0_0 La0_5 3.458046 1_555
Ce0_0 La0_3 3.458046 1_555
Ce0_1 Ce1_0 3.344048 1_556
Ce0_1 Ce1_5 3.344048 1_555
Ce0_1 Ce1_3 3.344048 1_555
Ce0_1 Ce0_7 3.398102 1_455
Ce0_1 Ce0_7 3.398102 1_545
Ce0_1 Ce0_4 3.398103 1_555
Ce0_1 Ce0_2 3.398103 1_555
Ce0_1 Ce0_4 3.398103 1_456
Ce0_1 Ce0_2 3.398103 1_546
Ce0_1 La0_7 3.458046 1_555
Ce0_1 La0_4 3.458046 1_556
Ce0_1 La0_2 3.458046 1_556
Ce0_2 Ce1_3 3.344048 1_555
Ce0_2 Ce1_6 3.344048 1_555
Ce0_2 Ce1_0 3.344048 1_565
Ce0_2 Ce0_4 3.398102 1_555
Ce0_2 Ce0_4 3.398102 1_465
Ce0_2 Ce0_7 3.398103 1_554
Ce0_2 Ce0_7 3.398103 1_455
Ce0_2 La0_4 3.458046 1_565
Ce0_2 La0_7 3.458046 1_555
Ce0_2 La0_1 3.458046 1_565
Ce0_3 Ce1_2 3.344048 1_556
Ce0_3 Ce1_1 3.344048 1_565
Ce0_3 Ce1_7 3.344048 1_555
Ce0_3 Ce0_5 3.398102 1_465
Ce0_3 Ce0_5 3.398102 1_555
Ce0_3 Ce0_6 3.398103 1_555
Ce0_3 Ce0_6 3.398103 1_456
Ce0_3 La0_5 3.458046 1_565
Ce0_3 La0_0 3.458046 1_566
Ce0_3 La0_6 3.458046 1_556
Ce0_4 Ce1_5 3.344048 1_555
Ce0_4 Ce1_6 3.344048 1_555
Ce0_4 Ce1_0 3.344048 1_655
Ce0_4 Ce0_7 3.398103 1_554
Ce0_4 Ce0_7 3.398103 1_545
Ce0_4 La0_2 3.458046 1_655
Ce0_4 La0_7 3.458046 1_555
Ce0_4 La0_1 3.458046 1_655
Ce0_5 Ce1_4 3.344048 1_556
Ce0_5 Ce1_1 3.344048 1_655
Ce0_5 Ce1_7 3.344048 1_555
Ce0_5 Ce0_6 3.398103 1_555
Ce0_5 Ce0_6 3.398103 1_546
Ce0_5 La0_3 3.458046 1_655
Ce0_5 La0_0 3.458046 1_656
Ce0_5 La0_6 3.458046 1_556
Ce0_6 Ce1_7 3.344048 1_555
Ce0_6 Ce1_2 3.344048 1_655
Ce0_6 Ce1_4 3.344048 1_565
Ce0_6 La0_0 3.458046 1_665
Ce0_6 La0_3 3.458046 1_655
Ce0_6 La0_5 3.458046 1_565
Ce0_7 Ce1_6 3.344048 1_556
Ce0_7 Ce1_5 3.344048 1_565
Ce0_7 Ce1_3 3.344048 1_655
Ce0_7 La0_1 3.458046 1_665
Ce0_7 La0_4 3.458046 1_566
Ce0_7 La0_2 3.458046 1_656
Ce1_0 Ce2_6 3.355957 1_445
Ce1_0 Ce2_5 3.355957 1_454
Ce1_0 Ce2_3 3.355957 1_544
Ce1_0 Ce1_6 3.398102 1_455
Ce1_0 Ce1_6 3.398102 1_545
Ce1_0 Ce1_5 3.398103 1_455
Ce1_0 Ce1_3 3.398103 1_545
Ce1_0 Ce1_5 3.398103 1_554
Ce1_0 Ce1_3 3.398103 1_554
Ce1_1 Ce2_7 3.355957 1_445
Ce1_1 Ce2_4 3.355957 1_455
Ce1_1 Ce2_2 3.355957 1_545
Ce1_1 Ce1_7 3.398102 1_455
Ce1_1 Ce1_7 3.398102 1_545
Ce1_1 Ce1_2 3.398103 1_546
Ce1_1 Ce1_4 3.398103 1_456
Ce1_1 Ce1_4 3.398103 1_555
Ce1_1 Ce1_2 3.398103 1_555
Ce1_2 Ce2_4 3.355957 1_455
Ce1_2 Ce2_7 3.355957 1_454
Ce1_2 Ce2_1 3.355957 1_554
Ce1_2 Ce1_4 3.398102 1_465
Ce1_2 Ce1_4 3.398102 1_555
Ce1_2 Ce1_7 3.398103 1_554
Ce1_2 Ce1_7 3.398103 1_455
Ce1_3 Ce2_5 3.355957 1_455
Ce1_3 Ce2_0 3.355957 1_555
Ce1_3 Ce2_6 3.355957 1_455
Ce1_3 Ce1_5 3.398102 1_465
Ce1_3 Ce1_5 3.398102 1_555
Ce1_3 Ce1_6 3.398103 1_555
Ce1_3 Ce1_6 3.398103 1_456
Ce1_4 Ce2_2 3.355957 1_545
Ce1_4 Ce2_7 3.355957 1_544
Ce1_4 Ce2_1 3.355957 1_554
Ce1_4 Ce1_7 3.398103 1_554
Ce1_4 Ce1_7 3.398103 1_545
Ce1_5 Ce2_3 3.355957 1_545
Ce1_5 Ce2_6 3.355957 1_545
Ce1_5 Ce2_0 3.355957 1_555
Ce1_5 Ce1_6 3.398103 1_555
Ce1_5 Ce1_6 3.398103 1_546
Ce1_6 Ce2_0 3.355957 1_555
Ce1_6 Ce2_3 3.355957 1_554
Ce1_6 Ce2_5 3.355957 1_554
Ce1_7 Ce2_1 3.355957 1_555
Ce1_7 Ce2_2 3.355957 1_555
Ce1_7 Ce2_4 3.355957 1_555
Ce2_0 Ce3_1 3.344048 1_555
Ce2_0 Ce3_4 3.344048 1_555
Ce2_0 Ce3_2 3.344048 1_555
Ce2_0 Ce2_6 3.398102 1_545
Ce2_0 Ce2_6 3.398102 1_455
Ce2_0 Ce2_3 3.398103 1_545
Ce2_0 Ce2_5 3.398103 1_455
Ce2_0 Ce2_5 3.398103 1_554
Ce2_0 Ce2_3 3.398103 1_554
Ce2_1 Ce3_0 3.344048 1_556
Ce2_1 Ce3_5 3.344048 1_555
Ce2_1 Ce3_3 3.344048 1_555
Ce2_1 Ce2_7 3.398102 1_455
Ce2_1 Ce2_7 3.398102 1_545
Ce2_1 Ce2_2 3.398103 1_555
Ce2_1 Ce2_4 3.398103 1_555
Ce2_1 Ce2_2 3.398103 1_546
Ce2_1 Ce2_4 3.398103 1_456
Ce2_2 Ce3_3 3.344048 1_555
Ce2_2 Ce3_6 3.344048 1_555
Ce2_2 Ce3_0 3.344048 1_565
Ce2_2 Ce2_4 3.398102 1_465
Ce2_2 Ce2_4 3.398102 1_555
Ce2_2 Ce2_7 3.398103 1_455
Ce2_2 Ce2_7 3.398103 1_554
Ce2_3 Ce3_2 3.344048 1_556
Ce2_3 Ce3_1 3.344048 1_565
Ce2_3 Ce3_7 3.344048 1_555
Ce2_3 Ce2_5 3.398102 1_555
Ce2_3 Ce2_5 3.398102 1_465
Ce2_3 Ce2_6 3.398103 1_555
Ce2_3 Ce2_6 3.398103 1_456
Ce2_4 Ce3_5 3.344048 1_555
Ce2_4 Ce3_6 3.344048 1_555
Ce2_4 Ce3_0 3.344048 1_655
Ce2_4 Ce2_7 3.398103 1_545
Ce2_4 Ce2_7 3.398103 1_554
Ce2_5 Ce3_4 3.344048 1_556
Ce2_5 Ce3_1 3.344048 1_655
Ce2_5 Ce3_7 3.344048 1_555
Ce2_5 Ce2_6 3.398103 1_555
Ce2_5 Ce2_6 3.398103 1_546
Ce2_6 Ce3_7 3.344048 1_555
Ce2_6 Ce3_4 3.344048 1_565
Ce2_6 Ce3_2 3.344048 1_655
Ce2_7 Ce3_6 3.344048 1_556
Ce2_7 Ce3_3 3.344048 1_655
Ce2_7 Ce3_5 3.344048 1_565
Ce3_0 Ce3_6 3.398102 1_545
Ce3_0 Ce3_6 3.398102 1_455
Ce3_0 Ce3_5 3.398103 1_554
Ce3_0 Ce3_3 3.398103 1_554
Ce3_0 Ce3_5 3.398103 1_455
Ce3_0 Ce3_3 3.398103 1_545
Ce3_0 La0_1 3.458046 1_555
Ce3_0 La0_4 3.458046 1_555
Ce3_0 La0_2 3.458046 1_555
Ce3_1 Ce3_7 3.398102 1_545
Ce3_1 Ce3_7 3.398102 1_455
Ce3_1 Ce3_2 3.398103 1_546
Ce3_1 Ce3_4 3.398103 1_456
Ce3_1 Ce3_4 3.398103 1_555
Ce3_1 Ce3_2 3.398103 1_555
Ce3_1 La0_0 3.458046 1_556
Ce3_1 La0_5 3.458046 1_555
Ce3_1 La0_3 3.458046 1_555
Ce3_2 Ce3_4 3.398102 1_465
Ce3_2 Ce3_4 3.398102 1_555
Ce3_2 Ce3_7 3.398103 1_554
Ce3_2 Ce3_7 3.398103 1_455
Ce3_2 La0_3 3.458046 1_555
Ce3_2 La0_0 3.458046 1_565
Ce3_2 La0_6 3.458046 1_555
Ce3_3 Ce3_5 3.398102 1_555
Ce3_3 Ce3_5 3.398102 1_465
Ce3_3 Ce3_6 3.398103 1_456
Ce3_3 Ce3_6 3.398103 1_555
Ce3_3 La0_2 3.458046 1_556
Ce3_3 La0_1 3.458046 1_565
Ce3_3 La0_7 3.458046 1_555
Ce3_4 Ce3_7 3.398103 1_554
Ce3_4 Ce3_7 3.398103 1_545
Ce3_4 La0_5 3.458046 1_555
Ce3_4 La0_0 3.458046 1_655
Ce3_4 La0_6 3.458046 1_555
Ce3_5 Ce3_6 3.398103 1_546
Ce3_5 Ce3_6 3.398103 1_555
Ce3_5 La0_4 3.458046 1_556
Ce3_5 La0_1 3.458046 1_655
Ce3_5 La0_7 3.458046 1_555
Ce3_6 La0_7 3.458046 1_555
Ce3_6 La0_2 3.458046 1_655
Ce3_6 La0_4 3.458046 1_565
Ce3_7 La0_6 3.458046 1_556
Ce3_7 La0_3 3.458046 1_655
Ce3_7 La0_5 3.458046 1_565
