# generated using pymatgen
data_Ba3InIrRuO9
_symmetry_space_group_name_H-M   'P 1'
_cell_length_a   5.90735345
_cell_length_b   5.90735345
_cell_length_c   14.54490400
_cell_angle_alpha   90.00000000
_cell_angle_beta   90.00000000
_cell_angle_gamma   119.99999386
_symmetry_Int_Tables_number   1
_chemical_formula_structural   Ba3InIrRuO9
_chemical_formula_sum   'Ba6 In2 Ir2 Ru2 O18'
_cell_volume   439.56937856
_cell_formula_units_Z   2
loop_
 _symmetry_equiv_pos_site_id
 _symmetry_equiv_pos_as_xyz
  1  'x, y, z'
loop_
 _atom_site_type_symbol
 _atom_site_label
 _atom_site_symmetry_multiplicity
 _atom_site_fract_x
 _atom_site_fract_y
 _atom_site_fract_z
 _atom_site_occupancy
  Ba  Ba0  1  0.00000000  0.00000000  0.74927900  1
  Ba  Ba1  1  0.00000000  0.00000000  0.24928000  1
  Ba  Ba2  1  0.33333300  0.66666700  0.41403900  1
  Ba  Ba3  1  0.66666700  0.33333300  0.58916600  1
  Ba  Ba4  1  0.66666700  0.33333300  0.91403900  1
  Ba  Ba5  1  0.33333300  0.66666700  0.08916600  1
  In  In0  1  0.00000000  0.00000000  0.50014600  1
  In  In1  1  0.00000000  0.00000000  0.00014600  1
  Ir  Ir0  1  0.33333300  0.66666700  0.66358900  1
  Ir  Ir1  1  0.66666700  0.33333300  0.16358900  1
  Ru  Ru0  1  0.66666700  0.33333300  0.33811100  1
  Ru  Ru1  1  0.33333300  0.66666700  0.83811100  1
  O  O0  1  0.48843100  0.51156900  0.75102900  1
  O  O1  1  0.02313800  0.51156900  0.75102900  1
  O  O2  1  0.48843100  0.97686200  0.75102900  1
  O  O3  1  0.51156900  0.48843100  0.25102900  1
  O  O4  1  0.97686200  0.48843100  0.25102900  1
  O  O5  1  0.51156900  0.02313800  0.25102900  1
  O  O6  1  0.17342400  0.82657600  0.91439800  1
  O  O7  1  0.65315300  0.82657600  0.91439800  1
  O  O8  1  0.17342400  0.34684700  0.91439800  1
  O  O9  1  0.82622100  0.17377900  0.08310100  1
  O  O10  1  0.34755700  0.17377900  0.08310100  1
  O  O11  1  0.82622100  0.65244300  0.08310100  1
  O  O12  1  0.82657600  0.17342400  0.41439800  1
  O  O13  1  0.34684700  0.17342400  0.41439800  1
  O  O14  1  0.82657600  0.65315300  0.41439800  1
  O  O15  1  0.17377900  0.82622100  0.58310100  1
  O  O16  1  0.65244300  0.82622100  0.58310100  1
  O  O17  1  0.17377900  0.34755700  0.58310100  1
loop_
_geom_bond_atom_site_label_1
_geom_bond_atom_site_label_2
_geom_bond_distance
_geom_bond_site_symmetry_2
Ba0 O1 2.956157 1_545
Ba0 O2 2.956157 1_545
Ba0 O2 2.956157 1_445
Ba0 O1 2.956157 1_555
Ba0 O0 2.956158 1_445
Ba0 O0 2.956158 1_555
Ba0 O7 2.986053 1_445
Ba0 O8 2.986053 1_555
Ba0 O6 2.986056 1_545
Ba0 O16 3.000607 1_445
Ba0 O17 3.000607 1_555
Ba0 O15 3.000610 1_545
Ba1 O4 2.956157 1_455
Ba1 O5 2.956157 1_455
Ba1 O4 2.956157 1_445
Ba1 O5 2.956157 1_555
Ba1 O3 2.956157 1_445
Ba1 O3 2.956157 1_555
Ba1 O14 2.986042 1_445
Ba1 O13 2.986042 1_555
Ba1 O12 2.986045 1_455
Ba1 O10 3.000619 1_555
Ba1 O11 3.000619 1_445
Ba1 O9 3.000622 1_455
Ba2 O15 2.951574 1_555
Ba2 O16 2.951580 1_555
Ba2 O17 2.951580 1_555
Ba2 O14 2.954490 1_555
Ba2 O13 2.954490 1_555
Ba2 O13 2.954490 1_565
Ba2 O14 2.954490 1_455
Ba2 O12 2.954491 1_565
Ba2 O12 2.954491 1_455
Ba2 O4 2.991199 1_455
Ba2 O5 2.991199 1_565
Ba2 O3 2.991202 1_555
Ba3 O17 2.955890 1_555
Ba3 O16 2.955890 1_555
Ba3 O17 2.955890 1_655
Ba3 O16 2.955890 1_545
Ba3 O15 2.955890 1_655
Ba3 O15 2.955890 1_545
Ba3 O2 2.977992 1_545
Ba3 O1 2.977992 1_655
Ba3 O0 2.977995 1_555
Ba3 O12 3.023030 1_555
Ba3 O14 3.023036 1_555
Ba3 O13 3.023036 1_555
Ba4 O9 2.951574 1_556
Ba4 O11 2.951580 1_556
Ba4 O10 2.951580 1_556
Ba4 O8 2.954490 1_555
Ba4 O7 2.954490 1_555
Ba4 O7 2.954490 1_545
Ba4 O8 2.954490 1_655
Ba4 O6 2.954491 1_655
Ba4 O6 2.954491 1_545
Ba4 O2 2.991199 1_545
Ba4 O1 2.991199 1_655
Ba4 O0 2.991202 1_555
Ba5 O10 2.955890 1_555
Ba5 O11 2.955890 1_555
Ba5 O10 2.955890 1_565
Ba5 O11 2.955890 1_455
Ba5 O9 2.955890 1_565
Ba5 O9 2.955890 1_455
Ba5 O4 2.977992 1_455
Ba5 O5 2.977992 1_565
Ba5 O3 2.977995 1_555
Ba5 O6 3.023030 1_554
Ba5 O8 3.023036 1_554
Ba5 O7 3.023036 1_554
In0 O17 2.148805 1_555
In0 O16 2.148805 1_445
In0 O15 2.148809 1_545
In0 O13 2.168903 1_555
In0 O14 2.168903 1_445
In0 O12 2.168907 1_455
In1 O11 2.148805 1_445
In1 O10 2.148805 1_555
In1 O9 2.148809 1_455
In1 O8 2.168903 1_554
In1 O7 2.168903 1_444
In1 O6 2.168907 1_544
Ir0 O15 2.008898 1_555
Ir0 O16 2.008906 1_555
Ir0 O17 2.008906 1_555
Ir0 O1 2.033678 1_555
Ir0 O2 2.033678 1_555
Ir0 O0 2.033682 1_555
Ir1 O9 2.008898 1_555
Ir1 O10 2.008906 1_555
Ir1 O11 2.008906 1_555
Ir1 O4 2.033678 1_555
Ir1 O5 2.033678 1_555
Ir1 O3 2.033682 1_555
O0 Ru1 2.030429 1_555
O1 Ru1 2.030426 1_555
O2 Ru1 2.030426 1_555
O3 Ru0 2.030429 1_555
O4 Ru0 2.030426 1_555
O5 Ru0 2.030426 1_555
O6 Ru1 1.976920 1_555
O7 Ru1 1.976928 1_555
O8 Ru1 1.976928 1_555
O12 Ru0 1.976920 1_555
O13 Ru0 1.976928 1_555
O14 Ru0 1.976928 1_555
