# generated using pymatgen
data_BaHo2CuO5
_symmetry_space_group_name_H-M   'P 1'
_cell_length_a   5.68849900
_cell_length_b   7.20474700
_cell_length_c   12.21924400
_cell_angle_alpha   90.00000000
_cell_angle_beta   90.00000000
_cell_angle_gamma   90.00000000
_symmetry_Int_Tables_number   1
_chemical_formula_structural   BaHo2CuO5
_chemical_formula_sum   'Ba4 Ho8 Cu4 O20'
_cell_volume   500.79589235
_cell_formula_units_Z   4
loop_
 _symmetry_equiv_pos_site_id
 _symmetry_equiv_pos_as_xyz
  1  'x, y, z'
loop_
 _atom_site_type_symbol
 _atom_site_label
 _atom_site_symmetry_multiplicity
 _atom_site_fract_x
 _atom_site_fract_y
 _atom_site_fract_z
 _atom_site_occupancy
  Ba  Ba0  1  0.75000000  0.06888900  0.09578200  1
  Ba  Ba1  1  0.75000000  0.43111100  0.59578200  1
  Ba  Ba2  1  0.25000000  0.56888900  0.40421800  1
  Ba  Ba3  1  0.25000000  0.93111100  0.90421800  1
  Ho  Ho0  1  0.25000000  0.39691700  0.07390200  1
  Ho  Ho1  1  0.75000000  0.61347900  0.21299100  1
  Ho  Ho2  1  0.75000000  0.88652100  0.71299100  1
  Ho  Ho3  1  0.25000000  0.11347900  0.28700900  1
  Ho  Ho4  1  0.75000000  0.60308300  0.92609800  1
  Ho  Ho5  1  0.75000000  0.89691700  0.42609800  1
  Ho  Ho6  1  0.25000000  0.10308300  0.57390200  1
  Ho  Ho7  1  0.25000000  0.38652100  0.78700900  1
  Cu  Cu0  1  0.25000000  0.78226400  0.16063600  1
  Cu  Cu1  1  0.75000000  0.21773600  0.83936400  1
  Cu  Cu2  1  0.75000000  0.28226400  0.33936400  1
  Cu  Cu3  1  0.25000000  0.71773600  0.66063600  1
  O  O0  1  0.25000000  0.41464000  0.60018300  1
  O  O1  1  0.75000000  0.58536000  0.39981700  1
  O  O2  1  0.75000000  0.91464000  0.89981700  1
  O  O3  1  0.25000000  0.08536000  0.10018300  1
  O  O4  1  0.00311900  0.85641100  0.27191300  1
  O  O5  1  0.50311900  0.14358900  0.72808700  1
  O  O6  1  0.99688100  0.35641100  0.22808700  1
  O  O7  1  0.49688100  0.64358900  0.77191300  1
  O  O8  1  0.99688100  0.14358900  0.72808700  1
  O  O9  1  0.49688100  0.85641100  0.27191300  1
  O  O10  1  0.00311900  0.64358900  0.77191300  1
  O  O11  1  0.50311900  0.35641100  0.22808700  1
  O  O12  1  0.49492600  0.66091200  0.06805700  1
  O  O13  1  0.99492600  0.33908800  0.93194300  1
  O  O14  1  0.50507400  0.16091200  0.43194300  1
  O  O15  1  0.00507400  0.83908800  0.56805700  1
  O  O16  1  0.99492600  0.16091200  0.43194300  1
  O  O17  1  0.49492600  0.83908800  0.56805700  1
  O  O18  1  0.00507400  0.66091200  0.06805700  1
  O  O19  1  0.50507400  0.33908800  0.93194300  1
loop_
_geom_bond_atom_site_label_1
_geom_bond_atom_site_label_2
_geom_bond_distance
_geom_bond_site_symmetry_2
Ba0 O2 2.639865 1_544
Ba0 O3 2.847232 1_655
Ba0 O3 2.847232 1_555
Ba0 O6 2.979448 1_555
Ba0 O11 2.979448 1_555
Ba0 O4 3.008094 1_645
Ba0 O9 3.008094 1_545
Ba0 O19 3.120711 1_554
Ba0 O13 3.120711 1_554
Ba0 O18 3.295457 1_645
Ba0 O12 3.295457 1_545
Ba1 O1 2.639865 1_555
Ba1 O0 2.847232 1_555
Ba1 O0 2.847232 1_655
Ba1 O8 2.979448 1_555
Ba1 O5 2.979448 1_555
Ba1 O10 3.008094 1_655
Ba1 O7 3.008094 1_555
Ba1 O14 3.120711 1_555
Ba1 O16 3.120711 1_555
Ba1 O15 3.295457 1_655
Ba1 O17 3.295457 1_555
Ba2 O0 2.639865 1_555
Ba2 O1 2.847232 1_555
Ba2 O1 2.847232 1_455
Ba2 O9 2.979448 1_555
Ba2 O4 2.979448 1_555
Ba2 O11 3.008094 1_555
Ba2 O6 3.008094 1_455
Ba2 O17 3.120711 1_555
Ba2 O15 3.120711 1_555
Ba2 O14 3.295457 1_555
Ba2 O16 3.295457 1_455
Ba3 O3 2.639865 1_566
Ba3 O2 2.847232 1_555
Ba3 O2 2.847232 1_455
Ba3 O7 2.979448 1_555
Ba3 O10 2.979448 1_555
Ba3 O5 3.008094 1_565
Ba3 O8 3.008094 1_465
Ba3 O12 3.120711 1_556
Ba3 O18 3.120711 1_556
Ba3 O19 3.295457 1_565
Ba3 O13 3.295457 1_465
Ho0 O3 2.267544 1_555
Ho0 O19 2.299545 1_554
Ho0 O13 2.299545 1_454
Ho0 O12 2.358802 1_555
Ho0 O18 2.358802 1_555
Ho0 O11 2.389128 1_555
Ho0 O6 2.389128 1_455
Ho1 O1 2.291844 1_555
Ho1 O18 2.314852 1_655
Ho1 O12 2.314852 1_555
Ho1 O6 2.331658 1_555
Ho1 O11 2.331658 1_555
Ho1 O4 2.378027 1_655
Ho1 O9 2.378027 1_555
Ho2 O2 2.291844 1_555
Ho2 O15 2.314852 1_655
Ho2 O17 2.314852 1_555
Ho2 O8 2.331658 1_565
Ho2 O5 2.331658 1_565
Ho2 O10 2.378027 1_655
Ho2 O7 2.378027 1_555
Ho3 O3 2.291844 1_555
Ho3 O16 2.314852 1_455
Ho3 O14 2.314852 1_555
Ho3 O9 2.331658 1_545
Ho3 O4 2.331658 1_545
Ho3 O11 2.378027 1_555
Ho3 O6 2.378027 1_455
Ho4 O2 2.267544 1_555
Ho4 O18 2.299545 1_656
Ho4 O12 2.299545 1_556
Ho4 O13 2.358802 1_555
Ho4 O19 2.358802 1_555
Ho4 O10 2.389128 1_655
Ho4 O7 2.389128 1_555
Ho5 O1 2.267544 1_555
Ho5 O15 2.299545 1_655
Ho5 O17 2.299545 1_555
Ho5 O14 2.358802 1_565
Ho5 O16 2.358802 1_565
Ho5 O4 2.389128 1_655
Ho5 O9 2.389128 1_555
Ho6 O0 2.267544 1_555
Ho6 O14 2.299545 1_555
Ho6 O16 2.299545 1_455
Ho6 O17 2.358802 1_545
Ho6 O15 2.358802 1_545
Ho6 O5 2.389128 1_555
Ho6 O8 2.389128 1_455
Ho7 O0 2.291844 1_555
Ho7 O13 2.314852 1_455
Ho7 O19 2.314852 1_555
Ho7 O7 2.331658 1_555
Ho7 O10 2.331658 1_555
Ho7 O5 2.378027 1_555
Ho7 O8 2.378027 1_455
Cu0 O12 1.996325 1_555
Cu0 O18 1.996325 1_555
Cu0 O9 2.026453 1_555
Cu0 O4 2.026453 1_555
Cu0 O3 2.305285 1_565
Cu1 O19 1.996325 1_555
Cu1 O13 1.996325 1_555
Cu1 O8 2.026453 1_555
Cu1 O5 2.026453 1_555
Cu1 O2 2.305285 1_545
Cu2 O16 1.996325 1_555
Cu2 O14 1.996325 1_555
Cu2 O6 2.026453 1_555
Cu2 O11 2.026453 1_555
Cu2 O1 2.305285 1_555
Cu3 O17 1.996325 1_555
Cu3 O15 1.996325 1_555
Cu3 O7 2.026453 1_555
Cu3 O10 2.026453 1_555
Cu3 O0 2.305285 1_555
