# generated using pymatgen
data_Li4Mn3NbO8
_symmetry_space_group_name_H-M   'P 1'
_cell_length_a   6.06984133
_cell_length_b   8.72423477
_cell_length_c   6.20336163
_cell_angle_alpha   90.07146290
_cell_angle_beta   90.64991934
_cell_angle_gamma   91.16112960
_symmetry_Int_Tables_number   1
_chemical_formula_structural   Li4Mn3NbO8
_chemical_formula_sum   'Li8 Mn6 Nb2 O16'
_cell_volume   328.40834189
_cell_formula_units_Z   2
loop_
 _symmetry_equiv_pos_site_id
 _symmetry_equiv_pos_as_xyz
  1  'x, y, z'
loop_
 _atom_site_type_symbol
 _atom_site_label
 _atom_site_symmetry_multiplicity
 _atom_site_fract_x
 _atom_site_fract_y
 _atom_site_fract_z
 _atom_site_occupancy
  Li  Li0  1  0.99499500  0.49431400  0.99400100  1
  Li  Li1  1  0.50546700  0.00566700  0.50585600  1
  Li  Li2  1  0.75018700  0.74998500  0.25021400  1
  Li  Li3  1  0.24961200  0.25007400  0.74992600  1
  Li  Li4  1  0.49994400  0.99433800  0.99769600  1
  Li  Li5  1  0.99995400  0.50581800  0.50270300  1
  Li  Li6  1  0.25050200  0.24988200  0.24985600  1
  Li  Li7  1  0.75048900  0.74987300  0.74954400  1
  Mn  Mn0  1  0.50154700  0.50270000  0.99773600  1
  Mn  Mn1  1  0.99890500  0.99718200  0.50204100  1
  Mn  Mn2  1  0.74989300  0.25010900  0.74981900  1
  Mn  Mn3  1  0.75045600  0.24995000  0.25015000  1
  Mn  Mn4  1  0.24975500  0.75001800  0.74988200  1
  Mn  Mn5  1  0.24958300  0.75017000  0.25049000  1
  Nb  Nb0  1  0.50420300  0.50491400  0.50056800  1
  Nb  Nb1  1  0.99560500  0.99514300  0.99907900  1
  O  O0  1  0.01092300  0.76687800  0.49616300  1
  O  O1  1  0.52458300  0.27021300  0.97629200  1
  O  O2  1  0.48888300  0.73094500  0.00428100  1
  O  O3  1  0.97487300  0.23161700  0.52409700  1
  O  O4  1  0.26688700  0.48623900  0.26864400  1
  O  O5  1  0.75550300  0.99527500  0.76765100  1
  O  O6  1  0.23342700  0.01366100  0.23104800  1
  O  O7  1  0.74396500  0.50490500  0.73257300  1
  O  O8  1  0.99306500  0.76775500  0.00028700  1
  O  O9  1  0.51343600  0.26083900  0.51729300  1
  O  O10  1  0.76219800  0.99904400  0.23289100  1
  O  O11  1  0.26777300  0.49656600  0.73081400  1
  O  O12  1  0.50685200  0.73224400  0.49971700  1
  O  O13  1  0.98631200  0.23929500  0.98227900  1
  O  O14  1  0.73693700  0.50105300  0.26598000  1
  O  O15  1  0.23328400  0.00333700  0.77043000  1
loop_
_geom_bond_atom_site_label_1
_geom_bond_atom_site_label_2
_geom_bond_distance
_geom_bond_site_symmetry_2
Li0 O7 2.215914 1_555
Li0 O13 2.225480 1_555
Li0 O14 2.316679 1_556
Li0 O11 2.338248 1_655
Li0 O4 2.360602 1_656
Li0 O8 2.386102 1_556
Li1 O5 2.213369 1_545
Li1 O9 2.226750 1_555
Li1 O10 2.315647 1_545
Li1 O15 2.341752 1_555
Li1 O6 2.361922 1_555
Li1 O12 2.385850 1_545
Li2 O12 2.155051 1_555
Li2 O8 2.155059 1_555
Li2 O14 2.173965 1_555
Li2 O10 2.175426 1_555
Li2 O0 2.188476 1_655
Li2 O2 2.191919 1_555
Li3 O11 2.154527 1_555
Li3 O15 2.156843 1_555
Li3 O13 2.164972 1_455
Li3 O9 2.168509 1_555
Li3 O3 2.169093 1_455
Li3 O1 2.173183 1_555
Li4 O5 2.119554 1_555
Li4 O15 2.137103 1_565
Li4 O10 2.146820 1_556
Li4 O6 2.191904 1_566
Li4 O2 2.297950 1_556
Li4 O1 2.412330 1_565
Li5 O7 2.120747 1_555
Li5 O11 2.145915 1_655
Li5 O14 2.156583 1_555
Li5 O4 2.196928 1_655
Li5 O0 2.277598 1_655
Li5 O3 2.397889 1_555
Li6 O6 2.064441 1_555
Li6 O4 2.065499 1_555
Li6 O9 2.289523 1_555
Li6 O13 2.295312 1_454
Li6 O1 2.394123 1_554
Li6 O3 2.402702 1_455
Li7 O8 2.133037 1_556
Li7 O12 2.133211 1_555
Li7 O7 2.139161 1_555
Li7 O5 2.143331 1_555
Li7 O0 2.244763 1_655
Li7 O2 2.256719 1_556
Mn0 O2 1.994682 1_556
Mn0 O1 2.040190 1_555
Mn0 O11 2.168285 1_555
Mn0 O14 2.181174 1_556
Mn0 O4 2.218158 1_556
Mn0 O7 2.219244 1_555
Mn1 O0 2.012327 1_655
Mn1 O3 2.057901 1_565
Mn1 O15 2.177541 1_665
Mn1 O10 2.190629 1_555
Mn1 O6 2.218026 1_665
Mn1 O5 2.225343 1_555
Mn2 O3 1.975670 1_555
Mn2 O1 1.981793 1_555
Mn2 O13 2.026460 1_555
Mn2 O9 2.026865 1_555
Mn2 O7 2.226606 1_555
Mn2 O5 2.227050 1_545
Mn3 O3 2.173944 1_555
Mn3 O1 2.180532 1_554
Mn3 O10 2.194086 1_545
Mn3 O14 2.195995 1_555
Mn3 O13 2.208703 1_554
Mn3 O9 2.210045 1_555
Mn4 O0 2.134909 1_555
Mn4 O2 2.140892 1_556
Mn4 O15 2.217870 1_565
Mn4 O11 2.219164 1_555
Mn4 O8 2.220023 1_456
Mn4 O12 2.220755 1_555
Mn5 O0 2.121422 1_555
Mn5 O2 2.128428 1_555
Mn5 O12 2.192939 1_555
Mn5 O8 2.193701 1_455
Mn5 O6 2.306080 1_565
Mn5 O4 2.309944 1_555
Nb0 O12 1.983034 1_555
Nb0 O4 2.028367 1_555
Nb0 O7 2.035133 1_555
Nb0 O11 2.036506 1_555
Nb0 O14 2.040316 1_555
Nb0 O9 2.133862 1_555
Nb1 O8 1.983558 1_556
Nb1 O6 2.030626 1_666
Nb1 O5 2.034111 1_555
Nb1 O15 2.034883 1_665
Nb1 O10 2.039727 1_556
Nb1 O13 2.134573 1_565
