# generated using pymatgen
data_CdHg3
_symmetry_space_group_name_H-M   'P 1'
_cell_length_a   6.17597915
_cell_length_b   6.17597915
_cell_length_c   6.17597915
_cell_angle_alpha   139.07077531
_cell_angle_beta   139.07077531
_cell_angle_gamma   59.26695030
_symmetry_Int_Tables_number   1
_chemical_formula_structural   CdHg3
_chemical_formula_sum   'Cd1 Hg3'
_cell_volume   100.11857498
_cell_formula_units_Z   1
loop_
 _symmetry_equiv_pos_site_id
 _symmetry_equiv_pos_as_xyz
  1  'x, y, z'
loop_
 _atom_site_type_symbol
 _atom_site_label
 _atom_site_symmetry_multiplicity
 _atom_site_fract_x
 _atom_site_fract_y
 _atom_site_fract_z
 _atom_site_occupancy
  Cd  Cd0  1  -0.00000000  0.00000000  0.00000000  1
  Hg  Hg0  1  0.75000000  0.25000000  0.50000000  1
  Hg  Hg1  1  0.25000000  0.75000000  0.50000000  1
  Hg  Hg2  1  0.50000000  0.50000000  0.00000000  1
loop_
_geom_bond_atom_site_label_1
_geom_bond_atom_site_label_2
_geom_bond_distance
_geom_bond_site_symmetry_2
Cd0 Hg2 3.053712 1_455
Cd0 Hg2 3.053712 1_556
Cd0 Hg2 3.053712 1_444
Cd0 Hg2 3.053712 1_545
Cd0 Hg0 3.444847 1_555
Cd0 Hg0 3.444847 1_454
Cd0 Hg0 3.444847 1_444
Cd0 Hg1 3.444847 1_555
Cd0 Hg1 3.444847 1_545
Cd0 Hg1 3.444847 1_544
Cd0 Hg1 3.444847 1_444
Cd0 Hg0 3.444847 1_455
Hg0 Hg1 3.053712 1_544
Hg0 Hg1 3.053712 1_656
Hg0 Hg1 3.053712 1_645
Hg0 Hg1 3.053712 1_555
