# generated using pymatgen
data_CeAlO2
_symmetry_space_group_name_H-M   'P 1'
_cell_length_a   3.80863800
_cell_length_b   3.80863800
_cell_length_c   3.58214600
_cell_angle_alpha   90.00000000
_cell_angle_beta   90.00000000
_cell_angle_gamma   90.00000000
_symmetry_Int_Tables_number   1
_chemical_formula_structural   CeAlO2
_chemical_formula_sum   'Ce1 Al1 O2'
_cell_volume   51.96161911
_cell_formula_units_Z   1
loop_
 _symmetry_equiv_pos_site_id
 _symmetry_equiv_pos_as_xyz
  1  'x, y, z'
loop_
 _atom_site_type_symbol
 _atom_site_label
 _atom_site_symmetry_multiplicity
 _atom_site_fract_x
 _atom_site_fract_y
 _atom_site_fract_z
 _atom_site_occupancy
  Ce  Ce0  1  0.50000000  0.50000000  0.50000000  1
  Al  Al0  1  0.00000000  0.00000000  0.00000000  1
  O  O0  1  0.50000000  0.00000000  0.00000000  1
  O  O1  1  0.00000000  0.50000000  0.00000000  1
loop_
_geom_bond_atom_site_label_1
_geom_bond_atom_site_label_2
_geom_bond_distance
_geom_bond_site_symmetry_2
Ce0 O1 2.614263 1_656
Ce0 O1 2.614263 1_655
Ce0 O0 2.614263 1_556
Ce0 O0 2.614263 1_565
Ce0 O0 2.614263 1_566
Ce0 O1 2.614263 1_555
Ce0 O0 2.614263 1_555
Ce0 O1 2.614263 1_556
Al0 O1 1.904319 1_545
Al0 O0 1.904319 1_455
Al0 O1 1.904319 1_555
Al0 O0 1.904319 1_555
