# generated using pymatgen
data_Li4Mn3O7
_symmetry_space_group_name_H-M   'P 1'
_cell_length_a   5.09089100
_cell_length_b   5.30976722
_cell_length_c   10.09340821
_cell_angle_alpha   101.65838299
_cell_angle_beta   100.91046064
_cell_angle_gamma   96.97338859
_symmetry_Int_Tables_number   1
_chemical_formula_structural   Li4Mn3O7
_chemical_formula_sum   'Li8 Mn6 O14'
_cell_volume   258.73941760
_cell_formula_units_Z   2
loop_
 _symmetry_equiv_pos_site_id
 _symmetry_equiv_pos_as_xyz
  1  'x, y, z'
loop_
 _atom_site_type_symbol
 _atom_site_label
 _atom_site_symmetry_multiplicity
 _atom_site_fract_x
 _atom_site_fract_y
 _atom_site_fract_z
 _atom_site_occupancy
  Li  Li0  1  0.29048600  0.64807200  0.78754000  1
  Li  Li1  1  0.41752000  0.21683100  0.93204800  1
  Li  Li2  1  0.13939700  0.07145300  0.64334100  1
  Li  Li3  1  0.00000000  0.50000000  0.50000000  1
  Li  Li4  1  0.86060300  0.92854700  0.35665900  1
  Li  Li5  1  0.70951400  0.35192800  0.21246000  1
  Li  Li6  1  0.58248000  0.78316900  0.06795200  1
  Li  Li7  1  0.00000000  0.50000000  0.00000000  1
  Mn  Mn0  1  0.85831200  0.93005200  0.85886700  1
  Mn  Mn1  1  0.14168800  0.06994800  0.14113300  1
  Mn  Mn2  1  0.28279400  0.64129700  0.28166900  1
  Mn  Mn3  1  0.42750700  0.21401400  0.42814700  1
  Mn  Mn4  1  0.57249300  0.78598600  0.57185300  1
  Mn  Mn5  1  0.71720600  0.35870300  0.71833100  1
  O  O0  1  0.51913900  0.98329300  0.75009400  1
  O  O1  1  0.66473400  0.59595500  0.88205300  1
  O  O2  1  0.37100200  0.40867400  0.60497500  1
  O  O3  1  0.23026600  0.83692500  0.46237000  1
  O  O4  1  0.08410000  0.26715000  0.31627000  1
  O  O5  1  0.96557800  0.74626900  0.17939100  1
  O  O6  1  0.80391900  0.11957300  0.03270500  1
  O  O7  1  0.03442200  0.25373100  0.82060900  1
  O  O8  1  0.19608100  0.88042700  0.96729500  1
  O  O9  1  0.91590000  0.73285000  0.68373000  1
  O  O10  1  0.76973400  0.16307500  0.53763000  1
  O  O11  1  0.62899800  0.59132600  0.39502500  1
  O  O12  1  0.48086100  0.01670700  0.24990600  1
  O  O13  1  0.33526600  0.40404500  0.11794700  1
loop_
_geom_bond_atom_site_label_1
_geom_bond_atom_site_label_2
_geom_bond_distance
_geom_bond_site_symmetry_2
Li0 O1 2.040417 1_555
Li0 O9 2.140035 1_455
Li0 O0 2.145088 1_555
Li0 O8 2.148104 1_555
Li0 O2 2.155265 1_555
Li0 O7 2.445281 1_555
Li1 O13 2.080599 1_556
Li1 O7 2.111563 1_555
Li1 O8 2.123141 1_545
Li1 O0 2.184766 1_545
Li1 O6 2.206942 1_556
Li1 O1 2.434493 1_555
Li2 O7 2.052169 1_555
Li2 O10 2.142127 1_455
Li2 O3 2.154463 1_545
Li2 O9 2.160629 1_445
Li2 O2 2.164887 1_555
Li2 O0 2.180033 1_545
Li3 O2 2.144200 1_555
Li3 O11 2.144200 1_455
Li3 O10 2.157054 1_455
Li3 O3 2.157054 1_555
Li3 O9 2.157178 1_455
Li3 O4 2.157178 1_555
Li4 O5 2.052169 1_555
Li4 O3 2.142127 1_655
Li4 O10 2.154463 1_565
Li4 O4 2.160629 1_665
Li4 O11 2.164887 1_555
Li4 O12 2.180033 1_565
Li5 O13 2.040417 1_555
Li5 O4 2.140035 1_655
Li5 O12 2.145088 1_555
Li5 O6 2.148104 1_555
Li5 O11 2.155265 1_555
Li5 O5 2.445281 1_555
Li6 O1 2.080599 1_554
Li6 O5 2.111563 1_555
Li6 O6 2.123141 1_565
Li6 O12 2.184766 1_565
Li6 O8 2.206942 1_554
Li6 O13 2.434493 1_555
Li7 O7 2.058633 1_554
Li7 O5 2.058633 1_455
Li7 O1 2.068124 1_454
Li7 O13 2.068124 1_555
Li7 O6 2.256182 1_455
Li7 O8 2.256182 1_554
Mn0 O6 1.925099 1_566
Mn0 O8 1.933436 1_655
Mn0 O0 1.947585 1_555
Mn0 O9 1.957007 1_555
Mn0 O7 1.982889 1_665
Mn0 O1 2.000884 1_555
Mn1 O8 1.925099 1_544
Mn1 O6 1.933436 1_455
Mn1 O12 1.947585 1_555
Mn1 O4 1.957007 1_555
Mn1 O5 1.982889 1_445
Mn1 O13 2.000884 1_555
Mn2 O13 1.948488 1_555
Mn2 O5 1.950473 1_455
Mn2 O11 1.989654 1_555
Mn2 O3 1.990843 1_555
Mn2 O12 2.232830 1_565
Mn2 O4 2.240103 1_555
Mn3 O10 1.958600 1_555
Mn3 O2 1.964067 1_555
Mn3 O12 1.974919 1_555
Mn3 O4 1.977960 1_555
Mn3 O3 2.249280 1_545
Mn3 O11 2.253716 1_555
Mn4 O3 1.958600 1_555
Mn4 O11 1.964067 1_555
Mn4 O0 1.974919 1_555
Mn4 O9 1.977960 1_555
Mn4 O10 2.249280 1_565
Mn4 O2 2.253716 1_555
Mn5 O1 1.948488 1_555
Mn5 O7 1.950473 1_655
Mn5 O2 1.989654 1_555
Mn5 O10 1.990843 1_555
Mn5 O0 2.232830 1_545
Mn5 O9 2.240103 1_555
