# generated using pymatgen
data_Rb2Cu2SnS4
_symmetry_space_group_name_H-M   'P 1'
_cell_length_a   9.49033196
_cell_length_b   9.49033196
_cell_length_c   9.49033196
_cell_angle_alpha   146.43358283
_cell_angle_beta   103.46652533
_cell_angle_gamma   86.20868328
_symmetry_Int_Tables_number   1
_chemical_formula_structural   Rb2Cu2SnS4
_chemical_formula_sum   'Rb4 Cu4 Sn2 S8'
_cell_volume   446.41016545
_cell_formula_units_Z   2
loop_
 _symmetry_equiv_pos_site_id
 _symmetry_equiv_pos_as_xyz
  1  'x, y, z'
loop_
 _atom_site_type_symbol
 _atom_site_label
 _atom_site_symmetry_multiplicity
 _atom_site_fract_x
 _atom_site_fract_y
 _atom_site_fract_z
 _atom_site_occupancy
  Rb  Rb0  1  0.62433300  0.77164700  0.39597900  1
  Rb  Rb1  1  0.87566700  0.27164700  0.14731400  1
  Rb  Rb2  1  0.12433300  0.72835300  0.85268600  1
  Rb  Rb3  1  0.37566700  0.22835300  0.60402100  1
  Cu  Cu0  1  0.02454000  0.75000000  0.27454000  1
  Cu  Cu1  1  0.47546000  0.75000000  0.72546000  1
  Cu  Cu2  1  0.97546000  0.25000000  0.72546000  1
  Cu  Cu3  1  0.52454000  0.25000000  0.27454000  1
  Sn  Sn0  1  0.75000000  0.75000000  0.00000000  1
  Sn  Sn1  1  0.25000000  0.25000000  0.00000000  1
  S  S0  1  0.71899300  0.62155300  0.63819000  1
  S  S1  1  0.78100700  0.41919700  0.90256000  1
  S  S2  1  0.51663700  0.87844700  0.09744000  1
  S  S3  1  0.98336300  0.08080300  0.36181000  1
  S  S4  1  0.28100700  0.37844700  0.36181000  1
  S  S5  1  0.21899300  0.58080300  0.09744000  1
  S  S6  1  0.01663700  0.91919700  0.63819000  1
  S  S7  1  0.48336300  0.12155300  0.90256000  1
loop_
_geom_bond_atom_site_label_1
_geom_bond_atom_site_label_2
_geom_bond_distance
_geom_bond_site_symmetry_2
Rb0 S1 3.425379 1_565
Rb0 S7 3.425387 1_565
Rb0 S1 3.436511 1_554
Rb0 S7 3.436519 1_554
Rb0 S6 3.527813 1_655
Rb0 S0 3.527821 1_555
Rb0 S2 3.660474 1_555
Rb0 S5 3.660482 1_555
Rb1 S6 3.425380 1_655
Rb1 S0 3.425380 1_555
Rb1 S6 3.436517 1_644
Rb1 S0 3.436517 1_544
Rb1 S1 3.527812 1_554
Rb1 S7 3.527812 1_554
Rb1 S4 3.660483 1_655
Rb1 S3 3.660483 1_555
Rb2 S4 3.425380 1_555
Rb2 S3 3.425380 1_455
Rb2 S4 3.436517 1_566
Rb2 S3 3.436517 1_466
Rb2 S5 3.527812 1_556
Rb2 S2 3.527812 1_556
Rb2 S6 3.660483 1_555
Rb2 S0 3.660483 1_455
Rb3 S5 3.425379 1_545
Rb3 S2 3.425387 1_545
Rb3 S5 3.436511 1_556
Rb3 S2 3.436519 1_556
Rb3 S3 3.527813 1_455
Rb3 S4 3.527821 1_555
Rb3 S7 3.660474 1_555
Rb3 S1 3.660482 1_555
Cu0 S5 2.316039 1_555
Cu0 S6 2.316039 1_555
Cu0 S3 2.519935 1_465
Cu0 S1 2.519935 1_454
Cu1 S7 2.316039 1_565
Cu1 S4 2.316039 1_555
Cu1 S0 2.519935 1_555
Cu1 S2 2.519935 1_556
Cu2 S3 2.316039 1_555
Cu2 S1 2.316039 1_555
Cu2 S6 2.519935 1_645
Cu2 S5 2.519935 1_656
Cu3 S2 2.316039 1_545
Cu3 S0 2.316039 1_555
Cu3 S7 2.519935 1_554
Cu3 S4 2.519935 1_555
S0 Sn0 2.442182 1_556
S1 Sn0 2.442182 1_556
S2 Sn0 2.442182 1_555
S3 Sn0 2.442182 1_545
S4 Sn1 2.442182 1_555
S5 Sn1 2.442182 1_555
S6 Sn1 2.442182 1_566
S7 Sn1 2.442182 1_556
