# generated using pymatgen
data_Ti4V
_symmetry_space_group_name_H-M   'P 1'
_cell_length_a   23.19008055
_cell_length_b   22.96569339
_cell_length_c   5.53412741
_cell_angle_alpha   85.42622500
_cell_angle_beta   80.81220416
_cell_angle_gamma   13.76157084
_symmetry_Int_Tables_number   1
_chemical_formula_structural   Ti4V
_chemical_formula_sum   'Ti32 V8'
_cell_volume   655.53314561
_cell_formula_units_Z   8
loop_
 _symmetry_equiv_pos_site_id
 _symmetry_equiv_pos_as_xyz
  1  'x, y, z'
loop_
 _atom_site_type_symbol
 _atom_site_label
 _atom_site_symmetry_multiplicity
 _atom_site_fract_x
 _atom_site_fract_y
 _atom_site_fract_z
 _atom_site_occupancy
  Ti  Ti0_0  1  0.20439450  0.20439450  0.29560550  1
  Ti  Ti0_1  1  0.20439450  0.20439450  0.79560550  1
  Ti  Ti0_2  1  0.20439450  0.70439450  0.29560550  1
  Ti  Ti0_3  1  0.20439450  0.70439450  0.79560550  1
  Ti  Ti0_4  1  0.70439450  0.20439450  0.29560550  1
  Ti  Ti0_5  1  0.70439450  0.20439450  0.79560550  1
  Ti  Ti0_6  1  0.70439450  0.70439450  0.29560550  1
  Ti  Ti0_7  1  0.70439450  0.70439450  0.79560550  1
  Ti  Ti1_0  1  0.40030300  0.40030300  0.09969700  1
  Ti  Ti1_1  1  0.40030300  0.40030300  0.59969700  1
  Ti  Ti1_2  1  0.40030300  0.90030300  0.09969700  1
  Ti  Ti1_3  1  0.40030300  0.90030300  0.59969700  1
  Ti  Ti1_4  1  0.90030300  0.40030300  0.09969700  1
  Ti  Ti1_5  1  0.90030300  0.40030300  0.59969700  1
  Ti  Ti1_6  1  0.90030300  0.90030300  0.09969700  1
  Ti  Ti1_7  1  0.90030300  0.90030300  0.59969700  1
  Ti  Ti2_0  1  0.09969700  0.09969700  0.40030300  1
  Ti  Ti2_1  1  0.09969700  0.09969700  0.90030300  1
  Ti  Ti2_2  1  0.09969700  0.59969700  0.40030300  1
  Ti  Ti2_3  1  0.09969700  0.59969700  0.90030300  1
  Ti  Ti2_4  1  0.59969700  0.09969700  0.40030300  1
  Ti  Ti2_5  1  0.59969700  0.09969700  0.90030300  1
  Ti  Ti2_6  1  0.59969700  0.59969700  0.40030300  1
  Ti  Ti2_7  1  0.59969700  0.59969700  0.90030300  1
  Ti  Ti3_0  1  0.29560550  0.29560550  0.20439450  1
  Ti  Ti3_1  1  0.29560550  0.29560550  0.70439450  1
  Ti  Ti3_2  1  0.29560550  0.79560550  0.20439450  1
  Ti  Ti3_3  1  0.29560550  0.79560550  0.70439450  1
  Ti  Ti3_4  1  0.79560550  0.29560550  0.20439450  1
  Ti  Ti3_5  1  0.79560550  0.29560550  0.70439450  1
  Ti  Ti3_6  1  0.79560550  0.79560550  0.20439450  1
  Ti  Ti3_7  1  0.79560550  0.79560550  0.70439450  1
  V  V0_0  1  0.00000000  0.00000000  0.00000000  1
  V  V0_1  1  0.00000000  0.00000000  0.50000000  1
  V  V0_2  1  0.00000000  0.50000000  0.00000000  1
  V  V0_3  1  0.00000000  0.50000000  0.50000000  1
  V  V0_4  1  0.50000000  0.00000000  0.00000000  1
  V  V0_5  1  0.50000000  0.00000000  0.50000000  1
  V  V0_6  1  0.50000000  0.50000000  0.00000000  1
  V  V0_7  1  0.50000000  0.50000000  0.50000000  1
loop_
_geom_bond_atom_site_label_1
_geom_bond_atom_site_label_2
_geom_bond_distance
_geom_bond_site_symmetry_2
Ti0_0 V0_4 2.614819 1_555
Ti0_0 V0_3 2.614819 1_555
Ti0_0 Ti0_6 2.767064 1_545
Ti0_0 Ti0_1 2.767064 1_554
Ti0_0 Ti0_1 2.767064 1_555
Ti0_0 Ti0_6 2.767064 1_455
Ti0_0 Ti1_2 2.930502 1_545
Ti0_0 Ti1_5 2.930502 1_455
Ti0_1 V0_5 2.614819 1_555
Ti0_1 V0_2 2.614819 1_556
Ti0_1 Ti0_7 2.767064 1_455
Ti0_1 Ti0_7 2.767064 1_545
Ti0_1 Ti1_3 2.930502 1_545
Ti0_1 Ti1_4 2.930502 1_456
Ti0_2 V0_6 2.614819 1_555
Ti0_2 V0_1 2.614819 1_565
Ti0_2 Ti0_3 2.767064 1_555
Ti0_2 Ti0_4 2.767064 1_555
Ti0_2 Ti0_4 2.767064 1_465
Ti0_2 Ti0_3 2.767064 1_554
Ti0_2 Ti1_7 2.930502 1_455
Ti0_2 Ti1_0 2.930502 1_555
Ti0_3 V0_7 2.614819 1_555
Ti0_3 V0_0 2.614819 1_566
Ti0_3 Ti0_5 2.767064 1_555
Ti0_3 Ti0_5 2.767064 1_465
Ti0_3 Ti1_1 2.930502 1_555
Ti0_3 Ti1_6 2.930502 1_456
Ti0_4 V0_0 2.614819 1_655
Ti0_4 V0_7 2.614819 1_555
Ti0_4 Ti0_5 2.767064 1_554
Ti0_4 Ti0_5 2.767064 1_555
Ti0_4 Ti1_6 2.930502 1_545
Ti0_4 Ti1_1 2.930502 1_555
Ti0_5 V0_1 2.614819 1_655
Ti0_5 V0_6 2.614819 1_556
Ti0_5 Ti1_7 2.930502 1_545
Ti0_5 Ti1_0 2.930502 1_556
Ti0_6 V0_2 2.614819 1_655
Ti0_6 V0_5 2.614819 1_565
Ti0_6 Ti0_7 2.767064 1_555
Ti0_6 Ti0_7 2.767064 1_554
Ti0_6 Ti1_4 2.930502 1_555
Ti0_6 Ti1_3 2.930502 1_555
Ti0_7 V0_3 2.614819 1_655
Ti0_7 V0_4 2.614819 1_566
Ti0_7 Ti1_5 2.930502 1_555
Ti0_7 Ti1_2 2.930502 1_556
Ti1_0 Ti1_1 2.767064 1_555
Ti1_0 Ti1_6 2.767064 1_545
Ti1_0 Ti1_6 2.767064 1_455
Ti1_0 Ti1_1 2.767064 1_554
Ti1_0 Ti2_5 2.798706 1_554
Ti1_0 Ti2_2 2.798706 1_555
Ti1_1 Ti1_7 2.767064 1_455
Ti1_1 Ti1_7 2.767064 1_545
Ti1_1 Ti2_3 2.798706 1_555
Ti1_1 Ti2_4 2.798706 1_555
Ti1_2 Ti1_4 2.767064 1_555
Ti1_2 Ti1_3 2.767064 1_555
Ti1_2 Ti1_4 2.767064 1_465
Ti1_2 Ti1_3 2.767064 1_554
Ti1_2 Ti2_7 2.798706 1_554
Ti1_2 Ti2_0 2.798706 1_565
Ti1_3 Ti1_5 2.767064 1_465
Ti1_3 Ti1_5 2.767064 1_555
Ti1_3 Ti2_1 2.798706 1_565
Ti1_3 Ti2_6 2.798706 1_555
Ti1_4 Ti1_5 2.767064 1_555
Ti1_4 Ti1_5 2.767064 1_554
Ti1_4 Ti2_6 2.798706 1_555
Ti1_4 Ti2_1 2.798706 1_654
Ti1_5 Ti2_7 2.798706 1_555
Ti1_5 Ti2_0 2.798706 1_655
Ti1_6 Ti1_7 2.767064 1_554
Ti1_6 Ti1_7 2.767064 1_555
Ti1_6 Ti2_4 2.798706 1_565
Ti1_6 Ti2_3 2.798706 1_654
Ti1_7 Ti2_5 2.798706 1_565
Ti1_7 Ti2_2 2.798706 1_655
Ti2_0 Ti2_1 2.767064 1_555
Ti2_0 Ti2_6 2.767064 1_545
Ti2_0 Ti2_6 2.767064 1_455
Ti2_0 Ti2_1 2.767064 1_554
Ti2_0 Ti3_5 2.930502 1_455
Ti2_0 Ti3_2 2.930502 1_545
Ti2_1 Ti2_7 2.767064 1_455
Ti2_1 Ti2_7 2.767064 1_545
Ti2_1 Ti3_3 2.930502 1_545
Ti2_1 Ti3_4 2.930502 1_456
Ti2_2 Ti2_4 2.767064 1_555
Ti2_2 Ti2_3 2.767064 1_554
Ti2_2 Ti2_3 2.767064 1_555
Ti2_2 Ti2_4 2.767064 1_465
Ti2_2 Ti3_7 2.930502 1_455
Ti2_2 Ti3_0 2.930502 1_555
Ti2_3 Ti2_5 2.767064 1_465
Ti2_3 Ti2_5 2.767064 1_555
Ti2_3 Ti3_6 2.930502 1_456
Ti2_3 Ti3_1 2.930502 1_555
Ti2_4 Ti2_5 2.767064 1_554
Ti2_4 Ti2_5 2.767064 1_555
Ti2_4 Ti3_1 2.930502 1_555
Ti2_4 Ti3_6 2.930502 1_545
Ti2_5 Ti3_0 2.930502 1_556
Ti2_5 Ti3_7 2.930502 1_545
Ti2_6 Ti2_7 2.767064 1_554
Ti2_6 Ti2_7 2.767064 1_555
Ti2_6 Ti3_3 2.930502 1_555
Ti2_6 Ti3_4 2.930502 1_555
Ti2_7 Ti3_2 2.930502 1_556
Ti2_7 Ti3_5 2.930502 1_555
Ti3_0 V0_4 2.614819 1_555
Ti3_0 V0_3 2.614819 1_555
Ti3_0 Ti3_6 2.767064 1_545
Ti3_0 Ti3_1 2.767064 1_555
Ti3_0 Ti3_1 2.767064 1_554
Ti3_0 Ti3_6 2.767064 1_455
Ti3_1 V0_5 2.614819 1_555
Ti3_1 V0_2 2.614819 1_556
Ti3_1 Ti3_7 2.767064 1_455
Ti3_1 Ti3_7 2.767064 1_545
Ti3_2 V0_6 2.614819 1_555
Ti3_2 V0_1 2.614819 1_565
Ti3_2 Ti3_3 2.767064 1_555
Ti3_2 Ti3_4 2.767064 1_555
Ti3_2 Ti3_4 2.767064 1_465
Ti3_2 Ti3_3 2.767064 1_554
Ti3_3 V0_7 2.614819 1_555
Ti3_3 V0_0 2.614819 1_566
Ti3_3 Ti3_5 2.767064 1_555
Ti3_3 Ti3_5 2.767064 1_465
Ti3_4 V0_0 2.614819 1_655
Ti3_4 V0_7 2.614819 1_555
Ti3_4 Ti3_5 2.767064 1_555
Ti3_4 Ti3_5 2.767064 1_554
Ti3_5 V0_1 2.614819 1_655
Ti3_5 V0_6 2.614819 1_556
Ti3_6 V0_2 2.614819 1_655
Ti3_6 V0_5 2.614819 1_565
Ti3_6 Ti3_7 2.767064 1_555
Ti3_6 Ti3_7 2.767064 1_554
Ti3_7 V0_3 2.614819 1_655
Ti3_7 V0_4 2.614819 1_566
V0_0 V0_1 2.767064 1_555
V0_0 V0_6 2.767064 1_545
V0_0 V0_6 2.767064 1_455
V0_0 V0_1 2.767064 1_554
V0_1 V0_7 2.767064 1_545
V0_1 V0_7 2.767064 1_455
V0_2 V0_3 2.767064 1_555
V0_2 V0_4 2.767064 1_555
V0_2 V0_4 2.767064 1_465
V0_2 V0_3 2.767064 1_554
V0_3 V0_5 2.767064 1_555
V0_3 V0_5 2.767064 1_465
V0_4 V0_5 2.767064 1_555
V0_4 V0_5 2.767064 1_554
V0_6 V0_7 2.767064 1_555
V0_6 V0_7 2.767064 1_554
