# generated using pymatgen
data_Rb2Pd(S4O13)2
_symmetry_space_group_name_H-M   'P 1'
_cell_length_a   7.72249800
_cell_length_b   8.85841554
_cell_length_c   9.53331092
_cell_angle_alpha   107.89444058
_cell_angle_beta   88.93529249
_cell_angle_gamma   107.32116989
_symmetry_Int_Tables_number   1
_chemical_formula_structural   Rb2Pd(S4O13)2
_chemical_formula_sum   'Rb2 Pd1 S8 O26'
_cell_volume   590.56118636
_cell_formula_units_Z   1
loop_
 _symmetry_equiv_pos_site_id
 _symmetry_equiv_pos_as_xyz
  1  'x, y, z'
loop_
 _atom_site_type_symbol
 _atom_site_label
 _atom_site_symmetry_multiplicity
 _atom_site_fract_x
 _atom_site_fract_y
 _atom_site_fract_z
 _atom_site_occupancy
  Rb  Rb0  1  0.13207200  0.26982900  0.88443200  1
  Rb  Rb1  1  0.86792800  0.73017100  0.11556800  1
  Pd  Pd0  1  0.50000000  0.50000000  0.50000000  1
  S  S0  1  0.67004200  0.36005500  0.70821800  1
  S  S1  1  0.32995800  0.63994500  0.29178200  1
  S  S2  1  0.87572500  0.19112900  0.48293600  1
  S  S3  1  0.12427500  0.80887100  0.51706400  1
  S  S4  1  0.38854800  0.15160900  0.22569800  1
  S  S5  1  0.61145200  0.84839100  0.77430200  1
  S  S6  1  0.78793600  0.22239500  0.19675200  1
  S  S7  1  0.21206400  0.77760500  0.80324800  1
  O  O0  1  0.70026300  0.18637500  0.57248300  1
  O  O1  1  0.29973700  0.81362500  0.42751700  1
  O  O2  1  0.70008000  0.48455600  0.62667900  1
  O  O3  1  0.29992000  0.51544400  0.37332100  1
  O  O4  1  0.81414700  0.40975300  0.82189200  1
  O  O5  1  0.18585300  0.59024700  0.17810800  1
  O  O6  1  0.84780200  0.29933100  0.37610300  1
  O  O7  1  0.15219800  0.70066900  0.62389700  1
  O  O8  1  0.03740800  0.29619700  0.57451000  1
  O  O9  1  0.96259200  0.70380300  0.42549000  1
  O  O10  1  0.48564700  0.29082800  0.73682900  1
  O  O11  1  0.51435300  0.70917200  0.26317100  1
  O  O12  1  0.85354500  0.02341200  0.39531800  1
  O  O13  1  0.14645500  0.97658800  0.60468200  1
  O  O14  1  0.42370300  0.24710400  0.38649500  1
  O  O15  1  0.57629700  0.75289600  0.61350500  1
  O  O16  1  0.59443300  0.09459200  0.18715900  1
  O  O17  1  0.40556700  0.90540800  0.81284100  1
  O  O18  1  0.78303600  0.36642400  0.16144900  1
  O  O19  1  0.21696400  0.63357600  0.83855100  1
  O  O20  1  0.90579500  0.12837500  0.12824100  1
  O  O21  1  0.09420500  0.87162500  0.87175900  1
  O  O22  1  0.38021300  0.24469200  0.12792000  1
  O  O23  1  0.61978700  0.75530800  0.87208000  1
  O  O24  1  0.26628600  0.98676200  0.19871300  1
  O  O25  1  0.73371400  0.01323800  0.80128700  1
loop_
_geom_bond_atom_site_label_1
_geom_bond_atom_site_label_2
_geom_bond_distance
_geom_bond_site_symmetry_2
O0 S2 1.584836 1_555
O0 S0 1.753604 1_555
O1 S3 1.584836 1_555
O1 S1 1.753604 1_555
O2 S0 1.497402 1_555
O2 Pd0 2.039932 1_555
O3 S1 1.497402 1_555
O3 Pd0 2.039932 1_555
O4 S0 1.437546 1_555
O4 Rb0 3.200056 1_655
O4 Rb1 3.244246 1_556
O5 S1 1.437546 1_555
O5 Rb1 3.200056 1_455
O5 Rb0 3.244246 1_554
O6 S6 1.651461 1_555
O6 S2 1.653373 1_555
O7 S7 1.651461 1_555
O7 S3 1.653373 1_555
O8 S2 1.427093 1_455
O8 Rb0 3.150332 1_555
O9 S3 1.427093 1_655
O9 Rb1 3.150332 1_555
O10 S0 1.430589 1_555
O10 Rb0 3.030812 1_555
O11 S1 1.430589 1_555
O11 Rb1 3.030812 1_555
O12 S2 1.423212 1_555
O12 Rb1 3.126690 1_545
O13 S3 1.423212 1_555
O13 Rb0 3.126690 1_565
O14 S4 1.490301 1_555
O14 Pd0 2.069981 1_555
O15 S5 1.490301 1_555
O15 Pd0 2.069981 1_555
O16 S6 1.567538 1_555
O16 S4 1.805673 1_555
O17 S7 1.567538 1_555
O17 S5 1.805673 1_555
O18 S6 1.426759 1_555
O18 Rb1 3.255982 1_555
O19 S7 1.426759 1_555
O19 Rb0 3.255982 1_555
O20 S6 1.429567 1_555
O20 Rb0 3.218865 1_654
O20 Rb1 3.415882 1_545
O21 S7 1.429567 1_555
O21 Rb1 3.218865 1_456
O21 Rb0 3.415882 1_565
O22 S4 1.434966 1_555
O22 Rb0 3.137974 1_554
O23 S5 1.434966 1_555
O23 Rb1 3.137974 1_556
O24 S4 1.430819 1_565
O24 Rb1 3.174628 1_455
O25 S5 1.430819 1_545
O25 Rb0 3.174628 1_655
