# generated using pymatgen
data_Co(RhSe2)2
_symmetry_space_group_name_H-M   'P 1'
_cell_length_a   6.37955064
_cell_length_b   6.37955064
_cell_length_c   6.42991851
_cell_angle_alpha   60.94337471
_cell_angle_beta   60.94337471
_cell_angle_gamma   34.00046779
_symmetry_Int_Tables_number   1
_chemical_formula_structural   Co(RhSe2)2
_chemical_formula_sum   'Co1 Rh2 Se4'
_cell_volume   126.05953675
_cell_formula_units_Z   1
loop_
 _symmetry_equiv_pos_site_id
 _symmetry_equiv_pos_as_xyz
  1  'x, y, z'
loop_
 _atom_site_type_symbol
 _atom_site_label
 _atom_site_symmetry_multiplicity
 _atom_site_fract_x
 _atom_site_fract_y
 _atom_site_fract_z
 _atom_site_occupancy
  Co  Co0  1  0.00000000  0.00000000  0.00000000  1
  Rh  Rh0  1  0.26257800  0.26257800  0.72008400  1
  Rh  Rh1  1  0.73742200  0.73742200  0.27991600  1
  Se  Se0  1  0.37114900  0.37114900  0.97330700  1
  Se  Se1  1  0.62885100  0.62885100  0.02669300  1
  Se  Se2  1  0.11678600  0.11678600  0.55438800  1
  Se  Se3  1  0.88321400  0.88321400  0.44561200  1
loop_
_geom_bond_atom_site_label_1
_geom_bond_atom_site_label_2
_geom_bond_distance
_geom_bond_site_symmetry_2
Co0 Se3 2.468414 1_445
Co0 Se2 2.468414 1_554
Co0 Se1 2.500874 1_545
Co0 Se1 2.500874 1_455
Co0 Se0 2.500874 1_544
Co0 Se0 2.500874 1_454
Co0 Rh1 2.765324 1_445
Co0 Rh0 2.765324 1_554
Rh0 Se3 2.474212 1_545
Rh0 Se3 2.474212 1_455
Rh0 Se2 2.494920 1_555
Rh0 Se0 2.568433 1_555
Rh0 Se1 2.600140 1_546
Rh0 Se1 2.600140 1_456
Rh1 Se2 2.474212 1_565
Rh1 Se2 2.474212 1_655
Rh1 Se3 2.494920 1_555
Rh1 Se1 2.568433 1_555
Rh1 Se0 2.600140 1_654
Rh1 Se0 2.600140 1_564
