# generated using pymatgen
data_K2AlSn(PO4)3
_symmetry_space_group_name_H-M   'P 1'
_cell_length_a   9.94269500
_cell_length_b   9.94269500
_cell_length_c   9.94269500
_cell_angle_alpha   90.00000000
_cell_angle_beta   90.00000000
_cell_angle_gamma   90.00000000
_symmetry_Int_Tables_number   1
_chemical_formula_structural   K2AlSn(PO4)3
_chemical_formula_sum   'K8 Al4 Sn4 P12 O48'
_cell_volume   982.90682771
_cell_formula_units_Z   4
loop_
 _symmetry_equiv_pos_site_id
 _symmetry_equiv_pos_as_xyz
  1  'x, y, z'
loop_
 _atom_site_type_symbol
 _atom_site_label
 _atom_site_symmetry_multiplicity
 _atom_site_fract_x
 _atom_site_fract_y
 _atom_site_fract_z
 _atom_site_occupancy
  K  K0  1  0.45564500  0.45564500  0.45564500  1
  K  K1  1  0.54435500  0.95564500  0.04435500  1
  K  K2  1  0.95564500  0.04435500  0.54435500  1
  K  K3  1  0.04435500  0.54435500  0.95564500  1
  K  K4  1  0.18407600  0.81592400  0.31592400  1
  K  K5  1  0.68407600  0.68407600  0.68407600  1
  K  K6  1  0.31592400  0.18407600  0.81592400  1
  K  K7  1  0.81592400  0.31592400  0.18407600  1
  Al  Al0  1  0.39517500  0.60482500  0.10482500  1
  Al  Al1  1  0.89517500  0.89517500  0.89517500  1
  Al  Al2  1  0.10482500  0.39517500  0.60482500  1
  Al  Al3  1  0.60482500  0.10482500  0.39517500  1
  Sn  Sn0  1  0.33692200  0.83692200  0.66307800  1
  Sn  Sn1  1  0.83692200  0.66307800  0.33692200  1
  Sn  Sn2  1  0.66307800  0.33692200  0.83692200  1
  Sn  Sn3  1  0.16307800  0.16307800  0.16307800  1
  P  P0  1  0.36820000  0.51906600  0.79498800  1
  P  P1  1  0.20501200  0.86820000  0.98093400  1
  P  P2  1  0.01906600  0.70501200  0.63180000  1
  P  P3  1  0.86820000  0.98093400  0.20501200  1
  P  P4  1  0.70501200  0.63180000  0.01906600  1
  P  P5  1  0.51906600  0.79498800  0.36820000  1
  P  P6  1  0.63180000  0.01906600  0.70501200  1
  P  P7  1  0.79498800  0.36820000  0.51906600  1
  P  P8  1  0.98093400  0.20501200  0.86820000  1
  P  P9  1  0.13180000  0.48093400  0.29498800  1
  P  P10  1  0.29498800  0.13180000  0.48093400  1
  P  P11  1  0.48093400  0.29498800  0.13180000  1
  O  O0  1  0.25709700  0.45556100  0.70935200  1
  O  O1  1  0.29064800  0.75709700  0.04443900  1
  O  O2  1  0.95556100  0.79064800  0.74290300  1
  O  O3  1  0.75709700  0.04443900  0.29064800  1
  O  O4  1  0.79064800  0.74290300  0.95556100  1
  O  O5  1  0.45556100  0.70935200  0.25709700  1
  O  O6  1  0.74290300  0.95556100  0.79064800  1
  O  O7  1  0.70935200  0.25709700  0.45556100  1
  O  O8  1  0.04443900  0.29064800  0.75709700  1
  O  O9  1  0.24290300  0.54443900  0.20935200  1
  O  O10  1  0.20935200  0.24290300  0.54443900  1
  O  O11  1  0.54443900  0.20935200  0.24290300  1
  O  O12  1  0.40471500  0.66462900  0.75088400  1
  O  O13  1  0.24911600  0.90471500  0.83537100  1
  O  O14  1  0.16462900  0.74911600  0.59528500  1
  O  O15  1  0.90471500  0.83537100  0.24911600  1
  O  O16  1  0.74911600  0.59528500  0.16462900  1
  O  O17  1  0.66462900  0.75088400  0.40471500  1
  O  O18  1  0.59528500  0.16462900  0.74911600  1
  O  O19  1  0.75088400  0.40471500  0.66462900  1
  O  O20  1  0.83537100  0.24911600  0.90471500  1
  O  O21  1  0.09528500  0.33537100  0.25088400  1
  O  O22  1  0.25088400  0.09528500  0.33537100  1
  O  O23  1  0.33537100  0.25088400  0.09528500  1
  O  O24  1  0.49838600  0.43632200  0.76192700  1
  O  O25  1  0.23807300  0.99838600  0.06367800  1
  O  O26  1  0.93632200  0.73807300  0.50161400  1
  O  O27  1  0.99838600  0.06367800  0.23807300  1
  O  O28  1  0.73807300  0.50161400  0.93632200  1
  O  O29  1  0.43632200  0.76192700  0.49838600  1
  O  O30  1  0.50161400  0.93632200  0.73807300  1
  O  O31  1  0.76192700  0.49838600  0.43632200  1
  O  O32  1  0.06367800  0.23807300  0.99838600  1
  O  O33  1  0.00161400  0.56367800  0.26192700  1
  O  O34  1  0.26192700  0.00161400  0.56367800  1
  O  O35  1  0.56367800  0.26192700  0.00161400  1
  O  O36  1  0.33255200  0.51462600  0.94503900  1
  O  O37  1  0.05496100  0.83255200  0.98537400  1
  O  O38  1  0.01462600  0.55496100  0.66744800  1
  O  O39  1  0.83255200  0.98537400  0.05496100  1
  O  O40  1  0.55496100  0.66744800  0.01462600  1
  O  O41  1  0.51462600  0.94503900  0.33255200  1
  O  O42  1  0.66744800  0.01462600  0.55496100  1
  O  O43  1  0.94503900  0.33255200  0.51462600  1
  O  O44  1  0.98537400  0.05496100  0.83255200  1
  O  O45  1  0.16744800  0.48537400  0.44503900  1
  O  O46  1  0.44503900  0.16744800  0.48537400  1
  O  O47  1  0.48537400  0.44503900  0.16744800  1
loop_
_geom_bond_atom_site_label_1
_geom_bond_atom_site_label_2
_geom_bond_distance
_geom_bond_site_symmetry_2
K0 O46 2.882590 1_555
K0 O47 2.882590 1_555
K0 O45 2.882590 1_555
K0 O24 3.080773 1_555
K0 O29 3.080773 1_555
K0 O31 3.080773 1_555
K0 O0 3.203162 1_555
K0 O7 3.203162 1_555
K0 O5 3.203162 1_555
K1 O39 2.882590 1_555
K1 O40 2.882590 1_555
K1 O41 2.882590 1_555
K1 O30 3.080773 1_554
K1 O35 3.080773 1_565
K1 O25 3.080773 1_555
K1 O6 3.203162 1_554
K1 O1 3.203162 1_555
K1 O11 3.203162 1_565
K2 O44 2.882590 1_555
K2 O42 2.882590 1_555
K2 O43 2.882590 1_555
K2 O26 3.080773 1_545
K2 O27 3.080773 1_555
K2 O34 3.080773 1_655
K2 O2 3.203162 1_545
K2 O10 3.203162 1_655
K2 O3 3.203162 1_555
K3 O37 2.882590 1_555
K3 O38 2.882590 1_555
K3 O36 2.882590 1_555
K3 O28 3.080773 1_455
K3 O32 3.080773 1_555
K3 O33 3.080773 1_556
K3 O4 3.203162 1_455
K3 O8 3.203162 1_555
K3 O9 3.203162 1_556
K4 O14 2.862461 1_555
K4 O15 2.862461 1_455
K4 O22 2.862461 1_565
K4 O1 2.958220 1_555
K4 O5 2.958220 1_555
K4 O9 2.958220 1_555
K4 O29 3.141579 1_555
K4 O33 3.141579 1_555
K4 O25 3.141579 1_555
K4 O27 3.174253 1_465
K4 O26 3.174253 1_455
K4 O34 3.174253 1_565
K5 O17 2.862461 1_555
K5 O12 2.862461 1_555
K5 O19 2.862461 1_555
K5 O2 2.958220 1_555
K5 O6 2.958220 1_555
K5 O4 2.958220 1_555
K5 O26 3.141579 1_555
K5 O30 3.141579 1_555
K5 O28 3.141579 1_555
K5 O31 3.174253 1_555
K5 O24 3.174253 1_555
K5 O29 3.174253 1_555
K6 O18 2.862461 1_555
K6 O13 2.862461 1_545
K6 O23 2.862461 1_556
K6 O8 2.958220 1_555
K6 O10 2.958220 1_555
K6 O0 2.958220 1_555
K6 O34 3.141579 1_555
K6 O24 3.141579 1_555
K6 O32 3.141579 1_555
K6 O25 3.174253 1_546
K6 O30 3.174253 1_545
K6 O35 3.174253 1_556
K7 O20 2.862461 1_554
K7 O16 2.862461 1_555
K7 O21 2.862461 1_655
K7 O3 2.958220 1_555
K7 O7 2.958220 1_555
K7 O11 2.958220 1_555
K7 O35 3.141579 1_555
K7 O27 3.141579 1_555
K7 O31 3.141579 1_555
K7 O32 3.174253 1_654
K7 O33 3.174253 1_655
K7 O28 3.174253 1_554
Al0 O47 1.927680 1_555
Al0 O36 1.927680 1_554
Al0 O40 1.927680 1_555
Al0 O9 1.932035 1_555
Al0 O5 1.932035 1_555
Al0 O1 1.932035 1_555
Al1 O44 1.927680 1_565
Al1 O39 1.927680 1_556
Al1 O37 1.927680 1_655
Al1 O6 1.932035 1_555
Al1 O2 1.932035 1_555
Al1 O4 1.932035 1_555
Al2 O45 1.927680 1_555
Al2 O43 1.927680 1_455
Al2 O38 1.927680 1_555
Al2 O10 1.932035 1_555
Al2 O0 1.932035 1_555
Al2 O8 1.932035 1_555
Al3 O46 1.927680 1_555
Al3 O41 1.927680 1_545
Al3 O42 1.927680 1_555
Al3 O11 1.932035 1_555
Al3 O7 1.932035 1_555
Al3 O3 1.932035 1_555
O0 P0 1.530991 1_555
O1 P1 1.530991 1_554
O2 P2 1.530991 1_655
O3 P3 1.530991 1_545
O4 P4 1.530991 1_556
O5 P5 1.530991 1_555
O6 P6 1.530991 1_565
O7 P7 1.530991 1_555
O8 P8 1.530991 1_455
O9 P9 1.530991 1_555
O10 P10 1.530991 1_555
O11 P11 1.530991 1_555
O12 P0 1.555232 1_555
O12 Sn0 2.037420 1_555
O13 P1 1.555232 1_555
O13 Sn0 2.037420 1_555
O14 P2 1.555232 1_555
O14 Sn0 2.037420 1_555
O15 P3 1.555232 1_555
O15 Sn1 2.037420 1_555
O16 P4 1.555232 1_555
O16 Sn1 2.037420 1_555
O17 P5 1.555232 1_555
O17 Sn1 2.037420 1_555
O18 P6 1.555232 1_555
O18 Sn2 2.037420 1_555
O19 P7 1.555232 1_555
O19 Sn2 2.037420 1_555
O20 P8 1.555232 1_555
O20 Sn2 2.037420 1_555
O21 P9 1.555232 1_555
O21 Sn3 2.037420 1_555
O22 P10 1.555232 1_555
O22 Sn3 2.037420 1_555
O23 P11 1.555232 1_555
O23 Sn3 2.037420 1_555
O24 P0 1.568553 1_555
O24 Sn2 2.052825 1_555
O25 P1 1.568553 1_554
O25 Sn3 2.052825 1_565
O26 P2 1.568553 1_655
O26 Sn1 2.052825 1_555
O27 P3 1.568553 1_545
O27 Sn3 2.052825 1_655
O28 P4 1.568553 1_556
O28 Sn2 2.052825 1_555
O29 P5 1.568553 1_555
O29 Sn0 2.052825 1_555
O30 P6 1.568553 1_565
O30 Sn0 2.052825 1_555
O31 P7 1.568553 1_555
O31 Sn1 2.052825 1_555
O32 P8 1.568553 1_455
O32 Sn3 2.052825 1_556
O33 P9 1.568553 1_555
O33 Sn1 2.052825 1_455
O34 P10 1.568553 1_555
O34 Sn0 2.052825 1_545
O35 P11 1.568553 1_555
O35 Sn2 2.052825 1_554
O36 P0 1.534071 1_555
O37 P1 1.534071 1_555
O38 P2 1.534071 1_555
O39 P3 1.534071 1_555
O40 P4 1.534071 1_555
O41 P5 1.534071 1_555
O42 P6 1.534071 1_555
O43 P7 1.534071 1_555
O44 P8 1.534071 1_555
O45 P9 1.534071 1_555
O46 P10 1.534071 1_555
O47 P11 1.534071 1_555
