# generated using pymatgen
data_Mg4Si3
_symmetry_space_group_name_H-M   'P 1'
_cell_length_a   6.77215321
_cell_length_b   6.77215321
_cell_length_c   6.77215387
_cell_angle_alpha   105.74064692
_cell_angle_beta   105.74064692
_cell_angle_gamma   105.74064721
_symmetry_Int_Tables_number   1
_chemical_formula_structural   Mg4Si3
_chemical_formula_sum   'Mg8 Si6'
_cell_volume   267.04633585
_cell_formula_units_Z   2
loop_
 _symmetry_equiv_pos_site_id
 _symmetry_equiv_pos_as_xyz
  1  'x, y, z'
loop_
 _atom_site_type_symbol
 _atom_site_label
 _atom_site_symmetry_multiplicity
 _atom_site_fract_x
 _atom_site_fract_y
 _atom_site_fract_z
 _atom_site_occupancy
  Mg  Mg0  1  0.84332300  0.25377000  0.38601800  1
  Mg  Mg1  1  0.25377000  0.38601800  0.84332300  1
  Mg  Mg2  1  0.50000000  0.50000000  0.50000000  1
  Mg  Mg3  1  0.38601800  0.84332300  0.25377000  1
  Mg  Mg4  1  0.74623000  0.61398200  0.15667700  1
  Mg  Mg5  1  0.00000000  0.00000000  0.00000000  1
  Mg  Mg6  1  0.61398200  0.15667700  0.74623000  1
  Mg  Mg7  1  0.15667700  0.74623000  0.61398200  1
  Si  Si0  1  0.45119200  0.16374200  0.07691700  1
  Si  Si1  1  0.16374200  0.07691700  0.45119200  1
  Si  Si2  1  0.83625800  0.92308300  0.54880800  1
  Si  Si3  1  0.54880800  0.83625800  0.92308300  1
  Si  Si4  1  0.07691700  0.45119200  0.16374200  1
  Si  Si5  1  0.92308300  0.54880800  0.83625800  1
loop_
_geom_bond_atom_site_label_1
_geom_bond_atom_site_label_2
_geom_bond_distance
_geom_bond_site_symmetry_2
Mg0 Si0 2.686755 1_555
Mg0 Si1 2.741359 1_655
Mg0 Si2 2.746428 1_545
Mg0 Si4 2.791468 1_655
Mg0 Si5 2.965861 1_555
Mg1 Si1 2.686755 1_555
Mg1 Si4 2.741359 1_556
Mg1 Si5 2.746428 1_455
Mg1 Si0 2.791468 1_556
Mg1 Si3 2.965861 1_555
Mg2 Si1 3.006974 1_555
Mg2 Si2 3.006974 1_555
Mg2 Si5 3.006974 1_555
Mg2 Si4 3.006974 1_555
Mg2 Si0 3.006974 1_555
Mg2 Si3 3.006974 1_555
Mg3 Si4 2.686755 1_555
Mg3 Si0 2.741359 1_565
Mg3 Si3 2.746428 1_554
Mg3 Si1 2.791468 1_565
Mg3 Si2 2.965861 1_555
Mg4 Si2 2.686755 1_555
Mg4 Si5 2.741359 1_554
Mg4 Si4 2.746428 1_655
Mg4 Si3 2.791468 1_554
Mg4 Si0 2.965861 1_555
Mg5 Si0 2.796783 1_555
Mg5 Si3 2.796783 1_444
Mg5 Si5 2.796783 1_444
Mg5 Si4 2.796783 1_555
Mg5 Si1 2.796783 1_555
Mg5 Si2 2.796783 1_444
Mg6 Si5 2.686755 1_555
Mg6 Si3 2.741359 1_545
Mg6 Si0 2.746428 1_556
Mg6 Si2 2.791468 1_545
Mg6 Si1 2.965861 1_555
Mg7 Si3 2.686755 1_555
Mg7 Si2 2.741359 1_455
Mg7 Si1 2.746428 1_565
Mg7 Si5 2.791468 1_455
Mg7 Si4 2.965861 1_555
Si0 Si3 2.521190 1_544
Si1 Si2 2.521190 1_445
Si4 Si5 2.521190 1_454
