# generated using pymatgen
data_TmCu5Sn
_symmetry_space_group_name_H-M   'P 1'
_cell_length_a   4.91712864
_cell_length_b   8.09121060
_cell_length_c   10.50856549
_cell_angle_alpha   89.98932848
_cell_angle_beta   89.99995856
_cell_angle_gamma   90.00001104
_symmetry_Int_Tables_number   1
_chemical_formula_structural   TmCu5Sn
_chemical_formula_sum   'Tm4 Cu20 Sn4'
_cell_volume   418.08877024
_cell_formula_units_Z   4
loop_
 _symmetry_equiv_pos_site_id
 _symmetry_equiv_pos_as_xyz
  1  'x, y, z'
loop_
 _atom_site_type_symbol
 _atom_site_label
 _atom_site_symmetry_multiplicity
 _atom_site_fract_x
 _atom_site_fract_y
 _atom_site_fract_z
 _atom_site_occupancy
  Tm  Tm0  1  0.24999960  0.74881065  0.06359325  1
  Tm  Tm1  1  0.74999960  0.25119068  0.93640853  1
  Tm  Tm2  1  0.75000210  0.75107264  0.56360557  1
  Tm  Tm3  1  0.24999820  0.24892529  0.43639611  1
  Cu  Cu0  1  0.25000129  0.81695350  0.74152407  1
  Cu  Cu1  1  0.74999802  0.18304813  0.25847687  1
  Cu  Cu2  1  0.74999779  0.68294987  0.24156553  1
  Cu  Cu3  1  0.25000162  0.31704888  0.75843436  1
  Cu  Cu4  1  0.50176205  0.56887963  0.81335920  1
  Cu  Cu5  1  0.49823873  0.43111867  0.18664051  1
  Cu  Cu6  1  0.49827157  0.93105163  0.31336020  1
  Cu  Cu7  1  0.00176157  0.43111858  0.18664160  1
  Cu  Cu8  1  0.50172655  0.06895040  0.68663911  1
  Cu  Cu9  1  0.99823631  0.56887971  0.81335794  1
  Cu  Cu10  1  0.99827718  0.06895020  0.68663802  1
  Cu  Cu11  1  0.00172408  0.93105175  0.31336162  1
  Cu  Cu12  1  0.25000386  0.91480612  0.51689705  1
  Cu  Cu13  1  0.74999850  0.08518943  0.48310338  1
  Cu  Cu14  1  0.75000017  0.58525292  0.01680663  1
  Cu  Cu15  1  0.24999904  0.41474815  0.98319365  1
  Cu  Cu16  1  0.25000342  0.55993012  0.60260209  1
  Cu  Cu17  1  0.74999635  0.44007474  0.39739775  1
  Cu  Cu18  1  0.74999944  0.94017813  0.10262487  1
  Cu  Cu19  1  0.24999975  0.05981964  0.89737579  1
  Sn  Sn0  1  0.24999922  0.63687910  0.36182483  1
  Sn  Sn1  1  0.75000444  0.36311806  0.63817364  1
  Sn  Sn2  1  0.75000056  0.86307832  0.86179209  1
  Sn  Sn3  1  0.24999899  0.13692306  0.13820673  1
loop_
_geom_bond_atom_site_label_1
_geom_bond_atom_site_label_2
_geom_bond_distance
_geom_bond_site_symmetry_2
Cu0 Cu10 2.453901 1_465
Cu0 Cu8 2.453902 1_565
Cu0 Cu4 2.476027 1_555
Cu0 Cu9 2.476031 1_455
Cu0 Cu12 2.489611 1_555
Cu0 Cu16 2.541105 1_555
Cu0 Cu19 2.558331 1_565
Cu0 Sn2 2.789496 1_555
Cu0 Sn2 2.789500 1_455
Cu0 Tm2 3.134438 1_455
Cu0 Tm2 3.134443 1_555
Cu0 Tm0 3.429000 1_556
Cu1 Cu6 2.453898 1_545
Cu1 Cu11 2.453901 1_645
Cu1 Cu5 2.476005 1_555
Cu1 Cu7 2.476010 1_655
Cu1 Cu13 2.489621 1_555
Cu1 Cu17 2.541120 1_555
Cu1 Cu18 2.558357 1_545
Cu1 Sn3 2.789505 1_555
Cu1 Sn3 2.789512 1_655
Cu1 Tm3 3.134438 1_555
Cu1 Tm3 3.134442 1_655
Cu1 Tm1 3.428991 1_554
Cu2 Cu5 2.453150 1_555
Cu2 Cu7 2.453160 1_655
Cu2 Cu6 2.476222 1_555
Cu2 Sn0 2.789328 1_555
Cu2 Sn0 2.789342 1_655
Cu2 Tm0 3.134626 1_555
Cu2 Tm0 3.134637 1_655
Cu2 Tm2 3.428874 1_555
Cu3 Cu4 2.453150 1_555
Cu3 Cu9 2.453160 1_455
Cu3 Cu8 2.476199 1_555
Cu3 Sn1 2.789329 1_455
Cu3 Sn1 2.789351 1_555
Cu3 Tm1 3.134633 1_555
Cu3 Tm1 3.134647 1_455
Cu3 Tm3 3.428857 1_555
Cu4 Cu9 2.441228 1_555
Cu4 Cu9 2.475901 1_455
Cu4 Sn2 2.723201 1_555
Cu4 Sn1 2.766216 1_555
Cu4 Tm1 3.125398 1_555
Cu4 Tm2 3.248063 1_555
Cu4 Tm0 3.250887 1_556
Cu5 Cu7 2.441242 1_555
Cu5 Cu7 2.475887 1_655
Cu5 Sn3 2.723184 1_555
Cu5 Sn0 2.766196 1_555
Cu5 Tm0 3.125412 1_555
Cu5 Tm3 3.248082 1_555
Cu5 Tm1 3.250856 1_554
Cu6 Sn0 2.722987 1_555
Cu6 Sn3 2.766181 1_565
Cu6 Tm3 3.127033 1_565
Cu6 Tm0 3.248857 1_555
Cu6 Tm2 3.250660 1_555
Cu7 Sn3 2.723180 1_555
Cu7 Sn0 2.766186 1_555
Cu7 Tm0 3.125414 1_555
Cu7 Tm3 3.248067 1_555
Cu7 Tm1 3.250868 1_454
Cu8 Sn1 2.722966 1_555
Cu8 Sn2 2.766184 1_545
Cu8 Tm2 3.127054 1_545
Cu8 Tm1 3.248877 1_555
Cu8 Tm3 3.250621 1_555
Cu9 Sn2 2.723197 1_555
Cu9 Sn1 2.766186 1_555
Cu9 Tm1 3.125401 1_555
Cu9 Tm2 3.248043 1_555
Cu9 Tm0 3.250900 1_656
Cu10 Cu8 2.441603 1_555
Cu10 Cu13 2.466226 1_555
Cu10 Cu8 2.475525 1_655
Cu10 Cu3 2.476203 1_655
Cu10 Cu12 2.504027 1_645
Cu10 Cu19 2.538045 1_655
Cu10 Sn1 2.722955 1_555
Cu10 Sn2 2.766195 1_545
Cu10 Tm2 3.127048 1_545
Cu10 Tm1 3.248894 1_555
Cu10 Tm3 3.250597 1_655
Cu11 Cu6 2.441588 1_555
Cu11 Cu12 2.466239 1_555
Cu11 Cu6 2.475541 1_455
Cu11 Cu2 2.476228 1_455
Cu11 Cu13 2.504005 1_465
Cu11 Cu18 2.538039 1_455
Cu11 Sn0 2.722992 1_555
Cu11 Sn3 2.766194 1_565
Cu11 Tm3 3.127028 1_565
Cu11 Tm0 3.248875 1_555
Cu11 Tm2 3.250631 1_455
Cu12 Cu6 2.466221 1_555
Cu12 Cu8 2.504028 1_565
Cu12 Sn0 2.777385 1_555
Cu12 Tm3 2.832544 1_565
Cu12 Tm2 2.835539 1_555
Cu12 Tm2 2.835553 1_455
Cu13 Cu8 2.466218 1_555
Cu13 Cu6 2.504020 1_545
Cu13 Sn1 2.777383 1_555
Cu13 Tm2 2.832529 1_545
Cu13 Tm3 2.835551 1_655
Cu13 Tm3 2.835554 1_555
Cu14 Cu4 2.465433 1_554
Cu14 Cu9 2.465438 1_554
Cu14 Cu2 2.490804 1_555
Cu14 Cu5 2.504437 1_555
Cu14 Cu7 2.504446 1_655
Cu14 Sn2 2.775872 1_554
Cu14 Tm1 2.832082 1_554
Cu14 Tm0 2.835107 1_655
Cu14 Tm0 2.835112 1_555
Cu15 Cu5 2.465431 1_556
Cu15 Cu7 2.465434 1_556
Cu15 Cu3 2.490814 1_555
Cu15 Cu4 2.504433 1_555
Cu15 Cu9 2.504444 1_455
Cu15 Sn3 2.775861 1_556
Cu15 Tm0 2.832089 1_556
Cu15 Tm1 2.835103 1_455
Cu15 Tm1 2.835108 1_555
Cu16 Cu4 2.538290 1_555
Cu16 Cu9 2.538297 1_455
Cu16 Cu3 2.557826 1_555
Cu16 Sn0 2.605588 1_555
Cu16 Tm2 2.933274 1_555
Cu16 Tm2 2.933285 1_455
Cu16 Sn1 2.952949 1_455
Cu16 Sn1 2.952959 1_555
Cu16 Tm3 3.063413 1_555
Cu17 Cu5 2.538290 1_555
Cu17 Cu7 2.538297 1_655
Cu17 Cu2 2.557787 1_555
Cu17 Sn1 2.605589 1_555
Cu17 Tm3 2.933304 1_555
Cu17 Tm3 2.933320 1_655
Cu17 Sn0 2.952911 1_555
Cu17 Sn0 2.952934 1_655
Cu17 Tm2 3.063378 1_555
Cu18 Cu6 2.538032 1_555
Cu18 Cu2 2.542130 1_555
Cu18 Sn2 2.606672 1_554
Cu18 Tm0 2.934371 1_555
Cu18 Tm0 2.934372 1_655
Cu18 Sn3 2.952748 1_665
Cu18 Sn3 2.952752 1_565
Cu18 Tm1 3.062992 1_564
Cu19 Cu8 2.538043 1_555
Cu19 Cu3 2.542141 1_555
Cu19 Sn3 2.606660 1_556
Cu19 Tm1 2.934388 1_555
Cu19 Tm1 2.934389 1_455
Cu19 Sn2 2.952733 1_445
Cu19 Sn2 2.952740 1_545
Cu19 Tm0 3.062975 1_546
Sn0 Tm3 3.235211 1_555
Sn0 Tm0 3.262060 1_555
Sn0 Tm2 3.375664 1_455
Sn0 Tm2 3.375687 1_555
Sn1 Tm2 3.235209 1_555
Sn1 Tm1 3.262084 1_555
Sn1 Tm3 3.375629 1_655
Sn1 Tm3 3.375676 1_555
Sn2 Tm1 3.236854 1_565
Sn2 Tm2 3.262096 1_555
Sn2 Tm0 3.375756 1_656
Sn2 Tm0 3.375760 1_556
Sn3 Tm0 3.236847 1_545
Sn3 Tm3 3.262117 1_555
Sn3 Tm1 3.375738 1_454
Sn3 Tm1 3.375739 1_554
