# generated using pymatgen
data_BaMg6Sn
_symmetry_space_group_name_H-M   'P 1'
_cell_length_a   7.09315947
_cell_length_b   7.09315947
_cell_length_c   5.26637400
_cell_angle_alpha   90.00000000
_cell_angle_beta   90.00000000
_cell_angle_gamma   123.26451503
_symmetry_Int_Tables_number   1
_chemical_formula_structural   BaMg6Sn
_chemical_formula_sum   'Ba1 Mg6 Sn1'
_cell_volume   221.55109464
_cell_formula_units_Z   1
loop_
 _symmetry_equiv_pos_site_id
 _symmetry_equiv_pos_as_xyz
  1  'x, y, z'
loop_
 _atom_site_type_symbol
 _atom_site_label
 _atom_site_symmetry_multiplicity
 _atom_site_fract_x
 _atom_site_fract_y
 _atom_site_fract_z
 _atom_site_occupancy
  Ba  Ba0  1  0.32767400  0.67232600  0.50000000  1
  Mg  Mg0  1  0.32819400  0.16768700  0.50000000  1
  Mg  Mg1  1  0.83231300  0.67180600  0.50000000  1
  Mg  Mg2  1  0.15492600  0.30441800  0.00000000  1
  Mg  Mg3  1  0.69558200  0.84507400  0.00000000  1
  Mg  Mg4  1  0.67003400  0.32996600  0.00000000  1
  Mg  Mg5  1  0.15045300  0.84954700  0.00000000  1
  Sn  Sn0  1  0.84082900  0.15917100  0.50000000  1
loop_
_geom_bond_atom_site_label_1
_geom_bond_atom_site_label_2
_geom_bond_distance
_geom_bond_site_symmetry_2
Ba0 Sn0 3.374163 1_565
Ba0 Sn0 3.374163 1_455
Ba0 Mg3 3.425991 1_555
Ba0 Mg3 3.425991 1_556
Ba0 Mg2 3.425991 1_555
Ba0 Mg2 3.425991 1_556
Ba0 Mg5 3.439120 1_555
Ba0 Mg5 3.439120 1_556
Ba0 Mg1 3.511653 1_455
Ba0 Mg0 3.511653 1_565
Ba0 Mg0 3.581509 1_555
Ba0 Mg1 3.581509 1_555
Mg0 Mg5 3.239515 1_545
Mg0 Mg5 3.239515 1_546
Mg0 Mg2 3.269920 1_556
Mg0 Mg2 3.269920 1_555
Mg0 Mg4 3.328084 1_556
Mg0 Mg4 3.328084 1_555
Mg0 Mg1 3.342402 1_445
Mg0 Mg1 3.397928 1_555
Mg0 Sn0 3.424198 1_455
Mg1 Mg5 3.239515 1_656
Mg1 Mg5 3.239515 1_655
Mg1 Mg3 3.269920 1_555
Mg1 Mg3 3.269920 1_556
Mg1 Mg4 3.328084 1_556
Mg1 Mg4 3.328084 1_555
Mg1 Sn0 3.424198 1_565
Mg2 Mg3 3.096130 1_445
Mg2 Mg5 3.209179 1_545
Mg2 Sn0 3.231222 1_455
Mg2 Sn0 3.231222 1_454
Mg2 Mg4 3.542057 1_455
Mg2 Mg4 3.557574 1_555
Mg3 Mg5 3.209179 1_655
Mg3 Sn0 3.231222 1_565
Mg3 Sn0 3.231222 1_564
Mg3 Mg4 3.542057 1_565
Mg3 Mg4 3.557574 1_555
Mg4 Mg5 3.379017 1_655
Mg4 Mg5 3.379017 1_545
Mg4 Sn0 3.388079 1_555
Mg4 Sn0 3.388079 1_554
