# generated using pymatgen
data_K
_symmetry_space_group_name_H-M   'P 1'
_cell_length_a   8.64919666
_cell_length_b   20.15921118
_cell_length_c   20.15921118
_cell_angle_alpha   90.00000000
_cell_angle_beta   90.00000000
_cell_angle_gamma   90.00000000
_symmetry_Int_Tables_number   1
_chemical_formula_structural   K
_chemical_formula_sum   K8
_cell_volume   3514.97985782
_cell_formula_units_Z   8
loop_
 _symmetry_equiv_pos_site_id
 _symmetry_equiv_pos_as_xyz
  1  'x, y, z'
loop_
 _atom_site_type_symbol
 _atom_site_label
 _atom_site_symmetry_multiplicity
 _atom_site_fract_x
 _atom_site_fract_y
 _atom_site_fract_z
 _atom_site_occupancy
  K  K0_0  1  0.00000000  0.00000000  0.00000000  1
  K  K0_1  1  0.00000000  0.00000000  0.50000000  1
  K  K0_2  1  0.00000000  0.50000000  0.00000000  1
  K  K0_3  1  0.00000000  0.50000000  0.50000000  1
  K  K0_4  1  0.50000000  0.00000000  0.00000000  1
  K  K0_5  1  0.50000000  0.00000000  0.50000000  1
  K  K0_6  1  0.50000000  0.50000000  0.00000000  1
  K  K0_7  1  0.50000000  0.50000000  0.50000000  1
loop_
_geom_bond_atom_site_label_1
_geom_bond_atom_site_label_2
_geom_bond_distance
_geom_bond_site_symmetry_2
K0_0 K0_4 4.324598 1_555
K0_0 K0_4 4.324598 1_455
K0_1 K0_5 4.324598 1_555
K0_1 K0_5 4.324598 1_455
K0_2 K0_6 4.324598 1_455
K0_2 K0_6 4.324598 1_555
K0_3 K0_7 4.324598 1_555
K0_3 K0_7 4.324598 1_455
