# generated using pymatgen
data_RbY2Cl7
_symmetry_space_group_name_H-M   'P 1'
_cell_length_a   6.95807713
_cell_length_b   12.64136240
_cell_length_c   13.09067504
_cell_angle_alpha   90.00000000
_cell_angle_beta   90.00000000
_cell_angle_gamma   90.00000000
_symmetry_Int_Tables_number   1
_chemical_formula_structural   RbY2Cl7
_chemical_formula_sum   'Rb4 Y8 Cl28'
_cell_volume   1151.45020784
_cell_formula_units_Z   4
loop_
 _symmetry_equiv_pos_site_id
 _symmetry_equiv_pos_as_xyz
  1  'x, y, z'
loop_
 _atom_site_type_symbol
 _atom_site_label
 _atom_site_symmetry_multiplicity
 _atom_site_fract_x
 _atom_site_fract_y
 _atom_site_fract_z
 _atom_site_occupancy
  Rb  Rb0  1  0.25000000  0.80424437  0.03987243  1
  Rb  Rb1  1  0.75000000  0.19575563  0.96012757  1
  Rb  Rb2  1  0.75000000  0.30424437  0.46012757  1
  Rb  Rb3  1  0.25000000  0.69575563  0.53987243  1
  Y  Y0  1  0.25000000  0.45992274  0.23779350  1
  Y  Y1  1  0.75000000  0.54007726  0.76220650  1
  Y  Y2  1  0.75000000  0.95992274  0.26220650  1
  Y  Y3  1  0.25000000  0.04007726  0.73779350  1
  Y  Y4  1  0.25000000  0.15714356  0.24834166  1
  Y  Y5  1  0.75000000  0.84285644  0.75165834  1
  Y  Y6  1  0.75000000  0.65714356  0.25165834  1
  Y  Y7  1  0.25000000  0.34285644  0.74834166  1
  Cl  Cl0  1  0.00718087  0.30691239  0.17426981  1
  Cl  Cl1  1  0.99281913  0.69308761  0.82573019  1
  Cl  Cl2  1  0.99281913  0.80691239  0.32573019  1
  Cl  Cl3  1  0.50718087  0.69308761  0.82573019  1
  Cl  Cl4  1  0.00718087  0.19308761  0.67426981  1
  Cl  Cl5  1  0.49281913  0.30691239  0.17426981  1
  Cl  Cl6  1  0.49281913  0.19308761  0.67426981  1
  Cl  Cl7  1  0.50718087  0.80691239  0.32573019  1
  Cl  Cl8  1  0.01052099  0.57846685  0.12110135  1
  Cl  Cl9  1  0.98947901  0.42153315  0.87889865  1
  Cl  Cl10  1  0.98947901  0.07846685  0.37889865  1
  Cl  Cl11  1  0.51052099  0.42153315  0.87889865  1
  Cl  Cl12  1  0.01052099  0.92153315  0.62110135  1
  Cl  Cl13  1  0.48947901  0.57846685  0.12110135  1
  Cl  Cl14  1  0.48947901  0.92153315  0.62110135  1
  Cl  Cl15  1  0.51052099  0.07846685  0.37889865  1
  Cl  Cl16  1  0.00990000  0.03922141  0.12957210  1
  Cl  Cl17  1  0.99010000  0.96077859  0.87042790  1
  Cl  Cl18  1  0.99010000  0.53922141  0.37042790  1
  Cl  Cl19  1  0.50990000  0.96077859  0.87042790  1
  Cl  Cl20  1  0.00990000  0.46077859  0.62957210  1
  Cl  Cl21  1  0.49010000  0.03922141  0.12957210  1
  Cl  Cl22  1  0.49010000  0.46077859  0.62957210  1
  Cl  Cl23  1  0.50990000  0.53922141  0.37042790  1
  Cl  Cl24  1  0.25000000  0.31119838  0.39421568  1
  Cl  Cl25  1  0.75000000  0.68880162  0.60578432  1
  Cl  Cl26  1  0.75000000  0.81119838  0.10578432  1
  Cl  Cl27  1  0.25000000  0.18880162  0.89421568  1
loop_
_geom_bond_atom_site_label_1
_geom_bond_atom_site_label_2
_geom_bond_distance
_geom_bond_site_symmetry_2
Cl0 Y0 2.699529 1_555
Cl0 Y4 2.716493 1_555
Cl0 Rb1 3.610411 1_454
Cl1 Y1 2.699529 1_555
Cl1 Y5 2.716493 1_555
Cl1 Rb0 3.610411 1_656
Cl2 Y2 2.699529 1_555
Cl2 Y6 2.716493 1_555
Cl2 Rb3 3.610411 1_655
Cl3 Y1 2.699529 1_555
Cl3 Y5 2.716493 1_555
Cl3 Rb0 3.610411 1_556
Cl4 Y3 2.699529 1_555
Cl4 Y7 2.716493 1_555
Cl4 Rb2 3.610411 1_455
Cl5 Y0 2.699529 1_555
Cl5 Y4 2.716493 1_555
Cl5 Rb1 3.610411 1_554
Cl6 Y3 2.699529 1_555
Cl6 Y7 2.716493 1_555
Cl6 Rb2 3.610411 1_555
Cl7 Y2 2.699529 1_555
Cl7 Y6 2.716493 1_555
Cl7 Rb3 3.610411 1_555
Cl8 Y6 2.682558 1_455
Cl8 Y0 2.712154 1_555
Cl8 Rb0 3.471798 1_555
Cl9 Y7 2.682558 1_655
Cl9 Y1 2.712154 1_555
Cl9 Rb1 3.471798 1_555
Cl10 Y4 2.682558 1_655
Cl10 Y2 2.712154 1_545
Cl10 Rb2 3.471798 1_555
Cl11 Y7 2.682558 1_555
Cl11 Y1 2.712154 1_555
Cl11 Rb1 3.471798 1_555
Cl12 Y5 2.682558 1_455
Cl12 Y3 2.712154 1_565
Cl12 Rb3 3.471798 1_555
Cl13 Y6 2.682558 1_555
Cl13 Y0 2.712154 1_555
Cl13 Rb0 3.471798 1_555
Cl14 Y5 2.682558 1_555
Cl14 Y3 2.712154 1_565
Cl14 Rb3 3.471798 1_555
Cl15 Y4 2.682558 1_555
Cl15 Y2 2.712154 1_545
Cl15 Rb2 3.471798 1_555
Cl16 Y2 2.699975 1_445
Cl16 Y4 2.725897 1_555
Cl16 Rb1 3.479390 1_454
Cl16 Rb0 3.604620 1_545
Cl17 Y3 2.699975 1_665
Cl17 Y5 2.725897 1_555
Cl17 Rb0 3.479390 1_656
Cl17 Rb1 3.604620 1_565
Cl18 Y0 2.699975 1_655
Cl18 Y6 2.725897 1_555
Cl18 Rb3 3.479390 1_655
Cl18 Rb2 3.604620 1_555
Cl19 Y3 2.699975 1_565
Cl19 Y5 2.725897 1_555
Cl19 Rb0 3.479390 1_556
Cl19 Rb1 3.604620 1_565
Cl20 Y1 2.699975 1_455
Cl20 Y7 2.725897 1_555
Cl20 Rb2 3.479390 1_455
Cl20 Rb3 3.604620 1_555
Cl21 Y2 2.699975 1_545
Cl21 Y4 2.725897 1_555
Cl21 Rb1 3.479390 1_554
Cl21 Rb0 3.604620 1_545
Cl22 Y1 2.699975 1_555
Cl22 Y7 2.725897 1_555
Cl22 Rb2 3.479390 1_555
Cl22 Rb3 3.604620 1_555
Cl23 Y0 2.699975 1_555
Cl23 Y6 2.725897 1_555
Cl23 Rb3 3.479390 1_555
Cl23 Rb2 3.604620 1_555
Cl24 Y4 2.727479 1_555
Cl24 Y0 2.779866 1_555
Cl24 Rb2 3.585515 1_555
Cl24 Rb2 3.585515 1_455
Cl25 Y5 2.727479 1_555
Cl25 Y1 2.779866 1_555
Cl25 Rb3 3.585515 1_655
Cl25 Rb3 3.585515 1_555
Cl26 Y6 2.727479 1_555
Cl26 Y2 2.779866 1_555
Cl26 Rb0 3.585515 1_655
Cl26 Rb0 3.585515 1_555
Cl27 Y7 2.727479 1_555
Cl27 Y3 2.779866 1_555
Cl27 Rb1 3.585515 1_455
Cl27 Rb1 3.585515 1_555
