# generated using pymatgen
data_Li5Co3O8
_symmetry_space_group_name_H-M   'P 1'
_cell_length_a   4.91479400
_cell_length_b   5.01048161
_cell_length_c   5.69598476
_cell_angle_alpha   106.91949152
_cell_angle_beta   89.68936721
_cell_angle_gamma   99.87637159
_symmetry_Int_Tables_number   1
_chemical_formula_structural   Li5Co3O8
_chemical_formula_sum   'Li5 Co3 O8'
_cell_volume   132.05874967
_cell_formula_units_Z   1
loop_
 _symmetry_equiv_pos_site_id
 _symmetry_equiv_pos_as_xyz
  1  'x, y, z'
loop_
 _atom_site_type_symbol
 _atom_site_label
 _atom_site_symmetry_multiplicity
 _atom_site_fract_x
 _atom_site_fract_y
 _atom_site_fract_z
 _atom_site_occupancy
  Li  Li0  1  0.26372700  0.49683000  0.11997500  1
  Li  Li1  1  0.74360700  0.49720500  0.36941400  1
  Li  Li2  1  0.25639300  0.50279500  0.63058600  1
  Li  Li3  1  0.73627300  0.50317000  0.88002500  1
  Li  Li4  1  0.50000000  0.00000000  0.00000000  1
  Co  Co0  1  0.00475800  0.99892300  0.24637000  1
  Co  Co1  1  0.99524200  0.00107700  0.75363000  1
  Co  Co2  1  0.50000000  0.00000000  0.50000000  1
  O  O0  1  0.10286800  0.77673200  0.94660300  1
  O  O1  1  0.64212800  0.77381400  0.20393500  1
  O  O2  1  0.12970100  0.78387700  0.44813700  1
  O  O3  1  0.64625500  0.77856100  0.67902700  1
  O  O4  1  0.35374500  0.22143900  0.32097300  1
  O  O5  1  0.87029900  0.21612300  0.55186300  1
  O  O6  1  0.35787200  0.22618600  0.79606500  1
  O  O7  1  0.89713200  0.22326800  0.05339700  1
loop_
_geom_bond_atom_site_label_1
_geom_bond_atom_site_label_2
_geom_bond_distance
_geom_bond_site_symmetry_2
Li0 O7 2.031380 1_455
Li0 O6 2.051024 1_554
Li0 O1 2.086002 1_555
Li0 O4 2.131870 1_555
Li0 O2 2.177898 1_555
Li0 O0 2.182205 1_554
Li1 O1 2.015095 1_555
Li1 O3 2.025228 1_555
Li1 O4 2.128921 1_555
Li1 O2 2.136428 1_655
Li1 O7 2.143793 1_555
Li1 O5 2.147304 1_555
Li2 O6 2.015095 1_555
Li2 O4 2.025228 1_555
Li2 O3 2.128921 1_555
Li2 O5 2.136428 1_455
Li2 O0 2.143793 1_555
Li2 O2 2.147304 1_555
Li3 O0 2.031380 1_655
Li3 O1 2.051024 1_556
Li3 O6 2.086002 1_555
Li3 O3 2.131870 1_555
Li3 O5 2.177898 1_555
Li3 O7 2.182205 1_556
Li4 O1 2.041635 1_545
Li4 O6 2.041635 1_554
Li4 O4 2.041787 1_555
Li4 O3 2.041787 1_544
Li4 O7 2.052542 1_555
Li4 O0 2.052542 1_544
Co0 O4 1.855168 1_565
Co0 O0 1.859073 1_554
Co0 O1 1.914003 1_455
Co0 O7 1.918583 1_465
Co0 O5 1.944467 1_465
Co0 O2 1.953010 1_555
Co1 O3 1.855168 1_545
Co1 O7 1.859073 1_556
Co1 O6 1.914003 1_655
Co1 O0 1.918583 1_645
Co1 O2 1.944467 1_645
Co1 O5 1.953010 1_555
Co2 O5 1.927604 1_555
Co2 O2 1.927604 1_545
Co2 O3 1.930715 1_545
Co2 O4 1.930715 1_555
Co2 O6 1.939738 1_555
Co2 O1 1.939738 1_545
