# generated using pymatgen
data_Rb2PrAgI6
_symmetry_space_group_name_H-M   'P 1'
_cell_length_a   8.71720250
_cell_length_b   8.71720250
_cell_length_c   8.71720250
_cell_angle_alpha   60.00000000
_cell_angle_beta   60.00000000
_cell_angle_gamma   60.00000000
_symmetry_Int_Tables_number   1
_chemical_formula_structural   Rb2PrAgI6
_chemical_formula_sum   'Rb2 Pr1 Ag1 I6'
_cell_volume   468.39948210
_cell_formula_units_Z   1
loop_
 _symmetry_equiv_pos_site_id
 _symmetry_equiv_pos_as_xyz
  1  'x, y, z'
loop_
 _atom_site_type_symbol
 _atom_site_label
 _atom_site_symmetry_multiplicity
 _atom_site_fract_x
 _atom_site_fract_y
 _atom_site_fract_z
 _atom_site_occupancy
  Rb  Rb0  1  0.75000000  0.75000000  0.75000000  1
  Rb  Rb1  1  0.25000000  0.25000000  0.25000000  1
  Pr  Pr0  1  0.50000000  0.50000000  0.50000000  1
  Ag  Ag0  1  0.00000000  0.00000000  0.00000000  1
  I  I0  1  0.75355600  0.24644400  0.24644400  1
  I  I1  1  0.24644400  0.24644400  0.75355600  1
  I  I2  1  0.24644400  0.75355600  0.75355600  1
  I  I3  1  0.24644400  0.75355600  0.24644400  1
  I  I4  1  0.75355600  0.24644400  0.75355600  1
  I  I5  1  0.75355600  0.75355600  0.24644400  1
loop_
_geom_bond_atom_site_label_1
_geom_bond_atom_site_label_2
_geom_bond_distance
_geom_bond_site_symmetry_2
Ag0 I0 3.038158 1_455
Ag0 I5 3.038158 1_445
Ag0 I2 3.038158 1_544
Ag0 I4 3.038158 1_454
Ag0 I1 3.038158 1_554
Ag0 I3 3.038158 1_545
I0 Pr0 3.125835 1_555
I0 Rb1 4.358822 1_655
I0 Rb0 4.358822 1_554
I0 Rb1 4.358822 1_555
I0 Rb0 4.358822 1_545
I1 Pr0 3.125835 1_555
I1 Rb0 4.358822 1_455
I1 Rb1 4.358822 1_555
I1 Rb0 4.358822 1_545
I1 Rb1 4.358822 1_556
I2 Pr0 3.125835 1_555
I2 Rb1 4.358822 1_565
I2 Rb0 4.358822 1_455
I2 Rb0 4.358822 1_555
I2 Rb1 4.358822 1_556
I3 Pr0 3.125835 1_555
I3 Rb1 4.358822 1_565
I3 Rb0 4.358822 1_554
I3 Rb0 4.358822 1_455
I3 Rb1 4.358822 1_555
I4 Pr0 3.125835 1_555
I4 Rb1 4.358822 1_655
I4 Rb0 4.358822 1_555
I4 Rb0 4.358822 1_545
I4 Rb1 4.358822 1_556
I5 Pr0 3.125835 1_555
I5 Rb1 4.358822 1_655
I5 Rb1 4.358822 1_565
I5 Rb0 4.358822 1_554
I5 Rb0 4.358822 1_555
