# generated using pymatgen
data_Li2Fe(WO4)2
_symmetry_space_group_name_H-M   'P 1'
_cell_length_a   5.75048328
_cell_length_b   7.93596843
_cell_length_c   6.78077741
_cell_angle_alpha   76.53381312
_cell_angle_beta   75.81151804
_cell_angle_gamma   87.28630304
_symmetry_Int_Tables_number   1
_chemical_formula_structural   Li2Fe(WO4)2
_chemical_formula_sum   'Li4 Fe2 W4 O16'
_cell_volume   291.74202801
_cell_formula_units_Z   2
loop_
 _symmetry_equiv_pos_site_id
 _symmetry_equiv_pos_as_xyz
  1  'x, y, z'
loop_
 _atom_site_type_symbol
 _atom_site_label
 _atom_site_symmetry_multiplicity
 _atom_site_fract_x
 _atom_site_fract_y
 _atom_site_fract_z
 _atom_site_occupancy
  Li  Li0  1  0.31014900  0.14813500  0.60365500  1
  Li  Li1  1  0.81052600  0.64853400  0.10345700  1
  Li  Li2  1  0.68943400  0.85149900  0.39654000  1
  Li  Li3  1  0.18980200  0.35191500  0.89634500  1
  Fe  Fe0  1  0.24999600  0.74998600  0.74998200  1
  Fe  Fe1  1  0.75020900  0.24970200  0.25011100  1
  W  W0  1  0.77429800  0.45826100  0.70226600  1
  W  W1  1  0.72567700  0.04180300  0.79776000  1
  W  W2  1  0.27436100  0.95843300  0.20160700  1
  W  W3  1  0.22563900  0.54153500  0.29838600  1
  O  O0  1  0.02926700  0.78918200  0.25287900  1
  O  O1  1  0.52902900  0.28917000  0.75331700  1
  O  O2  1  0.97100100  0.21081500  0.74668800  1
  O  O3  1  0.47070100  0.71087700  0.24706800  1
  O  O4  1  0.71806200  0.05414200  0.52273700  1
  O  O5  1  0.21863500  0.55516800  0.02250900  1
  O  O6  1  0.28133600  0.94486600  0.47748600  1
  O  O7  1  0.78188600  0.44580700  0.97729600  1
  O  O8  1  0.61130400  0.05646400  0.10843000  1
  O  O9  1  0.11170000  0.55570700  0.60837000  1
  O  O10  1  0.38827400  0.94436200  0.89160900  1
  O  O11  1  0.88869500  0.44356900  0.39155700  1
  O  O12  1  0.60331900  0.65404300  0.64862000  1
  O  O13  1  0.10116800  0.15348300  0.14809900  1
  O  O14  1  0.39889300  0.34654400  0.35185500  1
  O  O15  1  0.89663800  0.84599700  0.85136800  1
loop_
_geom_bond_atom_site_label_1
_geom_bond_atom_site_label_2
_geom_bond_distance
_geom_bond_site_symmetry_2
Li0 O14 2.012893 1_555
Li0 O6 2.024634 1_545
Li0 O2 2.048704 1_455
Li0 O1 2.270553 1_555
Li0 O10 2.349478 1_545
Li0 O4 2.398697 1_555
Li1 O15 2.008420 1_554
Li1 O7 2.020512 1_554
Li1 O3 2.052256 1_555
Li1 O0 2.266955 1_655
Li1 O11 2.354887 1_555
Li1 O5 2.398155 1_655
Li2 O12 2.008351 1_555
Li2 O4 2.020051 1_565
Li2 O0 2.052332 1_655
Li2 O3 2.267031 1_555
Li2 O8 2.354854 1_565
Li2 O6 2.398100 1_555
Li3 O13 2.012761 1_556
Li3 O5 2.024524 1_556
Li3 O1 2.049228 1_555
Li3 O2 2.270539 1_455
Li3 O9 2.349606 1_555
Li3 O7 2.398472 1_455
Fe0 O5 2.090486 1_556
Fe0 O6 2.090617 1_555
Fe0 O12 2.143109 1_555
Fe0 O15 2.143516 1_455
Fe0 O9 2.260890 1_555
Fe0 O10 2.261522 1_555
Fe1 O4 2.093696 1_555
Fe1 O7 2.097168 1_554
Fe1 O13 2.133150 1_655
Fe1 O14 2.136501 1_555
Fe1 O8 2.256337 1_555
Fe1 O11 2.258064 1_555
O0 W2 1.906035 1_555
O0 W3 2.216098 1_555
O1 W0 1.906127 1_555
O1 W1 2.214643 1_555
O2 W1 1.905898 1_555
O2 W0 2.215315 1_555
O3 W3 1.906353 1_555
O3 W2 2.215388 1_555
O4 W1 1.855754 1_555
O5 W3 1.858752 1_555
O6 W2 1.858814 1_555
O7 W0 1.855594 1_555
O8 W2 2.018004 1_545
O8 W1 2.076416 1_554
O9 W0 2.018677 1_455
O9 W3 2.070761 1_555
O10 W1 2.018671 1_565
O10 W2 2.070621 1_556
O11 W3 2.017825 1_655
O11 W0 2.076744 1_555
O12 W0 1.811221 1_555
O13 W2 1.813607 1_545
O14 W3 1.813401 1_555
O15 W1 1.811279 1_565
