# generated using pymatgen
data_LiEr6Ta2O14
_symmetry_space_group_name_H-M   'P 1'
_cell_length_a   6.53407059
_cell_length_b   6.48137919
_cell_length_c   7.37076600
_cell_angle_alpha   90.00000000
_cell_angle_beta   90.00000000
_cell_angle_gamma   109.03099545
_symmetry_Int_Tables_number   1
_chemical_formula_structural   LiEr6Ta2O14
_chemical_formula_sum   'Li1 Er6 Ta2 O14'
_cell_volume   295.08896819
_cell_formula_units_Z   1
loop_
 _symmetry_equiv_pos_site_id
 _symmetry_equiv_pos_as_xyz
  1  'x, y, z'
loop_
 _atom_site_type_symbol
 _atom_site_label
 _atom_site_symmetry_multiplicity
 _atom_site_fract_x
 _atom_site_fract_y
 _atom_site_fract_z
 _atom_site_occupancy
  Li  Li0  1  0.74253400  0.74645600  0.25000000  1
  Er  Er0  1  0.03911400  0.48529100  0.25000000  1
  Er  Er1  1  0.04257300  0.02101700  0.99141900  1
  Er  Er2  1  0.04257300  0.02101700  0.50858100  1
  Er  Er3  1  0.49956300  0.94710600  0.75000000  1
  Er  Er4  1  0.50411900  0.03595200  0.25000000  1
  Er  Er5  1  0.99735200  0.48173900  0.75000000  1
  Ta  Ta0  1  0.50592100  0.47887100  0.98266800  1
  Ta  Ta1  1  0.50592100  0.47887100  0.51733200  1
  O  O0  1  0.12603000  0.84101300  0.75000000  1
  O  O1  1  0.13688800  0.86166800  0.25000000  1
  O  O2  1  0.16523900  0.38741600  0.50311600  1
  O  O3  1  0.16523900  0.38741600  0.99688400  1
  O  O4  1  0.55422300  0.79018300  0.04881800  1
  O  O5  1  0.55422300  0.79018300  0.45118200  1
  O  O6  1  0.48112500  0.40705800  0.25000000  1
  O  O7  1  0.42477300  0.58594300  0.75000000  1
  O  O8  1  0.42046500  0.14842300  0.96806100  1
  O  O9  1  0.42046500  0.14842300  0.53193900  1
  O  O10  1  0.82112800  0.54719700  0.01617100  1
  O  O11  1  0.82112800  0.54719700  0.48382900  1
  O  O12  1  0.85861400  0.10567700  0.75000000  1
  O  O13  1  0.86870700  0.12046400  0.25000000  1
loop_
_geom_bond_atom_site_label_1
_geom_bond_atom_site_label_2
_geom_bond_distance
_geom_bond_site_symmetry_2
Li0 O4 2.005146 1_555
Li0 O5 2.005146 1_555
Li0 O13 2.291845 1_565
Li0 O6 2.303492 1_555
Li0 O10 2.309675 1_555
Li0 O11 2.309675 1_555
Li0 O1 2.437692 1_655
Er0 O2 2.214317 1_555
Er0 O3 2.214317 1_554
Er0 O13 2.261413 1_455
Er0 O1 2.311418 1_555
Er0 O11 2.352207 1_455
Er0 O10 2.352207 1_455
Er1 O3 2.245497 1_555
Er1 O0 2.289065 1_545
Er1 O12 2.311373 1_455
Er1 O8 2.340645 1_555
Er1 O1 2.343960 1_546
Er1 O13 2.411683 1_456
Er2 O2 2.245497 1_555
Er2 O0 2.289065 1_545
Er2 O12 2.311373 1_455
Er2 O9 2.340645 1_555
Er2 O1 2.343960 1_545
Er2 O13 2.411683 1_455
Er3 O7 2.229864 1_555
Er3 O12 2.233345 1_565
Er3 O9 2.234454 1_565
Er3 O8 2.234454 1_565
Er3 O0 2.309826 1_555
Er3 O5 2.499997 1_555
Er3 O4 2.499997 1_556
Er4 O13 2.263654 1_555
Er4 O4 2.276745 1_545
Er4 O5 2.276745 1_545
Er4 O1 2.294774 1_545
Er4 O8 2.325628 1_554
Er4 O9 2.325628 1_555
Er4 O6 2.458377 1_555
Er5 O0 2.202823 1_655
Er5 O12 2.306885 1_555
Er5 O2 2.307786 1_655
Er5 O3 2.307786 1_655
Er5 O10 2.381897 1_556
Er5 O11 2.381897 1_555
Er5 O7 2.650615 1_655
O2 Ta1 2.111178 1_555
O3 Ta0 2.111178 1_555
O4 Ta0 1.998318 1_554
O5 Ta1 1.998318 1_555
O6 Ta1 2.018998 1_555
O6 Ta0 2.018998 1_554
O7 Ta0 1.985884 1_555
O7 Ta1 1.985884 1_555
O8 Ta0 2.032384 1_555
O9 Ta1 2.032384 1_555
O10 Ta0 1.975895 1_554
O11 Ta1 1.975895 1_555
