# generated using pymatgen
data_Lu6(Ga3Co)7
_symmetry_space_group_name_H-M   'P 1'
_cell_length_a   4.10645500
_cell_length_b   16.51202500
_cell_length_c   16.51202500
_cell_angle_alpha   90.00000000
_cell_angle_beta   90.00000000
_cell_angle_gamma   90.00000000
_symmetry_Int_Tables_number   1
_chemical_formula_structural   Lu6(Ga3Co)7
_chemical_formula_sum   'Lu12 Ga42 Co14'
_cell_volume   1119.61251155
_cell_formula_units_Z   2
loop_
 _symmetry_equiv_pos_site_id
 _symmetry_equiv_pos_as_xyz
  1  'x, y, z'
loop_
 _atom_site_type_symbol
 _atom_site_label
 _atom_site_symmetry_multiplicity
 _atom_site_fract_x
 _atom_site_fract_y
 _atom_site_fract_z
 _atom_site_occupancy
  Lu  Lu0  1  0.50000000  0.10842400  0.60842400  1
  Lu  Lu1  1  0.50000000  0.89157600  0.39157600  1
  Lu  Lu2  1  0.50000000  0.39157600  0.10842400  1
  Lu  Lu3  1  0.50000000  0.60842400  0.89157600  1
  Lu  Lu4  1  0.00000000  0.65661300  0.58625300  1
  Lu  Lu5  1  0.00000000  0.34338700  0.41374700  1
  Lu  Lu6  1  0.00000000  0.84338700  0.08625300  1
  Lu  Lu7  1  0.00000000  0.15661300  0.91374700  1
  Lu  Lu8  1  0.00000000  0.58625300  0.34338700  1
  Lu  Lu9  1  0.00000000  0.41374700  0.65661300  1
  Lu  Lu10  1  0.00000000  0.08625300  0.15661300  1
  Lu  Lu11  1  0.00000000  0.91374700  0.84338700  1
  Ga  Ga0  1  0.00000000  0.00000000  0.50000000  1
  Ga  Ga1  1  0.00000000  0.50000000  0.00000000  1
  Ga  Ga2  1  0.00000000  0.32061300  0.82061300  1
  Ga  Ga3  1  0.00000000  0.67938700  0.17938700  1
  Ga  Ga4  1  0.00000000  0.17938700  0.32061300  1
  Ga  Ga5  1  0.00000000  0.82061300  0.67938700  1
  Ga  Ga6  1  0.50000000  0.42619800  0.92619800  1
  Ga  Ga7  1  0.50000000  0.57380200  0.07380200  1
  Ga  Ga8  1  0.50000000  0.07380200  0.42619800  1
  Ga  Ga9  1  0.50000000  0.92619800  0.57380200  1
  Ga  Ga10  1  0.00000000  0.57535500  0.75745400  1
  Ga  Ga11  1  0.00000000  0.42464500  0.24254600  1
  Ga  Ga12  1  0.00000000  0.92464500  0.25745400  1
  Ga  Ga13  1  0.00000000  0.07535500  0.74254600  1
  Ga  Ga14  1  0.00000000  0.75745400  0.42464500  1
  Ga  Ga15  1  0.00000000  0.24254600  0.57535500  1
  Ga  Ga16  1  0.00000000  0.25745400  0.07535500  1
  Ga  Ga17  1  0.00000000  0.74254600  0.92464500  1
  Ga  Ga18  1  0.50000000  0.53255900  0.61201200  1
  Ga  Ga19  1  0.50000000  0.46744100  0.38798800  1
  Ga  Ga20  1  0.50000000  0.96744100  0.11201200  1
  Ga  Ga21  1  0.50000000  0.03255900  0.88798800  1
  Ga  Ga22  1  0.50000000  0.61201200  0.46744100  1
  Ga  Ga23  1  0.50000000  0.38798800  0.53255900  1
  Ga  Ga24  1  0.50000000  0.11201200  0.03255900  1
  Ga  Ga25  1  0.50000000  0.88798800  0.96744100  1
  Ga  Ga26  1  0.50000000  0.67977000  0.70785700  1
  Ga  Ga27  1  0.50000000  0.32023000  0.29214300  1
  Ga  Ga28  1  0.50000000  0.82023000  0.20785700  1
  Ga  Ga29  1  0.50000000  0.17977000  0.79214300  1
  Ga  Ga30  1  0.50000000  0.70785700  0.32023000  1
  Ga  Ga31  1  0.50000000  0.29214300  0.67977000  1
  Ga  Ga32  1  0.50000000  0.20785700  0.17977000  1
  Ga  Ga33  1  0.50000000  0.79214300  0.82023000  1
  Ga  Ga34  1  0.50000000  0.77077800  0.54418900  1
  Ga  Ga35  1  0.50000000  0.22922200  0.45581100  1
  Ga  Ga36  1  0.50000000  0.72922200  0.04418900  1
  Ga  Ga37  1  0.50000000  0.27077800  0.95581100  1
  Ga  Ga38  1  0.50000000  0.54418900  0.22922200  1
  Ga  Ga39  1  0.50000000  0.45581100  0.77077800  1
  Ga  Ga40  1  0.50000000  0.04418900  0.27077800  1
  Ga  Ga41  1  0.50000000  0.95581100  0.72922200  1
  Co  Co0  1  0.00000000  0.21860400  0.71860400  1
  Co  Co1  1  0.00000000  0.78139600  0.28139600  1
  Co  Co2  1  0.00000000  0.28139600  0.21860400  1
  Co  Co3  1  0.00000000  0.71860400  0.78139600  1
  Co  Co4  1  0.00000000  0.96548000  0.64856500  1
  Co  Co5  1  0.00000000  0.03452000  0.35143500  1
  Co  Co6  1  0.00000000  0.53452000  0.14856500  1
  Co  Co7  1  0.00000000  0.46548000  0.85143500  1
  Co  Co8  1  0.00000000  0.64856500  0.03452000  1
  Co  Co9  1  0.00000000  0.35143500  0.96548000  1
  Co  Co10  1  0.00000000  0.14856500  0.46548000  1
  Co  Co11  1  0.00000000  0.85143500  0.53452000  1
  Co  Co12  1  0.00000000  0.50000000  0.50000000  1
  Co  Co13  1  0.00000000  0.00000000  0.00000000  1
loop_
_geom_bond_atom_site_label_1
_geom_bond_atom_site_label_2
_geom_bond_distance
_geom_bond_site_symmetry_2
Ga0 Ga9 2.680637 1_445
Ga0 Ga9 2.680637 1_545
Ga0 Ga8 2.680637 1_555
Ga0 Ga8 2.680637 1_455
Ga0 Lu0 3.259768 1_455
Ga0 Lu0 3.259768 1_555
Ga0 Lu1 3.259768 1_445
Ga0 Lu1 3.259768 1_545
Ga1 Ga7 2.680637 1_455
Ga1 Ga7 2.680637 1_555
Ga1 Ga6 2.680637 1_554
Ga1 Ga6 2.680637 1_454
Ga1 Lu2 3.259768 1_455
Ga1 Lu2 3.259768 1_555
Ga1 Lu3 3.259768 1_454
Ga1 Lu3 3.259768 1_554
Ga2 Lu9 3.114167 1_555
Ga2 Lu7 3.114167 1_555
Ga2 Ga39 3.142681 1_555
Ga2 Ga39 3.142681 1_455
Ga2 Ga37 3.142681 1_555
Ga2 Ga37 3.142681 1_455
Ga3 Lu8 3.114167 1_555
Ga3 Lu6 3.114167 1_555
Ga3 Ga36 3.142681 1_455
Ga3 Ga36 3.142681 1_555
Ga3 Ga38 3.142681 1_455
Ga3 Ga38 3.142681 1_555
Ga4 Lu10 3.114167 1_555
Ga4 Lu5 3.114167 1_555
Ga4 Ga40 3.142681 1_455
Ga4 Ga40 3.142681 1_555
Ga5 Lu4 3.114167 1_555
Ga5 Lu11 3.114167 1_555
Ga6 Lu2 3.062747 1_556
Ga6 Lu3 3.062747 1_555
Ga7 Lu2 3.062747 1_555
Ga7 Lu3 3.062747 1_554
Ga8 Lu1 3.062747 1_545
Ga8 Lu0 3.062747 1_555
Ga9 Lu0 3.062747 1_565
Ga9 Lu1 3.062747 1_555
Ga10 Ga26 2.803382 1_555
Ga10 Ga26 2.803382 1_455
Ga10 Ga39 2.856655 1_555
Ga10 Ga39 2.856655 1_455
Ga10 Lu3 3.068952 1_555
Ga10 Lu3 3.068952 1_455
Ga10 Lu4 3.129133 1_555
Ga10 Lu9 3.145359 1_555
Ga11 Ga27 2.803382 1_455
Ga11 Ga27 2.803382 1_555
Ga11 Ga38 2.856655 1_555
Ga11 Ga38 2.856655 1_455
Ga11 Lu2 3.068952 1_455
Ga11 Lu2 3.068952 1_555
Ga11 Lu5 3.129133 1_555
Ga11 Lu8 3.145359 1_555
Ga12 Ga28 2.803382 1_455
Ga12 Ga28 2.803382 1_555
Ga12 Ga40 2.856655 1_565
Ga12 Ga40 2.856655 1_465
Ga12 Lu1 3.068952 1_455
Ga12 Lu1 3.068952 1_555
Ga12 Lu6 3.129133 1_555
Ga12 Lu10 3.145359 1_565
Ga13 Ga29 2.803382 1_555
Ga13 Ga29 2.803382 1_455
Ga13 Ga41 2.856655 1_445
Ga13 Ga41 2.856655 1_545
Ga13 Lu0 3.068952 1_455
Ga13 Lu0 3.068952 1_555
Ga13 Lu7 3.129133 1_555
Ga13 Lu11 3.145359 1_545
Ga14 Ga30 2.803382 1_555
Ga14 Ga30 2.803382 1_455
Ga14 Ga34 2.856655 1_455
Ga14 Ga34 2.856655 1_555
Ga14 Lu1 3.068952 1_455
Ga14 Lu1 3.068952 1_555
Ga14 Lu8 3.129133 1_555
Ga14 Lu4 3.145359 1_555
Ga15 Ga31 2.803382 1_455
Ga15 Ga31 2.803382 1_555
Ga15 Ga35 2.856655 1_555
Ga15 Ga35 2.856655 1_455
Ga15 Lu0 3.068952 1_555
Ga15 Lu0 3.068952 1_455
Ga15 Lu9 3.129133 1_555
Ga15 Lu5 3.145359 1_555
Ga16 Ga32 2.803382 1_555
Ga16 Ga32 2.803382 1_455
Ga16 Ga37 2.856655 1_554
Ga16 Ga37 2.856655 1_454
Ga16 Lu2 3.068952 1_455
Ga16 Lu2 3.068952 1_555
Ga16 Lu10 3.129133 1_555
Ga16 Lu7 3.145359 1_554
Ga17 Ga33 2.803382 1_555
Ga17 Ga33 2.803382 1_455
Ga17 Ga36 2.856655 1_456
Ga17 Ga36 2.856655 1_556
Ga17 Lu3 3.068952 1_555
Ga17 Lu3 3.068952 1_455
Ga17 Lu11 3.129133 1_555
Ga17 Lu6 3.145359 1_556
Ga18 Ga22 2.723911 1_555
Ga18 Ga23 2.723911 1_555
Ga18 Ga26 2.900545 1_555
Ga18 Ga39 2.911782 1_555
Ga18 Lu4 2.931301 1_555
Ga18 Lu4 2.931301 1_655
Ga18 Lu9 2.933747 1_655
Ga18 Lu9 2.933747 1_555
Ga19 Ga22 2.723911 1_555
Ga19 Ga23 2.723911 1_555
Ga19 Ga27 2.900545 1_555
Ga19 Ga38 2.911782 1_555
Ga19 Lu5 2.931301 1_555
Ga19 Lu5 2.931301 1_655
Ga19 Lu8 2.933747 1_655
Ga19 Lu8 2.933747 1_555
Ga20 Ga25 2.723911 1_554
Ga20 Ga24 2.723911 1_565
Ga20 Ga28 2.900545 1_555
Ga20 Ga40 2.911782 1_565
Ga20 Lu6 2.931301 1_555
Ga20 Lu6 2.931301 1_655
Ga20 Lu10 2.933747 1_665
Ga20 Lu10 2.933747 1_565
Ga21 Ga25 2.723911 1_545
Ga21 Ga24 2.723911 1_556
Ga21 Ga29 2.900545 1_555
Ga21 Ga41 2.911782 1_545
Ga21 Lu7 2.931301 1_555
Ga21 Lu7 2.931301 1_655
Ga21 Lu11 2.933747 1_645
Ga21 Lu11 2.933747 1_545
Ga22 Ga30 2.900545 1_555
Ga22 Ga34 2.911782 1_555
Ga22 Lu8 2.931301 1_555
Ga22 Lu8 2.931301 1_655
Ga22 Lu4 2.933747 1_655
Ga22 Lu4 2.933747 1_555
Ga23 Ga31 2.900545 1_555
Ga23 Ga35 2.911782 1_555
Ga23 Lu9 2.931301 1_555
Ga23 Lu9 2.931301 1_655
Ga23 Lu5 2.933747 1_555
Ga23 Lu5 2.933747 1_655
Ga24 Ga32 2.900545 1_555
Ga24 Ga37 2.911782 1_554
Ga24 Lu10 2.931301 1_655
Ga24 Lu10 2.931301 1_555
Ga24 Lu7 2.933747 1_654
Ga24 Lu7 2.933747 1_554
Ga25 Ga33 2.900545 1_555
Ga25 Ga36 2.911782 1_556
Ga25 Lu11 2.931301 1_655
Ga25 Lu11 2.931301 1_555
Ga25 Lu6 2.933747 1_656
Ga25 Lu6 2.933747 1_556
Ga26 Ga33 2.624081 1_555
Ga26 Lu4 2.897193 1_555
Ga26 Lu4 2.897193 1_655
Ga26 Ga34 3.092190 1_555
Ga26 Lu3 3.254290 1_555
Ga27 Ga32 2.624081 1_555
Ga27 Lu5 2.897193 1_555
Ga27 Lu5 2.897193 1_655
Ga27 Ga35 3.092190 1_555
Ga27 Lu2 3.254290 1_555
Ga28 Ga30 2.624081 1_555
Ga28 Lu6 2.897193 1_555
Ga28 Lu6 2.897193 1_655
Ga28 Ga36 3.092190 1_555
Ga28 Lu1 3.254290 1_555
Ga29 Ga31 2.624081 1_555
Ga29 Lu7 2.897193 1_655
Ga29 Lu7 2.897193 1_555
Ga29 Ga37 3.092190 1_555
Ga29 Lu0 3.254290 1_555
Ga30 Lu8 2.897193 1_555
Ga30 Lu8 2.897193 1_655
Ga30 Ga38 3.092190 1_555
Ga30 Lu1 3.254290 1_555
Ga31 Lu9 2.897193 1_655
Ga31 Lu9 2.897193 1_555
Ga31 Ga39 3.092190 1_555
Ga31 Lu0 3.254290 1_555
Ga32 Lu10 2.897193 1_555
Ga32 Lu10 2.897193 1_655
Ga32 Ga40 3.092190 1_555
Ga32 Lu2 3.254290 1_555
Ga33 Lu11 2.897193 1_655
Ga33 Lu11 2.897193 1_555
Ga33 Ga41 3.092190 1_555
Ga33 Lu3 3.254290 1_555
Ga34 Ga9 2.612467 1_555
Ga34 Lu4 2.872585 1_655
Ga34 Lu4 2.872585 1_555
Ga34 Ga5 3.142681 1_655
Ga34 Ga5 3.142681 1_555
Ga34 Lu1 3.213822 1_555
Ga35 Ga8 2.612467 1_555
Ga35 Lu5 2.872585 1_655
Ga35 Lu5 2.872585 1_555
Ga35 Ga4 3.142681 1_555
Ga35 Ga4 3.142681 1_655
Ga35 Lu0 3.213822 1_555
Ga36 Ga7 2.612467 1_555
Ga36 Lu6 2.872585 1_555
Ga36 Lu6 2.872585 1_655
Ga36 Lu3 3.213822 1_554
Ga37 Ga6 2.612467 1_555
Ga37 Lu7 2.872585 1_655
Ga37 Lu7 2.872585 1_555
Ga37 Lu2 3.213822 1_556
Ga38 Ga7 2.612467 1_555
Ga38 Lu8 2.872585 1_655
Ga38 Lu8 2.872585 1_555
Ga38 Lu2 3.213822 1_555
Ga39 Ga6 2.612467 1_555
Ga39 Lu9 2.872585 1_555
Ga39 Lu9 2.872585 1_655
Ga39 Lu3 3.213822 1_555
Ga40 Ga8 2.612467 1_555
Ga40 Lu10 2.872585 1_655
Ga40 Lu10 2.872585 1_555
Ga40 Lu1 3.213822 1_545
Ga41 Ga9 2.612467 1_555
Ga41 Lu11 2.872585 1_655
Ga41 Lu11 2.872585 1_555
Ga41 Ga5 3.142681 1_655
Ga41 Ga5 3.142681 1_555
Ga41 Lu0 3.213822 1_565
Co0 Ga2 2.382066 1_555
Co0 Ga15 2.398140 1_555
Co0 Ga13 2.398140 1_555
Co0 Ga29 2.470099 1_555
Co0 Ga29 2.470099 1_455
Co0 Ga31 2.470099 1_555
Co0 Ga31 2.470099 1_455
Co0 Lu0 3.291719 1_455
Co0 Lu0 3.291719 1_555
Co1 Ga3 2.382066 1_555
Co1 Ga12 2.398140 1_555
Co1 Ga14 2.398140 1_555
Co1 Ga30 2.470099 1_555
Co1 Ga30 2.470099 1_455
Co1 Ga28 2.470099 1_555
Co1 Ga28 2.470099 1_455
Co1 Lu1 3.291719 1_455
Co1 Lu1 3.291719 1_555
Co2 Ga4 2.382066 1_555
Co2 Ga11 2.398140 1_555
Co2 Ga16 2.398140 1_555
Co2 Ga32 2.470099 1_455
Co2 Ga32 2.470099 1_555
Co2 Ga27 2.470099 1_455
Co2 Ga27 2.470099 1_555
Co2 Lu2 3.291719 1_455
Co2 Lu2 3.291719 1_555
Co3 Ga5 2.382066 1_555
Co3 Ga17 2.398140 1_555
Co3 Ga10 2.398140 1_555
Co3 Ga33 2.470099 1_555
Co3 Ga33 2.470099 1_455
Co3 Ga26 2.470099 1_555
Co3 Ga26 2.470099 1_455
Co3 Lu3 3.291719 1_455
Co3 Lu3 3.291719 1_555
Co4 Ga13 2.387398 1_565
Co4 Ga5 2.445589 1_555
Co4 Ga41 2.452540 1_555
Co4 Ga41 2.452540 1_455
Co4 Ga9 2.482019 1_455
Co4 Ga9 2.482019 1_555
Co4 Ga0 2.518459 1_565
Co4 Lu0 3.197820 1_465
Co4 Lu0 3.197820 1_565
Co5 Ga12 2.387398 1_545
Co5 Ga4 2.445589 1_555
Co5 Ga40 2.452540 1_455
Co5 Ga40 2.452540 1_555
Co5 Ga8 2.482019 1_455
Co5 Ga8 2.482019 1_555
Co5 Ga0 2.518459 1_555
Co5 Lu1 3.197820 1_545
Co5 Lu1 3.197820 1_445
Co6 Ga11 2.387398 1_555
Co6 Ga3 2.445589 1_555
Co6 Ga38 2.452540 1_555
Co6 Ga38 2.452540 1_455
Co6 Ga7 2.482019 1_555
Co6 Ga7 2.482019 1_455
Co6 Ga1 2.518459 1_555
Co6 Lu2 3.197820 1_555
Co6 Lu2 3.197820 1_455
Co7 Ga10 2.387398 1_555
Co7 Ga2 2.445589 1_555
Co7 Ga39 2.452540 1_555
Co7 Ga39 2.452540 1_455
Co7 Ga6 2.482019 1_555
Co7 Ga6 2.482019 1_455
Co7 Ga1 2.518459 1_556
Co7 Lu3 3.197820 1_455
Co7 Lu3 3.197820 1_555
Co8 Ga17 2.387398 1_554
Co8 Ga3 2.445589 1_555
Co8 Ga36 2.452540 1_555
Co8 Ga36 2.452540 1_455
Co8 Ga7 2.482019 1_555
Co8 Ga7 2.482019 1_455
Co8 Ga1 2.518459 1_555
Co8 Lu3 3.197820 1_554
Co8 Lu3 3.197820 1_454
Co9 Ga16 2.387398 1_556
Co9 Ga2 2.445589 1_555
Co9 Ga37 2.452540 1_455
Co9 Ga37 2.452540 1_555
Co9 Ga6 2.482019 1_555
Co9 Ga6 2.482019 1_455
Co9 Ga1 2.518459 1_556
Co9 Lu2 3.197820 1_556
Co9 Lu2 3.197820 1_456
Co10 Ga15 2.387398 1_555
Co10 Ga4 2.445589 1_555
Co10 Ga35 2.452540 1_455
Co10 Ga35 2.452540 1_555
Co10 Ga8 2.482019 1_555
Co10 Ga8 2.482019 1_455
Co10 Ga0 2.518459 1_555
Co10 Lu0 3.197820 1_455
Co10 Lu0 3.197820 1_555
Co11 Ga14 2.387398 1_555
Co11 Ga5 2.445589 1_555
Co11 Ga34 2.452540 1_555
Co11 Ga34 2.452540 1_455
Co11 Ga9 2.482019 1_455
Co11 Ga9 2.482019 1_555
Co11 Ga0 2.518459 1_565
Co11 Lu1 3.197820 1_555
Co11 Lu1 3.197820 1_455
Co12 Ga22 2.815242 1_455
Co12 Ga19 2.815242 1_455
Co12 Ga19 2.815242 1_555
Co12 Ga23 2.815242 1_455
Co12 Ga18 2.815242 1_555
Co12 Ga23 2.815242 1_555
Co12 Ga22 2.815242 1_555
Co12 Ga18 2.815242 1_455
Co12 Lu8 2.952247 1_555
Co12 Lu9 2.952247 1_555
Co12 Lu5 2.952247 1_555
Co12 Lu4 2.952247 1_555
Co13 Ga20 2.815242 1_545
Co13 Ga21 2.815242 1_554
Co13 Ga21 2.815242 1_454
Co13 Ga20 2.815242 1_445
Co13 Ga25 2.815242 1_444
Co13 Ga24 2.815242 1_455
Co13 Ga24 2.815242 1_555
Co13 Ga25 2.815242 1_544
Co13 Lu6 2.952247 1_545
Co13 Lu10 2.952247 1_555
Co13 Lu11 2.952247 1_544
Co13 Lu7 2.952247 1_554
