# generated using pymatgen
data_Lu2Co12P7
_symmetry_space_group_name_H-M   'P 1'
_cell_length_a   8.96245054
_cell_length_b   8.96245054
_cell_length_c   3.56121200
_cell_angle_alpha   90.00000000
_cell_angle_beta   90.00000000
_cell_angle_gamma   120.00000396
_symmetry_Int_Tables_number   1
_chemical_formula_structural   Lu2Co12P7
_chemical_formula_sum   'Lu2 Co12 P7'
_cell_volume   247.73193002
_cell_formula_units_Z   1
loop_
 _symmetry_equiv_pos_site_id
 _symmetry_equiv_pos_as_xyz
  1  'x, y, z'
loop_
 _atom_site_type_symbol
 _atom_site_label
 _atom_site_symmetry_multiplicity
 _atom_site_fract_x
 _atom_site_fract_y
 _atom_site_fract_z
 _atom_site_occupancy
  Lu  Lu0  1  0.33333300  0.66666700  0.00000000  1
  Lu  Lu1  1  0.00000000  0.00000000  0.50000000  1
  Co  Co0  1  0.72725000  0.95855900  0.00000000  1
  Co  Co1  1  0.23130900  0.27275000  0.00000000  1
  Co  Co2  1  0.04144100  0.76869100  0.00000000  1
  Co  Co3  1  0.94033500  0.45206300  0.00000000  1
  Co  Co4  1  0.51172700  0.05966500  0.00000000  1
  Co  Co5  1  0.54793700  0.48827300  0.00000000  1
  Co  Co6  1  0.10325200  0.38695100  0.50000000  1
  Co  Co7  1  0.28369900  0.89674800  0.50000000  1
  Co  Co8  1  0.61304900  0.71630100  0.50000000  1
  Co  Co9  1  0.76820900  0.20081000  0.50000000  1
  Co  Co10  1  0.43260100  0.23179100  0.50000000  1
  Co  Co11  1  0.79919000  0.56739900  0.50000000  1
  P  P0  1  0.95974800  0.21844300  0.00000000  1
  P  P1  1  0.25869500  0.04025200  0.00000000  1
  P  P2  1  0.78155700  0.74130500  0.00000000  1
  P  P3  1  0.07142700  0.62416100  0.50000000  1
  P  P4  1  0.55273400  0.92857300  0.50000000  1
  P  P5  1  0.37583900  0.44726600  0.50000000  1
  P  P6  1  0.66666700  0.33333300  0.00000000  1
loop_
_geom_bond_atom_site_label_1
_geom_bond_atom_site_label_2
_geom_bond_distance
_geom_bond_site_symmetry_2
Lu0 P3 2.816268 1_554
Lu0 P3 2.816268 1_555
Lu0 P4 2.816270 1_554
Lu0 P4 2.816270 1_555
Lu0 P5 2.816275 1_554
Lu0 P5 2.816275 1_555
Lu1 P2 2.799983 1_446
Lu1 P2 2.799983 1_445
Lu1 P1 2.799983 1_556
Lu1 P1 2.799983 1_555
Lu1 P0 2.799983 1_455
Lu1 P0 2.799983 1_456
Co0 P0 2.216690 1_565
Co0 P2 2.230678 1_555
Co0 P4 2.295390 1_554
Co0 P4 2.295390 1_555
Co0 Lu1 2.894167 1_665
Co0 Lu1 2.894167 1_664
Co0 Lu0 3.173648 1_555
Co1 P1 2.216690 1_555
Co1 P0 2.230677 1_455
Co1 P5 2.295390 1_555
Co1 P5 2.295390 1_554
Co1 Lu1 2.894167 1_555
Co1 Lu1 2.894167 1_554
Co1 Lu0 3.173651 1_555
Co2 P2 2.216690 1_455
Co2 P1 2.230677 1_565
Co2 P3 2.295391 1_555
Co2 P3 2.295391 1_554
Co2 Lu1 2.894167 1_565
Co2 Lu1 2.894167 1_564
Co2 Lu0 3.173642 1_555
Co3 P6 2.130320 1_555
Co3 P0 2.186001 1_555
Co3 P3 2.262260 1_655
Co3 P3 2.262260 1_654
Co3 Lu0 3.054649 1_655
Co4 P6 2.130321 1_555
Co4 P1 2.185992 1_555
Co4 P4 2.262264 1_544
Co4 P4 2.262264 1_545
Co4 Lu0 3.054649 1_545
Co5 P6 2.130336 1_555
Co5 P2 2.185996 1_555
Co5 P5 2.262259 1_555
Co5 P5 2.262259 1_554
Co5 Lu0 3.054649 1_555
Co6 P5 2.222624 1_555
Co6 P0 2.272262 1_455
Co6 P0 2.272262 1_456
Co6 P3 2.282006 1_555
Co6 Lu0 2.921983 1_556
Co6 Lu0 2.921983 1_555
Co7 P3 2.222624 1_555
Co7 P1 2.272262 1_565
Co7 P1 2.272262 1_566
Co7 P4 2.282006 1_555
Co7 Lu0 2.921979 1_555
Co7 Lu0 2.921979 1_556
Co8 P4 2.222624 1_555
Co8 P2 2.272262 1_556
Co8 P2 2.272262 1_555
Co8 P5 2.282006 1_555
Co8 Lu0 2.921986 1_556
Co8 Lu0 2.921986 1_555
Co9 P4 2.229511 1_545
Co9 P0 2.423047 1_556
Co9 P0 2.423047 1_555
Co9 P6 2.547625 1_555
Co9 P6 2.547625 1_556
Co10 P5 2.229511 1_555
Co10 P1 2.423047 1_556
Co10 P1 2.423047 1_555
Co10 P6 2.547631 1_555
Co10 P6 2.547631 1_556
Co11 P3 2.229511 1_655
Co11 P2 2.423047 1_555
Co11 P2 2.423047 1_556
Co11 P6 2.547630 1_555
Co11 P6 2.547630 1_556
