# generated using pymatgen
data_Li5V3P8O29
_symmetry_space_group_name_H-M   'P 1'
_cell_length_a   9.79989700
_cell_length_b   9.82395806
_cell_length_c   14.13550533
_cell_angle_alpha   89.90370617
_cell_angle_beta   90.57668827
_cell_angle_gamma   119.78128142
_symmetry_Int_Tables_number   1
_chemical_formula_structural   Li5V3P8O29
_chemical_formula_sum   'Li10 V6 P16 O58'
_cell_volume   1181.07576900
_cell_formula_units_Z   2
loop_
 _symmetry_equiv_pos_site_id
 _symmetry_equiv_pos_as_xyz
  1  'x, y, z'
loop_
 _atom_site_type_symbol
 _atom_site_label
 _atom_site_symmetry_multiplicity
 _atom_site_fract_x
 _atom_site_fract_y
 _atom_site_fract_z
 _atom_site_occupancy
  Li  Li0  1  0.22447400  0.91816800  0.44351300  1
  Li  Li1  1  0.09020500  0.31975500  0.44347800  1
  Li  Li2  1  0.32292500  0.67199800  0.10708700  1
  Li  Li3  1  0.23058900  0.32136600  0.93540300  1
  Li  Li4  1  0.67211900  0.90504900  0.93937900  1
  Li  Li5  1  0.67718100  0.77108000  0.43966500  1
  Li  Li6  1  0.33097300  0.09723700  0.05715700  1
  Li  Li7  1  0.90892800  0.68372300  0.56459000  1
  Li  Li8  1  0.77749900  0.09387100  0.55851700  1
  Li  Li9  1  0.96064600  0.94505800  0.00013200  1
  V  V0  1  0.43214300  0.43486900  0.74901500  1
  V  V1  1  0.57019100  0.56307800  0.24916500  1
  V  V2  1  0.43074500  0.00013900  0.25331900  1
  V  V3  1  0.56683800  0.00152100  0.75203700  1
  V  V4  1  0.00133000  0.56762800  0.75817100  1
  V  V5  1  0.99725800  0.43481400  0.24305200  1
  P  P0  1  0.08578100  0.78138200  0.15862000  1
  P  P1  1  0.22893100  0.90924400  0.66046100  1
  P  P2  1  0.08515800  0.32149400  0.65964600  1
  P  P3  1  0.33878100  0.67059800  0.87147700  1
  P  P4  1  0.33299900  0.66470700  0.36860500  1
  P  P5  1  0.22932600  0.31709800  0.15566400  1
  P  P6  1  0.31333300  0.23092400  0.34061700  1
  P  P7  1  0.68016500  0.90453700  0.15859000  1
  P  P8  1  0.31588700  0.08886300  0.84150400  1
  P  P9  1  0.67722100  0.76871900  0.65584200  1
  P  P10  1  0.77381100  0.69129000  0.83770800  1
  P  P11  1  0.66683700  0.33218200  0.63370500  1
  P  P12  1  0.66077700  0.33058300  0.12825200  1
  P  P13  1  0.91553300  0.68129900  0.34270700  1
  P  P14  1  0.77180600  0.08863300  0.33896500  1
  P  P15  1  0.91652600  0.22091900  0.84142300  1
  O  O0  1  0.99736400  0.75840500  0.43383600  1
  O  O1  1  0.08155500  0.74488100  0.66436700  1
  O  O2  1  0.23942500  0.01081100  0.93186000  1
  O  O3  1  0.25947900  0.92222100  0.16398000  1
  O  O4  1  0.09975200  0.63011200  0.16459600  1
  O  O5  1  0.19697300  0.67960400  0.83099500  1
  O  O6  1  0.09203700  0.47840700  0.68121500  1
  O  O7  1  0.00565900  0.19782100  0.92037800  1
  O  O8  1  0.09015800  0.34555700  0.15705000  1
  O  O9  1  0.32821200  0.81421100  0.33141900  1
  O  O10  1  0.38160500  0.90041400  0.68333100  1
  O  O11  1  0.18364600  0.51873300  0.32353800  1
  O  O12  1  0.35525800  0.68279100  0.97787000  1
  O  O13  1  0.33771500  0.66194600  0.47375800  1
  O  O14  1  0.32852300  0.51437900  0.83732300  1
  O  O15  1  0.51734600  0.89125800  0.17035300  1
  O  O16  1  0.49487100  0.81710300  0.83080400  1
  O  O17  1  0.25254100  0.34536500  0.66754500  1
  O  O18  1  0.21309600  0.20735100  0.24383100  1
  O  O19  1  0.22876000  0.24258900  0.42323900  1
  O  O20  1  0.24026300  0.23900400  0.06692000  1
  O  O21  1  0.38168500  0.48015400  0.17283500  1
  O  O22  1  0.48346500  0.66599100  0.32671600  1
  O  O23  1  0.33984600  0.25625900  0.83740200  1
  O  O24  1  0.51776500  0.62579800  0.67529800  1
  O  O25  1  0.66462900  0.92115300  0.66031800  1
  O  O26  1  0.21012800  0.00095300  0.74982700  1
  O  O27  1  0.24401100  0.99108900  0.56976000  1
  O  O28  1  0.75580900  0.99870300  0.42820800  1
  O  O29  1  0.33534700  0.08490300  0.34193000  1
  O  O30  1  0.47398100  0.38145100  0.32211500  1
  O  O31  1  0.65776000  0.73680000  0.17112400  1
  O  O32  1  0.52207800  0.33226500  0.67663300  1
  O  O33  1  0.61417000  0.53928800  0.82969900  1
  O  O34  1  0.78995900  0.79714200  0.91801000  1
  O  O35  1  0.75357300  0.76136200  0.56537300  1
  O  O36  1  0.79615600  0.78807200  0.74068400  1
  O  O37  1  0.74723300  0.66288100  0.33903400  1
  O  O38  1  0.51240400  0.18434600  0.16713500  1
  O  O39  1  0.47474300  0.09076600  0.82552500  1
  O  O40  1  0.66271600  0.47855700  0.17833400  1
  O  O41  1  0.65699400  0.34101200  0.02404600  1
  O  O42  1  0.66698000  0.31022000  0.52943200  1
  O  O43  1  0.81671800  0.48290100  0.67010300  1
  O  O44  1  0.61945000  0.09617000  0.31852100  1
  O  O45  1  0.66896200  0.18146200  0.68065700  1
  O  O46  1  0.90850200  0.65276500  0.83591700  1
  O  O47  1  0.00938400  0.79639100  0.25659300  1
  O  O48  1  0.00222800  0.80128800  0.07695900  1
  O  O49  1  0.90424800  0.52297000  0.32438800  1
  O  O50  1  0.81308200  0.33632200  0.17147200  1
  O  O51  1  0.91799100  0.37682900  0.83639900  1
  O  O52  1  0.74322600  0.07937400  0.83960900  1
  O  O53  1  0.76382900  0.97408400  0.06855700  1
  O  O54  1  0.78937100  0.99849900  0.24854900  1
  O  O55  1  0.91712100  0.25237400  0.33826900  1
  O  O56  1  0.00217500  0.25041800  0.56766200  1
  O  O57  1  0.98559300  0.20004000  0.74160000  1
loop_
_geom_bond_atom_site_label_1
_geom_bond_atom_site_label_2
_geom_bond_distance
_geom_bond_site_symmetry_2
Li0 O27 1.896230 1_555
Li0 O0 1.990009 1_455
Li0 O29 2.044756 1_565
Li0 O9 2.378320 1_555
Li1 O19 1.879171 1_555
Li1 O56 1.931936 1_555
Li1 O55 2.089058 1_455
Li1 O11 2.403326 1_555
Li2 O12 1.850822 1_554
Li2 O4 2.180393 1_555
Li2 O15 2.228225 1_555
Li2 O21 2.410133 1_555
Li3 O7 1.926364 1_555
Li3 O20 2.046304 1_556
Li3 O23 2.046384 1_555
Li3 O14 2.156109 1_555
Li4 O34 1.942369 1_555
Li4 O53 1.991882 1_556
Li4 O52 2.057566 1_565
Li4 O16 2.139895 1_555
Li5 O35 1.941843 1_555
Li5 O28 1.977375 1_555
Li5 O37 2.091453 1_555
Li5 O22 2.283957 1_555
Li6 O2 1.969538 1_554
Li6 O20 1.995469 1_555
Li6 O3 2.131444 1_545
Li6 O38 2.178933 1_555
Li7 O35 2.013370 1_555
Li7 O0 2.025227 1_555
Li7 O1 2.038939 1_655
Li7 O43 2.275864 1_555
Li8 O56 1.964940 1_655
Li8 O28 2.027971 1_545
Li8 O25 2.081516 1_545
Li8 O45 2.409108 1_555
Li9 O34 1.951689 1_554
Li9 O48 1.974322 1_655
Li9 O53 2.306920 1_555
Li9 O7 2.558119 1_664
Li9 O2 2.666525 1_664
O0 P13 1.501759 1_555
O1 P1 1.543013 1_555
O1 V4 2.015384 1_555
O2 P8 1.491964 1_555
O3 P0 1.573467 1_555
O3 V2 1.918870 1_565
O4 P0 1.560689 1_555
O4 V5 2.005180 1_455
O5 P3 1.540298 1_555
O5 V4 1.953121 1_555
O6 P2 1.540026 1_555
O6 V4 1.881070 1_555
O7 P15 1.495497 1_455
O8 P5 1.522471 1_555
O8 V5 1.973445 1_455
O9 P4 1.581454 1_555
O9 V2 1.938316 1_565
O10 P1 1.571533 1_555
O10 V3 1.844351 1_565
O11 P4 1.582348 1_555
O11 V5 1.943161 1_455
O12 P3 1.509535 1_555
O13 P4 1.487265 1_555
O14 P3 1.564197 1_555
O14 V0 2.004050 1_555
O15 P7 1.545681 1_555
O15 V2 2.041030 1_565
O16 P3 1.603060 1_555
O16 V3 1.938849 1_565
O17 P2 1.540273 1_555
O17 V0 1.903283 1_555
O18 P5 1.603140 1_555
O18 P6 1.624300 1_555
O19 P6 1.475919 1_555
O20 P5 1.503769 1_555
O21 P5 1.572361 1_555
O21 V1 1.925705 1_555
O22 P4 1.588755 1_555
O22 V1 1.955057 1_555
O23 P8 1.542476 1_555
O23 V0 1.974013 1_555
O24 P9 1.522074 1_555
O24 V0 1.937949 1_555
O25 P9 1.563905 1_555
O25 V3 2.000690 1_565
O26 P8 1.608401 1_555
O26 P1 1.617048 1_545
O27 P1 1.481360 1_555
O28 P14 1.503035 1_565
O29 P6 1.553043 1_555
O29 V2 1.984131 1_555
O30 P6 1.558207 1_555
O30 V1 1.864999 1_555
O31 P7 1.560566 1_555
O31 V1 1.850363 1_555
O32 P11 1.548932 1_555
O32 V0 1.934884 1_555
O33 P10 1.538346 1_555
O33 V0 1.918425 1_555
O34 P10 1.493907 1_555
O35 P9 1.507905 1_555
O36 P9 1.607929 1_555
O36 P10 1.621032 1_555
O37 P13 1.567660 1_555
O37 V1 1.963483 1_555
O38 P12 1.555175 1_555
O38 V2 1.993234 1_555
O39 P8 1.566225 1_555
O39 V3 1.862867 1_555
O40 P12 1.609502 1_555
O40 V1 1.811922 1_555
O41 P12 1.477762 1_555
O42 P11 1.490133 1_555
O43 P11 1.562503 1_555
O43 V4 1.994472 1_655
O44 P14 1.555418 1_555
O44 V2 1.842520 1_555
O45 P11 1.631056 1_555
O45 V3 1.844300 1_555
O46 P10 1.543738 1_555
O46 V4 1.874538 1_655
O47 P13 1.609633 1_455
O47 P0 1.622168 1_555
O48 P0 1.476626 1_555
O49 P13 1.525945 1_555
O49 V5 1.926476 1_555
O50 P12 1.581886 1_555
O50 V5 1.857249 1_555
O51 P15 1.526113 1_555
O51 V4 1.973240 1_655
O52 P15 1.572208 1_555
O52 V3 1.937031 1_555
O53 P7 1.490072 1_555
O54 P14 1.614563 1_565
O54 P7 1.615435 1_555
O55 P14 1.529795 1_555
O55 V5 2.062893 1_555
O56 P2 1.502399 1_555
O57 P2 1.606026 1_655
O57 P15 1.627687 1_555
