# generated using pymatgen
data_NaLi2(RuO2)6
_symmetry_space_group_name_H-M   'P 1'
_cell_length_a   2.75967400
_cell_length_b   9.57260316
_cell_length_c   9.57236639
_cell_angle_alpha   120.01060722
_cell_angle_beta   90.00000000
_cell_angle_gamma   90.00000000
_symmetry_Int_Tables_number   1
_chemical_formula_structural   NaLi2(RuO2)6
_chemical_formula_sum   'Na1 Li2 Ru6 O12'
_cell_volume   218.97339548
_cell_formula_units_Z   1
loop_
 _symmetry_equiv_pos_site_id
 _symmetry_equiv_pos_as_xyz
  1  'x, y, z'
loop_
 _atom_site_type_symbol
 _atom_site_label
 _atom_site_symmetry_multiplicity
 _atom_site_fract_x
 _atom_site_fract_y
 _atom_site_fract_z
 _atom_site_occupancy
  Na  Na0  1  0.75000000  0.99987100  0.99989600  1
  Li  Li0  1  0.75000000  0.33339500  0.66667500  1
  Li  Li1  1  0.25000000  0.66675500  0.33338600  1
  Ru  Ru0  1  0.75000000  0.34147400  0.98248700  1
  Ru  Ru1  1  0.75000000  0.01752000  0.35917200  1
  Ru  Ru2  1  0.75000000  0.64096400  0.65849400  1
  Ru  Ru3  1  0.25000000  0.65856700  0.01737300  1
  Ru  Ru4  1  0.25000000  0.98257200  0.64112000  1
  Ru  Ru5  1  0.25000000  0.35880900  0.34143200  1
  O  O0  1  0.75000000  0.58875400  0.13301400  1
  O  O1  1  0.75000000  0.86699900  0.45576100  1
  O  O2  1  0.75000000  0.54419000  0.41121300  1
  O  O3  1  0.25000000  0.41154300  0.86734100  1
  O  O4  1  0.25000000  0.13266900  0.54432300  1
  O  O5  1  0.25000000  0.45570700  0.58835300  1
  O  O6  1  0.75000000  0.10714600  0.81115100  1
  O  O7  1  0.75000000  0.18875600  0.29579500  1
  O  O8  1  0.75000000  0.70410600  0.89296100  1
  O  O9  1  0.25000000  0.89475900  0.18717700  1
  O  O10  1  0.25000000  0.81290000  0.70770000  1
  O  O11  1  0.25000000  0.29254500  0.10517700  1
loop_
_geom_bond_atom_site_label_1
_geom_bond_atom_site_label_2
_geom_bond_distance
_geom_bond_site_symmetry_2
Na0 O8 2.482877 1_555
Na0 O7 2.483754 1_566
Na0 O6 2.484906 1_565
Na0 O10 2.814764 1_655
Na0 O10 2.814764 1_555
Na0 O9 2.816849 1_656
Na0 O9 2.816849 1_556
Na0 O11 2.818593 1_566
Na0 O11 2.818593 1_666
Li0 O5 2.171408 1_555
Li0 O5 2.171408 1_655
Li0 O3 2.171595 1_555
Li0 O3 2.171595 1_655
Li0 O4 2.171764 1_655
Li0 O4 2.171764 1_555
Li1 O1 2.168951 1_455
Li1 O1 2.168951 1_555
Li1 O0 2.169729 1_555
Li1 O0 2.169729 1_455
Li1 O2 2.170222 1_555
Li1 O2 2.170222 1_455
O0 Ru0 2.065805 1_554
O0 Ru3 2.077481 1_655
O0 Ru3 2.077481 1_555
O1 Ru1 2.064856 1_565
O1 Ru4 2.076663 1_555
O1 Ru4 2.076663 1_655
O2 Ru2 2.065834 1_555
O2 Ru5 2.076901 1_555
O2 Ru5 2.076901 1_655
O3 Ru3 2.063265 1_556
O3 Ru0 2.075639 1_455
O3 Ru0 2.075639 1_555
O4 Ru4 2.062703 1_545
O4 Ru1 2.075066 1_455
O4 Ru1 2.075066 1_555
O5 Ru5 2.062512 1_555
O5 Ru2 2.075717 1_455
O5 Ru2 2.075717 1_555
O6 Ru4 2.008370 1_645
O6 Ru4 2.008370 1_545
O6 Ru0 2.010326 1_555
O7 Ru5 2.008314 1_655
O7 Ru5 2.008314 1_555
O7 Ru1 2.012385 1_555
O8 Ru3 2.007881 1_556
O8 Ru3 2.007881 1_656
O8 Ru2 2.011383 1_555
O9 Ru1 2.014985 1_565
O9 Ru1 2.014985 1_465
O9 Ru3 2.019352 1_555
O10 Ru2 2.014753 1_455
O10 Ru2 2.014753 1_555
O10 Ru4 2.019828 1_555
O11 Ru0 2.013176 1_554
O11 Ru0 2.013176 1_454
O11 Ru5 2.020358 1_555
