# generated using pymatgen
data_Ta2ZnCoO7
_symmetry_space_group_name_H-M   'P 1'
_cell_length_a   15.10880800
_cell_length_b   6.62872400
_cell_length_c   12.74186381
_cell_angle_alpha   76.46971284
_cell_angle_beta   90.00000000
_cell_angle_gamma   90.00000000
_symmetry_Int_Tables_number   1
_chemical_formula_structural   Ta2ZnCoO7
_chemical_formula_sum   'Ta16 Zn8 Co8 O56'
_cell_volume   1240.70757541
_cell_formula_units_Z   8
loop_
 _symmetry_equiv_pos_site_id
 _symmetry_equiv_pos_as_xyz
  1  'x, y, z'
loop_
 _atom_site_type_symbol
 _atom_site_label
 _atom_site_symmetry_multiplicity
 _atom_site_fract_x
 _atom_site_fract_y
 _atom_site_fract_z
 _atom_site_occupancy
  Ta  Ta0  1  0.89621500  0.17077300  0.98423500  1
  Ta  Ta1  1  0.02769800  0.56132000  0.68791900  1
  Ta  Ta2  1  0.47230200  0.56132000  0.18791900  1
  Ta  Ta3  1  0.97230200  0.43868000  0.31208100  1
  Ta  Ta4  1  0.73110600  0.48827000  0.79630000  1
  Ta  Ta5  1  0.23110600  0.51173000  0.70370000  1
  Ta  Ta6  1  0.26889400  0.51173000  0.20370000  1
  Ta  Ta7  1  0.76889400  0.48827000  0.29630000  1
  Ta  Ta8  1  0.52769800  0.43868000  0.81208100  1
  Ta  Ta9  1  0.13941100  0.12354500  0.49598200  1
  Ta  Ta10  1  0.63941100  0.87645500  0.00401800  1
  Ta  Ta11  1  0.86058900  0.87645500  0.50401800  1
  Ta  Ta12  1  0.39621500  0.82922700  0.51576500  1
  Ta  Ta13  1  0.60378500  0.17077300  0.48423500  1
  Ta  Ta14  1  0.10378500  0.82922700  0.01576500  1
  Ta  Ta15  1  0.36058900  0.12354500  0.99598200  1
  Zn  Zn0  1  0.52794000  0.98256000  0.74849400  1
  Zn  Zn1  1  0.89676200  0.70330500  0.90992700  1
  Zn  Zn2  1  0.39676200  0.29669500  0.59007300  1
  Zn  Zn3  1  0.10323800  0.29669500  0.09007300  1
  Zn  Zn4  1  0.60323800  0.70330500  0.40992700  1
  Zn  Zn5  1  0.97206000  0.98256000  0.24849400  1
  Zn  Zn6  1  0.47206000  0.01744000  0.25150600  1
  Zn  Zn7  1  0.02794000  0.01744000  0.75150600  1
  Co  Co0  1  0.68461700  0.37020500  0.06044000  1
  Co  Co1  1  0.18461700  0.62979500  0.43956000  1
  Co  Co2  1  0.31538300  0.62979500  0.93956000  1
  Co  Co3  1  0.81538300  0.37020500  0.56044000  1
  Co  Co4  1  0.76822900  0.02905300  0.22693900  1
  Co  Co5  1  0.26822900  0.97094700  0.27306100  1
  Co  Co6  1  0.23177100  0.97094700  0.77306100  1
  Co  Co7  1  0.73177100  0.02905300  0.72693900  1
  O  O0  1  0.01207500  0.25353800  0.97615500  1
  O  O1  1  0.51207500  0.74646200  0.52384500  1
  O  O2  1  0.98792500  0.74646200  0.02384500  1
  O  O3  1  0.48792500  0.25353800  0.47615500  1
  O  O4  1  0.86606200  0.99601400  0.89568700  1
  O  O5  1  0.36606200  0.00398600  0.60431300  1
  O  O6  1  0.13393800  0.00398600  0.10431300  1
  O  O7  1  0.63393800  0.99601400  0.39568700  1
  O  O8  1  0.87665100  0.05425000  0.13221300  1
  O  O9  1  0.37665100  0.94575000  0.36778700  1
  O  O10  1  0.12334900  0.94575000  0.86778700  1
  O  O11  1  0.62334900  0.05425000  0.63221300  1
  O  O12  1  0.28069900  0.33506300  0.97162200  1
  O  O13  1  0.78069900  0.66493700  0.52837800  1
  O  O14  1  0.71930100  0.66493700  0.02837800  1
  O  O15  1  0.21930100  0.33506300  0.47162200  1
  O  O16  1  0.36688200  0.00609300  0.14671900  1
  O  O17  1  0.86688200  0.99390700  0.35328100  1
  O  O18  1  0.63311800  0.99390700  0.85328100  1
  O  O19  1  0.13311800  0.00609300  0.64671900  1
  O  O20  1  0.31563400  0.93035100  0.92376000  1
  O  O21  1  0.47980200  0.69883900  0.79827900  1
  O  O22  1  0.81563400  0.06964900  0.57624000  1
  O  O23  1  0.18436600  0.93035100  0.42376000  1
  O  O24  1  0.47492200  0.27078000  0.72428800  1
  O  O25  1  0.97492200  0.72922000  0.77571200  1
  O  O26  1  0.52507800  0.72922000  0.27571200  1
  O  O27  1  0.02507800  0.27078000  0.22428800  1
  O  O28  1  0.46945300  0.25100100  0.94241900  1
  O  O29  1  0.96945300  0.74899900  0.55758100  1
  O  O30  1  0.53054700  0.74899900  0.05758100  1
  O  O31  1  0.03054700  0.25100100  0.44241900  1
  O  O32  1  0.87524300  0.52140900  0.21091000  1
  O  O33  1  0.37524300  0.47859100  0.28909000  1
  O  O34  1  0.12475700  0.47859100  0.78909000  1
  O  O35  1  0.62475700  0.52140900  0.71091000  1
  O  O36  1  0.71859700  0.31193000  0.21673000  1
  O  O37  1  0.21859700  0.68807000  0.28327000  1
  O  O38  1  0.28140300  0.68807000  0.78327000  1
  O  O39  1  0.78140300  0.31193000  0.71673000  1
  O  O40  1  0.67171500  0.42136400  0.42623700  1
  O  O41  1  0.17171500  0.57863600  0.07376300  1
  O  O42  1  0.32828500  0.57863600  0.57376300  1
  O  O43  1  0.82828500  0.42136400  0.92623700  1
  O  O44  1  0.72326300  0.74872000  0.26174800  1
  O  O45  1  0.22326300  0.25128000  0.23825200  1
  O  O46  1  0.27673700  0.25128000  0.73825200  1
  O  O47  1  0.77673700  0.74872000  0.76174800  1
  O  O48  1  0.86393900  0.41660200  0.40964600  1
  O  O49  1  0.36393900  0.58339800  0.09035400  1
  O  O50  1  0.13606100  0.58339800  0.59035400  1
  O  O51  1  0.63606100  0.41660200  0.90964600  1
  O  O52  1  0.02019800  0.69883900  0.29827900  1
  O  O53  1  0.52019800  0.30116100  0.20172100  1
  O  O54  1  0.97980200  0.30116100  0.70172100  1
  O  O55  1  0.68436600  0.06964900  0.07624000  1
loop_
_geom_bond_atom_site_label_1
_geom_bond_atom_site_label_2
_geom_bond_distance
_geom_bond_site_symmetry_2
Co0 O55 1.955028 1_555
Co0 O14 1.971034 1_555
Co0 O36 2.004649 1_555
Co0 O51 2.011976 1_554
Co1 O23 1.955028 1_555
Co1 O15 1.971034 1_555
Co1 O37 2.004649 1_555
Co1 O50 2.011976 1_555
Co2 O20 1.955028 1_555
Co2 O12 1.971034 1_555
Co2 O38 2.004649 1_555
Co2 O49 2.011976 1_556
Co3 O22 1.955028 1_555
Co3 O13 1.971034 1_555
Co3 O39 2.004649 1_555
Co3 O48 2.011976 1_555
Co4 O44 1.930212 1_545
Co4 O36 1.995284 1_555
Co4 O8 2.018376 1_555
Co4 O17 2.166108 1_545
Co4 O55 2.263451 1_555
Co5 O45 1.930212 1_565
Co5 O37 1.995284 1_555
Co5 O9 2.018376 1_555
Co5 O16 2.166108 1_565
Co5 O23 2.263451 1_555
Co6 O46 1.930212 1_565
Co6 O38 1.995284 1_555
Co6 O10 2.018376 1_555
Co6 O19 2.166108 1_565
Co6 O20 2.263451 1_555
Co7 O47 1.930212 1_545
Co7 O39 1.995284 1_555
Co7 O11 2.018376 1_555
Co7 O18 2.166108 1_545
Co7 O22 2.263451 1_555
O0 Ta0 1.830146 1_455
O0 Zn3 2.068866 1_556
O1 Ta12 1.830146 1_555
O1 Zn4 2.068866 1_555
O2 Ta14 1.830146 1_655
O2 Zn1 2.068866 1_554
O3 Ta13 1.830146 1_555
O3 Zn2 2.068866 1_555
O4 Ta0 1.853125 1_565
O4 Zn1 1.961645 1_555
O5 Ta12 1.853125 1_545
O5 Zn2 1.961645 1_555
O6 Ta14 1.853125 1_545
O6 Zn3 1.961645 1_555
O7 Ta13 1.853125 1_565
O7 Zn4 1.961645 1_555
O8 Ta0 1.886181 1_554
O8 Zn5 2.041956 1_545
O9 Ta12 1.886181 1_555
O9 Zn6 2.041956 1_565
O10 Ta14 1.886181 1_556
O10 Zn7 2.041956 1_565
O11 Ta13 1.886181 1_555
O11 Zn0 2.041956 1_545
O12 Ta15 1.820859 1_555
O13 Ta11 1.820859 1_555
O14 Ta10 1.820859 1_555
O15 Ta9 1.820859 1_555
O16 Ta15 1.898542 1_554
O16 Zn6 2.088215 1_555
O17 Ta11 1.898542 1_555
O17 Zn5 2.088215 1_555
O18 Ta10 1.898542 1_556
O18 Zn0 2.088215 1_555
O19 Ta9 1.898542 1_555
O19 Zn7 2.088215 1_555
O20 Ta15 1.870730 1_565
O21 Ta8 1.840290 1_555
O21 Zn0 1.977423 1_555
O22 Ta11 1.870730 1_545
O23 Ta9 1.870730 1_565
O24 Ta8 1.925731 1_555
O24 Zn0 2.027608 1_545
O24 Zn2 2.052119 1_555
O25 Ta1 1.925731 1_655
O25 Zn7 2.027608 1_665
O25 Zn1 2.052119 1_555
O26 Ta2 1.925731 1_555
O26 Zn6 2.027608 1_565
O26 Zn4 2.052119 1_555
O27 Ta3 1.925731 1_455
O27 Zn5 2.027608 1_445
O27 Zn3 2.052119 1_555
O28 Ta15 1.901362 1_555
O28 Ta8 2.028167 1_555
O29 Ta11 1.901362 1_555
O29 Ta1 2.028167 1_655
O30 Ta10 1.901362 1_555
O30 Ta2 2.028167 1_555
O31 Ta9 1.901362 1_555
O31 Ta3 2.028167 1_455
O32 Ta7 1.924071 1_555
O32 Ta3 1.944789 1_555
O33 Ta6 1.924071 1_555
O33 Ta2 1.944789 1_555
O34 Ta5 1.924071 1_555
O34 Ta1 1.944789 1_555
O35 Ta4 1.924071 1_555
O35 Ta8 1.944789 1_555
O36 Ta7 1.877848 1_555
O37 Ta6 1.877848 1_555
O38 Ta5 1.877848 1_555
O39 Ta4 1.877848 1_555
O40 Ta13 1.945341 1_555
O40 Zn4 2.103493 1_555
O40 Ta7 2.179458 1_555
O41 Ta14 1.945341 1_555
O41 Zn3 2.103493 1_555
O41 Ta6 2.179458 1_555
O42 Ta12 1.945341 1_555
O42 Zn2 2.103493 1_555
O42 Ta5 2.179458 1_555
O43 Ta0 1.945341 1_555
O43 Zn1 2.103493 1_555
O43 Ta4 2.179458 1_555
O44 Ta7 1.814970 1_555
O45 Ta6 1.814970 1_555
O46 Ta5 1.814970 1_555
O47 Ta4 1.814970 1_555
O48 Ta7 2.013111 1_555
O48 Ta3 2.040165 1_555
O49 Ta6 2.013111 1_555
O49 Ta2 2.040165 1_555
O50 Ta5 2.013111 1_555
O50 Ta1 2.040165 1_555
O51 Ta4 2.013111 1_555
O51 Ta8 2.040165 1_555
O52 Ta3 1.840290 1_455
O52 Zn5 1.977423 1_455
O53 Ta2 1.840290 1_555
O53 Zn6 1.977423 1_555
O54 Ta1 1.840290 1_655
O54 Zn7 1.977423 1_655
O55 Ta10 1.870730 1_545
