# generated using pymatgen
data_La9Al5S21
_symmetry_space_group_name_H-M   'P 1'
_cell_length_a   11.88776305
_cell_length_b   11.88776305
_cell_length_c   11.88776303
_cell_angle_alpha   96.86974871
_cell_angle_beta   96.86974871
_cell_angle_gamma   96.86975068
_symmetry_Int_Tables_number   1
_chemical_formula_structural   La9Al5S21
_chemical_formula_sum   'La18 Al10 S42'
_cell_volume   1640.57557813
_cell_formula_units_Z   2
loop_
 _symmetry_equiv_pos_site_id
 _symmetry_equiv_pos_as_xyz
  1  'x, y, z'
loop_
 _atom_site_type_symbol
 _atom_site_label
 _atom_site_symmetry_multiplicity
 _atom_site_fract_x
 _atom_site_fract_y
 _atom_site_fract_z
 _atom_site_occupancy
  La  La0  1  0.12062100  0.87989800  0.75095700  1
  La  La1  1  0.45715300  0.21489800  0.08232700  1
  La  La2  1  0.78493400  0.54679300  0.41471000  1
  La  La3  1  0.41471000  0.78493400  0.54679300  1
  La  La4  1  0.75095700  0.12062100  0.87989800  1
  La  La5  1  0.08232700  0.45715300  0.21489800  1
  La  La6  1  0.21489800  0.08232700  0.45715300  1
  La  La7  1  0.54679300  0.41471000  0.78493400  1
  La  La8  1  0.87989800  0.75095700  0.12062100  1
  La  La9  1  0.21358500  0.45343400  0.58332500  1
  La  La10  1  0.54571600  0.78810300  0.92085000  1
  La  La11  1  0.87947400  0.11825000  0.24941800  1
  La  La12  1  0.92085000  0.54571600  0.78810300  1
  La  La13  1  0.24941800  0.87947400  0.11825000  1
  La  La14  1  0.58332500  0.21358500  0.45343400  1
  La  La15  1  0.11825000  0.24941800  0.87947400  1
  La  La16  1  0.45343400  0.58332500  0.21358500  1
  La  La17  1  0.78810300  0.92085000  0.54571600  1
  Al  Al0  1  0.72342300  0.39024200  0.05663500  1
  Al  Al1  1  0.05663500  0.72342300  0.39024200  1
  Al  Al2  1  0.39024200  0.05663500  0.72342300  1
  Al  Al3  1  0.88953900  0.22454800  0.55627900  1
  Al  Al4  1  0.22454800  0.55627900  0.88953900  1
  Al  Al5  1  0.55627900  0.88953900  0.22454800  1
  Al  Al6  1  0.84611200  0.84611200  0.84611200  1
  Al  Al7  1  0.16098400  0.16098400  0.16098400  1
  Al  Al8  1  0.66097600  0.66097600  0.66097600  1
  Al  Al9  1  0.34602700  0.34602700  0.34602700  1
  S  S0  1  0.84472000  0.51584300  0.18031300  1
  S  S1  1  0.18031300  0.84472000  0.51584300  1
  S  S2  1  0.51584300  0.18031300  0.84472000  1
  S  S3  1  0.67946400  0.01601400  0.34543400  1
  S  S4  1  0.01601400  0.34543400  0.67946400  1
  S  S5  1  0.34543400  0.67946400  0.01601400  1
  S  S6  1  0.54042900  0.38754300  0.30843500  1
  S  S7  1  0.87539300  0.73470800  0.65800900  1
  S  S8  1  0.22365900  0.07637000  0.99259100  1
  S  S9  1  0.99259100  0.22365900  0.07637000  1
  S  S10  1  0.30843500  0.54042900  0.38754300  1
  S  S11  1  0.65800900  0.87539300  0.73470800  1
  S  S12  1  0.73470800  0.65800900  0.87539300  1
  S  S13  1  0.07637000  0.99259100  0.22365900  1
  S  S14  1  0.38754300  0.30843500  0.54042900  1
  S  S15  1  0.13692000  0.27784400  0.35402700  1
  S  S16  1  0.47110300  0.61839300  0.70262900  1
  S  S17  1  0.78381700  0.93681400  0.01567300  1
  S  S18  1  0.70262900  0.47110300  0.61839300  1
  S  S19  1  0.01567300  0.78381700  0.93681400  1
  S  S20  1  0.35402700  0.13692000  0.27784400  1
  S  S21  1  0.93681400  0.01567300  0.78381700  1
  S  S22  1  0.27784400  0.35402700  0.13692000  1
  S  S23  1  0.61839300  0.70262900  0.47110300  1
  S  S24  1  0.54771300  0.44538800  0.02785600  1
  S  S25  1  0.88142000  0.77789200  0.36451400  1
  S  S26  1  0.21305400  0.10840300  0.70090300  1
  S  S27  1  0.70090300  0.21305400  0.10840300  1
  S  S28  1  0.02785600  0.54771300  0.44538800  1
  S  S29  1  0.36451400  0.88142000  0.77789200  1
  S  S30  1  0.77789200  0.36451400  0.88142000  1
  S  S31  1  0.10840300  0.70090300  0.21305400  1
  S  S32  1  0.44538800  0.02785600  0.54771300  1
  S  S33  1  0.96734000  0.07373000  0.48097700  1
  S  S34  1  0.30110800  0.40328500  0.81636100  1
  S  S35  1  0.63415500  0.73631200  0.15396300  1
  S  S36  1  0.81636100  0.30110800  0.40328500  1
  S  S37  1  0.15396300  0.63415500  0.73631200  1
  S  S38  1  0.48097700  0.96734000  0.07373000  1
  S  S39  1  0.73631200  0.15396300  0.63415500  1
  S  S40  1  0.07373000  0.48097700  0.96734000  1
  S  S41  1  0.40328500  0.81636100  0.30110800  1
loop_
_geom_bond_atom_site_label_1
_geom_bond_atom_site_label_2
_geom_bond_distance
_geom_bond_site_symmetry_2
La0 S29 2.876285 1_555
La0 S21 2.903327 1_465
La0 S19 2.943616 1_555
La0 S1 2.959083 1_555
La0 S26 2.961318 1_565
La0 S37 2.982188 1_555
La0 S7 3.204354 1_455
La0 S8 3.474991 1_565
La1 S27 2.880077 1_555
La1 S22 2.935621 1_555
La1 S20 2.947815 1_555
La1 S38 2.980896 1_545
La1 S2 2.982703 1_554
La1 S24 2.995245 1_555
La1 S8 3.054899 1_554
La1 S6 3.158292 1_555
La2 S28 2.865668 1_655
La2 S18 2.916697 1_555
La2 S0 2.948880 1_555
La2 S23 2.949363 1_555
La2 S36 2.977660 1_555
La2 S25 3.003523 1_555
La2 S6 3.295675 1_555
La2 S7 3.412854 1_555
La3 S32 2.865668 1_565
La3 S23 2.916697 1_555
La3 S1 2.948880 1_555
La3 S16 2.949363 1_555
La3 S41 2.977660 1_555
La3 S29 3.003523 1_555
La3 S10 3.295675 1_555
La3 S11 3.412854 1_555
La4 S30 2.876285 1_555
La4 S17 2.903327 1_546
La4 S21 2.943616 1_555
La4 S2 2.959083 1_555
La4 S27 2.961318 1_556
La4 S39 2.982188 1_555
La4 S11 3.204354 1_545
La4 S9 3.474991 1_556
La5 S31 2.880077 1_555
La5 S15 2.935621 1_555
La5 S22 2.947815 1_555
La5 S40 2.980896 1_554
La5 S0 2.982703 1_455
La5 S28 2.995245 1_555
La5 S9 3.054899 1_455
La5 S10 3.158292 1_555
La6 S26 2.880077 1_555
La6 S20 2.935621 1_555
La6 S15 2.947815 1_555
La6 S33 2.980896 1_455
La6 S1 2.982703 1_545
La6 S32 2.995245 1_555
La6 S13 3.054899 1_545
La6 S14 3.158292 1_555
La7 S24 2.865668 1_556
La7 S16 2.916697 1_555
La7 S2 2.948880 1_555
La7 S18 2.949363 1_555
La7 S34 2.977660 1_555
La7 S30 3.003523 1_555
La7 S14 3.295675 1_555
La7 S12 3.412854 1_555
La8 S25 2.876285 1_555
La8 S19 2.903327 1_654
La8 S17 2.943616 1_555
La8 S0 2.959082 1_555
La8 S31 2.961318 1_655
La8 S35 2.982188 1_555
La8 S12 3.204354 1_554
La8 S13 3.474991 1_655
La9 S37 2.857159 1_555
La9 S14 2.898701 1_555
La9 S10 2.946587 1_555
La9 S4 2.956788 1_555
La9 S34 2.994382 1_555
La9 S28 2.997547 1_555
La9 S15 3.194899 1_555
La9 S16 3.476849 1_555
La10 S38 2.869798 1_556
La10 S12 2.941615 1_555
La10 S11 2.946166 1_555
La10 S5 2.979044 1_556
La10 S29 2.984249 1_555
La10 S35 3.004982 1_556
La10 S16 3.058764 1_555
La10 S17 3.157615 1_556
La11 S36 2.898482 1_555
La11 S9 2.913015 1_555
La11 S13 2.949976 1_645
La11 S3 2.953480 1_555
La11 S33 2.956606 1_555
La11 S27 2.959664 1_555
La11 S17 3.299999 1_545
La11 S15 3.412973 1_655
La12 S40 2.869798 1_655
La12 S7 2.941615 1_555
La12 S12 2.946166 1_555
La12 S4 2.979044 1_655
La12 S30 2.984249 1_555
La12 S37 3.004982 1_655
La12 S18 3.058764 1_555
La12 S19 3.157615 1_655
La13 S41 2.898482 1_555
La13 S13 2.913015 1_555
La13 S8 2.949976 1_564
La13 S5 2.953480 1_555
La13 S38 2.956606 1_555
La13 S31 2.959664 1_555
La13 S19 3.299999 1_554
La13 S20 3.412973 1_565
La14 S39 2.857159 1_555
La14 S6 2.898701 1_555
La14 S14 2.946587 1_555
La14 S3 2.956788 1_555
La14 S36 2.994382 1_555
La14 S32 2.997547 1_555
La14 S20 3.194899 1_555
La14 S18 3.476849 1_555
La15 S34 2.898482 1_555
La15 S8 2.913015 1_555
La15 S9 2.949976 1_456
La15 S4 2.953480 1_555
La15 S40 2.956606 1_555
La15 S26 2.959664 1_555
La15 S21 3.299999 1_455
La15 S22 3.412973 1_556
La16 S35 2.857159 1_555
La16 S10 2.898701 1_555
La16 S6 2.946587 1_555
La16 S5 2.956788 1_555
La16 S41 2.994382 1_555
La16 S24 2.997547 1_555
La16 S22 3.194899 1_555
La16 S23 3.476849 1_555
La17 S33 2.869798 1_565
La17 S11 2.941615 1_555
La17 S7 2.946166 1_555
La17 S3 2.979044 1_565
La17 S25 2.984249 1_555
La17 S39 3.004982 1_565
La17 S23 3.058764 1_555
La17 S21 3.157615 1_565
Al0 S0 2.218757 1_555
Al0 S30 2.251438 1_554
Al0 S27 2.258716 1_555
Al0 S24 2.262779 1_555
Al1 S1 2.218757 1_555
Al1 S25 2.251438 1_455
Al1 S31 2.258716 1_555
Al1 S28 2.262779 1_555
Al2 S2 2.218757 1_555
Al2 S29 2.251438 1_545
Al2 S26 2.258716 1_555
Al2 S32 2.262779 1_555
Al3 S4 2.218809 1_655
Al3 S33 2.254327 1_555
Al3 S36 2.258289 1_555
Al3 S39 2.258915 1_555
Al4 S5 2.218809 1_556
Al4 S40 2.254327 1_555
Al4 S34 2.258289 1_555
Al4 S37 2.258915 1_555
Al5 S3 2.218809 1_565
Al5 S38 2.254327 1_555
Al5 S41 2.258289 1_555
Al5 S35 2.258915 1_555
Al6 S21 2.408786 1_565
Al6 S17 2.408786 1_556
Al6 S19 2.408786 1_655
Al6 S12 2.542311 1_555
Al6 S7 2.542311 1_555
Al6 S11 2.542311 1_555
Al7 S13 2.372458 1_545
Al7 S8 2.372458 1_554
Al7 S9 2.372458 1_455
Al7 S22 2.601445 1_555
Al7 S15 2.601446 1_555
Al7 S20 2.601446 1_555
Al8 S16 2.377021 1_555
Al8 S23 2.377021 1_555
Al8 S18 2.377021 1_555
Al8 S7 2.600199 1_555
Al8 S12 2.600199 1_555
Al8 S11 2.600199 1_555
Al9 S6 2.410601 1_555
Al9 S14 2.410601 1_555
Al9 S10 2.410601 1_555
Al9 S15 2.537378 1_555
Al9 S22 2.537378 1_555
Al9 S20 2.537378 1_555
