# generated using pymatgen
data_MgVSiO5
_symmetry_space_group_name_H-M   'P 1'
_cell_length_a   5.40735751
_cell_length_b   6.98094144
_cell_length_c   10.09939393
_cell_angle_alpha   69.04389177
_cell_angle_beta   92.32237701
_cell_angle_gamma   75.23605711
_symmetry_Int_Tables_number   1
_chemical_formula_structural   MgVSiO5
_chemical_formula_sum   'Mg4 V4 Si4 O20'
_cell_volume   340.58602456
_cell_formula_units_Z   4
loop_
 _symmetry_equiv_pos_site_id
 _symmetry_equiv_pos_as_xyz
  1  'x, y, z'
loop_
 _atom_site_type_symbol
 _atom_site_label
 _atom_site_symmetry_multiplicity
 _atom_site_fract_x
 _atom_site_fract_y
 _atom_site_fract_z
 _atom_site_occupancy
  Mg  Mg0  1  0.54510400  0.87149600  0.32438400  1
  Mg  Mg1  1  0.04535700  0.37160000  0.82435400  1
  Mg  Mg2  1  0.49408200  0.02374500  0.68033700  1
  Mg  Mg3  1  0.99482600  0.52261300  0.18020100  1
  V  V0  1  0.98839500  0.99367900  0.49455200  1
  V  V1  1  0.51155300  0.97807800  0.00657100  1
  V  V2  1  0.48840900  0.49364300  0.99460300  1
  V  V3  1  0.01136100  0.47833300  0.50647100  1
  Si  Si0  1  0.47510900  0.60467500  0.65233500  1
  Si  Si1  1  0.97512100  0.10457600  0.15232200  1
  Si  Si2  1  0.51725400  0.39586800  0.34640900  1
  Si  Si3  1  0.01732900  0.89595200  0.84636800  1
  O  O0  1  0.27097200  0.46201800  0.65706800  1
  O  O1  1  0.77060100  0.96234600  0.15709000  1
  O  O2  1  0.62955300  0.16782500  0.48611000  1
  O  O3  1  0.12961600  0.66800400  0.98606300  1
  O  O4  1  0.37176400  0.82989100  0.50831500  1
  O  O5  1  0.87230300  0.32995100  0.00838800  1
  O  O6  1  0.71326200  0.54540400  0.34759400  1
  O  O7  1  0.21334100  0.04547700  0.84759200  1
  O  O8  1  0.46865300  0.35222900  0.19999900  1
  O  O9  1  0.96880000  0.85220900  0.70002000  1
  O  O10  1  0.27181400  0.96652000  0.15235000  1
  O  O11  1  0.77187600  0.46693200  0.65227200  1
  O  O12  1  0.72040400  0.02940900  0.85117200  1
  O  O13  1  0.22030700  0.52931100  0.35113600  1
  O  O14  1  0.49700100  0.68152000  0.78803400  1
  O  O15  1  0.99725900  0.18132500  0.28804400  1
  O  O16  1  0.12366300  0.19475500  0.55106800  1
  O  O17  1  0.62377800  0.69472600  0.05109000  1
  O  O18  1  0.89007100  0.79768500  0.44877400  1
  O  O19  1  0.39018800  0.29764600  0.94903300  1
loop_
_geom_bond_atom_site_label_1
_geom_bond_atom_site_label_2
_geom_bond_distance
_geom_bond_site_symmetry_2
Mg0 O10 2.027419 1_555
Mg0 O18 2.044613 1_555
Mg0 O4 2.075450 1_555
Mg0 O1 2.130327 1_555
Mg0 O6 2.147073 1_555
Mg1 O11 2.028040 1_455
Mg1 O19 2.045232 1_555
Mg1 O5 2.075519 1_456
Mg1 O0 2.130223 1_555
Mg1 O7 2.147050 1_555
Mg2 O12 2.092454 1_555
Mg2 O2 2.115834 1_555
Mg2 O16 2.143844 1_555
Mg2 O14 2.238642 1_545
Mg2 O7 2.335508 1_555
Mg2 O9 2.506890 1_545
Mg2 O4 2.707755 1_545
Mg3 O13 2.094095 1_655
Mg3 O3 2.115425 1_654
Mg3 O17 2.146654 1_555
Mg3 O15 2.233717 1_555
Mg3 O6 2.340711 1_555
Mg3 O8 2.500897 1_655
Mg3 O5 2.699845 1_555
O0 Si0 1.656211 1_555
O0 V3 1.979513 1_555
O1 Si1 1.655590 1_565
O1 V1 1.978551 1_555
O2 Si2 1.650732 1_555
O2 V0 1.990092 1_545
O3 Si3 1.650322 1_555
O3 V2 1.990184 1_555
O4 Si0 1.658412 1_555
O4 V0 2.068563 1_455
O5 Si1 1.658398 1_555
O5 V2 2.070780 1_554
O6 Si2 1.668848 1_555
O6 V3 2.064092 1_655
O7 Si3 1.668885 1_545
O7 V1 2.064627 1_546
O8 Si2 1.637013 1_555
O8 V2 1.973804 1_554
O9 Si3 1.636743 1_655
O9 V0 1.974298 1_555
O10 Si1 1.647547 1_465
O10 V1 1.994410 1_555
O11 Si0 1.647371 1_555
O11 V3 1.993693 1_655
O12 Si3 1.650598 1_645
O12 V1 1.953086 1_546
O13 Si2 1.650454 1_555
O13 V3 1.952826 1_555
O14 Si0 1.650790 1_555
O14 V2 2.038715 1_555
O15 Si1 1.650741 1_555
O15 V0 2.038105 1_545
O16 V3 1.793862 1_555
O16 V0 1.973254 1_445
O17 V1 1.792503 1_555
O17 V2 1.973439 1_554
O18 V0 1.780949 1_555
O18 V3 2.008580 1_655
O19 V2 1.779603 1_555
O19 V1 2.010178 1_546
