# generated using pymatgen
data_CaMg6Bi
_symmetry_space_group_name_H-M   'P 1'
_cell_length_a   5.45753900
_cell_length_b   6.36805900
_cell_length_c   11.75817800
_cell_angle_alpha   90.00000000
_cell_angle_beta   90.00000000
_cell_angle_gamma   90.00000000
_symmetry_Int_Tables_number   1
_chemical_formula_structural   CaMg6Bi
_chemical_formula_sum   'Ca2 Mg12 Bi2'
_cell_volume   408.64289922
_cell_formula_units_Z   2
loop_
 _symmetry_equiv_pos_site_id
 _symmetry_equiv_pos_as_xyz
  1  'x, y, z'
loop_
 _atom_site_type_symbol
 _atom_site_label
 _atom_site_symmetry_multiplicity
 _atom_site_fract_x
 _atom_site_fract_y
 _atom_site_fract_z
 _atom_site_occupancy
  Ca  Ca0  1  0.50000000  0.00000000  0.16922000  1
  Ca  Ca1  1  0.50000000  0.50000000  0.66922000  1
  Mg  Mg0  1  0.50000000  0.24857800  0.41736600  1
  Mg  Mg1  1  0.50000000  0.75142200  0.41736600  1
  Mg  Mg2  1  0.00000000  0.74914100  0.07760000  1
  Mg  Mg3  1  0.00000000  0.25085900  0.07760000  1
  Mg  Mg4  1  0.00000000  0.00000000  0.33784000  1
  Mg  Mg5  1  0.00000000  0.50000000  0.33779300  1
  Mg  Mg6  1  0.50000000  0.74857800  0.91736600  1
  Mg  Mg7  1  0.50000000  0.25142200  0.91736600  1
  Mg  Mg8  1  0.00000000  0.24914100  0.57760000  1
  Mg  Mg9  1  0.00000000  0.75085900  0.57760000  1
  Mg  Mg10  1  0.00000000  0.50000000  0.83784000  1
  Mg  Mg11  1  0.00000000  0.00000000  0.83779300  1
  Bi  Bi0  1  0.50000000  0.50000000  0.16521200  1
  Bi  Bi1  1  0.50000000  0.00000000  0.66521200  1
loop_
_geom_bond_atom_site_label_1
_geom_bond_atom_site_label_2
_geom_bond_distance
_geom_bond_site_symmetry_2
Ca0 Mg0 3.319487 1_555
Ca0 Mg1 3.319487 1_545
Ca0 Mg3 3.340461 1_555
Ca0 Mg2 3.340461 1_645
Ca0 Mg3 3.340461 1_655
Ca0 Mg2 3.340461 1_545
Ca0 Mg7 3.366450 1_554
Ca0 Mg6 3.366450 1_544
Ca0 Mg4 3.373002 1_655
Ca0 Mg4 3.373002 1_555
Ca1 Mg6 3.319487 1_555
Ca1 Mg7 3.319487 1_555
Ca1 Mg9 3.340461 1_555
Ca1 Mg9 3.340461 1_655
Ca1 Mg8 3.340461 1_555
Ca1 Mg8 3.340461 1_655
Ca1 Mg1 3.366450 1_555
Ca1 Mg0 3.366450 1_555
Ca1 Mg10 3.373002 1_555
Ca1 Mg10 3.373002 1_655
Mg0 Mg1 3.165919 1_545
Mg0 Mg1 3.202140 1_555
Mg0 Mg4 3.290337 1_555
Mg0 Mg4 3.290337 1_655
Mg0 Mg5 3.299245 1_655
Mg0 Mg5 3.299245 1_555
Mg0 Mg8 3.316003 1_555
Mg0 Mg8 3.316003 1_655
Mg1 Mg4 3.290337 1_565
Mg1 Mg4 3.290337 1_665
Mg1 Mg5 3.299245 1_655
Mg1 Mg5 3.299245 1_555
Mg1 Mg9 3.316003 1_555
Mg1 Mg9 3.316003 1_655
Mg2 Mg3 3.173089 1_555
Mg2 Mg3 3.194970 1_565
Mg2 Mg6 3.316003 1_554
Mg2 Mg6 3.316003 1_454
Mg2 Mg5 3.446306 1_555
Mg2 Mg4 3.451846 1_565
Mg3 Mg7 3.316003 1_554
Mg3 Mg7 3.316003 1_454
Mg3 Mg5 3.446306 1_555
Mg3 Mg4 3.451846 1_555
Mg4 Mg5 3.184030 1_545
Mg4 Mg5 3.184030 1_555
Mg4 Mg8 3.234916 1_555
Mg4 Mg9 3.234916 1_545
Mg5 Mg9 3.240776 1_555
Mg5 Mg8 3.240776 1_555
Mg6 Mg7 3.165919 1_555
Mg6 Mg7 3.202140 1_565
Mg8 Mg9 3.173089 1_545
Mg8 Mg9 3.194970 1_555
Mg10 Mg11 3.184030 1_565
Mg10 Mg11 3.184030 1_555
Mg10 Mg3 3.234916 1_556
Mg10 Mg2 3.234916 1_556
Mg10 Mg6 3.290337 1_555
Mg10 Mg6 3.290337 1_455
Mg10 Mg7 3.290337 1_455
Mg10 Mg7 3.290337 1_555
Mg10 Mg9 3.451846 1_555
Mg10 Mg8 3.451846 1_555
Mg11 Mg3 3.240776 1_556
Mg11 Mg2 3.240776 1_546
Mg11 Mg7 3.299245 1_455
Mg11 Mg7 3.299245 1_555
Mg11 Mg6 3.299245 1_445
Mg11 Mg6 3.299245 1_545
Mg11 Mg8 3.446306 1_555
Mg11 Mg9 3.446306 1_545
Bi0 Ca0 3.184378 1_555
Bi0 Ca0 3.184378 1_565
Bi0 Mg6 3.316387 1_554
Bi0 Mg7 3.316387 1_554
Bi0 Mg2 3.320321 1_655
Bi0 Mg3 3.320321 1_555
Bi0 Mg2 3.320321 1_555
Bi0 Mg3 3.320321 1_655
Bi0 Mg1 3.369553 1_555
Bi0 Mg0 3.369553 1_555
Bi0 Mg5 3.400587 1_555
Bi0 Mg5 3.400587 1_655
Bi1 Ca1 3.184378 1_545
Bi1 Ca1 3.184378 1_555
Bi1 Mg0 3.316387 1_555
Bi1 Mg1 3.316387 1_545
Bi1 Mg8 3.320321 1_555
Bi1 Mg8 3.320321 1_655
Bi1 Mg9 3.320321 1_645
Bi1 Mg9 3.320321 1_545
Bi1 Mg7 3.369553 1_555
Bi1 Mg6 3.369553 1_545
Bi1 Mg11 3.400587 1_655
Bi1 Mg11 3.400587 1_555
