# generated using pymatgen
data_CaMg14Cu
_symmetry_space_group_name_H-M   'P 1'
_cell_length_a   6.42895339
_cell_length_b   6.34154041
_cell_length_c   10.34082771
_cell_angle_alpha   90.00000000
_cell_angle_beta   90.00000000
_cell_angle_gamma   119.55123806
_symmetry_Int_Tables_number   1
_chemical_formula_structural   CaMg14Cu
_chemical_formula_sum   'Ca1 Mg14 Cu1'
_cell_volume   366.74749522
_cell_formula_units_Z   1
loop_
 _symmetry_equiv_pos_site_id
 _symmetry_equiv_pos_as_xyz
  1  'x, y, z'
loop_
 _atom_site_type_symbol
 _atom_site_label
 _atom_site_symmetry_multiplicity
 _atom_site_fract_x
 _atom_site_fract_y
 _atom_site_fract_z
 _atom_site_occupancy
  Ca  Ca0  1  0.15597821  0.32798861  0.12500000  1
  Mg  Mg0  1  0.16822987  0.33411443  0.62500000  1
  Mg  Mg1  1  0.16395791  0.83197845  0.62500000  1
  Mg  Mg2  1  0.65229205  0.31355962  0.12500000  1
  Mg  Mg3  1  0.66518898  0.33577697  0.62500000  1
  Mg  Mg4  1  0.65229205  0.83873143  0.12500000  1
  Mg  Mg5  1  0.66518898  0.82941102  0.62500000  1
  Mg  Mg6  1  0.33562395  0.16073172  0.37659749  1
  Mg  Mg7  1  0.33562395  0.16073172  0.87340251  1
  Mg  Mg8  1  0.33562395  0.67489323  0.37659749  1
  Mg  Mg9  1  0.33562395  0.67489323  0.87340251  1
  Mg  Mg10  1  0.83134542  0.16567321  0.38561815  1
  Mg  Mg11  1  0.83134542  0.16567321  0.86438185  1
  Mg  Mg12  1  0.84676186  0.67338143  0.35620823  1
  Mg  Mg13  1  0.84676186  0.67338143  0.89379177  1
  Cu  Cu0  1  0.17816160  0.83908030  0.12500000  1
loop_
_geom_bond_atom_site_label_1
_geom_bond_atom_site_label_2
_geom_bond_distance
_geom_bond_site_symmetry_2
Ca0 Cu0 3.173196 1_555
Ca0 Cu0 3.173196 1_545
Ca0 Mg4 3.194038 1_445
Ca0 Mg2 3.194038 1_455
Ca0 Mg7 3.230512 1_554
Ca0 Mg6 3.230512 1_555
Ca0 Mg9 3.230519 1_554
Ca0 Mg8 3.230519 1_555
Ca0 Mg4 3.236886 1_555
Ca0 Mg2 3.236886 1_555
Ca0 Mg10 3.249509 1_455
Ca0 Mg11 3.249509 1_454
Mg0 Mg10 3.110848 1_455
Mg0 Mg11 3.110848 1_455
Mg0 Mg1 3.170860 1_545
Mg0 Mg1 3.170860 1_555
Mg0 Mg6 3.183143 1_555
Mg0 Mg7 3.183143 1_555
Mg0 Mg8 3.183149 1_555
Mg0 Mg9 3.183149 1_555
Mg0 Mg5 3.189740 1_555
Mg0 Mg3 3.189740 1_555
Mg0 Mg5 3.239239 1_445
Mg0 Mg3 3.239239 1_455
Mg1 Mg8 3.145306 1_555
Mg1 Mg9 3.145306 1_555
Mg1 Mg6 3.145312 1_565
Mg1 Mg7 3.145312 1_565
Mg1 Mg3 3.198563 1_455
Mg1 Mg5 3.198564 1_455
Mg1 Mg3 3.230452 1_565
Mg1 Mg5 3.230452 1_555
Mg1 Mg12 3.297383 1_455
Mg1 Mg13 3.297383 1_455
Mg2 Mg4 3.011142 1_545
Mg2 Mg7 3.147488 1_554
Mg2 Mg6 3.147488 1_555
Mg2 Mg4 3.330398 1_555
Mg3 Mg5 3.130400 1_555
Mg3 Mg6 3.162207 1_555
Mg3 Mg7 3.162207 1_555
Mg3 Mg5 3.211140 1_545
Mg4 Mg9 3.147488 1_554
Mg4 Mg8 3.147488 1_555
Mg5 Mg8 3.162208 1_555
Mg5 Mg9 3.162208 1_555
Mg6 Mg8 3.080964 1_545
Mg6 Mg8 3.260576 1_555
Mg7 Mg9 3.080964 1_545
Mg7 Mg9 3.260576 1_555
Mg10 Mg3 3.093378 1_555
Mg10 Mg5 3.093384 1_545
Mg10 Mg8 3.173003 1_545
Mg10 Mg6 3.173004 1_555
Mg10 Mg12 3.186488 1_555
Mg10 Mg12 3.186488 1_545
Mg10 Mg2 3.245390 1_555
Mg10 Mg4 3.245396 1_545
Mg10 Mg8 3.258888 1_655
Mg10 Mg6 3.258888 1_655
Mg11 Mg3 3.093378 1_555
Mg11 Mg5 3.093384 1_545
Mg11 Mg9 3.173003 1_545
Mg11 Mg7 3.173004 1_555
Mg11 Mg13 3.186488 1_555
Mg11 Mg13 3.186488 1_545
Mg11 Mg2 3.245390 1_556
Mg11 Mg4 3.245396 1_546
Mg11 Mg9 3.258888 1_655
Mg11 Mg7 3.258888 1_655
Mg12 Mg4 3.109995 1_555
Mg12 Mg2 3.110002 1_555
Mg12 Mg6 3.145229 1_665
Mg12 Mg8 3.145229 1_655
Mg12 Mg6 3.297568 1_555
Mg12 Mg8 3.297568 1_555
Mg12 Mg5 3.347656 1_555
Mg12 Mg3 3.347662 1_555
Mg13 Mg4 3.109995 1_556
Mg13 Mg2 3.110002 1_556
Mg13 Mg7 3.145229 1_665
Mg13 Mg9 3.145229 1_655
Mg13 Mg7 3.297568 1_555
Mg13 Mg9 3.297568 1_555
Mg13 Mg5 3.347656 1_555
Mg13 Mg3 3.347662 1_555
Cu0 Mg12 3.025132 1_455
Cu0 Mg13 3.025132 1_454
Cu0 Mg2 3.049254 1_565
Cu0 Mg4 3.049254 1_555
Cu0 Mg9 3.149215 1_554
Cu0 Mg8 3.149215 1_555
Cu0 Mg7 3.149221 1_564
Cu0 Mg6 3.149221 1_565
Cu0 Mg2 3.379700 1_455
Cu0 Mg4 3.379700 1_455
