# generated using pymatgen
data_K2MgFe4P6(O4F3)4
_symmetry_space_group_name_H-M   'P 1'
_cell_length_a   8.02237053
_cell_length_b   7.80841674
_cell_length_c   10.19987917
_cell_angle_alpha   101.54808226
_cell_angle_beta   109.47398315
_cell_angle_gamma   92.57207976
_symmetry_Int_Tables_number   1
_chemical_formula_structural   K2MgFe4P6(O4F3)4
_chemical_formula_sum   'K2 Mg1 Fe4 P6 O16 F12'
_cell_volume   585.87039127
_cell_formula_units_Z   1
loop_
 _symmetry_equiv_pos_site_id
 _symmetry_equiv_pos_as_xyz
  1  'x, y, z'
loop_
 _atom_site_type_symbol
 _atom_site_label
 _atom_site_symmetry_multiplicity
 _atom_site_fract_x
 _atom_site_fract_y
 _atom_site_fract_z
 _atom_site_occupancy
  K  K0  1  0.72183885  0.10320850  0.76954801  1
  K  K1  1  0.24427016  0.90181800  0.21801105  1
  Mg  Mg0  1  0.28994577  0.34313905  0.13161600  1
  Fe  Fe0  1  0.69081687  0.31608271  0.35647693  1
  Fe  Fe1  1  0.33622017  0.69052600  0.66329468  1
  Fe  Fe2  1  0.52753303  0.51100709  0.98260412  1
  Fe  Fe3  1  0.99075205  0.99464639  0.50489852  1
  P  P0  1  0.64519942  0.72679216  0.51208461  1
  P  P1  1  0.30142021  0.28116623  0.45778949  1
  P  P2  1  0.30504017  0.09719671  0.82357431  1
  P  P3  1  0.69384285  0.91949856  0.18047124  1
  P  P4  1  0.08963833  0.56332115  0.85951209  1
  P  P5  1  0.92921218  0.42066955  0.16166217  1
  O  O0  1  0.68234616  0.53819676  0.48885804  1
  O  O1  1  0.26825609  0.46075513  0.52462236  1
  O  O2  1  0.80582832  0.86516881  0.55810862  1
  O  O3  1  0.17852757  0.12307979  0.45096696  1
  O  O4  1  0.59941247  0.07157913  0.22851221  1
  O  O5  1  0.38384175  0.92540875  0.80676176  1
  O  O6  1  0.44142237  0.25590835  0.86231144  1
  O  O7  1  0.56242341  0.75771854  0.09754012  1
  O  O8  1  0.86318581  0.88829425  0.29567051  1
  O  O9  1  0.12088854  0.10272928  0.71920823  1
  O  O10  1  0.90065799  0.37004217  0.28436737  1
  O  O11  1  0.14984842  0.61346004  0.74916871  1
  O  O12  1  0.80247050  0.47751405  0.04026902  1
  O  O13  1  0.21400057  0.49287510  0.97848514  1
  O  O14  1  0.32634751  0.27062577  0.31349292  1
  O  O15  1  0.53295821  0.77886631  0.60584257  1
  F  F0  1  0.85415386  0.19237293  0.50812686  1
  F  F1  1  0.14858574  0.79875019  0.52676436  1
  F  F2  1  0.53030428  0.41426481  0.16861843  1
  F  F3  1  0.51200104  0.59557038  0.80109878  1
  F  F4  1  0.77225810  0.97878678  0.06745045  1
  F  F5  1  0.25958906  0.11296671  0.97707577  1
  F  F6  1  0.91267760  0.43564059  0.78861103  1
  F  F7  1  0.11150193  0.55179839  0.22004435  1
  F  F8  1  0.49343808  0.24739362  0.55831828  1
  F  F9  1  0.51542999  0.74912245  0.35846109  1
  F  F10  1  0.01533991  0.25989453  0.08511374  1
  F  F11  1  0.01764565  0.72714430  0.93333767  1
loop_
_geom_bond_atom_site_label_1
_geom_bond_atom_site_label_2
_geom_bond_distance
_geom_bond_site_symmetry_2
K0 O15 2.788128 1_545
K0 O2 2.834839 1_545
K0 O6 2.930172 1_555
K1 O14 2.820396 1_565
K1 O3 2.860557 1_565
K1 O4 3.047391 1_565
K1 O7 3.329528 1_555
K1 O8 3.406501 1_455
Mg0 O14 1.980288 1_555
Mg0 O13 2.082889 1_554
Fe0 O0 1.992480 1_555
Fe0 O4 2.030957 1_555
Fe0 O10 2.106749 1_555
Fe1 O1 1.974546 1_555
Fe1 O15 1.997769 1_555
Fe1 O5 2.034923 1_555
Fe1 O11 2.090036 1_555
Fe2 O7 1.998104 1_556
Fe2 O6 2.069595 1_555
Fe2 O12 2.127818 1_556
Fe2 O13 2.498721 1_555
Fe3 O8 2.012283 1_555
Fe3 O2 2.034574 1_555
Fe3 O3 2.053144 1_665
Fe3 O9 2.059411 1_665
O0 P0 1.503447 1_555
O1 P1 1.507852 1_555
O2 P0 1.522175 1_555
O3 P1 1.520267 1_555
O4 P3 1.522974 1_545
O5 P2 1.511515 1_565
O6 P2 1.510972 1_555
O7 P3 1.510252 1_555
O8 P3 1.538064 1_555
O9 P2 1.514314 1_555
O10 P5 1.468445 1_555
O11 P4 1.474871 1_555
O12 P5 1.478207 1_555
O13 P4 1.509910 1_555
O14 P1 1.536946 1_555
O15 P0 1.530360 1_555
F0 Fe3 1.934227 1_545
F0 Fe0 2.098374 1_555
F1 Fe1 2.026562 1_555
F1 Fe3 2.028530 1_455
F2 Mg0 1.871828 1_555
F2 Fe2 2.172140 1_554
F2 Fe0 2.224652 1_555
F3 Fe1 1.924458 1_555
F3 Fe2 2.054746 1_555
F4 P3 1.615571 1_555
F5 P2 1.704994 1_555
F5 Mg0 2.084393 1_556
F5 K1 3.252420 1_546
F6 P4 1.559525 1_655
F6 K0 2.891794 1_555
F7 P5 1.606998 1_455
F7 Mg0 2.449352 1_555
F7 K1 2.894975 1_555
F8 P1 1.607936 1_555
F8 K0 2.791242 1_555
F9 P0 1.614784 1_555
F9 K1 2.654208 1_555
F10 P5 1.645650 1_455
F10 Mg0 2.133538 1_555
F11 P4 1.583528 1_555
F11 K1 2.875540 1_556
