# generated using pymatgen
data_Er2CdCu2
_symmetry_space_group_name_H-M   'P 1'
_cell_length_a   7.40687997
_cell_length_b   7.40687997
_cell_length_c   3.66894912
_cell_angle_alpha   90.00000000
_cell_angle_beta   90.00000000
_cell_angle_gamma   89.99998406
_symmetry_Int_Tables_number   1
_chemical_formula_structural   Er2CdCu2
_chemical_formula_sum   'Er4 Cd2 Cu4'
_cell_volume   201.28541292
_cell_formula_units_Z   2
loop_
 _symmetry_equiv_pos_site_id
 _symmetry_equiv_pos_as_xyz
  1  'x, y, z'
loop_
 _atom_site_type_symbol
 _atom_site_label
 _atom_site_symmetry_multiplicity
 _atom_site_fract_x
 _atom_site_fract_y
 _atom_site_fract_z
 _atom_site_occupancy
  Er  Er0  1  0.67416013  0.17416013  0.50000000  1
  Er  Er1  1  0.32583987  0.82583987  0.50000000  1
  Er  Er2  1  0.17416113  0.32583887  0.50000000  1
  Er  Er3  1  0.82583887  0.67416113  0.50000000  1
  Cd  Cd0  1  0.00000000  -0.00000000  0.00000000  1
  Cd  Cd1  1  0.50000000  0.50000000  0.00000000  1
  Cu  Cu0  1  0.12030101  0.62030101  -0.00000000  1
  Cu  Cu1  1  0.87969899  0.37969899  0.00000000  1
  Cu  Cu2  1  0.62030001  0.87969999  0.00000000  1
  Cu  Cu3  1  0.37969999  0.12030001  -0.00000000  1
loop_
_geom_bond_atom_site_label_1
_geom_bond_atom_site_label_2
_geom_bond_distance
_geom_bond_site_symmetry_2
Cd0 Cu0 2.950167 1_545
Cd0 Cu1 2.950167 1_455
Cd0 Cu3 2.950172 1_555
Cd0 Cu2 2.950172 1_445
Cd0 Er2 3.294558 1_554
Cd0 Er3 3.294558 1_444
Cd0 Er3 3.294558 1_445
Cd0 Er2 3.294558 1_555
Cd0 Er1 3.294560 1_544
Cd0 Er1 3.294560 1_545
Cd0 Er0 3.294560 1_455
Cd0 Er0 3.294560 1_454
Cd1 Cu1 2.950167 1_555
Cd1 Cu0 2.950167 1_555
Cd1 Cu2 2.950172 1_555
Cd1 Cu3 2.950172 1_555
Cd1 Er3 3.294558 1_555
Cd1 Er2 3.294558 1_554
Cd1 Er3 3.294558 1_554
Cd1 Er2 3.294558 1_555
Cd1 Er0 3.294560 1_555
Cd1 Er0 3.294560 1_554
Cd1 Er1 3.294560 1_554
Cd1 Er1 3.294560 1_555
Cu0 Cu1 2.520285 1_455
Cu0 Er1 2.828553 1_555
Cu0 Er1 2.828553 1_554
Cu0 Er3 2.877743 1_454
Cu0 Er2 2.877743 1_555
Cu0 Er2 2.877743 1_554
Cu0 Er3 2.877743 1_455
Cu1 Er0 2.828553 1_555
Cu1 Er0 2.828553 1_554
Cu1 Er3 2.877743 1_555
Cu1 Er2 2.877743 1_654
Cu1 Er2 2.877743 1_655
Cu1 Er3 2.877743 1_554
Cu2 Cu3 2.520263 1_565
Cu2 Er3 2.828553 1_554
Cu2 Er3 2.828553 1_555
Cu2 Er0 2.877732 1_564
Cu2 Er0 2.877732 1_565
Cu2 Er1 2.877732 1_554
Cu2 Er1 2.877732 1_555
Cu3 Er2 2.828553 1_554
Cu3 Er2 2.828553 1_555
Cu3 Er1 2.877732 1_544
Cu3 Er0 2.877732 1_555
Cu3 Er1 2.877732 1_545
Cu3 Er0 2.877732 1_554
