# generated using pymatgen
data_LaMg14Ni
_symmetry_space_group_name_H-M   'P 1'
_cell_length_a   6.66129093
_cell_length_b   6.06664644
_cell_length_c   10.26429188
_cell_angle_alpha   90.00000000
_cell_angle_beta   90.00000000
_cell_angle_gamma   117.08847016
_symmetry_Int_Tables_number   1
_chemical_formula_structural   LaMg14Ni
_chemical_formula_sum   'La1 Mg14 Ni1'
_cell_volume   369.29602056
_cell_formula_units_Z   1
loop_
 _symmetry_equiv_pos_site_id
 _symmetry_equiv_pos_as_xyz
  1  'x, y, z'
loop_
 _atom_site_type_symbol
 _atom_site_label
 _atom_site_symmetry_multiplicity
 _atom_site_fract_x
 _atom_site_fract_y
 _atom_site_fract_z
 _atom_site_occupancy
  La  La0  1  0.11269721  0.80634811  0.12500000  1
  Mg  Mg0  1  0.15600118  0.32800009  0.62500000  1
  Mg  Mg1  1  0.16692361  0.83346131  0.62500000  1
  Mg  Mg2  1  0.60348489  0.31341625  0.12500000  1
  Mg  Mg3  1  0.66144402  0.32592834  0.62500000  1
  Mg  Mg4  1  0.60348489  0.79006764  0.12500000  1
  Mg  Mg5  1  0.66144402  0.83551468  0.62500000  1
  Mg  Mg6  1  0.34853018  0.17761939  0.37810875  1
  Mg  Mg7  1  0.34853018  0.17761939  0.87189125  1
  Mg  Mg8  1  0.34853018  0.67091178  0.37810875  1
  Mg  Mg9  1  0.34853018  0.67091178  0.87189125  1
  Mg  Mg10  1  0.88617798  0.19308949  0.32844058  1
  Mg  Mg11  1  0.88617798  0.19308949  0.92155942  1
  Mg  Mg12  1  0.82953208  0.66476654  0.39289878  1
  Mg  Mg13  1  0.82953208  0.66476654  0.85710122  1
  Ni  Ni0  1  0.20897933  0.35448917  0.12500000  1
loop_
_geom_bond_atom_site_label_1
_geom_bond_atom_site_label_2
_geom_bond_distance
_geom_bond_site_symmetry_2
La0 Ni0 3.086600 1_565
La0 Ni0 3.086600 1_555
La0 Mg12 3.222035 1_455
La0 Mg13 3.222035 1_454
La0 Mg2 3.315421 1_565
La0 Mg4 3.315421 1_555
La0 Mg8 3.326866 1_555
La0 Mg9 3.326866 1_554
La0 Mg7 3.326872 1_564
La0 Mg6 3.326872 1_565
La0 Mg2 3.348191 1_455
La0 Mg4 3.348191 1_455
Mg0 Mg1 3.034015 1_545
Mg0 Mg1 3.034015 1_555
Mg0 Mg6 3.156684 1_555
Mg0 Mg7 3.156684 1_555
Mg0 Mg9 3.156690 1_555
Mg0 Mg8 3.156690 1_555
Mg0 Mg5 3.288685 1_445
Mg0 Mg3 3.288685 1_455
Mg0 Mg5 3.372643 1_555
Mg0 Mg3 3.372644 1_555
Mg0 Mg11 3.438958 1_455
Mg0 Mg10 3.438958 1_455
Mg1 Mg12 3.111161 1_455
Mg1 Mg13 3.111161 1_455
Mg1 Mg8 3.153468 1_555
Mg1 Mg9 3.153468 1_555
Mg1 Mg6 3.153474 1_565
Mg1 Mg7 3.153474 1_565
Mg1 Mg3 3.288490 1_565
Mg1 Mg5 3.288490 1_555
Mg1 Mg3 3.372837 1_455
Mg1 Mg5 3.372837 1_455
Mg2 Ni0 2.750343 1_555
Mg3 Mg5 2.975166 1_545
Mg3 Mg5 3.091480 1_555
Mg3 Mg6 3.141381 1_555
Mg3 Mg7 3.141381 1_555
Mg4 Ni0 2.750343 1_555
Mg5 Mg9 3.141381 1_555
Mg5 Mg8 3.141381 1_555
Mg6 Ni0 3.110209 1_555
Mg7 Ni0 3.110209 1_556
Mg8 Ni0 3.110215 1_555
Mg9 Ni0 3.110215 1_556
Mg10 Ni0 2.832912 1_655
Mg10 Mg12 3.122762 1_545
Mg10 Mg12 3.122763 1_555
Mg11 Ni0 2.832912 1_656
Mg11 Mg13 3.122762 1_545
Mg11 Mg13 3.122763 1_555
Mg12 Mg5 3.009757 1_555
Mg12 Mg3 3.009763 1_555
Mg12 Mg6 3.224816 1_555
Mg12 Mg8 3.224816 1_555
Mg12 Mg4 3.383632 1_555
Mg12 Mg2 3.383637 1_555
Mg12 Mg6 3.443728 1_665
Mg12 Mg8 3.443729 1_655
Mg13 Mg5 3.009757 1_555
Mg13 Mg3 3.009763 1_555
Mg13 Mg7 3.224816 1_555
Mg13 Mg9 3.224816 1_555
Mg13 Mg4 3.383632 1_556
Mg13 Mg2 3.383637 1_556
Mg13 Mg7 3.443728 1_665
Mg13 Mg9 3.443729 1_655
