# generated using pymatgen
data_BaYCo4O7
_symmetry_space_group_name_H-M   'P 1'
_cell_length_a   6.37869067
_cell_length_b   6.37869067
_cell_length_c   10.44941100
_cell_angle_alpha   89.85174926
_cell_angle_beta   89.85174926
_cell_angle_gamma   119.78276155
_symmetry_Int_Tables_number   1
_chemical_formula_structural   BaYCo4O7
_chemical_formula_sum   'Ba2 Y2 Co8 O14'
_cell_volume   368.99992803
_cell_formula_units_Z   2
loop_
 _symmetry_equiv_pos_site_id
 _symmetry_equiv_pos_as_xyz
  1  'x, y, z'
loop_
 _atom_site_type_symbol
 _atom_site_label
 _atom_site_symmetry_multiplicity
 _atom_site_fract_x
 _atom_site_fract_y
 _atom_site_fract_z
 _atom_site_occupancy
  Ba  Ba0  1  0.33338400  0.66216100  0.01605000  1
  Ba  Ba1  1  0.66216100  0.33338400  0.51605000  1
  Y  Y0  1  0.33483300  0.66549600  0.62401600  1
  Y  Y1  1  0.66549600  0.33483300  0.12401600  1
  Co  Co0  1  0.00607400  0.99481900  0.05915400  1
  Co  Co1  1  0.99481900  0.00607400  0.55915400  1
  Co  Co2  1  0.83622100  0.66085100  0.81450900  1
  Co  Co3  1  0.33873000  0.18326300  0.81444400  1
  Co  Co4  1  0.81929400  0.16094700  0.81413300  1
  Co  Co5  1  0.66085100  0.83622100  0.31450900  1
  Co  Co6  1  0.18326300  0.33873000  0.31444400  1
  Co  Co7  1  0.16094700  0.81929400  0.31413300  1
  O  O0  1  0.50352800  0.01425200  0.74428100  1
  O  O1  1  0.97962000  0.47080700  0.74008400  1
  O  O2  1  0.51376400  0.50924800  0.74210000  1
  O  O3  1  0.01425200  0.50352800  0.24428100  1
  O  O4  1  0.47080700  0.97962000  0.24008400  1
  O  O5  1  0.50924800  0.51376400  0.24210000  1
  O  O6  1  0.00407000  0.99686400  0.25368500  1
  O  O7  1  0.99686400  0.00407000  0.75368500  1
  O  O8  1  0.88200100  0.66450700  0.99877700  1
  O  O9  1  0.33486400  0.21261600  0.99980700  1
  O  O10  1  0.79612800  0.12146000  0.99236000  1
  O  O11  1  0.66450700  0.88200100  0.49877700  1
  O  O12  1  0.21261600  0.33486400  0.49980700  1
  O  O13  1  0.12146000  0.79612800  0.49236000  1
loop_
_geom_bond_atom_site_label_1
_geom_bond_atom_site_label_2
_geom_bond_distance
_geom_bond_site_symmetry_2
Ba0 O9 2.877656 1_554
Ba0 O8 2.892794 1_454
Ba0 O4 2.936166 1_555
Ba0 O10 2.959519 1_564
Ba0 O3 2.961672 1_555
Ba0 O5 2.964943 1_555
Ba1 O12 2.877656 1_555
Ba1 O11 2.892794 1_545
Ba1 O1 2.936166 1_555
Ba1 O13 2.959519 1_655
Ba1 O0 2.961672 1_555
Ba1 O2 2.964943 1_555
Co0 O9 1.951260 1_564
Co0 O8 1.953610 1_454
Co0 O10 2.002423 1_464
Co0 O6 2.032858 1_555
Co1 O12 1.951260 1_655
Co1 O11 1.953610 1_545
Co1 O13 2.002423 1_645
Co1 O7 2.032858 1_555
Co2 O2 1.942720 1_555
Co2 O8 1.946719 1_555
Co2 O7 2.001940 1_565
Co2 O1 2.003428 1_555
Co3 O9 1.947715 1_555
Co3 O2 1.955229 1_555
Co3 O0 1.982595 1_555
Co3 O7 1.999906 1_455
Co4 O10 1.874263 1_555
Co4 O1 1.879122 1_555
Co4 O0 1.898439 1_555
Co4 O7 1.951611 1_555
Co5 O5 1.942720 1_555
Co5 O11 1.946719 1_555
Co5 O6 2.001940 1_655
Co5 O4 2.003428 1_555
Co6 O12 1.947715 1_555
Co6 O5 1.955229 1_555
Co6 O3 1.982595 1_555
Co6 O6 1.999906 1_545
Co7 O13 1.874263 1_555
Co7 O4 1.879122 1_555
Co7 O3 1.898439 1_555
Co7 O6 1.951611 1_555
O0 Y0 2.308563 1_545
O1 Y0 2.308616 1_655
O2 Y0 2.224748 1_555
O3 Y1 2.308563 1_455
O4 Y1 2.308616 1_565
O5 Y1 2.224748 1_555
O8 Y1 2.265690 1_556
O9 Y1 2.264127 1_556
O10 Y1 2.360039 1_556
O11 Y0 2.265690 1_555
O12 Y0 2.264127 1_555
O13 Y0 2.360039 1_555
