# generated using pymatgen
data_BH6N
_symmetry_space_group_name_H-M   'P 1'
_cell_length_a   4.44200591
_cell_length_b   4.44200591
_cell_length_c   6.05561800
_cell_angle_alpha   90.00000000
_cell_angle_beta   90.00000000
_cell_angle_gamma   94.33136056
_symmetry_Int_Tables_number   1
_chemical_formula_structural   BH6N
_chemical_formula_sum   'B2 H12 N2'
_cell_volume   119.14466241
_cell_formula_units_Z   2
loop_
 _symmetry_equiv_pos_site_id
 _symmetry_equiv_pos_as_xyz
  1  'x, y, z'
loop_
 _atom_site_type_symbol
 _atom_site_label
 _atom_site_symmetry_multiplicity
 _atom_site_fract_x
 _atom_site_fract_y
 _atom_site_fract_z
 _atom_site_occupancy
  B  B0  1  0.15261900  0.84738100  0.70939400  1
  B  B1  1  0.84738100  0.15261900  0.20939400  1
  H  H0  1  0.18639600  0.81360400  0.06670500  1
  H  H1  1  0.81360400  0.18639600  0.56670500  1
  H  H2  1  0.51259500  0.76218000  0.94827600  1
  H  H3  1  0.23782000  0.48740400  0.94827600  1
  H  H4  1  0.48740500  0.23782000  0.44827600  1
  H  H5  1  0.76218000  0.51259500  0.44827600  1
  H  H6  1  0.26698100  0.73301900  0.54984600  1
  H  H7  1  0.73301900  0.26698100  0.04984600  1
  H  H8  1  0.20970300  0.12166200  0.70948500  1
  H  H9  1  0.87833800  0.79029700  0.70948500  1
  H  H10  1  0.79029700  0.87833800  0.20948500  1
  H  H11  1  0.12166200  0.20970300  0.20948500  1
  N  N0  1  0.28338700  0.71661300  0.93163300  1
  N  N1  1  0.71661300  0.28338700  0.43163300  1
loop_
_geom_bond_atom_site_label_1
_geom_bond_atom_site_label_2
_geom_bond_distance
_geom_bond_site_symmetry_2
B0 H6 1.220069 1_555
B0 H8 1.225573 1_565
B0 H9 1.225573 1_455
B0 N0 1.592782 1_555
B1 H7 1.220069 1_555
B1 H11 1.225573 1_655
B1 H10 1.225573 1_545
B1 N1 1.592782 1_555
H0 N0 1.033590 1_554
H1 N1 1.033590 1_555
H2 N0 1.027917 1_555
H3 N0 1.027922 1_555
H4 N1 1.027917 1_555
H5 N1 1.027917 1_555
