# generated using pymatgen
data_YbPrSe2
_symmetry_space_group_name_H-M   'P 1'
_cell_length_a   7.39979931
_cell_length_b   7.39979931
_cell_length_c   7.39979934
_cell_angle_alpha   32.83353779
_cell_angle_beta   32.83353779
_cell_angle_gamma   32.83354376
_symmetry_Int_Tables_number   1
_chemical_formula_structural   YbPrSe2
_chemical_formula_sum   'Yb1 Pr1 Se2'
_cell_volume   105.97666497
_cell_formula_units_Z   1
loop_
 _symmetry_equiv_pos_site_id
 _symmetry_equiv_pos_as_xyz
  1  'x, y, z'
loop_
 _atom_site_type_symbol
 _atom_site_label
 _atom_site_symmetry_multiplicity
 _atom_site_fract_x
 _atom_site_fract_y
 _atom_site_fract_z
 _atom_site_occupancy
  Yb  Yb0  1  0.50000000  0.50000000  0.50000000  1
  Pr  Pr0  1  0.00000000  0.00000000  0.00000000  1
  Se  Se0  1  0.24611200  0.24611200  0.24611200  1
  Se  Se1  1  0.75388800  0.75388800  0.75388800  1
loop_
_geom_bond_atom_site_label_1
_geom_bond_atom_site_label_2
_geom_bond_distance
_geom_bond_site_symmetry_2
Pr0 Se1 3.030094 1_445
Pr0 Se0 3.030094 1_554
Pr0 Se0 3.030095 1_455
Pr0 Se0 3.030095 1_545
Pr0 Se1 3.030095 1_454
Pr0 Se1 3.030095 1_544
Se0 Yb0 2.934418 1_554
Se0 Yb0 2.934418 1_455
Se0 Yb0 2.934418 1_545
Se1 Yb0 2.934418 1_556
Se1 Yb0 2.934418 1_655
Se1 Yb0 2.934418 1_565
