# generated using pymatgen
data_YbC2
_symmetry_space_group_name_H-M   'P 1'
_cell_length_a   3.93998949
_cell_length_b   3.93998949
_cell_length_c   3.93998949
_cell_angle_alpha   126.12657469
_cell_angle_beta   126.12657469
_cell_angle_gamma   79.68020616
_symmetry_Int_Tables_number   1
_chemical_formula_structural   YbC2
_chemical_formula_sum   'Yb1 C2'
_cell_volume   38.54972149
_cell_formula_units_Z   1
loop_
 _symmetry_equiv_pos_site_id
 _symmetry_equiv_pos_as_xyz
  1  'x, y, z'
loop_
 _atom_site_type_symbol
 _atom_site_label
 _atom_site_symmetry_multiplicity
 _atom_site_fract_x
 _atom_site_fract_y
 _atom_site_fract_z
 _atom_site_occupancy
  Yb  Yb0  1  0.00000000  0.00000000  0.00000000  1
  C  C0  1  0.60733192  0.60733192  0.00000000  1
  C  C1  1  0.39266808  0.39266808  0.00000000  1
loop_
_geom_bond_atom_site_label_1
_geom_bond_atom_site_label_2
_geom_bond_distance
_geom_bond_site_symmetry_2
C0 C1 1.298829 1_555
C0 Yb0 2.375848 1_665
C0 Yb0 2.606346 1_554
C0 Yb0 2.606346 1_655
C0 Yb0 2.606346 1_666
C0 Yb0 2.606346 1_565
C1 Yb0 2.375848 1_555
C1 Yb0 2.606346 1_554
C1 Yb0 2.606346 1_655
C1 Yb0 2.606346 1_666
C1 Yb0 2.606346 1_565
