# generated using pymatgen
data_Nd4Fe29Si5
_symmetry_space_group_name_H-M   'P 1'
_cell_length_a   6.41772000
_cell_length_b   6.45634331
_cell_length_c   12.80994212
_cell_angle_alpha   82.38218179
_cell_angle_beta   81.79251375
_cell_angle_gamma   82.36960944
_symmetry_Int_Tables_number   1
_chemical_formula_structural   Nd4Fe29Si5
_chemical_formula_sum   'Nd4 Fe29 Si5'
_cell_volume   517.18820707
_cell_formula_units_Z   1
loop_
 _symmetry_equiv_pos_site_id
 _symmetry_equiv_pos_as_xyz
  1  'x, y, z'
loop_
 _atom_site_type_symbol
 _atom_site_label
 _atom_site_symmetry_multiplicity
 _atom_site_fract_x
 _atom_site_fract_y
 _atom_site_fract_z
 _atom_site_occupancy
  Nd  Nd0  1  0.34529800  0.34675900  0.67347000  1
  Nd  Nd1  1  0.34781000  0.34421900  0.17303200  1
  Nd  Nd2  1  0.65219000  0.65578100  0.82696800  1
  Nd  Nd3  1  0.65470200  0.65324100  0.32653000  1
  Fe  Fe0  1  0.28724600  0.70750600  0.99966600  1
  Fe  Fe1  1  0.28688700  0.71407500  0.49991400  1
  Fe  Fe2  1  0.99980500  0.29141100  0.85634800  1
  Fe  Fe3  1  0.00034100  0.28726500  0.35606600  1
  Fe  Fe4  1  0.71375900  0.00028300  0.64315300  1
  Fe  Fe5  1  0.71666700  0.99977700  0.14157300  1
  Fe  Fe6  1  0.99965900  0.71273500  0.64393400  1
  Fe  Fe7  1  0.00019500  0.70858900  0.14365200  1
  Fe  Fe8  1  0.28333300  0.00022300  0.85842700  1
  Fe  Fe9  1  0.28624100  0.99971700  0.35684700  1
  Fe  Fe10  1  0.71275400  0.29249400  0.00033400  1
  Fe  Fe11  1  0.71311300  0.28592500  0.50008600  1
  Fe  Fe12  1  0.66159800  0.66152300  0.57741800  1
  Fe  Fe13  1  0.66405000  0.66594300  0.07536800  1
  Fe  Fe14  1  0.15061400  0.66471600  0.83216700  1
  Fe  Fe15  1  0.15426800  0.66215200  0.33075600  1
  Fe  Fe16  1  0.65978000  0.16044600  0.82984900  1
  Fe  Fe17  1  0.66089900  0.15423200  0.33018100  1
  Fe  Fe18  1  0.33595000  0.33405700  0.92463200  1
  Fe  Fe19  1  0.33840200  0.33847700  0.42258200  1
  Fe  Fe20  1  0.84573200  0.33784800  0.66924400  1
  Fe  Fe21  1  0.84938600  0.33528400  0.16783300  1
  Fe  Fe22  1  0.33910100  0.84576800  0.66981900  1
  Fe  Fe23  1  0.34022000  0.83955400  0.17015100  1
  Fe  Fe24  1  0.99923500  0.99933800  0.75018800  1
  Fe  Fe25  1  0.00076500  0.00066200  0.24981200  1
  Fe  Fe26  1  0.50000000  0.00000000  0.00000000  1
  Fe  Fe27  1  0.50000000  0.00000000  0.50000000  1
  Fe  Fe28  1  0.00000000  0.50000000  0.50000000  1
  Si  Si0  1  0.00000000  0.50000000  0.00000000  1
  Si  Si1  1  0.10123400  0.10112500  0.55060400  1
  Si  Si2  1  0.10852300  0.08070200  0.05420400  1
  Si  Si3  1  0.89147700  0.91929800  0.94579600  1
  Si  Si4  1  0.89876600  0.89887500  0.44939600  1
loop_
_geom_bond_atom_site_label_1
_geom_bond_atom_site_label_2
_geom_bond_distance
_geom_bond_site_symmetry_2
Nd0 Si1 3.077496 1_555
Nd1 Si2 3.101264 1_555
Nd1 Si0 3.336530 1_555
Nd2 Si3 3.101264 1_555
Nd2 Si0 3.336530 1_656
Nd3 Si4 3.077496 1_555
Fe0 Fe7 2.413639 1_556
Fe0 Si0 2.417718 1_556
Fe0 Fe8 2.437115 1_565
Fe0 Fe26 2.473680 1_566
Fe0 Fe14 2.491530 1_555
Fe0 Fe23 2.528724 1_556
Fe0 Si2 2.663242 1_566
Fe0 Fe18 2.676484 1_555
Fe0 Fe13 2.699709 1_556
Fe0 Si3 2.850470 1_455
Fe0 Nd2 2.999977 1_555
Fe0 Nd1 3.034432 1_556
Fe1 Fe6 2.414673 1_455
Fe1 Fe9 2.421541 1_555
Fe1 Fe27 2.439242 1_565
Fe1 Fe28 2.444381 1_555
Fe1 Fe15 2.515389 1_555
Fe1 Fe22 2.519284 1_555
Fe1 Fe12 2.694349 1_555
Fe1 Fe19 2.702164 1_555
Fe1 Si1 2.739435 1_565
Fe1 Si4 2.740980 1_455
Fe1 Nd3 3.024492 1_555
Fe1 Nd0 3.051461 1_555
Fe2 Si0 2.420341 1_656
Fe2 Fe8 2.436843 1_655
Fe2 Fe24 2.467479 1_545
Fe2 Si3 2.656023 1_545
Fe2 Fe20 2.686936 1_555
Fe2 Si2 2.846052 1_656
Fe2 Nd0 3.006236 1_655
Fe2 Nd2 3.043689 1_555
Fe3 Fe9 2.430847 1_545
Fe3 Si1 2.744766 1_555
Fe3 Si4 2.749361 1_445
Fe3 Nd1 3.016901 1_555
Fe3 Nd3 3.042606 1_455
Fe4 Fe6 2.430847 1_545
Fe4 Si4 2.716947 1_545
Fe4 Si1 2.719687 1_655
Fe4 Nd2 3.037583 1_545
Fe4 Nd0 3.051217 1_555
Fe5 Fe7 2.436843 1_655
Fe5 Si3 2.684305 1_554
Fe5 Si2 2.690762 1_665
Fe5 Nd1 3.046112 1_565
Fe5 Nd3 3.056021 1_555
Fe6 Si4 2.744766 1_555
Fe6 Si1 2.749361 1_665
Fe6 Nd2 3.016901 1_555
Fe6 Nd0 3.042606 1_655
Fe7 Si0 2.420341 1_555
Fe7 Si2 2.656023 1_565
Fe7 Si3 2.846052 1_454
Fe7 Nd3 3.006236 1_455
Fe7 Nd1 3.043689 1_555
Fe8 Si2 2.684305 1_556
Fe8 Si3 2.690762 1_445
Fe8 Nd2 3.046112 1_545
Fe8 Nd0 3.056021 1_555
Fe9 Si1 2.716947 1_565
Fe9 Si4 2.719687 1_455
Fe9 Nd1 3.037583 1_565
Fe9 Nd3 3.051217 1_555
Fe10 Fe2 2.413639 1_554
Fe10 Si0 2.417718 1_655
Fe10 Fe5 2.437115 1_545
Fe10 Fe26 2.473680 1_555
Fe10 Fe21 2.491530 1_555
Fe10 Fe16 2.528724 1_554
Fe10 Si3 2.663242 1_544
Fe10 Fe13 2.676484 1_555
Fe10 Fe18 2.699709 1_554
Fe10 Si2 2.850470 1_655
Fe10 Nd1 2.999977 1_555
Fe10 Nd2 3.034432 1_554
Fe11 Fe3 2.414673 1_655
Fe11 Fe4 2.421541 1_555
Fe11 Fe27 2.439242 1_555
Fe11 Fe28 2.444381 1_655
Fe11 Fe20 2.515389 1_555
Fe11 Fe17 2.519284 1_555
Fe11 Fe19 2.694349 1_555
Fe11 Fe12 2.702164 1_555
Fe11 Si4 2.739435 1_545
Fe11 Si1 2.740980 1_655
Fe11 Nd0 3.024492 1_555
Fe11 Nd3 3.051461 1_555
Fe12 Fe28 2.417731 1_655
Fe12 Fe27 2.439651 1_565
Fe12 Fe22 2.473808 1_555
Fe12 Fe20 2.497305 1_555
Fe12 Fe6 2.517029 1_555
Fe12 Fe4 2.523483 1_565
Fe12 Si4 2.568060 1_555
Fe12 Nd0 3.079596 1_555
Fe12 Nd2 3.184040 1_555
Fe12 Nd3 3.228083 1_555
Fe13 Si0 2.407269 1_655
Fe13 Fe26 2.414002 1_565
Fe13 Fe23 2.464034 1_555
Fe13 Fe5 2.497694 1_555
Fe13 Fe7 2.501035 1_655
Fe13 Fe21 2.536295 1_555
Fe13 Si3 2.604508 1_554
Fe13 Nd1 3.115189 1_555
Fe13 Nd3 3.199694 1_555
Fe13 Nd2 3.203277 1_554
Fe14 Si0 2.400194 1_556
Fe14 Fe24 2.417953 1_455
Fe14 Fe22 2.483427 1_555
Fe14 Fe8 2.509145 1_565
Fe14 Fe18 2.536295 1_555
Fe14 Si3 2.608331 1_455
Fe14 Fe2 2.679108 1_455
Fe14 Fe6 2.690318 1_455
Fe14 Nd0 3.099678 1_555
Fe14 Nd2 3.203132 1_555
Fe14 Nd2 3.217232 1_455
Fe15 Fe28 2.416012 1_555
Fe15 Fe25 2.437469 1_565
Fe15 Fe23 2.450700 1_555
Fe15 Fe19 2.497305 1_555
Fe15 Fe9 2.518561 1_555
Fe15 Si4 2.563812 1_455
Fe15 Fe7 2.686936 1_555
Fe15 Fe3 2.697181 1_555
Fe15 Nd1 3.089407 1_555
Fe15 Nd3 3.197346 1_555
Fe15 Nd3 3.222502 1_455
Fe16 Fe24 2.431907 1_545
Fe16 Fe26 2.433240 1_556
Fe16 Fe20 2.450700 1_555
Fe16 Fe18 2.464034 1_555
Fe16 Si3 2.498763 1_545
Fe16 Fe2 2.523831 1_555
Fe16 Fe4 2.689402 1_555
Fe16 Fe8 2.711384 1_555
Fe16 Nd0 3.066579 1_555
Fe16 Nd2 3.187339 1_555
Fe16 Nd2 3.270281 1_545
Fe17 Fe27 2.418155 1_555
Fe17 Fe25 2.419844 1_655
Fe17 Fe19 2.473808 1_555
Fe17 Fe21 2.483427 1_555
Fe17 Fe3 2.524268 1_655
Fe17 Si4 2.590440 1_545
Fe17 Fe9 2.684292 1_545
Fe17 Fe5 2.693878 1_545
Fe17 Nd1 3.072472 1_555
Fe17 Nd3 3.210942 1_555
Fe17 Nd3 3.246693 1_545
Fe18 Si0 2.407269 1_556
Fe18 Fe26 2.414002 1_556
Fe18 Fe8 2.497694 1_555
Fe18 Fe2 2.501035 1_455
Fe18 Si2 2.604508 1_556
Fe18 Nd2 3.115189 1_555
Fe18 Nd0 3.199694 1_555
Fe18 Nd1 3.203277 1_556
Fe19 Fe28 2.417731 1_555
Fe19 Fe27 2.439651 1_555
Fe19 Fe3 2.517029 1_555
Fe19 Fe9 2.523483 1_545
Fe19 Si1 2.568060 1_555
Fe19 Nd3 3.079596 1_555
Fe19 Nd1 3.184040 1_555
Fe19 Nd0 3.228083 1_555
Fe20 Fe28 2.416012 1_655
Fe20 Fe24 2.437469 1_545
Fe20 Fe4 2.518561 1_555
Fe20 Si1 2.563812 1_655
Fe20 Fe6 2.697181 1_555
Fe20 Nd2 3.089407 1_555
Fe20 Nd0 3.197346 1_555
Fe20 Nd0 3.222502 1_655
Fe21 Si0 2.400194 1_655
Fe21 Fe25 2.417953 1_655
Fe21 Fe5 2.509145 1_545
Fe21 Si2 2.608331 1_655
Fe21 Fe7 2.679108 1_655
Fe21 Fe3 2.690318 1_655
Fe21 Nd3 3.099678 1_555
Fe21 Nd1 3.203132 1_555
Fe21 Nd1 3.217232 1_655
Fe22 Fe27 2.418155 1_565
Fe22 Fe24 2.419844 1_455
Fe22 Fe6 2.524268 1_455
Fe22 Si1 2.590440 1_565
Fe22 Fe4 2.684292 1_565
Fe22 Fe8 2.693878 1_565
Fe22 Nd2 3.072472 1_555
Fe22 Nd0 3.210942 1_555
Fe22 Nd0 3.246693 1_565
Fe23 Fe25 2.431907 1_565
Fe23 Fe26 2.433240 1_565
Fe23 Si2 2.498763 1_565
Fe23 Fe7 2.523831 1_555
Fe23 Fe9 2.689402 1_555
Fe23 Fe5 2.711384 1_555
Fe23 Nd3 3.066579 1_555
Fe23 Nd1 3.187339 1_555
Fe23 Nd1 3.270281 1_565
Fe24 Fe6 2.437620 1_555
Fe24 Fe4 2.438982 1_565
Fe24 Fe8 2.444065 1_665
Fe24 Si3 2.506154 1_555
Fe24 Si1 2.566676 1_665
Fe24 Nd2 3.310003 1_555
Fe24 Nd0 3.323411 1_665
Fe25 Fe3 2.437620 1_555
Fe25 Fe9 2.438982 1_545
Fe25 Fe5 2.444065 1_445
Fe25 Fe7 2.467479 1_545
Fe25 Si2 2.506154 1_555
Fe25 Si4 2.566676 1_445
Fe25 Nd1 3.310003 1_555
Fe25 Nd3 3.323411 1_445
Fe26 Fe8 2.437463 1_554
Fe26 Fe5 2.437463 1_545
Fe26 Si3 2.513148 1_544
Fe26 Si2 2.513148 1_555
Fe26 Nd2 3.304161 1_544
Fe26 Nd1 3.304161 1_555
Fe27 Fe4 2.442240 1_555
Fe27 Fe9 2.442240 1_545
Fe27 Si4 2.567228 1_545
Fe27 Si1 2.567228 1_555
Fe27 Nd0 3.321842 1_555
Fe27 Nd3 3.321842 1_545
Fe28 Fe6 2.440389 1_455
Fe28 Fe3 2.440389 1_555
Fe28 Si4 2.589915 1_455
Fe28 Si1 2.589915 1_555
Fe28 Nd0 3.326917 1_555
Fe28 Nd3 3.326917 1_455
Si0 Si3 2.726676 1_454
Si0 Si2 2.726676 1_555
Si1 Si4 2.540619 1_445
Si2 Si3 2.505226 1_444
