# generated using pymatgen
data_Sm3Sb4Se9
_symmetry_space_group_name_H-M   'P 1'
_cell_length_a   16.68904300
_cell_length_b   4.02732500
_cell_length_c   25.30980600
_cell_angle_alpha   90.00000000
_cell_angle_beta   90.00000000
_cell_angle_gamma   90.00000000
_symmetry_Int_Tables_number   1
_chemical_formula_structural   Sm3Sb4Se9
_chemical_formula_sum   'Sm12 Sb16 Se36'
_cell_volume   1701.12774536
_cell_formula_units_Z   4
loop_
 _symmetry_equiv_pos_site_id
 _symmetry_equiv_pos_as_xyz
  1  'x, y, z'
loop_
 _atom_site_type_symbol
 _atom_site_label
 _atom_site_symmetry_multiplicity
 _atom_site_fract_x
 _atom_site_fract_y
 _atom_site_fract_z
 _atom_site_occupancy
  Sm  Sm0  1  0.12614600  0.25000000  0.44199900  1
  Sm  Sm1  1  0.62614600  0.25000000  0.05800100  1
  Sm  Sm2  1  0.87385400  0.75000000  0.55800100  1
  Sm  Sm3  1  0.37385400  0.75000000  0.94199900  1
  Sm  Sm4  1  0.32843900  0.25000000  0.32106800  1
  Sm  Sm5  1  0.82843900  0.25000000  0.17893200  1
  Sm  Sm6  1  0.67156100  0.75000000  0.67893200  1
  Sm  Sm7  1  0.17156100  0.75000000  0.82106800  1
  Sm  Sm8  1  0.04437000  0.25000000  0.26894300  1
  Sm  Sm9  1  0.54437000  0.25000000  0.23105700  1
  Sm  Sm10  1  0.95563000  0.75000000  0.73105700  1
  Sm  Sm11  1  0.45563000  0.75000000  0.76894300  1
  Sb  Sb0  1  0.14296000  0.25000000  0.99792000  1
  Sb  Sb1  1  0.64296000  0.25000000  0.50208000  1
  Sb  Sb2  1  0.85704000  0.75000000  0.00208000  1
  Sb  Sb3  1  0.35704000  0.75000000  0.49792000  1
  Sb  Sb4  1  0.45666600  0.25000000  0.58130700  1
  Sb  Sb5  1  0.95666600  0.25000000  0.91869300  1
  Sb  Sb6  1  0.54333400  0.75000000  0.41869300  1
  Sb  Sb7  1  0.04333400  0.75000000  0.08130700  1
  Sb  Sb8  1  0.10677900  0.25000000  0.60590800  1
  Sb  Sb9  1  0.60677900  0.25000000  0.89409200  1
  Sb  Sb10  1  0.89322100  0.75000000  0.39409200  1
  Sb  Sb11  1  0.39322100  0.75000000  0.10590800  1
  Sb  Sb12  1  0.26852000  0.25000000  0.67321100  1
  Sb  Sb13  1  0.76852000  0.25000000  0.82678900  1
  Sb  Sb14  1  0.73148000  0.75000000  0.32678900  1
  Sb  Sb15  1  0.23148000  0.75000000  0.17321100  1
  Se  Se0  1  0.25012400  0.25000000  0.90109700  1
  Se  Se1  1  0.75012400  0.25000000  0.59890300  1
  Se  Se2  1  0.74987600  0.75000000  0.09890300  1
  Se  Se3  1  0.24987600  0.75000000  0.40109700  1
  Se  Se4  1  0.44846700  0.25000000  0.86403100  1
  Se  Se5  1  0.94846700  0.25000000  0.63596900  1
  Se  Se6  1  0.55153300  0.75000000  0.13596900  1
  Se  Se7  1  0.05153300  0.75000000  0.36403100  1
  Se  Se8  1  0.04565400  0.25000000  0.79307800  1
  Se  Se9  1  0.54565400  0.25000000  0.70692200  1
  Se  Se10  1  0.95434600  0.75000000  0.20692200  1
  Se  Se11  1  0.45434600  0.75000000  0.29307800  1
  Se  Se12  1  0.29489000  0.25000000  0.77666000  1
  Se  Se13  1  0.79489000  0.25000000  0.72334000  1
  Se  Se14  1  0.70511000  0.75000000  0.22334000  1
  Se  Se15  1  0.20511000  0.75000000  0.27666000  1
  Se  Se16  1  0.43076900  0.25000000  0.42195200  1
  Se  Se17  1  0.93076900  0.25000000  0.07804800  1
  Se  Se18  1  0.56923100  0.75000000  0.57804800  1
  Se  Se19  1  0.06923100  0.75000000  0.92195200  1
  Se  Se20  1  0.44000900  0.25000000  0.03104500  1
  Se  Se21  1  0.94000900  0.25000000  0.46895500  1
  Se  Se22  1  0.55999100  0.75000000  0.96895500  1
  Se  Se23  1  0.05999100  0.75000000  0.53104500  1
  Se  Se24  1  0.25106100  0.25000000  0.52737200  1
  Se  Se25  1  0.75106100  0.25000000  0.97262800  1
  Se  Se26  1  0.74893900  0.75000000  0.47262800  1
  Se  Se27  1  0.24893900  0.75000000  0.02737200  1
  Se  Se28  1  0.37449300  0.25000000  0.18974100  1
  Se  Se29  1  0.87449300  0.25000000  0.31025900  1
  Se  Se30  1  0.62550700  0.75000000  0.81025900  1
  Se  Se31  1  0.12550700  0.75000000  0.68974100  1
  Se  Se32  1  0.12416200  0.25000000  0.16048500  1
  Se  Se33  1  0.62416200  0.25000000  0.33951500  1
  Se  Se34  1  0.87583800  0.75000000  0.83951500  1
  Se  Se35  1  0.37583800  0.75000000  0.66048500  1
loop_
_geom_bond_atom_site_label_1
_geom_bond_atom_site_label_2
_geom_bond_distance
_geom_bond_site_symmetry_2
Sb0 Se27 2.781861 1_546
Sb0 Se27 2.781861 1_556
Sb0 Se0 3.033794 1_555
Sb0 Se19 3.043977 1_555
Sb0 Se19 3.043977 1_545
Sb1 Se26 2.781861 1_545
Sb1 Se26 2.781861 1_555
Sb1 Se1 3.033794 1_555
Sb1 Se18 3.043977 1_555
Sb1 Se18 3.043977 1_545
Sb2 Se25 2.781861 1_564
Sb2 Se25 2.781861 1_554
Sb2 Se2 3.033794 1_555
Sb2 Se17 3.043977 1_565
Sb2 Se17 3.043977 1_555
Sb3 Se24 2.781861 1_565
Sb3 Se24 2.781861 1_555
Sb3 Se3 3.033794 1_555
Sb3 Se16 3.043977 1_555
Sb3 Se16 3.043977 1_565
Sb4 Se18 2.755138 1_555
Sb4 Se18 2.755138 1_545
Sb4 Se35 3.144903 1_545
Sb4 Se35 3.144903 1_555
Sb5 Se19 2.755138 1_655
Sb5 Se19 2.755138 1_645
Sb5 Se34 3.144903 1_555
Sb5 Se34 3.144903 1_545
Sb6 Se16 2.755138 1_565
Sb6 Se16 2.755138 1_555
Sb6 Se33 3.144903 1_555
Sb6 Se33 3.144903 1_565
Sb7 Se17 2.755138 1_465
Sb7 Se17 2.755138 1_455
Sb7 Se32 3.144903 1_565
Sb7 Se32 3.144903 1_555
Sb8 Se5 2.749443 1_455
Sb8 Se23 2.873100 1_555
Sb8 Se23 2.873100 1_545
Sb8 Se31 2.941861 1_545
Sb8 Se31 2.941861 1_555
Sb8 Se24 3.122370 1_555
Sb9 Se4 2.749443 1_555
Sb9 Se22 2.873100 1_555
Sb9 Se22 2.873100 1_545
Sb9 Se30 2.941861 1_545
Sb9 Se30 2.941861 1_555
Sb9 Se25 3.122370 1_555
Sb10 Se7 2.749443 1_655
Sb10 Se21 2.873100 1_565
Sb10 Se21 2.873100 1_555
Sb10 Se29 2.941861 1_555
Sb10 Se29 2.941861 1_565
Sb10 Se26 3.122370 1_555
Sb11 Se6 2.749443 1_555
Sb11 Se20 2.873100 1_555
Sb11 Se20 2.873100 1_565
Sb11 Se28 2.941861 1_565
Sb11 Se28 2.941861 1_555
Sb11 Se27 3.122370 1_555
Sb12 Se12 2.655003 1_555
Sb12 Se35 2.714109 1_545
Sb12 Se35 2.714109 1_555
Sb12 Se31 3.150626 1_555
Sb12 Se31 3.150626 1_545
Sb13 Se13 2.655003 1_555
Sb13 Se34 2.714109 1_555
Sb13 Se34 2.714109 1_545
Sb13 Se30 3.150626 1_555
Sb13 Se30 3.150626 1_545
Sb14 Se14 2.655003 1_555
Sb14 Se33 2.714109 1_565
Sb14 Se33 2.714109 1_555
Sb14 Se29 3.150626 1_555
Sb14 Se29 3.150626 1_565
Sb15 Se15 2.655003 1_555
Sb15 Se32 2.714109 1_555
Sb15 Se32 2.714109 1_565
Sb15 Se28 3.150626 1_555
Sb15 Se28 3.150626 1_565
Se0 Sm3 3.064389 1_545
Se0 Sm3 3.064389 1_555
Se0 Sm7 3.142714 1_545
Se0 Sm7 3.142714 1_555
Se1 Sm2 3.064389 1_555
Se1 Sm2 3.064389 1_545
Se1 Sm6 3.142714 1_555
Se1 Sm6 3.142714 1_545
Se2 Sm1 3.064389 1_555
Se2 Sm1 3.064389 1_565
Se2 Sm5 3.142714 1_555
Se2 Sm5 3.142714 1_565
Se3 Sm0 3.064389 1_555
Se3 Sm0 3.064389 1_565
Se3 Sm4 3.142714 1_555
Se3 Sm4 3.142714 1_565
Se4 Sm3 3.082132 1_545
Se4 Sm3 3.082132 1_555
Se4 Sm11 3.140244 1_545
Se4 Sm11 3.140244 1_555
Se5 Sm2 3.082132 1_545
Se5 Sm2 3.082132 1_555
Se5 Sm10 3.140244 1_555
Se5 Sm10 3.140244 1_545
Se6 Sm1 3.082132 1_565
Se6 Sm1 3.082132 1_555
Se6 Sm9 3.140244 1_565
Se6 Sm9 3.140244 1_555
Se7 Sm0 3.082132 1_555
Se7 Sm0 3.082132 1_565
Se7 Sm8 3.140244 1_555
Se7 Sm8 3.140244 1_565
Se8 Sm10 2.962460 1_445
Se8 Sm10 2.962460 1_455
Se8 Sm7 2.995333 1_555
Se8 Sm7 2.995333 1_545
Se9 Sm11 2.962460 1_545
Se9 Sm11 2.962460 1_555
Se9 Sm6 2.995333 1_545
Se9 Sm6 2.995333 1_555
Se10 Sm8 2.962460 1_665
Se10 Sm8 2.962460 1_655
Se10 Sm5 2.995333 1_555
Se10 Sm5 2.995333 1_565
Se11 Sm9 2.962460 1_565
Se11 Sm9 2.962460 1_555
Se11 Sm4 2.995333 1_565
Se11 Sm4 2.995333 1_555
Se12 Sm7 3.091033 1_555
Se12 Sm7 3.091033 1_545
Se12 Sm11 3.359957 1_555
Se12 Sm11 3.359957 1_545
Se13 Sm6 3.091033 1_545
Se13 Sm6 3.091033 1_555
Se13 Sm10 3.359957 1_555
Se13 Sm10 3.359957 1_545
Se14 Sm5 3.091033 1_555
Se14 Sm5 3.091033 1_565
Se14 Sm9 3.359957 1_555
Se14 Sm9 3.359957 1_565
Se15 Sm4 3.091033 1_555
Se15 Sm4 3.091033 1_565
Se15 Sm8 3.359957 1_555
Se15 Sm8 3.359957 1_565
Se16 Sm4 3.071834 1_555
Se17 Sm5 3.071834 1_555
Se18 Sm6 3.071834 1_555
Se19 Sm7 3.071834 1_555
Se20 Sm1 3.180486 1_555
Se20 Sm3 3.217627 1_544
Se20 Sm3 3.217627 1_554
Se21 Sm0 3.180486 1_655
Se21 Sm2 3.217627 1_555
Se21 Sm2 3.217627 1_545
Se22 Sm3 3.180486 1_555
Se22 Sm1 3.217627 1_556
Se22 Sm1 3.217627 1_566
Se23 Sm2 3.180486 1_455
Se23 Sm0 3.217627 1_555
Se23 Sm0 3.217627 1_565
Se24 Sm0 3.002494 1_555
Se25 Sm1 3.002494 1_556
Se26 Sm2 3.002494 1_555
Se27 Sm3 3.002494 1_554
Se28 Sm9 3.021786 1_555
Se28 Sm4 3.411568 1_555
Se29 Sm8 3.021786 1_655
Se29 Sm5 3.411568 1_555
Se30 Sm11 3.021786 1_555
Se30 Sm6 3.411568 1_555
Se31 Sm10 3.021786 1_455
Se31 Sm7 3.411568 1_555
Se32 Sm8 3.051000 1_555
Se33 Sm9 3.051000 1_555
Se34 Sm10 3.051000 1_555
Se35 Sm11 3.051000 1_555
