# generated using pymatgen
data_LaMg2
_symmetry_space_group_name_H-M   'P 1'
_cell_length_a   5.89479996
_cell_length_b   5.89479996
_cell_length_c   5.53897300
_cell_angle_alpha   90.00000000
_cell_angle_beta   90.00000000
_cell_angle_gamma   118.01057762
_symmetry_Int_Tables_number   1
_chemical_formula_structural   LaMg2
_chemical_formula_sum   'La2 Mg4'
_cell_volume   169.92593921
_cell_formula_units_Z   2
loop_
 _symmetry_equiv_pos_site_id
 _symmetry_equiv_pos_as_xyz
  1  'x, y, z'
loop_
 _atom_site_type_symbol
 _atom_site_label
 _atom_site_symmetry_multiplicity
 _atom_site_fract_x
 _atom_site_fract_y
 _atom_site_fract_z
 _atom_site_occupancy
  La  La0  1  0.68089100  0.68089100  0.75000000  1
  La  La1  1  0.31910900  0.31910900  0.25000000  1
  Mg  Mg0  1  0.98928400  0.32566100  0.75000000  1
  Mg  Mg1  1  0.32566100  0.98928400  0.75000000  1
  Mg  Mg2  1  0.67433900  0.01071600  0.25000000  1
  Mg  Mg3  1  0.01071600  0.67433900  0.25000000  1
loop_
_geom_bond_atom_site_label_1
_geom_bond_atom_site_label_2
_geom_bond_distance
_geom_bond_site_symmetry_2
La0 Mg1 3.355731 1_655
La0 Mg0 3.355731 1_565
La0 Mg1 3.356373 1_555
La0 Mg0 3.356373 1_555
La0 Mg3 3.394436 1_656
La0 Mg3 3.394436 1_655
La0 Mg2 3.394436 1_566
La0 Mg2 3.394436 1_565
La0 La1 3.534740 1_555
La0 La1 3.534740 1_556
La0 Mg0 3.603789 1_455
La0 Mg1 3.603789 1_545
La1 Mg2 3.355731 1_455
La1 Mg3 3.355731 1_545
La1 Mg2 3.356373 1_555
La1 Mg3 3.356373 1_555
La1 Mg1 3.394436 1_545
La1 Mg1 3.394436 1_544
La1 Mg0 3.394436 1_455
La1 Mg0 3.394436 1_454
La1 Mg2 3.603789 1_565
La1 Mg3 3.603789 1_655
Mg0 Mg2 3.365429 1_555
Mg0 Mg2 3.365429 1_556
Mg0 Mg1 3.399500 1_645
Mg0 Mg3 3.415660 1_655
Mg0 Mg3 3.415660 1_656
Mg0 Mg1 3.456757 1_545
Mg0 Mg1 3.456757 1_655
Mg1 Mg3 3.365429 1_556
Mg1 Mg3 3.365429 1_555
Mg1 Mg2 3.415660 1_565
Mg1 Mg2 3.415660 1_566
Mg2 Mg3 3.399500 1_645
Mg2 Mg3 3.456757 1_655
Mg2 Mg3 3.456757 1_545
