# generated using pymatgen
data_ZrPRu
_symmetry_space_group_name_H-M   'P 1'
_cell_length_a   6.45437675
_cell_length_b   6.45438533
_cell_length_c   3.80104855
_cell_angle_alpha   90.00000124
_cell_angle_beta   89.99999395
_cell_angle_gamma   120.00046085
_symmetry_Int_Tables_number   1
_chemical_formula_structural   ZrPRu
_chemical_formula_sum   'Zr3 P3 Ru3'
_cell_volume   137.13276514
_cell_formula_units_Z   3
loop_
 _symmetry_equiv_pos_site_id
 _symmetry_equiv_pos_as_xyz
  1  'x, y, z'
loop_
 _atom_site_type_symbol
 _atom_site_label
 _atom_site_symmetry_multiplicity
 _atom_site_fract_x
 _atom_site_fract_y
 _atom_site_fract_z
 _atom_site_occupancy
  Zr  Zr0  1  0.41591515  0.41591479  0.49999991  1
  Zr  Zr1  1  0.58410908  0.99998941  0.49999997  1
  Zr  Zr2  1  0.99998993  0.58410947  0.50000004  1
  P  P0  1  0.66666937  0.33333923  0.00000002  1
  P  P1  1  0.33333952  0.66666839  0.00000002  1
  P  P2  1  0.99999199  0.99999089  0.50000001  1
  Ru  Ru0  1  0.75559660  0.75559752  -0.00000002  1
  Ru  Ru1  1  0.24439352  0.99999571  0.00000006  1
  Ru  Ru2  1  0.99999483  0.24439458  -0.00000000  1
loop_
_geom_bond_atom_site_label_1
_geom_bond_atom_site_label_2
_geom_bond_distance
_geom_bond_site_symmetry_2
P0 Ru0 2.488577 1_555
P0 Ru2 2.488621 1_555
P0 Ru1 2.488663 1_545
P0 Zr2 2.716243 1_554
P0 Zr2 2.716243 1_555
P0 Zr0 2.716263 1_555
P0 Zr0 2.716264 1_554
P0 Zr1 2.716369 1_545
P0 Zr1 2.716369 1_544
P1 Ru0 2.488561 1_555
P1 Ru1 2.488640 1_555
P1 Ru2 2.488658 1_455
P1 Zr1 2.716245 1_555
P1 Zr1 2.716245 1_554
P1 Zr0 2.716261 1_555
P1 Zr0 2.716262 1_554
P1 Zr2 2.716368 1_455
P1 Zr2 2.716368 1_454
P2 Ru0 2.469857 1_556
P2 Ru0 2.469857 1_555
P2 Ru1 2.469883 1_655
P2 Ru1 2.469883 1_656
P2 Ru2 2.469897 1_566
P2 Ru2 2.469897 1_565
P2 Zr2 2.684252 1_555
P2 Zr1 2.684260 1_555
P2 Zr0 2.684510 1_665
Ru0 Ru1 2.732193 1_655
Ru0 Ru2 2.732197 1_565
Ru0 Zr0 2.901501 1_555
Ru0 Zr0 2.901501 1_554
Ru0 Zr1 3.011851 1_555
Ru0 Zr1 3.011851 1_554
Ru0 Zr2 3.011859 1_554
Ru0 Zr2 3.011860 1_555
Ru1 Ru2 2.732218 1_465
Ru1 Zr1 2.901690 1_555
Ru1 Zr1 2.901690 1_554
Ru1 Zr2 3.011872 1_455
Ru1 Zr2 3.011872 1_454
Ru1 Zr0 3.012005 1_565
Ru1 Zr0 3.012006 1_564
Ru2 Zr2 2.901686 1_554
Ru2 Zr2 2.901686 1_555
Ru2 Zr1 3.011868 1_545
Ru2 Zr1 3.011869 1_544
Ru2 Zr0 3.012009 1_655
Ru2 Zr0 3.012009 1_654
