# generated using pymatgen
data_Li9Mn2Co5O16
_symmetry_space_group_name_H-M   'P 1'
_cell_length_a   5.11329792
_cell_length_b   5.11329792
_cell_length_c   20.62390556
_cell_angle_alpha   81.33451307
_cell_angle_beta   81.33451307
_cell_angle_gamma   32.83016054
_symmetry_Int_Tables_number   1
_chemical_formula_structural   Li9Mn2Co5O16
_chemical_formula_sum   'Li9 Mn2 Co5 O16'
_cell_volume   288.71463861
_cell_formula_units_Z   1
loop_
 _symmetry_equiv_pos_site_id
 _symmetry_equiv_pos_as_xyz
  1  'x, y, z'
loop_
 _atom_site_type_symbol
 _atom_site_label
 _atom_site_symmetry_multiplicity
 _atom_site_fract_x
 _atom_site_fract_y
 _atom_site_fract_z
 _atom_site_occupancy
  Li  Li0  1  0.24523000  0.24523000  0.07059300  1
  Li  Li1  1  0.75689600  0.75689600  0.18427000  1
  Li  Li2  1  0.26009200  0.26009200  0.30575300  1
  Li  Li3  1  0.75129600  0.75129600  0.43169300  1
  Li  Li4  1  0.24898800  0.24898800  0.56488000  1
  Li  Li5  1  0.74890200  0.74890200  0.69241000  1
  Li  Li6  1  0.24657600  0.24657600  0.81113700  1
  Li  Li7  1  0.74513400  0.74513400  0.94246100  1
  Li  Li8  1  0.49488400  0.49488400  0.12424300  1
  Mn  Mn0  1  0.98881900  0.98881900  0.00572800  1
  Mn  Mn1  1  0.00211800  0.00211800  0.49913500  1
  Co  Co0  1  0.01405100  0.01405100  0.23699100  1
  Co  Co1  1  0.50261500  0.50261500  0.36878900  1
  Co  Co2  1  0.49884800  0.49884800  0.62699200  1
  Co  Co3  1  0.00113700  0.00113700  0.75067200  1
  Co  Co4  1  0.49708000  0.49708000  0.87670300  1
  O  O0  1  0.38058200  0.38058200  0.97261400  1
  O  O1  1  0.88039100  0.88039100  0.08640300  1
  O  O2  1  0.38979200  0.38979200  0.22135700  1
  O  O3  1  0.88664100  0.88664100  0.34711700  1
  O  O4  1  0.39069700  0.39069700  0.47160500  1
  O  O5  1  0.89229200  0.89229200  0.58669500  1
  O  O6  1  0.38179800  0.38179800  0.72230500  1
  O  O7  1  0.88814100  0.88814100  0.84718700  1
  O  O8  1  0.12601100  0.12601100  0.16005600  1
  O  O9  1  0.61640500  0.61640500  0.28154900  1
  O  O10  1  0.11088900  0.11088900  0.41057100  1
  O  O11  1  0.61560500  0.61560500  0.52539100  1
  O  O12  1  0.11581000  0.11581000  0.65679200  1
  O  O13  1  0.61593000  0.61593000  0.78146300  1
  O  O14  1  0.10127000  0.10127000  0.90957500  1
  O  O15  1  0.60507900  0.60507900  0.02687000  1
loop_
_geom_bond_atom_site_label_1
_geom_bond_atom_site_label_2
_geom_bond_distance
_geom_bond_site_symmetry_2
Li0 O1 2.021909 1_455
Li0 O1 2.021909 1_545
Li0 O8 2.023415 1_555
Li0 O0 2.236829 1_554
Li0 O15 2.276132 1_455
Li0 O15 2.276132 1_545
Li1 O8 2.046295 1_655
Li1 O8 2.046295 1_565
Li1 O2 2.164681 1_655
Li1 O2 2.164681 1_565
Li1 O1 2.184820 1_555
Li1 O9 2.248540 1_555
Li2 O2 1.988149 1_555
Li2 O9 2.131897 1_455
Li2 O9 2.131897 1_545
Li2 O3 2.165534 1_455
Li2 O3 2.165534 1_545
Li2 O10 2.412781 1_555
Li3 O3 2.019363 1_555
Li3 O10 2.088863 1_655
Li3 O10 2.088863 1_565
Li3 O11 2.167494 1_555
Li3 O4 2.233647 1_565
Li3 O4 2.233647 1_655
Li4 O5 2.113125 1_545
Li4 O5 2.113125 1_455
Li4 O12 2.126520 1_555
Li4 O4 2.189294 1_555
Li4 O11 2.190449 1_455
Li4 O11 2.190449 1_545
Li5 O13 2.078969 1_555
Li5 O6 2.102426 1_565
Li5 O6 2.102426 1_655
Li5 O12 2.152549 1_565
Li5 O12 2.152549 1_655
Li5 O5 2.401814 1_555
Li6 O13 2.086006 1_455
Li6 O13 2.086006 1_545
Li6 O6 2.086295 1_555
Li6 O7 2.212160 1_455
Li6 O7 2.212160 1_545
Li6 O14 2.290059 1_555
Li7 O15 2.041278 1_556
Li7 O0 2.121262 1_655
Li7 O0 2.121262 1_565
Li7 O14 2.200082 1_655
Li7 O14 2.200082 1_565
Li7 O7 2.227785 1_555
Li8 O1 2.057628 1_455
Li8 O1 2.057628 1_545
Li8 O2 2.103727 1_555
Li8 O15 2.125913 1_555
Li8 O8 2.141636 1_655
Li8 O8 2.141636 1_565
Mn0 O1 1.828595 1_555
Mn0 O15 1.932621 1_565
Mn0 O15 1.932621 1_655
Mn0 O0 1.977260 1_654
Mn0 O0 1.977260 1_564
Mn0 O14 2.112386 1_664
Mn1 O4 1.949354 1_545
Mn1 O4 1.949354 1_455
Mn1 O11 1.951916 1_545
Mn1 O11 1.951916 1_455
Mn1 O5 1.952069 1_445
Mn1 O10 1.965331 1_555
Co0 O8 1.782259 1_555
Co0 O2 1.949681 1_545
Co0 O2 1.949681 1_455
Co0 O9 2.056813 1_455
Co0 O9 2.056813 1_545
Co0 O3 2.414309 1_445
Co1 O3 1.934375 1_545
Co1 O3 1.934375 1_455
Co1 O9 1.962738 1_555
Co1 O10 2.060628 1_565
Co1 O10 2.060628 1_655
Co1 O4 2.229445 1_555
Co2 O12 2.000920 1_655
Co2 O12 2.000920 1_565
Co2 O5 2.035733 1_455
Co2 O5 2.035733 1_545
Co2 O6 2.115060 1_555
Co2 O11 2.224559 1_555
Co3 O13 1.995989 1_455
Co3 O13 1.995989 1_545
Co3 O6 2.003975 1_545
Co3 O6 2.003975 1_455
Co3 O12 2.080865 1_555
Co3 O7 2.120786 1_445
Co4 O7 1.950627 1_455
Co4 O7 1.950627 1_545
Co4 O14 1.951901 1_655
Co4 O14 1.951901 1_565
Co4 O13 2.120866 1_555
Co4 O0 2.123353 1_555
