# generated using pymatgen
data_YbCuSb2
_symmetry_space_group_name_H-M   'P 1'
_cell_length_a   4.39678400
_cell_length_b   4.39678400
_cell_length_c   9.69371800
_cell_angle_alpha   90.00000000
_cell_angle_beta   90.00000000
_cell_angle_gamma   90.00000000
_symmetry_Int_Tables_number   1
_chemical_formula_structural   YbCuSb2
_chemical_formula_sum   'Yb2 Cu2 Sb4'
_cell_volume   187.39614076
_cell_formula_units_Z   2
loop_
 _symmetry_equiv_pos_site_id
 _symmetry_equiv_pos_as_xyz
  1  'x, y, z'
loop_
 _atom_site_type_symbol
 _atom_site_label
 _atom_site_symmetry_multiplicity
 _atom_site_fract_x
 _atom_site_fract_y
 _atom_site_fract_z
 _atom_site_occupancy
  Yb  Yb0  1  0.00000000  0.50000000  0.73761700  1
  Yb  Yb1  1  0.50000000  0.00000000  0.26238300  1
  Cu  Cu0  1  0.50000000  0.50000000  0.50000000  1
  Cu  Cu1  1  0.00000000  0.00000000  0.50000000  1
  Sb  Sb0  1  0.50000000  0.50000000  0.00000000  1
  Sb  Sb1  1  0.00000000  0.00000000  0.00000000  1
  Sb  Sb2  1  0.00000000  0.50000000  0.34665900  1
  Sb  Sb3  1  0.50000000  0.00000000  0.65334100  1
loop_
_geom_bond_atom_site_label_1
_geom_bond_atom_site_label_2
_geom_bond_distance
_geom_bond_site_symmetry_2
Cu0 Sb3 2.653760 1_565
Cu0 Sb2 2.653760 1_555
Cu0 Sb3 2.653760 1_555
Cu0 Sb2 2.653760 1_655
Cu0 Yb0 3.184108 1_555
Cu0 Yb1 3.184108 1_555
Cu0 Yb0 3.184108 1_655
Cu0 Yb1 3.184108 1_565
Cu1 Sb2 2.653760 1_545
Cu1 Sb2 2.653760 1_555
Cu1 Sb3 2.653760 1_555
Cu1 Sb3 2.653760 1_455
Cu1 Yb1 3.184108 1_455
Cu1 Yb0 3.184108 1_555
Cu1 Yb1 3.184108 1_555
Cu1 Yb0 3.184108 1_545
Sb0 Sb1 3.108996 1_655
Sb0 Sb1 3.108996 1_565
Sb0 Sb1 3.108996 1_555
Sb0 Sb1 3.108996 1_665
Sb0 Yb1 3.361867 1_565
Sb0 Yb1 3.361867 1_555
Sb0 Yb0 3.361867 1_654
Sb0 Yb0 3.361867 1_554
Sb1 Yb1 3.361867 1_455
Sb1 Yb1 3.361867 1_555
Sb1 Yb0 3.361867 1_544
Sb1 Yb0 3.361867 1_554
Sb2 Yb1 3.214539 1_455
Sb2 Yb1 3.214539 1_555
Sb2 Yb1 3.214539 1_465
Sb2 Yb1 3.214539 1_565
Sb3 Yb0 3.214539 1_545
Sb3 Yb0 3.214539 1_555
Sb3 Yb0 3.214539 1_655
Sb3 Yb0 3.214539 1_645
