# generated using pymatgen
data_CsAlF4
_symmetry_space_group_name_H-M   'P 1'
_cell_length_a   10.87159943
_cell_length_b   10.87159943
_cell_length_c   10.87159943
_cell_angle_alpha   112.97590385
_cell_angle_beta   112.97590385
_cell_angle_gamma   102.66863031
_symmetry_Int_Tables_number   1
_chemical_formula_structural   CsAlF4
_chemical_formula_sum   'Cs10 Al10 F40'
_cell_volume   978.85628510
_cell_formula_units_Z   10
loop_
 _symmetry_equiv_pos_site_id
 _symmetry_equiv_pos_as_xyz
  1  'x, y, z'
loop_
 _atom_site_type_symbol
 _atom_site_label
 _atom_site_symmetry_multiplicity
 _atom_site_fract_x
 _atom_site_fract_y
 _atom_site_fract_z
 _atom_site_occupancy
  Cs  Cs0  1  0.02403200  0.84338500  0.50000000  1
  Cs  Cs1  1  0.34338500  0.52403200  0.50000000  1
  Cs  Cs2  1  0.15661500  0.65661500  0.18064700  1
  Cs  Cs3  1  0.47596800  0.97596800  0.81935300  1
  Cs  Cs4  1  0.84338500  0.34338500  0.81935300  1
  Cs  Cs5  1  0.65661500  0.47596800  0.50000000  1
  Cs  Cs6  1  0.97596800  0.15661500  0.50000000  1
  Cs  Cs7  1  0.52403200  0.02403200  0.18064700  1
  Cs  Cs8  1  0.75000000  0.75000000  0.00000000  1
  Cs  Cs9  1  0.25000000  0.25000000  0.00000000  1
  Al  Al0  1  0.57550600  0.70802900  0.28353500  1
  Al  Al1  1  0.42449400  0.29197100  0.71646500  1
  Al  Al2  1  0.29197100  0.57550600  0.86747700  1
  Al  Al3  1  0.70802900  0.42449400  0.13252300  1
  Al  Al4  1  0.92449400  0.20802900  0.13252300  1
  Al  Al5  1  0.79197100  0.92449400  0.71646500  1
  Al  Al6  1  0.20802900  0.07550600  0.28353500  1
  Al  Al7  1  0.07550600  0.79197100  0.86747700  1
  Al  Al8  1  0.50000000  0.00000000  0.50000000  1
  Al  Al9  1  0.00000000  0.50000000  0.50000000  1
  F  F0  1  0.13058500  0.63058500  0.50000000  1
  F  F1  1  0.36941500  0.86941500  0.50000000  1
  F  F2  1  0.86941500  0.36941500  0.50000000  1
  F  F3  1  0.63058500  0.13058500  0.50000000  1
  F  F4  1  0.78416000  0.28416000  0.06832000  1
  F  F5  1  0.71584000  0.78416000  0.50000000  1
  F  F6  1  0.28416000  0.21584000  0.50000000  1
  F  F7  1  0.21584000  0.71584000  0.93168000  1
  F  F8  1  0.16022100  0.44654700  0.86828600  1
  F  F9  1  0.57826100  0.29193500  0.13171400  1
  F  F10  1  0.55345300  0.42173900  0.71367400  1
  F  F11  1  0.70806500  0.83977900  0.28632600  1
  F  F12  1  0.07826100  0.94654700  0.28632600  1
  F  F13  1  0.05345300  0.33977900  0.13171400  1
  F  F14  1  0.92173900  0.05345300  0.71367400  1
  F  F15  1  0.20806500  0.92173900  0.86828600  1
  F  F16  1  0.83977900  0.55345300  0.13171400  1
  F  F17  1  0.42173900  0.70806500  0.86828600  1
  F  F18  1  0.44654700  0.57826100  0.28632600  1
  F  F19  1  0.29193500  0.16022100  0.71367400  1
  F  F20  1  0.00048600  0.34522700  0.34571300  1
  F  F21  1  0.65477300  0.00048600  0.65525900  1
  F  F22  1  0.34522700  0.99951400  0.34474100  1
  F  F23  1  0.99951400  0.65477300  0.65428700  1
  F  F24  1  0.15477300  0.49951400  0.65428700  1
  F  F25  1  0.84522700  0.50048600  0.34571300  1
  F  F26  1  0.49951400  0.84522700  0.34474100  1
  F  F27  1  0.50048600  0.15477300  0.65525900  1
  F  F28  1  0.06817100  0.14295700  0.21112900  1
  F  F29  1  0.85704300  0.06817100  0.92521400  1
  F  F30  1  0.14295700  0.93182900  0.07478600  1
  F  F31  1  0.93182900  0.85704300  0.78887100  1
  F  F32  1  0.35704300  0.43182900  0.78887100  1
  F  F33  1  0.64295700  0.56817100  0.21112900  1
  F  F34  1  0.43182900  0.64295700  0.07478600  1
  F  F35  1  0.56817100  0.35704300  0.92521400  1
  F  F36  1  0.33977900  0.20806500  0.28632600  1
  F  F37  1  0.79193500  0.07826100  0.13171400  1
  F  F38  1  0.94654700  0.66022100  0.86828600  1
  F  F39  1  0.66022100  0.79193500  0.71367400  1
loop_
_geom_bond_atom_site_label_1
_geom_bond_atom_site_label_2
_geom_bond_distance
_geom_bond_site_symmetry_2
Cs0 F0 2.805272 1_555
Cs0 F19 3.132846 1_565
Cs0 F12 3.132846 1_555
Cs0 F25 3.143815 1_455
Cs0 F23 3.143815 1_455
Cs0 F5 3.270235 1_455
Cs0 F14 3.292069 1_465
Cs0 F11 3.292069 1_455
Cs0 F16 3.330982 1_455
Cs0 F15 3.330982 1_555
Cs1 F0 2.805272 1_555
Cs1 F39 3.132846 1_555
Cs1 F18 3.132846 1_555
Cs1 F20 3.143815 1_555
Cs1 F24 3.143815 1_555
Cs1 F6 3.270235 1_555
Cs1 F10 3.292069 1_555
Cs1 F36 3.292069 1_555
Cs1 F13 3.330982 1_555
Cs1 F17 3.330982 1_555
Cs2 F1 2.805272 1_555
Cs2 F13 3.132846 1_555
Cs2 F16 3.132846 1_455
Cs2 F26 3.143815 1_555
Cs2 F22 3.143815 1_555
Cs2 F7 3.270235 1_554
Cs2 F38 3.292069 1_454
Cs2 F8 3.292069 1_554
Cs2 F18 3.330982 1_555
Cs2 F12 3.330982 1_555
Cs3 F1 2.805272 1_555
Cs3 F15 3.132846 1_555
Cs3 F17 3.132846 1_555
Cs3 F21 3.143815 1_565
Cs3 F27 3.143815 1_565
Cs3 F4 3.270235 1_566
Cs3 F37 3.292069 1_566
Cs3 F9 3.292069 1_566
Cs3 F39 3.330982 1_555
Cs3 F19 3.330982 1_565
Cs4 F3 2.805272 1_555
Cs4 F38 3.132846 1_555
Cs4 F8 3.132846 1_655
Cs4 F27 3.143815 1_555
Cs4 F21 3.143815 1_555
Cs4 F4 3.270235 1_556
Cs4 F16 3.292069 1_556
Cs4 F13 3.292069 1_656
Cs4 F10 3.330982 1_555
Cs4 F14 3.330982 1_555
Cs5 F2 2.805272 1_555
Cs5 F10 3.132846 1_555
Cs5 F36 3.132846 1_555
Cs5 F23 3.143815 1_555
Cs5 F25 3.143815 1_555
Cs5 F5 3.270235 1_555
Cs5 F39 3.292069 1_555
Cs5 F18 3.292069 1_555
Cs5 F38 3.330982 1_555
Cs5 F9 3.330982 1_555
Cs6 F2 2.805272 1_555
Cs6 F14 3.132846 1_555
Cs6 F11 3.132846 1_545
Cs6 F24 3.143815 1_655
Cs6 F20 3.143815 1_655
Cs6 F6 3.270235 1_655
Cs6 F19 3.292069 1_655
Cs6 F12 3.292069 1_645
Cs6 F8 3.330982 1_655
Cs6 F37 3.330982 1_555
Cs7 F3 2.805272 1_555
Cs7 F37 3.132846 1_555
Cs7 F9 3.132846 1_555
Cs7 F22 3.143815 1_545
Cs7 F26 3.143815 1_545
Cs7 F7 3.270235 1_544
Cs7 F15 3.292069 1_544
Cs7 F17 3.292069 1_544
Cs7 F36 3.330982 1_555
Cs7 F11 3.330982 1_545
Cs8 F38 3.127511 1_554
Cs8 F12 3.127511 1_655
Cs8 F11 3.127511 1_555
Cs8 F17 3.127511 1_554
Cs8 F16 3.127511 1_555
Cs8 F37 3.127511 1_565
Cs8 F10 3.127511 1_554
Cs8 F39 3.127511 1_554
Cs9 F8 3.127511 1_554
Cs9 F36 3.127511 1_555
Cs9 F18 3.127511 1_555
Cs9 F15 3.127511 1_544
Cs9 F9 3.127511 1_555
Cs9 F13 3.127511 1_555
Cs9 F14 3.127511 1_454
Cs9 F19 3.127511 1_554
Al0 F11 1.776481 1_555
Al0 F18 1.776481 1_555
Al0 F33 1.864009 1_555
Al0 F26 1.882788 1_555
Al0 F34 1.893450 1_555
Al0 F5 1.916603 1_555
Al1 F19 1.776481 1_555
Al1 F10 1.776481 1_555
Al1 F32 1.864009 1_555
Al1 F27 1.882788 1_555
Al1 F35 1.893450 1_555
Al1 F6 1.916603 1_555
Al2 F17 1.776481 1_555
Al2 F8 1.776481 1_555
Al2 F34 1.864011 1_556
Al2 F24 1.882788 1_555
Al2 F32 1.893453 1_555
Al2 F7 1.916603 1_555
Al3 F16 1.776481 1_555
Al3 F9 1.776481 1_555
Al3 F35 1.864011 1_554
Al3 F25 1.882788 1_555
Al3 F33 1.893453 1_555
Al3 F4 1.916603 1_555
Al4 F37 1.776481 1_555
Al4 F13 1.776481 1_655
Al4 F29 1.864011 1_554
Al4 F20 1.882788 1_655
Al4 F28 1.893453 1_655
Al4 F4 1.916603 1_555
Al5 F39 1.776481 1_555
Al5 F14 1.776481 1_565
Al5 F31 1.864009 1_555
Al5 F21 1.882788 1_565
Al5 F29 1.893450 1_565
Al5 F5 1.916603 1_555
Al6 F12 1.776481 1_545
Al6 F36 1.776481 1_555
Al6 F28 1.864009 1_555
Al6 F22 1.882788 1_545
Al6 F30 1.893450 1_545
Al6 F6 1.916603 1_555
Al7 F15 1.776481 1_555
Al7 F38 1.776481 1_455
Al7 F30 1.864011 1_556
Al7 F23 1.882788 1_455
Al7 F31 1.893453 1_455
Al7 F7 1.916603 1_555
Al8 F3 1.773946 1_555
Al8 F1 1.773946 1_545
Al8 F21 1.858011 1_555
Al8 F27 1.858011 1_555
Al8 F26 1.858011 1_545
Al8 F22 1.858011 1_545
Al9 F0 1.773946 1_555
Al9 F2 1.773946 1_455
Al9 F23 1.858011 1_455
Al9 F20 1.858011 1_555
Al9 F25 1.858011 1_455
Al9 F24 1.858011 1_555
