# generated using pymatgen
data_Mg3Zn
_symmetry_space_group_name_H-M   'P 1'
_cell_length_a   11.71114812
_cell_length_b   11.71114812
_cell_length_c   11.71114812
_cell_angle_alpha   148.98542049
_cell_angle_beta   127.01544510
_cell_angle_gamma   62.67311290
_symmetry_Int_Tables_number   1
_chemical_formula_structural   Mg3Zn
_chemical_formula_sum   'Mg24 Zn8'
_cell_volume   654.46886448
_cell_formula_units_Z   8
loop_
 _symmetry_equiv_pos_site_id
 _symmetry_equiv_pos_as_xyz
  1  'x, y, z'
loop_
 _atom_site_type_symbol
 _atom_site_label
 _atom_site_symmetry_multiplicity
 _atom_site_fract_x
 _atom_site_fract_y
 _atom_site_fract_z
 _atom_site_occupancy
  Mg  Mg0_0  1  0.17266400  0.00000000  0.17266400  1
  Mg  Mg0_1  1  0.17266400  0.00000000  0.67266400  1
  Mg  Mg0_2  1  0.17266400  0.50000000  0.17266400  1
  Mg  Mg0_3  1  0.17266400  0.50000000  0.67266400  1
  Mg  Mg0_4  1  0.67266400  0.00000000  0.17266400  1
  Mg  Mg0_5  1  0.67266400  0.00000000  0.67266400  1
  Mg  Mg0_6  1  0.67266400  0.50000000  0.17266400  1
  Mg  Mg0_7  1  0.67266400  0.50000000  0.67266400  1
  Mg  Mg1_0  1  0.37693500  0.37919050  0.49774500  1
  Mg  Mg1_1  1  0.37693500  0.37919050  0.99774500  1
  Mg  Mg1_2  1  0.37693500  0.87919050  0.49774500  1
  Mg  Mg1_3  1  0.37693500  0.87919050  0.99774500  1
  Mg  Mg1_4  1  0.87693500  0.37919050  0.49774500  1
  Mg  Mg1_5  1  0.87693500  0.37919050  0.99774500  1
  Mg  Mg1_6  1  0.87693500  0.87919050  0.49774500  1
  Mg  Mg1_7  1  0.87693500  0.87919050  0.99774500  1
  Mg  Mg2_0  1  0.11855450  0.12080950  0.49774500  1
  Mg  Mg2_1  1  0.11855450  0.12080950  0.99774500  1
  Mg  Mg2_2  1  0.11855450  0.62080950  0.49774500  1
  Mg  Mg2_3  1  0.11855450  0.62080950  0.99774500  1
  Mg  Mg2_4  1  0.61855450  0.12080950  0.49774500  1
  Mg  Mg2_5  1  0.61855450  0.12080950  0.99774500  1
  Mg  Mg2_6  1  0.61855450  0.62080950  0.49774500  1
  Mg  Mg2_7  1  0.61855450  0.62080950  0.99774500  1
  Zn  Zn0_0  1  0.41517950  0.25000000  0.16517950  1
  Zn  Zn0_1  1  0.41517950  0.25000000  0.66517950  1
  Zn  Zn0_2  1  0.41517950  0.75000000  0.16517950  1
  Zn  Zn0_3  1  0.41517950  0.75000000  0.66517950  1
  Zn  Zn0_4  1  0.91517950  0.25000000  0.16517950  1
  Zn  Zn0_5  1  0.91517950  0.25000000  0.66517950  1
  Zn  Zn0_6  1  0.91517950  0.75000000  0.16517950  1
  Zn  Zn0_7  1  0.91517950  0.75000000  0.66517950  1
loop_
_geom_bond_atom_site_label_1
_geom_bond_atom_site_label_2
_geom_bond_distance
_geom_bond_site_symmetry_2
Mg0_0 Zn0_1 2.978471 1_555
Mg0_0 Zn0_2 2.978471 1_545
Mg0_0 Mg2_1 3.030067 1_554
Mg0_0 Mg1_7 3.030072 1_444
Mg0_0 Zn0_4 3.112608 1_455
Mg0_0 Zn0_7 3.112608 1_444
Mg0_0 Mg1_3 3.121877 1_544
Mg0_0 Mg1_0 3.121879 1_555
Mg0_0 Mg2_3 3.121883 1_544
Mg0_0 Mg2_0 3.121883 1_555
Mg0_0 Mg0_3 3.131104 1_544
Mg0_0 Mg0_3 3.131104 1_555
Mg0_1 Zn0_0 2.978471 1_556
Mg0_1 Zn0_3 2.978471 1_545
Mg0_1 Mg2_0 3.030067 1_555
Mg0_1 Mg1_6 3.030072 1_445
Mg0_1 Zn0_6 3.112608 1_445
Mg0_1 Zn0_5 3.112608 1_455
Mg0_1 Mg1_2 3.121877 1_545
Mg0_1 Mg1_1 3.121879 1_555
Mg0_1 Mg2_1 3.121883 1_555
Mg0_1 Mg2_2 3.121883 1_545
Mg0_1 Mg0_2 3.131104 1_545
Mg0_1 Mg0_2 3.131104 1_556
Mg0_2 Zn0_3 2.978471 1_555
Mg0_2 Zn0_0 2.978471 1_555
Mg0_2 Mg2_3 3.030067 1_554
Mg0_2 Mg1_5 3.030072 1_454
Mg0_2 Zn0_6 3.112608 1_455
Mg0_2 Zn0_5 3.112608 1_454
Mg0_2 Mg1_1 3.121877 1_554
Mg0_2 Mg1_2 3.121879 1_555
Mg0_2 Mg2_2 3.121883 1_555
Mg0_2 Mg2_1 3.121883 1_554
Mg0_3 Zn0_1 2.978471 1_555
Mg0_3 Zn0_2 2.978471 1_556
Mg0_3 Mg2_2 3.030067 1_555
Mg0_3 Mg1_4 3.030072 1_455
Mg0_3 Zn0_7 3.112608 1_455
Mg0_3 Zn0_4 3.112608 1_455
Mg0_3 Mg1_0 3.121877 1_555
Mg0_3 Mg1_3 3.121879 1_555
Mg0_3 Mg2_3 3.121883 1_555
Mg0_3 Mg2_0 3.121883 1_555
Mg0_4 Zn0_5 2.978471 1_555
Mg0_4 Zn0_6 2.978471 1_545
Mg0_4 Mg2_5 3.030067 1_554
Mg0_4 Mg1_3 3.030072 1_544
Mg0_4 Zn0_0 3.112608 1_555
Mg0_4 Zn0_3 3.112608 1_544
Mg0_4 Mg1_7 3.121877 1_544
Mg0_4 Mg1_4 3.121879 1_555
Mg0_4 Mg2_7 3.121883 1_544
Mg0_4 Mg2_4 3.121883 1_555
Mg0_4 Mg0_7 3.131104 1_555
Mg0_4 Mg0_7 3.131104 1_544
Mg0_5 Zn0_4 2.978471 1_556
Mg0_5 Zn0_7 2.978471 1_545
Mg0_5 Mg2_4 3.030067 1_555
Mg0_5 Mg1_2 3.030072 1_545
Mg0_5 Zn0_1 3.112608 1_555
Mg0_5 Zn0_2 3.112608 1_545
Mg0_5 Mg1_6 3.121877 1_545
Mg0_5 Mg1_5 3.121879 1_555
Mg0_5 Mg2_5 3.121883 1_555
Mg0_5 Mg2_6 3.121883 1_545
Mg0_5 Mg0_6 3.131104 1_545
Mg0_5 Mg0_6 3.131104 1_556
Mg0_6 Zn0_7 2.978471 1_555
Mg0_6 Zn0_4 2.978471 1_555
Mg0_6 Mg2_7 3.030067 1_554
Mg0_6 Mg1_1 3.030072 1_554
Mg0_6 Zn0_2 3.112608 1_555
Mg0_6 Zn0_1 3.112608 1_554
Mg0_6 Mg1_5 3.121877 1_554
Mg0_6 Mg1_6 3.121879 1_555
Mg0_6 Mg2_5 3.121883 1_554
Mg0_6 Mg2_6 3.121883 1_555
Mg0_7 Zn0_5 2.978471 1_555
Mg0_7 Zn0_6 2.978471 1_556
Mg0_7 Mg2_6 3.030067 1_555
Mg0_7 Mg1_0 3.030072 1_555
Mg0_7 Zn0_3 3.112608 1_555
Mg0_7 Zn0_0 3.112608 1_555
Mg0_7 Mg1_4 3.121877 1_555
Mg0_7 Mg1_7 3.121879 1_555
Mg0_7 Mg2_7 3.121883 1_555
Mg0_7 Mg2_4 3.121883 1_555
Mg1_0 Zn0_3 3.006061 1_555
Mg1_0 Zn0_0 3.006062 1_555
Mg1_0 Mg2_2 3.049883 1_555
Mg1_0 Mg2_1 3.049885 1_554
Mg1_0 Mg2_7 3.049888 1_555
Mg1_0 Mg2_4 3.049889 1_555
Mg1_0 Zn0_1 3.120920 1_555
Mg1_0 Mg1_3 3.131104 1_555
Mg1_0 Mg1_3 3.131104 1_544
Mg1_1 Zn0_2 3.006061 1_556
Mg1_1 Zn0_1 3.006062 1_555
Mg1_1 Mg2_3 3.049883 1_555
Mg1_1 Mg2_0 3.049885 1_555
Mg1_1 Mg2_6 3.049888 1_556
Mg1_1 Mg2_5 3.049889 1_555
Mg1_1 Zn0_0 3.120920 1_556
Mg1_1 Mg1_2 3.131104 1_545
Mg1_1 Mg1_2 3.131104 1_556
Mg1_2 Zn0_1 3.006061 1_565
Mg1_2 Zn0_2 3.006062 1_555
Mg1_2 Mg2_0 3.049883 1_565
Mg1_2 Mg2_3 3.049885 1_554
Mg1_2 Mg2_5 3.049888 1_565
Mg1_2 Mg2_6 3.049889 1_555
Mg1_2 Zn0_3 3.120920 1_555
Mg1_3 Zn0_0 3.006061 1_566
Mg1_3 Zn0_3 3.006062 1_555
Mg1_3 Mg2_1 3.049883 1_565
Mg1_3 Mg2_2 3.049885 1_555
Mg1_3 Mg2_4 3.049888 1_566
Mg1_3 Mg2_7 3.049889 1_555
Mg1_3 Zn0_2 3.120920 1_556
Mg1_4 Zn0_7 3.006061 1_555
Mg1_4 Zn0_4 3.006062 1_555
Mg1_4 Mg2_6 3.049883 1_555
Mg1_4 Mg2_5 3.049885 1_554
Mg1_4 Mg2_3 3.049888 1_655
Mg1_4 Mg2_0 3.049889 1_655
Mg1_4 Zn0_5 3.120920 1_555
Mg1_4 Mg1_7 3.131104 1_555
Mg1_4 Mg1_7 3.131104 1_544
Mg1_5 Zn0_6 3.006061 1_556
Mg1_5 Zn0_5 3.006062 1_555
Mg1_5 Mg2_7 3.049883 1_555
Mg1_5 Mg2_4 3.049885 1_555
Mg1_5 Mg2_2 3.049888 1_656
Mg1_5 Mg2_1 3.049889 1_655
Mg1_5 Zn0_4 3.120920 1_556
Mg1_5 Mg1_6 3.131104 1_556
Mg1_5 Mg1_6 3.131104 1_545
Mg1_6 Zn0_5 3.006061 1_565
Mg1_6 Zn0_6 3.006062 1_555
Mg1_6 Mg2_4 3.049883 1_565
Mg1_6 Mg2_7 3.049885 1_554
Mg1_6 Mg2_1 3.049888 1_665
Mg1_6 Mg2_2 3.049889 1_655
Mg1_6 Zn0_7 3.120920 1_555
Mg1_7 Zn0_4 3.006061 1_566
Mg1_7 Zn0_7 3.006062 1_555
Mg1_7 Mg2_5 3.049883 1_565
Mg1_7 Mg2_6 3.049885 1_555
Mg1_7 Mg2_0 3.049888 1_666
Mg1_7 Mg2_3 3.049889 1_655
Mg1_7 Zn0_6 3.120920 1_556
Mg2_0 Zn0_5 3.006058 1_455
Mg2_0 Zn0_6 3.006058 1_445
Mg2_0 Zn0_1 3.120923 1_555
Mg2_0 Mg2_3 3.131104 1_555
Mg2_0 Mg2_3 3.131104 1_544
Mg2_1 Zn0_4 3.006058 1_456
Mg2_1 Zn0_7 3.006058 1_445
Mg2_1 Zn0_0 3.120923 1_556
Mg2_1 Mg2_2 3.131104 1_545
Mg2_1 Mg2_2 3.131104 1_556
Mg2_2 Zn0_7 3.006058 1_455
Mg2_2 Zn0_4 3.006058 1_455
Mg2_2 Zn0_3 3.120923 1_555
Mg2_3 Zn0_6 3.006058 1_456
Mg2_3 Zn0_5 3.006058 1_455
Mg2_3 Zn0_2 3.120923 1_556
Mg2_4 Zn0_1 3.006058 1_555
Mg2_4 Zn0_2 3.006058 1_545
Mg2_4 Zn0_5 3.120923 1_555
Mg2_4 Mg2_7 3.131104 1_544
Mg2_4 Mg2_7 3.131104 1_555
Mg2_5 Zn0_0 3.006058 1_556
Mg2_5 Zn0_3 3.006058 1_545
Mg2_5 Zn0_4 3.120923 1_556
Mg2_5 Mg2_6 3.131104 1_556
Mg2_5 Mg2_6 3.131104 1_545
Mg2_6 Zn0_3 3.006058 1_555
Mg2_6 Zn0_0 3.006058 1_555
Mg2_6 Zn0_7 3.120923 1_555
Mg2_7 Zn0_1 3.006058 1_555
Mg2_7 Zn0_2 3.006058 1_556
Mg2_7 Zn0_6 3.120923 1_556
