# generated using pymatgen
data_Nd3In5
_symmetry_space_group_name_H-M   'P 1'
_cell_length_a   6.56556897
_cell_length_b   6.56557044
_cell_length_c   10.53012007
_cell_angle_alpha   90.00000000
_cell_angle_beta   90.00000000
_cell_angle_gamma   101.56476187
_symmetry_Int_Tables_number   1
_chemical_formula_structural   Nd3In5
_chemical_formula_sum   'Nd6 In10'
_cell_volume   444.70365798
_cell_formula_units_Z   2
loop_
 _symmetry_equiv_pos_site_id
 _symmetry_equiv_pos_as_xyz
  1  'x, y, z'
loop_
 _atom_site_type_symbol
 _atom_site_label
 _atom_site_symmetry_multiplicity
 _atom_site_fract_x
 _atom_site_fract_y
 _atom_site_fract_z
 _atom_site_occupancy
  Nd  Nd0  1  0.63308146  0.63308146  0.25000000  1
  Nd  Nd1  1  0.36691854  0.36691854  0.75000000  1
  Nd  Nd2  1  0.79761686  0.20238214  0.50000000  1
  Nd  Nd3  1  0.79761686  0.20238314  -0.00000000  1
  Nd  Nd4  1  0.20238314  0.79761686  0.50000000  1
  Nd  Nd5  1  0.20238314  0.79761786  -0.00000000  1
  In  In0  1  0.01361568  0.01361668  0.25000000  1
  In  In1  1  0.98638432  0.98638332  0.75000000  1
  In  In2  1  0.30976709  0.30976709  0.05019227  1
  In  In3  1  0.69023291  0.69023291  0.94980773  1
  In  In4  1  0.30976709  0.30976709  0.44980773  1
  In  In5  1  0.69023291  0.69023291  0.55019227  1
  In  In6  1  0.07971646  0.50218165  0.25000000  1
  In  In7  1  0.49781835  0.92028354  0.75000000  1
  In  In8  1  0.92028354  0.49781835  0.75000000  1
  In  In9  1  0.50218165  0.07971646  0.25000000  1
loop_
_geom_bond_atom_site_label_1
_geom_bond_atom_site_label_2
_geom_bond_distance
_geom_bond_site_symmetry_2
In0 In6 3.149535 1_555
In0 In9 3.149541 1_555
In0 Nd0 3.159349 1_445
In0 In4 3.236097 1_555
In0 In2 3.236097 1_555
In0 Nd2 3.343962 1_455
In0 Nd3 3.343965 1_455
In0 Nd5 3.343968 1_545
In0 Nd4 3.343971 1_545
In0 In9 3.470997 1_455
In0 In6 3.471006 1_545
In1 In8 3.149535 1_555
In1 In7 3.149541 1_555
In1 Nd1 3.159349 1_665
In1 In5 3.236097 1_555
In1 In3 3.236097 1_555
In1 Nd5 3.343962 1_656
In1 Nd4 3.343965 1_655
In1 Nd2 3.343968 1_565
In1 Nd3 3.343971 1_566
In1 In7 3.470997 1_655
In1 In8 3.471006 1_565
In2 In6 3.011508 1_555
In2 In9 3.011508 1_555
In2 Nd1 3.196474 1_554
In2 In3 3.330953 1_554
In2 Nd5 3.336560 1_545
In2 Nd3 3.336566 1_455
In2 Nd0 3.410600 1_555
In2 Nd3 3.455596 1_555
In2 Nd5 3.455603 1_555
In3 In8 3.011508 1_555
In3 In7 3.011508 1_555
In3 Nd0 3.196474 1_556
In3 Nd5 3.336566 1_656
In3 Nd3 3.336566 1_566
In3 Nd1 3.410600 1_555
In3 Nd3 3.455597 1_556
In3 Nd5 3.455599 1_556
In4 In6 3.011508 1_555
In4 In9 3.011508 1_555
In4 Nd1 3.196474 1_555
In4 In5 3.330953 1_555
In4 Nd2 3.336566 1_455
In4 Nd4 3.336566 1_545
In4 Nd0 3.410600 1_555
In4 Nd4 3.455597 1_555
In4 Nd2 3.455599 1_555
In5 In8 3.011508 1_555
In5 In7 3.011508 1_555
In5 Nd0 3.196474 1_555
In5 Nd2 3.336560 1_565
In5 Nd4 3.336566 1_655
In5 Nd1 3.410600 1_555
In5 Nd4 3.455596 1_555
In5 Nd2 3.455603 1_555
In6 Nd0 3.216854 1_455
In6 Nd4 3.273366 1_555
In6 Nd5 3.273369 1_555
In6 Nd0 3.561811 1_555
In6 Nd3 3.573978 1_455
In6 Nd2 3.573980 1_455
In7 Nd1 3.216854 1_565
In7 Nd5 3.273365 1_556
In7 Nd4 3.273366 1_555
In7 Nd1 3.561812 1_555
In7 Nd2 3.573975 1_565
In7 Nd3 3.573977 1_566
In8 Nd1 3.216854 1_655
In8 Nd3 3.273366 1_556
In8 Nd2 3.273369 1_555
In8 Nd1 3.561811 1_555
In8 Nd4 3.573978 1_655
In8 Nd5 3.573980 1_656
In9 Nd0 3.216854 1_545
In9 Nd2 3.273365 1_555
In9 Nd3 3.273366 1_555
In9 Nd0 3.561812 1_555
In9 Nd5 3.573975 1_545
In9 Nd4 3.573977 1_545
