# generated using pymatgen
data_Th(Se2O5)2
_symmetry_space_group_name_H-M   'P 1'
_cell_length_a   12.07859600
_cell_length_b   12.61361200
_cell_length_c   13.25522100
_cell_angle_alpha   90.00000000
_cell_angle_beta   90.00000000
_cell_angle_gamma   90.00000000
_symmetry_Int_Tables_number   1
_chemical_formula_structural   Th(Se2O5)2
_chemical_formula_sum   'Th8 Se32 O80'
_cell_volume   2019.49552971
_cell_formula_units_Z   8
loop_
 _symmetry_equiv_pos_site_id
 _symmetry_equiv_pos_as_xyz
  1  'x, y, z'
loop_
 _atom_site_type_symbol
 _atom_site_label
 _atom_site_symmetry_multiplicity
 _atom_site_fract_x
 _atom_site_fract_y
 _atom_site_fract_z
 _atom_site_occupancy
  Th  Th0  1  0.74436500  0.79014000  0.76742700  1
  Th  Th1  1  0.75563500  0.29014000  0.23257300  1
  Th  Th2  1  0.24436500  0.20986000  0.73257300  1
  Th  Th3  1  0.25563500  0.70986000  0.26742700  1
  Th  Th4  1  0.25563500  0.20986000  0.23257300  1
  Th  Th5  1  0.24436500  0.70986000  0.76742700  1
  Th  Th6  1  0.75563500  0.79014000  0.26742700  1
  Th  Th7  1  0.74436500  0.29014000  0.73257300  1
  Se  Se0  1  0.76336500  0.01322300  0.58060900  1
  Se  Se1  1  0.73663500  0.51322300  0.41939100  1
  Se  Se2  1  0.26336500  0.98677700  0.91939100  1
  Se  Se3  1  0.23663500  0.48677700  0.08060900  1
  Se  Se4  1  0.23663500  0.98677700  0.41939100  1
  Se  Se5  1  0.26336500  0.48677700  0.58060900  1
  Se  Se6  1  0.73663500  0.01322300  0.08060900  1
  Se  Se7  1  0.76336500  0.51322300  0.91939100  1
  Se  Se8  1  0.51183900  0.76389200  0.45989900  1
  Se  Se9  1  0.98816100  0.26389200  0.54010100  1
  Se  Se10  1  0.01183900  0.23610800  0.04010100  1
  Se  Se11  1  0.48816100  0.73610800  0.95989900  1
  Se  Se12  1  0.48816100  0.23610800  0.54010100  1
  Se  Se13  1  0.01183900  0.73610800  0.45989900  1
  Se  Se14  1  0.98816100  0.76389200  0.95989900  1
  Se  Se15  1  0.51183900  0.26389200  0.04010100  1
  Se  Se16  1  0.88682000  0.04606500  0.36843100  1
  Se  Se17  1  0.61318000  0.54606500  0.63156900  1
  Se  Se18  1  0.38682000  0.95393500  0.13156900  1
  Se  Se19  1  0.11318000  0.45393500  0.86843100  1
  Se  Se20  1  0.11318000  0.95393500  0.63156900  1
  Se  Se21  1  0.38682000  0.45393500  0.36843100  1
  Se  Se22  1  0.61318000  0.04606500  0.86843100  1
  Se  Se23  1  0.88682000  0.54606500  0.13156900  1
  Se  Se24  1  0.45486800  0.90328400  0.65230600  1
  Se  Se25  1  0.04513200  0.40328400  0.34769400  1
  Se  Se26  1  0.95486800  0.09671600  0.84769400  1
  Se  Se27  1  0.54513200  0.59671600  0.15230600  1
  Se  Se28  1  0.54513200  0.09671600  0.34769400  1
  Se  Se29  1  0.95486800  0.59671600  0.65230600  1
  Se  Se30  1  0.04513200  0.90328400  0.15230600  1
  Se  Se31  1  0.45486800  0.40328400  0.84769400  1
  O  O0  1  0.77709400  0.96438400  0.35142600  1
  O  O1  1  0.72290600  0.46438400  0.64857400  1
  O  O2  1  0.27709400  0.03561600  0.14857400  1
  O  O3  1  0.22290600  0.53561600  0.85142600  1
  O  O4  1  0.22290600  0.03561600  0.64857400  1
  O  O5  1  0.27709400  0.53561600  0.35142600  1
  O  O6  1  0.72290600  0.96438400  0.85142600  1
  O  O7  1  0.77709400  0.46438400  0.14857400  1
  O  O8  1  0.82200100  0.91203800  0.64617600  1
  O  O9  1  0.67799900  0.41203800  0.35382400  1
  O  O10  1  0.32200100  0.08796200  0.85382400  1
  O  O11  1  0.17799900  0.58796200  0.14617600  1
  O  O12  1  0.17799900  0.08796200  0.35382400  1
  O  O13  1  0.32200100  0.58796200  0.64617600  1
  O  O14  1  0.67799900  0.91203800  0.14617600  1
  O  O15  1  0.82200100  0.41203800  0.85382400  1
  O  O16  1  0.59253800  0.89565600  0.67864000  1
  O  O17  1  0.90746200  0.39565600  0.32136000  1
  O  O18  1  0.09253800  0.10434400  0.82136000  1
  O  O19  1  0.40746200  0.60434400  0.17864000  1
  O  O20  1  0.40746200  0.10434400  0.32136000  1
  O  O21  1  0.09253800  0.60434400  0.67864000  1
  O  O22  1  0.90746200  0.89565600  0.17864000  1
  O  O23  1  0.59253800  0.39565600  0.82136000  1
  O  O24  1  0.45314500  0.88866100  0.51290800  1
  O  O25  1  0.04685500  0.38866100  0.48709200  1
  O  O26  1  0.95314500  0.11133900  0.98709200  1
  O  O27  1  0.54685500  0.61133900  0.01290800  1
  O  O28  1  0.54685500  0.11133900  0.48709200  1
  O  O29  1  0.95314500  0.61133900  0.51290800  1
  O  O30  1  0.04685500  0.88866100  0.01290800  1
  O  O31  1  0.45314500  0.38866100  0.98709200  1
  O  O32  1  0.89232800  0.04578300  0.50657000  1
  O  O33  1  0.60767200  0.54578300  0.49343000  1
  O  O34  1  0.39232800  0.95421700  0.99343000  1
  O  O35  1  0.10767200  0.45421700  0.00657000  1
  O  O36  1  0.10767200  0.95421700  0.49343000  1
  O  O37  1  0.39232800  0.45421700  0.50657000  1
  O  O38  1  0.60767200  0.04578300  0.00657000  1
  O  O39  1  0.89232800  0.54578300  0.99343000  1
  O  O40  1  0.90595500  0.71738800  0.68531700  1
  O  O41  1  0.59404500  0.21738800  0.31468300  1
  O  O42  1  0.40595500  0.28261200  0.81468300  1
  O  O43  1  0.09404500  0.78261200  0.18531700  1
  O  O44  1  0.09404500  0.28261200  0.31468300  1
  O  O45  1  0.40595500  0.78261200  0.68531700  1
  O  O46  1  0.59404500  0.71738800  0.18531700  1
  O  O47  1  0.90595500  0.21738800  0.81468300  1
  O  O48  1  0.83514100  0.17032400  0.35015100  1
  O  O49  1  0.66485900  0.67032400  0.64984900  1
  O  O50  1  0.33514100  0.82967600  0.14984900  1
  O  O51  1  0.16485900  0.32967600  0.85015100  1
  O  O52  1  0.16485900  0.82967600  0.64984900  1
  O  O53  1  0.33514100  0.32967600  0.35015100  1
  O  O54  1  0.66485900  0.17032400  0.85015100  1
  O  O55  1  0.83514100  0.67032400  0.14984900  1
  O  O56  1  0.88825700  0.82146700  0.88846700  1
  O  O57  1  0.61174300  0.32146700  0.11153300  1
  O  O58  1  0.38825700  0.17853300  0.61153300  1
  O  O59  1  0.11174300  0.67853300  0.38846700  1
  O  O60  1  0.11174300  0.17853300  0.11153300  1
  O  O61  1  0.38825700  0.67853300  0.88846700  1
  O  O62  1  0.61174300  0.82146700  0.38846700  1
  O  O63  1  0.88825700  0.32146700  0.61153300  1
  O  O64  1  0.59173200  0.76490300  0.87772700  1
  O  O65  1  0.90826800  0.26490300  0.12227300  1
  O  O66  1  0.09173200  0.23509700  0.62227300  1
  O  O67  1  0.40826800  0.73509700  0.37772700  1
  O  O68  1  0.40826800  0.23509700  0.12227300  1
  O  O69  1  0.09173200  0.73509700  0.87772700  1
  O  O70  1  0.90826800  0.76490300  0.37772700  1
  O  O71  1  0.59173200  0.26490300  0.62227300  1
  O  O72  1  0.77401700  0.11782800  0.65941600  1
  O  O73  1  0.72598300  0.61782800  0.34058400  1
  O  O74  1  0.27401700  0.88217200  0.84058400  1
  O  O75  1  0.22598300  0.38217200  0.15941600  1
  O  O76  1  0.22598300  0.88217200  0.34058400  1
  O  O77  1  0.27401700  0.38217200  0.65941600  1
  O  O78  1  0.72598300  0.11782800  0.15941600  1
  O  O79  1  0.77401700  0.61782800  0.84058400  1
loop_
_geom_bond_atom_site_label_1
_geom_bond_atom_site_label_2
_geom_bond_distance
_geom_bond_site_symmetry_2
O0 Se16 1.693761 1_565
O0 Th6 2.477383 1_555
O1 Se17 1.693761 1_555
O1 Th7 2.477383 1_555
O2 Se18 1.693761 1_545
O2 Th4 2.477383 1_555
O3 Se19 1.693761 1_555
O3 Th5 2.477383 1_555
O4 Se20 1.693761 1_545
O4 Th2 2.477383 1_555
O5 Se21 1.693761 1_555
O5 Th3 2.477383 1_555
O6 Se22 1.693761 1_565
O6 Th0 2.477383 1_555
O7 Se23 1.693761 1_555
O7 Th1 2.477383 1_555
O8 Se0 1.698797 1_565
O8 Th0 2.413835 1_555
O9 Se1 1.698797 1_555
O9 Th1 2.413835 1_555
O10 Se2 1.698797 1_545
O10 Th2 2.413835 1_555
O11 Se3 1.698797 1_555
O11 Th3 2.413835 1_555
O12 Se4 1.698797 1_545
O12 Th4 2.413835 1_555
O13 Se5 1.698797 1_555
O13 Th5 2.413835 1_555
O14 Se6 1.698797 1_565
O14 Th6 2.413835 1_555
O15 Se7 1.698797 1_555
O15 Th7 2.413835 1_555
O16 Se24 1.701825 1_555
O16 Th0 2.553331 1_555
O17 Se25 1.701825 1_655
O17 Th1 2.553331 1_555
O18 Se26 1.701825 1_455
O18 Th2 2.553331 1_555
O19 Se27 1.701825 1_555
O19 Th3 2.553331 1_555
O20 Se28 1.701825 1_555
O20 Th4 2.553331 1_555
O21 Se29 1.701825 1_455
O21 Th5 2.553331 1_555
O22 Se30 1.701825 1_655
O22 Th6 2.553331 1_555
O23 Se31 1.701825 1_555
O23 Th7 2.553331 1_555
O24 Se24 1.857051 1_555
O24 Se8 1.863630 1_555
O25 Se25 1.857051 1_555
O25 Se9 1.863630 1_455
O26 Se26 1.857051 1_555
O26 Se10 1.863630 1_656
O27 Se27 1.857051 1_555
O27 Se11 1.863630 1_554
O28 Se28 1.857051 1_555
O28 Se12 1.863630 1_555
O29 Se29 1.857051 1_555
O29 Se13 1.863630 1_655
O30 Se30 1.857051 1_555
O30 Se14 1.863630 1_454
O31 Se31 1.857051 1_555
O31 Se15 1.863630 1_556
O32 Se16 1.832275 1_555
O32 Se0 1.886327 1_555
O33 Se17 1.832275 1_555
O33 Se1 1.886327 1_555
O34 Se18 1.832275 1_556
O34 Se2 1.886327 1_555
O35 Se19 1.832275 1_554
O35 Se3 1.886327 1_555
O36 Se20 1.832275 1_555
O36 Se4 1.886327 1_555
O37 Se21 1.832275 1_555
O37 Se5 1.886327 1_555
O38 Se22 1.832275 1_554
O38 Se6 1.886327 1_555
O39 Se23 1.832275 1_556
O39 Se7 1.886327 1_555
O40 Se29 1.690364 1_555
O40 Th0 2.415811 1_555
O41 Se28 1.690364 1_555
O41 Th1 2.415811 1_555
O42 Se31 1.690364 1_555
O42 Th2 2.415811 1_555
O43 Se30 1.690364 1_555
O43 Th3 2.415811 1_555
O44 Se25 1.690364 1_555
O44 Th4 2.415811 1_555
O45 Se24 1.690364 1_555
O45 Th5 2.415811 1_555
O46 Se27 1.690364 1_555
O46 Th6 2.415811 1_555
O47 Se26 1.690364 1_555
O47 Th7 2.415811 1_555
O48 Se16 1.704392 1_555
O48 Th1 2.373873 1_555
O49 Se17 1.704392 1_555
O49 Th0 2.373873 1_555
O50 Se18 1.704392 1_555
O50 Th3 2.373873 1_555
O51 Se19 1.704392 1_555
O51 Th2 2.373873 1_555
O52 Se20 1.704392 1_555
O52 Th5 2.373873 1_555
O53 Se21 1.704392 1_555
O53 Th4 2.373873 1_555
O54 Se22 1.704392 1_555
O54 Th7 2.373873 1_555
O55 Se23 1.704392 1_555
O55 Th6 2.373873 1_555
O56 Se14 1.697072 1_555
O56 Th0 2.398118 1_555
O57 Se15 1.697072 1_555
O57 Th1 2.398118 1_555
O58 Se12 1.697072 1_555
O58 Th2 2.398118 1_555
O59 Se13 1.697072 1_555
O59 Th3 2.398118 1_555
O60 Se10 1.697072 1_555
O60 Th4 2.398118 1_555
O61 Se11 1.697072 1_555
O61 Th5 2.398118 1_555
O62 Se8 1.697072 1_555
O62 Th6 2.398118 1_555
O63 Se9 1.697072 1_555
O63 Th7 2.398118 1_555
O64 Se11 1.698021 1_555
O64 Th0 2.374397 1_555
O65 Se10 1.698021 1_655
O65 Th1 2.374397 1_555
O66 Se9 1.698021 1_455
O66 Th2 2.374397 1_555
O67 Se8 1.698021 1_555
O67 Th3 2.374397 1_555
O68 Se15 1.698021 1_555
O68 Th4 2.374397 1_555
O69 Se14 1.698021 1_455
O69 Th5 2.374397 1_555
O70 Se13 1.698021 1_655
O70 Th6 2.374397 1_555
O71 Se12 1.698021 1_555
O71 Th7 2.374397 1_555
O72 Se0 1.687807 1_555
O72 Th7 2.406786 1_555
O73 Se1 1.687807 1_555
O73 Th6 2.406786 1_555
O74 Se2 1.687807 1_555
O74 Th5 2.406786 1_555
O75 Se3 1.687807 1_555
O75 Th4 2.406786 1_555
O76 Se4 1.687807 1_555
O76 Th3 2.406786 1_555
O77 Se5 1.687807 1_555
O77 Th2 2.406786 1_555
O78 Se6 1.687807 1_555
O78 Th1 2.406786 1_555
O79 Se7 1.687807 1_555
O79 Th0 2.406786 1_555
