# generated using pymatgen
data_Ag3Ge
_symmetry_space_group_name_H-M   'P 1'
_cell_length_a   5.97792569
_cell_length_b   5.97792569
_cell_length_c   18.97508200
_cell_angle_alpha   90.00000000
_cell_angle_beta   90.00000000
_cell_angle_gamma   120.00001873
_symmetry_Int_Tables_number   1
_chemical_formula_structural   Ag3Ge
_chemical_formula_sum   'Ag24 Ge8'
_cell_volume   587.23946685
_cell_formula_units_Z   8
loop_
 _symmetry_equiv_pos_site_id
 _symmetry_equiv_pos_as_xyz
  1  'x, y, z'
loop_
 _atom_site_type_symbol
 _atom_site_label
 _atom_site_symmetry_multiplicity
 _atom_site_fract_x
 _atom_site_fract_y
 _atom_site_fract_z
 _atom_site_occupancy
  Ag  Ag0_0  1  0.16666650  0.33333350  0.00000000  1
  Ag  Ag0_1  1  0.16666650  0.33333350  0.50000000  1
  Ag  Ag0_2  1  0.16666650  0.83333350  0.00000000  1
  Ag  Ag0_3  1  0.16666650  0.83333350  0.50000000  1
  Ag  Ag0_4  1  0.66666650  0.33333350  0.00000000  1
  Ag  Ag0_5  1  0.66666650  0.33333350  0.50000000  1
  Ag  Ag0_6  1  0.66666650  0.83333350  0.00000000  1
  Ag  Ag0_7  1  0.66666650  0.83333350  0.50000000  1
  Ag  Ag1_0  1  0.33333350  0.16666650  0.37441200  1
  Ag  Ag1_1  1  0.33333350  0.16666650  0.87441200  1
  Ag  Ag1_2  1  0.33333350  0.66666650  0.37441200  1
  Ag  Ag1_3  1  0.33333350  0.66666650  0.87441200  1
  Ag  Ag1_4  1  0.83333350  0.16666650  0.37441200  1
  Ag  Ag1_5  1  0.83333350  0.16666650  0.87441200  1
  Ag  Ag1_6  1  0.83333350  0.66666650  0.37441200  1
  Ag  Ag1_7  1  0.83333350  0.66666650  0.87441200  1
  Ag  Ag2_0  1  0.33333350  0.16666650  0.12558800  1
  Ag  Ag2_1  1  0.33333350  0.16666650  0.62558800  1
  Ag  Ag2_2  1  0.33333350  0.66666650  0.12558800  1
  Ag  Ag2_3  1  0.33333350  0.66666650  0.62558800  1
  Ag  Ag2_4  1  0.83333350  0.16666650  0.12558800  1
  Ag  Ag2_5  1  0.83333350  0.16666650  0.62558800  1
  Ag  Ag2_6  1  0.83333350  0.66666650  0.12558800  1
  Ag  Ag2_7  1  0.83333350  0.66666650  0.62558800  1
  Ge  Ge0_0  1  0.16666650  0.33333350  0.25000000  1
  Ge  Ge0_1  1  0.16666650  0.33333350  0.75000000  1
  Ge  Ge0_2  1  0.16666650  0.83333350  0.25000000  1
  Ge  Ge0_3  1  0.16666650  0.83333350  0.75000000  1
  Ge  Ge0_4  1  0.66666650  0.33333350  0.25000000  1
  Ge  Ge0_5  1  0.66666650  0.33333350  0.75000000  1
  Ge  Ge0_6  1  0.66666650  0.83333350  0.25000000  1
  Ge  Ge0_7  1  0.66666650  0.83333350  0.75000000  1
loop_
_geom_bond_atom_site_label_1
_geom_bond_atom_site_label_2
_geom_bond_distance
_geom_bond_site_symmetry_2
Ag0_0 Ag2_4 2.942253 1_455
Ag0_0 Ag2_2 2.942253 1_555
Ag0_0 Ag1_5 2.942253 1_454
Ag0_0 Ag1_3 2.942253 1_554
Ag0_0 Ag2_0 2.942256 1_555
Ag0_0 Ag1_1 2.942256 1_554
Ag0_0 Ag0_6 2.988962 1_445
Ag0_0 Ag0_6 2.988962 1_555
Ag0_0 Ag0_2 2.988963 1_545
Ag0_0 Ag0_4 2.988963 1_555
Ag0_0 Ag0_2 2.988963 1_555
Ag0_0 Ag0_4 2.988963 1_455
Ag0_1 Ag1_4 2.942253 1_455
Ag0_1 Ag1_2 2.942253 1_555
Ag0_1 Ag2_3 2.942253 1_555
Ag0_1 Ag2_5 2.942253 1_455
Ag0_1 Ag1_0 2.942256 1_555
Ag0_1 Ag2_1 2.942256 1_555
Ag0_1 Ag0_7 2.988962 1_555
Ag0_1 Ag0_7 2.988962 1_445
Ag0_1 Ag0_5 2.988963 1_555
Ag0_1 Ag0_3 2.988963 1_545
Ag0_1 Ag0_5 2.988963 1_455
Ag0_1 Ag0_3 2.988963 1_555
Ag0_2 Ag2_6 2.942253 1_455
Ag0_2 Ag1_7 2.942253 1_454
Ag0_2 Ag2_0 2.942253 1_565
Ag0_2 Ag1_1 2.942253 1_564
Ag0_2 Ag2_2 2.942256 1_555
Ag0_2 Ag1_3 2.942256 1_554
Ag0_2 Ag0_4 2.988962 1_565
Ag0_2 Ag0_4 2.988962 1_455
Ag0_2 Ag0_6 2.988963 1_555
Ag0_2 Ag0_6 2.988963 1_455
Ag0_3 Ag1_6 2.942253 1_455
Ag0_3 Ag1_0 2.942253 1_565
Ag0_3 Ag2_7 2.942253 1_455
Ag0_3 Ag2_1 2.942253 1_565
Ag0_3 Ag1_2 2.942256 1_555
Ag0_3 Ag2_3 2.942256 1_555
Ag0_3 Ag0_5 2.988962 1_565
Ag0_3 Ag0_5 2.988962 1_455
Ag0_3 Ag0_7 2.988963 1_555
Ag0_3 Ag0_7 2.988963 1_455
Ag0_4 Ag2_6 2.942253 1_555
Ag0_4 Ag2_0 2.942253 1_555
Ag0_4 Ag1_7 2.942253 1_554
Ag0_4 Ag1_1 2.942253 1_554
Ag0_4 Ag2_4 2.942256 1_555
Ag0_4 Ag1_5 2.942256 1_554
Ag0_4 Ag0_6 2.988963 1_545
Ag0_4 Ag0_6 2.988963 1_555
Ag0_5 Ag1_0 2.942253 1_555
Ag0_5 Ag1_6 2.942253 1_555
Ag0_5 Ag2_1 2.942253 1_555
Ag0_5 Ag2_7 2.942253 1_555
Ag0_5 Ag1_4 2.942256 1_555
Ag0_5 Ag2_5 2.942256 1_555
Ag0_5 Ag0_7 2.988963 1_545
Ag0_5 Ag0_7 2.988963 1_555
Ag0_6 Ag2_2 2.942253 1_555
Ag0_6 Ag2_4 2.942253 1_565
Ag0_6 Ag1_3 2.942253 1_554
Ag0_6 Ag1_5 2.942253 1_564
Ag0_6 Ag2_6 2.942256 1_555
Ag0_6 Ag1_7 2.942256 1_554
Ag0_7 Ag1_2 2.942253 1_555
Ag0_7 Ag1_4 2.942253 1_565
Ag0_7 Ag2_3 2.942253 1_555
Ag0_7 Ag2_5 2.942253 1_565
Ag0_7 Ag1_6 2.942256 1_555
Ag0_7 Ag2_7 2.942256 1_555
Ag1_0 Ge0_4 2.924209 1_555
Ag1_0 Ge0_2 2.924209 1_545
Ag1_0 Ge0_0 2.924212 1_555
Ag1_0 Ag1_6 2.988962 1_555
Ag1_0 Ag1_6 2.988962 1_445
Ag1_0 Ag1_2 2.988963 1_555
Ag1_0 Ag1_4 2.988963 1_455
Ag1_0 Ag1_4 2.988963 1_555
Ag1_0 Ag1_2 2.988963 1_545
Ag1_1 Ge0_3 2.924209 1_545
Ag1_1 Ge0_5 2.924209 1_555
Ag1_1 Ge0_1 2.924212 1_555
Ag1_1 Ag1_7 2.988962 1_445
Ag1_1 Ag1_7 2.988962 1_555
Ag1_1 Ag1_3 2.988963 1_555
Ag1_1 Ag1_5 2.988963 1_455
Ag1_1 Ag1_3 2.988963 1_545
Ag1_1 Ag1_5 2.988963 1_555
Ag1_2 Ge0_0 2.924209 1_555
Ag1_2 Ge0_6 2.924209 1_555
Ag1_2 Ge0_2 2.924212 1_555
Ag1_2 Ag1_4 2.988962 1_455
Ag1_2 Ag1_4 2.988962 1_565
Ag1_2 Ag1_6 2.988963 1_455
Ag1_2 Ag1_6 2.988963 1_555
Ag1_3 Ge0_1 2.924209 1_555
Ag1_3 Ge0_7 2.924209 1_555
Ag1_3 Ge0_3 2.924212 1_555
Ag1_3 Ag1_5 2.988962 1_455
Ag1_3 Ag1_5 2.988962 1_565
Ag1_3 Ag1_7 2.988963 1_455
Ag1_3 Ag1_7 2.988963 1_555
Ag1_4 Ge0_6 2.924209 1_545
Ag1_4 Ge0_0 2.924209 1_655
Ag1_4 Ge0_4 2.924212 1_555
Ag1_4 Ag1_6 2.988963 1_555
Ag1_4 Ag1_6 2.988963 1_545
Ag1_5 Ge0_7 2.924209 1_545
Ag1_5 Ge0_1 2.924209 1_655
Ag1_5 Ge0_5 2.924212 1_555
Ag1_5 Ag1_7 2.988963 1_555
Ag1_5 Ag1_7 2.988963 1_545
Ag1_6 Ge0_2 2.924209 1_655
Ag1_6 Ge0_4 2.924209 1_555
Ag1_6 Ge0_6 2.924212 1_555
Ag1_7 Ge0_5 2.924209 1_555
Ag1_7 Ge0_3 2.924209 1_655
Ag1_7 Ge0_7 2.924212 1_555
Ag2_0 Ge0_2 2.924209 1_545
Ag2_0 Ge0_4 2.924209 1_555
Ag2_0 Ge0_0 2.924212 1_555
Ag2_0 Ag2_6 2.988962 1_555
Ag2_0 Ag2_6 2.988962 1_445
Ag2_0 Ag2_4 2.988963 1_455
Ag2_0 Ag2_2 2.988963 1_555
Ag2_0 Ag2_2 2.988963 1_545
Ag2_0 Ag2_4 2.988963 1_555
Ag2_1 Ge0_3 2.924209 1_545
Ag2_1 Ge0_5 2.924209 1_555
Ag2_1 Ge0_1 2.924212 1_555
Ag2_1 Ag2_7 2.988962 1_445
Ag2_1 Ag2_7 2.988962 1_555
Ag2_1 Ag2_3 2.988963 1_555
Ag2_1 Ag2_5 2.988963 1_455
Ag2_1 Ag2_5 2.988963 1_555
Ag2_1 Ag2_3 2.988963 1_545
Ag2_2 Ge0_6 2.924209 1_555
Ag2_2 Ge0_0 2.924209 1_555
Ag2_2 Ge0_2 2.924212 1_555
Ag2_2 Ag2_4 2.988962 1_455
Ag2_2 Ag2_4 2.988962 1_565
Ag2_2 Ag2_6 2.988963 1_455
Ag2_2 Ag2_6 2.988963 1_555
Ag2_3 Ge0_1 2.924209 1_555
Ag2_3 Ge0_7 2.924209 1_555
Ag2_3 Ge0_3 2.924212 1_555
Ag2_3 Ag2_5 2.988962 1_455
Ag2_3 Ag2_5 2.988962 1_565
Ag2_3 Ag2_7 2.988963 1_455
Ag2_3 Ag2_7 2.988963 1_555
Ag2_4 Ge0_0 2.924209 1_655
Ag2_4 Ge0_6 2.924209 1_545
Ag2_4 Ge0_4 2.924212 1_555
Ag2_4 Ag2_6 2.988963 1_555
Ag2_4 Ag2_6 2.988963 1_545
Ag2_5 Ge0_7 2.924209 1_545
Ag2_5 Ge0_1 2.924209 1_655
Ag2_5 Ge0_5 2.924212 1_555
Ag2_5 Ag2_7 2.988963 1_555
Ag2_5 Ag2_7 2.988963 1_545
Ag2_6 Ge0_2 2.924209 1_655
Ag2_6 Ge0_4 2.924209 1_555
Ag2_6 Ge0_6 2.924212 1_555
Ag2_7 Ge0_5 2.924209 1_555
Ag2_7 Ge0_3 2.924209 1_655
Ag2_7 Ge0_7 2.924212 1_555
Ge0_0 Ge0_6 2.988962 1_555
Ge0_0 Ge0_6 2.988962 1_445
Ge0_0 Ge0_4 2.988963 1_555
Ge0_0 Ge0_2 2.988963 1_545
Ge0_0 Ge0_4 2.988963 1_455
Ge0_0 Ge0_2 2.988963 1_555
Ge0_1 Ge0_7 2.988962 1_445
Ge0_1 Ge0_7 2.988962 1_555
Ge0_1 Ge0_3 2.988963 1_545
Ge0_1 Ge0_5 2.988963 1_555
Ge0_1 Ge0_3 2.988963 1_555
Ge0_1 Ge0_5 2.988963 1_455
Ge0_2 Ge0_4 2.988962 1_565
Ge0_2 Ge0_4 2.988962 1_455
Ge0_2 Ge0_6 2.988963 1_555
Ge0_2 Ge0_6 2.988963 1_455
Ge0_3 Ge0_5 2.988962 1_565
Ge0_3 Ge0_5 2.988962 1_455
Ge0_3 Ge0_7 2.988963 1_555
Ge0_3 Ge0_7 2.988963 1_455
Ge0_4 Ge0_6 2.988963 1_545
Ge0_4 Ge0_6 2.988963 1_555
Ge0_5 Ge0_7 2.988963 1_545
Ge0_5 Ge0_7 2.988963 1_555
