# generated using pymatgen
data_Dy2ZrS5
_symmetry_space_group_name_H-M   'P 1'
_cell_length_a   7.25198941
_cell_length_b   7.74101973
_cell_length_c   11.56380665
_cell_angle_alpha   90.00000000
_cell_angle_beta   90.00000000
_cell_angle_gamma   90.00000000
_symmetry_Int_Tables_number   1
_chemical_formula_structural   Dy2ZrS5
_chemical_formula_sum   'Dy8 Zr4 S20'
_cell_volume   649.16658522
_cell_formula_units_Z   4
loop_
 _symmetry_equiv_pos_site_id
 _symmetry_equiv_pos_as_xyz
  1  'x, y, z'
loop_
 _atom_site_type_symbol
 _atom_site_label
 _atom_site_symmetry_multiplicity
 _atom_site_fract_x
 _atom_site_fract_y
 _atom_site_fract_z
 _atom_site_occupancy
  Dy  Dy0  1  0.52107512  0.49737868  0.32090126  1
  Dy  Dy1  1  0.97892488  0.00262132  0.82090126  1
  Dy  Dy2  1  0.47892488  0.99737868  0.67909874  1
  Dy  Dy3  1  0.02107512  0.50262132  0.17909874  1
  Dy  Dy4  1  0.47892488  0.50262132  0.67909874  1
  Dy  Dy5  1  0.02107512  0.99737868  0.17909874  1
  Dy  Dy6  1  0.52107512  0.00262132  0.32090126  1
  Dy  Dy7  1  0.97892488  0.49737868  0.82090126  1
  Zr  Zr0  1  0.07789857  0.75000000  0.49373312  1
  Zr  Zr1  1  0.42210143  0.75000000  0.99373312  1
  Zr  Zr2  1  0.92210143  0.25000000  0.50626688  1
  Zr  Zr3  1  0.57789857  0.25000000  0.00626688  1
  S  S0  1  0.83931459  0.96304948  0.59468786  1
  S  S1  1  0.66068541  0.53695052  0.09468786  1
  S  S2  1  0.16068541  0.46304948  0.40531214  1
  S  S3  1  0.33931459  0.03695052  0.90531214  1
  S  S4  1  0.16068541  0.03695052  0.40531214  1
  S  S5  1  0.33931459  0.46304948  0.90531214  1
  S  S6  1  0.83931459  0.53695052  0.59468786  1
  S  S7  1  0.66068541  0.96304948  0.09468786  1
  S  S8  1  0.83153991  0.75000000  0.31792265  1
  S  S9  1  0.66846009  0.75000000  0.81792265  1
  S  S10  1  0.16846009  0.25000000  0.68207735  1
  S  S11  1  0.33153991  0.25000000  0.18207735  1
  S  S12  1  0.44971594  0.75000000  0.49723209  1
  S  S13  1  0.05028406  0.75000000  0.99723209  1
  S  S14  1  0.55028406  0.25000000  0.50276791  1
  S  S15  1  0.94971594  0.25000000  0.00276791  1
  S  S16  1  0.19104118  0.75000000  0.70840707  1
  S  S17  1  0.30895882  0.75000000  0.20840707  1
  S  S18  1  0.80895882  0.25000000  0.29159293  1
  S  S19  1  0.69104118  0.25000000  0.79159293  1
loop_
_geom_bond_atom_site_label_1
_geom_bond_atom_site_label_2
_geom_bond_distance
_geom_bond_site_symmetry_2
Dy0 S2 2.802502 1_555
Dy0 S17 2.807608 1_555
Dy0 S1 2.821660 1_555
Dy0 S11 2.851920 1_555
Dy0 S14 2.852168 1_555
Dy0 S18 2.853167 1_555
Dy0 S12 2.872231 1_555
Dy0 S8 2.982372 1_555
Dy1 S3 2.802502 1_655
Dy1 S16 2.807608 1_645
Dy1 S0 2.821660 1_545
Dy1 S10 2.851920 1_655
Dy1 S15 2.852168 1_556
Dy1 S19 2.853167 1_555
Dy1 S13 2.872231 1_645
Dy1 S9 2.982372 1_545
Dy2 S0 2.802502 1_555
Dy2 S19 2.807608 1_565
Dy2 S3 2.821660 1_565
Dy2 S9 2.851920 1_555
Dy2 S12 2.852168 1_555
Dy2 S16 2.853167 1_555
Dy2 S14 2.872231 1_565
Dy2 S10 2.982372 1_565
Dy3 S1 2.802502 1_455
Dy3 S18 2.807608 1_455
Dy3 S2 2.821660 1_555
Dy3 S8 2.851920 1_455
Dy3 S13 2.852168 1_554
Dy3 S17 2.853167 1_555
Dy3 S15 2.872231 1_455
Dy3 S11 2.982372 1_555
Dy4 S6 2.802502 1_555
Dy4 S19 2.807608 1_555
Dy4 S5 2.821660 1_555
Dy4 S9 2.851920 1_555
Dy4 S12 2.852168 1_555
Dy4 S16 2.853167 1_555
Dy4 S14 2.872231 1_555
Dy4 S10 2.982372 1_555
Dy5 S7 2.802502 1_455
Dy5 S18 2.807608 1_465
Dy5 S4 2.821660 1_565
Dy5 S8 2.851920 1_455
Dy5 S13 2.852168 1_554
Dy5 S17 2.853167 1_555
Dy5 S15 2.872231 1_465
Dy5 S11 2.982372 1_565
Dy6 S4 2.802502 1_555
Dy6 S17 2.807608 1_545
Dy6 S7 2.821660 1_545
Dy6 S11 2.851920 1_555
Dy6 S14 2.852168 1_555
Dy6 S18 2.853167 1_555
Dy6 S12 2.872231 1_545
Dy6 S8 2.982372 1_545
Dy7 S5 2.802502 1_655
Dy7 S16 2.807608 1_655
Dy7 S6 2.821660 1_555
Dy7 S10 2.851920 1_655
Dy7 S15 2.852168 1_556
Dy7 S19 2.853167 1_555
Dy7 S13 2.872231 1_655
Dy7 S9 2.982372 1_555
S0 Zr2 2.517944 1_565
S0 Zr0 2.660154 1_655
S1 Zr3 2.517944 1_555
S1 Zr1 2.660154 1_554
S2 Zr0 2.517944 1_555
S2 Zr2 2.660154 1_455
S3 Zr1 2.517944 1_545
S3 Zr3 2.660154 1_556
S4 Zr0 2.517944 1_545
S4 Zr2 2.660154 1_455
S5 Zr1 2.517944 1_555
S5 Zr3 2.660154 1_556
S6 Zr2 2.517944 1_555
S6 Zr0 2.660154 1_655
S7 Zr3 2.517944 1_565
S7 Zr1 2.660154 1_554
S8 Zr0 2.706501 1_655
S9 Zr1 2.706501 1_555
S10 Zr2 2.706501 1_455
S11 Zr3 2.706501 1_555
S12 Zr0 2.696719 1_555
S13 Zr1 2.696719 1_555
S14 Zr2 2.696719 1_555
S15 Zr3 2.696719 1_555
S16 Zr0 2.614533 1_555
S17 Zr1 2.614533 1_554
S18 Zr2 2.614533 1_555
S19 Zr3 2.614533 1_556
