# generated using pymatgen
data_SrLaCuS3
_symmetry_space_group_name_H-M   'P 1'
_cell_length_a   4.13698300
_cell_length_b   11.23063500
_cell_length_c   11.65317700
_cell_angle_alpha   90.00000000
_cell_angle_beta   90.00000000
_cell_angle_gamma   90.00000000
_symmetry_Int_Tables_number   1
_chemical_formula_structural   SrLaCuS3
_chemical_formula_sum   'Sr4 La4 Cu4 S12'
_cell_volume   541.41762819
_cell_formula_units_Z   4
loop_
 _symmetry_equiv_pos_site_id
 _symmetry_equiv_pos_as_xyz
  1  'x, y, z'
loop_
 _atom_site_type_symbol
 _atom_site_label
 _atom_site_symmetry_multiplicity
 _atom_site_fract_x
 _atom_site_fract_y
 _atom_site_fract_z
 _atom_site_occupancy
  Sr  Sr0  1  0.25000000  0.31866500  0.00767000  1
  Sr  Sr1  1  0.25000000  0.81866500  0.49233000  1
  Sr  Sr2  1  0.75000000  0.68133500  0.99233000  1
  Sr  Sr3  1  0.75000000  0.18133500  0.50767000  1
  La  La0  1  0.25000000  0.48973500  0.68313900  1
  La  La1  1  0.25000000  0.98973500  0.81686100  1
  La  La2  1  0.75000000  0.51026500  0.31686100  1
  La  La3  1  0.75000000  0.01026500  0.18313900  1
  Cu  Cu0  1  0.25000000  0.24475300  0.28835300  1
  Cu  Cu1  1  0.25000000  0.74475300  0.21164700  1
  Cu  Cu2  1  0.75000000  0.75524700  0.71164700  1
  Cu  Cu3  1  0.75000000  0.25524700  0.78835300  1
  S  S0  1  0.25000000  0.22356000  0.69569300  1
  S  S1  1  0.25000000  0.72356000  0.80430700  1
  S  S2  1  0.75000000  0.77644000  0.30430700  1
  S  S3  1  0.75000000  0.27644000  0.19569300  1
  S  S4  1  0.25000000  0.05082500  0.35879900  1
  S  S5  1  0.25000000  0.55082500  0.14120100  1
  S  S6  1  0.75000000  0.94917500  0.64120100  1
  S  S7  1  0.75000000  0.44917500  0.85879900  1
  S  S8  1  0.25000000  0.38376000  0.44132600  1
  S  S9  1  0.25000000  0.88376000  0.05867400  1
  S  S10  1  0.75000000  0.61624000  0.55867400  1
  S  S11  1  0.75000000  0.11624000  0.94132600  1
loop_
_geom_bond_atom_site_label_1
_geom_bond_atom_site_label_2
_geom_bond_distance
_geom_bond_site_symmetry_2
La0 S10 2.898419 1_555
La0 S10 2.898419 1_455
La0 S7 2.945564 1_455
La0 S7 2.945564 1_555
La0 S1 2.981546 1_555
La0 S0 2.992892 1_555
La0 S8 3.058921 1_555
La1 S11 2.898419 1_465
La1 S11 2.898419 1_565
La1 S6 2.945564 1_455
La1 S6 2.945564 1_555
La1 S0 2.981546 1_565
La1 S1 2.992892 1_555
La1 S9 3.058921 1_556
La2 S8 2.898419 1_555
La2 S8 2.898419 1_655
La2 S5 2.945564 1_555
La2 S5 2.945564 1_655
La2 S3 2.981546 1_555
La2 S2 2.992892 1_555
La2 S10 3.058921 1_555
La3 S9 2.898419 1_545
La3 S9 2.898419 1_645
La3 S4 2.945564 1_655
La3 S4 2.945564 1_555
La3 S2 2.981546 1_545
La3 S3 2.992892 1_555
La3 S11 3.058921 1_554
Cu0 S4 2.327511 1_555
Cu0 S3 2.360345 1_455
Cu0 S3 2.360345 1_555
Cu0 S8 2.369575 1_555
Cu1 S5 2.327511 1_555
Cu1 S2 2.360345 1_455
Cu1 S2 2.360345 1_555
Cu1 S9 2.369575 1_555
Cu2 S6 2.327511 1_555
Cu2 S1 2.360345 1_555
Cu2 S1 2.360345 1_655
Cu2 S10 2.369575 1_555
Cu3 S7 2.327511 1_555
Cu3 S0 2.360345 1_555
Cu3 S0 2.360345 1_655
Cu3 S11 2.369575 1_555
S0 Sr3 3.050296 1_455
S0 Sr3 3.050296 1_555
S1 Sr2 3.050296 1_455
S1 Sr2 3.050296 1_555
S2 Sr1 3.050296 1_655
S2 Sr1 3.050296 1_555
S3 Sr0 3.050296 1_655
S3 Sr0 3.050296 1_555
S4 Sr1 3.036340 1_545
S4 Sr3 3.071899 1_555
S4 Sr3 3.071899 1_455
S5 Sr0 3.036340 1_555
S5 Sr2 3.071899 1_454
S5 Sr2 3.071899 1_554
S6 Sr3 3.036340 1_565
S6 Sr1 3.071899 1_655
S6 Sr1 3.071899 1_555
S7 Sr2 3.036340 1_555
S7 Sr0 3.071899 1_656
S7 Sr0 3.071899 1_556
S8 Sr3 3.169312 1_555
S8 Sr3 3.169312 1_455
S9 Sr2 3.169312 1_454
S9 Sr2 3.169312 1_554
S10 Sr1 3.169312 1_555
S10 Sr1 3.169312 1_655
S11 Sr0 3.169312 1_556
S11 Sr0 3.169312 1_656
