# generated using pymatgen
data_BaCa(CuO2)4
_symmetry_space_group_name_H-M   'P 1'
_cell_length_a   5.38284654
_cell_length_b   5.38284654
_cell_length_c   7.75776700
_cell_angle_alpha   90.00000000
_cell_angle_beta   90.00000000
_cell_angle_gamma   120.00000659
_symmetry_Int_Tables_number   1
_chemical_formula_structural   BaCa(CuO2)4
_chemical_formula_sum   'Ba1 Ca1 Cu4 O8'
_cell_volume   194.66654961
_cell_formula_units_Z   1
loop_
 _symmetry_equiv_pos_site_id
 _symmetry_equiv_pos_as_xyz
  1  'x, y, z'
loop_
 _atom_site_type_symbol
 _atom_site_label
 _atom_site_symmetry_multiplicity
 _atom_site_fract_x
 _atom_site_fract_y
 _atom_site_fract_z
 _atom_site_occupancy
  Ba  Ba0  1  0.00000000  0.00000000  0.00000000  1
  Ca  Ca0  1  0.00000000  0.00000000  0.50000000  1
  Cu  Cu0  1  0.33333300  0.66666700  0.76065800  1
  Cu  Cu1  1  0.66666700  0.33333300  0.76065800  1
  Cu  Cu2  1  0.33333300  0.66666700  0.23934200  1
  Cu  Cu3  1  0.66666700  0.33333300  0.23934200  1
  O  O0  1  0.33086900  0.33086900  0.70144800  1
  O  O1  1  0.66913100  0.00000000  0.70144800  1
  O  O2  1  0.00000000  0.66913100  0.70144800  1
  O  O3  1  0.66913100  0.66913100  0.29855200  1
  O  O4  1  0.00000000  0.33086900  0.29855200  1
  O  O5  1  0.33086900  0.00000000  0.29855200  1
  O  O6  1  0.33333300  0.66666700  0.00000000  1
  O  O7  1  0.66666700  0.33333300  0.00000000  1
loop_
_geom_bond_atom_site_label_1
_geom_bond_atom_site_label_2
_geom_bond_distance
_geom_bond_site_symmetry_2
Ba0 O3 2.921699 1_445
Ba0 O0 2.921699 1_554
Ba0 O1 2.921699 1_454
Ba0 O2 2.921699 1_544
Ba0 O4 2.921699 1_555
Ba0 O5 2.921699 1_555
Ba0 O6 3.107785 1_545
Ba0 O7 3.107785 1_455
Ba0 O6 3.107789 1_445
Ba0 O7 3.107789 1_555
Ba0 O7 3.107789 1_445
Ba0 O6 3.107789 1_555
Ca0 O3 2.369456 1_445
Ca0 O0 2.369456 1_555
Ca0 O1 2.369456 1_455
Ca0 O2 2.369456 1_545
Ca0 O4 2.369456 1_555
Ca0 O5 2.369456 1_555
Cu0 O6 1.856759 1_556
Cu0 O2 1.858604 1_555
Cu0 O1 1.858606 1_565
Cu0 O0 1.858609 1_555
Cu1 O7 1.856759 1_556
Cu1 O1 1.858604 1_555
Cu1 O2 1.858606 1_655
Cu1 O0 1.858609 1_555
Cu2 O6 1.856759 1_555
Cu2 O5 1.858604 1_565
Cu2 O4 1.858606 1_555
Cu2 O3 1.858609 1_555
Cu3 O7 1.856759 1_555
Cu3 O4 1.858604 1_655
Cu3 O5 1.858606 1_555
Cu3 O3 1.858609 1_555
