# generated using pymatgen
data_Tl2S3
_symmetry_space_group_name_H-M   'P 1'
_cell_length_a   9.81045513
_cell_length_b   12.01791922
_cell_length_c   56.82976726
_cell_angle_alpha   90.00000000
_cell_angle_beta   90.00000000
_cell_angle_gamma   114.08926607
_symmetry_Int_Tables_number   1
_chemical_formula_structural   Tl2S3
_chemical_formula_sum   'Tl4 S6'
_cell_volume   6116.77620778
_cell_formula_units_Z   2
loop_
 _symmetry_equiv_pos_site_id
 _symmetry_equiv_pos_as_xyz
  1  'x, y, z'
loop_
 _atom_site_type_symbol
 _atom_site_label
 _atom_site_symmetry_multiplicity
 _atom_site_fract_x
 _atom_site_fract_y
 _atom_site_fract_z
 _atom_site_occupancy
  Tl  Tl0  1  0.00000000  0.00000000  0.50000000  1
  Tl  Tl1  1  0.50000000  0.50000000  0.00000000  1
  Tl  Tl2  1  -0.00000000  0.50000000  0.00000000  1
  Tl  Tl3  1  0.00000000  -0.00000000  0.00000000  1
  S  S0  1  -0.00000000  0.00000000  0.74990164  1
  S  S1  1  -0.00000000  0.00000000  0.25009836  1
  S  S2  1  0.76346261  0.73455269  -0.00000000  1
  S  S3  1  0.23653739  0.26544731  0.00000000  1
  S  S4  1  0.02890992  0.26544731  -0.00000000  1
  S  S5  1  0.97109008  0.73455269  0.00000000  1
loop_
_geom_bond_atom_site_label_1
_geom_bond_atom_site_label_2
_geom_bond_distance
_geom_bond_site_symmetry_2
S2 S5 2.036920 1_555
S2 Tl1 2.945997 1_555
S2 Tl3 3.085246 1_665
S3 S4 2.036920 1_555
S3 Tl1 2.945997 1_555
S3 Tl3 3.085246 1_555
S4 Tl2 2.945997 1_555
S4 Tl3 3.085246 1_555
S5 Tl2 2.945997 1_655
S5 Tl3 3.085246 1_665
