# generated using pymatgen
data_Sr4Sm2MgTa2O12
_symmetry_space_group_name_H-M   'P 1'
_cell_length_a   5.95009865
_cell_length_b   6.27635652
_cell_length_c   8.46083577
_cell_angle_alpha   92.43547219
_cell_angle_beta   88.63982936
_cell_angle_gamma   92.21530350
_symmetry_Int_Tables_number   1
_chemical_formula_structural   Sr4Sm2MgTa2O12
_chemical_formula_sum   'Sr4 Sm2 Mg1 Ta2 O12'
_cell_volume   315.37080263
_cell_formula_units_Z   1
loop_
 _symmetry_equiv_pos_site_id
 _symmetry_equiv_pos_as_xyz
  1  'x, y, z'
loop_
 _atom_site_type_symbol
 _atom_site_label
 _atom_site_symmetry_multiplicity
 _atom_site_fract_x
 _atom_site_fract_y
 _atom_site_fract_z
 _atom_site_occupancy
  Sr  Sr0  1  0.04893600  0.39430800  0.30412200  1
  Sr  Sr1  1  0.98029800  0.56408600  0.74593000  1
  Sr  Sr2  1  0.44780800  0.96079900  0.24298000  1
  Sr  Sr3  1  0.50313100  0.05097200  0.73070500  1
  Sm  Sm0  1  0.00140200  0.98154100  0.50517800  1
  Sm  Sm1  1  0.46297000  0.50382600  0.99246500  1
  Mg  Mg0  1  0.86479300  0.72826900  0.15957300  1
  Ta  Ta0  1  0.97637000  0.05945100  0.97989300  1
  Ta  Ta1  1  0.51358400  0.49972400  0.50331600  1
  O  O0  1  0.90015000  0.03090000  0.22677300  1
  O  O1  1  0.09723200  0.97004400  0.76705300  1
  O  O2  1  0.62988100  0.54970400  0.26339200  1
  O  O3  1  0.40466600  0.46530900  0.72938500  1
  O  O4  1  0.16378000  0.69650100  0.06644800  1
  O  O5  1  0.78689800  0.28199400  0.93241600  1
  O  O6  1  0.32728300  0.21752500  0.45285300  1
  O  O7  1  0.70657700  0.76061100  0.56662100  1
  O  O8  1  0.27372500  0.18919000  0.04823900  1
  O  O9  1  0.71822300  0.81172100  0.96240600  1
  O  O10  1  0.25125300  0.69758900  0.46865900  1
  O  O11  1  0.78479000  0.30468400  0.53909200  1
loop_
_geom_bond_atom_site_label_1
_geom_bond_atom_site_label_2
_geom_bond_distance
_geom_bond_site_symmetry_2
Mg0 O4 1.942406 1_655
Mg0 O0 1.964263 1_565
Mg0 O2 1.971195 1_555
Mg0 O9 1.999108 1_554
Mg0 Sr0 2.747494 1_655
O0 Ta0 2.140438 1_554
O0 Sm0 2.480184 1_645
O0 Sr0 2.481727 1_655
O0 Sr2 2.711550 1_545
O1 Ta0 1.989669 1_465
O1 Sm0 2.305715 1_555
O1 Sr3 2.463462 1_565
O1 Sr1 2.614989 1_455
O2 Ta1 2.160698 1_555
O2 Sm1 2.520635 1_554
O2 Sr0 2.746727 1_655
O2 Sr2 2.850202 1_555
O3 Ta1 2.022534 1_555
O3 Sm1 2.262247 1_555
O3 Sr1 2.622326 1_455
O3 Sr3 2.688249 1_555
O4 Sm1 2.252236 1_554
O4 Ta0 2.710351 1_464
O4 Sr2 2.744302 1_555
O4 Sr0 2.875209 1_555
O4 Sr1 3.019202 1_454
O5 Ta0 1.890554 1_555
O5 Sm1 2.452011 1_555
O5 Sr1 2.634801 1_555
O5 Sr3 2.757375 1_555
O6 Ta1 2.086764 1_555
O6 Sr0 2.432549 1_555
O6 Sm0 2.437719 1_545
O6 Sr2 2.459554 1_545
O6 Sr3 2.850307 1_555
O7 Ta1 2.023853 1_555
O7 Sm0 2.258379 1_655
O7 Sr3 2.567027 1_565
O7 Sr1 2.628162 1_555
O8 Ta0 2.006245 1_454
O8 Sm1 2.296169 1_554
O8 Sr2 2.497817 1_545
O8 Sr0 2.809316 1_555
O8 Sr3 3.090787 1_554
O9 Ta0 2.146002 1_565
O9 Sm1 2.429465 1_555
O9 Sr1 2.830513 1_555
O9 Sr3 2.872941 1_565
O9 Sr2 2.974219 1_556
O10 Ta1 2.065710 1_555
O10 Sm0 2.370224 1_555
O10 Sr0 2.586051 1_555
O10 Sr2 2.784874 1_555
O10 Sr1 2.947514 1_455
O11 Ta1 2.097994 1_555
O11 Sm0 2.447858 1_645
O11 Sr0 2.572414 1_655
O11 Sr1 2.602808 1_555
O11 Sr3 2.802989 1_555
