# generated using pymatgen
data_BaGe7N10
_symmetry_space_group_name_H-M   'P 1'
_cell_length_a   7.14696700
_cell_length_b   7.31781700
_cell_length_c   10.27104617
_cell_angle_alpha   74.04606042
_cell_angle_beta   90.00000000
_cell_angle_gamma   90.00000000
_symmetry_Int_Tables_number   1
_chemical_formula_structural   BaGe7N10
_chemical_formula_sum   'Ba2 Ge14 N20'
_cell_volume   516.48724442
_cell_formula_units_Z   2
loop_
 _symmetry_equiv_pos_site_id
 _symmetry_equiv_pos_as_xyz
  1  'x, y, z'
loop_
 _atom_site_type_symbol
 _atom_site_label
 _atom_site_symmetry_multiplicity
 _atom_site_fract_x
 _atom_site_fract_y
 _atom_site_fract_z
 _atom_site_occupancy
  Ba  Ba0  1  0.92949200  0.04190400  0.66805900  1
  Ba  Ba1  1  0.07050800  0.04190400  0.16805900  1
  Ge  Ge0  1  0.03137200  0.45600900  0.82726900  1
  Ge  Ge1  1  0.96862800  0.45600900  0.32726900  1
  Ge  Ge2  1  0.97052200  0.64983500  0.01650600  1
  Ge  Ge3  1  0.02947800  0.64983500  0.51650600  1
  Ge  Ge4  1  0.60828100  0.89057600  0.07270900  1
  Ge  Ge5  1  0.39171900  0.89057600  0.57270900  1
  Ge  Ge6  1  0.63805000  0.33357700  0.99347800  1
  Ge  Ge7  1  0.36195000  0.33357700  0.49347800  1
  Ge  Ge8  1  0.37483500  0.15073400  0.80966800  1
  Ge  Ge9  1  0.62516500  0.15073400  0.30966800  1
  Ge  Ge10  1  0.38054900  0.70460900  0.88355900  1
  Ge  Ge11  1  0.61945100  0.70460900  0.38355900  1
  Ge  Ge12  1  0.62996100  0.51602900  0.68758700  1
  Ge  Ge13  1  0.37003900  0.51602900  0.18758700  1
  N  N0  1  0.14379000  0.23342500  0.83658600  1
  N  N1  1  0.85621000  0.23342500  0.33658600  1
  N  N2  1  0.87627900  0.42736600  0.98015200  1
  N  N3  1  0.12372100  0.42736600  0.48015200  1
  N  N4  1  0.12653900  0.68423700  0.86126400  1
  N  N5  1  0.87346100  0.68423700  0.36126400  1
  N  N6  1  0.84287200  0.86199800  0.01387400  1
  N  N7  1  0.15712800  0.86199800  0.51387400  1
  N  N8  1  0.50220100  0.71791700  0.72349600  1
  N  N9  1  0.49779900  0.71791700  0.22349600  1
  N  N10  1  0.88417800  0.55996300  0.67359700  1
  N  N11  1  0.11582200  0.55996300  0.17359700  1
  N  N12  1  0.61406900  0.11258000  0.13265000  1
  N  N13  1  0.38593100  0.11258000  0.63265000  1
  N  N14  1  0.41600000  0.92115200  0.94171300  1
  N  N15  1  0.58400000  0.92115200  0.44171300  1
  N  N16  1  0.58989400  0.29304900  0.82390700  1
  N  N17  1  0.41010600  0.29304900  0.32390700  1
  N  N18  1  0.46289300  0.50274300  0.02322700  1
  N  N19  1  0.53710700  0.50274300  0.52322700  1
loop_
_geom_bond_atom_site_label_1
_geom_bond_atom_site_label_2
_geom_bond_distance
_geom_bond_site_symmetry_2
Ba0 N7 2.834448 1_645
Ba0 N0 2.939351 1_655
Ba0 N4 3.149036 1_645
Ba0 N3 3.258174 1_655
Ba0 N13 3.307266 1_655
Ba0 N1 3.347628 1_555
Ba0 N6 3.487368 1_546
Ba1 N6 2.834448 1_445
Ba1 N1 2.939351 1_455
Ba1 N5 3.149036 1_445
Ba1 N2 3.258174 1_454
Ba1 N12 3.307266 1_455
Ba1 N0 3.347628 1_554
Ba1 N7 3.487368 1_545
Ge0 N0 1.795016 1_555
Ge0 N10 1.875254 1_455
Ge0 N2 1.886105 1_455
Ge0 N4 1.922092 1_555
Ge1 N1 1.795016 1_555
Ge1 N11 1.875254 1_655
Ge1 N3 1.886105 1_655
Ge1 N5 1.922092 1_555
Ge2 N6 1.794559 1_555
Ge2 N11 1.879075 1_655
Ge2 N2 1.891456 1_554
Ge2 N4 1.904853 1_654
Ge3 N7 1.794559 1_555
Ge3 N10 1.879075 1_455
Ge3 N3 1.891456 1_555
Ge3 N5 1.904853 1_455
Ge4 N6 1.813675 1_555
Ge4 N9 1.882223 1_555
Ge4 N12 1.889405 1_565
Ge4 N14 1.892973 1_554
Ge5 N7 1.813675 1_555
Ge5 N8 1.882223 1_555
Ge5 N13 1.889405 1_565
Ge5 N15 1.892973 1_555
Ge6 N2 1.826757 1_555
Ge6 N18 1.844144 1_556
Ge6 N12 1.848580 1_556
Ge6 N16 1.877175 1_555
Ge7 N3 1.826757 1_555
Ge7 N19 1.844144 1_555
Ge7 N13 1.848580 1_555
Ge7 N17 1.877175 1_555
Ge8 N0 1.805899 1_555
Ge8 N14 1.869732 1_545
Ge8 N16 1.884711 1_555
Ge8 N13 1.915467 1_555
Ge9 N1 1.805899 1_555
Ge9 N15 1.869732 1_545
Ge9 N17 1.884711 1_555
Ge9 N12 1.915467 1_555
Ge10 N8 1.838528 1_555
Ge10 N4 1.840954 1_555
Ge10 N18 1.849721 1_556
Ge10 N14 1.858039 1_555
Ge11 N9 1.838528 1_555
Ge11 N5 1.840954 1_555
Ge11 N19 1.849721 1_555
Ge11 N15 1.858039 1_555
Ge12 N19 1.841175 1_555
Ge12 N10 1.843819 1_555
Ge12 N16 1.857150 1_555
Ge12 N8 1.857947 1_555
Ge13 N18 1.841175 1_555
Ge13 N11 1.843819 1_555
Ge13 N17 1.857150 1_555
Ge13 N9 1.857947 1_555
