# generated using pymatgen
data_Zr3AlCo8
_symmetry_space_group_name_H-M   'P 1'
_cell_length_a   8.41397875
_cell_length_b   8.41397875
_cell_length_c   8.41397825
_cell_angle_alpha   33.51327694
_cell_angle_beta   33.51327694
_cell_angle_gamma   33.51328026
_symmetry_Int_Tables_number   1
_chemical_formula_structural   Zr3AlCo8
_chemical_formula_sum   'Zr3 Al1 Co8'
_cell_volume   161.73303856
_cell_formula_units_Z   1
loop_
 _symmetry_equiv_pos_site_id
 _symmetry_equiv_pos_as_xyz
  1  'x, y, z'
loop_
 _atom_site_type_symbol
 _atom_site_label
 _atom_site_symmetry_multiplicity
 _atom_site_fract_x
 _atom_site_fract_y
 _atom_site_fract_z
 _atom_site_occupancy
  Zr  Zr0  1  0.37604900  0.37604900  0.37604900  1
  Zr  Zr1  1  0.99452100  0.99452100  0.99452100  1
  Zr  Zr2  1  0.50437200  0.50437200  0.50437200  1
  Al  Al0  1  0.87377600  0.87377600  0.87377600  1
  Co  Co0  1  0.43579300  0.93773900  0.43579300  1
  Co  Co1  1  0.93669900  0.44272300  0.93669900  1
  Co  Co2  1  0.43579300  0.43579300  0.93773900  1
  Co  Co3  1  0.93669900  0.93669900  0.44272300  1
  Co  Co4  1  0.18809000  0.18809000  0.18809000  1
  Co  Co5  1  0.68774600  0.68774600  0.68774600  1
  Co  Co6  1  0.93773900  0.43579300  0.43579300  1
  Co  Co7  1  0.44272300  0.93669900  0.93669900  1
loop_
_geom_bond_atom_site_label_1
_geom_bond_atom_site_label_2
_geom_bond_distance
_geom_bond_site_symmetry_2
Al0 Co3 2.788963 1_555
Al0 Co1 2.788964 1_555
Al0 Co7 2.788964 1_555
Al0 Co4 2.837431 1_665
Al0 Co4 2.837431 1_656
Al0 Co4 2.837431 1_566
Al0 Co6 2.847698 1_556
Al0 Co0 2.847698 1_556
Al0 Co6 2.847698 1_565
Al0 Co0 2.847698 1_655
Al0 Co2 2.847698 1_565
Al0 Co2 2.847698 1_655
Al0 Zr1 2.873986 1_555
Al0 Zr2 2.929710 1_556
Al0 Zr2 2.929710 1_655
Al0 Zr2 2.929710 1_565
Co0 Co4 2.393008 1_565
Co0 Co2 2.416369 1_564
Co0 Co6 2.416370 1_465
Co0 Co2 2.435252 1_555
Co0 Co6 2.435252 1_555
Co0 Co5 2.456675 1_555
Co0 Zr2 2.738603 1_555
Co0 Zr1 2.792069 1_455
Co0 Zr1 2.792069 1_554
Co0 Zr0 2.888751 1_565
Co1 Co3 2.396585 1_555
Co1 Co7 2.396585 1_555
Co1 Co4 2.425971 1_656
Co1 Co5 2.437235 1_555
Co1 Co3 2.455037 1_546
Co1 Co7 2.455037 1_645
Co1 Zr0 2.847647 1_655
Co1 Zr0 2.847647 1_556
Co1 Zr2 2.885776 1_556
Co1 Zr2 2.885776 1_655
Co1 Zr1 2.995146 1_545
Co2 Co4 2.393008 1_556
Co2 Co6 2.416369 1_456
Co2 Co6 2.435252 1_555
Co2 Co5 2.456675 1_555
Co2 Zr2 2.738603 1_555
Co2 Zr1 2.792069 1_455
Co2 Zr1 2.792069 1_545
Co2 Zr0 2.888751 1_556
Co3 Co7 2.396585 1_555
Co3 Co4 2.425971 1_665
Co3 Co5 2.437235 1_555
Co3 Co7 2.455037 1_654
Co3 Zr0 2.847648 1_655
Co3 Zr0 2.847648 1_565
Co3 Zr2 2.885776 1_565
Co3 Zr2 2.885776 1_655
Co3 Zr1 2.995146 1_554
Co4 Co6 2.393008 1_455
Co4 Co7 2.425971 1_544
Co4 Zr2 2.830335 1_554
Co4 Zr2 2.830335 1_545
Co4 Zr2 2.830335 1_455
Co5 Co7 2.437235 1_555
Co5 Co6 2.456675 1_555
Co5 Zr0 2.848033 1_556
Co5 Zr0 2.848033 1_655
Co5 Zr0 2.848033 1_565
Co5 Zr1 2.871530 1_554
Co5 Zr1 2.871530 1_545
Co5 Zr1 2.871530 1_455
Co6 Zr2 2.738603 1_555
Co6 Zr1 2.792069 1_545
Co6 Zr1 2.792069 1_554
Co6 Zr0 2.888751 1_655
Co7 Zr0 2.847647 1_565
Co7 Zr0 2.847647 1_556
Co7 Zr2 2.885776 1_556
Co7 Zr2 2.885776 1_565
Co7 Zr1 2.995146 1_455
