# generated using pymatgen
data_LiEuF2
_symmetry_space_group_name_H-M   'P 1'
_cell_length_a   7.99421046
_cell_length_b   7.99421046
_cell_length_c   7.99421046
_cell_angle_alpha   131.82708071
_cell_angle_beta   131.82708071
_cell_angle_gamma   70.50227159
_symmetry_Int_Tables_number   1
_chemical_formula_structural   LiEuF2
_chemical_formula_sum   'Li4 Eu4 F8'
_cell_volume   277.95637764
_cell_formula_units_Z   4
loop_
 _symmetry_equiv_pos_site_id
 _symmetry_equiv_pos_as_xyz
  1  'x, y, z'
loop_
 _atom_site_type_symbol
 _atom_site_label
 _atom_site_symmetry_multiplicity
 _atom_site_fract_x
 _atom_site_fract_y
 _atom_site_fract_z
 _atom_site_occupancy
  Li  Li0  1  0.37500000  0.12500000  0.25000000  1
  Li  Li1  1  0.87500000  0.12500000  0.75000000  1
  Li  Li2  1  0.87500000  0.12500000  0.25000000  1
  Li  Li3  1  0.87500000  0.62500000  0.75000000  1
  Eu  Eu0  1  0.87500000  0.62500000  0.25000000  1
  Eu  Eu1  1  0.37500000  0.62500000  0.75000000  1
  Eu  Eu2  1  0.37500000  0.62500000  0.25000000  1
  Eu  Eu3  1  0.37500000  0.12500000  0.75000000  1
  F  F0  1  0.18347100  0.41064700  0.22717600  1
  F  F1  1  0.18347100  0.95629400  0.77282400  1
  F  F2  1  0.16064700  0.43347100  0.72717600  1
  F  F3  1  0.56652900  0.83935300  0.27282400  1
  F  F4  1  0.70629400  0.43347100  0.27282400  1
  F  F5  1  0.56652900  0.29370600  0.72717600  1
  F  F6  1  0.58935300  0.81652900  0.77282400  1
  F  F7  1  0.04370600  0.81652900  0.22717600  1
loop_
_geom_bond_atom_site_label_1
_geom_bond_atom_site_label_2
_geom_bond_distance
_geom_bond_site_symmetry_2
Eu0 F7 2.505160 1_655
Eu0 F4 2.505160 1_555
Eu0 F1 2.532395 1_655
Eu0 F5 2.532395 1_554
Eu0 F0 2.532397 1_655
Eu0 F3 2.532397 1_555
Eu1 F6 2.505153 1_555
Eu1 F2 2.505153 1_555
Eu1 F1 2.532390 1_555
Eu1 F5 2.532390 1_555
Eu1 F0 2.532397 1_555
Eu1 F3 2.532397 1_556
Eu2 F3 2.505153 1_555
Eu2 F0 2.505153 1_555
Eu2 F4 2.532390 1_555
Eu2 F7 2.532390 1_555
Eu2 F6 2.532397 1_555
Eu2 F2 2.532397 1_554
Eu3 F5 2.505160 1_555
Eu3 F1 2.505160 1_545
Eu3 F4 2.532395 1_556
Eu3 F7 2.532395 1_545
Eu3 F6 2.532397 1_545
Eu3 F2 2.532397 1_555
F0 Li0 2.332650 1_555
F0 Li1 2.332650 1_454
F1 Li0 2.332647 1_566
F1 Li1 2.332652 1_465
F2 Li3 2.332650 1_455
F2 Li2 2.332650 1_455
F3 Li0 2.332650 1_565
F3 Li1 2.332650 1_565
F4 Li3 2.332647 1_555
F4 Li2 2.332652 1_555
F5 Li0 2.332647 1_555
F5 Li1 2.332652 1_555
F6 Li3 2.332650 1_555
F6 Li2 2.332650 1_566
F7 Li3 2.332647 1_454
F7 Li2 2.332652 1_465
