# generated using pymatgen
data_AsRuSe
_symmetry_space_group_name_H-M   'P 1'
_cell_length_a   6.08842939
_cell_length_b   6.10398674
_cell_length_c   6.17474358
_cell_angle_alpha   67.57563112
_cell_angle_beta   90.00000000
_cell_angle_gamma   90.00000000
_symmetry_Int_Tables_number   1
_chemical_formula_structural   AsRuSe
_chemical_formula_sum   'As4 Ru4 Se4'
_cell_volume   212.12416365
_cell_formula_units_Z   4
loop_
 _symmetry_equiv_pos_site_id
 _symmetry_equiv_pos_as_xyz
  1  'x, y, z'
loop_
 _atom_site_type_symbol
 _atom_site_label
 _atom_site_symmetry_multiplicity
 _atom_site_fract_x
 _atom_site_fract_y
 _atom_site_fract_z
 _atom_site_occupancy
  As  As0  1  0.86812375  0.64490019  0.62143609  1
  As  As1  1  0.13187625  0.35509981  0.37856391  1
  As  As2  1  0.36812375  0.35509981  0.87856391  1
  As  As3  1  0.63187625  0.64490019  0.12143609  1
  Ru  Ru0  1  0.50235945  0.77481935  0.70634081  1
  Ru  Ru1  1  0.49764055  0.22518065  0.29365919  1
  Ru  Ru2  1  0.00235945  0.22518065  0.79365919  1
  Ru  Ru3  1  0.99764055  0.77481935  0.20634081  1
  Se  Se0  1  0.12748957  0.84022583  0.81322260  1
  Se  Se1  1  0.87251043  0.15977417  0.18677740  1
  Se  Se2  1  0.62748957  0.15977417  0.68677740  1
  Se  Se3  1  0.37251043  0.84022583  0.31322260  1
loop_
_geom_bond_atom_site_label_1
_geom_bond_atom_site_label_2
_geom_bond_distance
_geom_bond_site_symmetry_2
As0 Ru0 2.485991 1_555
As0 Ru3 2.503895 1_555
As0 Ru2 2.506775 1_655
As0 Se0 2.528784 1_655
As1 Ru1 2.485991 1_555
As1 Ru2 2.503895 1_555
As1 Ru3 2.506775 1_455
As1 Se1 2.528784 1_455
As2 Ru2 2.485991 1_555
As2 Ru1 2.503895 1_556
As2 Ru0 2.506775 1_555
As2 Se2 2.528784 1_555
As3 Ru3 2.485991 1_555
As3 Ru0 2.503895 1_554
As3 Ru1 2.506775 1_555
As3 Se3 2.528784 1_555
Ru0 Se2 2.428953 1_565
Ru0 Se3 2.436663 1_555
Ru0 Se0 2.450546 1_555
Ru1 Se3 2.428953 1_545
Ru1 Se2 2.436663 1_555
Ru1 Se1 2.450546 1_555
Ru2 Se0 2.428953 1_545
Ru2 Se1 2.436663 1_456
Ru2 Se2 2.450546 1_455
Ru3 Se1 2.428953 1_565
Ru3 Se0 2.436663 1_654
Ru3 Se3 2.450546 1_655
