# generated using pymatgen
data_Eu(BiPd)2
_symmetry_space_group_name_H-M   'P 1'
_cell_length_a   4.81867587
_cell_length_b   4.81867587
_cell_length_c   10.84033764
_cell_angle_alpha   90.00000000
_cell_angle_beta   90.00000000
_cell_angle_gamma   90.00000000
_symmetry_Int_Tables_number   1
_chemical_formula_structural   Eu(BiPd)2
_chemical_formula_sum   'Eu2 Bi4 Pd4'
_cell_volume   251.70870648
_cell_formula_units_Z   2
loop_
 _symmetry_equiv_pos_site_id
 _symmetry_equiv_pos_as_xyz
  1  'x, y, z'
loop_
 _atom_site_type_symbol
 _atom_site_label
 _atom_site_symmetry_multiplicity
 _atom_site_fract_x
 _atom_site_fract_y
 _atom_site_fract_z
 _atom_site_occupancy
  Eu  Eu0  1  0.00000000  0.50000000  0.23305643  1
  Eu  Eu1  1  0.50000000  0.00000000  0.76694357  1
  Bi  Bi0  1  -0.00000000  -0.00000000  0.50000000  1
  Bi  Bi1  1  0.50000000  0.50000000  0.50000000  1
  Bi  Bi2  1  -0.00000000  0.50000000  0.87498515  1
  Bi  Bi3  1  0.50000000  -0.00000000  0.12501485  1
  Pd  Pd0  1  0.00000000  -0.00000000  -0.00000000  1
  Pd  Pd1  1  0.50000000  0.50000000  -0.00000000  1
  Pd  Pd2  1  0.00000000  0.50000000  0.62923023  1
  Pd  Pd3  1  0.50000000  0.00000000  0.37076977  1
loop_
_geom_bond_atom_site_label_1
_geom_bond_atom_site_label_2
_geom_bond_distance
_geom_bond_site_symmetry_2
Eu0 Pd0 3.491083 1_565
Eu0 Pd1 3.491083 1_555
Eu0 Pd0 3.491083 1_555
Eu0 Pd1 3.491083 1_455
Eu0 Pd3 3.720006 1_455
Eu0 Pd3 3.720006 1_465
Eu0 Pd3 3.720006 1_555
Eu0 Pd3 3.720006 1_565
Eu1 Pd1 3.491083 1_556
Eu1 Pd0 3.491083 1_556
Eu1 Pd1 3.491083 1_546
Eu1 Pd0 3.491083 1_656
Eu1 Pd2 3.720006 1_545
Eu1 Pd2 3.720006 1_555
Eu1 Pd2 3.720006 1_655
Eu1 Pd2 3.720006 1_645
Bi0 Pd2 2.787011 1_545
Bi0 Pd3 2.787011 1_455
Bi0 Pd2 2.787011 1_555
Bi0 Pd3 2.787011 1_555
Bi0 Eu0 3.765468 1_545
Bi0 Eu1 3.765468 1_555
Bi0 Eu1 3.765468 1_455
Bi0 Eu0 3.765468 1_555
Bi1 Pd3 2.787011 1_565
Bi1 Pd2 2.787011 1_655
Bi1 Pd2 2.787011 1_555
Bi1 Pd3 2.787011 1_555
Bi1 Eu0 3.765468 1_655
Bi1 Eu1 3.765468 1_565
Bi1 Eu1 3.765468 1_555
Bi1 Eu0 3.765468 1_555
Bi2 Pd2 2.664066 1_555
Bi2 Pd1 2.764324 1_456
Bi2 Pd0 2.764324 1_556
Bi2 Pd0 2.764324 1_566
Bi2 Pd1 2.764324 1_556
Bi2 Eu1 3.602991 1_555
Bi2 Eu1 3.602991 1_455
Bi2 Eu1 3.602991 1_465
Bi2 Eu1 3.602991 1_565
Bi3 Pd3 2.664066 1_555
Bi3 Pd0 2.764324 1_555
Bi3 Pd0 2.764324 1_655
Bi3 Pd1 2.764324 1_555
Bi3 Pd1 2.764324 1_545
Bi3 Eu0 3.602991 1_555
Bi3 Eu0 3.602991 1_545
Bi3 Eu0 3.602991 1_655
Bi3 Eu0 3.602991 1_645
