# generated using pymatgen
data_V3CrO8
_symmetry_space_group_name_H-M   'P 1'
_cell_length_a   5.83793329
_cell_length_b   5.80904623
_cell_length_c   6.20419563
_cell_angle_alpha   58.83326102
_cell_angle_beta   57.57776979
_cell_angle_gamma   59.99844032
_symmetry_Int_Tables_number   1
_chemical_formula_structural   V3CrO8
_chemical_formula_sum   'V3 Cr1 O8'
_cell_volume   144.57627447
_cell_formula_units_Z   1
loop_
 _symmetry_equiv_pos_site_id
 _symmetry_equiv_pos_as_xyz
  1  'x, y, z'
loop_
 _atom_site_type_symbol
 _atom_site_label
 _atom_site_symmetry_multiplicity
 _atom_site_fract_x
 _atom_site_fract_y
 _atom_site_fract_z
 _atom_site_occupancy
  V  V0  1  0.92082500  0.83707800  0.91128000  1
  V  V1  1  0.16217600  0.07994000  0.16583600  1
  V  V2  1  0.53961300  0.45692800  0.53831100  1
  Cr  Cr0  1  0.54292700  0.46006400  0.03504700  1
  O  O0  1  0.78773000  0.71270400  0.25641500  1
  O  O1  1  0.28773900  0.21094400  0.25677000  1
  O  O2  1  0.80009700  0.70710100  0.81479900  1
  O  O3  1  0.29385600  0.19986500  0.82109000  1
  O  O4  1  0.30550300  0.69918500  0.28052800  1
  O  O5  1  0.77048800  0.23417200  0.28184100  1
  O  O6  1  0.77684700  0.21818000  0.79331900  1
  O  O7  1  0.31219600  0.68385800  0.79159200  1
loop_
_geom_bond_atom_site_label_1
_geom_bond_atom_site_label_2
_geom_bond_distance
_geom_bond_site_symmetry_2
Cr0 O1 2.025819 1_555
Cr0 O2 2.026240 1_554
Cr0 O6 2.038267 1_554
Cr0 O4 2.042282 1_555
Cr0 O7 2.045457 1_554
Cr0 O5 2.046812 1_555
O0 V0 1.699071 1_554
O0 V2 2.027470 1_555
O1 V1 1.697195 1_555
O2 V0 1.696325 1_555
O3 V1 1.697412 1_556
O3 V2 2.024362 1_555
O4 V1 1.804778 1_565
O4 V2 2.120627 1_555
O5 V1 1.844819 1_655
O5 V2 2.027375 1_555
O6 V0 1.806907 1_545
O6 V2 2.121849 1_555
O7 V0 1.842557 1_455
O7 V2 2.031376 1_555
