# generated using pymatgen
data_NaMg2HSe2O7
_symmetry_space_group_name_H-M   'P 1'
_cell_length_a   6.17777900
_cell_length_b   8.37769200
_cell_length_c   13.53325100
_cell_angle_alpha   90.00000000
_cell_angle_beta   90.00000000
_cell_angle_gamma   90.00000000
_symmetry_Int_Tables_number   1
_chemical_formula_structural   NaMg2HSe2O7
_chemical_formula_sum   'Na4 Mg8 H4 Se8 O28'
_cell_volume   700.42057415
_cell_formula_units_Z   4
loop_
 _symmetry_equiv_pos_site_id
 _symmetry_equiv_pos_as_xyz
  1  'x, y, z'
loop_
 _atom_site_type_symbol
 _atom_site_label
 _atom_site_symmetry_multiplicity
 _atom_site_fract_x
 _atom_site_fract_y
 _atom_site_fract_z
 _atom_site_occupancy
  Na  Na0  1  0.75000000  0.86941100  0.75090500  1
  Na  Na1  1  0.75000000  0.63058900  0.25090500  1
  Na  Na2  1  0.25000000  0.13058900  0.24909500  1
  Na  Na3  1  0.25000000  0.36941100  0.74909500  1
  Mg  Mg0  1  0.00000000  0.50000000  0.00000000  1
  Mg  Mg1  1  0.50000000  0.00000000  0.50000000  1
  Mg  Mg2  1  0.50000000  0.50000000  0.00000000  1
  Mg  Mg3  1  0.00000000  0.00000000  0.50000000  1
  Mg  Mg4  1  0.75000000  0.21369600  0.88774800  1
  Mg  Mg5  1  0.75000000  0.28630400  0.38774800  1
  Mg  Mg6  1  0.25000000  0.78630400  0.11225200  1
  Mg  Mg7  1  0.25000000  0.71369600  0.61225200  1
  H  H0  1  0.75000000  0.52808600  0.84458300  1
  H  H1  1  0.75000000  0.97191400  0.34458300  1
  H  H2  1  0.25000000  0.47191400  0.15541700  1
  H  H3  1  0.25000000  0.02808600  0.65541700  1
  Se  Se0  1  0.25000000  0.11992800  0.97286000  1
  Se  Se1  1  0.25000000  0.38007200  0.47286000  1
  Se  Se2  1  0.75000000  0.88007200  0.02714000  1
  Se  Se3  1  0.75000000  0.61992800  0.52714000  1
  Se  Se4  1  0.75000000  0.22598900  0.67269800  1
  Se  Se5  1  0.75000000  0.27401100  0.17269800  1
  Se  Se6  1  0.25000000  0.77401100  0.32730200  1
  Se  Se7  1  0.25000000  0.72598900  0.82730200  1
  O  O0  1  0.25000000  0.03078000  0.08717500  1
  O  O1  1  0.25000000  0.46922000  0.58717500  1
  O  O2  1  0.75000000  0.96922000  0.91282500  1
  O  O3  1  0.75000000  0.53078000  0.41282500  1
  O  O4  1  0.03097800  0.24939500  0.98122300  1
  O  O5  1  0.46902200  0.25060500  0.48122300  1
  O  O6  1  0.53097800  0.75060500  0.01877700  1
  O  O7  1  0.96902200  0.74939500  0.51877700  1
  O  O8  1  0.96902200  0.75060500  0.01877700  1
  O  O9  1  0.53097800  0.74939500  0.51877700  1
  O  O10  1  0.46902200  0.24939500  0.98122300  1
  O  O11  1  0.03097800  0.25060500  0.48122300  1
  O  O12  1  0.95616200  0.19847900  0.75727000  1
  O  O13  1  0.54383800  0.30152100  0.25727000  1
  O  O14  1  0.45616200  0.80152100  0.24273000  1
  O  O15  1  0.04383800  0.69847900  0.74273000  1
  O  O16  1  0.04383800  0.80152100  0.24273000  1
  O  O17  1  0.45616200  0.69847900  0.74273000  1
  O  O18  1  0.54383800  0.19847900  0.75727000  1
  O  O19  1  0.95616200  0.30152100  0.25727000  1
  O  O20  1  0.75000000  0.04268400  0.60974700  1
  O  O21  1  0.75000000  0.45731600  0.10974700  1
  O  O22  1  0.25000000  0.95731600  0.39025300  1
  O  O23  1  0.25000000  0.54268400  0.89025300  1
  O  O24  1  0.75000000  0.46268700  0.90408900  1
  O  O25  1  0.75000000  0.03731300  0.40408900  1
  O  O26  1  0.25000000  0.53731300  0.09591100  1
  O  O27  1  0.25000000  0.96268700  0.59591100  1
loop_
_geom_bond_atom_site_label_1
_geom_bond_atom_site_label_2
_geom_bond_distance
_geom_bond_site_symmetry_2
Na0 O17 2.314757 1_555
Na0 O15 2.314757 1_655
Na0 O2 2.345419 1_555
Na0 O20 2.399286 1_565
Na1 O14 2.314757 1_555
Na1 O16 2.314757 1_655
Na1 O3 2.345419 1_555
Na1 O21 2.399286 1_555
Na2 O19 2.314757 1_455
Na2 O13 2.314757 1_555
Na2 O0 2.345419 1_555
Na2 O22 2.399286 1_545
Na3 O12 2.314757 1_455
Na3 O18 2.314757 1_555
Na3 O1 2.345419 1_555
Na3 O23 2.399286 1_555
Mg0 O24 2.041519 1_454
Mg0 O26 2.041519 1_555
Mg0 O8 2.123455 1_455
Mg0 O4 2.123455 1_554
Mg0 O21 2.172349 1_455
Mg0 O23 2.172349 1_554
Mg1 O27 2.041519 1_545
Mg1 O25 2.041519 1_555
Mg1 O9 2.123455 1_545
Mg1 O5 2.123455 1_555
Mg1 O22 2.172349 1_545
Mg1 O20 2.172349 1_555
Mg2 O24 2.041519 1_554
Mg2 O26 2.041519 1_555
Mg2 O6 2.123455 1_555
Mg2 O10 2.123455 1_554
Mg2 O21 2.172349 1_555
Mg2 O23 2.172349 1_554
Mg3 O27 2.041519 1_545
Mg3 O25 2.041519 1_455
Mg3 O7 2.123455 1_445
Mg3 O11 2.123455 1_555
Mg3 O22 2.172349 1_545
Mg3 O20 2.172349 1_455
Mg4 O2 2.076071 1_545
Mg4 O24 2.097660 1_555
Mg4 O4 2.168593 1_655
Mg4 O10 2.168593 1_555
Mg4 O18 2.180914 1_555
Mg4 O12 2.180914 1_555
Mg5 O3 2.076071 1_555
Mg5 O25 2.097660 1_555
Mg5 O11 2.168593 1_655
Mg5 O5 2.168593 1_555
Mg5 O19 2.180914 1_555
Mg5 O13 2.180914 1_555
Mg6 O0 2.076071 1_565
Mg6 O26 2.097660 1_555
Mg6 O6 2.168593 1_555
Mg6 O8 2.168593 1_455
Mg6 O16 2.180914 1_555
Mg6 O14 2.180914 1_555
Mg7 O1 2.076071 1_555
Mg7 O27 2.097660 1_555
Mg7 O9 2.168593 1_555
Mg7 O7 2.168593 1_455
Mg7 O15 2.180914 1_555
Mg7 O17 2.180914 1_555
H0 O24 0.974017 1_555
H1 O25 0.974017 1_565
H2 O26 0.974017 1_555
H3 O27 0.974017 1_545
O0 Se0 1.717896 1_554
O1 Se1 1.717896 1_555
O2 Se2 1.717896 1_556
O3 Se3 1.717896 1_555
O4 Se0 1.737826 1_555
O5 Se1 1.737826 1_555
O6 Se2 1.737826 1_555
O7 Se3 1.737826 1_555
O8 Se2 1.737826 1_555
O9 Se3 1.737826 1_555
O10 Se0 1.737826 1_555
O11 Se1 1.737826 1_555
O12 Se4 1.727771 1_555
O13 Se5 1.727771 1_555
O14 Se6 1.727771 1_555
O15 Se7 1.727771 1_555
O16 Se6 1.727771 1_555
O17 Se7 1.727771 1_555
O18 Se4 1.727771 1_555
O19 Se5 1.727771 1_555
O20 Se4 1.756155 1_555
O21 Se5 1.756155 1_555
O22 Se6 1.756155 1_555
O23 Se7 1.756155 1_555
