# generated using pymatgen
data_Li7Eu8Si4Cl7O16
_symmetry_space_group_name_H-M   'P 1'
_cell_length_a   8.56246604
_cell_length_b   9.55657318
_cell_length_c   16.87926955
_cell_angle_alpha   90.00000000
_cell_angle_beta   96.01340056
_cell_angle_gamma   90.00000000
_symmetry_Int_Tables_number   1
_chemical_formula_structural   Li7Eu8Si4Cl7O16
_chemical_formula_sum   'Li14 Eu16 Si8 Cl14 O32'
_cell_volume   1373.59392486
_cell_formula_units_Z   2
loop_
 _symmetry_equiv_pos_site_id
 _symmetry_equiv_pos_as_xyz
  1  'x, y, z'
loop_
 _atom_site_type_symbol
 _atom_site_label
 _atom_site_symmetry_multiplicity
 _atom_site_fract_x
 _atom_site_fract_y
 _atom_site_fract_z
 _atom_site_occupancy
  Li  Li0  1  0.22121134  0.92965877  0.73686297  1
  Li  Li1  1  0.77909915  0.42992432  0.76323572  1
  Li  Li2  1  0.77909915  0.07007568  0.26323572  1
  Li  Li3  1  0.22121134  0.57034123  0.23686297  1
  Li  Li4  1  0.17673506  0.99770568  0.87556251  1
  Li  Li5  1  0.82075355  0.49867608  0.62413228  1
  Li  Li6  1  0.82075355  0.00132392  0.12413228  1
  Li  Li7  1  0.17673506  0.50229432  0.37556251  1
  Li  Li8  1  0.23829119  0.09789942  0.01700900  1
  Li  Li9  1  0.76417211  0.60014894  0.48487789  1
  Li  Li10  1  0.76417211  0.89985106  0.98487789  1
  Li  Li11  1  0.23829119  0.40210058  0.51700900  1
  Li  Li12  1  0.50383246  0.01784177  0.97858263  1
  Li  Li13  1  0.50383246  0.48215823  0.47858263  1
  Eu  Eu0  1  0.15615824  0.75689318  0.05802328  1
  Eu  Eu1  1  0.84678019  0.25434993  0.44279894  1
  Eu  Eu2  1  0.84678019  0.24565007  0.94279894  1
  Eu  Eu3  1  0.15615824  0.74310682  0.55802328  1
  Eu  Eu4  1  0.38853792  0.28575045  0.71182310  1
  Eu  Eu5  1  0.61010455  0.78293528  0.78743456  1
  Eu  Eu6  1  0.61010455  0.71706472  0.28743456  1
  Eu  Eu7  1  0.38853792  0.21424955  0.21182310  1
  Eu  Eu8  1  0.33390137  0.39304876  0.96661553  1
  Eu  Eu9  1  0.66464568  0.89223085  0.53356350  1
  Eu  Eu10  1  0.66464568  0.60776915  0.03356350  1
  Eu  Eu11  1  0.33390137  0.10695124  0.46661553  1
  Eu  Eu12  1  0.13559436  0.62222261  0.80299871  1
  Eu  Eu13  1  0.86583433  0.12214798  0.69612371  1
  Eu  Eu14  1  0.86583433  0.37785202  0.19612371  1
  Eu  Eu15  1  0.13559436  0.87777739  0.30299871  1
  Si  Si0  1  0.37912675  0.79745855  0.92265607  1
  Si  Si1  1  0.62151733  0.29775395  0.57706458  1
  Si  Si2  1  0.62151733  0.20224605  0.07706458  1
  Si  Si3  1  0.37912675  0.70254145  0.42265607  1
  Si  Si4  1  0.88502266  0.74908843  0.67175606  1
  Si  Si5  1  0.11519868  0.24866014  0.82836166  1
  Si  Si6  1  0.11519868  0.25133986  0.32836166  1
  Si  Si7  1  0.88502266  0.75091157  0.17175606  1
  Cl  Cl0  1  0.38710914  0.97882464  0.63333798  1
  Cl  Cl1  1  0.61309964  0.47844917  0.86699594  1
  Cl  Cl2  1  0.61309964  0.02155083  0.36699594  1
  Cl  Cl3  1  0.38710914  0.52117536  0.13333798  1
  Cl  Cl4  1  0.00045707  0.50065775  0.00018676  1
  Cl  Cl5  1  0.00045707  0.99934225  0.50018676  1
  Cl  Cl6  1  0.60035736  0.10070853  0.82466090  1
  Cl  Cl7  1  0.39567048  0.60056878  0.67840857  1
  Cl  Cl8  1  0.39567048  0.89943122  0.17840857  1
  Cl  Cl9  1  0.60035736  0.39929147  0.32466090  1
  Cl  Cl10  1  0.06234319  0.36053716  0.61423690  1
  Cl  Cl11  1  0.93788737  0.86081966  0.88590866  1
  Cl  Cl12  1  0.93788737  0.63918034  0.38590866  1
  Cl  Cl13  1  0.06234319  0.13946284  0.11423690  1
  O  O0  1  0.42994288  0.30816149  0.55532365  1
  O  O1  1  0.57149085  0.81058406  0.94110997  1
  O  O2  1  0.57149085  0.68941594  0.44110997  1
  O  O3  1  0.42994288  0.19183851  0.05532365  1
  O  O4  1  0.84675900  0.61606024  0.72890421  1
  O  O5  1  0.15338680  0.11589439  0.77101713  1
  O  O6  1  0.15338680  0.38410561  0.27101713  1
  O  O7  1  0.84675900  0.88393976  0.22890421  1
  O  O8  1  0.29989095  0.92414267  0.97204029  1
  O  O9  1  0.70341058  0.42145316  0.52617015  1
  O  O10  1  0.70341058  0.07854684  0.02617015  1
  O  O11  1  0.29989095  0.57585733  0.47204029  1
  O  O12  1  0.23825923  0.37878880  0.82009164  1
  O  O13  1  0.76169038  0.87905160  0.67997944  1
  O  O14  1  0.76169038  0.62094840  0.17997944  1
  O  O15  1  0.23825923  0.12121120  0.32009164  1
  O  O16  1  0.32542827  0.82188171  0.82716799  1
  O  O17  1  0.67312908  0.32273606  0.67235836  1
  O  O18  1  0.67312908  0.17726394  0.17235836  1
  O  O19  1  0.32542827  0.67811829  0.32716799  1
  O  O20  1  0.31327079  0.64724322  0.95107949  1
  O  O21  1  0.68843796  0.14598975  0.55021426  1
  O  O22  1  0.68843796  0.35401025  0.05021426  1
  O  O23  1  0.31327079  0.85275678  0.45107949  1
  O  O24  1  0.13969892  0.19574115  0.92266597  1
  O  O25  1  0.86121559  0.69609242  0.57754926  1
  O  O26  1  0.86121559  0.80390758  0.07754926  1
  O  O27  1  0.13969892  0.30425885  0.42266597  1
  O  O28  1  0.06867631  0.70350196  0.19225971  1
  O  O29  1  0.93147122  0.20422201  0.30765011  1
  O  O30  1  0.93147122  0.29577799  0.80765011  1
  O  O31  1  0.06867631  0.79649804  0.69225971  1
loop_
_geom_bond_atom_site_label_1
_geom_bond_atom_site_label_2
_geom_bond_distance
_geom_bond_site_symmetry_2
Li0 O31 1.919905 1_555
Li0 O16 1.973727 1_555
Li0 O5 1.976704 1_565
Li1 O30 1.924254 1_555
Li1 O4 1.976357 1_555
Li1 O17 1.983424 1_555
Li2 O29 1.924254 1_555
Li2 O7 1.976357 1_545
Li2 O18 1.983424 1_555
Li3 O28 1.919905 1_555
Li3 O19 1.973727 1_555
Li3 O6 1.976704 1_555
Li4 O8 1.974426 1_555
Li4 O5 2.087046 1_565
Li4 O24 2.089795 1_565
Li4 O16 2.308568 1_555
Li5 O9 1.984994 1_555
Li5 O4 2.086381 1_555
Li5 O25 2.086793 1_555
Li5 O17 2.302833 1_555
Li6 O10 1.984994 1_555
Li6 O7 2.086381 1_545
Li6 O26 2.086793 1_545
Li6 O18 2.302833 1_555
Li7 O11 1.974426 1_555
Li7 O6 2.087046 1_555
Li7 O27 2.089795 1_555
Li7 O19 2.308568 1_555
Li8 O3 1.922170 1_555
Li8 O8 1.922380 1_544
Li8 O24 1.959885 1_554
Li9 O25 1.924995 1_555
Li9 O2 1.933932 1_555
Li9 O9 1.936168 1_555
Li10 O26 1.924995 1_556
Li10 O1 1.933932 1_555
Li10 O10 1.936168 1_566
Li11 O0 1.922170 1_555
Li11 O11 1.922380 1_555
Li11 O27 1.959885 1_555
Li12 O10 1.901164 1_556
Li12 O8 1.955242 1_545
Li12 O1 2.176127 1_545
Li12 O3 2.239380 1_556
Li13 O9 1.901164 1_555
Li13 O11 1.955242 1_555
Li13 O2 2.176127 1_555
Li13 O0 2.239380 1_555
Eu0 O28 2.512160 1_555
Eu0 O8 2.559278 1_554
Eu0 O20 2.583623 1_554
Eu0 O26 2.619679 1_455
Eu1 O29 2.511153 1_555
Eu1 O9 2.529721 1_555
Eu1 O21 2.590928 1_555
Eu1 O27 2.610010 1_655
Eu2 O30 2.511153 1_555
Eu2 O10 2.529721 1_556
Eu2 O22 2.590928 1_556
Eu2 O24 2.610010 1_655
Eu3 O31 2.512160 1_555
Eu3 O11 2.559278 1_555
Eu3 O23 2.583623 1_555
Eu3 O25 2.619679 1_455
Eu4 O12 2.505738 1_555
Eu4 O17 2.616635 1_555
Eu4 O0 2.710316 1_555
Eu4 O5 2.847596 1_555
Eu5 O13 2.512246 1_555
Eu5 O16 2.621528 1_555
Eu5 O1 2.662196 1_555
Eu5 O4 2.836337 1_555
Eu6 O14 2.512246 1_555
Eu6 O19 2.621528 1_555
Eu6 O2 2.662196 1_555
Eu6 O7 2.836337 1_555
Eu7 O15 2.505738 1_555
Eu7 O18 2.616635 1_555
Eu7 O3 2.710316 1_555
Eu7 O6 2.847596 1_555
Eu8 O20 2.447737 1_555
Eu8 O3 2.521455 1_556
Eu8 O12 2.526194 1_555
Eu8 O24 2.571453 1_555
Eu9 O21 2.447333 1_565
Eu9 O13 2.526627 1_555
Eu9 O2 2.562696 1_555
Eu9 O25 2.575990 1_555
Eu9 O23 3.202336 1_555
Eu10 O22 2.447333 1_555
Eu10 O14 2.526627 1_555
Eu10 O1 2.562696 1_554
Eu10 O26 2.575990 1_555
Eu10 O20 3.202336 1_554
Eu11 O23 2.447737 1_545
Eu11 O0 2.521455 1_555
Eu11 O15 2.526194 1_555
Eu11 O27 2.571453 1_555
Eu12 O12 2.492982 1_555
Eu12 O16 2.512021 1_555
Eu12 O31 2.524203 1_555
Eu12 O4 2.652544 1_455
Eu12 O20 2.796859 1_555
Eu13 O13 2.493118 1_545
Eu13 O30 2.528090 1_555
Eu13 O17 2.533669 1_555
Eu13 O5 2.647965 1_655
Eu13 O21 2.764221 1_555
Eu14 O14 2.493118 1_555
Eu14 O29 2.528090 1_555
Eu14 O18 2.533669 1_555
Eu14 O6 2.647965 1_655
Eu14 O22 2.764221 1_555
Eu15 O15 2.492982 1_565
Eu15 O19 2.512021 1_555
Eu15 O28 2.524203 1_555
Eu15 O7 2.652544 1_455
Eu15 O23 2.796859 1_555
Cl0 Li0 2.410839 1_555
Cl0 Eu9 3.163366 1_555
Cl0 Eu3 3.174014 1_555
Cl0 Eu4 3.217949 1_565
Cl1 Li1 2.413358 1_555
Cl1 Eu10 3.060538 1_556
Cl1 Eu2 3.170774 1_555
Cl1 Eu5 3.203766 1_555
Cl2 Li2 2.413358 1_555
Cl2 Eu9 3.060538 1_545
Cl2 Eu1 3.170774 1_555
Cl2 Eu6 3.203766 1_545
Cl3 Li3 2.410839 1_555
Cl3 Eu10 3.163366 1_555
Cl3 Eu0 3.174014 1_555
Cl3 Eu7 3.217949 1_555
Cl4 Eu2 2.888198 1_454
Cl4 Eu0 2.907580 1_555
Cl4 Eu8 3.141538 1_554
Cl4 Eu10 3.157905 1_455
Cl5 Eu1 2.888198 1_465
Cl5 Eu3 2.907580 1_555
Cl5 Eu11 3.141538 1_565
Cl5 Eu9 3.157905 1_455
Cl6 Li12 2.917223 1_555
Cl6 Eu4 3.052936 1_555
Cl6 Eu2 3.076602 1_555
Cl6 Eu5 3.104042 1_545
Cl6 Eu13 3.309031 1_555
Cl7 Eu5 3.014502 1_555
Cl7 Eu3 3.052428 1_555
Cl7 Eu4 3.062783 1_555
Cl7 Eu12 3.225781 1_555
Cl8 Eu6 3.014502 1_555
Cl8 Eu0 3.052428 1_555
Cl8 Eu7 3.062783 1_565
Cl8 Eu15 3.225781 1_555
Cl9 Li13 2.917223 1_555
Cl9 Eu7 3.052936 1_555
Cl9 Eu1 3.076602 1_555
Cl9 Eu6 3.104042 1_555
Cl9 Eu14 3.309031 1_555
Cl10 Li11 2.374620 1_555
Cl10 Li5 2.474301 1_455
Cl10 Eu4 3.171925 1_555
Cl10 Eu13 3.227846 1_455
Cl10 Eu1 3.419251 1_455
Cl11 Li10 2.379678 1_555
Cl11 Li4 2.449317 1_655
Cl11 Eu5 3.196331 1_555
Cl11 Eu12 3.243426 1_655
Cl11 Eu0 3.432452 1_656
Cl12 Li9 2.379678 1_555
Cl12 Li7 2.449317 1_655
Cl12 Eu6 3.196331 1_555
Cl12 Eu15 3.243426 1_655
Cl12 Eu3 3.432452 1_655
Cl13 Li8 2.374620 1_555
Cl13 Li6 2.474301 1_455
Cl13 Eu7 3.171925 1_555
Cl13 Eu14 3.227846 1_455
Cl13 Eu2 3.419251 1_454
O0 Si1 1.645960 1_555
O1 Si0 1.648708 1_555
O2 Si3 1.648708 1_555
O3 Si2 1.645960 1_555
O4 Si4 1.649314 1_555
O5 Si5 1.649226 1_555
O6 Si6 1.649226 1_555
O7 Si7 1.649314 1_555
O8 Si0 1.655096 1_555
O9 Si1 1.659321 1_555
O10 Si2 1.659321 1_555
O11 Si3 1.655096 1_555
O12 Si5 1.645325 1_555
O13 Si4 1.645523 1_555
O14 Si7 1.645523 1_555
O15 Si6 1.645325 1_555
O16 Si0 1.645725 1_555
O17 Si1 1.640304 1_555
O18 Si2 1.640304 1_555
O19 Si3 1.645725 1_555
O20 Si0 1.632672 1_555
O21 Si1 1.640626 1_555
O22 Si2 1.640626 1_555
O23 Si3 1.632672 1_555
O24 Si5 1.662404 1_555
O25 Si4 1.660931 1_555
O26 Si7 1.660931 1_555
O27 Si6 1.662404 1_555
O28 Si7 1.638251 1_455
O29 Si6 1.638468 1_655
O30 Si5 1.638468 1_655
O31 Si4 1.638251 1_455
