# generated using pymatgen
data_TmMn6GaGe5
_symmetry_space_group_name_H-M   'P 1'
_cell_length_a   5.18913020
_cell_length_b   5.18594668
_cell_length_c   8.11805728
_cell_angle_alpha   90.02185701
_cell_angle_beta   89.97101964
_cell_angle_gamma   120.01901255
_symmetry_Int_Tables_number   1
_chemical_formula_structural   TmMn6GaGe5
_chemical_formula_sum   'Tm1 Mn6 Ga1 Ge5'
_cell_volume   189.15684536
_cell_formula_units_Z   1
loop_
 _symmetry_equiv_pos_site_id
 _symmetry_equiv_pos_as_xyz
  1  'x, y, z'
loop_
 _atom_site_type_symbol
 _atom_site_label
 _atom_site_symmetry_multiplicity
 _atom_site_fract_x
 _atom_site_fract_y
 _atom_site_fract_z
 _atom_site_occupancy
  Tm  Tm0  1  0.99995300  0.00000400  0.99706900  1
  Mn  Mn0  1  0.99999300  0.49998300  0.24991600  1
  Mn  Mn1  1  0.50000600  0.99999300  0.24964700  1
  Mn  Mn2  1  0.50001400  0.50000700  0.24995200  1
  Mn  Mn3  1  0.99996700  0.49997400  0.75183200  1
  Mn  Mn4  1  0.50001600  0.00001000  0.75190000  1
  Mn  Mn5  1  0.49996500  0.49998400  0.75182700  1
  Ga  Ga0  1  0.99998100  0.00002500  0.65134400  1
  Ge  Ge0  1  0.33343400  0.66691400  0.99993700  1
  Ge  Ge1  1  0.66653500  0.33310200  0.99994100  1
  Ge  Ge2  1  0.33329600  0.66667400  0.50206500  1
  Ge  Ge3  1  0.66665500  0.33332400  0.50207600  1
  Ge  Ge4  1  0.99998400  0.00000700  0.34249400  1
loop_
_geom_bond_atom_site_label_1
_geom_bond_atom_site_label_2
_geom_bond_distance
_geom_bond_site_symmetry_2
Ga0 Ge4 2.507262 1_555
Ga0 Mn3 2.717755 1_555
Ga0 Mn5 2.718262 1_655
Ga0 Mn5 2.718349 1_545
Ga0 Mn3 2.718784 1_545
Ga0 Mn4 2.719349 1_555
Ga0 Mn4 2.720557 1_655
Ga0 Tm0 2.806615 1_555
Ge0 Mn4 2.508488 1_565
Ge0 Mn5 2.509679 1_555
Ge0 Mn3 2.510733 1_455
Ge0 Mn1 2.519002 1_556
Ge0 Mn0 2.522010 1_456
Ge0 Mn2 2.523407 1_556
Ge0 Tm0 2.994714 1_455
Ge0 Tm0 2.994792 1_565
Ge0 Tm0 2.994987 1_465
Ge1 Mn4 2.508148 1_555
Ge1 Mn3 2.509790 1_555
Ge1 Mn5 2.510912 1_555
Ge1 Mn1 2.519413 1_546
Ge1 Mn2 2.521983 1_556
Ge1 Mn0 2.522907 1_556
Ge1 Tm0 2.994685 1_565
Ge1 Tm0 2.994716 1_555
Ge1 Tm0 2.995092 1_455
Ge2 Mn3 2.520327 1_455
Ge2 Mn4 2.520504 1_565
Ge2 Mn5 2.521413 1_555
Ge2 Mn2 2.535622 1_555
Ge2 Mn0 2.536717 1_455
Ge2 Mn1 2.537719 1_555
Ge3 Mn5 2.520083 1_555
Ge3 Mn4 2.520731 1_555
Ge3 Mn3 2.521087 1_555
Ge3 Mn0 2.536002 1_555
Ge3 Mn2 2.536771 1_555
Ge3 Mn1 2.537465 1_545
Ge4 Mn0 2.699560 1_545
Ge4 Mn2 2.699646 1_655
Ge4 Mn2 2.699676 1_545
Ge4 Mn0 2.699827 1_555
Ge4 Mn1 2.701609 1_645
Ge4 Mn1 2.702052 1_545
Ge4 Tm0 2.804180 1_554
