# generated using pymatgen
data_V2Co(H4O5)2
_symmetry_space_group_name_H-M   'P 1'
_cell_length_a   13.70272146
_cell_length_b   9.74990100
_cell_length_c   7.06925947
_cell_angle_alpha   90.00000000
_cell_angle_beta   111.74045477
_cell_angle_gamma   90.00000000
_symmetry_Int_Tables_number   1
_chemical_formula_structural   V2Co(H4O5)2
_chemical_formula_sum   'V8 Co4 H32 O40'
_cell_volume   877.27648808
_cell_formula_units_Z   4
loop_
 _symmetry_equiv_pos_site_id
 _symmetry_equiv_pos_as_xyz
  1  'x, y, z'
loop_
 _atom_site_type_symbol
 _atom_site_label
 _atom_site_symmetry_multiplicity
 _atom_site_fract_x
 _atom_site_fract_y
 _atom_site_fract_z
 _atom_site_occupancy
  V  V0  1  0.10298000  0.02829000  0.69273700  1
  V  V1  1  0.89702000  0.02829000  0.80726300  1
  V  V2  1  0.89702000  0.97171000  0.30726300  1
  V  V3  1  0.10298000  0.97171000  0.19273700  1
  V  V4  1  0.60298000  0.52829000  0.69273700  1
  V  V5  1  0.39702000  0.52829000  0.80726300  1
  V  V6  1  0.39702000  0.47171000  0.30726300  1
  V  V7  1  0.60298000  0.47171000  0.19273700  1
  Co  Co0  1  0.25000000  0.75000000  0.00000000  1
  Co  Co1  1  0.75000000  0.75000000  0.50000000  1
  Co  Co2  1  0.75000000  0.25000000  0.00000000  1
  Co  Co3  1  0.25000000  0.25000000  0.50000000  1
  H  H0  1  0.59658100  0.83713800  0.16366800  1
  H  H1  1  0.40341900  0.83713800  0.33633200  1
  H  H2  1  0.40341900  0.16286200  0.83633200  1
  H  H3  1  0.59658100  0.16286200  0.66366800  1
  H  H4  1  0.09658100  0.33713800  0.16366800  1
  H  H5  1  0.90341900  0.33713800  0.33633200  1
  H  H6  1  0.90341900  0.66286200  0.83633200  1
  H  H7  1  0.09658100  0.66286200  0.66366800  1
  H  H8  1  0.63792200  0.81608100  0.84606400  1
  H  H9  1  0.36207800  0.81608100  0.65393600  1
  H  H10  1  0.36207800  0.18391900  0.15393600  1
  H  H11  1  0.63792200  0.18391900  0.34606400  1
  H  H12  1  0.13792200  0.31608100  0.84606400  1
  H  H13  1  0.86207800  0.31608100  0.65393600  1
  H  H14  1  0.86207800  0.68391900  0.15393600  1
  H  H15  1  0.13792200  0.68391900  0.34606400  1
  H  H16  1  0.61241100  0.05026200  0.83605700  1
  H  H17  1  0.38758900  0.05026200  0.66394300  1
  H  H18  1  0.38758900  0.94973800  0.16394300  1
  H  H19  1  0.61241100  0.94973800  0.33605700  1
  H  H20  1  0.11241100  0.55026200  0.83605700  1
  H  H21  1  0.88758900  0.55026200  0.66394300  1
  H  H22  1  0.88758900  0.44973800  0.16394300  1
  H  H23  1  0.11241100  0.44973800  0.33605700  1
  H  H24  1  0.69271500  0.90864800  0.03834300  1
  H  H25  1  0.30728500  0.90864800  0.46165700  1
  H  H26  1  0.30728500  0.09135200  0.96165700  1
  H  H27  1  0.69271500  0.09135200  0.53834300  1
  H  H28  1  0.19271500  0.40864800  0.03834300  1
  H  H29  1  0.80728500  0.40864800  0.46165700  1
  H  H30  1  0.80728500  0.59135200  0.96165700  1
  H  H31  1  0.19271500  0.59135200  0.53834300  1
  O  O0  1  0.55773200  0.54018500  0.92123900  1
  O  O1  1  0.44226800  0.54018500  0.57876100  1
  O  O2  1  0.44226800  0.45981500  0.07876100  1
  O  O3  1  0.55773200  0.45981500  0.42123900  1
  O  O4  1  0.05773200  0.04018500  0.92123900  1
  O  O5  1  0.94226800  0.04018500  0.57876100  1
  O  O6  1  0.94226800  0.95981500  0.07876100  1
  O  O7  1  0.05773200  0.95981500  0.42123900  1
  O  O8  1  0.34088800  0.68105100  0.81578000  1
  O  O9  1  0.65911200  0.68105100  0.68422000  1
  O  O10  1  0.65911200  0.31894900  0.18422000  1
  O  O11  1  0.34088800  0.31894900  0.31578000  1
  O  O12  1  0.84088800  0.18105100  0.81578000  1
  O  O13  1  0.15911200  0.18105100  0.68422000  1
  O  O14  1  0.15911200  0.81894900  0.18422000  1
  O  O15  1  0.84088800  0.81894900  0.31578000  1
  O  O16  1  0.29818800  0.58288800  0.19038200  1
  O  O17  1  0.70181200  0.58288800  0.30961800  1
  O  O18  1  0.70181200  0.41711200  0.80961800  1
  O  O19  1  0.29818800  0.41711200  0.69038200  1
  O  O20  1  0.79818800  0.08288800  0.19038200  1
  O  O21  1  0.20181200  0.08288800  0.30961800  1
  O  O22  1  0.20181200  0.91711200  0.80961800  1
  O  O23  1  0.79818800  0.91711200  0.69038200  1
  O  O24  1  0.61784800  0.84963200  0.31221000  1
  O  O25  1  0.38215200  0.84963200  0.18779000  1
  O  O26  1  0.38215200  0.15036800  0.68779000  1
  O  O27  1  0.61784800  0.15036800  0.81221000  1
  O  O28  1  0.11784800  0.34963200  0.31221000  1
  O  O29  1  0.88215200  0.34963200  0.18779000  1
  O  O30  1  0.88215200  0.65036800  0.68779000  1
  O  O31  1  0.11784800  0.65036800  0.81221000  1
  O  O32  1  0.62429400  0.88830600  0.93225700  1
  O  O33  1  0.37570600  0.88830600  0.56774300  1
  O  O34  1  0.37570600  0.11169400  0.06774300  1
  O  O35  1  0.62429400  0.11169400  0.43225700  1
  O  O36  1  0.12429400  0.38830600  0.93225700  1
  O  O37  1  0.87570600  0.38830600  0.56774300  1
  O  O38  1  0.87570600  0.61169400  0.06774300  1
  O  O39  1  0.12429400  0.61169400  0.43225700  1
loop_
_geom_bond_atom_site_label_1
_geom_bond_atom_site_label_2
_geom_bond_distance
_geom_bond_site_symmetry_2
Co0 O25 2.050429 1_555
Co0 O31 2.050429 1_554
Co0 O22 2.060026 1_554
Co0 O16 2.060026 1_555
Co0 O8 2.213699 1_554
Co0 O14 2.213699 1_555
Co1 O30 2.050429 1_555
Co1 O24 2.050429 1_555
Co1 O23 2.060026 1_555
Co1 O17 2.060026 1_555
Co1 O15 2.213699 1_555
Co1 O9 2.213699 1_555
Co2 O29 2.050429 1_555
Co2 O27 2.050429 1_554
Co2 O18 2.060026 1_554
Co2 O20 2.060026 1_555
Co2 O12 2.213699 1_554
Co2 O10 2.213699 1_555
Co3 O28 2.050429 1_555
Co3 O26 2.050429 1_555
Co3 O19 2.060026 1_555
Co3 O21 2.060026 1_555
Co3 O11 2.213699 1_555
Co3 O13 2.213699 1_555
H0 O24 0.987796 1_555
H1 O25 0.987796 1_555
H2 O26 0.987796 1_555
H3 O27 0.987796 1_555
H4 O28 0.987796 1_555
H5 O29 0.987796 1_555
H6 O30 0.987796 1_555
H7 O31 0.987796 1_555
H8 O32 0.993134 1_555
H9 O33 0.993134 1_555
H10 O34 0.993134 1_555
H11 O35 0.993134 1_555
H12 O36 0.993134 1_555
H13 O37 0.993134 1_555
H14 O38 0.993134 1_555
H15 O39 0.993134 1_555
H16 O27 0.997946 1_555
H17 O26 0.997946 1_555
H18 O25 0.997946 1_555
H19 O24 0.997946 1_555
H20 O31 0.997946 1_555
H21 O30 0.997946 1_555
H22 O29 0.997946 1_555
H23 O28 0.997946 1_555
H24 O32 0.979742 1_554
H25 O33 0.979742 1_555
H26 O34 0.979742 1_556
H27 O35 0.979742 1_555
H28 O36 0.979742 1_554
H29 O37 0.979742 1_555
H30 O38 0.979742 1_556
H31 O39 0.979742 1_555
O0 V7 1.905850 1_556
O0 V4 1.936272 1_555
O0 V5 2.048862 1_555
O1 V6 1.905850 1_555
O1 V5 1.936272 1_555
O1 V4 2.048862 1_555
O2 V5 1.905850 1_554
O2 V6 1.936272 1_555
O2 V7 2.048862 1_555
O3 V4 1.905850 1_555
O3 V7 1.936272 1_555
O3 V6 2.048862 1_555
O4 V3 1.905850 1_546
O4 V0 1.936272 1_555
O4 V1 2.048862 1_455
O5 V2 1.905850 1_545
O5 V1 1.936272 1_555
O5 V0 2.048862 1_655
O6 V1 1.905850 1_564
O6 V2 1.936272 1_555
O6 V3 2.048862 1_655
O7 V0 1.905850 1_565
O7 V3 1.936272 1_555
O7 V2 2.048862 1_455
O8 V5 1.687562 1_555
O9 V4 1.687562 1_555
O10 V7 1.687562 1_555
O11 V6 1.687562 1_555
O12 V1 1.687562 1_555
O13 V0 1.687562 1_555
O14 V3 1.687562 1_555
O15 V2 1.687562 1_555
O16 V6 1.691982 1_555
O17 V7 1.691982 1_555
O18 V4 1.691982 1_555
O19 V5 1.691982 1_555
O20 V2 1.691982 1_545
O21 V3 1.691982 1_545
O22 V0 1.691982 1_565
O23 V1 1.691982 1_565
