# generated using pymatgen
data_Li2Co3TeO8
_symmetry_space_group_name_H-M   'P 1'
_cell_length_a   5.92473147
_cell_length_b   5.92473147
_cell_length_c   9.77777039
_cell_angle_alpha   89.95083199
_cell_angle_beta   89.95083199
_cell_angle_gamma   119.98634794
_symmetry_Int_Tables_number   1
_chemical_formula_structural   Li2Co3TeO8
_chemical_formula_sum   'Li4 Co6 Te2 O16'
_cell_volume   297.28082525
_cell_formula_units_Z   2
loop_
 _symmetry_equiv_pos_site_id
 _symmetry_equiv_pos_as_xyz
  1  'x, y, z'
loop_
 _atom_site_type_symbol
 _atom_site_label
 _atom_site_symmetry_multiplicity
 _atom_site_fract_x
 _atom_site_fract_y
 _atom_site_fract_z
 _atom_site_occupancy
  Li  Li0  1  0.66281800  0.33203600  0.09300700  1
  Li  Li1  1  0.00041300  0.00045300  0.01266400  1
  Li  Li2  1  0.00045300  0.00041300  0.51266400  1
  Li  Li3  1  0.33203600  0.66281800  0.59300700  1
  Co  Co0  1  0.83116500  0.66322600  0.77845900  1
  Co  Co1  1  0.35378900  0.16716100  0.78835500  1
  Co  Co2  1  0.81270900  0.16725800  0.78762200  1
  Co  Co3  1  0.16725800  0.81270900  0.28762200  1
  Co  Co4  1  0.66322600  0.83116500  0.27845900  1
  Co  Co5  1  0.16716100  0.35378900  0.28835500  1
  Te  Te0  1  0.66228000  0.33040900  0.51313500  1
  Te  Te1  1  0.33040900  0.66228000  0.01313500  1
  O  O0  1  0.83213100  0.65828600  0.41131700  1
  O  O1  1  0.51875200  0.48058400  0.64901400  1
  O  O2  1  0.67709000  0.35340900  0.89177800  1
  O  O3  1  0.99756900  0.99595700  0.70466600  1
  O  O4  1  0.99595700  0.99756900  0.20466600  1
  O  O5  1  0.33996400  0.17062100  0.41080000  1
  O  O6  1  0.95949000  0.47967300  0.64785000  1
  O  O7  1  0.51528800  0.03137300  0.64611200  1
  O  O8  1  0.17381600  0.83259100  0.91130200  1
  O  O9  1  0.83259100  0.17381600  0.41130200  1
  O  O10  1  0.47967300  0.95949000  0.14785000  1
  O  O11  1  0.03137300  0.51528800  0.14611200  1
  O  O12  1  0.35340900  0.67709000  0.39177800  1
  O  O13  1  0.65828600  0.83213100  0.91131700  1
  O  O14  1  0.48058400  0.51875200  0.14901400  1
  O  O15  1  0.17062100  0.33996400  0.91080000  1
loop_
_geom_bond_atom_site_label_1
_geom_bond_atom_site_label_2
_geom_bond_distance
_geom_bond_site_symmetry_2
Li0 O11 1.962038 1_655
Li0 O2 1.970559 1_554
Li0 O14 1.970613 1_555
Li0 O10 1.984886 1_545
Li1 O4 1.877457 1_445
Li1 O15 2.005577 1_554
Li1 O8 2.011997 1_544
Li1 O13 2.017374 1_444
Li2 O3 1.877457 1_445
Li2 O5 2.005577 1_555
Li2 O9 2.011997 1_455
Li2 O0 2.017374 1_445
Li3 O7 1.962038 1_565
Li3 O12 1.970559 1_555
Li3 O1 1.970613 1_555
Li3 O6 1.984886 1_455
Co0 O3 1.852671 1_555
Co0 O2 1.936541 1_555
Co0 O1 2.050179 1_555
Co0 O6 2.053970 1_555
Co0 O13 2.182341 1_555
Co0 O8 2.187676 1_655
Co1 O2 1.949806 1_555
Co1 O3 2.004303 1_445
Co1 O7 2.065491 1_555
Co1 O8 2.095791 1_545
Co1 O1 2.106883 1_555
Co1 O15 2.183976 1_555
Co2 O2 1.945637 1_555
Co2 O3 1.999635 1_545
Co2 O7 2.062959 1_555
Co2 O13 2.102464 1_545
Co2 O6 2.105882 1_555
Co2 O15 2.198148 1_655
Co3 O12 1.945637 1_555
Co3 O4 1.999635 1_455
Co3 O11 2.062959 1_555
Co3 O0 2.102464 1_455
Co3 O10 2.105882 1_555
Co3 O5 2.198148 1_565
Co4 O4 1.852671 1_555
Co4 O12 1.936541 1_555
Co4 O14 2.050179 1_555
Co4 O10 2.053970 1_555
Co4 O0 2.182341 1_555
Co4 O9 2.187676 1_565
Co5 O12 1.949806 1_555
Co5 O4 2.004303 1_445
Co5 O11 2.065491 1_555
Co5 O9 2.095791 1_455
Co5 O14 2.106883 1_555
Co5 O5 2.183976 1_555
O0 Te0 1.954058 1_555
O1 Te0 2.009059 1_555
O5 Te0 1.934416 1_555
O6 Te0 2.016739 1_555
O7 Te0 2.009911 1_555
O8 Te1 1.950895 1_556
O9 Te0 1.950895 1_555
O10 Te1 2.016739 1_555
O11 Te1 2.009911 1_555
O13 Te1 1.954058 1_556
O14 Te1 2.009059 1_555
O15 Te1 1.934416 1_556
