# generated using pymatgen
data_Ca3Mn2(FeO5)2
_symmetry_space_group_name_H-M   'P 1'
_cell_length_a   5.41662700
_cell_length_b   5.62016600
_cell_length_c   15.34794323
_cell_angle_alpha   69.87775092
_cell_angle_beta   90.00000000
_cell_angle_gamma   90.00000000
_symmetry_Int_Tables_number   1
_chemical_formula_structural   Ca3Mn2(FeO5)2
_chemical_formula_sum   'Ca6 Mn4 Fe4 O20'
_cell_volume   438.70813484
_cell_formula_units_Z   2
loop_
 _symmetry_equiv_pos_site_id
 _symmetry_equiv_pos_as_xyz
  1  'x, y, z'
loop_
 _atom_site_type_symbol
 _atom_site_label
 _atom_site_symmetry_multiplicity
 _atom_site_fract_x
 _atom_site_fract_y
 _atom_site_fract_z
 _atom_site_occupancy
  Ca  Ca0  1  0.26566200  0.57320900  0.88891700  1
  Ca  Ca1  1  0.76410000  0.42507700  0.60947200  1
  Ca  Ca2  1  0.23972600  0.12277200  0.40407300  1
  Ca  Ca3  1  0.23590000  0.42507700  0.10947200  1
  Ca  Ca4  1  0.73433800  0.57320900  0.38891700  1
  Ca  Ca5  1  0.76027400  0.12277200  0.90407300  1
  Mn  Mn0  1  0.25542500  0.99237600  0.00581200  1
  Mn  Mn1  1  0.74457500  0.99237600  0.50581200  1
  Mn  Mn2  1  0.75303800  0.50072900  0.00608200  1
  Mn  Mn3  1  0.24696200  0.50072900  0.50608200  1
  Fe  Fe0  1  0.30469000  0.16680900  0.74722600  1
  Fe  Fe1  1  0.80845800  0.82368400  0.74856800  1
  Fe  Fe2  1  0.69531000  0.16680900  0.24722600  1
  Fe  Fe3  1  0.19154200  0.82368400  0.24856800  1
  O  O0  1  0.01130500  0.25990800  0.00771900  1
  O  O1  1  0.50282000  0.76899400  0.48017300  1
  O  O2  1  0.01250000  0.76042700  0.97983000  1
  O  O3  1  0.51083100  0.25804800  0.51152200  1
  O  O4  1  0.49718000  0.76899400  0.98017300  1
  O  O5  1  0.98869500  0.25990800  0.50771900  1
  O  O6  1  0.48916900  0.25804800  0.01152200  1
  O  O7  1  0.98750000  0.76042700  0.47983000  1
  O  O8  1  0.23462300  0.18987800  0.86471800  1
  O  O9  1  0.73312200  0.80179300  0.63373900  1
  O  O10  1  0.77626300  0.42309500  0.13574800  1
  O  O11  1  0.27153300  0.57092500  0.36249700  1
  O  O12  1  0.26687800  0.80179300  0.13373900  1
  O  O13  1  0.76537700  0.18987800  0.36471800  1
  O  O14  1  0.72846700  0.57092500  0.86249700  1
  O  O15  1  0.22373700  0.42309500  0.63574800  1
  O  O16  1  0.15337600  0.86293800  0.75337400  1
  O  O17  1  0.66289500  0.13463000  0.75198100  1
  O  O18  1  0.84662400  0.86293800  0.25337400  1
  O  O19  1  0.33710500  0.13463000  0.25198100  1
loop_
_geom_bond_atom_site_label_1
_geom_bond_atom_site_label_2
_geom_bond_distance
_geom_bond_site_symmetry_2
Ca0 O16 2.240163 1_555
Ca0 O8 2.314761 1_555
Ca0 O4 2.409444 1_555
Ca0 O6 2.418816 1_556
Ca0 O2 2.438163 1_555
Ca0 O0 2.472704 1_556
Ca0 O14 2.540163 1_555
Ca0 O14 2.938540 1_455
Ca1 O9 2.278596 1_555
Ca1 O17 2.300540 1_555
Ca1 O5 2.403757 1_555
Ca1 O3 2.448310 1_555
Ca1 O15 2.521545 1_655
Ca1 O7 2.528886 1_555
Ca1 O1 2.652905 1_555
Ca1 O15 2.954095 1_555
Ca2 O19 2.371619 1_555
Ca2 O11 2.382195 1_555
Ca2 O7 2.395072 1_445
Ca2 O1 2.398018 1_545
Ca2 O5 2.411842 1_455
Ca2 O3 2.513304 1_555
Ca2 O13 2.636666 1_455
Ca2 O13 2.908127 1_555
Ca3 O12 2.278596 1_555
Ca3 O19 2.300540 1_555
Ca3 O0 2.403757 1_555
Ca3 O6 2.448310 1_555
Ca3 O10 2.521545 1_455
Ca3 O2 2.528886 1_554
Ca3 O4 2.652905 1_554
Ca3 O10 2.954095 1_555
Ca4 O18 2.240163 1_555
Ca4 O13 2.314761 1_555
Ca4 O1 2.409444 1_555
Ca4 O3 2.418816 1_555
Ca4 O7 2.438163 1_555
Ca4 O5 2.472704 1_555
Ca4 O11 2.540163 1_555
Ca4 O11 2.938540 1_655
Ca5 O17 2.371619 1_555
Ca5 O14 2.382195 1_555
Ca5 O2 2.395072 1_645
Ca5 O4 2.398018 1_545
Ca5 O0 2.411842 1_656
Ca5 O6 2.513304 1_556
Ca5 O8 2.636666 1_655
Ca5 O8 2.908127 1_555
Mn0 O12 1.886568 1_555
Mn0 O4 1.945683 1_554
Mn0 O6 1.982459 1_565
Mn0 O2 1.986822 1_554
Mn0 O0 2.010066 1_565
Mn0 O8 2.068895 1_564
Mn1 O9 1.886568 1_555
Mn1 O1 1.945683 1_555
Mn1 O3 1.982459 1_565
Mn1 O7 1.986822 1_555
Mn1 O5 2.010066 1_565
Mn1 O13 2.068895 1_565
Mn2 O10 1.889253 1_555
Mn2 O0 1.940643 1_655
Mn2 O6 1.957474 1_555
Mn2 O2 1.965494 1_654
Mn2 O4 1.984803 1_554
Mn2 O14 2.105139 1_554
Mn3 O15 1.889253 1_555
Mn3 O5 1.940643 1_455
Mn3 O3 1.957474 1_555
Mn3 O7 1.965494 1_455
Mn3 O1 1.984803 1_555
Mn3 O11 2.105139 1_555
Fe0 O16 1.867187 1_545
Fe0 O15 1.870477 1_555
Fe0 O8 1.890360 1_555
Fe0 O17 1.947709 1_555
Fe1 O9 1.853877 1_555
Fe1 O14 1.885242 1_555
Fe1 O16 1.885689 1_655
Fe1 O17 1.934268 1_565
Fe2 O18 1.867187 1_545
Fe2 O10 1.870477 1_555
Fe2 O13 1.890360 1_555
Fe2 O19 1.947709 1_555
Fe3 O12 1.853877 1_555
Fe3 O11 1.885242 1_555
Fe3 O18 1.885689 1_455
Fe3 O19 1.934268 1_565
