# generated using pymatgen
data_Nb6InSe8
_symmetry_space_group_name_H-M   'P 1'
_cell_length_a   10.18682849
_cell_length_b   10.18649379
_cell_length_c   3.49426992
_cell_angle_alpha   89.99992104
_cell_angle_beta   89.99960070
_cell_angle_gamma   119.99961234
_symmetry_Int_Tables_number   1
_chemical_formula_structural   Nb6InSe8
_chemical_formula_sum   'Nb6 In1 Se8'
_cell_volume   314.01652033
_cell_formula_units_Z   1
loop_
 _symmetry_equiv_pos_site_id
 _symmetry_equiv_pos_as_xyz
  1  'x, y, z'
loop_
 _atom_site_type_symbol
 _atom_site_label
 _atom_site_symmetry_multiplicity
 _atom_site_fract_x
 _atom_site_fract_y
 _atom_site_fract_z
 _atom_site_occupancy
  Nb  Nb0  1  0.48636547  0.10474434  0.49999805  1
  Nb  Nb1  1  0.89526467  0.38163967  0.49999829  1
  Nb  Nb2  1  0.61837034  0.51363020  0.49999815  1
  Nb  Nb3  1  0.51197211  0.89548098  -0.00000211  1
  Nb  Nb4  1  0.10452742  0.61648848  -0.00000195  1
  Nb  Nb5  1  0.38350196  0.48801935  -0.00000207  1
  In  In0  1  0.00000135  0.00001235  0.49999807  1
  Se  Se0  1  0.33333917  0.66661818  0.49999802  1
  Se  Se1  1  0.66666986  0.33334030  -0.00000163  1
  Se  Se2  1  0.34123962  0.28177444  0.50002676  1
  Se  Se3  1  0.71823523  0.05947478  0.49999792  1
  Se  Se4  1  0.94053277  0.65876953  0.49999766  1
  Se  Se5  1  0.66013454  0.72013851  -0.00000187  1
  Se  Se6  1  0.27986659  0.94001834  -0.00000173  1
  Se  Se7  1  0.05997990  0.33984953  -0.00000156  1
loop_
_geom_bond_atom_site_label_1
_geom_bond_atom_site_label_2
_geom_bond_distance
_geom_bond_site_symmetry_2
Nb0 Se6 2.600642 1_546
Nb0 Se6 2.600664 1_545
Nb0 Se3 2.623162 1_555
Nb0 Se1 2.751616 1_555
Nb0 Se1 2.751638 1_556
Nb0 Se2 2.846660 1_555
Nb1 Se7 2.600647 1_655
Nb1 Se7 2.600663 1_656
Nb1 Se4 2.622995 1_555
Nb1 Se1 2.751625 1_556
Nb1 Se1 2.751646 1_555
Nb1 Se3 2.846716 1_555
Nb2 Se5 2.600697 1_555
Nb2 Se5 2.600705 1_556
Nb2 Se2 2.623054 1_555
Nb2 Se1 2.751538 1_555
Nb2 Se1 2.751540 1_556
Nb2 Se4 2.846782 1_555
Nb3 Se3 2.597684 1_564
Nb3 Se3 2.597707 1_565
Nb3 Se6 2.620874 1_555
Nb3 Se0 2.748910 1_555
Nb3 Se0 2.748930 1_554
Nb3 Se5 2.857275 1_555
Nb4 Se4 2.597748 1_455
Nb4 Se4 2.597765 1_454
Nb4 Se7 2.620719 1_555
Nb4 Se0 2.748797 1_554
Nb4 Se0 2.748818 1_555
Nb4 Se6 2.857466 1_555
Nb5 Se2 2.597471 1_554
Nb5 Se2 2.597599 1_555
Nb5 Se5 2.620857 1_555
Nb5 Se0 2.748288 1_555
Nb5 Se0 2.748289 1_554
Nb5 Se7 2.857497 1_555
In0 Se3 3.216223 1_455
In0 Se4 3.216251 1_445
In0 Se2 3.216272 1_555
