# generated using pymatgen
data_Ba3Nd3Co6O17
_symmetry_space_group_name_H-M   'P 1'
_cell_length_a   8.65017900
_cell_length_b   8.87369842
_cell_length_c   11.04274277
_cell_angle_alpha   108.66692915
_cell_angle_beta   107.14800154
_cell_angle_gamma   101.58969889
_symmetry_Int_Tables_number   1
_chemical_formula_structural   Ba3Nd3Co6O17
_chemical_formula_sum   'Ba6 Nd6 Co12 O34'
_cell_volume   725.37943212
_cell_formula_units_Z   2
loop_
 _symmetry_equiv_pos_site_id
 _symmetry_equiv_pos_as_xyz
  1  'x, y, z'
loop_
 _atom_site_type_symbol
 _atom_site_label
 _atom_site_symmetry_multiplicity
 _atom_site_fract_x
 _atom_site_fract_y
 _atom_site_fract_z
 _atom_site_occupancy
  Ba  Ba0  1  0.24746300  0.75029600  0.24700900  1
  Ba  Ba1  1  0.58544800  0.75267200  0.58604400  1
  Ba  Ba2  1  0.91884000  0.74902500  0.91725500  1
  Ba  Ba3  1  0.08116000  0.25097500  0.08274500  1
  Ba  Ba4  1  0.41455200  0.24732800  0.41395600  1
  Ba  Ba5  1  0.75253700  0.24970400  0.75299100  1
  Nd  Nd0  1  0.90976200  0.72775200  0.41062500  1
  Nd  Nd1  1  0.25295200  0.74283900  0.75436200  1
  Nd  Nd2  1  0.57523500  0.74151800  0.07210500  1
  Nd  Nd3  1  0.74704800  0.25716100  0.24563800  1
  Nd  Nd4  1  0.09023800  0.27224800  0.58937500  1
  Nd  Nd5  1  0.42476500  0.25848200  0.92789500  1
  Co  Co0  1  0.67160400  0.99928200  0.41722100  1
  Co  Co1  1  0.00422200  0.00117400  0.74546100  1
  Co  Co2  1  0.33678200  0.99837000  0.08096200  1
  Co  Co3  1  0.99577800  0.99882600  0.25453900  1
  Co  Co4  1  0.32839600  0.00071800  0.58277900  1
  Co  Co5  1  0.66321800  0.00163000  0.91903800  1
  Co  Co6  1  0.83545900  0.50074000  0.58313300  1
  Co  Co7  1  0.16862000  0.49743600  0.91490900  1
  Co  Co8  1  0.49803500  0.49845000  0.24901800  1
  Co  Co9  1  0.16454100  0.49926000  0.41686700  1
  Co  Co10  1  0.50196500  0.50155000  0.75098200  1
  Co  Co11  1  0.83138000  0.50256400  0.08509100  1
  O  O0  1  0.87549400  0.00080900  0.56845500  1
  O  O1  1  0.18872500  0.00032900  0.89133000  1
  O  O2  1  0.53968400  0.99932900  0.23867700  1
  O  O3  1  0.12450600  0.99919100  0.43154500  1
  O  O4  1  0.46031600  0.00067100  0.76132300  1
  O  O5  1  0.81127500  0.99967100  0.10867000  1
  O  O6  1  0.67999700  0.50004600  0.41219700  1
  O  O7  1  0.01265000  0.49653400  0.74229300  1
  O  O8  1  0.34668100  0.50098200  0.07486900  1
  O  O9  1  0.98735000  0.50346600  0.25770700  1
  O  O10  1  0.32000300  0.49995400  0.58780300  1
  O  O11  1  0.65331900  0.49901800  0.92513100  1
  O  O12  1  0.62091700  0.77088900  0.32774200  1
  O  O13  1  0.94948500  0.76527800  0.65822700  1
  O  O14  1  0.26855100  0.74977800  0.98960900  1
  O  O15  1  0.77347200  0.22583600  0.47809700  1
  O  O16  1  0.10843500  0.23969800  0.81572300  1
  O  O17  1  0.43353500  0.24866900  0.15592700  1
  O  O18  1  0.05051500  0.23472200  0.34177300  1
  O  O19  1  0.37908300  0.22911100  0.67225800  1
  O  O20  1  0.73144900  0.25022200  0.01039100  1
  O  O21  1  0.89156500  0.76030200  0.18427700  1
  O  O22  1  0.22652800  0.77416400  0.52190300  1
  O  O23  1  0.56646500  0.75133100  0.84407300  1
  O  O24  1  0.18173600  0.99929100  0.16014300  1
  O  O25  1  0.50000000  0.00000000  0.50000000  1
  O  O26  1  0.81826400  0.00070900  0.83985700  1
  O  O27  1  0.00000000  0.50000000  0.50000000  1
  O  O28  1  0.33611800  0.50200900  0.83065500  1
  O  O29  1  0.66388200  0.49799100  0.16934500  1
  O  O30  1  0.33988500  0.50661800  0.33263200  1
  O  O31  1  0.66011500  0.49338200  0.66736800  1
  O  O32  1  0.00000000  0.50000000  0.00000000  1
  O  O33  1  0.50000000  0.00000000  0.00000000  1
loop_
_geom_bond_atom_site_label_1
_geom_bond_atom_site_label_2
_geom_bond_distance
_geom_bond_site_symmetry_2
Ba0 O24 2.768607 1_555
Ba0 O32 2.779187 1_555
Ba0 O30 2.786827 1_555
Ba0 O25 2.824953 1_565
Ba0 O9 2.866384 1_455
Ba0 O8 2.877043 1_555
Ba0 O14 2.900046 1_554
Ba0 O21 2.976081 1_455
Ba0 O22 3.036516 1_555
Ba0 O12 3.037138 1_555
Ba0 O2 3.050296 1_555
Ba0 O3 3.082647 1_555
Ba1 O26 2.774417 1_565
Ba1 O30 2.798265 1_555
Ba1 O25 2.799726 1_565
Ba1 O31 2.845236 1_555
Ba1 O10 2.878694 1_555
Ba1 O6 2.878779 1_555
Ba1 O23 2.905634 1_555
Ba1 O13 2.980812 1_555
Ba1 O12 3.007910 1_555
Ba1 O22 3.033973 1_555
Ba1 O4 3.037571 1_565
Ba1 O0 3.085819 1_565
Ba2 O32 2.783606 1_656
Ba2 O24 2.803289 1_656
Ba2 O26 2.835395 1_565
Ba2 O31 2.842640 1_555
Ba2 O7 2.880162 1_655
Ba2 O14 2.890093 1_655
Ba2 O11 2.898017 1_555
Ba2 O23 2.920197 1_555
Ba2 O13 2.994775 1_555
Ba2 O21 2.998514 1_556
Ba2 O1 3.035778 1_665
Ba2 O5 3.043415 1_556
Ba3 O32 2.783606 1_555
Ba3 O26 2.803289 1_454
Ba3 O24 2.835395 1_545
Ba3 O30 2.842640 1_555
Ba3 O9 2.880162 1_455
Ba3 O20 2.890093 1_455
Ba3 O8 2.898017 1_555
Ba3 O17 2.920197 1_555
Ba3 O18 2.994775 1_555
Ba3 O16 2.998514 1_554
Ba3 O5 3.035778 1_445
Ba3 O1 3.043415 1_554
Ba4 O24 2.774417 1_545
Ba4 O31 2.798265 1_555
Ba4 O25 2.799726 1_555
Ba4 O30 2.845236 1_555
Ba4 O6 2.878694 1_555
Ba4 O10 2.878779 1_555
Ba4 O17 2.905634 1_555
Ba4 O18 2.980812 1_555
Ba4 O19 3.007910 1_555
Ba4 O15 3.033973 1_555
Ba4 O2 3.037571 1_545
Ba4 O3 3.085819 1_545
Ba5 O26 2.768607 1_555
Ba5 O32 2.779187 1_656
Ba5 O31 2.786827 1_555
Ba5 O25 2.824953 1_555
Ba5 O7 2.866384 1_655
Ba5 O11 2.877043 1_555
Ba5 O20 2.900046 1_556
Ba5 O16 2.976081 1_655
Ba5 O15 3.036516 1_555
Ba5 O19 3.037138 1_555
Ba5 O4 3.050296 1_555
Ba5 O0 3.082647 1_555
Nd0 O9 2.513298 1_555
Nd0 O22 2.534713 1_655
Nd0 O6 2.542139 1_555
Nd0 O12 2.546975 1_555
Nd0 O13 2.553825 1_555
Nd0 O21 2.569850 1_555
Nd0 O0 2.624210 1_565
Nd0 O3 2.626520 1_655
Nd0 O27 2.669122 1_655
Nd0 O29 2.686658 1_555
Nd1 O14 2.541257 1_555
Nd1 O1 2.571067 1_565
Nd1 O4 2.571990 1_565
Nd1 O23 2.574408 1_555
Nd1 O13 2.599910 1_455
Nd1 O22 2.618248 1_555
Nd1 O7 2.634442 1_555
Nd1 O10 2.637867 1_555
Nd1 O28 2.684616 1_555
Nd1 O33 2.791411 1_566
Nd1 O27 2.815599 1_555
Nd2 O23 2.526763 1_554
Nd2 O14 2.562960 1_554
Nd2 O5 2.573320 1_555
Nd2 O2 2.575704 1_555
Nd2 O11 2.591462 1_554
Nd2 O21 2.595267 1_555
Nd2 O8 2.616710 1_555
Nd2 O12 2.650073 1_555
Nd2 O28 2.694158 1_554
Nd2 O33 2.789597 1_565
Nd2 O29 2.841931 1_555
Nd3 O20 2.541257 1_555
Nd3 O5 2.571067 1_545
Nd3 O2 2.571990 1_545
Nd3 O17 2.574408 1_555
Nd3 O18 2.599910 1_655
Nd3 O15 2.618248 1_555
Nd3 O9 2.634442 1_555
Nd3 O6 2.637867 1_555
Nd3 O29 2.684616 1_555
Nd3 O33 2.791411 1_555
Nd3 O27 2.815599 1_655
Nd4 O7 2.513298 1_555
Nd4 O15 2.534713 1_455
Nd4 O10 2.542139 1_555
Nd4 O19 2.546975 1_555
Nd4 O18 2.553825 1_555
Nd4 O16 2.569850 1_555
Nd4 O3 2.624210 1_545
Nd4 O0 2.626520 1_455
Nd4 O27 2.669122 1_555
Nd4 O28 2.686658 1_555
Nd5 O17 2.526763 1_556
Nd5 O20 2.562960 1_556
Nd5 O1 2.573320 1_555
Nd5 O4 2.575704 1_555
Nd5 O8 2.591462 1_556
Nd5 O16 2.595267 1_555
Nd5 O11 2.616710 1_555
Nd5 O19 2.650073 1_555
Nd5 O29 2.694158 1_556
Nd5 O33 2.789597 1_556
Nd5 O28 2.841931 1_555
Co0 O15 1.828598 1_565
Co0 O12 1.838920 1_555
Co0 O25 1.959415 1_565
Co0 O2 1.965568 1_555
Co0 O0 2.034415 1_565
Co1 O13 1.891011 1_445
Co1 O1 1.907476 1_555
Co1 O16 1.914222 1_555
Co1 O0 1.942052 1_455
Co1 O26 2.159383 1_455
Co2 O24 1.804078 1_555
Co2 O33 1.880769 1_565
Co2 O14 1.983281 1_554
Co2 O17 1.996619 1_565
Co2 O2 2.072624 1_555
Co2 O1 2.115751 1_564
Co3 O18 1.891011 1_665
Co3 O5 1.907476 1_555
Co3 O21 1.914222 1_555
Co3 O3 1.942052 1_655
Co3 O24 2.159383 1_655
Co4 O22 1.828598 1_545
Co4 O19 1.838920 1_555
Co4 O25 1.959415 1_555
Co4 O4 1.965568 1_555
Co4 O3 2.034415 1_545
Co5 O26 1.804078 1_555
Co5 O33 1.880769 1_556
Co5 O20 1.983281 1_556
Co5 O23 1.996619 1_545
Co5 O4 2.072624 1_555
Co5 O5 2.115751 1_546
Co6 O27 1.907615 1_655
Co6 O6 1.965676 1_555
Co6 O7 1.978924 1_655
Co6 O31 2.000277 1_555
Co6 O13 2.124202 1_555
Co6 O15 2.209088 1_555
Co7 O28 1.939592 1_555
Co7 O32 1.954167 1_556
Co7 O8 1.958096 1_556
Co7 O7 1.980692 1_555
Co7 O14 2.015220 1_555
Co7 O16 2.069602 1_555
Co8 O30 1.863098 1_555
Co8 O29 1.891167 1_555
Co8 O8 1.991896 1_555
Co8 O17 1.996793 1_555
Co8 O6 2.006714 1_555
Co8 O12 2.192568 1_555
Co9 O27 1.907615 1_555
Co9 O10 1.965676 1_555
Co9 O9 1.978924 1_455
Co9 O30 2.000277 1_555
Co9 O18 2.124202 1_555
Co9 O22 2.209088 1_555
Co10 O31 1.863098 1_555
Co10 O28 1.891167 1_555
Co10 O11 1.991896 1_555
Co10 O23 1.996793 1_555
Co10 O10 2.006714 1_555
Co10 O19 2.192568 1_555
Co11 O29 1.939592 1_555
Co11 O32 1.954167 1_655
Co11 O11 1.958096 1_554
Co11 O9 1.980692 1_555
Co11 O20 2.015220 1_555
Co11 O21 2.069602 1_555
