# generated using pymatgen
data_BaErCuS3
_symmetry_space_group_name_H-M   'P 1'
_cell_length_a   7.07569080
_cell_length_b   7.07569080
_cell_length_c   10.13975790
_cell_angle_alpha   90.00000000
_cell_angle_beta   90.00000000
_cell_angle_gamma   147.23120302
_symmetry_Int_Tables_number   1
_chemical_formula_structural   BaErCuS3
_chemical_formula_sum   'Ba2 Er2 Cu2 S6'
_cell_volume   274.76630792
_cell_formula_units_Z   2
loop_
 _symmetry_equiv_pos_site_id
 _symmetry_equiv_pos_as_xyz
  1  'x, y, z'
loop_
 _atom_site_type_symbol
 _atom_site_label
 _atom_site_symmetry_multiplicity
 _atom_site_fract_x
 _atom_site_fract_y
 _atom_site_fract_z
 _atom_site_occupancy
  Ba  Ba0  1  0.25595717  0.74404283  0.25000000  1
  Ba  Ba1  1  0.74404283  0.25595717  0.75000000  1
  Er  Er0  1  0.00000000  -0.00000000  0.50000000  1
  Er  Er1  1  0.00000000  -0.00000000  -0.00000000  1
  Cu  Cu0  1  0.46725520  0.53274480  0.75000000  1
  Cu  Cu1  1  0.53274480  0.46725520  0.25000000  1
  S  S0  1  0.06419250  0.93580750  0.75000000  1
  S  S1  1  0.93580750  0.06419250  0.25000000  1
  S  S2  1  0.37031050  0.62968950  0.56174588  1
  S  S3  1  0.37031050  0.62968950  0.93825412  1
  S  S4  1  0.62968950  0.37031050  0.06174588  1
  S  S5  1  0.62968950  0.37031050  0.43825412  1
loop_
_geom_bond_atom_site_label_1
_geom_bond_atom_site_label_2
_geom_bond_distance
_geom_bond_site_symmetry_2
Ba0 S1 3.153717 1_565
Ba0 S1 3.153717 1_455
Ba0 S5 3.250569 1_565
Ba0 S4 3.250569 1_565
Ba0 S4 3.250569 1_455
Ba0 S5 3.250569 1_455
Ba0 S2 3.521716 1_555
Ba0 S3 3.521716 1_554
Ba1 S0 3.153717 1_545
Ba1 S0 3.153717 1_655
Ba1 S2 3.250569 1_545
Ba1 S2 3.250569 1_655
Ba1 S3 3.250569 1_655
Ba1 S3 3.250569 1_545
Ba1 S4 3.521716 1_556
Ba1 S5 3.521716 1_555
Er0 S1 2.680573 1_455
Er0 S0 2.680573 1_545
Er0 S2 2.734212 1_445
Er0 S5 2.734212 1_555
Er0 S2 2.734212 1_555
Er0 S5 2.734212 1_445
Er1 S1 2.680573 1_455
Er1 S0 2.680573 1_544
Er1 S3 2.734212 1_444
Er1 S4 2.734212 1_555
Er1 S4 2.734212 1_445
Er1 S3 2.734212 1_554
Cu0 S3 2.318635 1_555
Cu0 S2 2.318635 1_555
Cu0 S0 2.390765 1_545
Cu0 S0 2.390765 1_655
Cu1 S4 2.318635 1_555
Cu1 S5 2.318635 1_555
Cu1 S1 2.390765 1_455
Cu1 S1 2.390765 1_565
