# generated using pymatgen
data_KCuF3
_symmetry_space_group_name_H-M   'P 1'
_cell_length_a   3.95252198
_cell_length_b   5.77332873
_cell_length_c   5.77332873
_cell_angle_alpha   90.03031512
_cell_angle_beta   90.00000000
_cell_angle_gamma   90.00000000
_symmetry_Int_Tables_number   1
_chemical_formula_structural   KCuF3
_chemical_formula_sum   'K2 Cu2 F6'
_cell_volume   131.74277485
_cell_formula_units_Z   2
loop_
 _symmetry_equiv_pos_site_id
 _symmetry_equiv_pos_as_xyz
  1  'x, y, z'
loop_
 _atom_site_type_symbol
 _atom_site_label
 _atom_site_symmetry_multiplicity
 _atom_site_fract_x
 _atom_site_fract_y
 _atom_site_fract_z
 _atom_site_occupancy
  K  K0  1  0.50000000  -0.00000000  -0.00000000  1
  K  K1  1  0.50000000  0.50000000  0.50000000  1
  Cu  Cu0  1  -0.00000000  -0.00000000  0.50000000  1
  Cu  Cu1  1  -0.00000000  0.50000000  -0.00000000  1
  F  F0  1  -0.00000000  0.76817030  0.26817030  1
  F  F1  1  0.00000000  0.73201690  0.76798310  1
  F  F2  1  -0.00000000  0.26798310  0.23201690  1
  F  F3  1  0.00000000  0.23182970  0.73182970  1
  F  F4  1  0.50000000  -0.00000000  0.50000000  1
  F  F5  1  0.50000000  0.50000000  -0.00000000  1
loop_
_geom_bond_atom_site_label_1
_geom_bond_atom_site_label_2
_geom_bond_distance
_geom_bond_site_symmetry_2
Cu0 F3 1.892324 1_555
Cu0 F0 1.892324 1_545
Cu0 F4 1.976261 1_455
Cu0 F4 1.976261 1_555
Cu0 F1 2.188586 1_545
Cu0 F2 2.188586 1_555
Cu1 F2 1.894854 1_555
Cu1 F1 1.894854 1_554
Cu1 F5 1.976261 1_455
Cu1 F5 1.976261 1_555
Cu1 F0 2.188956 1_555
Cu1 F3 2.188956 1_554
F0 K0 2.845387 1_565
F0 K1 2.845387 1_455
F0 K0 2.845387 1_465
F0 K1 2.845387 1_555
F1 K1 2.844537 1_455
F1 K1 2.844537 1_555
F1 K0 2.844537 1_566
F1 K0 2.844537 1_466
F2 K1 2.844537 1_455
F2 K0 2.844537 1_555
F2 K0 2.844537 1_455
F2 K1 2.844537 1_555
F3 K1 2.845387 1_455
F3 K1 2.845387 1_555
F3 K0 2.845387 1_456
F3 K0 2.845387 1_556
F4 K0 2.886664 1_555
F4 K1 2.886664 1_555
F4 K0 2.886664 1_556
F4 K1 2.886664 1_545
F5 K0 2.886664 1_555
F5 K1 2.886664 1_555
F5 K1 2.886664 1_554
F5 K0 2.886664 1_565
