# generated using pymatgen
data_La5Al2Ru3
_symmetry_space_group_name_H-M   'P 1'
_cell_length_a   8.63830722
_cell_length_b   8.63830722
_cell_length_c   8.63830722
_cell_angle_alpha   109.47122063
_cell_angle_beta   109.47122063
_cell_angle_gamma   109.47122063
_symmetry_Int_Tables_number   1
_chemical_formula_structural   La5Al2Ru3
_chemical_formula_sum   'La10 Al4 Ru6'
_cell_volume   496.20832512
_cell_formula_units_Z   2
loop_
 _symmetry_equiv_pos_site_id
 _symmetry_equiv_pos_as_xyz
  1  'x, y, z'
loop_
 _atom_site_type_symbol
 _atom_site_label
 _atom_site_symmetry_multiplicity
 _atom_site_fract_x
 _atom_site_fract_y
 _atom_site_fract_z
 _atom_site_occupancy
  La  La0  1  0.25000000  0.68990200  0.43990300  1
  La  La1  1  0.75000000  0.81009800  0.06009800  1
  La  La2  1  0.43990300  0.25000000  0.68990200  1
  La  La3  1  0.68990200  0.43990300  0.25000000  1
  La  La4  1  0.06009800  0.75000000  0.81009800  1
  La  La5  1  0.81009800  0.06009800  0.75000000  1
  La  La6  1  0.21114400  0.21114400  0.21114400  1
  La  La7  1  0.50000100  0.00000000  0.28885600  1
  La  La8  1  0.28885600  0.50000100  0.00000000  1
  La  La9  1  0.00000000  0.28885600  0.50000100  1
  Al  Al0  1  0.50000100  0.00000000  0.91332800  1
  Al  Al1  1  0.58667200  0.58667200  0.58667200  1
  Al  Al2  1  0.91332800  0.50000100  0.00000000  1
  Al  Al3  1  0.00000000  0.91332800  0.50000100  1
  Ru  Ru0  1  0.25000100  0.11721000  0.86721000  1
  Ru  Ru1  1  0.75000000  0.38278900  0.63278900  1
  Ru  Ru2  1  0.86721000  0.25000100  0.11721000  1
  Ru  Ru3  1  0.11721000  0.86721000  0.25000100  1
  Ru  Ru4  1  0.63278900  0.75000000  0.38278900  1
  Ru  Ru5  1  0.38278900  0.63278900  0.75000000  1
loop_
_geom_bond_atom_site_label_1
_geom_bond_atom_site_label_2
_geom_bond_distance
_geom_bond_site_symmetry_2
La0 Ru5 2.818609 1_555
La0 Ru3 2.818612 1_555
La0 Ru2 3.400111 1_455
La0 Ru4 3.400115 1_555
La1 Ru3 2.818614 1_655
La1 Ru5 2.818616 1_554
La1 Ru4 3.400110 1_555
La1 Ru2 3.400123 1_565
La2 Ru1 2.818609 1_555
La2 Ru0 2.818612 1_555
La2 Ru3 3.400111 1_545
La2 Ru5 3.400115 1_555
La3 Ru4 2.818609 1_555
La3 Ru2 2.818612 1_555
La3 Ru0 3.400111 1_554
La3 Ru1 3.400115 1_555
La4 Ru0 2.818614 1_565
La4 Ru1 2.818616 1_455
La4 Ru5 3.400110 1_555
La4 Ru3 3.400123 1_556
La5 Ru2 2.818614 1_556
La5 Ru4 2.818616 1_545
La5 Ru1 3.400110 1_555
La5 Ru0 3.400123 1_655
La6 Ru2 2.972743 1_455
La6 Ru3 2.972743 1_545
La6 Ru0 2.972743 1_554
La7 Ru4 2.972726 1_545
La7 Ru1 2.972730 1_555
La7 Ru3 2.972750 1_545
La8 Ru5 2.972726 1_554
La8 Ru4 2.972730 1_555
La8 Ru0 2.972750 1_554
La9 Ru1 2.972726 1_455
La9 Ru5 2.972730 1_555
La9 Ru2 2.972750 1_455
Al0 Ru2 2.645877 1_556
Al0 Ru0 2.645881 1_555
Al0 Ru5 2.645885 1_545
Al0 La7 3.243926 1_556
Al0 La1 3.299264 1_546
Al0 La4 3.299277 1_545
Al0 La3 3.299277 1_556
Al0 La5 3.393575 1_555
Al0 La0 3.393576 1_545
Al0 La2 3.393583 1_555
Al1 Ru5 2.645887 1_555
Al1 Ru1 2.645887 1_555
Al1 Ru4 2.645887 1_555
Al1 La6 3.243926 1_555
Al1 La3 3.299268 1_555
Al1 La2 3.299268 1_555
Al1 La0 3.299268 1_555
Al1 La1 3.393583 1_556
Al1 La5 3.393583 1_565
Al1 La4 3.393583 1_655
Al2 Ru3 2.645877 1_655
Al2 Ru2 2.645881 1_555
Al2 Ru1 2.645885 1_554
Al2 La8 3.243926 1_655
Al2 La4 3.299264 1_654
Al2 La5 3.299277 1_554
Al2 La0 3.299277 1_655
Al2 La1 3.393575 1_555
Al2 La2 3.393576 1_554
Al2 La3 3.393583 1_555
Al3 Ru0 2.645877 1_565
Al3 Ru3 2.645881 1_555
Al3 Ru4 2.645885 1_455
Al3 La9 3.243926 1_565
Al3 La5 3.299264 1_465
Al3 La1 3.299277 1_455
Al3 La2 3.299277 1_565
Al3 La4 3.393575 1_555
Al3 La3 3.393576 1_455
Al3 La0 3.393583 1_555
