# generated using pymatgen
data_Ag2Mo(I2O7)2
_symmetry_space_group_name_H-M   'P 1'
_cell_length_a   7.02469994
_cell_length_b   7.02469994
_cell_length_c   17.76058119
_cell_angle_alpha   81.57761005
_cell_angle_beta   81.57761005
_cell_angle_gamma   48.99385845
_symmetry_Int_Tables_number   1
_chemical_formula_structural   Ag2Mo(I2O7)2
_chemical_formula_sum   'Ag4 Mo2 I8 O28'
_cell_volume   652.75797613
_cell_formula_units_Z   2
loop_
 _symmetry_equiv_pos_site_id
 _symmetry_equiv_pos_as_xyz
  1  'x, y, z'
loop_
 _atom_site_type_symbol
 _atom_site_label
 _atom_site_symmetry_multiplicity
 _atom_site_fract_x
 _atom_site_fract_y
 _atom_site_fract_z
 _atom_site_occupancy
  Ag  Ag0  1  0.67079700  0.68198600  0.03987400  1
  Ag  Ag1  1  0.31801400  0.32920300  0.46012600  1
  Ag  Ag2  1  0.32920300  0.31801400  0.96012600  1
  Ag  Ag3  1  0.68198600  0.67079700  0.53987400  1
  Mo  Mo0  1  0.56871800  0.43128200  0.25000000  1
  Mo  Mo1  1  0.43128200  0.56871800  0.75000000  1
  I  I0  1  0.85713500  0.06129200  0.08776800  1
  I  I1  1  0.93870800  0.14286500  0.41223200  1
  I  I2  1  0.14286500  0.93870800  0.91223200  1
  I  I3  1  0.06129200  0.85713500  0.58776800  1
  I  I4  1  0.20163300  0.22212200  0.17427700  1
  I  I5  1  0.77787800  0.79836700  0.32572300  1
  I  I6  1  0.79836700  0.77787800  0.82572300  1
  I  I7  1  0.22212200  0.20163300  0.67427700  1
  O  O0  1  0.58305100  0.09460500  0.06980200  1
  O  O1  1  0.90539500  0.41694900  0.43019800  1
  O  O2  1  0.41694900  0.90539500  0.93019800  1
  O  O3  1  0.09460500  0.58305100  0.56980200  1
  O  O4  1  0.65292300  0.37662000  0.13920500  1
  O  O5  1  0.62338000  0.34707700  0.36079500  1
  O  O6  1  0.34707700  0.62338000  0.86079500  1
  O  O7  1  0.37662000  0.65292300  0.63920500  1
  O  O8  1  0.84740600  0.24969300  0.00036400  1
  O  O9  1  0.75030700  0.15259400  0.49963600  1
  O  O10  1  0.15259400  0.75030700  0.99963600  1
  O  O11  1  0.24969300  0.84740600  0.50036400  1
  O  O12  1  0.21511500  0.03386500  0.10833300  1
  O  O13  1  0.96613500  0.78488500  0.39166700  1
  O  O14  1  0.78488500  0.96613500  0.89166700  1
  O  O15  1  0.03386500  0.21511500  0.60833300  1
  O  O16  1  0.97404900  0.25029600  0.25226500  1
  O  O17  1  0.74970400  0.02595100  0.24773500  1
  O  O18  1  0.02595100  0.74970400  0.74773500  1
  O  O19  1  0.25029600  0.97404900  0.75226500  1
  O  O20  1  0.99536900  0.53284600  0.12459900  1
  O  O21  1  0.46715400  0.00463100  0.37540100  1
  O  O22  1  0.00463100  0.46715400  0.87540100  1
  O  O23  1  0.53284600  0.99536900  0.62459900  1
  O  O24  1  0.27373300  0.50711000  0.25690900  1
  O  O25  1  0.49289000  0.72626700  0.24309100  1
  O  O26  1  0.72626700  0.49289000  0.74309100  1
  O  O27  1  0.50711000  0.27373300  0.75690900  1
loop_
_geom_bond_atom_site_label_1
_geom_bond_atom_site_label_2
_geom_bond_distance
_geom_bond_site_symmetry_2
Ag0 O2 2.426250 1_554
Ag0 O20 2.443155 1_555
Ag0 O8 2.584290 1_555
Ag0 O4 2.628599 1_555
Ag0 O0 2.659834 1_565
Ag0 O12 2.681769 1_565
Ag1 O3 2.426250 1_555
Ag1 O21 2.443155 1_555
Ag1 O9 2.584290 1_555
Ag1 O5 2.628599 1_555
Ag1 O1 2.659834 1_455
Ag1 O13 2.681769 1_455
Ag2 O0 2.426250 1_556
Ag2 O22 2.443155 1_555
Ag2 O10 2.584290 1_555
Ag2 O6 2.628599 1_555
Ag2 O2 2.659834 1_545
Ag2 O14 2.681769 1_545
Ag3 O1 2.426250 1_555
Ag3 O23 2.443155 1_555
Ag3 O11 2.584290 1_555
Ag3 O7 2.628599 1_555
Ag3 O3 2.659834 1_655
Ag3 O15 2.681769 1_655
Mo0 O24 1.757530 1_555
Mo0 O25 1.757530 1_555
Mo0 O4 1.987917 1_555
Mo0 O5 1.987917 1_555
Mo0 O16 2.234588 1_555
Mo0 O17 2.234588 1_555
Mo1 O26 1.757530 1_555
Mo1 O27 1.757530 1_555
Mo1 O7 1.987917 1_555
Mo1 O6 1.987917 1_555
Mo1 O19 2.234588 1_555
Mo1 O18 2.234588 1_555
I0 O0 1.852138 1_555
I0 O8 1.864550 1_555
I0 O4 1.959090 1_555
I0 O10 2.372803 1_644
I0 O12 2.471214 1_655
I1 O1 1.852138 1_555
I1 O9 1.864550 1_555
I1 O5 1.959090 1_555
I1 O11 2.372803 1_645
I1 O13 2.471214 1_545
I2 O2 1.852138 1_555
I2 O10 1.864550 1_555
I2 O6 1.959090 1_555
I2 O8 2.372803 1_466
I2 O14 2.471214 1_455
I3 O3 1.852138 1_555
I3 O11 1.864550 1_555
I3 O7 1.959090 1_555
I3 O9 2.372803 1_465
I3 O15 2.471214 1_565
I4 O20 1.817225 1_455
I4 O12 1.840226 1_555
I4 O16 1.878825 1_455
I4 O0 2.702826 1_555
I5 O21 1.817225 1_565
I5 O13 1.840226 1_555
I5 O17 1.878825 1_565
I5 O1 2.702826 1_555
I6 O22 1.817225 1_655
I6 O14 1.840226 1_555
I6 O18 1.878825 1_655
I6 O2 2.702826 1_555
I7 O23 1.817225 1_545
I7 O15 1.840226 1_555
I7 O19 1.878825 1_545
I7 O3 2.702826 1_555
