# generated using pymatgen
data_LiMnP3HO10
_symmetry_space_group_name_H-M   'P 1'
_cell_length_a   7.47922206
_cell_length_b   9.38459483
_cell_length_c   7.51820083
_cell_angle_alpha   104.41691400
_cell_angle_beta   67.93176058
_cell_angle_gamma   105.37141430
_symmetry_Int_Tables_number   1
_chemical_formula_structural   LiMnP3HO10
_chemical_formula_sum   'Li2 Mn2 P6 H2 O20'
_cell_volume   464.90795251
_cell_formula_units_Z   2
loop_
 _symmetry_equiv_pos_site_id
 _symmetry_equiv_pos_as_xyz
  1  'x, y, z'
loop_
 _atom_site_type_symbol
 _atom_site_label
 _atom_site_symmetry_multiplicity
 _atom_site_fract_x
 _atom_site_fract_y
 _atom_site_fract_z
 _atom_site_occupancy
  Li  Li0  1  0.13308700  0.25358600  0.37323900  1
  Li  Li1  1  0.63248700  0.75345300  0.87058600  1
  Mn  Mn0  1  0.17788100  0.49977700  0.82226800  1
  Mn  Mn1  1  0.67812700  0.99977600  0.32218600  1
  P  P0  1  0.82756300  0.24900200  0.67296900  1
  P  P1  1  0.32872100  0.74872000  0.17248000  1
  P  P2  1  0.42932900  0.22351300  0.65868400  1
  P  P3  1  0.93009900  0.72372200  0.15876200  1
  P  P4  1  0.83546600  0.27511600  0.07147000  1
  P  P5  1  0.33548300  0.77494700  0.57118100  1
  H  H0  1  0.24304300  0.01269200  0.76691700  1
  H  H1  1  0.74335100  0.51221600  0.26652900  1
  O  O0  1  0.98414400  0.62913400  0.95539300  1
  O  O1  1  0.48391500  0.12890000  0.45540200  1
  O  O2  1  0.54623500  0.86846900  0.51263300  1
  O  O3  1  0.04608300  0.36872400  0.01265300  1
  O  O4  1  0.34379400  0.64350800  0.65210900  1
  O  O5  1  0.84374900  0.14350800  0.15211800  1
  O  O6  1  0.84811600  0.85460300  0.15705500  1
  O  O7  1  0.34634900  0.35371000  0.65663700  1
  O  O8  1  0.99664300  0.38142800  0.63410100  1
  O  O9  1  0.49780000  0.88111100  0.13383100  1
  O  O10  1  0.86590000  0.12067000  0.50351300  1
  O  O11  1  0.36733300  0.62093100  0.00243800  1
  O  O12  1  0.62922600  0.30321300  0.71082400  1
  O  O13  1  0.13049300  0.80296500  0.21064500  1
  O  O14  1  0.79102900  0.19184300  0.86759400  1
  O  O15  1  0.29187700  0.69129000  0.36699900  1
  O  O16  1  0.67833600  0.36618500  0.19258300  1
  O  O17  1  0.17849300  0.86610900  0.69195400  1
  O  O18  1  0.30060900  0.12863000  0.81939100  1
  O  O19  1  0.80109600  0.62854800  0.31899900  1
loop_
_geom_bond_atom_site_label_1
_geom_bond_atom_site_label_2
_geom_bond_distance
_geom_bond_site_symmetry_2
Li0 O8 2.073807 1_455
Li0 O10 2.079602 1_455
Li1 O11 2.071563 1_556
Li1 O9 2.080386 1_556
Mn0 O3 1.925283 1_556
Mn0 O4 1.942901 1_555
Mn0 O0 1.952646 1_455
Mn0 O7 1.975853 1_555
Mn0 O8 2.220969 1_455
Mn0 O11 2.226329 1_556
Mn1 O2 1.927299 1_555
Mn1 O5 1.942052 1_565
Mn1 O1 1.953730 1_565
Mn1 O6 1.975810 1_555
Mn1 O9 2.217675 1_555
Mn1 O10 2.222999 1_565
H0 O18 1.091039 1_555
H0 O17 1.381796 1_545
H1 O19 1.094356 1_555
H1 O16 1.376261 1_555
O0 P3 1.529407 1_556
O1 P2 1.529185 1_555
O2 P5 1.544745 1_555
O3 P4 1.544362 1_455
O4 P5 1.529171 1_555
O5 P4 1.529249 1_555
O6 P3 1.515854 1_555
O7 P2 1.515546 1_555
O8 P0 1.516251 1_555
O9 P1 1.515898 1_555
O10 P0 1.516674 1_555
O11 P1 1.516143 1_555
O12 P0 1.597209 1_555
O12 P2 1.627849 1_555
O13 P1 1.596023 1_555
O13 P3 1.629576 1_455
O14 P0 1.586236 1_555
O14 P4 1.649007 1_556
O15 P1 1.586205 1_555
O15 P5 1.649103 1_555
O16 P4 1.510472 1_555
O17 P5 1.509849 1_555
O18 P2 1.544908 1_555
O19 P3 1.544500 1_555
