# generated using pymatgen
data_Eu2FeP3Pt7
_symmetry_space_group_name_H-M   'P 1'
_cell_length_a   13.79781898
_cell_length_b   13.79781898
_cell_length_c   13.79781898
_cell_angle_alpha   162.97958171
_cell_angle_beta   162.97958171
_cell_angle_gamma   24.16070926
_symmetry_Int_Tables_number   1
_chemical_formula_structural   Eu2FeP3Pt7
_chemical_formula_sum   'Eu2 Fe1 P3 Pt7'
_cell_volume   225.01160808
_cell_formula_units_Z   1
loop_
 _symmetry_equiv_pos_site_id
 _symmetry_equiv_pos_as_xyz
  1  'x, y, z'
loop_
 _atom_site_type_symbol
 _atom_site_label
 _atom_site_symmetry_multiplicity
 _atom_site_fract_x
 _atom_site_fract_y
 _atom_site_fract_z
 _atom_site_occupancy
  Eu  Eu0  1  0.66480400  0.66480400  0.00000000  1
  Eu  Eu1  1  0.33519600  0.33519600  0.00000000  1
  Fe  Fe0  1  0.50000000  0.50000000  0.00000000  1
  P  P0  1  0.88023600  0.88023600  0.00000000  1
  P  P1  1  0.11976400  0.11976400  0.00000000  1
  P  P2  1  0.25000000  0.75000000  0.50000000  1
  Pt  Pt0  1  0.42968100  0.92968100  0.50000000  1
  Pt  Pt1  1  0.92933400  0.42933400  0.50000000  1
  Pt  Pt2  1  0.57066600  0.07066600  0.50000000  1
  Pt  Pt3  1  0.07031900  0.57031900  0.50000000  1
  Pt  Pt4  1  0.79294600  0.79294600  0.00000000  1
  Pt  Pt5  1  0.20705400  0.20705400  0.00000000  1
  Pt  Pt6  1  0.00000000  0.00000000  0.00000000  1
loop_
_geom_bond_atom_site_label_1
_geom_bond_atom_site_label_2
_geom_bond_distance
_geom_bond_site_symmetry_2
Eu0 P2 3.074826 1_554
Eu0 P2 3.074826 1_655
Eu0 Pt5 3.104571 1_554
Eu0 Pt5 3.104571 1_655
Eu0 Pt5 3.104571 1_565
Eu0 Pt5 3.104571 1_666
Eu0 P1 3.133001 1_655
Eu0 P1 3.133001 1_554
Eu0 P1 3.133001 1_666
Eu0 P1 3.133001 1_565
Eu0 Pt2 3.259178 1_565
Eu0 Pt2 3.259178 1_554
Eu0 Pt3 3.266482 1_655
Eu0 Pt3 3.266482 1_554
Eu0 Pt4 3.457852 1_555
Eu1 P2 3.074826 1_544
Eu1 P2 3.074826 1_555
Eu1 Pt4 3.104571 1_556
Eu1 Pt4 3.104571 1_545
Eu1 Pt4 3.104571 1_455
Eu1 Pt4 3.104571 1_444
Eu1 P0 3.133001 1_444
Eu1 P0 3.133001 1_545
Eu1 P0 3.133001 1_455
Eu1 P0 3.133001 1_556
Eu1 Pt1 3.259178 1_555
Eu1 Pt1 3.259178 1_454
Eu1 Pt0 3.266482 1_555
Eu1 Pt0 3.266482 1_544
Eu1 Pt5 3.457852 1_555
Fe0 Pt3 2.787449 1_655
Fe0 Pt3 2.787449 1_554
Fe0 Pt0 2.787449 1_544
Fe0 Pt0 2.787449 1_555
Fe0 Pt2 2.793832 1_565
Fe0 Pt2 2.793832 1_554
Fe0 Pt1 2.793832 1_555
Fe0 Pt1 2.793832 1_454
Fe0 Pt6 2.887653 1_565
Fe0 Pt6 2.887653 1_666
Fe0 Pt6 2.887653 1_554
Fe0 Pt6 2.887653 1_655
P0 Pt4 2.355480 1_555
P0 Pt1 2.434049 1_565
P0 Pt1 2.434049 1_554
P0 Pt0 2.439158 1_554
P0 Pt0 2.439158 1_655
P1 Pt5 2.355480 1_555
P1 Pt2 2.434049 1_454
P1 Pt2 2.434049 1_555
P1 Pt3 2.439158 1_544
P1 Pt3 2.439158 1_555
P2 Pt4 2.347822 1_455
P2 Pt4 2.347822 1_556
P2 Pt5 2.347822 1_566
P2 Pt5 2.347822 1_555
Pt0 Pt6 2.787449 1_565
Pt0 Pt6 2.787449 1_666
Pt0 Pt1 2.887668 1_555
Pt0 Pt1 2.887668 1_465
Pt0 Pt1 2.887668 1_566
Pt0 Pt1 2.887668 1_454
Pt1 Pt6 2.793832 1_666
Pt1 Pt6 2.793832 1_655
Pt2 Pt6 2.793832 1_656
Pt2 Pt6 2.793832 1_555
Pt2 Pt3 2.887668 1_645
Pt2 Pt3 2.887668 1_656
Pt2 Pt3 2.887668 1_544
Pt2 Pt3 2.887668 1_555
Pt3 Pt6 2.787449 1_566
Pt3 Pt6 2.787449 1_555
