# generated using pymatgen
data_Yb8Al3Ga
_symmetry_space_group_name_H-M   'P 1'
_cell_length_a   11.08339955
_cell_length_b   11.08339955
_cell_length_c   11.08339992
_cell_angle_alpha   33.33922686
_cell_angle_beta   33.33922686
_cell_angle_gamma   33.33922798
_symmetry_Int_Tables_number   1
_chemical_formula_structural   Yb8Al3Ga
_chemical_formula_sum   'Yb8 Al3 Ga1'
_cell_volume   366.17782786
_cell_formula_units_Z   1
loop_
 _symmetry_equiv_pos_site_id
 _symmetry_equiv_pos_as_xyz
  1  'x, y, z'
loop_
 _atom_site_type_symbol
 _atom_site_label
 _atom_site_symmetry_multiplicity
 _atom_site_fract_x
 _atom_site_fract_y
 _atom_site_fract_z
 _atom_site_occupancy
  Yb  Yb0  1  0.56234900  0.06250900  0.56234900  1
  Yb  Yb1  1  0.06244600  0.56281100  0.06244600  1
  Yb  Yb2  1  0.06250900  0.56234900  0.56234900  1
  Yb  Yb3  1  0.56281100  0.06244600  0.06244600  1
  Yb  Yb4  1  0.81257700  0.81257700  0.81257700  1
  Yb  Yb5  1  0.31252800  0.31252800  0.31252800  1
  Yb  Yb6  1  0.56234900  0.56234900  0.06250900  1
  Yb  Yb7  1  0.06244600  0.06244600  0.56281100  1
  Al  Al0  1  0.62467000  0.62467000  0.62467000  1
  Al  Al1  1  0.00014800  0.00014800  0.00014800  1
  Al  Al2  1  0.50045300  0.50045300  0.50045300  1
  Ga  Ga0  1  0.12471300  0.12471300  0.12471300  1
loop_
_geom_bond_atom_site_label_1
_geom_bond_atom_site_label_2
_geom_bond_distance
_geom_bond_site_symmetry_2
Yb0 Yb6 3.178284 1_555
Yb0 Yb2 3.178284 1_555
Yb0 Yb6 3.180318 1_546
Yb0 Yb2 3.180318 1_645
Yb0 Yb5 3.190900 1_555
Yb0 Yb4 3.199287 1_545
Yb1 Yb7 3.176980 1_564
Yb1 Yb3 3.176980 1_465
Yb1 Yb7 3.181622 1_555
Yb1 Yb3 3.181622 1_555
Yb1 Yb4 3.193454 1_454
Yb1 Yb5 3.194216 1_555
Yb2 Yb6 3.178284 1_555
Yb2 Yb6 3.180318 1_456
Yb2 Yb5 3.190900 1_555
Yb2 Yb4 3.199287 1_455
Yb3 Yb7 3.176980 1_654
Yb3 Yb7 3.181622 1_555
Yb3 Yb4 3.193454 1_544
Yb3 Yb5 3.194216 1_555
Yb4 Yb7 3.193454 1_665
Yb4 Yb6 3.199287 1_556
Yb5 Yb6 3.190900 1_555
Yb5 Yb7 3.194215 1_555
Al0 Yb3 3.728811 1_556
Al0 Yb1 3.728811 1_556
Al0 Yb7 3.728811 1_565
Al0 Yb7 3.728811 1_655
Al0 Yb3 3.728811 1_565
Al0 Yb1 3.728811 1_655
Al0 Yb5 3.730856 1_565
Al0 Yb5 3.730856 1_655
Al0 Yb5 3.730856 1_556
Al0 Yb2 3.754903 1_655
Al0 Yb0 3.754903 1_565
Al0 Yb6 3.754903 1_556
Al1 Yb5 3.729533 1_455
Al1 Yb5 3.729533 1_545
Al1 Yb5 3.729533 1_554
Al1 Yb2 3.731304 1_554
Al1 Yb0 3.731304 1_554
Al1 Yb6 3.731305 1_455
Al1 Yb6 3.731305 1_545
Al1 Yb0 3.731305 1_455
Al1 Yb2 3.731305 1_545
Al1 Yb3 3.749801 1_455
Al1 Yb1 3.749801 1_545
Al1 Yb7 3.749801 1_554
Al2 Yb1 3.729013 1_655
Al2 Yb3 3.729013 1_565
Al2 Yb7 3.729013 1_565
Al2 Yb7 3.729013 1_655
Al2 Yb1 3.729013 1_556
Al2 Yb3 3.729013 1_556
Al2 Yb4 3.730957 1_545
Al2 Yb4 3.730957 1_455
Al2 Yb4 3.730957 1_554
Al2 Yb2 3.763044 1_555
Al2 Yb0 3.763044 1_555
Al2 Yb6 3.763045 1_555
Ga0 Yb4 3.730889 1_454
Ga0 Yb4 3.730889 1_544
Ga0 Yb4 3.730890 1_445
Ga0 Yb0 3.732230 1_455
Ga0 Yb2 3.732230 1_545
Ga0 Yb6 3.732230 1_455
Ga0 Yb6 3.732230 1_545
Ga0 Yb2 3.732230 1_554
Ga0 Yb0 3.732230 1_554
Ga0 Yb3 3.758619 1_555
Ga0 Yb1 3.758619 1_555
Ga0 Yb7 3.758619 1_555
