# generated using pymatgen
data_Cr2(GeO4)3
_symmetry_space_group_name_H-M   'P 1'
_cell_length_a   10.33454961
_cell_length_b   10.33454961
_cell_length_c   10.33454961
_cell_angle_alpha   109.47122063
_cell_angle_beta   109.47122063
_cell_angle_gamma   109.47122063
_symmetry_Int_Tables_number   1
_chemical_formula_structural   Cr2(GeO4)3
_chemical_formula_sum   'Cr8 Ge12 O48'
_cell_volume   849.67486771
_cell_formula_units_Z   4
loop_
 _symmetry_equiv_pos_site_id
 _symmetry_equiv_pos_as_xyz
  1  'x, y, z'
loop_
 _atom_site_type_symbol
 _atom_site_label
 _atom_site_symmetry_multiplicity
 _atom_site_fract_x
 _atom_site_fract_y
 _atom_site_fract_z
 _atom_site_occupancy
  Cr  Cr0  1  0.50000000  0.50000000  0.50000000  1
  Cr  Cr1  1  0.50000000  0.00000000  0.50000000  1
  Cr  Cr2  1  0.00000000  0.50000000  0.50000000  1
  Cr  Cr3  1  0.50000000  0.50000000  0.00000000  1
  Cr  Cr4  1  0.00000000  0.00000000  0.50000000  1
  Cr  Cr5  1  0.00000000  0.50000000  0.00000000  1
  Cr  Cr6  1  0.50000000  0.00000000  0.00000000  1
  Cr  Cr7  1  0.00000000  0.00000000  0.00000000  1
  Ge  Ge0  1  0.12500000  0.75000000  0.87500000  1
  Ge  Ge1  1  0.87500000  0.25000000  0.12500000  1
  Ge  Ge2  1  0.62500000  0.37500000  0.25000000  1
  Ge  Ge3  1  0.75000000  0.87500000  0.12500000  1
  Ge  Ge4  1  0.87500000  0.12500000  0.75000000  1
  Ge  Ge5  1  0.25000000  0.62500000  0.37500000  1
  Ge  Ge6  1  0.75000000  0.37500000  0.62500000  1
  Ge  Ge7  1  0.25000000  0.12500000  0.87500000  1
  Ge  Ge8  1  0.12500000  0.87500000  0.25000000  1
  Ge  Ge9  1  0.37500000  0.62500000  0.75000000  1
  Ge  Ge10  1  0.62500000  0.75000000  0.37500000  1
  Ge  Ge11  1  0.37500000  0.25000000  0.62500000  1
  O  O0  1  0.41302400  0.82202800  0.80807100  1
  O  O1  1  0.89504700  0.40900400  0.08697600  1
  O  O2  1  0.09099600  0.98604300  0.67797200  1
  O  O3  1  0.51395700  0.60495300  0.69192900  1
  O  O4  1  0.67797200  0.08697600  0.69192900  1
  O  O5  1  0.60495300  0.69192900  0.51395700  1
  O  O6  1  0.60495300  0.41302400  0.09099600  1
  O  O7  1  0.69192900  0.51395700  0.60495300  1
  O  O8  1  0.82202800  0.51395700  0.40900400  1
  O  O9  1  0.98604300  0.80807100  0.89504700  1
  O  O10  1  0.80807100  0.89504700  0.98604300  1
  O  O11  1  0.69192900  0.67797200  0.08697600  1
  O  O12  1  0.41302400  0.09099600  0.60495300  1
  O  O13  1  0.40900400  0.82202800  0.51395700  1
  O  O14  1  0.08697600  0.69192900  0.67797200  1
  O  O15  1  0.09099600  0.60495300  0.41302400  1
  O  O16  1  0.51395700  0.40900400  0.82202800  1
  O  O17  1  0.08697600  0.89504700  0.40900400  1
  O  O18  1  0.98604300  0.67797200  0.09099600  1
  O  O19  1  0.17797200  0.48604300  0.59099600  1
  O  O20  1  0.67797200  0.09099600  0.98604300  1
  O  O21  1  0.80807100  0.41302400  0.82202800  1
  O  O22  1  0.40900400  0.08697600  0.89504700  1
  O  O23  1  0.89504700  0.98604300  0.80807100  1
  O  O24  1  0.58697600  0.17797200  0.19192900  1
  O  O25  1  0.10495300  0.59099600  0.91302400  1
  O  O26  1  0.90900400  0.01395700  0.32202800  1
  O  O27  1  0.48604300  0.39504700  0.30807100  1
  O  O28  1  0.32202800  0.91302400  0.30807100  1
  O  O29  1  0.39504700  0.30807100  0.48604300  1
  O  O30  1  0.39504700  0.58697600  0.90900400  1
  O  O31  1  0.30807100  0.48604300  0.39504700  1
  O  O32  1  0.10495300  0.01395700  0.19192900  1
  O  O33  1  0.59099600  0.91302400  0.10495300  1
  O  O34  1  0.19192900  0.58697600  0.17797200  1
  O  O35  1  0.17797200  0.19192900  0.58697600  1
  O  O36  1  0.32202800  0.90900400  0.01395700  1
  O  O37  1  0.01395700  0.32202800  0.90900400  1
  O  O38  1  0.91302400  0.10495300  0.59099600  1
  O  O39  1  0.48604300  0.59099600  0.17797200  1
  O  O40  1  0.90900400  0.39504700  0.58697600  1
  O  O41  1  0.91302400  0.30807100  0.32202800  1
  O  O42  1  0.59099600  0.17797200  0.48604300  1
  O  O43  1  0.58697600  0.90900400  0.39504700  1
  O  O44  1  0.30807100  0.32202800  0.91302400  1
  O  O45  1  0.19192900  0.10495300  0.01395700  1
  O  O46  1  0.01395700  0.19192900  0.10495300  1
  O  O47  1  0.82202800  0.80807100  0.41302400  1
loop_
_geom_bond_atom_site_label_1
_geom_bond_atom_site_label_2
_geom_bond_distance
_geom_bond_site_symmetry_2
Cr0 O3 1.844515 1_555
Cr0 O5 1.844515 1_555
Cr0 O29 1.844515 1_555
Cr0 O7 1.844515 1_555
Cr0 O31 1.844515 1_555
Cr0 O27 1.844515 1_555
Cr1 O43 1.844515 1_545
Cr1 O12 1.844515 1_555
Cr1 O42 1.844515 1_555
Cr1 O28 1.844515 1_545
Cr1 O13 1.844515 1_545
Cr1 O4 1.844515 1_555
Cr2 O40 1.844515 1_455
Cr2 O15 1.844515 1_555
Cr2 O19 1.844515 1_555
Cr2 O8 1.844515 1_455
Cr2 O41 1.844515 1_455
Cr2 O14 1.844515 1_555
Cr3 O30 1.844515 1_554
Cr3 O6 1.844515 1_555
Cr3 O39 1.844515 1_555
Cr3 O44 1.844515 1_554
Cr3 O16 1.844515 1_554
Cr3 O11 1.844515 1_555
Cr4 O38 1.844515 1_455
Cr4 O26 1.844515 1_455
Cr4 O2 1.844515 1_545
Cr4 O47 1.844515 1_445
Cr4 O35 1.844515 1_555
Cr4 O17 1.844515 1_545
Cr5 O25 1.844515 1_554
Cr5 O37 1.844515 1_554
Cr5 O18 1.844515 1_455
Cr5 O21 1.844515 1_454
Cr5 O34 1.844515 1_555
Cr5 O1 1.844515 1_455
Cr6 O33 1.844515 1_545
Cr6 O36 1.844515 1_545
Cr6 O20 1.844515 1_554
Cr6 O0 1.844515 1_544
Cr6 O24 1.844515 1_555
Cr6 O22 1.844515 1_554
Cr7 O9 1.844515 1_444
Cr7 O23 1.844515 1_444
Cr7 O10 1.844515 1_444
Cr7 O46 1.844515 1_555
Cr7 O45 1.844515 1_555
Cr7 O32 1.844515 1_555
Ge0 O36 1.776333 1_556
Ge0 O9 1.776333 1_455
Ge0 O25 1.776333 1_555
Ge0 O14 1.776333 1_555
Ge1 O46 1.776333 1_655
Ge1 O20 1.776333 1_554
Ge1 O41 1.776333 1_555
Ge1 O1 1.776333 1_555
Ge2 O24 1.776333 1_555
Ge2 O8 1.776333 1_555
Ge2 O27 1.776333 1_555
Ge2 O6 1.776333 1_555
Ge3 O26 1.776333 1_565
Ge3 O10 1.776333 1_554
Ge3 O33 1.776333 1_555
Ge3 O11 1.776333 1_555
Ge4 O37 1.776333 1_655
Ge4 O23 1.776333 1_545
Ge4 O38 1.776333 1_555
Ge4 O4 1.776333 1_555
Ge5 O34 1.776333 1_555
Ge5 O15 1.776333 1_555
Ge5 O13 1.776333 1_555
Ge5 O31 1.776333 1_555
Ge6 O40 1.776333 1_555
Ge6 O7 1.776333 1_555
Ge6 O42 1.776333 1_555
Ge6 O21 1.776333 1_555
Ge7 O45 1.776333 1_556
Ge7 O44 1.776333 1_555
Ge7 O2 1.776333 1_545
Ge7 O22 1.776333 1_555
Ge8 O32 1.776333 1_565
Ge8 O28 1.776333 1_555
Ge8 O18 1.776333 1_455
Ge8 O17 1.776333 1_555
Ge9 O30 1.776333 1_555
Ge9 O3 1.776333 1_555
Ge9 O0 1.776333 1_555
Ge9 O19 1.776333 1_555
Ge10 O43 1.776333 1_555
Ge10 O47 1.776333 1_555
Ge10 O5 1.776333 1_555
Ge10 O39 1.776333 1_555
Ge11 O35 1.776333 1_555
Ge11 O16 1.776333 1_555
Ge11 O29 1.776333 1_555
Ge11 O12 1.776333 1_555
