# generated using pymatgen
data_TePd4
_symmetry_space_group_name_H-M   'P 1'
_cell_length_a   8.84438838
_cell_length_b   8.84438838
_cell_length_c   8.84438838
_cell_angle_alpha   60.00000000
_cell_angle_beta   60.00000000
_cell_angle_gamma   60.00000000
_symmetry_Int_Tables_number   1
_chemical_formula_structural   TePd4
_chemical_formula_sum   'Te5 Pd20'
_cell_volume   489.20221905
_cell_formula_units_Z   5
loop_
 _symmetry_equiv_pos_site_id
 _symmetry_equiv_pos_as_xyz
  1  'x, y, z'
loop_
 _atom_site_type_symbol
 _atom_site_label
 _atom_site_symmetry_multiplicity
 _atom_site_fract_x
 _atom_site_fract_y
 _atom_site_fract_z
 _atom_site_occupancy
  Te  Te0  1  0.75000000  0.75000000  0.75000000  1
  Te  Te1  1  0.88387500  0.37204200  0.37204200  1
  Te  Te2  1  0.37204200  0.88387500  0.37204200  1
  Te  Te3  1  0.37204200  0.37204200  0.88387500  1
  Te  Te4  1  0.37204200  0.37204200  0.37204200  1
  Pd  Pd0  1  0.09791600  0.63402800  0.63402800  1
  Pd  Pd1  1  0.63402800  0.09791600  0.63402800  1
  Pd  Pd2  1  0.63402800  0.63402800  0.09791600  1
  Pd  Pd3  1  0.63402800  0.63402800  0.63402800  1
  Pd  Pd4  1  0.75983400  0.08005500  0.08005500  1
  Pd  Pd5  1  0.08005500  0.75983400  0.08005500  1
  Pd  Pd6  1  0.08005500  0.08005500  0.75983400  1
  Pd  Pd7  1  0.08005500  0.08005500  0.08005500  1
  Pd  Pd8  1  0.26224100  0.73775900  0.73775900  1
  Pd  Pd9  1  0.26224100  0.73775900  0.26224100  1
  Pd  Pd10  1  0.26224100  0.26224100  0.73775900  1
  Pd  Pd11  1  0.73775900  0.26224100  0.26224100  1
  Pd  Pd12  1  0.73775900  0.26224100  0.73775900  1
  Pd  Pd13  1  0.73775900  0.73775900  0.26224100  1
  Pd  Pd14  1  0.49000600  0.00999400  0.00999400  1
  Pd  Pd15  1  0.49000600  0.00999400  0.49000600  1
  Pd  Pd16  1  0.49000600  0.49000600  0.00999400  1
  Pd  Pd17  1  0.00999400  0.49000600  0.49000600  1
  Pd  Pd18  1  0.00999400  0.49000600  0.00999400  1
  Pd  Pd19  1  0.00999400  0.00999400  0.49000600  1
loop_
_geom_bond_atom_site_label_1
_geom_bond_atom_site_label_2
_geom_bond_distance
_geom_bond_site_symmetry_2
Pd0 Te0 2.512445 1_455
Pd0 Pd10 2.702598 1_555
Pd0 Pd9 2.702598 1_555
Pd0 Pd8 2.702598 1_555
Pd1 Te0 2.512445 1_545
Pd1 Pd10 2.702598 1_555
Pd1 Pd11 2.702598 1_555
Pd1 Pd12 2.702598 1_555
Pd2 Te0 2.512445 1_554
Pd2 Pd9 2.702598 1_555
Pd3 Te0 2.512445 1_555
Pd3 Pd8 2.702598 1_555
Pd4 Pd5 2.832159 1_645
Pd4 Pd7 2.832159 1_655
Pd4 Pd6 2.832159 1_654
Pd5 Pd8 2.682905 1_554
Pd5 Pd9 2.682913 1_555
Pd5 Pd6 2.832159 1_564
Pd5 Pd7 2.832159 1_565
Pd6 Pd8 2.682905 1_545
Pd6 Pd7 2.832159 1_556
Pd7 Pd9 2.682908 1_545
Pd8 Te3 2.647496 1_555
Pd8 Te2 2.647496 1_555
Pd9 Te4 2.647495 1_555
Pd9 Te2 2.647503 1_555
Pd10 Te4 2.647495 1_555
Pd10 Te3 2.647503 1_555
Pd10 Pd7 2.682908 1_556
Pd10 Pd6 2.682913 1_555
Pd11 Te4 2.647495 1_555
Pd11 Te1 2.647503 1_555
Pd11 Pd7 2.682908 1_655
Pd11 Pd4 2.682913 1_555
Pd11 Pd2 2.702598 1_555
Pd12 Te3 2.647496 1_555
Pd12 Te1 2.647496 1_555
Pd12 Pd4 2.682905 1_556
Pd12 Pd6 2.682905 1_655
Pd12 Pd3 2.702598 1_555
Pd13 Te1 2.647496 1_555
Pd13 Te2 2.647496 1_555
Pd13 Pd4 2.682905 1_565
Pd13 Pd5 2.682905 1_655
Pd13 Pd3 2.702598 1_555
Pd13 Pd2 2.702598 1_555
Pd14 Te3 2.614830 1_554
Pd14 Te2 2.614830 1_545
Pd14 Pd4 3.131234 1_555
Pd14 Pd7 3.131242 1_555
Pd15 Te2 2.614822 1_545
Pd15 Te4 2.614830 1_555
Pd15 Pd4 3.131240 1_555
Pd15 Pd6 3.131240 1_555
Pd16 Te3 2.614822 1_554
Pd16 Te4 2.614830 1_555
Pd16 Pd5 3.131240 1_555
Pd16 Pd4 3.131240 1_555
Pd17 Te1 2.614822 1_455
Pd17 Te4 2.614830 1_555
Pd17 Pd5 3.131240 1_555
Pd17 Pd6 3.131240 1_555
Pd18 Te3 2.614830 1_554
Pd18 Te1 2.614830 1_455
Pd18 Pd5 3.131234 1_555
Pd18 Pd7 3.131242 1_555
Pd19 Te1 2.614830 1_455
Pd19 Te2 2.614830 1_545
Pd19 Pd6 3.131234 1_555
Pd19 Pd7 3.131242 1_555
