# generated using pymatgen
data_Ba3Cr2O8
_symmetry_space_group_name_H-M   'P 1'
_cell_length_a   7.90611461
_cell_length_b   7.90611409
_cell_length_c   7.90611312
_cell_angle_alpha   42.74859419
_cell_angle_beta   42.74860748
_cell_angle_gamma   42.74859236
_symmetry_Int_Tables_number   1
_chemical_formula_structural   Ba3Cr2O8
_chemical_formula_sum   'Ba3 Cr2 O8'
_cell_volume   206.27617031
_cell_formula_units_Z   1
loop_
 _symmetry_equiv_pos_site_id
 _symmetry_equiv_pos_as_xyz
  1  'x, y, z'
loop_
 _atom_site_type_symbol
 _atom_site_label
 _atom_site_symmetry_multiplicity
 _atom_site_fract_x
 _atom_site_fract_y
 _atom_site_fract_z
 _atom_site_occupancy
  Ba  Ba0  1  0.79404292  0.79404292  0.79404292  1
  Ba  Ba1  1  0.20596572  0.20596572  0.20596572  1
  Ba  Ba2  1  0.99999348  0.99999348  0.99999348  1
  Cr  Cr0  1  0.59271152  0.59271152  0.59271152  1
  Cr  Cr1  1  0.40728735  0.40728735  0.40728735  1
  O  O0  1  0.67121439  0.67121439  0.67121439  1
  O  O1  1  0.32879774  0.32879774  0.32879774  1
  O  O2  1  0.27392163  0.27392263  0.75608503  1
  O  O3  1  0.27392163  0.75608503  0.27392163  1
  O  O4  1  0.75608503  0.27392263  0.27392163  1
  O  O5  1  0.72609183  0.24387293  0.72609183  1
  O  O6  1  0.72609283  0.72609183  0.24387293  1
  O  O7  1  0.24387293  0.72609183  0.72609283  1
loop_
_geom_bond_atom_site_label_1
_geom_bond_atom_site_label_2
_geom_bond_distance
_geom_bond_site_symmetry_2
Ba0 O0 2.642745 1_555
Ba0 O5 2.834963 1_565
Ba0 O6 2.834968 1_556
Ba0 O7 2.834968 1_655
Ba0 O2 2.936125 1_655
Ba0 O4 2.936125 1_556
Ba0 O3 2.936130 1_655
Ba0 O3 2.936130 1_556
Ba0 O4 2.936130 1_565
Ba0 O2 2.936131 1_565
Ba1 O1 2.642820 1_555
Ba1 O2 2.835304 1_554
Ba1 O4 2.835305 1_455
Ba1 O3 2.835309 1_545
Ba1 O6 2.936068 1_455
Ba1 O7 2.936068 1_554
Ba1 O5 2.936070 1_455
Ba1 O5 2.936070 1_554
Ba1 O7 2.936073 1_545
Ba1 O6 2.936073 1_545
Ba2 O7 2.778318 1_655
Ba2 O6 2.778319 1_556
Ba2 O5 2.778325 1_565
Ba2 O3 2.778574 1_656
Ba2 O4 2.778581 1_566
Ba2 O2 2.778582 1_665
Ba2 O1 3.328644 1_656
Ba2 O1 3.328645 1_665
Ba2 O1 3.328645 1_566
Ba2 O0 3.328660 1_565
Ba2 O0 3.328661 1_556
Ba2 O0 3.328661 1_655
Cr0 O0 1.689046 1_555
Cr0 O6 1.709024 1_555
Cr0 O7 1.709024 1_555
Cr0 O5 1.709025 1_555
Cr1 O1 1.688761 1_555
Cr1 O3 1.708823 1_555
Cr1 O2 1.708824 1_555
Cr1 O4 1.708824 1_555
