# generated using pymatgen
data_MgSn3
_symmetry_space_group_name_H-M   'P 1'
_cell_length_a   6.67738000
_cell_length_b   11.17227800
_cell_length_c   11.20466800
_cell_angle_alpha   90.00000000
_cell_angle_beta   90.00000000
_cell_angle_gamma   90.00000000
_symmetry_Int_Tables_number   1
_chemical_formula_structural   MgSn3
_chemical_formula_sum   'Mg8 Sn24'
_cell_volume   835.88555154
_cell_formula_units_Z   8
loop_
 _symmetry_equiv_pos_site_id
 _symmetry_equiv_pos_as_xyz
  1  'x, y, z'
loop_
 _atom_site_type_symbol
 _atom_site_label
 _atom_site_symmetry_multiplicity
 _atom_site_fract_x
 _atom_site_fract_y
 _atom_site_fract_z
 _atom_site_occupancy
  Mg  Mg0_0  1  0.00000000  0.16808900  0.25000000  1
  Mg  Mg0_1  1  0.00000000  0.16808900  0.75000000  1
  Mg  Mg0_2  1  0.00000000  0.66808900  0.25000000  1
  Mg  Mg0_3  1  0.00000000  0.66808900  0.75000000  1
  Mg  Mg0_4  1  0.50000000  0.16808900  0.25000000  1
  Mg  Mg0_5  1  0.50000000  0.16808900  0.75000000  1
  Mg  Mg0_6  1  0.50000000  0.66808900  0.25000000  1
  Mg  Mg0_7  1  0.50000000  0.66808900  0.75000000  1
  Sn  Sn0_0  1  0.00000000  0.00316500  0.00000000  1
  Sn  Sn0_1  1  0.00000000  0.00316500  0.50000000  1
  Sn  Sn0_2  1  0.00000000  0.50316500  0.00000000  1
  Sn  Sn0_3  1  0.00000000  0.50316500  0.50000000  1
  Sn  Sn0_4  1  0.50000000  0.00316500  0.00000000  1
  Sn  Sn0_5  1  0.50000000  0.00316500  0.50000000  1
  Sn  Sn0_6  1  0.50000000  0.50316500  0.00000000  1
  Sn  Sn0_7  1  0.50000000  0.50316500  0.50000000  1
  Sn  Sn1_0  1  0.25000000  0.24717500  0.00000000  1
  Sn  Sn1_1  1  0.25000000  0.24717500  0.50000000  1
  Sn  Sn1_2  1  0.25000000  0.74717500  0.00000000  1
  Sn  Sn1_3  1  0.25000000  0.74717500  0.50000000  1
  Sn  Sn1_4  1  0.75000000  0.24717500  0.00000000  1
  Sn  Sn1_5  1  0.75000000  0.24717500  0.50000000  1
  Sn  Sn1_6  1  0.75000000  0.74717500  0.00000000  1
  Sn  Sn1_7  1  0.75000000  0.74717500  0.50000000  1
  Sn  Sn2_0  1  0.25000000  0.41490400  0.25000000  1
  Sn  Sn2_1  1  0.25000000  0.41490400  0.75000000  1
  Sn  Sn2_2  1  0.25000000  0.91490400  0.25000000  1
  Sn  Sn2_3  1  0.25000000  0.91490400  0.75000000  1
  Sn  Sn2_4  1  0.75000000  0.41490400  0.25000000  1
  Sn  Sn2_5  1  0.75000000  0.41490400  0.75000000  1
  Sn  Sn2_6  1  0.75000000  0.91490400  0.25000000  1
  Sn  Sn2_7  1  0.75000000  0.91490400  0.75000000  1
loop_
_geom_bond_atom_site_label_1
_geom_bond_atom_site_label_2
_geom_bond_distance
_geom_bond_site_symmetry_2
Mg0_0 Sn2_4 3.223421 1_455
Mg0_0 Sn2_0 3.223421 1_555
Mg0_0 Sn2_2 3.284508 1_545
Mg0_0 Sn2_6 3.284508 1_445
Mg0_0 Mg0_4 3.338690 1_555
Mg0_0 Mg0_4 3.338690 1_455
Mg0_0 Sn0_1 3.352853 1_555
Mg0_0 Sn0_0 3.352853 1_555
Mg0_0 Sn1_0 3.378453 1_555
Mg0_0 Sn1_1 3.378453 1_555
Mg0_0 Sn1_5 3.378453 1_455
Mg0_0 Sn1_4 3.378453 1_455
Mg0_1 Sn2_1 3.223421 1_555
Mg0_1 Sn2_5 3.223421 1_455
Mg0_1 Sn2_3 3.284508 1_545
Mg0_1 Sn2_7 3.284508 1_445
Mg0_1 Mg0_5 3.338690 1_555
Mg0_1 Mg0_5 3.338690 1_455
Mg0_1 Sn0_0 3.352853 1_556
Mg0_1 Sn0_1 3.352853 1_555
Mg0_1 Sn1_0 3.378453 1_556
Mg0_1 Sn1_1 3.378453 1_555
Mg0_1 Sn1_4 3.378453 1_456
Mg0_1 Sn1_5 3.378453 1_455
Mg0_2 Sn2_6 3.223421 1_455
Mg0_2 Sn2_2 3.223421 1_555
Mg0_2 Sn2_0 3.284508 1_555
Mg0_2 Sn2_4 3.284508 1_455
Mg0_2 Mg0_6 3.338690 1_555
Mg0_2 Mg0_6 3.338690 1_455
Mg0_2 Sn0_2 3.352853 1_555
Mg0_2 Sn0_3 3.352853 1_555
Mg0_2 Sn1_7 3.378453 1_455
Mg0_2 Sn1_6 3.378453 1_455
Mg0_2 Sn1_2 3.378453 1_555
Mg0_2 Sn1_3 3.378453 1_555
Mg0_3 Sn2_3 3.223421 1_555
Mg0_3 Sn2_7 3.223421 1_455
Mg0_3 Sn2_1 3.284508 1_555
Mg0_3 Sn2_5 3.284508 1_455
Mg0_3 Mg0_7 3.338690 1_555
Mg0_3 Mg0_7 3.338690 1_455
Mg0_3 Sn0_2 3.352853 1_556
Mg0_3 Sn0_3 3.352853 1_555
Mg0_3 Sn1_2 3.378453 1_556
Mg0_3 Sn1_7 3.378453 1_455
Mg0_3 Sn1_6 3.378453 1_456
Mg0_3 Sn1_3 3.378453 1_555
Mg0_4 Sn2_4 3.223421 1_555
Mg0_4 Sn2_0 3.223421 1_555
Mg0_4 Sn2_2 3.284508 1_545
Mg0_4 Sn2_6 3.284508 1_545
Mg0_4 Sn0_4 3.352853 1_555
Mg0_4 Sn0_5 3.352853 1_555
Mg0_4 Sn1_0 3.378453 1_555
Mg0_4 Sn1_1 3.378453 1_555
Mg0_4 Sn1_5 3.378453 1_555
Mg0_4 Sn1_4 3.378453 1_555
Mg0_5 Sn2_1 3.223421 1_555
Mg0_5 Sn2_5 3.223421 1_555
Mg0_5 Sn2_3 3.284508 1_545
Mg0_5 Sn2_7 3.284508 1_545
Mg0_5 Sn0_4 3.352853 1_556
Mg0_5 Sn0_5 3.352853 1_555
Mg0_5 Sn1_0 3.378453 1_556
Mg0_5 Sn1_1 3.378453 1_555
Mg0_5 Sn1_4 3.378453 1_556
Mg0_5 Sn1_5 3.378453 1_555
Mg0_6 Sn2_6 3.223421 1_555
Mg0_6 Sn2_2 3.223421 1_555
Mg0_6 Sn2_4 3.284508 1_555
Mg0_6 Sn2_0 3.284508 1_555
Mg0_6 Sn0_6 3.352853 1_555
Mg0_6 Sn0_7 3.352853 1_555
Mg0_6 Sn1_2 3.378453 1_555
Mg0_6 Sn1_3 3.378453 1_555
Mg0_6 Sn1_6 3.378453 1_555
Mg0_6 Sn1_7 3.378453 1_555
Mg0_7 Sn2_3 3.223421 1_555
Mg0_7 Sn2_7 3.223421 1_555
Mg0_7 Sn2_1 3.284508 1_555
Mg0_7 Sn2_5 3.284508 1_555
Mg0_7 Sn0_6 3.352853 1_556
Mg0_7 Sn0_7 3.352853 1_555
Mg0_7 Sn1_2 3.378453 1_556
Mg0_7 Sn1_3 3.378453 1_555
Mg0_7 Sn1_6 3.378453 1_556
Mg0_7 Sn1_7 3.378453 1_555
Sn0_0 Sn1_0 3.196653 1_555
Sn0_0 Sn1_4 3.196653 1_455
Sn0_0 Sn1_2 3.311535 1_545
Sn0_0 Sn1_6 3.311535 1_445
Sn0_0 Sn0_4 3.338690 1_555
Sn0_0 Sn0_4 3.338690 1_455
Sn0_0 Sn2_2 3.406699 1_545
Sn0_0 Sn2_6 3.406699 1_445
Sn0_0 Sn2_3 3.406699 1_544
Sn0_0 Sn2_7 3.406699 1_444
Sn0_1 Sn1_1 3.196653 1_555
Sn0_1 Sn1_5 3.196653 1_455
Sn0_1 Sn1_3 3.311535 1_545
Sn0_1 Sn1_7 3.311535 1_445
Sn0_1 Sn0_5 3.338690 1_555
Sn0_1 Sn0_5 3.338690 1_455
Sn0_1 Sn2_2 3.406699 1_545
Sn0_1 Sn2_6 3.406699 1_445
Sn0_1 Sn2_3 3.406699 1_545
Sn0_1 Sn2_7 3.406699 1_445
Sn0_2 Sn1_2 3.196653 1_555
Sn0_2 Sn1_6 3.196653 1_455
Sn0_2 Sn1_0 3.311535 1_555
Sn0_2 Sn1_4 3.311535 1_455
Sn0_2 Sn0_6 3.338690 1_555
Sn0_2 Sn0_6 3.338690 1_455
Sn0_2 Sn2_0 3.406699 1_555
Sn0_2 Sn2_4 3.406699 1_455
Sn0_2 Sn2_5 3.406699 1_454
Sn0_2 Sn2_1 3.406699 1_554
Sn0_3 Sn1_3 3.196653 1_555
Sn0_3 Sn1_7 3.196653 1_455
Sn0_3 Sn1_1 3.311535 1_555
Sn0_3 Sn1_5 3.311535 1_455
Sn0_3 Sn0_7 3.338690 1_555
Sn0_3 Sn0_7 3.338690 1_455
Sn0_3 Sn2_0 3.406699 1_555
Sn0_3 Sn2_4 3.406699 1_455
Sn0_3 Sn2_1 3.406699 1_555
Sn0_3 Sn2_5 3.406699 1_455
Sn0_4 Sn1_0 3.196653 1_555
Sn0_4 Sn1_4 3.196653 1_555
Sn0_4 Sn1_2 3.311535 1_545
Sn0_4 Sn1_6 3.311535 1_545
Sn0_4 Sn2_2 3.406699 1_545
Sn0_4 Sn2_6 3.406699 1_545
Sn0_4 Sn2_3 3.406699 1_544
Sn0_4 Sn2_7 3.406699 1_544
Sn0_5 Sn1_1 3.196653 1_555
Sn0_5 Sn1_5 3.196653 1_555
Sn0_5 Sn1_3 3.311535 1_545
Sn0_5 Sn1_7 3.311535 1_545
Sn0_5 Sn2_2 3.406699 1_545
Sn0_5 Sn2_6 3.406699 1_545
Sn0_5 Sn2_3 3.406699 1_545
Sn0_5 Sn2_7 3.406699 1_545
Sn0_6 Sn1_2 3.196653 1_555
Sn0_6 Sn1_6 3.196653 1_555
Sn0_6 Sn1_0 3.311535 1_555
Sn0_6 Sn1_4 3.311535 1_555
Sn0_6 Sn2_0 3.406699 1_555
Sn0_6 Sn2_1 3.406699 1_554
Sn0_6 Sn2_5 3.406699 1_554
Sn0_6 Sn2_4 3.406699 1_555
Sn0_7 Sn1_3 3.196653 1_555
Sn0_7 Sn1_7 3.196653 1_555
Sn0_7 Sn1_1 3.311535 1_555
Sn0_7 Sn1_5 3.311535 1_555
Sn0_7 Sn2_0 3.406699 1_555
Sn0_7 Sn2_1 3.406699 1_555
Sn0_7 Sn2_5 3.406699 1_555
Sn0_7 Sn2_4 3.406699 1_555
Sn1_0 Sn1_4 3.338690 1_555
Sn1_0 Sn1_4 3.338690 1_455
Sn1_0 Sn2_1 3.370177 1_554
Sn1_0 Sn2_0 3.370177 1_555
Sn1_1 Sn1_5 3.338690 1_455
Sn1_1 Sn1_5 3.338690 1_555
Sn1_1 Sn2_1 3.370177 1_555
Sn1_1 Sn2_0 3.370177 1_555
Sn1_2 Sn1_6 3.338690 1_555
Sn1_2 Sn1_6 3.338690 1_455
Sn1_2 Sn2_3 3.370177 1_554
Sn1_2 Sn2_2 3.370177 1_555
Sn1_3 Sn1_7 3.338690 1_555
Sn1_3 Sn1_7 3.338690 1_455
Sn1_3 Sn2_2 3.370177 1_555
Sn1_3 Sn2_3 3.370177 1_555
Sn1_4 Sn2_5 3.370177 1_554
Sn1_4 Sn2_4 3.370177 1_555
Sn1_5 Sn2_4 3.370177 1_555
Sn1_5 Sn2_5 3.370177 1_555
Sn1_6 Sn2_6 3.370177 1_555
Sn1_6 Sn2_7 3.370177 1_554
Sn1_7 Sn2_6 3.370177 1_555
Sn1_7 Sn2_7 3.370177 1_555
