# generated using pymatgen
data_BaSrGdNbO6
_symmetry_space_group_name_H-M   'P 1'
_cell_length_a   8.49958916
_cell_length_b   8.50368512
_cell_length_c   8.51698905
_cell_angle_alpha   90.00000000
_cell_angle_beta   90.00000000
_cell_angle_gamma   90.00000000
_symmetry_Int_Tables_number   1
_chemical_formula_structural   BaSrGdNbO6
_chemical_formula_sum   'Ba4 Sr4 Gd4 Nb4 O24'
_cell_volume   615.58948553
_cell_formula_units_Z   4
loop_
 _symmetry_equiv_pos_site_id
 _symmetry_equiv_pos_as_xyz
  1  'x, y, z'
loop_
 _atom_site_type_symbol
 _atom_site_label
 _atom_site_symmetry_multiplicity
 _atom_site_fract_x
 _atom_site_fract_y
 _atom_site_fract_z
 _atom_site_occupancy
  Ba  Ba0  1  -0.00000000  0.00000000  -0.00000000  1
  Ba  Ba1  1  0.50000000  0.50000000  0.50000000  1
  Ba  Ba2  1  0.50000000  0.00000000  0.00000000  1
  Ba  Ba3  1  -0.00000000  0.00000000  0.50000000  1
  Sr  Sr0  1  -0.00000000  0.50000000  0.50000000  1
  Sr  Sr1  1  0.50000000  0.00000000  0.50000000  1
  Sr  Sr2  1  0.50000000  0.50000000  -0.00000000  1
  Sr  Sr3  1  -0.00000000  0.50000000  -0.00000000  1
  Gd  Gd0  1  0.74917861  0.74744427  0.74985070  1
  Gd  Gd1  1  0.25082139  0.25255573  0.74985070  1
  Gd  Gd2  1  0.25082139  0.74744427  0.25014930  1
  Gd  Gd3  1  0.74917861  0.25255573  0.25014930  1
  Nb  Nb0  1  0.24951652  0.25334212  0.25082140  1
  Nb  Nb1  1  0.75048348  0.74665788  0.25082140  1
  Nb  Nb2  1  0.75048348  0.25334212  0.74917860  1
  Nb  Nb3  1  0.24951652  0.74665788  0.74917860  1
  O  O0  1  0.01483605  0.22603512  0.27511329  1
  O  O1  1  0.98516395  0.77396488  0.27511329  1
  O  O2  1  0.98516395  0.22603512  0.72488671  1
  O  O3  1  0.01483605  0.77396488  0.72488671  1
  O  O4  1  0.27258248  0.01654016  0.22401238  1
  O  O5  1  0.27258248  0.98345984  0.77598762  1
  O  O6  1  0.72741752  0.98345984  0.22401238  1
  O  O7  1  0.72741752  0.01654016  0.77598762  1
  O  O8  1  0.21697526  0.28373987  0.01538357  1
  O  O9  1  0.78302474  0.28373987  0.98461643  1
  O  O10  1  0.21697526  0.71626013  0.98461643  1
  O  O11  1  0.78302474  0.71626013  0.01538357  1
  O  O12  1  0.48347551  0.28885987  0.21512555  1
  O  O13  1  0.51652449  0.71114013  0.21512555  1
  O  O14  1  0.51652449  0.28885987  0.78487445  1
  O  O15  1  0.48347551  0.71114013  0.78487445  1
  O  O16  1  0.21645552  0.48520314  0.29027331  1
  O  O17  1  0.21645552  0.51479686  0.70972669  1
  O  O18  1  0.78354448  0.51479686  0.29027331  1
  O  O19  1  0.78354448  0.48520314  0.70972669  1
  O  O20  1  0.28867964  0.21936545  0.48388496  1
  O  O21  1  0.71132036  0.21936545  0.51611504  1
  O  O22  1  0.28867964  0.78063455  0.51611504  1
  O  O23  1  0.71132036  0.78063455  0.48388496  1
loop_
_geom_bond_atom_site_label_1
_geom_bond_atom_site_label_2
_geom_bond_distance
_geom_bond_site_symmetry_2
Ba0 O7 3.004605 1_454
Ba0 O6 3.004605 1_445
Ba0 O5 3.004605 1_544
Ba0 O4 3.004605 1_555
Ba0 O2 3.033279 1_454
Ba0 O3 3.033279 1_544
Ba0 O1 3.033279 1_445
Ba0 O0 3.033279 1_555
Ba0 O9 3.039739 1_454
Ba0 O11 3.039739 1_445
Ba0 O8 3.039739 1_555
Ba0 O10 3.039739 1_544
Ba1 O20 2.989980 1_555
Ba1 O21 2.989980 1_555
Ba1 O23 2.989980 1_555
Ba1 O22 2.989980 1_555
Ba1 O16 3.002439 1_555
Ba1 O19 3.002439 1_555
Ba1 O17 3.002439 1_555
Ba1 O18 3.002439 1_555
Ba1 O14 3.021628 1_555
Ba1 O15 3.021628 1_555
Ba1 O12 3.021628 1_555
Ba1 O13 3.021628 1_555
Ba2 O4 2.719600 1_555
Ba2 O6 2.719600 1_545
Ba2 O7 2.719600 1_554
Ba2 O5 2.719600 1_544
Ba2 O15 3.067659 1_544
Ba2 O14 3.067659 1_554
Ba2 O13 3.067659 1_545
Ba2 O12 3.067659 1_555
Ba3 O0 2.716447 1_555
Ba3 O1 2.716447 1_445
Ba3 O3 2.716447 1_545
Ba3 O2 2.716447 1_455
Ba3 O22 3.085296 1_545
Ba3 O23 3.085296 1_445
Ba3 O20 3.085296 1_555
Ba3 O21 3.085296 1_455
Ba3 O7 3.303448 1_455
Ba3 O6 3.303448 1_445
Ba3 O5 3.303448 1_545
Ba3 O4 3.303448 1_555
Gd0 O19 2.274879 1_555
Gd0 O3 2.279153 1_655
Gd0 O11 2.295135 1_556
Gd0 O15 2.298806 1_555
Gd0 O23 2.305310 1_555
Gd0 O7 2.306537 1_565
Gd1 O17 2.274879 1_555
Gd1 O2 2.279153 1_455
Gd1 O8 2.295135 1_556
Gd1 O14 2.298806 1_555
Gd1 O20 2.305310 1_555
Gd1 O5 2.306537 1_545
Gd2 O16 2.274879 1_555
Gd2 O1 2.279153 1_455
Gd2 O10 2.295135 1_554
Gd2 O13 2.298806 1_555
Gd2 O22 2.305310 1_555
Gd2 O4 2.306537 1_565
Gd3 O18 2.274879 1_555
Gd3 O0 2.279153 1_655
Gd3 O9 2.295135 1_554
Gd3 O12 2.298806 1_555
Gd3 O21 2.305310 1_555
Gd3 O6 2.306537 1_545
Nb0 O0 2.018788 1_555
Nb0 O16 2.019743 1_555
Nb0 O20 2.033348 1_555
Nb0 O12 2.034208 1_555
Nb0 O4 2.036054 1_555
Nb0 O8 2.040645 1_555
Nb1 O1 2.018788 1_555
Nb1 O18 2.019743 1_555
Nb1 O23 2.033348 1_555
Nb1 O13 2.034208 1_555
Nb1 O6 2.036054 1_555
Nb1 O11 2.040645 1_555
Nb2 O2 2.018788 1_555
Nb2 O19 2.019743 1_555
Nb2 O21 2.033348 1_555
Nb2 O14 2.034208 1_555
Nb2 O7 2.036054 1_555
Nb2 O9 2.040645 1_555
Nb3 O3 2.018788 1_555
Nb3 O17 2.019743 1_555
Nb3 O22 2.033348 1_555
Nb3 O15 2.034208 1_555
Nb3 O5 2.036054 1_555
Nb3 O10 2.040645 1_555
O0 Sr0 3.018617 1_555
O1 Sr0 3.018617 1_655
O2 Sr0 3.018617 1_655
O3 Sr0 3.018617 1_555
O4 Sr1 3.046530 1_555
O5 Sr1 3.046530 1_565
O6 Sr1 3.046530 1_565
O7 Sr1 3.046530 1_555
O8 Sr3 2.607718 1_555
O8 Sr2 3.030841 1_555
O9 Sr3 2.607718 1_656
O9 Sr2 3.030841 1_556
O10 Sr3 2.607718 1_556
O10 Sr2 3.030841 1_556
O11 Sr3 2.607718 1_655
O11 Sr2 3.030841 1_555
O12 Sr2 2.569139 1_555
O13 Sr2 2.569139 1_555
O14 Sr2 2.569139 1_556
O15 Sr2 2.569139 1_556
O16 Sr0 2.567350 1_555
O16 Sr3 3.084263 1_555
O17 Sr0 2.567350 1_555
O17 Sr3 3.084263 1_556
O18 Sr0 2.567350 1_655
O18 Sr3 3.084263 1_655
O19 Sr0 2.567350 1_655
O19 Sr3 3.084263 1_656
O20 Sr1 2.593206 1_555
O21 Sr1 2.593206 1_555
O22 Sr1 2.593206 1_565
O23 Sr1 2.593206 1_565
