# generated using pymatgen
data_NbCr3(AgS4)2
_symmetry_space_group_name_H-M   'P 1'
_cell_length_a   13.30236500
_cell_length_b   6.01293500
_cell_length_c   6.90548157
_cell_angle_alpha   89.72842514
_cell_angle_beta   90.00000000
_cell_angle_gamma   90.00000000
_symmetry_Int_Tables_number   1
_chemical_formula_structural   NbCr3(AgS4)2
_chemical_formula_sum   'Nb2 Cr6 Ag4 S16'
_cell_volume   552.33741276
_cell_formula_units_Z   2
loop_
 _symmetry_equiv_pos_site_id
 _symmetry_equiv_pos_as_xyz
  1  'x, y, z'
loop_
 _atom_site_type_symbol
 _atom_site_label
 _atom_site_symmetry_multiplicity
 _atom_site_fract_x
 _atom_site_fract_y
 _atom_site_fract_z
 _atom_site_occupancy
  Nb  Nb0  1  0.50000000  0.50000000  0.00000000  1
  Nb  Nb1  1  0.00000000  0.50000000  0.00000000  1
  Cr  Cr0  1  0.49604700  0.00194400  0.75076400  1
  Cr  Cr1  1  0.00395300  0.00194400  0.75076400  1
  Cr  Cr2  1  0.50395300  0.99805600  0.24923600  1
  Cr  Cr3  1  0.99604700  0.99805600  0.24923600  1
  Cr  Cr4  1  0.00000000  0.50000000  0.50000000  1
  Cr  Cr5  1  0.50000000  0.50000000  0.50000000  1
  Ag  Ag0  1  0.25000000  0.65740000  0.74396200  1
  Ag  Ag1  1  0.75000000  0.34260000  0.25603800  1
  Ag  Ag2  1  0.75000000  0.97584600  0.74143000  1
  Ag  Ag3  1  0.25000000  0.02415400  0.25857000  1
  S  S0  1  0.60710000  0.15969500  0.99853600  1
  S  S1  1  0.89956200  0.16900400  0.49854000  1
  S  S2  1  0.39956200  0.83099600  0.50146000  1
  S  S3  1  0.10710000  0.84030500  0.00146400  1
  S  S4  1  0.39290000  0.84030500  0.00146400  1
  S  S5  1  0.10043800  0.83099600  0.50146000  1
  S  S6  1  0.60043800  0.16900400  0.49854000  1
  S  S7  1  0.89290000  0.15969500  0.99853600  1
  S  S8  1  0.39391500  0.33278200  0.74290800  1
  S  S9  1  0.10608500  0.33278200  0.74290800  1
  S  S10  1  0.60608500  0.66721800  0.25709200  1
  S  S11  1  0.89391500  0.66721800  0.25709200  1
  S  S12  1  0.60275600  0.67427100  0.74323000  1
  S  S13  1  0.89724400  0.67427100  0.74323000  1
  S  S14  1  0.39724400  0.32572900  0.25677000  1
  S  S15  1  0.10275600  0.32572900  0.25677000  1
loop_
_geom_bond_atom_site_label_1
_geom_bond_atom_site_label_2
_geom_bond_distance
_geom_bond_site_symmetry_2
Nb0 S12 2.468361 1_554
Nb0 S14 2.468361 1_555
Nb0 S10 2.484185 1_555
Nb0 S8 2.484185 1_554
Nb0 S0 2.493408 1_554
Nb0 S4 2.493408 1_555
Nb1 S13 2.468361 1_454
Nb1 S15 2.468361 1_555
Nb1 S11 2.484185 1_455
Nb1 S9 2.484185 1_554
Nb1 S7 2.493408 1_454
Nb1 S3 2.493408 1_555
Cr0 S2 2.384209 1_545
Cr0 S8 2.409367 1_555
Cr0 S4 2.410065 1_546
Cr0 S12 2.429114 1_545
Cr0 S6 2.440171 1_555
Cr0 S0 2.454570 1_555
Cr1 S5 2.384209 1_545
Cr1 S9 2.409367 1_555
Cr1 S3 2.410065 1_546
Cr1 S13 2.429114 1_445
Cr1 S1 2.440171 1_455
Cr1 S7 2.454570 1_455
Cr2 S6 2.384209 1_565
Cr2 S10 2.409367 1_555
Cr2 S0 2.410065 1_564
Cr2 S14 2.429114 1_565
Cr2 S2 2.440171 1_555
Cr2 S4 2.454570 1_555
Cr3 S1 2.384209 1_565
Cr3 S11 2.409367 1_555
Cr3 S7 2.410065 1_564
Cr3 S15 2.429114 1_665
Cr3 S5 2.440171 1_655
Cr3 S3 2.454570 1_655
Cr4 S5 2.397182 1_555
Cr4 S1 2.397182 1_455
Cr4 S9 2.408335 1_555
Cr4 S11 2.408335 1_455
Cr4 S13 2.409206 1_455
Cr4 S15 2.409206 1_555
Cr5 S2 2.397182 1_555
Cr5 S6 2.397182 1_555
Cr5 S8 2.408335 1_555
Cr5 S10 2.408335 1_555
Cr5 S12 2.409206 1_555
Cr5 S14 2.409206 1_555
Ag0 S8 2.734062 1_555
Ag0 S9 2.734062 1_555
Ag0 S5 2.799192 1_555
Ag0 S2 2.799192 1_555
Ag0 S3 2.829037 1_556
Ag0 S4 2.829037 1_556
Ag1 S11 2.734062 1_555
Ag1 S10 2.734062 1_555
Ag1 S1 2.799192 1_555
Ag1 S6 2.799192 1_555
Ag1 S0 2.829037 1_554
Ag1 S7 2.829037 1_554
Ag2 S13 2.669206 1_555
Ag2 S12 2.669206 1_555
Ag2 S0 2.829543 1_565
Ag2 S7 2.829543 1_565
Ag2 S6 2.846394 1_565
Ag2 S1 2.846394 1_565
Ag3 S15 2.669206 1_555
Ag3 S14 2.669206 1_555
Ag3 S4 2.829543 1_545
Ag3 S3 2.829543 1_545
Ag3 S2 2.846394 1_545
Ag3 S5 2.846394 1_545
