# generated using pymatgen
data_Li7Mn2(CoO4)3
_symmetry_space_group_name_H-M   'P 1'
_cell_length_a   4.94382591
_cell_length_b   5.62508340
_cell_length_c   7.43478782
_cell_angle_alpha   79.16146573
_cell_angle_beta   77.90615277
_cell_angle_gamma   73.60345581
_symmetry_Int_Tables_number   1
_chemical_formula_structural   Li7Mn2(CoO4)3
_chemical_formula_sum   'Li7 Mn2 Co3 O12'
_cell_volume   192.10659254
_cell_formula_units_Z   1
loop_
 _symmetry_equiv_pos_site_id
 _symmetry_equiv_pos_as_xyz
  1  'x, y, z'
loop_
 _atom_site_type_symbol
 _atom_site_label
 _atom_site_symmetry_multiplicity
 _atom_site_fract_x
 _atom_site_fract_y
 _atom_site_fract_z
 _atom_site_occupancy
  Li  Li0  1  0.49806178  0.16978132  0.82591949  1
  Li  Li1  1  0.49372859  0.01270635  0.49409726  1
  Li  Li2  1  0.49793356  0.83511372  0.17416573  1
  Li  Li3  1  0.50225005  0.66502389  0.82856918  1
  Li  Li4  1  0.50336636  0.49021682  0.49716155  1
  Li  Li5  1  0.50535205  0.32569176  0.17882544  1
  Li  Li6  1  0.99691936  0.16669300  0.33927114  1
  Mn  Mn0  1  0.99940354  0.00601137  0.00237415  1
  Mn  Mn1  1  0.00180885  0.66211815  0.33665872  1
  Co  Co0  1  0.99873947  0.83523585  0.66435602  1
  Co  Co1  1  0.00124287  0.49953414  0.00119403  1
  Co  Co2  1  0.99941708  0.33181446  0.66452040  1
  O  O0  1  0.78020488  0.32728946  0.91496864  1
  O  O1  1  0.77040266  0.15833480  0.59314762  1
  O  O2  1  0.77407890  0.98563244  0.23856522  1
  O  O3  1  0.78160310  0.82731938  0.91240317  1
  O  O4  1  0.77923497  0.65946226  0.57808910  1
  O  O5  1  0.77376444  0.50980204  0.24317526  1
  O  O6  1  0.21828737  0.00484005  0.75333834  1
  O  O7  1  0.22718967  0.82300036  0.42329268  1
  O  O8  1  0.22251516  0.67602221  0.08722186  1
  O  O9  1  0.21710526  0.50820510  0.75534035  1
  O  O10  1  0.22804834  0.34912990  0.42281153  1
  O  O11  1  0.22934370  0.17102218  0.07053014  1
loop_
_geom_bond_atom_site_label_1
_geom_bond_atom_site_label_2
_geom_bond_distance
_geom_bond_site_symmetry_2
Li0 O1 1.956668 1_555
Li0 O11 2.014823 1_556
Li0 O9 2.065312 1_555
Li0 O6 2.071402 1_555
Li0 O0 2.115244 1_555
Li0 O3 2.115813 1_545
Li1 O10 2.024481 1_555
Li1 O1 2.089463 1_555
Li1 O2 2.107087 1_545
Li1 O7 2.109037 1_545
Li1 O6 2.115022 1_555
Li1 O4 2.156340 1_545
Li2 O2 1.972021 1_555
Li2 O5 2.000660 1_555
Li2 O7 2.047461 1_555
Li2 O8 2.084948 1_555
Li2 O11 2.095671 1_565
Li2 O3 2.147069 1_554
Li3 O9 2.065454 1_555
Li3 O4 2.067203 1_555
Li3 O0 2.084991 1_555
Li3 O6 2.085526 1_565
Li3 O3 2.101380 1_555
Li3 O8 2.120493 1_556
Li4 O10 1.969311 1_555
Li4 O7 2.038284 1_555
Li4 O1 2.059039 1_555
Li4 O5 2.076566 1_555
Li4 O4 2.102559 1_555
Li4 O9 2.133424 1_555
Li5 O2 2.028379 1_545
Li5 O10 2.033037 1_555
Li5 O5 2.071366 1_555
Li5 O0 2.139654 1_554
Li5 O8 2.154320 1_555
Li5 O11 2.158992 1_555
Li6 O1 1.982334 1_555
Li6 O10 1.985877 1_655
Li6 O7 2.006267 1_645
Li6 O5 2.015472 1_555
Li6 O2 2.019282 1_545
Li6 O11 2.085316 1_655
Mn0 O11 1.850561 1_655
Mn0 O2 1.874676 1_545
Mn0 O0 1.900112 1_554
Mn0 O8 1.937888 1_645
Mn0 O6 1.939123 1_654
Mn0 O3 1.944977 1_544
Mn1 O10 1.877578 1_555
Mn1 O7 1.888023 1_555
Mn1 O5 1.893637 1_455
Mn1 O4 1.898566 1_455
Mn1 O8 1.944639 1_555
Mn1 O2 1.949184 1_455
Co0 O1 1.894208 1_565
Co0 O7 1.909662 1_655
Co0 O6 1.910194 1_665
Co0 O4 1.924195 1_555
Co0 O3 1.929223 1_555
Co0 O9 1.929739 1_655
Co1 O5 1.912951 1_455
Co1 O9 1.913333 1_554
Co1 O11 1.913384 1_555
Co1 O0 1.915401 1_454
Co1 O3 1.930497 1_454
Co1 O8 1.932992 1_555
Co2 O1 1.893671 1_555
Co2 O10 1.913553 1_655
Co2 O6 1.925829 1_655
Co2 O4 1.926063 1_555
Co2 O9 1.938551 1_655
Co2 O0 1.947941 1_555
