# generated using pymatgen
data_La4Pr(CoP)10
_symmetry_space_group_name_H-M   'P 1'
_cell_length_a   3.80266700
_cell_length_b   3.80266700
_cell_length_c   27.78686301
_cell_angle_alpha   93.92356643
_cell_angle_beta   93.92356643
_cell_angle_gamma   90.00000000
_symmetry_Int_Tables_number   1
_chemical_formula_structural   La4Pr(CoP)10
_chemical_formula_sum   'La4 Pr1 Co10 P10'
_cell_volume   399.92001006
_cell_formula_units_Z   1
loop_
 _symmetry_equiv_pos_site_id
 _symmetry_equiv_pos_as_xyz
  1  'x, y, z'
loop_
 _atom_site_type_symbol
 _atom_site_label
 _atom_site_symmetry_multiplicity
 _atom_site_fract_x
 _atom_site_fract_y
 _atom_site_fract_z
 _atom_site_occupancy
  La  La0  1  0.60007900  0.60007900  0.20015700  1
  La  La1  1  0.19987900  0.19987900  0.39975800  1
  La  La2  1  0.80012100  0.80012100  0.60024200  1
  La  La3  1  0.39992100  0.39992100  0.79984300  1
  Pr  Pr0  1  0.00000000  0.00000000  0.00000000  1
  Co  Co0  1  0.04948700  0.54948700  0.09897400  1
  Co  Co1  1  0.64999300  0.14999300  0.29998700  1
  Co  Co2  1  0.25000000  0.75000000  0.50000000  1
  Co  Co3  1  0.85000700  0.35000700  0.70001300  1
  Co  Co4  1  0.45051300  0.95051300  0.90102600  1
  Co  Co5  1  0.54948700  0.04948700  0.09897400  1
  Co  Co6  1  0.14999300  0.64999300  0.29998700  1
  Co  Co7  1  0.75000000  0.25000000  0.50000000  1
  Co  Co8  1  0.35000700  0.85000700  0.70001300  1
  Co  Co9  1  0.95051300  0.45051300  0.90102600  1
  P  P0  1  0.52849500  0.52849500  0.05699000  1
  P  P1  1  0.12928200  0.12928200  0.25856500  1
  P  P2  1  0.72935900  0.72935900  0.45871900  1
  P  P3  1  0.32926100  0.32926100  0.65852100  1
  P  P4  1  0.92971800  0.92971800  0.85943500  1
  P  P5  1  0.07028200  0.07028200  0.14056500  1
  P  P6  1  0.67073900  0.67073900  0.34147900  1
  P  P7  1  0.27064100  0.27064100  0.54128100  1
  P  P8  1  0.87071800  0.87071800  0.74143500  1
  P  P9  1  0.47150500  0.47150500  0.94301000  1
loop_
_geom_bond_atom_site_label_1
_geom_bond_atom_site_label_2
_geom_bond_distance
_geom_bond_site_symmetry_2
La0 P1 3.136796 1_665
La0 P1 3.136801 1_655
La0 P1 3.136801 1_565
La0 P1 3.136806 1_555
La0 P5 3.153784 1_665
La0 P5 3.153789 1_565
La0 P5 3.153789 1_655
La0 P5 3.153793 1_555
La1 P6 3.134963 1_555
La1 P6 3.134965 1_545
La1 P6 3.134965 1_455
La1 P6 3.134968 1_445
La1 P2 3.144702 1_555
La1 P2 3.144704 1_545
La1 P2 3.144704 1_455
La1 P2 3.144707 1_445
La2 P3 3.134963 1_555
La2 P3 3.134965 1_655
La2 P3 3.134965 1_565
La2 P3 3.134968 1_665
La2 P7 3.144702 1_555
La2 P7 3.144704 1_655
La2 P7 3.144704 1_565
La2 P7 3.144707 1_665
La3 P8 3.136796 1_445
La3 P8 3.136801 1_545
La3 P8 3.136801 1_455
La3 P8 3.136806 1_555
La3 P4 3.153784 1_445
La3 P4 3.153789 1_545
La3 P4 3.153789 1_455
La3 P4 3.153793 1_555
Co0 P5 2.222197 1_565
Co0 P5 2.222200 1_555
Co0 P0 2.227844 1_455
Co0 P0 2.227844 1_555
Co1 P1 2.219783 1_555
Co1 P1 2.219783 1_655
Co1 P6 2.220783 1_555
Co1 P6 2.220783 1_545
Co2 P2 2.217771 1_555
Co2 P7 2.217771 1_555
Co2 P7 2.217774 1_565
Co2 P2 2.217774 1_455
Co3 P8 2.219783 1_555
Co3 P8 2.219783 1_545
Co3 P3 2.220783 1_555
Co3 P3 2.220783 1_655
Co4 P4 2.222197 1_455
Co4 P4 2.222200 1_555
Co4 P9 2.227844 1_565
Co4 P9 2.227844 1_555
Co5 P5 2.222197 1_655
Co5 P5 2.222200 1_555
Co5 P0 2.227844 1_545
Co5 P0 2.227844 1_555
Co6 P1 2.219783 1_555
Co6 P1 2.219783 1_565
Co6 P6 2.220783 1_555
Co6 P6 2.220783 1_455
Co7 P2 2.217771 1_555
Co7 P7 2.217771 1_555
Co7 P7 2.217774 1_655
Co7 P2 2.217774 1_545
Co8 P8 2.219783 1_555
Co8 P8 2.219783 1_455
Co8 P3 2.220783 1_555
Co8 P3 2.220783 1_565
Co9 P4 2.222197 1_545
Co9 P4 2.222200 1_555
Co9 P9 2.227844 1_655
Co9 P9 2.227844 1_555
P0 Pr0 3.116787 1_555
P0 Pr0 3.116787 1_565
P0 Pr0 3.116787 1_655
P0 Pr0 3.116787 1_665
P9 Pr0 3.116787 1_666
P9 Pr0 3.116787 1_566
P9 Pr0 3.116787 1_656
P9 Pr0 3.116787 1_556
