# generated using pymatgen
data_CsDy2Cl7
_symmetry_space_group_name_H-M   'P 1'
_cell_length_a   6.98703414
_cell_length_b   12.66543271
_cell_length_c   13.52578119
_cell_angle_alpha   90.00000000
_cell_angle_beta   90.00000000
_cell_angle_gamma   90.00000000
_symmetry_Int_Tables_number   1
_chemical_formula_structural   CsDy2Cl7
_chemical_formula_sum   'Cs4 Dy8 Cl28'
_cell_volume   1196.94792077
_cell_formula_units_Z   4
loop_
 _symmetry_equiv_pos_site_id
 _symmetry_equiv_pos_as_xyz
  1  'x, y, z'
loop_
 _atom_site_type_symbol
 _atom_site_label
 _atom_site_symmetry_multiplicity
 _atom_site_fract_x
 _atom_site_fract_y
 _atom_site_fract_z
 _atom_site_occupancy
  Cs  Cs0  1  0.25000000  0.80121757  0.03987404  1
  Cs  Cs1  1  0.75000000  0.19878243  0.96012596  1
  Cs  Cs2  1  0.75000000  0.30121757  0.46012596  1
  Cs  Cs3  1  0.25000000  0.69878243  0.53987404  1
  Dy  Dy0  1  0.25000000  0.45759988  0.24000326  1
  Dy  Dy1  1  0.75000000  0.54240012  0.75999674  1
  Dy  Dy2  1  0.75000000  0.95759988  0.25999674  1
  Dy  Dy3  1  0.25000000  0.04240012  0.74000326  1
  Dy  Dy4  1  0.25000000  0.15397176  0.24891558  1
  Dy  Dy5  1  0.75000000  0.84602824  0.75108442  1
  Dy  Dy6  1  0.75000000  0.65397176  0.25108442  1
  Dy  Dy7  1  0.25000000  0.34602824  0.74891558  1
  Cl  Cl0  1  0.00985989  0.30453101  0.17854063  1
  Cl  Cl1  1  0.99014011  0.69546899  0.82145937  1
  Cl  Cl2  1  0.99014011  0.80453101  0.32145937  1
  Cl  Cl3  1  0.50985989  0.69546899  0.82145937  1
  Cl  Cl4  1  0.00985989  0.19546899  0.67854063  1
  Cl  Cl5  1  0.49014011  0.30453101  0.17854063  1
  Cl  Cl6  1  0.49014011  0.19546899  0.67854063  1
  Cl  Cl7  1  0.50985989  0.80453101  0.32145937  1
  Cl  Cl8  1  0.00903827  0.57271421  0.12595703  1
  Cl  Cl9  1  0.99096173  0.42728579  0.87404297  1
  Cl  Cl10  1  0.99096173  0.07271421  0.37404297  1
  Cl  Cl11  1  0.50903827  0.42728579  0.87404297  1
  Cl  Cl12  1  0.00903827  0.92728579  0.62595703  1
  Cl  Cl13  1  0.49096173  0.57271421  0.12595703  1
  Cl  Cl14  1  0.49096173  0.92728579  0.62595703  1
  Cl  Cl15  1  0.50903827  0.07271421  0.37404297  1
  Cl  Cl16  1  0.01025224  0.03814895  0.13287249  1
  Cl  Cl17  1  0.98974776  0.96185105  0.86712751  1
  Cl  Cl18  1  0.98974776  0.53814895  0.36712751  1
  Cl  Cl19  1  0.51025224  0.96185105  0.86712751  1
  Cl  Cl20  1  0.01025224  0.46185105  0.63287249  1
  Cl  Cl21  1  0.48974776  0.03814895  0.13287249  1
  Cl  Cl22  1  0.48974776  0.46185105  0.63287249  1
  Cl  Cl23  1  0.51025224  0.53814895  0.36712751  1
  Cl  Cl24  1  0.25000000  0.30841968  0.39004288  1
  Cl  Cl25  1  0.75000000  0.69158032  0.60995712  1
  Cl  Cl26  1  0.75000000  0.80841968  0.10995712  1
  Cl  Cl27  1  0.25000000  0.19158032  0.89004288  1
loop_
_geom_bond_atom_site_label_1
_geom_bond_atom_site_label_2
_geom_bond_distance
_geom_bond_site_symmetry_2
Cl0 Dy0 2.695337 1_555
Cl0 Dy4 2.712483 1_555
Cl0 Cs1 3.717246 1_454
Cl1 Dy1 2.695337 1_555
Cl1 Dy5 2.712483 1_555
Cl1 Cs0 3.717246 1_656
Cl2 Dy2 2.695337 1_555
Cl2 Dy6 2.712483 1_555
Cl2 Cs3 3.717246 1_655
Cl3 Dy1 2.695337 1_555
Cl3 Dy5 2.712483 1_555
Cl3 Cs0 3.717246 1_556
Cl4 Dy3 2.695337 1_555
Cl4 Dy7 2.712483 1_555
Cl4 Cs2 3.717246 1_455
Cl5 Dy0 2.695337 1_555
Cl5 Dy4 2.712483 1_555
Cl5 Cs1 3.717246 1_554
Cl6 Dy3 2.695337 1_555
Cl6 Dy7 2.712483 1_555
Cl6 Cs2 3.717246 1_555
Cl7 Dy2 2.695337 1_555
Cl7 Dy6 2.712483 1_555
Cl7 Cs3 3.717246 1_555
Cl8 Dy6 2.683155 1_455
Cl8 Dy0 2.709193 1_555
Cl8 Cs0 3.544856 1_555
Cl9 Dy7 2.683155 1_655
Cl9 Dy1 2.709193 1_555
Cl9 Cs1 3.544856 1_555
Cl10 Dy4 2.683155 1_655
Cl10 Dy2 2.709193 1_545
Cl10 Cs2 3.544856 1_555
Cl11 Dy7 2.683155 1_555
Cl11 Dy1 2.709193 1_555
Cl11 Cs1 3.544856 1_555
Cl12 Dy5 2.683155 1_455
Cl12 Dy3 2.709193 1_565
Cl12 Cs3 3.544856 1_555
Cl13 Dy6 2.683155 1_555
Cl13 Dy0 2.709193 1_555
Cl13 Cs0 3.544856 1_555
Cl14 Dy5 2.683155 1_555
Cl14 Dy3 2.709193 1_565
Cl14 Cs3 3.544856 1_555
Cl15 Dy4 2.683155 1_555
Cl15 Dy2 2.709193 1_545
Cl15 Cs2 3.544856 1_555
Cl16 Dy2 2.702565 1_445
Cl16 Dy4 2.724250 1_555
Cl16 Cs1 3.592365 1_454
Cl16 Cs0 3.659690 1_545
Cl17 Dy3 2.702565 1_665
Cl17 Dy5 2.724250 1_555
Cl17 Cs0 3.592365 1_656
Cl17 Cs1 3.659690 1_565
Cl18 Dy0 2.702565 1_655
Cl18 Dy6 2.724250 1_555
Cl18 Cs3 3.592365 1_655
Cl18 Cs2 3.659690 1_555
Cl19 Dy3 2.702565 1_565
Cl19 Dy5 2.724250 1_555
Cl19 Cs0 3.592365 1_556
Cl19 Cs1 3.659690 1_565
Cl20 Dy1 2.702565 1_455
Cl20 Dy7 2.724250 1_555
Cl20 Cs2 3.592365 1_455
Cl20 Cs3 3.659690 1_555
Cl21 Dy2 2.702565 1_545
Cl21 Dy4 2.724250 1_555
Cl21 Cs1 3.592365 1_554
Cl21 Cs0 3.659690 1_545
Cl22 Dy1 2.702565 1_555
Cl22 Dy7 2.724250 1_555
Cl22 Cs2 3.592365 1_555
Cl22 Cs3 3.659690 1_555
Cl23 Dy0 2.702565 1_555
Cl23 Dy6 2.724250 1_555
Cl23 Cs3 3.592365 1_555
Cl23 Cs2 3.659690 1_555
Cl24 Dy4 2.733177 1_555
Cl24 Dy0 2.772802 1_555
Cl24 Cs2 3.620987 1_555
Cl24 Cs2 3.620987 1_455
Cl25 Dy5 2.733177 1_555
Cl25 Dy1 2.772802 1_555
Cl25 Cs3 3.620987 1_555
Cl25 Cs3 3.620987 1_655
Cl26 Dy6 2.733177 1_555
Cl26 Dy2 2.772802 1_555
Cl26 Cs0 3.620987 1_555
Cl26 Cs0 3.620987 1_655
Cl27 Dy7 2.733177 1_555
Cl27 Dy3 2.772802 1_555
Cl27 Cs1 3.620987 1_455
Cl27 Cs1 3.620987 1_555
