# generated using pymatgen
data_B10Pb4O21
_symmetry_space_group_name_H-M   'P 1'
_cell_length_a   11.45481500
_cell_length_b   6.66552600
_cell_length_c   13.14051880
_cell_angle_alpha   60.39693290
_cell_angle_beta   90.00000000
_cell_angle_gamma   90.00000000
_symmetry_Int_Tables_number   1
_chemical_formula_structural   B10Pb4O21
_chemical_formula_sum   'B20 Pb8 O42'
_cell_volume   872.34618143
_cell_formula_units_Z   2
loop_
 _symmetry_equiv_pos_site_id
 _symmetry_equiv_pos_as_xyz
  1  'x, y, z'
loop_
 _atom_site_type_symbol
 _atom_site_label
 _atom_site_symmetry_multiplicity
 _atom_site_fract_x
 _atom_site_fract_y
 _atom_site_fract_z
 _atom_site_occupancy
  B  B0  1  0.21987200  0.21790300  0.46025100  1
  B  B1  1  0.71987200  0.78209700  0.03974900  1
  B  B2  1  0.78012800  0.78209700  0.53974900  1
  B  B3  1  0.28012800  0.21790300  0.96025100  1
  B  B4  1  0.00949300  0.73728400  0.75908000  1
  B  B5  1  0.50949300  0.26271600  0.74092000  1
  B  B6  1  0.99050700  0.26271600  0.24092000  1
  B  B7  1  0.49050700  0.73728400  0.25908000  1
  B  B8  1  0.80897300  0.48434600  0.22582100  1
  B  B9  1  0.30897300  0.51565400  0.27417900  1
  B  B10  1  0.19102700  0.51565400  0.77417900  1
  B  B11  1  0.69102700  0.48434600  0.72582100  1
  B  B12  1  0.78654600  0.84543800  0.71138400  1
  B  B13  1  0.28654600  0.15456200  0.78861600  1
  B  B14  1  0.21345400  0.15456200  0.28861600  1
  B  B15  1  0.71345400  0.84543800  0.21138400  1
  B  B16  1  0.20145100  0.94781400  0.68275600  1
  B  B17  1  0.70145100  0.05218600  0.81724400  1
  B  B18  1  0.79854900  0.05218600  0.31724400  1
  B  B19  1  0.29854900  0.94781400  0.18275600  1
  Pb  Pb0  1  0.26898200  0.64341800  0.52314600  1
  Pb  Pb1  1  0.76898200  0.35658200  0.97685400  1
  Pb  Pb2  1  0.73101800  0.35658200  0.47685400  1
  Pb  Pb3  1  0.23101800  0.64341800  0.02314600  1
  Pb  Pb4  1  0.48190800  0.69376200  0.82478200  1
  Pb  Pb5  1  0.98190800  0.30623800  0.67521800  1
  Pb  Pb6  1  0.51809200  0.30623800  0.17521800  1
  Pb  Pb7  1  0.01809200  0.69376200  0.32478200  1
  O  O0  1  0.76823200  0.26184000  0.32191000  1
  O  O1  1  0.26823200  0.73816000  0.17809000  1
  O  O2  1  0.23176800  0.73816000  0.67809000  1
  O  O3  1  0.73176800  0.26184000  0.82191000  1
  O  O4  1  0.30565500  0.33628100  0.23809200  1
  O  O5  1  0.80565500  0.66371900  0.26190800  1
  O  O6  1  0.69434500  0.66371900  0.76190800  1
  O  O7  1  0.19434500  0.33628100  0.73809200  1
  O  O8  1  0.22453600  0.16095900  0.57415300  1
  O  O9  1  0.72453600  0.83904100  0.92584700  1
  O  O10  1  0.77546400  0.83904100  0.42584700  1
  O  O11  1  0.27546400  0.16095900  0.07415300  1
  O  O12  1  0.26237000  0.94909600  0.78052200  1
  O  O13  1  0.76237000  0.05090400  0.71947800  1
  O  O14  1  0.73763000  0.05090400  0.21947800  1
  O  O15  1  0.23763000  0.94909600  0.28052200  1
  O  O16  1  0.93199400  0.46858400  0.19751000  1
  O  O17  1  0.43199400  0.53141600  0.30249000  1
  O  O18  1  0.06800600  0.53141600  0.80249000  1
  O  O19  1  0.56800600  0.46858400  0.69751000  1
  O  O20  1  0.06948000  0.94454000  0.70389700  1
  O  O21  1  0.56948000  0.05546000  0.79610300  1
  O  O22  1  0.93052000  0.05546000  0.29610300  1
  O  O23  1  0.43052000  0.94454000  0.20389700  1
  O  O24  1  0.73479100  0.54970300  0.12066200  1
  O  O25  1  0.23479100  0.45029700  0.37933800  1
  O  O26  1  0.26520900  0.45029700  0.87933800  1
  O  O27  1  0.76520900  0.54970300  0.62066200  1
  O  O28  1  0.79558500  0.93357500  0.58135600  1
  O  O29  1  0.29558500  0.06642500  0.91864400  1
  O  O30  1  0.20441500  0.06642500  0.41864400  1
  O  O31  1  0.70441500  0.93357500  0.08135600  1
  O  O32  1  0.43742700  0.62706700  0.01195600  1
  O  O33  1  0.93742700  0.37293300  0.48804400  1
  O  O34  1  0.56257300  0.37293300  0.98804400  1
  O  O35  1  0.06257300  0.62706700  0.51195600  1
  O  O36  1  0.89231000  0.72464000  0.77500700  1
  O  O37  1  0.39231000  0.27536000  0.72499300  1
  O  O38  1  0.10769000  0.27536000  0.22499300  1
  O  O39  1  0.60769000  0.72464000  0.27500700  1
  O  O40  1  0.50000000  0.00000000  0.50000000  1
  O  O41  1  0.00000000  0.00000000  0.00000000  1
loop_
_geom_bond_atom_site_label_1
_geom_bond_atom_site_label_2
_geom_bond_distance
_geom_bond_site_symmetry_2
B0 O8 1.351242 1_555
B0 O30 1.376633 1_555
B0 O25 1.389959 1_555
B1 O9 1.351242 1_554
B1 O31 1.376633 1_555
B1 O24 1.389959 1_555
B2 O10 1.351242 1_555
B2 O28 1.376633 1_555
B2 O27 1.389959 1_555
B3 O11 1.351242 1_556
B3 O29 1.376633 1_555
B3 O26 1.389959 1_555
B4 O36 1.354723 1_455
B4 O18 1.372688 1_555
B4 O20 1.384462 1_555
B5 O37 1.354723 1_555
B5 O19 1.372688 1_555
B5 O21 1.384462 1_555
B6 O38 1.354723 1_655
B6 O16 1.372688 1_555
B6 O22 1.384462 1_555
B7 O39 1.354723 1_555
B7 O17 1.372688 1_555
B7 O23 1.384462 1_555
B8 O0 1.470233 1_555
B8 O16 1.474398 1_555
B8 O5 1.488608 1_555
B8 O24 1.492175 1_555
B9 O1 1.470233 1_555
B9 O17 1.474398 1_555
B9 O4 1.488608 1_555
B9 O25 1.492175 1_555
B10 O2 1.470233 1_555
B10 O18 1.474398 1_555
B10 O7 1.488608 1_555
B10 O26 1.492175 1_555
B11 O3 1.470233 1_555
B11 O19 1.474398 1_555
B11 O6 1.488608 1_555
B11 O27 1.492175 1_555
B12 O13 1.451741 1_565
B12 O36 1.466274 1_555
B12 O6 1.492936 1_555
B12 O28 1.511148 1_555
B13 O12 1.451741 1_545
B13 O37 1.466274 1_555
B13 O7 1.492936 1_555
B13 O29 1.511148 1_555
B14 O15 1.451741 1_545
B14 O38 1.466274 1_555
B14 O4 1.492936 1_555
B14 O30 1.511148 1_555
B15 O14 1.451741 1_565
B15 O39 1.466274 1_555
B15 O5 1.492936 1_555
B15 O31 1.511148 1_555
B16 O8 1.456660 1_565
B16 O12 1.465711 1_555
B16 O2 1.470337 1_555
B16 O20 1.535223 1_555
B17 O9 1.456660 1_545
B17 O13 1.465711 1_555
B17 O3 1.470337 1_555
B17 O21 1.535223 1_555
B18 O10 1.456660 1_545
B18 O14 1.465711 1_555
B18 O0 1.470337 1_555
B18 O22 1.535223 1_555
B19 O11 1.456660 1_565
B19 O15 1.465711 1_555
B19 O1 1.470337 1_555
B19 O23 1.535223 1_555
O0 Pb2 2.448735 1_555
O1 Pb3 2.448735 1_555
O2 Pb0 2.448735 1_555
O3 Pb1 2.448735 1_555
O4 Pb6 2.609162 1_555
O5 Pb7 2.609162 1_655
O6 Pb4 2.609162 1_555
O7 Pb5 2.609162 1_455
O20 Pb5 2.462337 1_465
O21 Pb4 2.462337 1_545
O22 Pb7 2.462337 1_645
O23 Pb6 2.462337 1_565
O28 Pb2 2.560734 1_565
O29 Pb3 2.560734 1_546
O30 Pb0 2.560734 1_545
O31 Pb1 2.560734 1_564
O32 Pb4 2.329469 1_554
O32 Pb6 2.344526 1_555
O32 Pb3 2.374787 1_555
O33 Pb5 2.329469 1_555
O33 Pb7 2.344526 1_655
O33 Pb2 2.374787 1_555
O34 Pb6 2.329469 1_556
O34 Pb4 2.344526 1_555
O34 Pb1 2.374787 1_555
O35 Pb7 2.329469 1_555
O35 Pb5 2.344526 1_455
O35 Pb0 2.374787 1_555
