# generated using pymatgen
data_EuZrSe3
_symmetry_space_group_name_H-M   'P 1'
_cell_length_a   3.97188800
_cell_length_b   8.91396100
_cell_length_c   14.46718000
_cell_angle_alpha   90.00000000
_cell_angle_beta   90.00000000
_cell_angle_gamma   90.00000000
_symmetry_Int_Tables_number   1
_chemical_formula_structural   EuZrSe3
_chemical_formula_sum   'Eu4 Zr4 Se12'
_cell_volume   512.21419310
_cell_formula_units_Z   4
loop_
 _symmetry_equiv_pos_site_id
 _symmetry_equiv_pos_as_xyz
  1  'x, y, z'
loop_
 _atom_site_type_symbol
 _atom_site_label
 _atom_site_symmetry_multiplicity
 _atom_site_fract_x
 _atom_site_fract_y
 _atom_site_fract_z
 _atom_site_occupancy
  Eu  Eu0  1  0.25000000  0.43732300  0.32220500  1
  Eu  Eu1  1  0.25000000  0.93732300  0.17779500  1
  Eu  Eu2  1  0.75000000  0.56267700  0.67779500  1
  Eu  Eu3  1  0.75000000  0.06267700  0.82220500  1
  Zr  Zr0  1  0.25000000  0.17024600  0.55658600  1
  Zr  Zr1  1  0.25000000  0.67024600  0.94341400  1
  Zr  Zr2  1  0.75000000  0.82975400  0.44341400  1
  Zr  Zr3  1  0.75000000  0.32975400  0.05658600  1
  Se  Se0  1  0.25000000  0.02123800  0.38980600  1
  Se  Se1  1  0.25000000  0.52123800  0.11019400  1
  Se  Se2  1  0.75000000  0.97876200  0.61019400  1
  Se  Se3  1  0.75000000  0.47876200  0.88980600  1
  Se  Se4  1  0.25000000  0.15694500  0.98531100  1
  Se  Se5  1  0.25000000  0.65694500  0.51468900  1
  Se  Se6  1  0.75000000  0.84305500  0.01468900  1
  Se  Se7  1  0.75000000  0.34305500  0.48531100  1
  Se  Se8  1  0.25000000  0.29396500  0.72056700  1
  Se  Se9  1  0.25000000  0.79396500  0.77943300  1
  Se  Se10  1  0.75000000  0.70603500  0.27943300  1
  Se  Se11  1  0.75000000  0.20603500  0.22056700  1
loop_
_geom_bond_atom_site_label_1
_geom_bond_atom_site_label_2
_geom_bond_distance
_geom_bond_site_symmetry_2
Eu0 Se1 3.157095 1_555
Eu0 Se10 3.172425 1_555
Eu0 Se10 3.172425 1_455
Eu0 Se7 3.196590 1_555
Eu0 Se7 3.196590 1_455
Eu0 Se11 3.218178 1_455
Eu0 Se11 3.218178 1_555
Eu0 Se5 3.403991 1_555
Eu1 Se0 3.157095 1_565
Eu1 Se11 3.172425 1_565
Eu1 Se11 3.172425 1_465
Eu1 Se6 3.196590 1_455
Eu1 Se6 3.196590 1_555
Eu1 Se10 3.218178 1_555
Eu1 Se10 3.218178 1_455
Eu1 Se4 3.403991 1_564
Eu2 Se3 3.157095 1_555
Eu2 Se8 3.172425 1_655
Eu2 Se8 3.172425 1_555
Eu2 Se5 3.196590 1_655
Eu2 Se5 3.196590 1_555
Eu2 Se9 3.218178 1_555
Eu2 Se9 3.218178 1_655
Eu2 Se7 3.403991 1_555
Eu3 Se2 3.157095 1_545
Eu3 Se9 3.172425 1_545
Eu3 Se9 3.172425 1_645
Eu3 Se4 3.196590 1_655
Eu3 Se4 3.196590 1_555
Eu3 Se8 3.218178 1_555
Eu3 Se8 3.218178 1_655
Eu3 Se6 3.403991 1_546
Se0 Zr2 2.731099 1_445
Se0 Zr2 2.731099 1_545
Se0 Zr0 2.754275 1_555
Se1 Zr3 2.731099 1_555
Se1 Zr3 2.731099 1_455
Se1 Zr1 2.754275 1_554
Se2 Zr0 2.731099 1_665
Se2 Zr0 2.731099 1_565
Se2 Zr2 2.754275 1_555
Se3 Zr1 2.731099 1_655
Se3 Zr1 2.731099 1_555
Se3 Zr3 2.754275 1_556
Se4 Zr3 2.716636 1_456
Se4 Zr3 2.716636 1_556
Se5 Zr2 2.716636 1_555
Se5 Zr2 2.716636 1_455
Se6 Zr1 2.716636 1_654
Se6 Zr1 2.716636 1_554
Se7 Zr0 2.716636 1_555
Se7 Zr0 2.716636 1_655
Se8 Zr0 2.616149 1_555
Se9 Zr1 2.616149 1_555
Se10 Zr2 2.616149 1_555
Se11 Zr3 2.616149 1_555
