# generated using pymatgen
data_Li8CoO5F
_symmetry_space_group_name_H-M   'P 1'
_cell_length_a   5.42868730
_cell_length_b   17.94133813
_cell_length_c   6.01627224
_cell_angle_alpha   96.45833328
_cell_angle_beta   113.61358847
_cell_angle_gamma   87.08923265
_symmetry_Int_Tables_number   1
_chemical_formula_structural   Li8CoO5F
_chemical_formula_sum   'Li32 Co4 O20 F4'
_cell_volume   533.48978131
_cell_formula_units_Z   4
loop_
 _symmetry_equiv_pos_site_id
 _symmetry_equiv_pos_as_xyz
  1  'x, y, z'
loop_
 _atom_site_type_symbol
 _atom_site_label
 _atom_site_symmetry_multiplicity
 _atom_site_fract_x
 _atom_site_fract_y
 _atom_site_fract_z
 _atom_site_occupancy
  Li  Li0  1  0.49988500  0.02826600  0.33003500  1
  Li  Li1  1  0.74858500  0.27800300  0.07986600  1
  Li  Li2  1  0.99762400  0.52686600  0.83249400  1
  Li  Li3  1  0.24849500  0.77736000  0.58273100  1
  Li  Li4  1  0.36262300  0.13280000  0.52967800  1
  Li  Li5  1  0.61620200  0.38448700  0.27819500  1
  Li  Li6  1  0.86836000  0.63383200  0.02958900  1
  Li  Li7  1  0.11430000  0.88218300  0.78171300  1
  Li  Li8  1  0.94939200  0.05970600  0.59004000  1
  Li  Li9  1  0.19779200  0.31011900  0.33889700  1
  Li  Li10  1  0.44918000  0.55872600  0.08019800  1
  Li  Li11  1  0.70031300  0.80837000  0.83070700  1
  Li  Li12  1  0.44711300  0.07328400  0.94755100  1
  Li  Li13  1  0.69631500  0.32316200  0.69668900  1
  Li  Li14  1  0.94418400  0.57007800  0.45049700  1
  Li  Li15  1  0.19509700  0.81996200  0.20113900  1
  Li  Li16  1  0.84022200  0.16639100  0.80377600  1
  Li  Li17  1  0.08957500  0.41756200  0.55570600  1
  Li  Li18  1  0.34228800  0.66874700  0.30641700  1
  Li  Li19  1  0.59323100  0.91746500  0.05416900  1
  Li  Li20  1  0.28449100  0.19266900  0.14771800  1
  Li  Li21  1  0.53260300  0.44326000  0.89702300  1
  Li  Li22  1  0.78546300  0.69291800  0.64901600  1
  Li  Li23  1  0.03709100  0.94234400  0.40009200  1
  Li  Li24  1  0.91289800  0.11641100  0.24588400  1
  Li  Li25  1  0.16294800  0.36576700  0.99401300  1
  Li  Li26  1  0.40961000  0.61590100  0.74944000  1
  Li  Li27  1  0.65860900  0.86672000  0.50043500  1
  Li  Li28  1  0.74297600  0.22442400  0.43276900  1
  Li  Li29  1  0.98902300  0.47271900  0.17495500  1
  Li  Li30  1  0.24045900  0.72278700  0.92504900  1
  Li  Li31  1  0.49386600  0.97475900  0.68281200  1
  Co  Co0  1  0.45840500  0.50948800  0.45411200  1
  Co  Co1  1  0.71023100  0.75944100  0.20561700  1
  Co  Co2  1  0.97151900  0.00615800  0.96511300  1
  Co  Co3  1  0.21980800  0.25616700  0.71323500  1
  O  O0  1  0.65185400  0.06674900  0.69518100  1
  O  O1  1  0.90101300  0.31690100  0.44432300  1
  O  O2  1  0.16230200  0.56595900  0.20321000  1
  O  O3  1  0.41311500  0.81571200  0.95398600  1
  O  O4  1  0.19632500  0.08954300  0.14355200  1
  O  O5  1  0.44563700  0.33932200  0.89294600  1
  O  O6  1  0.69556300  0.58886500  0.64938600  1
  O  O7  1  0.94591200  0.83910400  0.40010900  1
  O  O8  1  0.78690000  0.01623100  0.20975500  1
  O  O9  1  0.03494600  0.26626200  0.95810500  1
  O  O10  1  0.27446700  0.51780400  0.71837000  1
  O  O11  1  0.52614200  0.76778400  0.46959800  1
  O  O12  1  0.43969800  0.23486300  0.52210800  1
  O  O13  1  0.69478300  0.48511300  0.25750600  1
  O  O14  1  0.94807900  0.73469800  0.01004700  1
  O  O15  1  0.19278700  0.98439500  0.77487300  1
  O  O16  1  0.04982300  0.16087800  0.59388000  1
  O  O17  1  0.30363600  0.41191400  0.34712300  1
  O  O18  1  0.55527700  0.66203000  0.09820700  1
  O  O19  1  0.80085400  0.91114500  0.84519400  1
  F  F0  1  0.61763400  0.18128400  0.09577100  1
  F  F1  1  0.86725700  0.43074400  0.84216600  1
  F  F2  1  0.11772200  0.68142900  0.59184000  1
  F  F3  1  0.36751700  0.93196800  0.34538600  1
loop_
_geom_bond_atom_site_label_1
_geom_bond_atom_site_label_2
_geom_bond_distance
_geom_bond_site_symmetry_2
Li0 O4 1.948169 1_555
Li0 O8 1.957540 1_555
Li0 O0 2.061073 1_555
Li1 O5 1.947458 1_554
Li1 O9 1.960107 1_654
Li1 O1 2.059227 1_555
Li2 O10 1.879706 1_655
Li2 O6 1.945003 1_555
Li2 O2 2.092825 1_656
Li3 O11 1.879864 1_555
Li3 O7 1.943110 1_455
Li3 O3 2.092496 1_555
Li4 O12 1.908425 1_555
Li4 O16 1.918671 1_555
Li4 O0 1.919660 1_555
Li4 O4 2.190727 1_555
Li5 O13 1.904764 1_555
Li5 O1 1.924602 1_555
Li5 O17 1.930371 1_555
Li5 O5 2.195538 1_554
Li6 O14 1.908975 1_555
Li6 O18 1.934661 1_555
Li6 O2 1.968182 1_655
Li6 O6 2.169276 1_554
Li7 O15 1.912201 1_555
Li7 O19 1.922888 1_455
Li7 O3 1.965337 1_555
Li7 O7 2.166817 1_455
Li8 O16 1.916659 1_655
Li8 O15 1.946200 1_645
Li8 O0 1.950623 1_555
Li8 O8 2.161617 1_555
Li9 O17 1.931731 1_555
Li9 O12 1.938459 1_555
Li9 O1 1.947873 1_455
Li9 O9 2.166035 1_554
Li10 O13 1.912738 1_555
Li10 O18 1.947270 1_555
Li10 O2 1.967532 1_555
Li10 O10 2.057774 1_554
Li11 O14 1.923020 1_556
Li11 O19 1.932225 1_555
Li11 O3 1.970233 1_555
Li11 O11 2.052438 1_555
Li12 O15 2.056853 1_545
Li12 O4 2.120748 1_556
Li12 O8 2.186118 1_556
Li12 O0 2.202983 1_555
Li13 O12 2.056986 1_555
Li13 O5 2.121391 1_555
Li13 O9 2.179328 1_655
Li13 O1 2.203031 1_555
Li14 O13 2.014205 1_555
Li14 O6 2.126954 1_555
Li14 O10 2.132130 1_655
Li14 O2 2.235757 1_655
Li15 O14 2.009405 1_455
Li15 O7 2.130361 1_455
Li15 O11 2.135088 1_555
Li15 O3 2.234461 1_554
Li16 O16 2.002685 1_655
Li16 O0 2.013984 1_555
Li16 O9 2.054738 1_655
Li16 O12 2.520647 1_555
Li17 O17 2.015722 1_555
Li17 O1 2.030879 1_455
Li17 O10 2.049427 1_555
Li18 O18 2.008182 1_555
Li18 O11 2.029753 1_555
Li18 O2 2.044630 1_555
Li18 O14 2.513878 1_455
Li19 O19 1.988504 1_554
Li19 O3 2.028235 1_554
Li19 O8 2.036953 1_565
Li19 O15 2.500722 1_554
Li20 O4 1.929486 1_555
Li20 O9 1.949106 1_554
Li20 O12 2.125377 1_555
Li21 O5 1.941846 1_555
Li21 O10 1.958077 1_555
Li21 O13 2.052709 1_556
Li22 O6 1.953882 1_555
Li22 O11 1.966697 1_555
Li22 O14 2.055197 1_556
Li23 O7 1.941414 1_455
Li23 O8 1.956004 1_465
Li23 O15 2.126719 1_555
Li24 O4 1.896208 1_655
Li24 O8 1.914023 1_555
Li24 O16 2.002510 1_655
Li25 O5 1.886434 1_555
Li25 O9 1.906732 1_555
Li25 O17 2.037299 1_556
Li26 O6 1.901019 1_555
Li26 O10 1.902108 1_555
Li26 O18 2.014834 1_556
Li27 O7 1.910715 1_555
Li27 O11 1.910762 1_555
Li27 O19 1.985241 1_555
Li28 O1 1.888000 1_555
Li28 O12 1.920829 1_555
Li28 O16 1.943285 1_655
Li29 O13 1.849926 1_555
Li29 O2 1.918317 1_655
Li29 O17 1.956464 1_655
Li30 O14 1.848707 1_456
Li30 O3 1.910777 1_555
Li30 O18 1.958126 1_556
Li31 O0 1.878838 1_565
Li31 O15 1.919148 1_555
Li31 O19 1.946202 1_555
Co0 O17 1.909842 1_555
Co0 O6 1.914154 1_555
Co0 O2 2.030695 1_555
Co0 O13 2.068728 1_555
Co0 O10 2.179517 1_555
Co1 O18 1.907709 1_555
Co1 O7 1.912864 1_555
Co1 O3 2.033449 1_554
Co1 O14 2.071245 1_555
Co1 O11 2.178603 1_555
Co2 O19 1.906040 1_545
Co2 O4 1.911680 1_656
Co2 O15 1.964313 1_645
Co2 O8 2.075325 1_556
Co2 O0 2.185945 1_555
Co3 O16 1.908704 1_555
Co3 O5 1.912781 1_555
Co3 O12 1.961553 1_555
Co3 O9 2.077549 1_555
Co3 O1 2.182163 1_455
F0 Li24 1.904429 1_555
F0 Li1 1.934636 1_555
F0 Li28 1.941120 1_555
F0 Li20 1.952206 1_555
F0 Li12 2.130447 1_554
F0 Li16 2.485925 1_554
F1 Li25 1.909196 1_655
F1 Li2 1.912558 1_555
F1 Li29 1.914101 1_556
F1 Li21 1.970306 1_555
F1 Li13 2.122245 1_555
F1 Li17 2.455275 1_655
F2 Li3 1.909390 1_555
F2 Li26 1.910490 1_555
F2 Li30 1.912791 1_555
F2 Li22 1.964082 1_455
F2 Li14 2.183795 1_455
F2 Li18 2.459212 1_555
F3 Li27 1.901200 1_555
F3 Li0 1.930038 1_565
F3 Li31 1.941216 1_555
F3 Li23 1.945739 1_555
F3 Li15 2.194412 1_555
F3 Li19 2.494743 1_555
