# generated using pymatgen
data_Sr2LiGe3
_symmetry_space_group_name_H-M   'P 1'
_cell_length_a   8.78488731
_cell_length_b   8.65616457
_cell_length_c   6.32863674
_cell_angle_alpha   69.81419519
_cell_angle_beta   67.64209997
_cell_angle_gamma   42.54370484
_symmetry_Int_Tables_number   1
_chemical_formula_structural   Sr2LiGe3
_chemical_formula_sum   'Sr4 Li2 Ge6'
_cell_volume   299.31698873
_cell_formula_units_Z   2
loop_
 _symmetry_equiv_pos_site_id
 _symmetry_equiv_pos_as_xyz
  1  'x, y, z'
loop_
 _atom_site_type_symbol
 _atom_site_label
 _atom_site_symmetry_multiplicity
 _atom_site_fract_x
 _atom_site_fract_y
 _atom_site_fract_z
 _atom_site_occupancy
  Sr  Sr0  1  0.24194656  0.75805344  0.24194656  1
  Sr  Sr1  1  0.75805344  0.24194656  0.75805344  1
  Sr  Sr2  1  0.75000000  0.75000000  0.75000000  1
  Sr  Sr3  1  0.25000000  0.25000000  0.25000000  1
  Li  Li0  1  0.66615977  0.66615977  0.33384023  1
  Li  Li1  1  0.33384023  0.33384023  0.66615977  1
  Ge  Ge0  1  0.66685557  0.16773282  0.33314443  1
  Ge  Ge1  1  0.83226718  0.33314443  0.16773282  1
  Ge  Ge2  1  0.33314443  0.83226718  0.66685557  1
  Ge  Ge3  1  0.16773282  0.66685557  0.83226718  1
  Ge  Ge4  1  0.83413161  0.83413161  0.16586839  1
  Ge  Ge5  1  0.16586839  0.16586839  0.83413161  1
loop_
_geom_bond_atom_site_label_1
_geom_bond_atom_site_label_2
_geom_bond_distance
_geom_bond_site_symmetry_2
Li0 Sr2 3.404141 1_555
Li0 Sr3 3.404141 1_565
Li0 Sr3 3.404141 1_655
Li0 Sr2 3.404141 1_554
Li0 Sr1 3.438095 1_555
Li0 Sr0 3.438095 1_555
Li1 Sr3 3.404141 1_556
Li1 Sr2 3.404141 1_455
Li1 Sr2 3.404141 1_545
Li1 Sr3 3.404141 1_555
Li1 Sr1 3.438095 1_555
Li1 Sr0 3.438095 1_555
Ge0 Li1 2.504004 1_555
Ge0 Sr0 3.350714 1_645
Ge0 Sr1 3.350714 1_554
Ge0 Sr3 3.399878 1_555
Ge0 Sr2 3.399878 1_545
Ge0 Sr1 3.446068 1_555
Ge0 Sr0 3.446068 1_555
Ge1 Li0 2.504004 1_555
Ge1 Sr0 3.350714 1_645
Ge1 Sr1 3.350714 1_554
Ge1 Sr3 3.399878 1_655
Ge1 Sr2 3.399878 1_554
Ge1 Sr1 3.446068 1_555
Ge1 Sr0 3.446068 1_555
Ge2 Li0 2.504004 1_555
Ge2 Sr0 3.350714 1_556
Ge2 Sr1 3.350714 1_465
Ge2 Sr3 3.399878 1_565
Ge2 Sr2 3.399878 1_555
Ge2 Sr1 3.446068 1_555
Ge2 Sr0 3.446068 1_555
Ge3 Li1 2.504004 1_555
Ge3 Sr0 3.350714 1_556
Ge3 Sr1 3.350714 1_465
Ge3 Sr3 3.399878 1_556
Ge3 Sr2 3.399878 1_455
Ge3 Sr0 3.446068 1_555
Ge3 Sr1 3.446068 1_555
Ge4 Li0 2.514553 1_555
Ge4 Sr0 3.334299 1_655
Ge4 Sr1 3.334299 1_564
Ge4 Sr2 3.405752 1_555
Ge4 Sr2 3.405752 1_554
Ge4 Sr3 3.405752 1_565
Ge4 Sr3 3.405752 1_655
Ge5 Li1 2.514553 1_555
Ge5 Sr0 3.334299 1_546
Ge5 Sr1 3.334299 1_455
Ge5 Sr2 3.405752 1_455
Ge5 Sr3 3.405752 1_555
Ge5 Sr3 3.405752 1_556
Ge5 Sr2 3.405752 1_545
