# generated using pymatgen
data_NdHoAl4
_symmetry_space_group_name_H-M   'P 1'
_cell_length_a   5.59346616
_cell_length_b   5.59346616
_cell_length_c   5.59346616
_cell_angle_alpha   60.00000000
_cell_angle_beta   60.00000000
_cell_angle_gamma   60.00000000
_symmetry_Int_Tables_number   1
_chemical_formula_structural   NdHoAl4
_chemical_formula_sum   'Nd1 Ho1 Al4'
_cell_volume   123.74511011
_cell_formula_units_Z   1
loop_
 _symmetry_equiv_pos_site_id
 _symmetry_equiv_pos_as_xyz
  1  'x, y, z'
loop_
 _atom_site_type_symbol
 _atom_site_label
 _atom_site_symmetry_multiplicity
 _atom_site_fract_x
 _atom_site_fract_y
 _atom_site_fract_z
 _atom_site_occupancy
  Nd  Nd0  1  -0.00000000  -0.00000000  -0.00000000  1
  Ho  Ho0  1  0.25000000  0.25000000  0.25000000  1
  Al  Al0  1  0.62486626  0.62486626  0.12540023  1
  Al  Al1  1  0.62486626  0.12540023  0.62486626  1
  Al  Al2  1  0.12540023  0.62486626  0.62486626  1
  Al  Al3  1  0.62486626  0.62486626  0.62486626  1
loop_
_geom_bond_atom_site_label_1
_geom_bond_atom_site_label_2
_geom_bond_distance
_geom_bond_site_symmetry_2
Ho0 Nd0 3.425284 1_555
Ho0 Nd0 3.425284 1_556
Ho0 Nd0 3.425284 1_565
Ho0 Nd0 3.425284 1_655
Al0 Al1 2.793746 1_555
Al0 Al2 2.793746 1_555
Al0 Al3 2.793746 1_555
Al0 Al2 2.799720 1_654
Al0 Al1 2.799720 1_564
Al0 Al3 2.799720 1_554
Al0 Ho0 3.279139 1_555
Al0 Ho0 3.279144 1_565
Al0 Ho0 3.279144 1_655
Al0 Nd0 3.279777 1_565
Al0 Nd0 3.279777 1_655
Al0 Nd0 3.279782 1_665
Al1 Al2 2.793746 1_555
Al1 Al3 2.793746 1_555
Al1 Al2 2.799720 1_645
Al1 Al3 2.799720 1_545
Al1 Ho0 3.279139 1_555
Al1 Ho0 3.279144 1_556
Al1 Ho0 3.279144 1_655
Al1 Nd0 3.279777 1_655
Al1 Nd0 3.279777 1_556
Al1 Nd0 3.279782 1_656
Al2 Al3 2.793746 1_555
Al2 Al3 2.799720 1_455
Al2 Ho0 3.279139 1_555
Al2 Ho0 3.279144 1_556
Al2 Ho0 3.279144 1_565
Al2 Nd0 3.279777 1_565
Al2 Nd0 3.279777 1_556
Al2 Nd0 3.279782 1_566
Al3 Ho0 3.279142 1_565
Al3 Ho0 3.279142 1_655
Al3 Ho0 3.279142 1_556
Al3 Nd0 3.279780 1_665
Al3 Nd0 3.279780 1_656
Al3 Nd0 3.279780 1_566
