# generated using pymatgen
data_Yb3Ni
_symmetry_space_group_name_H-M   'P 1'
_cell_length_a   6.16006095
_cell_length_b   6.67323020
_cell_length_c   9.37341027
_cell_angle_alpha   90.00000000
_cell_angle_beta   90.00000000
_cell_angle_gamma   90.00000000
_symmetry_Int_Tables_number   1
_chemical_formula_structural   Yb3Ni
_chemical_formula_sum   'Yb12 Ni4'
_cell_volume   385.31750724
_cell_formula_units_Z   4
loop_
 _symmetry_equiv_pos_site_id
 _symmetry_equiv_pos_as_xyz
  1  'x, y, z'
loop_
 _atom_site_type_symbol
 _atom_site_label
 _atom_site_symmetry_multiplicity
 _atom_site_fract_x
 _atom_site_fract_y
 _atom_site_fract_z
 _atom_site_occupancy
  Yb  Yb0  1  0.31758719  0.67799594  0.06683987  1
  Yb  Yb1  1  0.18241281  0.17799594  0.43316013  1
  Yb  Yb2  1  0.68241281  0.32200406  0.56683987  1
  Yb  Yb3  1  0.81758719  0.82200406  0.93316013  1
  Yb  Yb4  1  0.68241281  0.32200406  0.93316013  1
  Yb  Yb5  1  0.81758719  0.82200406  0.56683987  1
  Yb  Yb6  1  0.31758719  0.67799594  0.43316013  1
  Yb  Yb7  1  0.18241281  0.17799594  0.06683987  1
  Yb  Yb8  1  0.86204071  0.53519286  0.25000000  1
  Yb  Yb9  1  0.63795929  0.03519286  0.25000000  1
  Yb  Yb10  1  0.13795929  0.46480714  0.75000000  1
  Yb  Yb11  1  0.36204071  0.96480714  0.75000000  1
  Ni  Ni0  1  0.04882023  0.89389126  0.25000000  1
  Ni  Ni1  1  0.45117977  0.39389126  0.25000000  1
  Ni  Ni2  1  0.95117977  0.10610874  0.75000000  1
  Ni  Ni3  1  0.54882023  0.60610874  0.75000000  1
loop_
_geom_bond_atom_site_label_1
_geom_bond_atom_site_label_2
_geom_bond_distance
_geom_bond_site_symmetry_2
Ni0 Yb8 2.655844 1_455
Ni0 Yb1 2.686852 1_565
Ni0 Yb7 2.686852 1_565
Ni0 Yb9 2.700876 1_465
Ni0 Yb6 2.786445 1_555
Ni0 Yb0 2.786445 1_555
Ni1 Yb9 2.655844 1_555
Ni1 Yb6 2.686852 1_555
Ni1 Yb0 2.686852 1_555
Ni1 Yb8 2.700876 1_555
Ni1 Yb1 2.786445 1_555
Ni1 Yb7 2.786445 1_555
Ni2 Yb10 2.655844 1_655
Ni2 Yb3 2.686852 1_545
Ni2 Yb5 2.686852 1_545
Ni2 Yb11 2.700876 1_645
Ni2 Yb4 2.786445 1_555
Ni2 Yb2 2.786445 1_555
Ni3 Yb11 2.655844 1_555
Ni3 Yb4 2.686852 1_555
Ni3 Yb2 2.686852 1_555
Ni3 Yb10 2.700876 1_555
Ni3 Yb3 2.786445 1_555
Ni3 Yb5 2.786445 1_555
