# generated using pymatgen
data_TeC4S4N8(ClO)2
_symmetry_space_group_name_H-M   'P 1'
_cell_length_a   13.82977400
_cell_length_b   7.47589500
_cell_length_c   10.26976471
_cell_angle_alpha   70.73993204
_cell_angle_beta   90.00000000
_cell_angle_gamma   90.00000000
_symmetry_Int_Tables_number   1
_chemical_formula_structural   TeC4S4N8(ClO)2
_chemical_formula_sum   'Te2 C8 S8 N16 Cl4 O4'
_cell_volume   1002.36307383
_cell_formula_units_Z   2
loop_
 _symmetry_equiv_pos_site_id
 _symmetry_equiv_pos_as_xyz
  1  'x, y, z'
loop_
 _atom_site_type_symbol
 _atom_site_label
 _atom_site_symmetry_multiplicity
 _atom_site_fract_x
 _atom_site_fract_y
 _atom_site_fract_z
 _atom_site_occupancy
  Te  Te0  1  0.50000000  0.00000000  0.50000000  1
  Te  Te1  1  0.00000000  0.00000000  0.00000000  1
  C  C0  1  0.29737800  0.95740600  0.57452900  1
  C  C1  1  0.79737800  0.04259400  0.92547100  1
  C  C2  1  0.70262200  0.04259400  0.42547100  1
  C  C3  1  0.20262200  0.95740600  0.07452900  1
  C  C4  1  0.44232500  0.84667600  0.83570000  1
  C  C5  1  0.94232500  0.15332400  0.66430000  1
  C  C6  1  0.55767500  0.15332400  0.16430000  1
  C  C7  1  0.05767500  0.84667600  0.33570000  1
  S  S0  1  0.29695900  0.22201600  0.54292100  1
  S  S1  1  0.79695900  0.77798400  0.95707900  1
  S  S2  1  0.70304100  0.77798400  0.45707900  1
  S  S3  1  0.20304100  0.22201600  0.04292100  1
  S  S4  1  0.44858300  0.18645800  0.67126700  1
  S  S5  1  0.94858300  0.81354200  0.82873300  1
  S  S6  1  0.55141700  0.81354200  0.32873300  1
  S  S7  1  0.05141700  0.18645800  0.17126700  1
  N  N0  1  0.36198800  0.89957000  0.50312000  1
  N  N1  1  0.86198800  0.10043000  0.99688000  1
  N  N2  1  0.63801200  0.10043000  0.49688000  1
  N  N3  1  0.13801200  0.89957000  0.00312000  1
  N  N4  1  0.22776100  0.87610100  0.66007600  1
  N  N5  1  0.72776100  0.12389900  0.83992400  1
  N  N6  1  0.77223900  0.12389900  0.33992400  1
  N  N7  1  0.27223900  0.87610100  0.16007600  1
  N  N8  1  0.44466000  0.02851200  0.81937300  1
  N  N9  1  0.94466000  0.97148800  0.68062700  1
  N  N10  1  0.55534000  0.97148800  0.18062700  1
  N  N11  1  0.05534000  0.02851200  0.31937300  1
  N  N12  1  0.44565500  0.68326900  0.85006900  1
  N  N13  1  0.94565500  0.31673100  0.64993100  1
  N  N14  1  0.55434500  0.31673100  0.14993100  1
  N  N15  1  0.05434500  0.68326900  0.35006900  1
  Cl  Cl0  1  0.22397600  0.63660900  0.70410400  1
  Cl  Cl1  1  0.72397600  0.36339100  0.79589600  1
  Cl  Cl2  1  0.77602400  0.36339100  0.29589600  1
  Cl  Cl3  1  0.27602400  0.63660900  0.20410400  1
  O  O0  1  0.27625000  0.26801500  0.13112400  1
  O  O1  1  0.77625000  0.73198500  0.36887600  1
  O  O2  1  0.72375000  0.73198500  0.86887600  1
  O  O3  1  0.22375000  0.26801500  0.63112400  1
loop_
_geom_bond_atom_site_label_1
_geom_bond_atom_site_label_2
_geom_bond_distance
_geom_bond_site_symmetry_2
C0 N4 1.309950 1_555
C0 N0 1.316191 1_555
C1 N5 1.309950 1_555
C1 N1 1.316191 1_555
C2 N6 1.309950 1_555
C2 N2 1.316191 1_555
C3 N7 1.309950 1_555
C3 N3 1.316191 1_555
C4 N12 1.182079 1_555
C4 N8 1.314047 1_565
C5 N13 1.182079 1_555
C5 N9 1.314047 1_545
C6 N14 1.182079 1_555
C6 N10 1.314047 1_545
C7 N15 1.182079 1_555
C7 N11 1.314047 1_565
S4 Te0 2.675781 1_555
S5 Te1 2.675781 1_666
S6 Te0 2.675781 1_565
S7 Te1 2.675781 1_555
N0 Te0 2.047414 1_565
N1 Te1 2.047414 1_656
N2 Te0 2.047414 1_555
N3 Te1 2.047414 1_565
N8 S4 1.589291 1_555
N9 S5 1.589291 1_555
N10 S6 1.589291 1_555
N11 S7 1.589291 1_555
Cl0 N4 1.696676 1_555
Cl1 N5 1.696676 1_555
Cl2 N6 1.696676 1_555
Cl3 N7 1.696676 1_555
O0 S3 1.472873 1_555
O1 S2 1.472873 1_555
O2 S1 1.472873 1_555
O3 S0 1.472873 1_555
