# generated using pymatgen
data_K2Mn3V2CO11
_symmetry_space_group_name_H-M   'P 1'
_cell_length_a   5.28264408
_cell_length_b   5.28264408
_cell_length_c   22.73238300
_cell_angle_alpha   90.00000000
_cell_angle_beta   90.00000000
_cell_angle_gamma   120.00000105
_symmetry_Int_Tables_number   1
_chemical_formula_structural   K2Mn3V2CO11
_chemical_formula_sum   'K4 Mn6 V4 C2 O22'
_cell_volume   549.38689311
_cell_formula_units_Z   2
loop_
 _symmetry_equiv_pos_site_id
 _symmetry_equiv_pos_as_xyz
  1  'x, y, z'
loop_
 _atom_site_type_symbol
 _atom_site_label
 _atom_site_symmetry_multiplicity
 _atom_site_fract_x
 _atom_site_fract_y
 _atom_site_fract_z
 _atom_site_occupancy
  K  K0  1  0.66666700  0.33333300  0.65784200  1
  K  K1  1  0.33333300  0.66666700  0.15784200  1
  K  K2  1  0.33333300  0.66666700  0.34215800  1
  K  K3  1  0.66666700  0.33333300  0.84215800  1
  Mn  Mn0  1  0.33333300  0.66666700  0.50455600  1
  Mn  Mn1  1  0.66666700  0.33333300  0.00455600  1
  Mn  Mn2  1  0.66666700  0.33333300  0.49544400  1
  Mn  Mn3  1  0.33333300  0.66666700  0.99544400  1
  Mn  Mn4  1  0.00000000  0.00000000  0.75000000  1
  Mn  Mn5  1  0.00000000  0.00000000  0.25000000  1
  V  V0  1  0.00000000  0.00000000  0.57984100  1
  V  V1  1  0.00000000  0.00000000  0.07984100  1
  V  V2  1  0.00000000  0.00000000  0.42015900  1
  V  V3  1  0.00000000  0.00000000  0.92015900  1
  C  C0  1  0.33333300  0.66666700  0.75000000  1
  C  C1  1  0.66666700  0.33333300  0.25000000  1
  O  O0  1  0.00000000  0.00000000  0.65556600  1
  O  O1  1  0.00000000  0.00000000  0.15556600  1
  O  O2  1  0.00000000  0.00000000  0.34443400  1
  O  O3  1  0.00000000  0.00000000  0.84443400  1
  O  O4  1  0.37456900  0.93106500  0.75000000  1
  O  O5  1  0.06893500  0.44350400  0.75000000  1
  O  O6  1  0.55649600  0.62543100  0.75000000  1
  O  O7  1  0.62543100  0.06893500  0.25000000  1
  O  O8  1  0.93106500  0.55649600  0.25000000  1
  O  O9  1  0.44350400  0.37456900  0.25000000  1
  O  O10  1  0.32153800  0.01068900  0.55476900  1
  O  O11  1  0.98931100  0.31084900  0.55476900  1
  O  O12  1  0.68915100  0.67846200  0.55476900  1
  O  O13  1  0.67846200  0.98931100  0.05476900  1
  O  O14  1  0.01068900  0.68915100  0.05476900  1
  O  O15  1  0.31084900  0.32153800  0.05476900  1
  O  O16  1  0.67846200  0.98931100  0.44523100  1
  O  O17  1  0.01068900  0.68915100  0.44523100  1
  O  O18  1  0.31084900  0.32153800  0.44523100  1
  O  O19  1  0.32153800  0.01068900  0.94523100  1
  O  O20  1  0.98931100  0.31084900  0.94523100  1
  O  O21  1  0.68915100  0.67846200  0.94523100  1
loop_
_geom_bond_atom_site_label_1
_geom_bond_atom_site_label_2
_geom_bond_distance
_geom_bond_site_symmetry_2
K0 O5 2.829602 1_655
K0 O4 2.829603 1_545
K0 O6 2.829606 1_555
K0 O11 2.934564 1_555
K0 O10 2.934566 1_555
K0 O12 2.934568 1_555
K0 O0 3.050372 1_655
K0 O0 3.050376 1_665
K0 O0 3.050376 1_555
K1 O8 2.829602 1_455
K1 O7 2.829603 1_565
K1 O9 2.829606 1_555
K1 O14 2.934564 1_555
K1 O13 2.934566 1_555
K1 O15 2.934568 1_555
K1 O1 3.050372 1_565
K1 O1 3.050376 1_665
K1 O1 3.050376 1_555
K2 O8 2.829602 1_455
K2 O7 2.829603 1_565
K2 O9 2.829606 1_555
K2 O17 2.934564 1_555
K2 O16 2.934566 1_555
K2 O18 2.934568 1_555
K2 O2 3.050372 1_565
K2 O2 3.050376 1_665
K2 O2 3.050376 1_555
K3 O5 2.829602 1_655
K3 O4 2.829603 1_545
K3 O6 2.829606 1_555
K3 O20 2.934564 1_555
K3 O19 2.934566 1_555
K3 O21 2.934568 1_555
K3 O3 3.050372 1_655
K3 O3 3.050376 1_555
K3 O3 3.050376 1_665
Mn0 O10 2.173200 1_565
Mn0 O11 2.173202 1_455
Mn0 O12 2.173204 1_555
Mn0 O17 2.222677 1_555
Mn0 O16 2.222679 1_555
Mn0 O18 2.222681 1_555
Mn1 O13 2.173200 1_545
Mn1 O14 2.173202 1_655
Mn1 O15 2.173204 1_555
Mn1 O20 2.222677 1_554
Mn1 O19 2.222679 1_554
Mn1 O21 2.222681 1_554
Mn2 O16 2.173200 1_545
Mn2 O17 2.173202 1_655
Mn2 O18 2.173204 1_555
Mn2 O11 2.222677 1_555
Mn2 O10 2.222679 1_555
Mn2 O12 2.222681 1_555
Mn3 O19 2.173200 1_565
Mn3 O20 2.173202 1_455
Mn3 O21 2.173204 1_555
Mn3 O14 2.222677 1_556
Mn3 O13 2.222679 1_556
Mn3 O15 2.222681 1_556
Mn4 O3 2.146710 1_555
Mn4 O0 2.146710 1_555
Mn4 O6 2.183687 1_445
Mn4 O5 2.183687 1_555
Mn4 O4 2.183687 1_545
Mn5 O1 2.146710 1_555
Mn5 O2 2.146710 1_555
Mn5 O9 2.183687 1_555
Mn5 O8 2.183687 1_445
Mn5 O7 2.183687 1_455
C0 O4 1.301547 1_555
C0 O5 1.301549 1_555
C0 O6 1.301553 1_555
C1 O7 1.301547 1_555
C1 O8 1.301549 1_555
C1 O9 1.301553 1_555
O0 V0 1.721410 1_555
O1 V1 1.721410 1_555
O2 V2 1.721410 1_555
O3 V3 1.721410 1_555
O10 V0 1.765576 1_555
O11 V0 1.765576 1_655
O12 V0 1.765576 1_665
O13 V1 1.765576 1_665
O14 V1 1.765576 1_565
O15 V1 1.765576 1_555
O16 V2 1.765576 1_665
O17 V2 1.765576 1_565
O18 V2 1.765576 1_555
O19 V3 1.765576 1_555
O20 V3 1.765576 1_655
O21 V3 1.765576 1_665
