# generated using pymatgen
data_Ba4Ta10CoO30
_symmetry_space_group_name_H-M   'P 1'
_cell_length_a   10.01896926
_cell_length_b   10.01896926
_cell_length_c   10.01896926
_cell_angle_alpha   133.50862116
_cell_angle_beta   117.87903965
_cell_angle_gamma   81.02113092
_symmetry_Int_Tables_number   1
_chemical_formula_structural   Ba4Ta10CoO30
_chemical_formula_sum   'Ba4 Ta10 Co1 O30'
_cell_volume   622.79760410
_cell_formula_units_Z   1
loop_
 _symmetry_equiv_pos_site_id
 _symmetry_equiv_pos_as_xyz
  1  'x, y, z'
loop_
 _atom_site_type_symbol
 _atom_site_label
 _atom_site_symmetry_multiplicity
 _atom_site_fract_x
 _atom_site_fract_y
 _atom_site_fract_z
 _atom_site_occupancy
  Ba  Ba0  1  0.25685300  0.75685300  0.50000000  1
  Ba  Ba1  1  0.24425700  0.24425700  0.00000000  1
  Ba  Ba2  1  0.65402500  0.65402500  0.00000000  1
  Ba  Ba3  1  0.65239600  0.15239600  0.50000000  1
  Ta  Ta0  1  0.45091600  0.20062600  0.74970900  1
  Ta  Ta1  1  0.45091600  0.70120700  0.25029100  1
  Ta  Ta2  1  0.00929900  0.57776000  0.93262500  1
  Ta  Ta3  1  0.00929900  0.07667500  0.43153900  1
  Ta  Ta4  1  0.64513600  0.57776000  0.56846100  1
  Ta  Ta5  1  0.64513600  0.07667500  0.06737500  1
  Ta  Ta6  1  0.26428700  0.33229600  0.43670500  1
  Ta  Ta7  1  0.26428700  0.82758200  0.93199200  1
  Ta  Ta8  1  0.89559000  0.82758200  0.56329500  1
  Ta  Ta9  1  0.89559000  0.33229600  0.06800800  1
  Co  Co0  1  0.97359500  0.97359500  0.00000000  1
  O  O0  1  0.12249700  0.84703600  0.72453900  1
  O  O1  1  0.12249700  0.39795800  0.27546100  1
  O  O2  1  0.08246600  0.73743400  0.92131900  1
  O  O3  1  0.08246600  0.16114700  0.34503200  1
  O  O4  1  0.81611400  0.73743400  0.65496800  1
  O  O5  1  0.81611400  0.16114700  0.07868100  1
  O  O6  1  0.26117600  0.57182800  0.68934800  1
  O  O7  1  0.22806200  0.08275300  0.14530900  1
  O  O8  1  0.88248100  0.57182800  0.31065200  1
  O  O9  1  0.93744400  0.08275300  0.85469100  1
  O  O10  1  0.41359600  0.80678300  0.13018700  1
  O  O11  1  0.41359600  0.28340800  0.60681300  1
  O  O12  1  0.67659600  0.80678300  0.39318700  1
  O  O13  1  0.67659600  0.28340800  0.86981300  1
  O  O14  1  0.77828100  0.52545000  0.74716900  1
  O  O15  1  0.77828100  0.03111100  0.25283100  1
  O  O16  1  0.44627200  0.94627200  0.50000000  1
  O  O17  1  0.45577300  0.45577300  0.00000000  1
  O  O18  1  0.00378900  0.32708400  0.67670500  1
  O  O19  1  0.98382600  0.80459400  0.17923100  1
  O  O20  1  0.65037900  0.32708400  0.32329500  1
  O  O21  1  0.62536300  0.80459400  0.82076900  1
  O  O22  1  0.44694000  0.43585700  0.48581900  1
  O  O23  1  0.44694000  0.96112100  0.01108300  1
  O  O24  1  0.95003800  0.96112100  0.51418100  1
  O  O25  1  0.95003800  0.43585700  0.98891700  1
  O  O26  1  0.22391300  0.60396700  0.11788300  1
  O  O27  1  0.22391300  0.10603000  0.61994600  1
  O  O28  1  0.48608400  0.60396700  0.38005400  1
  O  O29  1  0.48608400  0.10603000  0.88211700  1
loop_
_geom_bond_atom_site_label_1
_geom_bond_atom_site_label_2
_geom_bond_distance
_geom_bond_site_symmetry_2
Ba0 O0 2.709786 1_555
Ba0 O1 2.709786 1_555
Ba0 O26 2.830824 1_555
Ba0 O28 2.830824 1_555
Ba0 O29 2.830824 1_565
Ba0 O27 2.830824 1_565
Ba0 O16 2.885717 1_555
Ba1 O1 2.861229 1_555
Ba1 O0 2.861229 1_544
Ba1 O9 2.882809 1_454
Ba1 O7 2.882809 1_555
Ba1 O28 2.925700 1_555
Ba1 O29 2.925700 1_554
Ba1 O27 2.925700 1_554
Ba1 O26 2.925700 1_555
Ba1 O17 3.222355 1_555
Ba1 O25 3.256958 1_454
Ba1 O23 3.256958 1_545
Ba1 O22 3.256958 1_555
Ba1 O24 3.256958 1_444
Ba2 O15 2.753430 1_565
Ba2 O14 2.753438 1_554
Ba2 O21 2.948771 1_554
Ba2 O19 2.948780 1_555
Ba2 O12 2.980797 1_555
Ba2 O10 2.980797 1_555
Ba2 O11 2.980802 1_554
Ba2 O13 2.980807 1_554
Ba2 O17 3.020284 1_555
Ba3 O15 2.738415 1_555
Ba3 O14 2.738418 1_555
Ba3 O11 2.841205 1_555
Ba3 O10 2.841206 1_545
Ba3 O12 2.841206 1_545
Ba3 O13 2.841210 1_555
Co0 O2 2.199980 1_654
Co0 O3 2.199980 1_665
Co0 O4 2.199982 1_554
Co0 O5 2.199988 1_565
Co0 O7 2.241047 1_665
Co0 O9 2.241047 1_564
O0 Ta7 2.021413 1_555
O0 Ta8 2.021413 1_455
O1 Ta6 2.021406 1_555
O1 Ta9 2.021415 1_455
O2 Ta2 1.950050 1_555
O2 Ta7 2.084235 1_555
O3 Ta3 1.950042 1_555
O3 Ta6 2.084242 1_555
O4 Ta4 1.950034 1_555
O4 Ta8 2.084242 1_555
O5 Ta5 1.950026 1_555
O5 Ta9 2.084250 1_555
O6 Ta6 1.963052 1_555
O6 Ta7 1.963055 1_555
O7 Ta7 2.036607 1_544
O7 Ta6 2.036610 1_555
O8 Ta9 1.963047 1_555
O8 Ta8 1.963058 1_555
O9 Ta8 2.036607 1_545
O9 Ta9 2.036612 1_556
O10 Ta1 1.978635 1_555
O10 Ta7 1.979568 1_554
O11 Ta0 1.978618 1_555
O11 Ta6 1.979582 1_555
O12 Ta1 1.978635 1_555
O12 Ta8 1.979568 1_555
O13 Ta0 1.978632 1_555
O13 Ta9 1.979562 1_556
O14 Ta4 2.024867 1_555
O14 Ta2 2.024869 1_655
O15 Ta3 2.024865 1_655
O15 Ta5 2.024882 1_555
O16 Ta1 1.976083 1_555
O16 Ta0 1.976087 1_565
O17 Ta0 1.980797 1_554
O17 Ta1 1.980801 1_555
O18 Ta3 1.982188 1_555
O18 Ta2 1.982192 1_555
O19 Ta2 2.002913 1_654
O19 Ta3 2.002926 1_665
O20 Ta4 1.982188 1_555
O20 Ta5 1.982192 1_555
O21 Ta5 2.002921 1_566
O21 Ta4 2.002924 1_555
O22 Ta6 1.927460 1_555
O22 Ta4 2.091088 1_555
O23 Ta7 1.927465 1_554
O23 Ta5 2.091093 1_565
O24 Ta8 1.927465 1_555
O24 Ta3 2.091088 1_665
O25 Ta9 1.927456 1_556
O25 Ta2 2.091079 1_655
O26 Ta2 1.977419 1_554
O26 Ta1 1.992990 1_555
O27 Ta3 1.977423 1_555
O27 Ta0 1.992992 1_555
O28 Ta4 1.977423 1_555
O28 Ta1 1.992990 1_555
O29 Ta5 1.977416 1_556
O29 Ta0 1.992999 1_555
