# generated using pymatgen
data_LiZn4SnO8
_symmetry_space_group_name_H-M   'P 1'
_cell_length_a   6.06835201
_cell_length_b   6.06835201
_cell_length_c   9.87724100
_cell_angle_alpha   90.00000000
_cell_angle_beta   90.00000000
_cell_angle_gamma   120.00000008
_symmetry_Int_Tables_number   1
_chemical_formula_structural   LiZn4SnO8
_chemical_formula_sum   'Li2 Zn8 Sn2 O16'
_cell_volume   314.99801124
_cell_formula_units_Z   2
loop_
 _symmetry_equiv_pos_site_id
 _symmetry_equiv_pos_as_xyz
  1  'x, y, z'
loop_
 _atom_site_type_symbol
 _atom_site_label
 _atom_site_symmetry_multiplicity
 _atom_site_fract_x
 _atom_site_fract_y
 _atom_site_fract_z
 _atom_site_occupancy
  Li  Li0  1  0.00000000  0.00000000  0.83381300  1
  Li  Li1  1  0.00000000  0.00000000  0.33381300  1
  Zn  Zn0  1  0.83200100  0.66400200  0.61770900  1
  Zn  Zn1  1  0.83200100  0.16799900  0.61770900  1
  Zn  Zn2  1  0.16799900  0.33599800  0.11770900  1
  Zn  Zn3  1  0.33599800  0.16799900  0.61770900  1
  Zn  Zn4  1  0.16799900  0.83200100  0.11770900  1
  Zn  Zn5  1  0.66400200  0.83200100  0.11770900  1
  Zn  Zn6  1  0.66666700  0.33333300  0.93025900  1
  Zn  Zn7  1  0.33333300  0.66666700  0.43025900  1
  Sn  Sn0  1  0.66666700  0.33333300  0.33732500  1
  Sn  Sn1  1  0.33333300  0.66666700  0.83732500  1
  O  O0  1  0.66666700  0.33333300  0.72404600  1
  O  O1  1  0.33333300  0.66666700  0.22404600  1
  O  O2  1  0.16240400  0.32480800  0.73470000  1
  O  O3  1  0.16240400  0.83759600  0.73470000  1
  O  O4  1  0.83759600  0.67519200  0.23470000  1
  O  O5  1  0.67519200  0.83759600  0.73470000  1
  O  O6  1  0.83759600  0.16240400  0.23470000  1
  O  O7  1  0.32480800  0.16240400  0.23470000  1
  O  O8  1  0.48492800  0.96985500  0.98336300  1
  O  O9  1  0.48492800  0.51507200  0.98336300  1
  O  O10  1  0.51507200  0.03014500  0.48336300  1
  O  O11  1  0.03014500  0.51507200  0.98336300  1
  O  O12  1  0.51507200  0.48492800  0.48336300  1
  O  O13  1  0.96985500  0.48492800  0.48336300  1
  O  O14  1  0.00000000  0.00000000  0.02223800  1
  O  O15  1  0.00000000  0.00000000  0.52223800  1
loop_
_geom_bond_atom_site_label_1
_geom_bond_atom_site_label_2
_geom_bond_distance
_geom_bond_site_symmetry_2
Li0 O14 1.861119 1_556
Li0 O2 1.967777 1_555
Li0 O5 1.967777 1_445
Li0 O3 1.967777 1_545
Li1 O15 1.861119 1_555
Li1 O7 1.967777 1_555
Li1 O4 1.967777 1_445
Li1 O6 1.967777 1_455
O0 Zn1 2.030524 1_555
O0 Zn3 2.030528 1_555
O0 Zn0 2.030528 1_555
O0 Zn6 2.036815 1_555
O1 Zn4 2.030524 1_555
O1 Zn5 2.030528 1_555
O1 Zn2 2.030528 1_555
O1 Zn7 2.036815 1_555
O2 Sn1 2.062818 1_555
O2 Zn1 2.086363 1_455
O2 Zn3 2.086363 1_555
O3 Sn1 2.062813 1_555
O3 Zn0 2.086363 1_455
O3 Zn3 2.086363 1_565
O4 Sn0 2.062818 1_555
O4 Zn4 2.086363 1_655
O4 Zn5 2.086363 1_555
O5 Sn1 2.062818 1_555
O5 Zn1 2.086363 1_565
O5 Zn0 2.086363 1_555
O6 Sn0 2.062813 1_555
O6 Zn5 2.086363 1_545
O6 Zn2 2.086363 1_655
O7 Sn0 2.062818 1_555
O7 Zn4 2.086363 1_545
O7 Zn2 2.086363 1_555
O8 Zn6 1.980908 1_565
O8 Zn5 2.133213 1_556
O8 Zn4 2.133217 1_556
O8 Sn1 2.149293 1_555
O9 Zn6 1.980908 1_555
O9 Zn2 2.133217 1_556
O9 Zn5 2.133217 1_556
O9 Sn1 2.149301 1_555
O10 Zn7 1.980908 1_545
O10 Zn3 2.133213 1_555
O10 Zn1 2.133217 1_555
O10 Sn0 2.149293 1_555
O11 Zn6 1.980908 1_455
O11 Zn2 2.133213 1_556
O11 Zn4 2.133217 1_556
O11 Sn1 2.149293 1_555
O12 Zn7 1.980908 1_555
O12 Zn3 2.133217 1_555
O12 Zn0 2.133217 1_555
O12 Sn0 2.149301 1_555
O13 Zn7 1.980908 1_655
O13 Zn0 2.133213 1_555
O13 Zn1 2.133217 1_555
O13 Sn0 2.149293 1_555
O14 Zn2 2.001807 1_555
O14 Zn5 2.001807 1_445
O14 Zn4 2.001807 1_545
O15 Zn0 2.001807 1_445
O15 Zn3 2.001807 1_555
O15 Zn1 2.001807 1_455
