# generated using pymatgen
data_Al2Ru
_symmetry_space_group_name_H-M   'P 1'
_cell_length_a   4.63173266
_cell_length_b   4.63173115
_cell_length_c   4.98193129
_cell_angle_alpha   103.87669970
_cell_angle_beta   103.87668237
_cell_angle_gamma   118.95137988
_symmetry_Int_Tables_number   1
_chemical_formula_structural   Al2Ru
_chemical_formula_sum   'Al4 Ru2'
_cell_volume   82.43763621
_cell_formula_units_Z   2
loop_
 _symmetry_equiv_pos_site_id
 _symmetry_equiv_pos_as_xyz
  1  'x, y, z'
loop_
 _atom_site_type_symbol
 _atom_site_label
 _atom_site_symmetry_multiplicity
 _atom_site_fract_x
 _atom_site_fract_y
 _atom_site_fract_z
 _atom_site_occupancy
  Al  Al0  1  0.79593897  0.20406103  0.75000000  1
  Al  Al1  1  0.45406103  0.54593897  0.75000000  1
  Al  Al2  1  0.20406103  0.79593897  0.25000000  1
  Al  Al3  1  0.54593897  0.45406103  0.25000000  1
  Ru  Ru0  1  0.12500000  0.87500000  0.75000000  1
  Ru  Ru1  1  0.87500000  0.12500000  0.25000000  1
loop_
_geom_bond_atom_site_label_1
_geom_bond_atom_site_label_2
_geom_bond_distance
_geom_bond_site_symmetry_2
Al0 Ru1 2.569615 1_555
Al0 Ru1 2.569615 1_556
Al0 Al2 2.596617 1_656
Al0 Al2 2.596618 1_545
Al0 Ru0 2.625800 1_645
Al0 Al1 2.669491 1_545
Al0 Al1 2.669491 1_655
Al0 Ru0 2.719326 1_655
Al0 Ru0 2.719327 1_545
Al0 Al1 2.728075 1_555
Al1 Ru1 2.569614 1_566
Al1 Ru1 2.569614 1_455
Al1 Al3 2.596618 1_555
Al1 Al3 2.596619 1_556
Al1 Ru0 2.625800 1_555
Al1 Ru0 2.719326 1_545
Al1 Ru0 2.719327 1_655
Al2 Ru0 2.569615 1_555
Al2 Ru0 2.569615 1_554
Al2 Ru1 2.625800 1_465
Al2 Al3 2.669491 1_565
Al2 Al3 2.669491 1_455
Al2 Ru1 2.719326 1_455
Al2 Ru1 2.719327 1_565
Al2 Al3 2.728075 1_555
Al3 Ru0 2.569614 1_544
Al3 Ru0 2.569614 1_655
Al3 Ru1 2.625800 1_555
Al3 Ru1 2.719326 1_565
Al3 Ru1 2.719327 1_455
