# generated using pymatgen
data_Mn10(SiGe)3
_symmetry_space_group_name_H-M   'P 1'
_cell_length_a   7.01870763
_cell_length_b   7.01870763
_cell_length_c   4.88496400
_cell_angle_alpha   90.00000000
_cell_angle_beta   90.00000000
_cell_angle_gamma   119.99999649
_symmetry_Int_Tables_number   1
_chemical_formula_structural   Mn10(SiGe)3
_chemical_formula_sum   'Mn10 Si3 Ge3'
_cell_volume   208.40412849
_cell_formula_units_Z   1
loop_
 _symmetry_equiv_pos_site_id
 _symmetry_equiv_pos_as_xyz
  1  'x, y, z'
loop_
 _atom_site_type_symbol
 _atom_site_label
 _atom_site_symmetry_multiplicity
 _atom_site_fract_x
 _atom_site_fract_y
 _atom_site_fract_z
 _atom_site_occupancy
  Mn  Mn0  1  0.00000000  0.75652900  0.00000000  1
  Mn  Mn1  1  0.24347100  0.24347100  0.00000000  1
  Mn  Mn2  1  0.75652900  0.00000000  0.00000000  1
  Mn  Mn3  1  0.00000000  0.24310000  0.50000000  1
  Mn  Mn4  1  0.75690000  0.75690000  0.50000000  1
  Mn  Mn5  1  0.24310000  0.00000000  0.50000000  1
  Mn  Mn6  1  0.33333300  0.66666700  0.25575600  1
  Mn  Mn7  1  0.66666700  0.33333300  0.25575600  1
  Mn  Mn8  1  0.66666700  0.33333300  0.74424400  1
  Mn  Mn9  1  0.33333300  0.66666700  0.74424400  1
  Si  Si0  1  0.00000000  0.60496700  0.50000000  1
  Si  Si1  1  0.39503300  0.39503300  0.50000000  1
  Si  Si2  1  0.60496700  0.00000000  0.50000000  1
  Ge  Ge0  1  0.00000000  0.39823100  0.00000000  1
  Ge  Ge1  1  0.60176900  0.60176900  0.00000000  1
  Ge  Ge2  1  0.39823100  0.00000000  0.00000000  1
loop_
_geom_bond_atom_site_label_1
_geom_bond_atom_site_label_2
_geom_bond_distance
_geom_bond_site_symmetry_2
Mn0 Si0 2.664080 1_555
Mn0 Si0 2.664080 1_554
Mn1 Si1 2.664080 1_554
Mn1 Si1 2.664080 1_555
Mn2 Si2 2.664080 1_554
Mn2 Si2 2.664080 1_555
Mn3 Si1 2.422381 1_555
Mn3 Si2 2.422381 1_455
Mn3 Si0 2.539839 1_555
Mn4 Si2 2.422381 1_565
Mn4 Si0 2.422381 1_655
Mn4 Si1 2.539839 1_555
Mn5 Si1 2.422381 1_555
Mn5 Si0 2.422381 1_545
Mn5 Si2 2.539839 1_555
Mn6 Si0 2.464040 1_555
Mn6 Si2 2.464042 1_565
Mn6 Si1 2.464046 1_555
Mn7 Si2 2.464040 1_555
Mn7 Si0 2.464042 1_655
Mn7 Si1 2.464046 1_555
Mn8 Si2 2.464040 1_555
Mn8 Si0 2.464042 1_655
Mn8 Si1 2.464046 1_555
Mn9 Si0 2.464040 1_555
Mn9 Si2 2.464042 1_565
Mn9 Si1 2.464046 1_555
Ge0 Mn1 2.440536 1_555
Ge0 Mn2 2.440537 1_455
Ge0 Mn7 2.485212 1_455
Ge0 Mn8 2.485212 1_454
Ge0 Mn9 2.485214 1_554
Ge0 Mn6 2.485214 1_555
Ge0 Mn0 2.514789 1_555
Ge0 Mn3 2.674181 1_555
Ge0 Mn3 2.674181 1_554
Ge1 Mn2 2.440537 1_565
Ge1 Mn0 2.440537 1_655
Ge1 Mn6 2.485218 1_555
Ge1 Mn7 2.485218 1_555
Ge1 Mn8 2.485218 1_554
Ge1 Mn9 2.485218 1_554
Ge1 Mn1 2.514789 1_555
Ge1 Mn4 2.674181 1_555
Ge1 Mn4 2.674181 1_554
Ge2 Mn1 2.440536 1_555
Ge2 Mn0 2.440537 1_545
Ge2 Mn9 2.485212 1_544
Ge2 Mn6 2.485212 1_545
Ge2 Mn8 2.485214 1_554
Ge2 Mn7 2.485214 1_555
Ge2 Mn2 2.514789 1_555
Ge2 Mn5 2.674181 1_554
Ge2 Mn5 2.674181 1_555
