# generated using pymatgen
data_K4As2Se5
_symmetry_space_group_name_H-M   'P 1'
_cell_length_a   22.97498946
_cell_length_b   7.70346213
_cell_length_c   9.68291200
_cell_angle_alpha   57.73404111
_cell_angle_beta   90.00000000
_cell_angle_gamma   90.00000000
_symmetry_Int_Tables_number   1
_chemical_formula_structural   K4As2Se5
_chemical_formula_sum   'K16 As8 Se20'
_cell_volume   1449.11058329
_cell_formula_units_Z   4
loop_
 _symmetry_equiv_pos_site_id
 _symmetry_equiv_pos_as_xyz
  1  'x, y, z'
loop_
 _atom_site_type_symbol
 _atom_site_label
 _atom_site_symmetry_multiplicity
 _atom_site_fract_x
 _atom_site_fract_y
 _atom_site_fract_z
 _atom_site_occupancy
  K  K0  1  0.54124309  0.75089767  0.49509325  1
  K  K1  1  0.95875691  0.75089767  0.99509325  1
  K  K2  1  0.45875691  0.24910233  0.50490675  1
  K  K3  1  0.04124309  0.24910233  0.00490675  1
  K  K4  1  0.75492311  0.74731565  0.49653881  1
  K  K5  1  0.74507689  0.74731565  0.99653881  1
  K  K6  1  0.24507689  0.25268435  0.50346119  1
  K  K7  1  0.25492311  0.25268435  0.00346119  1
  K  K8  1  0.54731967  0.75073835  0.99768163  1
  K  K9  1  0.95268033  0.75073835  0.49768163  1
  K  K10  1  0.45268033  0.24926165  0.00231837  1
  K  K11  1  0.04731967  0.24926165  0.50231837  1
  K  K12  1  0.65545981  0.23359352  0.50861875  1
  K  K13  1  0.84454019  0.23359352  0.00861875  1
  K  K14  1  0.34454019  0.76640648  0.49138125  1
  K  K15  1  0.15545981  0.76640648  0.99138125  1
  As  As0  1  0.64321496  0.15674171  0.13905465  1
  As  As1  1  0.85678504  0.15674171  0.63905465  1
  As  As2  1  0.35678504  0.84325829  0.86094535  1
  As  As3  1  0.14321496  0.84325829  0.36094535  1
  As  As4  1  0.64855854  0.35545773  0.82814041  1
  As  As5  1  0.85144146  0.35545773  0.32814041  1
  As  As6  1  0.35144146  0.64454227  0.17185959  1
  As  As7  1  0.14855854  0.64454227  0.67185959  1
  Se  Se0  1  0.64380014  0.80842902  0.23010820  1
  Se  Se1  1  0.85619986  0.80842902  0.73010820  1
  Se  Se2  1  0.35619986  0.19157098  0.76989180  1
  Se  Se3  1  0.14380014  0.19157098  0.26989180  1
  Se  Se4  1  0.72991978  0.23873196  0.22031170  1
  Se  Se5  1  0.77008022  0.23873196  0.72031170  1
  Se  Se6  1  0.27008022  0.76126804  0.77968830  1
  Se  Se7  1  0.22991978  0.76126804  0.27968830  1
  Se  Se8  1  0.56224996  0.24229285  0.23945423  1
  Se  Se9  1  0.93775004  0.24229285  0.73945423  1
  Se  Se10  1  0.43775004  0.75770715  0.76054577  1
  Se  Se11  1  0.06224996  0.75770715  0.26054577  1
  Se  Se12  1  0.64214452  0.69537017  0.76144839  1
  Se  Se13  1  0.85785548  0.69537017  0.26144839  1
  Se  Se14  1  0.35785548  0.30462983  0.23855161  1
  Se  Se15  1  0.14214452  0.30462983  0.73855161  1
  Se  Se16  1  0.55984760  0.26378457  0.76103244  1
  Se  Se17  1  0.94015240  0.26378457  0.26103244  1
  Se  Se18  1  0.44015240  0.73621543  0.23896756  1
  Se  Se19  1  0.05984760  0.73621543  0.73896756  1
loop_
_geom_bond_atom_site_label_1
_geom_bond_atom_site_label_2
_geom_bond_distance
_geom_bond_site_symmetry_2
K0 Se16 3.252323 1_555
K0 Se8 3.268821 1_565
K0 Se12 3.321278 1_555
K0 Se0 3.334314 1_555
K0 Se18 3.443424 1_555
K0 Se10 3.522376 1_555
K1 Se17 3.252323 1_556
K1 Se9 3.268821 1_565
K1 Se13 3.321278 1_556
K1 Se1 3.334314 1_555
K1 Se19 3.443424 1_655
K1 Se11 3.522376 1_656
K2 Se18 3.252323 1_555
K2 Se10 3.268821 1_545
K2 Se14 3.321278 1_555
K2 Se2 3.334314 1_555
K2 Se16 3.443424 1_555
K2 Se8 3.522376 1_555
K3 Se19 3.252323 1_554
K3 Se11 3.268821 1_545
K3 Se15 3.321278 1_554
K3 Se3 3.334314 1_555
K3 Se17 3.443424 1_455
K3 Se9 3.522376 1_454
K4 Se4 3.317222 1_565
K4 Se5 3.331958 1_555
K4 Se1 3.447838 1_555
K4 Se13 3.450671 1_555
K4 Se0 3.478279 1_555
K4 Se12 3.515343 1_555
K5 Se5 3.317222 1_565
K5 Se4 3.331958 1_556
K5 Se0 3.447838 1_556
K5 Se12 3.450671 1_555
K5 Se1 3.478279 1_555
K5 Se13 3.515343 1_556
K6 Se6 3.317222 1_545
K6 Se7 3.331958 1_555
K6 Se3 3.447838 1_555
K6 Se15 3.450671 1_555
K6 Se2 3.478279 1_555
K6 Se14 3.515343 1_555
K7 Se7 3.317222 1_545
K7 Se6 3.331958 1_554
K7 Se2 3.447838 1_554
K7 Se14 3.450671 1_555
K7 Se3 3.478279 1_555
K7 Se15 3.515343 1_554
K8 Se8 3.339051 1_556
K8 Se12 3.346975 1_555
K8 Se0 3.353199 1_556
K8 Se18 3.354733 1_556
K8 Se16 3.359207 1_565
K8 Se10 3.388326 1_555
K9 Se9 3.339051 1_555
K9 Se13 3.346975 1_555
K9 Se1 3.353199 1_555
K9 Se19 3.354733 1_655
K9 Se17 3.359207 1_565
K9 Se11 3.388326 1_655
K10 Se10 3.339051 1_554
K10 Se14 3.346975 1_555
K10 Se2 3.353199 1_554
K10 Se16 3.354733 1_554
K10 Se18 3.359207 1_545
K10 Se8 3.388326 1_555
K11 Se11 3.339051 1_555
K11 Se15 3.346975 1_555
K11 Se3 3.353199 1_555
K11 Se17 3.354733 1_455
K11 Se19 3.359207 1_545
K11 Se9 3.388326 1_455
K12 Se4 3.256295 1_555
K12 Se8 3.346160 1_555
K12 Se5 3.350329 1_555
K12 Se16 3.385274 1_555
K12 Se12 3.527064 1_545
K12 Se0 3.768705 1_555
K13 Se5 3.256295 1_554
K13 Se9 3.346160 1_554
K13 Se4 3.350329 1_555
K13 Se17 3.385274 1_555
K13 Se13 3.527064 1_545
K13 Se1 3.768705 1_554
K14 Se6 3.256295 1_555
K14 Se10 3.346160 1_555
K14 Se7 3.350329 1_555
K14 Se18 3.385274 1_555
K14 Se14 3.527064 1_565
K14 Se2 3.768705 1_555
K15 Se7 3.256295 1_556
K15 Se11 3.346160 1_556
K15 Se6 3.350329 1_555
K15 Se19 3.385274 1_555
K15 Se15 3.527064 1_565
K15 Se3 3.768705 1_556
As0 Se0 2.334801 1_545
As0 Se4 2.348791 1_555
As0 Se8 2.350262 1_555
As0 As4 2.549766 1_554
As1 Se1 2.334801 1_545
As1 Se5 2.348791 1_555
As1 Se9 2.350262 1_555
As1 As5 2.549766 1_555
As2 Se2 2.334801 1_565
As2 Se6 2.348791 1_555
As2 Se10 2.350262 1_555
As2 As6 2.549766 1_556
As3 Se3 2.334801 1_565
As3 Se7 2.348791 1_555
As3 Se11 2.350262 1_555
As3 As7 2.549766 1_555
As4 Se12 2.343045 1_555
As4 Se16 2.359005 1_555
As4 K12 3.685074 1_555
As5 Se13 2.343045 1_555
As5 Se17 2.359005 1_555
As5 K13 3.685074 1_555
As6 Se14 2.343045 1_555
As6 Se18 2.359005 1_555
As6 K14 3.685074 1_555
As7 Se15 2.343045 1_555
As7 Se19 2.359005 1_555
As7 K15 3.685074 1_555
