# generated using pymatgen
data_DyGa2Ni
_symmetry_space_group_name_H-M   'P 1'
_cell_length_a   5.44530716
_cell_length_b   5.44530716
_cell_length_c   6.60775121
_cell_angle_alpha   90.00000000
_cell_angle_beta   90.00000000
_cell_angle_gamma   136.17759579
_symmetry_Int_Tables_number   1
_chemical_formula_structural   DyGa2Ni
_chemical_formula_sum   'Dy2 Ga4 Ni2'
_cell_volume   135.66612086
_cell_formula_units_Z   2
loop_
 _symmetry_equiv_pos_site_id
 _symmetry_equiv_pos_as_xyz
  1  'x, y, z'
loop_
 _atom_site_type_symbol
 _atom_site_label
 _atom_site_symmetry_multiplicity
 _atom_site_fract_x
 _atom_site_fract_y
 _atom_site_fract_z
 _atom_site_occupancy
  Dy  Dy0  1  0.56889219  0.43110781  0.25000000  1
  Dy  Dy1  1  0.43110781  0.56889219  0.75000000  1
  Ga  Ga0  1  0.85145073  0.14854927  0.44564749  1
  Ga  Ga1  1  0.14854927  0.85145073  0.55435251  1
  Ga  Ga2  1  0.85145073  0.14854927  0.05435251  1
  Ga  Ga3  1  0.14854927  0.85145073  0.94564749  1
  Ni  Ni0  1  0.28906183  0.71093817  0.25000000  1
  Ni  Ni1  1  0.71093817  0.28906183  0.75000000  1
loop_
_geom_bond_atom_site_label_1
_geom_bond_atom_site_label_2
_geom_bond_distance
_geom_bond_site_symmetry_2
Dy0 Ni0 2.827381 1_555
Dy0 Ga3 2.970077 1_654
Dy0 Ga1 2.970077 1_545
Dy0 Ga1 2.970077 1_655
Dy0 Ga3 2.970077 1_544
Dy0 Ni0 3.012946 1_545
Dy0 Ni0 3.012946 1_655
Dy0 Ga0 3.134011 1_555
Dy0 Ga2 3.134011 1_555
Dy0 Ga0 3.259949 1_565
Dy0 Ga0 3.259949 1_455
Dy0 Ga2 3.259949 1_565
Dy0 Ga2 3.259949 1_455
Dy1 Ni1 2.827381 1_555
Dy1 Ga2 2.970077 1_566
Dy1 Ga2 2.970077 1_456
Dy1 Ga0 2.970077 1_455
Dy1 Ga0 2.970077 1_565
Dy1 Ni1 3.012946 1_455
Dy1 Ni1 3.012946 1_565
Dy1 Ga3 3.134011 1_555
Dy1 Ga1 3.134011 1_555
Dy1 Ga1 3.259949 1_545
Dy1 Ga1 3.259949 1_655
Dy1 Ga3 3.259949 1_655
Dy1 Ga3 3.259949 1_545
Ga0 Ni1 2.461725 1_555
Ga0 Ni0 2.489535 1_655
Ga0 Ni0 2.489535 1_545
Ga1 Ni0 2.461725 1_555
Ga1 Ni1 2.489535 1_565
Ga1 Ni1 2.489535 1_455
Ga2 Ni1 2.461725 1_554
Ga2 Ni0 2.489535 1_655
Ga2 Ni0 2.489535 1_545
Ga3 Ni0 2.461725 1_556
Ga3 Ni1 2.489535 1_565
Ga3 Ni1 2.489535 1_455
