# generated using pymatgen
data_BaYMn2O5
_symmetry_space_group_name_H-M   'P 1'
_cell_length_a   5.61420800
_cell_length_b   5.61420800
_cell_length_c   8.77587466
_cell_angle_alpha   71.34951673
_cell_angle_beta   71.34949335
_cell_angle_gamma   90.00346982
_symmetry_Int_Tables_number   1
_chemical_formula_structural   BaYMn2O5
_chemical_formula_sum   'Ba2 Y2 Mn4 O10'
_cell_volume   246.70276809
_cell_formula_units_Z   2
loop_
 _symmetry_equiv_pos_site_id
 _symmetry_equiv_pos_as_xyz
  1  'x, y, z'
loop_
 _atom_site_type_symbol
 _atom_site_label
 _atom_site_symmetry_multiplicity
 _atom_site_fract_x
 _atom_site_fract_y
 _atom_site_fract_z
 _atom_site_occupancy
  Ba  Ba0  1  0.74999800  0.25000300  0.99999800  1
  Ba  Ba1  1  0.25000200  0.74999700  0.99999800  1
  Y  Y0  1  0.49999200  0.99999100  0.50001900  1
  Y  Y1  1  0.99999000  0.49999100  0.50001900  1
  Mn  Mn0  1  0.88807600  0.88807400  0.72384600  1
  Mn  Mn1  1  0.11192300  0.11192500  0.27615800  1
  Mn  Mn2  1  0.37639900  0.37639700  0.74720500  1
  Mn  Mn3  1  0.62360700  0.62360900  0.25278000  1
  O  O0  1  0.24593000  0.24592800  0.00814700  1
  O  O1  1  0.75412000  0.75411900  0.99175300  1
  O  O2  1  0.33137100  0.33137200  0.31959700  1
  O  O3  1  0.84901300  0.84901500  0.31963000  1
  O  O4  1  0.33137600  0.84903300  0.31959700  1
  O  O5  1  0.84903200  0.33137800  0.31959600  1
  O  O6  1  0.66860000  0.66859900  0.68042300  1
  O  O7  1  0.15099500  0.15099400  0.68039000  1
  O  O8  1  0.15097900  0.66859600  0.68042200  1
  O  O9  1  0.66859700  0.15097800  0.68042100  1
loop_
_geom_bond_atom_site_label_1
_geom_bond_atom_site_label_2
_geom_bond_distance
_geom_bond_site_symmetry_2
Ba0 O0 2.807796 1_556
Ba0 O1 2.807813 1_555
Ba0 O0 2.807861 1_656
Ba0 O1 2.807878 1_545
Ba0 O9 3.193821 1_555
Ba0 O5 3.193963 1_556
Ba0 O6 3.193995 1_555
Ba0 O8 3.194059 1_655
Ba0 O2 3.194149 1_556
Ba0 O4 3.194191 1_546
Ba0 O7 3.194217 1_655
Ba0 O3 3.194361 1_546
Ba1 O0 2.807801 1_556
Ba1 O1 2.807824 1_555
Ba1 O0 2.807856 1_566
Ba1 O1 2.807867 1_455
Ba1 O8 3.193808 1_555
Ba1 O4 3.193974 1_556
Ba1 O6 3.193999 1_555
Ba1 O9 3.194068 1_565
Ba1 O2 3.194145 1_556
Ba1 O5 3.194180 1_456
Ba1 O7 3.194213 1_565
Ba1 O3 3.194370 1_456
Mn0 O6 1.944792 1_555
Mn0 O7 1.944928 1_665
Mn0 O8 1.944963 1_655
Mn0 O9 1.944972 1_565
Mn0 O1 2.096916 1_555
Mn1 O2 1.944658 1_555
Mn1 O3 1.944813 1_445
Mn1 O5 1.944837 1_455
Mn1 O4 1.944843 1_545
Mn1 O0 2.097730 1_555
Mn2 O0 2.042401 1_556
Mn2 O7 2.120279 1_555
Mn2 O6 2.120296 1_555
Mn2 O9 2.120363 1_555
Mn2 O8 2.120369 1_555
Mn3 O1 2.043066 1_554
Mn3 O2 2.120498 1_555
Mn3 O3 2.120501 1_555
Mn3 O4 2.120572 1_555
Mn3 O5 2.120575 1_555
O2 Y1 2.437062 1_455
O2 Y0 2.437069 1_545
O3 Y0 2.436909 1_555
O3 Y1 2.436923 1_555
O4 Y0 2.436860 1_555
O4 Y1 2.437082 1_455
O5 Y1 2.436857 1_555
O5 Y0 2.437080 1_545
O6 Y1 2.436970 1_555
O6 Y0 2.436977 1_555
O7 Y0 2.436833 1_545
O7 Y1 2.436840 1_455
O8 Y1 2.436772 1_455
O8 Y0 2.436988 1_555
O9 Y0 2.436758 1_545
O9 Y1 2.436981 1_555
