# generated using pymatgen
data_LaSi5
_symmetry_space_group_name_H-M   'P 1'
_cell_length_a   7.80285550
_cell_length_b   7.80285550
_cell_length_c   8.43458765
_cell_angle_alpha   72.19401658
_cell_angle_beta   72.19401658
_cell_angle_gamma   29.62230928
_symmetry_Int_Tables_number   1
_chemical_formula_structural   LaSi5
_chemical_formula_sum   'La2 Si10'
_cell_volume   240.79858025
_cell_formula_units_Z   2
loop_
 _symmetry_equiv_pos_site_id
 _symmetry_equiv_pos_as_xyz
  1  'x, y, z'
loop_
 _atom_site_type_symbol
 _atom_site_label
 _atom_site_symmetry_multiplicity
 _atom_site_fract_x
 _atom_site_fract_y
 _atom_site_fract_z
 _atom_site_occupancy
  La  La0  1  0.43330700  0.43330700  0.27159000  1
  La  La1  1  0.56669300  0.56669300  0.72841000  1
  Si  Si0  1  0.23085100  0.23085100  0.58443500  1
  Si  Si1  1  0.76914900  0.76914900  0.41556500  1
  Si  Si2  1  0.92579400  0.92579400  0.97746900  1
  Si  Si3  1  0.07420600  0.07420600  0.02253100  1
  Si  Si4  1  0.93821800  0.93821800  0.62536500  1
  Si  Si5  1  0.06178200  0.06178200  0.37463500  1
  Si  Si6  1  0.34991300  0.34991300  0.70847500  1
  Si  Si7  1  0.65008700  0.65008700  0.29152500  1
  Si  Si8  1  0.32481000  0.32481000  0.00283500  1
  Si  Si9  1  0.67519000  0.67519000  0.99716500  1
loop_
_geom_bond_atom_site_label_1
_geom_bond_atom_site_label_2
_geom_bond_distance
_geom_bond_site_symmetry_2
La0 Si5 3.091438 1_655
La0 Si5 3.091438 1_565
La0 Si1 3.112032 1_545
La0 Si1 3.112032 1_455
La0 Si3 3.175786 1_655
La0 Si3 3.175786 1_565
La0 Si8 3.188325 1_555
La0 Si2 3.213064 1_544
La0 Si2 3.213064 1_454
La0 Si7 3.327611 1_555
La0 Si0 3.345738 1_555
La0 Si6 3.496978 1_555
La1 Si4 3.091438 1_545
La1 Si4 3.091438 1_455
La1 Si0 3.112032 1_655
La1 Si0 3.112032 1_565
La1 Si2 3.175786 1_545
La1 Si2 3.175786 1_455
La1 Si9 3.188325 1_555
La1 Si3 3.213064 1_656
La1 Si3 3.213064 1_566
La1 Si6 3.327611 1_555
La1 Si1 3.345738 1_555
La1 Si7 3.496978 1_555
Si0 Si6 2.347385 1_555
Si0 Si1 2.412617 1_455
Si0 Si1 2.412617 1_545
Si1 Si7 2.347385 1_555
Si2 Si3 2.386733 1_666
Si2 Si8 2.477810 1_566
Si2 Si8 2.477810 1_656
Si3 Si9 2.477810 1_544
Si3 Si9 2.477810 1_454
Si4 Si5 2.335318 1_665
Si4 Si6 2.377872 1_655
Si4 Si6 2.377872 1_565
Si5 Si7 2.377872 1_455
Si5 Si7 2.377872 1_545
Si6 Si8 2.390168 1_556
Si7 Si9 2.390168 1_554
