# generated using pymatgen
data_LiEuP
_symmetry_space_group_name_H-M   'P 1'
_cell_length_a   4.32273517
_cell_length_b   7.26016012
_cell_length_c   7.78911252
_cell_angle_alpha   90.00000000
_cell_angle_beta   90.00000000
_cell_angle_gamma   90.00000000
_symmetry_Int_Tables_number   1
_chemical_formula_structural   LiEuP
_chemical_formula_sum   'Li4 Eu4 P4'
_cell_volume   244.45155608
_cell_formula_units_Z   4
loop_
 _symmetry_equiv_pos_site_id
 _symmetry_equiv_pos_as_xyz
  1  'x, y, z'
loop_
 _atom_site_type_symbol
 _atom_site_label
 _atom_site_symmetry_multiplicity
 _atom_site_fract_x
 _atom_site_fract_y
 _atom_site_fract_z
 _atom_site_occupancy
  Li  Li0  1  0.25000000  0.65202798  0.56954246  1
  Li  Li1  1  0.75000000  0.34797202  0.43045754  1
  Li  Li2  1  0.75000000  0.84797202  0.06954246  1
  Li  Li3  1  0.25000000  0.15202798  0.93045754  1
  Eu  Eu0  1  0.25000000  0.51078140  0.20090224  1
  Eu  Eu1  1  0.75000000  0.48921860  0.79909776  1
  Eu  Eu2  1  0.75000000  0.98921860  0.70090224  1
  Eu  Eu3  1  0.25000000  0.01078140  0.29909776  1
  P  P0  1  0.25000000  0.77527922  0.90310140  1
  P  P1  1  0.75000000  0.22472078  0.09689860  1
  P  P2  1  0.75000000  0.72472078  0.40310140  1
  P  P3  1  0.25000000  0.27527922  0.59689860  1
loop_
_geom_bond_atom_site_label_1
_geom_bond_atom_site_label_2
_geom_bond_distance
_geom_bond_site_symmetry_2
Li0 P2 2.575028 1_455
Li0 P2 2.575028 1_555
Li0 P3 2.743543 1_555
Li0 P0 2.747905 1_555
Li1 P3 2.575028 1_555
Li1 P3 2.575028 1_655
Li1 P2 2.743543 1_555
Li1 P1 2.747905 1_555
Li2 P0 2.575028 1_654
Li2 P0 2.575028 1_554
Li2 P1 2.743543 1_565
Li2 P2 2.747905 1_555
Li3 P1 2.575028 1_556
Li3 P1 2.575028 1_456
Li3 P0 2.743543 1_545
Li3 P3 2.747905 1_555
Eu0 P0 3.011329 1_554
Eu0 Li1 3.043969 1_455
Eu0 Li1 3.043969 1_555
Eu0 Li0 3.049003 1_555
Eu0 P2 3.092656 1_455
Eu0 P2 3.092656 1_555
Eu0 P1 3.105005 1_555
Eu0 P1 3.105005 1_455
Eu1 P1 3.011329 1_556
Eu1 Li0 3.043969 1_555
Eu1 Li0 3.043969 1_655
Eu1 Li1 3.049003 1_555
Eu1 P3 3.092656 1_555
Eu1 P3 3.092656 1_655
Eu1 P0 3.105005 1_555
Eu1 P0 3.105005 1_655
Eu2 P2 3.011329 1_555
Eu2 Li3 3.043969 1_565
Eu2 Li3 3.043969 1_665
Eu2 Li2 3.049003 1_556
Eu2 P0 3.092656 1_555
Eu2 P0 3.092656 1_655
Eu2 P3 3.105005 1_565
Eu2 P3 3.105005 1_665
Eu3 P3 3.011329 1_555
Eu3 Li2 3.043969 1_445
Eu3 Li2 3.043969 1_545
Eu3 Li3 3.049003 1_554
Eu3 P1 3.092656 1_555
Eu3 P1 3.092656 1_455
Eu3 P2 3.105005 1_545
Eu3 P2 3.105005 1_445
