# generated using pymatgen
data_YbMn3
_symmetry_space_group_name_H-M   'P 1'
_cell_length_a   4.07988773
_cell_length_b   4.07988773
_cell_length_c   4.07988773
_cell_angle_alpha   90.00000000
_cell_angle_beta   90.00000000
_cell_angle_gamma   90.00000000
_symmetry_Int_Tables_number   1
_chemical_formula_structural   YbMn3
_chemical_formula_sum   'Yb1 Mn3'
_cell_volume   67.91170542
_cell_formula_units_Z   1
loop_
 _symmetry_equiv_pos_site_id
 _symmetry_equiv_pos_as_xyz
  1  'x, y, z'
loop_
 _atom_site_type_symbol
 _atom_site_label
 _atom_site_symmetry_multiplicity
 _atom_site_fract_x
 _atom_site_fract_y
 _atom_site_fract_z
 _atom_site_occupancy
  Yb  Yb0  1  0.00000000  0.00000000  0.00000000  1
  Mn  Mn0  1  0.00000000  0.50000000  0.50000000  1
  Mn  Mn1  1  0.50000000  0.00000000  0.50000000  1
  Mn  Mn2  1  0.50000000  0.50000000  0.00000000  1
loop_
_geom_bond_atom_site_label_1
_geom_bond_atom_site_label_2
_geom_bond_distance
_geom_bond_site_symmetry_2
Mn0 Mn2 2.884916 1_456
Mn0 Yb0 2.884916 1_566
Mn0 Mn2 2.884916 1_455
Mn0 Mn1 2.884916 1_555
Mn0 Yb0 2.884916 1_565
Mn0 Yb0 2.884916 1_556
Mn0 Mn2 2.884916 1_556
Mn0 Mn2 2.884916 1_555
Mn0 Mn1 2.884916 1_465
Mn0 Mn1 2.884916 1_565
Mn0 Yb0 2.884916 1_555
Mn0 Mn1 2.884916 1_455
Mn1 Yb0 2.884916 1_655
Mn1 Yb0 2.884916 1_656
Mn1 Mn2 2.884916 1_556
Mn1 Mn2 2.884916 1_555
Mn1 Mn2 2.884916 1_545
Mn1 Mn2 2.884916 1_546
Mn1 Yb0 2.884916 1_555
Mn1 Yb0 2.884916 1_556
Mn2 Yb0 2.884916 1_655
Mn2 Yb0 2.884916 1_565
Mn2 Yb0 2.884916 1_665
Mn2 Yb0 2.884916 1_555
