# generated using pymatgen
data_Ta3Bi
_symmetry_space_group_name_H-M   'P 1'
_cell_length_a   4.27822100
_cell_length_b   4.27822100
_cell_length_c   4.27822100
_cell_angle_alpha   90.00000000
_cell_angle_beta   90.00000000
_cell_angle_gamma   90.00000000
_symmetry_Int_Tables_number   1
_chemical_formula_structural   Ta3Bi
_chemical_formula_sum   'Ta3 Bi1'
_cell_volume   78.30502733
_cell_formula_units_Z   1
loop_
 _symmetry_equiv_pos_site_id
 _symmetry_equiv_pos_as_xyz
  1  'x, y, z'
loop_
 _atom_site_type_symbol
 _atom_site_label
 _atom_site_symmetry_multiplicity
 _atom_site_fract_x
 _atom_site_fract_y
 _atom_site_fract_z
 _atom_site_occupancy
  Ta  Ta0  1  0.00000000  0.50000000  0.50000000  1
  Ta  Ta1  1  0.50000000  0.00000000  0.50000000  1
  Ta  Ta2  1  0.50000000  0.50000000  0.00000000  1
  Bi  Bi0  1  0.00000000  0.00000000  0.00000000  1
loop_
_geom_bond_atom_site_label_1
_geom_bond_atom_site_label_2
_geom_bond_distance
_geom_bond_site_symmetry_2
Ta0 Ta1 3.025159 1_455
Ta0 Ta2 3.025159 1_456
Ta0 Ta2 3.025159 1_455
Ta0 Ta1 3.025159 1_555
Ta0 Ta2 3.025159 1_555
Ta0 Ta2 3.025159 1_556
Ta0 Ta1 3.025159 1_465
Ta0 Ta1 3.025159 1_565
Ta1 Ta2 3.025159 1_555
Ta1 Ta2 3.025159 1_556
Ta1 Ta2 3.025159 1_545
Ta1 Ta2 3.025159 1_546
Bi0 Ta1 3.025159 1_455
Bi0 Ta1 3.025159 1_454
Bi0 Ta1 3.025159 1_555
Bi0 Ta2 3.025159 1_455
Bi0 Ta2 3.025159 1_555
Bi0 Ta2 3.025159 1_545
Bi0 Ta0 3.025159 1_544
Bi0 Ta2 3.025159 1_445
Bi0 Ta0 3.025159 1_545
Bi0 Ta0 3.025159 1_555
Bi0 Ta0 3.025159 1_554
Bi0 Ta1 3.025159 1_554
