# generated using pymatgen
data_Cs(Bi2Te3)2
_symmetry_space_group_name_H-M   'P 1'
_cell_length_a   4.43111645
_cell_length_b   14.74834275
_cell_length_c   26.20172244
_cell_angle_alpha   100.95619324
_cell_angle_beta   94.73635321
_cell_angle_gamma   89.96085392
_symmetry_Int_Tables_number   1
_chemical_formula_structural   Cs(Bi2Te3)2
_chemical_formula_sum   'Cs4 Bi16 Te24'
_cell_volume   1675.17636216
_cell_formula_units_Z   4
loop_
 _symmetry_equiv_pos_site_id
 _symmetry_equiv_pos_as_xyz
  1  'x, y, z'
loop_
 _atom_site_type_symbol
 _atom_site_label
 _atom_site_symmetry_multiplicity
 _atom_site_fract_x
 _atom_site_fract_y
 _atom_site_fract_z
 _atom_site_occupancy
  Cs  Cs0  1  0.68738125  0.51287104  0.37418170  1
  Cs  Cs1  1  0.05775368  0.51103520  0.10939581  1
  Cs  Cs2  1  0.94709932  0.48806734  0.89151200  1
  Cs  Cs3  1  0.31400313  0.48649314  0.62661075  1
  Bi  Bi0  1  0.16130313  0.08997770  0.32703012  1
  Bi  Bi1  1  0.71166825  0.91160101  0.42582087  1
  Bi  Bi2  1  0.41256287  0.05948618  0.82160954  1
  Bi  Bi3  1  0.96046041  0.86212168  0.91966641  1
  Bi  Bi4  1  0.86810959  0.24582934  0.72785795  1
  Bi  Bi5  1  0.59051828  0.93990969  0.17933394  1
  Bi  Bi6  1  0.01706367  0.79376210  0.03093872  1
  Bi  Bi7  1  0.83967646  0.90908405  0.67357839  1
  Bi  Bi8  1  0.13286849  0.75298892  0.27298702  1
  Bi  Bi9  1  0.26179618  0.74466567  0.52961172  1
  Bi  Bi10  1  0.04455844  0.13694042  0.08125889  1
  Bi  Bi11  1  0.98698524  0.20528241  0.96999340  1
  Bi  Bi12  1  0.73831359  0.25485656  0.47109110  1
  Bi  Bi13  1  0.61864724  0.27489709  0.23042097  1
  Bi  Bi14  1  0.38473529  0.72432739  0.77054798  1
  Bi  Bi15  1  0.28711565  0.08742017  0.57479128  1
  Te  Te0  1  0.32537497  0.76183302  0.64887479  1
  Te  Te1  1  0.53957682  0.96516568  0.06782276  1
  Te  Te2  1  0.24049149  0.39373326  0.47920410  1
  Te  Te3  1  0.89707431  0.89934284  0.78971642  1
  Te  Te4  1  0.08094763  0.79092950  0.16212538  1
  Te  Te5  1  0.87677389  0.58466885  0.75298031  1
  Te  Te6  1  0.19936662  0.76076217  0.40575908  1
  Te  Te7  1  0.67563148  0.23734390  0.35170701  1
  Te  Te8  1  0.75927997  0.60602352  0.52124146  1
  Te  Te9  1  0.10513772  0.09999851  0.21094733  1
  Te  Te10  1  0.56418322  0.27753646  0.11642140  1
  Te  Te11  1  0.34718507  0.07023123  0.69183181  1
  Te  Te12  1  0.92129463  0.20874035  0.83874702  1
  Te  Te13  1  0.44142755  0.72131987  0.88460007  1
  Te  Te14  1  0.37928111  0.38348337  0.75384240  1
  Te  Te15  1  0.77591642  0.92462606  0.55021747  1
  Te  Te16  1  0.65409871  0.92845643  0.30885137  1
  Te  Te17  1  0.62158985  0.61529435  0.24677519  1
  Te  Te18  1  0.46697018  0.03409008  0.93310893  1
  Te  Te19  1  0.51139611  0.65096979  0.01644711  1
  Te  Te20  1  0.12601286  0.41444184  0.24782496  1
  Te  Te21  1  0.22230074  0.07443616  0.45031734  1
  Te  Te22  1  0.79913969  0.23825129  0.59480520  1
  Te  Te23  1  0.49365380  0.34813337  0.98425254  1
loop_
_geom_bond_atom_site_label_1
_geom_bond_atom_site_label_2
_geom_bond_distance
_geom_bond_site_symmetry_2
Cs0 Te8 3.823857 1_555
Cs0 Te17 3.907220 1_555
Cs0 Te7 3.993458 1_555
Cs0 Te20 4.009254 1_555
Cs0 Te20 4.009752 1_655
Cs0 Te2 4.162136 1_555
Cs0 Te2 4.169498 1_655
Cs0 Te6 4.212976 1_655
Cs0 Te6 4.226324 1_555
Cs1 Te4 4.094976 1_555
Cs1 Te19 4.117752 1_555
Cs1 Te19 4.120884 1_455
Cs1 Te10 4.122390 1_455
Cs1 Te20 4.130256 1_555
Cs1 Te10 4.134130 1_555
Cs1 Te17 4.240238 1_555
Cs1 Te17 4.254118 1_455
Cs1 Te23 4.277810 1_554
Cs1 Te23 4.293245 1_454
Cs2 Te12 4.087205 1_555
Cs2 Te23 4.113314 1_555
Cs2 Te23 4.117873 1_655
Cs2 Te13 4.120388 1_655
Cs2 Te13 4.128798 1_555
Cs2 Te5 4.132851 1_555
Cs2 Te14 4.252072 1_655
Cs2 Te14 4.255943 1_555
Cs2 Te19 4.273565 1_556
Cs2 Te19 4.290382 1_656
Cs3 Te2 3.831379 1_555
Cs3 Te14 3.907747 1_555
Cs3 Te0 3.990985 1_555
Cs3 Te5 4.005824 1_455
Cs3 Te5 4.012162 1_555
Cs3 Te8 4.168629 1_555
Cs3 Te8 4.182757 1_455
Cs3 Te22 4.223873 1_455
Cs3 Te22 4.224344 1_555
Bi0 Te9 3.062798 1_555
Bi0 Te7 3.076099 1_455
Bi0 Te7 3.092745 1_555
Bi0 Te16 3.217455 1_445
Bi0 Te16 3.225403 1_545
Bi0 Te21 3.270757 1_555
Bi1 Te6 3.103532 1_655
Bi1 Te16 3.111316 1_555
Bi1 Te6 3.121508 1_555
Bi1 Te15 3.217221 1_555
Bi1 Te21 3.237400 1_665
Bi1 Te21 3.243203 1_565
Bi2 Te18 3.005484 1_555
Bi2 Te12 3.092740 1_455
Bi2 Te12 3.097205 1_555
Bi2 Te3 3.228786 1_545
Bi2 Te3 3.230494 1_445
Bi2 Te11 3.422550 1_555
Bi3 Te13 3.048050 1_655
Bi3 Te13 3.062394 1_555
Bi3 Bi6 3.252055 1_656
Bi3 Te18 3.334423 1_565
Bi3 Te18 3.336410 1_665
Bi3 Te3 3.539211 1_555
Bi4 Te14 2.990290 1_655
Bi4 Te14 2.998175 1_555
Bi4 Te12 3.047533 1_555
Bi4 Te11 3.390961 1_655
Bi4 Te11 3.412514 1_555
Bi4 Te22 3.454787 1_555
Bi5 Te1 3.005193 1_555
Bi5 Te4 3.087447 1_655
Bi5 Te4 3.097018 1_555
Bi5 Te9 3.226860 1_665
Bi5 Te9 3.229608 1_565
Bi5 Te16 3.418220 1_555
Bi6 Te19 3.026847 1_455
Bi6 Te19 3.033866 1_555
Bi6 Te1 3.347041 1_455
Bi6 Te1 3.375630 1_555
Bi6 Te4 3.433788 1_555
Bi7 Te3 3.063265 1_555
Bi7 Te0 3.075147 1_655
Bi7 Te0 3.091543 1_555
Bi7 Te11 3.214354 1_665
Bi7 Te11 3.220684 1_565
Bi7 Te15 3.272714 1_555
Bi8 Te17 2.991242 1_455
Bi8 Te17 2.999149 1_555
Bi8 Te4 3.051394 1_555
Bi8 Te16 3.387932 1_455
Bi8 Te16 3.411717 1_555
Bi8 Te6 3.446966 1_555
Bi9 Te8 2.990386 1_455
Bi9 Te8 2.998617 1_555
Bi9 Te0 3.076106 1_555
Bi9 Te6 3.287612 1_555
Bi9 Te15 3.407442 1_455
Bi9 Te15 3.433095 1_555
Bi10 Te10 3.044841 1_455
Bi10 Te10 3.062692 1_555
Bi10 Bi11 3.251776 1_454
Bi10 Te1 3.329813 1_445
Bi10 Te1 3.336810 1_545
Bi10 Te9 3.531093 1_555
Bi11 Te23 3.030886 1_555
Bi11 Te23 3.031089 1_655
Bi11 Te18 3.352134 1_655
Bi11 Te18 3.366136 1_555
Bi11 Te12 3.437233 1_555
Bi12 Te2 2.992404 1_655
Bi12 Te2 3.002017 1_555
Bi12 Te7 3.078666 1_555
Bi12 Te22 3.285951 1_555
Bi12 Te21 3.407408 1_655
Bi12 Te21 3.443407 1_555
Bi13 Te10 2.984456 1_555
Bi13 Te20 2.996364 1_655
Bi13 Te20 3.001697 1_555
Bi13 Te7 3.317514 1_555
Bi13 Te9 3.351830 1_655
Bi13 Te9 3.377502 1_555
Bi14 Te13 2.986934 1_555
Bi14 Te5 2.999248 1_455
Bi14 Te5 3.001201 1_555
Bi14 Te0 3.327227 1_555
Bi14 Te3 3.356042 1_455
Bi14 Te3 3.375748 1_555
Bi15 Te22 3.104214 1_455
Bi15 Te11 3.114508 1_555
Bi15 Te22 3.120586 1_555
Bi15 Te21 3.219329 1_555
Bi15 Te15 3.238689 1_445
Bi15 Te15 3.241288 1_545
