# generated using pymatgen
data_ErAg(PSe3)2
_symmetry_space_group_name_H-M   'P 1'
_cell_length_a   6.65356498
_cell_length_b   6.65356498
_cell_length_c   15.23170800
_cell_angle_alpha   90.00000000
_cell_angle_beta   90.00000000
_cell_angle_gamma   119.99998982
_symmetry_Int_Tables_number   1
_chemical_formula_structural   ErAg(PSe3)2
_chemical_formula_sum   'Er2 Ag2 P4 Se12'
_cell_volume   583.96670515
_cell_formula_units_Z   2
loop_
 _symmetry_equiv_pos_site_id
 _symmetry_equiv_pos_as_xyz
  1  'x, y, z'
loop_
 _atom_site_type_symbol
 _atom_site_label
 _atom_site_symmetry_multiplicity
 _atom_site_fract_x
 _atom_site_fract_y
 _atom_site_fract_z
 _atom_site_occupancy
  Er  Er0  1  0.00000000  0.00000000  0.75000000  1
  Er  Er1  1  0.00000000  0.00000000  0.25000000  1
  Ag  Ag0  1  0.33333300  0.66666700  0.75000000  1
  Ag  Ag1  1  0.66666700  0.33333300  0.25000000  1
  P  P0  1  0.66666700  0.33333300  0.67532800  1
  P  P1  1  0.66666700  0.33333300  0.82467200  1
  P  P2  1  0.33333300  0.66666700  0.32467200  1
  P  P3  1  0.33333300  0.66666700  0.17532800  1
  Se  Se0  1  0.02213100  0.34378500  0.13156500  1
  Se  Se1  1  0.65621500  0.67834700  0.13156500  1
  Se  Se2  1  0.32165300  0.97786900  0.13156500  1
  Se  Se3  1  0.65621500  0.97786900  0.36843500  1
  Se  Se4  1  0.32165300  0.34378500  0.36843500  1
  Se  Se5  1  0.02213100  0.67834700  0.36843500  1
  Se  Se6  1  0.97786900  0.65621500  0.86843500  1
  Se  Se7  1  0.34378500  0.32165300  0.86843500  1
  Se  Se8  1  0.67834700  0.02213100  0.86843500  1
  Se  Se9  1  0.34378500  0.02213100  0.63156500  1
  Se  Se10  1  0.67834700  0.65621500  0.63156500  1
  Se  Se11  1  0.97786900  0.32165300  0.63156500  1
loop_
_geom_bond_atom_site_label_1
_geom_bond_atom_site_label_2
_geom_bond_distance
_geom_bond_site_symmetry_2
Er0 Se8 2.858551 1_455
Er0 Se11 2.858551 1_455
Er0 Se7 2.858554 1_555
Er0 Se10 2.858554 1_445
Er0 Se6 2.858556 1_445
Er0 Se9 2.858556 1_555
Er1 Se5 2.858551 1_545
Er1 Se2 2.858551 1_545
Er1 Se4 2.858554 1_555
Er1 Se1 2.858554 1_445
Er1 Se3 2.858556 1_445
Er1 Se0 2.858556 1_555
Ag0 Se6 2.947604 1_455
Ag0 Se9 2.947604 1_565
Ag0 Se8 2.947609 1_565
Ag0 Se11 2.947609 1_455
Ag0 Se10 2.947614 1_555
Ag0 Se7 2.947614 1_555
Ag1 Se3 2.947604 1_545
Ag1 Se0 2.947604 1_655
Ag1 Se5 2.947609 1_655
Ag1 Se2 2.947609 1_545
Ag1 Se1 2.947614 1_555
Ag1 Se4 2.947614 1_555
P0 Se11 2.213297 1_555
P0 Se10 2.213297 1_555
P0 Se9 2.213298 1_555
P0 P1 2.274764 1_555
P1 Se8 2.213297 1_555
P1 Se7 2.213297 1_555
P1 Se6 2.213298 1_555
P2 Se5 2.213297 1_555
P2 Se4 2.213297 1_555
P2 Se3 2.213298 1_555
P2 P3 2.274764 1_555
P3 Se2 2.213297 1_555
P3 Se1 2.213297 1_555
P3 Se0 2.213298 1_555
