# generated using pymatgen
data_Ca(GaP)2
_symmetry_space_group_name_H-M   'P 1'
_cell_length_a   3.84094053
_cell_length_b   3.84094053
_cell_length_c   16.40002148
_cell_angle_alpha   90.00000000
_cell_angle_beta   90.00000000
_cell_angle_gamma   120.00001185
_symmetry_Int_Tables_number   1
_chemical_formula_structural   Ca(GaP)2
_chemical_formula_sum   'Ca2 Ga4 P4'
_cell_volume   209.53190531
_cell_formula_units_Z   2
loop_
 _symmetry_equiv_pos_site_id
 _symmetry_equiv_pos_as_xyz
  1  'x, y, z'
loop_
 _atom_site_type_symbol
 _atom_site_label
 _atom_site_symmetry_multiplicity
 _atom_site_fract_x
 _atom_site_fract_y
 _atom_site_fract_z
 _atom_site_occupancy
  Ca  Ca0  1  -0.00000000  -0.00000000  0.50000000  1
  Ca  Ca1  1  -0.00000000  -0.00000000  -0.00000000  1
  Ga  Ga0  1  0.33333300  0.66666700  0.32453344  1
  Ga  Ga1  1  0.66666700  0.33333300  0.67546656  1
  Ga  Ga2  1  0.66666700  0.33333300  0.82453344  1
  Ga  Ga3  1  0.33333300  0.66666700  0.17546656  1
  P  P0  1  0.33333300  0.66666700  0.88452144  1
  P  P1  1  0.66666700  0.33333300  0.11547856  1
  P  P2  1  0.66666700  0.33333300  0.38452144  1
  P  P3  1  0.33333300  0.66666700  0.61547856  1
loop_
_geom_bond_atom_site_label_1
_geom_bond_atom_site_label_2
_geom_bond_distance
_geom_bond_site_symmetry_2
Ca0 P3 2.916208 1_545
Ca0 P2 2.916208 1_455
Ca0 P2 2.916210 1_445
Ca0 P3 2.916210 1_445
Ca0 P2 2.916210 1_555
Ca0 P3 2.916210 1_555
Ca1 P1 2.916208 1_455
Ca1 P0 2.916208 1_544
Ca1 P1 2.916210 1_555
Ca1 P0 2.916210 1_554
Ca1 P1 2.916210 1_445
Ca1 P0 2.916210 1_444
Ga0 P2 2.425998 1_455
Ga0 P2 2.425998 1_565
Ga0 P2 2.426005 1_555
Ga0 Ga3 2.444700 1_555
Ga1 P3 2.425998 1_545
Ga1 P3 2.425998 1_655
Ga1 P3 2.426005 1_555
Ga1 Ga2 2.444700 1_555
Ga2 P0 2.425998 1_545
Ga2 P0 2.425998 1_655
Ga2 P0 2.426005 1_555
Ga3 P1 2.425998 1_455
Ga3 P1 2.425998 1_565
Ga3 P1 2.426005 1_555
