# generated using pymatgen
data_MgSi2
_symmetry_space_group_name_H-M   'P 1'
_cell_length_a   5.31465369
_cell_length_b   5.31465369
_cell_length_c   10.15514724
_cell_angle_alpha   80.30974901
_cell_angle_beta   80.30974901
_cell_angle_gamma   49.79430596
_symmetry_Int_Tables_number   1
_chemical_formula_structural   MgSi2
_chemical_formula_sum   'Mg4 Si8'
_cell_volume   215.26220565
_cell_formula_units_Z   4
loop_
 _symmetry_equiv_pos_site_id
 _symmetry_equiv_pos_as_xyz
  1  'x, y, z'
loop_
 _atom_site_type_symbol
 _atom_site_label
 _atom_site_symmetry_multiplicity
 _atom_site_fract_x
 _atom_site_fract_y
 _atom_site_fract_z
 _atom_site_occupancy
  Mg  Mg0  1  0.55336600  0.55336600  0.64551900  1
  Mg  Mg1  1  0.89197000  0.89197000  0.85756200  1
  Mg  Mg2  1  0.10803000  0.10803000  0.14243800  1
  Mg  Mg3  1  0.44663400  0.44663400  0.35448100  1
  Si  Si0  1  0.58869500  0.58869500  0.90371200  1
  Si  Si1  1  0.87579600  0.87579600  0.57032500  1
  Si  Si2  1  0.12420400  0.12420400  0.42967500  1
  Si  Si3  1  0.80992200  0.80992200  0.14300800  1
  Si  Si4  1  0.25916100  0.25916100  0.61755900  1
  Si  Si5  1  0.19007800  0.19007800  0.85699200  1
  Si  Si6  1  0.41130500  0.41130500  0.09628800  1
  Si  Si7  1  0.74083900  0.74083900  0.38244100  1
loop_
_geom_bond_atom_site_label_1
_geom_bond_atom_site_label_2
_geom_bond_distance
_geom_bond_site_symmetry_2
Mg0 Si0 2.705977 1_555
Mg0 Si4 2.902699 1_555
Mg0 Si7 2.934680 1_555
Mg0 Si4 2.968922 1_655
Mg0 Si4 2.968922 1_565
Mg0 Si1 3.000900 1_455
Mg0 Si1 3.000900 1_545
Mg0 Si1 3.060409 1_555
Mg0 Si2 3.117925 1_655
Mg0 Si2 3.117925 1_565
Mg1 Si3 2.859627 1_556
Mg1 Si5 2.873131 1_665
Mg1 Si0 2.874183 1_555
Mg1 Si1 2.949854 1_555
Mg1 Si5 2.966356 1_655
Mg1 Si5 2.966356 1_565
Mg1 Si0 3.025416 1_655
Mg1 Si0 3.025416 1_565
Mg2 Si5 2.859627 1_554
Mg2 Si3 2.873131 1_445
Mg2 Si6 2.874183 1_555
Mg2 Si2 2.949854 1_555
Mg2 Si3 2.966356 1_545
Mg2 Si3 2.966356 1_455
Mg2 Si6 3.025416 1_545
Mg2 Si6 3.025416 1_455
Mg3 Si6 2.705977 1_555
Mg3 Si7 2.902699 1_555
Mg3 Si4 2.934680 1_555
Mg3 Si7 2.968922 1_455
Mg3 Si7 2.968922 1_545
Mg3 Si2 3.000900 1_565
Mg3 Si2 3.000900 1_655
Mg3 Si2 3.060409 1_555
Mg3 Si1 3.117925 1_455
Mg3 Si1 3.117925 1_545
Si0 Si6 2.346977 1_556
Si0 Si5 2.452448 1_655
Si0 Si5 2.452448 1_565
Si1 Si7 2.500980 1_555
Si1 Si4 2.510082 1_655
Si1 Si4 2.510082 1_565
Si1 Si2 2.550807 1_665
Si2 Si4 2.500980 1_555
Si2 Si7 2.510082 1_455
Si2 Si7 2.510082 1_545
Si3 Si7 2.398888 1_555
Si3 Si6 2.452448 1_565
Si3 Si6 2.452448 1_655
Si4 Si5 2.398888 1_555
