# generated using pymatgen
data_YAlZn
_symmetry_space_group_name_H-M   'P 1'
_cell_length_a   4.44418474
_cell_length_b   4.44418474
_cell_length_c   7.23836956
_cell_angle_alpha   90.00000000
_cell_angle_beta   90.00000000
_cell_angle_gamma   119.99999141
_symmetry_Int_Tables_number   1
_chemical_formula_structural   YAlZn
_chemical_formula_sum   'Y2 Al2 Zn2'
_cell_volume   123.80997332
_cell_formula_units_Z   2
loop_
 _symmetry_equiv_pos_site_id
 _symmetry_equiv_pos_as_xyz
  1  'x, y, z'
loop_
 _atom_site_type_symbol
 _atom_site_label
 _atom_site_symmetry_multiplicity
 _atom_site_fract_x
 _atom_site_fract_y
 _atom_site_fract_z
 _atom_site_occupancy
  Y  Y0  1  -0.00000000  -0.00000000  0.50000000  1
  Y  Y1  1  -0.00000000  -0.00000000  0.00000000  1
  Al  Al0  1  0.33333300  0.66666700  0.25000000  1
  Al  Al1  1  0.66666700  0.33333300  0.75000000  1
  Zn  Zn0  1  0.33333300  0.66666700  0.75000000  1
  Zn  Zn1  1  0.66666700  0.33333300  0.25000000  1
loop_
_geom_bond_atom_site_label_1
_geom_bond_atom_site_label_2
_geom_bond_distance
_geom_bond_site_symmetry_2
Y0 Zn1 3.139778 1_455
Y0 Zn0 3.139778 1_545
Y0 Zn0 3.139781 1_555
Y0 Zn1 3.139781 1_445
Y0 Zn1 3.139781 1_555
Y0 Zn0 3.139781 1_445
Y1 Zn1 3.139778 1_455
Y1 Zn0 3.139778 1_544
Y1 Zn0 3.139781 1_554
Y1 Zn1 3.139781 1_445
Y1 Zn1 3.139781 1_555
Y1 Zn0 3.139781 1_444
Al0 Zn1 2.565849 1_455
Al0 Zn1 2.565849 1_565
Al0 Zn1 2.565856 1_555
Al0 Y0 3.139778 1_565
Al0 Y1 3.139778 1_565
Al0 Y0 3.139781 1_555
Al0 Y0 3.139781 1_665
Al0 Y1 3.139781 1_665
Al0 Y1 3.139781 1_555
Al1 Zn0 2.565849 1_545
Al1 Zn0 2.565849 1_655
Al1 Zn0 2.565856 1_555
Al1 Y1 3.139778 1_656
Al1 Y0 3.139778 1_655
Al1 Y0 3.139781 1_555
Al1 Y1 3.139781 1_666
Al1 Y0 3.139781 1_665
Al1 Y1 3.139781 1_556
