# generated using pymatgen
data_Pr4(CoB2)3
_symmetry_space_group_name_H-M   'P 1'
_cell_length_a   5.38091244
_cell_length_b   5.38091200
_cell_length_c   8.27315298
_cell_angle_alpha   71.02211245
_cell_angle_beta   71.02210979
_cell_angle_gamma   60.00000273
_symmetry_Int_Tables_number   1
_chemical_formula_structural   Pr4(CoB2)3
_chemical_formula_sum   'Pr4 Co3 B6'
_cell_volume   192.26829924
_cell_formula_units_Z   1
loop_
 _symmetry_equiv_pos_site_id
 _symmetry_equiv_pos_as_xyz
  1  'x, y, z'
loop_
 _atom_site_type_symbol
 _atom_site_label
 _atom_site_symmetry_multiplicity
 _atom_site_fract_x
 _atom_site_fract_y
 _atom_site_fract_z
 _atom_site_occupancy
  Pr  Pr0  1  0.74308100  0.74308100  0.77075700  1
  Pr  Pr1  1  0.25691900  0.25691900  0.22924300  1
  Pr  Pr2  1  0.59063300  0.59063300  0.22810000  1
  Pr  Pr3  1  0.40936700  0.40936700  0.77190000  1
  Co  Co0  1  0.00000000  0.00000000  0.00000000  1
  Co  Co1  1  0.88495400  0.88495400  0.34513900  1
  Co  Co2  1  0.11504600  0.11504600  0.65486100  1
  B  B0  1  0.50000000  0.16731300  0.50000000  1
  B  B1  1  0.83268700  0.50000000  0.50000000  1
  B  B2  1  0.16731300  0.83268700  0.50000000  1
  B  B3  1  0.16731300  0.50000000  0.50000000  1
  B  B4  1  0.83268700  0.16731300  0.50000000  1
  B  B5  1  0.50000000  0.83268700  0.50000000  1
loop_
_geom_bond_atom_site_label_1
_geom_bond_atom_site_label_2
_geom_bond_distance
_geom_bond_site_symmetry_2
Pr0 Pr3 3.106680 1_555
Pr0 Pr3 3.106685 1_565
Pr0 Pr3 3.106685 1_655
Pr0 Pr2 3.506770 1_556
Pr1 Pr2 3.106680 1_555
Pr1 Pr2 3.106685 1_545
Pr1 Pr2 3.106685 1_455
Pr1 Pr3 3.506770 1_554
Co0 Co1 2.646423 1_445
Co0 Co2 2.646423 1_554
Co0 Pr2 3.565166 1_455
Co0 Pr3 3.565166 1_544
Co0 Pr3 3.565166 1_454
Co0 Pr2 3.565166 1_545
Co0 Pr3 3.565170 1_554
Co0 Pr2 3.565170 1_445
Co0 Pr1 3.569475 1_545
Co0 Pr1 3.569475 1_555
Co0 Pr0 3.569475 1_454
Co0 Pr0 3.569475 1_444
Co0 Pr0 3.569475 1_544
Co0 Pr1 3.569475 1_455
Co1 Pr1 3.231268 1_665
Co1 Pr1 3.231273 1_655
Co1 Pr1 3.231273 1_565
Co1 Pr2 3.233690 1_565
Co1 Pr2 3.233690 1_655
Co1 Pr2 3.233699 1_555
Co2 Pr0 3.231268 1_445
Co2 Pr0 3.231273 1_455
Co2 Pr0 3.231273 1_545
Co2 Pr3 3.233690 1_545
Co2 Pr3 3.233690 1_455
Co2 Pr3 3.233699 1_555
B0 B4 1.790160 1_555
B0 B3 1.790160 1_555
B0 B5 1.800593 1_545
B0 Co1 2.152527 1_545
B0 Co2 2.152529 1_555
B0 Pr1 2.744724 1_555
B0 Pr0 2.744724 1_545
B0 Pr2 2.747954 1_555
B0 Pr3 2.747958 1_555
B1 B4 1.790159 1_555
B1 B5 1.790160 1_555
B1 B3 1.800593 1_655
B1 Co2 2.152527 1_655
B1 Co1 2.152529 1_555
B1 Pr0 2.744724 1_555
B1 Pr1 2.744724 1_655
B1 Pr3 2.747954 1_555
B1 Pr2 2.747958 1_555
B2 B3 1.790159 1_555
B2 B5 1.790160 1_555
B2 B4 1.800593 1_465
B2 Co2 2.152524 1_565
B2 Co1 2.152524 1_455
B2 Pr1 2.744724 1_565
B2 Pr0 2.744724 1_455
B2 Pr2 2.747956 1_555
B2 Pr3 2.747956 1_555
B3 Co1 2.152527 1_455
B3 Co2 2.152529 1_555
B3 Pr1 2.744724 1_555
B3 Pr0 2.744724 1_455
B3 Pr2 2.747954 1_555
B3 Pr3 2.747958 1_555
B4 Co1 2.152524 1_545
B4 Co2 2.152524 1_655
B4 Pr0 2.744724 1_545
B4 Pr1 2.744724 1_655
B4 Pr3 2.747956 1_555
B4 Pr2 2.747956 1_555
B5 Co2 2.152527 1_565
B5 Co1 2.152529 1_555
B5 Pr0 2.744724 1_555
B5 Pr1 2.744724 1_565
B5 Pr3 2.747954 1_555
B5 Pr2 2.747958 1_555
