# generated using pymatgen
data_CaTm2(GeO3)4
_symmetry_space_group_name_H-M   'P 1'
_cell_length_a   10.05279312
_cell_length_b   10.05279312
_cell_length_c   5.07496700
_cell_angle_alpha   90.00000000
_cell_angle_beta   90.00000000
_cell_angle_gamma   90.17390897
_symmetry_Int_Tables_number   1
_chemical_formula_structural   CaTm2(GeO3)4
_chemical_formula_sum   'Ca2 Tm4 Ge8 O24'
_cell_volume   512.86694899
_cell_formula_units_Z   2
loop_
 _symmetry_equiv_pos_site_id
 _symmetry_equiv_pos_as_xyz
  1  'x, y, z'
loop_
 _atom_site_type_symbol
 _atom_site_label
 _atom_site_symmetry_multiplicity
 _atom_site_fract_x
 _atom_site_fract_y
 _atom_site_fract_z
 _atom_site_occupancy
  Ca  Ca0  1  0.50000000  0.50000000  0.50000000  1
  Ca  Ca1  1  0.00000000  0.00000000  0.50000000  1
  Tm  Tm0  1  0.00000000  0.50000000  0.50000000  1
  Tm  Tm1  1  0.50000000  0.00000000  0.50000000  1
  Tm  Tm2  1  0.75000000  0.75000000  0.50000000  1
  Tm  Tm3  1  0.25000000  0.25000000  0.50000000  1
  Ge  Ge0  1  0.74964700  0.01943100  0.99702700  1
  Ge  Ge1  1  0.25035300  0.98056900  0.00297300  1
  Ge  Ge2  1  0.24964700  0.51943100  0.00297300  1
  Ge  Ge3  1  0.75035300  0.48056900  0.99702700  1
  Ge  Ge4  1  0.01943100  0.74964700  0.00297300  1
  Ge  Ge5  1  0.98056900  0.25035300  0.99702700  1
  Ge  Ge6  1  0.51943100  0.24964700  0.99702700  1
  Ge  Ge7  1  0.48056900  0.75035300  0.00297300  1
  O  O0  1  0.57152900  0.67717800  0.25349500  1
  O  O1  1  0.05869000  0.32899700  0.26257300  1
  O  O2  1  0.44131000  0.17100300  0.26257300  1
  O  O3  1  0.92847100  0.82282200  0.25349500  1
  O  O4  1  0.42847100  0.32282200  0.74650500  1
  O  O5  1  0.94131000  0.67100300  0.73742700  1
  O  O6  1  0.55869000  0.82899700  0.73742700  1
  O  O7  1  0.07152900  0.17717800  0.74650500  1
  O  O8  1  0.67717800  0.57152900  0.74650500  1
  O  O9  1  0.32899700  0.05869000  0.73742700  1
  O  O10  1  0.17100300  0.44131000  0.73742700  1
  O  O11  1  0.82282200  0.92847100  0.74650500  1
  O  O12  1  0.32282200  0.42847100  0.25349500  1
  O  O13  1  0.67100300  0.94131000  0.26257300  1
  O  O14  1  0.82899700  0.55869000  0.26257300  1
  O  O15  1  0.17717800  0.07152900  0.25349500  1
  O  O16  1  0.87029100  0.12970900  0.15126500  1
  O  O17  1  0.37744400  0.87744400  0.16875900  1
  O  O18  1  0.12255600  0.62255600  0.16875900  1
  O  O19  1  0.62970900  0.37029100  0.15126500  1
  O  O20  1  0.12970900  0.87029100  0.84873500  1
  O  O21  1  0.62255600  0.12255600  0.83124100  1
  O  O22  1  0.87744400  0.37744400  0.83124100  1
  O  O23  1  0.37029100  0.62970900  0.84873500  1
loop_
_geom_bond_atom_site_label_1
_geom_bond_atom_site_label_2
_geom_bond_distance
_geom_bond_site_symmetry_2
Ca0 O0 2.290575 1_555
Ca0 O8 2.290575 1_555
Ca0 O12 2.290575 1_555
Ca0 O4 2.290575 1_555
Ca0 O23 2.557946 1_555
Ca0 O19 2.557946 1_555
Ca1 O15 2.290575 1_555
Ca1 O11 2.290575 1_445
Ca1 O3 2.290575 1_445
Ca1 O7 2.290575 1_555
Ca1 O16 2.557946 1_455
Ca1 O20 2.557946 1_545
Ge0 O11 1.731409 1_545
Ge0 O13 1.747610 1_546
Ge0 O16 1.817813 1_556
Ge0 O21 1.850127 1_555
Ge1 O15 1.731409 1_565
Ge1 O9 1.747610 1_564
Ge1 O20 1.817813 1_554
Ge1 O17 1.850127 1_555
Ge2 O12 1.731409 1_555
Ge2 O10 1.747610 1_554
Ge2 O23 1.817813 1_554
Ge2 O18 1.850127 1_555
Ge3 O8 1.731409 1_555
Ge3 O14 1.747610 1_556
Ge3 O19 1.817813 1_556
Ge3 O22 1.850127 1_555
Ge4 O3 1.731409 1_455
Ge4 O5 1.747610 1_454
Ge4 O20 1.817813 1_554
Ge4 O18 1.850127 1_555
Ge5 O7 1.731409 1_655
Ge5 O1 1.747610 1_656
Ge5 O16 1.817813 1_556
Ge5 O22 1.850127 1_555
Ge6 O4 1.731409 1_555
Ge6 O2 1.747610 1_556
Ge6 O19 1.817813 1_556
Ge6 O21 1.850127 1_555
Ge7 O0 1.731409 1_555
Ge7 O6 1.747610 1_554
Ge7 O23 1.817813 1_554
Ge7 O17 1.850127 1_555
O0 Tm2 2.304749 1_555
O1 Tm0 2.182036 1_555
O1 Tm3 2.406345 1_555
O2 Tm1 2.182036 1_555
O2 Tm3 2.406345 1_555
O3 Tm2 2.304749 1_555
O4 Tm3 2.304749 1_555
O5 Tm0 2.182036 1_655
O5 Tm2 2.406345 1_555
O6 Tm1 2.182036 1_565
O6 Tm2 2.406345 1_555
O7 Tm3 2.304749 1_555
O8 Tm2 2.304749 1_555
O9 Tm1 2.182036 1_555
O9 Tm3 2.406345 1_555
O10 Tm0 2.182036 1_555
O10 Tm3 2.406345 1_555
O11 Tm2 2.304749 1_555
O12 Tm3 2.304749 1_555
O13 Tm1 2.182036 1_565
O13 Tm2 2.406345 1_555
O14 Tm0 2.182036 1_655
O14 Tm2 2.406345 1_555
O15 Tm3 2.304749 1_555
O17 Tm1 2.419187 1_565
O18 Tm0 2.419187 1_555
O21 Tm1 2.419187 1_555
O22 Tm0 2.419187 1_655
