# generated using pymatgen
data_Mg6GaCu
_symmetry_space_group_name_H-M   'P 1'
_cell_length_a   4.83770000
_cell_length_b   6.23145300
_cell_length_c   10.42900800
_cell_angle_alpha   90.00000000
_cell_angle_beta   90.00000000
_cell_angle_gamma   90.00000000
_symmetry_Int_Tables_number   1
_chemical_formula_structural   Mg6GaCu
_chemical_formula_sum   'Mg12 Ga2 Cu2'
_cell_volume   314.39183412
_cell_formula_units_Z   2
loop_
 _symmetry_equiv_pos_site_id
 _symmetry_equiv_pos_as_xyz
  1  'x, y, z'
loop_
 _atom_site_type_symbol
 _atom_site_label
 _atom_site_symmetry_multiplicity
 _atom_site_fract_x
 _atom_site_fract_y
 _atom_site_fract_z
 _atom_site_occupancy
  Mg  Mg0  1  0.50000000  0.25040800  0.08443500  1
  Mg  Mg1  1  0.50000000  0.74959200  0.08443500  1
  Mg  Mg2  1  0.00000000  0.24512800  0.91222400  1
  Mg  Mg3  1  0.00000000  0.75487200  0.91222400  1
  Mg  Mg4  1  0.00000000  0.50000000  0.17206300  1
  Mg  Mg5  1  0.00000000  0.50000000  0.66901300  1
  Mg  Mg6  1  0.50000000  0.75040800  0.58443500  1
  Mg  Mg7  1  0.50000000  0.24959200  0.58443500  1
  Mg  Mg8  1  0.00000000  0.74512800  0.41222400  1
  Mg  Mg9  1  0.00000000  0.25487200  0.41222400  1
  Mg  Mg10  1  0.00000000  0.00000000  0.67206300  1
  Mg  Mg11  1  0.00000000  0.00000000  0.16901300  1
  Ga  Ga0  1  0.50000000  0.50000000  0.83272900  1
  Ga  Ga1  1  0.50000000  0.00000000  0.33272900  1
  Cu  Cu0  1  0.50000000  0.50000000  0.33288100  1
  Cu  Cu1  1  0.50000000  0.00000000  0.83288100  1
loop_
_geom_bond_atom_site_label_1
_geom_bond_atom_site_label_2
_geom_bond_distance
_geom_bond_site_symmetry_2
Mg0 Mg11 3.010604 1_555
Mg0 Mg11 3.010604 1_655
Mg0 Mg2 3.012889 1_654
Mg0 Mg2 3.012889 1_554
Mg0 Mg4 3.017453 1_555
Mg0 Mg4 3.017453 1_655
Mg0 Mg1 3.110642 1_555
Mg0 Mg1 3.120811 1_545
Mg1 Mg11 3.010604 1_665
Mg1 Mg11 3.010604 1_565
Mg1 Mg3 3.012889 1_554
Mg1 Mg3 3.012889 1_654
Mg1 Mg4 3.017453 1_555
Mg1 Mg4 3.017453 1_655
Mg2 Mg5 2.992662 1_555
Mg2 Mg3 3.055007 1_545
Mg2 Mg4 3.140989 1_556
Mg2 Mg3 3.176446 1_555
Mg3 Mg5 2.992662 1_555
Mg3 Mg4 3.140989 1_556
Mg4 Mg8 2.933683 1_555
Mg4 Mg9 2.933683 1_555
Mg5 Mg7 3.010604 1_455
Mg5 Mg7 3.010604 1_555
Mg5 Mg6 3.010604 1_455
Mg5 Mg6 3.010604 1_555
Mg5 Mg9 3.083057 1_555
Mg5 Mg8 3.083057 1_555
Mg6 Mg8 3.012889 1_555
Mg6 Mg8 3.012889 1_655
Mg6 Mg7 3.110642 1_565
Mg6 Mg7 3.120811 1_555
Mg7 Mg9 3.012889 1_555
Mg7 Mg9 3.012889 1_655
Mg8 Mg9 3.055007 1_555
Mg8 Mg9 3.176446 1_565
Mg10 Mg2 2.933683 1_555
Mg10 Mg3 2.933683 1_545
Mg10 Mg7 3.017453 1_555
Mg10 Mg7 3.017453 1_455
Mg10 Mg6 3.017453 1_545
Mg10 Mg6 3.017453 1_445
Mg10 Mg5 3.115889 1_545
Mg10 Mg5 3.115889 1_555
Mg10 Mg8 3.140989 1_545
Mg10 Mg9 3.140989 1_555
Mg11 Mg9 2.992662 1_555
Mg11 Mg8 2.992662 1_545
Mg11 Mg2 3.083057 1_554
Mg11 Mg3 3.083057 1_544
Mg11 Mg4 3.115889 1_545
Mg11 Mg4 3.115889 1_555
Ga0 Mg5 2.960749 1_555
Ga0 Mg5 2.960749 1_655
Ga0 Mg3 3.010086 1_555
Ga0 Mg3 3.010086 1_655
Ga0 Mg2 3.010086 1_555
Ga0 Mg2 3.010086 1_655
Ga0 Mg7 3.023271 1_555
Ga0 Mg6 3.023271 1_555
Ga0 Mg0 3.051209 1_556
Ga0 Mg1 3.051209 1_556
Ga1 Mg11 2.960749 1_555
Ga1 Mg11 2.960749 1_655
Ga1 Mg9 3.010086 1_655
Ga1 Mg8 3.010086 1_645
Ga1 Mg8 3.010086 1_545
Ga1 Mg9 3.010086 1_555
Ga1 Mg0 3.023271 1_555
Ga1 Mg1 3.023271 1_545
Ga1 Mg7 3.051209 1_555
Ga1 Mg6 3.051209 1_545
Cu0 Mg4 2.943424 1_555
Cu0 Mg4 2.943424 1_655
Cu0 Mg9 2.978054 1_655
Cu0 Mg9 2.978054 1_555
Cu0 Mg8 2.978054 1_555
Cu0 Mg8 2.978054 1_655
Cu0 Mg1 3.022009 1_555
Cu0 Mg0 3.022009 1_555
Cu0 Mg6 3.052442 1_555
Cu0 Mg7 3.052442 1_555
Cu0 Ga1 3.115727 1_555
Cu0 Ga1 3.115727 1_565
Cu1 Mg10 2.943424 1_555
Cu1 Mg10 2.943424 1_655
Cu1 Mg3 2.978054 1_545
Cu1 Mg3 2.978054 1_645
Cu1 Mg2 2.978054 1_655
Cu1 Mg2 2.978054 1_555
Cu1 Mg7 3.022009 1_555
Cu1 Mg6 3.022009 1_545
Cu1 Mg0 3.052442 1_556
Cu1 Mg1 3.052442 1_546
Cu1 Ga0 3.115727 1_545
Cu1 Ga0 3.115727 1_555
