# generated using pymatgen
data_Mg2Sn
_symmetry_space_group_name_H-M   'P 1'
_cell_length_a   5.80755907
_cell_length_b   5.80755907
_cell_length_c   4.94453700
_cell_angle_alpha   90.00000000
_cell_angle_beta   90.00000000
_cell_angle_gamma   120.00001221
_symmetry_Int_Tables_number   1
_chemical_formula_structural   Mg2Sn
_chemical_formula_sum   'Mg4 Sn2'
_cell_volume   144.42536748
_cell_formula_units_Z   2
loop_
 _symmetry_equiv_pos_site_id
 _symmetry_equiv_pos_as_xyz
  1  'x, y, z'
loop_
 _atom_site_type_symbol
 _atom_site_label
 _atom_site_symmetry_multiplicity
 _atom_site_fract_x
 _atom_site_fract_y
 _atom_site_fract_z
 _atom_site_occupancy
  Mg  Mg0  1  0.66622400  0.00000000  0.50000000  1
  Mg  Mg1  1  0.00000000  0.66622400  0.50000000  1
  Mg  Mg2  1  0.33377600  0.33377600  0.50000000  1
  Mg  Mg3  1  0.00000000  0.00000000  0.00000000  1
  Sn  Sn0  1  0.33333300  0.66666700  0.00000000  1
  Sn  Sn1  1  0.66666700  0.33333300  0.00000000  1
loop_
_geom_bond_atom_site_label_1
_geom_bond_atom_site_label_2
_geom_bond_distance
_geom_bond_site_symmetry_2
Mg0 Sn1 3.139213 1_556
Mg0 Sn1 3.139213 1_555
Mg0 Sn0 3.139214 1_545
Mg0 Sn0 3.139214 1_546
Mg0 Mg3 3.141592 1_655
Mg0 Mg3 3.141592 1_656
Mg1 Sn0 3.139213 1_555
Mg1 Sn0 3.139213 1_556
Mg1 Sn1 3.139214 1_456
Mg1 Sn1 3.139214 1_455
Mg1 Mg3 3.141592 1_566
Mg1 Mg3 3.141592 1_565
Mg2 Sn0 3.139216 1_556
Mg2 Sn1 3.139216 1_555
Mg2 Sn0 3.139216 1_555
Mg2 Sn1 3.139216 1_556
Mg2 Mg3 3.141591 1_556
Mg2 Mg3 3.141591 1_555
Mg3 Sn0 3.352993 1_545
Mg3 Sn1 3.352993 1_455
Mg3 Sn1 3.352997 1_445
Mg3 Sn1 3.352997 1_555
Mg3 Sn0 3.352997 1_445
Mg3 Sn0 3.352997 1_555
