# generated using pymatgen
data_Zr3Sn
_symmetry_space_group_name_H-M   'P 1'
_cell_length_a   5.67671835
_cell_length_b   5.67671835
_cell_length_c   5.67671835
_cell_angle_alpha   134.90679001
_cell_angle_beta   134.90679001
_cell_angle_gamma   65.67506128
_symmetry_Int_Tables_number   1
_chemical_formula_structural   Zr3Sn
_chemical_formula_sum   'Zr3 Sn1'
_cell_volume   90.39070001
_cell_formula_units_Z   1
loop_
 _symmetry_equiv_pos_site_id
 _symmetry_equiv_pos_as_xyz
  1  'x, y, z'
loop_
 _atom_site_type_symbol
 _atom_site_label
 _atom_site_symmetry_multiplicity
 _atom_site_fract_x
 _atom_site_fract_y
 _atom_site_fract_z
 _atom_site_occupancy
  Zr  Zr0  1  0.50000000  0.50000000  0.00000000  1
  Zr  Zr1  1  0.25000000  0.75000000  0.50000000  1
  Zr  Zr2  1  0.75000000  0.25000000  0.50000000  1
  Sn  Sn0  1  0.00000000  0.00000000  0.00000000  1
loop_
_geom_bond_atom_site_label_1
_geom_bond_atom_site_label_2
_geom_bond_distance
_geom_bond_site_symmetry_2
Zr0 Zr1 3.228806 1_554
Zr0 Zr2 3.228806 1_454
Zr0 Zr2 3.228806 1_554
Zr0 Zr1 3.228806 1_655
Zr0 Zr1 3.228806 1_544
Zr0 Zr2 3.228806 1_565
Zr0 Zr2 3.228806 1_555
Zr0 Zr1 3.228806 1_555
Zr1 Zr2 3.078250 1_465
Zr1 Zr2 3.078250 1_454
Zr1 Zr2 3.078250 1_566
Zr1 Zr2 3.078250 1_555
Sn0 Zr0 3.078250 1_556
Sn0 Zr0 3.078250 1_444
Sn0 Zr0 3.078250 1_545
Sn0 Zr0 3.078250 1_455
Sn0 Zr2 3.228806 1_455
Sn0 Zr1 3.228806 1_545
Sn0 Zr2 3.228806 1_454
Sn0 Zr1 3.228806 1_444
Sn0 Zr1 3.228806 1_544
Sn0 Zr2 3.228806 1_444
Sn0 Zr2 3.228806 1_555
Sn0 Zr1 3.228806 1_555
