# generated using pymatgen
data_Mg3Pd
_symmetry_space_group_name_H-M   'P 1'
_cell_length_a   8.01039003
_cell_length_b   8.01039067
_cell_length_c   8.27536020
_cell_angle_alpha   90.00003168
_cell_angle_beta   90.00002843
_cell_angle_gamma   119.99869444
_symmetry_Int_Tables_number   1
_chemical_formula_structural   Mg3Pd
_chemical_formula_sum   'Mg18 Pd6'
_cell_volume   459.86526941
_cell_formula_units_Z   6
loop_
 _symmetry_equiv_pos_site_id
 _symmetry_equiv_pos_as_xyz
  1  'x, y, z'
loop_
 _atom_site_type_symbol
 _atom_site_label
 _atom_site_symmetry_multiplicity
 _atom_site_fract_x
 _atom_site_fract_y
 _atom_site_fract_z
 _atom_site_occupancy
  Mg  Mg0  1  0.99997398  0.99997398  0.49726274  1
  Mg  Mg1  1  0.00002202  0.00002202  0.99726374  1
  Mg  Mg2  1  0.66672122  0.33347009  0.11506457  1
  Mg  Mg3  1  0.33327778  0.66652791  0.61506457  1
  Mg  Mg4  1  0.66652891  0.33327778  0.61506457  1
  Mg  Mg5  1  0.33347009  0.66672122  0.11506457  1
  Mg  Mg6  1  0.37710387  0.99986488  0.39511632  1
  Mg  Mg7  1  0.37713472  0.37713472  0.89513601  1
  Mg  Mg8  1  0.00013912  0.62289913  0.89511532  1
  Mg  Mg9  1  0.99986488  0.37710387  0.39511632  1
  Mg  Mg10  1  0.62286328  0.62286328  0.39513601  1
  Mg  Mg11  1  0.62289913  0.00013912  0.89511532  1
  Mg  Mg12  1  0.71857128  0.00000513  0.23880594  1
  Mg  Mg13  1  0.71857027  0.71857027  0.73883719  1
  Mg  Mg14  1  0.99999487  0.28142872  0.73880494  1
  Mg  Mg15  1  0.00000513  0.71857128  0.23880594  1
  Mg  Mg16  1  0.28142973  0.28142973  0.23883819  1
  Mg  Mg17  1  0.28142872  0.99999487  0.73880494  1
  Pd  Pd0  1  0.67236791  0.99997834  0.56763375  1
  Pd  Pd1  1  0.67243663  0.67243663  0.06762588  1
  Pd  Pd2  1  0.00002166  0.32763209  0.06763375  1
  Pd  Pd3  1  0.99997834  0.67236791  0.56763375  1
  Pd  Pd4  1  0.32756437  0.32756437  0.56762688  1
  Pd  Pd5  1  0.32763209  0.00002166  0.06763375  1
loop_
_geom_bond_atom_site_label_1
_geom_bond_atom_site_label_2
_geom_bond_distance
_geom_bond_site_symmetry_2
Mg0 Pd4 2.688005 1_665
Mg0 Pd0 2.688107 1_555
Mg0 Pd3 2.688107 1_555
Mg1 Pd1 2.687963 1_446
Mg1 Pd5 2.688120 1_556
Mg1 Pd2 2.688121 1_556
Mg2 Pd1 2.721123 1_555
Mg2 Pd2 2.722001 1_655
Mg2 Pd5 2.722425 1_555
Mg3 Pd4 2.721105 1_555
Mg3 Pd3 2.722000 1_455
Mg3 Pd0 2.722437 1_555
Mg4 Pd4 2.721113 1_555
Mg4 Pd0 2.721997 1_545
Mg4 Pd3 2.722433 1_555
Mg5 Pd1 2.721123 1_555
Mg5 Pd5 2.722001 1_565
Mg5 Pd2 2.722425 1_555
Mg6 Pd5 2.738949 1_565
Mg6 Pd0 2.762262 1_555
Mg7 Pd4 2.739190 1_555
Mg7 Pd1 2.762832 1_556
Mg8 Pd3 2.738940 1_455
Mg8 Pd2 2.762275 1_556
Mg9 Pd2 2.738948 1_655
Mg9 Pd3 2.762262 1_555
Mg10 Pd1 2.739203 1_555
Mg10 Pd4 2.762819 1_555
Mg11 Pd0 2.738940 1_545
Mg11 Pd5 2.762274 1_556
Mg12 Pd0 2.746208 1_545
Mg12 Pd1 2.838788 1_545
Mg12 Pd2 2.839083 1_655
Mg13 Pd1 2.745828 1_556
Mg13 Pd3 2.838982 1_555
Mg13 Pd0 2.838982 1_555
Mg14 Pd2 2.746216 1_656
Mg14 Pd4 2.838786 1_655
Mg14 Pd0 2.839076 1_545
Mg15 Pd3 2.746208 1_455
Mg15 Pd1 2.838788 1_455
Mg15 Pd5 2.839083 1_565
Mg16 Pd4 2.745828 1_555
Mg16 Pd2 2.838985 1_555
Mg16 Pd5 2.838985 1_555
Mg17 Pd5 2.746216 1_566
Mg17 Pd4 2.838786 1_565
Mg17 Pd3 2.839076 1_455
