# generated using pymatgen
data_Tm3(FeGe)4
_symmetry_space_group_name_H-M   'P 1'
_cell_length_a   7.77621229
_cell_length_b   7.77621229
_cell_length_c   7.77621229
_cell_angle_alpha   149.17196250
_cell_angle_beta   128.42013835
_cell_angle_gamma   61.30594890
_symmetry_Int_Tables_number   1
_chemical_formula_structural   Tm3(FeGe)4
_chemical_formula_sum   'Tm3 Fe4 Ge4'
_cell_volume   187.11280465
_cell_formula_units_Z   1
loop_
 _symmetry_equiv_pos_site_id
 _symmetry_equiv_pos_as_xyz
  1  'x, y, z'
loop_
 _atom_site_type_symbol
 _atom_site_label
 _atom_site_symmetry_multiplicity
 _atom_site_fract_x
 _atom_site_fract_y
 _atom_site_fract_z
 _atom_site_occupancy
  Tm  Tm0  1  0.50000000  0.00000000  0.50000000  1
  Tm  Tm1  1  0.87314700  0.87314700  0.00000000  1
  Tm  Tm2  1  0.12685300  0.12685300  0.00000000  1
  Fe  Fe0  1  0.49460400  0.67626100  0.81834300  1
  Fe  Fe1  1  0.85791800  0.67626100  0.18165700  1
  Fe  Fe2  1  0.14208200  0.32373900  0.81834300  1
  Fe  Fe3  1  0.50539600  0.32373900  0.18165700  1
  Ge  Ge0  1  0.27793600  0.77793600  0.50000000  1
  Ge  Ge1  1  0.72206400  0.22206400  0.50000000  1
  Ge  Ge2  1  0.80297900  0.50000000  0.30297900  1
  Ge  Ge3  1  0.19702100  0.50000000  0.69702100  1
loop_
_geom_bond_atom_site_label_1
_geom_bond_atom_site_label_2
_geom_bond_distance
_geom_bond_site_symmetry_2
Fe0 Fe1 2.458342 1_556
Fe0 Ge1 2.481590 1_555
Fe0 Ge1 2.481590 1_566
Fe0 Ge3 2.497047 1_555
Fe0 Ge0 2.547636 1_555
Fe0 Tm1 2.906863 1_556
Fe0 Tm2 3.057580 1_555
Fe0 Tm2 3.057580 1_566
Fe1 Ge1 2.481590 1_554
Fe1 Ge1 2.481590 1_565
Fe1 Ge2 2.497047 1_555
Fe1 Ge0 2.547636 1_655
Fe1 Tm1 2.906863 1_555
Fe1 Tm2 3.057580 1_655
Fe1 Tm2 3.057580 1_666
Fe2 Fe3 2.458342 1_556
Fe2 Ge0 2.481590 1_545
Fe2 Ge0 2.481590 1_556
Fe2 Ge3 2.497047 1_555
Fe2 Ge1 2.547636 1_455
Fe2 Tm2 2.906863 1_556
Fe2 Tm1 3.057580 1_456
Fe2 Tm1 3.057580 1_445
Fe3 Ge0 2.481590 1_544
Fe3 Ge0 2.481590 1_555
Fe3 Ge2 2.497047 1_555
Fe3 Ge1 2.547636 1_555
Fe3 Tm2 2.906863 1_555
Fe3 Tm1 3.057580 1_545
Fe3 Tm1 3.057580 1_556
Ge0 Tm2 2.891001 1_566
Ge0 Tm2 2.891001 1_555
Ge0 Tm0 2.971061 1_565
Ge1 Tm1 2.891001 1_556
Ge1 Tm1 2.891001 1_545
Ge1 Tm0 2.971061 1_555
Ge2 Ge3 2.666261 1_655
Ge2 Tm0 2.911143 1_565
Ge2 Tm0 2.911143 1_554
Ge2 Tm1 2.988248 1_556
Ge2 Tm1 2.988248 1_545
Ge2 Tm2 2.988248 1_655
Ge2 Tm2 2.988248 1_666
Ge3 Tm0 2.911143 1_566
Ge3 Tm0 2.911143 1_555
Ge3 Tm1 2.988248 1_456
Ge3 Tm1 2.988248 1_445
Ge3 Tm2 2.988248 1_555
Ge3 Tm2 2.988248 1_566
