# generated using pymatgen
data_ZnGa11Co4
_symmetry_space_group_name_H-M   'P 1'
_cell_length_a   6.18130688
_cell_length_b   6.24079085
_cell_length_c   6.31450902
_cell_angle_alpha   90.00000000
_cell_angle_beta   90.00000000
_cell_angle_gamma   90.08581650
_symmetry_Int_Tables_number   1
_chemical_formula_structural   ZnGa11Co4
_chemical_formula_sum   'Zn1 Ga11 Co4'
_cell_volume   243.58976397
_cell_formula_units_Z   1
loop_
 _symmetry_equiv_pos_site_id
 _symmetry_equiv_pos_as_xyz
  1  'x, y, z'
loop_
 _atom_site_type_symbol
 _atom_site_label
 _atom_site_symmetry_multiplicity
 _atom_site_fract_x
 _atom_site_fract_y
 _atom_site_fract_z
 _atom_site_occupancy
  Zn  Zn0  1  0.50000000  -0.00000000  -0.00000000  1
  Ga  Ga0  1  0.35083462  0.66030765  0.23634150  1
  Ga  Ga1  1  0.64916538  0.33969235  0.23634150  1
  Ga  Ga2  1  0.15403089  0.14898853  0.74616616  1
  Ga  Ga3  1  0.84596911  0.85101147  0.74616616  1
  Ga  Ga4  1  0.64916538  0.33969235  0.76365850  1
  Ga  Ga5  1  0.35083462  0.66030765  0.76365850  1
  Ga  Ga6  1  0.84596911  0.85101147  0.25383384  1
  Ga  Ga7  1  0.15403089  0.14898853  0.25383384  1
  Ga  Ga8  1  -0.00000000  0.50000000  0.50000000  1
  Ga  Ga9  1  -0.00000000  0.50000000  -0.00000000  1
  Ga  Ga10  1  0.50000000  -0.00000000  0.50000000  1
  Co  Co0  1  0.15586443  0.84295358  0.50000000  1
  Co  Co1  1  0.84413557  0.15704642  0.50000000  1
  Co  Co2  1  0.34143568  0.35246051  -0.00000000  1
  Co  Co3  1  0.65856432  0.64753949  -0.00000000  1
loop_
_geom_bond_atom_site_label_1
_geom_bond_atom_site_label_2
_geom_bond_distance
_geom_bond_site_symmetry_2
Ga0 Ga1 2.723093 1_555
Ga0 Zn0 2.750578 1_565
Ga0 Ga9 2.815047 1_555
Ga0 Ga10 2.847856 1_565
Ga0 Ga8 2.910171 1_555
Ga0 Ga5 2.984761 1_554
Ga1 Zn0 2.750578 1_555
Ga1 Ga9 2.815047 1_655
Ga1 Ga10 2.847856 1_555
Ga1 Ga8 2.910171 1_655
Ga1 Ga4 2.984761 1_554
Ga2 Ga3 2.659628 1_445
Ga2 Zn0 2.830713 1_556
Ga2 Ga8 2.850906 1_555
Ga2 Ga9 2.877591 1_556
Ga3 Zn0 2.830713 1_566
Ga3 Ga8 2.850906 1_655
Ga3 Ga9 2.877591 1_656
Ga4 Ga5 2.723093 1_555
Ga4 Zn0 2.750578 1_556
Ga4 Ga9 2.815047 1_656
Ga4 Ga8 2.910171 1_655
Ga5 Zn0 2.750578 1_566
Ga5 Ga9 2.815047 1_556
Ga5 Ga8 2.910171 1_555
Ga6 Ga7 2.659628 1_665
Ga6 Zn0 2.830713 1_565
Ga6 Ga8 2.850906 1_655
Ga6 Ga9 2.877591 1_655
Ga7 Zn0 2.830713 1_555
Ga7 Ga8 2.850906 1_555
Ga7 Ga9 2.877591 1_555
Ga10 Ga2 2.803582 1_555
Ga10 Ga3 2.803582 1_545
Ga10 Ga6 2.803582 1_545
Ga10 Ga7 2.803582 1_555
Ga10 Ga4 2.847856 1_555
Ga10 Ga5 2.847856 1_545
Co0 Ga10 2.340801 1_565
Co0 Ga8 2.345835 1_555
Co0 Ga5 2.351090 1_555
Co0 Ga0 2.351090 1_555
Co0 Ga2 2.462545 1_565
Co0 Ga7 2.462545 1_565
Co0 Ga3 2.467468 1_455
Co0 Ga6 2.467468 1_455
Co1 Ga10 2.340801 1_555
Co1 Ga8 2.345835 1_655
Co1 Ga4 2.351090 1_555
Co1 Ga1 2.351090 1_555
Co1 Ga3 2.462545 1_545
Co1 Ga6 2.462545 1_545
Co1 Ga2 2.467468 1_655
Co1 Ga7 2.467468 1_655
Co2 Ga9 2.303891 1_555
Co2 Ga2 2.349264 1_554
Co2 Ga7 2.349264 1_555
Co2 Zn0 2.409461 1_555
Co2 Ga1 2.419145 1_555
Co2 Ga4 2.419145 1_554
Co2 Ga0 2.433369 1_555
Co2 Ga5 2.433369 1_554
Co2 Co3 2.687575 1_555
Co3 Ga9 2.303891 1_655
Co3 Ga3 2.349264 1_554
Co3 Ga6 2.349264 1_555
Co3 Zn0 2.409461 1_565
Co3 Ga0 2.419145 1_555
Co3 Ga5 2.419145 1_554
Co3 Ga1 2.433369 1_555
Co3 Ga4 2.433369 1_554
