# generated using pymatgen
data_TmCuGe
_symmetry_space_group_name_H-M   'P 1'
_cell_length_a   4.20609465
_cell_length_b   4.20609465
_cell_length_c   3.61210600
_cell_angle_alpha   90.00000000
_cell_angle_beta   90.00000000
_cell_angle_gamma   120.00001015
_symmetry_Int_Tables_number   1
_chemical_formula_structural   TmCuGe
_chemical_formula_sum   'Tm1 Cu1 Ge1'
_cell_volume   55.34127438
_cell_formula_units_Z   1
loop_
 _symmetry_equiv_pos_site_id
 _symmetry_equiv_pos_as_xyz
  1  'x, y, z'
loop_
 _atom_site_type_symbol
 _atom_site_label
 _atom_site_symmetry_multiplicity
 _atom_site_fract_x
 _atom_site_fract_y
 _atom_site_fract_z
 _atom_site_occupancy
  Tm  Tm0  1  0.66666700  0.33333300  0.00000000  1
  Cu  Cu0  1  0.00000000  0.00000000  0.50000000  1
  Ge  Ge0  1  0.33333300  0.66666700  0.50000000  1
loop_
_geom_bond_atom_site_label_1
_geom_bond_atom_site_label_2
_geom_bond_distance
_geom_bond_site_symmetry_2
Cu0 Ge0 2.428388 1_545
Cu0 Ge0 2.428391 1_555
Cu0 Ge0 2.428391 1_445
Cu0 Tm0 3.026366 1_456
Cu0 Tm0 3.026366 1_455
Cu0 Tm0 3.026369 1_555
Cu0 Tm0 3.026369 1_556
Cu0 Tm0 3.026369 1_446
Cu0 Tm0 3.026369 1_445
Ge0 Tm0 3.026366 1_456
Ge0 Tm0 3.026366 1_455
Ge0 Tm0 3.026366 1_565
Ge0 Tm0 3.026366 1_566
Ge0 Tm0 3.026372 1_556
Ge0 Tm0 3.026372 1_555
