# generated using pymatgen
data_DyS2
_symmetry_space_group_name_H-M   'P 1'
_cell_length_a   3.85089954
_cell_length_b   3.85089954
_cell_length_c   7.93488442
_cell_angle_alpha   90.00000000
_cell_angle_beta   90.00000000
_cell_angle_gamma   90.00000000
_symmetry_Int_Tables_number   1
_chemical_formula_structural   DyS2
_chemical_formula_sum   'Dy2 S4'
_cell_volume   117.66979138
_cell_formula_units_Z   2
loop_
 _symmetry_equiv_pos_site_id
 _symmetry_equiv_pos_as_xyz
  1  'x, y, z'
loop_
 _atom_site_type_symbol
 _atom_site_label
 _atom_site_symmetry_multiplicity
 _atom_site_fract_x
 _atom_site_fract_y
 _atom_site_fract_z
 _atom_site_occupancy
  Dy  Dy0  1  0.75000000  0.75000000  0.72664374  1
  Dy  Dy1  1  0.25000000  0.25000000  0.27335626  1
  S  S0  1  0.75000000  0.75000000  0.36816351  1
  S  S1  1  0.25000000  0.25000000  0.63183649  1
  S  S2  1  0.75000000  0.25000000  -0.00000000  1
  S  S3  1  0.25000000  0.75000000  -0.00000000  1
loop_
_geom_bond_atom_site_label_1
_geom_bond_atom_site_label_2
_geom_bond_distance
_geom_bond_site_symmetry_2
Dy0 S1 2.825004 1_655
Dy0 S1 2.825004 1_565
Dy0 S1 2.825004 1_665
Dy0 S1 2.825004 1_555
Dy0 S0 2.844499 1_555
Dy0 S2 2.900368 1_556
Dy0 S3 2.900368 1_556
Dy0 S2 2.900368 1_566
Dy0 S3 2.900368 1_656
Dy1 S0 2.825004 1_555
Dy1 S0 2.825004 1_545
Dy1 S0 2.825004 1_455
Dy1 S0 2.825004 1_445
Dy1 S1 2.844499 1_555
Dy1 S2 2.900368 1_555
Dy1 S3 2.900368 1_555
Dy1 S3 2.900368 1_545
Dy1 S2 2.900368 1_455
