# generated using pymatgen
data_RbNd2Br5
_symmetry_space_group_name_H-M   'P 1'
_cell_length_a   7.64394700
_cell_length_b   9.39997300
_cell_length_c   14.15831160
_cell_angle_alpha   89.68453862
_cell_angle_beta   90.00000000
_cell_angle_gamma   90.00000000
_symmetry_Int_Tables_number   1
_chemical_formula_structural   RbNd2Br5
_chemical_formula_sum   'Rb4 Nd8 Br20'
_cell_volume   1017.30026299
_cell_formula_units_Z   4
loop_
 _symmetry_equiv_pos_site_id
 _symmetry_equiv_pos_as_xyz
  1  'x, y, z'
loop_
 _atom_site_type_symbol
 _atom_site_label
 _atom_site_symmetry_multiplicity
 _atom_site_fract_x
 _atom_site_fract_y
 _atom_site_fract_z
 _atom_site_occupancy
  Rb  Rb0  1  0.07020300  0.50035000  0.33651100  1
  Rb  Rb1  1  0.92979700  0.49965000  0.66348900  1
  Rb  Rb2  1  0.57020300  0.49965000  0.16348900  1
  Rb  Rb3  1  0.42979700  0.50035000  0.83651100  1
  Nd  Nd0  1  0.10283000  0.99329800  0.34126000  1
  Nd  Nd1  1  0.89717000  0.00670200  0.65874000  1
  Nd  Nd2  1  0.60283000  0.00670200  0.15874000  1
  Nd  Nd3  1  0.39717000  0.99329800  0.84126000  1
  Nd  Nd4  1  0.03319400  0.19850800  0.99846100  1
  Nd  Nd5  1  0.96680600  0.80149200  0.00153900  1
  Nd  Nd6  1  0.53319400  0.80149200  0.50153900  1
  Nd  Nd7  1  0.46680600  0.19850800  0.49846100  1
  Br  Br0  1  0.17055700  0.52745200  0.07776400  1
  Br  Br1  1  0.82944300  0.47254800  0.92223600  1
  Br  Br2  1  0.67055700  0.47254800  0.42223600  1
  Br  Br3  1  0.32944300  0.52745200  0.57776400  1
  Br  Br4  1  0.86208500  0.23665200  0.18886300  1
  Br  Br5  1  0.13791500  0.76334800  0.81113700  1
  Br  Br6  1  0.36208500  0.76334800  0.31113700  1
  Br  Br7  1  0.63791500  0.23665200  0.68886300  1
  Br  Br8  1  0.34490300  0.23029300  0.29086100  1
  Br  Br9  1  0.65509700  0.76970700  0.70913900  1
  Br  Br10  1  0.84490300  0.76970700  0.20913900  1
  Br  Br11  1  0.15509700  0.23029300  0.79086100  1
  Br  Br12  1  0.45064300  0.20556200  0.99885800  1
  Br  Br13  1  0.54935700  0.79443800  0.00114200  1
  Br  Br14  1  0.95064300  0.79443800  0.50114200  1
  Br  Br15  1  0.04935700  0.20556200  0.49885800  1
  Br  Br16  1  0.69319100  0.02444300  0.36937300  1
  Br  Br17  1  0.30680900  0.97555700  0.63062700  1
  Br  Br18  1  0.19319100  0.97555700  0.13062700  1
  Br  Br19  1  0.80680900  0.02444300  0.86937300  1
loop_
_geom_bond_atom_site_label_1
_geom_bond_atom_site_label_2
_geom_bond_distance
_geom_bond_site_symmetry_2
Br0 Nd5 3.193023 1_455
Br0 Rb2 3.296994 1_555
Br0 Nd4 3.458650 1_554
Br0 Rb0 3.750163 1_555
Br0 Rb3 3.958350 1_554
Br1 Nd4 3.193023 1_655
Br1 Rb3 3.296994 1_555
Br1 Nd5 3.458650 1_556
Br1 Rb1 3.750163 1_555
Br1 Rb2 3.958350 1_556
Br2 Nd7 3.193023 1_555
Br2 Rb0 3.296994 1_655
Br2 Nd6 3.458650 1_555
Br2 Rb2 3.750163 1_555
Br2 Rb1 3.958350 1_555
Br3 Nd6 3.193023 1_555
Br3 Rb1 3.296994 1_455
Br3 Nd7 3.458650 1_555
Br3 Rb3 3.750163 1_555
Br3 Rb0 3.958350 1_555
Br4 Nd2 2.965045 1_555
Br4 Nd4 3.019456 1_654
Br4 Rb2 3.347965 1_555
Br4 Rb0 3.619672 1_655
Br4 Nd0 3.636000 1_645
Br5 Nd3 2.965045 1_555
Br5 Nd5 3.019456 1_456
Br5 Rb3 3.347965 1_555
Br5 Rb1 3.619672 1_455
Br5 Nd1 3.636000 1_465
Br6 Nd0 2.965045 1_555
Br6 Nd6 3.019456 1_555
Br6 Rb0 3.347965 1_555
Br6 Rb2 3.619672 1_555
Br6 Nd2 3.636000 1_565
Br7 Nd1 2.965045 1_555
Br7 Nd7 3.019456 1_555
Br7 Rb1 3.347965 1_555
Br7 Rb3 3.619672 1_555
Br7 Nd3 3.636000 1_545
Br8 Nd0 2.979678 1_545
Br8 Nd7 3.096315 1_555
Br8 Rb0 3.359920 1_555
Br8 Nd2 3.441941 1_555
Br8 Rb2 3.546624 1_555
Br9 Nd1 2.979678 1_565
Br9 Nd6 3.096315 1_555
Br9 Rb1 3.359920 1_555
Br9 Nd3 3.441941 1_555
Br9 Rb3 3.546624 1_555
Br10 Nd2 2.979678 1_565
Br10 Nd5 3.096315 1_555
Br10 Rb2 3.359920 1_555
Br10 Nd0 3.441941 1_655
Br10 Rb0 3.546624 1_655
Br11 Nd3 2.979678 1_545
Br11 Nd4 3.096315 1_555
Br11 Rb3 3.359920 1_555
Br11 Nd1 3.441941 1_455
Br11 Rb1 3.546624 1_455
Br12 Nd3 3.029194 1_545
Br12 Nd2 3.150405 1_556
Br12 Nd4 3.191652 1_555
Br12 Rb3 3.594032 1_555
Br12 Rb2 3.739155 1_556
Br13 Nd2 3.029194 1_565
Br13 Nd3 3.150405 1_554
Br13 Nd5 3.191652 1_555
Br13 Rb2 3.594032 1_555
Br13 Rb3 3.739155 1_554
Br14 Nd1 3.029194 1_565
Br14 Nd0 3.150405 1_655
Br14 Nd6 3.191652 1_555
Br14 Rb1 3.594032 1_555
Br14 Rb0 3.739155 1_655
Br15 Nd0 3.029194 1_545
Br15 Nd1 3.150405 1_455
Br15 Nd7 3.191652 1_555
Br15 Rb0 3.594032 1_555
Br15 Rb1 3.739155 1_455
Br16 Nd7 3.007493 1_555
Br16 Nd6 3.057161 1_545
Br16 Nd2 3.066584 1_555
Br16 Nd0 3.170206 1_645
Br17 Nd6 3.007493 1_555
Br17 Nd7 3.057161 1_565
Br17 Nd3 3.066584 1_555
Br17 Nd1 3.170206 1_465
Br18 Nd5 3.007493 1_455
Br18 Nd4 3.057161 1_564
Br18 Nd0 3.066584 1_555
Br18 Nd2 3.170206 1_565
Br19 Nd4 3.007493 1_655
Br19 Nd5 3.057161 1_546
Br19 Nd1 3.066584 1_555
Br19 Nd3 3.170206 1_545
