# generated using pymatgen
data_KFeH5(SO5)2
_symmetry_space_group_name_H-M   'P 1'
_cell_length_a   9.04344070
_cell_length_b   10.54838966
_cell_length_c   11.32154067
_cell_angle_alpha   63.64127207
_cell_angle_beta   70.08638542
_cell_angle_gamma   93.03520803
_symmetry_Int_Tables_number   1
_chemical_formula_structural   KFeH5(SO5)2
_chemical_formula_sum   'K4 Fe4 H20 S8 O40'
_cell_volume   882.73036633
_cell_formula_units_Z   4
loop_
 _symmetry_equiv_pos_site_id
 _symmetry_equiv_pos_as_xyz
  1  'x, y, z'
loop_
 _atom_site_type_symbol
 _atom_site_label
 _atom_site_symmetry_multiplicity
 _atom_site_fract_x
 _atom_site_fract_y
 _atom_site_fract_z
 _atom_site_occupancy
  K  K0  1  0.24948400  0.99722700  0.24723300  1
  K  K1  1  0.74952000  0.99734500  0.74715200  1
  K  K2  1  0.99961800  0.49697400  0.49722800  1
  K  K3  1  0.49958600  0.49711600  0.99711000  1
  Fe  Fe0  1  0.25482900  0.49869600  0.75012700  1
  Fe  Fe1  1  0.50452600  0.99832600  0.50066400  1
  Fe  Fe2  1  0.75480700  0.49870000  0.25025500  1
  Fe  Fe3  1  0.00500000  0.99811700  0.00074900  1
  H  H0  1  0.59801900  0.02862400  0.23051400  1
  H  H1  1  0.09788200  0.02868600  0.73051500  1
  H  H2  1  0.34837500  0.52909600  0.48012200  1
  H  H3  1  0.84813300  0.52900900  0.98026100  1
  H  H4  1  0.65521700  0.47495600  0.51916400  1
  H  H5  1  0.15502100  0.47471100  0.01894600  1
  H  H6  1  0.40521500  0.97469700  0.76916600  1
  H  H7  1  0.90495000  0.97484500  0.26933200  1
  H  H8  1  0.66769200  0.18434700  0.20429000  1
  H  H9  1  0.16786100  0.18425900  0.70441600  1
  H  H10  1  0.41828900  0.68486900  0.45369500  1
  H  H11  1  0.91849500  0.68471300  0.95380700  1
  H  H12  1  0.58664400  0.31565500  0.55145300  1
  H  H13  1  0.08689900  0.31524100  0.05151300  1
  H  H14  1  0.33685600  0.81534200  0.80148700  1
  H  H15  1  0.83650500  0.81541000  0.30182200  1
  H  H16  1  0.64575600  0.25218500  0.86659400  1
  H  H17  1  0.14551500  0.25196900  0.36648500  1
  H  H18  1  0.39471000  0.75212700  0.11705800  1
  H  H19  1  0.89483400  0.75209900  0.61709400  1
  S  S0  1  0.87405200  0.30692900  0.88571100  1
  S  S1  1  0.37385600  0.30684200  0.38542200  1
  S  S2  1  0.62405900  0.80747700  0.13521800  1
  S  S3  1  0.12408200  0.80748800  0.63528300  1
  S  S4  1  0.38227800  0.19371300  0.86517000  1
  S  S5  1  0.88194200  0.19392700  0.36506400  1
  S  S6  1  0.13225000  0.69365600  0.11497900  1
  S  S7  1  0.63239900  0.69384700  0.61478700  1
  O  O0  1  0.57993100  0.09614600  0.26996900  1
  O  O1  1  0.07994900  0.09616100  0.77006000  1
  O  O2  1  0.33060500  0.59663000  0.51955800  1
  O  O3  1  0.83058300  0.59664700  0.01958600  1
  O  O4  1  0.66925500  0.40645000  0.48022100  1
  O  O5  1  0.16924600  0.40618400  0.98007400  1
  O  O6  1  0.41950200  0.90611300  0.73031600  1
  O  O7  1  0.91929000  0.90609500  0.23068600  1
  O  O8  1  0.77518400  0.26052400  0.81630200  1
  O  O9  1  0.27483700  0.26021000  0.31606600  1
  O  O10  1  0.52469800  0.76078700  0.06655700  1
  O  O11  1  0.02476500  0.76082800  0.56655800  1
  O  O12  1  0.48155400  0.24251400  0.92754600  1
  O  O13  1  0.98124000  0.24227900  0.42764800  1
  O  O14  1  0.23178900  0.74211500  0.17756500  1
  O  O15  1  0.73178400  0.74203700  0.67765600  1
  O  O16  1  0.89212900  0.17463700  0.99840700  1
  O  O17  1  0.39200300  0.17467900  0.49828100  1
  O  O18  1  0.64359900  0.67560800  0.24729800  1
  O  O19  1  0.14361600  0.67564600  0.74734800  1
  O  O20  1  0.35660900  0.32191600  0.75154900  1
  O  O21  1  0.85656300  0.32237100  0.25148700  1
  O  O22  1  0.10662200  0.82200900  0.00135700  1
  O  O23  1  0.60692500  0.82229600  0.50122100  1
  O  O24  1  0.78414200  0.38890800  0.94930500  1
  O  O25  1  0.28412000  0.38882800  0.44908800  1
  O  O26  1  0.53394700  0.88860600  0.19982000  1
  O  O27  1  0.03403100  0.88868700  0.69981700  1
  O  O28  1  0.46932000  0.11129100  0.79896300  1
  O  O29  1  0.96881100  0.11170800  0.29856300  1
  O  O30  1  0.21897800  0.61129500  0.04847900  1
  O  O31  1  0.71916200  0.61152300  0.54825500  1
  O  O32  1  0.03156100  0.39490100  0.76309100  1
  O  O33  1  0.53122000  0.39487600  0.26269200  1
  O  O34  1  0.78102200  0.89619500  0.01212900  1
  O  O35  1  0.28102500  0.89617900  0.51213400  1
  O  O36  1  0.22319700  0.10242000  0.98764500  1
  O  O37  1  0.72273800  0.10279200  0.48731500  1
  O  O38  1  0.97312000  0.60283300  0.23745800  1
  O  O39  1  0.47317200  0.60285500  0.73704300  1
loop_
_geom_bond_atom_site_label_1
_geom_bond_atom_site_label_2
_geom_bond_distance
_geom_bond_site_symmetry_2
K0 O36 2.744665 1_564
K0 O35 2.826366 1_555
K0 O26 2.852443 1_555
K0 O29 2.860356 1_465
K0 O14 3.132806 1_555
K0 O11 3.141890 1_555
K0 O12 3.183355 1_564
K0 O9 3.213908 1_565
K1 O37 2.749202 1_565
K1 O34 2.826899 1_556
K1 O27 2.852972 1_655
K1 O28 2.854091 1_565
K1 O15 3.133575 1_555
K1 O10 3.143029 1_556
K1 O13 3.180471 1_565
K1 O8 3.218547 1_565
K2 O38 2.747005 1_555
K2 O32 2.837278 1_655
K2 O25 2.850573 1_655
K2 O31 2.858806 1_555
K2 O13 3.128471 1_555
K2 O8 3.139834 1_555
K2 O14 3.182994 1_655
K2 O11 3.226250 1_655
K3 O39 2.749821 1_555
K3 O33 2.832829 1_556
K3 O24 2.851110 1_555
K3 O30 2.858120 1_556
K3 O12 3.127113 1_555
K3 O9 3.140873 1_556
K3 O15 3.181112 1_555
K3 O10 3.225211 1_556
Fe0 O20 2.118949 1_555
Fe0 O39 2.134133 1_555
Fe0 O5 2.149491 1_555
Fe0 O2 2.159361 1_555
Fe0 O19 2.159790 1_555
Fe0 O32 2.172191 1_555
Fe1 O23 2.116859 1_555
Fe1 O37 2.133086 1_565
Fe1 O6 2.147244 1_555
Fe1 O0 2.161124 1_565
Fe1 O17 2.161324 1_565
Fe1 O35 2.174739 1_555
Fe2 O21 2.115070 1_555
Fe2 O38 2.135319 1_555
Fe2 O4 2.149989 1_555
Fe2 O18 2.158952 1_555
Fe2 O3 2.160356 1_555
Fe2 O33 2.177686 1_555
Fe3 O22 2.114063 1_555
Fe3 O36 2.133533 1_564
Fe3 O7 2.149841 1_455
Fe3 O1 2.161390 1_564
Fe3 O16 2.164611 1_464
Fe3 O34 2.178040 1_455
H0 O0 0.989276 1_555
H1 O1 0.989476 1_555
H2 O2 0.989101 1_555
H3 O3 0.989129 1_556
H4 O4 0.993577 1_555
H5 O5 0.993230 1_554
H6 O6 0.993620 1_555
H7 O7 0.993596 1_555
H8 O0 0.976673 1_555
H9 O1 0.976716 1_555
H10 O2 0.976683 1_555
H11 O3 0.976618 1_556
H12 O4 0.976591 1_555
H13 O5 0.976767 1_554
H14 O6 0.976493 1_555
H15 O7 0.976467 1_555
H16 O8 1.092053 1_555
H16 O12 1.383866 1_555
H17 O9 1.091590 1_555
H17 O13 1.384660 1_455
H18 O10 1.096146 1_555
H18 O14 1.372213 1_555
H19 O11 1.095585 1_655
H19 O15 1.373218 1_555
O8 S0 1.558968 1_555
O9 S1 1.560675 1_555
O10 S2 1.556652 1_555
O11 S3 1.556807 1_555
O12 S4 1.508475 1_555
O13 S5 1.508113 1_555
O14 S6 1.510321 1_555
O15 S7 1.510469 1_555
O16 S0 1.478913 1_555
O17 S1 1.479321 1_555
O18 S2 1.479089 1_555
O19 S3 1.478821 1_555
O20 S4 1.493106 1_555
O21 S5 1.492904 1_555
O22 S6 1.493769 1_555
O23 S7 1.493294 1_555
O24 S0 1.468270 1_555
O25 S1 1.468134 1_555
O26 S2 1.468002 1_555
O27 S3 1.467950 1_555
O28 S4 1.478711 1_555
O29 S5 1.478256 1_555
O30 S6 1.479014 1_555
O31 S7 1.479022 1_555
O32 S0 1.478636 1_455
O33 S1 1.478355 1_555
O34 S2 1.478676 1_555
O35 S3 1.478748 1_555
O36 S4 1.492784 1_555
O37 S5 1.492369 1_555
O38 S6 1.492177 1_655
O39 S7 1.492242 1_555
