# generated using pymatgen
data_Yb4Ge3Au5
_symmetry_space_group_name_H-M   'P 1'
_cell_length_a   5.81275283
_cell_length_b   5.81275283
_cell_length_c   10.64944389
_cell_angle_alpha   84.57324879
_cell_angle_beta   84.57324879
_cell_angle_gamma   45.94761064
_symmetry_Int_Tables_number   1
_chemical_formula_structural   Yb4Ge3Au5
_chemical_formula_sum   'Yb4 Ge3 Au5'
_cell_volume   257.23940449
_cell_formula_units_Z   1
loop_
 _symmetry_equiv_pos_site_id
 _symmetry_equiv_pos_as_xyz
  1  'x, y, z'
loop_
 _atom_site_type_symbol
 _atom_site_label
 _atom_site_symmetry_multiplicity
 _atom_site_fract_x
 _atom_site_fract_y
 _atom_site_fract_z
 _atom_site_occupancy
  Yb  Yb0  1  0.68427600  0.68427600  0.68851900  1
  Yb  Yb1  1  0.18693200  0.18693200  0.18129700  1
  Yb  Yb2  1  0.39387500  0.39387500  0.90017600  1
  Yb  Yb3  1  0.89485100  0.89485100  0.39715800  1
  Ge  Ge0  1  0.17625500  0.17625500  0.48753600  1
  Ge  Ge1  1  0.98552200  0.98552200  0.66942400  1
  Ge  Ge2  1  0.48468600  0.48468600  0.18563700  1
  Au  Au0  1  0.68462700  0.68462700  0.98989900  1
  Au  Au1  1  0.38467800  0.38467800  0.60608400  1
  Au  Au2  1  0.90318300  0.90318300  0.11240500  1
  Au  Au3  1  0.09626300  0.09626300  0.87629000  1
  Au  Au4  1  0.60605100  0.60605100  0.38677400  1
loop_
_geom_bond_atom_site_label_1
_geom_bond_atom_site_label_2
_geom_bond_distance
_geom_bond_site_symmetry_2
Ge0 Ge1 2.665951 1_445
Ge0 Yb0 3.126276 1_455
Ge0 Yb0 3.126276 1_545
Ge0 Yb1 3.251524 1_555
Ge0 Yb3 3.254837 1_445
Ge0 Yb3 3.329470 1_545
Ge0 Yb3 3.329470 1_455
Ge1 Yb0 3.131002 1_655
Ge1 Yb0 3.131002 1_565
Ge1 Yb3 3.150704 1_555
Ge1 Yb0 3.209851 1_555
Ge1 Yb2 3.413661 1_565
Ge1 Yb2 3.413661 1_655
Ge2 Yb1 3.132882 1_565
Ge2 Yb1 3.132882 1_655
Ge2 Yb1 3.192062 1_555
Ge2 Yb3 3.271247 1_455
Ge2 Yb3 3.271247 1_545
Ge2 Yb2 3.285333 1_554
Au0 Au3 2.782221 1_565
Au0 Au3 2.782221 1_655
Au0 Au2 2.793084 1_556
Au0 Ge2 2.829929 1_556
Au0 Yb1 3.051702 1_656
Au0 Yb1 3.051702 1_566
Au0 Yb0 3.209917 1_555
Au0 Yb2 3.261410 1_655
Au0 Yb2 3.261410 1_565
Au0 Yb2 3.347932 1_555
Au1 Ge1 2.630014 1_545
Au1 Ge1 2.630014 1_455
Au1 Ge0 2.673773 1_555
Au1 Yb2 3.143553 1_555
Au1 Au4 3.151520 1_555
Au1 Yb3 3.171722 1_545
Au1 Yb3 3.171722 1_455
Au1 Yb0 3.183102 1_455
Au1 Yb0 3.183102 1_545
Au1 Yb0 3.410584 1_555
Au2 Ge2 2.579989 1_655
Au2 Ge2 2.579989 1_565
Au2 Yb3 3.024602 1_555
Au2 Au3 3.086422 1_664
Au2 Yb1 3.196856 1_665
Au2 Yb2 3.211180 1_564
Au2 Yb2 3.211180 1_654
Au2 Yb1 3.270202 1_565
Au2 Yb1 3.270202 1_655
Au3 Ge1 2.606655 1_445
Au3 Yb0 3.105868 1_545
Au3 Yb0 3.105868 1_455
Au3 Yb2 3.129130 1_545
Au3 Yb2 3.129130 1_455
Au3 Yb2 3.221545 1_555
Au3 Yb1 3.484238 1_556
Au4 Ge2 2.616724 1_555
Au4 Ge0 2.651243 1_565
Au4 Ge0 2.651243 1_655
Au4 Yb3 3.104453 1_555
Au4 Yb3 3.196616 1_455
Au4 Yb3 3.196616 1_545
Au4 Yb1 3.208723 1_655
Au4 Yb1 3.208723 1_565
Au4 Yb0 3.402913 1_555
