# generated using pymatgen
data_MgZr2H12(OF3)4
_symmetry_space_group_name_H-M   'P 1'
_cell_length_a   6.94881947
_cell_length_b   7.69228507
_cell_length_c   6.89619339
_cell_angle_alpha   62.21794936
_cell_angle_beta   81.82291425
_cell_angle_gamma   66.78082327
_symmetry_Int_Tables_number   1
_chemical_formula_structural   MgZr2H12(OF3)4
_chemical_formula_sum   'Mg1 Zr2 H12 O4 F12'
_cell_volume   299.31948114
_cell_formula_units_Z   1
loop_
 _symmetry_equiv_pos_site_id
 _symmetry_equiv_pos_as_xyz
  1  'x, y, z'
loop_
 _atom_site_type_symbol
 _atom_site_label
 _atom_site_symmetry_multiplicity
 _atom_site_fract_x
 _atom_site_fract_y
 _atom_site_fract_z
 _atom_site_occupancy
  Mg  Mg0  1  0.76589700  0.83630200  0.44736100  1
  Zr  Zr0  1  0.25730700  0.95687900  0.08673600  1
  Zr  Zr1  1  0.74556900  0.05314900  0.88630200  1
  H  H0  1  0.15325700  0.61799300  0.57404900  1
  H  H1  1  0.53323600  0.22151600  0.43799900  1
  H  H2  1  0.85958200  0.37585900  0.44560800  1
  H  H3  1  0.39693500  0.83033700  0.54271500  1
  H  H4  1  0.37949900  0.47145100  0.32697100  1
  H  H5  1  0.01223400  0.66953600  0.77964600  1
  H  H6  1  0.56591500  0.58069900  0.63854400  1
  H  H7  1  0.08522900  0.24170100  0.35801500  1
  H  H8  1  0.03798500  0.42000900  0.82567800  1
  H  H9  1  0.48562500  0.33109300  0.16699200  1
  H  H10  1  0.95907500  0.50552600  0.19320100  1
  H  H11  1  0.50481900  0.70829700  0.83432000  1
  O  O0  1  0.98889600  0.38503400  0.34926200  1
  O  O1  1  0.53313900  0.72148600  0.63741200  1
  O  O2  1  0.02454800  0.61449600  0.66482000  1
  O  O3  1  0.42305300  0.33223100  0.31789900  1
  F  F0  1  0.22173800  0.01413000  0.37762300  1
  F  F1  1  0.70103700  0.36704100  0.59833900  1
  F  F2  1  0.73114000  0.02318200  0.57252300  1
  F  F3  1  0.30809900  0.65049500  0.38316400  1
  F  F4  1  0.07258500  0.02536200  0.80974800  1
  F  F5  1  0.60437900  0.87270300  0.20665100  1
  F  F6  1  0.93246800  0.94165700  0.19932900  1
  F  F7  1  0.41098500  0.13165200  0.81366400  1
  F  F8  1  0.02696100  0.29524800  0.97409000  1
  F  F9  1  0.57147600  0.28950800  0.00043800  1
  F  F10  1  0.93871800  0.70655600  0.97635000  1
  F  F11  1  0.48157500  0.70172700  0.99419200  1
loop_
_geom_bond_atom_site_label_1
_geom_bond_atom_site_label_2
_geom_bond_distance
_geom_bond_site_symmetry_2
Mg0 O2 2.086592 1_655
Mg0 O1 2.134948 1_555
H0 O2 1.018081 1_555
H1 O3 1.003081 1_555
H2 O0 1.044192 1_555
H3 O1 1.031774 1_555
H4 O3 1.021709 1_555
H5 O2 1.038421 1_555
H6 O1 1.011388 1_555
H7 O0 1.017287 1_455
H8 O2 1.360028 1_555
H9 O3 1.071879 1_555
H10 O0 1.020966 1_555
H11 O1 1.305470 1_555
F0 H3 1.521093 1_545
F0 H7 1.577650 1_555
F0 Zr0 2.208122 1_545
F1 H2 1.410653 1_555
F1 Zr1 2.232741 1_555
F2 H1 1.571170 1_555
F2 Mg0 1.921843 1_545
F2 Zr1 2.300110 1_555
F3 H4 1.482300 1_555
F3 H0 1.566992 1_555
F3 Zr0 2.217204 1_555
F4 Zr0 2.190916 1_546
F4 Zr1 2.206590 1_455
F5 Mg0 1.985579 1_555
F5 Zr1 2.316973 1_564
F5 Zr0 2.399262 1_555
F6 Mg0 1.951014 1_555
F6 Zr1 2.296863 1_564
F6 Zr0 2.310162 1_655
F7 Zr0 2.166544 1_546
F7 Zr1 2.227851 1_555
F8 H8 1.046139 1_555
F8 Zr0 2.263625 1_546
F9 H9 1.332138 1_555
F9 Zr1 2.171993 1_554
F10 H5 1.493469 1_655
F10 H10 1.542587 1_556
F10 Zr1 2.273161 1_565
F11 H11 1.071450 1_555
F11 Zr0 2.271810 1_556
