# generated using pymatgen
data_Sr4CaSm2Ta2O12
_symmetry_space_group_name_H-M   'P 1'
_cell_length_a   6.34886287
_cell_length_b   6.33647211
_cell_length_c   8.25429171
_cell_angle_alpha   85.50699209
_cell_angle_beta   94.55635288
_cell_angle_gamma   95.30744143
_symmetry_Int_Tables_number   1
_chemical_formula_structural   Sr4CaSm2Ta2O12
_chemical_formula_sum   'Sr4 Ca1 Sm2 Ta2 O12'
_cell_volume   328.75247917
_cell_formula_units_Z   1
loop_
 _symmetry_equiv_pos_site_id
 _symmetry_equiv_pos_as_xyz
  1  'x, y, z'
loop_
 _atom_site_type_symbol
 _atom_site_label
 _atom_site_symmetry_multiplicity
 _atom_site_fract_x
 _atom_site_fract_y
 _atom_site_fract_z
 _atom_site_occupancy
  Sr  Sr0  1  0.14607600  0.39519100  0.17628300  1
  Sr  Sr1  1  0.03073800  0.56824600  0.74790800  1
  Sr  Sr2  1  0.38822500  0.92213300  0.26237600  1
  Sr  Sr3  1  0.45825200  0.96664100  0.75617000  1
  Ca  Ca0  1  0.85762200  0.66933800  0.33365100  1
  Sm  Sm0  1  0.92593500  0.10617500  0.49560700  1
  Sm  Sm1  1  0.58357600  0.44956500  0.00169800  1
  Ta  Ta0  1  0.00071800  0.98722900  0.97906600  1
  Ta  Ta1  1  0.46370400  0.50234700  0.51336600  1
  O  O0  1  0.99679000  0.00670000  0.22909300  1
  O  O1  1  0.05524400  0.97300100  0.74391400  1
  O  O2  1  0.51014200  0.54267900  0.26726500  1
  O  O3  1  0.42984300  0.55128800  0.74367500  1
  O  O4  1  0.17690500  0.73790500  0.02101700  1
  O  O5  1  0.86387900  0.26853900  0.94171800  1
  O  O6  1  0.30400000  0.22714100  0.48965400  1
  O  O7  1  0.65559800  0.82965400  0.50300100  1
  O  O8  1  0.31246700  0.17128600  0.00520000  1
  O  O9  1  0.73692000  0.80268500  0.96644700  1
  O  O10  1  0.19578100  0.65514600  0.45849900  1
  O  O11  1  0.75133500  0.38585900  0.55189000  1
loop_
_geom_bond_atom_site_label_1
_geom_bond_atom_site_label_2
_geom_bond_distance
_geom_bond_site_symmetry_2
Ca0 O10 2.312802 1_655
Ca0 O2 2.315290 1_555
Ca0 O7 2.319365 1_555
Ca0 O0 2.361760 1_565
Ca0 O11 2.527626 1_555
O0 Ta0 2.079360 1_644
O0 Sm0 2.422002 1_555
O0 Sr0 2.571770 1_655
O0 Sr2 2.579437 1_645
O1 Ta0 2.008842 1_555
O1 Sm0 2.275252 1_465
O1 Sr1 2.552807 1_555
O1 Sr3 2.556525 1_555
O2 Ta1 2.068492 1_555
O2 Sm1 2.405522 1_555
O2 Sr0 2.492894 1_555
O2 Sr2 2.589601 1_555
O3 Ta1 1.981404 1_555
O3 Sm1 2.339908 1_556
O3 Sr1 2.549167 1_555
O3 Sr3 2.630908 1_555
O4 Ta0 2.011641 1_554
O4 Sr0 2.433484 1_555
O4 Sr2 2.604177 1_555
O4 Sr1 2.638487 1_554
O5 Ta0 2.045727 1_645
O5 Sm1 2.309649 1_556
O5 Sr1 2.590194 1_655
O5 Sr0 2.651235 1_656
O6 Ta1 1.949918 1_555
O6 Sm0 2.454336 1_455
O6 Sr3 2.812672 1_545
O6 Sr0 2.860749 1_555
O6 Sr2 2.908479 1_545
O7 Ta1 2.305270 1_555
O7 Sm0 2.337339 1_565
O7 Sr2 2.576021 1_555
O7 Sr3 2.755289 1_555
O8 Ta0 2.206513 1_544
O8 Sm1 2.347587 1_555
O8 Sr0 2.439526 1_555
O8 Sr2 2.585204 1_545
O8 Sr3 2.775872 1_544
O9 Ta0 1.952514 1_655
O9 Sm1 2.362001 1_556
O9 Sr3 2.606093 1_555
O10 Ta1 2.037042 1_555
O10 Sr2 2.545251 1_555
O10 Sr1 2.681923 1_555
O10 Sr0 2.937279 1_555
O11 Ta1 2.025098 1_555
O11 Sm0 2.271477 1_555
O11 Sr1 2.560840 1_655
