# generated using pymatgen
data_Mn3Cr3O8
_symmetry_space_group_name_H-M   'P 1'
_cell_length_a   6.10448721
_cell_length_b   6.10448721
_cell_length_c   6.10448701
_cell_angle_alpha   59.83185636
_cell_angle_beta   59.83185636
_cell_angle_gamma   59.83185474
_symmetry_Int_Tables_number   1
_chemical_formula_structural   Mn3Cr3O8
_chemical_formula_sum   'Mn3 Cr3 O8'
_cell_volume   160.24039262
_cell_formula_units_Z   1
loop_
 _symmetry_equiv_pos_site_id
 _symmetry_equiv_pos_as_xyz
  1  'x, y, z'
loop_
 _atom_site_type_symbol
 _atom_site_label
 _atom_site_symmetry_multiplicity
 _atom_site_fract_x
 _atom_site_fract_y
 _atom_site_fract_z
 _atom_site_occupancy
  Mn  Mn0  1  0.62471200  0.62471200  0.62471200  1
  Mn  Mn1  1  0.37528800  0.37528800  0.37528800  1
  Mn  Mn2  1  0.00000000  0.00000000  0.00000000  1
  Cr  Cr0  1  0.00000000  0.50000000  0.00000000  1
  Cr  Cr1  1  0.50000000  0.00000000  0.00000000  1
  Cr  Cr2  1  0.00000000  0.00000000  0.50000000  1
  O  O0  1  0.23630800  0.23630800  0.23630800  1
  O  O1  1  0.24009900  0.78850900  0.24009900  1
  O  O2  1  0.78850900  0.24009900  0.24009900  1
  O  O3  1  0.24009900  0.24009900  0.78850900  1
  O  O4  1  0.76369200  0.76369200  0.76369200  1
  O  O5  1  0.75990100  0.21149100  0.75990100  1
  O  O6  1  0.21149100  0.75990100  0.75990100  1
  O  O7  1  0.75990100  0.75990100  0.21149100  1
loop_
_geom_bond_atom_site_label_1
_geom_bond_atom_site_label_2
_geom_bond_distance
_geom_bond_site_symmetry_2
Mn0 O7 2.055493 1_555
Mn0 O6 2.055494 1_555
Mn0 O5 2.055494 1_555
Mn0 O4 2.080788 1_555
Mn1 O3 2.055493 1_555
Mn1 O2 2.055494 1_555
Mn1 O1 2.055494 1_555
Mn1 O0 2.080788 1_555
Mn2 O2 2.078132 1_455
Mn2 O1 2.078132 1_545
Mn2 O5 2.078132 1_454
Mn2 O6 2.078132 1_544
Mn2 O3 2.078132 1_554
Mn2 O7 2.078132 1_445
Cr0 O7 2.037608 1_455
Cr0 O3 2.037608 1_554
Cr0 O6 2.037608 1_554
Cr0 O2 2.037608 1_455
Cr0 O0 2.043713 1_555
Cr0 O4 2.043713 1_454
Cr1 O7 2.037608 1_545
Cr1 O3 2.037608 1_554
Cr1 O5 2.037608 1_554
Cr1 O1 2.037608 1_545
Cr1 O0 2.043713 1_555
Cr1 O4 2.043713 1_544
Cr2 O5 2.037608 1_455
Cr2 O6 2.037608 1_545
Cr2 O2 2.037608 1_455
Cr2 O1 2.037608 1_545
Cr2 O0 2.043714 1_555
Cr2 O4 2.043714 1_445
