# generated using pymatgen
data_K15W7N19
_symmetry_space_group_name_H-M   'P 1'
_cell_length_a   6.87294100
_cell_length_b   12.63784558
_cell_length_c   19.79018224
_cell_angle_alpha   90.70609430
_cell_angle_beta   94.25189423
_cell_angle_gamma   99.88396900
_symmetry_Int_Tables_number   1
_chemical_formula_structural   K15W7N19
_chemical_formula_sum   'K30 W14 N38'
_cell_volume   1688.23505376
_cell_formula_units_Z   2
loop_
 _symmetry_equiv_pos_site_id
 _symmetry_equiv_pos_as_xyz
  1  'x, y, z'
loop_
 _atom_site_type_symbol
 _atom_site_label
 _atom_site_symmetry_multiplicity
 _atom_site_fract_x
 _atom_site_fract_y
 _atom_site_fract_z
 _atom_site_occupancy
  K  K0  1  0.52471100  0.62494100  0.43972800  1
  K  K1  1  0.47528900  0.37505900  0.56027200  1
  K  K2  1  0.60713700  0.13250900  0.65187700  1
  K  K3  1  0.39286300  0.86749100  0.34812300  1
  K  K4  1  0.72149300  0.01690300  0.18892700  1
  K  K5  1  0.27850700  0.98309700  0.81107300  1
  K  K6  1  0.93494700  0.03567300  0.37154600  1
  K  K7  1  0.06505300  0.96432700  0.62845400  1
  K  K8  1  0.77795400  0.75433000  0.28217600  1
  K  K9  1  0.22204600  0.24567000  0.71782400  1
  K  K10  1  0.85160100  0.16510000  0.83532100  1
  K  K11  1  0.14839900  0.83490000  0.16467900  1
  K  K12  1  0.87545600  0.90157100  0.89936100  1
  K  K13  1  0.12454400  0.09842900  0.10063900  1
  K  K14  1  0.72276400  0.08191700  0.00261800  1
  K  K15  1  0.27723600  0.91808300  0.99738200  1
  K  K16  1  0.63742800  0.90553900  0.52191900  1
  K  K17  1  0.36257200  0.09446100  0.47808100  1
  K  K18  1  0.60381300  0.45528000  0.28710000  1
  K  K19  1  0.39618700  0.54472000  0.71290000  1
  K  K20  1  0.97190200  0.34471600  0.01352900  1
  K  K21  1  0.02809800  0.65528400  0.98647100  1
  K  K22  1  0.92281300  0.67466100  0.78944900  1
  K  K23  1  0.07718700  0.32533900  0.21055100  1
  K  K24  1  0.72346200  0.24640100  0.39528900  1
  K  K25  1  0.27653800  0.75359900  0.60471100  1
  K  K26  1  0.60584000  0.37970800  0.84084000  1
  K  K27  1  0.39416000  0.62029200  0.15916000  1
  K  K28  1  0.00000000  0.50000000  0.50000000  1
  K  K29  1  0.50000000  0.50000000  0.00000000  1
  W  W0  1  0.57690400  0.27107200  0.12268600  1
  W  W1  1  0.42309600  0.72892800  0.87731400  1
  W  W2  1  0.85930000  0.41403700  0.68628200  1
  W  W3  1  0.14070000  0.58596300  0.31371800  1
  W  W4  1  0.75061400  0.66338700  0.60656200  1
  W  W5  1  0.24938600  0.33661300  0.39343800  1
  W  W6  1  0.99966600  0.77445500  0.44938900  1
  W  W7  1  0.00033400  0.22554500  0.55061100  1
  W  W8  1  0.86570200  0.54928100  0.14131000  1
  W  W9  1  0.13429800  0.45071900  0.85869000  1
  W  W10  1  0.65232400  0.87855800  0.72823800  1
  W  W11  1  0.34767600  0.12144200  0.27176200  1
  W  W12  1  0.68340100  0.79099900  0.05580400  1
  W  W13  1  0.31659900  0.20900100  0.94419600  1
  N  N0  1  0.79164500  0.20827700  0.11810100  1
  N  N1  1  0.20835500  0.79172300  0.88189900  1
  N  N2  1  0.93857900  0.32835500  0.61798400  1
  N  N3  1  0.06142100  0.67164500  0.38201600  1
  N  N4  1  0.56002400  0.07038700  0.31059300  1
  N  N5  1  0.43997600  0.92961300  0.68940700  1
  N  N6  1  0.57834300  0.79454900  0.80842000  1
  N  N7  1  0.42165700  0.20545100  0.19158000  1
  N  N8  1  0.66003300  0.42410800  0.14117300  1
  N  N9  1  0.33996700  0.57589200  0.85882700  1
  N  N10  1  0.50012000  0.39668900  0.42166800  1
  N  N11  1  0.49988000  0.60331100  0.57833200  1
  N  N12  1  0.78052700  0.12503000  0.52558600  1
  N  N13  1  0.21947300  0.87497000  0.47441400  1
  N  N14  1  0.89647300  0.70258200  0.52985700  1
  N  N15  1  0.10352700  0.29741800  0.47014300  1
  N  N16  1  0.90352400  0.89450800  0.05475700  1
  N  N17  1  0.09647600  0.10549200  0.94524300  1
  N  N18  1  0.80147500  0.83540600  0.40895700  1
  N  N19  1  0.19852500  0.16459400  0.59104300  1
  N  N20  1  0.74762200  0.78556700  0.66162600  1
  N  N21  1  0.25237800  0.21443300  0.33837400  1
  N  N22  1  0.93569200  0.48020700  0.90546300  1
  N  N23  1  0.06430800  0.51979300  0.09453700  1
  N  N24  1  0.57560400  0.75537200  0.96232500  1
  N  N25  1  0.42439600  0.24462800  0.03767500  1
  N  N26  1  0.75823100  0.66218800  0.09857000  1
  N  N27  1  0.24176900  0.33781200  0.90143000  1
  N  N28  1  0.85292400  0.99099100  0.75161900  1
  N  N29  1  0.14707600  0.00900900  0.24838100  1
  N  N30  1  0.96610600  0.58995500  0.23263700  1
  N  N31  1  0.03389400  0.41004500  0.76736300  1
  N  N32  1  0.87279100  0.55893000  0.65814000  1
  N  N33  1  0.12720900  0.44107000  0.34186000  1
  N  N34  1  0.60941500  0.35976200  0.70480400  1
  N  N35  1  0.39058500  0.64023800  0.29519600  1
  N  N36  1  0.49967600  0.84023700  0.10456800  1
  N  N37  1  0.50032400  0.15976300  0.89543200  1
loop_
_geom_bond_atom_site_label_1
_geom_bond_atom_site_label_2
_geom_bond_distance
_geom_bond_site_symmetry_2
K0 N11 2.774846 1_555
K0 N10 2.876727 1_555
K0 N35 2.958443 1_555
K0 N14 3.015486 1_555
K0 N18 3.088452 1_555
K1 N10 2.774846 1_555
K1 N11 2.876727 1_555
K1 N34 2.958443 1_555
K1 N15 3.015486 1_555
K1 N19 3.088452 1_555
K2 N5 2.758378 1_545
K2 N12 2.854854 1_555
K2 N34 3.041985 1_555
K2 N19 3.066329 1_555
K2 N2 3.177569 1_555
K2 N28 3.252452 1_545
K3 N4 2.758378 1_565
K3 N13 2.854854 1_555
K3 N35 3.041985 1_555
K3 N18 3.066329 1_555
K3 N3 3.177569 1_555
K3 N29 3.252452 1_565
K4 N0 2.798206 1_555
K4 N4 2.845971 1_555
K4 N36 2.908333 1_545
K4 N29 3.089136 1_655
K5 N1 2.798206 1_555
K5 N5 2.845971 1_555
K5 N37 2.908333 1_565
K5 N28 3.089136 1_455
K6 N18 2.673044 1_545
K6 N4 2.868415 1_555
K6 N21 2.975112 1_655
K6 N29 2.975860 1_655
K7 N19 2.673044 1_565
K7 N5 2.868415 1_555
K7 N20 2.975112 1_455
K7 N28 2.975860 1_455
K8 N18 2.681566 1_555
K8 N30 2.829985 1_555
K8 N35 2.833122 1_555
K8 N3 2.995099 1_655
K9 N19 2.681566 1_555
K9 N31 2.829985 1_555
K9 N34 2.833122 1_555
K9 N2 2.995099 1_455
K10 N28 2.739501 1_545
K10 N37 2.760533 1_555
K10 N17 2.839900 1_655
K10 N27 3.326685 1_655
K11 N29 2.739501 1_565
K11 N36 2.760533 1_555
K11 N16 2.839900 1_455
K11 N26 3.326685 1_455
K12 N6 2.772216 1_555
K12 N17 2.857866 1_665
K12 N24 2.888587 1_555
K12 N1 2.911602 1_655
K12 N16 3.070416 1_556
K12 N28 3.150282 1_555
K13 N7 2.772216 1_555
K13 N16 2.857866 1_445
K13 N25 2.888587 1_555
K13 N0 2.911602 1_455
K13 N17 3.070416 1_554
K13 N29 3.150282 1_555
K14 N0 2.736335 1_555
K14 N37 2.809214 1_554
K14 N17 2.855401 1_654
K14 N16 3.016286 1_545
K14 N25 3.246301 1_555
K15 N1 2.736335 1_555
K15 N36 2.809214 1_556
K15 N16 2.855401 1_456
K15 N17 3.016286 1_565
K15 N24 3.246301 1_555
K16 N12 2.777572 1_565
K16 N18 2.778926 1_555
K16 N13 2.914519 1_555
K16 N14 3.362979 1_555
K17 N13 2.777572 1_545
K17 N19 2.778926 1_555
K17 N12 2.914519 1_555
K17 N15 3.362979 1_555
K18 N10 2.880503 1_555
K18 N8 2.972251 1_555
K18 N35 2.973003 1_555
K18 N30 3.040882 1_555
K19 N11 2.880503 1_555
K19 N9 2.972251 1_555
K19 N34 2.973003 1_555
K19 N31 3.040882 1_555
K20 N23 2.673619 1_655
K20 N22 2.779459 1_554
K20 N0 2.919869 1_555
K20 N27 3.005049 1_654
K21 N22 2.673619 1_455
K21 N23 2.779459 1_556
K21 N1 2.919869 1_555
K21 N26 3.005049 1_456
K22 N1 2.791358 1_655
K22 N32 2.934529 1_555
K22 N6 3.064470 1_555
K22 N20 3.166784 1_555
K22 N22 3.391457 1_555
K23 N0 2.791358 1_455
K23 N33 2.934529 1_555
K23 N7 3.064470 1_555
K23 N21 3.166784 1_555
K23 N23 3.391457 1_555
K24 N10 2.707675 1_555
K24 N4 2.791145 1_555
K24 N15 2.873681 1_655
K24 N12 3.051198 1_555
K25 N11 2.707675 1_555
K25 N5 2.791145 1_555
K25 N14 2.873681 1_455
K25 N13 3.051198 1_555
K26 N22 2.632449 1_555
K26 N34 2.703178 1_555
K26 N27 2.825787 1_555
K26 N37 2.986245 1_555
K27 N23 2.632449 1_555
K27 N35 2.703178 1_555
K27 N26 2.825787 1_555
K27 N36 2.986245 1_555
K28 N14 2.839100 1_455
K28 N15 2.839100 1_555
K28 N2 3.208150 1_455
K28 N3 3.208150 1_555
K29 N26 3.048888 1_555
K29 N27 3.048888 1_554
K29 N8 3.147658 1_555
K29 N9 3.147658 1_554
K29 N24 3.283710 1_554
K29 N25 3.283710 1_555
N0 W0 1.799027 1_555
N1 W1 1.799027 1_555
N2 W2 1.889979 1_555
N2 W7 1.968912 1_655
N3 W3 1.889979 1_555
N3 W6 1.968912 1_455
N4 W11 1.818261 1_555
N5 W10 1.818261 1_555
N6 W1 1.903938 1_555
N6 W10 1.969658 1_555
N7 W0 1.903938 1_555
N7 W11 1.969658 1_555
N8 W8 1.931902 1_555
N8 W0 1.942428 1_555
N9 W9 1.931902 1_555
N9 W1 1.942428 1_555
N10 W5 1.804400 1_555
N11 W4 1.804400 1_555
N12 W7 1.831917 1_655
N13 W6 1.831917 1_455
N14 W4 1.904831 1_555
N14 W6 1.961125 1_555
N15 W5 1.904831 1_555
N15 W7 1.961125 1_555
N16 W12 1.823834 1_555
N17 W13 1.823834 1_555
N18 W6 1.817375 1_555
N19 W7 1.817375 1_555
N20 W4 1.882790 1_555
N20 W10 1.975355 1_555
N21 W5 1.882790 1_555
N21 W11 1.975355 1_555
N22 W9 1.792327 1_655
N23 W8 1.792327 1_455
N24 W1 1.909234 1_555
N24 W12 1.958499 1_556
N25 W0 1.909234 1_555
N25 W13 1.958499 1_554
N26 W8 1.896315 1_555
N26 W12 1.971722 1_555
N27 W9 1.896315 1_555
N27 W13 1.971722 1_555
N28 W10 1.830462 1_555
N29 W11 1.830462 1_555
N30 W8 1.917661 1_555
N30 W3 1.937656 1_655
N31 W9 1.917661 1_555
N31 W2 1.937656 1_455
N32 W2 1.909538 1_555
N32 W4 1.943296 1_555
N33 W3 1.909538 1_555
N33 W5 1.943296 1_555
N34 W2 1.802660 1_555
N35 W3 1.802660 1_555
N36 W12 1.829937 1_555
N37 W13 1.829937 1_555
