# generated using pymatgen
data_Ca8Zn3Co(Si2O7)4
_symmetry_space_group_name_H-M   'P 1'
_cell_length_a   11.20088600
_cell_length_b   11.20088600
_cell_length_c   5.04397400
_cell_angle_alpha   90.00000000
_cell_angle_beta   90.00000000
_cell_angle_gamma   90.00000000
_symmetry_Int_Tables_number   1
_chemical_formula_structural   Ca8Zn3Co(Si2O7)4
_chemical_formula_sum   'Ca8 Zn3 Co1 Si8 O28'
_cell_volume   632.81620725
_cell_formula_units_Z   1
loop_
 _symmetry_equiv_pos_site_id
 _symmetry_equiv_pos_as_xyz
  1  'x, y, z'
loop_
 _atom_site_type_symbol
 _atom_site_label
 _atom_site_symmetry_multiplicity
 _atom_site_fract_x
 _atom_site_fract_y
 _atom_site_fract_z
 _atom_site_occupancy
  Ca  Ca0  1  0.24994000  0.08154000  0.50642000  1
  Ca  Ca1  1  0.74993400  0.58160300  0.50652900  1
  Ca  Ca2  1  0.41839700  0.74993400  0.49347100  1
  Ca  Ca3  1  0.91846000  0.24994000  0.49358000  1
  Ca  Ca4  1  0.75006000  0.91846000  0.50642000  1
  Ca  Ca5  1  0.25006600  0.41839700  0.50652900  1
  Ca  Ca6  1  0.58160300  0.25006600  0.49347100  1
  Ca  Ca7  1  0.08154000  0.75006000  0.49358000  1
  Zn  Zn0  1  0.50000000  0.00000000  0.99980300  1
  Zn  Zn1  1  0.00000000  0.50000000  0.00019700  1
  Zn  Zn2  1  0.00000000  0.00000000  0.00000000  1
  Co  Co0  1  0.50000000  0.50000000  0.00000000  1
  Si  Si0  1  0.24997800  0.89045300  0.93737500  1
  Si  Si1  1  0.75014300  0.39036100  0.93681400  1
  Si  Si2  1  0.60963900  0.75014300  0.06318600  1
  Si  Si3  1  0.10954700  0.24997800  0.06262500  1
  Si  Si4  1  0.75002200  0.10954700  0.93737500  1
  Si  Si5  1  0.24985700  0.60963900  0.93681400  1
  Si  Si6  1  0.39036100  0.24985700  0.06318600  1
  Si  Si7  1  0.89045300  0.75002200  0.06262500  1
  O  O0  1  0.24991400  0.24986000  0.18186400  1
  O  O1  1  0.75008600  0.75014000  0.18186400  1
  O  O2  1  0.24986000  0.75008600  0.81813600  1
  O  O3  1  0.75014000  0.24991400  0.81813600  1
  O  O4  1  0.36518100  0.94878400  0.78175200  1
  O  O5  1  0.86544200  0.44863600  0.78154600  1
  O  O6  1  0.55131800  0.63499400  0.21881100  1
  O  O7  1  0.05119800  0.13477600  0.21825100  1
  O  O8  1  0.63481900  0.05121600  0.78175200  1
  O  O9  1  0.13455800  0.55136400  0.78154600  1
  O  O10  1  0.44868200  0.36500600  0.21881100  1
  O  O11  1  0.94880200  0.86522400  0.21825100  1
  O  O12  1  0.44863600  0.13455800  0.21845400  1
  O  O13  1  0.94878400  0.63481900  0.21824800  1
  O  O14  1  0.86522400  0.05119800  0.78174900  1
  O  O15  1  0.36500600  0.55131800  0.78118900  1
  O  O16  1  0.55136400  0.86544200  0.21845400  1
  O  O17  1  0.05121600  0.36518100  0.21824800  1
  O  O18  1  0.13477600  0.94880200  0.78174900  1
  O  O19  1  0.63499400  0.44868200  0.78118900  1
  O  O20  1  0.24997300  0.89069900  0.25690200  1
  O  O21  1  0.74971800  0.39086000  0.25645100  1
  O  O22  1  0.60914000  0.74971800  0.74354900  1
  O  O23  1  0.10930100  0.24997300  0.74309800  1
  O  O24  1  0.75002700  0.10930100  0.25690200  1
  O  O25  1  0.25028200  0.60914000  0.25645100  1
  O  O26  1  0.39086000  0.25028200  0.74354900  1
  O  O27  1  0.89069900  0.75002700  0.74309800  1
loop_
_geom_bond_atom_site_label_1
_geom_bond_atom_site_label_2
_geom_bond_distance
_geom_bond_site_symmetry_2
Ca0 O18 2.408962 1_545
Ca0 O4 2.409557 1_545
Ca0 O20 2.480577 1_545
Ca0 O0 2.496882 1_555
Ca0 O12 2.723152 1_555
Ca0 O7 2.724653 1_555
Ca0 O23 2.732383 1_555
Ca0 O26 2.737582 1_555
Ca1 O19 2.406942 1_555
Ca1 O5 2.411705 1_555
Ca1 O21 2.481067 1_555
Ca1 O1 2.499079 1_555
Ca1 O6 2.722668 1_555
Ca1 O13 2.725894 1_555
Ca1 O22 2.731682 1_555
Ca1 O27 2.732888 1_555
Ca2 O6 2.406942 1_555
Ca2 O16 2.411705 1_555
Ca2 O22 2.481067 1_555
Ca2 O2 2.499079 1_555
Ca2 O15 2.722668 1_555
Ca2 O4 2.725894 1_555
Ca2 O25 2.731682 1_555
Ca2 O20 2.732888 1_555
Ca3 O7 2.408962 1_655
Ca3 O17 2.409557 1_655
Ca3 O23 2.480577 1_655
Ca3 O3 2.496882 1_555
Ca3 O5 2.723152 1_555
Ca3 O14 2.724653 1_555
Ca3 O24 2.732383 1_555
Ca3 O21 2.737582 1_555
Ca4 O14 2.408962 1_565
Ca4 O8 2.409557 1_565
Ca4 O24 2.480577 1_565
Ca4 O1 2.496882 1_555
Ca4 O16 2.723152 1_555
Ca4 O11 2.724653 1_555
Ca4 O27 2.732383 1_555
Ca4 O22 2.737582 1_555
Ca5 O15 2.406942 1_555
Ca5 O9 2.411705 1_555
Ca5 O25 2.481067 1_555
Ca5 O0 2.499079 1_555
Ca5 O10 2.722668 1_555
Ca5 O17 2.725894 1_555
Ca5 O26 2.731682 1_555
Ca5 O23 2.732888 1_555
Ca6 O10 2.406942 1_555
Ca6 O12 2.411705 1_555
Ca6 O26 2.481067 1_555
Ca6 O3 2.499079 1_555
Ca6 O19 2.722668 1_555
Ca6 O8 2.725894 1_555
Ca6 O21 2.731682 1_555
Ca6 O24 2.732888 1_555
Ca7 O11 2.408962 1_455
Ca7 O13 2.409557 1_455
Ca7 O27 2.480577 1_455
Ca7 O2 2.496882 1_555
Ca7 O9 2.723152 1_555
Ca7 O18 2.724653 1_555
Ca7 O20 2.732383 1_555
Ca7 O25 2.737582 1_555
Co0 O19 1.958267 1_554
Co0 O6 1.958267 1_555
Co0 O15 1.958267 1_554
Co0 O10 1.958267 1_555
O0 Si6 1.683174 1_555
O0 Si3 1.683345 1_555
O1 Si2 1.683174 1_555
O1 Si7 1.683345 1_555
O2 Si5 1.683174 1_555
O2 Si0 1.683345 1_555
O3 Si1 1.683174 1_555
O3 Si4 1.683345 1_555
O4 Si0 1.645633 1_555
O4 Zn0 1.954258 1_565
O5 Si1 1.645374 1_555
O5 Zn1 1.954194 1_656
O6 Si2 1.645119 1_555
O7 Si3 1.645711 1_555
O7 Zn2 1.954395 1_555
O8 Si4 1.645633 1_555
O8 Zn0 1.954258 1_555
O9 Si5 1.645374 1_555
O9 Zn1 1.954194 1_556
O10 Si6 1.645119 1_555
O11 Si7 1.645711 1_555
O11 Zn2 1.954395 1_665
O12 Si6 1.645374 1_555
O12 Zn0 1.954194 1_554
O13 Si7 1.645633 1_555
O13 Zn1 1.954258 1_655
O14 Si4 1.645711 1_555
O14 Zn2 1.954395 1_656
O15 Si5 1.645119 1_555
O16 Si2 1.645374 1_555
O16 Zn0 1.954194 1_564
O17 Si3 1.645633 1_555
O17 Zn1 1.954258 1_555
O18 Si0 1.645711 1_555
O18 Zn2 1.954395 1_566
O19 Si1 1.645119 1_555
O20 Si0 1.611688 1_554
O21 Si1 1.612257 1_554
O22 Si2 1.612257 1_556
O23 Si3 1.611688 1_556
O24 Si4 1.611688 1_554
O25 Si5 1.612257 1_554
O26 Si6 1.612257 1_556
O27 Si7 1.611688 1_556
