# generated using pymatgen
data_Li7Mn5O12
_symmetry_space_group_name_H-M   'P 1'
_cell_length_a   2.98619700
_cell_length_b   8.21058051
_cell_length_c   9.92736157
_cell_angle_alpha   114.32779539
_cell_angle_beta   93.10735254
_cell_angle_gamma   90.95876355
_symmetry_Int_Tables_number   1
_chemical_formula_structural   Li7Mn5O12
_chemical_formula_sum   'Li7 Mn5 O12'
_cell_volume   221.25949469
_cell_formula_units_Z   1
loop_
 _symmetry_equiv_pos_site_id
 _symmetry_equiv_pos_as_xyz
  1  'x, y, z'
loop_
 _atom_site_type_symbol
 _atom_site_label
 _atom_site_symmetry_multiplicity
 _atom_site_fract_x
 _atom_site_fract_y
 _atom_site_fract_z
 _atom_site_occupancy
  Li  Li0  1  0.99294700  0.85189800  0.16585700  1
  Li  Li1  1  0.48683800  0.84087200  0.67876400  1
  Li  Li2  1  0.51316200  0.15912800  0.32123600  1
  Li  Li3  1  0.00705300  0.14810200  0.83414300  1
  Li  Li4  1  0.00000000  0.50000000  0.50000000  1
  Li  Li5  1  0.50000000  0.50000000  0.00000000  1
  Li  Li6  1  0.50000000  0.00000000  0.00000000  1
  Mn  Mn0  1  0.99191900  0.67972100  0.83888000  1
  Mn  Mn1  1  0.00808100  0.32027900  0.16112000  1
  Mn  Mn2  1  0.51005500  0.66520900  0.32744900  1
  Mn  Mn3  1  0.00000000  0.00000000  0.50000000  1
  Mn  Mn4  1  0.48994500  0.33479100  0.67255100  1
  O  O0  1  0.51833600  0.73979800  0.97781300  1
  O  O1  1  0.97035700  0.75271600  0.49023700  1
  O  O2  1  0.99477200  0.10282000  0.16999400  1
  O  O3  1  0.46236900  0.08888400  0.66437300  1
  O  O4  1  0.52957800  0.41400000  0.31373200  1
  O  O5  1  0.95931700  0.42729500  0.82957400  1
  O  O6  1  0.53763200  0.91111600  0.33562700  1
  O  O7  1  0.00522800  0.89718000  0.83000600  1
  O  O8  1  0.02964300  0.24728400  0.50976300  1
  O  O9  1  0.48166400  0.26020200  0.02218700  1
  O  O10  1  0.47042200  0.58600000  0.68626800  1
  O  O11  1  0.04068300  0.57270500  0.17042600  1
loop_
_geom_bond_atom_site_label_1
_geom_bond_atom_site_label_2
_geom_bond_distance
_geom_bond_site_symmetry_2
Li0 O2 2.043549 1_565
Li0 O6 2.126252 1_555
Li0 O0 2.143495 1_554
Li0 O6 2.173401 1_655
Li0 O11 2.317992 1_655
Li0 O0 2.396606 1_654
Li1 O7 2.004133 1_655
Li1 O7 2.054471 1_555
Li1 O3 2.101404 1_565
Li1 O10 2.124271 1_555
Li1 O1 2.222386 1_455
Li1 O1 2.307231 1_555
Li2 O2 2.004133 1_455
Li2 O2 2.054471 1_555
Li2 O6 2.101404 1_545
Li2 O4 2.124271 1_555
Li2 O8 2.222386 1_655
Li2 O8 2.307231 1_555
Li3 O7 2.043549 1_545
Li3 O3 2.126254 1_555
Li3 O9 2.143495 1_556
Li3 O3 2.173399 1_455
Li3 O5 2.317992 1_455
Li3 O9 2.396606 1_456
Li4 O8 2.119796 1_555
Li4 O1 2.119796 1_455
Li4 O4 2.121493 1_455
Li4 O10 2.121493 1_555
Li4 O10 2.386937 1_455
Li4 O4 2.386937 1_555
Li5 O0 2.069542 1_554
Li5 O9 2.069542 1_555
Li5 O5 2.132366 1_554
Li5 O11 2.132366 1_555
Li5 O5 2.159899 1_454
Li5 O11 2.159899 1_655
Li6 O9 2.057493 1_555
Li6 O0 2.057493 1_544
Li6 O7 2.063432 1_544
Li6 O2 2.063432 1_555
Li6 O7 2.231974 1_644
Li6 O2 2.231974 1_455
Mn0 O7 1.823410 1_655
Mn0 O0 1.948129 1_655
Mn0 O0 1.954452 1_555
Mn0 O10 2.014001 1_555
Mn0 O5 2.036676 1_555
Mn0 O10 2.059172 1_655
Mn1 O2 1.823410 1_455
Mn1 O9 1.948129 1_455
Mn1 O9 1.954452 1_555
Mn1 O4 2.014001 1_555
Mn1 O11 2.036676 1_555
Mn1 O4 2.059172 1_455
Mn2 O11 1.929614 1_555
Mn2 O1 1.945949 1_555
Mn2 O6 1.987096 1_555
Mn2 O4 2.012366 1_555
Mn2 O11 2.202321 1_655
Mn2 O1 2.256040 1_455
Mn3 O6 1.960249 1_445
Mn3 O3 1.960251 1_555
Mn3 O1 1.992600 1_445
Mn3 O8 1.992600 1_555
Mn3 O3 2.261623 1_455
Mn3 O6 2.261625 1_545
Mn4 O5 1.929614 1_555
Mn4 O8 1.945949 1_555
Mn4 O3 1.987096 1_555
Mn4 O10 2.012366 1_555
Mn4 O5 2.202321 1_455
Mn4 O8 2.256040 1_655
