# generated using pymatgen
data_LiCo6(OF5)2
_symmetry_space_group_name_H-M   'P 1'
_cell_length_a   4.86145831
_cell_length_b   4.84387291
_cell_length_c   9.27961769
_cell_angle_alpha   89.57302614
_cell_angle_beta   89.69147713
_cell_angle_gamma   92.97467112
_symmetry_Int_Tables_number   1
_chemical_formula_structural   LiCo6(OF5)2
_chemical_formula_sum   'Li1 Co6 O2 F10'
_cell_volume   218.21495112
_cell_formula_units_Z   1
loop_
 _symmetry_equiv_pos_site_id
 _symmetry_equiv_pos_as_xyz
  1  'x, y, z'
loop_
 _atom_site_type_symbol
 _atom_site_label
 _atom_site_symmetry_multiplicity
 _atom_site_fract_x
 _atom_site_fract_y
 _atom_site_fract_z
 _atom_site_occupancy
  Li  Li0  1  0.48768800  0.99589600  0.01458200  1
  Co  Co0  1  0.97410600  0.94782800  0.99710700  1
  Co  Co1  1  0.02762000  0.03868700  0.32515600  1
  Co  Co2  1  0.99965500  0.00410300  0.65979200  1
  Co  Co3  1  0.50173100  0.49666500  0.16731500  1
  Co  Co4  1  0.50935200  0.49896300  0.83252900  1
  Co  Co5  1  0.49574100  0.50555700  0.48659800  1
  O  O0  1  0.31636600  0.33603400  0.31691700  1
  O  O1  1  0.67724300  0.66300600  0.00685700  1
  F  F0  1  0.22825900  0.82387700  0.15723300  1
  F  F1  1  0.21693600  0.82572000  0.83314700  1
  F  F2  1  0.21762200  0.83460300  0.49502900  1
  F  F3  1  0.27031000  0.29721400  0.00385200  1
  F  F4  1  0.28773700  0.32604700  0.66745500  1
  F  F5  1  0.71410000  0.68152900  0.65907700  1
  F  F6  1  0.72759000  0.70334700  0.31771100  1
  F  F7  1  0.76731300  0.16995200  0.15123600  1
  F  F8  1  0.76024700  0.15191400  0.83594100  1
  F  F9  1  0.80649400  0.19905900  0.49389600  1
loop_
_geom_bond_atom_site_label_1
_geom_bond_atom_site_label_2
_geom_bond_distance
_geom_bond_site_symmetry_2
Li0 O1 1.899906 1_555
Co0 O1 1.945371 1_556
Co0 F1 2.030985 1_655
Co0 F0 2.044131 1_656
Co0 F7 2.081745 1_566
Co0 F8 2.096723 1_565
Co0 F3 2.165927 1_666
Co1 O0 1.959120 1_555
Co1 F9 2.073066 1_455
Co1 F2 2.098230 1_545
Co1 F6 2.127813 1_445
Co1 F0 2.139014 1_545
Co1 F7 2.168091 1_455
Co2 F5 2.035617 1_545
Co2 F4 2.043136 1_655
Co2 F2 2.055758 1_645
Co2 F9 2.056559 1_555
Co2 F1 2.131316 1_645
Co2 F8 2.150015 1_555
Co3 O0 1.800654 1_555
Co3 O1 1.868530 1_555
Co3 F6 2.019624 1_555
Co3 F7 2.099343 1_555
Co3 F3 2.104143 1_555
Co3 F0 2.122787 1_555
Co4 O1 1.969918 1_556
Co4 F4 2.037645 1_555
Co4 F5 2.057592 1_555
Co4 F8 2.127700 1_555
Co4 F3 2.161493 1_556
Co4 F1 2.181656 1_555
Co5 O0 1.968180 1_555
Co5 F5 2.088032 1_555
Co5 F4 2.112807 1_555
Co5 F6 2.119189 1_555
Co5 F2 2.144519 1_555
Co5 F9 2.173333 1_555
F0 Li0 1.973255 1_555
F1 Li0 2.275656 1_556
F3 Li0 1.848246 1_545
F7 Li0 2.020488 1_545
F8 Li0 2.220050 1_546
