# generated using pymatgen
data_CaTi2P2O9
_symmetry_space_group_name_H-M   'P 1'
_cell_length_a   6.54618000
_cell_length_b   7.55637400
_cell_length_c   14.46136700
_cell_angle_alpha   90.00000000
_cell_angle_beta   90.00000000
_cell_angle_gamma   90.00000000
_symmetry_Int_Tables_number   1
_chemical_formula_structural   CaTi2P2O9
_chemical_formula_sum   'Ca4 Ti8 P8 O36'
_cell_volume   715.33707690
_cell_formula_units_Z   4
loop_
 _symmetry_equiv_pos_site_id
 _symmetry_equiv_pos_as_xyz
  1  'x, y, z'
loop_
 _atom_site_type_symbol
 _atom_site_label
 _atom_site_symmetry_multiplicity
 _atom_site_fract_x
 _atom_site_fract_y
 _atom_site_fract_z
 _atom_site_occupancy
  Ca  Ca0  1  0.75000000  0.89273400  0.77859200  1
  Ca  Ca1  1  0.75000000  0.60726600  0.27859200  1
  Ca  Ca2  1  0.25000000  0.39273400  0.72140800  1
  Ca  Ca3  1  0.25000000  0.10726600  0.22140800  1
  Ti  Ti0  1  0.75000000  0.34493200  0.88291500  1
  Ti  Ti1  1  0.25000000  0.65506800  0.11708500  1
  Ti  Ti2  1  0.25000000  0.84493200  0.61708500  1
  Ti  Ti3  1  0.75000000  0.15506800  0.38291500  1
  Ti  Ti4  1  0.50000000  0.00000000  0.00000000  1
  Ti  Ti5  1  0.50000000  0.50000000  0.50000000  1
  Ti  Ti6  1  0.00000000  0.50000000  0.50000000  1
  Ti  Ti7  1  0.00000000  0.00000000  0.00000000  1
  P  P0  1  0.25000000  0.35981600  0.93355700  1
  P  P1  1  0.75000000  0.64018400  0.06644300  1
  P  P2  1  0.75000000  0.85981600  0.56644300  1
  P  P3  1  0.25000000  0.14018400  0.43355700  1
  P  P4  1  0.75000000  0.38845500  0.69265600  1
  P  P5  1  0.75000000  0.11154500  0.19265600  1
  P  P6  1  0.25000000  0.88845500  0.80734400  1
  P  P7  1  0.25000000  0.61154500  0.30734400  1
  O  O0  1  0.05468000  0.60363400  0.36859900  1
  O  O1  1  0.55468000  0.39636600  0.63140100  1
  O  O2  1  0.94532000  0.10363400  0.13140100  1
  O  O3  1  0.44532000  0.89636600  0.86859900  1
  O  O4  1  0.94532000  0.39636600  0.63140100  1
  O  O5  1  0.44532000  0.60363400  0.36859900  1
  O  O6  1  0.05468000  0.89636600  0.86859900  1
  O  O7  1  0.55468000  0.10363400  0.13140100  1
  O  O8  1  0.25000000  0.32523300  0.48253800  1
  O  O9  1  0.75000000  0.67476700  0.51746200  1
  O  O10  1  0.75000000  0.82523300  0.01746200  1
  O  O11  1  0.25000000  0.17476700  0.98253800  1
  O  O12  1  0.75000000  0.12867600  0.94127100  1
  O  O13  1  0.25000000  0.87132400  0.05872900  1
  O  O14  1  0.25000000  0.62867600  0.55872900  1
  O  O15  1  0.75000000  0.37132400  0.44127100  1
  O  O16  1  0.75000000  0.21520800  0.75114100  1
  O  O17  1  0.25000000  0.78479200  0.24885900  1
  O  O18  1  0.25000000  0.71520800  0.74885900  1
  O  O19  1  0.75000000  0.28479200  0.25114100  1
  O  O20  1  0.43685600  0.12932800  0.36795300  1
  O  O21  1  0.93685600  0.87067200  0.63204700  1
  O  O22  1  0.56314400  0.62932800  0.13204700  1
  O  O23  1  0.06314400  0.37067200  0.86795300  1
  O  O24  1  0.56314400  0.87067200  0.63204700  1
  O  O25  1  0.06314400  0.12932800  0.36795300  1
  O  O26  1  0.43685600  0.37067200  0.86795300  1
  O  O27  1  0.93685600  0.62932800  0.13204700  1
  O  O28  1  0.75000000  0.49914500  0.99193200  1
  O  O29  1  0.25000000  0.03932100  0.73404100  1
  O  O30  1  0.25000000  0.46067900  0.23404100  1
  O  O31  1  0.75000000  0.53932100  0.76595900  1
  O  O32  1  0.75000000  0.00085500  0.49193200  1
  O  O33  1  0.25000000  0.99914500  0.50806800  1
  O  O34  1  0.25000000  0.50085500  0.00806800  1
  O  O35  1  0.75000000  0.96067900  0.26595900  1
loop_
_geom_bond_atom_site_label_1
_geom_bond_atom_site_label_2
_geom_bond_distance
_geom_bond_site_symmetry_2
Ca0 O3 2.381800 1_555
Ca0 O6 2.381800 1_655
Ca0 O21 2.452585 1_555
Ca0 O24 2.452585 1_555
Ca0 O16 2.468859 1_565
Ca0 O31 2.676762 1_555
Ca1 O5 2.381800 1_555
Ca1 O0 2.381800 1_655
Ca1 O27 2.452585 1_555
Ca1 O22 2.452585 1_555
Ca1 O19 2.468859 1_555
Ca1 O35 2.676762 1_555
Ca2 O4 2.381800 1_455
Ca2 O1 2.381800 1_555
Ca2 O26 2.452585 1_555
Ca2 O23 2.452585 1_555
Ca2 O18 2.468859 1_555
Ca2 O29 2.676762 1_555
Ca3 O2 2.381800 1_455
Ca3 O7 2.381800 1_555
Ca3 O20 2.452585 1_555
Ca3 O25 2.452585 1_555
Ca3 O17 2.468859 1_545
Ca3 O30 2.676762 1_555
O0 P7 1.556627 1_555
O0 Ti6 2.086210 1_555
O1 P4 1.556627 1_555
O1 Ti5 2.086210 1_555
O2 P5 1.556627 1_555
O2 Ti7 2.086210 1_655
O3 P6 1.556627 1_555
O3 Ti4 2.086210 1_566
O4 P4 1.556627 1_555
O4 Ti6 2.086210 1_655
O5 P7 1.556627 1_555
O5 Ti5 2.086210 1_555
O6 P6 1.556627 1_555
O6 Ti7 2.086210 1_566
O7 P5 1.556627 1_555
O7 Ti4 2.086210 1_555
O8 P3 1.567474 1_555
O8 Ti6 2.118029 1_555
O8 Ti5 2.118029 1_555
O9 P2 1.567474 1_555
O9 Ti6 2.118029 1_655
O9 Ti5 2.118029 1_555
O10 P1 1.567474 1_555
O10 Ti4 2.118029 1_565
O10 Ti7 2.118029 1_665
O11 P0 1.567474 1_555
O11 Ti7 2.118029 1_556
O11 Ti4 2.118029 1_556
O12 Ti0 1.839157 1_555
O12 Ti7 2.084468 1_656
O12 Ti4 2.084468 1_556
O13 Ti1 1.839157 1_555
O13 Ti7 2.084468 1_565
O13 Ti4 2.084468 1_565
O14 Ti2 1.839157 1_555
O14 Ti6 2.084468 1_555
O14 Ti5 2.084468 1_555
O15 Ti3 1.839157 1_555
O15 Ti6 2.084468 1_655
O15 Ti5 2.084468 1_555
O16 P4 1.558565 1_555
O16 Ti0 2.142968 1_555
O17 P7 1.558565 1_555
O17 Ti1 2.142968 1_555
O18 P6 1.558565 1_555
O18 Ti2 2.142968 1_555
O19 P5 1.558565 1_555
O19 Ti3 2.142968 1_555
O20 P3 1.550163 1_555
O20 Ti3 2.070441 1_555
O21 P2 1.550163 1_555
O21 Ti2 2.070441 1_655
O22 P1 1.550163 1_555
O22 Ti1 2.070441 1_555
O23 P0 1.550163 1_555
O23 Ti0 2.070441 1_455
O24 P2 1.550163 1_555
O24 Ti2 2.070441 1_555
O25 P3 1.550163 1_555
O25 Ti3 2.070441 1_455
O26 P0 1.550163 1_555
O26 Ti0 2.070441 1_555
O27 P1 1.550163 1_555
O27 Ti1 2.070441 1_655
O28 P1 1.515547 1_556
O28 Ti0 1.960450 1_555
O29 P6 1.556705 1_545
O29 Ti2 2.240143 1_545
O30 P7 1.556705 1_555
O30 Ti1 2.240143 1_555
O31 P4 1.556705 1_555
O31 Ti0 2.240143 1_555
O32 P2 1.515547 1_545
O32 Ti3 1.960450 1_555
O33 P3 1.515547 1_565
O33 Ti2 1.960450 1_555
O34 P0 1.515547 1_554
O34 Ti1 1.960450 1_555
O35 P5 1.556705 1_565
O35 Ti3 2.240143 1_565
