# generated using pymatgen
data_CsInH2(SeO4)2
_symmetry_space_group_name_H-M   'P 1'
_cell_length_a   9.37399583
_cell_length_b   9.37399583
_cell_length_c   6.88144383
_cell_angle_alpha   80.51593958
_cell_angle_beta   80.51593958
_cell_angle_gamma   115.20731341
_symmetry_Int_Tables_number   1
_chemical_formula_structural   CsInH2(SeO4)2
_chemical_formula_sum   'Cs2 In2 H4 Se4 O16'
_cell_volume   520.58657006
_cell_formula_units_Z   2
loop_
 _symmetry_equiv_pos_site_id
 _symmetry_equiv_pos_as_xyz
  1  'x, y, z'
loop_
 _atom_site_type_symbol
 _atom_site_label
 _atom_site_symmetry_multiplicity
 _atom_site_fract_x
 _atom_site_fract_y
 _atom_site_fract_z
 _atom_site_occupancy
  Cs  Cs0  1  0.59802900  0.40197100  0.75000000  1
  Cs  Cs1  1  0.40197100  0.59802900  0.25000000  1
  In  In0  1  0.22644400  0.77355600  0.75000000  1
  In  In1  1  0.77355600  0.22644400  0.25000000  1
  H  H0  1  0.96289300  0.06581100  0.29458300  1
  H  H1  1  0.03710700  0.93418900  0.70541700  1
  H  H2  1  0.93418900  0.03710700  0.20541700  1
  H  H3  1  0.06581100  0.96289300  0.79458300  1
  Se  Se0  1  0.61520800  0.90445300  0.70701900  1
  Se  Se1  1  0.38479200  0.09554700  0.29298100  1
  Se  Se2  1  0.09554700  0.38479200  0.79298100  1
  Se  Se3  1  0.90445300  0.61520800  0.20701900  1
  O  O0  1  0.71625700  0.88219800  0.87124700  1
  O  O1  1  0.28374300  0.11780200  0.12875300  1
  O  O2  1  0.11780200  0.28374300  0.62875300  1
  O  O3  1  0.88219800  0.71625700  0.37124700  1
  O  O4  1  0.56131200  0.77011500  0.57040600  1
  O  O5  1  0.43868800  0.22988500  0.42959400  1
  O  O6  1  0.22988500  0.43868800  0.92959400  1
  O  O7  1  0.77011500  0.56131200  0.07040600  1
  O  O8  1  0.43544700  0.89114600  0.84648200  1
  O  O9  1  0.56455300  0.10885400  0.15351800  1
  O  O10  1  0.10885400  0.56455300  0.65351800  1
  O  O11  1  0.89114600  0.43544700  0.34648200  1
  O  O12  1  0.71458000  0.10167900  0.55746600  1
  O  O13  1  0.28542000  0.89832100  0.44253400  1
  O  O14  1  0.89832100  0.28542000  0.94253400  1
  O  O15  1  0.10167900  0.71458000  0.05746600  1
loop_
_geom_bond_atom_site_label_1
_geom_bond_atom_site_label_2
_geom_bond_distance
_geom_bond_site_symmetry_2
Cs0 O7 3.146371 1_556
Cs0 O5 3.146371 1_555
Cs0 O3 3.326467 1_555
Cs0 O1 3.326467 1_556
Cs0 O11 3.438431 1_555
Cs0 O9 3.438431 1_556
Cs0 O4 3.647123 1_555
Cs0 O6 3.647123 1_555
Cs1 O6 3.146371 1_554
Cs1 O4 3.146371 1_555
Cs1 O2 3.326467 1_555
Cs1 O0 3.326467 1_554
Cs1 O10 3.438431 1_555
Cs1 O8 3.438431 1_554
Cs1 O7 3.647123 1_555
Cs1 O5 3.647123 1_555
In0 O8 2.079570 1_555
In0 O10 2.079570 1_555
In0 O15 2.097244 1_556
In0 O13 2.097244 1_555
In1 O11 2.079570 1_555
In1 O9 2.079570 1_555
In1 O14 2.097244 1_554
In1 O12 2.097244 1_555
H0 H2 0.753949 1_555
H1 H3 0.753949 1_555
O0 Se0 1.631367 1_555
O1 Se1 1.631367 1_555
O2 Se2 1.631367 1_555
O3 Se3 1.631367 1_555
O4 Se0 1.652135 1_555
O5 Se1 1.652135 1_555
O6 Se2 1.652135 1_555
O7 Se3 1.652135 1_555
O8 Se0 1.739154 1_555
O9 Se1 1.739154 1_555
O10 Se2 1.739154 1_555
O11 Se3 1.739154 1_555
O12 Se0 1.713190 1_545
O13 Se1 1.713190 1_565
O14 Se2 1.713190 1_655
O15 Se3 1.713190 1_455
