# generated using pymatgen
data_ZnCrO2
_symmetry_space_group_name_H-M   'P 1'
_cell_length_a   3.07013200
_cell_length_b   8.03506960
_cell_length_c   8.58323211
_cell_angle_alpha   89.97240425
_cell_angle_beta   93.89725659
_cell_angle_gamma   93.74540730
_symmetry_Int_Tables_number   1
_chemical_formula_structural   ZnCrO2
_chemical_formula_sum   'Zn4 Cr4 O8'
_cell_volume   210.79489428
_cell_formula_units_Z   4
loop_
 _symmetry_equiv_pos_site_id
 _symmetry_equiv_pos_as_xyz
  1  'x, y, z'
loop_
 _atom_site_type_symbol
 _atom_site_label
 _atom_site_symmetry_multiplicity
 _atom_site_fract_x
 _atom_site_fract_y
 _atom_site_fract_z
 _atom_site_occupancy
  Zn  Zn0  1  0.84341700  0.08265000  0.73576400  1
  Zn  Zn1  1  0.15658300  0.91735000  0.26423600  1
  Zn  Zn2  1  0.24924700  0.74840600  0.89694500  1
  Zn  Zn3  1  0.75075300  0.25159400  0.10305500  1
  Cr  Cr0  1  0.49303300  0.24892900  0.42739400  1
  Cr  Cr1  1  0.23255100  0.42343900  0.80012400  1
  Cr  Cr2  1  0.76744900  0.57656100  0.19987600  1
  Cr  Cr3  1  0.50696700  0.75107100  0.57260600  1
  O  O0  1  0.98053800  0.74842900  0.42001300  1
  O  O1  1  0.24724000  0.39299600  0.22906600  1
  O  O2  1  0.75276000  0.60700400  0.77093400  1
  O  O3  1  0.01946200  0.25157100  0.57998700  1
  O  O4  1  0.68216800  0.07649500  0.25462000  1
  O  O5  1  0.72333000  0.27135100  0.88277100  1
  O  O6  1  0.31783200  0.92350500  0.74538000  1
  O  O7  1  0.27667000  0.72864900  0.11722900  1
loop_
_geom_bond_atom_site_label_1
_geom_bond_atom_site_label_2
_geom_bond_distance
_geom_bond_site_symmetry_2
Cr0 O3 2.008928 1_655
Cr0 O3 2.023039 1_555
Cr0 O4 2.163366 1_555
Cr0 O1 2.178273 1_555
Cr1 O5 2.083520 1_455
Cr1 O5 2.088382 1_555
Cr1 O2 2.129627 1_555
Cr1 O2 2.154388 1_455
Cr1 O3 2.371009 1_555
Cr2 O7 2.083520 1_655
Cr2 O7 2.088382 1_555
Cr2 O1 2.129627 1_555
Cr2 O1 2.154388 1_655
Cr2 O0 2.371009 1_555
Cr3 O0 2.008928 1_455
Cr3 O0 2.023039 1_555
Cr3 O6 2.163366 1_555
Cr3 O2 2.178273 1_555
O0 Zn1 1.980597 1_655
O1 Zn3 2.082057 1_455
O1 Zn3 2.303973 1_555
O2 Zn2 2.082057 1_655
O2 Zn2 2.303973 1_555
O3 Zn0 1.980597 1_455
O4 Zn3 1.926902 1_555
O4 Zn1 1.997578 1_645
O4 Zn1 1.998543 1_545
O5 Zn3 1.893948 1_556
O5 Zn0 2.040859 1_555
O6 Zn2 1.926902 1_555
O6 Zn0 1.997578 1_465
O6 Zn0 1.998543 1_565
O7 Zn2 1.893948 1_554
O7 Zn1 2.040859 1_555
