# generated using pymatgen
data_Na3Si17
_symmetry_space_group_name_H-M   'P 1'
_cell_length_a   10.39692539
_cell_length_b   10.39692539
_cell_length_c   10.39692539
_cell_angle_alpha   60.00000000
_cell_angle_beta   60.00000000
_cell_angle_gamma   60.00000000
_symmetry_Int_Tables_number   1
_chemical_formula_structural   Na3Si17
_chemical_formula_sum   'Na6 Si34'
_cell_volume   794.69372720
_cell_formula_units_Z   2
loop_
 _symmetry_equiv_pos_site_id
 _symmetry_equiv_pos_as_xyz
  1  'x, y, z'
loop_
 _atom_site_type_symbol
 _atom_site_label
 _atom_site_symmetry_multiplicity
 _atom_site_fract_x
 _atom_site_fract_y
 _atom_site_fract_z
 _atom_site_occupancy
  Na  Na0  1  0.62500000  0.62500000  0.62500000  1
  Na  Na1  1  0.37500000  0.37500000  0.37500000  1
  Na  Na2  1  0.00000000  0.50000000  -0.00000000  1
  Na  Na3  1  0.00000000  0.00000000  0.50000000  1
  Na  Na4  1  0.50000000  0.00000000  -0.00000000  1
  Na  Na5  1  0.00000000  0.00000000  -0.00000000  1
  Si  Si0  1  0.87500000  0.87500000  0.87500000  1
  Si  Si1  1  0.12500000  0.12500000  0.12500000  1
  Si  Si2  1  0.78211580  0.15365460  0.78211580  1
  Si  Si3  1  0.78211580  0.78211580  0.15365460  1
  Si  Si4  1  0.15365460  0.78211580  0.78211580  1
  Si  Si5  1  0.78211580  0.78211580  0.78211580  1
  Si  Si6  1  0.21788420  0.84634540  0.21788420  1
  Si  Si7  1  0.21788420  0.21788420  0.84634540  1
  Si  Si8  1  0.84634540  0.21788420  0.21788420  1
  Si  Si9  1  0.21788420  0.21788420  0.21788420  1
  Si  Si10  1  0.62886589  0.23631142  0.62886589  1
  Si  Si11  1  0.00595879  0.62886589  0.23631142  1
  Si  Si12  1  0.23631142  0.62886589  0.00595879  1
  Si  Si13  1  0.62886589  0.00595879  0.62886589  1
  Si  Si14  1  0.23631142  0.62886589  0.62886589  1
  Si  Si15  1  0.62886589  0.23631142  0.00595879  1
  Si  Si16  1  0.62886589  0.00595879  0.23631142  1
  Si  Si17  1  0.00595879  0.62886589  0.62886589  1
  Si  Si18  1  0.62886589  0.62886589  0.23631142  1
  Si  Si19  1  0.23631142  0.00595879  0.62886589  1
  Si  Si20  1  0.00595879  0.23631142  0.62886589  1
  Si  Si21  1  0.62886589  0.62886589  0.00595879  1
  Si  Si22  1  0.37113411  0.76368858  0.37113411  1
  Si  Si23  1  0.99404121  0.37113411  0.76368858  1
  Si  Si24  1  0.76368858  0.37113411  0.99404121  1
  Si  Si25  1  0.37113411  0.99404121  0.37113411  1
  Si  Si26  1  0.76368858  0.37113411  0.37113411  1
  Si  Si27  1  0.37113411  0.76368858  0.99404121  1
  Si  Si28  1  0.37113411  0.99404121  0.76368858  1
  Si  Si29  1  0.99404121  0.37113411  0.37113411  1
  Si  Si30  1  0.37113411  0.37113411  0.76368858  1
  Si  Si31  1  0.76368858  0.99404121  0.37113411  1
  Si  Si32  1  0.99404121  0.76368858  0.37113411  1
  Si  Si33  1  0.37113411  0.37113411  0.99404121  1
loop_
_geom_bond_atom_site_label_1
_geom_bond_atom_site_label_2
_geom_bond_distance
_geom_bond_site_symmetry_2
Na2 Si1 3.183395 1_555
Na2 Si0 3.183395 1_454
Na2 Si9 3.272518 1_555
Na2 Si5 3.272518 1_454
Na2 Si3 3.272530 1_455
Na2 Si4 3.272530 1_554
Na2 Si7 3.272530 1_554
Na2 Si8 3.272530 1_455
Na2 Si21 3.370790 1_455
Na2 Si29 3.370790 1_455
Na2 Si17 3.370790 1_554
Na2 Si33 3.370790 1_554
Na2 Si18 3.370797 1_455
Na2 Si26 3.370797 1_455
Na2 Si30 3.370797 1_554
Na2 Si14 3.370797 1_554
Na2 Si24 3.370809 1_454
Na2 Si23 3.370809 1_454
Na2 Si12 3.370809 1_555
Na2 Si11 3.370809 1_555
Na3 Si1 3.183395 1_555
Na3 Si0 3.183395 1_445
Na3 Si9 3.272518 1_555
Na3 Si5 3.272518 1_445
Na3 Si4 3.272530 1_545
Na3 Si2 3.272530 1_455
Na3 Si8 3.272530 1_455
Na3 Si6 3.272530 1_545
Na3 Si13 3.370790 1_455
Na3 Si17 3.370790 1_545
Na3 Si29 3.370790 1_455
Na3 Si25 3.370790 1_545
Na3 Si26 3.370797 1_455
Na3 Si10 3.370797 1_455
Na3 Si14 3.370797 1_545
Na3 Si22 3.370797 1_545
Na3 Si31 3.370809 1_445
Na3 Si32 3.370809 1_445
Na3 Si19 3.370809 1_555
Na3 Si20 3.370809 1_555
Na4 Si0 3.183395 1_544
Na4 Si1 3.183395 1_555
Na4 Si9 3.272518 1_555
Na4 Si5 3.272518 1_544
Na4 Si2 3.272530 1_554
Na4 Si3 3.272530 1_545
Na4 Si7 3.272530 1_554
Na4 Si6 3.272530 1_545
Na4 Si13 3.370790 1_554
Na4 Si21 3.370790 1_545
Na4 Si25 3.370790 1_545
Na4 Si33 3.370790 1_554
Na4 Si18 3.370797 1_545
Na4 Si10 3.370797 1_554
Na4 Si30 3.370797 1_554
Na4 Si22 3.370797 1_545
Na4 Si28 3.370809 1_544
Na4 Si27 3.370809 1_544
Na4 Si15 3.370809 1_555
Na4 Si16 3.370809 1_555
Na5 Si0 3.183395 1_444
Na5 Si1 3.183395 1_555
Na5 Si7 3.272514 1_554
Na5 Si8 3.272514 1_455
Na5 Si6 3.272514 1_545
Na5 Si4 3.272514 1_544
Na5 Si2 3.272514 1_454
Na5 Si3 3.272514 1_445
Na5 Si16 3.370793 1_455
Na5 Si15 3.370793 1_455
Na5 Si19 3.370793 1_554
Na5 Si12 3.370793 1_545
Na5 Si20 3.370793 1_554
Na5 Si11 3.370793 1_545
Na5 Si23 3.370793 1_454
Na5 Si32 3.370793 1_445
Na5 Si31 3.370793 1_445
Na5 Si28 3.370793 1_544
Na5 Si24 3.370793 1_454
Na5 Si27 3.370793 1_544
Si0 Si5 2.365497 1_555
Si0 Si3 2.365514 1_556
Si0 Si4 2.365514 1_655
Si0 Si2 2.365514 1_565
Si1 Si9 2.365497 1_555
Si1 Si6 2.365514 1_545
Si1 Si7 2.365514 1_554
Si1 Si8 2.365514 1_455
Si2 Si20 2.369825 1_655
Si10 Si30 2.358543 1_555
Si10 Si26 2.358543 1_555
Si10 Si2 2.369825 1_555
Si10 Si13 2.394959 1_555
Si11 Si32 2.358521 1_455
Si11 Si29 2.358557 1_455
Si11 Si3 2.369825 1_455
Si11 Si12 2.394959 1_555
Si12 Si27 2.358521 1_554
Si12 Si33 2.358557 1_554
Si12 Si4 2.369825 1_554
Si13 Si31 2.358557 1_545
Si13 Si28 2.358557 1_545
Si13 Si5 2.369825 1_545
Si14 Si30 2.358543 1_555
Si14 Si22 2.358543 1_555
Si14 Si4 2.369825 1_555
Si14 Si17 2.394959 1_555
Si15 Si24 2.358521 1_554
Si15 Si33 2.358557 1_554
Si15 Si2 2.369825 1_554
Si15 Si16 2.394959 1_555
Si16 Si31 2.358521 1_545
Si16 Si25 2.358557 1_545
Si16 Si3 2.369825 1_545
Si17 Si23 2.358557 1_455
Si17 Si32 2.358557 1_455
Si17 Si5 2.369825 1_455
Si18 Si22 2.358543 1_555
Si18 Si26 2.358543 1_555
Si18 Si3 2.369825 1_555
Si18 Si21 2.394959 1_555
Si19 Si28 2.358521 1_545
Si19 Si25 2.358557 1_545
Si19 Si4 2.369825 1_545
Si19 Si20 2.394959 1_555
Si20 Si23 2.358521 1_455
Si20 Si29 2.358557 1_455
Si21 Si24 2.358557 1_554
Si21 Si27 2.358557 1_554
Si21 Si5 2.369825 1_554
Si22 Si6 2.369825 1_555
Si22 Si25 2.394959 1_555
Si23 Si7 2.369825 1_655
Si23 Si24 2.394959 1_555
Si24 Si8 2.369825 1_556
Si25 Si9 2.369825 1_565
Si26 Si8 2.369825 1_555
Si26 Si29 2.394959 1_555
Si27 Si6 2.369825 1_556
Si27 Si28 2.394959 1_555
Si28 Si7 2.369825 1_565
Si29 Si9 2.369825 1_655
Si30 Si7 2.369825 1_555
Si30 Si33 2.394959 1_555
Si31 Si8 2.369825 1_565
Si31 Si32 2.394959 1_555
Si32 Si6 2.369825 1_655
Si33 Si9 2.369825 1_556
