# generated using pymatgen
data_Ba2Ca2Mn3Tl2O10
_symmetry_space_group_name_H-M   'P 1'
_cell_length_a   3.98735900
_cell_length_b   4.02827800
_cell_length_c   18.57713665
_cell_angle_alpha   96.07750376
_cell_angle_beta   96.08806087
_cell_angle_gamma   89.99975820
_symmetry_Int_Tables_number   1
_chemical_formula_structural   Ba2Ca2Mn3Tl2O10
_chemical_formula_sum   'Ba2 Ca2 Mn3 Tl2 O10'
_cell_volume   295.01998781
_cell_formula_units_Z   1
loop_
 _symmetry_equiv_pos_site_id
 _symmetry_equiv_pos_as_xyz
  1  'x, y, z'
loop_
 _atom_site_type_symbol
 _atom_site_label
 _atom_site_symmetry_multiplicity
 _atom_site_fract_x
 _atom_site_fract_y
 _atom_site_fract_z
 _atom_site_occupancy
  Ba  Ba0  1  0.15345700  0.20505900  0.29008300  1
  Ba  Ba1  1  0.84544500  0.92084900  0.70573100  1
  Ca  Ca0  1  0.94773300  0.01804200  0.90650300  1
  Ca  Ca1  1  0.05458100  0.10853900  0.09412500  1
  Mn  Mn0  1  0.39890400  0.47320400  0.81395000  1
  Mn  Mn1  1  0.60406500  0.65372200  0.18931900  1
  Mn  Mn2  1  0.50238800  0.56412600  0.00035300  1
  Tl  Tl0  1  0.72038500  0.83380600  0.43187900  1
  Tl  Tl1  1  0.27945500  0.36448500  0.56039700  1
  O  O0  1  0.90791800  0.48234500  0.83255800  1
  O  O1  1  0.34400400  0.42063700  0.70466900  1
  O  O2  1  0.40788700  0.98129100  0.83087900  1
  O  O3  1  0.77158700  0.72436900  0.54265900  1
  O  O4  1  0.50375400  0.06483000  0.00178900  1
  O  O5  1  0.59616500  0.14592200  0.17339900  1
  O  O6  1  0.66288400  0.69753300  0.31036100  1
  O  O7  1  0.09535200  0.64713000  0.17136600  1
  O  O8  1  0.21889300  0.11886200  0.42926500  1
  O  O9  1  0.00310200  0.56511900  0.00167600  1
loop_
_geom_bond_atom_site_label_1
_geom_bond_atom_site_label_2
_geom_bond_distance
_geom_bond_site_symmetry_2
Ba0 O8 2.630778 1_555
Ba0 O6 2.807667 1_555
Ba0 O6 2.811010 1_455
Ba0 O6 2.906630 1_545
Ba0 O6 2.909882 1_445
Ba0 O5 2.926134 1_455
Ba0 O5 2.928109 1_555
Ba0 O7 2.968308 1_545
Ba0 O7 2.968499 1_555
Ba1 O1 2.830607 1_655
Ba1 O1 2.832375 1_665
Ba1 O1 2.835760 1_555
Ba1 O1 2.837502 1_565
Ba1 O3 3.032087 1_555
Ba1 O2 3.041201 1_555
Ba1 O2 3.044358 1_655
Ba1 O0 3.078357 1_565
Ba1 O0 3.080611 1_555
Ca0 O2 2.421735 1_645
Ca0 O0 2.427955 1_545
Ca0 O0 2.430673 1_555
Ca0 O2 2.437955 1_545
Ca0 O4 2.626204 1_556
Ca0 O9 2.665289 1_646
Ca0 O9 2.668991 1_656
Ca0 O4 2.679771 1_656
Ca1 O7 2.460768 1_545
Ca1 O5 2.461017 1_455
Ca1 O7 2.466550 1_555
Ca1 O5 2.476558 1_555
Ca1 O4 2.601695 1_555
Ca1 O9 2.629221 1_545
Ca1 O4 2.633294 1_455
Ca1 O9 2.639806 1_555
Mn0 O1 2.007209 1_555
Mn0 O0 2.022054 1_555
Mn0 O0 2.023473 1_455
Mn0 O2 2.037289 1_555
Mn0 O2 2.038712 1_545
Mn1 O7 2.020163 1_555
Mn1 O7 2.021405 1_655
Mn1 O5 2.035146 1_565
Mn1 O5 2.035362 1_555
Mn1 O6 2.224078 1_555
Mn2 O9 1.993588 1_555
Mn2 O9 1.994068 1_655
Mn2 O4 2.014302 1_555
Mn2 O4 2.014325 1_565
O1 Tl1 2.650657 1_555
O3 Tl0 2.138754 1_555
O3 Tl1 2.504131 1_655
O3 Tl1 2.509828 1_555
O6 Tl0 2.253405 1_555
O8 Tl0 2.303104 1_445
O8 Tl0 2.304479 1_545
O8 Tl1 2.517244 1_555
