# generated using pymatgen
data_Gd2S3O20
_symmetry_space_group_name_H-M   'P 1'
_cell_length_a   9.73321367
_cell_length_b   9.73321367
_cell_length_c   18.30660324
_cell_angle_alpha   69.78076466
_cell_angle_beta   69.78076466
_cell_angle_gamma   36.59100158
_symmetry_Int_Tables_number   1
_chemical_formula_structural   Gd2S3O20
_chemical_formula_sum   'Gd4 S6 O40'
_cell_volume   962.87894510
_cell_formula_units_Z   2
loop_
 _symmetry_equiv_pos_site_id
 _symmetry_equiv_pos_as_xyz
  1  'x, y, z'
loop_
 _atom_site_type_symbol
 _atom_site_label
 _atom_site_symmetry_multiplicity
 _atom_site_fract_x
 _atom_site_fract_y
 _atom_site_fract_z
 _atom_site_occupancy
  Gd  Gd0  1  0.15666400  0.15692700  0.61467100  1
  Gd  Gd1  1  0.84307300  0.84333600  0.88532900  1
  Gd  Gd2  1  0.84333600  0.84307300  0.38532900  1
  Gd  Gd3  1  0.15692700  0.15666400  0.11467100  1
  S  S0  1  0.23189600  0.22603100  0.90338400  1
  S  S1  1  0.77396900  0.76810400  0.59661600  1
  S  S2  1  0.76810400  0.77396900  0.09661600  1
  S  S3  1  0.22603100  0.23189600  0.40338400  1
  S  S4  1  0.70368100  0.29631900  0.25000000  1
  S  S5  1  0.29631900  0.70368100  0.75000000  1
  O  O0  1  0.17230800  0.20041100  0.85223000  1
  O  O1  1  0.79958900  0.82769200  0.64777000  1
  O  O2  1  0.82769200  0.79958900  0.14777000  1
  O  O3  1  0.20041100  0.17230800  0.35223000  1
  O  O4  1  0.47222900  0.10524200  0.87879600  1
  O  O5  1  0.89475800  0.52777100  0.62120400  1
  O  O6  1  0.52777100  0.89475800  0.12120400  1
  O  O7  1  0.10524200  0.47222900  0.37879600  1
  O  O8  1  0.06831300  0.47688100  0.90564600  1
  O  O9  1  0.52311900  0.93168700  0.59435400  1
  O  O10  1  0.93168700  0.52311900  0.09435400  1
  O  O11  1  0.47688100  0.06831300  0.40564600  1
  O  O12  1  0.22511600  0.13021500  0.98732800  1
  O  O13  1  0.86978500  0.77488400  0.51267200  1
  O  O14  1  0.77488400  0.86978500  0.01267200  1
  O  O15  1  0.13021500  0.22511600  0.48732800  1
  O  O16  1  0.56955000  0.41404800  0.18616100  1
  O  O17  1  0.58595200  0.43045000  0.31383900  1
  O  O18  1  0.43045000  0.58595200  0.81383900  1
  O  O19  1  0.41404800  0.56955000  0.68616100  1
  O  O20  1  0.79506900  0.06761100  0.28322400  1
  O  O21  1  0.93238900  0.20493100  0.21677600  1
  O  O22  1  0.20493100  0.93238900  0.71677600  1
  O  O23  1  0.06761100  0.79506900  0.78322400  1
  O  O24  1  0.63133200  0.63129600  0.90122600  1
  O  O25  1  0.36870400  0.36866800  0.59877400  1
  O  O26  1  0.36866800  0.36870400  0.09877400  1
  O  O27  1  0.63129600  0.63133200  0.40122600  1
  O  O28  1  0.11025700  0.90931100  0.92642000  1
  O  O29  1  0.09068900  0.88974300  0.57358000  1
  O  O30  1  0.88974300  0.09068900  0.07358000  1
  O  O31  1  0.90931100  0.11025700  0.42642000  1
  O  O32  1  0.92306600  0.04659100  0.90264000  1
  O  O33  1  0.95340900  0.07693400  0.59736000  1
  O  O34  1  0.07693400  0.95340900  0.09736000  1
  O  O35  1  0.04659100  0.92306600  0.40264000  1
  O  O36  1  0.68029300  0.67785300  0.83355800  1
  O  O37  1  0.32214700  0.31970700  0.66644200  1
  O  O38  1  0.31970700  0.32214700  0.16644200  1
  O  O39  1  0.67785300  0.68029300  0.33355800  1
loop_
_geom_bond_atom_site_label_1
_geom_bond_atom_site_label_2
_geom_bond_distance
_geom_bond_site_symmetry_2
Gd0 O22 2.150685 1_545
Gd0 O9 2.180923 1_545
Gd0 O5 2.202993 1_455
Gd0 O15 2.238821 1_555
Gd0 O33 2.774484 1_455
Gd1 O23 2.150685 1_655
Gd1 O8 2.180923 1_655
Gd1 O4 2.202993 1_565
Gd1 O14 2.238821 1_556
Gd1 O32 2.774484 1_565
Gd2 O20 2.150685 1_565
Gd2 O11 2.180923 1_565
Gd2 O7 2.202993 1_655
Gd2 O13 2.238821 1_555
Gd2 O35 2.774484 1_655
Gd3 O21 2.150685 1_455
Gd3 O10 2.180923 1_455
Gd3 O6 2.202993 1_545
Gd3 O12 2.238821 1_554
Gd3 O34 2.774484 1_545
O0 S0 1.429894 1_555
O1 S1 1.429894 1_555
O2 S2 1.429894 1_555
O3 S3 1.429894 1_555
O4 S0 1.509460 1_555
O5 S1 1.509460 1_555
O6 S2 1.509460 1_555
O7 S3 1.509460 1_555
O8 S0 1.509912 1_555
O9 S1 1.509912 1_555
O10 S2 1.509912 1_555
O11 S3 1.509912 1_555
O12 S0 1.507889 1_555
O13 S1 1.507889 1_555
O14 S2 1.507889 1_555
O15 S3 1.507889 1_555
O16 S4 1.452561 1_555
O17 S4 1.452561 1_555
O18 S5 1.452561 1_555
O19 S5 1.452561 1_555
O20 S4 1.541079 1_555
O21 S4 1.541079 1_555
O22 S5 1.541079 1_555
O23 S5 1.541079 1_555
O24 O36 1.231948 1_555
O25 O37 1.231948 1_555
O26 O38 1.231948 1_555
O27 O39 1.231948 1_555
O28 O32 1.237459 1_465
O29 O33 1.237459 1_465
O30 O34 1.237459 1_645
O31 O35 1.237459 1_645
