# generated using pymatgen
data_Pr3(MnSn)4
_symmetry_space_group_name_H-M   'P 1'
_cell_length_a   8.79540789
_cell_length_b   8.79540789
_cell_length_c   8.79540789
_cell_angle_alpha   149.36698827
_cell_angle_beta   129.99309959
_cell_angle_gamma   59.79177973
_symmetry_Int_Tables_number   1
_chemical_formula_structural   Pr3(MnSn)4
_chemical_formula_sum   'Pr3 Mn4 Sn4'
_cell_volume   263.43269973
_cell_formula_units_Z   1
loop_
 _symmetry_equiv_pos_site_id
 _symmetry_equiv_pos_as_xyz
  1  'x, y, z'
loop_
 _atom_site_type_symbol
 _atom_site_label
 _atom_site_symmetry_multiplicity
 _atom_site_fract_x
 _atom_site_fract_y
 _atom_site_fract_z
 _atom_site_occupancy
  Pr  Pr0  1  0.50000000  0.00000000  0.50000000  1
  Pr  Pr1  1  0.87213200  0.87213200  0.00000000  1
  Pr  Pr2  1  0.12786800  0.12786800  0.00000000  1
  Mn  Mn0  1  0.85858100  0.67209100  0.18649000  1
  Mn  Mn1  1  0.48560100  0.67209100  0.81351000  1
  Mn  Mn2  1  0.51439900  0.32790900  0.18649000  1
  Mn  Mn3  1  0.14141900  0.32790900  0.81351000  1
  Sn  Sn0  1  0.28430700  0.78430700  0.50000000  1
  Sn  Sn1  1  0.71569300  0.21569300  0.50000000  1
  Sn  Sn2  1  0.19898900  0.50000000  0.69898900  1
  Sn  Sn3  1  0.80101100  0.50000000  0.30101100  1
loop_
_geom_bond_atom_site_label_1
_geom_bond_atom_site_label_2
_geom_bond_distance
_geom_bond_site_symmetry_2
Pr0 Sn3 3.225946 1_556
Pr0 Sn2 3.225946 1_555
Pr0 Sn3 3.225946 1_545
Pr0 Sn2 3.225946 1_544
Pr0 Sn1 3.289329 1_555
Pr0 Sn0 3.289329 1_545
Pr1 Sn1 3.330070 1_554
Pr1 Sn1 3.330070 1_565
Pr1 Sn3 3.374794 1_565
Pr1 Sn3 3.374794 1_554
Pr1 Sn2 3.374794 1_665
Pr1 Sn2 3.374794 1_654
Pr2 Sn0 3.330070 1_544
Pr2 Sn0 3.330070 1_555
Pr2 Sn3 3.374794 1_455
Pr2 Sn3 3.374794 1_444
Pr2 Sn2 3.374794 1_544
Pr2 Sn2 3.374794 1_555
Mn0 Sn3 2.759072 1_555
Mn0 Sn1 2.786134 1_565
Mn0 Sn1 2.786134 1_554
Mn0 Sn0 2.891728 1_655
Mn0 Pr1 3.350968 1_555
Mn0 Pr2 3.359488 1_666
Mn0 Pr2 3.359488 1_655
Mn1 Sn2 2.759072 1_555
Mn1 Sn1 2.786134 1_555
Mn1 Sn1 2.786134 1_566
Mn1 Sn0 2.891728 1_555
Mn1 Pr1 3.350968 1_556
Mn1 Pr2 3.359488 1_566
Mn1 Pr2 3.359488 1_555
Mn2 Sn3 2.759072 1_555
Mn2 Sn0 2.786134 1_555
Mn2 Sn0 2.786134 1_544
Mn2 Sn1 2.891728 1_555
Mn2 Pr2 3.350968 1_555
Mn2 Pr1 3.359488 1_556
Mn2 Pr1 3.359488 1_545
Mn3 Sn2 2.759072 1_555
Mn3 Sn0 2.786134 1_545
Mn3 Sn0 2.786134 1_556
Mn3 Sn1 2.891728 1_455
Mn3 Pr2 3.350968 1_556
Mn3 Pr1 3.359488 1_445
Mn3 Pr1 3.359488 1_456
Sn2 Sn3 2.959030 1_455
