# generated using pymatgen
data_Y2Ti2O7
_symmetry_space_group_name_H-M   'P 1'
_cell_length_a   7.43578600
_cell_length_b   7.26434900
_cell_length_c   10.74056316
_cell_angle_alpha   87.63259602
_cell_angle_beta   90.00000000
_cell_angle_gamma   90.00000000
_symmetry_Int_Tables_number   1
_chemical_formula_structural   Y2Ti2O7
_chemical_formula_sum   'Y8 Ti8 O28'
_cell_volume   579.66863802
_cell_formula_units_Z   4
loop_
 _symmetry_equiv_pos_site_id
 _symmetry_equiv_pos_as_xyz
  1  'x, y, z'
loop_
 _atom_site_type_symbol
 _atom_site_label
 _atom_site_symmetry_multiplicity
 _atom_site_fract_x
 _atom_site_fract_y
 _atom_site_fract_z
 _atom_site_occupancy
  Y  Y0  1  0.94011600  0.00000000  0.00000000  1
  Y  Y1  1  0.23777100  0.24566700  0.22767800  1
  Y  Y2  1  0.08379800  0.00000000  0.50000000  1
  Y  Y3  1  0.23777100  0.75433300  0.77232200  1
  Y  Y4  1  0.70533100  0.78559700  0.26324400  1
  Y  Y5  1  0.02443700  0.50000000  0.50000000  1
  Y  Y6  1  0.46302500  0.50000000  0.00000000  1
  Y  Y7  1  0.70533100  0.21440300  0.73675600  1
  Ti  Ti0  1  0.90365500  0.50000000  0.00000000  1
  Ti  Ti1  1  0.76562500  0.23237900  0.25006500  1
  Ti  Ti2  1  0.22447000  0.24895500  0.77120800  1
  Ti  Ti3  1  0.49463900  0.00000000  0.00000000  1
  Ti  Ti4  1  0.50565200  0.00000000  0.50000000  1
  Ti  Ti5  1  0.76562500  0.76762100  0.74993500  1
  Ti  Ti6  1  0.22447000  0.75104500  0.22879200  1
  Ti  Ti7  1  0.61750800  0.50000000  0.50000000  1
  O  O0  1  0.95997700  0.71051800  0.88670700  1
  O  O1  1  0.15640000  0.28468700  0.60804500  1
  O  O2  1  0.03585400  0.10156300  0.81615500  1
  O  O3  1  0.01323200  0.25008200  0.36567300  1
  O  O4  1  0.55073800  0.34438500  0.22705800  1
  O  O5  1  0.33283600  0.94607300  0.61732400  1
  O  O6  1  0.44299200  0.84435600  0.18134800  1
  O  O7  1  0.70095300  0.04824500  0.11870400  1
  O  O8  1  0.33283600  0.05392700  0.38267600  1
  O  O9  1  0.53521100  0.73496200  0.45508800  1
  O  O10  1  0.34947400  0.80898800  0.95799200  1
  O  O11  1  0.01323200  0.74991800  0.63432700  1
  O  O12  1  0.03585400  0.89843700  0.18384500  1
  O  O13  1  0.22553700  0.53728900  0.14392300  1
  O  O14  1  0.15640000  0.71531300  0.39195500  1
  O  O15  1  0.74129300  0.62713200  0.08448700  1
  O  O16  1  0.77966600  0.48985900  0.62803600  1
  O  O17  1  0.22553700  0.46271100  0.85607700  1
  O  O18  1  0.74129300  0.37286800  0.91551300  1
  O  O19  1  0.34947400  0.19101200  0.04200800  1
  O  O20  1  0.53521100  0.26503800  0.54491200  1
  O  O21  1  0.44299200  0.15564400  0.81865200  1
  O  O22  1  0.70095300  0.95175500  0.88129600  1
  O  O23  1  0.72622600  0.96077300  0.63056800  1
  O  O24  1  0.72622600  0.03922700  0.36943200  1
  O  O25  1  0.55073800  0.65561500  0.77294200  1
  O  O26  1  0.77966600  0.51014100  0.37196400  1
  O  O27  1  0.95997700  0.28948200  0.11329300  1
loop_
_geom_bond_atom_site_label_1
_geom_bond_atom_site_label_2
_geom_bond_distance
_geom_bond_site_symmetry_2
O0 Ti0 1.959852 1_556
O0 Ti5 2.090024 1_555
O0 Y3 2.417671 1_655
O0 Y0 2.477109 1_566
O1 Ti2 1.832243 1_555
O1 Y5 2.146162 1_555
O1 Y2 2.472505 1_555
O2 Ti2 1.817634 1_555
O2 Y0 2.197681 1_456
O2 Y7 2.716929 1_455
O3 Ti1 2.227416 1_455
O3 Y1 2.233685 1_555
O3 Y2 2.332520 1_555
O3 Y5 2.366614 1_555
O4 Ti1 1.805441 1_555
O4 Y1 2.435070 1_555
O4 Y6 2.724506 1_555
O5 Ti4 1.830815 1_565
O5 Y3 2.240455 1_555
O5 Y2 2.264892 1_565
O6 Ti6 1.825061 1_555
O6 Y4 2.174881 1_555
O6 Ti3 2.244497 1_565
O7 Ti3 2.034384 1_555
O7 Ti1 2.041320 1_555
O7 Y0 2.224369 1_555
O7 Y4 2.409723 1_545
O8 Ti4 1.830815 1_555
O8 Y1 2.240455 1_555
O8 Y2 2.264892 1_555
O9 Ti7 1.858082 1_555
O9 Ti4 2.016090 1_565
O9 Y4 2.432809 1_555
O10 Ti3 1.829154 1_566
O10 Y3 2.211284 1_555
O10 Y6 2.423021 1_556
O11 Ti5 2.227416 1_455
O11 Y3 2.233685 1_555
O11 Y2 2.332520 1_565
O11 Y5 2.366614 1_555
O12 Ti6 1.817634 1_555
O12 Y0 2.197681 1_465
O12 Y4 2.716929 1_455
O13 Ti6 1.832781 1_555
O13 Y1 2.268894 1_555
O13 Y6 2.369799 1_555
O14 Ti6 1.832243 1_555
O14 Y5 2.146162 1_555
O14 Y2 2.472505 1_565
O15 Ti0 1.789731 1_555
O15 Y4 2.294655 1_555
O15 Y6 2.454981 1_555
O16 Ti7 1.828130 1_555
O16 Y5 2.280528 1_655
O16 Y7 2.340956 1_555
O16 Ti5 2.452484 1_555
O17 Ti2 1.832781 1_555
O17 Y3 2.268894 1_555
O17 Y6 2.369799 1_556
O18 Ti0 1.789731 1_556
O18 Y7 2.294655 1_555
O18 Y6 2.454981 1_556
O19 Ti3 1.829154 1_555
O19 Y1 2.211284 1_555
O19 Y6 2.423021 1_555
O20 Ti7 1.858082 1_555
O20 Ti4 2.016090 1_555
O20 Y7 2.432809 1_555
O21 Ti2 1.825061 1_555
O21 Y7 2.174881 1_555
O21 Ti3 2.244497 1_556
O22 Ti3 2.034384 1_566
O22 Ti5 2.041320 1_555
O22 Y0 2.224369 1_566
O22 Y7 2.409723 1_565
O23 Ti5 1.884056 1_555
O23 Ti4 2.169079 1_565
O23 Y7 2.212052 1_565
O23 Y2 3.014002 1_665
O24 Ti1 1.884056 1_555
O24 Ti4 2.169079 1_555
O24 Y4 2.212052 1_545
O24 Y2 3.014002 1_655
O25 Ti5 1.805441 1_555
O25 Y3 2.435070 1_555
O25 Y6 2.724506 1_556
O26 Ti7 1.828130 1_555
O26 Y5 2.280528 1_655
O26 Y4 2.340956 1_555
O26 Ti1 2.452484 1_555
O27 Ti0 1.959852 1_555
O27 Ti1 2.090024 1_555
O27 Y1 2.417671 1_655
O27 Y0 2.477109 1_555
