# generated using pymatgen
data_Rb3Cd(BO2)5
_symmetry_space_group_name_H-M   'P 1'
_cell_length_a   20.49062500
_cell_length_b   8.02796800
_cell_length_c   8.47821773
_cell_angle_alpha   58.92346931
_cell_angle_beta   90.00000000
_cell_angle_gamma   90.00000000
_symmetry_Int_Tables_number   1
_chemical_formula_structural   Rb3Cd(BO2)5
_chemical_formula_sum   'Rb12 Cd4 B20 O40'
_cell_volume   1194.48834516
_cell_formula_units_Z   4
loop_
 _symmetry_equiv_pos_site_id
 _symmetry_equiv_pos_as_xyz
  1  'x, y, z'
loop_
 _atom_site_type_symbol
 _atom_site_label
 _atom_site_symmetry_multiplicity
 _atom_site_fract_x
 _atom_site_fract_y
 _atom_site_fract_z
 _atom_site_occupancy
  Rb  Rb0  1  0.57880700  0.67168800  0.98304500  1
  Rb  Rb1  1  0.92119300  0.67168800  0.48304500  1
  Rb  Rb2  1  0.42119300  0.32831200  0.01695500  1
  Rb  Rb3  1  0.07880700  0.32831200  0.51695500  1
  Rb  Rb4  1  0.56403100  0.68653000  0.52311000  1
  Rb  Rb5  1  0.93596900  0.68653000  0.02311000  1
  Rb  Rb6  1  0.43596900  0.31347000  0.47689000  1
  Rb  Rb7  1  0.06403100  0.31347000  0.97689000  1
  Rb  Rb8  1  0.75385600  0.28861800  0.20366700  1
  Rb  Rb9  1  0.74614400  0.28861800  0.70366700  1
  Rb  Rb10  1  0.24614400  0.71138200  0.79633300  1
  Rb  Rb11  1  0.25385600  0.71138200  0.29633300  1
  Cd  Cd0  1  0.60793500  0.17210700  0.50540600  1
  Cd  Cd1  1  0.89206500  0.17210700  0.00540600  1
  Cd  Cd2  1  0.39206500  0.82789300  0.49459400  1
  Cd  Cd3  1  0.10793500  0.82789300  0.99459400  1
  B  B0  1  0.58073300  0.18278900  0.85915900  1
  B  B1  1  0.91926700  0.18278900  0.35915900  1
  B  B2  1  0.41926700  0.81721100  0.14084100  1
  B  B3  1  0.08073300  0.81721100  0.64084100  1
  B  B4  1  0.57824000  0.18230100  0.15211600  1
  B  B5  1  0.92176000  0.18230100  0.65211600  1
  B  B6  1  0.42176000  0.81769900  0.84788400  1
  B  B7  1  0.07824000  0.81769900  0.34788400  1
  B  B8  1  0.71860700  0.85536600  0.66752400  1
  B  B9  1  0.78139300  0.85536600  0.16752400  1
  B  B10  1  0.28139300  0.14463400  0.33247600  1
  B  B11  1  0.21860700  0.14463400  0.83247600  1
  B  B12  1  0.66376000  0.97863000  0.11142600  1
  B  B13  1  0.83624000  0.97863000  0.61142600  1
  B  B14  1  0.33624000  0.02137000  0.88857400  1
  B  B15  1  0.16376000  0.02137000  0.38857400  1
  B  B16  1  0.69084600  0.61808100  0.28764400  1
  B  B17  1  0.80915400  0.61808100  0.78764400  1
  B  B18  1  0.30915400  0.38191900  0.71235600  1
  B  B19  1  0.19084600  0.38191900  0.21235600  1
  O  O0  1  0.55438200  0.24470900  0.69174900  1
  O  O1  1  0.94561800  0.24470900  0.19174900  1
  O  O2  1  0.44561800  0.75529100  0.30825100  1
  O  O3  1  0.05438200  0.75529100  0.80825100  1
  O  O4  1  0.65349700  0.88448900  0.64904800  1
  O  O5  1  0.84650300  0.88448900  0.14904800  1
  O  O6  1  0.34650300  0.11551100  0.35095200  1
  O  O7  1  0.15349700  0.11551100  0.85095200  1
  O  O8  1  0.64640200  0.77027300  0.21892200  1
  O  O9  1  0.85359800  0.77027300  0.71892200  1
  O  O10  1  0.35359800  0.22972700  0.78107800  1
  O  O11  1  0.14640200  0.22972700  0.28107800  1
  O  O12  1  0.75845000  0.66045300  0.26565200  1
  O  O13  1  0.74155000  0.66045300  0.76565200  1
  O  O14  1  0.24155000  0.33954700  0.73434800  1
  O  O15  1  0.25845000  0.33954700  0.23434800  1
  O  O16  1  0.54642700  0.23213500  0.26188500  1
  O  O17  1  0.95357300  0.23213500  0.76188500  1
  O  O18  1  0.45357300  0.76786500  0.73811500  1
  O  O19  1  0.04642700  0.76786500  0.23811500  1
  O  O20  1  0.44694600  0.75309100  0.02685400  1
  O  O21  1  0.05305400  0.75309100  0.52685400  1
  O  O22  1  0.55305400  0.24690900  0.97314600  1
  O  O23  1  0.94694600  0.24690900  0.47314600  1
  O  O24  1  0.73542800  0.00465300  0.09686500  1
  O  O25  1  0.76457200  0.00465300  0.59686500  1
  O  O26  1  0.26457200  0.99534700  0.90313500  1
  O  O27  1  0.23542800  0.99534700  0.40313500  1
  O  O28  1  0.86483300  0.06338400  0.42400400  1
  O  O29  1  0.63516700  0.06338400  0.92400400  1
  O  O30  1  0.13516700  0.93661600  0.57599600  1
  O  O31  1  0.36483300  0.93661600  0.07599600  1
  O  O32  1  0.67160600  0.43190900  0.37225000  1
  O  O33  1  0.82839400  0.43190900  0.87225000  1
  O  O34  1  0.32839400  0.56809100  0.62775000  1
  O  O35  1  0.17160600  0.56809100  0.12775000  1
  O  O36  1  0.63568600  0.07621100  0.20482100  1
  O  O37  1  0.86431400  0.07621100  0.70482100  1
  O  O38  1  0.36431400  0.92378900  0.79517900  1
  O  O39  1  0.13568600  0.92378900  0.29517900  1
loop_
_geom_bond_atom_site_label_1
_geom_bond_atom_site_label_2
_geom_bond_distance
_geom_bond_site_symmetry_2
Cd0 O4 2.187046 1_545
Cd0 O32 2.212666 1_555
Cd0 O0 2.233924 1_555
Cd0 O16 2.248600 1_555
Cd1 O5 2.187046 1_545
Cd1 O33 2.212666 1_554
Cd1 O1 2.233924 1_555
Cd1 O17 2.248600 1_554
Cd2 O6 2.187046 1_565
Cd2 O34 2.212666 1_555
Cd2 O2 2.233924 1_555
Cd2 O18 2.248600 1_555
Cd3 O7 2.187046 1_565
Cd3 O35 2.212666 1_556
Cd3 O3 2.233924 1_555
Cd3 O19 2.248600 1_556
B0 O0 1.350848 1_555
B0 O29 1.386057 1_555
B0 O22 1.426234 1_555
B1 O1 1.350848 1_555
B1 O28 1.386057 1_555
B1 O23 1.426234 1_555
B2 O2 1.350848 1_555
B2 O31 1.386057 1_555
B2 O20 1.426234 1_555
B3 O3 1.350848 1_555
B3 O30 1.386057 1_555
B3 O21 1.426234 1_555
B4 O16 1.354790 1_555
B4 O36 1.384820 1_555
B4 O22 1.423102 1_554
B5 O17 1.354790 1_555
B5 O37 1.384820 1_555
B5 O23 1.423102 1_555
B6 O18 1.354790 1_555
B6 O38 1.384820 1_555
B6 O20 1.423102 1_556
B7 O19 1.354790 1_555
B7 O39 1.384820 1_555
B7 O21 1.423102 1_555
B8 O4 1.349567 1_555
B8 O25 1.393233 1_565
B8 O13 1.420450 1_555
B9 O5 1.349567 1_555
B9 O24 1.393233 1_565
B9 O12 1.420450 1_555
B10 O6 1.349567 1_555
B10 O27 1.393233 1_545
B10 O15 1.420450 1_555
B11 O7 1.349567 1_555
B11 O26 1.393233 1_545
B11 O14 1.420450 1_555
B12 O8 1.476888 1_555
B12 O24 1.479465 1_565
B12 O36 1.487263 1_565
B12 O29 1.488285 1_564
B13 O9 1.476888 1_555
B13 O25 1.479465 1_565
B13 O37 1.487263 1_565
B13 O28 1.488285 1_565
B14 O10 1.476888 1_555
B14 O26 1.479465 1_545
B14 O38 1.487263 1_545
B14 O31 1.488285 1_546
B15 O11 1.476888 1_555
B15 O27 1.479465 1_545
B15 O39 1.487263 1_545
B15 O30 1.488285 1_545
B16 O32 1.340507 1_555
B16 O8 1.388052 1_555
B16 O12 1.415595 1_555
B17 O33 1.340507 1_555
B17 O9 1.388052 1_555
B17 O13 1.415595 1_555
B18 O34 1.340507 1_555
B18 O10 1.388052 1_555
B18 O14 1.415595 1_555
B19 O35 1.340507 1_555
B19 O11 1.388052 1_555
B19 O15 1.415595 1_555
O0 Rb6 2.910692 1_555
O0 Rb4 3.070602 1_555
O1 Rb7 2.910692 1_654
O1 Rb5 3.070602 1_555
O2 Rb4 2.910692 1_555
O2 Rb6 3.070602 1_555
O3 Rb5 2.910692 1_456
O3 Rb7 3.070602 1_555
O4 Rb0 2.878393 1_555
O4 Rb4 2.962781 1_555
O5 Rb1 2.878393 1_555
O5 Rb5 2.962781 1_555
O6 Rb2 2.878393 1_555
O6 Rb6 2.962781 1_555
O7 Rb3 2.878393 1_555
O7 Rb7 2.962781 1_555
O8 Rb4 2.856908 1_555
O8 Rb0 2.859719 1_554
O9 Rb5 2.856908 1_556
O9 Rb1 2.859719 1_555
O10 Rb6 2.856908 1_555
O10 Rb2 2.859719 1_556
O11 Rb7 2.856908 1_554
O11 Rb3 2.859719 1_555
O12 Rb8 3.288652 1_555
O12 Rb9 3.364651 1_555
O13 Rb9 3.288652 1_555
O13 Rb8 3.364651 1_556
O14 Rb10 3.288652 1_555
O14 Rb11 3.364651 1_555
O15 Rb11 3.288652 1_555
O15 Rb10 3.364651 1_554
O16 Rb2 3.136567 1_555
O16 Rb0 3.141457 1_554
O16 Rb6 3.178160 1_555
O17 Rb3 3.136567 1_655
O17 Rb1 3.141457 1_555
O17 Rb7 3.178160 1_655
O18 Rb0 3.136567 1_555
O18 Rb2 3.141457 1_556
O18 Rb4 3.178160 1_555
O19 Rb1 3.136567 1_455
O19 Rb3 3.141457 1_555
O19 Rb5 3.178160 1_455
O20 Rb0 2.848849 1_554
O21 Rb1 2.848849 1_455
O22 Rb2 2.848849 1_556
O23 Rb3 2.848849 1_655
O24 Rb8 2.879301 1_555
O24 Rb9 2.917636 1_554
O25 Rb9 2.879301 1_555
O25 Rb8 2.917636 1_555
O26 Rb10 2.879301 1_555
O26 Rb11 2.917636 1_556
O27 Rb11 2.879301 1_555
O27 Rb10 2.917636 1_555
O28 Rb8 2.905696 1_555
O28 Rb1 3.138040 1_545
O29 Rb9 2.905696 1_555
O29 Rb0 3.138040 1_545
O30 Rb10 2.905696 1_555
O30 Rb3 3.138040 1_565
O31 Rb11 2.905696 1_555
O31 Rb2 3.138040 1_565
O32 Rb8 2.811389 1_555
O32 Rb9 2.866056 1_555
O33 Rb9 2.811389 1_555
O33 Rb8 2.866056 1_556
O34 Rb10 2.811389 1_555
O34 Rb11 2.866056 1_555
O35 Rb11 2.811389 1_555
O35 Rb10 2.866056 1_554
O36 Rb8 2.958654 1_555
O36 Rb4 3.241792 1_545
O37 Rb9 2.958654 1_555
O37 Rb5 3.241792 1_546
O38 Rb10 2.958654 1_555
O38 Rb6 3.241792 1_565
O39 Rb11 2.958654 1_555
O39 Rb7 3.241792 1_564
