# generated using pymatgen
data_BaYbFe4O7
_symmetry_space_group_name_H-M   'P 1'
_cell_length_a   6.39999223
_cell_length_b   6.39999223
_cell_length_c   6.35111475
_cell_angle_alpha   61.73457222
_cell_angle_beta   61.73457222
_cell_angle_gamma   92.97341104
_symmetry_Int_Tables_number   1
_chemical_formula_structural   BaYbFe4O7
_chemical_formula_sum   'Ba1 Yb1 Fe4 O7'
_cell_volume   188.58549083
_cell_formula_units_Z   1
loop_
 _symmetry_equiv_pos_site_id
 _symmetry_equiv_pos_as_xyz
  1  'x, y, z'
loop_
 _atom_site_type_symbol
 _atom_site_label
 _atom_site_symmetry_multiplicity
 _atom_site_fract_x
 _atom_site_fract_y
 _atom_site_fract_z
 _atom_site_occupancy
  Ba  Ba0  1  0.74900600  0.25099400  0.50000000  1
  Yb  Yb0  1  0.99432800  0.00567200  0.00000000  1
  Fe  Fe0  1  0.38206200  0.14717800  0.21492600  1
  Fe  Fe1  1  0.85282200  0.61793800  0.78507400  1
  Fe  Fe2  1  0.35371100  0.60016600  0.27167500  1
  Fe  Fe3  1  0.39983400  0.64628900  0.72832500  1
  O  O0  1  0.75543100  0.81869200  0.50368500  1
  O  O1  1  0.18130800  0.24456900  0.49631500  1
  O  O2  1  0.31456500  0.29253100  0.90914200  1
  O  O3  1  0.70746900  0.68543500  0.09085800  1
  O  O4  1  0.25790300  0.74209700  0.00000000  1
  O  O5  1  0.75165600  0.24834400  0.00000000  1
  O  O6  1  0.25390300  0.74609700  0.50000000  1
loop_
_geom_bond_atom_site_label_1
_geom_bond_atom_site_label_2
_geom_bond_distance
_geom_bond_site_symmetry_2
Ba0 O0 2.758336 1_545
Ba0 O1 2.758336 1_655
Ba0 O2 2.905465 1_555
Ba0 O3 2.905465 1_555
Ba0 O5 3.175653 1_555
Ba0 O5 3.175653 1_556
Ba0 O4 3.203105 1_546
Ba0 O4 3.203105 1_655
Fe0 O5 1.955402 1_555
Fe0 O2 1.987158 1_554
Fe0 O1 2.048537 1_555
Fe0 O6 2.124435 1_545
Fe1 O5 1.955402 1_556
Fe1 O3 1.987158 1_556
Fe1 O0 2.048537 1_555
Fe1 O6 2.124435 1_655
Fe2 O3 1.886341 1_555
Fe2 O1 1.898846 1_555
Fe2 O4 1.937427 1_555
Fe2 O6 1.962258 1_555
Fe3 O2 1.886341 1_555
Fe3 O0 1.898846 1_555
Fe3 O4 1.937427 1_556
Fe3 O6 1.962258 1_555
O0 Yb0 2.356950 1_565
O1 Yb0 2.356950 1_456
O2 Yb0 2.321669 1_456
O3 Yb0 2.321669 1_565
O4 Yb0 2.446697 1_465
O5 Yb0 2.252660 1_555
