# generated using pymatgen
data_Mg6CrCd
_symmetry_space_group_name_H-M   'P 1'
_cell_length_a   5.02224700
_cell_length_b   6.26260800
_cell_length_c   10.87046400
_cell_angle_alpha   90.00000000
_cell_angle_beta   90.00000000
_cell_angle_gamma   90.00000000
_symmetry_Int_Tables_number   1
_chemical_formula_structural   Mg6CrCd
_chemical_formula_sum   'Mg12 Cr2 Cd2'
_cell_volume   341.90179319
_cell_formula_units_Z   2
loop_
 _symmetry_equiv_pos_site_id
 _symmetry_equiv_pos_as_xyz
  1  'x, y, z'
loop_
 _atom_site_type_symbol
 _atom_site_label
 _atom_site_symmetry_multiplicity
 _atom_site_fract_x
 _atom_site_fract_y
 _atom_site_fract_z
 _atom_site_occupancy
  Mg  Mg0  1  0.00000000  0.25122000  0.08332200  1
  Mg  Mg1  1  0.00000000  0.74878000  0.08332200  1
  Mg  Mg2  1  0.00000000  0.00000000  0.33376900  1
  Mg  Mg3  1  0.50000000  0.74431300  0.41398300  1
  Mg  Mg4  1  0.50000000  0.25568700  0.41398300  1
  Mg  Mg5  1  0.50000000  0.00000000  0.16734300  1
  Mg  Mg6  1  0.00000000  0.75122000  0.58332200  1
  Mg  Mg7  1  0.00000000  0.24878000  0.58332200  1
  Mg  Mg8  1  0.00000000  0.50000000  0.83376900  1
  Mg  Mg9  1  0.50000000  0.24431300  0.91398300  1
  Mg  Mg10  1  0.50000000  0.75568700  0.91398300  1
  Mg  Mg11  1  0.50000000  0.50000000  0.66734300  1
  Cr  Cr0  1  0.00000000  0.50000000  0.33419500  1
  Cr  Cr1  1  0.00000000  0.00000000  0.83419500  1
  Cd  Cd0  1  0.50000000  0.50000000  0.17008300  1
  Cd  Cd1  1  0.50000000  0.00000000  0.67008300  1
loop_
_geom_bond_atom_site_label_1
_geom_bond_atom_site_label_2
_geom_bond_distance
_geom_bond_site_symmetry_2
Mg0 Mg5 3.100838 1_455
Mg0 Mg5 3.100838 1_555
Mg0 Mg9 3.113861 1_554
Mg0 Mg9 3.113861 1_454
Mg0 Mg1 3.116023 1_555
Mg0 Mg8 3.128330 1_554
Mg0 Mg2 3.144379 1_555
Mg0 Mg1 3.146585 1_545
Mg1 Mg5 3.100838 1_565
Mg1 Mg5 3.100838 1_465
Mg1 Mg10 3.113861 1_454
Mg1 Mg10 3.113861 1_554
Mg1 Mg8 3.128330 1_554
Mg1 Mg2 3.144379 1_565
Mg2 Mg5 3.094945 1_455
Mg2 Mg5 3.094945 1_555
Mg2 Mg3 3.103243 1_545
Mg2 Mg3 3.103243 1_445
Mg2 Mg4 3.103243 1_455
Mg2 Mg4 3.103243 1_555
Mg2 Mg6 3.128330 1_545
Mg2 Mg7 3.128330 1_555
Mg3 Mg4 3.060073 1_555
Mg3 Mg6 3.113861 1_655
Mg3 Mg6 3.113861 1_555
Mg3 Mg5 3.122869 1_565
Mg3 Mg4 3.202535 1_565
Mg4 Mg7 3.113861 1_555
Mg4 Mg7 3.113861 1_655
Mg4 Mg5 3.122869 1_555
Mg5 Mg9 3.150604 1_554
Mg6 Mg7 3.116023 1_565
Mg6 Mg8 3.144379 1_555
Mg6 Mg7 3.146585 1_555
Mg7 Mg8 3.144379 1_555
Mg8 Mg9 3.103243 1_555
Mg8 Mg9 3.103243 1_455
Mg10 Mg9 3.060073 1_565
Mg10 Mg8 3.103243 1_555
Mg10 Mg8 3.103243 1_655
Mg10 Mg11 3.122869 1_555
Mg10 Mg5 3.150604 1_566
Mg10 Mg9 3.202535 1_555
Mg11 Mg8 3.094945 1_655
Mg11 Mg8 3.094945 1_555
Mg11 Mg6 3.100838 1_555
Mg11 Mg7 3.100838 1_555
Mg11 Mg6 3.100838 1_655
Mg11 Mg7 3.100838 1_655
Mg11 Mg9 3.122869 1_555
Mg11 Mg3 3.150604 1_555
Mg11 Mg4 3.150604 1_555
Cr0 Mg3 3.065782 1_455
Cr0 Mg4 3.065782 1_455
Cr0 Mg3 3.065782 1_555
Cr0 Mg4 3.065782 1_555
Cr0 Mg2 3.131307 1_555
Cr0 Mg2 3.131307 1_565
Cr0 Mg7 3.131964 1_555
Cr0 Mg6 3.131964 1_555
Cr0 Mg1 3.140781 1_555
Cr0 Mg0 3.140781 1_555
Cr1 Mg9 3.065782 1_455
Cr1 Mg9 3.065782 1_555
Cr1 Mg10 3.065782 1_545
Cr1 Mg10 3.065782 1_445
Cr1 Mg8 3.131307 1_555
Cr1 Mg8 3.131307 1_545
Cr1 Mg0 3.131964 1_556
Cr1 Mg1 3.131964 1_546
Cr1 Mg7 3.140781 1_555
Cr1 Mg6 3.140781 1_545
Cd0 Mg3 3.061117 1_555
Cd0 Mg4 3.061117 1_555
Cd0 Cr0 3.080309 1_555
Cd0 Cr0 3.080309 1_655
Cd0 Mg0 3.102038 1_655
Cd0 Mg1 3.102038 1_655
Cd0 Mg1 3.102038 1_555
Cd0 Mg0 3.102038 1_555
Cd0 Mg5 3.131446 1_555
Cd0 Mg5 3.131446 1_565
Cd0 Mg9 3.211588 1_554
Cd0 Mg10 3.211588 1_554
Cd1 Mg9 3.061117 1_555
Cd1 Mg10 3.061117 1_545
Cd1 Cr1 3.080309 1_555
Cd1 Cr1 3.080309 1_655
Cd1 Mg7 3.102038 1_555
Cd1 Mg7 3.102038 1_655
Cd1 Mg6 3.102038 1_645
Cd1 Mg6 3.102038 1_545
Cd1 Mg11 3.131446 1_545
Cd1 Mg11 3.131446 1_555
Cd1 Mg3 3.211588 1_545
Cd1 Mg4 3.211588 1_555
