# generated using pymatgen
data_SrMg2
_symmetry_space_group_name_H-M   'P 1'
_cell_length_a   6.78248335
_cell_length_b   6.78248335
_cell_length_c   7.84079773
_cell_angle_alpha   87.29234028
_cell_angle_beta   87.29234028
_cell_angle_gamma   34.54804656
_symmetry_Int_Tables_number   1
_chemical_formula_structural   SrMg2
_chemical_formula_sum   'Sr2 Mg4'
_cell_volume   204.29750744
_cell_formula_units_Z   2
loop_
 _symmetry_equiv_pos_site_id
 _symmetry_equiv_pos_as_xyz
  1  'x, y, z'
loop_
 _atom_site_type_symbol
 _atom_site_label
 _atom_site_symmetry_multiplicity
 _atom_site_fract_x
 _atom_site_fract_y
 _atom_site_fract_z
 _atom_site_occupancy
  Sr  Sr0  1  0.65516600  0.65516600  0.27526200  1
  Sr  Sr1  1  0.91476800  0.91476800  0.60165600  1
  Mg  Mg0  1  0.98712800  0.98712800  0.01368700  1
  Mg  Mg1  1  0.37846900  0.37846900  0.25294700  1
  Mg  Mg2  1  0.62401200  0.62401200  0.76816100  1
  Mg  Mg3  1  0.27378900  0.27378900  0.92162000  1
loop_
_geom_bond_atom_site_label_1
_geom_bond_atom_site_label_2
_geom_bond_distance
_geom_bond_site_symmetry_2
Mg0 Mg1 3.048816 1_565
Mg0 Mg1 3.048816 1_655
Mg0 Mg2 3.250902 1_654
Mg0 Mg2 3.250902 1_564
Mg0 Sr1 3.408111 1_554
Mg0 Sr0 3.666332 1_565
Mg0 Sr0 3.666332 1_655
Mg1 Mg3 2.989315 1_554
Mg1 Sr1 3.446752 1_545
Mg1 Sr1 3.446752 1_455
Mg1 Sr0 3.521810 1_455
Mg1 Sr0 3.521810 1_545
Mg1 Sr0 3.596995 1_555
Mg2 Mg3 3.082026 1_655
Mg2 Mg3 3.082026 1_565
Mg2 Sr1 3.668352 1_545
Mg2 Sr1 3.668352 1_455
Mg2 Sr0 3.865826 1_555
Mg2 Sr1 3.924561 1_555
Mg3 Sr1 3.637523 1_545
Mg3 Sr1 3.637523 1_455
Mg3 Sr0 3.699220 1_546
Mg3 Sr0 3.699220 1_456
