# generated using pymatgen
data_Tb6Al43V4
_symmetry_space_group_name_H-M   'P 1'
_cell_length_a   11.00488750
_cell_length_b   11.00488750
_cell_length_c   17.68462800
_cell_angle_alpha   90.00000000
_cell_angle_beta   90.00000000
_cell_angle_gamma   119.99999701
_symmetry_Int_Tables_number   1
_chemical_formula_structural   Tb6Al43V4
_chemical_formula_sum   'Tb12 Al86 V8'
_cell_volume   1854.80299398
_cell_formula_units_Z   2
loop_
 _symmetry_equiv_pos_site_id
 _symmetry_equiv_pos_as_xyz
  1  'x, y, z'
loop_
 _atom_site_type_symbol
 _atom_site_label
 _atom_site_symmetry_multiplicity
 _atom_site_fract_x
 _atom_site_fract_y
 _atom_site_fract_z
 _atom_site_occupancy
  Tb  Tb0  1  0.52936000  0.00000000  0.59557900  1
  Tb  Tb1  1  0.47064000  0.00000000  0.40442100  1
  Tb  Tb2  1  0.00000000  0.52936000  0.59557900  1
  Tb  Tb3  1  0.47064000  0.00000000  0.09557900  1
  Tb  Tb4  1  0.00000000  0.52936000  0.90442100  1
  Tb  Tb5  1  0.00000000  0.47064000  0.40442100  1
  Tb  Tb6  1  0.52936000  0.00000000  0.90442100  1
  Tb  Tb7  1  0.00000000  0.47064000  0.09557900  1
  Tb  Tb8  1  0.47064000  0.47064000  0.59557900  1
  Tb  Tb9  1  0.52936000  0.52936000  0.40442100  1
  Tb  Tb10  1  0.52936000  0.52936000  0.09557900  1
  Tb  Tb11  1  0.47064000  0.47064000  0.90442100  1
  Al  Al0  1  0.14588800  0.59727700  0.75000000  1
  Al  Al1  1  0.85411200  0.40272300  0.25000000  1
  Al  Al2  1  0.40272300  0.54861100  0.75000000  1
  Al  Al3  1  0.59727700  0.14588800  0.75000000  1
  Al  Al4  1  0.59727700  0.45138900  0.25000000  1
  Al  Al5  1  0.40272300  0.85411200  0.25000000  1
  Al  Al6  1  0.45138900  0.85411200  0.75000000  1
  Al  Al7  1  0.54861100  0.40272300  0.75000000  1
  Al  Al8  1  0.54861100  0.14588800  0.25000000  1
  Al  Al9  1  0.45138900  0.59727700  0.25000000  1
  Al  Al10  1  0.85411200  0.45138900  0.75000000  1
  Al  Al11  1  0.14588800  0.54861100  0.25000000  1
  Al  Al12  1  0.15563100  0.00000000  0.11576000  1
  Al  Al13  1  0.84436900  0.00000000  0.88424000  1
  Al  Al14  1  0.00000000  0.15563100  0.11576000  1
  Al  Al15  1  0.84436900  0.00000000  0.61576000  1
  Al  Al16  1  0.00000000  0.15563100  0.38424000  1
  Al  Al17  1  0.00000000  0.84436900  0.88424000  1
  Al  Al18  1  0.15563100  0.00000000  0.38424000  1
  Al  Al19  1  0.00000000  0.84436900  0.61576000  1
  Al  Al20  1  0.84436900  0.84436900  0.11576000  1
  Al  Al21  1  0.15563100  0.15563100  0.88424000  1
  Al  Al22  1  0.15563100  0.15563100  0.61576000  1
  Al  Al23  1  0.84436900  0.84436900  0.38424000  1
  Al  Al24  1  0.24703400  0.49406800  0.50000000  1
  Al  Al25  1  0.75296600  0.50593200  0.50000000  1
  Al  Al26  1  0.50593200  0.75296600  0.50000000  1
  Al  Al27  1  0.75296600  0.50593200  0.00000000  1
  Al  Al28  1  0.49406800  0.24703400  0.00000000  1
  Al  Al29  1  0.49406800  0.24703400  0.50000000  1
  Al  Al30  1  0.24703400  0.49406800  0.00000000  1
  Al  Al31  1  0.50593200  0.75296600  0.00000000  1
  Al  Al32  1  0.24703400  0.75296600  0.50000000  1
  Al  Al33  1  0.75296600  0.24703400  0.50000000  1
  Al  Al34  1  0.75296600  0.24703400  0.00000000  1
  Al  Al35  1  0.24703400  0.75296600  0.00000000  1
  Al  Al36  1  0.14499900  0.00000000  0.75000000  1
  Al  Al37  1  0.85500100  0.00000000  0.25000000  1
  Al  Al38  1  0.00000000  0.14499900  0.75000000  1
  Al  Al39  1  0.00000000  0.85500100  0.25000000  1
  Al  Al40  1  0.85500100  0.85500100  0.75000000  1
  Al  Al41  1  0.14499900  0.14499900  0.25000000  1
  Al  Al42  1  0.33333300  0.66666700  0.62777100  1
  Al  Al43  1  0.66666700  0.33333300  0.37222900  1
  Al  Al44  1  0.66666700  0.33333300  0.12777100  1
  Al  Al45  1  0.66666700  0.33333300  0.87222900  1
  Al  Al46  1  0.33333300  0.66666700  0.87222900  1
  Al  Al47  1  0.33333300  0.66666700  0.12777100  1
  Al  Al48  1  0.33333300  0.66666700  0.37222900  1
  Al  Al49  1  0.66666700  0.33333300  0.62777100  1
  Al  Al50  1  0.25250500  0.00000000  0.52965700  1
  Al  Al51  1  0.74749500  0.00000000  0.47034300  1
  Al  Al52  1  0.00000000  0.25250500  0.52965700  1
  Al  Al53  1  0.74749500  0.00000000  0.02965700  1
  Al  Al54  1  0.00000000  0.25250500  0.97034300  1
  Al  Al55  1  0.00000000  0.74749500  0.47034300  1
  Al  Al56  1  0.25250500  0.00000000  0.97034300  1
  Al  Al57  1  0.00000000  0.74749500  0.02965700  1
  Al  Al58  1  0.74749500  0.74749500  0.52965700  1
  Al  Al59  1  0.25250500  0.25250500  0.47034300  1
  Al  Al60  1  0.25250500  0.25250500  0.02965700  1
  Al  Al61  1  0.74749500  0.74749500  0.97034300  1
  Al  Al62  1  0.15696200  0.39166700  0.66598100  1
  Al  Al63  1  0.84303800  0.60833300  0.33401900  1
  Al  Al64  1  0.60833300  0.76529500  0.66598100  1
  Al  Al65  1  0.84303800  0.60833300  0.16598100  1
  Al  Al66  1  0.39166700  0.15696200  0.83401900  1
  Al  Al67  1  0.39166700  0.23470500  0.33401900  1
  Al  Al68  1  0.15696200  0.39166700  0.83401900  1
  Al  Al69  1  0.60833300  0.84303800  0.16598100  1
  Al  Al70  1  0.23470500  0.84303800  0.66598100  1
  Al  Al71  1  0.39166700  0.23470500  0.16598100  1
  Al  Al72  1  0.76529500  0.60833300  0.83401900  1
  Al  Al73  1  0.76529500  0.15696200  0.33401900  1
  Al  Al74  1  0.60833300  0.76529500  0.83401900  1
  Al  Al75  1  0.23470500  0.39166700  0.16598100  1
  Al  Al76  1  0.60833300  0.84303800  0.33401900  1
  Al  Al77  1  0.39166700  0.15696200  0.66598100  1
  Al  Al78  1  0.76529500  0.15696200  0.16598100  1
  Al  Al79  1  0.23470500  0.39166700  0.33401900  1
  Al  Al80  1  0.23470500  0.84303800  0.83401900  1
  Al  Al81  1  0.76529500  0.60833300  0.66598100  1
  Al  Al82  1  0.84303800  0.23470500  0.83401900  1
  Al  Al83  1  0.15696200  0.76529500  0.16598100  1
  Al  Al84  1  0.15696200  0.76529500  0.33401900  1
  Al  Al85  1  0.84303800  0.23470500  0.66598100  1
  V  V0  1  0.00000000  0.00000000  0.50000000  1
  V  V1  1  0.00000000  0.00000000  0.00000000  1
  V  V2  1  0.73107400  0.00000000  0.75000000  1
  V  V3  1  0.26892600  0.00000000  0.25000000  1
  V  V4  1  0.00000000  0.73107400  0.75000000  1
  V  V5  1  0.00000000  0.26892600  0.25000000  1
  V  V6  1  0.26892600  0.26892600  0.75000000  1
  V  V7  1  0.73107400  0.73107400  0.25000000  1
loop_
_geom_bond_atom_site_label_1
_geom_bond_atom_site_label_2
_geom_bond_distance
_geom_bond_site_symmetry_2
Tb0 Tb1 3.441767 1_555
Tb0 V2 3.519287 1_555
Tb1 V3 3.519287 1_555
Tb2 Tb5 3.441767 1_555
Tb2 V4 3.519287 1_555
Tb3 Tb6 3.441767 1_554
Tb3 V3 3.519287 1_555
Tb4 Tb7 3.441767 1_556
Tb4 V4 3.519287 1_555
Tb5 V5 3.519287 1_555
Tb6 V2 3.519287 1_555
Tb7 V5 3.519287 1_555
Tb8 Tb9 3.441767 1_555
Tb8 V6 3.519287 1_555
Tb9 V7 3.519287 1_555
Tb10 Tb11 3.441767 1_554
Tb10 V7 3.519287 1_555
Tb11 V6 3.519287 1_555
Al0 V4 2.666371 1_555
Al0 Al68 2.760112 1_555
Al0 Al62 2.760112 1_555
Al0 Al10 2.780775 1_455
Al0 Al70 2.798980 1_555
Al0 Al80 2.798980 1_555
Al0 Al42 2.817002 1_555
Al0 Al46 2.817002 1_555
Al0 Tb4 3.064952 1_555
Al0 Tb2 3.064952 1_555
Al1 V5 2.666371 1_655
Al1 Al63 2.760112 1_555
Al1 Al65 2.760112 1_555
Al1 Al11 2.780775 1_655
Al1 Al78 2.798980 1_555
Al1 Al73 2.798980 1_555
Al1 Al43 2.817002 1_555
Al1 Al44 2.817002 1_555
Al1 Tb5 3.064952 1_655
Al1 Tb7 3.064952 1_655
Al2 V6 2.666372 1_555
Al2 Al74 2.760112 1_555
Al2 Al64 2.760112 1_555
Al2 Al7 2.780775 1_555
Al2 Al62 2.798980 1_555
Al2 Al68 2.798980 1_555
Al2 Al42 2.817009 1_555
Al2 Al46 2.817009 1_555
Al2 Tb8 3.064952 1_555
Al2 Tb11 3.064952 1_555
Al3 V2 2.666371 1_555
Al3 Al66 2.760112 1_555
Al3 Al77 2.760112 1_555
Al3 Al6 2.780775 1_545
Al3 Al85 2.798980 1_555
Al3 Al82 2.798980 1_555
Al3 Al45 2.817002 1_555
Al3 Al49 2.817002 1_555
Al3 Tb0 3.064952 1_555
Al3 Tb6 3.064952 1_555
Al4 V7 2.666372 1_555
Al4 Al67 2.760112 1_555
Al4 Al71 2.760112 1_555
Al4 Al9 2.780775 1_555
Al4 Al63 2.798980 1_555
Al4 Al65 2.798980 1_555
Al4 Al43 2.817009 1_555
Al4 Al44 2.817009 1_555
Al4 Tb9 3.064952 1_555
Al4 Tb10 3.064952 1_555
Al5 V3 2.666371 1_565
Al5 Al69 2.760112 1_555
Al5 Al76 2.760112 1_555
Al5 Al8 2.780775 1_565
Al5 Al83 2.798980 1_555
Al5 Al84 2.798980 1_555
Al5 Tb1 3.064952 1_565
Al5 Tb3 3.064952 1_565
Al6 V2 2.666372 1_565
Al6 Al80 2.760112 1_555
Al6 Al70 2.760112 1_555
Al6 Al64 2.798980 1_555
Al6 Al74 2.798980 1_555
Al6 Tb6 3.064952 1_565
Al6 Tb0 3.064952 1_565
Al7 V6 2.666372 1_555
Al7 Al72 2.760112 1_555
Al7 Al81 2.760112 1_555
Al7 Al77 2.798980 1_555
Al7 Tb11 3.064952 1_555
Al7 Tb8 3.064952 1_555
Al8 V3 2.666372 1_555
Al8 Tb1 3.064952 1_555
Al8 Tb3 3.064952 1_555
Al9 V7 2.666372 1_555
Al9 Tb9 3.064952 1_555
Al9 Tb10 3.064952 1_555
Al10 V4 2.666372 1_655
Al10 Al85 2.760112 1_555
Al10 Al82 2.760112 1_555
Al10 Al72 2.798980 1_555
Al10 Al81 2.798980 1_555
Al10 Al45 2.817003 1_555
Al10 Al49 2.817003 1_555
Al10 Tb4 3.064952 1_655
Al10 Tb2 3.064952 1_655
Al11 V5 2.666372 1_555
Al11 Al84 2.760112 1_555
Al11 Al83 2.760112 1_555
Al11 Al75 2.798980 1_555
Al11 Al79 2.798980 1_555
Al11 Al47 2.817003 1_555
Al11 Al48 2.817003 1_555
Al11 Tb5 3.064952 1_555
Al11 Tb7 3.064952 1_555
Al12 V1 2.669131 1_555
Al12 V3 2.681475 1_555
Al12 Al83 2.738288 1_545
Al12 Al71 2.738288 1_555
Al12 Al56 2.783865 1_554
Al12 Al60 2.866076 1_555
Al12 Al57 2.866076 1_545
Al12 Al41 2.895245 1_555
Al12 Al39 2.895245 1_545
Al12 Al14 2.966486 1_555
Al12 Al20 2.966486 1_445
Al12 Tb3 3.484961 1_555
Al13 V1 2.669131 1_656
Al13 V2 2.681475 1_555
Al13 Al82 2.738288 1_555
Al13 Al74 2.738288 1_545
Al13 Al53 2.783865 1_556
Al13 Al61 2.866076 1_545
Al13 Al54 2.866076 1_655
Al13 Al40 2.895245 1_545
Al13 Al38 2.895245 1_655
Al13 Al17 2.966486 1_645
Al13 Al21 2.966486 1_655
Al13 Tb6 3.484961 1_555
Al14 V1 2.669131 1_555
Al14 V5 2.681475 1_555
Al14 Al78 2.738288 1_455
Al14 Al75 2.738288 1_555
Al14 Al54 2.783865 1_554
Al14 Al60 2.866076 1_555
Al14 Al53 2.866076 1_455
Al14 Al41 2.895245 1_555
Al14 Al37 2.895245 1_455
Al14 Al20 2.966486 1_445
Al14 Tb7 3.484961 1_555
Al15 V0 2.669131 1_655
Al15 V2 2.681475 1_555
Al15 Al85 2.738288 1_555
Al15 Al64 2.738288 1_545
Al15 Al51 2.783865 1_555
Al15 Al58 2.866076 1_545
Al15 Al52 2.866076 1_655
Al15 Al40 2.895245 1_545
Al15 Al38 2.895245 1_655
Al15 Al19 2.966486 1_645
Al15 Al22 2.966486 1_655
Al15 Tb0 3.484961 1_555
Al16 V0 2.669131 1_555
Al16 V5 2.681475 1_555
Al16 Al73 2.738288 1_455
Al16 Al79 2.738288 1_555
Al16 Al52 2.783865 1_555
Al16 Al59 2.866076 1_555
Al16 Al51 2.866076 1_455
Al16 Al41 2.895245 1_555
Al16 Al37 2.895245 1_455
Al16 Al18 2.966486 1_555
Al16 Al23 2.966486 1_445
Al16 Tb5 3.484961 1_555
Al17 V1 2.669131 1_566
Al17 V4 2.681475 1_555
Al17 Al80 2.738288 1_555
Al17 Al72 2.738288 1_455
Al17 Al57 2.783865 1_556
Al17 Al61 2.866076 1_455
Al17 Al56 2.866076 1_565
Al17 Al40 2.895245 1_455
Al17 Al36 2.895245 1_565
Al17 Al21 2.966486 1_565
Al17 Tb4 3.484961 1_555
Al18 V0 2.669131 1_555
Al18 V3 2.681475 1_555
Al18 Al84 2.738288 1_545
Al18 Al67 2.738288 1_555
Al18 Al50 2.783865 1_555
Al18 Al59 2.866076 1_555
Al18 Al55 2.866076 1_545
Al18 Al41 2.895245 1_555
Al18 Al39 2.895245 1_545
Al18 Al23 2.966486 1_445
Al18 Tb1 3.484961 1_555
Al19 V0 2.669131 1_565
Al19 V4 2.681475 1_555
Al19 Al70 2.738288 1_555
Al19 Al81 2.738288 1_455
Al19 Al55 2.783865 1_555
Al19 Al58 2.866076 1_455
Al19 Al50 2.866076 1_565
Al19 Al40 2.895245 1_455
Al19 Al36 2.895245 1_565
Al19 Al22 2.966486 1_565
Al19 Tb2 3.484961 1_555
Al20 V1 2.669131 1_665
Al20 V7 2.681475 1_555
Al20 Al65 2.738288 1_555
Al20 Al69 2.738288 1_555
Al20 Al61 2.783865 1_554
Al20 Al53 2.866076 1_565
Al20 Al57 2.866076 1_655
Al20 Al39 2.895245 1_655
Al20 Al37 2.895245 1_565
Al20 Tb10 3.484962 1_555
Al21 V1 2.669131 1_556
Al21 V6 2.681475 1_555
Al21 Al66 2.738288 1_555
Al21 Al68 2.738288 1_555
Al21 Al60 2.783865 1_556
Al21 Al54 2.866076 1_555
Al21 Al56 2.866076 1_555
Al21 Al36 2.895245 1_555
Al21 Al38 2.895245 1_555
Al21 Tb11 3.484962 1_555
Al22 V0 2.669131 1_555
Al22 V6 2.681475 1_555
Al22 Al77 2.738288 1_555
Al22 Al62 2.738288 1_555
Al22 Al59 2.783865 1_555
Al22 Al52 2.866076 1_555
Al22 Al50 2.866076 1_555
Al22 Al36 2.895245 1_555
Al22 Al38 2.895245 1_555
Al22 Tb8 3.484962 1_555
Al23 V0 2.669131 1_665
Al23 V7 2.681475 1_555
Al23 Al76 2.738288 1_555
Al23 Al63 2.738288 1_555
Al23 Al58 2.783865 1_555
Al23 Al51 2.866076 1_565
Al23 Al55 2.866076 1_655
Al23 Al39 2.895245 1_655
Al23 Al37 2.895245 1_565
Al23 Tb9 3.484962 1_555
Al24 Al59 2.739654 1_555
Al24 Al52 2.739654 1_555
Al24 Al42 2.794923 1_555
Al24 Al48 2.794923 1_555
Al24 Al32 2.849143 1_555
Al24 Al26 2.849143 1_555
Al24 Tb8 3.100530 1_555
Al24 Tb5 3.100530 1_555
Al24 Al79 3.122739 1_555
Al24 Al62 3.122739 1_555
Al24 Tb2 3.384439 1_555
Al24 Tb9 3.384439 1_555
Al25 Al58 2.739654 1_555
Al25 Al55 2.739654 1_655
Al25 Al49 2.794923 1_555
Al25 Al43 2.794923 1_555
Al25 Al33 2.849143 1_555
Al25 Al29 2.849143 1_555
Al25 Tb9 3.100530 1_555
Al25 Tb2 3.100530 1_655
Al25 Al81 3.122739 1_555
Al25 Al63 3.122739 1_555
Al25 Tb5 3.384439 1_655
Al25 Tb8 3.384439 1_555
Al26 Al58 2.739654 1_555
Al26 Al51 2.739654 1_565
Al26 Al42 2.794923 1_555
Al26 Al48 2.794923 1_555
Al26 Al32 2.849143 1_555
Al26 Tb9 3.100530 1_555
Al26 Tb0 3.100530 1_565
Al26 Al64 3.122739 1_555
Al26 Al76 3.122739 1_555
Al26 Tb1 3.384439 1_565
Al26 Tb8 3.384439 1_555
Al27 Al61 2.739654 1_554
Al27 Al57 2.739654 1_655
Al27 Al45 2.794923 1_554
Al27 Al44 2.794923 1_555
Al27 Al34 2.849143 1_555
Al27 Al28 2.849143 1_555
Al27 Tb10 3.100530 1_555
Al27 Tb4 3.100530 1_654
Al27 Al72 3.122739 1_554
Al27 Al65 3.122739 1_555
Al27 Tb7 3.384439 1_655
Al27 Tb11 3.384439 1_554
Al28 Al60 2.739654 1_555
Al28 Al56 2.739654 1_554
Al28 Al45 2.794923 1_554
Al28 Al44 2.794923 1_555
Al28 Al34 2.849143 1_555
Al28 Tb11 3.100530 1_554
Al28 Tb3 3.100530 1_555
Al28 Al71 3.122739 1_555
Al28 Al66 3.122739 1_554
Al28 Tb6 3.384439 1_554
Al28 Tb10 3.384439 1_555
Al29 Al59 2.739654 1_555
Al29 Al50 2.739654 1_555
Al29 Al49 2.794923 1_555
Al29 Al43 2.794923 1_555
Al29 Al33 2.849143 1_555
Al29 Tb8 3.100530 1_555
Al29 Tb1 3.100530 1_555
Al29 Al67 3.122739 1_555
Al29 Al77 3.122739 1_555
Al29 Tb0 3.384439 1_555
Al29 Tb9 3.384439 1_555
Al30 Al60 2.739654 1_555
Al30 Al54 2.739654 1_554
Al30 Al46 2.794923 1_554
Al30 Al47 2.794923 1_555
Al30 Al35 2.849143 1_555
Al30 Al31 2.849143 1_555
Al30 Tb11 3.100530 1_554
Al30 Tb7 3.100530 1_555
Al30 Al75 3.122739 1_555
Al30 Al68 3.122739 1_554
Al30 Tb4 3.384439 1_554
Al30 Tb10 3.384439 1_555
Al31 Al61 2.739654 1_554
Al31 Al53 2.739654 1_565
Al31 Al46 2.794923 1_554
Al31 Al47 2.794923 1_555
Al31 Al35 2.849143 1_555
Al31 Tb10 3.100530 1_555
Al31 Tb6 3.100530 1_564
Al31 Al74 3.122739 1_554
Al31 Al69 3.122739 1_555
Al31 Tb3 3.384439 1_565
Al31 Tb11 3.384439 1_554
Al32 Al55 2.739654 1_555
Al32 Al50 2.739654 1_565
Al32 Al42 2.794918 1_555
Al32 Al48 2.794918 1_555
Al32 Tb2 3.100531 1_555
Al32 Tb1 3.100531 1_565
Al32 Al84 3.122739 1_555
Al32 Al70 3.122739 1_555
Al32 Tb0 3.384439 1_565
Al32 Tb5 3.384439 1_555
Al33 Al51 2.739654 1_555
Al33 Al52 2.739654 1_655
Al33 Al49 2.794918 1_555
Al33 Al43 2.794918 1_555
Al33 Tb0 3.100531 1_555
Al33 Tb5 3.100531 1_655
Al33 Al73 3.122739 1_555
Al33 Al85 3.122739 1_555
Al33 Tb2 3.384439 1_655
Al33 Tb1 3.384439 1_555
Al34 Al53 2.739654 1_555
Al34 Al54 2.739654 1_654
Al34 Al45 2.794918 1_554
Al34 Al44 2.794918 1_555
Al34 Tb6 3.100531 1_554
Al34 Tb7 3.100531 1_655
Al34 Al78 3.122739 1_555
Al34 Al82 3.122739 1_554
Al34 Tb3 3.384439 1_555
Al34 Tb4 3.384439 1_654
Al35 Al57 2.739654 1_555
Al35 Al56 2.739654 1_564
Al35 Al46 2.794918 1_554
Al35 Al47 2.794918 1_555
Al35 Tb4 3.100531 1_554
Al35 Tb3 3.100531 1_565
Al35 Al83 3.122739 1_555
Al35 Al80 3.122739 1_554
Al35 Tb6 3.384439 1_564
Al35 Tb7 3.384439 1_555
Al36 V6 2.565624 1_555
Al36 V4 2.565624 1_545
Al36 Al38 2.763829 1_555
Al36 Al40 2.763830 1_445
Al36 Al80 2.805582 1_545
Al36 Al70 2.805582 1_545
Al36 Al66 2.805582 1_555
Al36 Al77 2.805582 1_555
Al37 V7 2.565624 1_545
Al37 V5 2.565624 1_655
Al37 Al39 2.763829 1_645
Al37 Al41 2.763830 1_655
Al37 Al78 2.805582 1_555
Al37 Al73 2.805582 1_555
Al37 Al69 2.805582 1_545
Al37 Al76 2.805582 1_545
Al38 V6 2.565624 1_555
Al38 V2 2.565624 1_455
Al38 Al40 2.763830 1_445
Al38 Al82 2.805582 1_455
Al38 Al85 2.805582 1_455
Al38 Al68 2.805582 1_555
Al38 Al62 2.805582 1_555
Al39 V7 2.565624 1_455
Al39 V3 2.565624 1_565
Al39 Al41 2.763830 1_565
Al39 Al83 2.805582 1_555
Al39 Al84 2.805582 1_555
Al39 Al65 2.805582 1_455
Al39 Al63 2.805582 1_455
Al40 V2 2.565624 1_565
Al40 V4 2.565624 1_655
Al40 Al72 2.805582 1_555
Al40 Al81 2.805582 1_555
Al40 Al64 2.805582 1_555
Al40 Al74 2.805582 1_555
Al41 V3 2.565624 1_555
Al41 V5 2.565624 1_555
Al41 Al71 2.805582 1_555
Al41 Al79 2.805582 1_555
Al41 Al75 2.805582 1_555
Al41 Al67 2.805582 1_555
Al42 Al70 2.740186 1_555
Al42 Al62 2.740195 1_555
Al42 Al64 2.740197 1_555
Al42 Al6 2.817003 1_555
Al42 Tb2 3.243574 1_555
Al42 Tb0 3.243576 1_565
Al42 Tb8 3.243584 1_555
Al43 Al73 2.740186 1_555
Al43 Al63 2.740195 1_555
Al43 Al67 2.740197 1_555
Al43 Al8 2.817003 1_555
Al43 Tb5 3.243574 1_655
Al43 Tb1 3.243576 1_555
Al43 Tb9 3.243584 1_555
Al44 Al78 2.740186 1_555
Al44 Al65 2.740195 1_555
Al44 Al71 2.740197 1_555
Al44 Al8 2.817003 1_555
Al44 Tb7 3.243574 1_655
Al44 Tb3 3.243576 1_555
Al44 Tb10 3.243584 1_555
Al45 Al82 2.740186 1_555
Al45 Al66 2.740195 1_555
Al45 Al72 2.740197 1_555
Al45 Al7 2.817009 1_555
Al45 Tb6 3.243574 1_555
Al45 Tb4 3.243576 1_655
Al45 Tb11 3.243584 1_555
Al46 Al80 2.740186 1_555
Al46 Al68 2.740195 1_555
Al46 Al74 2.740197 1_555
Al46 Al6 2.817003 1_555
Al46 Tb4 3.243574 1_555
Al46 Tb6 3.243576 1_565
Al46 Tb11 3.243584 1_555
Al47 Al83 2.740186 1_555
Al47 Al69 2.740195 1_555
Al47 Al75 2.740197 1_555
Al47 Al5 2.817002 1_555
Al47 Al9 2.817009 1_555
Al47 Tb3 3.243574 1_565
Al47 Tb7 3.243576 1_555
Al47 Tb10 3.243584 1_555
Al48 Al84 2.740186 1_555
Al48 Al76 2.740195 1_555
Al48 Al79 2.740197 1_555
Al48 Al5 2.817002 1_555
Al48 Al9 2.817009 1_555
Al48 Tb1 3.243574 1_565
Al48 Tb5 3.243576 1_555
Al48 Tb9 3.243584 1_555
Al49 Al85 2.740186 1_555
Al49 Al77 2.740195 1_555
Al49 Al81 2.740197 1_555
Al49 Al7 2.817009 1_555
Al49 Tb0 3.243574 1_555
Al49 Tb2 3.243576 1_655
Al49 Tb8 3.243584 1_555
Al50 V0 2.827851 1_555
Al50 Al70 2.914771 1_545
Al50 Al77 2.914771 1_555
Al50 Al59 2.970178 1_555
Al50 Al55 2.970178 1_545
Al50 Tb0 3.262183 1_555
Al50 Tb1 3.266156 1_555
Al51 V0 2.827851 1_655
Al51 Al73 2.914771 1_555
Al51 Al76 2.914771 1_545
Al51 Al58 2.970178 1_545
Al51 Al52 2.970178 1_655
Al51 Tb1 3.262183 1_555
Al51 Tb0 3.266156 1_555
Al52 V0 2.827851 1_555
Al52 Al85 2.914771 1_455
Al52 Al62 2.914771 1_555
Al52 Al59 2.970178 1_555
Al52 Tb2 3.262183 1_555
Al52 Tb5 3.266156 1_555
Al53 V1 2.827851 1_655
Al53 Al78 2.914771 1_555
Al53 Al69 2.914771 1_545
Al53 Al61 2.970178 1_544
Al53 Al54 2.970178 1_654
Al53 Tb3 3.262183 1_555
Al53 Tb6 3.266156 1_554
Al54 V1 2.827851 1_556
Al54 Al82 2.914771 1_455
Al54 Al68 2.914771 1_555
Al54 Al60 2.970178 1_556
Al54 Tb4 3.262183 1_555
Al54 Tb7 3.266156 1_556
Al55 V0 2.827851 1_565
Al55 Al84 2.914771 1_555
Al55 Al63 2.914771 1_455
Al55 Al58 2.970178 1_455
Al55 Tb5 3.262183 1_555
Al55 Tb2 3.266156 1_555
Al56 V1 2.827851 1_556
Al56 Al80 2.914771 1_545
Al56 Al66 2.914771 1_555
Al56 Al60 2.970178 1_556
Al56 Al57 2.970178 1_546
Al56 Tb6 3.262183 1_555
Al56 Tb3 3.266156 1_556
Al57 V1 2.827851 1_565
Al57 Al83 2.914771 1_555
Al57 Al65 2.914771 1_455
Al57 Al61 2.970178 1_454
Al57 Tb7 3.262183 1_555
Al57 Tb4 3.266156 1_554
Al58 V0 2.827851 1_665
Al58 Al81 2.914771 1_555
Al58 Al64 2.914771 1_555
Al58 Tb8 3.262183 1_555
Al58 Tb9 3.266156 1_555
Al59 V0 2.827851 1_555
Al59 Al67 2.914771 1_555
Al59 Al79 2.914771 1_555
Al59 Tb9 3.262183 1_555
Al59 Tb8 3.266156 1_555
Al60 V1 2.827851 1_555
Al60 Al71 2.914771 1_555
Al60 Al75 2.914771 1_555
Al60 Tb10 3.262183 1_555
Al60 Tb11 3.266156 1_554
Al61 V1 2.827851 1_666
Al61 Al72 2.914771 1_555
Al61 Al74 2.914771 1_555
Al61 Tb11 3.262183 1_555
Al61 Tb10 3.266156 1_556
Al62 V6 2.686036 1_555
Al62 Al68 2.971690 1_555
Al62 Al85 2.991857 1_455
Al62 Tb2 3.073664 1_555
Al62 Tb8 3.349862 1_555
Al63 V7 2.686036 1_555
Al63 Al65 2.971690 1_555
Al63 Al84 2.991857 1_655
Al63 Tb5 3.073664 1_655
Al63 Tb9 3.349862 1_555
Al64 V2 2.686036 1_565
Al64 Al74 2.971690 1_555
Al64 Al81 2.991856 1_555
Al64 Tb8 3.073664 1_555
Al64 Tb0 3.349862 1_565
Al65 V7 2.686036 1_555
Al65 Al83 2.991857 1_655
Al65 Tb7 3.073664 1_655
Al65 Tb10 3.349862 1_555
Al66 V6 2.686036 1_555
Al66 Al7 2.798980 1_555
Al66 Al77 2.971690 1_555
Al66 Al80 2.991857 1_545
Al66 Tb6 3.073664 1_555
Al66 Tb11 3.349862 1_555
Al67 V3 2.686036 1_555
Al67 Al8 2.798980 1_555
Al67 Al71 2.971690 1_555
Al67 Al79 2.991856 1_555
Al67 Tb9 3.073664 1_555
Al67 Tb1 3.349862 1_555
Al68 V6 2.686036 1_555
Al68 Al82 2.991857 1_455
Al68 Tb4 3.073664 1_555
Al68 Tb11 3.349862 1_555
Al69 V7 2.686036 1_555
Al69 Al9 2.798980 1_555
Al69 Al76 2.971690 1_555
Al69 Al78 2.991857 1_565
Al69 Tb3 3.073664 1_565
Al69 Tb10 3.349862 1_555
Al70 V4 2.686036 1_555
Al70 Al80 2.971690 1_555
Al70 Al77 2.991857 1_565
Al70 Tb0 3.073664 1_565
Al70 Tb2 3.349863 1_555
Al71 V3 2.686036 1_555
Al71 Al8 2.798980 1_555
Al71 Al75 2.991856 1_555
Al71 Tb10 3.073664 1_555
Al71 Tb3 3.349862 1_555
Al72 V4 2.686036 1_655
Al72 Al81 2.971690 1_555
Al72 Al74 2.991856 1_555
Al72 Tb11 3.073664 1_555
Al72 Tb4 3.349862 1_655
Al73 V5 2.686036 1_655
Al73 Al8 2.760112 1_555
Al73 Al78 2.971690 1_555
Al73 Al76 2.991857 1_545
Al73 Tb1 3.073664 1_555
Al73 Tb5 3.349863 1_655
Al74 V2 2.686036 1_565
Al74 Tb11 3.073664 1_555
Al74 Tb6 3.349862 1_565
Al75 V5 2.686036 1_555
Al75 Al9 2.760112 1_555
Al75 Al79 2.971690 1_555
Al75 Tb10 3.073664 1_555
Al75 Tb7 3.349862 1_555
Al76 V7 2.686036 1_555
Al76 Al9 2.798980 1_555
Al76 Tb1 3.073664 1_565
Al76 Tb9 3.349862 1_555
Al77 V6 2.686036 1_555
Al77 Tb0 3.073664 1_555
Al77 Tb8 3.349862 1_555
Al78 V5 2.686036 1_655
Al78 Al8 2.760112 1_555
Al78 Tb3 3.073664 1_555
Al78 Tb7 3.349863 1_655
Al79 V5 2.686036 1_555
Al79 Al9 2.760112 1_555
Al79 Tb9 3.073664 1_555
Al79 Tb5 3.349862 1_555
Al80 V4 2.686036 1_555
Al80 Tb6 3.073664 1_565
Al80 Tb4 3.349863 1_555
Al81 V4 2.686036 1_655
Al81 Tb8 3.073664 1_555
Al81 Tb2 3.349862 1_655
Al82 V2 2.686036 1_555
Al82 Al85 2.971690 1_555
Al82 Tb4 3.073664 1_655
Al82 Tb6 3.349863 1_555
Al83 V3 2.686036 1_565
Al83 Al84 2.971690 1_555
Al83 Tb7 3.073664 1_555
Al83 Tb3 3.349863 1_565
Al84 V3 2.686036 1_565
Al84 Tb5 3.073664 1_555
Al84 Tb1 3.349863 1_565
Al85 V2 2.686036 1_555
Al85 Tb2 3.073664 1_655
Al85 Tb0 3.349863 1_555
