# generated using pymatgen
data_Al2W2O7
_symmetry_space_group_name_H-M   'P 1'
_cell_length_a   6.70091700
_cell_length_b   6.79977795
_cell_length_c   6.82137908
_cell_angle_alpha   64.77989612
_cell_angle_beta   64.45791459
_cell_angle_gamma   64.15050683
_symmetry_Int_Tables_number   1
_chemical_formula_structural   Al2W2O7
_chemical_formula_sum   'Al4 W4 O14'
_cell_volume   241.28402111
_cell_formula_units_Z   2
loop_
 _symmetry_equiv_pos_site_id
 _symmetry_equiv_pos_as_xyz
  1  'x, y, z'
loop_
 _atom_site_type_symbol
 _atom_site_label
 _atom_site_symmetry_multiplicity
 _atom_site_fract_x
 _atom_site_fract_y
 _atom_site_fract_z
 _atom_site_occupancy
  Al  Al0  1  0.50000000  0.00000000  0.50000000  1
  Al  Al1  1  0.00000000  0.00000000  0.50000000  1
  Al  Al2  1  0.50000000  0.00000000  0.00000000  1
  Al  Al3  1  0.50000000  0.50000000  0.50000000  1
  W  W0  1  0.00000000  0.50000000  0.00000000  1
  W  W1  1  0.50000000  0.50000000  0.00000000  1
  W  W2  1  0.00000000  0.50000000  0.50000000  1
  W  W3  1  0.00000000  0.00000000  0.00000000  1
  O  O0  1  0.36860100  0.88000900  0.36058700  1
  O  O1  1  0.63139900  0.11999100  0.63941300  1
  O  O2  1  0.62517400  0.16385000  0.07351300  1
  O  O3  1  0.98144300  0.32921700  0.33529800  1
  O  O4  1  0.17412400  0.17527000  0.00214400  1
  O  O5  1  0.10023200  0.11079200  0.65780000  1
  O  O6  1  0.66403600  0.50780500  0.18351600  1
  O  O7  1  0.64916600  0.62197700  0.61485200  1
  O  O8  1  0.01855700  0.67078300  0.66470200  1
  O  O9  1  0.33596400  0.49219500  0.81648400  1
  O  O10  1  0.89976800  0.88920800  0.34220000  1
  O  O11  1  0.37482600  0.83615000  0.92648700  1
  O  O12  1  0.35083400  0.37802300  0.38514800  1
  O  O13  1  0.82587600  0.82473000  0.99785600  1
loop_
_geom_bond_atom_site_label_1
_geom_bond_atom_site_label_2
_geom_bond_distance
_geom_bond_site_symmetry_2
Al0 O1 2.086897 1_555
Al0 O0 2.086897 1_545
Al0 O7 2.222354 1_545
Al0 O12 2.222354 1_555
Al0 O5 2.312337 1_555
Al0 O10 2.312337 1_545
Al0 O11 2.521286 1_545
Al0 O2 2.521286 1_555
Al1 O10 1.983200 1_445
Al1 O5 1.983200 1_555
Al1 O3 2.005857 1_455
Al1 O8 2.005857 1_545
Al1 O0 2.132868 1_545
Al1 O1 2.132868 1_455
Al2 O11 1.962164 1_544
Al2 O2 1.962164 1_555
Al2 O13 1.976588 1_544
Al2 O4 1.976588 1_555
Al2 O1 2.130651 1_554
Al2 O0 2.130651 1_545
Al3 O9 1.943858 1_555
Al3 O6 1.943858 1_555
Al3 O7 2.062237 1_555
Al3 O12 2.062237 1_555
Al3 O0 2.236190 1_555
Al3 O1 2.236190 1_555
O2 W1 1.973247 1_555
O2 W3 2.179694 1_655
O3 W2 1.996132 1_655
O3 W0 2.052430 1_655
O4 W0 1.994450 1_555
O4 W3 2.006034 1_555
O5 W3 2.014477 1_556
O5 W2 2.293383 1_555
O6 W1 2.017970 1_555
O6 W0 2.039671 1_655
O7 W2 2.023275 1_655
O7 W1 2.278331 1_556
O8 W2 1.996132 1_555
O8 W0 2.052430 1_556
O9 W1 2.017970 1_556
O9 W0 2.039671 1_556
O10 W3 2.014477 1_665
O10 W2 2.293383 1_655
O11 W1 1.973247 1_556
O11 W3 2.179694 1_566
O12 W2 2.023275 1_555
O12 W1 2.278331 1_555
O13 W0 1.994450 1_656
O13 W3 2.006034 1_666
