# generated using pymatgen
data_ZrReSi2
_symmetry_space_group_name_H-M   'P 1'
_cell_length_a   8.09853500
_cell_length_b   9.33421100
_cell_length_c   10.10066900
_cell_angle_alpha   90.00000000
_cell_angle_beta   90.00000000
_cell_angle_gamma   90.00000000
_symmetry_Int_Tables_number   1
_chemical_formula_structural   ZrReSi2
_chemical_formula_sum   'Zr12 Re12 Si24'
_cell_volume   763.54426026
_cell_formula_units_Z   12
loop_
 _symmetry_equiv_pos_site_id
 _symmetry_equiv_pos_as_xyz
  1  'x, y, z'
loop_
 _atom_site_type_symbol
 _atom_site_label
 _atom_site_symmetry_multiplicity
 _atom_site_fract_x
 _atom_site_fract_y
 _atom_site_fract_z
 _atom_site_occupancy
  Zr  Zr0  1  0.74856000  0.82677400  0.04633400  1
  Zr  Zr1  1  0.74856000  0.17322600  0.95366600  1
  Zr  Zr2  1  0.25144000  0.67322600  0.54633400  1
  Zr  Zr3  1  0.25144000  0.32677400  0.45366600  1
  Zr  Zr4  1  0.25144000  0.17322600  0.95366600  1
  Zr  Zr5  1  0.25144000  0.82677400  0.04633400  1
  Zr  Zr6  1  0.74856000  0.32677400  0.45366600  1
  Zr  Zr7  1  0.74856000  0.67322600  0.54633400  1
  Zr  Zr8  1  0.50000000  0.83143300  0.31957600  1
  Zr  Zr9  1  0.50000000  0.16856700  0.68042400  1
  Zr  Zr10  1  0.50000000  0.66856700  0.81957600  1
  Zr  Zr11  1  0.50000000  0.33143300  0.18042400  1
  Re  Re0  1  0.75002700  0.58551400  0.25780200  1
  Re  Re1  1  0.75002700  0.41448600  0.74219800  1
  Re  Re2  1  0.24997300  0.91448600  0.75780200  1
  Re  Re3  1  0.24997300  0.08551400  0.24219800  1
  Re  Re4  1  0.24997300  0.41448600  0.74219800  1
  Re  Re5  1  0.24997300  0.58551400  0.25780200  1
  Re  Re6  1  0.75002700  0.08551400  0.24219800  1
  Re  Re7  1  0.75002700  0.91448600  0.75780200  1
  Re  Re8  1  0.74411800  0.00000000  0.50000000  1
  Re  Re9  1  0.25588200  0.50000000  0.00000000  1
  Re  Re10  1  0.25588200  0.00000000  0.50000000  1
  Re  Re11  1  0.74411800  0.50000000  0.00000000  1
  Si  Si0  1  0.85433700  0.83298500  0.31866900  1
  Si  Si1  1  0.85433700  0.16701500  0.68133100  1
  Si  Si2  1  0.14566300  0.66701500  0.81866900  1
  Si  Si3  1  0.14566300  0.33298500  0.18133100  1
  Si  Si4  1  0.14566300  0.16701500  0.68133100  1
  Si  Si5  1  0.14566300  0.83298500  0.31866900  1
  Si  Si6  1  0.85433700  0.33298500  0.18133100  1
  Si  Si7  1  0.85433700  0.66701500  0.81866900  1
  Si  Si8  1  0.50000000  0.53423500  0.38340900  1
  Si  Si9  1  0.50000000  0.46576500  0.61659100  1
  Si  Si10  1  0.50000000  0.96576500  0.88340900  1
  Si  Si11  1  0.50000000  0.03423500  0.11659100  1
  Si  Si12  1  0.00000000  0.52764200  0.38098600  1
  Si  Si13  1  0.00000000  0.47235800  0.61901400  1
  Si  Si14  1  0.00000000  0.97235800  0.88098600  1
  Si  Si15  1  0.00000000  0.02764200  0.11901400  1
  Si  Si16  1  0.50000000  0.63192600  0.10015800  1
  Si  Si17  1  0.50000000  0.36807400  0.89984200  1
  Si  Si18  1  0.50000000  0.86807400  0.60015800  1
  Si  Si19  1  0.50000000  0.13192600  0.39984200  1
  Si  Si20  1  0.00000000  0.62519500  0.09153000  1
  Si  Si21  1  0.00000000  0.37480500  0.90847000  1
  Si  Si22  1  0.00000000  0.87480500  0.59153000  1
  Si  Si23  1  0.00000000  0.12519500  0.40847000  1
loop_
_geom_bond_atom_site_label_1
_geom_bond_atom_site_label_2
_geom_bond_distance
_geom_bond_site_symmetry_2
Re0 Si12 2.436841 1_655
Re0 Si8 2.436959 1_555
Re0 Si0 2.535241 1_555
Re0 Si16 2.612117 1_555
Re0 Si6 2.620387 1_555
Re0 Si20 2.656318 1_655
Re0 Re11 2.723985 1_555
Re0 Zr7 3.027206 1_555
Re0 Zr0 3.103849 1_555
Re0 Zr6 3.122004 1_555
Re0 Zr8 3.123858 1_555
Re0 Zr11 3.214900 1_555
Re1 Si13 2.436841 1_655
Re1 Si9 2.436959 1_555
Re1 Si1 2.535241 1_555
Re1 Si17 2.612117 1_555
Re1 Si7 2.620387 1_555
Re1 Si21 2.656318 1_655
Re1 Re11 2.723985 1_556
Re1 Zr6 3.027206 1_555
Re1 Zr1 3.103849 1_555
Re1 Zr7 3.122004 1_555
Re1 Zr9 3.123858 1_555
Re1 Zr10 3.214900 1_555
Re2 Si14 2.436841 1_555
Re2 Si10 2.436959 1_555
Re2 Si2 2.535241 1_555
Re2 Si18 2.612117 1_555
Re2 Si4 2.620387 1_565
Re2 Si22 2.656318 1_555
Re2 Zr5 3.027206 1_556
Re2 Zr2 3.103849 1_555
Re2 Zr4 3.122004 1_565
Re2 Zr10 3.123858 1_555
Re2 Zr9 3.214900 1_565
Re3 Si15 2.436841 1_555
Re3 Si11 2.436959 1_555
Re3 Si3 2.535241 1_555
Re3 Si19 2.612117 1_555
Re3 Si5 2.620387 1_545
Re3 Si23 2.656318 1_555
Re3 Zr4 3.027206 1_554
Re3 Zr3 3.103849 1_555
Re3 Zr5 3.122004 1_545
Re3 Zr11 3.123858 1_555
Re3 Zr8 3.214900 1_545
Re4 Si13 2.436841 1_555
Re4 Si9 2.436959 1_555
Re4 Si4 2.535241 1_555
Re4 Si17 2.612117 1_555
Re4 Si2 2.620387 1_555
Re4 Si21 2.656318 1_555
Re4 Re9 2.723985 1_556
Re4 Zr3 3.027206 1_555
Re4 Zr4 3.103849 1_555
Re4 Zr2 3.122004 1_555
Re4 Zr9 3.123858 1_555
Re4 Zr10 3.214900 1_555
Re5 Si12 2.436841 1_555
Re5 Si8 2.436959 1_555
Re5 Si5 2.535241 1_555
Re5 Si16 2.612117 1_555
Re5 Si3 2.620387 1_555
Re5 Si20 2.656318 1_555
Re5 Re9 2.723985 1_555
Re5 Zr2 3.027206 1_555
Re5 Zr5 3.103849 1_555
Re5 Zr3 3.122004 1_555
Re5 Zr8 3.123858 1_555
Re5 Zr11 3.214900 1_555
Re6 Si15 2.436841 1_655
Re6 Si11 2.436959 1_555
Re6 Si6 2.535241 1_555
Re6 Si19 2.612117 1_555
Re6 Si0 2.620387 1_545
Re6 Si23 2.656318 1_655
Re6 Re8 2.723985 1_555
Re6 Zr1 3.027206 1_554
Re6 Zr6 3.103849 1_555
Re6 Zr0 3.122004 1_545
Re6 Zr11 3.123858 1_555
Re6 Zr8 3.214900 1_545
Re7 Si14 2.436841 1_655
Re7 Si10 2.436959 1_555
Re7 Si7 2.535241 1_555
Re7 Si18 2.612117 1_555
Re7 Si1 2.620387 1_565
Re7 Si22 2.656318 1_655
Re7 Re8 2.723985 1_565
Re7 Zr0 3.027206 1_556
Re7 Zr7 3.103849 1_555
Re7 Zr1 3.122004 1_565
Re7 Zr10 3.123858 1_555
Re7 Zr9 3.214900 1_565
Re8 Si18 2.539368 1_545
Re8 Si19 2.539368 1_555
Re8 Si22 2.552380 1_645
Re8 Si23 2.552380 1_655
Re8 Si1 2.565486 1_555
Re8 Si0 2.565486 1_545
Re8 Zr6 3.086082 1_555
Re8 Zr7 3.086082 1_545
Re8 Zr8 3.115347 1_545
Re8 Zr9 3.115347 1_555
Re9 Si16 2.539368 1_555
Re9 Si17 2.539368 1_554
Re9 Si20 2.552380 1_555
Re9 Si21 2.552380 1_554
Re9 Si2 2.565486 1_554
Re9 Si3 2.565486 1_555
Re9 Zr4 3.086082 1_554
Re9 Zr5 3.086082 1_555
Re9 Zr10 3.115347 1_554
Re9 Zr11 3.115347 1_555
Re10 Si19 2.539368 1_555
Re10 Si18 2.539368 1_545
Re10 Si22 2.552380 1_545
Re10 Si23 2.552380 1_555
Re10 Si5 2.565486 1_545
Re10 Si4 2.565486 1_555
Re10 Re2 2.723985 1_545
Re10 Re3 2.723985 1_555
Re10 Zr2 3.086082 1_545
Re10 Zr3 3.086082 1_555
Re10 Zr8 3.115347 1_545
Re10 Zr9 3.115347 1_555
Re11 Si17 2.539368 1_554
Re11 Si16 2.539368 1_555
Re11 Si20 2.552380 1_655
Re11 Si21 2.552380 1_654
Re11 Si6 2.565486 1_555
Re11 Si7 2.565486 1_554
Re11 Zr1 3.086082 1_554
Re11 Zr0 3.086082 1_555
Re11 Zr10 3.115347 1_554
Re11 Zr11 3.115347 1_555
Si0 Si5 2.359314 1_655
Si0 Zr8 2.869662 1_555
Si0 Zr7 2.871515 1_555
Si0 Zr0 2.881649 1_555
Si1 Si4 2.359314 1_655
Si1 Zr9 2.869662 1_555
Si1 Zr6 2.871515 1_555
Si1 Zr1 2.881649 1_555
Si2 Si7 2.359314 1_455
Si2 Zr10 2.869662 1_555
Si2 Zr5 2.871515 1_556
Si2 Zr2 2.881649 1_555
Si3 Si6 2.359314 1_455
Si3 Zr11 2.869662 1_555
Si3 Zr4 2.871515 1_554
Si3 Zr3 2.881649 1_555
Si4 Zr9 2.869662 1_555
Si4 Zr3 2.871515 1_555
Si4 Zr4 2.881649 1_555
Si5 Zr8 2.869662 1_555
Si5 Zr2 2.871515 1_555
Si5 Zr5 2.881649 1_555
Si6 Zr11 2.869662 1_555
Si6 Zr1 2.871515 1_554
Si6 Zr6 2.881649 1_555
Si7 Zr10 2.869662 1_555
Si7 Zr0 2.871515 1_556
Si7 Zr7 2.881649 1_555
Si8 Si9 2.440466 1_555
Si8 Zr11 2.790538 1_555
Si8 Zr8 2.848050 1_555
Si8 Zr3 2.881948 1_555
Si8 Zr6 2.881948 1_555
Si8 Zr7 2.905752 1_555
Si8 Zr2 2.905752 1_555
Si9 Zr10 2.790538 1_555
Si9 Zr9 2.848050 1_555
Si9 Zr7 2.881948 1_555
Si9 Zr2 2.881948 1_555
Si9 Zr3 2.905752 1_555
Si9 Zr6 2.905752 1_555
Si10 Si11 2.440466 1_566
Si10 Zr9 2.790538 1_565
Si10 Zr10 2.848050 1_555
Si10 Zr4 2.881948 1_565
Si10 Zr1 2.881948 1_565
Si10 Zr5 2.905752 1_556
Si10 Zr0 2.905752 1_556
Si11 Zr8 2.790538 1_545
Si11 Zr11 2.848050 1_555
Si11 Zr0 2.881948 1_545
Si11 Zr5 2.881948 1_545
Si11 Zr4 2.905752 1_554
Si11 Zr1 2.905752 1_554
Si12 Si13 2.458998 1_555
Si12 Zr6 2.863711 1_455
Si12 Zr3 2.863711 1_555
Si12 Zr2 2.963522 1_555
Si12 Zr7 2.963522 1_455
Si13 Zr7 2.863711 1_455
Si13 Zr2 2.863711 1_555
Si13 Zr6 2.963522 1_455
Si13 Zr3 2.963522 1_555
Si14 Si15 2.458998 1_566
Si14 Zr4 2.863711 1_565
Si14 Zr1 2.863711 1_465
Si14 Zr5 2.963522 1_556
Si14 Zr0 2.963522 1_456
Si15 Zr5 2.863711 1_545
Si15 Zr0 2.863711 1_445
Si15 Zr1 2.963522 1_454
Si15 Zr4 2.963522 1_554
Si16 Zr5 2.766854 1_555
Si16 Zr0 2.766854 1_555
Si16 Zr10 2.854628 1_554
Si16 Zr8 2.894786 1_555
Si16 Zr11 2.919686 1_555
Si17 Zr1 2.766854 1_555
Si17 Zr4 2.766854 1_555
Si17 Zr11 2.854628 1_556
Si17 Zr9 2.894786 1_555
Si17 Zr10 2.919686 1_555
Si18 Zr2 2.766854 1_555
Si18 Zr7 2.766854 1_555
Si18 Zr8 2.854628 1_555
Si18 Zr10 2.894786 1_555
Si18 Zr9 2.919686 1_565
Si19 Zr6 2.766854 1_555
Si19 Zr3 2.766854 1_555
Si19 Zr9 2.854628 1_555
Si19 Zr11 2.894786 1_555
Si19 Zr8 2.919686 1_545
Si20 Zr0 2.809848 1_455
Si20 Zr5 2.809848 1_555
Si21 Zr1 2.809848 1_455
Si21 Zr4 2.809848 1_555
Si22 Zr2 2.809848 1_555
Si22 Zr7 2.809848 1_455
Si23 Zr6 2.809848 1_455
Si23 Zr3 2.809848 1_555
