# generated using pymatgen
data_CrGeN2
_symmetry_space_group_name_H-M   'P 1'
_cell_length_a   5.50162600
_cell_length_b   6.67453700
_cell_length_c   5.28425900
_cell_angle_alpha   90.00000000
_cell_angle_beta   90.00000000
_cell_angle_gamma   90.00000000
_symmetry_Int_Tables_number   1
_chemical_formula_structural   CrGeN2
_chemical_formula_sum   'Cr4 Ge4 N8'
_cell_volume   194.04225116
_cell_formula_units_Z   4
loop_
 _symmetry_equiv_pos_site_id
 _symmetry_equiv_pos_as_xyz
  1  'x, y, z'
loop_
 _atom_site_type_symbol
 _atom_site_label
 _atom_site_symmetry_multiplicity
 _atom_site_fract_x
 _atom_site_fract_y
 _atom_site_fract_z
 _atom_site_occupancy
  Cr  Cr0  1  0.57079200  0.88327700  0.00273600  1
  Cr  Cr1  1  0.42920800  0.11672300  0.50273600  1
  Cr  Cr2  1  0.92920800  0.38327700  0.50273600  1
  Cr  Cr3  1  0.07079200  0.61672300  0.00273600  1
  Ge  Ge0  1  0.56793300  0.37711300  0.99969800  1
  Ge  Ge1  1  0.43206700  0.62288700  0.49969800  1
  Ge  Ge2  1  0.93206700  0.87711300  0.49969800  1
  Ge  Ge3  1  0.06793300  0.12288700  0.99969800  1
  N  N0  1  0.56981400  0.39037400  0.35779100  1
  N  N1  1  0.43018600  0.60962600  0.85779100  1
  N  N2  1  0.93018600  0.89037400  0.85779100  1
  N  N3  1  0.06981400  0.10962600  0.35779100  1
  N  N4  1  0.60309900  0.85464900  0.38977500  1
  N  N5  1  0.39690100  0.14535100  0.88977500  1
  N  N6  1  0.89690100  0.35464900  0.88977500  1
  N  N7  1  0.10309900  0.64535100  0.38977500  1
loop_
_geom_bond_atom_site_label_1
_geom_bond_atom_site_label_2
_geom_bond_distance
_geom_bond_site_symmetry_2
Cr0 N4 2.061796 1_555
Cr0 N5 2.081185 1_564
Cr0 N2 2.120946 1_554
Cr0 N1 2.126293 1_554
Cr1 N5 2.061796 1_555
Cr1 N4 2.081185 1_545
Cr1 N3 2.120946 1_555
Cr1 N0 2.126293 1_555
Cr2 N6 2.061796 1_555
Cr2 N7 2.081185 1_655
Cr2 N0 2.120946 1_555
Cr2 N3 2.126293 1_655
Cr3 N7 2.061796 1_555
Cr3 N6 2.081185 1_454
Cr3 N1 2.120946 1_554
Cr3 N2 2.126293 1_454
Ge0 N1 1.882834 1_555
Ge0 N0 1.894353 1_556
Ge0 N5 1.901501 1_555
Ge0 N6 1.906691 1_555
Ge1 N0 1.882834 1_555
Ge1 N1 1.894353 1_555
Ge1 N4 1.901501 1_555
Ge1 N7 1.906691 1_555
Ge2 N3 1.882834 1_665
Ge2 N2 1.894353 1_555
Ge2 N7 1.901501 1_655
Ge2 N4 1.906691 1_555
Ge3 N2 1.882834 1_445
Ge3 N3 1.894353 1_556
Ge3 N6 1.901501 1_455
Ge3 N5 1.906691 1_555
