# generated using pymatgen
data_CaCr(GeO3)2
_symmetry_space_group_name_H-M   'P 1'
_cell_length_a   9.42715400
_cell_length_b   5.31311200
_cell_length_c   10.40006729
_cell_angle_alpha   75.27703241
_cell_angle_beta   90.00000000
_cell_angle_gamma   90.00000000
_symmetry_Int_Tables_number   1
_chemical_formula_structural   CaCr(GeO3)2
_chemical_formula_sum   'Ca4 Cr4 Ge8 O24'
_cell_volume   503.80992861
_cell_formula_units_Z   4
loop_
 _symmetry_equiv_pos_site_id
 _symmetry_equiv_pos_as_xyz
  1  'x, y, z'
loop_
 _atom_site_type_symbol
 _atom_site_label
 _atom_site_symmetry_multiplicity
 _atom_site_fract_x
 _atom_site_fract_y
 _atom_site_fract_z
 _atom_site_occupancy
  Ca  Ca0  1  0.55101200  0.19458000  0.28303300  1
  Ca  Ca1  1  0.05101200  0.30542000  0.71696700  1
  Ca  Ca2  1  0.44898800  0.80542000  0.71696700  1
  Ca  Ca3  1  0.94898800  0.69458000  0.28303300  1
  Cr  Cr0  1  0.34165500  0.74794800  0.22880300  1
  Cr  Cr1  1  0.84165500  0.75205200  0.77119700  1
  Cr  Cr2  1  0.65834500  0.25205200  0.77119700  1
  Cr  Cr3  1  0.15834500  0.24794800  0.22880300  1
  Ge  Ge0  1  0.65200200  0.78796300  0.05042500  1
  Ge  Ge1  1  0.15200200  0.71203700  0.94957500  1
  Ge  Ge2  1  0.34799800  0.21203700  0.94957500  1
  Ge  Ge3  1  0.84799800  0.28796300  0.05042500  1
  Ge  Ge4  1  0.64831400  0.60193600  0.49142500  1
  Ge  Ge5  1  0.14831400  0.89806400  0.50857500  1
  Ge  Ge6  1  0.35168600  0.39806400  0.50857500  1
  Ge  Ge7  1  0.85168600  0.10193600  0.49142500  1
  O  O0  1  0.75034900  0.91201700  0.40151000  1
  O  O1  1  0.25034900  0.58798300  0.59849000  1
  O  O2  1  0.24965100  0.08798300  0.59849000  1
  O  O3  1  0.74965100  0.41201700  0.40151000  1
  O  O4  1  0.69218500  0.08342100  0.10278500  1
  O  O5  1  0.19218500  0.41657900  0.89721500  1
  O  O6  1  0.30781500  0.91657900  0.89721500  1
  O  O7  1  0.80781500  0.58342100  0.10278500  1
  O  O8  1  0.02121300  0.23734300  0.43233300  1
  O  O9  1  0.52121300  0.26265700  0.56766700  1
  O  O10  1  0.97878700  0.76265700  0.56766700  1
  O  O11  1  0.47878700  0.73734300  0.43233300  1
  O  O12  1  0.98088800  0.12006100  0.15078000  1
  O  O13  1  0.48088800  0.37993900  0.84922000  1
  O  O14  1  0.01911200  0.87993900  0.84922000  1
  O  O15  1  0.51911200  0.62006100  0.15078000  1
  O  O16  1  0.63442600  0.87158800  0.87755200  1
  O  O17  1  0.13442600  0.62841200  0.12244800  1
  O  O18  1  0.36557400  0.12841200  0.12244800  1
  O  O19  1  0.86557400  0.37158800  0.87755200  1
  O  O20  1  0.67548600  0.63010300  0.65727000  1
  O  O21  1  0.17548600  0.86989700  0.34273000  1
  O  O22  1  0.32451400  0.36989700  0.34273000  1
  O  O23  1  0.82451400  0.13010300  0.65727000  1
loop_
_geom_bond_atom_site_label_1
_geom_bond_atom_site_label_2
_geom_bond_distance
_geom_bond_site_symmetry_2
Ca0 O15 2.347818 1_555
Ca0 O22 2.471088 1_555
Ca0 O4 2.489344 1_555
Ca0 O18 2.503454 1_555
Ca0 O0 2.522532 1_545
Ca0 O11 2.618964 1_545
Ca0 O3 2.661402 1_555
Ca1 O14 2.347818 1_545
Ca1 O23 2.471088 1_455
Ca1 O5 2.489344 1_555
Ca1 O19 2.503454 1_455
Ca1 O1 2.522532 1_555
Ca1 O10 2.618964 1_455
Ca1 O2 2.661402 1_555
Ca2 O13 2.347818 1_555
Ca2 O20 2.471088 1_555
Ca2 O6 2.489344 1_555
Ca2 O16 2.503454 1_555
Ca2 O2 2.522532 1_565
Ca2 O9 2.618964 1_565
Ca2 O1 2.661402 1_555
Ca3 O12 2.347818 1_565
Ca3 O21 2.471088 1_655
Ca3 O7 2.489344 1_555
Ca3 O17 2.503454 1_655
Ca3 O3 2.522532 1_555
Ca3 O8 2.618964 1_655
Ca3 O0 2.661402 1_555
Cr0 O15 2.049153 1_555
Cr0 O18 2.055250 1_565
Cr0 O22 2.062733 1_555
Cr0 O21 2.160513 1_555
Cr0 O17 2.408394 1_555
Cr0 O11 2.468668 1_555
Cr1 O14 2.049153 1_655
Cr1 O19 2.055250 1_555
Cr1 O23 2.062733 1_565
Cr1 O20 2.160513 1_555
Cr1 O16 2.408394 1_555
Cr1 O10 2.468668 1_555
Cr2 O13 2.049153 1_555
Cr2 O16 2.055250 1_545
Cr2 O20 2.062733 1_555
Cr2 O23 2.160513 1_555
Cr2 O19 2.408394 1_555
Cr2 O9 2.468668 1_555
Cr3 O12 2.049153 1_455
Cr3 O17 2.055250 1_555
Cr3 O21 2.062733 1_545
Cr3 O22 2.160513 1_555
Cr3 O18 2.408394 1_555
Cr3 O8 2.468668 1_555
Ge0 O15 1.726647 1_555
Ge0 O16 1.746781 1_554
Ge0 O7 1.826021 1_555
Ge0 O4 1.827241 1_565
Ge1 O14 1.726647 1_555
Ge1 O17 1.746781 1_556
Ge1 O6 1.826021 1_555
Ge1 O5 1.827241 1_555
Ge2 O13 1.726647 1_555
Ge2 O18 1.746781 1_556
Ge2 O5 1.826021 1_555
Ge2 O6 1.827241 1_545
Ge3 O12 1.726647 1_555
Ge3 O19 1.746781 1_554
Ge3 O4 1.826021 1_555
Ge3 O7 1.827241 1_555
Ge4 O20 1.787217 1_555
Ge4 O11 1.795729 1_555
Ge4 O3 1.812433 1_555
Ge4 O0 1.931545 1_555
Ge4 O9 2.141811 1_555
Ge5 O21 1.787217 1_555
Ge5 O10 1.795729 1_455
Ge5 O2 1.812433 1_565
Ge5 O1 1.931545 1_555
Ge5 O8 2.141811 1_565
Ge6 O22 1.787217 1_555
Ge6 O9 1.795729 1_555
Ge6 O1 1.812433 1_555
Ge6 O2 1.931545 1_555
Ge6 O11 2.141811 1_555
Ge7 O23 1.787217 1_555
Ge7 O8 1.795729 1_655
Ge7 O0 1.812433 1_545
Ge7 O3 1.931545 1_555
Ge7 O10 2.141811 1_545
