# generated using pymatgen
data_Lu3Pu
_symmetry_space_group_name_H-M   'P 1'
_cell_length_a   5.70800921
_cell_length_b   5.70800921
_cell_length_c   5.70800921
_cell_angle_alpha   131.62817745
_cell_angle_beta   131.62817745
_cell_angle_gamma   70.81691794
_symmetry_Int_Tables_number   1
_chemical_formula_structural   Lu3Pu
_chemical_formula_sum   'Lu3 Pu1'
_cell_volume   101.77084145
_cell_formula_units_Z   1
loop_
 _symmetry_equiv_pos_site_id
 _symmetry_equiv_pos_as_xyz
  1  'x, y, z'
loop_
 _atom_site_type_symbol
 _atom_site_label
 _atom_site_symmetry_multiplicity
 _atom_site_fract_x
 _atom_site_fract_y
 _atom_site_fract_z
 _atom_site_occupancy
  Lu  Lu0  1  0.75000200  0.25000000  0.50000200  1
  Lu  Lu1  1  0.25000000  0.75000200  0.50000200  1
  Lu  Lu2  1  0.50000000  0.50000000  0.00000000  1
  Pu  Pu0  1  0.00000000  0.00000000  0.00000000  1
loop_
_geom_bond_atom_site_label_1
_geom_bond_atom_site_label_2
_geom_bond_distance
_geom_bond_site_symmetry_2
Lu0 Lu2 3.298445 1_656
Lu0 Pu0 3.298445 1_656
Lu0 Lu2 3.298452 1_545
Lu0 Pu0 3.298452 1_666
Lu0 Lu2 3.298452 1_556
Lu0 Pu0 3.298452 1_655
Lu0 Lu2 3.298458 1_555
Lu0 Pu0 3.298458 1_555
Lu0 Lu1 3.307216 1_645
Lu0 Lu1 3.307229 1_656
Lu0 Lu1 3.307229 1_544
Lu0 Lu1 3.307242 1_555
Lu1 Pu0 3.298445 1_566
Lu1 Lu2 3.298445 1_566
Lu1 Pu0 3.298452 1_565
Lu1 Pu0 3.298452 1_666
Lu1 Lu2 3.298452 1_455
Lu1 Lu2 3.298452 1_556
Lu1 Pu0 3.298458 1_555
Lu1 Lu2 3.298458 1_555
Lu2 Pu0 3.307229 1_666
Lu2 Pu0 3.307229 1_554
Lu2 Pu0 3.307229 1_565
Lu2 Pu0 3.307229 1_655
