# generated using pymatgen
data_LuCo3P2
_symmetry_space_group_name_H-M   'P 1'
_cell_length_a   3.64604500
_cell_length_b   10.45504100
_cell_length_c   12.04212800
_cell_angle_alpha   90.00000000
_cell_angle_beta   90.00000000
_cell_angle_gamma   90.00000000
_symmetry_Int_Tables_number   1
_chemical_formula_structural   LuCo3P2
_chemical_formula_sum   'Lu6 Co18 P12'
_cell_volume   459.04049995
_cell_formula_units_Z   6
loop_
 _symmetry_equiv_pos_site_id
 _symmetry_equiv_pos_as_xyz
  1  'x, y, z'
loop_
 _atom_site_type_symbol
 _atom_site_label
 _atom_site_symmetry_multiplicity
 _atom_site_fract_x
 _atom_site_fract_y
 _atom_site_fract_z
 _atom_site_occupancy
  Lu  Lu0  1  0.00000000  0.50000000  0.52261800  1
  Lu  Lu1  1  0.50000000  0.00000000  0.47738200  1
  Lu  Lu2  1  0.50000000  0.81914200  0.20621900  1
  Lu  Lu3  1  0.50000000  0.18085800  0.20621900  1
  Lu  Lu4  1  0.00000000  0.68085800  0.79378100  1
  Lu  Lu5  1  0.00000000  0.31914200  0.79378100  1
  Co  Co0  1  0.50000000  0.50000000  0.16018100  1
  Co  Co1  1  0.00000000  0.00000000  0.83981900  1
  Co  Co2  1  0.50000000  0.50000000  0.70355700  1
  Co  Co3  1  0.00000000  0.00000000  0.29644300  1
  Co  Co4  1  0.00000000  0.50000000  0.98749900  1
  Co  Co5  1  0.50000000  0.00000000  0.01250100  1
  Co  Co6  1  0.50000000  0.33299300  0.99479100  1
  Co  Co7  1  0.50000000  0.66700700  0.99479100  1
  Co  Co8  1  0.00000000  0.16700700  0.00520900  1
  Co  Co9  1  0.00000000  0.83299300  0.00520900  1
  Co  Co10  1  0.50000000  0.29731200  0.43105100  1
  Co  Co11  1  0.50000000  0.70268800  0.43105100  1
  Co  Co12  1  0.00000000  0.20268800  0.56894900  1
  Co  Co13  1  0.00000000  0.79731200  0.56894900  1
  Co  Co14  1  0.50000000  0.87779300  0.70892700  1
  Co  Co15  1  0.50000000  0.12220700  0.70892700  1
  Co  Co16  1  0.00000000  0.62220700  0.29107300  1
  Co  Co17  1  0.00000000  0.37779300  0.29107300  1
  P  P0  1  0.50000000  0.50000000  0.88266600  1
  P  P1  1  0.00000000  0.00000000  0.11733400  1
  P  P2  1  0.50000000  0.50000000  0.34607200  1
  P  P3  1  0.00000000  0.00000000  0.65392800  1
  P  P4  1  0.50000000  0.31282200  0.61687400  1
  P  P5  1  0.50000000  0.68717800  0.61687400  1
  P  P6  1  0.00000000  0.18717800  0.38312600  1
  P  P7  1  0.00000000  0.81282200  0.38312600  1
  P  P8  1  0.50000000  0.84595700  0.89126200  1
  P  P9  1  0.50000000  0.15404300  0.89126200  1
  P  P10  1  0.00000000  0.65404300  0.10873800  1
  P  P11  1  0.00000000  0.34595700  0.10873800  1
loop_
_geom_bond_atom_site_label_1
_geom_bond_atom_site_label_2
_geom_bond_distance
_geom_bond_site_symmetry_2
Lu0 P2 2.800579 1_455
Lu0 P2 2.800579 1_555
Lu0 P5 2.905409 1_455
Lu0 P5 2.905409 1_555
Lu0 P4 2.905409 1_555
Lu0 P4 2.905409 1_455
Lu1 P3 2.800579 1_655
Lu1 P3 2.800579 1_555
Lu1 P6 2.905409 1_655
Lu1 P6 2.905409 1_555
Lu1 P7 2.905409 1_545
Lu1 P7 2.905409 1_645
Lu2 P10 2.771440 1_655
Lu2 P10 2.771440 1_555
Lu2 P7 2.804659 1_655
Lu2 P7 2.804659 1_555
Lu2 P1 2.836285 1_565
Lu2 P1 2.836285 1_665
Lu3 P11 2.771440 1_655
Lu3 P11 2.771440 1_555
Lu3 P6 2.804659 1_655
Lu3 P6 2.804659 1_555
Lu3 P1 2.836285 1_655
Lu3 P1 2.836285 1_555
Lu4 P8 2.771440 1_455
Lu4 P8 2.771440 1_555
Lu4 P5 2.804659 1_455
Lu4 P5 2.804659 1_555
Lu4 P0 2.836285 1_555
Lu4 P0 2.836285 1_455
Lu5 P9 2.771440 1_555
Lu5 P9 2.771440 1_455
Lu5 P4 2.804659 1_555
Lu5 P4 2.804659 1_455
Lu5 P0 2.836285 1_555
Lu5 P0 2.836285 1_455
Co0 P2 2.238523 1_555
Co0 P10 2.510172 1_555
Co0 P10 2.510172 1_655
Co0 P11 2.510172 1_655
Co0 P11 2.510172 1_555
Co1 P3 2.238523 1_555
Co1 P9 2.510172 1_455
Co1 P9 2.510172 1_555
Co1 P8 2.510172 1_545
Co1 P8 2.510172 1_445
Co2 P0 2.156854 1_555
Co2 P5 2.217946 1_555
Co2 P4 2.217946 1_555
Co2 Lu0 2.840946 1_555
Co2 Lu0 2.840946 1_655
Co2 Lu4 2.842409 1_555
Co2 Lu4 2.842409 1_655
Co2 Lu5 2.842409 1_555
Co2 Lu5 2.842409 1_655
Co3 P1 2.156854 1_555
Co3 P6 2.217946 1_555
Co3 P7 2.217946 1_545
Co3 Lu1 2.840946 1_455
Co3 Lu1 2.840946 1_555
Co3 Lu3 2.842409 1_455
Co3 Lu3 2.842409 1_555
Co3 Lu2 2.842409 1_445
Co3 Lu2 2.842409 1_545
Co4 P10 2.173781 1_556
Co4 P11 2.173781 1_556
Co4 P0 2.217453 1_555
Co4 P0 2.217453 1_455
Co4 Lu4 3.002876 1_555
Co4 Lu5 3.002876 1_555
Co5 P9 2.173781 1_554
Co5 P8 2.173781 1_544
Co5 P1 2.217453 1_655
Co5 P1 2.217453 1_555
Co5 Lu3 3.002876 1_555
Co5 Lu2 3.002876 1_545
Co6 P0 2.207226 1_555
Co6 P9 2.248258 1_555
Co6 P11 2.285742 1_556
Co6 P11 2.285742 1_656
Co6 Lu3 3.002045 1_556
Co6 Lu5 3.033748 1_555
Co6 Lu5 3.033748 1_655
Co7 P0 2.207226 1_555
Co7 P8 2.248258 1_555
Co7 P10 2.285742 1_656
Co7 P10 2.285742 1_556
Co7 Lu2 3.002045 1_556
Co7 Lu4 3.033748 1_555
Co7 Lu4 3.033748 1_655
Co8 P1 2.207226 1_555
Co8 P11 2.248258 1_555
Co8 P9 2.285742 1_454
Co8 P9 2.285742 1_554
Co8 Lu5 3.002045 1_554
Co8 Lu3 3.033748 1_555
Co8 Lu3 3.033748 1_455
Co9 P1 2.207226 1_565
Co9 P10 2.248258 1_555
Co9 P8 2.285742 1_554
Co9 P8 2.285742 1_454
Co9 Lu4 3.002045 1_554
Co9 Lu2 3.033748 1_555
Co9 Lu2 3.033748 1_455
Co10 P6 2.232113 1_555
Co10 P6 2.232113 1_655
Co10 P4 2.243572 1_555
Co10 P2 2.353260 1_555
Co10 Lu3 2.968619 1_555
Co10 Lu0 3.004980 1_655
Co10 Lu0 3.004980 1_555
Co10 Lu1 3.158083 1_555
Co11 P7 2.232113 1_655
Co11 P7 2.232113 1_555
Co11 P5 2.243572 1_555
Co11 P2 2.353260 1_555
Co11 Lu2 2.968619 1_555
Co11 Lu0 3.004980 1_555
Co11 Lu0 3.004980 1_655
Co11 Lu1 3.158083 1_565
Co12 P4 2.232113 1_555
Co12 P4 2.232113 1_455
Co12 P6 2.243572 1_555
Co12 P3 2.353260 1_555
Co12 Lu5 2.968619 1_555
Co12 Lu1 3.004980 1_455
Co12 Lu1 3.004980 1_555
Co12 Lu0 3.158083 1_555
Co13 P5 2.232113 1_555
Co13 P5 2.232113 1_455
Co13 P7 2.243572 1_555
Co13 P3 2.353260 1_565
Co13 Lu4 2.968619 1_555
Co13 Lu1 3.004980 1_565
Co13 Lu1 3.004980 1_465
Co13 Lu0 3.158083 1_555
Co14 P8 2.220786 1_555
Co14 P5 2.280440 1_555
Co14 P3 2.322611 1_565
Co14 P3 2.322611 1_665
Co14 Lu4 2.933746 1_655
Co14 Lu4 2.933746 1_555
Co14 Lu1 3.067092 1_565
Co15 P9 2.220786 1_555
Co15 P4 2.280440 1_555
Co15 P3 2.322611 1_655
Co15 P3 2.322611 1_555
Co15 Lu5 2.933746 1_555
Co15 Lu5 2.933746 1_655
Co15 Lu1 3.067092 1_555
Co16 P10 2.220786 1_555
Co16 P7 2.280440 1_555
Co16 P2 2.322611 1_555
Co16 P2 2.322611 1_455
Co16 Lu2 2.933746 1_555
Co16 Lu2 2.933746 1_455
Co16 Lu0 3.067092 1_555
Co17 P11 2.220786 1_555
Co17 P6 2.280440 1_555
Co17 P2 2.322611 1_455
Co17 P2 2.322611 1_555
Co17 Lu3 2.933746 1_455
Co17 Lu3 2.933746 1_555
Co17 Lu0 3.067092 1_555
