# generated using pymatgen
data_Sc11Os4
_symmetry_space_group_name_H-M   'P 1'
_cell_length_a   9.44259166
_cell_length_b   9.44258019
_cell_length_c   9.44257943
_cell_angle_alpha   59.99944011
_cell_angle_beta   59.99931178
_cell_angle_gamma   59.99931132
_symmetry_Int_Tables_number   1
_chemical_formula_structural   Sc11Os4
_chemical_formula_sum   'Sc22 Os8'
_cell_volume   595.32097337
_cell_formula_units_Z   2
loop_
 _symmetry_equiv_pos_site_id
 _symmetry_equiv_pos_as_xyz
  1  'x, y, z'
loop_
 _atom_site_type_symbol
 _atom_site_label
 _atom_site_symmetry_multiplicity
 _atom_site_fract_x
 _atom_site_fract_y
 _atom_site_fract_z
 _atom_site_occupancy
  Sc  Sc0  1  0.84467163  0.84467263  0.84467263  1
  Sc  Sc1  1  0.15532757  0.15533057  0.53400989  1
  Sc  Sc2  1  0.15532757  0.53400989  0.15533057  1
  Sc  Sc3  1  0.53400789  0.15532957  0.15532957  1
  Sc  Sc4  1  0.84467243  0.46599011  0.84466943  1
  Sc  Sc5  1  0.46599211  0.84467043  0.84467043  1
  Sc  Sc6  1  0.84467243  0.84466943  0.46599011  1
  Sc  Sc7  1  0.15532837  0.15532737  0.15532737  1
  Sc  Sc8  1  0.80120685  0.19879091  0.19879091  1
  Sc  Sc9  1  0.80121009  0.80120909  0.19879315  1
  Sc  Sc10  1  0.19878991  0.19879091  0.80120685  1
  Sc  Sc11  1  0.80121009  0.19879315  0.80120909  1
  Sc  Sc12  1  0.19878991  0.80120685  0.19879091  1
  Sc  Sc13  1  0.19879315  0.80120909  0.80120909  1
  Sc  Sc14  1  0.38297715  0.38297915  0.38297915  1
  Sc  Sc15  1  0.61702661  0.61702461  0.14893476  1
  Sc  Sc16  1  0.14893276  0.61702661  0.61702661  1
  Sc  Sc17  1  0.61702661  0.14893476  0.61702461  1
  Sc  Sc18  1  0.85106724  0.38297339  0.38297339  1
  Sc  Sc19  1  0.38297339  0.85106524  0.38297539  1
  Sc  Sc20  1  0.38297339  0.38297539  0.85106524  1
  Sc  Sc21  1  0.61702285  0.61702085  0.61702085  1
  Os  Os0  1  0.50000000  -0.00000000  0.50000000  1
  Os  Os1  1  -0.00000000  0.50000000  0.00000000  1
  Os  Os2  1  -0.00000000  0.50000000  0.50000000  1
  Os  Os3  1  0.50000000  0.50000000  0.00000000  1
  Os  Os4  1  -0.00000000  -0.00000000  0.50000000  1
  Os  Os5  1  0.50000000  -0.00000000  0.00000000  1
  Os  Os6  1  0.50000000  0.50000000  0.50000000  1
  Os  Os7  1  -0.00000000  -0.00000000  0.00000000  1
loop_
_geom_bond_atom_site_label_1
_geom_bond_atom_site_label_2
_geom_bond_distance
_geom_bond_site_symmetry_2
Os0 Sc5 2.738411 1_545
Os0 Sc3 2.738411 1_555
Os0 Sc1 2.738424 1_555
Os0 Sc6 2.738424 1_545
Os0 Sc14 2.957806 1_555
Os0 Sc21 2.957806 1_545
Os0 Sc19 2.957894 1_545
Os0 Sc17 2.957894 1_555
Os1 Sc0 2.738404 1_454
Os1 Sc7 2.738404 1_555
Os1 Sc4 2.738418 1_454
Os1 Sc2 2.738418 1_555
Os1 Sc16 2.957759 1_554
Os1 Sc18 2.957759 1_455
Os1 Sc15 2.957759 1_455
Os1 Sc20 2.957759 1_554
Os2 Sc2 2.738397 1_555
Os2 Sc4 2.738397 1_455
Os2 Sc1 2.738397 1_555
Os2 Sc6 2.738397 1_455
Os2 Sc14 2.957791 1_555
Os2 Sc21 2.957791 1_455
Os2 Sc18 2.957893 1_455
Os2 Sc16 2.957893 1_555
Os3 Sc3 2.738411 1_555
Os3 Sc5 2.738411 1_554
Os3 Sc4 2.738424 1_554
Os3 Sc2 2.738424 1_555
Os3 Sc14 2.957806 1_555
Os3 Sc21 2.957806 1_554
Os3 Sc15 2.957894 1_555
Os3 Sc20 2.957894 1_554
Os4 Sc0 2.738404 1_445
Os4 Sc7 2.738404 1_555
Os4 Sc6 2.738418 1_445
Os4 Sc1 2.738418 1_555
Os4 Sc16 2.957759 1_545
Os4 Sc18 2.957759 1_455
Os4 Sc17 2.957759 1_455
Os4 Sc19 2.957759 1_545
Os5 Sc0 2.738393 1_544
Os5 Sc7 2.738393 1_555
Os5 Sc3 2.738411 1_555
Os5 Sc5 2.738411 1_544
Os5 Sc17 2.957775 1_554
Os5 Sc19 2.957775 1_545
Os5 Sc15 2.957775 1_545
Os5 Sc20 2.957775 1_554
Os6 Sc20 2.706634 1_555
Os6 Sc15 2.706634 1_555
Os6 Sc19 2.706634 1_555
Os6 Sc17 2.706634 1_555
Os6 Sc18 2.706649 1_555
Os6 Sc16 2.706649 1_555
Os6 Sc21 2.706664 1_555
Os6 Sc14 2.706664 1_555
Os7 Sc8 2.654603 1_455
Os7 Sc13 2.654603 1_544
Os7 Sc12 2.654603 1_545
Os7 Sc11 2.654603 1_454
Os7 Sc10 2.654603 1_554
Os7 Sc9 2.654603 1_445
