# generated using pymatgen
data_Na3TiP8O23
_symmetry_space_group_name_H-M   'P 1'
_cell_length_a   12.19252600
_cell_length_b   12.19252600
_cell_length_c   12.19252600
_cell_angle_alpha   90.00000000
_cell_angle_beta   90.00000000
_cell_angle_gamma   90.00000000
_symmetry_Int_Tables_number   1
_chemical_formula_structural   Na3TiP8O23
_chemical_formula_sum   'Na12 Ti4 P32 O92'
_cell_volume   1812.51275360
_cell_formula_units_Z   4
loop_
 _symmetry_equiv_pos_site_id
 _symmetry_equiv_pos_as_xyz
  1  'x, y, z'
loop_
 _atom_site_type_symbol
 _atom_site_label
 _atom_site_symmetry_multiplicity
 _atom_site_fract_x
 _atom_site_fract_y
 _atom_site_fract_z
 _atom_site_occupancy
  O  O0  1  0.66255749  0.66255749  0.66255749  1
  O  O1  1  0.91255749  0.58744251  0.41255749  1
  O  O2  1  0.58744251  0.41255749  0.91255749  1
  O  O3  1  0.41255749  0.91255749  0.58744251  1
  O  O4  1  0.16255749  0.83744251  0.33744251  1
  O  O5  1  0.83744251  0.33744251  0.16255749  1
  O  O6  1  0.33744251  0.16255749  0.83744251  1
  O  O7  1  0.08744251  0.08744251  0.08744251  1
  O  O8  1  0.43659993  0.51133070  0.68328238  1
  O  O9  1  0.93659993  0.98866930  0.31671762  1
  O  O10  1  0.51133070  0.68328238  0.43659993  1
  O  O11  1  0.48866930  0.18328238  0.06340007  1
  O  O12  1  0.68328238  0.43659993  0.51133070  1
  O  O13  1  0.81671762  0.56340007  0.01133070  1
  O  O14  1  0.18659993  0.93328238  0.73866930  1
  O  O15  1  0.68659993  0.56671762  0.26133070  1
  O  O16  1  0.81340007  0.43328238  0.76133070  1
  O  O17  1  0.56671762  0.26133070  0.68659993  1
  O  O18  1  0.76133070  0.81340007  0.43328238  1
  O  O19  1  0.26133070  0.68659993  0.56671762  1
  O  O20  1  0.93328238  0.73866930  0.18659993  1
  O  O21  1  0.73866930  0.18659993  0.93328238  1
  O  O22  1  0.43328238  0.76133070  0.81340007  1
  O  O23  1  0.06671762  0.23866930  0.31340007  1
  O  O24  1  0.23866930  0.31340007  0.06671762  1
  O  O25  1  0.31671762  0.93659993  0.98866930  1
  O  O26  1  0.18328238  0.06340007  0.48866930  1
  O  O27  1  0.01133070  0.81671762  0.56340007  1
  O  O28  1  0.98866930  0.31671762  0.93659993  1
  O  O29  1  0.06340007  0.48866930  0.18328238  1
  O  O30  1  0.56340007  0.01133070  0.81671762  1
  O  O31  1  0.31340007  0.06671762  0.23866930  1
  O  O32  1  0.62500000  0.23432202  0.48432202  1
  O  O33  1  0.76567798  0.98432202  0.87500000  1
  O  O34  1  0.74113904  0.32458071  0.34596922  1
  O  O35  1  0.48432202  0.62500000  0.23432202  1
  O  O36  1  0.23432202  0.48432202  0.62500000  1
  O  O37  1  0.51567798  0.12500000  0.26567798  1
  O  O38  1  0.98432202  0.87500000  0.76567798  1
  O  O39  1  0.73432202  0.01567798  0.37500000  1
  O  O40  1  0.26567798  0.51567798  0.12500000  1
  O  O41  1  0.87500000  0.76567798  0.98432202  1
  O  O42  1  0.37500000  0.73432202  0.01567798  1
  O  O43  1  0.12500000  0.26567798  0.51567798  1
  O  O44  1  0.32458071  0.34596922  0.74113904  1
  O  O45  1  0.82458071  0.15403078  0.25886096  1
  O  O46  1  0.34596922  0.74113904  0.32458071  1
  O  O47  1  0.65403078  0.24113904  0.17541929  1
  O  O48  1  0.04160553  0.12037758  0.63519089  1
  O  O49  1  0.29160553  0.61480911  0.87037758  1
  O  O50  1  0.79160553  0.88519089  0.12962242  1
  O  O51  1  0.38519089  0.37037758  0.20839447  1
  O  O52  1  0.61480911  0.87037758  0.29160553  1
  O  O53  1  0.12962242  0.79160553  0.88519089  1
  O  O54  1  0.37037758  0.20839447  0.38519089  1
  O  O55  1  0.63519089  0.04160553  0.12037758  1
  O  O56  1  0.12037758  0.63519089  0.04160553  1
  O  O57  1  0.37962242  0.36480911  0.54160553  1
  O  O58  1  0.13519089  0.45839447  0.87962242  1
  O  O59  1  0.87962242  0.13519089  0.45839447  1
  O  O60  1  0.86480911  0.95839447  0.62037758  1
  O  O61  1  0.36480911  0.54160553  0.37962242  1
  O  O62  1  0.62037758  0.86480911  0.95839447  1
  O  O63  1  0.54160553  0.37962242  0.36480911  1
  O  O64  1  0.95839447  0.62037758  0.86480911  1
  O  O65  1  0.45839447  0.87962242  0.13519089  1
  O  O66  1  0.87037758  0.29160553  0.61480911  1
  O  O67  1  0.62962242  0.70839447  0.11480911  1
  O  O68  1  0.88519089  0.12962242  0.79160553  1
  O  O69  1  0.11480911  0.62962242  0.70839447  1
  O  O70  1  0.20839447  0.38519089  0.37037758  1
  O  O71  1  0.70839447  0.11480911  0.62962242  1
  O  O72  1  0.42541929  0.00886096  0.40403078  1
  O  O73  1  0.67541929  0.84596922  0.75886096  1
  O  O74  1  0.17541929  0.65403078  0.24113904  1
  O  O75  1  0.15403078  0.25886096  0.82458071  1
  O  O76  1  0.84596922  0.75886096  0.67541929  1
  O  O77  1  0.24113904  0.17541929  0.65403078  1
  O  O78  1  0.25886096  0.82458071  0.15403078  1
  O  O79  1  0.40403078  0.42541929  0.00886096  1
  O  O80  1  0.00886096  0.40403078  0.42541929  1
  O  O81  1  0.49113904  0.59596922  0.92541929  1
  O  O82  1  0.90403078  0.07458071  0.99113904  1
  O  O83  1  0.99113904  0.90403078  0.07458071  1
  O  O84  1  0.09596922  0.57458071  0.50886096  1
  O  O85  1  0.59596922  0.92541929  0.49113904  1
  O  O86  1  0.50886096  0.09596922  0.57458071  1
  O  O87  1  0.92541929  0.49113904  0.59596922  1
  O  O88  1  0.57458071  0.50886096  0.09596922  1
  O  O89  1  0.07458071  0.99113904  0.90403078  1
  O  O90  1  0.75886096  0.67541929  0.84596922  1
  O  O91  1  0.01567798  0.37500000  0.73432202  1
  Na  Na0  1  0.37500000  0.95566729  0.79433271  1
  Na  Na1  1  0.87500000  0.54433271  0.20566729  1
  Na  Na2  1  0.04433271  0.29433271  0.12500000  1
  Na  Na3  1  0.95566729  0.79433271  0.37500000  1
  Na  Na4  1  0.20566729  0.87500000  0.54433271  1
  Na  Na5  1  0.29433271  0.12500000  0.04433271  1
  Na  Na6  1  0.45566729  0.70566729  0.62500000  1
  Na  Na7  1  0.79433271  0.37500000  0.95566729  1
  Na  Na8  1  0.70566729  0.62500000  0.45566729  1
  Na  Na9  1  0.54433271  0.20566729  0.87500000  1
  Na  Na10  1  0.62500000  0.45566729  0.70566729  1
  Na  Na11  1  0.12500000  0.04433271  0.29433271  1
  P  P0  1  0.06831592  0.35803898  0.85407282  1
  P  P1  1  0.89592718  0.39196102  0.68168408  1
  P  P2  1  0.35803898  0.85407282  0.06831592  1
  P  P3  1  0.85803898  0.64592718  0.93168408  1
  P  P4  1  0.64196102  0.35407282  0.43168408  1
  P  P5  1  0.64592718  0.93168408  0.85803898  1
  P  P6  1  0.43168408  0.64196102  0.35407282  1
  P  P7  1  0.93168408  0.85803898  0.64592718  1
  P  P8  1  0.85407282  0.06831592  0.35803898  1
  P  P9  1  0.60407282  0.60803898  0.18168408  1
  P  P10  1  0.35407282  0.43168408  0.64196102  1
  P  P11  1  0.14592718  0.56831592  0.14196102  1
  P  P12  1  0.81831592  0.10407282  0.89196102  1
  P  P13  1  0.39592718  0.10803898  0.31831592  1
  P  P14  1  0.10407282  0.89196102  0.81831592  1
  P  P15  1  0.68168408  0.89592718  0.39196102  1
  P  P16  1  0.31831592  0.39592718  0.10803898  1
  P  P17  1  0.89196102  0.81831592  0.10407282  1
  P  P18  1  0.39196102  0.68168408  0.89592718  1
  P  P19  1  0.14196102  0.14592718  0.56831592  1
  P  P20  1  0.18168408  0.60407282  0.60803898  1
  P  P21  1  0.10803898  0.31831592  0.39592718  1
  P  P22  1  0.60803898  0.18168408  0.60407282  1
  P  P23  1  0.01721403  0.01721403  0.01721403  1
  P  P24  1  0.26721403  0.23278597  0.76721403  1
  P  P25  1  0.76721403  0.26721403  0.23278597  1
  P  P26  1  0.23278597  0.76721403  0.26721403  1
  P  P27  1  0.48278597  0.98278597  0.51721403  1
  P  P28  1  0.51721403  0.48278597  0.98278597  1
  P  P29  1  0.98278597  0.51721403  0.48278597  1
  P  P30  1  0.73278597  0.73278597  0.73278597  1
  P  P31  1  0.56831592  0.14196102  0.14592718  1
  Ti  Ti0  1  0.87500000  0.12500000  0.62500000  1
  Ti  Ti1  1  0.12500000  0.62500000  0.87500000  1
  Ti  Ti2  1  0.62500000  0.87500000  0.12500000  1
  Ti  Ti3  1  0.37500000  0.37500000  0.37500000  1
loop_
_geom_bond_atom_site_label_1
_geom_bond_atom_site_label_2
_geom_bond_distance
_geom_bond_site_symmetry_2
O0 P30 1.483090 1_555
O1 P29 1.483090 1_555
O2 P28 1.483090 1_555
O3 P27 1.483090 1_555
O4 P26 1.483090 1_555
O5 P25 1.483090 1_555
O6 P24 1.483090 1_555
O7 P23 1.483090 1_555
O8 P10 1.486377 1_555
O9 P8 1.486377 1_565
O10 P6 1.486377 1_555
O11 P31 1.486377 1_555
O12 P4 1.486377 1_555
O13 P3 1.486377 1_554
O14 P14 1.486377 1_555
O15 P9 1.486377 1_555
O16 P1 1.486377 1_555
O17 P22 1.486377 1_555
O18 P15 1.486377 1_555
O19 P20 1.486377 1_555
O20 P17 1.486377 1_555
O21 P12 1.486377 1_555
O22 P18 1.486377 1_555
O23 P21 1.486377 1_555
O24 P16 1.486377 1_555
O25 P2 1.486377 1_556
O26 P19 1.486377 1_555
O27 P7 1.486377 1_455
O28 P0 1.486377 1_655
O29 P11 1.486377 1_555
O30 P5 1.486377 1_545
O31 P13 1.486377 1_555
O32 P22 1.608244 1_555
O32 P4 1.608244 1_555
O33 P5 1.608244 1_555
O33 P12 1.608244 1_565
O34 P25 1.579452 1_555
O34 P4 1.638210 1_555
O35 P9 1.608244 1_555
O35 P6 1.608244 1_555
O36 P20 1.608244 1_555
O36 P10 1.608244 1_555
O37 P13 1.608244 1_555
O37 P31 1.608244 1_555
O38 P7 1.608244 1_555
O38 P14 1.608244 1_655
O39 P8 1.608244 1_555
O39 P15 1.608244 1_545
O40 P11 1.608244 1_555
O40 P16 1.608244 1_555
O41 P3 1.608244 1_555
O41 P17 1.608244 1_556
O42 P2 1.608244 1_555
O42 P18 1.608244 1_554
O43 P21 1.608244 1_555
O43 P19 1.608244 1_555
O44 P24 1.579452 1_555
O44 P10 1.638210 1_555
O45 P25 1.579452 1_555
O45 P8 1.638210 1_555
O46 P26 1.579452 1_555
O46 P6 1.638210 1_555
O47 P25 1.579452 1_555
O47 P31 1.638210 1_555
O48 P19 1.503011 1_555
O48 Ti0 2.035919 1_455
O49 P18 1.503011 1_555
O49 Ti1 2.035919 1_555
O50 P17 1.503011 1_555
O50 Ti2 2.035919 1_555
O51 P16 1.503011 1_555
O51 Ti3 2.035919 1_555
O52 P15 1.503011 1_555
O52 Ti2 2.035919 1_555
O53 P14 1.503011 1_555
O53 Ti1 2.035919 1_555
O54 P13 1.503011 1_555
O54 Ti3 2.035919 1_555
O55 P31 1.503011 1_555
O55 Ti2 2.035919 1_545
O56 P11 1.503011 1_555
O56 Ti1 2.035919 1_554
O57 P10 1.503011 1_555
O57 Ti3 2.035919 1_555
O58 P0 1.503011 1_555
O58 Ti1 2.035919 1_555
O59 P8 1.503011 1_555
O59 Ti0 2.035919 1_555
O60 P7 1.503011 1_555
O60 Ti0 2.035919 1_565
O61 P6 1.503011 1_555
O61 Ti3 2.035919 1_555
O62 P5 1.503011 1_555
O62 Ti2 2.035919 1_556
O63 P4 1.503011 1_555
O63 Ti3 2.035919 1_555
O64 P3 1.503011 1_555
O64 Ti1 2.035919 1_655
O65 P2 1.503011 1_555
O65 Ti2 2.035919 1_555
O66 P1 1.503011 1_555
O66 Ti0 2.035919 1_555
O67 P9 1.503011 1_555
O67 Ti2 2.035919 1_555
O68 P12 1.503011 1_555
O68 Ti0 2.035919 1_555
O69 P20 1.503011 1_555
O69 Ti1 2.035919 1_555
O70 P21 1.503011 1_555
O70 Ti3 2.035919 1_555
O71 P22 1.503011 1_555
O71 Ti0 2.035919 1_555
O72 P27 1.579452 1_545
O72 P13 1.638210 1_555
O73 P30 1.579452 1_555
O73 P5 1.638210 1_555
O74 P26 1.579452 1_555
O74 P11 1.638210 1_555
O75 P24 1.579452 1_555
O75 P0 1.638210 1_555
O76 P30 1.579452 1_555
O76 P7 1.638210 1_555
O77 P24 1.579452 1_555
O77 P19 1.638210 1_555
O78 P26 1.579452 1_555
O78 P2 1.638210 1_555
O79 P28 1.579452 1_554
O79 P16 1.638210 1_555
O80 P29 1.579452 1_455
O80 P21 1.638210 1_555
O81 P28 1.579452 1_555
O81 P18 1.638210 1_555
O82 P23 1.579452 1_656
O82 P12 1.638210 1_555
O83 P23 1.579452 1_665
O83 P17 1.638210 1_555
O84 P29 1.579452 1_455
O84 P20 1.638210 1_555
O85 P27 1.579452 1_555
O85 P15 1.638210 1_555
O86 P27 1.579452 1_545
O86 P22 1.638210 1_555
O87 P29 1.579452 1_555
O87 P1 1.638210 1_555
O88 P28 1.579452 1_554
O88 P9 1.638210 1_555
O89 P23 1.579452 1_566
O89 P14 1.638210 1_555
O90 P30 1.579452 1_555
O90 P3 1.638210 1_555
O91 P0 1.608244 1_555
O91 P1 1.608244 1_455
Na0 O30 2.410734 1_565
Na0 O14 2.410734 1_555
Na0 O22 2.484618 1_555
Na0 O25 2.484618 1_555
Na0 O6 2.617068 1_565
Na0 O3 2.617068 1_555
Na1 O29 2.410734 1_655
Na1 O15 2.410734 1_555
Na1 O20 2.484618 1_555
Na1 O13 2.484618 1_555
Na1 O1 2.617068 1_555
Na1 O5 2.617068 1_555
Na2 O23 2.410734 1_555
Na2 O28 2.410734 1_454
Na2 O29 2.484618 1_555
Na2 O24 2.484618 1_555
Na2 O5 2.617068 1_455
Na2 O7 2.617068 1_555
Na3 O20 2.410734 1_555
Na3 O27 2.410734 1_655
Na3 O9 2.484618 1_555
Na3 O18 2.484618 1_555
Na3 O1 2.617068 1_555
Na3 O4 2.617068 1_655
Na4 O26 2.410734 1_565
Na4 O19 2.410734 1_555
Na4 O14 2.484618 1_555
Na4 O27 2.484618 1_555
Na4 O3 2.617068 1_555
Na4 O4 2.617068 1_555
Na5 O24 2.410734 1_555
Na5 O25 2.410734 1_544
Na5 O11 2.484618 1_555
Na5 O31 2.484618 1_555
Na5 O6 2.617068 1_554
Na5 O7 2.617068 1_555
Na6 O10 2.410734 1_555
Na6 O22 2.410734 1_555
Na6 O8 2.484618 1_555
Na6 O19 2.484618 1_555
Na6 O0 2.617068 1_555
Na6 O3 2.617068 1_555
Na7 O21 2.410734 1_555
Na7 O13 2.410734 1_556
Na7 O16 2.484618 1_555
Na7 O28 2.484618 1_555
Na7 O5 2.617068 1_556
Na7 O2 2.617068 1_555
Na8 O12 2.410734 1_555
Na8 O18 2.410734 1_555
Na8 O10 2.484618 1_555
Na8 O15 2.484618 1_555
Na8 O0 2.617068 1_555
Na8 O1 2.617068 1_555
Na9 O11 2.410734 1_556
Na9 O17 2.410734 1_555
Na9 O21 2.484618 1_555
Na9 O30 2.484618 1_555
Na9 O2 2.617068 1_555
Na9 O6 2.617068 1_555
Na10 O8 2.410734 1_555
Na10 O16 2.410734 1_555
Na10 O12 2.484618 1_555
Na10 O17 2.484618 1_555
Na10 O0 2.617068 1_555
Na10 O2 2.617068 1_555
Na11 O31 2.410734 1_555
Na11 O9 2.410734 1_445
Na11 O26 2.484618 1_555
Na11 O23 2.484618 1_555
Na11 O4 2.617068 1_545
Na11 O7 2.617068 1_555
