# generated using pymatgen
data_Ba2Ti3AlO8
_symmetry_space_group_name_H-M   'P 1'
_cell_length_a   3.97099700
_cell_length_b   3.97099700
_cell_length_c   11.44916200
_cell_angle_alpha   90.00000000
_cell_angle_beta   90.00000000
_cell_angle_gamma   90.00000000
_symmetry_Int_Tables_number   1
_chemical_formula_structural   Ba2Ti3AlO8
_chemical_formula_sum   'Ba2 Ti3 Al1 O8'
_cell_volume   180.53974237
_cell_formula_units_Z   1
loop_
 _symmetry_equiv_pos_site_id
 _symmetry_equiv_pos_as_xyz
  1  'x, y, z'
loop_
 _atom_site_type_symbol
 _atom_site_label
 _atom_site_symmetry_multiplicity
 _atom_site_fract_x
 _atom_site_fract_y
 _atom_site_fract_z
 _atom_site_occupancy
  Ba  Ba0  1  0.50000000  0.50000000  0.17446300  1
  Ba  Ba1  1  0.50000000  0.50000000  0.82553700  1
  Ti  Ti0  1  0.00000000  0.00000000  0.35462900  1
  Ti  Ti1  1  0.00000000  0.00000000  0.00000000  1
  Ti  Ti2  1  0.00000000  0.00000000  0.64537100  1
  Al  Al0  1  0.50000000  0.50000000  0.50000000  1
  O  O0  1  0.00000000  0.50000000  0.38279700  1
  O  O1  1  0.50000000  0.00000000  0.38279700  1
  O  O2  1  0.50000000  0.00000000  0.00000000  1
  O  O3  1  0.00000000  0.00000000  0.18731000  1
  O  O4  1  0.00000000  0.50000000  0.61720300  1
  O  O5  1  0.50000000  0.00000000  0.61720300  1
  O  O6  1  0.00000000  0.00000000  0.81269000  1
  O  O7  1  0.00000000  0.50000000  0.00000000  1
loop_
_geom_bond_atom_site_label_1
_geom_bond_atom_site_label_2
_geom_bond_distance
_geom_bond_site_symmetry_2
Ba0 O3 2.811769 1_665
Ba0 O3 2.811769 1_555
Ba0 O3 2.811769 1_655
Ba0 O3 2.811769 1_565
Ba0 O2 2.816386 1_565
Ba0 O7 2.816386 1_555
Ba0 O7 2.816386 1_655
Ba0 O2 2.816386 1_555
Ba0 O0 3.103485 1_655
Ba0 O1 3.103485 1_555
Ba0 O0 3.103485 1_555
Ba0 O1 3.103485 1_565
Ba1 O6 2.811769 1_665
Ba1 O6 2.811769 1_555
Ba1 O6 2.811769 1_655
Ba1 O6 2.811769 1_565
Ba1 O2 2.816386 1_556
Ba1 O7 2.816386 1_556
Ba1 O2 2.816386 1_566
Ba1 O7 2.816386 1_656
Ba1 O4 3.103485 1_555
Ba1 O5 3.103485 1_555
Ba1 O5 3.103485 1_565
Ba1 O4 3.103485 1_655
Al0 O0 2.396421 1_655
Al0 O1 2.396421 1_555
Al0 O0 2.396421 1_555
Al0 O4 2.396421 1_555
Al0 O5 2.396421 1_555
Al0 O1 2.396421 1_565
Al0 O5 2.396421 1_565
Al0 O4 2.396421 1_655
O0 Ti0 2.011519 1_565
O0 Ti0 2.011519 1_555
O1 Ti0 2.011519 1_655
O1 Ti0 2.011519 1_555
O2 Ti1 1.985499 1_555
O2 Ti1 1.985499 1_655
O3 Ti0 1.915662 1_555
O3 Ti1 2.144543 1_555
O4 Ti2 2.011519 1_555
O4 Ti2 2.011519 1_565
O5 Ti2 2.011519 1_555
O5 Ti2 2.011519 1_655
O6 Ti2 1.915662 1_555
O6 Ti1 2.144543 1_556
O7 Ti1 1.985499 1_555
O7 Ti1 1.985499 1_565
