# generated using pymatgen
data_K2Gd2Mg(MoO4)4
_symmetry_space_group_name_H-M   'P 1'
_cell_length_a   8.00919733
_cell_length_b   7.51324737
_cell_length_c   8.05336807
_cell_angle_alpha   112.95585158
_cell_angle_beta   124.25023915
_cell_angle_gamma   93.05218325
_symmetry_Int_Tables_number   1
_chemical_formula_structural   K2Gd2Mg(MoO4)4
_chemical_formula_sum   'K2 Gd2 Mg1 Mo4 O16'
_cell_volume   344.35401420
_cell_formula_units_Z   1
loop_
 _symmetry_equiv_pos_site_id
 _symmetry_equiv_pos_as_xyz
  1  'x, y, z'
loop_
 _atom_site_type_symbol
 _atom_site_label
 _atom_site_symmetry_multiplicity
 _atom_site_fract_x
 _atom_site_fract_y
 _atom_site_fract_z
 _atom_site_occupancy
  K  K0  1  0.44776722  0.26706931  0.32300485  1
  K  K1  1  0.57939645  0.76715721  0.72053647  1
  Gd  Gd0  1  0.03560633  0.75070199  0.24454948  1
  Gd  Gd1  1  0.97543404  0.25022663  0.77116853  1
  Mg  Mg0  1  0.36085167  0.01105159  0.88374817  1
  Mo  Mo0  1  0.98359615  0.29659262  0.29740514  1
  Mo  Mo1  1  0.99538461  0.68411871  0.69282156  1
  Mo  Mo2  1  0.52112436  0.71267875  0.20150609  1
  Mo  Mo3  1  0.48844619  0.30842506  0.79931431  1
  O  O0  1  0.65694526  0.21283460  0.04859150  1
  O  O1  1  0.33951449  0.78248865  0.95134718  1
  O  O2  1  0.68844086  0.63083006  0.43569676  1
  O  O3  1  0.29195909  0.37767076  0.55226245  1
  O  O4  1  0.72844093  0.96602564  0.39523641  1
  O  O5  1  0.27399700  0.02608021  0.61014084  1
  O  O6  1  0.03744359  0.37671552  0.13477034  1
  O  O7  1  0.94338960  0.62069796  0.86323692  1
  O  O8  1  0.05756103  0.63559725  0.47877836  1
  O  O9  1  0.92893804  0.35435232  0.51725705  1
  O  O10  1  0.66897410  0.61490444  0.05081200  1
  O  O11  1  0.33805028  0.39258089  0.95376251  1
  O  O12  1  0.95334206  0.02721380  0.17901129  1
  O  O13  1  0.07882499  0.98705169  0.82813944  1
  O  O14  1  0.34457728  0.74201300  0.27696472  1
  O  O15  1  0.64806539  0.24956432  0.70660464  1
loop_
_geom_bond_atom_site_label_1
_geom_bond_atom_site_label_2
_geom_bond_distance
_geom_bond_site_symmetry_2
K0 O15 2.625909 1_555
K0 O3 2.676500 1_555
K0 O2 2.746593 1_555
K0 O13 2.929616 1_544
K0 O6 3.071091 1_555
K1 O2 2.755267 1_555
K1 O12 2.778931 1_566
K1 O14 2.864814 1_555
K1 O3 2.894330 1_555
K1 O7 2.930421 1_555
K1 Mg0 3.033439 1_565
K1 O10 3.034919 1_556
K1 O0 3.099808 1_566
K1 O5 3.156862 1_565
K1 O1 3.322059 1_555
K1 O8 3.336941 1_555
Gd0 O5 2.257149 1_565
Gd0 O8 2.291811 1_555
Gd0 O10 2.319506 1_455
Gd0 O14 2.345090 1_555
Gd0 O12 2.374522 1_465
Gd0 O7 2.441343 1_454
Gd0 O6 2.599691 1_555
Gd1 O13 2.293533 1_645
Gd1 O9 2.313833 1_555
Gd1 O11 2.318673 1_655
Gd1 O4 2.324803 1_545
Gd1 O15 2.367929 1_555
Gd1 O6 2.422050 1_656
Gd1 O7 2.653978 1_555
Mg0 O5 1.956779 1_555
Mg0 O1 2.019216 1_545
Mg0 O13 2.022441 1_545
Mg0 O0 2.046497 1_556
Mo0 O12 1.801796 1_555
Mo0 O6 1.867364 1_655
Mo0 O9 1.951446 1_555
Mo0 O3 1.960102 1_655
Mo0 O0 2.048401 1_555
Mo0 O8 2.221511 1_655
Mo1 O7 1.848323 1_555
Mo1 O8 1.961543 1_655
Mo1 O13 1.974317 1_655
Mo1 O2 2.002547 1_555
Mo1 O1 2.145026 1_655
Mo1 O9 2.168168 1_555
Mo2 O4 1.801463 1_555
Mo2 O14 1.820220 1_555
Mo2 O2 1.969418 1_555
Mo2 O1 2.014084 1_554
Mo2 O10 2.104641 1_555
Mo2 O11 2.122070 1_554
Mo3 O15 1.806775 1_555
Mo3 O5 1.979073 1_555
Mo3 O3 2.018907 1_555
Mo3 O10 2.050896 1_556
Mo3 O0 2.132023 1_556
Mo3 O11 2.133526 1_555
