# generated using pymatgen
data_CsSc(WO4)2
_symmetry_space_group_name_H-M   'P 1'
_cell_length_a   5.92725440
_cell_length_b   5.92725440
_cell_length_c   8.10579700
_cell_angle_alpha   90.00000000
_cell_angle_beta   90.00000000
_cell_angle_gamma   120.00000446
_symmetry_Int_Tables_number   1
_chemical_formula_structural   CsSc(WO4)2
_chemical_formula_sum   'Cs1 Sc1 W2 O8'
_cell_volume   246.62294001
_cell_formula_units_Z   1
loop_
 _symmetry_equiv_pos_site_id
 _symmetry_equiv_pos_as_xyz
  1  'x, y, z'
loop_
 _atom_site_type_symbol
 _atom_site_label
 _atom_site_symmetry_multiplicity
 _atom_site_fract_x
 _atom_site_fract_y
 _atom_site_fract_z
 _atom_site_occupancy
  Cs  Cs0  1  0.00000000  0.00000000  0.00000000  1
  Sc  Sc0  1  0.00000000  0.00000000  0.50000000  1
  W  W0  1  0.33333300  0.66666700  0.27365400  1
  W  W1  1  0.66666700  0.33333300  0.72634600  1
  O  O0  1  0.16421300  0.83578700  0.34343100  1
  O  O1  1  0.83578700  0.16421300  0.65656900  1
  O  O2  1  0.16421300  0.32842600  0.34343100  1
  O  O3  1  0.83578700  0.67157400  0.65656900  1
  O  O4  1  0.67157400  0.83578700  0.34343100  1
  O  O5  1  0.32842600  0.16421300  0.65656900  1
  O  O6  1  0.33333300  0.66666700  0.05410600  1
  O  O7  1  0.66666700  0.33333300  0.94589400  1
loop_
_geom_bond_atom_site_label_1
_geom_bond_atom_site_label_2
_geom_bond_distance
_geom_bond_site_symmetry_2
Cs0 O2 3.254469 1_555
Cs0 O4 3.254469 1_445
Cs0 O3 3.254469 1_444
Cs0 O5 3.254469 1_554
Cs0 O0 3.254469 1_545
Cs0 O1 3.254469 1_454
Cs0 O6 3.450088 1_545
Cs0 O7 3.450088 1_454
Cs0 O7 3.450092 1_554
Cs0 O7 3.450092 1_444
Cs0 O6 3.450092 1_445
Cs0 O6 3.450092 1_555
O0 W0 1.826040 1_555
O0 Sc0 2.110162 1_565
O1 W1 1.826040 1_555
O1 Sc0 2.110162 1_655
O2 W0 1.826045 1_555
O2 Sc0 2.110162 1_555
O3 W1 1.826045 1_555
O3 Sc0 2.110162 1_665
O4 W0 1.826045 1_555
O4 Sc0 2.110162 1_665
O5 W1 1.826045 1_555
O5 Sc0 2.110162 1_555
O6 W0 1.779612 1_555
O7 W1 1.779612 1_555
