# generated using pymatgen
data_Er3Ge13Os4
_symmetry_space_group_name_H-M   'P 1'
_cell_length_a   9.06067500
_cell_length_b   9.06067500
_cell_length_c   9.06067500
_cell_angle_alpha   90.00000000
_cell_angle_beta   90.00000000
_cell_angle_gamma   90.00000000
_symmetry_Int_Tables_number   1
_chemical_formula_structural   Er3Ge13Os4
_chemical_formula_sum   'Er6 Ge26 Os8'
_cell_volume   743.84364767
_cell_formula_units_Z   2
loop_
 _symmetry_equiv_pos_site_id
 _symmetry_equiv_pos_as_xyz
  1  'x, y, z'
loop_
 _atom_site_type_symbol
 _atom_site_label
 _atom_site_symmetry_multiplicity
 _atom_site_fract_x
 _atom_site_fract_y
 _atom_site_fract_z
 _atom_site_occupancy
  Er  Er0  1  0.00000000  0.50000000  0.75000000  1
  Er  Er1  1  0.50000000  0.25000000  0.00000000  1
  Er  Er2  1  0.75000000  0.00000000  0.50000000  1
  Er  Er3  1  0.00000000  0.50000000  0.25000000  1
  Er  Er4  1  0.50000000  0.75000000  0.00000000  1
  Er  Er5  1  0.25000000  0.00000000  0.50000000  1
  Ge  Ge0  1  0.50000000  0.50000000  0.50000000  1
  Ge  Ge1  1  0.00000000  0.00000000  0.00000000  1
  Ge  Ge2  1  0.80134700  0.35482600  0.50000000  1
  Ge  Ge3  1  0.64517400  0.50000000  0.80134700  1
  Ge  Ge4  1  0.50000000  0.19865300  0.64517400  1
  Ge  Ge5  1  0.19865300  0.64517400  0.50000000  1
  Ge  Ge6  1  0.35482600  0.50000000  0.19865300  1
  Ge  Ge7  1  0.50000000  0.80134700  0.35482600  1
  Ge  Ge8  1  0.80134700  0.64517400  0.50000000  1
  Ge  Ge9  1  0.64517400  0.50000000  0.19865300  1
  Ge  Ge10  1  0.19865300  0.35482600  0.50000000  1
  Ge  Ge11  1  0.35482600  0.50000000  0.80134700  1
  Ge  Ge12  1  0.50000000  0.80134700  0.64517400  1
  Ge  Ge13  1  0.50000000  0.19865300  0.35482600  1
  Ge  Ge14  1  0.30134700  0.00000000  0.85482600  1
  Ge  Ge15  1  0.14517400  0.30134700  0.00000000  1
  Ge  Ge16  1  0.00000000  0.14517400  0.69865300  1
  Ge  Ge17  1  0.69865300  0.00000000  0.14517400  1
  Ge  Ge18  1  0.85482600  0.69865300  0.00000000  1
  Ge  Ge19  1  0.00000000  0.85482600  0.30134700  1
  Ge  Ge20  1  0.30134700  0.00000000  0.14517400  1
  Ge  Ge21  1  0.14517400  0.69865300  0.00000000  1
  Ge  Ge22  1  0.69865300  0.00000000  0.85482600  1
  Ge  Ge23  1  0.85482600  0.30134700  0.00000000  1
  Ge  Ge24  1  0.00000000  0.14517400  0.30134700  1
  Ge  Ge25  1  0.00000000  0.85482600  0.69865300  1
  Os  Os0  1  0.75000000  0.25000000  0.75000000  1
  Os  Os1  1  0.25000000  0.75000000  0.25000000  1
  Os  Os2  1  0.75000000  0.75000000  0.25000000  1
  Os  Os3  1  0.25000000  0.25000000  0.75000000  1
  Os  Os4  1  0.25000000  0.75000000  0.75000000  1
  Os  Os5  1  0.75000000  0.25000000  0.25000000  1
  Os  Os6  1  0.25000000  0.25000000  0.25000000  1
  Os  Os7  1  0.75000000  0.75000000  0.75000000  1
loop_
_geom_bond_atom_site_label_1
_geom_bond_atom_site_label_2
_geom_bond_distance
_geom_bond_site_symmetry_2
Er0 Ge23 3.178199 1_456
Er0 Ge10 3.178199 1_555
Er0 Ge18 3.178199 1_456
Er0 Ge8 3.178199 1_455
Er0 Ge5 3.178199 1_555
Er0 Ge2 3.178199 1_455
Er0 Ge21 3.178199 1_556
Er0 Ge15 3.178199 1_556
Er0 Os4 3.203432 1_555
Er0 Os0 3.203432 1_455
Er0 Os7 3.203432 1_455
Er0 Os3 3.203432 1_555
Er0 Ge11 3.248451 1_555
Er0 Ge3 3.248451 1_455
Er0 Ge25 3.248451 1_555
Er0 Ge16 3.248451 1_555
Er1 Ge17 3.178199 1_555
Er1 Ge6 3.178199 1_555
Er1 Ge3 3.178199 1_554
Er1 Ge14 3.178199 1_554
Er1 Ge20 3.178199 1_555
Er1 Ge9 3.178199 1_555
Er1 Ge11 3.178199 1_554
Er1 Ge22 3.178199 1_554
Er1 Os3 3.203432 1_554
Er1 Os5 3.203432 1_555
Er1 Os0 3.203432 1_554
Er1 Os6 3.203432 1_555
Er1 Ge23 3.248451 1_555
Er1 Ge4 3.248451 1_554
Er1 Ge13 3.248451 1_555
Er1 Ge15 3.248451 1_555
Er2 Ge25 3.178199 1_645
Er2 Ge4 3.178199 1_555
Er2 Ge13 3.178199 1_555
Er2 Ge16 3.178199 1_655
Er2 Ge12 3.178199 1_545
Er2 Ge7 3.178199 1_545
Er2 Ge19 3.178199 1_645
Er2 Ge24 3.178199 1_655
Er2 Os7 3.203432 1_545
Er2 Os5 3.203432 1_555
Er2 Os2 3.203432 1_545
Er2 Os0 3.203432 1_555
Er2 Ge8 3.248451 1_545
Er2 Ge17 3.248451 1_555
Er2 Ge22 3.248451 1_555
Er2 Ge2 3.248451 1_555
Er3 Ge10 3.178199 1_555
Er3 Ge18 3.178199 1_455
Er3 Ge8 3.178199 1_455
Er3 Ge5 3.178199 1_555
Er3 Ge2 3.178199 1_455
Er3 Ge15 3.178199 1_555
Er3 Ge21 3.178199 1_555
Er3 Ge23 3.178199 1_455
Er3 Os2 3.203432 1_455
Er3 Os1 3.203432 1_555
Er3 Os5 3.203432 1_455
Er3 Os6 3.203432 1_555
Er3 Ge9 3.248451 1_455
Er3 Ge24 3.248451 1_555
Er3 Ge19 3.248451 1_555
Er3 Ge6 3.248451 1_555
Er4 Ge17 3.178199 1_565
Er4 Ge6 3.178199 1_555
Er4 Ge3 3.178199 1_554
Er4 Ge9 3.178199 1_555
Er4 Ge22 3.178199 1_564
Er4 Ge14 3.178199 1_564
Er4 Ge20 3.178199 1_565
Er4 Ge11 3.178199 1_554
Er4 Os1 3.203432 1_555
Er4 Os2 3.203432 1_555
Er4 Os7 3.203432 1_554
Er4 Os4 3.203432 1_554
Er4 Ge18 3.248451 1_555
Er4 Ge7 3.248451 1_555
Er4 Ge12 3.248451 1_554
Er4 Ge21 3.248451 1_555
Er5 Ge16 3.178199 1_555
Er5 Ge19 3.178199 1_545
Er5 Ge4 3.178199 1_555
Er5 Ge12 3.178199 1_545
Er5 Ge25 3.178199 1_545
Er5 Ge24 3.178199 1_555
Er5 Ge13 3.178199 1_555
Er5 Ge7 3.178199 1_545
Er5 Os1 3.203432 1_545
Er5 Os4 3.203432 1_545
Er5 Os6 3.203432 1_555
Er5 Os3 3.203432 1_555
Er5 Ge20 3.248451 1_555
Er5 Ge14 3.248451 1_555
Er5 Ge5 3.248451 1_545
Er5 Ge10 3.248451 1_555
Ge0 Ge7 3.030732 1_555
Ge0 Ge6 3.030732 1_555
Ge0 Ge2 3.030732 1_555
Ge0 Ge12 3.030732 1_555
Ge0 Ge4 3.030732 1_555
Ge0 Ge13 3.030732 1_555
Ge0 Ge9 3.030732 1_555
Ge0 Ge10 3.030732 1_555
Ge0 Ge11 3.030732 1_555
Ge0 Ge3 3.030732 1_555
Ge0 Ge8 3.030732 1_555
Ge0 Ge5 3.030732 1_555
Ge1 Ge17 3.030732 1_455
Ge1 Ge14 3.030732 1_554
Ge1 Ge19 3.030732 1_545
Ge1 Ge24 3.030732 1_555
Ge1 Ge15 3.030732 1_555
Ge1 Ge16 3.030732 1_554
Ge1 Ge23 3.030732 1_455
Ge1 Ge21 3.030732 1_545
Ge1 Ge20 3.030732 1_555
Ge1 Ge18 3.030732 1_445
Ge1 Ge22 3.030732 1_454
Ge1 Ge25 3.030732 1_544
Ge2 Os0 2.499909 1_555
Ge2 Os5 2.499909 1_555
Ge3 Os0 2.499909 1_555
Ge3 Os7 2.499909 1_555
Ge4 Os0 2.499909 1_555
Ge4 Os3 2.499909 1_555
Ge5 Os1 2.499909 1_555
Ge5 Os4 2.499909 1_555
Ge6 Os1 2.499909 1_555
Ge6 Os6 2.499909 1_555
Ge7 Os1 2.499909 1_555
Ge7 Os2 2.499909 1_555
Ge8 Os7 2.499909 1_555
Ge8 Os2 2.499909 1_555
Ge9 Os2 2.499909 1_555
Ge9 Os5 2.499909 1_555
Ge10 Os6 2.499909 1_555
Ge10 Os3 2.499909 1_555
Ge11 Os3 2.499909 1_555
Ge11 Os4 2.499909 1_555
Ge12 Os7 2.499909 1_555
Ge12 Os4 2.499909 1_555
Ge13 Os6 2.499909 1_555
Ge13 Os5 2.499909 1_555
Ge14 Os4 2.499909 1_545
Ge14 Os3 2.499909 1_555
Ge15 Os6 2.499909 1_555
Ge15 Os3 2.499909 1_554
Ge16 Os0 2.499909 1_455
Ge16 Os3 2.499909 1_555
Ge17 Os5 2.499909 1_555
Ge17 Os2 2.499909 1_545
Ge18 Os2 2.499909 1_555
Ge18 Os7 2.499909 1_554
Ge19 Os2 2.499909 1_455
Ge19 Os1 2.499909 1_555
Ge20 Os6 2.499909 1_555
Ge20 Os1 2.499909 1_545
Ge21 Os4 2.499909 1_554
Ge21 Os1 2.499909 1_555
Ge22 Os0 2.499909 1_555
Ge22 Os7 2.499909 1_545
Ge23 Os0 2.499909 1_554
Ge23 Os5 2.499909 1_555
Ge24 Os6 2.499909 1_555
Ge24 Os5 2.499909 1_455
Ge25 Os4 2.499909 1_555
Ge25 Os7 2.499909 1_455
