# generated using pymatgen
data_CsAg7S4
_symmetry_space_group_name_H-M   'P 1'
_cell_length_a   11.22686428
_cell_length_b   11.22686428
_cell_length_c   8.44178283
_cell_angle_alpha   90.00000000
_cell_angle_beta   90.00000000
_cell_angle_gamma   90.00000000
_symmetry_Int_Tables_number   1
_chemical_formula_structural   CsAg7S4
_chemical_formula_sum   'Cs4 Ag28 S16'
_cell_volume   1064.02325670
_cell_formula_units_Z   4
loop_
 _symmetry_equiv_pos_site_id
 _symmetry_equiv_pos_as_xyz
  1  'x, y, z'
loop_
 _atom_site_type_symbol
 _atom_site_label
 _atom_site_symmetry_multiplicity
 _atom_site_fract_x
 _atom_site_fract_y
 _atom_site_fract_z
 _atom_site_occupancy
  Cs  Cs0  1  0.50000000  0.00000000  0.62213404  1
  Cs  Cs1  1  0.00000000  0.50000000  0.37786596  1
  Cs  Cs2  1  0.50000000  0.00000000  0.11958017  1
  Cs  Cs3  1  0.00000000  0.50000000  0.88041983  1
  Ag  Ag0  1  0.25000000  0.25000000  -0.00000000  1
  Ag  Ag1  1  0.75000000  0.75000000  -0.00000000  1
  Ag  Ag2  1  0.25000000  0.75000000  -0.00000000  1
  Ag  Ag3  1  0.75000000  0.25000000  -0.00000000  1
  Ag  Ag4  1  0.73051458  0.28764465  0.66195559  1
  Ag  Ag5  1  0.26948542  0.71235535  0.66195559  1
  Ag  Ag6  1  0.21235535  0.23051458  0.66195559  1
  Ag  Ag7  1  0.78764465  0.76948542  0.66195559  1
  Ag  Ag8  1  0.76948542  0.21235535  0.33804441  1
  Ag  Ag9  1  0.23051458  0.78764465  0.33804441  1
  Ag  Ag10  1  0.28764465  0.26948542  0.33804441  1
  Ag  Ag11  1  0.71235535  0.73051458  0.33804441  1
  Ag  Ag12  1  0.98083319  0.86503137  0.87866108  1
  Ag  Ag13  1  0.01916681  0.13496863  0.87866108  1
  Ag  Ag14  1  0.63496863  0.48083319  0.87866108  1
  Ag  Ag15  1  0.36503137  0.51916681  0.87866108  1
  Ag  Ag16  1  0.51916681  0.63496863  0.12133892  1
  Ag  Ag17  1  0.48083319  0.36503137  0.12133892  1
  Ag  Ag18  1  0.86503137  0.01916681  0.12133892  1
  Ag  Ag19  1  0.13496863  0.98083319  0.12133892  1
  Ag  Ag20  1  0.53943029  0.64082977  0.61265773  1
  Ag  Ag21  1  0.46056971  0.35917023  0.61265773  1
  Ag  Ag22  1  0.85917023  0.03943029  0.61265773  1
  Ag  Ag23  1  0.14082977  0.96056971  0.61265773  1
  Ag  Ag24  1  0.96056971  0.85917023  0.38734227  1
  Ag  Ag25  1  0.03943029  0.14082977  0.38734227  1
  Ag  Ag26  1  0.64082977  0.46056971  0.38734227  1
  Ag  Ag27  1  0.35917023  0.53943029  0.38734227  1
  S  S0  1  0.23870364  0.06090891  0.86474126  1
  S  S1  1  0.76129636  0.93909109  0.86474126  1
  S  S2  1  0.43909109  0.73870364  0.86474126  1
  S  S3  1  0.56090891  0.26129636  0.86474126  1
  S  S4  1  0.26129636  0.43909109  0.13525874  1
  S  S5  1  0.73870364  0.56090891  0.13525874  1
  S  S6  1  0.06090891  0.76129636  0.13525874  1
  S  S7  1  0.93909109  0.23870364  0.13525874  1
  S  S8  1  0.25535849  0.44476836  0.62720436  1
  S  S9  1  0.74464151  0.55523164  0.62720436  1
  S  S10  1  0.05523164  0.75535849  0.62720436  1
  S  S11  1  0.94476836  0.24464151  0.62720436  1
  S  S12  1  0.24464151  0.05523164  0.37279564  1
  S  S13  1  0.75535849  0.94476836  0.37279564  1
  S  S14  1  0.44476836  0.74464151  0.37279564  1
  S  S15  1  0.55523164  0.25535849  0.37279564  1
loop_
_geom_bond_atom_site_label_1
_geom_bond_atom_site_label_2
_geom_bond_distance
_geom_bond_site_symmetry_2
Cs0 S15 3.610250 1_555
Cs0 S14 3.610250 1_545
Cs0 S13 3.610250 1_545
Cs0 S12 3.610250 1_555
Cs0 S1 3.642487 1_545
Cs0 S0 3.642487 1_555
Cs0 S2 3.642487 1_545
Cs0 S3 3.642487 1_555
Cs1 S9 3.610250 1_455
Cs1 S10 3.610250 1_555
Cs1 S11 3.610250 1_455
Cs1 S8 3.610250 1_555
Cs1 S4 3.642487 1_555
Cs1 S5 3.642487 1_455
Cs1 S7 3.642487 1_455
Cs1 S6 3.642487 1_555
Cs2 S13 3.629430 1_545
Cs2 S12 3.629430 1_555
Cs2 S15 3.629430 1_555
Cs2 S14 3.629430 1_545
Cs2 S0 3.701530 1_554
Cs2 S1 3.701530 1_544
Cs2 S3 3.701530 1_554
Cs2 S2 3.701530 1_544
Cs3 S11 3.629430 1_455
Cs3 S8 3.629430 1_555
Cs3 S9 3.629430 1_455
Cs3 S10 3.629430 1_555
Cs3 S4 3.701530 1_556
Cs3 S5 3.701530 1_456
Cs3 S6 3.701530 1_556
Cs3 S7 3.701530 1_456
Ag0 S0 2.413825 1_554
Ag0 S4 2.413825 1_555
Ag1 S1 2.413825 1_554
Ag1 S5 2.413825 1_555
Ag2 S2 2.413825 1_554
Ag2 S6 2.413825 1_555
Ag3 S3 2.413825 1_554
Ag3 S7 2.413825 1_555
Ag4 S11 2.470848 1_555
Ag4 S3 2.577549 1_555
Ag4 S9 3.022616 1_555
Ag4 S15 3.156348 1_555
Ag5 S10 2.470848 1_555
Ag5 S2 2.577549 1_555
Ag5 S8 3.022616 1_555
Ag5 S14 3.156348 1_555
Ag6 S8 2.470848 1_555
Ag6 S0 2.577549 1_555
Ag6 S11 3.022616 1_455
Ag6 S12 3.156348 1_555
Ag7 S9 2.470848 1_555
Ag7 S1 2.577549 1_555
Ag7 S10 3.022616 1_655
Ag7 S13 3.156348 1_555
Ag8 S15 2.470848 1_555
Ag8 S7 2.577549 1_555
Ag8 S13 3.022616 1_545
Ag8 S11 3.156348 1_555
Ag9 S14 2.470848 1_555
Ag9 S6 2.577549 1_555
Ag9 S12 3.022616 1_565
Ag9 S10 3.156348 1_555
Ag10 S12 2.470848 1_555
Ag10 S4 2.577549 1_555
Ag10 S15 3.022616 1_555
Ag10 S8 3.156348 1_555
Ag11 S13 2.470848 1_555
Ag11 S5 2.577549 1_555
Ag11 S14 3.022616 1_555
Ag11 S9 3.156348 1_555
Ag12 S10 2.592249 1_655
Ag12 S1 2.603829 1_555
Ag12 S6 2.618531 1_656
Ag13 S11 2.592249 1_455
Ag13 S0 2.603829 1_555
Ag13 S7 2.618531 1_456
Ag14 S9 2.592249 1_555
Ag14 S3 2.603829 1_555
Ag14 S5 2.618531 1_556
Ag15 S8 2.592249 1_555
Ag15 S2 2.603829 1_555
Ag15 S4 2.618531 1_556
Ag16 S14 2.592249 1_555
Ag16 S5 2.603829 1_555
Ag16 S2 2.618531 1_554
Ag17 S15 2.592249 1_555
Ag17 S4 2.603829 1_555
Ag17 S3 2.618531 1_554
Ag18 S13 2.592249 1_545
Ag18 S7 2.603829 1_555
Ag18 S1 2.618531 1_544
Ag19 S12 2.592249 1_565
Ag19 S6 2.603829 1_555
Ag19 S0 2.618531 1_564
Ag20 S9 2.499291 1_555
Ag20 S14 2.566684 1_555
Ag20 S2 2.646681 1_555
Ag21 S8 2.499291 1_555
Ag21 S15 2.566684 1_555
Ag21 S3 2.646681 1_555
Ag22 S11 2.499291 1_555
Ag22 S13 2.566684 1_545
Ag22 S1 2.646681 1_545
Ag23 S10 2.499291 1_555
Ag23 S12 2.566684 1_565
Ag23 S0 2.646681 1_565
Ag24 S13 2.499291 1_555
Ag24 S10 2.566684 1_655
Ag24 S6 2.646681 1_655
Ag25 S12 2.499291 1_555
Ag25 S11 2.566684 1_455
Ag25 S7 2.646681 1_455
Ag26 S15 2.499291 1_555
Ag26 S9 2.566684 1_555
Ag26 S5 2.646681 1_555
Ag27 S14 2.499291 1_555
Ag27 S8 2.566684 1_555
Ag27 S4 2.646681 1_555
