# generated using pymatgen
data_MgIr2
_symmetry_space_group_name_H-M   'P 1'
_cell_length_a   5.17449227
_cell_length_b   5.17449047
_cell_length_c   8.40033559
_cell_angle_alpha   90.00000000
_cell_angle_beta   90.00000000
_cell_angle_gamma   119.99999865
_symmetry_Int_Tables_number   1
_chemical_formula_structural   MgIr2
_chemical_formula_sum   'Mg4 Ir8'
_cell_volume   194.78818363
_cell_formula_units_Z   4
loop_
 _symmetry_equiv_pos_site_id
 _symmetry_equiv_pos_as_xyz
  1  'x, y, z'
loop_
 _atom_site_type_symbol
 _atom_site_label
 _atom_site_symmetry_multiplicity
 _atom_site_fract_x
 _atom_site_fract_y
 _atom_site_fract_z
 _atom_site_occupancy
  Mg  Mg0  1  0.33333300  0.66666700  0.06945439  1
  Mg  Mg1  1  0.66666700  0.33333300  0.56945439  1
  Mg  Mg2  1  0.66666700  0.33333300  0.93054561  1
  Mg  Mg3  1  0.33333300  0.66666700  0.43054561  1
  Ir  Ir0  1  -0.00000000  -0.00000000  0.00000000  1
  Ir  Ir1  1  -0.00000000  -0.00000000  0.50000000  1
  Ir  Ir2  1  0.82794655  0.65589511  0.25000000  1
  Ir  Ir3  1  0.17205345  0.82794655  0.75000000  1
  Ir  Ir4  1  0.65589511  0.82794655  0.75000000  1
  Ir  Ir5  1  0.34410489  0.17205345  0.25000000  1
  Ir  Ir6  1  0.82794655  0.17205345  0.25000000  1
  Ir  Ir7  1  0.17205345  0.34410489  0.75000000  1
loop_
_geom_bond_atom_site_label_1
_geom_bond_atom_site_label_2
_geom_bond_distance
_geom_bond_site_symmetry_2
Ir0 Ir7 2.605411 1_554
Ir0 Ir2 2.605411 1_445
Ir0 Ir5 2.605412 1_555
Ir0 Ir4 2.605412 1_444
Ir0 Ir3 2.605417 1_544
Ir0 Ir6 2.605417 1_455
Ir0 Mg0 3.043929 1_545
Ir0 Mg2 3.043929 1_454
Ir0 Mg0 3.043933 1_555
Ir0 Mg2 3.043933 1_444
Ir0 Mg0 3.043934 1_445
Ir0 Mg2 3.043934 1_554
Ir1 Ir7 2.605411 1_555
Ir1 Ir2 2.605411 1_445
Ir1 Ir5 2.605412 1_555
Ir1 Ir4 2.605412 1_445
Ir1 Ir3 2.605417 1_545
Ir1 Ir6 2.605417 1_455
Ir1 Mg3 3.043929 1_545
Ir1 Mg1 3.043929 1_455
Ir1 Mg1 3.043933 1_445
Ir1 Mg3 3.043933 1_555
Ir1 Mg3 3.043934 1_445
Ir1 Mg1 3.043934 1_555
Ir2 Ir6 2.503634 1_555
Ir2 Ir5 2.503635 1_555
Ir2 Ir6 2.670856 1_565
Ir2 Ir5 2.670857 1_665
Ir2 Mg0 2.999394 1_555
Ir2 Mg3 2.999394 1_555
Ir2 Mg0 2.999399 1_655
Ir2 Mg3 2.999399 1_655
Ir2 Mg2 3.048066 1_554
Ir2 Mg1 3.048066 1_555
Ir3 Ir7 2.503634 1_555
Ir3 Ir4 2.503635 1_555
Ir3 Ir7 2.670856 1_565
Ir3 Ir4 2.670857 1_455
Ir3 Mg2 2.999396 1_565
Ir3 Mg1 2.999396 1_565
Ir3 Mg1 2.999396 1_455
Ir3 Mg2 2.999396 1_455
Ir3 Mg3 3.048060 1_555
Ir3 Mg0 3.048060 1_556
Ir4 Ir7 2.503635 1_555
Ir4 Ir7 2.670857 1_665
Ir4 Mg2 2.999394 1_555
Ir4 Mg1 2.999394 1_555
Ir4 Mg2 2.999398 1_565
Ir4 Mg1 2.999398 1_565
Ir4 Mg0 3.048067 1_556
Ir4 Mg3 3.048067 1_555
Ir5 Ir6 2.503635 1_555
Ir5 Ir6 2.670857 1_455
Ir5 Mg0 2.999394 1_555
Ir5 Mg3 2.999394 1_555
Ir5 Mg3 2.999398 1_545
Ir5 Mg0 2.999398 1_545
Ir5 Mg2 3.048067 1_554
Ir5 Mg1 3.048067 1_555
Ir6 Mg3 2.999396 1_545
Ir6 Mg0 2.999396 1_545
Ir6 Mg0 2.999396 1_655
Ir6 Mg3 2.999396 1_655
Ir6 Mg1 3.048060 1_555
Ir6 Mg2 3.048060 1_554
Ir7 Mg1 2.999394 1_555
Ir7 Mg2 2.999394 1_555
Ir7 Mg1 2.999399 1_455
Ir7 Mg2 2.999399 1_455
Ir7 Mg3 3.048066 1_555
Ir7 Mg0 3.048066 1_556
