# generated using pymatgen
data_Tm(Mg4Al3)4
_symmetry_space_group_name_H-M   'P 1'
_cell_length_a   9.27276526
_cell_length_b   9.27276526
_cell_length_c   9.27276489
_cell_angle_alpha   110.46054108
_cell_angle_beta   110.46054108
_cell_angle_gamma   110.46054714
_symmetry_Int_Tables_number   1
_chemical_formula_structural   Tm(Mg4Al3)4
_chemical_formula_sum   'Tm1 Mg16 Al12'
_cell_volume   590.22025175
_cell_formula_units_Z   1
loop_
 _symmetry_equiv_pos_site_id
 _symmetry_equiv_pos_as_xyz
  1  'x, y, z'
loop_
 _atom_site_type_symbol
 _atom_site_label
 _atom_site_symmetry_multiplicity
 _atom_site_fract_x
 _atom_site_fract_y
 _atom_site_fract_z
 _atom_site_occupancy
  Tm  Tm0  1  0.62773200  0.62773200  0.62773200  1
  Mg  Mg0  1  0.00263600  0.00263600  0.00263600  1
  Mg  Mg1  1  0.28296000  0.68537600  0.68537600  1
  Mg  Mg2  1  0.34494600  0.00470700  0.00470700  1
  Mg  Mg3  1  0.72029100  0.39028600  0.39028600  1
  Mg  Mg4  1  0.99829100  0.60600100  0.31079400  1
  Mg  Mg5  1  0.60600100  0.31079400  0.99829100  1
  Mg  Mg6  1  0.39028600  0.72029100  0.39028600  1
  Mg  Mg7  1  0.00470700  0.34494600  0.00470700  1
  Mg  Mg8  1  0.31079400  0.99829100  0.60600100  1
  Mg  Mg9  1  0.68537600  0.68537600  0.28296000  1
  Mg  Mg10  1  0.68537600  0.28296000  0.68537600  1
  Mg  Mg11  1  0.31079400  0.60600100  0.99829100  1
  Mg  Mg12  1  0.00470700  0.00470700  0.34494600  1
  Mg  Mg13  1  0.39028600  0.39028600  0.72029100  1
  Mg  Mg14  1  0.60600100  0.99829100  0.31079400  1
  Mg  Mg15  1  0.99829100  0.31079400  0.60600100  1
  Al  Al0  1  0.19119600  0.37040800  0.37040800  1
  Al  Al1  1  0.82523700  0.18985500  0.18985500  1
  Al  Al2  1  0.99628400  0.81454700  0.63595900  1
  Al  Al3  1  0.37040800  0.37040800  0.19119600  1
  Al  Al4  1  0.63595900  0.99628400  0.81454700  1
  Al  Al5  1  0.81454700  0.99628400  0.63595900  1
  Al  Al6  1  0.18985500  0.18985500  0.82523700  1
  Al  Al7  1  0.18985500  0.82523700  0.18985500  1
  Al  Al8  1  0.81454700  0.63595900  0.99628400  1
  Al  Al9  1  0.63595900  0.81454700  0.99628400  1
  Al  Al10  1  0.37040800  0.19119600  0.37040800  1
  Al  Al11  1  0.99628400  0.63595900  0.81454700  1
loop_
_geom_bond_atom_site_label_1
_geom_bond_atom_site_label_2
_geom_bond_distance
_geom_bond_site_symmetry_2
Mg0 Mg12 3.160782 1_555
Mg0 Mg7 3.160782 1_555
Mg0 Mg2 3.160782 1_555
Mg0 Tm0 3.302808 1_444
Mg1 Mg2 3.058867 1_566
Mg1 Mg15 3.165203 1_455
Mg1 Mg4 3.165203 1_455
Mg1 Mg11 3.182747 1_555
Mg1 Mg8 3.182747 1_555
Mg1 Mg6 3.298566 1_555
Mg1 Mg13 3.298566 1_555
Mg1 Tm0 3.603029 1_555
Mg2 Mg5 3.055234 1_554
Mg2 Mg3 3.368002 1_555
Mg3 Tm0 3.112138 1_555
Mg3 Mg5 3.125115 1_554
Mg3 Mg4 3.153400 1_555
Mg3 Mg9 3.298566 1_555
Mg4 Mg8 3.040705 1_655
Mg4 Mg5 3.040705 1_554
Mg4 Mg7 3.055234 1_655
Mg4 Mg6 3.125115 1_655
Mg4 Mg9 3.182747 1_555
Mg5 Mg8 3.040705 1_545
Mg5 Mg9 3.165203 1_556
Mg6 Tm0 3.112138 1_555
Mg6 Mg8 3.153400 1_555
Mg6 Mg9 3.298566 1_555
Mg6 Mg7 3.368002 1_555
Mg9 Tm0 3.603029 1_555
Mg10 Mg7 3.058867 1_656
Mg10 Mg8 3.165203 1_545
Mg10 Mg14 3.165203 1_545
Mg10 Mg5 3.182747 1_555
Mg10 Mg15 3.182747 1_555
Mg10 Mg3 3.298566 1_555
Mg10 Mg13 3.298566 1_555
Mg10 Tm0 3.603029 1_555
Mg11 Mg14 3.040705 1_556
Mg11 Mg15 3.040705 1_455
Mg11 Mg7 3.055234 1_556
Mg11 Mg6 3.125115 1_556
Mg11 Mg13 3.153400 1_555
Mg11 Mg9 3.165203 1_556
Mg12 Mg15 3.055234 1_455
Mg12 Mg8 3.055234 1_545
Mg12 Mg9 3.058867 1_445
Mg12 Mg13 3.368002 1_555
Mg13 Tm0 3.112138 1_555
Mg13 Mg8 3.125115 1_545
Mg13 Mg15 3.125115 1_455
Mg13 Mg5 3.153400 1_555
Mg14 Mg15 3.040705 1_565
Mg14 Mg2 3.055234 1_565
Mg14 Mg3 3.125115 1_565
Mg14 Mg6 3.153400 1_555
Mg14 Mg9 3.182747 1_555
Mg15 Mg3 3.153400 1_555
Al0 Al1 2.686614 1_455
Al0 Al3 2.730158 1_555
Al0 Al10 2.730158 1_555
Al0 Mg1 2.888888 1_555
Al0 Mg6 3.020718 1_555
Al0 Mg13 3.020718 1_555
Al0 Mg12 3.098468 1_555
Al0 Mg7 3.098468 1_555
Al0 Mg0 3.138278 1_555
Al0 Tm0 3.207291 1_555
Al1 Al4 2.752033 1_544
Al1 Al9 2.752033 1_544
Al1 Mg3 2.823014 1_555
Al1 Mg14 3.001276 1_545
Al1 Mg5 3.001277 1_554
Al1 Mg7 3.136183 1_655
Al1 Mg12 3.136183 1_655
Al1 Mg15 3.179704 1_555
Al1 Mg4 3.179704 1_555
Al1 Mg0 3.258775 1_655
Al2 Al6 2.752033 1_665
Al2 Al5 2.768625 1_555
Al2 Mg9 2.950910 1_555
Al2 Mg4 2.969713 1_555
Al2 Mg8 2.984758 1_655
Al2 Mg2 3.053533 1_666
Al2 Mg3 3.136187 1_555
Al2 Mg0 3.201308 1_666
Al2 Tm0 3.205056 1_555
Al2 Mg1 3.235617 1_655
Al3 Al6 2.686614 1_554
Al3 Mg9 2.888888 1_555
Al3 Mg6 3.020718 1_555
Al3 Mg3 3.020718 1_555
Al3 Mg2 3.098469 1_555
Al3 Mg7 3.098469 1_555
Al3 Mg0 3.138278 1_555
Al3 Tm0 3.207291 1_555
Al4 Al5 2.720652 1_555
Al4 Al9 2.768625 1_555
Al4 Mg1 2.950910 1_555
Al4 Mg8 2.969713 1_555
Al4 Mg5 2.984758 1_565
Al4 Mg7 3.053533 1_666
Al4 Mg6 3.136187 1_555
Al4 Mg0 3.201308 1_666
Al4 Tm0 3.205057 1_555
Al4 Mg10 3.235617 1_565
Al5 Al6 2.752033 1_665
Al5 Mg9 2.950910 1_555
Al5 Mg14 2.969713 1_555
Al5 Mg15 2.984758 1_565
Al5 Mg7 3.053533 1_666
Al5 Mg6 3.136187 1_555
Al5 Mg0 3.201308 1_666
Al5 Tm0 3.205056 1_555
Al5 Mg10 3.235617 1_565
Al6 Mg13 2.823014 1_555
Al6 Mg15 3.001277 1_455
Al6 Mg8 3.001277 1_545
Al6 Mg7 3.136183 1_556
Al6 Mg2 3.136183 1_556
Al6 Mg5 3.179704 1_555
Al6 Mg11 3.179704 1_555
Al6 Mg0 3.258775 1_556
Al7 Al8 2.752033 1_454
Al7 Mg6 2.823014 1_555
Al7 Mg4 3.001276 1_455
Al7 Mg11 3.001277 1_554
Al7 Mg2 3.136183 1_565
Al7 Mg12 3.136183 1_565
Al7 Mg8 3.179704 1_555
Al7 Mg14 3.179704 1_555
Al7 Mg0 3.258775 1_565
Al8 Al9 2.720652 1_555
Al8 Mg10 2.950911 1_555
Al8 Mg5 2.969713 1_555
Al8 Mg4 2.984758 1_556
Al8 Mg12 3.053533 1_666
Al8 Mg13 3.136187 1_555
Al8 Mg0 3.201308 1_666
Al8 Tm0 3.205057 1_555
Al8 Mg9 3.235617 1_556
Al9 Mg1 2.950911 1_555
Al9 Mg11 2.969713 1_555
Al9 Mg14 2.984758 1_556
Al9 Mg12 3.053533 1_666
Al9 Mg13 3.136187 1_555
Al9 Mg0 3.201308 1_666
Al9 Tm0 3.205057 1_555
Al9 Mg9 3.235617 1_556
Al10 Al7 2.686614 1_545
Al10 Al3 2.730158 1_555
Al10 Mg10 2.888888 1_555
Al10 Mg3 3.020718 1_555
Al10 Mg13 3.020718 1_555
Al10 Mg12 3.098468 1_555
Al10 Mg2 3.098468 1_555
Al10 Mg0 3.138278 1_555
Al10 Tm0 3.207291 1_555
Al11 Al2 2.720652 1_555
Al11 Al7 2.752033 1_656
Al11 Al8 2.768625 1_555
Al11 Mg10 2.950910 1_555
Al11 Mg15 2.969713 1_555
Al11 Mg11 2.984758 1_655
Al11 Mg2 3.053533 1_666
Al11 Mg3 3.136187 1_555
Al11 Mg0 3.201308 1_666
Al11 Tm0 3.205057 1_555
Al11 Mg1 3.235617 1_655
