# generated using pymatgen
data_MnAlN2
_symmetry_space_group_name_H-M   'P 1'
_cell_length_a   5.19125600
_cell_length_b   10.62242400
_cell_length_c   12.93885500
_cell_angle_alpha   90.00000000
_cell_angle_beta   90.00000000
_cell_angle_gamma   90.00000000
_symmetry_Int_Tables_number   1
_chemical_formula_structural   MnAlN2
_chemical_formula_sum   'Mn16 Al16 N32'
_cell_volume   713.49662732
_cell_formula_units_Z   16
loop_
 _symmetry_equiv_pos_site_id
 _symmetry_equiv_pos_as_xyz
  1  'x, y, z'
loop_
 _atom_site_type_symbol
 _atom_site_label
 _atom_site_symmetry_multiplicity
 _atom_site_fract_x
 _atom_site_fract_y
 _atom_site_fract_z
 _atom_site_occupancy
  Mn  Mn0  1  0.65803500  0.95261900  0.44111600  1
  Mn  Mn1  1  0.15803500  0.54738100  0.55888400  1
  Mn  Mn2  1  0.34196500  0.45261900  0.05888400  1
  Mn  Mn3  1  0.84196500  0.04738100  0.94111600  1
  Mn  Mn4  1  0.34196500  0.04738100  0.55888400  1
  Mn  Mn5  1  0.84196500  0.45261900  0.44111600  1
  Mn  Mn6  1  0.65803500  0.54738100  0.94111600  1
  Mn  Mn7  1  0.15803500  0.95261900  0.05888400  1
  Mn  Mn8  1  0.80934400  0.29423900  0.30657800  1
  Mn  Mn9  1  0.30934400  0.20576100  0.69342200  1
  Mn  Mn10  1  0.19065600  0.79423900  0.19342200  1
  Mn  Mn11  1  0.69065600  0.70576100  0.80657800  1
  Mn  Mn12  1  0.19065600  0.70576100  0.69342200  1
  Mn  Mn13  1  0.69065600  0.79423900  0.30657800  1
  Mn  Mn14  1  0.80934400  0.20576100  0.80657800  1
  Mn  Mn15  1  0.30934400  0.29423900  0.19342200  1
  Al  Al0  1  0.63011800  0.03864200  0.18533400  1
  Al  Al1  1  0.13011800  0.46135800  0.81466600  1
  Al  Al2  1  0.36988200  0.53864200  0.31466600  1
  Al  Al3  1  0.86988200  0.96135800  0.68533400  1
  Al  Al4  1  0.36988200  0.96135800  0.81466600  1
  Al  Al5  1  0.86988200  0.53864200  0.18533400  1
  Al  Al6  1  0.63011800  0.46135800  0.68533400  1
  Al  Al7  1  0.13011800  0.03864200  0.31466600  1
  Al  Al8  1  0.80825000  0.29097100  0.06399600  1
  Al  Al9  1  0.30825000  0.20902900  0.93600400  1
  Al  Al10  1  0.19175000  0.79097100  0.43600400  1
  Al  Al11  1  0.69175000  0.70902900  0.56399600  1
  Al  Al12  1  0.19175000  0.70902900  0.93600400  1
  Al  Al13  1  0.69175000  0.79097100  0.06399600  1
  Al  Al14  1  0.80825000  0.20902900  0.56399600  1
  Al  Al15  1  0.30825000  0.29097100  0.43600400  1
  N  N0  1  0.70906100  0.47503000  0.30545300  1
  N  N1  1  0.20906100  0.02497000  0.69454700  1
  N  N2  1  0.29093900  0.97503000  0.19454700  1
  N  N3  1  0.79093900  0.52497000  0.80545300  1
  N  N4  1  0.29093900  0.52497000  0.69454700  1
  N  N5  1  0.79093900  0.97503000  0.30545300  1
  N  N6  1  0.70906100  0.02497000  0.80545300  1
  N  N7  1  0.20906100  0.47503000  0.19454700  1
  N  N8  1  0.67374100  0.28942500  0.44579500  1
  N  N9  1  0.17374100  0.21057500  0.55420500  1
  N  N10  1  0.32625900  0.78942500  0.05420500  1
  N  N11  1  0.82625900  0.71057500  0.94579500  1
  N  N12  1  0.32625900  0.71057500  0.55420500  1
  N  N13  1  0.82625900  0.78942500  0.44579500  1
  N  N14  1  0.67374100  0.21057500  0.94579500  1
  N  N15  1  0.17374100  0.28942500  0.05420500  1
  N  N16  1  0.70743600  0.46410400  0.06938800  1
  N  N17  1  0.20743600  0.03589600  0.93061200  1
  N  N18  1  0.29256400  0.96410400  0.43061200  1
  N  N19  1  0.79256400  0.53589600  0.56938800  1
  N  N20  1  0.29256400  0.53589600  0.93061200  1
  N  N21  1  0.79256400  0.96410400  0.06938800  1
  N  N22  1  0.70743600  0.03589600  0.56938800  1
  N  N23  1  0.20743600  0.46410400  0.43061200  1
  N  N24  1  0.65234000  0.21505400  0.18157900  1
  N  N25  1  0.15234000  0.28494600  0.81842100  1
  N  N26  1  0.34766000  0.71505400  0.31842100  1
  N  N27  1  0.84766000  0.78494600  0.68157900  1
  N  N28  1  0.34766000  0.78494600  0.81842100  1
  N  N29  1  0.84766000  0.71505400  0.18157900  1
  N  N30  1  0.65234000  0.28494600  0.68157900  1
  N  N31  1  0.15234000  0.21505400  0.31842100  1
loop_
_geom_bond_atom_site_label_1
_geom_bond_atom_site_label_2
_geom_bond_distance
_geom_bond_site_symmetry_2
Mn0 N22 1.898123 1_565
Mn0 N5 1.901013 1_555
Mn0 N18 1.906024 1_555
Mn0 N13 1.942005 1_555
Mn1 N23 1.898123 1_555
Mn1 N4 1.901013 1_555
Mn1 N19 1.906024 1_455
Mn1 N12 1.942005 1_555
Mn2 N20 1.898123 1_554
Mn2 N7 1.901013 1_555
Mn2 N16 1.906024 1_555
Mn2 N15 1.942005 1_555
Mn3 N21 1.898123 1_546
Mn3 N6 1.901013 1_555
Mn3 N17 1.906024 1_655
Mn3 N14 1.942005 1_555
Mn4 N18 1.898123 1_545
Mn4 N1 1.901013 1_555
Mn4 N22 1.906024 1_555
Mn4 N9 1.942005 1_555
Mn5 N19 1.898123 1_555
Mn5 N0 1.901013 1_555
Mn5 N23 1.906024 1_655
Mn5 N8 1.942005 1_555
Mn6 N16 1.898123 1_556
Mn6 N3 1.901013 1_555
Mn6 N20 1.906024 1_555
Mn6 N11 1.942005 1_555
Mn7 N17 1.898123 1_564
Mn7 N2 1.901013 1_555
Mn7 N21 1.906024 1_455
Mn7 N10 1.942005 1_555
Mn8 N8 1.934651 1_555
Mn8 N31 1.975211 1_655
Mn8 N0 1.989803 1_555
Mn8 N24 1.996901 1_555
Mn9 N9 1.934651 1_555
Mn9 N30 1.975211 1_555
Mn9 N1 1.989803 1_555
Mn9 N25 1.996901 1_555
Mn10 N10 1.934651 1_555
Mn10 N29 1.975211 1_455
Mn10 N2 1.989803 1_555
Mn10 N26 1.996901 1_555
Mn11 N11 1.934651 1_555
Mn11 N28 1.975211 1_555
Mn11 N3 1.989803 1_555
Mn11 N27 1.996901 1_555
Mn12 N12 1.934651 1_555
Mn12 N27 1.975211 1_455
Mn12 N4 1.989803 1_555
Mn12 N28 1.996901 1_555
Mn13 N13 1.934651 1_555
Mn13 N26 1.975211 1_555
Mn13 N5 1.989803 1_555
Mn13 N29 1.996901 1_555
Mn14 N14 1.934651 1_555
Mn14 N25 1.975211 1_655
Mn14 N6 1.989803 1_555
Mn14 N30 1.996901 1_555
Mn15 N15 1.934651 1_555
Mn15 N24 1.975211 1_555
Mn15 N7 1.989803 1_555
Mn15 N31 1.996901 1_555
Al0 N24 1.878099 1_555
Al0 N5 1.889214 1_545
Al0 N2 1.889733 1_545
Al0 N21 1.894382 1_545
Al1 N25 1.878099 1_555
Al1 N4 1.889214 1_555
Al1 N3 1.889733 1_455
Al1 N20 1.894382 1_555
Al2 N26 1.878099 1_555
Al2 N7 1.889214 1_555
Al2 N0 1.889733 1_555
Al2 N23 1.894382 1_555
Al3 N27 1.878099 1_555
Al3 N6 1.889214 1_565
Al3 N1 1.889733 1_665
Al3 N22 1.894382 1_565
Al4 N28 1.878099 1_555
Al4 N1 1.889214 1_565
Al4 N6 1.889733 1_565
Al4 N17 1.894382 1_565
Al5 N29 1.878099 1_555
Al5 N0 1.889214 1_555
Al5 N7 1.889733 1_655
Al5 N16 1.894382 1_555
Al6 N30 1.878099 1_555
Al6 N3 1.889214 1_555
Al6 N4 1.889733 1_555
Al6 N19 1.894382 1_555
Al7 N31 1.878099 1_555
Al7 N2 1.889214 1_545
Al7 N5 1.889733 1_445
Al7 N18 1.894382 1_545
Al8 N14 1.885714 1_554
Al8 N15 1.901653 1_655
Al8 N24 1.902635 1_555
Al8 N16 1.913380 1_555
Al9 N15 1.885714 1_556
Al9 N14 1.901653 1_555
Al9 N25 1.902635 1_555
Al9 N17 1.913380 1_555
Al10 N12 1.885714 1_555
Al10 N13 1.901653 1_455
Al10 N26 1.902635 1_555
Al10 N18 1.913380 1_555
Al11 N13 1.885714 1_555
Al11 N12 1.901653 1_555
Al11 N27 1.902635 1_555
Al11 N19 1.913380 1_555
Al12 N10 1.885714 1_556
Al12 N11 1.901653 1_455
Al12 N28 1.902635 1_555
Al12 N20 1.913380 1_555
Al13 N11 1.885714 1_554
Al13 N10 1.901653 1_555
Al13 N29 1.902635 1_555
Al13 N21 1.913380 1_555
Al14 N8 1.885714 1_555
Al14 N9 1.901653 1_655
Al14 N30 1.902635 1_555
Al14 N22 1.913380 1_555
Al15 N9 1.885714 1_555
Al15 N8 1.901653 1_555
Al15 N31 1.902635 1_555
Al15 N23 1.913380 1_555
