# generated using pymatgen
data_SrCu2PbS4
_symmetry_space_group_name_H-M   'P 1'
_cell_length_a   6.43676500
_cell_length_b   6.43676524
_cell_length_c   15.73015700
_cell_angle_alpha   90.00000000
_cell_angle_beta   90.00000000
_cell_angle_gamma   120.00000389
_symmetry_Int_Tables_number   1
_chemical_formula_structural   SrCu2PbS4
_chemical_formula_sum   'Sr3 Cu6 Pb3 S12'
_cell_volume   564.41558313
_cell_formula_units_Z   3
loop_
 _symmetry_equiv_pos_site_id
 _symmetry_equiv_pos_as_xyz
  1  'x, y, z'
loop_
 _atom_site_type_symbol
 _atom_site_label
 _atom_site_symmetry_multiplicity
 _atom_site_fract_x
 _atom_site_fract_y
 _atom_site_fract_z
 _atom_site_occupancy
  Sr  Sr0  1  0.00000000  0.56718400  0.83333300  1
  Sr  Sr1  1  0.56718400  0.00000000  0.16666700  1
  Sr  Sr2  1  0.43281600  0.43281600  0.50000000  1
  Cu  Cu0  1  0.92693000  0.55532600  0.07878700  1
  Cu  Cu1  1  0.37160500  0.44467400  0.25454700  1
  Cu  Cu2  1  0.07307000  0.62839500  0.58788000  1
  Cu  Cu3  1  0.62839500  0.07307000  0.41212000  1
  Cu  Cu4  1  0.44467400  0.37160500  0.74545300  1
  Cu  Cu5  1  0.55532600  0.92693000  0.92121300  1
  Pb  Pb0  1  0.70307200  0.00000000  0.66666700  1
  Pb  Pb1  1  0.00000000  0.70307200  0.33333300  1
  Pb  Pb2  1  0.29692800  0.29692800  0.00000000  1
  S  S0  1  0.62917800  0.76404500  0.34191100  1
  S  S1  1  0.23595500  0.86513300  0.00857800  1
  S  S2  1  0.13486700  0.37082200  0.67524500  1
  S  S3  1  0.86513300  0.23595500  0.99142200  1
  S  S4  1  0.37082200  0.13486700  0.32475500  1
  S  S5  1  0.76404500  0.62917800  0.65808900  1
  S  S6  1  0.94789900  0.42029800  0.45890500  1
  S  S7  1  0.57970200  0.52760100  0.12557200  1
  S  S8  1  0.42029800  0.94789900  0.54109500  1
  S  S9  1  0.52760100  0.57970200  0.87442800  1
  S  S10  1  0.05210100  0.47239900  0.20776200  1
  S  S11  1  0.47239900  0.05210100  0.79223800  1
loop_
_geom_bond_atom_site_label_1
_geom_bond_atom_site_label_2
_geom_bond_distance
_geom_bond_site_symmetry_2
Cu0 S7 2.273747 1_555
Cu0 S1 2.277353 1_655
Cu0 S3 2.335613 1_554
Cu0 S10 2.340973 1_655
Cu1 S10 2.273753 1_555
Cu1 S4 2.277343 1_555
Cu1 S0 2.335602 1_555
Cu1 S7 2.340970 1_555
Cu2 S8 2.273749 1_555
Cu2 S5 2.277356 1_455
Cu2 S2 2.335608 1_555
Cu2 S6 2.340970 1_455
Cu3 S6 2.273749 1_555
Cu3 S0 2.277356 1_545
Cu3 S4 2.335608 1_555
Cu3 S8 2.340970 1_545
Cu4 S11 2.273753 1_555
Cu4 S2 2.277343 1_555
Cu4 S5 2.335602 1_555
Cu4 S9 2.340970 1_555
Cu5 S9 2.273747 1_555
Cu5 S3 2.277353 1_565
Cu5 S1 2.335613 1_556
Cu5 S11 2.340973 1_565
Pb0 S11 2.591645 1_555
Pb0 S8 2.591657 1_545
Pb0 S2 2.608885 1_655
Pb0 S5 2.608886 1_545
Pb1 S10 2.591645 1_555
Pb1 S6 2.591657 1_455
Pb1 S4 2.608885 1_565
Pb1 S0 2.608886 1_455
Pb2 S7 2.591657 1_555
Pb2 S9 2.591657 1_554
Pb2 S3 2.608886 1_454
Pb2 S1 2.608886 1_545
S0 Sr2 3.103607 1_555
S0 Sr1 3.266640 1_565
S1 Sr1 3.103607 1_565
S1 Sr0 3.266653 1_554
S2 Sr0 3.103594 1_555
S2 Sr2 3.266653 1_555
S3 Sr0 3.103607 1_655
S3 Sr1 3.266653 1_556
S4 Sr1 3.103594 1_555
S4 Sr2 3.266653 1_555
S5 Sr2 3.103607 1_555
S5 Sr0 3.266640 1_655
S6 Sr2 3.148866 1_655
S6 Sr2 3.418163 1_555
S7 Sr1 3.148866 1_565
S7 Sr1 3.418163 1_555
S8 Sr2 3.148866 1_565
S8 Sr2 3.418163 1_555
S9 Sr0 3.148866 1_655
S9 Sr0 3.418163 1_555
S10 Sr1 3.148866 1_455
S10 Sr1 3.418163 1_565
S11 Sr0 3.148866 1_545
S11 Sr0 3.418163 1_655
