# generated using pymatgen
data_NbH2N2OF5
_symmetry_space_group_name_H-M   'P 1'
_cell_length_a   8.50425374
_cell_length_b   8.50425374
_cell_length_c   7.65510297
_cell_angle_alpha   88.97972360
_cell_angle_beta   88.97972360
_cell_angle_gamma   39.59688908
_symmetry_Int_Tables_number   1
_chemical_formula_structural   NbH2N2OF5
_chemical_formula_sum   'Nb2 H4 N4 O2 F10'
_cell_volume   352.81380445
_cell_formula_units_Z   2
loop_
 _symmetry_equiv_pos_site_id
 _symmetry_equiv_pos_as_xyz
  1  'x, y, z'
loop_
 _atom_site_type_symbol
 _atom_site_label
 _atom_site_symmetry_multiplicity
 _atom_site_fract_x
 _atom_site_fract_y
 _atom_site_fract_z
 _atom_site_occupancy
  Nb  Nb0  1  0.89612000  0.83638000  0.24793100  1
  Nb  Nb1  1  0.16362000  0.10388000  0.75206900  1
  H  H0  1  0.13274300  0.18208200  0.25864900  1
  H  H1  1  0.81791800  0.86725700  0.74135100  1
  H  H2  1  0.46576800  0.72385900  0.26632200  1
  H  H3  1  0.27614100  0.53423200  0.73367800  1
  N  N0  1  0.20815400  0.23502700  0.22911100  1
  N  N1  1  0.76497300  0.79184600  0.77088900  1
  N  N2  1  0.38044400  0.67732300  0.26562700  1
  N  N3  1  0.32267700  0.61955600  0.73437300  1
  O  O0  1  0.15697500  0.87090900  0.26436600  1
  O  O1  1  0.12909100  0.84302500  0.73563400  1
  F  F0  1  0.72725000  0.77470500  0.22818000  1
  F  F1  1  0.22529500  0.27275000  0.77182000  1
  F  F2  1  0.71536900  0.07848600  0.42810900  1
  F  F3  1  0.92151400  0.28463100  0.57189100  1
  F  F4  1  0.73220900  0.10119600  0.08979100  1
  F  F5  1  0.89880400  0.26779100  0.91020900  1
  F  F6  1  0.13899600  0.62264500  0.06882900  1
  F  F7  1  0.37735500  0.86100400  0.93117100  1
  F  F8  1  0.12719000  0.60608800  0.42817400  1
  F  F9  1  0.39391200  0.87281000  0.57182600  1
loop_
_geom_bond_atom_site_label_1
_geom_bond_atom_site_label_2
_geom_bond_distance
_geom_bond_site_symmetry_2
H0 N0 1.049455 1_555
H1 N1 1.049455 1_555
H2 N2 1.061099 1_555
H3 N3 1.061099 1_555
N2 O0 1.224964 1_555
N3 O1 1.224964 1_555
F0 Nb0 1.879297 1_555
F1 Nb1 1.879297 1_555
F2 Nb0 1.911199 1_545
F3 Nb1 1.911199 1_655
F4 Nb0 1.898812 1_545
F5 Nb1 1.898812 1_655
F6 Nb0 1.911009 1_455
F7 Nb1 1.911009 1_565
F8 Nb0 1.915794 1_455
F9 Nb1 1.915794 1_565
