# generated using pymatgen
data_TbV2O2
_symmetry_space_group_name_H-M   'P 1'
_cell_length_a   7.70735303
_cell_length_b   7.70735303
_cell_length_c   7.70735303
_cell_angle_alpha   114.35799369
_cell_angle_beta   114.35799369
_cell_angle_gamma   100.08603104
_symmetry_Int_Tables_number   1
_chemical_formula_structural   TbV2O2
_chemical_formula_sum   'Tb4 V8 O8'
_cell_volume   345.52468052
_cell_formula_units_Z   4
loop_
 _symmetry_equiv_pos_site_id
 _symmetry_equiv_pos_as_xyz
  1  'x, y, z'
loop_
 _atom_site_type_symbol
 _atom_site_label
 _atom_site_symmetry_multiplicity
 _atom_site_fract_x
 _atom_site_fract_y
 _atom_site_fract_z
 _atom_site_occupancy
  Tb  Tb0  1  0.87500000  0.12500000  0.25000000  1
  Tb  Tb1  1  0.87500000  0.62500000  0.75000000  1
  Tb  Tb2  1  0.37500000  0.12500000  0.25000000  1
  Tb  Tb3  1  0.87500000  0.12500000  0.75000000  1
  V  V0  1  0.51016900  0.30344600  0.79327700  1
  V  V1  1  0.51016900  0.71689200  0.20672300  1
  V  V2  1  0.46689200  0.76016900  0.70672300  1
  V  V3  1  0.23983100  0.53310800  0.29327700  1
  V  V4  1  0.23983100  0.94655400  0.70672300  1
  V  V5  1  0.05344600  0.76016900  0.29327700  1
  V  V6  1  0.28310800  0.48983100  0.79327700  1
  V  V7  1  0.69655400  0.48983100  0.20672300  1
  O  O0  1  0.65171700  0.30901700  0.65730000  1
  O  O1  1  0.65171700  0.99441700  0.34270000  1
  O  O2  1  0.74441700  0.90171700  0.84270000  1
  O  O3  1  0.09828300  0.25558300  0.15730000  1
  O  O4  1  0.09828300  0.94098300  0.84270000  1
  O  O5  1  0.05901700  0.90171700  0.15730000  1
  O  O6  1  0.00558300  0.34828300  0.65730000  1
  O  O7  1  0.69098300  0.34828300  0.34270000  1
loop_
_geom_bond_atom_site_label_1
_geom_bond_atom_site_label_2
_geom_bond_distance
_geom_bond_site_symmetry_2
O0 V0 1.803946 1_555
O0 Tb1 2.342158 1_555
O0 Tb2 2.481953 1_555
O0 Tb3 2.481953 1_555
O1 V1 1.803946 1_555
O1 Tb0 2.342158 1_565
O1 Tb2 2.481953 1_565
O1 Tb3 2.481953 1_565
O2 V2 1.803946 1_555
O2 Tb3 2.342158 1_565
O2 Tb1 2.481953 1_555
O2 Tb0 2.481953 1_566
O3 V3 1.803946 1_555
O3 Tb0 2.342158 1_455
O3 Tb3 2.481953 1_454
O3 Tb2 2.481953 1_555
O4 V4 1.803946 1_555
O4 Tb1 2.342158 1_455
O4 Tb3 2.481953 1_465
O4 Tb2 2.481953 1_566
O5 V5 1.803946 1_555
O5 Tb2 2.342158 1_565
O5 Tb1 2.481953 1_454
O5 Tb0 2.481953 1_465
O6 V6 1.803946 1_555
O6 Tb3 2.342158 1_455
O6 Tb0 2.481953 1_455
O6 Tb1 2.481953 1_455
O7 V7 1.803946 1_555
O7 Tb2 2.342158 1_555
O7 Tb0 2.481953 1_555
O7 Tb1 2.481953 1_555
