# generated using pymatgen
data_Co3Ge2
_symmetry_space_group_name_H-M   'P 1'
_cell_length_a   3.90240083
_cell_length_b   3.90240083
_cell_length_c   4.84032033
_cell_angle_alpha   90.00000000
_cell_angle_beta   90.00000000
_cell_angle_gamma   119.99999074
_symmetry_Int_Tables_number   1
_chemical_formula_structural   Co3Ge2
_chemical_formula_sum   'Co3 Ge2'
_cell_volume   63.83642063
_cell_formula_units_Z   1
loop_
 _symmetry_equiv_pos_site_id
 _symmetry_equiv_pos_as_xyz
  1  'x, y, z'
loop_
 _atom_site_type_symbol
 _atom_site_label
 _atom_site_symmetry_multiplicity
 _atom_site_fract_x
 _atom_site_fract_y
 _atom_site_fract_z
 _atom_site_occupancy
  Co  Co0  1  0.00000000  0.00000000  0.24227079  1
  Co  Co1  1  0.00000000  -0.00000000  0.75773021  1
  Co  Co2  1  0.33333300  0.66666700  0.49999900  1
  Ge  Ge0  1  0.33333300  0.66666700  0.00000100  1
  Ge  Ge1  1  0.66666700  0.33333300  0.49999900  1
loop_
_geom_bond_atom_site_label_1
_geom_bond_atom_site_label_2
_geom_bond_distance
_geom_bond_site_symmetry_2
Co0 Co1 2.345332 1_554
Co0 Co1 2.494989 1_555
Co0 Ge0 2.539955 1_545
Co0 Ge0 2.539959 1_555
Co0 Ge0 2.539959 1_445
Co0 Co2 2.575356 1_545
Co0 Ge1 2.575356 1_455
Co0 Co2 2.575359 1_445
Co0 Co2 2.575359 1_555
Co0 Ge1 2.575359 1_555
Co0 Ge1 2.575359 1_445
Co1 Ge0 2.539958 1_546
Co1 Ge0 2.539961 1_446
Co1 Ge0 2.539961 1_556
Co1 Ge1 2.575363 1_455
Co1 Co2 2.575363 1_545
Co1 Co2 2.575366 1_555
Co1 Co2 2.575366 1_445
Co1 Ge1 2.575366 1_445
Co1 Ge1 2.575366 1_555
Co2 Ge1 2.253050 1_455
Co2 Ge1 2.253050 1_565
Co2 Ge1 2.253057 1_555
Co2 Ge0 2.420150 1_555
Co2 Ge0 2.420170 1_556
