# generated using pymatgen
data_CuH8N2(OF2)2
_symmetry_space_group_name_H-M   'P 1'
_cell_length_a   6.01538100
_cell_length_b   5.87214600
_cell_length_c   7.93868447
_cell_angle_alpha   85.26833134
_cell_angle_beta   90.00000000
_cell_angle_gamma   90.00000000
_symmetry_Int_Tables_number   1
_chemical_formula_structural   CuH8N2(OF2)2
_chemical_formula_sum   'Cu2 H16 N4 O4 F8'
_cell_volume   279.46401771
_cell_formula_units_Z   2
loop_
 _symmetry_equiv_pos_site_id
 _symmetry_equiv_pos_as_xyz
  1  'x, y, z'
loop_
 _atom_site_type_symbol
 _atom_site_label
 _atom_site_symmetry_multiplicity
 _atom_site_fract_x
 _atom_site_fract_y
 _atom_site_fract_z
 _atom_site_occupancy
  Cu  Cu0  1  0.50000000  0.50000000  0.00000000  1
  Cu  Cu1  1  0.00000000  0.00000000  0.00000000  1
  H  H0  1  0.66803700  0.97943500  0.26006800  1
  H  H1  1  0.16803700  0.52056500  0.73993200  1
  H  H2  1  0.33196300  0.02056500  0.73993200  1
  H  H3  1  0.83196300  0.47943500  0.26006800  1
  H  H4  1  0.40688500  0.95740200  0.16735800  1
  H  H5  1  0.90688500  0.54259800  0.83264200  1
  H  H6  1  0.59311500  0.04259800  0.83264200  1
  H  H7  1  0.09311500  0.45740200  0.16735800  1
  H  H8  1  0.45524300  0.13893800  0.32236300  1
  H  H9  1  0.95524300  0.36106200  0.67763700  1
  H  H10  1  0.54475700  0.86106200  0.67763700  1
  H  H11  1  0.04475700  0.63893700  0.32236300  1
  H  H12  1  0.47046800  0.66447400  0.35241500  1
  H  H13  1  0.97046800  0.83552600  0.64758500  1
  H  H14  1  0.52953200  0.33552600  0.64758500  1
  H  H15  1  0.02953200  0.16447400  0.35241500  1
  N  N0  1  0.49522800  0.98320800  0.27866500  1
  N  N1  1  0.99522800  0.51679200  0.72133500  1
  N  N2  1  0.50477200  0.01679200  0.72133500  1
  N  N3  1  0.00477200  0.48320800  0.27866500  1
  O  O0  1  0.43060100  0.81013800  0.40560600  1
  O  O1  1  0.93060100  0.68986200  0.59439400  1
  O  O2  1  0.56939900  0.18986200  0.59439400  1
  O  O3  1  0.06939900  0.31013800  0.40560600  1
  F  F0  1  0.26401300  0.81642600  0.02753200  1
  F  F1  1  0.76401300  0.68357400  0.97246800  1
  F  F2  1  0.73598700  0.18357400  0.97246800  1
  F  F3  1  0.23598700  0.31642600  0.02753200  1
  F  F4  1  0.54875400  0.46886500  0.24741300  1
  F  F5  1  0.04875400  0.03113500  0.75258700  1
  F  F6  1  0.45124600  0.53113500  0.75258700  1
  F  F7  1  0.95124600  0.96886500  0.24741300  1
loop_
_geom_bond_atom_site_label_1
_geom_bond_atom_site_label_2
_geom_bond_distance
_geom_bond_site_symmetry_2
Cu0 F3 1.921747 1_555
Cu0 F1 1.921747 1_554
Cu0 F4 1.979397 1_555
Cu0 F6 1.979397 1_554
Cu0 F0 2.362718 1_555
Cu0 F2 2.362718 1_554
Cu1 F0 1.921747 1_545
Cu1 F2 1.921747 1_454
Cu1 F7 1.979397 1_445
Cu1 F5 1.979397 1_554
Cu1 F3 2.362718 1_555
Cu1 F1 2.362718 1_444
H0 N0 1.050434 1_555
H1 N1 1.050434 1_455
H2 N2 1.050434 1_555
H3 N3 1.050434 1_655
H4 N0 1.052740 1_555
H5 N1 1.052740 1_555
H6 N2 1.052740 1_555
H7 N3 1.052740 1_555
H8 N0 1.032853 1_545
H9 N1 1.032853 1_555
H10 N2 1.032853 1_565
H11 N3 1.032848 1_555
H12 O0 1.013435 1_555
H13 O1 1.013435 1_555
H14 O2 1.013435 1_555
H15 O3 1.013435 1_555
N0 O0 1.424979 1_555
N1 O1 1.424979 1_555
N2 O2 1.424979 1_555
N3 O3 1.424979 1_555
F0 H4 1.675620 1_555
F1 H5 1.675620 1_555
F2 H6 1.675620 1_555
F3 H7 1.675620 1_555
F4 H12 1.547245 1_555
F5 H13 1.547245 1_445
F6 H14 1.547245 1_555
F7 H15 1.547245 1_665
