# generated using pymatgen
data_LiPr2Ta2Cl2O7
_symmetry_space_group_name_H-M   'P 1'
_cell_length_a   4.04252398
_cell_length_b   6.81282013
_cell_length_c   9.48802554
_cell_angle_alpha   117.63554132
_cell_angle_beta   102.30003114
_cell_angle_gamma   90.00582042
_symmetry_Int_Tables_number   1
_chemical_formula_structural   LiPr2Ta2Cl2O7
_chemical_formula_sum   'Li1 Pr2 Ta2 Cl2 O7'
_cell_volume   224.70270074
_cell_formula_units_Z   1
loop_
 _symmetry_equiv_pos_site_id
 _symmetry_equiv_pos_as_xyz
  1  'x, y, z'
loop_
 _atom_site_type_symbol
 _atom_site_label
 _atom_site_symmetry_multiplicity
 _atom_site_fract_x
 _atom_site_fract_y
 _atom_site_fract_z
 _atom_site_occupancy
  Li  Li0  1  0.43456600  0.77707800  0.87010300  1
  Pr  Pr0  1  0.28497600  0.90210000  0.57043200  1
  Pr  Pr1  1  0.66242400  0.18892800  0.32518200  1
  Ta  Ta0  1  0.96868000  0.15363100  0.93812100  1
  Ta  Ta1  1  0.04587000  0.78954400  0.09244400  1
  Cl  Cl0  1  0.67182000  0.60803400  0.34420500  1
  Cl  Cl1  1  0.29701400  0.47484500  0.59420600  1
  O  O0  1  0.45207700  0.10636500  0.90474600  1
  O  O1  1  0.54746300  0.80746200  0.09565000  1
  O  O2  1  0.94480700  0.80670800  0.89031900  1
  O  O3  1  0.00822500  0.46856400  0.01718400  1
  O  O4  1  0.84702100  0.04735600  0.69437700  1
  O  O5  1  0.07944400  0.16497100  0.15946700  1
  O  O6  1  0.17228000  0.97293200  0.34523200  1
loop_
_geom_bond_atom_site_label_1
_geom_bond_atom_site_label_2
_geom_bond_distance
_geom_bond_site_symmetry_2
Li0 O1 2.000908 1_556
Li0 O2 2.030605 1_455
Li0 O2 2.031635 1_555
Li0 O0 2.109920 1_565
Cl0 Pr1 2.775912 1_555
Cl0 Pr0 2.916805 1_655
Cl0 Pr0 2.916843 1_555
Cl1 Li0 2.404303 1_555
Cl1 Pr0 3.021677 1_555
Cl1 Pr1 3.079969 1_555
Cl1 Pr1 3.080130 1_455
O0 Ta0 2.046657 1_555
O0 Ta0 2.047395 1_455
O0 Pr0 2.728782 1_545
O1 Ta1 2.024260 1_555
O1 Ta1 2.024365 1_655
O1 Pr1 2.455782 1_565
O2 Ta1 1.932006 1_656
O2 Ta0 2.188176 1_565
O3 Ta0 1.909846 1_454
O3 Ta1 1.954505 1_555
O4 Ta0 2.019015 1_555
O4 Pr0 2.303163 1_645
O4 Pr0 2.303505 1_545
O5 Ta0 2.016397 1_454
O5 Ta1 2.327874 1_545
O5 Pr1 2.496412 1_455
O5 Pr1 2.497192 1_555
O6 Ta1 2.066992 1_555
O6 Pr0 2.355370 1_555
O6 Pr1 2.557936 1_465
O6 Pr1 2.558779 1_565
