# generated using pymatgen
data_Y10Ga3Co7
_symmetry_space_group_name_H-M   'P 1'
_cell_length_a   3.94517400
_cell_length_b   9.55006100
_cell_length_c   23.07978100
_cell_angle_alpha   90.00000000
_cell_angle_beta   90.00000000
_cell_angle_gamma   90.00000000
_symmetry_Int_Tables_number   1
_chemical_formula_structural   Y10Ga3Co7
_chemical_formula_sum   'Y20 Ga6 Co14'
_cell_volume   869.56888518
_cell_formula_units_Z   2
loop_
 _symmetry_equiv_pos_site_id
 _symmetry_equiv_pos_as_xyz
  1  'x, y, z'
loop_
 _atom_site_type_symbol
 _atom_site_label
 _atom_site_symmetry_multiplicity
 _atom_site_fract_x
 _atom_site_fract_y
 _atom_site_fract_z
 _atom_site_occupancy
  Y  Y0  1  0.00000000  0.48905600  0.69314800  1
  Y  Y1  1  0.00000000  0.51094400  0.19314800  1
  Y  Y2  1  0.50000000  0.00308900  0.30307700  1
  Y  Y3  1  0.50000000  0.99691100  0.80307700  1
  Y  Y4  1  0.00000000  0.87050600  0.68280800  1
  Y  Y5  1  0.00000000  0.12949400  0.18280800  1
  Y  Y6  1  0.50000000  0.63191600  0.31141500  1
  Y  Y7  1  0.50000000  0.36808400  0.81141500  1
  Y  Y8  1  0.00000000  0.65945100  0.55479300  1
  Y  Y9  1  0.00000000  0.34054900  0.05479300  1
  Y  Y10  1  0.50000000  0.84042900  0.44324800  1
  Y  Y11  1  0.50000000  0.15957100  0.94324800  1
  Y  Y12  1  0.00000000  0.10396500  0.51972600  1
  Y  Y13  1  0.00000000  0.89603500  0.01972600  1
  Y  Y14  1  0.50000000  0.39967700  0.47951600  1
  Y  Y15  1  0.50000000  0.60032300  0.97951600  1
  Y  Y16  1  0.00000000  0.69727300  0.85444200  1
  Y  Y17  1  0.00000000  0.30272700  0.35444200  1
  Y  Y18  1  0.50000000  0.80925000  0.15791700  1
  Y  Y19  1  0.50000000  0.19075000  0.65791700  1
  Ga  Ga0  1  0.50000000  0.31417200  0.25433900  1
  Ga  Ga1  1  0.50000000  0.68582800  0.75433900  1
  Ga  Ga2  1  0.00000000  0.40111500  0.91623400  1
  Ga  Ga3  1  0.00000000  0.59888500  0.41623400  1
  Ga  Ga4  1  0.50000000  0.09739100  0.08102000  1
  Ga  Ga5  1  0.50000000  0.90260900  0.58102000  1
  Co  Co0  1  0.00000000  0.96477600  0.89884900  1
  Co  Co1  1  0.00000000  0.03522400  0.39884900  1
  Co  Co2  1  0.50000000  0.54200600  0.10082800  1
  Co  Co3  1  0.50000000  0.45799400  0.60082800  1
  Co  Co4  1  0.00000000  0.63608400  0.07963300  1
  Co  Co5  1  0.00000000  0.36391600  0.57963300  1
  Co  Co6  1  0.50000000  0.86323700  0.92197200  1
  Co  Co7  1  0.50000000  0.13676300  0.42197200  1
  Co  Co8  1  0.00000000  0.18232900  0.85172600  1
  Co  Co9  1  0.00000000  0.81767100  0.35172600  1
  Co  Co10  1  0.50000000  0.31755100  0.14463400  1
  Co  Co11  1  0.50000000  0.68244900  0.64463400  1
  Co  Co12  1  0.00000000  0.19050100  0.75067600  1
  Co  Co13  1  0.00000000  0.80949900  0.25067600  1
loop_
_geom_bond_atom_site_label_1
_geom_bond_atom_site_label_2
_geom_bond_distance
_geom_bond_site_symmetry_2
Ga0 Y17 3.039866 1_655
Ga0 Y17 3.039866 1_555
Ga0 Y1 3.068706 1_555
Ga0 Y1 3.068706 1_655
Ga0 Y5 3.118850 1_655
Ga0 Y5 3.118850 1_555
Ga0 Y2 3.176686 1_555
Ga0 Y6 3.308069 1_555
Ga1 Y16 3.039866 1_655
Ga1 Y16 3.039866 1_555
Ga1 Y0 3.068706 1_655
Ga1 Y0 3.068706 1_555
Ga1 Y4 3.118850 1_655
Ga1 Y4 3.118850 1_555
Ga1 Y3 3.176686 1_555
Ga1 Y7 3.308069 1_555
Ga2 Y11 3.098542 1_555
Ga2 Y11 3.098542 1_455
Ga2 Y15 3.105410 1_455
Ga2 Y15 3.105410 1_555
Ga2 Y7 3.137377 1_455
Ga2 Y7 3.137377 1_555
Ga2 Y16 3.167542 1_555
Ga2 Y9 3.249799 1_556
Ga3 Y10 3.098542 1_555
Ga3 Y10 3.098542 1_455
Ga3 Y14 3.105410 1_455
Ga3 Y14 3.105410 1_555
Ga3 Y6 3.137377 1_455
Ga3 Y6 3.137377 1_555
Ga3 Y17 3.167542 1_555
Ga3 Y8 3.249799 1_555
Ga4 Y5 3.082863 1_655
Ga4 Y5 3.082863 1_555
Ga4 Y13 3.096792 1_645
Ga4 Y13 3.096792 1_545
Ga4 Y9 3.106444 1_655
Ga4 Y9 3.106444 1_555
Ga4 Y11 3.234721 1_554
Ga4 Y18 3.274446 1_545
Ga5 Y4 3.082863 1_555
Ga5 Y4 3.082863 1_655
Ga5 Y12 3.096792 1_665
Ga5 Y12 3.096792 1_565
Ga5 Y8 3.106444 1_555
Ga5 Y8 3.106444 1_655
Ga5 Y10 3.234721 1_555
Ga5 Y19 3.274446 1_565
Co0 Co6 2.261909 1_555
Co0 Co6 2.261909 1_455
Co0 Co8 2.345092 1_565
Co0 Y16 2.752593 1_555
Co0 Y13 2.866013 1_556
Co0 Y11 2.898600 1_565
Co0 Y11 2.898600 1_465
Co0 Y3 2.978445 1_455
Co0 Y3 2.978445 1_555
Co1 Co7 2.261909 1_555
Co1 Co7 2.261909 1_455
Co1 Co9 2.345092 1_545
Co1 Y17 2.752593 1_555
Co1 Y12 2.866013 1_555
Co1 Y10 2.898600 1_445
Co1 Y10 2.898600 1_545
Co1 Y2 2.978445 1_455
Co1 Y2 2.978445 1_555
Co2 Co4 2.222072 1_555
Co2 Co4 2.222072 1_655
Co2 Y15 2.854708 1_554
Co2 Y18 2.872243 1_555
Co2 Y1 2.918748 1_555
Co2 Y1 2.918748 1_655
Co2 Y9 2.953210 1_655
Co2 Y9 2.953210 1_555
Co3 Co5 2.222072 1_655
Co3 Co5 2.222072 1_555
Co3 Y14 2.854708 1_555
Co3 Y19 2.872243 1_555
Co3 Y0 2.918748 1_655
Co3 Y0 2.918748 1_555
Co3 Y8 2.953210 1_555
Co3 Y8 2.953210 1_655
Co4 Y13 2.841608 1_555
Co4 Y1 2.879607 1_555
Co4 Y9 2.880015 1_555
Co4 Y15 3.057281 1_454
Co4 Y15 3.057281 1_554
Co4 Y18 3.144904 1_555
Co4 Y18 3.144904 1_455
Co5 Y12 2.841608 1_555
Co5 Y0 2.879607 1_555
Co5 Y8 2.880015 1_555
Co5 Y14 3.057281 1_555
Co5 Y14 3.057281 1_455
Co5 Y19 3.144904 1_455
Co5 Y19 3.144904 1_555
Co6 Y15 2.840457 1_555
Co6 Y11 2.872293 1_565
Co6 Y16 2.971932 1_555
Co6 Y16 2.971932 1_655
Co6 Y13 3.013201 1_656
Co6 Y13 3.013201 1_556
Co6 Y3 3.026486 1_555
Co7 Y14 2.840457 1_555
Co7 Y10 2.872293 1_545
Co7 Y17 2.971932 1_555
Co7 Y17 2.971932 1_655
Co7 Y12 3.013201 1_655
Co7 Y12 3.013201 1_555
Co7 Y2 3.026486 1_555
Co8 Ga2 2.565598 1_555
Co8 Y7 2.811345 1_555
Co8 Y7 2.811345 1_455
Co8 Y3 2.878778 1_545
Co8 Y3 2.878778 1_445
Co8 Y11 2.898306 1_455
Co8 Y11 2.898306 1_555
Co9 Ga3 2.565598 1_555
Co9 Y6 2.811345 1_455
Co9 Y6 2.811345 1_555
Co9 Y2 2.878778 1_465
Co9 Y2 2.878778 1_565
Co9 Y10 2.898306 1_555
Co9 Y10 2.898306 1_455
Co10 Co2 2.370028 1_555
Co10 Ga0 2.532173 1_555
Co10 Ga4 2.564427 1_555
Co10 Y5 2.809413 1_655
Co10 Y5 2.809413 1_555
Co10 Y9 2.870328 1_555
Co10 Y9 2.870328 1_655
Co10 Y1 2.925048 1_555
Co10 Y1 2.925048 1_655
Co11 Co3 2.370028 1_555
Co11 Ga1 2.532173 1_555
Co11 Ga5 2.564427 1_555
Co11 Y4 2.809413 1_555
Co11 Y4 2.809413 1_655
Co11 Y8 2.870328 1_655
Co11 Y8 2.870328 1_555
Co11 Y0 2.925048 1_555
Co11 Y0 2.925048 1_655
Co12 Co8 2.333517 1_555
Co12 Y19 2.911078 1_555
Co12 Y19 2.911078 1_455
Co12 Y7 2.955070 1_555
Co12 Y7 2.955070 1_455
Co12 Y3 2.961723 1_445
Co12 Y3 2.961723 1_545
Co12 Y0 3.145206 1_555
Co12 Y4 3.434022 1_545
Co13 Co9 2.333517 1_555
Co13 Y18 2.911078 1_555
Co13 Y18 2.911078 1_455
Co13 Y6 2.955070 1_555
Co13 Y6 2.955070 1_455
Co13 Y2 2.961723 1_465
Co13 Y2 2.961723 1_565
Co13 Y1 3.145206 1_555
Co13 Y5 3.434022 1_565
