# generated using pymatgen
data_K2MnI4
_symmetry_space_group_name_H-M   'P 1'
_cell_length_a   7.96141461
_cell_length_b   8.20331145
_cell_length_c   9.69485726
_cell_angle_alpha   90.00000000
_cell_angle_beta   108.05003398
_cell_angle_gamma   90.00000000
_symmetry_Int_Tables_number   1
_chemical_formula_structural   K2MnI4
_chemical_formula_sum   'K4 Mn2 I8'
_cell_volume   602.01009958
_cell_formula_units_Z   2
loop_
 _symmetry_equiv_pos_site_id
 _symmetry_equiv_pos_as_xyz
  1  'x, y, z'
loop_
 _atom_site_type_symbol
 _atom_site_label
 _atom_site_symmetry_multiplicity
 _atom_site_fract_x
 _atom_site_fract_y
 _atom_site_fract_z
 _atom_site_occupancy
  K  K0  1  0.21733438  0.25000000  0.55229380  1
  K  K1  1  0.78266562  0.75000000  0.44770620  1
  K  K2  1  0.25878227  0.25000000  0.06643508  1
  K  K3  1  0.74121773  0.75000000  0.93356492  1
  Mn  Mn0  1  0.77295866  0.25000000  0.69944203  1
  Mn  Mn1  1  0.22704134  0.75000000  0.30055797  1
  I  I0  1  0.58874498  0.25000000  0.41533786  1
  I  I1  1  0.41125502  0.75000000  0.58466214  1
  I  I2  1  -0.00074988  0.00459307  0.23984794  1
  I  I3  1  0.00074988  0.99540693  0.76015206  1
  I  I4  1  0.00074988  0.50459307  0.76015206  1
  I  I5  1  -0.00074988  0.49540693  0.23984794  1
  I  I6  1  0.57316478  0.25000000  0.87765625  1
  I  I7  1  0.42683522  0.75000000  0.12234375  1
loop_
_geom_bond_atom_site_label_1
_geom_bond_atom_site_label_2
_geom_bond_distance
_geom_bond_site_symmetry_2
I0 Mn0 2.689625 1_555
I0 K2 3.582759 1_555
I0 K0 3.597160 1_555
I1 Mn1 2.689625 1_555
I1 K3 3.582759 1_555
I1 K1 3.597160 1_555
I2 Mn1 2.708458 1_545
I2 K0 3.603296 1_555
I2 K2 3.647095 1_555
I2 K1 3.680936 1_445
I2 K3 3.690399 1_444
I3 Mn0 2.708458 1_465
I3 K1 3.603296 1_455
I3 K3 3.647095 1_455
I3 K0 3.680936 1_565
I3 K2 3.690399 1_566
I4 Mn0 2.708458 1_455
I4 K1 3.603296 1_455
I4 K3 3.647095 1_455
I4 K0 3.680936 1_555
I4 K2 3.690399 1_556
I5 Mn1 2.708458 1_555
I5 K0 3.603296 1_555
I5 K2 3.647095 1_555
I5 K1 3.680936 1_455
I5 K3 3.690399 1_454
I6 Mn0 2.686704 1_555
I6 K0 3.526712 1_555
I6 K2 3.528872 1_556
I7 Mn1 2.686704 1_555
I7 K1 3.526712 1_555
I7 K3 3.528872 1_554
