# generated using pymatgen
data_Sr5(SiN3)2
_symmetry_space_group_name_H-M   'P 1'
_cell_length_a   6.02160698
_cell_length_b   6.02160698
_cell_length_c   13.38892990
_cell_angle_alpha   81.35501802
_cell_angle_beta   81.35501802
_cell_angle_gamma   65.17102596
_symmetry_Int_Tables_number   1
_chemical_formula_structural   Sr5(SiN3)2
_chemical_formula_sum   'Sr10 Si4 N12'
_cell_volume   433.53654800
_cell_formula_units_Z   2
loop_
 _symmetry_equiv_pos_site_id
 _symmetry_equiv_pos_as_xyz
  1  'x, y, z'
loop_
 _atom_site_type_symbol
 _atom_site_label
 _atom_site_symmetry_multiplicity
 _atom_site_fract_x
 _atom_site_fract_y
 _atom_site_fract_z
 _atom_site_occupancy
  Sr  Sr0  1  0.61373497  0.38626503  0.75000000  1
  Sr  Sr1  1  0.38626503  0.61373497  0.25000000  1
  Sr  Sr2  1  0.20533739  0.67638047  0.99523637  1
  Sr  Sr3  1  0.32361953  0.79466261  0.50476363  1
  Sr  Sr4  1  0.79466261  0.32361953  0.00476363  1
  Sr  Sr5  1  0.67638047  0.20533739  0.49523637  1
  Sr  Sr6  1  0.92128894  0.76839910  0.71443953  1
  Sr  Sr7  1  0.23160090  0.07871106  0.78556047  1
  Sr  Sr8  1  0.07871106  0.23160090  0.28556047  1
  Sr  Sr9  1  0.76839910  0.92128894  0.21443953  1
  Si  Si0  1  0.08931908  0.36002478  0.57415658  1
  Si  Si1  1  0.63997522  0.91068092  0.92584342  1
  Si  Si2  1  0.91068092  0.63997522  0.42584342  1
  Si  Si3  1  0.36002478  0.08931908  0.07415658  1
  N  N0  1  0.29167869  0.40311311  0.64367570  1
  N  N1  1  0.59688689  0.70832131  0.85632430  1
  N  N2  1  0.70832131  0.59688689  0.35632430  1
  N  N3  1  0.40311311  0.29167869  0.14367570  1
  N  N4  1  0.80553707  0.63841818  0.55825339  1
  N  N5  1  0.36158182  0.19446293  0.94174661  1
  N  N6  1  0.19446293  0.36158182  0.44174661  1
  N  N7  1  0.63841818  0.80553707  0.05825339  1
  N  N8  1  0.01392337  0.11696211  0.62539127  1
  N  N9  1  0.88303789  0.98607663  0.87460873  1
  N  N10  1  0.98607663  0.88303789  0.37460873  1
  N  N11  1  0.11696211  0.01392337  0.12539127  1
loop_
_geom_bond_atom_site_label_1
_geom_bond_atom_site_label_2
_geom_bond_distance
_geom_bond_site_symmetry_2
N0 Si0 1.759995 1_555
N0 Sr0 2.533574 1_555
N0 Sr6 2.565453 1_455
N0 Sr7 2.612822 1_555
N0 Sr5 2.783002 1_555
N0 Sr3 2.830230 1_555
N1 Si1 1.759995 1_555
N1 Sr0 2.533574 1_555
N1 Sr7 2.565453 1_565
N1 Sr6 2.612822 1_555
N1 Sr4 2.783002 1_556
N1 Sr2 2.830230 1_555
N2 Si2 1.759995 1_555
N2 Sr1 2.533574 1_555
N2 Sr8 2.565453 1_655
N2 Sr9 2.612822 1_555
N2 Sr3 2.783002 1_555
N2 Sr5 2.830230 1_555
N3 Si3 1.759995 1_555
N3 Sr1 2.533574 1_555
N3 Sr9 2.565453 1_545
N3 Sr8 2.612822 1_555
N3 Sr2 2.783002 1_554
N3 Sr4 2.830230 1_555
N4 Si2 1.790649 1_555
N4 Si0 1.836287 1_655
N4 Sr6 2.619121 1_555
N4 Sr3 2.819309 1_555
N4 Sr0 3.104807 1_555
N5 Si3 1.790649 1_556
N5 Si1 1.836287 1_545
N5 Sr7 2.619121 1_555
N5 Sr2 2.819309 1_555
N5 Sr0 3.104807 1_555
N6 Si0 1.790649 1_555
N6 Si2 1.836287 1_455
N6 Sr8 2.619121 1_555
N6 Sr5 2.819309 1_555
N6 Sr1 3.104807 1_555
N7 Si1 1.790649 1_554
N7 Si3 1.836287 1_565
N7 Sr9 2.619121 1_555
N7 Sr4 2.819309 1_555
N7 Sr1 3.104807 1_555
N8 Si0 1.726699 1_555
N8 Sr6 2.483765 1_445
N8 Sr7 2.610174 1_555
N8 Sr3 2.617263 1_545
N8 Sr5 2.707187 1_455
N8 Sr0 2.746466 1_455
N9 Si1 1.726699 1_555
N9 Sr7 2.483765 1_665
N9 Sr6 2.610174 1_555
N9 Sr2 2.617263 1_655
N9 Sr4 2.707187 1_566
N9 Sr0 2.746466 1_565
N10 Si2 1.726699 1_555
N10 Sr8 2.483765 1_665
N10 Sr9 2.610174 1_555
N10 Sr5 2.617263 1_565
N10 Sr3 2.707187 1_655
N10 Sr1 2.746466 1_655
N11 Si3 1.726699 1_555
N11 Sr9 2.483765 1_445
N11 Sr8 2.610174 1_555
N11 Sr4 2.617263 1_455
N11 Sr2 2.707187 1_544
N11 Sr1 2.746466 1_545
