# generated using pymatgen
data_V2Bi4O11
_symmetry_space_group_name_H-M   'P 1'
_cell_length_a   7.42156587
_cell_length_b   9.08043964
_cell_length_c   12.29319604
_cell_angle_alpha   94.79856578
_cell_angle_beta   90.05739918
_cell_angle_gamma   76.52085508
_symmetry_Int_Tables_number   1
_chemical_formula_structural   V2Bi4O11
_chemical_formula_sum   'V6 Bi12 O33'
_cell_volume   802.66188258
_cell_formula_units_Z   3
loop_
 _symmetry_equiv_pos_site_id
 _symmetry_equiv_pos_as_xyz
  1  'x, y, z'
loop_
 _atom_site_type_symbol
 _atom_site_label
 _atom_site_symmetry_multiplicity
 _atom_site_fract_x
 _atom_site_fract_y
 _atom_site_fract_z
 _atom_site_occupancy
  V  V0  1  0.19884700  0.97725900  0.42913000  1
  V  V1  1  0.23884000  0.99546300  0.05573200  1
  V  V2  1  0.28489400  0.00159600  0.74161700  1
  V  V3  1  0.65861700  0.98850300  0.21378200  1
  V  V4  1  0.78007200  0.98165800  0.89765900  1
  V  V5  1  0.73549000  0.00371600  0.62890600  1
  Bi  Bi0  1  0.98240000  0.30389600  0.25299400  1
  Bi  Bi1  1  0.99560700  0.32942400  0.91999200  1
  Bi  Bi2  1  0.12983200  0.29778800  0.60272300  1
  Bi  Bi3  1  0.49258200  0.65397500  0.86505100  1
  Bi  Bi4  1  0.36373200  0.68372800  0.25932300  1
  Bi  Bi5  1  0.47726200  0.69268700  0.56038000  1
  Bi  Bi6  1  0.58444300  0.25233300  0.41551100  1
  Bi  Bi7  1  0.57790600  0.25927000  0.06601500  1
  Bi  Bi8  1  0.61984300  0.40114100  0.68223700  1
  Bi  Bi9  1  0.92112000  0.69115100  0.40589800  1
  Bi  Bi10  1  0.98104800  0.67666900  0.75509400  1
  Bi  Bi11  1  0.97902400  0.68776500  0.05677500  1
  O  O0  1  0.19944100  0.98613200  0.57342100  1
  O  O1  1  0.11124600  0.20480200  0.75473300  1
  O  O2  1  0.06811900  0.16226500  0.09263600  1
  O  O3  1  0.11791500  0.16255800  0.38011600  1
  O  O4  1  0.27564100  0.01470600  0.91920100  1
  O  O5  1  0.08676200  0.84208400  0.34234700  1
  O  O6  1  0.28054900  0.46256400  0.69120900  1
  O  O7  1  0.23230200  0.50861300  0.81027200  1
  O  O8  1  0.23835100  0.48906300  0.02657900  1
  O  O9  1  0.22301600  0.58653500  0.47926700  1
  O  O10  1  0.21558300  0.49502700  0.14878500  1
  O  O11  1  0.26302100  0.52139300  0.36452700  1
  O  O12  1  0.32321300  0.78258200  0.74019900  1
  O  O13  1  0.20039000  0.82396300  0.10217300  1
  O  O14  1  0.74236600  0.01984800  0.05955000  1
  O  O15  1  0.42107400  0.82112200  0.40416400  1
  O  O16  1  0.42712800  0.01176000  0.13678500  1
  O  O17  1  0.49733100  0.05502500  0.67978700  1
  O  O18  1  0.74690800  0.21599100  0.91719400  1
  O  O19  1  0.74300700  0.18441300  0.25263400  1
  O  O20  1  0.51467400  0.05376500  0.33929700  1
  O  O21  1  0.77996400  0.11350600  0.51845100  1
  O  O22  1  0.85870900  0.56583400  0.87891700  1
  O  O23  1  0.78053300  0.49906500  0.05408600  1
  O  O24  1  0.65347200  0.56427200  0.39899200  1
  O  O25  1  0.79725100  0.42435600  0.40956100  1
  O  O26  1  0.89522400  0.46884400  0.65297900  1
  O  O27  1  0.71822100  0.43173800  0.14679300  1
  O  O28  1  0.63459000  0.86334900  0.85602700  1
  O  O29  1  0.78164000  0.80132200  0.56271200  1
  O  O30  1  0.99402200  0.82836100  0.91634100  1
  O  O31  1  0.77454400  0.80284800  0.23219000  1
  O  O32  1  0.87823800  0.98627100  0.74825300  1
loop_
_geom_bond_atom_site_label_1
_geom_bond_atom_site_label_2
_geom_bond_distance
_geom_bond_site_symmetry_2
Bi0 O3 2.198058 1_655
Bi0 O2 2.267532 1_655
Bi0 O19 2.287250 1_555
Bi0 O25 2.396141 1_555
Bi0 O27 2.466474 1_555
Bi1 O22 2.249250 1_555
Bi1 O1 2.304446 1_655
Bi1 O18 2.312811 1_555
Bi1 O23 2.464192 1_556
Bi1 O2 2.693287 1_656
Bi1 O8 2.821111 1_656
Bi2 O26 2.099231 1_455
Bi2 O1 2.131373 1_555
Bi2 O6 2.275660 1_555
Bi3 O12 2.216118 1_555
Bi3 O28 2.388990 1_555
Bi3 O7 2.639030 1_555
Bi3 O22 2.657265 1_555
Bi4 O15 2.186855 1_555
Bi4 O11 2.288815 1_555
Bi4 O5 2.390689 1_555
Bi4 O10 2.545030 1_555
Bi4 O13 2.551566 1_555
Bi5 O15 2.316963 1_555
Bi5 O24 2.431735 1_555
Bi5 O12 2.475492 1_555
Bi5 O9 2.483369 1_555
Bi5 O29 2.666605 1_555
Bi6 O20 2.132761 1_555
Bi6 O21 2.169470 1_555
Bi6 O19 2.287817 1_555
Bi6 O25 2.471675 1_555
Bi7 O18 2.174661 1_554
Bi7 O14 2.226395 1_555
Bi7 O27 2.240793 1_555
Bi7 O19 2.663363 1_555
Bi8 O26 2.304010 1_555
Bi8 O6 2.449401 1_555
Bi9 O5 2.228555 1_655
Bi9 O29 2.233190 1_555
Bi9 O9 2.425491 1_655
Bi9 O24 2.516030 1_555
Bi9 O31 2.572057 1_555
Bi9 O11 2.668596 1_655
Bi9 O25 2.787972 1_555
Bi10 O22 2.199857 1_555
Bi10 O7 2.260541 1_655
Bi10 O30 2.332488 1_555
Bi10 O26 2.388567 1_555
Bi10 O6 2.659083 1_655
Bi11 O30 2.249013 1_554
Bi11 O8 2.316883 1_655
Bi11 O13 2.317310 1_655
Bi11 O23 2.504857 1_555
Bi11 O10 2.513855 1_655
Bi11 O22 2.618334 1_554
Bi11 O31 2.633510 1_555
O0 V0 1.768928 1_555
O0 V2 2.165058 1_565
O1 V2 1.983350 1_555
O2 V1 1.759778 1_545
O3 V0 1.803526 1_545
O4 V1 1.730432 1_546
O4 V2 2.176629 1_555
O5 V0 1.895225 1_555
O6 O7 1.508055 1_555
O10 O8 1.506993 1_555
O11 O9 1.485594 1_555
O12 V2 1.940832 1_565
O13 V1 1.785714 1_555
O14 V4 1.999926 1_544
O14 V3 2.058467 1_545
O15 V0 1.913780 1_555
O16 V1 1.742516 1_545
O16 V3 1.937303 1_545
O17 V5 1.817132 1_555
O17 V2 1.928604 1_555
O18 V4 2.077608 1_545
O19 V3 2.040022 1_545
O20 V3 1.851592 1_545
O21 V5 1.824105 1_555
O23 O27 1.461467 1_555
O24 O25 1.471397 1_555
O28 V4 1.740531 1_555
O29 V5 1.901049 1_565
O30 V4 1.879901 1_555
O31 V3 1.738022 1_555
O32 V5 1.804863 1_565
O32 V4 1.983859 1_555
