# generated using pymatgen
data_Ce(FeP3)4
_symmetry_space_group_name_H-M   'P 1'
_cell_length_a   6.71298839
_cell_length_b   6.71298822
_cell_length_c   6.71298851
_cell_angle_alpha   109.47121847
_cell_angle_beta   109.47121796
_cell_angle_gamma   109.47121950
_symmetry_Int_Tables_number   1
_chemical_formula_structural   Ce(FeP3)4
_chemical_formula_sum   'Ce1 Fe4 P12'
_cell_volume   232.87658603
_cell_formula_units_Z   1
loop_
 _symmetry_equiv_pos_site_id
 _symmetry_equiv_pos_as_xyz
  1  'x, y, z'
loop_
 _atom_site_type_symbol
 _atom_site_label
 _atom_site_symmetry_multiplicity
 _atom_site_fract_x
 _atom_site_fract_y
 _atom_site_fract_z
 _atom_site_occupancy
  Ce  Ce0  1  -0.00000000  0.00000000  -0.00000000  1
  Fe  Fe0  1  0.50000000  0.00000000  -0.00000000  1
  Fe  Fe1  1  -0.00000000  0.00000000  0.50000000  1
  Fe  Fe2  1  -0.00000000  0.50000000  -0.00000000  1
  Fe  Fe3  1  0.50000000  0.50000000  0.50000000  1
  P  P0  1  0.49755608  0.84910502  0.64845105  1
  P  P1  1  0.20065497  0.84910502  0.35154895  1
  P  P2  1  0.79934503  0.15089498  0.64845105  1
  P  P3  1  0.15089498  0.35154895  0.50244392  1
  P  P4  1  0.35154895  0.50244392  0.15089498  1
  P  P5  1  0.50244392  0.15089498  0.35154895  1
  P  P6  1  0.15089498  0.64845105  0.79934503  1
  P  P7  1  0.35154895  0.20065497  0.84910502  1
  P  P8  1  0.84910502  0.64845105  0.49755608  1
  P  P9  1  0.64845105  0.79934503  0.15089498  1
  P  P10  1  0.84910502  0.35154895  0.20065497  1
  P  P11  1  0.64845105  0.49755608  0.84910502  1
loop_
_geom_bond_atom_site_label_1
_geom_bond_atom_site_label_2
_geom_bond_distance
_geom_bond_site_symmetry_2
Ce0 P11 2.965449 1_444
Ce0 P4 2.965449 1_555
Ce0 P0 2.965449 1_444
Ce0 P5 2.965449 1_555
Ce0 P8 2.965449 1_444
Ce0 P3 2.965449 1_555
Ce0 P6 2.965451 1_544
Ce0 P10 2.965451 1_455
Ce0 P7 2.965451 1_554
Ce0 P9 2.965451 1_445
Ce0 P2 2.965451 1_454
Ce0 P1 2.965451 1_545
Fe0 P6 2.228253 1_544
Fe0 P10 2.228253 1_555
Fe0 P0 2.228254 1_544
Fe0 P5 2.228254 1_555
Fe0 P7 2.228260 1_554
Fe0 P9 2.228260 1_545
Fe1 P9 2.228253 1_445
Fe1 P7 2.228253 1_555
Fe1 P8 2.228254 1_445
Fe1 P3 2.228254 1_555
Fe1 P2 2.228260 1_455
Fe1 P1 2.228260 1_545
Fe2 P2 2.228253 1_454
Fe2 P1 2.228253 1_555
Fe2 P4 2.228254 1_555
Fe2 P11 2.228254 1_454
Fe2 P10 2.228260 1_455
Fe2 P6 2.228260 1_554
Fe3 P0 2.228254 1_555
Fe3 P5 2.228254 1_555
Fe3 P3 2.228254 1_555
Fe3 P8 2.228254 1_555
Fe3 P11 2.228254 1_555
Fe3 P4 2.228254 1_555
P0 P1 2.301430 1_555
P0 P2 2.339318 1_565
P1 P5 2.339318 1_565
P2 P5 2.301430 1_555
P3 P6 2.301430 1_555
P4 P9 2.301430 1_555
P4 P7 2.339318 1_554
P6 P8 2.339318 1_455
P10 P8 2.301430 1_555
P10 P3 2.339318 1_655
P11 P7 2.301430 1_555
P11 P9 2.339318 1_556
