# generated using pymatgen
data_Ca2Si3O11
_symmetry_space_group_name_H-M   'P 1'
_cell_length_a   11.89451558
_cell_length_b   11.89451558
_cell_length_c   6.73387167
_cell_angle_alpha   83.86220911
_cell_angle_beta   83.86220911
_cell_angle_gamma   146.99934631
_symmetry_Int_Tables_number   1
_chemical_formula_structural   Ca2Si3O11
_chemical_formula_sum   'Ca4 Si6 O22'
_cell_volume   480.71806252
_cell_formula_units_Z   2
loop_
 _symmetry_equiv_pos_site_id
 _symmetry_equiv_pos_as_xyz
  1  'x, y, z'
loop_
 _atom_site_type_symbol
 _atom_site_label
 _atom_site_symmetry_multiplicity
 _atom_site_fract_x
 _atom_site_fract_y
 _atom_site_fract_z
 _atom_site_occupancy
  Ca  Ca0  1  0.37194900  0.95592000  0.56363700  1
  Ca  Ca1  1  0.95592000  0.37194900  0.56363700  1
  Ca  Ca2  1  0.47078200  0.87621100  0.07413900  1
  Ca  Ca3  1  0.87621100  0.47078200  0.07413900  1
  Si  Si0  1  0.77695800  0.46497600  0.60990700  1
  Si  Si1  1  0.46497600  0.77695800  0.60990700  1
  Si  Si2  1  0.91261400  0.77216600  0.24022400  1
  Si  Si3  1  0.77216600  0.91261400  0.24022400  1
  Si  Si4  1  0.36395900  0.04862500  0.02661300  1
  Si  Si5  1  0.04862500  0.36395900  0.02661300  1
  O  O0  1  0.82010300  0.63072200  0.48510500  1
  O  O1  1  0.63072200  0.82010300  0.48510500  1
  O  O2  1  0.54295700  0.27516500  0.81477900  1
  O  O3  1  0.27516500  0.54295700  0.81477900  1
  O  O4  1  0.74729900  0.34637500  0.46109400  1
  O  O5  1  0.34637500  0.74729900  0.46109400  1
  O  O6  1  0.97663800  0.59378900  0.69129900  1
  O  O7  1  0.59378900  0.97663800  0.69129900  1
  O  O8  1  0.85909800  0.85909800  0.24587200  1
  O  O9  1  0.79560600  0.60108900  0.11178600  1
  O  O10  1  0.60108900  0.79560600  0.11178600  1
  O  O11  1  0.26853100  0.07191700  0.57064000  1
  O  O12  1  0.07191700  0.26853100  0.57064000  1
  O  O13  1  0.18071000  0.98646600  0.14036900  1
  O  O14  1  0.98646600  0.18071000  0.14036900  1
  O  O15  1  0.48629700  0.09651000  0.18474400  1
  O  O16  1  0.09651000  0.48629700  0.18474400  1
  O  O17  1  0.25920900  0.85699400  0.94884900  1
  O  O18  1  0.85699400  0.25920900  0.94884900  1
  O  O19  1  0.70512800  0.70512800  0.81881000  1
  O  O20  1  0.49907000  0.49907000  0.90610500  1
  O  O21  1  0.41136700  0.41136700  0.10964200  1
loop_
_geom_bond_atom_site_label_1
_geom_bond_atom_site_label_2
_geom_bond_distance
_geom_bond_site_symmetry_2
Ca0 O15 2.384663 1_565
Ca0 O6 2.402867 1_455
Ca0 O4 2.419632 1_565
Ca0 O17 2.422454 1_555
Ca0 O5 2.423249 1_555
Ca0 O11 2.503464 1_565
Ca0 O7 2.683664 1_555
Ca1 O16 2.384663 1_655
Ca1 O7 2.402867 1_545
Ca1 O5 2.419632 1_655
Ca1 O18 2.422454 1_555
Ca1 O4 2.423249 1_555
Ca1 O12 2.503464 1_655
Ca1 O6 2.683664 1_555
Ca2 O16 2.409095 1_555
Ca2 O18 2.411488 1_564
Ca2 O7 2.411854 1_554
Ca2 O5 2.417808 1_555
Ca2 O10 2.431127 1_555
Ca2 O17 2.574400 1_554
Ca2 O15 2.662826 1_565
Ca3 O15 2.409095 1_555
Ca3 O17 2.411488 1_654
Ca3 O6 2.411854 1_554
Ca3 O4 2.417808 1_555
Ca3 O9 2.431127 1_555
Ca3 O18 2.574400 1_554
Ca3 O16 2.662826 1_655
O0 Si2 1.635250 1_555
O0 Si0 1.647055 1_555
O1 Si3 1.635250 1_555
O1 Si1 1.647055 1_555
O2 Si0 1.649247 1_555
O2 Si4 1.653590 1_556
O3 Si1 1.649247 1_555
O3 Si5 1.653590 1_556
O4 Si0 1.631518 1_555
O5 Si1 1.631518 1_555
O6 Si0 1.625755 1_555
O7 Si1 1.625755 1_555
O8 Si3 1.607194 1_555
O8 Si2 1.607194 1_555
O9 Si2 1.645965 1_555
O10 Si3 1.645965 1_555
O13 Si2 1.630751 1_455
O13 Si4 1.644115 1_565
O14 Si3 1.630751 1_545
O14 Si5 1.644115 1_655
O15 Si4 1.626836 1_555
O16 Si5 1.626836 1_555
O17 Si4 1.628888 1_566
O18 Si5 1.628888 1_656
O19 O20 1.291402 1_555
O20 O21 1.272076 1_556
