# generated using pymatgen
data_RbSm(PO3)4
_symmetry_space_group_name_H-M   'P 1'
_cell_length_a   7.65417437
_cell_length_b   7.65417437
_cell_length_c   10.74471839
_cell_angle_alpha   78.98153388
_cell_angle_beta   78.98153388
_cell_angle_gamma   116.72502604
_symmetry_Int_Tables_number   1
_chemical_formula_structural   RbSm(PO3)4
_chemical_formula_sum   'Rb2 Sm2 P8 O24'
_cell_volume   523.59733659
_cell_formula_units_Z   2
loop_
 _symmetry_equiv_pos_site_id
 _symmetry_equiv_pos_as_xyz
  1  'x, y, z'
loop_
 _atom_site_type_symbol
 _atom_site_label
 _atom_site_symmetry_multiplicity
 _atom_site_fract_x
 _atom_site_fract_y
 _atom_site_fract_z
 _atom_site_occupancy
  Rb  Rb0  1  0.80739500  0.19260500  0.75000000  1
  Rb  Rb1  1  0.19260500  0.80739500  0.25000000  1
  Sm  Sm0  1  0.12266700  0.87733300  0.75000000  1
  Sm  Sm1  1  0.87733300  0.12266700  0.25000000  1
  P  P0  1  0.30470000  0.25081300  0.94981400  1
  P  P1  1  0.74918700  0.69530000  0.55018600  1
  P  P2  1  0.69530000  0.74918700  0.05018600  1
  P  P3  1  0.25081300  0.30470000  0.44981400  1
  P  P4  1  0.38042100  0.70718300  0.51213900  1
  P  P5  1  0.29281700  0.61957900  0.98786100  1
  P  P6  1  0.61957900  0.29281700  0.48786100  1
  P  P7  1  0.70718300  0.38042100  0.01213900  1
  O  O0  1  0.30885000  0.79543500  0.88634900  1
  O  O1  1  0.20456500  0.69115000  0.61365100  1
  O  O2  1  0.69115000  0.20456500  0.11365100  1
  O  O3  1  0.79543500  0.30885000  0.38634900  1
  O  O4  1  0.48411800  0.10005000  0.60496200  1
  O  O5  1  0.89995000  0.51588200  0.89503800  1
  O  O6  1  0.51588200  0.89995000  0.39503800  1
  O  O7  1  0.10005000  0.48411800  0.10496200  1
  O  O8  1  0.13903600  0.15927800  0.59049100  1
  O  O9  1  0.84072200  0.86096400  0.90950900  1
  O  O10  1  0.86096400  0.84072200  0.40950900  1
  O  O11  1  0.15927800  0.13903600  0.09049100  1
  O  O12  1  0.27503300  0.52584700  0.44724000  1
  O  O13  1  0.47415300  0.72496700  0.05276000  1
  O  O14  1  0.72496700  0.47415300  0.55276000  1
  O  O15  1  0.52584700  0.27503300  0.94724000  1
  O  O16  1  0.64098800  0.51054000  0.09148500  1
  O  O17  1  0.48946000  0.35901200  0.40851500  1
  O  O18  1  0.35901200  0.48946000  0.90851500  1
  O  O19  1  0.51054000  0.64098800  0.59148500  1
  O  O20  1  0.16926500  0.25375800  0.33844000  1
  O  O21  1  0.74624200  0.83073500  0.16156000  1
  O  O22  1  0.83073500  0.74624200  0.66156000  1
  O  O23  1  0.25375800  0.16926500  0.83844000  1
loop_
_geom_bond_atom_site_label_1
_geom_bond_atom_site_label_2
_geom_bond_distance
_geom_bond_site_symmetry_2
O0 P5 1.501864 1_555
O0 Sm0 2.412592 1_555
O0 Rb0 3.417064 1_565
O1 P4 1.501864 1_555
O1 Sm0 2.412592 1_555
O1 Rb0 3.417064 1_455
O2 P7 1.501864 1_555
O2 Sm1 2.412592 1_555
O2 Rb1 3.417064 1_545
O3 P6 1.501864 1_555
O3 Sm1 2.412592 1_555
O3 Rb1 3.417064 1_655
O4 P6 1.500301 1_555
O4 Sm0 2.466436 1_545
O4 Rb0 3.061467 1_555
O5 P7 1.500301 1_556
O5 Sm0 2.466436 1_655
O5 Rb0 3.061467 1_555
O6 P4 1.500301 1_555
O6 Sm1 2.466436 1_565
O6 Rb1 3.061467 1_555
O7 P5 1.500301 1_554
O7 Sm1 2.466436 1_455
O7 Rb1 3.061467 1_555
O8 P3 1.503895 1_555
O8 Sm0 2.423057 1_545
O8 Rb0 2.921067 1_455
O9 P2 1.503895 1_556
O9 Sm0 2.423057 1_655
O9 Rb0 2.921067 1_565
O10 P1 1.503895 1_555
O10 Sm1 2.423057 1_565
O10 Rb1 2.921067 1_655
O11 P0 1.503895 1_554
O11 Sm1 2.423057 1_455
O11 Rb1 2.921067 1_545
O12 P3 1.611914 1_555
O12 P4 1.625241 1_555
O12 Rb1 3.085734 1_555
O13 P2 1.611914 1_555
O13 P5 1.625241 1_554
O13 Rb1 3.085734 1_555
O14 P1 1.611914 1_555
O14 P6 1.625241 1_555
O14 Rb0 3.085734 1_555
O15 P0 1.611914 1_555
O15 P7 1.625241 1_556
O15 Rb0 3.085734 1_555
O16 P7 1.608973 1_555
O16 P2 1.625738 1_555
O17 P6 1.608973 1_555
O17 P3 1.625738 1_555
O18 P5 1.608973 1_555
O18 P0 1.625738 1_555
O19 P4 1.608973 1_555
O19 P1 1.625738 1_555
O20 P3 1.489521 1_555
O20 Sm1 2.462182 1_455
O21 P2 1.489521 1_555
O21 Sm1 2.462182 1_565
O22 P1 1.489521 1_555
O22 Sm0 2.462182 1_655
O23 P0 1.489521 1_555
O23 Sm0 2.462182 1_545
