# generated using pymatgen
data_Zn2OsN3
_symmetry_space_group_name_H-M   'P 1'
_cell_length_a   5.72381590
_cell_length_b   5.61681426
_cell_length_c   5.38163700
_cell_angle_alpha   90.00000000
_cell_angle_beta   90.00000000
_cell_angle_gamma   119.38349572
_symmetry_Int_Tables_number   1
_chemical_formula_structural   Zn2OsN3
_chemical_formula_sum   'Zn4 Os2 N6'
_cell_volume   150.75972532
_cell_formula_units_Z   2
loop_
 _symmetry_equiv_pos_site_id
 _symmetry_equiv_pos_as_xyz
  1  'x, y, z'
loop_
 _atom_site_type_symbol
 _atom_site_label
 _atom_site_symmetry_multiplicity
 _atom_site_fract_x
 _atom_site_fract_y
 _atom_site_fract_z
 _atom_site_occupancy
  Zn  Zn0  1  0.33807900  0.82080500  0.47768200  1
  Zn  Zn1  1  0.66192100  0.48272600  0.47768200  1
  Zn  Zn2  1  0.66192100  0.17919500  0.97768200  1
  Zn  Zn3  1  0.33807900  0.51727400  0.97768200  1
  Os  Os0  1  0.00000000  0.84619700  0.95859500  1
  Os  Os1  1  0.00000000  0.15380300  0.45859500  1
  N  N0  1  0.31847200  0.84977500  0.85471200  1
  N  N1  1  0.68152800  0.53130300  0.85471200  1
  N  N2  1  0.68152800  0.15022500  0.35471200  1
  N  N3  1  0.31847200  0.46869700  0.35471200  1
  N  N4  1  0.00000000  0.83605800  0.32099900  1
  N  N5  1  0.00000000  0.16394200  0.82099900  1
loop_
_geom_bond_atom_site_label_1
_geom_bond_atom_site_label_2
_geom_bond_distance
_geom_bond_site_symmetry_2
N0 Os0 1.897334 1_555
N0 Zn3 2.035716 1_555
N0 Zn2 2.038793 1_565
N0 Zn0 2.043035 1_555
N1 Os0 1.897334 1_655
N1 Zn2 2.035716 1_555
N1 Zn3 2.038793 1_555
N1 Zn1 2.043035 1_555
N2 Os1 1.897334 1_655
N2 Zn1 2.035716 1_555
N2 Zn0 2.038793 1_545
N2 Zn2 2.043035 1_554
N3 Os1 1.897334 1_555
N3 Zn0 2.035716 1_555
N3 Zn1 2.038793 1_555
N3 Zn3 2.043035 1_554
N4 Os1 1.932236 1_565
N4 Os0 1.951158 1_554
N4 Zn0 2.150733 1_555
N4 Zn1 2.150733 1_455
N5 Os0 1.932236 1_545
N5 Os1 1.951158 1_555
N5 Zn2 2.150733 1_455
N5 Zn3 2.150733 1_555
