# generated using pymatgen
data_Mn3TeO6
_symmetry_space_group_name_H-M   'P 1'
_cell_length_a   5.36581478
_cell_length_b   5.51957575
_cell_length_c   7.94737876
_cell_angle_alpha   90.05950640
_cell_angle_beta   90.35639548
_cell_angle_gamma   90.00091749
_symmetry_Int_Tables_number   1
_chemical_formula_structural   Mn3TeO6
_chemical_formula_sum   'Mn6 Te2 O12'
_cell_volume   235.37300404
_cell_formula_units_Z   2
loop_
 _symmetry_equiv_pos_site_id
 _symmetry_equiv_pos_as_xyz
  1  'x, y, z'
loop_
 _atom_site_type_symbol
 _atom_site_label
 _atom_site_symmetry_multiplicity
 _atom_site_fract_x
 _atom_site_fract_y
 _atom_site_fract_z
 _atom_site_occupancy
  Mn  Mn0  1  0.99942300  0.99899100  0.50021200  1
  Mn  Mn1  1  0.50032600  0.50073700  0.99784400  1
  Mn  Mn2  1  0.98834600  0.45275300  0.26141600  1
  Mn  Mn3  1  0.01256900  0.54673500  0.73692200  1
  Mn  Mn4  1  0.48774500  0.04578400  0.76173600  1
  Mn  Mn5  1  0.51246700  0.95331500  0.23637500  1
  Te  Te0  1  0.99990700  0.00095500  0.00044700  1
  Te  Te1  1  0.49991000  0.49906500  0.49966900  1
  O  O0  1  0.12793200  0.07962800  0.22774000  1
  O  O1  1  0.37276200  0.57959800  0.27265500  1
  O  O2  1  0.62714500  0.41989500  0.72734300  1
  O  O3  1  0.87214200  0.92075700  0.77332100  1
  O  O4  1  0.16870000  0.29171700  0.91538000  1
  O  O5  1  0.32998700  0.78900100  0.58594300  1
  O  O6  1  0.66921500  0.20834000  0.41489900  1
  O  O7  1  0.82958600  0.71150400  0.08596800  1
  O  O8  1  0.19658700  0.32047800  0.55151100  1
  O  O9  1  0.30362200  0.82290800  0.94857600  1
  O  O10  1  0.69792400  0.18102000  0.05305000  1
  O  O11  1  0.80370600  0.67681800  0.44899200  1
loop_
_geom_bond_atom_site_label_1
_geom_bond_atom_site_label_2
_geom_bond_distance
_geom_bond_site_symmetry_2
Mn0 O11 2.103308 1_555
Mn0 O8 2.104111 1_665
Mn0 O6 2.218349 1_565
Mn0 O5 2.222718 1_655
Mn0 O0 2.320189 1_665
Mn0 O3 2.320423 1_555
Mn1 O9 2.103776 1_555
Mn1 O10 2.103980 1_556
Mn1 O4 2.216036 1_555
Mn1 O7 2.224436 1_556
Mn1 O2 2.302154 1_555
Mn1 O1 2.333365 1_556
Mn2 O7 2.167730 1_555
Mn2 O11 2.178988 1_555
Mn2 O1 2.179552 1_655
Mn2 O0 2.208059 1_655
Mn2 O6 2.503891 1_555
Mn2 O8 2.658641 1_655
Mn2 O10 2.717147 1_555
Mn3 O4 2.164272 1_555
Mn3 O8 2.172600 1_555
Mn3 O2 2.184243 1_455
Mn3 O3 2.216956 1_455
Mn3 O5 2.481420 1_555
Mn3 O11 2.641844 1_455
Mn3 O9 2.748463 1_555
Mn4 O5 2.158333 1_545
Mn4 O9 2.171711 1_545
Mn4 O3 2.176432 1_545
Mn4 O2 2.214007 1_555
Mn4 O4 2.507394 1_555
Mn4 O10 2.674518 1_556
Mn4 O8 2.739317 1_555
Mn5 O6 2.163976 1_565
Mn5 O10 2.171273 1_565
Mn5 O0 2.178660 1_565
Mn5 O1 2.214482 1_555
Mn5 O7 2.475431 1_555
Mn5 O9 2.640088 1_554
Mn5 O11 2.756645 1_555
O0 Te0 1.976467 1_455
O1 Te1 1.975964 1_555
O2 Te1 1.979221 1_555
O3 Te0 1.976641 1_566
O4 Te0 1.965412 1_456
O5 Te1 1.966732 1_555
O6 Te1 1.964581 1_555
O7 Te0 1.964585 1_565
O8 Te1 1.949240 1_555
O9 Te0 1.949140 1_466
O10 Te0 1.948291 1_555
O11 Te1 1.947052 1_555
