# generated using pymatgen
data_Li7Co5O12
_symmetry_space_group_name_H-M   'P 1'
_cell_length_a   7.64766112
_cell_length_b   7.64766112
_cell_length_c   10.09900329
_cell_angle_alpha   72.13034987
_cell_angle_beta   72.13034987
_cell_angle_gamma   21.54443516
_symmetry_Int_Tables_number   1
_chemical_formula_structural   Li7Co5O12
_chemical_formula_sum   'Li7 Co5 O12'
_cell_volume   206.05009750
_cell_formula_units_Z   1
loop_
 _symmetry_equiv_pos_site_id
 _symmetry_equiv_pos_as_xyz
  1  'x, y, z'
loop_
 _atom_site_type_symbol
 _atom_site_label
 _atom_site_symmetry_multiplicity
 _atom_site_fract_x
 _atom_site_fract_y
 _atom_site_fract_z
 _atom_site_occupancy
  Li  Li0  1  0.49904100  0.49904100  0.24463300  1
  Li  Li1  1  0.16564700  0.16564700  0.75210700  1
  Li  Li2  1  0.83435300  0.83435300  0.24789300  1
  Li  Li3  1  0.50095900  0.50095900  0.75536700  1
  Li  Li4  1  0.16660900  0.16660900  0.25087500  1
  Li  Li5  1  0.83339100  0.83339100  0.74912500  1
  Li  Li6  1  0.00000000  0.00000000  0.00000000  1
  Co  Co0  1  0.33584600  0.33584600  0.00360800  1
  Co  Co1  1  0.66415400  0.66415400  0.99639200  1
  Co  Co2  1  0.00000000  0.00000000  0.50000000  1
  Co  Co3  1  0.33316700  0.33316700  0.50020400  1
  Co  Co4  1  0.66683300  0.66683300  0.49979600  1
  O  O0  1  0.59327100  0.59327100  0.88352600  1
  O  O1  1  0.24724000  0.24724000  0.38117400  1
  O  O2  1  0.90355900  0.90355900  0.89198500  1
  O  O3  1  0.57823700  0.57823700  0.38465700  1
  O  O4  1  0.24475700  0.24475700  0.89583000  1
  O  O5  1  0.91951700  0.91951700  0.38532400  1
  O  O6  1  0.42176300  0.42176300  0.61534300  1
  O  O7  1  0.09644100  0.09644100  0.10801500  1
  O  O8  1  0.75276000  0.75276000  0.61882600  1
  O  O9  1  0.40672900  0.40672900  0.11647400  1
  O  O10  1  0.08048300  0.08048300  0.61467600  1
  O  O11  1  0.75524300  0.75524300  0.10417000  1
loop_
_geom_bond_atom_site_label_1
_geom_bond_atom_site_label_2
_geom_bond_distance
_geom_bond_site_symmetry_2
Li0 O5 2.104546 1_455
Li0 O5 2.104546 1_545
Li0 O3 2.113525 1_555
Li0 O9 2.172695 1_555
Li0 O7 2.197081 1_565
Li0 O7 2.197081 1_655
Li1 O0 2.021287 1_545
Li1 O0 2.021287 1_455
Li1 O8 2.113659 1_455
Li1 O8 2.113659 1_545
Li1 O4 2.144192 1_555
Li1 O10 2.161795 1_555
Li2 O9 2.021287 1_655
Li2 O9 2.021287 1_565
Li2 O1 2.113659 1_655
Li2 O1 2.113659 1_565
Li2 O11 2.144192 1_555
Li2 O5 2.161795 1_555
Li3 O10 2.104546 1_565
Li3 O10 2.104546 1_655
Li3 O6 2.113525 1_555
Li3 O0 2.172695 1_555
Li3 O2 2.197081 1_545
Li3 O2 2.197081 1_455
Li4 O7 2.035532 1_555
Li4 O1 2.048258 1_555
Li4 O3 2.123906 1_455
Li4 O3 2.123906 1_545
Li4 O11 2.186145 1_545
Li4 O11 2.186145 1_455
Li5 O2 2.035532 1_555
Li5 O8 2.048258 1_555
Li5 O6 2.123906 1_565
Li5 O6 2.123906 1_655
Li5 O4 2.186145 1_655
Li5 O4 2.186145 1_565
Li6 O7 2.068175 1_555
Li6 O2 2.068175 1_444
Li6 O9 2.088308 1_455
Li6 O9 2.088308 1_545
Li6 O0 2.088308 1_544
Li6 O0 2.088308 1_454
Co0 O9 1.786619 1_555
Co0 O2 1.905934 1_454
Co0 O2 1.905934 1_544
Co0 O11 1.942413 1_455
Co0 O11 1.942413 1_545
Co0 O4 1.997169 1_554
Co1 O0 1.786619 1_555
Co1 O7 1.905934 1_566
Co1 O7 1.905934 1_656
Co1 O4 1.942413 1_655
Co1 O4 1.942413 1_565
Co1 O11 1.997169 1_556
Co2 O10 1.917971 1_555
Co2 O5 1.917971 1_445
Co2 O6 1.981547 1_455
Co2 O6 1.981547 1_545
Co2 O3 1.981547 1_545
Co2 O3 1.981547 1_455
Co3 O8 2.008426 1_455
Co3 O8 2.008426 1_545
Co3 O1 2.020292 1_555
Co3 O6 2.022685 1_555
Co3 O5 2.032784 1_545
Co3 O5 2.032784 1_455
Co4 O1 2.008426 1_565
Co4 O1 2.008426 1_655
Co4 O8 2.020292 1_555
Co4 O3 2.022685 1_555
Co4 O10 2.032784 1_655
Co4 O10 2.032784 1_565
