# generated using pymatgen
data_K5FeO4
_symmetry_space_group_name_H-M   'P 1'
_cell_length_a   6.78806900
_cell_length_b   11.53001200
_cell_length_c   20.58400900
_cell_angle_alpha   90.00000000
_cell_angle_beta   90.00000000
_cell_angle_gamma   90.00000000
_symmetry_Int_Tables_number   1
_chemical_formula_structural   K5FeO4
_chemical_formula_sum   'K40 Fe8 O32'
_cell_volume   1611.03869088
_cell_formula_units_Z   8
loop_
 _symmetry_equiv_pos_site_id
 _symmetry_equiv_pos_as_xyz
  1  'x, y, z'
loop_
 _atom_site_type_symbol
 _atom_site_label
 _atom_site_symmetry_multiplicity
 _atom_site_fract_x
 _atom_site_fract_y
 _atom_site_fract_z
 _atom_site_occupancy
  K  K0  1  0.07566600  0.35291700  0.99910100  1
  K  K1  1  0.41611300  0.06368900  0.43420800  1
  K  K2  1  0.58388700  0.43631100  0.93420800  1
  K  K3  1  0.08388700  0.56368900  0.56579200  1
  K  K4  1  0.08388700  0.06368900  0.93420800  1
  K  K5  1  0.58388700  0.93631100  0.56579200  1
  K  K6  1  0.41611300  0.56368900  0.06579200  1
  K  K7  1  0.91611300  0.43631100  0.43420800  1
  K  K8  1  0.92648900  0.70283700  0.36535700  1
  K  K9  1  0.42648900  0.29716300  0.13464300  1
  K  K10  1  0.57351100  0.20283700  0.63464300  1
  K  K11  1  0.07351100  0.79716300  0.86535700  1
  K  K12  1  0.07351100  0.29716300  0.63464300  1
  K  K13  1  0.57351100  0.70283700  0.86535700  1
  K  K14  1  0.42648900  0.79716300  0.36535700  1
  K  K15  1  0.92648900  0.20283700  0.13464300  1
  K  K16  1  0.61002700  0.08377500  0.24786700  1
  K  K17  1  0.11002700  0.91622500  0.25213300  1
  K  K18  1  0.88997300  0.58377500  0.75213300  1
  K  K19  1  0.38997300  0.41622500  0.74786700  1
  K  K20  1  0.38997300  0.91622500  0.75213300  1
  K  K21  1  0.88997300  0.08377500  0.74786700  1
  K  K22  1  0.11002700  0.41622500  0.24786700  1
  K  K23  1  0.61002700  0.58377500  0.25213300  1
  K  K24  1  0.60603800  0.82816700  0.17460100  1
  K  K25  1  0.42433400  0.85291700  0.00089900  1
  K  K26  1  0.57566600  0.64708300  0.50089900  1
  K  K27  1  0.91611300  0.93631100  0.06579200  1
  K  K28  1  0.07566600  0.85291700  0.50089900  1
  K  K29  1  0.57566600  0.14708300  0.99910100  1
  K  K30  1  0.42433400  0.35291700  0.49910100  1
  K  K31  1  0.92433400  0.64708300  0.00089900  1
  K  K32  1  0.60603800  0.32816700  0.32539900  1
  K  K33  1  0.10603800  0.67183300  0.17460100  1
  K  K34  1  0.89396200  0.82816700  0.67460100  1
  K  K35  1  0.39396200  0.17183300  0.82539900  1
  K  K36  1  0.39396200  0.67183300  0.67460100  1
  K  K37  1  0.89396200  0.32816700  0.82539900  1
  K  K38  1  0.10603800  0.17183300  0.32539900  1
  K  K39  1  0.92433400  0.14708300  0.49910100  1
  Fe  Fe0  1  0.82182300  0.46441700  0.12450200  1
  Fe  Fe1  1  0.32182300  0.53558300  0.37549800  1
  Fe  Fe2  1  0.67817700  0.96441700  0.87549800  1
  Fe  Fe3  1  0.17817700  0.03558300  0.62450200  1
  Fe  Fe4  1  0.17817700  0.53558300  0.87549800  1
  Fe  Fe5  1  0.67817700  0.46441700  0.62450200  1
  Fe  Fe6  1  0.32182300  0.03558300  0.12450200  1
  Fe  Fe7  1  0.82182300  0.96441700  0.37549800  1
  O  O0  1  0.74522400  0.12667300  0.37188500  1
  O  O1  1  0.24522400  0.87332700  0.12811500  1
  O  O2  1  0.75477600  0.62667300  0.62811500  1
  O  O3  1  0.25477600  0.37332700  0.87188500  1
  O  O4  1  0.25477600  0.87332700  0.62811500  1
  O  O5  1  0.75477600  0.12667300  0.87188500  1
  O  O6  1  0.24522400  0.37332700  0.37188500  1
  O  O7  1  0.74522400  0.62667300  0.12811500  1
  O  O8  1  0.74028000  0.38467100  0.20358600  1
  O  O9  1  0.24028000  0.61532900  0.29641400  1
  O  O10  1  0.75972000  0.88467100  0.79641400  1
  O  O11  1  0.25972000  0.11532900  0.70358600  1
  O  O12  1  0.25972000  0.61532900  0.79641400  1
  O  O13  1  0.75972000  0.38467100  0.70358600  1
  O  O14  1  0.24028000  0.11532900  0.20358600  1
  O  O15  1  0.74028000  0.88467100  0.29641400  1
  O  O16  1  0.70425300  0.38538200  0.05149400  1
  O  O17  1  0.20425300  0.61461800  0.44850600  1
  O  O18  1  0.79574700  0.88538200  0.94850600  1
  O  O19  1  0.29574700  0.11461800  0.55149400  1
  O  O20  1  0.29574700  0.61461800  0.94850600  1
  O  O21  1  0.79574700  0.38538200  0.55149400  1
  O  O22  1  0.20425300  0.11461800  0.05149400  1
  O  O23  1  0.70425300  0.88538200  0.44850600  1
  O  O24  1  0.60509900  0.04403700  0.11744000  1
  O  O25  1  0.10509900  0.95596300  0.38256000  1
  O  O26  1  0.89490100  0.54403700  0.88256000  1
  O  O27  1  0.39490100  0.45596300  0.61744000  1
  O  O28  1  0.39490100  0.95596300  0.88256000  1
  O  O29  1  0.89490100  0.04403700  0.61744000  1
  O  O30  1  0.10509900  0.45596300  0.11744000  1
  O  O31  1  0.60509900  0.54403700  0.38256000  1
loop_
_geom_bond_atom_site_label_1
_geom_bond_atom_site_label_2
_geom_bond_distance
_geom_bond_site_symmetry_2
K0 O30 2.717557 1_556
K0 O16 2.767584 1_456
K0 O3 2.896674 1_555
K0 O22 3.078020 1_556
K1 O19 2.615498 1_555
K1 O25 2.670224 1_545
K1 O0 2.676561 1_555
K1 O23 2.852870 1_545
K2 O16 2.615498 1_556
K2 O26 2.670224 1_555
K2 O3 2.676561 1_555
K2 O20 2.852870 1_555
K3 O17 2.615498 1_555
K3 O27 2.670224 1_555
K3 O2 2.676561 1_455
K3 O21 2.852870 1_455
K4 O22 2.615498 1_556
K4 O28 2.670224 1_545
K4 O5 2.676561 1_455
K4 O18 2.852870 1_445
K5 O23 2.615498 1_555
K5 O29 2.670224 1_565
K5 O4 2.676561 1_555
K5 O19 2.852870 1_565
K6 O20 2.615498 1_554
K6 O30 2.670224 1_555
K6 O7 2.676561 1_555
K6 O16 2.852870 1_555
K7 O21 2.615498 1_555
K7 O31 2.670224 1_555
K7 O6 2.676561 1_655
K7 O17 2.852870 1_655
K8 O17 2.742086 1_655
K8 O9 2.751177 1_655
K8 O15 2.829686 1_555
K8 O31 2.870067 1_555
K8 O23 3.104039 1_555
K8 O25 3.180135 1_655
K9 O16 2.742086 1_555
K9 O8 2.751177 1_555
K9 O14 2.829686 1_555
K9 O30 2.870067 1_555
K9 O22 3.104039 1_555
K9 O24 3.180135 1_555
K10 O19 2.742086 1_555
K10 O11 2.751177 1_555
K10 O13 2.829686 1_555
K10 O29 2.870067 1_555
K10 O21 3.104039 1_555
K10 O27 3.180135 1_555
K11 O18 2.742086 1_455
K11 O10 2.751177 1_455
K11 O12 2.829686 1_555
K11 O28 2.870067 1_555
K11 O20 3.104039 1_555
K11 O26 3.180135 1_455
K12 O21 2.742086 1_455
K12 O13 2.751177 1_455
K12 O11 2.829686 1_555
K12 O27 2.870067 1_555
K12 O19 3.104039 1_555
K12 O29 3.180135 1_455
K13 O20 2.742086 1_555
K13 O12 2.751177 1_555
K13 O10 2.829686 1_555
K13 O26 2.870067 1_555
K13 O18 3.104039 1_555
K13 O28 3.180135 1_555
K14 O23 2.742086 1_555
K14 O15 2.751177 1_555
K14 O9 2.829686 1_555
K14 O25 2.870067 1_555
K14 O17 3.104039 1_555
K14 O31 3.180135 1_555
K15 O22 2.742086 1_655
K15 O14 2.751177 1_655
K15 O8 2.829686 1_555
K15 O24 2.870067 1_555
K15 O16 3.104039 1_555
K15 O30 3.180135 1_655
K16 O15 2.655267 1_545
K16 O14 2.694921 1_555
K16 O24 2.723732 1_555
K16 O0 2.757461 1_555
K17 O14 2.655267 1_565
K17 O15 2.694921 1_455
K17 O25 2.723732 1_555
K17 O1 2.757461 1_555
K18 O13 2.655267 1_555
K18 O12 2.694921 1_655
K18 O26 2.723732 1_555
K18 O2 2.757461 1_555
K19 O12 2.655267 1_555
K19 O13 2.694921 1_555
K19 O27 2.723732 1_555
K19 O3 2.757461 1_555
K20 O11 2.655267 1_565
K20 O10 2.694921 1_555
K20 O28 2.723732 1_555
K20 O4 2.757461 1_555
K21 O10 2.655267 1_545
K21 O11 2.694921 1_655
K21 O29 2.723732 1_555
K21 O5 2.757461 1_555
K22 O9 2.655267 1_555
K22 O8 2.694921 1_455
K22 O30 2.723732 1_555
K22 O6 2.757461 1_555
K23 O8 2.655267 1_555
K23 O9 2.694921 1_555
K23 O31 2.723732 1_555
K23 O7 2.757461 1_555
K24 O1 2.680569 1_555
K24 O7 2.684333 1_555
K24 O15 2.746245 1_555
K24 O24 2.753084 1_565
K25 O28 2.717557 1_554
K25 O18 2.767584 1_554
K25 O1 2.896674 1_555
K25 O20 3.078020 1_554
K26 O31 2.717557 1_555
K26 O17 2.767584 1_555
K26 O2 2.896674 1_555
K26 O23 3.078020 1_555
K27 O18 2.615498 1_554
K27 O24 2.670224 1_565
K27 O1 2.676561 1_655
K27 O22 2.852870 1_665
K28 O25 2.717557 1_555
K28 O23 2.767584 1_455
K28 O4 2.896674 1_555
K28 O17 3.078020 1_555
K29 O24 2.717557 1_556
K29 O22 2.767584 1_556
K29 O5 2.896674 1_555
K29 O16 3.078020 1_556
K30 O27 2.717557 1_555
K30 O21 2.767584 1_555
K30 O6 2.896674 1_555
K30 O19 3.078020 1_555
K31 O26 2.717557 1_554
K31 O20 2.767584 1_654
K31 O7 2.896674 1_555
K31 O18 3.078020 1_554
K32 O6 2.680569 1_555
K32 O0 2.684333 1_555
K32 O8 2.746245 1_555
K32 O31 2.753084 1_555
K33 O7 2.680569 1_455
K33 O1 2.684333 1_555
K33 O9 2.746245 1_555
K33 O30 2.753084 1_555
K34 O4 2.680569 1_655
K34 O2 2.684333 1_555
K34 O10 2.746245 1_555
K34 O29 2.753084 1_565
K35 O5 2.680569 1_555
K35 O3 2.684333 1_555
K35 O11 2.746245 1_555
K35 O28 2.753084 1_545
K36 O2 2.680569 1_555
K36 O4 2.684333 1_555
K36 O12 2.746245 1_555
K36 O27 2.753084 1_555
K37 O3 2.680569 1_655
K37 O5 2.684333 1_555
K37 O13 2.746245 1_555
K37 O26 2.753084 1_555
K38 O0 2.680569 1_455
K38 O6 2.684333 1_555
K38 O14 2.746245 1_555
K38 O25 2.753084 1_545
K39 O29 2.717557 1_555
K39 O19 2.767584 1_655
K39 O0 2.896674 1_555
K39 O21 3.078020 1_555
Fe0 O16 1.930218 1_555
Fe0 O30 1.930846 1_655
Fe0 O7 1.943150 1_555
Fe0 O8 1.949810 1_555
Fe1 O17 1.930218 1_555
Fe1 O31 1.930846 1_555
Fe1 O6 1.943150 1_555
Fe1 O9 1.949810 1_555
Fe2 O18 1.930218 1_555
Fe2 O28 1.930846 1_555
Fe2 O5 1.943150 1_565
Fe2 O10 1.949810 1_555
Fe3 O19 1.930218 1_555
Fe3 O29 1.930846 1_455
Fe3 O4 1.943150 1_545
Fe3 O11 1.949810 1_555
Fe4 O20 1.930218 1_555
Fe4 O26 1.930846 1_455
Fe4 O3 1.943150 1_555
Fe4 O12 1.949810 1_555
Fe5 O21 1.930218 1_555
Fe5 O27 1.930846 1_555
Fe5 O2 1.943150 1_555
Fe5 O13 1.949810 1_555
Fe6 O22 1.930218 1_555
Fe6 O24 1.930846 1_555
Fe6 O1 1.943150 1_545
Fe6 O14 1.949810 1_555
Fe7 O23 1.930218 1_555
Fe7 O25 1.930846 1_655
Fe7 O0 1.943150 1_565
Fe7 O15 1.949810 1_555
