# generated using pymatgen
data_Mg2TaMoO6
_symmetry_space_group_name_H-M   'P 1'
_cell_length_a   7.74334400
_cell_length_b   5.34384200
_cell_length_c   5.46176915
_cell_angle_alpha   88.63400821
_cell_angle_beta   90.00000000
_cell_angle_gamma   90.00000000
_symmetry_Int_Tables_number   1
_chemical_formula_structural   Mg2TaMoO6
_chemical_formula_sum   'Mg4 Ta2 Mo2 O12'
_cell_volume   225.93944889
_cell_formula_units_Z   2
loop_
 _symmetry_equiv_pos_site_id
 _symmetry_equiv_pos_as_xyz
  1  'x, y, z'
loop_
 _atom_site_type_symbol
 _atom_site_label
 _atom_site_symmetry_multiplicity
 _atom_site_fract_x
 _atom_site_fract_y
 _atom_site_fract_z
 _atom_site_occupancy
  Mg  Mg0  1  0.75000000  0.00586500  0.03489800  1
  Mg  Mg1  1  0.75000000  0.49906800  0.54910800  1
  Mg  Mg2  1  0.25000000  0.50093200  0.45089200  1
  Mg  Mg3  1  0.25000000  0.99413500  0.96510200  1
  Ta  Ta0  1  0.00000000  0.00000000  0.50000000  1
  Ta  Ta1  1  0.50000000  0.00000000  0.50000000  1
  Mo  Mo0  1  0.00000000  0.50000000  0.00000000  1
  Mo  Mo1  1  0.50000000  0.50000000  0.00000000  1
  O  O0  1  0.43024200  0.15701100  0.18675900  1
  O  O1  1  0.56894600  0.68826800  0.33472100  1
  O  O2  1  0.56975800  0.84298900  0.81324100  1
  O  O3  1  0.06894600  0.31173200  0.66527900  1
  O  O4  1  0.25000000  0.87110100  0.57257800  1
  O  O5  1  0.43105400  0.31173200  0.66527900  1
  O  O6  1  0.93105400  0.68826800  0.33472100  1
  O  O7  1  0.06975800  0.15701100  0.18675900  1
  O  O8  1  0.75000000  0.36194500  0.90621200  1
  O  O9  1  0.93024200  0.84298900  0.81324100  1
  O  O10  1  0.25000000  0.63805500  0.09378800  1
  O  O11  1  0.75000000  0.12889900  0.42742200  1
loop_
_geom_bond_atom_site_label_1
_geom_bond_atom_site_label_2
_geom_bond_distance
_geom_bond_site_symmetry_2
Mg0 O8 2.012715 1_554
Mg0 O9 2.054596 1_544
Mg0 O2 2.054596 1_544
Mg0 O11 2.257361 1_555
Mg1 O8 2.067109 1_555
Mg1 O6 2.074216 1_555
Mg1 O1 2.074216 1_555
Mg1 O11 2.101756 1_555
Mg2 O10 2.067109 1_555
Mg2 O5 2.074216 1_555
Mg2 O3 2.074216 1_555
Mg2 O4 2.101756 1_555
Mg3 O10 2.012715 1_556
Mg3 O0 2.054596 1_566
Mg3 O7 2.054596 1_566
Mg3 O4 2.257361 1_555
Mo0 O8 2.138257 1_454
Mo0 O10 2.138257 1_555
Mo0 O7 2.145356 1_555
Mo0 O9 2.145356 1_454
Mo0 O6 2.174189 1_455
Mo0 O3 2.174189 1_554
Mo1 O8 2.138257 1_554
Mo1 O10 2.138257 1_555
Mo1 O2 2.145356 1_554
Mo1 O0 2.145356 1_555
Mo1 O1 2.174189 1_555
Mo1 O5 2.174189 1_554
O0 Ta1 1.963245 1_555
O1 Ta1 1.986620 1_565
O2 Ta1 1.963245 1_565
O3 Ta0 1.986620 1_555
O4 Ta0 2.089509 1_565
O4 Ta1 2.089509 1_565
O5 Ta1 1.986620 1_555
O6 Ta0 1.986620 1_665
O7 Ta0 1.963245 1_555
O9 Ta0 1.963245 1_665
O11 Ta1 2.089509 1_555
O11 Ta0 2.089509 1_655
