# generated using pymatgen
data_CsKAu2
_symmetry_space_group_name_H-M   'P 1'
_cell_length_a   13.07053951
_cell_length_b   13.07053951
_cell_length_c   13.07053951
_cell_angle_alpha   121.35201675
_cell_angle_beta   119.66607764
_cell_angle_gamma   89.12683970
_symmetry_Int_Tables_number   1
_chemical_formula_structural   CsKAu2
_chemical_formula_sum   'Cs1 K1 Au2'
_cell_volume   1566.16170184
_cell_formula_units_Z   1
loop_
 _symmetry_equiv_pos_site_id
 _symmetry_equiv_pos_as_xyz
  1  'x, y, z'
loop_
 _atom_site_type_symbol
 _atom_site_label
 _atom_site_symmetry_multiplicity
 _atom_site_fract_x
 _atom_site_fract_y
 _atom_site_fract_z
 _atom_site_occupancy
  Cs  Cs0  1  0.00000000  0.50000000  0.50000000  1
  K  K0  1  0.00000000  0.00000000  0.00000000  1
  Au  Au0  1  0.00000000  0.24005900  0.24005900  1
  Au  Au1  1  0.00000000  0.75994100  0.75994100  1
loop_
_geom_bond_atom_site_label_1
_geom_bond_atom_site_label_2
_geom_bond_distance
_geom_bond_site_symmetry_2
Au0 K0 3.073363 1_555
Au0 Cs0 3.327902 1_555
Au1 K0 3.073363 1_566
Au1 Cs0 3.327902 1_555
