# generated using pymatgen
data_Mn6Zn3Si(AsO10)2
_symmetry_space_group_name_H-M   'P 1'
_cell_length_a   8.54622300
_cell_length_b   11.50148900
_cell_length_c   15.68912688
_cell_angle_alpha   90.00000000
_cell_angle_beta   105.80483022
_cell_angle_gamma   90.00000000
_symmetry_Int_Tables_number   1
_chemical_formula_structural   Mn6Zn3Si(AsO10)2
_chemical_formula_sum   'Mn24 Zn12 Si4 As8 O80'
_cell_volume   1483.85059921
_cell_formula_units_Z   4
loop_
 _symmetry_equiv_pos_site_id
 _symmetry_equiv_pos_as_xyz
  1  'x, y, z'
loop_
 _atom_site_type_symbol
 _atom_site_label
 _atom_site_symmetry_multiplicity
 _atom_site_fract_x
 _atom_site_fract_y
 _atom_site_fract_z
 _atom_site_occupancy
  Mn  Mn0  1  0.09812600  0.00000000  0.19625200  1
  Mn  Mn1  1  0.90187400  0.00000000  0.80374800  1
  Mn  Mn2  1  0.40187400  0.50000000  0.80374800  1
  Mn  Mn3  1  0.59812600  0.50000000  0.19625200  1
  Mn  Mn4  1  0.41004000  0.13382600  0.30947000  1
  Mn  Mn5  1  0.58996000  0.86617400  0.69053000  1
  Mn  Mn6  1  0.08996000  0.63382600  0.69053000  1
  Mn  Mn7  1  0.60057100  0.36617400  0.69053000  1
  Mn  Mn8  1  0.91004000  0.36617400  0.30947000  1
  Mn  Mn9  1  0.39942900  0.63382600  0.30947000  1
  Mn  Mn10  1  0.89942900  0.86617400  0.30947000  1
  Mn  Mn11  1  0.10057100  0.13382600  0.69053000  1
  Mn  Mn12  1  0.19841100  0.00000000  0.39682300  1
  Mn  Mn13  1  0.80158900  0.00000000  0.60317700  1
  Mn  Mn14  1  0.30158900  0.50000000  0.60317700  1
  Mn  Mn15  1  0.69841100  0.50000000  0.39682300  1
  Mn  Mn16  1  0.31273000  0.12423300  0.09618700  1
  Mn  Mn17  1  0.68727000  0.87576700  0.90381300  1
  Mn  Mn18  1  0.18727000  0.62423300  0.90381300  1
  Mn  Mn19  1  0.71654200  0.37576700  0.90381300  1
  Mn  Mn20  1  0.81273000  0.37576700  0.09618700  1
  Mn  Mn21  1  0.28345800  0.62423300  0.09618700  1
  Mn  Mn22  1  0.78345800  0.87576700  0.09618700  1
  Mn  Mn23  1  0.21654200  0.12423300  0.90381300  1
  Zn  Zn0  1  0.40267400  0.37901700  0.00000000  1
  Zn  Zn1  1  0.59732600  0.62098300  0.00000000  1
  Zn  Zn2  1  0.09732600  0.87901700  0.00000000  1
  Zn  Zn3  1  0.90267400  0.12098300  0.00000000  1
  Zn  Zn4  1  0.43417700  0.11538300  0.59203400  1
  Zn  Zn5  1  0.56582300  0.88461700  0.40796600  1
  Zn  Zn6  1  0.06582300  0.61538300  0.40796600  1
  Zn  Zn7  1  0.34214200  0.38461700  0.40796600  1
  Zn  Zn8  1  0.93417700  0.38461700  0.59203400  1
  Zn  Zn9  1  0.65785800  0.61538300  0.59203400  1
  Zn  Zn10  1  0.15785800  0.88461700  0.59203400  1
  Zn  Zn11  1  0.84214200  0.11538300  0.40796600  1
  Si  Si0  1  0.63669400  0.25000000  0.50000000  1
  Si  Si1  1  0.36330600  0.75000000  0.50000000  1
  Si  Si2  1  0.86330600  0.75000000  0.50000000  1
  Si  Si3  1  0.13669400  0.25000000  0.50000000  1
  As  As0  1  0.21274200  0.36492600  0.19804700  1
  As  As1  1  0.78725800  0.63507400  0.80195300  1
  As  As2  1  0.28725800  0.86492600  0.80195300  1
  As  As3  1  0.51469500  0.13507400  0.80195300  1
  As  As4  1  0.71274200  0.13507400  0.19804700  1
  As  As5  1  0.48530500  0.86492600  0.19804700  1
  As  As6  1  0.98530500  0.63507400  0.19804700  1
  As  As7  1  0.01469500  0.36492600  0.80195300  1
  O  O0  1  0.74398200  0.12831800  0.50547600  1
  O  O1  1  0.25601800  0.87168200  0.49452400  1
  O  O2  1  0.75601800  0.62831800  0.49452400  1
  O  O3  1  0.73850700  0.37168200  0.49452400  1
  O  O4  1  0.24398200  0.37168200  0.50547600  1
  O  O5  1  0.26149300  0.62831800  0.50547600  1
  O  O6  1  0.76149300  0.87168200  0.50547600  1
  O  O7  1  0.23850700  0.12831800  0.49452400  1
  O  O8  1  0.34739600  0.24724700  0.20468900  1
  O  O9  1  0.65260400  0.75275300  0.79531100  1
  O  O10  1  0.15260400  0.74724700  0.79531100  1
  O  O11  1  0.64270700  0.25275300  0.79531100  1
  O  O12  1  0.84739600  0.25275300  0.20468900  1
  O  O13  1  0.35729300  0.74724700  0.20468900  1
  O  O14  1  0.85729300  0.75275300  0.20468900  1
  O  O15  1  0.14270700  0.24724700  0.79531100  1
  O  O16  1  0.05158600  0.36402200  0.10806800  1
  O  O17  1  0.94841400  0.63597800  0.89193200  1
  O  O18  1  0.44841400  0.86402200  0.89193200  1
  O  O19  1  0.44351700  0.13597800  0.89193200  1
  O  O20  1  0.55158600  0.13597800  0.10806800  1
  O  O21  1  0.55648300  0.86402200  0.10806800  1
  O  O22  1  0.05648300  0.63597800  0.10806800  1
  O  O23  1  0.94351700  0.36402200  0.89193200  1
  O  O24  1  0.17752400  0.10687200  0.29897600  1
  O  O25  1  0.82247600  0.89312800  0.70102400  1
  O  O26  1  0.32247600  0.60687200  0.70102400  1
  O  O27  1  0.37854800  0.39312800  0.70102400  1
  O  O28  1  0.67752400  0.39312800  0.29897600  1
  O  O29  1  0.62145200  0.60687200  0.29897600  1
  O  O30  1  0.12145200  0.89312800  0.29897600  1
  O  O31  1  0.87854800  0.10687200  0.70102400  1
  O  O32  1  0.42241100  0.01467700  0.39571500  1
  O  O33  1  0.57758900  0.98532300  0.60428500  1
  O  O34  1  0.07758900  0.51467700  0.60428500  1
  O  O35  1  0.52669700  0.48532300  0.60428500  1
  O  O36  1  0.92241100  0.48532300  0.39571500  1
  O  O37  1  0.47330300  0.51467700  0.39571500  1
  O  O38  1  0.97330300  0.98532300  0.39571500  1
  O  O39  1  0.02669700  0.01467700  0.60428500  1
  O  O40  1  0.35991000  0.13014800  0.70332000  1
  O  O41  1  0.64009000  0.86985200  0.29668000  1
  O  O42  1  0.14009000  0.63014800  0.29668000  1
  O  O43  1  0.15659000  0.36985200  0.29668000  1
  O  O44  1  0.85991000  0.36985200  0.70332000  1
  O  O45  1  0.84341000  0.63014800  0.70332000  1
  O  O46  1  0.34341000  0.86985200  0.70332000  1
  O  O47  1  0.65659000  0.13014800  0.29668000  1
  O  O48  1  0.09592000  0.11359800  0.10654400  1
  O  O49  1  0.90408000  0.88640200  0.89345600  1
  O  O50  1  0.40408000  0.61359800  0.89345600  1
  O  O51  1  0.48937600  0.38640200  0.89345600  1
  O  O52  1  0.59592000  0.38640200  0.10654400  1
  O  O53  1  0.51062400  0.61359800  0.10654400  1
  O  O54  1  0.01062400  0.88640200  0.10654400  1
  O  O55  1  0.98937600  0.11359800  0.89345600  1
  O  O56  1  0.27392600  0.23670500  0.00000000  1
  O  O57  1  0.72607400  0.76329500  0.00000000  1
  O  O58  1  0.22607400  0.73670500  0.00000000  1
  O  O59  1  0.77392600  0.26329500  0.00000000  1
  O  O60  1  0.25781100  0.01240200  0.00000000  1
  O  O61  1  0.74218900  0.98759800  0.00000000  1
  O  O62  1  0.24218900  0.51240200  0.00000000  1
  O  O63  1  0.75781100  0.48759800  0.00000000  1
  O  O64  1  0.48635700  0.25173000  0.40991900  1
  O  O65  1  0.51364300  0.74827000  0.59008100  1
  O  O66  1  0.01364300  0.75173000  0.59008100  1
  O  O67  1  0.57643800  0.24827000  0.59008100  1
  O  O68  1  0.98635700  0.24827000  0.40991900  1
  O  O69  1  0.42356200  0.75173000  0.40991900  1
  O  O70  1  0.92356200  0.74827000  0.40991900  1
  O  O71  1  0.07643800  0.25173000  0.59008100  1
  O  O72  1  0.63673200  0.01082600  0.80447000  1
  O  O73  1  0.36326800  0.98917400  0.19553000  1
  O  O74  1  0.86326800  0.51082600  0.19553000  1
  O  O75  1  0.33226200  0.48917400  0.19553000  1
  O  O76  1  0.13673200  0.48917400  0.80447000  1
  O  O77  1  0.66773800  0.51082600  0.80447000  1
  O  O78  1  0.16773800  0.98917400  0.80447000  1
  O  O79  1  0.83226200  0.01082600  0.19553000  1
loop_
_geom_bond_atom_site_label_1
_geom_bond_atom_site_label_2
_geom_bond_distance
_geom_bond_site_symmetry_2
Mn0 O54 1.916730 1_545
Mn0 O48 1.916730 1_555
Mn0 O24 1.993250 1_555
Mn0 O30 1.993250 1_545
Mn0 O79 2.272488 1_455
Mn0 O73 2.272488 1_545
Mn1 O55 1.916730 1_555
Mn1 O49 1.916730 1_545
Mn1 O25 1.993250 1_545
Mn1 O31 1.993250 1_555
Mn1 O78 2.272488 1_645
Mn1 O72 2.272488 1_555
Mn2 O51 1.916730 1_555
Mn2 O50 1.916730 1_555
Mn2 O26 1.993250 1_555
Mn2 O27 1.993250 1_555
Mn2 O77 2.272488 1_555
Mn2 O76 2.272488 1_555
Mn3 O53 1.916730 1_555
Mn3 O52 1.916730 1_555
Mn3 O28 1.993250 1_555
Mn3 O29 1.993250 1_555
Mn3 O75 2.272488 1_555
Mn3 O74 2.272488 1_555
Mn4 O32 1.908435 1_555
Mn4 O24 1.973246 1_555
Mn4 O64 2.046475 1_555
Mn4 O8 2.052178 1_555
Mn4 O47 2.170742 1_555
Mn4 O73 2.394592 1_545
Mn5 O33 1.908435 1_555
Mn5 O25 1.973246 1_555
Mn5 O65 2.046475 1_555
Mn5 O9 2.052178 1_555
Mn5 O46 2.170742 1_555
Mn5 O72 2.394592 1_565
Mn6 O34 1.908435 1_555
Mn6 O26 1.973246 1_555
Mn6 O66 2.046475 1_555
Mn6 O10 2.052178 1_555
Mn6 O45 2.170742 1_455
Mn6 O76 2.394592 1_555
Mn7 O35 1.908435 1_555
Mn7 O27 1.973254 1_555
Mn7 O67 2.046474 1_555
Mn7 O11 2.052178 1_555
Mn7 O44 2.170733 1_555
Mn7 O77 2.394591 1_555
Mn8 O36 1.908435 1_555
Mn8 O28 1.973246 1_555
Mn8 O68 2.046475 1_555
Mn8 O12 2.052178 1_555
Mn8 O43 2.170742 1_655
Mn8 O74 2.394592 1_555
Mn9 O37 1.908435 1_555
Mn9 O29 1.973254 1_555
Mn9 O69 2.046474 1_555
Mn9 O13 2.052178 1_555
Mn9 O42 2.170733 1_555
Mn9 O75 2.394591 1_555
Mn10 O38 1.908435 1_555
Mn10 O30 1.973254 1_655
Mn10 O70 2.046474 1_555
Mn10 O14 2.052178 1_555
Mn10 O41 2.170733 1_555
Mn10 O79 2.394591 1_565
Mn11 O39 1.908435 1_555
Mn11 O31 1.973254 1_455
Mn11 O71 2.046474 1_555
Mn11 O15 2.052178 1_555
Mn11 O40 2.170733 1_555
Mn11 O78 2.394591 1_545
Mn12 O38 1.926571 1_445
Mn12 O32 1.926571 1_555
Mn12 O30 1.936525 1_545
Mn12 O24 1.936526 1_555
Mn12 O7 2.087831 1_555
Mn12 O1 2.087832 1_545
Mn13 O39 1.926571 1_655
Mn13 O33 1.926571 1_545
Mn13 O31 1.936525 1_555
Mn13 O25 1.936526 1_545
Mn13 O6 2.087831 1_545
Mn13 O0 2.087832 1_555
Mn14 O35 1.926571 1_555
Mn14 O34 1.926571 1_555
Mn14 O27 1.936525 1_555
Mn14 O26 1.936526 1_555
Mn14 O5 2.087831 1_555
Mn14 O4 2.087832 1_555
Mn15 O37 1.926571 1_555
Mn15 O36 1.926571 1_555
Mn15 O29 1.936525 1_555
Mn15 O28 1.936526 1_555
Mn15 O3 2.087831 1_555
Mn15 O2 2.087832 1_555
Mn16 O48 1.907521 1_555
Mn16 O60 1.940667 1_555
Mn16 O56 1.946307 1_555
Mn16 O20 2.003172 1_555
Mn16 O73 2.159187 1_545
Mn16 O8 2.170868 1_555
Mn17 O49 1.907521 1_555
Mn17 O61 1.940667 1_556
Mn17 O57 1.946307 1_556
Mn17 O18 2.003172 1_555
Mn17 O72 2.159187 1_565
Mn17 O9 2.170868 1_555
Mn18 O50 1.907521 1_555
Mn18 O62 1.940667 1_556
Mn18 O58 1.946307 1_556
Mn18 O17 2.003172 1_455
Mn18 O76 2.159187 1_555
Mn18 O10 2.170868 1_555
Mn19 O51 1.907512 1_555
Mn19 O63 1.940667 1_556
Mn19 O59 1.946307 1_556
Mn19 O23 2.003172 1_555
Mn19 O77 2.159187 1_555
Mn19 O11 2.170867 1_555
Mn20 O52 1.907521 1_555
Mn20 O63 1.940667 1_555
Mn20 O59 1.946307 1_555
Mn20 O16 2.003172 1_655
Mn20 O74 2.159187 1_555
Mn20 O12 2.170868 1_555
Mn21 O53 1.907512 1_555
Mn21 O62 1.940667 1_555
Mn21 O58 1.946307 1_555
Mn21 O22 2.003172 1_555
Mn21 O75 2.159187 1_555
Mn21 O13 2.170867 1_555
Mn22 O54 1.907512 1_655
Mn22 O61 1.940667 1_555
Mn22 O57 1.946307 1_555
Mn22 O21 2.003172 1_555
Mn22 O79 2.159187 1_565
Mn22 O14 2.170867 1_555
Mn23 O55 1.907512 1_455
Mn23 O60 1.940667 1_556
Mn23 O56 1.946307 1_556
Mn23 O19 2.003172 1_555
Mn23 O78 2.159187 1_545
Mn23 O15 2.170867 1_555
As0 O16 1.682490 1_555
As0 O43 1.741456 1_555
As0 O8 1.761180 1_555
As0 O75 1.763243 1_555
As1 O17 1.682490 1_555
As1 O45 1.741456 1_555
As1 O9 1.761180 1_555
As1 O77 1.763243 1_555
As2 O18 1.682490 1_555
As2 O46 1.741456 1_555
As2 O10 1.761180 1_555
As2 O78 1.763243 1_555
As3 O19 1.682495 1_555
As3 O40 1.741456 1_555
As3 O11 1.761180 1_555
As3 O72 1.763243 1_555
As4 O20 1.682490 1_555
As4 O47 1.741456 1_555
As4 O12 1.761180 1_555
As4 O79 1.763243 1_555
As5 O21 1.682495 1_555
As5 O41 1.741456 1_555
As5 O13 1.761180 1_555
As5 O73 1.763243 1_555
As6 O22 1.682495 1_655
As6 O42 1.741456 1_655
As6 O14 1.761180 1_555
As6 O74 1.763243 1_555
As7 O23 1.682495 1_455
As7 O44 1.741456 1_455
As7 O15 1.761180 1_555
As7 O76 1.763243 1_555
O0 Si0 1.662485 1_555
O0 Zn11 1.940464 1_555
O1 Si1 1.662485 1_555
O1 Zn10 1.940464 1_555
O2 Si2 1.662485 1_555
O2 Zn9 1.940464 1_555
O3 Si0 1.662490 1_555
O3 Zn8 1.940464 1_555
O4 Si3 1.662485 1_555
O4 Zn7 1.940464 1_555
O5 Si1 1.662490 1_555
O5 Zn6 1.940464 1_555
O6 Si2 1.662490 1_555
O6 Zn5 1.940464 1_555
O7 Si3 1.662490 1_555
O7 Zn4 1.940464 1_555
O32 Zn5 1.910094 1_545
O33 Zn4 1.910094 1_565
O34 Zn8 1.910094 1_455
O35 Zn9 1.910094 1_555
O36 Zn6 1.910094 1_655
O37 Zn7 1.910094 1_555
O38 Zn11 1.910094 1_565
O39 Zn10 1.910094 1_545
O40 Zn4 2.020837 1_555
O41 Zn5 2.020837 1_555
O42 Zn6 2.020837 1_555
O43 Zn7 2.020832 1_555
O44 Zn8 2.020837 1_555
O45 Zn9 2.020832 1_555
O46 Zn10 2.020832 1_555
O47 Zn11 2.020832 1_555
O48 Zn3 2.006275 1_455
O49 Zn2 2.006275 1_656
O50 Zn1 2.006275 1_556
O51 Zn0 2.006275 1_556
O52 Zn0 2.006275 1_555
O53 Zn1 2.006275 1_555
O54 Zn2 2.006275 1_555
O55 Zn3 2.006275 1_556
O56 Zn0 1.972256 1_555
O57 Zn1 1.972256 1_555
O58 Zn2 1.972256 1_555
O59 Zn3 1.972256 1_555
O60 Zn2 2.057831 1_545
O61 Zn3 2.057831 1_565
O62 Zn0 2.057831 1_555
O63 Zn1 2.057831 1_555
O64 Si0 1.630773 1_555
O64 Zn7 1.958420 1_555
O65 Si1 1.630773 1_555
O65 Zn9 1.958420 1_555
O66 Si2 1.630773 1_455
O66 Zn10 1.958420 1_555
O67 Si0 1.630773 1_555
O67 Zn4 1.958415 1_555
O68 Si3 1.630773 1_655
O68 Zn11 1.958420 1_555
O69 Si1 1.630773 1_555
O69 Zn5 1.958415 1_555
O70 Si2 1.630773 1_555
O70 Zn6 1.958415 1_655
O71 Si3 1.630773 1_555
O71 Zn8 1.958415 1_455
