# generated using pymatgen
data_Ta2Zn2NiO8
_symmetry_space_group_name_H-M   'P 1'
_cell_length_a   5.27353533
_cell_length_b   5.91557627
_cell_length_c   19.23424370
_cell_angle_alpha   90.04562424
_cell_angle_beta   89.73522685
_cell_angle_gamma   89.99559453
_symmetry_Int_Tables_number   1
_chemical_formula_structural   Ta2Zn2NiO8
_chemical_formula_sum   'Ta8 Zn8 Ni4 O32'
_cell_volume   600.02487566
_cell_formula_units_Z   4
loop_
 _symmetry_equiv_pos_site_id
 _symmetry_equiv_pos_as_xyz
  1  'x, y, z'
loop_
 _atom_site_type_symbol
 _atom_site_label
 _atom_site_symmetry_multiplicity
 _atom_site_fract_x
 _atom_site_fract_y
 _atom_site_fract_z
 _atom_site_occupancy
  Ta  Ta0  1  0.73107000  0.15912900  0.11328300  1
  Ta  Ta1  1  0.73104600  0.65913100  0.61328700  1
  Ta  Ta2  1  0.76455700  0.65828400  0.38670200  1
  Ta  Ta3  1  0.76453800  0.15827900  0.88671100  1
  Ta  Ta4  1  0.26446700  0.34293100  0.38669900  1
  Ta  Ta5  1  0.26445400  0.84292700  0.88670900  1
  Ta  Ta6  1  0.23118700  0.84429800  0.11335900  1
  Ta  Ta7  1  0.23116400  0.34429600  0.61336200  1
  Zn  Zn0  1  0.76804400  0.15506500  0.28190800  1
  Zn  Zn1  1  0.76805100  0.65507100  0.78192900  1
  Zn  Zn2  1  0.72805500  0.65547800  0.21788700  1
  Zn  Zn3  1  0.72806500  0.15547300  0.71790800  1
  Zn  Zn4  1  0.22818000  0.34748600  0.21823000  1
  Zn  Zn5  1  0.22818600  0.84748700  0.71825200  1
  Zn  Zn6  1  0.26818400  0.84621400  0.28229400  1
  Zn  Zn7  1  0.26819000  0.34620500  0.78231600  1
  Ni  Ni0  1  0.74804000  0.14007400  0.49995000  1
  Ni  Ni1  1  0.24821000  0.86244700  0.49997600  1
  Ni  Ni2  1  0.74801000  0.63999100  0.99993500  1
  Ni  Ni3  1  0.24819500  0.36258500  0.99998200  1
  O  O0  1  0.06965800  0.11843600  0.06817200  1
  O  O1  1  0.06948700  0.61838700  0.56812000  1
  O  O2  1  0.42648700  0.61782000  0.43189400  1
  O  O3  1  0.42646800  0.11779800  0.93187200  1
  O  O4  1  0.92629200  0.38325000  0.43192300  1
  O  O5  1  0.92627500  0.88328100  0.93188200  1
  O  O6  1  0.56970300  0.88462900  0.06802400  1
  O  O7  1  0.56968400  0.38460900  0.56798300  1
  O  O8  1  0.58381900  0.37849200  0.05763600  1
  O  O9  1  0.58382500  0.87847400  0.55764700  1
  O  O10  1  0.91207000  0.87748200  0.44234000  1
  O  O11  1  0.91207600  0.37748700  0.94235300  1
  O  O12  1  0.41229700  0.12398300  0.44220600  1
  O  O13  1  0.41230200  0.62396600  0.94221800  1
  O  O14  1  0.08441500  0.62471500  0.05771700  1
  O  O15  1  0.08442600  0.12473000  0.55772800  1
  O  O16  1  0.43004000  0.10402500  0.17649200  1
  O  O17  1  0.43001200  0.60406800  0.67648900  1
  O  O18  1  0.06547100  0.60281400  0.32353200  1
  O  O19  1  0.06535900  0.10271600  0.82351400  1
  O  O20  1  0.92954800  0.89896000  0.17644000  1
  O  O21  1  0.92955300  0.39891500  0.67640900  1
  O  O22  1  0.56518200  0.39802200  0.32340100  1
  O  O23  1  0.56511300  0.89808400  0.82338900  1
  O  O24  1  0.35641300  0.65127500  0.19310600  1
  O  O25  1  0.35653300  0.15128000  0.69308000  1
  O  O26  1  0.13907700  0.14915800  0.30717100  1
  O  O27  1  0.13912100  0.64919900  0.80713900  1
  O  O28  1  0.63974700  0.85219400  0.30707600  1
  O  O29  1  0.63988400  0.35212800  0.80705500  1
  O  O30  1  0.85723100  0.35261600  0.19299700  1
  O  O31  1  0.85724900  0.85266400  0.69298300  1
loop_
_geom_bond_atom_site_label_1
_geom_bond_atom_site_label_2
_geom_bond_distance
_geom_bond_site_symmetry_2
Ni0 O9 2.090543 1_545
Ni0 O10 2.092200 1_545
Ni0 O12 2.096550 1_555
Ni0 O15 2.099641 1_655
Ni0 O4 2.157977 1_555
Ni0 O7 2.162165 1_555
Ni1 O12 2.090728 1_565
Ni1 O15 2.091753 1_565
Ni1 O9 2.095212 1_555
Ni1 O10 2.097007 1_455
Ni1 O2 2.162917 1_555
Ni1 O1 2.163903 1_555
Ni2 O8 2.090089 1_556
Ni2 O11 2.091608 1_555
Ni2 O13 2.096099 1_555
Ni2 O14 2.099750 1_656
Ni2 O5 2.158759 1_555
Ni2 O6 2.163110 1_556
Ni3 O13 2.090032 1_555
Ni3 O14 2.090901 1_556
Ni3 O8 2.095046 1_556
Ni3 O11 2.096808 1_455
Ni3 O3 2.163865 1_555
Ni3 O0 2.164365 1_556
O0 Ta0 1.996071 1_455
O0 Ta6 2.029716 1_545
O1 Ta1 1.995880 1_455
O1 Ta7 2.030279 1_555
O2 Ta2 1.994342 1_555
O2 Ta4 2.033424 1_555
O3 Ta3 1.994097 1_555
O3 Ta5 2.033062 1_545
O4 Ta4 1.994800 1_655
O4 Ta2 2.034694 1_555
O5 Ta5 1.994420 1_655
O5 Ta3 2.034114 1_565
O6 Ta6 1.997534 1_555
O6 Ta0 2.030661 1_565
O7 Ta7 1.997906 1_555
O7 Ta1 2.031126 1_555
O8 Ta0 1.855334 1_555
O9 Ta1 1.855106 1_555
O10 Ta2 1.854025 1_555
O11 Ta3 1.854166 1_555
O12 Ta4 1.853346 1_555
O13 Ta5 1.853462 1_555
O14 Ta6 1.854016 1_555
O15 Ta7 1.853782 1_555
O16 Zn4 1.960080 1_555
O16 Ta0 2.021726 1_555
O16 Ta6 2.223494 1_545
O17 Zn5 1.959997 1_555
O17 Ta1 2.021623 1_555
O17 Ta7 2.223602 1_555
O18 Zn6 1.959418 1_555
O18 Ta2 2.020797 1_455
O18 Ta4 2.226072 1_555
O19 Zn7 1.959834 1_555
O19 Ta3 2.020813 1_455
O19 Ta5 2.226231 1_545
O20 Zn2 1.957910 1_555
O20 Ta6 2.022002 1_655
O20 Ta0 2.225843 1_565
O21 Zn3 1.958127 1_555
O21 Ta7 2.021456 1_655
O21 Ta1 2.225739 1_555
O22 Zn0 1.958850 1_555
O22 Ta4 2.021439 1_555
O22 Ta2 2.228755 1_555
O23 Zn1 1.959054 1_555
O23 Ta5 2.021525 1_555
O23 Ta3 2.228828 1_565
O24 Zn4 1.979620 1_555
O24 Zn2 2.019284 1_555
O24 Ta6 2.026009 1_555
O24 Zn6 2.116248 1_555
O25 Zn5 1.980071 1_545
O25 Zn3 2.018938 1_555
O25 Ta7 2.025811 1_555
O25 Zn7 2.117080 1_555
O26 Zn6 1.974722 1_545
O26 Zn0 2.018574 1_455
O26 Ta4 2.024288 1_555
O26 Zn4 2.125945 1_555
O27 Zn7 1.974672 1_555
O27 Zn1 2.018510 1_455
O27 Ta5 2.024649 1_555
O27 Zn5 2.124935 1_555
O28 Zn0 1.975012 1_565
O28 Zn6 2.019040 1_555
O28 Ta2 2.026489 1_555
O28 Zn2 2.122093 1_555
O29 Zn1 1.974968 1_555
O29 Zn7 2.019506 1_555
O29 Ta3 2.026452 1_555
O29 Zn3 2.121099 1_555
O30 Zn2 1.974467 1_555
O30 Zn4 2.017927 1_655
O30 Ta0 2.027386 1_555
O30 Zn0 2.123040 1_555
O31 Zn3 1.974359 1_565
O31 Zn5 2.018040 1_655
O31 Ta1 2.027351 1_555
O31 Zn1 2.123732 1_555
