# generated using pymatgen
data_CaSb2O5
_symmetry_space_group_name_H-M   'P 1'
_cell_length_a   3.87834200
_cell_length_b   5.16183300
_cell_length_c   13.45351900
_cell_angle_alpha   90.00000000
_cell_angle_beta   90.00000000
_cell_angle_gamma   90.00000000
_symmetry_Int_Tables_number   1
_chemical_formula_structural   CaSb2O5
_chemical_formula_sum   'Ca2 Sb4 O10'
_cell_volume   269.33075565
_cell_formula_units_Z   2
loop_
 _symmetry_equiv_pos_site_id
 _symmetry_equiv_pos_as_xyz
  1  'x, y, z'
loop_
 _atom_site_type_symbol
 _atom_site_label
 _atom_site_symmetry_multiplicity
 _atom_site_fract_x
 _atom_site_fract_y
 _atom_site_fract_z
 _atom_site_occupancy
  Ca  Ca0  1  0.50000000  0.60527500  0.00000000  1
  Ca  Ca1  1  0.00000000  0.39472500  0.50000000  1
  Sb  Sb0  1  0.00000000  0.07686100  0.86021100  1
  Sb  Sb1  1  0.50000000  0.92313900  0.63978900  1
  Sb  Sb2  1  0.50000000  0.92313900  0.36021100  1
  Sb  Sb3  1  0.00000000  0.07686100  0.13978900  1
  O  O0  1  0.50000000  0.07808700  0.50000000  1
  O  O1  1  0.00000000  0.92191300  0.00000000  1
  O  O2  1  0.50000000  0.95065300  0.83944300  1
  O  O3  1  0.00000000  0.04934700  0.66055700  1
  O  O4  1  0.50000000  0.95065300  0.16055700  1
  O  O5  1  0.00000000  0.04934700  0.33944300  1
  O  O6  1  0.00000000  0.43665900  0.10549500  1
  O  O7  1  0.50000000  0.56334100  0.39450500  1
  O  O8  1  0.50000000  0.56334100  0.60549500  1
  O  O9  1  0.00000000  0.43665900  0.89450500  1
loop_
_geom_bond_atom_site_label_1
_geom_bond_atom_site_label_2
_geom_bond_distance
_geom_bond_site_symmetry_2
Ca0 O1 2.536090 1_655
Ca0 O1 2.536090 1_555
Ca0 O6 2.555832 1_555
Ca0 O6 2.555832 1_655
Ca0 O9 2.555832 1_654
Ca0 O9 2.555832 1_554
Ca0 O4 2.800743 1_555
Ca0 O2 2.800743 1_554
Ca1 O0 2.536090 1_455
Ca1 O0 2.536090 1_555
Ca1 O8 2.555832 1_455
Ca1 O7 2.555832 1_555
Ca1 O8 2.555832 1_555
Ca1 O7 2.555832 1_455
Ca1 O3 2.800743 1_555
Ca1 O5 2.800743 1_555
O0 Sb2 2.043664 1_545
O0 Sb1 2.043664 1_545
O1 Sb3 2.043664 1_565
O1 Sb0 2.043664 1_564
O2 Sb0 2.064669 1_665
O2 Sb0 2.064669 1_565
O2 Sb1 2.689801 1_555
O3 Sb1 2.064669 1_445
O3 Sb1 2.064669 1_545
O3 Sb0 2.689801 1_555
O4 Sb3 2.064669 1_565
O4 Sb3 2.064669 1_665
O4 Sb2 2.689801 1_555
O5 Sb2 2.064669 1_545
O5 Sb2 2.064669 1_445
O5 Sb3 2.689801 1_555
O6 Sb3 1.913667 1_555
O7 Sb2 1.913667 1_555
O8 Sb1 1.913667 1_555
O9 Sb0 1.913667 1_555
