# generated using pymatgen
data_KNaMg14
_symmetry_space_group_name_H-M   'P 1'
_cell_length_a   6.68134920
_cell_length_b   6.68134861
_cell_length_c   10.40584901
_cell_angle_alpha   90.00000000
_cell_angle_beta   90.00000000
_cell_angle_gamma   120.00000291
_symmetry_Int_Tables_number   1
_chemical_formula_structural   KNaMg14
_chemical_formula_sum   'K1 Na1 Mg14'
_cell_volume   402.28741094
_cell_formula_units_Z   1
loop_
 _symmetry_equiv_pos_site_id
 _symmetry_equiv_pos_as_xyz
  1  'x, y, z'
loop_
 _atom_site_type_symbol
 _atom_site_label
 _atom_site_symmetry_multiplicity
 _atom_site_fract_x
 _atom_site_fract_y
 _atom_site_fract_z
 _atom_site_occupancy
  K  K0  1  0.16666700  0.33333300  0.12500000  1
  Na  Na0  1  0.16666700  0.33333300  0.62500000  1
  Mg  Mg0  1  0.17122175  0.83561038  0.12500000  1
  Mg  Mg1  1  0.16859181  0.83429541  0.62500000  1
  Mg  Mg2  1  0.66438962  0.32877825  0.12500000  1
  Mg  Mg3  1  0.66570459  0.33140819  0.62500000  1
  Mg  Mg4  1  0.66438962  0.83561038  0.12500000  1
  Mg  Mg5  1  0.66570459  0.83429541  0.62500000  1
  Mg  Mg6  1  0.33974860  0.16025140  0.38165984  1
  Mg  Mg7  1  0.33974860  0.16025140  0.86834016  1
  Mg  Mg8  1  0.33974860  0.67949819  0.38165984  1
  Mg  Mg9  1  0.33974860  0.67949819  0.86834016  1
  Mg  Mg10  1  0.82050181  0.16025140  0.38165984  1
  Mg  Mg11  1  0.82050181  0.16025140  0.86834016  1
  Mg  Mg12  1  0.83333300  0.66666700  0.37321590  1
  Mg  Mg13  1  0.83333300  0.66666700  0.87678410  1
loop_
_geom_bond_atom_site_label_1
_geom_bond_atom_site_label_2
_geom_bond_distance
_geom_bond_site_symmetry_2
K0 Mg7 3.338396 1_554
K0 Mg6 3.338396 1_555
K0 Mg8 3.338403 1_555
K0 Mg9 3.338403 1_554
K0 Mg11 3.338403 1_454
K0 Mg10 3.338403 1_455
K0 Mg0 3.340778 1_545
K0 Mg4 3.340778 1_555
K0 Mg4 3.340778 1_445
K0 Mg0 3.340778 1_555
K0 Mg2 3.340779 1_555
K0 Mg2 3.340779 1_455
Mg0 Mg12 3.239408 1_455
Mg0 Mg13 3.239408 1_454
Mg0 Mg9 3.265456 1_554
Mg0 Mg8 3.265456 1_555
Mg0 Mg7 3.265463 1_564
Mg0 Mg6 3.265463 1_565
Mg0 Mg2 3.295026 1_565
Mg0 Mg4 3.295027 1_555
Mg0 Mg2 3.386322 1_455
Mg0 Mg4 3.386322 1_455
Mg1 Mg8 3.157844 1_555
Mg1 Mg9 3.157844 1_555
Mg1 Mg6 3.157850 1_565
Mg1 Mg7 3.157850 1_565
Mg1 Mg13 3.260012 1_455
Mg1 Mg12 3.260012 1_455
Mg1 Mg3 3.321384 1_565
Mg1 Mg5 3.321384 1_555
Mg1 Na0 3.340693 1_565
Mg1 Na0 3.340693 1_555
Mg1 Mg3 3.359965 1_455
Mg1 Mg5 3.359965 1_455
Mg2 Mg7 3.265463 1_554
Mg2 Mg6 3.265463 1_555
Mg2 Mg4 3.295026 1_545
Mg2 Mg4 3.386322 1_555
Mg3 Mg6 3.157850 1_555
Mg3 Mg7 3.157850 1_555
Mg3 Mg5 3.321384 1_545
Mg3 Na0 3.340693 1_555
Mg3 Na0 3.340693 1_655
Mg3 Mg5 3.359965 1_555
Mg4 Mg9 3.265463 1_554
Mg4 Mg8 3.265463 1_555
Mg5 Mg8 3.157851 1_555
Mg5 Mg9 3.157851 1_555
Mg5 Na0 3.340693 1_555
Mg5 Na0 3.340693 1_665
Mg6 Mg8 3.212080 1_545
Mg6 Na0 3.228583 1_555
Mg6 Mg8 3.469269 1_555
Mg7 Mg9 3.212080 1_545
Mg7 Na0 3.228583 1_555
Mg7 Mg9 3.469269 1_555
Mg8 Na0 3.228590 1_555
Mg9 Na0 3.228590 1_555
Mg10 Mg3 3.157844 1_555
Mg10 Mg5 3.157850 1_545
Mg10 Mg8 3.212080 1_545
Mg10 Mg6 3.212080 1_555
Mg10 Na0 3.228591 1_655
Mg10 Mg2 3.265456 1_555
Mg10 Mg4 3.265463 1_545
Mg10 Mg12 3.342654 1_545
Mg10 Mg12 3.342654 1_555
Mg10 Mg8 3.469269 1_655
Mg10 Mg6 3.469269 1_655
Mg11 Mg3 3.157844 1_555
Mg11 Mg5 3.157850 1_545
Mg11 Mg9 3.212080 1_545
Mg11 Mg7 3.212080 1_555
Mg11 Na0 3.228591 1_655
Mg11 Mg2 3.265456 1_556
Mg11 Mg4 3.265463 1_546
Mg11 Mg13 3.342654 1_545
Mg11 Mg13 3.342654 1_555
Mg11 Mg9 3.469269 1_655
Mg11 Mg7 3.469269 1_655
Mg12 Mg4 3.239401 1_555
Mg12 Mg2 3.239408 1_555
Mg12 Mg5 3.260005 1_555
Mg12 Mg3 3.260012 1_555
Mg12 Mg6 3.342654 1_555
Mg12 Mg6 3.342654 1_665
Mg12 Mg8 3.342655 1_555
Mg12 Mg8 3.342655 1_655
Mg13 Mg4 3.239401 1_556
Mg13 Mg2 3.239408 1_556
Mg13 Mg5 3.260005 1_555
Mg13 Mg3 3.260012 1_555
Mg13 Mg7 3.342654 1_555
Mg13 Mg7 3.342654 1_665
Mg13 Mg9 3.342655 1_555
Mg13 Mg9 3.342655 1_655
