# generated using pymatgen
data_Zr5Sn3B
_symmetry_space_group_name_H-M   'P 1'
_cell_length_a   8.55114827
_cell_length_b   8.55114827
_cell_length_c   5.83921103
_cell_angle_alpha   90.00000000
_cell_angle_beta   90.00000000
_cell_angle_gamma   120.00000178
_symmetry_Int_Tables_number   1
_chemical_formula_structural   Zr5Sn3B
_chemical_formula_sum   'Zr10 Sn6 B2'
_cell_volume   369.77169883
_cell_formula_units_Z   2
loop_
 _symmetry_equiv_pos_site_id
 _symmetry_equiv_pos_as_xyz
  1  'x, y, z'
loop_
 _atom_site_type_symbol
 _atom_site_label
 _atom_site_symmetry_multiplicity
 _atom_site_fract_x
 _atom_site_fract_y
 _atom_site_fract_z
 _atom_site_occupancy
  Zr  Zr0  1  0.66666700  0.33333300  -0.00000000  1
  Zr  Zr1  1  0.33333300  0.66666700  -0.00000000  1
  Zr  Zr2  1  0.33333300  0.66666700  0.50000000  1
  Zr  Zr3  1  0.66666700  0.33333300  0.50000000  1
  Zr  Zr4  1  0.77139363  0.77139363  0.75000000  1
  Zr  Zr5  1  0.22860637  -0.00000000  0.75000000  1
  Zr  Zr6  1  -0.00000000  0.22860637  0.75000000  1
  Zr  Zr7  1  0.22860637  0.22860637  0.25000000  1
  Zr  Zr8  1  0.77139363  0.00000000  0.25000000  1
  Zr  Zr9  1  0.00000000  0.77139363  0.25000000  1
  Sn  Sn0  1  0.39885829  0.39885829  0.75000000  1
  Sn  Sn1  1  0.60114171  0.00000000  0.75000000  1
  Sn  Sn2  1  0.00000000  0.60114171  0.75000000  1
  Sn  Sn3  1  0.60114171  0.60114171  0.25000000  1
  Sn  Sn4  1  0.39885829  -0.00000000  0.25000000  1
  Sn  Sn5  1  -0.00000000  0.39885829  0.25000000  1
  B  B0  1  -0.00000000  -0.00000000  -0.00000000  1
  B  B1  1  -0.00000000  -0.00000000  0.50000000  1
loop_
_geom_bond_atom_site_label_1
_geom_bond_atom_site_label_2
_geom_bond_distance
_geom_bond_site_symmetry_2
Sn0 Zr6 2.964268 1_555
Sn0 Zr5 2.964268 1_555
Sn0 Zr2 2.995425 1_555
Sn0 Zr0 2.995425 1_556
Sn0 Zr3 2.995425 1_555
Sn0 Zr1 2.995425 1_556
Sn0 Zr4 3.185605 1_555
Sn0 Zr7 3.262452 1_555
Sn0 Zr7 3.262452 1_556
Sn1 Zr6 2.964268 1_655
Sn1 Zr4 2.964268 1_545
Sn1 Zr3 2.995418 1_555
Sn1 Zr0 2.995418 1_556
Sn1 Zr1 2.995420 1_546
Sn1 Zr2 2.995420 1_545
Sn1 Zr5 3.185605 1_555
Sn1 Zr8 3.262452 1_556
Sn1 Zr8 3.262452 1_555
Sn2 Zr5 2.964268 1_565
Sn2 Zr4 2.964268 1_455
Sn2 Zr1 2.995418 1_556
Sn2 Zr2 2.995418 1_555
Sn2 Zr0 2.995420 1_456
Sn2 Zr3 2.995420 1_455
Sn2 Zr6 3.185605 1_555
Sn2 Zr9 3.262452 1_556
Sn2 Zr9 3.262452 1_555
Sn3 Zr9 2.964268 1_655
Sn3 Zr8 2.964268 1_565
Sn3 Zr3 2.995425 1_555
Sn3 Zr0 2.995425 1_555
Sn3 Zr2 2.995425 1_555
Sn3 Zr1 2.995425 1_555
Sn3 Zr7 3.185605 1_555
Sn3 Zr4 3.262452 1_555
Sn3 Zr4 3.262452 1_554
Sn4 Zr9 2.964268 1_545
Sn4 Zr7 2.964268 1_555
Sn4 Zr2 2.995418 1_545
Sn4 Zr1 2.995418 1_545
Sn4 Zr3 2.995420 1_555
Sn4 Zr0 2.995420 1_555
Sn4 Zr8 3.185605 1_555
Sn4 Zr5 3.262452 1_555
Sn4 Zr5 3.262452 1_554
Sn5 Zr8 2.964268 1_455
Sn5 Zr7 2.964268 1_555
Sn5 Zr3 2.995418 1_455
Sn5 Zr0 2.995418 1_455
Sn5 Zr2 2.995420 1_555
Sn5 Zr1 2.995420 1_555
Sn5 Zr9 3.185605 1_555
Sn5 Zr6 3.262452 1_555
Sn5 Zr6 3.262452 1_554
B0 Zr7 2.439764 1_555
B0 Zr4 2.439764 1_444
B0 Zr9 2.439764 1_545
B0 Zr8 2.439764 1_455
B0 Zr6 2.439764 1_554
B0 Zr5 2.439764 1_554
B1 Zr7 2.439764 1_555
B1 Zr4 2.439764 1_445
B1 Zr9 2.439764 1_545
B1 Zr8 2.439764 1_455
B1 Zr5 2.439764 1_555
B1 Zr6 2.439764 1_555
