# generated using pymatgen
data_KCe(WO4)2
_symmetry_space_group_name_H-M   'P 1'
_cell_length_a   7.55850550
_cell_length_b   7.55850550
_cell_length_c   7.64245800
_cell_angle_alpha   66.24020897
_cell_angle_beta   66.24020897
_cell_angle_gamma   92.98440406
_symmetry_Int_Tables_number   1
_chemical_formula_structural   KCe(WO4)2
_chemical_formula_sum   'K2 Ce2 W4 O16'
_cell_volume   353.56198231
_cell_formula_units_Z   2
loop_
 _symmetry_equiv_pos_site_id
 _symmetry_equiv_pos_as_xyz
  1  'x, y, z'
loop_
 _atom_site_type_symbol
 _atom_site_label
 _atom_site_symmetry_multiplicity
 _atom_site_fract_x
 _atom_site_fract_y
 _atom_site_fract_z
 _atom_site_occupancy
  K  K0  1  0.68917600  0.68917600  0.47239600  1
  K  K1  1  0.31082400  0.31082400  0.52760400  1
  Ce  Ce0  1  0.70097700  0.29902300  0.00000000  1
  Ce  Ce1  1  0.29902300  0.70097700  0.00000000  1
  W  W0  1  0.20523800  0.20523800  0.05709100  1
  W  W1  1  0.79476200  0.79476200  0.94290900  1
  W  W2  1  0.83904700  0.16095300  0.50000000  1
  W  W3  1  0.16095300  0.83904700  0.50000000  1
  O  O0  1  0.34611600  0.09483100  0.25931400  1
  O  O1  1  0.65388400  0.90516900  0.74068600  1
  O  O2  1  0.90516900  0.65388400  0.74068600  1
  O  O3  1  0.09483100  0.34611600  0.25931400  1
  O  O4  1  0.69188200  0.21491200  0.35466500  1
  O  O5  1  0.30811800  0.78508800  0.64533500  1
  O  O6  1  0.78508800  0.30811800  0.64533500  1
  O  O7  1  0.21491200  0.69188200  0.35466500  1
  O  O8  1  0.70621000  0.96005700  0.06293400  1
  O  O9  1  0.29379000  0.03994300  0.93706600  1
  O  O10  1  0.03994300  0.29379000  0.93706600  1
  O  O11  1  0.96005700  0.70621000  0.06293400  1
  O  O12  1  0.98305200  0.98305200  0.34545000  1
  O  O13  1  0.01694800  0.01694800  0.65455000  1
  O  O14  1  0.57262800  0.57262800  0.11087100  1
  O  O15  1  0.42737200  0.42737200  0.88912900  1
loop_
_geom_bond_atom_site_label_1
_geom_bond_atom_site_label_2
_geom_bond_distance
_geom_bond_site_symmetry_2
K0 O12 2.611979 1_555
K0 O15 2.722191 1_555
K0 O8 2.913101 1_555
K0 O11 2.913101 1_555
K0 O5 2.913782 1_555
K0 O6 2.913782 1_555
K0 O1 3.040166 1_555
K0 O2 3.040166 1_555
K1 O13 2.611979 1_555
K1 O14 2.722191 1_555
K1 O10 2.913101 1_555
K1 O9 2.913101 1_555
K1 O7 2.913782 1_555
K1 O4 2.913782 1_555
K1 O3 3.040166 1_555
K1 O0 3.040166 1_555
Ce0 O10 2.414546 1_654
Ce0 O8 2.414546 1_545
Ce0 O6 2.492490 1_554
Ce0 O4 2.492490 1_555
Ce0 O0 2.514904 1_555
Ce0 O2 2.514904 1_554
Ce0 O15 2.625731 1_554
Ce0 O14 2.625731 1_555
Ce1 O9 2.414546 1_564
Ce1 O11 2.414546 1_455
Ce1 O7 2.492490 1_555
Ce1 O5 2.492490 1_554
Ce1 O3 2.514904 1_555
Ce1 O1 2.514904 1_554
Ce1 O15 2.625731 1_554
Ce1 O14 2.625731 1_555
O0 W3 1.964237 1_545
O0 W0 2.144326 1_555
O1 W2 1.964237 1_565
O1 W1 2.144326 1_555
O2 W3 1.964237 1_655
O2 W1 2.144326 1_555
O3 W2 1.964237 1_455
O3 W0 2.144326 1_555
O4 W2 1.820750 1_555
O5 W3 1.820750 1_555
O6 W2 1.820750 1_555
O7 W3 1.820750 1_555
O8 W1 1.834719 1_554
O9 W0 1.834719 1_556
O10 W0 1.834719 1_556
O11 W1 1.834719 1_554
O12 W0 2.058903 1_665
O12 W3 2.187287 1_655
O12 W2 2.187287 1_565
O13 W1 2.058903 1_445
O13 W2 2.187287 1_455
O13 W3 2.187287 1_545
O14 W1 1.875867 1_554
O15 W0 1.875867 1_556
