# generated using pymatgen
data_Mg5Si6
_symmetry_space_group_name_H-M   'P 1'
_cell_length_a   4.11965000
_cell_length_b   6.89316759
_cell_length_c   14.47340944
_cell_angle_alpha   82.05604439
_cell_angle_beta   85.14298125
_cell_angle_gamma   88.20709880
_symmetry_Int_Tables_number   1
_chemical_formula_structural   Mg5Si6
_chemical_formula_sum   'Mg10 Si12'
_cell_volume   405.52198969
_cell_formula_units_Z   2
loop_
 _symmetry_equiv_pos_site_id
 _symmetry_equiv_pos_as_xyz
  1  'x, y, z'
loop_
 _atom_site_type_symbol
 _atom_site_label
 _atom_site_symmetry_multiplicity
 _atom_site_fract_x
 _atom_site_fract_y
 _atom_site_fract_z
 _atom_site_occupancy
  Mg  Mg0  1  0.85693500  0.88839800  0.75561200  1
  Mg  Mg1  1  0.14306500  0.11160200  0.24438800  1
  Mg  Mg2  1  0.55518200  0.20169500  0.40374200  1
  Mg  Mg3  1  0.70567600  0.96845200  0.09341600  1
  Mg  Mg4  1  0.29432400  0.03154800  0.90658400  1
  Mg  Mg5  1  0.44481800  0.79830500  0.59625800  1
  Mg  Mg6  1  0.63841500  0.78020300  0.32165300  1
  Mg  Mg7  1  0.66199900  0.44337800  0.17711600  1
  Mg  Mg8  1  0.33800100  0.55662200  0.82288400  1
  Mg  Mg9  1  0.36158500  0.21979700  0.67834700  1
  Si  Si0  1  0.89539500  0.53722200  0.68654900  1
  Si  Si1  1  0.81735400  0.25256800  0.80539200  1
  Si  Si2  1  0.18264600  0.74743200  0.19460800  1
  Si  Si3  1  0.10460500  0.46277800  0.31345100  1
  Si  Si4  1  0.93199800  0.07878600  0.56843200  1
  Si  Si5  1  0.76604500  0.71578700  0.94315500  1
  Si  Si6  1  0.23395500  0.28421300  0.05684500  1
  Si  Si7  1  0.23857600  0.56826300  0.46108700  1
  Si  Si8  1  0.76142400  0.43173700  0.53891300  1
  Si  Si9  1  0.76051400  0.34512500  0.95862200  1
  Si  Si10  1  0.23948600  0.65487500  0.04137800  1
  Si  Si11  1  0.06800200  0.92121400  0.43156800  1
loop_
_geom_bond_atom_site_label_1
_geom_bond_atom_site_label_2
_geom_bond_distance
_geom_bond_site_symmetry_2
Mg0 Si1 2.702153 1_565
Mg0 Si0 2.739001 1_555
Mg0 Si5 2.808356 1_555
Mg0 Si4 2.838687 1_565
Mg1 Si2 2.702153 1_545
Mg1 Si3 2.739001 1_555
Mg1 Si6 2.808356 1_555
Mg1 Si11 2.838687 1_545
Mg2 Si11 2.796255 1_545
Mg2 Si3 2.818487 1_555
Mg2 Si11 2.834916 1_645
Mg2 Si8 2.878736 1_555
Mg2 Si4 2.965697 1_555
Mg2 Si7 2.994163 1_555
Mg2 Si3 3.028812 1_655
Mg3 Si2 2.830272 1_655
Mg3 Si2 2.857125 1_555
Mg3 Si6 2.895738 1_565
Mg3 Si5 2.958584 1_554
Mg3 Si9 3.026670 1_564
Mg3 Si6 3.088205 1_665
Mg3 Si10 3.143674 1_555
Mg3 Si10 3.153993 1_655
Mg4 Si1 2.830272 1_455
Mg4 Si1 2.857125 1_555
Mg4 Si5 2.895738 1_545
Mg4 Si6 2.958584 1_556
Mg4 Si10 3.026670 1_546
Mg4 Si5 3.088205 1_445
Mg4 Si9 3.143674 1_555
Mg4 Si9 3.153993 1_455
Mg5 Si4 2.796255 1_565
Mg5 Si0 2.818487 1_555
Mg5 Si4 2.834916 1_465
Mg5 Si7 2.878736 1_555
Mg5 Si11 2.965697 1_555
Mg5 Si8 2.994163 1_555
Mg5 Si0 3.028812 1_455
Mg6 Si11 2.760329 1_655
Mg6 Si2 2.771918 1_555
Mg6 Si7 2.773625 1_555
Mg6 Si2 2.800691 1_655
Mg6 Si3 2.874095 1_655
Mg6 Si11 2.940932 1_555
Mg6 Si3 3.170946 1_555
Mg7 Si3 2.816686 1_655
Mg7 Si2 2.856500 1_555
Mg7 Si3 2.910466 1_555
Mg7 Si6 2.917567 1_555
Mg7 Si10 2.939959 1_555
Mg7 Si6 3.075290 1_655
Mg7 Si2 3.094724 1_655
Mg7 Si10 3.206055 1_655
Mg8 Si0 2.816686 1_455
Mg8 Si1 2.856500 1_555
Mg8 Si0 2.910466 1_555
Mg8 Si5 2.917567 1_555
Mg8 Si9 2.939959 1_555
Mg8 Si5 3.075290 1_455
Mg8 Si1 3.094724 1_455
Mg8 Si9 3.206055 1_455
Mg9 Si4 2.760329 1_455
Mg9 Si1 2.771918 1_555
Mg9 Si8 2.773625 1_555
Mg9 Si1 2.800691 1_455
Mg9 Si0 2.874095 1_455
Mg9 Si4 2.940932 1_555
Mg9 Si0 3.170946 1_555
Si0 Si1 2.434136 1_555
Si0 Si8 2.460386 1_555
Si1 Si9 2.382051 1_555
Si2 Si3 2.434136 1_555
Si3 Si7 2.460386 1_555
Si4 Si8 2.500424 1_555
Si5 Si9 2.534466 1_555
Si6 Si9 2.500942 1_454
Si6 Si9 2.504534 1_554
Si7 Si8 2.337997 1_455
Si7 Si8 2.604796 1_555
Si10 Si2 2.382051 1_555
Si10 Si5 2.500942 1_454
Si10 Si5 2.504534 1_554
Si10 Si6 2.534466 1_555
Si11 Si4 2.405473 1_465
Si11 Si7 2.500424 1_555
