# generated using pymatgen
data_Li7Mn4CoO12
_symmetry_space_group_name_H-M   'P 1'
_cell_length_a   7.97666971
_cell_length_b   7.97666971
_cell_length_c   9.76385779
_cell_angle_alpha   81.85748974
_cell_angle_beta   81.85748974
_cell_angle_gamma   20.77473837
_symmetry_Int_Tables_number   1
_chemical_formula_structural   Li7Mn4CoO12
_chemical_formula_sum   'Li7 Mn4 Co1 O12'
_cell_volume   218.05679019
_cell_formula_units_Z   1
loop_
 _symmetry_equiv_pos_site_id
 _symmetry_equiv_pos_as_xyz
  1  'x, y, z'
loop_
 _atom_site_type_symbol
 _atom_site_label
 _atom_site_symmetry_multiplicity
 _atom_site_fract_x
 _atom_site_fract_y
 _atom_site_fract_z
 _atom_site_occupancy
  Li  Li0  1  0.58523500  0.58523500  0.75559900  1
  Li  Li1  1  0.74808300  0.74808300  0.24374100  1
  Li  Li2  1  0.91572000  0.91572000  0.74975800  1
  Li  Li3  1  0.24715900  0.24715900  0.75351400  1
  Li  Li4  1  0.41679400  0.41679400  0.25245800  1
  Li  Li5  1  0.08738900  0.08738900  0.24408100  1
  Li  Li6  1  0.66674900  0.66674900  0.99991100  1
  Mn  Mn0  1  0.00441100  0.00441100  0.99732000  1
  Mn  Mn1  1  0.32908600  0.32908600  0.00281000  1
  Mn  Mn2  1  0.16850300  0.16850300  0.49888000  1
  Mn  Mn3  1  0.49796500  0.49796500  0.49989300  1
  Co  Co0  1  0.83344800  0.83344800  0.50116700  1
  O  O0  1  0.45481300  0.45481300  0.89316400  1
  O  O1  1  0.63314300  0.63314300  0.38036900  1
  O  O2  1  0.79796700  0.79796800  0.88669300  1
  O  O3  1  0.10873000  0.10873000  0.88710900  1
  O  O4  1  0.30041800  0.30041800  0.38710500  1
  O  O5  1  0.96344500  0.96344500  0.38197300  1
  O  O6  1  0.70263700  0.70263700  0.61797700  1
  O  O7  1  0.87829300  0.87829300  0.10698100  1
  O  O8  1  0.03321400  0.03321400  0.61654700  1
  O  O9  1  0.36639500  0.36639500  0.61621500  1
  O  O10  1  0.53557900  0.53557900  0.11319600  1
  O  O11  1  0.22483400  0.22483400  0.11353800  1
loop_
_geom_bond_atom_site_label_1
_geom_bond_atom_site_label_2
_geom_bond_distance
_geom_bond_site_symmetry_2
Li0 O3 1.997370 1_655
Li0 O3 1.997370 1_565
Li0 O6 2.118157 1_555
Li0 O8 2.212983 1_655
Li0 O8 2.212983 1_565
Li0 O0 2.280543 1_555
Li1 O11 1.987782 1_655
Li1 O11 1.987782 1_565
Li1 O1 2.083204 1_555
Li1 O4 2.243511 1_655
Li1 O4 2.243511 1_565
Li1 O7 2.274232 1_555
Li2 O8 2.097696 1_665
Li2 O2 2.119043 1_555
Li2 O0 2.157008 1_655
Li2 O0 2.157008 1_565
Li2 O9 2.158314 1_655
Li2 O9 2.158314 1_565
Li3 O6 2.138714 1_545
Li3 O6 2.138714 1_455
Li3 O9 2.139053 1_555
Li3 O2 2.166464 1_545
Li3 O2 2.166465 1_455
Li3 O3 2.367269 1_555
Li4 O4 2.090888 1_555
Li4 O5 2.114253 1_545
Li4 O5 2.114253 1_455
Li4 O10 2.143202 1_555
Li4 O7 2.167528 1_545
Li4 O7 2.167528 1_455
Li5 O1 2.151704 1_455
Li5 O1 2.151704 1_545
Li5 O10 2.159112 1_545
Li5 O10 2.159112 1_455
Li5 O5 2.200285 1_445
Li5 O11 2.341918 1_555
Li6 O3 2.097416 1_565
Li6 O3 2.097416 1_655
Li6 O11 2.102687 1_566
Li6 O11 2.102687 1_656
Li6 O10 2.191895 1_556
Li6 O2 2.192313 1_555
Mn0 O3 1.824912 1_555
Mn0 O10 1.935737 1_456
Mn0 O10 1.935737 1_546
Mn0 O0 1.984022 1_455
Mn0 O0 1.984022 1_545
Mn0 O7 2.110151 1_446
Mn1 O11 1.826389 1_555
Mn1 O2 1.936936 1_544
Mn1 O2 1.936938 1_454
Mn1 O7 1.981253 1_455
Mn1 O7 1.981253 1_545
Mn1 O0 2.104793 1_554
Mn2 O6 1.971532 1_455
Mn2 O6 1.971532 1_545
Mn2 O1 1.974885 1_455
Mn2 O1 1.974885 1_545
Mn2 O4 2.196664 1_555
Mn2 O8 2.263712 1_555
Mn3 O8 1.962942 1_565
Mn3 O8 1.962942 1_655
Mn3 O5 1.966495 1_545
Mn3 O5 1.966495 1_455
Mn3 O9 2.208423 1_555
Mn3 O1 2.269028 1_555
Co0 O4 1.934844 1_565
Co0 O4 1.934844 1_655
Co0 O9 1.940316 1_565
Co0 O9 1.940316 1_655
Co0 O5 2.198159 1_555
Co0 O6 2.200004 1_555
