# generated using pymatgen
data_LuAl7Fe5
_symmetry_space_group_name_H-M   'P 1'
_cell_length_a   6.59320801
_cell_length_b   6.58741768
_cell_length_c   6.58530438
_cell_angle_alpha   135.68307679
_cell_angle_beta   98.16062050
_cell_angle_gamma   98.20425165
_symmetry_Int_Tables_number   1
_chemical_formula_structural   LuAl7Fe5
_chemical_formula_sum   'Lu1 Al7 Fe5'
_cell_volume   185.04475473
_cell_formula_units_Z   1
loop_
 _symmetry_equiv_pos_site_id
 _symmetry_equiv_pos_as_xyz
  1  'x, y, z'
loop_
 _atom_site_type_symbol
 _atom_site_label
 _atom_site_symmetry_multiplicity
 _atom_site_fract_x
 _atom_site_fract_y
 _atom_site_fract_z
 _atom_site_occupancy
  Lu  Lu0  1  0.00505826  0.00011887  0.00514227  1
  Al  Al0  1  0.66006941  -0.00020588  0.65994481  1
  Al  Al1  1  0.33877490  0.00008100  0.33885449  1
  Al  Al2  1  0.33586394  0.34268490  0.99338593  1
  Al  Al3  1  0.65066771  0.65742648  0.99329704  1
  Al  Al4  1  0.77386656  0.50000843  0.27383740  1
  Al  Al5  1  0.79470949  0.29115939  0.50358163  1
  Al  Al6  1  0.21233219  0.70872426  0.50354377  1
  Fe  Fe0  1  0.49849118  0.49916871  0.49771966  1
  Fe  Fe1  1  0.49845884  0.00072259  -0.00072409  1
  Fe  Fe2  1  0.99859143  -0.00067773  0.49772668  1
  Fe  Fe3  1  0.99855535  0.50074284  -0.00078375  1
  Fe  Fe4  1  0.23455973  0.50004613  0.73447317  1
loop_
_geom_bond_atom_site_label_1
_geom_bond_atom_site_label_2
_geom_bond_distance
_geom_bond_site_symmetry_2
Al0 Fe0 2.604732 1_545
Al0 Fe1 2.605206 1_556
Al0 Fe3 2.606578 1_556
Al0 Fe2 2.607084 1_555
Al0 Al4 2.671125 1_545
Al0 Al4 2.671163 1_556
Al0 Al1 2.773751 1_555
Al0 Al5 2.851932 1_555
Al0 Al6 2.854317 1_545
Al0 Lu0 2.977420 1_656
Al1 Fe0 2.605695 1_555
Al1 Fe1 2.605732 1_555
Al1 Fe2 2.606852 1_455
Al1 Fe3 2.606929 1_445
Al1 Fe4 2.642054 1_544
Al1 Fe4 2.642407 1_555
Al1 Lu0 2.880765 1_555
Al1 Al6 2.886779 1_545
Al1 Al5 2.888349 1_555
Al2 Fe2 2.579575 1_455
Al2 Fe3 2.580581 1_456
Al2 Fe4 2.613656 1_555
Al2 Fe0 2.648987 1_556
Al2 Fe1 2.650963 1_556
Al2 Al3 2.716722 1_555
Al2 Al6 2.740340 1_556
Al2 Al6 2.741445 1_545
Al2 Al4 2.778012 1_556
Al2 Lu0 2.957809 1_556
Al3 Fe0 2.578265 1_555
Al3 Fe1 2.579585 1_566
Al3 Fe4 2.615100 1_555
Al3 Fe2 2.650569 1_566
Al3 Fe3 2.652496 1_556
Al3 Al5 2.740439 1_566
Al3 Al5 2.740910 1_555
Al3 Al4 2.775597 1_556
Al3 Lu0 2.958481 1_666
Al4 Fe3 2.497245 1_555
Al4 Fe2 2.497451 1_565
Al4 Fe1 2.497529 1_555
Al4 Fe0 2.497771 1_555
Al4 Al5 2.678445 1_555
Al4 Al6 2.680268 1_655
Al4 Lu0 3.185735 1_666
Al4 Lu0 3.187243 1_655
Al5 Fe3 2.478369 1_556
Al5 Fe2 2.480016 1_555
Al5 Fe1 2.550369 1_555
Al5 Fe0 2.551754 1_555
Al5 Fe4 2.689016 1_655
Al5 Lu0 3.069075 1_655
Al5 Lu0 3.069416 1_666
Al6 Fe1 2.479180 1_566
Al6 Fe0 2.480892 1_555
Al6 Fe3 2.549993 1_455
Al6 Fe2 2.551758 1_465
Al6 Fe4 2.685041 1_555
Al6 Lu0 3.067852 1_555
Al6 Lu0 3.069243 1_566
Fe0 Fe1 2.476368 1_555
Fe0 Fe1 2.491981 1_566
Fe0 Fe4 2.493823 1_555
Fe0 Lu0 3.256605 1_555
Fe0 Lu0 3.334261 1_666
Fe1 Fe4 2.493371 1_544
Fe1 Lu0 3.258270 1_555
Fe1 Lu0 3.335455 1_655
Fe2 Fe3 2.476856 1_545
Fe2 Fe3 2.491493 1_556
Fe2 Fe4 2.493808 1_655
Fe2 Lu0 3.253884 1_655
Fe2 Lu0 3.331932 1_656
Fe3 Fe4 2.494288 1_654
Fe3 Lu0 3.255824 1_665
Fe3 Lu0 3.332118 1_655
Fe4 Lu0 3.175448 1_555
Fe4 Lu0 3.178756 1_566
