# generated using pymatgen
data_GdGe2
_symmetry_space_group_name_H-M   'P 1'
_cell_length_a   8.66685017
_cell_length_b   8.66685017
_cell_length_c   8.66685017
_cell_angle_alpha   153.23989391
_cell_angle_beta   153.23987991
_cell_angle_gamma   38.20536645
_symmetry_Int_Tables_number   1
_chemical_formula_structural   GdGe2
_chemical_formula_sum   'Gd2 Ge4'
_cell_volume   131.76701580
_cell_formula_units_Z   2
loop_
 _symmetry_equiv_pos_site_id
 _symmetry_equiv_pos_as_xyz
  1  'x, y, z'
loop_
 _atom_site_type_symbol
 _atom_site_label
 _atom_site_symmetry_multiplicity
 _atom_site_fract_x
 _atom_site_fract_y
 _atom_site_fract_z
 _atom_site_occupancy
  Gd  Gd0  1  0.75000000  0.25000000  0.50000000  1
  Gd  Gd1  1  -0.00000000  -0.00000000  -0.00000000  1
  Ge  Ge0  1  0.17116234  0.67116234  0.50000000  1
  Ge  Ge1  1  0.57890168  0.57890168  -0.00000000  1
  Ge  Ge2  1  0.32883766  0.82883766  0.50000000  1
  Ge  Ge3  1  0.42109832  0.42109832  0.00000000  1
loop_
_geom_bond_atom_site_label_1
_geom_bond_atom_site_label_2
_geom_bond_distance
_geom_bond_site_symmetry_2
Gd0 Ge0 3.116445 1_656
Gd0 Ge0 3.116445 1_645
Gd0 Ge2 3.116445 1_544
Gd0 Ge2 3.116445 1_555
Gd0 Ge0 3.116445 1_555
Gd0 Ge2 3.116445 1_656
Gd0 Ge0 3.116445 1_544
Gd0 Ge2 3.116445 1_645
Gd0 Ge1 3.446176 1_545
Gd0 Ge1 3.446176 1_556
Gd0 Ge3 3.446177 1_555
Gd0 Ge3 3.446177 1_656
Gd1 Ge1 3.116879 1_545
Gd1 Ge3 3.116879 1_556
Gd1 Ge3 3.116879 1_444
Gd1 Ge1 3.116879 1_455
Gd1 Ge3 3.116879 1_545
Gd1 Ge1 3.116879 1_556
Gd1 Ge3 3.116879 1_455
Gd1 Ge1 3.116879 1_444
Gd1 Ge0 3.447029 1_555
Gd1 Ge0 3.447029 1_544
Gd1 Ge2 3.447029 1_444
Gd1 Ge2 3.447029 1_545
Ge0 Ge1 2.511172 1_455
Ge0 Ge1 2.511172 1_556
Ge0 Ge2 2.582595 1_555
Ge1 Ge3 2.584692 1_555
Ge2 Ge3 2.511171 1_566
Ge2 Ge3 2.511171 1_555
