# generated using pymatgen
data_Rb
_symmetry_space_group_name_H-M   'P 1'
_cell_length_a   9.80464532
_cell_length_b   18.39141963
_cell_length_c   18.37481030
_cell_angle_alpha   85.92192472
_cell_angle_beta   74.52630813
_cell_angle_gamma   74.54063192
_symmetry_Int_Tables_number   1
_chemical_formula_structural   Rb
_chemical_formula_sum   Rb32
_cell_volume   3077.73756359
_cell_formula_units_Z   32
loop_
 _symmetry_equiv_pos_site_id
 _symmetry_equiv_pos_as_xyz
  1  'x, y, z'
loop_
 _atom_site_type_symbol
 _atom_site_label
 _atom_site_symmetry_multiplicity
 _atom_site_fract_x
 _atom_site_fract_y
 _atom_site_fract_z
 _atom_site_occupancy
  Rb  Rb0_0  1  0.18999088  0.25000000  0.12001875  1
  Rb  Rb0_1  1  0.18999088  0.25000000  0.62001875  1
  Rb  Rb0_2  1  0.18999088  0.75000000  0.12001875  1
  Rb  Rb0_3  1  0.18999088  0.75000000  0.62001875  1
  Rb  Rb0_4  1  0.68999088  0.25000000  0.12001875  1
  Rb  Rb0_5  1  0.68999088  0.25000000  0.62001875  1
  Rb  Rb0_6  1  0.68999088  0.75000000  0.12001875  1
  Rb  Rb0_7  1  0.68999088  0.75000000  0.62001875  1
  Rb  Rb1_0  1  0.18500912  0.00000000  0.12998125  1
  Rb  Rb1_1  1  0.18500912  0.00000000  0.62998126  1
  Rb  Rb1_2  1  0.18500912  0.50000000  0.12998126  1
  Rb  Rb1_3  1  0.18500912  0.50000000  0.62998126  1
  Rb  Rb1_4  1  0.68500912  0.00000000  0.12998125  1
  Rb  Rb1_5  1  0.68500912  0.00000000  0.62998126  1
  Rb  Rb1_6  1  0.68500912  0.50000000  0.12998125  1
  Rb  Rb1_7  1  0.68500912  0.50000000  0.62998126  1
  Rb  Rb2_0  1  0.06000912  0.25000000  0.37998126  1
  Rb  Rb2_1  1  0.06000912  0.25000000  0.87998126  1
  Rb  Rb2_2  1  0.06000912  0.75000000  0.37998126  1
  Rb  Rb2_3  1  0.06000912  0.75000000  0.87998126  1
  Rb  Rb2_4  1  0.56000912  0.25000000  0.37998126  1
  Rb  Rb2_5  1  0.56000912  0.25000000  0.87998126  1
  Rb  Rb2_6  1  0.56000912  0.75000000  0.37998126  1
  Rb  Rb2_7  1  0.56000912  0.75000000  0.87998126  1
  Rb  Rb3_0  1  0.31499088  0.00000000  0.37001875  1
  Rb  Rb3_1  1  0.31499088  0.00000000  0.87001875  1
  Rb  Rb3_2  1  0.31499088  0.50000000  0.37001875  1
  Rb  Rb3_3  1  0.31499088  0.50000000  0.87001875  1
  Rb  Rb3_4  1  0.81499088  0.00000000  0.37001875  1
  Rb  Rb3_5  1  0.81499088  0.00000000  0.87001875  1
  Rb  Rb3_6  1  0.81499088  0.50000000  0.37001875  1
  Rb  Rb3_7  1  0.81499088  0.50000000  0.87001875  1
loop_
_geom_bond_atom_site_label_1
_geom_bond_atom_site_label_2
_geom_bond_distance
_geom_bond_site_symmetry_2
Rb0_0 Rb1_2 4.601237 1_555
Rb0_0 Rb1_0 4.601240 1_555
Rb0_0 Rb2_0 4.603619 1_555
Rb0_0 Rb0_4 4.902323 1_455
Rb0_0 Rb0_4 4.902323 1_555
Rb0_0 Rb2_5 4.906854 1_554
Rb0_0 Rb2_1 4.906860 1_554
Rb0_1 Rb1_3 4.601237 1_555
Rb0_1 Rb1_1 4.601240 1_555
Rb0_1 Rb2_1 4.603619 1_555
Rb0_1 Rb0_5 4.902323 1_555
Rb0_1 Rb0_5 4.902323 1_455
Rb0_1 Rb2_4 4.906854 1_555
Rb0_1 Rb2_0 4.906860 1_555
Rb0_2 Rb1_0 4.601237 1_565
Rb0_2 Rb1_2 4.601240 1_555
Rb0_2 Rb2_2 4.603619 1_555
Rb0_2 Rb0_6 4.902323 1_455
Rb0_2 Rb0_6 4.902323 1_555
Rb0_2 Rb2_7 4.906854 1_554
Rb0_2 Rb2_3 4.906860 1_554
Rb0_3 Rb1_1 4.601237 1_565
Rb0_3 Rb1_3 4.601240 1_555
Rb0_3 Rb2_3 4.603619 1_555
Rb0_3 Rb0_7 4.902323 1_455
Rb0_3 Rb0_7 4.902323 1_555
Rb0_3 Rb2_6 4.906854 1_555
Rb0_3 Rb2_2 4.906860 1_555
Rb0_4 Rb1_6 4.601237 1_555
Rb0_4 Rb1_4 4.601240 1_555
Rb0_4 Rb2_4 4.603619 1_555
Rb0_4 Rb2_1 4.906854 1_654
Rb0_4 Rb2_5 4.906860 1_554
Rb0_5 Rb1_7 4.601237 1_555
Rb0_5 Rb1_5 4.601240 1_555
Rb0_5 Rb2_5 4.603619 1_555
Rb0_5 Rb2_0 4.906854 1_655
Rb0_5 Rb2_4 4.906860 1_555
Rb0_6 Rb1_4 4.601237 1_565
Rb0_6 Rb1_6 4.601240 1_555
Rb0_6 Rb2_6 4.603619 1_555
Rb0_6 Rb2_3 4.906854 1_654
Rb0_6 Rb2_7 4.906860 1_554
Rb0_7 Rb1_5 4.601237 1_565
Rb0_7 Rb1_7 4.601240 1_555
Rb0_7 Rb2_7 4.603619 1_555
Rb0_7 Rb2_2 4.906854 1_655
Rb0_7 Rb2_6 4.906860 1_555
Rb1_0 Rb3_1 4.603619 1_554
Rb1_0 Rb1_4 4.902323 1_455
Rb1_0 Rb1_4 4.902323 1_555
Rb1_0 Rb3_4 4.906854 1_455
Rb1_0 Rb3_0 4.906860 1_555
Rb1_1 Rb3_0 4.603619 1_555
Rb1_1 Rb1_5 4.902323 1_555
Rb1_1 Rb1_5 4.902323 1_455
Rb1_1 Rb3_5 4.906854 1_455
Rb1_1 Rb3_1 4.906860 1_555
Rb1_2 Rb3_3 4.603619 1_554
Rb1_2 Rb1_6 4.902323 1_555
Rb1_2 Rb1_6 4.902323 1_455
Rb1_2 Rb3_6 4.906854 1_455
Rb1_2 Rb3_2 4.906860 1_555
Rb1_3 Rb3_2 4.603619 1_555
Rb1_3 Rb1_7 4.902323 1_455
Rb1_3 Rb1_7 4.902323 1_555
Rb1_3 Rb3_7 4.906854 1_455
Rb1_3 Rb3_3 4.906860 1_555
Rb1_4 Rb3_5 4.603619 1_554
Rb1_4 Rb3_0 4.906854 1_555
Rb1_4 Rb3_4 4.906860 1_555
Rb1_5 Rb3_4 4.603619 1_555
Rb1_5 Rb3_1 4.906854 1_555
Rb1_5 Rb3_5 4.906860 1_555
Rb1_6 Rb3_7 4.603619 1_554
Rb1_6 Rb3_2 4.906854 1_555
Rb1_6 Rb3_6 4.906860 1_555
Rb1_7 Rb3_6 4.603619 1_555
Rb1_7 Rb3_3 4.906854 1_555
Rb1_7 Rb3_7 4.906860 1_555
Rb2_0 Rb3_6 4.601237 1_455
Rb2_0 Rb3_0 4.601240 1_555
Rb2_0 Rb2_4 4.902323 1_455
Rb2_0 Rb2_4 4.902323 1_555
Rb2_1 Rb3_7 4.601237 1_455
Rb2_1 Rb3_1 4.601240 1_555
Rb2_1 Rb2_5 4.902323 1_555
Rb2_1 Rb2_5 4.902323 1_455
Rb2_2 Rb3_4 4.601237 1_465
Rb2_2 Rb3_2 4.601240 1_555
Rb2_2 Rb2_6 4.902323 1_455
Rb2_2 Rb2_6 4.902323 1_555
Rb2_3 Rb3_5 4.601237 1_465
Rb2_3 Rb3_3 4.601240 1_555
Rb2_3 Rb2_7 4.902323 1_455
Rb2_3 Rb2_7 4.902323 1_555
Rb2_4 Rb3_2 4.601237 1_555
Rb2_4 Rb3_4 4.601240 1_555
Rb2_5 Rb3_3 4.601237 1_555
Rb2_5 Rb3_5 4.601240 1_555
Rb2_6 Rb3_0 4.601237 1_565
Rb2_6 Rb3_6 4.601240 1_555
Rb2_7 Rb3_1 4.601237 1_565
Rb2_7 Rb3_7 4.601240 1_555
Rb3_0 Rb3_4 4.902323 1_555
Rb3_0 Rb3_4 4.902323 1_455
Rb3_1 Rb3_5 4.902323 1_555
Rb3_1 Rb3_5 4.902323 1_455
Rb3_2 Rb3_6 4.902323 1_555
Rb3_2 Rb3_6 4.902323 1_455
Rb3_3 Rb3_7 4.902323 1_455
Rb3_3 Rb3_7 4.902323 1_555
