# generated using pymatgen
data_Sc4FeSi7
_symmetry_space_group_name_H-M   'P 1'
_cell_length_a   3.64480300
_cell_length_b   3.84953500
_cell_length_c   14.07642100
_cell_angle_alpha   90.00000000
_cell_angle_beta   90.00000000
_cell_angle_gamma   90.00000000
_symmetry_Int_Tables_number   1
_chemical_formula_structural   Sc4FeSi7
_chemical_formula_sum   'Sc4 Fe1 Si7'
_cell_volume   197.50340155
_cell_formula_units_Z   1
loop_
 _symmetry_equiv_pos_site_id
 _symmetry_equiv_pos_as_xyz
  1  'x, y, z'
loop_
 _atom_site_type_symbol
 _atom_site_label
 _atom_site_symmetry_multiplicity
 _atom_site_fract_x
 _atom_site_fract_y
 _atom_site_fract_z
 _atom_site_occupancy
  Sc  Sc0  1  0.00000000  0.00000000  0.11070200  1
  Sc  Sc1  1  0.00000000  0.50000000  0.59599500  1
  Sc  Sc2  1  0.50000000  0.50000000  0.41411900  1
  Sc  Sc3  1  0.50000000  0.00000000  0.89882700  1
  Fe  Fe0  1  0.00000000  0.00000000  0.40672200  1
  Si  Si0  1  0.00000000  0.50000000  0.26858000  1
  Si  Si1  1  0.00000000  0.00000000  0.74134200  1
  Si  Si2  1  0.50000000  0.00000000  0.27041400  1
  Si  Si3  1  0.50000000  0.50000000  0.75288000  1
  Si  Si4  1  0.00000000  0.50000000  0.94320500  1
  Si  Si5  1  0.50000000  0.50000000  0.05443100  1
  Si  Si6  1  0.50000000  0.00000000  0.54278100  1
loop_
_geom_bond_atom_site_label_1
_geom_bond_atom_site_label_2
_geom_bond_distance
_geom_bond_site_symmetry_2
Sc0 Si5 2.766458 1_545
Sc0 Si5 2.766458 1_555
Sc0 Si5 2.766458 1_445
Sc0 Si5 2.766458 1_455
Sc0 Si2 2.894034 1_455
Sc0 Si2 2.894034 1_555
Sc0 Si0 2.940000 1_545
Sc0 Si0 2.940000 1_555
Sc0 Si4 3.043642 1_554
Sc0 Si4 3.043642 1_544
Sc1 Si6 2.754446 1_465
Sc1 Si6 2.754446 1_455
Sc1 Si6 2.754446 1_565
Sc1 Si6 2.754446 1_555
Sc1 Si1 2.809040 1_565
Sc1 Si1 2.809040 1_555
Sc1 Si3 2.863230 1_455
Sc1 Si3 2.863230 1_555
Sc2 Si6 2.642880 1_555
Sc2 Si6 2.642880 1_565
Sc2 Si0 2.741932 1_555
Sc2 Si0 2.741932 1_655
Sc2 Si2 2.792250 1_555
Sc2 Si2 2.792250 1_565
Sc3 Si4 2.723253 1_645
Sc3 Si4 2.723253 1_545
Sc3 Si4 2.723253 1_555
Sc3 Si4 2.723253 1_655
Sc3 Si3 2.815197 1_545
Sc3 Si3 2.815197 1_555
Sc3 Si1 2.869749 1_555
Sc3 Si1 2.869749 1_655
Sc3 Si5 2.915879 1_546
Sc3 Si5 2.915879 1_556
Fe0 Si6 2.643715 1_455
Fe0 Si6 2.643715 1_555
Fe0 Si2 2.646255 1_555
Fe0 Si2 2.646255 1_455
Fe0 Sc2 2.652681 1_555
Fe0 Sc2 2.652681 1_445
Fe0 Sc2 2.652681 1_455
Fe0 Sc2 2.652681 1_545
Fe0 Si0 2.736053 1_545
Fe0 Si0 2.736053 1_555
Fe0 Sc1 3.286815 1_555
Fe0 Sc1 3.286815 1_545
Si0 Si2 2.650763 1_455
Si0 Si2 2.650763 1_565
Si0 Si2 2.650763 1_465
Si0 Si2 2.650763 1_555
Si1 Si3 2.655608 1_545
Si1 Si3 2.655608 1_445
Si1 Si3 2.655608 1_555
Si1 Si3 2.655608 1_455
Si4 Si5 2.402593 1_456
Si4 Si5 2.402593 1_556
