# generated using pymatgen
data_FeSbRh2
_symmetry_space_group_name_H-M   'P 1'
_cell_length_a   4.68799465
_cell_length_b   4.68799465
_cell_length_c   4.68799465
_cell_angle_alpha   128.60242702
_cell_angle_beta   128.60242702
_cell_angle_gamma   75.65113210
_symmetry_Int_Tables_number   1
_chemical_formula_structural   FeSbRh2
_chemical_formula_sum   'Fe1 Sb1 Rh2'
_cell_volume   61.21275107
_cell_formula_units_Z   1
loop_
 _symmetry_equiv_pos_site_id
 _symmetry_equiv_pos_as_xyz
  1  'x, y, z'
loop_
 _atom_site_type_symbol
 _atom_site_label
 _atom_site_symmetry_multiplicity
 _atom_site_fract_x
 _atom_site_fract_y
 _atom_site_fract_z
 _atom_site_occupancy
  Fe  Fe0  1  0.00000000  0.00000000  0.00000000  1
  Sb  Sb0  1  0.50000000  0.50000000  0.00000000  1
  Rh  Rh0  1  0.75000000  0.25000000  0.50000000  1
  Rh  Rh1  1  0.25000000  0.75000000  0.50000000  1
loop_
_geom_bond_atom_site_label_1
_geom_bond_atom_site_label_2
_geom_bond_distance
_geom_bond_site_symmetry_2
Fe0 Rh1 2.749667 1_544
Fe0 Rh1 2.749667 1_545
Fe0 Rh0 2.749667 1_455
Fe0 Rh1 2.749667 1_444
Fe0 Rh0 2.749667 1_555
Fe0 Rh0 2.749667 1_454
Fe0 Rh1 2.749667 1_555
Fe0 Rh0 2.749667 1_444
Fe0 Sb0 2.874958 1_556
Fe0 Sb0 2.874958 1_455
Fe0 Sb0 2.874958 1_545
Fe0 Sb0 2.874958 1_444
Rh0 Sb0 2.749667 1_556
Rh0 Sb0 2.749667 1_545
Rh0 Sb0 2.749667 1_555
Rh0 Sb0 2.749667 1_656
Rh1 Sb0 2.749667 1_556
Rh1 Sb0 2.749667 1_455
Rh1 Sb0 2.749667 1_555
Rh1 Sb0 2.749667 1_566
