# generated using pymatgen
data_Cs2Hf(WO4)3
_symmetry_space_group_name_H-M   'P 1'
_cell_length_a   7.43619068
_cell_length_b   7.43619068
_cell_length_c   7.52080172
_cell_angle_alpha   60.40598660
_cell_angle_beta   60.40598660
_cell_angle_gamma   59.99072357
_symmetry_Int_Tables_number   1
_chemical_formula_structural   Cs2Hf(WO4)3
_chemical_formula_sum   'Cs2 Hf1 W3 O12'
_cell_volume   295.84028615
_cell_formula_units_Z   1
loop_
 _symmetry_equiv_pos_site_id
 _symmetry_equiv_pos_as_xyz
  1  'x, y, z'
loop_
 _atom_site_type_symbol
 _atom_site_label
 _atom_site_symmetry_multiplicity
 _atom_site_fract_x
 _atom_site_fract_y
 _atom_site_fract_z
 _atom_site_occupancy
  Cs  Cs0  1  0.89052800  0.83478500  0.88915400  1
  Cs  Cs1  1  0.16521500  0.10947200  0.11084600  1
  Hf  Hf0  1  0.50249400  0.49750600  0.00000000  1
  W  W0  1  0.50281500  0.99690000  0.49966400  1
  W  W1  1  0.00310000  0.49718500  0.50033600  1
  W  W2  1  0.50203200  0.49796800  0.50000000  1
  O  O0  1  0.19231900  0.19094600  0.55529500  1
  O  O1  1  0.56115900  0.56422100  0.20006300  1
  O  O2  1  0.56133700  0.17327600  0.20032600  1
  O  O3  1  0.19260200  0.56110200  0.55456900  1
  O  O4  1  0.17565300  0.56175000  0.20021600  1
  O  O5  1  0.56117100  0.19113000  0.55606900  1
  O  O6  1  0.80905400  0.80768100  0.44470500  1
  O  O7  1  0.43577900  0.43884100  0.79993700  1
  O  O8  1  0.43825000  0.82434700  0.79978400  1
  O  O9  1  0.80887000  0.43882900  0.44393100  1
  O  O10  1  0.82672400  0.43866300  0.79967400  1
  O  O11  1  0.43889800  0.80739800  0.44543100  1
loop_
_geom_bond_atom_site_label_1
_geom_bond_atom_site_label_2
_geom_bond_distance
_geom_bond_site_symmetry_2
Cs0 O4 3.161074 1_656
Cs0 O1 3.184383 1_556
Cs0 O3 3.228329 1_655
Cs0 O2 3.435313 1_566
Cs0 O0 3.488097 1_665
Cs0 O5 3.508157 1_565
Cs1 O8 3.161074 1_544
Cs1 O7 3.184383 1_554
Cs1 O11 3.228329 1_545
Cs1 O10 3.435313 1_454
Cs1 O6 3.488097 1_445
Cs1 O9 3.508157 1_455
Hf0 O10 2.069412 1_554
Hf0 O2 2.069412 1_555
Hf0 O1 2.074230 1_555
Hf0 O7 2.074230 1_554
Hf0 O8 2.082563 1_554
Hf0 O4 2.082563 1_555
O0 W1 1.943235 1_555
O0 W0 1.974284 1_545
O1 W2 1.914133 1_555
O2 W0 1.914333 1_545
O3 W1 1.951201 1_555
O3 W2 1.964785 1_555
O4 W1 1.912303 1_555
O5 W2 1.951033 1_555
O5 W0 1.966795 1_545
O6 W0 1.943235 1_555
O6 W1 1.974284 1_655
O7 W2 1.914133 1_555
O8 W0 1.912303 1_555
O9 W2 1.951033 1_555
O9 W1 1.966795 1_655
O10 W1 1.914333 1_655
O11 W0 1.951201 1_555
O11 W2 1.964785 1_555
