# generated using pymatgen
data_LuMgVS4
_symmetry_space_group_name_H-M   'P 1'
_cell_length_a   7.57440567
_cell_length_b   7.50255121
_cell_length_c   7.49942194
_cell_angle_alpha   59.60191818
_cell_angle_beta   59.68386178
_cell_angle_gamma   59.67355790
_symmetry_Int_Tables_number   1
_chemical_formula_structural   LuMgVS4
_chemical_formula_sum   'Lu2 Mg2 V2 S8'
_cell_volume   298.97385588
_cell_formula_units_Z   2
loop_
 _symmetry_equiv_pos_site_id
 _symmetry_equiv_pos_as_xyz
  1  'x, y, z'
loop_
 _atom_site_type_symbol
 _atom_site_label
 _atom_site_symmetry_multiplicity
 _atom_site_fract_x
 _atom_site_fract_y
 _atom_site_fract_z
 _atom_site_occupancy
  Lu  Lu0  1  0.49999600  0.50001600  0.49998200  1
  Lu  Lu1  1  0.99999900  0.49999200  0.50001800  1
  Mg  Mg0  1  0.87655000  0.87370200  0.87334800  1
  Mg  Mg1  1  0.12344700  0.12630100  0.12665500  1
  V  V0  1  0.50000200  0.49999500  0.99999600  1
  V  V1  1  0.49999400  0.99999800  0.50001200  1
  S  S0  1  0.71781100  0.75114300  0.75133300  1
  S  S1  1  0.26772400  0.23693100  0.72790500  1
  S  S2  1  0.26748800  0.72781800  0.23693900  1
  S  S3  1  0.72025900  0.24871400  0.24875100  1
  S  S4  1  0.73250300  0.27217200  0.76305500  1
  S  S5  1  0.27975700  0.75128100  0.75123900  1
  S  S6  1  0.28218000  0.24884500  0.24867800  1
  S  S7  1  0.73229500  0.76308800  0.27208800  1
loop_
_geom_bond_atom_site_label_1
_geom_bond_atom_site_label_2
_geom_bond_distance
_geom_bond_site_symmetry_2
Lu0 S1 2.639956 1_555
Lu0 S2 2.640009 1_555
Lu0 S7 2.640044 1_555
Lu0 S4 2.640153 1_555
Lu0 S5 2.670730 1_555
Lu0 S3 2.670776 1_555
Lu1 S4 2.639706 1_555
Lu1 S2 2.639707 1_655
Lu1 S1 2.640405 1_655
Lu1 S7 2.640511 1_555
Lu1 S0 2.670420 1_555
Lu1 S6 2.670519 1_655
Mg0 S4 2.434468 1_565
Mg0 S7 2.435228 1_556
Mg0 S5 2.490882 1_655
Mg0 S0 2.491405 1_555
Mg1 S2 2.434552 1_545
Mg1 S1 2.435284 1_554
Mg1 S3 2.490769 1_455
Mg1 S6 2.491324 1_555
S0 V0 2.495405 1_555
S0 V1 2.495495 1_555
S1 V1 2.461065 1_545
S2 V0 2.460729 1_554
S3 V0 2.494833 1_554
S3 V1 2.495567 1_545
S4 V0 2.460719 1_555
S5 V0 2.494784 1_555
S5 V1 2.495421 1_555
S6 V0 2.495486 1_554
S6 V1 2.495547 1_545
S7 V1 2.461105 1_555
