# generated using pymatgen
data_SrBr2O
_symmetry_space_group_name_H-M   'P 1'
_cell_length_a   4.83622300
_cell_length_b   8.31183600
_cell_length_c   11.68950700
_cell_angle_alpha   90.00000000
_cell_angle_beta   90.00000000
_cell_angle_gamma   90.00000000
_symmetry_Int_Tables_number   1
_chemical_formula_structural   SrBr2O
_chemical_formula_sum   'Sr4 Br8 O4'
_cell_volume   469.89354501
_cell_formula_units_Z   4
loop_
 _symmetry_equiv_pos_site_id
 _symmetry_equiv_pos_as_xyz
  1  'x, y, z'
loop_
 _atom_site_type_symbol
 _atom_site_label
 _atom_site_symmetry_multiplicity
 _atom_site_fract_x
 _atom_site_fract_y
 _atom_site_fract_z
 _atom_site_occupancy
  Sr  Sr0  1  0.25000000  0.11397400  0.81742200  1
  Sr  Sr1  1  0.25000000  0.38602600  0.31742200  1
  Sr  Sr2  1  0.75000000  0.88602600  0.18257800  1
  Sr  Sr3  1  0.75000000  0.61397400  0.68257800  1
  Br  Br0  1  0.25000000  0.37110800  0.60351300  1
  Br  Br1  1  0.25000000  0.12889200  0.10351300  1
  Br  Br2  1  0.75000000  0.62889200  0.39648700  1
  Br  Br3  1  0.75000000  0.87110800  0.89648700  1
  Br  Br4  1  0.25000000  0.64189900  0.11171500  1
  Br  Br5  1  0.25000000  0.85810100  0.61171500  1
  Br  Br6  1  0.75000000  0.35810100  0.88828500  1
  Br  Br7  1  0.75000000  0.14189900  0.38828500  1
  O  O0  1  0.25000000  0.61512200  0.74226100  1
  O  O1  1  0.25000000  0.88487800  0.24226100  1
  O  O2  1  0.75000000  0.38487800  0.25773900  1
  O  O3  1  0.75000000  0.11512200  0.75773900  1
loop_
_geom_bond_atom_site_label_1
_geom_bond_atom_site_label_2
_geom_bond_distance
_geom_bond_site_symmetry_2
Br0 O0 2.596952 1_555
Br0 Sr3 3.282752 1_555
Br0 Sr3 3.282752 1_455
Br0 Sr0 3.289425 1_555
Br0 Sr1 3.346561 1_555
Br1 O1 2.596952 1_545
Br1 Sr2 3.282752 1_545
Br1 Sr2 3.282752 1_445
Br1 Sr1 3.289425 1_555
Br1 Sr0 3.346561 1_554
Br2 O2 2.596952 1_555
Br2 Sr1 3.282752 1_655
Br2 Sr1 3.282752 1_555
Br2 Sr2 3.289425 1_555
Br2 Sr3 3.346561 1_555
Br3 O3 2.596952 1_565
Br3 Sr0 3.282752 1_565
Br3 Sr0 3.282752 1_665
Br3 Sr3 3.289425 1_555
Br3 Sr2 3.346561 1_556
Br4 O1 2.531308 1_555
Br4 Sr1 3.210192 1_555
Br4 Sr2 3.263565 1_455
Br4 Sr2 3.263565 1_555
Br5 O0 2.531308 1_555
Br5 Sr0 3.210192 1_565
Br5 Sr3 3.263565 1_555
Br5 Sr3 3.263565 1_455
Br6 O3 2.531308 1_555
Br6 Sr3 3.210192 1_555
Br6 Sr0 3.263565 1_655
Br6 Sr0 3.263565 1_555
Br7 O2 2.531308 1_555
Br7 Sr2 3.210192 1_545
Br7 Sr1 3.263565 1_655
Br7 Sr1 3.263565 1_555
O0 Sr3 2.516762 1_455
O0 Sr3 2.516762 1_555
O1 Sr2 2.516762 1_555
O1 Sr2 2.516762 1_455
O2 Sr1 2.516762 1_655
O2 Sr1 2.516762 1_555
O3 Sr0 2.516762 1_655
O3 Sr0 2.516762 1_555
