# generated using pymatgen
data_Er3Cu3Sb4
_symmetry_space_group_name_H-M   'P 1'
_cell_length_a   8.21967434
_cell_length_b   8.21967434
_cell_length_c   8.21967434
_cell_angle_alpha   109.47122063
_cell_angle_beta   109.47122063
_cell_angle_gamma   109.47122063
_symmetry_Int_Tables_number   1
_chemical_formula_structural   Er3Cu3Sb4
_chemical_formula_sum   'Er6 Cu6 Sb8'
_cell_volume   427.50573229
_cell_formula_units_Z   2
loop_
 _symmetry_equiv_pos_site_id
 _symmetry_equiv_pos_as_xyz
  1  'x, y, z'
loop_
 _atom_site_type_symbol
 _atom_site_label
 _atom_site_symmetry_multiplicity
 _atom_site_fract_x
 _atom_site_fract_y
 _atom_site_fract_z
 _atom_site_occupancy
  Er  Er0  1  0.87500000  0.25000000  0.12500000  1
  Er  Er1  1  0.62500000  0.75000000  0.37500000  1
  Er  Er2  1  0.25000000  0.12500000  0.87500000  1
  Er  Er3  1  0.75000000  0.37500000  0.62500000  1
  Er  Er4  1  0.12500000  0.87500000  0.25000000  1
  Er  Er5  1  0.37500000  0.62500000  0.75000000  1
  Cu  Cu0  1  0.37500000  0.25000000  0.62500000  1
  Cu  Cu1  1  0.12500000  0.75000000  0.87500000  1
  Cu  Cu2  1  0.25000000  0.62500000  0.37500000  1
  Cu  Cu3  1  0.75000000  0.87500000  0.12500000  1
  Cu  Cu4  1  0.62500000  0.37500000  0.25000000  1
  Cu  Cu5  1  0.87500000  0.12500000  0.75000000  1
  Sb  Sb0  1  0.65760732  0.50000000  0.00000000  1
  Sb  Sb1  1  0.50000000  0.00000000  0.65760732  1
  Sb  Sb2  1  0.00000000  0.65760732  0.50000000  1
  Sb  Sb3  1  0.84239268  0.84239268  0.84239268  1
  Sb  Sb4  1  0.50000000  -0.00000000  0.15760732  1
  Sb  Sb5  1  0.15760732  0.50000000  -0.00000000  1
  Sb  Sb6  1  -0.00000000  0.15760732  0.50000000  1
  Sb  Sb7  1  0.34239268  0.34239268  0.34239268  1
loop_
_geom_bond_atom_site_label_1
_geom_bond_atom_site_label_2
_geom_bond_distance
_geom_bond_site_symmetry_2
Er0 Sb5 3.238955 1_655
Er0 Sb2 3.238955 1_655
Er0 Sb4 3.238955 1_555
Er0 Sb3 3.238955 1_544
Er0 Sb1 3.332102 1_554
Er0 Sb0 3.332102 1_555
Er0 Sb6 3.332102 1_655
Er0 Sb7 3.332102 1_655
Er1 Sb6 3.238955 1_665
Er1 Sb1 3.238955 1_565
Er1 Sb0 3.238955 1_555
Er1 Sb7 3.238955 1_555
Er1 Sb4 3.332102 1_565
Er1 Sb2 3.332102 1_655
Er1 Sb3 3.332102 1_555
Er1 Sb5 3.332102 1_555
Er2 Sb4 3.238955 1_556
Er2 Sb0 3.238955 1_556
Er2 Sb6 3.238955 1_555
Er2 Sb3 3.238955 1_445
Er2 Sb1 3.332102 1_555
Er2 Sb2 3.332102 1_545
Er2 Sb5 3.332102 1_556
Er2 Sb7 3.332102 1_556
Er3 Sb5 3.238955 1_656
Er3 Sb2 3.238955 1_655
Er3 Sb7 3.238955 1_555
Er3 Sb1 3.238955 1_555
Er3 Sb3 3.332102 1_555
Er3 Sb0 3.332102 1_556
Er3 Sb4 3.332102 1_555
Er3 Sb6 3.332102 1_655
Er4 Sb6 3.238955 1_565
Er4 Sb5 3.238955 1_555
Er4 Sb1 3.238955 1_565
Er4 Sb3 3.238955 1_454
Er4 Sb4 3.332102 1_565
Er4 Sb0 3.332102 1_455
Er4 Sb2 3.332102 1_555
Er4 Sb7 3.332102 1_565
Er5 Sb0 3.238955 1_556
Er5 Sb4 3.238955 1_566
Er5 Sb2 3.238955 1_555
Er5 Sb7 3.238955 1_555
Er5 Sb5 3.332102 1_556
Er5 Sb6 3.332102 1_555
Er5 Sb3 3.332102 1_555
Er5 Sb1 3.332102 1_565
Cu0 Sb0 2.634644 1_556
Cu0 Sb6 2.634644 1_555
Cu0 Sb1 2.634644 1_555
Cu0 Sb7 2.634644 1_555
Cu0 Er3 2.906094 1_555
Cu0 Er5 2.906094 1_555
Cu0 Er2 2.906094 1_555
Cu0 Er4 2.906094 1_545
Cu1 Sb5 2.634644 1_556
Cu1 Sb4 2.634644 1_566
Cu1 Sb2 2.634644 1_555
Cu1 Sb3 2.634644 1_455
Cu1 Er2 2.906094 1_565
Cu1 Er3 2.906094 1_455
Cu1 Er5 2.906094 1_555
Cu1 Er4 2.906094 1_556
Cu2 Sb5 2.634644 1_555
Cu2 Sb2 2.634644 1_555
Cu2 Sb7 2.634644 1_555
Cu2 Sb1 2.634644 1_565
Cu2 Er1 2.906094 1_555
Cu2 Er5 2.906094 1_555
Cu2 Er0 2.906094 1_455
Cu2 Er4 2.906094 1_555
Cu3 Sb0 2.634644 1_555
Cu3 Sb6 2.634644 1_665
Cu3 Sb4 2.634644 1_565
Cu3 Sb3 2.634644 1_554
Cu3 Er1 2.906094 1_555
Cu3 Er4 2.906094 1_655
Cu3 Er0 2.906094 1_565
Cu3 Er5 2.906094 1_554
Cu4 Sb2 2.634644 1_655
Cu4 Sb0 2.634644 1_555
Cu4 Sb7 2.634644 1_555
Cu4 Sb4 2.634644 1_555
Cu4 Er3 2.906094 1_555
Cu4 Er1 2.906094 1_555
Cu4 Er0 2.906094 1_555
Cu4 Er2 2.906094 1_554
Cu5 Sb3 2.634644 1_545
Cu5 Sb5 2.634644 1_656
Cu5 Sb1 2.634644 1_555
Cu5 Sb6 2.634644 1_655
Cu5 Er3 2.906094 1_555
Cu5 Er0 2.906094 1_556
Cu5 Er2 2.906094 1_655
Cu5 Er1 2.906094 1_545
