# generated using pymatgen
data_InH12C4Se2I3
_symmetry_space_group_name_H-M   'P 1'
_cell_length_a   8.77015800
_cell_length_b   8.53806900
_cell_length_c   25.57904991
_cell_angle_alpha   89.90399572
_cell_angle_beta   90.00000000
_cell_angle_gamma   90.00000000
_symmetry_Int_Tables_number   1
_chemical_formula_structural   InH12C4Se2I3
_chemical_formula_sum   'In4 H48 C16 Se8 I12'
_cell_volume   1915.36204594
_cell_formula_units_Z   4
loop_
 _symmetry_equiv_pos_site_id
 _symmetry_equiv_pos_as_xyz
  1  'x, y, z'
loop_
 _atom_site_type_symbol
 _atom_site_label
 _atom_site_symmetry_multiplicity
 _atom_site_fract_x
 _atom_site_fract_y
 _atom_site_fract_z
 _atom_site_occupancy
  In  In0  1  0.64420600  0.67002000  0.62270600  1
  In  In1  1  0.14420600  0.32998000  0.87729400  1
  In  In2  1  0.35579400  0.32998000  0.37729400  1
  In  In3  1  0.85579400  0.67002000  0.12270600  1
  H  H0  1  0.26048300  0.98382300  0.65358500  1
  H  H1  1  0.76048300  0.01617700  0.84641500  1
  H  H2  1  0.73951700  0.01617700  0.34641500  1
  H  H3  1  0.23951700  0.98382300  0.15358500  1
  H  H4  1  0.22726200  0.77849300  0.64242300  1
  H  H5  1  0.72726200  0.22150700  0.85757700  1
  H  H6  1  0.77273800  0.22150700  0.35757700  1
  H  H7  1  0.27273800  0.77849300  0.14242300  1
  H  H8  1  0.13725200  0.92197600  0.60127900  1
  H  H9  1  0.63725200  0.07802400  0.89872100  1
  H  H10  1  0.86274800  0.07802400  0.39872100  1
  H  H11  1  0.36274800  0.92197600  0.10127900  1
  H  H12  1  0.42296200  0.74994000  0.49170000  1
  H  H13  1  0.92296200  0.25006000  0.00830000  1
  H  H14  1  0.57703800  0.25006000  0.50830000  1
  H  H15  1  0.07703800  0.74994000  0.99170000  1
  H  H16  1  0.28402300  0.66066700  0.53397800  1
  H  H17  1  0.78402300  0.33933300  0.96602200  1
  H  H18  1  0.71597700  0.33933300  0.46602200  1
  H  H19  1  0.21597700  0.66066700  0.03397800  1
  H  H20  1  0.23993000  0.84076800  0.49990700  1
  H  H21  1  0.73993000  0.15923200  0.00009300  1
  H  H22  1  0.76007000  0.15923200  0.50009300  1
  H  H23  1  0.26007000  0.84076800  0.99990700  1
  H  H24  1  0.77463100  0.46833500  0.76078500  1
  H  H25  1  0.27463100  0.53166500  0.73921500  1
  H  H26  1  0.22536900  0.53166500  0.23921500  1
  H  H27  1  0.72536900  0.46833500  0.26078500  1
  H  H28  1  0.84855000  0.27868600  0.74456500  1
  H  H29  1  0.34855000  0.72131400  0.75543500  1
  H  H30  1  0.15145000  0.72131400  0.25543500  1
  H  H31  1  0.65145000  0.27868600  0.24456500  1
  H  H32  1  0.66785100  0.34179400  0.71770000  1
  H  H33  1  0.16785100  0.65820600  0.78230000  1
  H  H34  1  0.33214900  0.65820600  0.28230000  1
  H  H35  1  0.83214900  0.34179400  0.21770000  1
  H  H36  1  0.95256900  0.32215100  0.58967300  1
  H  H37  1  0.45256900  0.67784900  0.91032700  1
  H  H38  1  0.04743100  0.67784900  0.41032700  1
  H  H39  1  0.54743100  0.32215100  0.08967300  1
  H  H40  1  0.98935900  0.20464600  0.64668600  1
  H  H41  1  0.48935900  0.79535400  0.85331400  1
  H  H42  1  0.01064100  0.79535400  0.35331400  1
  H  H43  1  0.51064100  0.20464600  0.14668600  1
  H  H44  1  0.79708400  0.22773500  0.62323400  1
  H  H45  1  0.29708400  0.77226500  0.87676600  1
  H  H46  1  0.20291600  0.77226500  0.37676600  1
  H  H47  1  0.70291600  0.22773500  0.12323400  1
  C  C0  1  0.32928300  0.77154500  0.51903900  1
  C  C1  1  0.82928300  0.22845500  0.98096100  1
  C  C2  1  0.67071700  0.22845500  0.48096100  1
  C  C3  1  0.17071700  0.77154500  0.01903900  1
  C  C4  1  0.23952700  0.89375300  0.62402800  1
  C  C5  1  0.73952700  0.10624700  0.87597200  1
  C  C6  1  0.76047300  0.10624700  0.37597200  1
  C  C7  1  0.26047300  0.89375300  0.12402800  1
  C  C8  1  0.90844100  0.28427600  0.62763700  1
  C  C9  1  0.40844100  0.71572400  0.87236300  1
  C  C10  1  0.09155900  0.71572400  0.37236300  1
  C  C11  1  0.59155900  0.28427600  0.12763700  1
  C  C12  1  0.78162300  0.37865800  0.73042500  1
  C  C13  1  0.28162300  0.62134200  0.76957500  1
  C  C14  1  0.21837700  0.62134200  0.26957500  1
  C  C15  1  0.71837700  0.37865800  0.23042500  1
  Se  Se0  1  0.41634800  0.89468000  0.57658100  1
  Se  Se1  1  0.91634800  0.10532000  0.92341900  1
  Se  Se2  1  0.58365200  0.10532000  0.42341900  1
  Se  Se3  1  0.08365200  0.89468000  0.07658100  1
  Se  Se4  1  0.88950100  0.47336600  0.67100000  1
  Se  Se5  1  0.38950100  0.52663400  0.82900000  1
  Se  Se6  1  0.11049900  0.52663400  0.32900000  1
  Se  Se7  1  0.61049900  0.47336600  0.17100000  1
  I  I0  1  0.43815600  0.42758000  0.62410300  1
  I  I1  1  0.93815600  0.57242000  0.87589700  1
  I  I2  1  0.56184400  0.57242000  0.37589700  1
  I  I3  1  0.06184400  0.42758000  0.12410300  1
  I  I4  1  0.82546500  0.72287100  0.53646700  1
  I  I5  1  0.32546500  0.27712900  0.96353300  1
  I  I6  1  0.17453500  0.27712900  0.46353300  1
  I  I7  1  0.67453500  0.72287100  0.03646700  1
  I  I8  1  0.67794100  0.86957700  0.70679400  1
  I  I9  1  0.17794100  0.13042300  0.79320600  1
  I  I10  1  0.32205900  0.13042300  0.29320600  1
  I  I11  1  0.82205900  0.86957700  0.20679400  1
loop_
_geom_bond_atom_site_label_1
_geom_bond_atom_site_label_2
_geom_bond_distance
_geom_bond_site_symmetry_2
In0 Se4 2.994367 1_555
In0 Se0 3.009514 1_555
In1 Se5 2.994367 1_555
In1 Se1 3.009514 1_455
In2 Se6 2.994367 1_555
In2 Se2 3.009514 1_555
In3 Se7 2.994367 1_555
In3 Se3 3.009514 1_655
C0 H12 1.094752 1_555
C0 H16 1.094796 1_555
C0 H20 1.096326 1_555
C0 Se0 1.964672 1_555
C1 H13 1.094752 1_556
C1 H17 1.094796 1_555
C1 H21 1.096326 1_556
C1 Se1 1.964672 1_555
C2 H14 1.094752 1_555
C2 H18 1.094796 1_555
C2 H22 1.096326 1_555
C2 Se2 1.964672 1_555
C3 H15 1.094752 1_554
C3 H19 1.094796 1_555
C3 H23 1.096326 1_554
C3 Se3 1.964672 1_555
C4 H0 1.094861 1_555
C4 H4 1.095382 1_555
C4 H8 1.095789 1_555
C4 Se0 1.969212 1_555
C5 H1 1.094861 1_555
C5 H5 1.095382 1_555
C5 H9 1.095789 1_555
C5 Se1 1.969212 1_555
C6 H2 1.094861 1_555
C6 H6 1.095382 1_555
C6 H10 1.095789 1_555
C6 Se2 1.969212 1_555
C7 H3 1.094861 1_555
C7 H7 1.095382 1_555
C7 H11 1.095789 1_555
C7 Se3 1.969212 1_555
C8 H36 1.093755 1_555
C8 H44 1.095308 1_555
C8 H40 1.096438 1_555
C8 Se4 1.967327 1_555
C9 H37 1.093755 1_555
C9 H45 1.095308 1_555
C9 H41 1.096438 1_555
C9 Se5 1.967327 1_555
C10 H38 1.093755 1_555
C10 H46 1.095308 1_555
C10 H42 1.096438 1_555
C10 Se6 1.967327 1_555
C11 H39 1.093755 1_555
C11 H47 1.095308 1_555
C11 H43 1.096438 1_555
C11 Se7 1.967327 1_555
C12 H24 1.093196 1_555
C12 H32 1.095882 1_555
C12 H28 1.096761 1_555
C12 Se4 1.963512 1_555
C13 H25 1.093196 1_555
C13 H33 1.095882 1_555
C13 H29 1.096761 1_555
C13 Se5 1.963512 1_555
C14 H26 1.093196 1_555
C14 H34 1.095882 1_555
C14 H30 1.096761 1_555
C14 Se6 1.963512 1_555
C15 H27 1.093196 1_555
C15 H35 1.095882 1_555
C15 H31 1.096761 1_555
C15 Se7 1.963512 1_555
I0 In0 2.747978 1_555
I1 In1 2.747978 1_655
I2 In2 2.747978 1_555
I3 In3 2.747978 1_455
I4 In0 2.755610 1_555
I5 In1 2.755610 1_555
I6 In2 2.755610 1_555
I7 In3 2.755610 1_555
I8 In0 2.762099 1_555
I9 In1 2.762099 1_555
I10 In2 2.762099 1_555
I11 In3 2.762099 1_555
