# generated using pymatgen
data_CeMgRh
_symmetry_space_group_name_H-M   'P 1'
_cell_length_a   7.40423270
_cell_length_b   7.40406151
_cell_length_c   4.11942730
_cell_angle_alpha   90.00000000
_cell_angle_beta   90.00000000
_cell_angle_gamma   120.00059455
_symmetry_Int_Tables_number   1
_chemical_formula_structural   CeMgRh
_chemical_formula_sum   'Ce3 Mg3 Rh3'
_cell_volume   195.57572555
_cell_formula_units_Z   3
loop_
 _symmetry_equiv_pos_site_id
 _symmetry_equiv_pos_as_xyz
  1  'x, y, z'
loop_
 _atom_site_type_symbol
 _atom_site_label
 _atom_site_symmetry_multiplicity
 _atom_site_fract_x
 _atom_site_fract_y
 _atom_site_fract_z
 _atom_site_occupancy
  Ce  Ce0  1  0.58351037  0.00060565  0.00000000  1
  Ce  Ce1  1  0.99935973  0.58298830  0.00000000  1
  Ce  Ce2  1  0.41708969  0.41640808  0.00000000  1
  Mg  Mg0  1  0.23536501  0.00004399  0.50000000  1
  Mg  Mg1  1  0.99993769  0.23525549  0.50000000  1
  Mg  Mg2  1  0.76474727  0.76473773  0.50000000  1
  Rh  Rh0  1  0.33336390  0.66671452  0.50000000  1
  Rh  Rh1  1  0.66661593  0.33326316  0.50000000  1
  Rh  Rh2  1  1.00001042  0.99998410  -0.00000000  1
loop_
_geom_bond_atom_site_label_1
_geom_bond_atom_site_label_2
_geom_bond_distance
_geom_bond_site_symmetry_2
Ce0 Rh1 3.028515 1_555
Ce0 Rh1 3.028515 1_554
Ce0 Rh0 3.034060 1_544
Ce0 Rh0 3.034060 1_545
Ce0 Rh2 3.086167 1_545
Ce1 Rh1 3.029124 1_555
Ce1 Rh1 3.029124 1_554
Ce1 Rh0 3.034726 1_654
Ce1 Rh0 3.034726 1_655
Ce1 Rh2 3.085056 1_555
Ce2 Rh1 3.028569 1_554
Ce2 Rh1 3.028569 1_555
Ce2 Rh0 3.034849 1_554
Ce2 Rh0 3.034849 1_555
Ce2 Rh2 3.085666 1_445
Mg0 Rh2 2.697846 1_446
Mg0 Rh2 2.697846 1_445
Mg0 Rh1 2.899085 1_555
Mg0 Rh0 2.899709 1_545
Mg1 Rh2 2.697739 1_545
Mg1 Rh2 2.697739 1_546
Mg1 Rh1 2.899742 1_555
Mg1 Rh0 2.900554 1_655
Mg2 Rh2 2.697489 1_556
Mg2 Rh2 2.697489 1_555
Mg2 Rh0 2.900101 1_555
Mg2 Rh1 2.900442 1_555
