# generated using pymatgen
data_Zr(Fe2Si)2
_symmetry_space_group_name_H-M   'P 1'
_cell_length_a   7.02289417
_cell_length_b   7.02289417
_cell_length_c   3.78639415
_cell_angle_alpha   90.00000000
_cell_angle_beta   90.00000000
_cell_angle_gamma   90.00000000
_symmetry_Int_Tables_number   1
_chemical_formula_structural   Zr(Fe2Si)2
_chemical_formula_sum   'Zr2 Fe8 Si4'
_cell_volume   186.74890688
_cell_formula_units_Z   2
loop_
 _symmetry_equiv_pos_site_id
 _symmetry_equiv_pos_as_xyz
  1  'x, y, z'
loop_
 _atom_site_type_symbol
 _atom_site_label
 _atom_site_symmetry_multiplicity
 _atom_site_fract_x
 _atom_site_fract_y
 _atom_site_fract_z
 _atom_site_occupancy
  Zr  Zr0  1  0.50000000  0.50000000  -0.00000000  1
  Zr  Zr1  1  -0.00000000  -0.00000000  0.50000000  1
  Fe  Fe0  1  0.59619438  0.14833679  0.50000000  1
  Fe  Fe1  1  0.40380562  0.85166321  0.50000000  1
  Fe  Fe2  1  0.14833679  0.59619438  0.50000000  1
  Fe  Fe3  1  0.85166321  0.40380562  0.50000000  1
  Fe  Fe4  1  0.09619438  0.35166321  0.00000000  1
  Fe  Fe5  1  0.90380562  0.64833679  -0.00000000  1
  Fe  Fe6  1  0.64833679  0.90380562  0.00000000  1
  Fe  Fe7  1  0.35166321  0.09619438  -0.00000000  1
  Si  Si0  1  0.21260412  0.78739588  -0.00000000  1
  Si  Si1  1  0.28739588  0.28739588  0.50000000  1
  Si  Si2  1  0.71260412  0.71260412  0.50000000  1
  Si  Si3  1  0.78739588  0.21260412  -0.00000000  1
loop_
_geom_bond_atom_site_label_1
_geom_bond_atom_site_label_2
_geom_bond_distance
_geom_bond_site_symmetry_2
Fe0 Si3 2.364526 1_555
Fe0 Si3 2.364526 1_556
Fe0 Si1 2.378408 1_555
Fe0 Zr1 3.021174 1_655
Fe0 Zr0 3.184331 1_555
Fe0 Zr0 3.184331 1_556
Fe1 Si0 2.364526 1_555
Fe1 Si0 2.364526 1_556
Fe1 Si2 2.378408 1_555
Fe1 Zr1 3.021174 1_565
Fe1 Zr0 3.184331 1_555
Fe1 Zr0 3.184331 1_556
Fe2 Si0 2.364526 1_556
Fe2 Si0 2.364526 1_555
Fe2 Si1 2.378408 1_555
Fe2 Zr1 3.021174 1_565
Fe2 Zr0 3.184331 1_555
Fe2 Zr0 3.184331 1_556
Fe3 Si3 2.364526 1_556
Fe3 Si3 2.364526 1_555
Fe3 Si2 2.378408 1_555
Fe3 Zr1 3.021174 1_655
Fe3 Zr0 3.184331 1_555
Fe3 Zr0 3.184331 1_556
Fe4 Si1 2.364526 1_554
Fe4 Si1 2.364526 1_555
Fe4 Si3 2.378408 1_455
Fe4 Zr0 3.021174 1_555
Fe4 Zr1 3.184331 1_555
Fe4 Zr1 3.184331 1_554
Fe5 Si2 2.364526 1_555
Fe5 Si2 2.364526 1_554
Fe5 Si0 2.378408 1_655
Fe5 Zr0 3.021174 1_555
Fe5 Zr1 3.184331 1_664
Fe5 Zr1 3.184331 1_665
Fe6 Si2 2.364526 1_555
Fe6 Si2 2.364526 1_554
Fe6 Si3 2.378408 1_565
Fe6 Zr0 3.021174 1_555
Fe6 Zr1 3.184331 1_664
Fe6 Zr1 3.184331 1_665
Fe7 Si1 2.364526 1_554
Fe7 Si1 2.364526 1_555
Fe7 Si0 2.378408 1_545
Fe7 Zr0 3.021174 1_555
Fe7 Zr1 3.184331 1_555
Fe7 Zr1 3.184331 1_554
Si0 Zr1 2.835995 1_565
Si0 Zr1 2.835995 1_564
Si0 Zr0 2.854379 1_555
Si1 Zr0 2.835995 1_555
Si1 Zr0 2.835995 1_556
Si1 Zr1 2.854379 1_555
Si2 Zr0 2.835995 1_555
Si2 Zr0 2.835995 1_556
Si2 Zr1 2.854379 1_665
Si3 Zr1 2.835995 1_655
Si3 Zr1 2.835995 1_654
Si3 Zr0 2.854379 1_555
