# generated using pymatgen
data_V3P4H8N2O17
_symmetry_space_group_name_H-M   'P 1'
_cell_length_a   7.40025000
_cell_length_b   11.69895300
_cell_length_c   17.73991900
_cell_angle_alpha   90.00000000
_cell_angle_beta   90.00000000
_cell_angle_gamma   90.00000000
_symmetry_Int_Tables_number   1
_chemical_formula_structural   V3P4H8N2O17
_chemical_formula_sum   'V12 P16 H32 N8 O68'
_cell_volume   1535.83662630
_cell_formula_units_Z   4
loop_
 _symmetry_equiv_pos_site_id
 _symmetry_equiv_pos_as_xyz
  1  'x, y, z'
loop_
 _atom_site_type_symbol
 _atom_site_label
 _atom_site_symmetry_multiplicity
 _atom_site_fract_x
 _atom_site_fract_y
 _atom_site_fract_z
 _atom_site_occupancy
  V  V0  1  0.74993400  0.16180100  0.89900300  1
  V  V1  1  0.74993400  0.33819900  0.39900300  1
  V  V2  1  0.24993400  0.83819900  0.10099700  1
  V  V3  1  0.24993400  0.66180100  0.60099700  1
  V  V4  1  0.74991800  0.83918900  0.80983300  1
  V  V5  1  0.74991800  0.66081100  0.30983300  1
  V  V6  1  0.24991800  0.16081100  0.19016700  1
  V  V7  1  0.24991800  0.33918900  0.69016700  1
  V  V8  1  0.97504700  0.50106300  0.99889800  1
  V  V9  1  0.47504700  0.49893700  0.00110200  1
  V  V10  1  0.47504700  0.00106300  0.50110200  1
  V  V11  1  0.97504700  0.99893700  0.49889800  1
  P  P0  1  0.45130300  0.88861700  0.67166200  1
  P  P1  1  0.04804000  0.61149400  0.17149300  1
  P  P2  1  0.95130300  0.11138300  0.32833800  1
  P  P3  1  0.54804000  0.38850600  0.82850700  1
  P  P4  1  0.54804000  0.11149400  0.32850700  1
  P  P5  1  0.95130300  0.38861700  0.82833800  1
  P  P6  1  0.04804000  0.88850600  0.67149300  1
  P  P7  1  0.45130300  0.61138300  0.17166200  1
  P  P8  1  0.95102200  0.78977300  0.97156400  1
  P  P9  1  0.54790200  0.71066500  0.47153900  1
  P  P10  1  0.45102200  0.21022700  0.02843600  1
  P  P11  1  0.04790200  0.28933500  0.52846100  1
  P  P12  1  0.04790200  0.21066500  0.02846100  1
  P  P13  1  0.45102200  0.28977300  0.52843600  1
  P  P14  1  0.54790200  0.78933500  0.97153900  1
  P  P15  1  0.95102200  0.71022700  0.47156400  1
  H  H0  1  0.13728000  0.64771600  0.86126600  1
  H  H1  1  0.36289600  0.85211100  0.36118200  1
  H  H2  1  0.63728000  0.35228400  0.13873400  1
  H  H3  1  0.86289600  0.14788900  0.63881800  1
  H  H4  1  0.86289600  0.35211100  0.13881800  1
  H  H5  1  0.63728000  0.14771600  0.63873400  1
  H  H6  1  0.36289600  0.64788900  0.86118200  1
  H  H7  1  0.13728000  0.85228400  0.36126600  1
  H  H8  1  0.24992900  0.00177400  0.80365600  1
  H  H9  1  0.24992900  0.49822600  0.30365600  1
  H  H10  1  0.74993000  0.99822600  0.19634400  1
  H  H11  1  0.74993000  0.50177400  0.69634400  1
  H  H12  1  0.25005900  0.56558200  0.79946000  1
  H  H13  1  0.25005900  0.93441800  0.29946000  1
  H  H14  1  0.75005900  0.43441800  0.20054000  1
  H  H15  1  0.75005900  0.06558200  0.70054000  1
  H  H16  1  0.25000700  0.11753300  0.85909100  1
  H  H17  1  0.25000700  0.38246700  0.35909100  1
  H  H18  1  0.75000700  0.88246700  0.14090900  1
  H  H19  1  0.75000700  0.61753300  0.64090900  1
  H  H20  1  0.13589400  0.99934100  0.88594300  1
  H  H21  1  0.36407100  0.50070100  0.38592800  1
  H  H22  1  0.63589400  0.00065900  0.11405700  1
  H  H23  1  0.86407100  0.49929900  0.61407200  1
  H  H24  1  0.86407100  0.00070100  0.11407200  1
  H  H25  1  0.63589400  0.49934100  0.61405700  1
  H  H26  1  0.36407100  0.99929900  0.88592800  1
  H  H27  1  0.13589400  0.50065900  0.38594300  1
  H  H28  1  0.24992900  0.70744000  0.78750300  1
  H  H29  1  0.24992900  0.79256000  0.28750300  1
  H  H30  1  0.74992900  0.29256000  0.21249700  1
  H  H31  1  0.74992900  0.20744000  0.71249700  1
  N  N0  1  0.25001700  0.64339000  0.82676400  1
  N  N1  1  0.25001700  0.85661000  0.32676400  1
  N  N2  1  0.75001700  0.35661000  0.17323600  1
  N  N3  1  0.75001700  0.14339000  0.67323600  1
  N  N4  1  0.24998600  0.02959400  0.85895900  1
  N  N5  1  0.24998600  0.47040600  0.35895900  1
  N  N6  1  0.74998600  0.97040600  0.14104100  1
  N  N7  1  0.74998600  0.52959400  0.64104100  1
  O  O0  1  0.55786500  0.83819000  0.89141100  1
  O  O1  1  0.94190000  0.66151100  0.39139800  1
  O  O2  1  0.05786500  0.16181000  0.10858900  1
  O  O3  1  0.44190000  0.33848900  0.60860200  1
  O  O4  1  0.44190000  0.16151100  0.10860200  1
  O  O5  1  0.05786500  0.33819000  0.60858900  1
  O  O6  1  0.94190000  0.83848900  0.89139800  1
  O  O7  1  0.55786500  0.66181000  0.39141100  1
  O  O8  1  0.56539900  0.26248800  0.85154100  1
  O  O9  1  0.93437000  0.23738100  0.35145800  1
  O  O10  1  0.06539900  0.73751200  0.14845900  1
  O  O11  1  0.43437000  0.76261900  0.64854200  1
  O  O12  1  0.43437000  0.73738100  0.14854200  1
  O  O13  1  0.06539900  0.76248800  0.64845900  1
  O  O14  1  0.93437000  0.26261900  0.85145800  1
  O  O15  1  0.56539900  0.23751200  0.35154100  1
  O  O16  1  0.02463600  0.46557000  0.89015300  1
  O  O17  1  0.47500500  0.03458500  0.39012300  1
  O  O18  1  0.52463600  0.53443000  0.10984700  1
  O  O19  1  0.97500500  0.96541500  0.60987700  1
  O  O20  1  0.97500500  0.53458500  0.10987700  1
  O  O21  1  0.52463600  0.96557000  0.60984700  1
  O  O22  1  0.47500500  0.46541500  0.89012300  1
  O  O23  1  0.02463600  0.03443000  0.39015300  1
  O  O24  1  0.74999400  0.70775200  0.77889400  1
  O  O25  1  0.74999400  0.79224800  0.27889400  1
  O  O26  1  0.24999400  0.29224800  0.22110600  1
  O  O27  1  0.24999400  0.20775200  0.72110600  1
  O  O28  1  0.74957500  0.79272100  0.00843800  1
  O  O29  1  0.74957500  0.70727900  0.50843800  1
  O  O30  1  0.24957500  0.20727900  0.99156200  1
  O  O31  1  0.24957500  0.29272100  0.49156200  1
  O  O32  1  0.74782900  0.50722900  0.98961900  1
  O  O33  1  0.74782900  0.99277100  0.48961900  1
  O  O34  1  0.24782900  0.49277100  0.01038100  1
  O  O35  1  0.24782900  0.00722900  0.51038100  1
  O  O36  1  0.02099500  0.66714800  0.97136200  1
  O  O37  1  0.47779600  0.83289100  0.47101800  1
  O  O38  1  0.52099500  0.33285200  0.02863800  1
  O  O39  1  0.97779600  0.16710900  0.52898200  1
  O  O40  1  0.97779600  0.33289100  0.02898200  1
  O  O41  1  0.52099500  0.16714800  0.52863800  1
  O  O42  1  0.47779600  0.66710900  0.97101800  1
  O  O43  1  0.02099500  0.83285200  0.47136200  1
  O  O44  1  0.55492500  0.90712900  0.74451100  1
  O  O45  1  0.94502700  0.59306700  0.24455400  1
  O  O46  1  0.05492500  0.09287100  0.25548900  1
  O  O47  1  0.44502700  0.40693300  0.75544600  1
  O  O48  1  0.44502700  0.09306700  0.25544600  1
  O  O49  1  0.05492500  0.40712900  0.75548900  1
  O  O50  1  0.94502700  0.90693300  0.74455400  1
  O  O51  1  0.55492500  0.59287100  0.24451100  1
  O  O52  1  0.56461800  0.13133100  0.97841800  1
  O  O53  1  0.93520600  0.36863100  0.47828200  1
  O  O54  1  0.06461800  0.86866900  0.02158200  1
  O  O55  1  0.43520600  0.63136900  0.52171800  1
  O  O56  1  0.43520600  0.86863100  0.02171800  1
  O  O57  1  0.06461800  0.63133100  0.52158200  1
  O  O58  1  0.93520600  0.13136900  0.97828200  1
  O  O59  1  0.56461800  0.36866900  0.47841800  1
  O  O60  1  0.74996800  0.04732800  0.84540900  1
  O  O61  1  0.74996800  0.45267200  0.34540900  1
  O  O62  1  0.24996800  0.95267200  0.15459100  1
  O  O63  1  0.24996800  0.54732800  0.65459100  1
  O  O64  1  0.24965600  0.93366600  0.69406800  1
  O  O65  1  0.24965600  0.56633400  0.19406800  1
  O  O66  1  0.74965600  0.06633400  0.30593200  1
  O  O67  1  0.74965600  0.43366600  0.80593200  1
loop_
_geom_bond_atom_site_label_1
_geom_bond_atom_site_label_2
_geom_bond_distance
_geom_bond_site_symmetry_2
H0 N0 1.035958 1_555
H1 N1 1.036026 1_555
H2 N2 1.035958 1_555
H3 N3 1.036026 1_555
H4 N2 1.036026 1_555
H5 N3 1.035958 1_555
H6 N0 1.036026 1_555
H7 N1 1.035958 1_555
H8 N4 1.033648 1_555
H9 N5 1.033648 1_555
H10 N6 1.033648 1_555
H11 N7 1.033648 1_555
H12 N0 1.031121 1_555
H13 N1 1.031121 1_555
H14 N2 1.031121 1_555
H15 N3 1.031121 1_555
H16 N4 1.028797 1_555
H17 N5 1.028797 1_555
H18 N6 1.028797 1_555
H19 N7 1.028797 1_555
H20 N4 1.033088 1_565
H21 N5 1.033091 1_555
H22 N6 1.033088 1_545
H23 N7 1.033091 1_555
H24 N6 1.033091 1_545
H25 N7 1.033088 1_555
H26 N4 1.033091 1_565
H27 N5 1.033088 1_555
H28 N0 1.023021 1_555
H29 N1 1.023021 1_555
H30 N2 1.023021 1_555
H31 N3 1.023021 1_555
O0 P14 1.533841 1_555
O0 V4 2.028401 1_555
O1 P15 1.533574 1_555
O1 V5 2.027851 1_555
O2 P12 1.533841 1_555
O2 V6 2.028401 1_555
O3 P13 1.533574 1_555
O3 V7 2.027851 1_555
O4 P10 1.533574 1_555
O4 V6 2.027851 1_555
O5 P11 1.533841 1_555
O5 V7 2.028401 1_555
O6 P8 1.533574 1_555
O6 V4 2.027851 1_555
O7 P9 1.533841 1_555
O7 V5 2.028401 1_555
O8 P3 1.535243 1_555
O8 V0 1.990306 1_555
O9 P2 1.535165 1_555
O9 V1 1.991335 1_555
O10 P1 1.535243 1_555
O10 V2 1.990306 1_555
O11 P0 1.535165 1_555
O11 V3 1.991335 1_555
O12 P7 1.535165 1_555
O12 V2 1.991335 1_555
O13 P6 1.535243 1_555
O13 V3 1.990306 1_555
O14 P5 1.535165 1_555
O14 V0 1.991335 1_555
O15 P4 1.535243 1_555
O15 V1 1.990306 1_555
O16 P5 1.519048 1_455
O16 V8 2.007142 1_455
O17 P4 1.515408 1_555
O17 V10 2.007438 1_555
O18 P7 1.519048 1_555
O18 V9 2.007142 1_555
O19 P6 1.515408 1_655
O19 V11 2.007438 1_555
O20 P1 1.515408 1_655
O20 V8 2.007438 1_554
O21 P0 1.519048 1_555
O21 V10 2.007142 1_565
O22 P3 1.515408 1_555
O22 V9 2.007438 1_556
O23 P2 1.519048 1_455
O23 V11 2.007142 1_445
O24 V4 1.632693 1_555
O25 V5 1.632693 1_555
O26 V6 1.632693 1_555
O27 V7 1.632693 1_555
O28 P8 1.628328 1_554
O28 P14 1.630153 1_554
O29 P15 1.628328 1_555
O29 P9 1.630153 1_555
O30 P10 1.628328 1_556
O30 P12 1.630153 1_556
O31 P13 1.628328 1_555
O31 P11 1.630153 1_555
O32 V8 1.691047 1_555
O32 V9 2.031225 1_556
O33 V11 1.691047 1_555
O33 V10 2.031225 1_565
O34 V9 1.691047 1_555
O34 V8 2.031225 1_454
O35 V10 1.691047 1_555
O35 V11 2.031225 1_445
O36 P8 1.525182 1_455
O36 V8 2.032133 1_455
O37 P9 1.521151 1_555
O37 V10 2.038637 1_565
O38 P10 1.525182 1_555
O38 V9 2.032133 1_555
O39 P11 1.521151 1_655
O39 V11 2.038637 1_545
O40 P12 1.521151 1_655
O40 V8 2.038637 1_554
O41 P13 1.525182 1_555
O41 V10 2.032133 1_555
O42 P14 1.521151 1_555
O42 V9 2.038637 1_556
O43 P15 1.525182 1_455
O43 V11 2.032133 1_455
O44 P0 1.518242 1_555
O44 V4 2.014156 1_555
O45 P1 1.519037 1_655
O45 V5 2.013429 1_555
O46 P2 1.518242 1_455
O46 V6 2.014156 1_555
O47 P3 1.519037 1_555
O47 V7 2.013429 1_555
O48 P4 1.519037 1_555
O48 V6 2.013429 1_555
O49 P5 1.518242 1_455
O49 V7 2.014156 1_555
O50 P6 1.519037 1_655
O50 V4 2.013429 1_555
O51 P7 1.518242 1_555
O51 V5 2.014156 1_555
O52 P10 1.531644 1_556
O52 V0 1.998131 1_555
O53 P11 1.532487 1_655
O53 V1 1.996127 1_555
O54 P8 1.531644 1_454
O54 V2 1.998131 1_555
O55 P9 1.532487 1_555
O55 V3 1.996127 1_555
O56 P14 1.532487 1_554
O56 V2 1.996127 1_555
O57 P15 1.531644 1_455
O57 V3 1.998131 1_555
O58 P12 1.532487 1_656
O58 V0 1.996127 1_555
O59 P13 1.531644 1_555
O59 V1 1.998131 1_555
O60 V0 1.642384 1_555
O60 V4 2.515467 1_545
O61 V1 1.642384 1_555
O61 V5 2.515467 1_555
O62 V2 1.642384 1_555
O62 V6 2.515467 1_565
O63 V3 1.642384 1_555
O63 V7 2.515467 1_555
O64 P0 1.631724 1_555
O64 P6 1.632667 1_555
O65 P7 1.631724 1_555
O65 P1 1.632667 1_555
O66 P2 1.631724 1_555
O66 P4 1.632667 1_555
O67 P5 1.631724 1_555
O67 P3 1.632667 1_555
