# generated using pymatgen
data_KBaV2CuClO7
_symmetry_space_group_name_H-M   'P 1'
_cell_length_a   8.99480195
_cell_length_b   8.99480195
_cell_length_c   5.62039700
_cell_angle_alpha   90.00000000
_cell_angle_beta   90.00000000
_cell_angle_gamma   90.99019390
_symmetry_Int_Tables_number   1
_chemical_formula_structural   KBaV2CuClO7
_chemical_formula_sum   'K2 Ba2 V4 Cu2 Cl2 O14'
_cell_volume   454.65853146
_cell_formula_units_Z   2
loop_
 _symmetry_equiv_pos_site_id
 _symmetry_equiv_pos_as_xyz
  1  'x, y, z'
loop_
 _atom_site_type_symbol
 _atom_site_label
 _atom_site_symmetry_multiplicity
 _atom_site_fract_x
 _atom_site_fract_y
 _atom_site_fract_z
 _atom_site_occupancy
  K  K0  1  0.32721600  0.32721600  0.83256900  1
  K  K1  1  0.67278400  0.67278400  0.83256900  1
  Ba  Ba0  1  0.82133200  0.17866800  0.83831400  1
  Ba  Ba1  1  0.17866800  0.82133200  0.83831400  1
  V  V0  1  0.13266400  0.13266400  0.30004700  1
  V  V1  1  0.86733600  0.86733600  0.30004700  1
  V  V2  1  0.63120700  0.36879300  0.29970600  1
  V  V3  1  0.36879300  0.63120700  0.29970600  1
  Cu  Cu0  1  0.50000000  0.00000000  0.22448800  1
  Cu  Cu1  1  0.00000000  0.50000000  0.22448800  1
  Cl  Cl0  1  0.50000000  0.00000000  0.69246900  1
  Cl  Cl1  1  0.00000000  0.50000000  0.69246900  1
  O  O0  1  0.11899300  0.11899300  0.60177300  1
  O  O1  1  0.88100700  0.88100700  0.60177300  1
  O  O2  1  0.63002700  0.36997300  0.60087300  1
  O  O3  1  0.36997300  0.63002700  0.60087300  1
  O  O4  1  0.30263900  0.08490000  0.18625600  1
  O  O5  1  0.69736100  0.91510000  0.18625600  1
  O  O6  1  0.80472700  0.40857600  0.18176400  1
  O  O7  1  0.19527300  0.59142400  0.18176400  1
  O  O8  1  0.40857600  0.80472700  0.18176400  1
  O  O9  1  0.59142400  0.19527300  0.18176400  1
  O  O10  1  0.08490000  0.30263900  0.18625600  1
  O  O11  1  0.91510000  0.69736100  0.18625600  1
  O  O12  1  0.00000000  0.00000000  0.15764800  1
  O  O13  1  0.50000000  0.50000000  0.17179500  1
loop_
_geom_bond_atom_site_label_1
_geom_bond_atom_site_label_2
_geom_bond_distance
_geom_bond_site_symmetry_2
K0 O13 2.895237 1_556
K0 O0 2.928667 1_555
K0 O10 2.955401 1_556
K0 O4 2.955401 1_556
K0 O3 3.037461 1_555
K0 O2 3.037461 1_555
K0 O9 3.317466 1_556
K0 O7 3.317466 1_556
K1 O13 2.895237 1_556
K1 O1 2.928667 1_555
K1 O5 2.955401 1_556
K1 O11 2.955401 1_556
K1 O2 3.037461 1_555
K1 O3 3.037461 1_555
K1 O8 3.317466 1_556
K1 O6 3.317466 1_556
Ba0 O2 2.793784 1_555
Ba0 O6 2.834725 1_556
Ba0 O9 2.834725 1_556
Ba0 O12 2.911348 1_656
Ba0 O0 3.045278 1_655
Ba0 O1 3.045278 1_545
Ba0 O5 3.255264 1_546
Ba0 O10 3.255264 1_656
Ba0 Cl0 3.383494 1_555
Ba0 Cl1 3.383494 1_655
Ba1 O3 2.793784 1_555
Ba1 O7 2.834725 1_556
Ba1 O8 2.834725 1_556
Ba1 O12 2.911348 1_566
Ba1 O0 3.045278 1_565
Ba1 O1 3.045278 1_455
Ba1 O11 3.255264 1_456
Ba1 O4 3.255264 1_566
Ba1 Cl1 3.383494 1_555
Ba1 Cl0 3.383494 1_565
Cu0 O9 1.941410 1_555
Cu0 O8 1.941410 1_545
Cu0 O5 1.956430 1_545
Cu0 O4 1.956430 1_555
Cu1 O7 1.941410 1_555
Cu1 O6 1.941410 1_455
Cu1 O10 1.956430 1_555
Cu1 O11 1.956430 1_455
Cl0 Cu0 2.630239 1_555
Cl0 Cu0 2.990158 1_556
Cl0 K0 3.443285 1_555
Cl0 K1 3.443285 1_545
Cl1 Cu1 2.630239 1_555
Cl1 Cu1 2.990158 1_556
Cl1 K0 3.443285 1_555
Cl1 K1 3.443285 1_455
O0 V0 1.704560 1_555
O1 V1 1.704560 1_555
O2 V2 1.692746 1_555
O3 V3 1.692746 1_555
O4 V0 1.718667 1_555
O5 V1 1.718667 1_555
O6 V2 1.727479 1_555
O7 V3 1.727479 1_555
O8 V3 1.727479 1_555
O9 V2 1.727479 1_555
O10 V0 1.718667 1_555
O11 V1 1.718667 1_555
O12 V0 1.854506 1_555
O12 V1 1.854506 1_445
O13 V3 1.830472 1_555
O13 V2 1.830472 1_555
