# generated using pymatgen
data_NaU2H5C4O15
_symmetry_space_group_name_H-M   'P 1'
_cell_length_a   9.66073500
_cell_length_b   13.43393600
_cell_length_c   11.80234000
_cell_angle_alpha   90.00000000
_cell_angle_beta   90.00000000
_cell_angle_gamma   90.00000000
_symmetry_Int_Tables_number   1
_chemical_formula_structural   NaU2H5C4O15
_chemical_formula_sum   'Na4 U8 H20 C16 O60'
_cell_volume   1531.72769846
_cell_formula_units_Z   4
loop_
 _symmetry_equiv_pos_site_id
 _symmetry_equiv_pos_as_xyz
  1  'x, y, z'
loop_
 _atom_site_type_symbol
 _atom_site_label
 _atom_site_symmetry_multiplicity
 _atom_site_fract_x
 _atom_site_fract_y
 _atom_site_fract_z
 _atom_site_occupancy
  Na  Na0  1  0.88089300  0.25000000  0.95007800  1
  Na  Na1  1  0.38089300  0.25000000  0.54992200  1
  Na  Na2  1  0.11910700  0.75000000  0.04992200  1
  Na  Na3  1  0.61910700  0.75000000  0.45007800  1
  U  U0  1  0.27105200  0.08875100  0.89132800  1
  U  U1  1  0.77105200  0.41124900  0.60867200  1
  U  U2  1  0.72894800  0.58875100  0.10867200  1
  U  U3  1  0.22894800  0.91124900  0.39132800  1
  U  U4  1  0.72894800  0.91124900  0.10867200  1
  U  U5  1  0.22894800  0.58875100  0.39132800  1
  U  U6  1  0.27105200  0.41124900  0.89132800  1
  U  U7  1  0.77105200  0.08875100  0.60867200  1
  H  H0  1  0.45344500  0.25000000  0.91607600  1
  H  H1  1  0.95344500  0.25000000  0.58392400  1
  H  H2  1  0.54655500  0.75000000  0.08392400  1
  H  H3  1  0.04655500  0.75000000  0.41607600  1
  H  H4  1  0.89576500  0.19193800  0.18409600  1
  H  H5  1  0.39576500  0.30806200  0.31590400  1
  H  H6  1  0.10423500  0.69193800  0.81590400  1
  H  H7  1  0.60423500  0.80806200  0.68409600  1
  H  H8  1  0.10423500  0.80806200  0.81590400  1
  H  H9  1  0.60423500  0.69193800  0.68409600  1
  H  H10  1  0.89576500  0.30806200  0.18409600  1
  H  H11  1  0.39576500  0.19193800  0.31590400  1
  H  H12  1  0.60475700  0.19257100  0.06818100  1
  H  H13  1  0.10475700  0.30742900  0.43181900  1
  H  H14  1  0.39524300  0.69257100  0.93181900  1
  H  H15  1  0.89524300  0.80742900  0.56818100  1
  H  H16  1  0.39524300  0.80742900  0.93181900  1
  H  H17  1  0.89524300  0.69257100  0.56818100  1
  H  H18  1  0.60475700  0.30742900  0.06818100  1
  H  H19  1  0.10475700  0.19257100  0.43181900  1
  C  C0  1  0.28324600  0.05010000  0.16487100  1
  C  C1  1  0.78324600  0.44990000  0.33512900  1
  C  C2  1  0.71675400  0.55010000  0.83512900  1
  C  C3  1  0.21675400  0.94990000  0.66487100  1
  C  C4  1  0.71675400  0.94990000  0.83512900  1
  C  C5  1  0.21675400  0.55010000  0.66487100  1
  C  C6  1  0.28324600  0.44990000  0.16487100  1
  C  C7  1  0.78324600  0.05010000  0.33512900  1
  C  C8  1  0.23470700  0.94970800  0.11756000  1
  C  C9  1  0.73470700  0.55029200  0.38244000  1
  C  C10  1  0.76529300  0.44970800  0.88244000  1
  C  C11  1  0.26529300  0.05029200  0.61756000  1
  C  C12  1  0.76529300  0.05029200  0.88244000  1
  C  C13  1  0.26529300  0.44970800  0.61756000  1
  C  C14  1  0.23470700  0.55029200  0.11756000  1
  C  C15  1  0.73470700  0.94970800  0.38244000  1
  O  O0  1  0.09434200  0.13291400  0.89809900  1
  O  O1  1  0.59434200  0.36708600  0.60190100  1
  O  O2  1  0.90565800  0.63291400  0.10190100  1
  O  O3  1  0.40565800  0.86708600  0.39809900  1
  O  O4  1  0.90565800  0.86708600  0.10190100  1
  O  O5  1  0.40565800  0.63291400  0.39809900  1
  O  O6  1  0.09434200  0.36708600  0.89809900  1
  O  O7  1  0.59434200  0.13291400  0.60190100  1
  O  O8  1  0.44734900  0.04524000  0.88376700  1
  O  O9  1  0.94734900  0.45476000  0.61623300  1
  O  O10  1  0.55265100  0.54524000  0.11623300  1
  O  O11  1  0.05265100  0.95476000  0.38376700  1
  O  O12  1  0.55265100  0.95476000  0.11623300  1
  O  O13  1  0.05265100  0.54524000  0.38376700  1
  O  O14  1  0.44734900  0.45476000  0.88376700  1
  O  O15  1  0.94734900  0.04524000  0.61623300  1
  O  O16  1  0.30442700  0.11790200  0.09266000  1
  O  O17  1  0.80442700  0.38209800  0.40734000  1
  O  O18  1  0.69557300  0.61790200  0.90734000  1
  O  O19  1  0.19557300  0.88209800  0.59266000  1
  O  O20  1  0.69557300  0.88209800  0.90734000  1
  O  O21  1  0.19557300  0.61790200  0.59266000  1
  O  O22  1  0.30442700  0.38209800  0.09266000  1
  O  O23  1  0.80442700  0.11790200  0.40734000  1
  O  O24  1  0.29692600  0.05646300  0.27123500  1
  O  O25  1  0.79692600  0.44353700  0.22876500  1
  O  O26  1  0.70307400  0.55646300  0.72876500  1
  O  O27  1  0.20307400  0.94353700  0.77123500  1
  O  O28  1  0.70307400  0.94353700  0.72876500  1
  O  O29  1  0.20307400  0.55646300  0.77123500  1
  O  O30  1  0.29692600  0.44353700  0.27123500  1
  O  O31  1  0.79692600  0.05646300  0.22876500  1
  O  O32  1  0.21620200  0.94464800  0.01155900  1
  O  O33  1  0.71620200  0.55535200  0.48844100  1
  O  O34  1  0.78379800  0.44464800  0.98844100  1
  O  O35  1  0.28379800  0.05535200  0.51155900  1
  O  O36  1  0.78379800  0.05535200  0.98844100  1
  O  O37  1  0.28379800  0.44464800  0.51155900  1
  O  O38  1  0.21620200  0.55535200  0.01155900  1
  O  O39  1  0.71620200  0.94464800  0.48844100  1
  O  O40  1  0.21599700  0.87955300  0.18747400  1
  O  O41  1  0.71599700  0.62044700  0.31252600  1
  O  O42  1  0.78400300  0.37955300  0.81252600  1
  O  O43  1  0.28400300  0.12044700  0.68747400  1
  O  O44  1  0.78400300  0.12044700  0.81252600  1
  O  O45  1  0.28400300  0.37955300  0.68747400  1
  O  O46  1  0.21599700  0.62044700  0.18747400  1
  O  O47  1  0.71599700  0.87955300  0.31252600  1
  O  O48  1  0.35483000  0.25000000  0.89323300  1
  O  O49  1  0.85483000  0.25000000  0.60676700  1
  O  O50  1  0.64517000  0.75000000  0.10676700  1
  O  O51  1  0.14517000  0.75000000  0.39323300  1
  O  O52  1  0.93427700  0.25000000  0.14500200  1
  O  O53  1  0.43427700  0.25000000  0.35499800  1
  O  O54  1  0.06572300  0.75000000  0.85499800  1
  O  O55  1  0.56572300  0.75000000  0.64500200  1
  O  O56  1  0.61543000  0.25000000  0.01833800  1
  O  O57  1  0.11543000  0.25000000  0.48166200  1
  O  O58  1  0.38457000  0.75000000  0.98166200  1
  O  O59  1  0.88457000  0.75000000  0.51833800  1
loop_
_geom_bond_atom_site_label_1
_geom_bond_atom_site_label_2
_geom_bond_distance
_geom_bond_site_symmetry_2
Na0 O52 2.357658 1_556
Na0 O42 2.557481 1_555
Na0 O44 2.557481 1_555
Na0 O6 2.665070 1_655
Na0 O0 2.665070 1_655
Na0 O56 2.688130 1_556
Na0 O34 2.814695 1_555
Na0 O36 2.814695 1_555
Na1 O53 2.357658 1_555
Na1 O45 2.557481 1_555
Na1 O43 2.557481 1_555
Na1 O1 2.665070 1_555
Na1 O7 2.665070 1_555
Na1 O57 2.688130 1_555
Na1 O35 2.814695 1_555
Na1 O37 2.814695 1_555
Na2 O54 2.357658 1_554
Na2 O40 2.557481 1_555
Na2 O46 2.557481 1_555
Na2 O4 2.665070 1_455
Na2 O2 2.665070 1_455
Na2 O58 2.688130 1_554
Na2 O32 2.814695 1_555
Na2 O38 2.814695 1_555
Na3 O55 2.357658 1_555
Na3 O47 2.557481 1_555
Na3 O41 2.557481 1_555
Na3 O3 2.665070 1_555
Na3 O5 2.665070 1_555
Na3 O59 2.688130 1_555
Na3 O39 2.814695 1_555
Na3 O33 2.814695 1_555
H0 O48 0.990106 1_555
H1 O49 0.990106 1_555
H2 O50 0.990106 1_555
H3 O51 0.990106 1_555
H4 O52 0.979651 1_555
H5 O53 0.979651 1_555
H6 O54 0.979651 1_555
H7 O55 0.979651 1_555
H8 O54 0.979651 1_555
H9 O55 0.979651 1_555
H10 O52 0.979651 1_555
H11 O53 0.979651 1_555
H12 O56 0.975651 1_555
H13 O57 0.975651 1_555
H14 O58 0.975651 1_555
H15 O59 0.975651 1_555
H16 O58 0.975651 1_555
H17 O59 0.975651 1_555
H18 O56 0.975651 1_555
H19 O57 0.975651 1_555
C0 O16 1.264065 1_555
C0 O24 1.265173 1_555
C1 O17 1.264065 1_555
C1 O25 1.265173 1_555
C2 O18 1.264065 1_555
C2 O26 1.265173 1_555
C3 O19 1.264065 1_555
C3 O27 1.265173 1_555
C4 O20 1.264065 1_555
C4 O28 1.265173 1_555
C5 O21 1.264065 1_555
C5 O29 1.265173 1_555
C6 O22 1.264065 1_555
C6 O30 1.265173 1_555
C7 O23 1.264065 1_555
C7 O31 1.265173 1_555
C8 O32 1.265595 1_555
C8 O40 1.265610 1_555
C9 O33 1.265595 1_555
C9 O41 1.265610 1_555
C10 O34 1.265595 1_555
C10 O42 1.265610 1_555
C11 O35 1.265595 1_555
C11 O43 1.265610 1_555
C12 O36 1.265595 1_555
C12 O44 1.265610 1_555
C13 O37 1.265595 1_555
C13 O45 1.265610 1_555
C14 O38 1.265595 1_555
C14 O46 1.265610 1_555
C15 O39 1.265595 1_555
C15 O47 1.265610 1_555
O0 U0 1.809068 1_555
O1 U1 1.809068 1_555
O2 U2 1.809068 1_555
O3 U3 1.809068 1_555
O4 U4 1.809068 1_555
O5 U5 1.809068 1_555
O6 U6 1.809068 1_555
O7 U7 1.809068 1_555
O8 U0 1.802881 1_555
O9 U1 1.802881 1_555
O10 U2 1.802881 1_555
O11 U3 1.802881 1_555
O12 U4 1.802881 1_555
O13 U5 1.802881 1_555
O14 U6 1.802881 1_555
O15 U7 1.802881 1_555
O16 U0 2.429731 1_554
O17 U1 2.429731 1_555
O18 U2 2.429731 1_556
O19 U3 2.429731 1_555
O20 U4 2.429731 1_556
O21 U5 2.429731 1_555
O22 U6 2.429731 1_554
O23 U7 2.429731 1_555
O24 U3 2.499168 1_545
O25 U2 2.499168 1_555
O26 U1 2.499168 1_555
O27 U0 2.499168 1_565
O28 U7 2.499168 1_565
O29 U6 2.499168 1_555
O30 U5 2.499168 1_555
O31 U4 2.499168 1_545
O32 U0 2.458040 1_564
O33 U1 2.458040 1_555
O34 U2 2.458040 1_556
O35 U3 2.458040 1_545
O36 U4 2.458040 1_546
O37 U5 2.458040 1_555
O38 U6 2.458040 1_554
O39 U7 2.458040 1_565
O40 U3 2.446544 1_555
O41 U2 2.446544 1_555
O42 U1 2.446544 1_555
O43 U0 2.446544 1_555
O44 U7 2.446544 1_555
O45 U6 2.446544 1_555
O46 U5 2.446544 1_555
O47 U4 2.446544 1_555
O48 U6 2.312580 1_555
O48 U0 2.312580 1_555
O49 U1 2.312580 1_555
O49 U7 2.312580 1_555
O50 U2 2.312580 1_555
O50 U4 2.312580 1_555
O51 U5 2.312580 1_555
O51 U3 2.312580 1_555
