# generated using pymatgen
data_HgP2(PdO4)2
_symmetry_space_group_name_H-M   'P 1'
_cell_length_a   9.90206304
_cell_length_b   8.79045363
_cell_length_c   6.77198596
_cell_angle_alpha   77.83880462
_cell_angle_beta   60.20602022
_cell_angle_gamma   41.95517516
_symmetry_Int_Tables_number   1
_chemical_formula_structural   HgP2(PdO4)2
_chemical_formula_sum   'Hg2 P4 Pd4 O16'
_cell_volume   328.92241068
_cell_formula_units_Z   2
loop_
 _symmetry_equiv_pos_site_id
 _symmetry_equiv_pos_as_xyz
  1  'x, y, z'
loop_
 _atom_site_type_symbol
 _atom_site_label
 _atom_site_symmetry_multiplicity
 _atom_site_fract_x
 _atom_site_fract_y
 _atom_site_fract_z
 _atom_site_occupancy
  Hg  Hg0  1  0.75000000  0.75000000  0.75000000  1
  Hg  Hg1  1  0.50000000  0.50000000  0.50000000  1
  P  P0  1  0.95537500  0.95537500  0.54462500  1
  P  P1  1  0.54462500  0.54462500  0.95537500  1
  P  P2  1  0.29462500  0.29462500  0.70537500  1
  P  P3  1  0.70537500  0.70537500  0.29462500  1
  Pd  Pd0  1  0.12500000  0.62500000  0.12500000  1
  Pd  Pd1  1  0.12500000  0.12500000  0.62500000  1
  Pd  Pd2  1  0.12500000  0.12500000  0.12500000  1
  Pd  Pd3  1  0.62500000  0.12500000  0.12500000  1
  O  O0  1  0.72004900  0.07715300  0.77755700  1
  O  O1  1  0.42524200  0.77755700  0.07715300  1
  O  O2  1  0.77755700  0.42524200  0.72004900  1
  O  O3  1  0.07715300  0.72004900  0.42524200  1
  O  O4  1  0.52995100  0.17284700  0.47244300  1
  O  O5  1  0.82475800  0.47244300  0.17284700  1
  O  O6  1  0.47244300  0.82475800  0.52995100  1
  O  O7  1  0.17284700  0.52995100  0.82475800  1
  O  O8  1  0.12491900  0.89715900  0.59869400  1
  O  O9  1  0.37922800  0.59869400  0.89715900  1
  O  O10  1  0.59869400  0.37922800  0.12491900  1
  O  O11  1  0.89715900  0.12491900  0.37922800  1
  O  O12  1  0.12508100  0.35284100  0.65130600  1
  O  O13  1  0.87077200  0.65130600  0.35284100  1
  O  O14  1  0.65130600  0.87077200  0.12508100  1
  O  O15  1  0.35284100  0.12508100  0.87077200  1
loop_
_geom_bond_atom_site_label_1
_geom_bond_atom_site_label_2
_geom_bond_distance
_geom_bond_site_symmetry_2
Hg0 O14 2.379105 1_556
Hg0 O12 2.379105 1_655
Hg0 O15 2.379105 1_565
Hg0 O13 2.379105 1_555
Hg1 O9 2.379105 1_555
Hg1 O11 2.379105 1_555
Hg1 O8 2.379105 1_555
Hg1 O10 2.379105 1_555
O0 P0 1.553261 1_545
O0 Pd3 2.055787 1_556
O1 P1 1.553266 1_554
O1 Pd2 2.055790 1_565
O2 P1 1.553263 1_555
O2 Pd1 2.055788 1_655
O3 P0 1.553259 1_455
O3 Pd0 2.055793 1_555
O4 P2 1.553261 1_555
O4 Pd3 2.055787 1_555
O5 P3 1.553266 1_555
O5 Pd2 2.055790 1_655
O6 P3 1.553263 1_555
O6 Pd1 2.055788 1_565
O7 P2 1.553259 1_555
O7 Pd0 2.055793 1_556
O8 P0 1.571162 1_455
O8 Pd1 2.048390 1_565
O9 P1 1.571162 1_555
O9 Pd0 2.048390 1_556
O10 P1 1.571162 1_554
O10 Pd3 2.048390 1_555
O11 P0 1.571162 1_545
O11 Pd2 2.048390 1_655
O12 P2 1.571162 1_555
O12 Pd1 2.048390 1_555
O13 P3 1.571162 1_555
O13 Pd0 2.048390 1_655
O14 P3 1.571162 1_555
O14 Pd3 2.048390 1_565
O15 P2 1.571162 1_555
O15 Pd2 2.048390 1_556
