# generated using pymatgen
data_TbSbPt
_symmetry_space_group_name_H-M   'P 1'
_cell_length_a   4.66018536
_cell_length_b   4.66018471
_cell_length_c   4.66018460
_cell_angle_alpha   60.00000076
_cell_angle_beta   60.00000541
_cell_angle_gamma   60.00000314
_symmetry_Int_Tables_number   1
_chemical_formula_structural   TbSbPt
_chemical_formula_sum   'Tb1 Sb1 Pt1'
_cell_volume   71.56397822
_cell_formula_units_Z   1
loop_
 _symmetry_equiv_pos_site_id
 _symmetry_equiv_pos_as_xyz
  1  'x, y, z'
loop_
 _atom_site_type_symbol
 _atom_site_label
 _atom_site_symmetry_multiplicity
 _atom_site_fract_x
 _atom_site_fract_y
 _atom_site_fract_z
 _atom_site_occupancy
  Tb  Tb0  1  0.50000000  0.50000000  0.50000000  1
  Sb  Sb0  1  -0.00000000  -0.00000000  -0.00000000  1
  Pt  Pt0  1  0.25000000  0.25000000  0.25000000  1
loop_
_geom_bond_atom_site_label_1
_geom_bond_atom_site_label_2
_geom_bond_distance
_geom_bond_site_symmetry_2
Sb0 Tb0 3.295248 1_454
Sb0 Tb0 3.295248 1_545
Sb0 Tb0 3.295248 1_455
Sb0 Tb0 3.295248 1_544
Sb0 Tb0 3.295249 1_554
Sb0 Tb0 3.295249 1_445
Pt0 Tb0 2.853769 1_555
Pt0 Tb0 2.853769 1_554
Pt0 Sb0 2.853769 1_556
Pt0 Sb0 2.853769 1_555
Pt0 Sb0 2.853769 1_565
Pt0 Tb0 2.853769 1_545
Pt0 Sb0 2.853769 1_655
Pt0 Tb0 2.853769 1_455
