# generated using pymatgen
data_BaHfMg14
_symmetry_space_group_name_H-M   'P 1'
_cell_length_a   6.59047457
_cell_length_b   6.60056294
_cell_length_c   10.48413962
_cell_angle_alpha   90.00000000
_cell_angle_beta   90.00000000
_cell_angle_gamma   120.05065559
_symmetry_Int_Tables_number   1
_chemical_formula_structural   BaHfMg14
_chemical_formula_sum   'Ba1 Hf1 Mg14'
_cell_volume   394.76549476
_cell_formula_units_Z   1
loop_
 _symmetry_equiv_pos_site_id
 _symmetry_equiv_pos_as_xyz
  1  'x, y, z'
loop_
 _atom_site_type_symbol
 _atom_site_label
 _atom_site_symmetry_multiplicity
 _atom_site_fract_x
 _atom_site_fract_y
 _atom_site_fract_z
 _atom_site_occupancy
  Ba  Ba0  1  0.16305708  0.33152804  0.12500000  1
  Hf  Hf0  1  0.18737827  0.84368864  0.12500000  1
  Mg  Mg0  1  0.16786027  0.33392964  0.62500000  1
  Mg  Mg1  1  0.16413706  0.83206803  0.62500000  1
  Mg  Mg2  1  0.66388127  0.33082563  0.12500000  1
  Mg  Mg3  1  0.66673672  0.33671756  0.62500000  1
  Mg  Mg4  1  0.66388127  0.83305464  0.12500000  1
  Mg  Mg5  1  0.66673672  0.83001816  0.62500000  1
  Mg  Mg6  1  0.33573300  0.15578004  0.38560921  1
  Mg  Mg7  1  0.33573300  0.15578004  0.86439079  1
  Mg  Mg8  1  0.33573300  0.67995396  0.38560921  1
  Mg  Mg9  1  0.33573300  0.67995396  0.86439079  1
  Mg  Mg10  1  0.81888392  0.15944246  0.38970565  1
  Mg  Mg11  1  0.81888392  0.15944246  0.86029435  1
  Mg  Mg12  1  0.83781576  0.66890838  0.36990450  1
  Mg  Mg13  1  0.83781576  0.66890838  0.88009550  1
loop_
_geom_bond_atom_site_label_1
_geom_bond_atom_site_label_2
_geom_bond_distance
_geom_bond_site_symmetry_2
Ba0 Mg4 3.287486 1_445
Ba0 Mg2 3.287486 1_455
Ba0 Mg4 3.302993 1_555
Ba0 Mg2 3.302993 1_555
Ba0 Hf0 3.303197 1_545
Ba0 Hf0 3.303197 1_555
Ba0 Mg7 3.380560 1_554
Ba0 Mg6 3.380560 1_555
Ba0 Mg8 3.380567 1_555
Ba0 Mg9 3.380567 1_554
Ba0 Mg10 3.399503 1_455
Ba0 Mg11 3.399503 1_454
Hf0 Mg2 3.176111 1_565
Hf0 Mg4 3.176111 1_555
Hf0 Mg12 3.251020 1_455
Hf0 Mg13 3.251020 1_454
Hf0 Mg8 3.263051 1_555
Hf0 Mg9 3.263051 1_554
Hf0 Mg7 3.263058 1_564
Hf0 Mg6 3.263058 1_565
Hf0 Mg2 3.415485 1_455
Hf0 Mg4 3.415485 1_455
Mg0 Mg11 3.169947 1_455
Mg0 Mg10 3.169947 1_455
Mg0 Mg7 3.195125 1_555
Mg0 Mg6 3.195125 1_555
Mg0 Mg8 3.195132 1_555
Mg0 Mg9 3.195132 1_555
Mg0 Mg5 3.278656 1_555
Mg0 Mg3 3.278656 1_555
Mg0 Mg1 3.300350 1_555
Mg0 Mg1 3.300350 1_545
Mg0 Mg5 3.311895 1_445
Mg0 Mg3 3.311895 1_455
Mg1 Mg8 3.118230 1_555
Mg1 Mg9 3.118230 1_555
Mg1 Mg7 3.118236 1_565
Mg1 Mg6 3.118236 1_565
Mg1 Mg13 3.258531 1_455
Mg1 Mg12 3.258531 1_455
Mg1 Mg3 3.271349 1_455
Mg1 Mg5 3.271350 1_455
Mg1 Mg3 3.319166 1_565
Mg1 Mg5 3.319166 1_555
Mg2 Mg4 3.285569 1_545
Mg2 Mg7 3.312812 1_554
Mg2 Mg6 3.312812 1_555
Mg2 Mg4 3.314994 1_555
Mg3 Mg6 3.142448 1_555
Mg3 Mg7 3.142448 1_555
Mg3 Mg5 3.256062 1_555
Mg3 Mg5 3.344501 1_545
Mg4 Mg8 3.312813 1_555
Mg4 Mg9 3.312813 1_554
Mg5 Mg8 3.142448 1_555
Mg5 Mg9 3.142448 1_555
Mg6 Mg8 3.140720 1_545
Mg6 Mg8 3.459843 1_555
Mg7 Mg9 3.140720 1_545
Mg7 Mg9 3.459843 1_555
Mg10 Mg3 3.104048 1_555
Mg10 Mg5 3.104055 1_545
Mg10 Mg8 3.172448 1_545
Mg10 Mg6 3.172448 1_555
Mg10 Mg12 3.308567 1_555
Mg10 Mg12 3.308567 1_545
Mg10 Mg2 3.344006 1_555
Mg10 Mg4 3.344012 1_545
Mg10 Mg8 3.418720 1_655
Mg10 Mg6 3.418720 1_655
Mg11 Mg3 3.104048 1_555
Mg11 Mg5 3.104055 1_545
Mg11 Mg9 3.172448 1_545
Mg11 Mg7 3.172448 1_555
Mg11 Mg13 3.308567 1_555
Mg11 Mg13 3.308567 1_545
Mg11 Mg2 3.344006 1_556
Mg11 Mg4 3.344012 1_546
Mg11 Mg9 3.418720 1_655
Mg11 Mg7 3.418720 1_655
Mg12 Mg4 3.213165 1_555
Mg12 Mg2 3.213171 1_555
Mg12 Mg6 3.249789 1_665
Mg12 Mg8 3.249789 1_655
Mg12 Mg5 3.279579 1_555
Mg12 Mg3 3.279585 1_555
Mg12 Mg6 3.350116 1_555
Mg12 Mg8 3.350117 1_555
Mg13 Mg4 3.213165 1_556
Mg13 Mg2 3.213171 1_556
Mg13 Mg7 3.249789 1_665
Mg13 Mg9 3.249789 1_655
Mg13 Mg5 3.279579 1_555
Mg13 Mg3 3.279585 1_555
Mg13 Mg7 3.350116 1_555
Mg13 Mg9 3.350117 1_555
