# generated using pymatgen
data_Li2TiFeO4
_symmetry_space_group_name_H-M   'P 1'
_cell_length_a   5.90037348
_cell_length_b   5.87011880
_cell_length_c   9.81212691
_cell_angle_alpha   72.65843099
_cell_angle_beta   72.53293901
_cell_angle_gamma   90.08181786
_symmetry_Int_Tables_number   1
_chemical_formula_structural   Li2TiFeO4
_chemical_formula_sum   'Li8 Ti4 Fe4 O16'
_cell_volume   307.89965743
_cell_formula_units_Z   4
loop_
 _symmetry_equiv_pos_site_id
 _symmetry_equiv_pos_as_xyz
  1  'x, y, z'
loop_
 _atom_site_type_symbol
 _atom_site_label
 _atom_site_symmetry_multiplicity
 _atom_site_fract_x
 _atom_site_fract_y
 _atom_site_fract_z
 _atom_site_occupancy
  Li  Li0  1  0.12136700  0.12379400  0.25006200  1
  Li  Li1  1  0.62148500  0.62635200  0.24982000  1
  Li  Li2  1  0.37148800  0.87624300  0.74985600  1
  Li  Li3  1  0.87142700  0.37360500  0.74999100  1
  Li  Li4  1  0.25935300  0.74753200  0.49804600  1
  Li  Li5  1  0.75798000  0.25312800  0.50099100  1
  Li  Li6  1  0.51207500  0.50080100  0.99873400  1
  Li  Li7  1  0.00532100  0.00057300  0.99869500  1
  Ti  Ti0  1  0.53429000  0.99983000  0.00001800  1
  Ti  Ti1  1  0.03310800  0.49968900  0.00004700  1
  Ti  Ti2  1  0.78344700  0.74913300  0.50119400  1
  Ti  Ti3  1  0.28455400  0.25060500  0.49898800  1
  Fe  Fe0  1  0.12028800  0.62568000  0.24679900  1
  Fe  Fe1  1  0.87089200  0.87557300  0.74672200  1
  Fe  Fe2  1  0.61712000  0.12412800  0.25358200  1
  Fe  Fe3  1  0.36698000  0.37420000  0.75352700  1
  O  O0  1  0.34066500  0.36507200  0.28304100  1
  O  O1  1  0.85586300  0.85067500  0.28361600  1
  O  O2  1  0.60619300  0.10079000  0.78197500  1
  O  O3  1  0.09082500  0.61488400  0.78426500  1
  O  O4  1  0.38780300  0.89888700  0.21838800  1
  O  O5  1  0.87518900  0.38472900  0.21606000  1
  O  O6  1  0.62365900  0.63451300  0.71766100  1
  O  O7  1  0.13916900  0.14885000  0.71711800  1
  O  O8  1  0.24388200  0.25782900  0.99929000  1
  O  O9  1  0.74219300  0.75811200  0.00228300  1
  O  O10  1  0.49386000  0.00705700  0.49931000  1
  O  O11  1  0.99274200  0.50899700  0.50249800  1
  O  O12  1  0.24342400  0.74221400  0.00073800  1
  O  O13  1  0.74466300  0.24219800  0.99784100  1
  O  O14  1  0.49536900  0.49122300  0.49780700  1
  O  O15  1  0.99332500  0.99311100  0.50103300  1
loop_
_geom_bond_atom_site_label_1
_geom_bond_atom_site_label_2
_geom_bond_distance
_geom_bond_site_symmetry_2
Li0 O4 2.065971 1_545
Li0 O0 2.074688 1_555
Li0 O1 2.121665 1_445
Li0 O5 2.135412 1_455
Li0 O8 2.229945 1_554
Li0 O15 2.231320 1_445
Li1 O1 2.070460 1_555
Li1 O5 2.085855 1_555
Li1 O4 2.126755 1_555
Li1 O0 2.138821 1_555
Li1 O9 2.201116 1_555
Li1 O14 2.205561 1_555
Li2 O2 2.063732 1_565
Li2 O6 2.078040 1_555
Li2 O7 2.122996 1_565
Li2 O3 2.135061 1_555
Li2 O10 2.227584 1_565
Li2 O12 2.230906 1_556
Li3 O7 2.072230 1_655
Li3 O3 2.082060 1_655
Li3 O2 2.123843 1_555
Li3 O6 2.139789 1_555
Li3 O11 2.201275 1_555
Li3 O13 2.203826 1_555
Li4 O14 2.051617 1_555
Li4 O10 2.061830 1_565
Li4 O11 2.086432 1_455
Li4 O15 2.132343 1_455
Li4 O4 2.487924 1_555
Li4 O3 2.549512 1_555
Li5 O11 2.048046 1_555
Li5 O15 2.064941 1_545
Li5 O14 2.089154 1_555
Li5 O10 2.130397 1_555
Li5 O2 2.499750 1_555
Li5 O5 2.538048 1_555
Li6 O9 2.044533 1_556
Li6 O13 2.048051 1_555
Li6 O8 2.126531 1_555
Li6 O12 2.127349 1_556
Li6 O6 2.504739 1_555
Li6 O0 2.533545 1_556
Li7 O8 2.065420 1_555
Li7 O12 2.068592 1_546
Li7 O9 2.090067 1_446
Li7 O13 2.093824 1_455
Li7 O7 2.503862 1_555
Li7 O1 2.533586 1_446
Fe0 O0 2.028918 1_555
Fe0 O1 2.064239 1_455
Fe0 O4 2.145534 1_555
Fe0 O5 2.166398 1_455
Fe0 O12 2.187696 1_555
Fe0 O11 2.273968 1_455
Fe1 O3 2.029292 1_655
Fe1 O2 2.064208 1_565
Fe1 O7 2.145309 1_665
Fe1 O6 2.167035 1_555
Fe1 O15 2.184284 1_555
Fe1 O9 2.272614 1_556
Fe2 O5 2.028642 1_555
Fe2 O4 2.060529 1_545
Fe2 O1 2.149778 1_545
Fe2 O0 2.170720 1_555
Fe2 O10 2.184672 1_555
Fe2 O13 2.274130 1_554
Fe3 O6 2.026181 1_555
Fe3 O7 2.061364 1_555
Fe3 O2 2.149855 1_555
Fe3 O3 2.169718 1_555
Fe3 O8 2.185049 1_555
Fe3 O14 2.274103 1_555
O0 Ti3 1.944305 1_555
O1 Ti2 1.946466 1_555
O2 Ti0 1.951168 1_546
O3 Ti1 1.941417 1_556
O4 Ti0 1.954258 1_555
O5 Ti1 1.943201 1_655
O6 Ti2 1.948610 1_555
O7 Ti3 1.951368 1_555
O8 Ti1 1.888961 1_556
O8 Ti0 2.288703 1_546
O9 Ti0 1.876474 1_555
O9 Ti1 2.291889 1_655
O10 Ti3 1.890450 1_555
O10 Ti2 2.285147 1_545
O11 Ti2 1.875084 1_555
O11 Ti3 2.295526 1_655
O12 Ti1 1.890113 1_555
O12 Ti0 2.282817 1_555
O13 Ti0 1.877847 1_546
O13 Ti1 2.283847 1_656
O14 Ti3 1.875898 1_555
O14 Ti2 2.288876 1_555
O15 Ti2 1.891318 1_555
O15 Ti3 2.278521 1_665
