# generated using pymatgen
data_NpN4O11
_symmetry_space_group_name_H-M   'P 1'
_cell_length_a   8.42662930
_cell_length_b   8.42662930
_cell_length_c   8.42662969
_cell_angle_alpha   66.90786610
_cell_angle_beta   66.90786610
_cell_angle_gamma   66.90786372
_symmetry_Int_Tables_number   1
_chemical_formula_structural   NpN4O11
_chemical_formula_sum   'Np2 N8 O22'
_cell_volume   485.80656729
_cell_formula_units_Z   2
loop_
 _symmetry_equiv_pos_site_id
 _symmetry_equiv_pos_as_xyz
  1  'x, y, z'
loop_
 _atom_site_type_symbol
 _atom_site_label
 _atom_site_symmetry_multiplicity
 _atom_site_fract_x
 _atom_site_fract_y
 _atom_site_fract_z
 _atom_site_occupancy
  Np  Np0  1  0.25000000  0.25000000  0.25000000  1
  Np  Np1  1  0.75000000  0.75000000  0.75000000  1
  N  N0  1  0.50000000  0.50000000  0.50000000  1
  N  N1  1  0.00000000  0.00000000  0.00000000  1
  N  N2  1  0.56078200  0.93921800  0.25000000  1
  N  N3  1  0.25000000  0.56078200  0.93921800  1
  N  N4  1  0.93921800  0.25000000  0.56078200  1
  N  N5  1  0.75000000  0.43921800  0.06078200  1
  N  N6  1  0.06078200  0.75000000  0.43921800  1
  N  N7  1  0.43921800  0.06078200  0.75000000  1
  O  O0  1  0.15957000  0.15957000  0.15957000  1
  O  O1  1  0.65957000  0.65957000  0.65957000  1
  O  O2  1  0.84043000  0.84043000  0.84043000  1
  O  O3  1  0.34043000  0.34043000  0.34043000  1
  O  O4  1  0.69080700  0.80919300  0.25000000  1
  O  O5  1  0.25000000  0.69080700  0.80919300  1
  O  O6  1  0.80919300  0.25000000  0.69080700  1
  O  O7  1  0.75000000  0.30919300  0.19080700  1
  O  O8  1  0.19080700  0.75000000  0.30919300  1
  O  O9  1  0.30919300  0.19080700  0.75000000  1
  O  O10  1  0.41185700  0.94542500  0.38027100  1
  O  O11  1  0.38027100  0.41185700  0.94542500  1
  O  O12  1  0.94542500  0.38027100  0.41185700  1
  O  O13  1  0.88027100  0.44542500  0.91185700  1
  O  O14  1  0.91185700  0.88027100  0.44542500  1
  O  O15  1  0.44542500  0.91185700  0.88027100  1
  O  O16  1  0.58814300  0.05457500  0.61972900  1
  O  O17  1  0.61972900  0.58814300  0.05457500  1
  O  O18  1  0.05457500  0.61972900  0.58814300  1
  O  O19  1  0.11972900  0.55457500  0.08814300  1
  O  O20  1  0.08814300  0.11972900  0.55457500  1
  O  O21  1  0.55457500  0.08814300  0.11972900  1
loop_
_geom_bond_atom_site_label_1
_geom_bond_atom_site_label_2
_geom_bond_distance
_geom_bond_site_symmetry_2
Np0 O0 1.763095 1_555
Np0 O3 1.763095 1_555
Np0 O21 2.423005 1_555
Np0 O10 2.423005 1_545
Np0 O19 2.423005 1_555
Np0 O12 2.423005 1_455
Np0 O20 2.423005 1_555
Np0 O11 2.423005 1_554
Np1 O1 1.763095 1_555
Np1 O2 1.763095 1_555
Np1 O16 2.423005 1_565
Np1 O15 2.423005 1_555
Np1 O18 2.423005 1_655
Np1 O13 2.423005 1_555
Np1 O14 2.423005 1_555
Np1 O17 2.423005 1_556
N2 O4 1.208015 1_555
N2 O10 1.302143 1_555
N2 O21 1.302143 1_565
N3 O5 1.208015 1_555
N3 O11 1.302143 1_555
N3 O19 1.302143 1_556
N4 O6 1.208015 1_555
N4 O20 1.302143 1_655
N4 O12 1.302143 1_555
N5 O7 1.208015 1_555
N5 O17 1.302143 1_555
N5 O13 1.302143 1_554
N6 O8 1.208015 1_555
N6 O14 1.302143 1_455
N6 O18 1.302143 1_555
N7 O9 1.208015 1_555
N7 O15 1.302143 1_545
N7 O16 1.302143 1_555
