# generated using pymatgen
data_Ba3Sr3(SbN)2
_symmetry_space_group_name_H-M   'P 1'
_cell_length_a   7.54675204
_cell_length_b   7.54675204
_cell_length_c   12.71654900
_cell_angle_alpha   90.00000000
_cell_angle_beta   90.00000000
_cell_angle_gamma   120.00000039
_symmetry_Int_Tables_number   1
_chemical_formula_structural   Ba3Sr3(SbN)2
_chemical_formula_sum   'Ba6 Sr6 Sb4 N4'
_cell_volume   627.22023556
_cell_formula_units_Z   2
loop_
 _symmetry_equiv_pos_site_id
 _symmetry_equiv_pos_as_xyz
  1  'x, y, z'
loop_
 _atom_site_type_symbol
 _atom_site_label
 _atom_site_symmetry_multiplicity
 _atom_site_fract_x
 _atom_site_fract_y
 _atom_site_fract_z
 _atom_site_occupancy
  Ba  Ba0  1  0.82731600  0.17268400  0.75000000  1
  Ba  Ba1  1  0.17268400  0.82731600  0.25000000  1
  Ba  Ba2  1  0.34536800  0.17268400  0.75000000  1
  Ba  Ba3  1  0.65463200  0.82731600  0.25000000  1
  Ba  Ba4  1  0.82731600  0.65463200  0.75000000  1
  Ba  Ba5  1  0.17268400  0.34536800  0.25000000  1
  Sr  Sr0  1  0.50000000  0.50000000  0.00000000  1
  Sr  Sr1  1  0.00000000  0.50000000  0.00000000  1
  Sr  Sr2  1  0.50000000  0.50000000  0.50000000  1
  Sr  Sr3  1  0.50000000  0.00000000  0.00000000  1
  Sr  Sr4  1  0.00000000  0.50000000  0.50000000  1
  Sr  Sr5  1  0.50000000  0.00000000  0.50000000  1
  Sb  Sb0  1  0.00000000  0.00000000  0.00000000  1
  Sb  Sb1  1  0.00000000  0.00000000  0.50000000  1
  Sb  Sb2  1  0.66666700  0.33333300  0.25000000  1
  Sb  Sb3  1  0.33333300  0.66666700  0.75000000  1
  N  N0  1  0.66666700  0.33333300  0.88727300  1
  N  N1  1  0.33333300  0.66666700  0.11272700  1
  N  N2  1  0.33333300  0.66666700  0.38727300  1
  N  N3  1  0.66666700  0.33333300  0.61272700  1
loop_
_geom_bond_atom_site_label_1
_geom_bond_atom_site_label_2
_geom_bond_distance
_geom_bond_site_symmetry_2
Ba0 N3 2.730721 1_555
Ba0 N0 2.730721 1_555
Ba0 Sb3 3.774196 1_655
Ba0 Sb3 3.774196 1_545
Ba0 Sb1 3.898965 1_655
Ba0 Sb0 3.898965 1_656
Ba1 N2 2.730721 1_555
Ba1 N1 2.730721 1_555
Ba1 Sb2 3.774196 1_455
Ba1 Sb2 3.774196 1_565
Ba1 Sb0 3.898965 1_565
Ba1 Sb1 3.898965 1_565
Ba2 N0 2.730726 1_555
Ba2 N3 2.730726 1_555
Ba2 Sb3 3.774192 1_545
Ba2 Sb3 3.774200 1_555
Ba2 Sb0 3.898965 1_556
Ba2 Sb1 3.898965 1_555
Ba3 N2 2.730726 1_555
Ba3 N1 2.730726 1_555
Ba3 Sb2 3.774192 1_565
Ba3 Sb2 3.774200 1_555
Ba3 Sb0 3.898965 1_665
Ba3 Sb1 3.898965 1_665
Ba4 N0 2.730726 1_555
Ba4 N3 2.730726 1_555
Ba4 Sb3 3.774192 1_655
Ba4 Sb3 3.774200 1_555
Ba4 Sb0 3.898965 1_666
Ba4 Sb1 3.898965 1_665
Ba5 N2 2.730726 1_555
Ba5 N1 2.730726 1_555
Ba5 Sb2 3.774192 1_455
Ba5 Sb2 3.774200 1_555
Ba5 Sb0 3.898965 1_555
Ba5 Sb1 3.898965 1_555
Sb0 Sr0 3.773376 1_555
Sb0 Sr0 3.773376 1_445
Sb0 Sr3 3.773376 1_455
Sb0 Sr3 3.773376 1_555
Sb0 Sr1 3.773376 1_555
Sb0 Sr1 3.773376 1_545
Sb1 Sr2 3.773376 1_445
Sb1 Sr2 3.773376 1_555
Sb1 Sr5 3.773376 1_455
Sb1 Sr4 3.773376 1_555
Sb1 Sr5 3.773376 1_555
Sb1 Sr4 3.773376 1_545
Sb2 Sr4 3.853962 1_655
Sb2 Sr1 3.853962 1_655
Sb2 Sr5 3.853962 1_555
Sb2 Sr3 3.853962 1_555
Sb2 Sr2 3.853966 1_555
Sb2 Sr0 3.853966 1_555
Sb3 Sr3 3.853962 1_566
Sb3 Sr4 3.853962 1_555
Sb3 Sr1 3.853962 1_556
Sb3 Sr5 3.853962 1_565
Sb3 Sr2 3.853966 1_555
Sb3 Sr0 3.853966 1_556
N0 Sr3 2.607879 1_556
N0 Sr1 2.607879 1_656
N0 Sr0 2.607884 1_556
N1 Sr3 2.607879 1_565
N1 Sr1 2.607879 1_555
N1 Sr0 2.607884 1_555
N2 Sr5 2.607879 1_565
N2 Sr4 2.607879 1_555
N2 Sr2 2.607884 1_555
N3 Sr4 2.607879 1_655
N3 Sr5 2.607879 1_555
N3 Sr2 2.607884 1_555
