# generated using pymatgen
data_BiP2O7
_symmetry_space_group_name_H-M   'P 1'
_cell_length_a   9.58454000
_cell_length_b   7.75944400
_cell_length_c   9.82487271
_cell_angle_alpha   66.77281060
_cell_angle_beta   90.00000000
_cell_angle_gamma   90.00000000
_symmetry_Int_Tables_number   1
_chemical_formula_structural   BiP2O7
_chemical_formula_sum   'Bi4 P8 O28'
_cell_volume   671.45959609
_cell_formula_units_Z   4
loop_
 _symmetry_equiv_pos_site_id
 _symmetry_equiv_pos_as_xyz
  1  'x, y, z'
loop_
 _atom_site_type_symbol
 _atom_site_label
 _atom_site_symmetry_multiplicity
 _atom_site_fract_x
 _atom_site_fract_y
 _atom_site_fract_z
 _atom_site_occupancy
  Bi  Bi0  1  0.06734500  0.68086700  0.18344500  1
  Bi  Bi1  1  0.43265500  0.68086700  0.68344500  1
  Bi  Bi2  1  0.56734500  0.31913300  0.31655500  1
  Bi  Bi3  1  0.93265500  0.31913300  0.81655500  1
  P  P0  1  0.71843700  0.53852200  0.53227800  1
  P  P1  1  0.23947000  0.08447200  0.23158000  1
  P  P2  1  0.73947000  0.91552800  0.26842000  1
  P  P3  1  0.26053000  0.08447200  0.73158000  1
  P  P4  1  0.78156300  0.53852200  0.03227800  1
  P  P5  1  0.76053000  0.91552800  0.76842000  1
  P  P6  1  0.21843700  0.46147800  0.96772200  1
  P  P7  1  0.28156300  0.46147800  0.46772200  1
  O  O0  1  0.13618200  0.47216100  0.39509900  1
  O  O1  1  0.19669800  0.24268200  0.07106100  1
  O  O2  1  0.27242400  0.90062000  0.71078000  1
  O  O3  1  0.11433600  0.12360500  0.77284100  1
  O  O4  1  0.86381800  0.52783900  0.60490100  1
  O  O5  1  0.80330200  0.75731800  0.92893900  1
  O  O6  1  0.22179600  0.57748000  0.06270900  1
  O  O7  1  0.90251100  0.49201800  0.14193400  1
  O  O8  1  0.61433600  0.87639500  0.72715900  1
  O  O9  1  0.72179600  0.42252000  0.43729100  1
  O  O10  1  0.36381800  0.47216100  0.89509900  1
  O  O11  1  0.86318700  0.90734000  0.65126700  1
  O  O12  1  0.63618200  0.52783900  0.10490100  1
  O  O13  1  0.72757600  0.09938000  0.28922000  1
  O  O14  1  0.40251100  0.50798200  0.35806600  1
  O  O15  1  0.77820400  0.42252000  0.93729100  1
  O  O16  1  0.88566400  0.87639500  0.22715900  1
  O  O17  1  0.22757600  0.90062000  0.21078000  1
  O  O18  1  0.13681300  0.09266000  0.34873300  1
  O  O19  1  0.59748900  0.49201800  0.64193400  1
  O  O20  1  0.30330200  0.24268200  0.57106100  1
  O  O21  1  0.27820400  0.57748000  0.56270900  1
  O  O22  1  0.09748900  0.50798200  0.85806600  1
  O  O23  1  0.38566400  0.12360500  0.27284100  1
  O  O24  1  0.69669800  0.75731800  0.42893900  1
  O  O25  1  0.63681300  0.90734000  0.15126700  1
  O  O26  1  0.77242400  0.09938000  0.78922000  1
  O  O27  1  0.36318700  0.09266000  0.84873300  1
loop_
_geom_bond_atom_site_label_1
_geom_bond_atom_site_label_2
_geom_bond_distance
_geom_bond_site_symmetry_2
Bi0 O0 2.173913 1_555
Bi0 O6 2.234430 1_555
Bi0 O7 2.298034 1_455
Bi0 O17 2.387343 1_555
Bi0 O16 2.456116 1_455
Bi1 O10 2.173913 1_555
Bi1 O21 2.234430 1_555
Bi1 O19 2.298034 1_555
Bi1 O2 2.387343 1_555
Bi1 O8 2.456116 1_555
Bi2 O12 2.173913 1_555
Bi2 O9 2.234430 1_555
Bi2 O14 2.298034 1_555
Bi2 O13 2.387343 1_555
Bi2 O23 2.456116 1_555
Bi3 O4 2.173913 1_555
Bi3 O15 2.234430 1_555
Bi3 O22 2.298034 1_655
Bi3 O26 2.387343 1_555
Bi3 O3 2.456116 1_655
O0 P7 1.552711 1_555
O1 P6 1.611509 1_554
O1 P1 1.623335 1_555
O2 P3 1.523110 1_565
O3 P3 1.522169 1_555
O4 P0 1.552711 1_555
O5 P4 1.611509 1_556
O5 P5 1.623335 1_555
O6 P6 1.531252 1_554
O7 P4 1.525807 1_555
O8 P5 1.522169 1_555
O9 P0 1.531252 1_555
O10 P6 1.552711 1_555
O11 P5 1.534486 1_555
O12 P4 1.552711 1_555
O13 P2 1.523110 1_545
O14 P7 1.525807 1_555
O15 P4 1.531252 1_556
O16 P2 1.522169 1_555
O17 P1 1.523110 1_565
O18 P1 1.534486 1_555
O19 P0 1.525807 1_555
O20 P7 1.611509 1_555
O20 P3 1.623335 1_555
O21 P7 1.531252 1_555
O22 P6 1.525807 1_555
O23 P1 1.522169 1_555
O24 P0 1.611509 1_555
O24 P2 1.623335 1_555
O25 P2 1.534486 1_555
O26 P5 1.523110 1_545
O27 P3 1.534486 1_555
