# generated using pymatgen
data_Be3Si3(AgO6)2
_symmetry_space_group_name_H-M   'P 1'
_cell_length_a   7.78635400
_cell_length_b   8.28305000
_cell_length_c   16.67109656
_cell_angle_alpha   60.55795419
_cell_angle_beta   90.00000000
_cell_angle_gamma   90.00000000
_symmetry_Int_Tables_number   1
_chemical_formula_structural   Be3Si3(AgO6)2
_chemical_formula_sum   'Be12 Si12 Ag8 O48'
_cell_volume   936.34007800
_cell_formula_units_Z   4
loop_
 _symmetry_equiv_pos_site_id
 _symmetry_equiv_pos_as_xyz
  1  'x, y, z'
loop_
 _atom_site_type_symbol
 _atom_site_label
 _atom_site_symmetry_multiplicity
 _atom_site_fract_x
 _atom_site_fract_y
 _atom_site_fract_z
 _atom_site_occupancy
  Be  Be0  1  0.83923600  0.80856200  0.76367100  1
  Be  Be1  1  0.66197900  0.16062200  0.40412600  1
  Be  Be2  1  0.16197900  0.83937800  0.09587400  1
  Be  Be3  1  0.33802100  0.83937800  0.59587400  1
  Be  Be4  1  0.83802100  0.16062200  0.90412600  1
  Be  Be5  1  0.16331600  0.47830200  0.41757300  1
  Be  Be6  1  0.66331600  0.52169800  0.08242700  1
  Be  Be7  1  0.83668400  0.52169800  0.58242700  1
  Be  Be8  1  0.33668400  0.47830200  0.91757300  1
  Be  Be9  1  0.66076400  0.80856200  0.26367100  1
  Be  Be10  1  0.16076400  0.19143800  0.23632900  1
  Be  Be11  1  0.33923600  0.19143800  0.73632900  1
  Si  Si0  1  0.22162900  0.81251400  0.76762700  1
  Si  Si1  1  0.72162900  0.18748600  0.73237300  1
  Si  Si2  1  0.77837100  0.18748600  0.23237300  1
  Si  Si3  1  0.27837100  0.81251400  0.26762700  1
  Si  Si4  1  0.72696200  0.46626900  0.92224800  1
  Si  Si5  1  0.22696200  0.53373100  0.57775200  1
  Si  Si6  1  0.27303800  0.53373100  0.07775200  1
  Si  Si7  1  0.77303800  0.46626900  0.42224800  1
  Si  Si8  1  0.22656800  0.15579600  0.90544100  1
  Si  Si9  1  0.72656800  0.84420400  0.59455900  1
  Si  Si10  1  0.77343200  0.84420400  0.09455900  1
  Si  Si11  1  0.27343200  0.15579600  0.40544100  1
  Ag  Ag0  1  0.46491200  0.15980900  0.08911800  1
  Ag  Ag1  1  0.03508800  0.15980900  0.58911800  1
  Ag  Ag2  1  0.53508800  0.84019100  0.91088200  1
  Ag  Ag3  1  0.96491200  0.84019100  0.41088200  1
  Ag  Ag4  1  0.55443700  0.81091700  0.43224700  1
  Ag  Ag5  1  0.05443700  0.18908300  0.06775300  1
  Ag  Ag6  1  0.44556300  0.18908300  0.56775300  1
  Ag  Ag7  1  0.94556300  0.81091700  0.93224700  1
  O  O0  1  0.14628700  0.71121500  0.04894200  1
  O  O1  1  0.02819800  0.77375300  0.81281000  1
  O  O2  1  0.52819800  0.22624700  0.68719000  1
  O  O3  1  0.97180200  0.22624700  0.18719000  1
  O  O4  1  0.47180200  0.77375300  0.31281000  1
  O  O5  1  0.52919100  0.38807700  0.95102900  1
  O  O6  1  0.02919100  0.61192300  0.54897100  1
  O  O7  1  0.47080900  0.61192300  0.04897100  1
  O  O8  1  0.97080900  0.38807700  0.45102900  1
  O  O9  1  0.03113100  0.09054700  0.89314200  1
  O  O10  1  0.53113100  0.90945300  0.60685800  1
  O  O11  1  0.96886900  0.90945300  0.10685800  1
  O  O12  1  0.14195200  0.09795400  0.34737700  1
  O  O13  1  0.64195200  0.90204600  0.15262300  1
  O  O14  1  0.85804800  0.90204600  0.65262300  1
  O  O15  1  0.35804800  0.09795400  0.84737700  1
  O  O16  1  0.64628700  0.28878500  0.45105800  1
  O  O17  1  0.46886900  0.09054700  0.39314200  1
  O  O18  1  0.35371300  0.71121500  0.54894200  1
  O  O19  1  0.85371300  0.28878500  0.95105800  1
  O  O20  1  0.76432100  0.95796800  0.47973100  1
  O  O21  1  0.64160500  0.29537700  0.14685500  1
  O  O22  1  0.85839500  0.29537700  0.64685500  1
  O  O23  1  0.35839500  0.70462300  0.85314500  1
  O  O24  1  0.74109900  0.24936600  0.80963200  1
  O  O25  1  0.24109900  0.75063400  0.69036800  1
  O  O26  1  0.25890100  0.75063400  0.19036800  1
  O  O27  1  0.75890100  0.24936600  0.30963200  1
  O  O28  1  0.73725600  0.62022100  0.81464500  1
  O  O29  1  0.23725600  0.37977900  0.68535500  1
  O  O30  1  0.26274400  0.37977900  0.18535500  1
  O  O31  1  0.76274400  0.62022100  0.31464500  1
  O  O32  1  0.23870600  0.37345900  0.87365200  1
  O  O33  1  0.73870600  0.62654100  0.62634800  1
  O  O34  1  0.76129400  0.62654100  0.12634800  1
  O  O35  1  0.26129400  0.37345900  0.37365200  1
  O  O36  1  0.74455500  0.95772100  0.78938700  1
  O  O37  1  0.24455500  0.04227900  0.71061300  1
  O  O38  1  0.25544500  0.04227900  0.21061300  1
  O  O39  1  0.75544500  0.95772100  0.28938700  1
  O  O40  1  0.77652800  0.56601500  0.98596800  1
  O  O41  1  0.27652800  0.43398500  0.51403200  1
  O  O42  1  0.22347200  0.43398500  0.01403200  1
  O  O43  1  0.72347200  0.56601500  0.48596800  1
  O  O44  1  0.73567900  0.95796800  0.97973100  1
  O  O45  1  0.23567900  0.04203200  0.52026900  1
  O  O46  1  0.26432100  0.04203200  0.02026900  1
  O  O47  1  0.14160500  0.70462300  0.35314500  1
loop_
_geom_bond_atom_site_label_1
_geom_bond_atom_site_label_2
_geom_bond_distance
_geom_bond_site_symmetry_2
Be0 O28 1.575785 1_555
Be0 O14 1.624518 1_555
Be0 O1 1.639152 1_655
Be0 O36 1.665665 1_555
Be1 O27 1.566237 1_555
Be1 O16 1.603304 1_555
Be1 O17 1.654027 1_555
Be1 O20 1.720869 1_545
Be2 O26 1.566237 1_555
Be2 O0 1.603304 1_555
Be2 O11 1.654027 1_455
Be2 O46 1.720869 1_565
Be3 O25 1.566237 1_555
Be3 O18 1.603304 1_555
Be3 O10 1.654027 1_555
Be3 O45 1.720869 1_565
Be4 O24 1.566237 1_555
Be4 O19 1.603304 1_555
Be4 O9 1.654027 1_655
Be4 O44 1.720869 1_545
Be5 O35 1.580317 1_555
Be5 O8 1.645176 1_455
Be5 O47 1.648337 1_555
Be5 O41 1.708043 1_555
Be6 O34 1.580317 1_555
Be6 O7 1.645176 1_555
Be6 O21 1.648337 1_555
Be6 O40 1.708043 1_554
Be7 O33 1.580317 1_555
Be7 O6 1.645176 1_655
Be7 O22 1.648337 1_555
Be7 O43 1.708043 1_555
Be8 O32 1.580317 1_555
Be8 O5 1.645176 1_555
Be8 O23 1.648337 1_555
Be8 O42 1.708043 1_556
Be9 O31 1.575785 1_555
Be9 O13 1.624518 1_555
Be9 O4 1.639152 1_555
Be9 O39 1.665665 1_555
Be10 O30 1.575785 1_555
Be10 O12 1.624518 1_555
Be10 O3 1.639152 1_455
Be10 O38 1.665665 1_555
Be11 O29 1.575785 1_555
Be11 O15 1.624518 1_555
Be11 O2 1.639152 1_555
Be11 O37 1.665665 1_555
Ag0 O5 2.201368 1_554
Ag0 O21 2.267775 1_555
Ag0 O13 2.314613 1_545
Ag0 O38 2.402467 1_555
Ag0 O46 2.410261 1_555
Ag0 O42 2.732012 1_555
Ag1 O8 2.201368 1_455
Ag1 O22 2.267775 1_455
Ag1 O14 2.314613 1_445
Ag1 O37 2.402467 1_555
Ag1 O45 2.410261 1_555
Ag1 O41 2.732012 1_555
Ag2 O7 2.201368 1_556
Ag2 O23 2.267775 1_555
Ag2 O15 2.314613 1_565
Ag2 O36 2.402467 1_555
Ag2 O44 2.410261 1_555
Ag2 O40 2.732012 1_555
Ag3 O6 2.201368 1_655
Ag3 O47 2.267775 1_655
Ag3 O12 2.314613 1_665
Ag3 O39 2.402467 1_555
Ag3 O20 2.410261 1_555
Ag3 O43 2.732012 1_555
Ag4 O17 2.179267 1_565
Ag4 O43 2.205295 1_555
Ag4 O4 2.252995 1_555
Ag4 O18 2.308671 1_555
Ag4 O20 2.393503 1_555
Ag4 O39 2.598720 1_555
Ag5 O11 2.179267 1_445
Ag5 O42 2.205295 1_555
Ag5 O3 2.252995 1_455
Ag5 O19 2.308671 1_454
Ag5 O46 2.393503 1_555
Ag5 O38 2.598720 1_555
Ag6 O10 2.179267 1_545
Ag6 O41 2.205295 1_555
Ag6 O2 2.252995 1_555
Ag6 O16 2.308671 1_555
Ag6 O45 2.393503 1_555
Ag6 O37 2.598720 1_555
Ag7 O9 2.179267 1_665
Ag7 O40 2.205295 1_555
Ag7 O1 2.252995 1_655
Ag7 O0 2.308671 1_656
Ag7 O44 2.393503 1_555
Ag7 O36 2.598720 1_555
O0 Si6 1.634560 1_555
O1 Si0 1.643509 1_555
O2 Si1 1.643509 1_555
O3 Si2 1.643509 1_555
O4 Si3 1.643509 1_555
O5 Si4 1.647886 1_555
O6 Si5 1.647886 1_555
O7 Si6 1.647886 1_555
O8 Si7 1.647886 1_555
O9 Si8 1.660957 1_555
O10 Si9 1.660957 1_555
O11 Si10 1.660957 1_555
O12 Si11 1.634179 1_555
O13 Si10 1.634179 1_555
O14 Si9 1.634179 1_555
O15 Si8 1.634179 1_555
O16 Si7 1.634560 1_555
O17 Si11 1.660957 1_555
O18 Si5 1.634560 1_555
O19 Si4 1.634560 1_555
O20 Si9 1.692801 1_555
O21 Si2 1.647027 1_555
O22 Si1 1.647027 1_555
O23 Si0 1.647027 1_555
O24 Si1 1.610472 1_555
O25 Si0 1.610472 1_555
O26 Si3 1.610472 1_555
O27 Si2 1.610472 1_555
O28 Si4 1.612963 1_555
O29 Si5 1.612963 1_555
O30 Si6 1.612963 1_555
O31 Si7 1.612963 1_555
O32 Si8 1.612755 1_555
O33 Si9 1.612755 1_555
O34 Si10 1.612755 1_555
O35 Si11 1.612755 1_555
O36 Si1 1.667022 1_565
O37 Si0 1.667022 1_545
O38 Si3 1.667022 1_545
O39 Si2 1.667022 1_565
O40 Si4 1.680123 1_555
O41 Si5 1.680123 1_555
O42 Si6 1.680123 1_555
O43 Si7 1.680123 1_555
O44 Si10 1.692801 1_556
O45 Si11 1.692801 1_555
O46 Si8 1.692801 1_554
O47 Si3 1.647027 1_555
