# generated using pymatgen
data_Ti3In
_symmetry_space_group_name_H-M   'P 1'
_cell_length_a   5.23755588
_cell_length_b   5.23755588
_cell_length_c   5.23755588
_cell_angle_alpha   134.05243064
_cell_angle_beta   134.05243064
_cell_angle_gamma   67.00612790
_symmetry_Int_Tables_number   1
_chemical_formula_structural   Ti3In
_chemical_formula_sum   'Ti3 In1'
_cell_volume   73.00563606
_cell_formula_units_Z   1
loop_
 _symmetry_equiv_pos_site_id
 _symmetry_equiv_pos_as_xyz
  1  'x, y, z'
loop_
 _atom_site_type_symbol
 _atom_site_label
 _atom_site_symmetry_multiplicity
 _atom_site_fract_x
 _atom_site_fract_y
 _atom_site_fract_z
 _atom_site_occupancy
  Ti  Ti0  1  0.75000000  0.25000000  0.50000000  1
  Ti  Ti1  1  0.25000000  0.75000000  0.50000000  1
  Ti  Ti2  1  0.50000100  0.50000100  0.00000000  1
  In  In0  1  0.00000000  0.00000000  0.00000000  1
loop_
_geom_bond_atom_site_label_1
_geom_bond_atom_site_label_2
_geom_bond_distance
_geom_bond_site_symmetry_2
Ti0 Ti1 2.891034 1_645
Ti0 Ti1 2.891034 1_656
Ti0 Ti1 2.891034 1_555
Ti0 Ti1 2.891034 1_544
Ti0 Ti2 2.991234 1_545
Ti0 Ti2 2.991234 1_556
Ti0 Ti2 2.991247 1_555
Ti0 Ti2 2.991247 1_656
Ti1 Ti2 2.991234 1_455
Ti1 Ti2 2.991234 1_556
Ti1 Ti2 2.991247 1_555
Ti1 Ti2 2.991247 1_566
In0 Ti2 2.891034 1_545
In0 Ti2 2.891034 1_556
In0 Ti2 2.891034 1_455
In0 Ti2 2.891034 1_444
In0 Ti1 2.991240 1_555
In0 Ti1 2.991240 1_544
In0 Ti0 2.991240 1_455
In0 Ti0 2.991240 1_454
In0 Ti0 2.991240 1_444
In0 Ti0 2.991240 1_555
In0 Ti1 2.991240 1_545
In0 Ti1 2.991240 1_444
