# generated using pymatgen
data_NbSiPt
_symmetry_space_group_name_H-M   'P 1'
_cell_length_a   3.82745130
_cell_length_b   6.47916125
_cell_length_c   7.38988648
_cell_angle_alpha   90.00000000
_cell_angle_beta   90.00000000
_cell_angle_gamma   90.00000000
_symmetry_Int_Tables_number   1
_chemical_formula_structural   NbSiPt
_chemical_formula_sum   'Nb4 Si4 Pt4'
_cell_volume   183.25938682
_cell_formula_units_Z   4
loop_
 _symmetry_equiv_pos_site_id
 _symmetry_equiv_pos_as_xyz
  1  'x, y, z'
loop_
 _atom_site_type_symbol
 _atom_site_label
 _atom_site_symmetry_multiplicity
 _atom_site_fract_x
 _atom_site_fract_y
 _atom_site_fract_z
 _atom_site_occupancy
  Nb  Nb0  1  0.75000000  0.47322674  0.66372538  1
  Nb  Nb1  1  0.25000000  0.02677326  0.16372538  1
  Nb  Nb2  1  0.75000000  0.97322674  0.83627462  1
  Nb  Nb3  1  0.25000000  0.52677326  0.33627462  1
  Si  Si0  1  0.25000000  0.27037926  0.87391953  1
  Si  Si1  1  0.25000000  0.77037926  0.62608047  1
  Si  Si2  1  0.75000000  0.72962074  0.12608047  1
  Si  Si3  1  0.75000000  0.22962074  0.37391953  1
  Pt  Pt0  1  0.25000000  0.65091854  0.93445112  1
  Pt  Pt1  1  0.25000000  0.15091854  0.56554888  1
  Pt  Pt2  1  0.75000000  0.84908146  0.43445112  1
  Pt  Pt3  1  0.75000000  0.34908146  0.06554888  1
loop_
_geom_bond_atom_site_label_1
_geom_bond_atom_site_label_2
_geom_bond_distance
_geom_bond_site_symmetry_2
Nb0 Si3 2.660417 1_555
Nb0 Si1 2.728830 1_655
Nb0 Si1 2.728830 1_555
Nb0 Si0 2.793288 1_655
Nb0 Si0 2.793288 1_555
Nb0 Pt1 2.923980 1_555
Nb0 Pt1 2.923980 1_655
Nb0 Pt2 2.966648 1_555
Nb0 Pt0 2.998392 1_655
Nb0 Pt0 2.998392 1_555
Nb0 Pt3 3.076444 1_556
Nb1 Si0 2.660417 1_554
Nb1 Si2 2.728830 1_445
Nb1 Si2 2.728830 1_545
Nb1 Si3 2.793288 1_455
Nb1 Si3 2.793288 1_555
Nb1 Pt3 2.923980 1_455
Nb1 Pt3 2.923980 1_555
Nb1 Pt0 2.966648 1_544
Nb1 Pt2 2.998392 1_545
Nb1 Pt2 2.998392 1_445
Nb1 Pt1 3.076444 1_555
Nb2 Si2 2.660417 1_556
Nb2 Si0 2.728830 1_565
Nb2 Si0 2.728830 1_665
Nb2 Si1 2.793288 1_655
Nb2 Si1 2.793288 1_555
Nb2 Pt0 2.923980 1_555
Nb2 Pt0 2.923980 1_655
Nb2 Pt3 2.966648 1_566
Nb2 Pt1 2.998392 1_565
Nb2 Pt1 2.998392 1_665
Nb2 Pt2 3.076444 1_555
Nb3 Si1 2.660417 1_555
Nb3 Si3 2.728830 1_455
Nb3 Si3 2.728830 1_555
Nb3 Si2 2.793288 1_455
Nb3 Si2 2.793288 1_555
Nb3 Pt2 2.923980 1_455
Nb3 Pt2 2.923980 1_555
Nb3 Pt1 2.966648 1_555
Nb3 Pt3 2.998392 1_555
Nb3 Pt3 2.998392 1_455
Nb3 Pt0 3.076444 1_554
Pt0 Si1 2.406683 1_555
Pt0 Si2 2.434700 1_556
Pt0 Si2 2.434700 1_456
Pt0 Si0 2.505825 1_555
Pt1 Si0 2.406683 1_555
Pt1 Si3 2.434700 1_455
Pt1 Si3 2.434700 1_555
Pt1 Si1 2.505825 1_545
Pt2 Si2 2.406683 1_555
Pt2 Si1 2.434700 1_655
Pt2 Si1 2.434700 1_555
Pt2 Si3 2.505825 1_565
Pt3 Si3 2.406683 1_555
Pt3 Si0 2.434700 1_554
Pt3 Si0 2.434700 1_654
Pt3 Si2 2.505825 1_555
