# generated using pymatgen
data_Yb16S29
_symmetry_space_group_name_H-M   'P 1'
_cell_length_a   11.19279787
_cell_length_b   11.19279787
_cell_length_c   11.19279787
_cell_angle_alpha   122.72738979
_cell_angle_beta   122.72738979
_cell_angle_gamma   85.33756444
_symmetry_Int_Tables_number   1
_chemical_formula_structural   Yb16S29
_chemical_formula_sum   'Yb16 S29'
_cell_volume   947.22218493
_cell_formula_units_Z   1
loop_
 _symmetry_equiv_pos_site_id
 _symmetry_equiv_pos_as_xyz
  1  'x, y, z'
loop_
 _atom_site_type_symbol
 _atom_site_label
 _atom_site_symmetry_multiplicity
 _atom_site_fract_x
 _atom_site_fract_y
 _atom_site_fract_z
 _atom_site_occupancy
  Yb  Yb0  1  0.98065900  0.98065900  0.25139700  1
  Yb  Yb1  1  0.01478600  0.77047000  0.49907500  1
  Yb  Yb2  1  0.23072300  0.23072300  0.74513300  1
  Yb  Yb3  1  0.48428900  0.98521400  0.75568400  1
  Yb  Yb4  1  0.27073800  0.01934100  0.00000000  1
  Yb  Yb5  1  0.51441000  0.76927700  0.00000000  1
  Yb  Yb6  1  0.48559000  0.48559000  0.25486700  1
  Yb  Yb7  1  0.72860600  0.22953000  0.24431600  1
  Yb  Yb8  1  0.51571100  0.27139400  0.50092500  1
  Yb  Yb9  1  0.77047000  0.01478600  0.49907500  1
  Yb  Yb10  1  0.72926200  0.72926200  0.74860300  1
  Yb  Yb11  1  0.98521400  0.48428900  0.75568400  1
  Yb  Yb12  1  0.76927700  0.51441000  0.00000000  1
  Yb  Yb13  1  0.01934100  0.27073800  0.00000000  1
  Yb  Yb14  1  0.22953000  0.72860600  0.24431600  1
  Yb  Yb15  1  0.27139400  0.51571100  0.50092500  1
  S  S0  1  0.25941000  0.25941000  0.51821900  1
  S  S1  1  0.50000000  0.24496400  0.74496400  1
  S  S2  1  0.74059000  0.25880900  0.00000000  1
  S  S3  1  0.80203000  0.80203000  0.24239900  1
  S  S4  1  0.75503600  0.50000000  0.25503600  1
  S  S5  1  0.00000000  0.23175300  0.23175300  1
  S  S6  1  0.74119100  0.74119100  0.48178100  1
  S  S7  1  0.19758900  0.94004300  0.49920700  1
  S  S8  1  0.06098000  0.06098000  0.75248700  1
  S  S9  1  0.00000000  0.76824700  0.76824700  1
  S  S10  1  0.30161800  0.80241100  0.74245400  1
  S  S11  1  0.24496400  0.50000000  0.74496400  1
  S  S12  1  0.00000000  0.00000000  0.00000000  1
  S  S13  1  0.44037000  0.19797000  0.00000000  1
  S  S14  1  0.25880900  0.74059000  0.00000000  1
  S  S15  1  0.69150700  0.93902000  0.00000000  1
  S  S16  1  0.30849300  0.30849300  0.24751300  1
  S  S17  1  0.23175300  0.00000000  0.23175300  1
  S  S18  1  0.55916400  0.05995700  0.25754600  1
  S  S19  1  0.50000000  0.75503600  0.25503600  1
  S  S20  1  0.69838200  0.44083600  0.50079300  1
  S  S21  1  0.94004300  0.19758900  0.49920700  1
  S  S22  1  0.55963000  0.55963000  0.75760100  1
  S  S23  1  0.80241100  0.30161800  0.74245400  1
  S  S24  1  0.76824700  0.00000000  0.76824700  1
  S  S25  1  0.93902000  0.69150700  0.00000000  1
  S  S26  1  0.19797000  0.44037000  0.00000000  1
  S  S27  1  0.05995700  0.55916400  0.25754600  1
  S  S28  1  0.44083600  0.69838200  0.50079300  1
loop_
_geom_bond_atom_site_label_1
_geom_bond_atom_site_label_2
_geom_bond_distance
_geom_bond_site_symmetry_2
S0 S11 2.588791 1_555
S0 S1 2.588791 1_555
S0 S5 2.795247 1_555
S0 S17 2.795247 1_555
S0 Yb2 2.904673 1_555
S0 Yb8 2.996015 1_555
S0 Yb15 2.996015 1_555
S0 Yb0 3.133684 1_445
S1 S2 2.588791 1_556
S1 Yb8 2.996827 1_555
S1 Yb3 2.996833 1_545
S1 Yb12 3.032157 1_556
S1 Yb2 3.032157 1_555
S2 S4 2.588791 1_555
S2 S5 2.795247 1_655
S2 S24 2.795247 1_554
S2 Yb12 2.904673 1_555
S2 Yb7 2.996011 1_555
S2 Yb3 2.996017 1_544
S2 Yb13 3.133684 1_655
S3 Yb12 2.744319 1_555
S3 Yb5 2.744319 1_555
S3 Yb1 2.759042 1_655
S3 Yb9 2.759042 1_565
S3 Yb0 2.866952 1_555
S4 S6 2.588791 1_555
S4 Yb7 2.996831 1_555
S4 Yb1 2.996833 1_655
S4 Yb12 3.032157 1_555
S4 Yb6 3.032157 1_555
S5 Yb13 2.968559 1_555
S5 Yb0 2.968559 1_445
S5 Yb7 3.118604 1_455
S5 Yb15 3.118609 1_555
S6 S9 2.795247 1_655
S6 Yb6 2.904673 1_555
S6 Yb1 2.996017 1_655
S6 Yb9 2.996017 1_565
S6 Yb10 3.133684 1_555
S7 Yb3 2.743653 1_555
S7 Yb14 2.744552 1_555
S7 Yb0 2.774410 1_455
S7 Yb2 2.776417 1_565
S7 Yb1 2.900665 1_555
S8 Yb13 2.754906 1_556
S8 Yb4 2.754906 1_556
S8 Yb1 2.756902 1_545
S8 Yb9 2.756902 1_455
S8 Yb2 2.854998 1_555
S9 Yb4 2.968559 1_566
S9 Yb10 2.968559 1_455
S9 Yb1 3.118615 1_555
S9 Yb11 3.118615 1_455
S10 Yb15 2.743650 1_555
S10 Yb1 2.744556 1_555
S10 Yb4 2.774410 1_566
S10 Yb5 2.776417 1_556
S10 Yb3 2.900665 1_555
S11 S14 2.588791 1_556
S11 Yb15 2.996827 1_555
S11 Yb11 2.996833 1_455
S11 Yb5 3.032157 1_556
S11 Yb2 3.032157 1_555
S12 S9 2.486305 1_544
S12 S17 2.486305 1_555
S12 S24 2.486305 1_454
S12 S5 2.486305 1_555
S12 Yb4 3.055540 1_555
S12 Yb13 3.055540 1_555
S12 Yb10 3.055540 1_444
S12 Yb0 3.055540 1_445
S13 Yb6 2.744322 1_555
S13 Yb2 2.744322 1_554
S13 Yb3 2.759035 1_544
S13 Yb7 2.759042 1_555
S13 Yb4 2.866960 1_555
S14 S19 2.588791 1_555
S14 S9 2.795247 1_554
S14 S17 2.795247 1_565
S14 Yb5 2.904673 1_555
S14 Yb14 2.996011 1_555
S14 Yb11 2.996017 1_454
S14 Yb4 3.133684 1_565
S15 Yb0 2.754906 1_555
S15 Yb10 2.754906 1_554
S15 Yb7 2.756899 1_565
S15 Yb3 2.756902 1_554
S15 Yb5 2.854998 1_555
S16 Yb13 2.754906 1_555
S16 Yb4 2.754906 1_555
S16 Yb8 2.756909 1_555
S16 Yb15 2.756909 1_555
S16 Yb6 2.854998 1_555
S17 Yb4 2.968559 1_555
S17 Yb0 2.968559 1_445
S17 Yb14 3.118604 1_545
S17 Yb8 3.118609 1_555
S18 Yb9 2.743653 1_555
S18 Yb8 2.744552 1_555
S18 Yb4 2.774410 1_555
S18 Yb5 2.776417 1_545
S18 Yb7 2.900673 1_555
S19 S6 2.588791 1_555
S19 Yb14 2.996831 1_555
S19 Yb9 2.996833 1_565
S19 Yb5 3.032157 1_555
S19 Yb6 3.032157 1_555
S20 Yb7 2.743660 1_555
S20 Yb11 2.744556 1_555
S20 Yb10 2.774410 1_555
S20 Yb6 2.776417 1_555
S20 Yb8 2.900673 1_555
S21 Yb11 2.743653 1_555
S21 Yb7 2.744552 1_555
S21 Yb0 2.774410 1_545
S21 Yb2 2.776417 1_655
S21 Yb9 2.900665 1_555
S22 Yb12 2.744315 1_556
S22 Yb5 2.744315 1_556
S22 Yb8 2.759045 1_555
S22 Yb15 2.759045 1_555
S22 Yb10 2.866969 1_555
S23 Yb8 2.743650 1_555
S23 Yb9 2.744556 1_555
S23 Yb13 2.774410 1_656
S23 Yb12 2.776417 1_556
S23 Yb11 2.900665 1_555
S24 S6 2.795247 1_545
S24 Yb13 2.968559 1_656
S24 Yb10 2.968559 1_545
S24 Yb3 3.118615 1_545
S24 Yb9 3.118615 1_555
S25 Yb0 2.754906 1_555
S25 Yb10 2.754906 1_554
S25 Yb14 2.756899 1_655
S25 Yb11 2.756902 1_554
S25 Yb12 2.854998 1_555
S26 Yb6 2.744322 1_555
S26 Yb2 2.744322 1_554
S26 Yb11 2.759035 1_454
S26 Yb14 2.759042 1_555
S26 Yb13 2.866960 1_555
S27 Yb1 2.743653 1_555
S27 Yb15 2.744552 1_555
S27 Yb13 2.774410 1_555
S27 Yb12 2.776417 1_455
S27 Yb14 2.900673 1_555
S28 Yb14 2.743660 1_555
S28 Yb3 2.744556 1_555
S28 Yb10 2.774410 1_555
S28 Yb6 2.776417 1_555
S28 Yb15 2.900673 1_555
