# generated using pymatgen
data_CrNi3
_symmetry_space_group_name_H-M   'P 1'
_cell_length_a   16.62308558
_cell_length_b   16.62308558
_cell_length_c   16.62308574
_cell_angle_alpha   17.30817166
_cell_angle_beta   17.30817166
_cell_angle_gamma   17.30817821
_symmetry_Int_Tables_number   1
_chemical_formula_structural   CrNi3
_chemical_formula_sum   'Cr8 Ni24'
_cell_volume   354.78191549
_cell_formula_units_Z   8
loop_
 _symmetry_equiv_pos_site_id
 _symmetry_equiv_pos_as_xyz
  1  'x, y, z'
loop_
 _atom_site_type_symbol
 _atom_site_label
 _atom_site_symmetry_multiplicity
 _atom_site_fract_x
 _atom_site_fract_y
 _atom_site_fract_z
 _atom_site_occupancy
  Cr  Cr0_0  1  0.00000000  0.00000000  0.00000000  1
  Cr  Cr0_1  1  0.00000000  0.00000000  0.50000000  1
  Cr  Cr0_2  1  0.00000000  0.50000000  0.00000000  1
  Cr  Cr0_3  1  0.00000000  0.50000000  0.50000000  1
  Cr  Cr0_4  1  0.50000000  0.00000000  0.00000000  1
  Cr  Cr0_5  1  0.50000000  0.00000000  0.50000000  1
  Cr  Cr0_6  1  0.50000000  0.50000000  0.00000000  1
  Cr  Cr0_7  1  0.50000000  0.50000000  0.50000000  1
  Ni  Ni0_0  1  0.12526500  0.12526500  0.12526500  1
  Ni  Ni0_1  1  0.12526500  0.12526500  0.62526500  1
  Ni  Ni0_2  1  0.12526500  0.62526500  0.12526500  1
  Ni  Ni0_3  1  0.12526500  0.62526500  0.62526500  1
  Ni  Ni0_4  1  0.62526500  0.12526500  0.12526500  1
  Ni  Ni0_5  1  0.62526500  0.12526500  0.62526500  1
  Ni  Ni0_6  1  0.62526500  0.62526500  0.12526500  1
  Ni  Ni0_7  1  0.62526500  0.62526500  0.62526500  1
  Ni  Ni1_0  1  0.25000000  0.25000000  0.25000000  1
  Ni  Ni1_1  1  0.25000000  0.25000000  0.75000000  1
  Ni  Ni1_2  1  0.25000000  0.75000000  0.25000000  1
  Ni  Ni1_3  1  0.25000000  0.75000000  0.75000000  1
  Ni  Ni1_4  1  0.75000000  0.25000000  0.25000000  1
  Ni  Ni1_5  1  0.75000000  0.25000000  0.75000000  1
  Ni  Ni1_6  1  0.75000000  0.75000000  0.25000000  1
  Ni  Ni1_7  1  0.75000000  0.75000000  0.75000000  1
  Ni  Ni2_0  1  0.37473500  0.37473500  0.37473500  1
  Ni  Ni2_1  1  0.37473500  0.37473500  0.87473500  1
  Ni  Ni2_2  1  0.37473500  0.87473500  0.37473500  1
  Ni  Ni2_3  1  0.37473500  0.87473500  0.87473500  1
  Ni  Ni2_4  1  0.87473500  0.37473500  0.37473500  1
  Ni  Ni2_5  1  0.87473500  0.37473500  0.87473500  1
  Ni  Ni2_6  1  0.87473500  0.87473500  0.37473500  1
  Ni  Ni2_7  1  0.87473500  0.87473500  0.87473500  1
loop_
_geom_bond_atom_site_label_1
_geom_bond_atom_site_label_2
_geom_bond_distance
_geom_bond_site_symmetry_2
Cr0_0 Ni2_6 2.493913 1_445
Cr0_0 Ni0_1 2.493913 1_554
Cr0_0 Ni0_2 2.493913 1_545
Cr0_0 Ni0_4 2.493913 1_455
Cr0_0 Ni2_3 2.493913 1_544
Cr0_0 Ni2_5 2.493913 1_454
Cr0_0 Cr0_5 2.501253 1_455
Cr0_0 Cr0_3 2.501253 1_545
Cr0_0 Cr0_5 2.501253 1_554
Cr0_0 Cr0_3 2.501253 1_554
Cr0_0 Cr0_6 2.501254 1_545
Cr0_0 Cr0_6 2.501254 1_455
Cr0_1 Ni2_7 2.493913 1_445
Cr0_1 Ni0_0 2.493913 1_555
Cr0_1 Ni0_5 2.493913 1_455
Cr0_1 Ni2_2 2.493913 1_545
Cr0_1 Ni2_4 2.493913 1_455
Cr0_1 Ni0_3 2.493913 1_545
Cr0_1 Cr0_4 2.501253 1_456
Cr0_1 Cr0_4 2.501253 1_555
Cr0_1 Cr0_2 2.501253 1_555
Cr0_1 Cr0_2 2.501253 1_546
Cr0_1 Cr0_7 2.501254 1_545
Cr0_1 Cr0_7 2.501254 1_455
Cr0_2 Ni0_3 2.493913 1_554
Cr0_2 Ni2_4 2.493913 1_455
Cr0_2 Ni2_7 2.493913 1_454
Cr0_2 Ni0_0 2.493913 1_555
Cr0_2 Ni0_6 2.493913 1_455
Cr0_2 Ni2_1 2.493913 1_554
Cr0_2 Cr0_7 2.501253 1_554
Cr0_2 Cr0_7 2.501253 1_455
Cr0_2 Cr0_4 2.501254 1_465
Cr0_2 Cr0_4 2.501254 1_555
Cr0_3 Ni0_2 2.493913 1_555
Cr0_3 Ni2_5 2.493913 1_455
Cr0_3 Ni2_6 2.493913 1_455
Cr0_3 Ni0_7 2.493913 1_455
Cr0_3 Ni2_0 2.493913 1_555
Cr0_3 Ni0_1 2.493913 1_555
Cr0_3 Cr0_6 2.501253 1_555
Cr0_3 Cr0_6 2.501253 1_456
Cr0_3 Cr0_5 2.501254 1_555
Cr0_3 Cr0_5 2.501254 1_465
Cr0_4 Ni2_2 2.493913 1_545
Cr0_4 Ni0_5 2.493913 1_554
Cr0_4 Ni2_7 2.493913 1_544
Cr0_4 Ni0_0 2.493913 1_555
Cr0_4 Ni0_6 2.493913 1_545
Cr0_4 Ni2_1 2.493913 1_554
Cr0_4 Cr0_7 2.501253 1_554
Cr0_4 Cr0_7 2.501253 1_545
Cr0_5 Ni0_4 2.493913 1_555
Cr0_5 Ni2_3 2.493913 1_545
Cr0_5 Ni0_7 2.493913 1_545
Cr0_5 Ni2_6 2.493913 1_545
Cr0_5 Ni2_0 2.493913 1_555
Cr0_5 Ni0_1 2.493913 1_555
Cr0_5 Cr0_6 2.501253 1_546
Cr0_5 Cr0_6 2.501253 1_555
Cr0_6 Ni0_7 2.493913 1_554
Cr0_6 Ni2_0 2.493913 1_555
Cr0_6 Ni0_2 2.493913 1_555
Cr0_6 Ni0_4 2.493913 1_555
Cr0_6 Ni2_5 2.493913 1_554
Cr0_6 Ni2_3 2.493913 1_554
Cr0_7 Ni0_6 2.493913 1_555
Cr0_7 Ni2_1 2.493913 1_555
Cr0_7 Ni2_4 2.493913 1_555
Cr0_7 Ni0_5 2.493913 1_555
Cr0_7 Ni2_2 2.493913 1_555
Cr0_7 Ni0_3 2.493913 1_555
Ni0_0 Ni0_3 2.501253 1_545
Ni0_0 Ni0_5 2.501253 1_455
Ni0_0 Ni0_5 2.501253 1_554
Ni0_0 Ni0_3 2.501253 1_554
Ni0_0 Ni0_6 2.501254 1_545
Ni0_0 Ni0_6 2.501254 1_455
Ni0_0 Ni1_1 2.515179 1_554
Ni0_0 Ni1_2 2.515179 1_545
Ni0_0 Ni1_4 2.515179 1_455
Ni0_1 Ni0_2 2.501253 1_555
Ni0_1 Ni0_4 2.501253 1_555
Ni0_1 Ni0_2 2.501253 1_546
Ni0_1 Ni0_4 2.501253 1_456
Ni0_1 Ni0_7 2.501254 1_545
Ni0_1 Ni0_7 2.501254 1_455
Ni0_1 Ni1_0 2.515179 1_555
Ni0_1 Ni1_5 2.515179 1_455
Ni0_1 Ni1_3 2.515179 1_545
Ni0_2 Ni0_7 2.501253 1_455
Ni0_2 Ni0_7 2.501253 1_554
Ni0_2 Ni0_4 2.501254 1_555
Ni0_2 Ni0_4 2.501254 1_465
Ni0_2 Ni1_3 2.515179 1_554
Ni0_2 Ni1_6 2.515179 1_455
Ni0_2 Ni1_0 2.515179 1_555
Ni0_3 Ni0_6 2.501253 1_555
Ni0_3 Ni0_6 2.501253 1_456
Ni0_3 Ni0_5 2.501254 1_465
Ni0_3 Ni0_5 2.501254 1_555
Ni0_3 Ni1_2 2.515179 1_555
Ni0_3 Ni1_1 2.515179 1_555
Ni0_3 Ni1_7 2.515179 1_455
Ni0_4 Ni0_7 2.501253 1_545
Ni0_4 Ni0_7 2.501253 1_554
Ni0_4 Ni1_5 2.515179 1_554
Ni0_4 Ni1_6 2.515179 1_545
Ni0_4 Ni1_0 2.515179 1_555
Ni0_5 Ni0_6 2.501253 1_555
Ni0_5 Ni0_6 2.501253 1_546
Ni0_5 Ni1_4 2.515179 1_555
Ni0_5 Ni1_1 2.515179 1_555
Ni0_5 Ni1_7 2.515179 1_545
Ni0_6 Ni1_7 2.515179 1_554
Ni0_6 Ni1_4 2.515179 1_555
Ni0_6 Ni1_2 2.515179 1_555
Ni0_7 Ni1_6 2.515179 1_555
Ni0_7 Ni1_3 2.515179 1_555
Ni0_7 Ni1_5 2.515179 1_555
Ni1_0 Ni1_3 2.501253 1_545
Ni1_0 Ni1_5 2.501253 1_455
Ni1_0 Ni1_5 2.501253 1_554
Ni1_0 Ni1_3 2.501253 1_554
Ni1_0 Ni1_6 2.501254 1_455
Ni1_0 Ni1_6 2.501254 1_545
Ni1_0 Ni2_1 2.515179 1_554
Ni1_0 Ni2_2 2.515179 1_545
Ni1_0 Ni2_4 2.515179 1_455
Ni1_1 Ni1_4 2.501253 1_456
Ni1_1 Ni1_2 2.501253 1_555
Ni1_1 Ni1_2 2.501253 1_546
Ni1_1 Ni1_4 2.501253 1_555
Ni1_1 Ni1_7 2.501254 1_545
Ni1_1 Ni1_7 2.501254 1_455
Ni1_1 Ni2_0 2.515179 1_555
Ni1_1 Ni2_5 2.515179 1_455
Ni1_1 Ni2_3 2.515179 1_545
Ni1_2 Ni1_7 2.501253 1_554
Ni1_2 Ni1_7 2.501253 1_455
Ni1_2 Ni1_4 2.501254 1_465
Ni1_2 Ni1_4 2.501254 1_555
Ni1_2 Ni2_3 2.515179 1_554
Ni1_2 Ni2_0 2.515179 1_555
Ni1_2 Ni2_6 2.515179 1_455
Ni1_3 Ni1_6 2.501253 1_555
Ni1_3 Ni1_6 2.501253 1_456
Ni1_3 Ni1_5 2.501254 1_465
Ni1_3 Ni1_5 2.501254 1_555
Ni1_3 Ni2_2 2.515179 1_555
Ni1_3 Ni2_1 2.515179 1_555
Ni1_3 Ni2_7 2.515179 1_455
Ni1_4 Ni1_7 2.501253 1_554
Ni1_4 Ni1_7 2.501253 1_545
Ni1_4 Ni2_5 2.515179 1_554
Ni1_4 Ni2_0 2.515179 1_555
Ni1_4 Ni2_6 2.515179 1_545
Ni1_5 Ni1_6 2.501253 1_546
Ni1_5 Ni1_6 2.501253 1_555
Ni1_5 Ni2_4 2.515179 1_555
Ni1_5 Ni2_1 2.515179 1_555
Ni1_5 Ni2_7 2.515179 1_545
Ni1_6 Ni2_7 2.515179 1_554
Ni1_6 Ni2_2 2.515179 1_555
Ni1_6 Ni2_4 2.515179 1_555
Ni1_7 Ni2_6 2.515179 1_555
Ni1_7 Ni2_3 2.515179 1_555
Ni1_7 Ni2_5 2.515179 1_555
Ni2_0 Ni2_5 2.501253 1_455
Ni2_0 Ni2_3 2.501253 1_545
Ni2_0 Ni2_3 2.501253 1_554
Ni2_0 Ni2_5 2.501253 1_554
Ni2_0 Ni2_6 2.501254 1_545
Ni2_0 Ni2_6 2.501254 1_455
Ni2_1 Ni2_4 2.501253 1_456
Ni2_1 Ni2_2 2.501253 1_546
Ni2_1 Ni2_4 2.501253 1_555
Ni2_1 Ni2_2 2.501253 1_555
Ni2_1 Ni2_7 2.501254 1_545
Ni2_1 Ni2_7 2.501254 1_455
Ni2_2 Ni2_7 2.501253 1_554
Ni2_2 Ni2_7 2.501253 1_455
Ni2_2 Ni2_4 2.501254 1_465
Ni2_2 Ni2_4 2.501254 1_555
Ni2_3 Ni2_6 2.501253 1_555
Ni2_3 Ni2_6 2.501253 1_456
Ni2_3 Ni2_5 2.501254 1_465
Ni2_3 Ni2_5 2.501254 1_555
Ni2_4 Ni2_7 2.501253 1_554
Ni2_4 Ni2_7 2.501253 1_545
Ni2_5 Ni2_6 2.501253 1_555
Ni2_5 Ni2_6 2.501253 1_546
