# generated using pymatgen
data_K2GaB5(H4O7)2
_symmetry_space_group_name_H-M   'P 1'
_cell_length_a   7.04390339
_cell_length_b   7.04390339
_cell_length_c   14.05548400
_cell_angle_alpha   90.00000000
_cell_angle_beta   90.00000000
_cell_angle_gamma   86.97761667
_symmetry_Int_Tables_number   1
_chemical_formula_structural   K2GaB5(H4O7)2
_chemical_formula_sum   'K4 Ga2 B10 H16 O28'
_cell_volume   696.41492276
_cell_formula_units_Z   2
loop_
 _symmetry_equiv_pos_site_id
 _symmetry_equiv_pos_as_xyz
  1  'x, y, z'
loop_
 _atom_site_type_symbol
 _atom_site_label
 _atom_site_symmetry_multiplicity
 _atom_site_fract_x
 _atom_site_fract_y
 _atom_site_fract_z
 _atom_site_occupancy
  K  K0  1  0.08135000  0.38591200  0.13311500  1
  K  K1  1  0.61408800  0.91865000  0.86688500  1
  K  K2  1  0.91865000  0.61408800  0.63311500  1
  K  K3  1  0.38591200  0.08135000  0.36688500  1
  Ga  Ga0  1  0.13626100  0.86373900  0.00000000  1
  Ga  Ga1  1  0.86373900  0.13626100  0.50000000  1
  B  B0  1  0.76399600  0.79100900  0.08039400  1
  B  B1  1  0.20899100  0.23600400  0.91960600  1
  B  B2  1  0.23600400  0.20899100  0.58039400  1
  B  B3  1  0.79100900  0.76399600  0.41960600  1
  B  B4  1  0.69931000  0.69931000  0.25000000  1
  B  B5  1  0.30069000  0.30069000  0.75000000  1
  B  B6  1  0.77084800  0.43335500  0.36776000  1
  B  B7  1  0.56664500  0.22915200  0.63224000  1
  B  B8  1  0.22915200  0.56664500  0.86776000  1
  B  B9  1  0.43335500  0.77084800  0.13224000  1
  H  H0  1  0.15116400  0.58748300  0.32947600  1
  H  H1  1  0.41251700  0.84883600  0.67052400  1
  H  H2  1  0.84883600  0.41251700  0.82947600  1
  H  H3  1  0.58748300  0.15116400  0.17052400  1
  H  H4  1  0.35665900  0.58259100  0.29017800  1
  H  H5  1  0.41740900  0.64334100  0.70982200  1
  H  H6  1  0.64334100  0.41740900  0.79017800  1
  H  H7  1  0.58259100  0.35665900  0.20982200  1
  H  H8  1  0.94338300  0.06347700  0.28687200  1
  H  H9  1  0.93652300  0.05661700  0.71312800  1
  H  H10  1  0.05661700  0.93652300  0.78687200  1
  H  H11  1  0.06347700  0.94338300  0.21312800  1
  H  H12  1  0.70159600  0.38526800  0.95356200  1
  H  H13  1  0.61473200  0.29840400  0.04643800  1
  H  H14  1  0.29840400  0.61473200  0.45356200  1
  H  H15  1  0.38526800  0.70159600  0.54643800  1
  O  O0  1  0.87967700  0.82518700  0.00620200  1
  O  O1  1  0.17481300  0.12032300  0.99379800  1
  O  O2  1  0.12032300  0.17481300  0.50620200  1
  O  O3  1  0.82518700  0.87967700  0.49379800  1
  O  O4  1  0.56641500  0.81195200  0.06228200  1
  O  O5  1  0.18804800  0.43358500  0.93771800  1
  O  O6  1  0.43358500  0.18804800  0.56228200  1
  O  O7  1  0.81195200  0.56641500  0.43771800  1
  O  O8  1  0.82598100  0.73690200  0.16965400  1
  O  O9  1  0.26309800  0.17401900  0.83034600  1
  O  O10  1  0.17401900  0.26309800  0.66965400  1
  O  O11  1  0.73690200  0.82598100  0.33034600  1
  O  O12  1  0.72798400  0.49508700  0.27671000  1
  O  O13  1  0.50491300  0.27201600  0.72329000  1
  O  O14  1  0.27201600  0.50491300  0.77671000  1
  O  O15  1  0.49508700  0.72798400  0.22329000  1
  O  O16  1  0.77271900  0.24444000  0.38725600  1
  O  O17  1  0.75556000  0.22728100  0.61274400  1
  O  O18  1  0.22728100  0.75556000  0.88725600  1
  O  O19  1  0.24444000  0.77271900  0.11274400  1
  O  O20  1  0.26778100  0.50775000  0.32905100  1
  O  O21  1  0.49225000  0.73221900  0.67094900  1
  O  O22  1  0.73221900  0.49225000  0.82905100  1
  O  O23  1  0.50775000  0.26778100  0.17094900  1
  O  O24  1  0.06177200  0.06177200  0.25000000  1
  O  O25  1  0.93822800  0.93822800  0.75000000  1
  O  O26  1  0.71858100  0.28141900  0.00000000  1
  O  O27  1  0.28141900  0.71858100  0.50000000  1
loop_
_geom_bond_atom_site_label_1
_geom_bond_atom_site_label_2
_geom_bond_distance
_geom_bond_site_symmetry_2
K0 O1 2.763655 1_554
K0 O24 2.822111 1_555
K0 O5 2.871750 1_554
K0 O8 3.023725 1_455
K0 O19 3.025786 1_555
K0 O23 3.119738 1_555
K0 O20 3.188143 1_555
K0 O12 3.264745 1_455
K0 O26 3.281817 1_455
K1 O0 2.763655 1_556
K1 O25 2.822111 1_555
K1 O4 2.871750 1_556
K1 O9 3.023725 1_565
K1 O18 3.025786 1_555
K1 O22 3.119738 1_555
K1 O21 3.188143 1_555
K1 O13 3.264745 1_565
K1 O26 3.281817 1_566
K2 O3 2.763655 1_555
K2 O25 2.822111 1_555
K2 O7 2.871750 1_555
K2 O10 3.023725 1_655
K2 O17 3.025786 1_555
K2 O21 3.119738 1_555
K2 O22 3.188143 1_555
K2 O14 3.264745 1_655
K2 O27 3.281817 1_655
K3 O2 2.763655 1_555
K3 O24 2.822111 1_555
K3 O6 2.871750 1_555
K3 O11 3.023725 1_545
K3 O16 3.025786 1_555
K3 O20 3.119738 1_555
K3 O23 3.188143 1_555
K3 O15 3.264745 1_545
K3 O27 3.281817 1_545
Ga0 O0 1.843806 1_455
Ga0 O1 1.843806 1_564
Ga0 O19 1.857786 1_555
Ga0 O18 1.857786 1_554
Ga1 O3 1.843806 1_545
Ga1 O2 1.843806 1_655
Ga1 O17 1.857786 1_555
Ga1 O16 1.857786 1_555
B0 O0 1.352797 1_555
B0 O8 1.375625 1_555
B0 O4 1.414872 1_555
B1 O1 1.352797 1_555
B1 O9 1.375625 1_555
B1 O5 1.414872 1_555
B2 O2 1.352797 1_555
B2 O10 1.375625 1_555
B2 O6 1.414872 1_555
B3 O3 1.352797 1_555
B3 O11 1.375625 1_555
B3 O7 1.414872 1_555
B4 O11 1.471896 1_555
B4 O8 1.471896 1_555
B4 O15 1.490120 1_555
B4 O12 1.490120 1_555
B5 O9 1.471896 1_555
B5 O10 1.471896 1_555
B5 O13 1.490120 1_555
B5 O14 1.490120 1_555
B6 O16 1.358004 1_555
B6 O12 1.379914 1_555
B6 O7 1.399204 1_555
B7 O17 1.358004 1_555
B7 O13 1.379914 1_555
B7 O6 1.399204 1_555
B8 O18 1.358004 1_555
B8 O14 1.379914 1_555
B8 O5 1.399204 1_555
B9 O19 1.358004 1_555
B9 O15 1.379914 1_555
B9 O4 1.399204 1_555
H0 O20 0.970349 1_555
H1 O21 0.970349 1_555
H2 O22 0.970349 1_555
H3 O23 0.970349 1_555
H4 O20 1.001589 1_555
H5 O21 1.001589 1_555
H6 O22 1.001589 1_555
H7 O23 1.001589 1_555
H8 O24 0.981376 1_655
H9 O25 0.981376 1_545
H10 O25 0.981376 1_455
H11 O24 0.981376 1_565
H12 O26 0.982959 1_556
H13 O26 0.982959 1_555
H14 O27 0.982959 1_555
H15 O27 0.982959 1_555
