# generated using pymatgen
data_Sr2YMn2O7
_symmetry_space_group_name_H-M   'P 1'
_cell_length_a   5.53049800
_cell_length_b   10.06674942
_cell_length_c   5.66812653
_cell_angle_alpha   74.43923603
_cell_angle_beta   89.99993880
_cell_angle_gamma   89.99992174
_symmetry_Int_Tables_number   1
_chemical_formula_structural   Sr2YMn2O7
_chemical_formula_sum   'Sr4 Y2 Mn4 O14'
_cell_volume   304.00138143
_cell_formula_units_Z   2
loop_
 _symmetry_equiv_pos_site_id
 _symmetry_equiv_pos_as_xyz
  1  'x, y, z'
loop_
 _atom_site_type_symbol
 _atom_site_label
 _atom_site_symmetry_multiplicity
 _atom_site_fract_x
 _atom_site_fract_y
 _atom_site_fract_z
 _atom_site_occupancy
  Sr  Sr0  1  0.24999700  0.99952300  0.25306800  1
  Sr  Sr1  1  0.74999900  0.00047100  0.74692600  1
  Sr  Sr2  1  0.24999800  0.36936600  0.07844800  1
  Sr  Sr3  1  0.74999900  0.63065500  0.92157300  1
  Y  Y0  1  0.75000000  0.35864000  0.54240200  1
  Y  Y1  1  0.25000100  0.64133500  0.45756700  1
  Mn  Mn0  1  0.75000500  0.19655100  0.14901500  1
  Mn  Mn1  1  0.25000400  0.20112000  0.65205200  1
  Mn  Mn2  1  0.25000500  0.80345300  0.85104600  1
  Mn  Mn3  1  0.75000100  0.79892700  0.34797200  1
  O  O0  1  0.24999800  0.60931700  0.87677800  1
  O  O1  1  0.74999700  0.39067400  0.12319400  1
  O  O2  1  0.75000400  0.58943000  0.49166500  1
  O  O3  1  0.25000700  0.41056900  0.50836500  1
  O  O4  1  0.74999900  0.99784000  0.19904700  1
  O  O5  1  0.24999900  0.00213100  0.80095600  1
  O  O6  1  0.99170600  0.22716600  0.86819800  1
  O  O7  1  0.50828900  0.22716500  0.86819500  1
  O  O8  1  0.00831500  0.77283000  0.13179300  1
  O  O9  1  0.49168000  0.77283000  0.13179100  1
  O  O10  1  0.50072800  0.18576100  0.41828300  1
  O  O11  1  0.99927000  0.18576300  0.41827700  1
  O  O12  1  0.49929400  0.81424200  0.58169600  1
  O  O13  1  0.00070300  0.81424300  0.58169400  1
loop_
_geom_bond_atom_site_label_1
_geom_bond_atom_site_label_2
_geom_bond_distance
_geom_bond_site_symmetry_2
Mn0 O1 1.920109 1_555
Mn0 O4 1.943594 1_545
Mn0 O6 2.037684 1_554
Mn0 O7 2.037753 1_554
Mn0 O11 2.037797 1_555
Mn0 O10 2.037862 1_555
Mn1 O7 1.944858 1_555
Mn1 O6 1.944923 1_455
Mn1 O10 1.952503 1_555
Mn1 O11 1.952563 1_455
Mn1 O5 1.953959 1_555
Mn1 O3 2.046371 1_555
Mn2 O0 1.920339 1_555
Mn2 O5 1.943223 1_565
Mn2 O9 2.037284 1_556
Mn2 O8 2.037345 1_556
Mn2 O12 2.038250 1_555
Mn2 O13 2.038308 1_555
Mn3 O8 1.945268 1_655
Mn3 O9 1.945307 1_555
Mn3 O13 1.952119 1_655
Mn3 O12 1.952142 1_555
Mn3 O4 1.953282 1_555
Mn3 O2 2.046821 1_555
O0 Y1 2.310634 1_555
O0 Sr2 2.379076 1_556
O0 Sr3 2.790419 1_455
O0 Sr3 2.790431 1_555
O1 Y0 2.310595 1_555
O1 Sr3 2.379286 1_554
O1 Sr2 2.790358 1_555
O1 Sr2 2.790368 1_655
O2 Y0 2.263179 1_555
O2 Sr3 2.579274 1_555
O2 Y1 2.811175 1_655
O2 Y1 2.811207 1_555
O2 Sr3 3.145535 1_554
O3 Y1 2.262888 1_555
O3 Sr2 2.579232 1_555
O3 Y0 2.811187 1_555
O3 Y0 2.811264 1_455
O3 Sr2 3.145516 1_556
O4 Sr1 2.555701 1_564
O4 Sr0 2.782691 1_655
O4 Sr0 2.782712 1_555
O4 Sr1 3.112657 1_565
O5 Sr0 2.555710 1_546
O5 Sr1 2.782699 1_555
O5 Sr1 2.782700 1_455
O5 Sr0 3.112644 1_545
O6 Y0 2.374329 1_555
O6 Sr2 2.534802 1_656
O6 Sr1 2.882526 1_555
O6 Sr0 3.060857 1_646
O7 Y0 2.374337 1_555
O7 Sr2 2.534813 1_556
O7 Sr1 2.882514 1_555
O7 Sr0 3.060864 1_546
O8 Y1 2.374262 1_555
O8 Sr3 2.534597 1_454
O8 Sr0 2.882452 1_555
O8 Sr1 3.060902 1_464
O9 Y1 2.374247 1_555
O9 Sr3 2.534596 1_554
O9 Sr0 2.882456 1_555
O9 Sr1 3.060904 1_564
O10 Y0 2.465994 1_555
O10 Sr1 2.643016 1_555
O10 Sr2 2.671940 1_555
O10 Sr0 2.693825 1_545
O11 Y0 2.465985 1_555
O11 Sr1 2.643044 1_555
O11 Sr2 2.671907 1_655
O11 Sr0 2.693807 1_645
O12 Y1 2.466306 1_555
O12 Sr0 2.643000 1_555
O12 Sr3 2.671906 1_555
O12 Sr1 2.693724 1_565
O13 Y1 2.466321 1_555
O13 Sr0 2.642981 1_555
O13 Sr3 2.671915 1_455
O13 Sr1 2.693716 1_465
