# generated using pymatgen
data_Dy6Mn23
_symmetry_space_group_name_H-M   'P 1'
_cell_length_a   8.48040941
_cell_length_b   8.48040941
_cell_length_c   8.48040941
_cell_angle_alpha   60.00000000
_cell_angle_beta   60.00000000
_cell_angle_gamma   60.00000000
_symmetry_Int_Tables_number   1
_chemical_formula_structural   Dy6Mn23
_chemical_formula_sum   'Dy6 Mn23'
_cell_volume   431.25630717
_cell_formula_units_Z   1
loop_
 _symmetry_equiv_pos_site_id
 _symmetry_equiv_pos_as_xyz
  1  'x, y, z'
loop_
 _atom_site_type_symbol
 _atom_site_label
 _atom_site_symmetry_multiplicity
 _atom_site_fract_x
 _atom_site_fract_y
 _atom_site_fract_z
 _atom_site_occupancy
  Dy  Dy0  1  0.70380100  0.70380100  0.29619900  1
  Dy  Dy1  1  0.29619900  0.70380100  0.29619900  1
  Dy  Dy2  1  0.70380100  0.29619900  0.29619900  1
  Dy  Dy3  1  0.29619900  0.29619900  0.70380100  1
  Dy  Dy4  1  0.70380100  0.29619900  0.70380100  1
  Dy  Dy5  1  0.29619900  0.70380100  0.70380100  1
  Mn  Mn0  1  0.00000000  0.00000000  0.00000000  1
  Mn  Mn1  1  0.00000000  0.00000000  0.50000000  1
  Mn  Mn2  1  0.50000000  0.00000000  0.50000000  1
  Mn  Mn3  1  0.00000000  0.50000000  0.50000000  1
  Mn  Mn4  1  0.50000000  0.50000000  0.00000000  1
  Mn  Mn5  1  0.00000000  0.50000000  0.00000000  1
  Mn  Mn6  1  0.50000000  0.00000000  0.00000000  1
  Mn  Mn7  1  0.87813800  0.87813800  0.36558500  1
  Mn  Mn8  1  0.87813800  0.36558500  0.87813800  1
  Mn  Mn9  1  0.36558500  0.87813800  0.87813800  1
  Mn  Mn10  1  0.87813800  0.87813800  0.87813800  1
  Mn  Mn11  1  0.12186200  0.12186200  0.63441500  1
  Mn  Mn12  1  0.12186200  0.63441500  0.12186200  1
  Mn  Mn13  1  0.63441500  0.12186200  0.12186200  1
  Mn  Mn14  1  0.12186200  0.12186200  0.12186200  1
  Mn  Mn15  1  0.67760900  0.67760900  0.96717400  1
  Mn  Mn16  1  0.67760900  0.96717400  0.67760900  1
  Mn  Mn17  1  0.96717400  0.67760900  0.67760900  1
  Mn  Mn18  1  0.67760900  0.67760900  0.67760900  1
  Mn  Mn19  1  0.32239100  0.32239100  0.03282600  1
  Mn  Mn20  1  0.32239100  0.03282600  0.32239100  1
  Mn  Mn21  1  0.03282600  0.32239100  0.32239100  1
  Mn  Mn22  1  0.32239100  0.32239100  0.32239100  1
loop_
_geom_bond_atom_site_label_1
_geom_bond_atom_site_label_2
_geom_bond_distance
_geom_bond_site_symmetry_2
Dy0 Mn7 2.939996 1_555
Dy0 Mn10 2.940002 1_554
Dy0 Mn12 2.940004 1_655
Dy0 Mn13 2.940004 1_565
Dy0 Mn15 3.028719 1_554
Dy0 Mn21 3.028724 1_655
Dy0 Mn20 3.028724 1_565
Dy0 Mn18 3.028728 1_555
Dy0 Mn6 3.049043 1_565
Dy0 Mn3 3.049043 1_655
Dy0 Mn2 3.049043 1_565
Dy0 Mn5 3.049043 1_655
Dy1 Mn12 2.939996 1_555
Dy1 Mn14 2.940002 1_565
Dy1 Mn7 2.940004 1_455
Dy1 Mn9 2.940004 1_554
Dy1 Mn20 3.028719 1_565
Dy1 Mn17 3.028724 1_455
Dy1 Mn15 3.028724 1_554
Dy1 Mn22 3.028728 1_555
Dy1 Mn3 3.049043 1_555
Dy1 Mn6 3.049043 1_565
Dy1 Mn1 3.049043 1_565
Dy1 Mn4 3.049043 1_555
Dy2 Mn13 2.939996 1_555
Dy2 Mn14 2.940002 1_655
Dy2 Mn7 2.940004 1_545
Dy2 Mn8 2.940004 1_554
Dy2 Mn21 3.028719 1_655
Dy2 Mn16 3.028724 1_545
Dy2 Mn15 3.028724 1_554
Dy2 Mn22 3.028728 1_555
Dy2 Mn5 3.049043 1_655
Dy2 Mn4 3.049043 1_555
Dy2 Mn2 3.049043 1_555
Dy2 Mn1 3.049043 1_655
Dy3 Mn11 2.939996 1_555
Dy3 Mn14 2.940002 1_556
Dy3 Mn9 2.940004 1_545
Dy3 Mn8 2.940004 1_455
Dy3 Mn19 3.028719 1_556
Dy3 Mn16 3.028724 1_545
Dy3 Mn17 3.028724 1_455
Dy3 Mn22 3.028728 1_555
Dy3 Mn2 3.049043 1_555
Dy3 Mn6 3.049043 1_556
Dy3 Mn5 3.049043 1_556
Dy3 Mn3 3.049043 1_555
Dy4 Mn8 2.939996 1_555
Dy4 Mn10 2.940002 1_545
Dy4 Mn11 2.940004 1_655
Dy4 Mn13 2.940004 1_556
Dy4 Mn16 3.028719 1_545
Dy4 Mn21 3.028724 1_655
Dy4 Mn19 3.028724 1_556
Dy4 Mn18 3.028728 1_555
Dy4 Mn3 3.049043 1_655
Dy4 Mn6 3.049043 1_556
Dy4 Mn1 3.049043 1_655
Dy4 Mn4 3.049043 1_556
Dy5 Mn9 2.939996 1_555
Dy5 Mn10 2.940002 1_455
Dy5 Mn11 2.940004 1_565
Dy5 Mn12 2.940004 1_556
Dy5 Mn17 3.028719 1_455
Dy5 Mn19 3.028724 1_556
Dy5 Mn20 3.028724 1_565
Dy5 Mn18 3.028728 1_555
Dy5 Mn1 3.049043 1_565
Dy5 Mn4 3.049043 1_556
Dy5 Mn2 3.049043 1_565
Dy5 Mn5 3.049043 1_556
Mn0 Mn7 2.531393 1_445
Mn0 Mn8 2.531393 1_454
Mn0 Mn9 2.531393 1_544
Mn0 Mn13 2.531393 1_455
Mn0 Mn11 2.531393 1_554
Mn0 Mn12 2.531393 1_545
Mn0 Mn14 2.531400 1_555
Mn0 Mn10 2.531400 1_444
Mn1 Mn16 2.458610 1_445
Mn1 Mn17 2.458610 1_445
Mn1 Mn21 2.458610 1_555
Mn1 Mn20 2.458610 1_555
Mn1 Mn10 2.619034 1_445
Mn1 Mn14 2.619034 1_555
Mn1 Mn11 2.619041 1_555
Mn1 Mn7 2.619041 1_445
Mn2 Mn22 2.458613 1_555
Mn2 Mn20 2.458617 1_555
Mn2 Mn9 2.619034 1_545
Mn2 Mn7 2.619034 1_545
Mn3 Mn7 2.619034 1_455
Mn3 Mn8 2.619034 1_455
Mn4 Mn8 2.619034 1_554
Mn4 Mn9 2.619034 1_554
Mn5 Mn8 2.619041 1_454
Mn6 Mn9 2.619041 1_544
Mn10 Mn17 2.584153 1_555
Mn10 Mn16 2.584153 1_555
Mn10 Mn15 2.584153 1_555
Mn10 Mn5 2.619034 1_656
Mn10 Mn6 2.619034 1_566
Mn10 Mn12 2.923009 1_656
Mn10 Mn13 2.923009 1_566
Mn10 Mn11 2.923009 1_665
Mn11 Mn22 2.584159 1_555
Mn11 Mn21 2.584167 1_555
Mn11 Mn20 2.584167 1_555
Mn11 Mn3 2.619034 1_555
Mn11 Mn2 2.619034 1_555
Mn11 Mn8 2.922997 1_455
Mn11 Mn9 2.922997 1_545
Mn12 Mn22 2.584159 1_555
Mn12 Mn21 2.584167 1_555
Mn12 Mn19 2.584167 1_555
Mn12 Mn3 2.619034 1_555
Mn12 Mn4 2.619034 1_555
Mn12 Mn5 2.619041 1_555
Mn12 Mn9 2.922997 1_554
Mn12 Mn7 2.922997 1_455
Mn13 Mn22 2.584159 1_555
Mn13 Mn20 2.584167 1_555
Mn13 Mn19 2.584167 1_555
Mn13 Mn2 2.619034 1_555
Mn13 Mn4 2.619034 1_555
Mn13 Mn6 2.619041 1_555
Mn13 Mn7 2.922997 1_545
Mn13 Mn8 2.922997 1_554
Mn14 Mn19 2.584153 1_555
Mn14 Mn20 2.584153 1_555
Mn14 Mn21 2.584153 1_555
Mn14 Mn5 2.619034 1_555
Mn14 Mn6 2.619034 1_555
Mn14 Mn7 2.923009 1_445
Mn14 Mn8 2.923009 1_454
Mn14 Mn9 2.923009 1_544
Mn15 Mn16 2.455630 1_555
Mn15 Mn17 2.455630 1_555
Mn15 Mn18 2.455630 1_555
Mn15 Mn5 2.458610 1_656
Mn15 Mn6 2.458610 1_566
Mn15 Mn4 2.458617 1_556
Mn15 Mn9 2.584167 1_555
Mn15 Mn8 2.584167 1_555
Mn16 Mn17 2.455630 1_555
Mn16 Mn18 2.455630 1_555
Mn16 Mn6 2.458610 1_566
Mn16 Mn2 2.458617 1_565
Mn16 Mn9 2.584167 1_555
Mn16 Mn7 2.584167 1_555
Mn17 Mn18 2.455630 1_555
Mn17 Mn5 2.458610 1_656
Mn17 Mn3 2.458617 1_655
Mn17 Mn7 2.584167 1_555
Mn17 Mn8 2.584167 1_555
Mn18 Mn3 2.458613 1_655
Mn18 Mn2 2.458613 1_565
Mn18 Mn4 2.458613 1_556
Mn18 Mn8 2.584159 1_555
Mn18 Mn9 2.584159 1_555
Mn18 Mn7 2.584159 1_555
Mn19 Mn22 2.455630 1_555
Mn19 Mn21 2.455630 1_555
Mn19 Mn20 2.455630 1_555
Mn19 Mn5 2.458610 1_555
Mn19 Mn6 2.458610 1_555
Mn19 Mn4 2.458617 1_555
Mn20 Mn22 2.455630 1_555
Mn20 Mn21 2.455630 1_555
Mn20 Mn6 2.458610 1_555
Mn21 Mn22 2.455630 1_555
Mn21 Mn5 2.458610 1_555
Mn21 Mn3 2.458617 1_555
Mn22 Mn4 2.458613 1_555
Mn22 Mn3 2.458613 1_555
