# generated using pymatgen
data_Cs2KRb
_symmetry_space_group_name_H-M   'P 1'
_cell_length_a   17.44069194
_cell_length_b   17.44069194
_cell_length_c   17.44069194
_cell_angle_alpha   122.30098642
_cell_angle_beta   113.41654553
_cell_angle_gamma   93.91176781
_symmetry_Int_Tables_number   1
_chemical_formula_structural   Cs2KRb
_chemical_formula_sum   'Cs2 K1 Rb1'
_cell_volume   3836.14146599
_cell_formula_units_Z   1
loop_
 _symmetry_equiv_pos_site_id
 _symmetry_equiv_pos_as_xyz
  1  'x, y, z'
loop_
 _atom_site_type_symbol
 _atom_site_label
 _atom_site_symmetry_multiplicity
 _atom_site_fract_x
 _atom_site_fract_y
 _atom_site_fract_z
 _atom_site_occupancy
  Cs  Cs0  1  0.75038300  0.00000000  0.75038300  1
  Cs  Cs1  1  0.24961700  0.00000000  0.24961700  1
  K  K0  1  0.00000000  0.00000000  0.00000000  1
  Rb  Rb0  1  0.50000000  0.00000000  0.50000000  1
loop_
_geom_bond_atom_site_label_1
_geom_bond_atom_site_label_2
_geom_bond_distance
_geom_bond_site_symmetry_2
Cs0 K0 4.779283 1_656
Cs0 Rb0 4.793950 1_555
Cs1 K0 4.779283 1_555
Cs1 Rb0 4.793950 1_555
