# generated using pymatgen
data_LiDy(SO4)2
_symmetry_space_group_name_H-M   'P 1'
_cell_length_a   7.54539800
_cell_length_b   7.54539800
_cell_length_c   5.92887600
_cell_angle_alpha   90.00000000
_cell_angle_beta   90.00000000
_cell_angle_gamma   90.00000000
_symmetry_Int_Tables_number   1
_chemical_formula_structural   LiDy(SO4)2
_chemical_formula_sum   'Li2 Dy2 S4 O16'
_cell_volume   337.54888098
_cell_formula_units_Z   2
loop_
 _symmetry_equiv_pos_site_id
 _symmetry_equiv_pos_as_xyz
  1  'x, y, z'
loop_
 _atom_site_type_symbol
 _atom_site_label
 _atom_site_symmetry_multiplicity
 _atom_site_fract_x
 _atom_site_fract_y
 _atom_site_fract_z
 _atom_site_occupancy
  Li  Li0  1  0.00000000  0.50000000  0.75000000  1
  Li  Li1  1  0.50000000  0.00000000  0.25000000  1
  Dy  Dy0  1  0.00000000  0.50000000  0.25000000  1
  Dy  Dy1  1  0.50000000  0.00000000  0.75000000  1
  S  S0  1  0.77617400  0.72382600  0.75000000  1
  S  S1  1  0.22382600  0.27617400  0.75000000  1
  S  S2  1  0.72382600  0.22382600  0.25000000  1
  S  S3  1  0.27617400  0.77617400  0.25000000  1
  O  O0  1  0.91148500  0.68488800  0.56816700  1
  O  O1  1  0.08851500  0.31511200  0.56816700  1
  O  O2  1  0.58851500  0.18488800  0.06816700  1
  O  O3  1  0.41148500  0.81511200  0.06816700  1
  O  O4  1  0.68488800  0.08851500  0.43183300  1
  O  O5  1  0.31511200  0.91148500  0.43183300  1
  O  O6  1  0.81511200  0.58851500  0.93183300  1
  O  O7  1  0.18488800  0.41148500  0.93183300  1
  O  O8  1  0.59434700  0.70890900  0.65753400  1
  O  O9  1  0.40565300  0.29109100  0.65753400  1
  O  O10  1  0.90565300  0.20890900  0.15753400  1
  O  O11  1  0.09434700  0.79109100  0.15753400  1
  O  O12  1  0.29109100  0.59434700  0.34246600  1
  O  O13  1  0.70890900  0.40565300  0.34246600  1
  O  O14  1  0.20890900  0.09434700  0.84246600  1
  O  O15  1  0.79109100  0.90565300  0.84246600  1
loop_
_geom_bond_atom_site_label_1
_geom_bond_atom_site_label_2
_geom_bond_distance
_geom_bond_site_symmetry_2
Li0 O0 1.885329 1_455
Li0 O7 1.885329 1_555
Li0 O6 1.885329 1_455
Li0 O1 1.885329 1_555
Li1 O4 1.885329 1_555
Li1 O5 1.885329 1_545
Li1 O2 1.885329 1_555
Li1 O3 1.885329 1_545
Dy0 O12 2.373076 1_555
Dy0 O13 2.373076 1_455
Dy0 O11 2.373076 1_555
Dy0 O10 2.373076 1_455
Dy0 O0 2.439394 1_455
Dy0 O1 2.439394 1_555
Dy0 O7 2.439394 1_554
Dy0 O6 2.439394 1_454
Dy1 O9 2.373076 1_555
Dy1 O8 2.373076 1_545
Dy1 O15 2.373076 1_545
Dy1 O14 2.373076 1_555
Dy1 O2 2.439394 1_556
Dy1 O3 2.439394 1_546
Dy1 O4 2.439394 1_555
Dy1 O5 2.439394 1_545
O0 S0 1.513584 1_555
O1 S1 1.513584 1_555
O2 S2 1.513584 1_555
O3 S3 1.513584 1_555
O4 S2 1.513584 1_555
O5 S3 1.513584 1_555
O6 S0 1.513584 1_555
O7 S1 1.513584 1_555
O8 S0 1.481715 1_555
O9 S1 1.481715 1_555
O10 S2 1.481715 1_555
O11 S3 1.481715 1_555
O12 S3 1.481715 1_555
O13 S2 1.481715 1_555
O14 S1 1.481715 1_555
O15 S0 1.481715 1_555
