# generated using pymatgen
data_Mg(InSe2)2
_symmetry_space_group_name_H-M   'P 1'
_cell_length_a   8.10258811
_cell_length_b   8.10258811
_cell_length_c   8.10258811
_cell_angle_alpha   60.00000000
_cell_angle_beta   60.00000000
_cell_angle_gamma   60.00000000
_symmetry_Int_Tables_number   1
_chemical_formula_structural   Mg(InSe2)2
_chemical_formula_sum   'Mg2 In4 Se8'
_cell_volume   376.14586316
_cell_formula_units_Z   2
loop_
 _symmetry_equiv_pos_site_id
 _symmetry_equiv_pos_as_xyz
  1  'x, y, z'
loop_
 _atom_site_type_symbol
 _atom_site_label
 _atom_site_symmetry_multiplicity
 _atom_site_fract_x
 _atom_site_fract_y
 _atom_site_fract_z
 _atom_site_occupancy
  Mg  Mg0  1  0.50000000  0.50000000  0.50000000  1
  Mg  Mg1  1  0.75000000  0.75000000  0.75000000  1
  In  In0  1  0.12500000  0.12500000  0.62500000  1
  In  In1  1  0.12500000  0.62500000  0.12500000  1
  In  In2  1  0.62500000  0.12500000  0.12500000  1
  In  In3  1  0.12500000  0.12500000  0.12500000  1
  Se  Se0  1  0.88218900  0.88218900  0.88218900  1
  Se  Se1  1  0.35343200  0.88218900  0.88218900  1
  Se  Se2  1  0.88218900  0.35343200  0.88218900  1
  Se  Se3  1  0.88218900  0.88218900  0.35343200  1
  Se  Se4  1  0.36781100  0.89656800  0.36781100  1
  Se  Se5  1  0.36781100  0.36781100  0.89656800  1
  Se  Se6  1  0.89656800  0.36781100  0.36781100  1
  Se  Se7  1  0.36781100  0.36781100  0.36781100  1
loop_
_geom_bond_atom_site_label_1
_geom_bond_atom_site_label_2
_geom_bond_distance
_geom_bond_site_symmetry_2
Mg0 Se7 2.623582 1_555
Mg0 Se4 2.623589 1_555
Mg0 Se6 2.623589 1_555
Mg0 Se5 2.623589 1_555
Mg1 Se0 2.623582 1_555
Mg1 Se2 2.623589 1_555
Mg1 Se1 2.623589 1_555
Mg1 Se3 2.623589 1_555
In0 Se4 2.784753 1_545
In0 Se6 2.784753 1_455
In0 Se1 2.784753 1_545
In0 Se2 2.784753 1_455
In0 Se0 2.784758 1_445
In0 Se7 2.784758 1_555
In1 Se6 2.784753 1_455
In1 Se5 2.784753 1_554
In1 Se1 2.784753 1_554
In1 Se3 2.784753 1_455
In1 Se0 2.784758 1_454
In1 Se7 2.784758 1_555
In2 Se4 2.784753 1_545
In2 Se5 2.784753 1_554
In2 Se3 2.784753 1_545
In2 Se2 2.784753 1_554
In2 Se0 2.784758 1_544
In2 Se7 2.784758 1_555
In3 Se3 2.784759 1_445
In3 Se2 2.784759 1_454
In3 Se4 2.784759 1_545
In3 Se6 2.784759 1_455
In3 Se5 2.784759 1_554
In3 Se1 2.784759 1_544
