# generated using pymatgen
data_TmSbPt
_symmetry_space_group_name_H-M   'P 1'
_cell_length_a   4.60725030
_cell_length_b   4.60725050
_cell_length_c   4.60725089
_cell_angle_alpha   60.00000447
_cell_angle_beta   60.00000300
_cell_angle_gamma   59.99999924
_symmetry_Int_Tables_number   1
_chemical_formula_structural   TmSbPt
_chemical_formula_sum   'Tm1 Sb1 Pt1'
_cell_volume   69.15291946
_cell_formula_units_Z   1
loop_
 _symmetry_equiv_pos_site_id
 _symmetry_equiv_pos_as_xyz
  1  'x, y, z'
loop_
 _atom_site_type_symbol
 _atom_site_label
 _atom_site_symmetry_multiplicity
 _atom_site_fract_x
 _atom_site_fract_y
 _atom_site_fract_z
 _atom_site_occupancy
  Tm  Tm0  1  0.50000000  0.50000000  0.50000000  1
  Sb  Sb0  1  -0.00000000  0.00000000  0.00000000  1
  Pt  Pt0  1  0.25000000  0.25000000  0.25000000  1
loop_
_geom_bond_atom_site_label_1
_geom_bond_atom_site_label_2
_geom_bond_distance
_geom_bond_site_symmetry_2
Sb0 Tm0 3.257818 1_454
Sb0 Tm0 3.257818 1_544
Sb0 Tm0 3.257818 1_545
Sb0 Tm0 3.257818 1_455
Sb0 Tm0 3.257818 1_554
Sb0 Tm0 3.257818 1_445
Pt0 Sb0 2.821353 1_655
Pt0 Tm0 2.821353 1_455
Pt0 Tm0 2.821353 1_555
Pt0 Sb0 2.821353 1_555
Pt0 Sb0 2.821353 1_565
Pt0 Tm0 2.821353 1_545
Pt0 Tm0 2.821354 1_554
Pt0 Sb0 2.821354 1_556
