# generated using pymatgen
data_K(AuO2)2
_symmetry_space_group_name_H-M   'P 1'
_cell_length_a   6.94707029
_cell_length_b   6.94702419
_cell_length_c   5.50435407
_cell_angle_alpha   90.00008644
_cell_angle_beta   90.00009744
_cell_angle_gamma   89.99969451
_symmetry_Int_Tables_number   1
_chemical_formula_structural   K(AuO2)2
_chemical_formula_sum   'K2 Au4 O8'
_cell_volume   265.64819324
_cell_formula_units_Z   2
loop_
 _symmetry_equiv_pos_site_id
 _symmetry_equiv_pos_as_xyz
  1  'x, y, z'
loop_
 _atom_site_type_symbol
 _atom_site_label
 _atom_site_symmetry_multiplicity
 _atom_site_fract_x
 _atom_site_fract_y
 _atom_site_fract_z
 _atom_site_occupancy
  K  K0  1  0.49967142  -0.00009562  0.00000114  1
  K  K1  1  0.00018516  0.50017491  0.50000382  1
  Au  Au0  1  0.00009073  0.79650366  0.00002215  1
  Au  Au1  1  0.00007930  0.20344850  -0.00001572  1
  Au  Au2  1  0.20352947  -0.00005106  0.50000886  1
  Au  Au3  1  0.79657305  -0.00004611  0.49998480  1
  O  O0  1  0.20648194  0.20656186  0.25013577  1
  O  O1  1  0.20652976  0.20660278  0.74986811  1
  O  O2  1  0.20656339  0.79342064  0.25003690  1
  O  O3  1  0.20651087  0.79343883  0.74994409  1
  O  O4  1  0.79344566  0.79352295  0.24986818  1
  O  O5  1  0.79346631  0.20649183  0.75005249  1
  O  O6  1  0.79341984  0.79348978  0.75012970  1
  O  O7  1  0.79345310  0.20653706  0.24995972  1
loop_
_geom_bond_atom_site_label_1
_geom_bond_atom_site_label_2
_geom_bond_distance
_geom_bond_site_symmetry_2
K0 O2 2.845721 1_545
K0 O3 2.845970 1_544
K0 O1 2.846885 1_554
K0 O0 2.846985 1_555
K0 O4 2.848214 1_545
K0 O6 2.848215 1_544
K0 O5 2.849269 1_554
K0 O7 2.849382 1_555
K1 O3 2.845679 1_555
K1 O2 2.845848 1_555
K1 O1 2.847068 1_555
K1 O0 2.847114 1_555
K1 O6 2.847957 1_455
K1 O4 2.848058 1_455
K1 O7 2.849237 1_455
K1 O5 2.849433 1_455
Au0 O3 1.987879 1_554
Au0 O2 1.987899 1_555
Au0 O4 1.988117 1_455
Au0 O6 1.988422 1_454
Au1 O0 1.988071 1_555
Au1 O1 1.988183 1_554
Au1 O5 1.988283 1_454
Au1 O7 1.988522 1_455
Au2 O3 1.987772 1_545
Au2 O2 1.988004 1_545
Au2 O0 1.988049 1_555
Au2 O1 1.988202 1_555
Au3 O4 1.988075 1_545
Au3 O6 1.988354 1_545
Au3 O5 1.988423 1_555
Au3 O7 1.988491 1_555
