# generated using pymatgen
data_MgAg2
_symmetry_space_group_name_H-M   'P 1'
_cell_length_a   5.60377927
_cell_length_b   5.60377927
_cell_length_c   8.84113800
_cell_angle_alpha   90.00000000
_cell_angle_beta   90.00000000
_cell_angle_gamma   119.99999144
_symmetry_Int_Tables_number   1
_chemical_formula_structural   MgAg2
_chemical_formula_sum   'Mg4 Ag8'
_cell_volume   240.43676720
_cell_formula_units_Z   4
loop_
 _symmetry_equiv_pos_site_id
 _symmetry_equiv_pos_as_xyz
  1  'x, y, z'
loop_
 _atom_site_type_symbol
 _atom_site_label
 _atom_site_symmetry_multiplicity
 _atom_site_fract_x
 _atom_site_fract_y
 _atom_site_fract_z
 _atom_site_occupancy
  Mg  Mg0  1  0.33333300  0.66666700  0.06107700  1
  Mg  Mg1  1  0.66666700  0.33333300  0.56107700  1
  Mg  Mg2  1  0.66666700  0.33333300  0.93892300  1
  Mg  Mg3  1  0.33333300  0.66666700  0.43892300  1
  Ag  Ag0  1  0.00000000  0.00000000  0.00000000  1
  Ag  Ag1  1  0.00000000  0.00000000  0.50000000  1
  Ag  Ag2  1  0.17131800  0.34263600  0.75000000  1
  Ag  Ag3  1  0.82868200  0.17131800  0.25000000  1
  Ag  Ag4  1  0.34263600  0.17131800  0.25000000  1
  Ag  Ag5  1  0.65736400  0.82868200  0.75000000  1
  Ag  Ag6  1  0.17131800  0.82868200  0.75000000  1
  Ag  Ag7  1  0.82868200  0.65736400  0.25000000  1
loop_
_geom_bond_atom_site_label_1
_geom_bond_atom_site_label_2
_geom_bond_distance
_geom_bond_site_symmetry_2
Mg0 Mg3 3.340589 1_555
Mg0 Mg2 3.410834 1_454
Mg0 Mg2 3.410834 1_564
Mg0 Mg2 3.410842 1_554
Mg1 Mg2 3.340589 1_555
Mg1 Mg3 3.410834 1_545
Mg1 Mg3 3.410834 1_655
Mg1 Mg3 3.410842 1_555
Ag0 Ag6 2.765921 1_544
Ag0 Ag3 2.765921 1_455
Ag0 Ag7 2.765921 1_445
Ag0 Ag4 2.765921 1_555
Ag0 Ag2 2.765921 1_554
Ag0 Ag5 2.765921 1_444
Ag0 Mg0 3.280094 1_545
Ag0 Mg2 3.280094 1_454
Ag0 Mg2 3.280099 1_444
Ag0 Mg0 3.280099 1_445
Ag0 Mg0 3.280099 1_555
Ag0 Mg2 3.280099 1_554
Ag1 Ag3 2.765921 1_455
Ag1 Ag6 2.765921 1_545
Ag1 Ag5 2.765921 1_445
Ag1 Ag2 2.765921 1_555
Ag1 Ag7 2.765921 1_445
Ag1 Ag4 2.765921 1_555
Ag1 Mg1 3.280094 1_455
Ag1 Mg3 3.280094 1_545
Ag1 Mg1 3.280099 1_555
Ag1 Mg1 3.280099 1_445
Ag1 Mg3 3.280099 1_445
Ag1 Mg3 3.280099 1_555
Ag2 Ag6 2.723695 1_555
Ag2 Ag5 2.723695 1_555
Ag2 Ag6 2.880085 1_545
Ag2 Ag5 2.880085 1_445
Ag2 Mg3 3.168099 1_555
Ag2 Mg0 3.168099 1_556
Ag2 Mg2 3.262283 1_455
Ag2 Mg1 3.262283 1_455
Ag2 Mg2 3.262288 1_555
Ag2 Mg1 3.262288 1_555
Ag3 Ag4 2.723695 1_555
Ag3 Ag7 2.723695 1_555
Ag3 Ag7 2.880085 1_545
Ag3 Ag4 2.880085 1_655
Ag3 Mg1 3.168097 1_555
Ag3 Mg2 3.168097 1_554
Ag3 Mg0 3.262286 1_545
Ag3 Mg3 3.262286 1_545
Ag3 Mg0 3.262286 1_655
Ag3 Mg3 3.262286 1_655
Ag4 Ag7 2.723695 1_555
Ag4 Ag7 2.880085 1_445
Ag4 Mg1 3.168099 1_555
Ag4 Mg2 3.168099 1_554
Ag4 Mg3 3.262283 1_545
Ag4 Mg0 3.262283 1_545
Ag4 Mg0 3.262288 1_555
Ag4 Mg3 3.262288 1_555
Ag5 Ag6 2.723695 1_555
Ag5 Ag6 2.880085 1_655
Ag5 Mg3 3.168099 1_555
Ag5 Mg0 3.168099 1_556
Ag5 Mg2 3.262283 1_565
Ag5 Mg1 3.262283 1_565
Ag5 Mg2 3.262288 1_555
Ag5 Mg1 3.262288 1_555
Ag6 Mg3 3.168097 1_555
Ag6 Mg0 3.168097 1_556
Ag6 Mg2 3.262286 1_455
Ag6 Mg1 3.262286 1_455
Ag6 Mg2 3.262286 1_565
Ag6 Mg1 3.262286 1_565
Ag7 Mg1 3.168099 1_555
Ag7 Mg2 3.168099 1_554
Ag7 Mg0 3.262283 1_655
Ag7 Mg3 3.262283 1_655
Ag7 Mg0 3.262288 1_555
Ag7 Mg3 3.262288 1_555
