# generated using pymatgen
data_KReN2
_symmetry_space_group_name_H-M   'P 1'
_cell_length_a   6.15906214
_cell_length_b   7.68345244
_cell_length_c   12.19698740
_cell_angle_alpha   90.00000000
_cell_angle_beta   90.00000000
_cell_angle_gamma   90.00000000
_symmetry_Int_Tables_number   1
_chemical_formula_structural   KReN2
_chemical_formula_sum   'K8 Re8 N16'
_cell_volume   577.19633969
_cell_formula_units_Z   8
loop_
 _symmetry_equiv_pos_site_id
 _symmetry_equiv_pos_as_xyz
  1  'x, y, z'
loop_
 _atom_site_type_symbol
 _atom_site_label
 _atom_site_symmetry_multiplicity
 _atom_site_fract_x
 _atom_site_fract_y
 _atom_site_fract_z
 _atom_site_occupancy
  K  K0  1  0.25000000  0.13748322  0.00000000  1
  K  K1  1  0.75000000  0.86251678  0.50000000  1
  K  K2  1  0.75000000  0.86251678  0.00000000  1
  K  K3  1  0.25000000  0.13748322  0.50000000  1
  K  K4  1  0.44386210  0.39457273  0.75000000  1
  K  K5  1  0.94386210  0.60542727  0.75000000  1
  K  K6  1  0.55613790  0.60542727  0.25000000  1
  K  K7  1  0.05613790  0.39457273  0.25000000  1
  Re  Re0  1  0.75000000  0.36405187  0.00000000  1
  Re  Re1  1  0.25000000  0.63594813  0.50000000  1
  Re  Re2  1  0.25000000  0.63594813  0.00000000  1
  Re  Re3  1  0.75000000  0.36405187  0.50000000  1
  Re  Re4  1  0.87788027  0.10725788  0.75000000  1
  Re  Re5  1  0.37788027  0.89274212  0.75000000  1
  Re  Re6  1  0.12211973  0.89274212  0.25000000  1
  Re  Re7  1  0.62211973  0.10725788  0.25000000  1
  N  N0  1  0.18565986  0.08548079  0.75000000  1
  N  N1  1  0.68565986  0.91451921  0.75000000  1
  N  N2  1  0.81434014  0.91451921  0.25000000  1
  N  N3  1  0.31434014  0.08548079  0.25000000  1
  N  N4  1  0.79980649  0.22584122  0.62396575  1
  N  N5  1  0.29980649  0.77415878  0.87603425  1
  N  N6  1  0.20019351  0.77415878  0.12396575  1
  N  N7  1  0.70019351  0.22584122  0.37603425  1
  N  N8  1  0.20019351  0.77415878  0.37603425  1
  N  N9  1  0.70019351  0.22584122  0.12396575  1
  N  N10  1  0.79980649  0.22584122  0.87603425  1
  N  N11  1  0.29980649  0.77415878  0.62396575  1
  N  N12  1  0.50000000  0.50000000  0.50000000  1
  N  N13  1  -0.00000000  0.50000000  0.00000000  1
  N  N14  1  0.50000000  0.50000000  0.00000000  1
  N  N15  1  -0.00000000  0.50000000  0.50000000  1
loop_
_geom_bond_atom_site_label_1
_geom_bond_atom_site_label_2
_geom_bond_distance
_geom_bond_site_symmetry_2
K0 N3 3.100740 1_555
K0 N0 3.100740 1_554
K0 N13 3.182644 1_555
K0 N14 3.182644 1_555
K0 N5 3.189549 1_544
K0 N6 3.189549 1_545
K0 N10 3.230375 1_454
K0 N9 3.230375 1_555
K1 N2 3.100740 1_555
K1 N1 3.100740 1_555
K1 N12 3.182644 1_555
K1 N15 3.182644 1_655
K1 N7 3.189549 1_565
K1 N4 3.189549 1_565
K1 N11 3.230375 1_555
K1 N8 3.230375 1_655
K2 N2 3.100740 1_555
K2 N1 3.100740 1_554
K2 N13 3.182644 1_655
K2 N14 3.182644 1_555
K2 N9 3.189549 1_565
K2 N10 3.189549 1_564
K2 N5 3.230375 1_554
K2 N6 3.230375 1_655
K3 N3 3.100740 1_555
K3 N0 3.100740 1_555
K3 N15 3.182644 1_555
K3 N12 3.182644 1_555
K3 N8 3.189549 1_545
K3 N11 3.189549 1_545
K3 N7 3.230375 1_555
K3 N4 3.230375 1_455
K4 N0 2.858167 1_555
K4 N10 2.974889 1_555
K4 N4 2.974889 1_555
K4 N14 3.173898 1_556
K4 N12 3.173898 1_555
K5 N1 2.858167 1_555
K5 N11 2.974889 1_655
K5 N5 2.974889 1_655
K5 N13 3.173898 1_656
K5 N15 3.173898 1_655
K6 N2 2.858167 1_555
K6 N8 2.974889 1_555
K6 N6 2.974889 1_555
K6 N12 3.173898 1_555
K6 N14 3.173898 1_555
K7 N3 2.858167 1_555
K7 N7 2.974889 1_455
K7 N9 2.974889 1_455
K7 N15 3.173898 1_555
K7 N13 3.173898 1_555
N0 Re5 1.895962 1_545
N0 Re4 1.903004 1_455
N1 Re4 1.895962 1_565
N1 Re5 1.903004 1_555
N2 Re7 1.895962 1_565
N2 Re6 1.903004 1_655
N3 Re6 1.895962 1_545
N3 Re7 1.903004 1_555
N4 Re4 1.850537 1_555
N4 Re3 1.872960 1_555
N5 Re5 1.850537 1_555
N5 Re2 1.872960 1_556
N6 Re6 1.850537 1_555
N6 Re2 1.872960 1_555
N7 Re7 1.850537 1_555
N7 Re3 1.872960 1_555
N8 Re6 1.850537 1_555
N8 Re1 1.872960 1_555
N9 Re7 1.850537 1_555
N9 Re0 1.872960 1_555
N10 Re4 1.850537 1_555
N10 Re0 1.872960 1_556
N11 Re5 1.850537 1_555
N11 Re1 1.872960 1_555
N12 Re1 1.860636 1_555
N12 Re3 1.860636 1_555
N13 Re2 1.860636 1_555
N13 Re0 1.860636 1_455
N14 Re2 1.860636 1_555
N14 Re0 1.860636 1_555
N15 Re1 1.860636 1_555
N15 Re3 1.860636 1_455
