# generated using pymatgen
data_ZrSc(NiSn)2
_symmetry_space_group_name_H-M   'P 1'
_cell_length_a   7.56589555
_cell_length_b   7.56589555
_cell_length_c   7.56589543
_cell_angle_alpha   33.50088446
_cell_angle_beta   33.50088446
_cell_angle_gamma   33.50088793
_symmetry_Int_Tables_number   1
_chemical_formula_structural   ZrSc(NiSn)2
_chemical_formula_sum   'Zr1 Sc1 Ni2 Sn2'
_cell_volume   117.51220065
_cell_formula_units_Z   1
loop_
 _symmetry_equiv_pos_site_id
 _symmetry_equiv_pos_as_xyz
  1  'x, y, z'
loop_
 _atom_site_type_symbol
 _atom_site_label
 _atom_site_symmetry_multiplicity
 _atom_site_fract_x
 _atom_site_fract_y
 _atom_site_fract_z
 _atom_site_occupancy
  Zr  Zr0  1  0.37419900  0.37419900  0.37419900  1
  Sc  Sc0  1  0.87564500  0.87564500  0.87564500  1
  Ni  Ni0  1  0.00070800  0.00070800  0.00070800  1
  Ni  Ni1  1  0.49922800  0.49922800  0.49922800  1
  Sn  Sn0  1  0.12536500  0.12536500  0.12536500  1
  Sn  Sn1  1  0.62485500  0.62485500  0.62485500  1
loop_
_geom_bond_atom_site_label_1
_geom_bond_atom_site_label_2
_geom_bond_distance
_geom_bond_site_symmetry_2
Sc0 Sn1 3.075868 1_556
Sc0 Sn1 3.075869 1_655
Sc0 Sn1 3.075869 1_565
Sc0 Sn0 3.089080 1_665
Sc0 Sn0 3.089080 1_656
Sc0 Sn0 3.089080 1_566
Ni0 Zr0 2.660516 1_554
Ni0 Zr0 2.660516 1_545
Ni0 Zr0 2.660516 1_455
Ni0 Sn0 2.668152 1_555
Ni0 Sc0 2.676842 1_444
Ni0 Sn1 2.677277 1_445
Ni0 Sn1 2.677277 1_544
Ni0 Sn1 2.677277 1_454
Ni1 Sn0 2.663099 1_556
Ni1 Sn0 2.663099 1_565
Ni1 Sn0 2.663099 1_655
Ni1 Zr0 2.676114 1_555
Ni1 Sc0 2.681404 1_554
Ni1 Sc0 2.681405 1_455
Ni1 Sc0 2.681405 1_545
Ni1 Sn1 2.688914 1_555
Sn0 Zr0 3.100105 1_554
Sn0 Zr0 3.100106 1_545
Sn0 Zr0 3.100106 1_455
Sn1 Zr0 3.077517 1_556
Sn1 Zr0 3.077517 1_565
Sn1 Zr0 3.077517 1_655
