# generated using pymatgen
data_NdCrGeO5
_symmetry_space_group_name_H-M   'P 1'
_cell_length_a   5.87993700
_cell_length_b   7.58483500
_cell_length_c   8.63670600
_cell_angle_alpha   90.00000000
_cell_angle_beta   90.00000000
_cell_angle_gamma   90.00000000
_symmetry_Int_Tables_number   1
_chemical_formula_structural   NdCrGeO5
_chemical_formula_sum   'Nd4 Cr4 Ge4 O20'
_cell_volume   385.18285392
_cell_formula_units_Z   4
loop_
 _symmetry_equiv_pos_site_id
 _symmetry_equiv_pos_as_xyz
  1  'x, y, z'
loop_
 _atom_site_type_symbol
 _atom_site_label
 _atom_site_symmetry_multiplicity
 _atom_site_fract_x
 _atom_site_fract_y
 _atom_site_fract_z
 _atom_site_occupancy
  Nd  Nd0  1  0.50000000  0.35863800  0.32582400  1
  Nd  Nd1  1  0.50000000  0.64136200  0.67417600  1
  Nd  Nd2  1  0.50000000  0.14136200  0.82582400  1
  Nd  Nd3  1  0.50000000  0.85863800  0.17417600  1
  Cr  Cr0  1  0.24658000  0.00000000  0.50000000  1
  Cr  Cr1  1  0.75342000  0.00000000  0.50000000  1
  Cr  Cr2  1  0.75342000  0.50000000  0.00000000  1
  Cr  Cr3  1  0.24658000  0.50000000  0.00000000  1
  Ge  Ge0  1  0.00000000  0.11565400  0.14305800  1
  Ge  Ge1  1  0.00000000  0.88434600  0.85694200  1
  Ge  Ge2  1  0.00000000  0.38434600  0.64305800  1
  Ge  Ge3  1  0.00000000  0.61565400  0.35694200  1
  O  O0  1  0.24286200  0.10478700  0.28206100  1
  O  O1  1  0.75713800  0.89521300  0.71793900  1
  O  O2  1  0.24286200  0.89521300  0.71793900  1
  O  O3  1  0.75713800  0.39521300  0.78206100  1
  O  O4  1  0.75713800  0.10478700  0.28206100  1
  O  O5  1  0.24286200  0.60478700  0.21793900  1
  O  O6  1  0.75713800  0.60478700  0.21793900  1
  O  O7  1  0.24286200  0.39521300  0.78206100  1
  O  O8  1  0.00000000  0.33805000  0.07629600  1
  O  O9  1  0.00000000  0.66195000  0.92370400  1
  O  O10  1  0.00000000  0.16195000  0.57629600  1
  O  O11  1  0.00000000  0.83805000  0.42370400  1
  O  O12  1  0.50000000  0.33550000  0.05231400  1
  O  O13  1  0.50000000  0.66450000  0.94768600  1
  O  O14  1  0.50000000  0.16450000  0.55231400  1
  O  O15  1  0.50000000  0.83550000  0.44768600  1
  O  O16  1  0.20701200  0.00000000  0.00000000  1
  O  O17  1  0.79298800  0.00000000  0.00000000  1
  O  O18  1  0.79298800  0.50000000  0.50000000  1
  O  O19  1  0.20701200  0.50000000  0.50000000  1
loop_
_geom_bond_atom_site_label_1
_geom_bond_atom_site_label_2
_geom_bond_distance
_geom_bond_site_symmetry_2
Nd0 O12 2.368736 1_555
Nd0 O14 2.448409 1_555
Nd0 O4 2.477116 1_555
Nd0 O0 2.477116 1_555
Nd0 O18 2.525953 1_555
Nd0 O19 2.525953 1_555
Nd0 O6 2.576799 1_555
Nd0 O5 2.576799 1_555
Nd1 O13 2.368736 1_555
Nd1 O15 2.448409 1_555
Nd1 O1 2.477116 1_555
Nd1 O2 2.477116 1_555
Nd1 O18 2.525953 1_555
Nd1 O19 2.525953 1_555
Nd1 O3 2.576799 1_555
Nd1 O7 2.576799 1_555
Nd2 O14 2.368736 1_555
Nd2 O12 2.448409 1_556
Nd2 O7 2.477116 1_555
Nd2 O3 2.477116 1_555
Nd2 O17 2.525953 1_556
Nd2 O16 2.525953 1_556
Nd2 O1 2.576799 1_545
Nd2 O2 2.576799 1_545
Nd3 O15 2.368736 1_555
Nd3 O13 2.448409 1_554
Nd3 O6 2.477116 1_555
Nd3 O5 2.477116 1_555
Nd3 O16 2.525953 1_565
Nd3 O17 2.525953 1_565
Nd3 O4 2.576799 1_565
Nd3 O0 2.576799 1_565
Cr0 O14 1.995317 1_555
Cr0 O15 1.995317 1_545
Cr0 O11 2.011275 1_545
Cr0 O10 2.011275 1_555
Cr0 O0 2.043314 1_555
Cr0 O2 2.043314 1_545
Cr1 O14 1.995317 1_555
Cr1 O15 1.995317 1_545
Cr1 O10 2.011275 1_655
Cr1 O11 2.011275 1_645
Cr1 O1 2.043314 1_545
Cr1 O4 2.043314 1_555
Cr2 O13 1.995317 1_554
Cr2 O12 1.995317 1_555
Cr2 O8 2.011275 1_655
Cr2 O9 2.011275 1_654
Cr2 O3 2.043314 1_554
Cr2 O6 2.043314 1_555
Cr3 O13 1.995317 1_554
Cr3 O12 1.995317 1_555
Cr3 O8 2.011275 1_555
Cr3 O9 2.011275 1_554
Cr3 O5 2.043314 1_555
Cr3 O7 2.043314 1_554
Ge0 O8 1.782664 1_555
Ge0 O0 1.867427 1_555
Ge0 O4 1.867427 1_455
Ge0 O16 1.943633 1_555
Ge0 O17 1.943633 1_455
Ge1 O9 1.782664 1_555
Ge1 O2 1.867427 1_555
Ge1 O1 1.867427 1_455
Ge1 O17 1.943633 1_466
Ge1 O16 1.943633 1_566
Ge2 O10 1.782664 1_555
Ge2 O7 1.867427 1_555
Ge2 O3 1.867427 1_455
Ge2 O19 1.943633 1_555
Ge2 O18 1.943633 1_455
Ge3 O11 1.782664 1_555
Ge3 O6 1.867427 1_455
Ge3 O5 1.867427 1_555
Ge3 O19 1.943633 1_555
Ge3 O18 1.943633 1_455
