# generated using pymatgen
data_Mg2Ti3MoS8
_symmetry_space_group_name_H-M   'P 1'
_cell_length_a   7.30481388
_cell_length_b   7.32125979
_cell_length_c   7.31669833
_cell_angle_alpha   60.21661757
_cell_angle_beta   60.08379130
_cell_angle_gamma   60.10227917
_symmetry_Int_Tables_number   1
_chemical_formula_structural   Mg2Ti3MoS8
_chemical_formula_sum   'Mg2 Ti3 Mo1 S8'
_cell_volume   277.53152801
_cell_formula_units_Z   1
loop_
 _symmetry_equiv_pos_site_id
 _symmetry_equiv_pos_as_xyz
  1  'x, y, z'
loop_
 _atom_site_type_symbol
 _atom_site_label
 _atom_site_symmetry_multiplicity
 _atom_site_fract_x
 _atom_site_fract_y
 _atom_site_fract_z
 _atom_site_occupancy
  Mg  Mg0  1  0.87511000  0.87598900  0.87443100  1
  Mg  Mg1  1  0.12489200  0.12401600  0.12556900  1
  Ti  Ti0  1  0.50000100  0.50002400  0.49997200  1
  Ti  Ti1  1  0.50000500  0.49999700  0.99999800  1
  Ti  Ti2  1  0.99999700  0.49998800  0.50001800  1
  Mo  Mo0  1  0.49999700  0.99998900  0.50000900  1
  S  S0  1  0.74177000  0.73850000  0.74143800  1
  S  S1  1  0.25845700  0.26154200  0.72154900  1
  S  S2  1  0.25949700  0.72159800  0.25957000  1
  S  S3  1  0.72193200  0.26154300  0.25841300  1
  S  S4  1  0.74048800  0.27840700  0.74041800  1
  S  S5  1  0.27806400  0.73844600  0.74159400  1
  S  S6  1  0.25823300  0.26149400  0.25857300  1
  S  S7  1  0.74156300  0.73846100  0.27844900  1
loop_
_geom_bond_atom_site_label_1
_geom_bond_atom_site_label_2
_geom_bond_distance
_geom_bond_site_symmetry_2
Mg0 S5 2.405548 1_655
Mg0 S0 2.409291 1_555
Mg0 S4 2.410854 1_565
Mg0 S7 2.418621 1_556
Mg1 S3 2.405582 1_455
Mg1 S6 2.409296 1_555
Mg1 S2 2.410853 1_545
Mg1 S1 2.418633 1_554
Mo0 S7 2.503970 1_555
Mo0 S1 2.504006 1_565
Mo0 S6 2.507226 1_565
Mo0 S0 2.507228 1_555
Mo0 S5 2.508598 1_555
Mo0 S3 2.508667 1_565
S0 Ti2 2.486888 1_555
S0 Ti1 2.491353 1_555
S1 Ti2 2.488979 1_455
S1 Ti0 2.489146 1_555
S2 Ti1 2.493413 1_554
S2 Ti0 2.493688 1_555
S2 Ti2 2.494932 1_455
S3 Ti0 2.487217 1_555
S3 Ti1 2.491496 1_554
S4 Ti1 2.493401 1_555
S4 Ti0 2.493817 1_555
S4 Ti2 2.494835 1_555
S5 Ti0 2.487237 1_555
S5 Ti1 2.491506 1_555
S6 Ti2 2.486927 1_455
S6 Ti1 2.491394 1_554
S7 Ti0 2.489022 1_555
S7 Ti2 2.489029 1_555
