# generated using pymatgen
data_MgAg20(BiO4)4
_symmetry_space_group_name_H-M   'P 1'
_cell_length_a   6.00147783
_cell_length_b   9.13661109
_cell_length_c   13.54087827
_cell_angle_alpha   84.65396580
_cell_angle_beta   95.25777290
_cell_angle_gamma   94.15438070
_symmetry_Int_Tables_number   1
_chemical_formula_structural   MgAg20(BiO4)4
_chemical_formula_sum   'Mg1 Ag20 Bi4 O16'
_cell_volume   734.61831033
_cell_formula_units_Z   1
loop_
 _symmetry_equiv_pos_site_id
 _symmetry_equiv_pos_as_xyz
  1  'x, y, z'
loop_
 _atom_site_type_symbol
 _atom_site_label
 _atom_site_symmetry_multiplicity
 _atom_site_fract_x
 _atom_site_fract_y
 _atom_site_fract_z
 _atom_site_occupancy
  Mg  Mg0  1  0.88219153  0.26089102  0.19025663  1
  Ag  Ag0  1  0.17757975  0.69981902  0.13209219  1
  Ag  Ag1  1  0.73042191  0.78186219  0.62820066  1
  Ag  Ag2  1  0.06334960  0.45942661  0.99037989  1
  Ag  Ag3  1  0.48522742  0.02278028  0.50121389  1
  Ag  Ag4  1  0.01038231  0.14454821  0.65209862  1
  Ag  Ag5  1  0.50076431  0.62564967  0.84145596  1
  Ag  Ag6  1  0.97135279  0.89798774  0.36559043  1
  Ag  Ag7  1  0.47075823  0.37467532  0.19532547  1
  Ag  Ag8  1  0.56662502  0.99681528  0.24294925  1
  Ag  Ag9  1  0.87222772  0.52176308  0.27397962  1
  Ag  Ag10  1  0.48280344  0.00439805  0.75069282  1
  Ag  Ag11  1  0.04929571  0.49648460  0.74450418  1
  Ag  Ag12  1  0.55689054  0.98784304  0.98380669  1
  Ag  Ag13  1  0.97742155  0.52088217  0.50878073  1
  Ag  Ag14  1  0.29176555  0.25074334  0.86239995  1
  Ag  Ag15  1  0.22880545  0.77620106  0.62677740  1
  Ag  Ag16  1  0.68898454  0.73763815  0.12789852  1
  Ag  Ag17  1  0.70912239  0.26373910  0.38473037  1
  Ag  Ag18  1  0.78364584  0.25081736  0.86336895  1
  Ag  Ag19  1  0.21114705  0.26439254  0.38746473  1
  Bi  Bi0  1  0.51558933  0.39033259  0.62149900  1
  Bi  Bi1  1  0.00646986  0.84305393  0.86298467  1
  Bi  Bi2  1  0.44573229  0.65865386  0.39220101  1
  Bi  Bi3  1  0.10775460  0.05471496  0.08265497  1
  O  O0  1  0.14476044  0.29818031  0.10874407  1
  O  O1  1  0.40523670  0.89932278  0.37487961  1
  O  O2  1  0.95624559  0.60561690  0.86700238  1
  O  O3  1  0.57478439  0.14901346  0.62652070  1
  O  O4  1  0.00721626  0.90442659  0.69348329  1
  O  O5  1  0.53541085  0.39859061  0.79964651  1
  O  O6  1  0.04069221  0.10297292  0.92331038  1
  O  O7  1  0.46000875  0.64987750  0.56825546  1
  O  O8  1  0.95008053  0.82606440  0.03592492  1
  O  O9  1  0.47684732  0.39185275  0.45566614  1
  O  O10  1  0.76136374  0.09004854  0.10797062  1
  O  O11  1  0.81131681  0.67641539  0.40123781  1
  O  O12  1  0.37605487  0.84487523  0.87368108  1
  O  O13  1  0.14777234  0.37429685  0.62458638  1
  O  O14  1  0.95789976  0.13374485  0.31524836  1
  O  O15  1  0.45175070  0.63287369  0.22407769  1
loop_
_geom_bond_atom_site_label_1
_geom_bond_atom_site_label_2
_geom_bond_distance
_geom_bond_site_symmetry_2
Mg0 O0 1.997098 1_655
Mg0 O14 1.997415 1_555
Mg0 O10 2.053246 1_555
Ag0 O15 2.064275 1_555
Ag0 O8 2.124319 1_455
Ag1 O7 2.098620 1_555
Ag1 O4 2.107307 1_655
Ag2 O0 2.121029 1_556
Ag2 O2 2.121328 1_455
Ag3 O1 2.135374 1_545
Ag3 O3 2.146112 1_555
Ag4 O13 2.210154 1_555
Ag4 O4 2.212329 1_545
Ag4 O3 2.608199 1_455
Ag5 O5 2.229447 1_555
Ag5 O12 2.280881 1_555
Ag5 O2 2.740968 1_555
Ag6 O14 2.202840 1_565
Ag6 O11 2.207919 1_555
Ag6 O1 2.594639 1_655
Ag7 O0 2.285808 1_555
Ag7 O15 2.438857 1_555
Ag8 O1 2.195124 1_555
Ag8 O10 2.321476 1_565
Ag8 O14 2.723789 1_565
Ag9 O11 2.396575 1_555
Ag10 O3 2.127934 1_555
Ag10 O12 2.217236 1_545
Ag11 O2 2.148509 1_455
Ag11 O13 2.200357 1_555
Ag12 O10 2.225537 1_566
Ag12 O12 2.229066 1_555
Ag13 O11 2.165020 1_555
Ag13 O13 2.193424 1_655
Ag14 O5 2.100605 1_555
Ag14 O6 2.121104 1_555
Ag15 O7 2.118815 1_555
Ag15 O4 2.144761 1_555
Ag16 O15 2.132954 1_555
Ag16 O8 2.155427 1_555
Ag17 O9 2.219750 1_555
Ag17 O14 2.290761 1_555
Ag18 O5 2.150723 1_555
Ag18 O6 2.175173 1_655
Ag19 O14 2.091252 1_455
Ag19 O9 2.100771 1_555
Bi0 O13 2.205661 1_555
Bi0 O9 2.235082 1_555
Bi0 O3 2.252392 1_555
Bi0 O5 2.412246 1_555
Bi0 O7 2.450787 1_555
Bi1 O2 2.164775 1_455
Bi1 O12 2.208450 1_555
Bi1 O4 2.311726 1_555
Bi1 O8 2.385869 1_456
Bi1 O6 2.570814 1_565
Bi2 O11 2.181298 1_555
Bi2 O1 2.218132 1_555
Bi2 O15 2.314224 1_555
Bi2 O7 2.371675 1_555
Bi2 O9 2.522252 1_555
Bi3 O6 2.168223 1_554
Bi3 O10 2.189027 1_455
Bi3 O0 2.276569 1_555
Bi3 O8 2.347403 1_445
