# generated using pymatgen
data_Na9Sm(GeSe3)4
_symmetry_space_group_name_H-M   'P 1'
_cell_length_a   9.47904139
_cell_length_b   9.47904139
_cell_length_c   8.01290084
_cell_angle_alpha   78.48106421
_cell_angle_beta   78.48106421
_cell_angle_gamma   81.94710807
_symmetry_Int_Tables_number   1
_chemical_formula_structural   Na9Sm(GeSe3)4
_chemical_formula_sum   'Na9 Sm1 Ge4 Se12'
_cell_volume   687.49108978
_cell_formula_units_Z   1
loop_
 _symmetry_equiv_pos_site_id
 _symmetry_equiv_pos_as_xyz
  1  'x, y, z'
loop_
 _atom_site_type_symbol
 _atom_site_label
 _atom_site_symmetry_multiplicity
 _atom_site_fract_x
 _atom_site_fract_y
 _atom_site_fract_z
 _atom_site_occupancy
  Na  Na0  1  0.65384600  0.84819300  0.74757600  1
  Na  Na1  1  0.15180700  0.34615400  0.25242400  1
  Na  Na2  1  0.34313700  0.15054900  0.75248100  1
  Na  Na3  1  0.84945100  0.65686300  0.24751900  1
  Na  Na4  1  0.00333900  0.50164400  0.74693800  1
  Na  Na5  1  0.49835600  0.99666100  0.25306200  1
  Na  Na6  1  0.07258000  0.92742000  0.50000000  1
  Na  Na7  1  0.93200900  0.06799100  0.00000000  1
  Na  Na8  1  0.42537600  0.57462400  0.50000000  1
  Sm  Sm0  1  0.57202800  0.42797200  0.00000000  1
  Ge  Ge0  1  0.27381400  0.77989700  0.13319000  1
  Ge  Ge1  1  0.78391400  0.27884100  0.63034200  1
  Ge  Ge2  1  0.22010300  0.72618600  0.86681000  1
  Ge  Ge3  1  0.72115900  0.21608600  0.36965800  1
  Se  Se0  1  0.13821500  0.63452000  0.37041000  1
  Se  Se1  1  0.63315800  0.14710500  0.87364800  1
  Se  Se2  1  0.36548000  0.86178500  0.62959000  1
  Se  Se3  1  0.85289500  0.36684200  0.12635200  1
  Se  Se4  1  0.53549200  0.70947000  0.11682200  1
  Se  Se5  1  0.03454800  0.21886300  0.62398500  1
  Se  Se6  1  0.22223200  0.03424800  0.12406500  1
  Se  Se7  1  0.71212200  0.53247900  0.63796100  1
  Se  Se8  1  0.96575200  0.77776800  0.87593500  1
  Se  Se9  1  0.46752100  0.28787800  0.36203900  1
  Se  Se10  1  0.29053000  0.46450800  0.88317800  1
  Se  Se11  1  0.78113700  0.96545200  0.37601500  1
loop_
_geom_bond_atom_site_label_1
_geom_bond_atom_site_label_2
_geom_bond_distance
_geom_bond_site_symmetry_2
Na0 Se11 3.029005 1_555
Na0 Se2 3.044147 1_555
Na0 Se4 3.045590 1_556
Na0 Se1 3.161563 1_565
Na0 Se7 3.228858 1_555
Na0 Se8 3.260691 1_555
Na1 Se5 3.029005 1_555
Na1 Se0 3.044147 1_555
Na1 Se10 3.045590 1_554
Na1 Se3 3.161563 1_455
Na1 Se9 3.228858 1_555
Na1 Se6 3.260691 1_555
Na2 Se6 3.012357 1_556
Na2 Se2 3.055746 1_545
Na2 Se1 3.087001 1_555
Na2 Se9 3.194201 1_555
Na2 Se5 3.231362 1_555
Na2 Se10 3.289768 1_555
Na3 Se8 3.012357 1_554
Na3 Se0 3.055746 1_655
Na3 Se3 3.087001 1_555
Na3 Se7 3.194201 1_555
Na3 Se11 3.231362 1_555
Na3 Se4 3.289768 1_555
Na4 Se8 2.952666 1_455
Na4 Se5 2.993215 1_555
Na4 Se7 3.017084 1_455
Na4 Se10 3.080831 1_555
Na4 Se0 3.117158 1_555
Na4 Se3 3.183829 1_456
Na5 Se6 2.952666 1_565
Na5 Se11 2.993215 1_555
Na5 Se9 3.017084 1_565
Na5 Se4 3.080831 1_555
Na5 Se2 3.117158 1_555
Na5 Se1 3.183829 1_564
Na6 Se11 3.069689 1_455
Na6 Se5 3.069689 1_565
Na6 Se2 3.095681 1_555
Na6 Se0 3.095681 1_555
Na6 Se8 3.096678 1_455
Na6 Se6 3.096678 1_565
Na7 Se8 3.062273 1_544
Na7 Se6 3.062273 1_655
Na7 Se5 3.093042 1_654
Na7 Se11 3.093042 1_545
Na7 Se1 3.139958 1_554
Na7 Se3 3.139958 1_555
Na8 Se0 3.044727 1_555
Na8 Se2 3.044727 1_555
Na8 Se9 3.080428 1_555
Na8 Se7 3.080428 1_555
Na8 Se4 3.110775 1_555
Na8 Se10 3.110775 1_555
Ge0 Se0 2.374564 1_555
Ge0 Se6 2.381374 1_565
Ge0 Se4 2.461022 1_555
Ge1 Se5 2.356886 1_655
Ge1 Se1 2.411907 1_555
Ge1 Se7 2.414716 1_555
Ge2 Se2 2.374564 1_555
Ge2 Se8 2.381374 1_455
Ge2 Se10 2.461022 1_555
Ge3 Se11 2.356886 1_545
Ge3 Se3 2.411907 1_555
Ge3 Se9 2.414716 1_555
Se1 Sm0 2.976394 1_556
Se3 Sm0 2.976394 1_555
Se4 Sm0 2.953873 1_555
Se7 Sm0 2.973678 1_556
Se9 Sm0 2.973678 1_555
Se10 Sm0 2.953873 1_556
