# generated using pymatgen
data_Ca2Tl2O5
_symmetry_space_group_name_H-M   'P 1'
_cell_length_a   5.87578009
_cell_length_b   5.87578009
_cell_length_c   13.46200359
_cell_angle_alpha   90.00000000
_cell_angle_beta   90.00000000
_cell_angle_gamma   146.66886595
_symmetry_Int_Tables_number   1
_chemical_formula_structural   Ca2Tl2O5
_chemical_formula_sum   'Ca4 Tl4 O10'
_cell_volume   255.38195857
_cell_formula_units_Z   2
loop_
 _symmetry_equiv_pos_site_id
 _symmetry_equiv_pos_as_xyz
  1  'x, y, z'
loop_
 _atom_site_type_symbol
 _atom_site_label
 _atom_site_symmetry_multiplicity
 _atom_site_fract_x
 _atom_site_fract_y
 _atom_site_fract_z
 _atom_site_occupancy
  Ca  Ca0  1  0.97075659  0.02924341  0.26066036  1
  Ca  Ca1  1  0.02924341  0.97075659  0.76066036  1
  Ca  Ca2  1  0.21690223  0.78309777  0.11205095  1
  Ca  Ca3  1  0.78309777  0.21690223  0.61205095  1
  Tl  Tl0  1  0.48905309  0.51094691  0.00371494  1
  Tl  Tl1  1  0.51094691  0.48905309  0.50371494  1
  Tl  Tl2  1  0.76160761  0.23839239  0.88646935  1
  Tl  Tl3  1  0.23839239  0.76160761  0.38646935  1
  O  O0  1  0.32916205  0.67083795  0.25067749  1
  O  O1  1  0.67083795  0.32916205  0.75067749  1
  O  O2  1  0.59040526  0.40959474  0.35776484  1
  O  O3  1  0.42837481  0.57162519  0.64555393  1
  O  O4  1  0.57162519  0.42837481  0.14555393  1
  O  O5  1  0.40959474  0.59040526  0.85776484  1
  O  O6  1  0.87468933  0.12531067  0.44528321  1
  O  O7  1  0.16076418  0.83923582  0.53782492  1
  O  O8  1  0.83923582  0.16076418  0.03782492  1
  O  O9  1  0.12531067  0.87468933  0.94528321  1
loop_
_geom_bond_atom_site_label_1
_geom_bond_atom_site_label_2
_geom_bond_distance
_geom_bond_site_symmetry_2
Ca0 O0 2.323490 1_545
Ca0 O0 2.323490 1_655
Ca0 O2 2.522447 1_545
Ca0 O2 2.522447 1_655
Ca0 O4 2.555422 1_655
Ca0 O4 2.555422 1_545
Ca0 O6 2.710510 1_555
Ca1 O1 2.323490 1_565
Ca1 O1 2.323490 1_455
Ca1 O5 2.522447 1_455
Ca1 O5 2.522447 1_565
Ca1 O3 2.555422 1_455
Ca1 O3 2.555422 1_565
Ca1 O9 2.710510 1_555
Ca2 O0 2.253862 1_555
Ca2 O4 2.391203 1_455
Ca2 O4 2.391203 1_565
Ca2 O8 2.394727 1_565
Ca2 O8 2.394727 1_455
Ca2 O9 2.470503 1_554
Ca3 O1 2.253862 1_555
Ca3 O3 2.391203 1_545
Ca3 O3 2.391203 1_655
Ca3 O7 2.394727 1_545
Ca3 O7 2.394727 1_655
Ca3 O6 2.470503 1_555
O0 Tl3 2.094262 1_555
O1 Tl2 2.094262 1_555
O2 Tl1 2.158833 1_555
O2 Tl3 2.400934 1_545
O2 Tl3 2.400934 1_655
O3 Tl1 2.123697 1_555
O4 Tl0 2.123697 1_555
O5 Tl0 2.158833 1_556
O5 Tl2 2.400934 1_455
O5 Tl2 2.400934 1_565
O6 Tl1 2.410675 1_655
O6 Tl1 2.410675 1_545
O6 Tl3 2.412640 1_545
O6 Tl3 2.412640 1_655
O7 Tl3 2.217063 1_555
O7 Tl1 2.427982 1_565
O7 Tl1 2.427982 1_455
O8 Tl2 2.217063 1_554
O8 Tl0 2.427982 1_655
O8 Tl0 2.427982 1_545
O9 Tl0 2.410675 1_456
O9 Tl0 2.410675 1_566
O9 Tl2 2.412640 1_455
O9 Tl2 2.412640 1_565
