# generated using pymatgen
data_Li10Cr(SiO5)2
_symmetry_space_group_name_H-M   'P 1'
_cell_length_a   6.08658102
_cell_length_b   15.32748894
_cell_length_c   5.15319026
_cell_angle_alpha   80.02342198
_cell_angle_beta   90.15387087
_cell_angle_gamma   78.67674438
_symmetry_Int_Tables_number   1
_chemical_formula_structural   Li10Cr(SiO5)2
_chemical_formula_sum   'Li20 Cr2 Si4 O20'
_cell_volume   463.93013150
_cell_formula_units_Z   2
loop_
 _symmetry_equiv_pos_site_id
 _symmetry_equiv_pos_as_xyz
  1  'x, y, z'
loop_
 _atom_site_type_symbol
 _atom_site_label
 _atom_site_symmetry_multiplicity
 _atom_site_fract_x
 _atom_site_fract_y
 _atom_site_fract_z
 _atom_site_occupancy
  Li  Li0  1  0.51059700  0.98372600  0.75593100  1
  Li  Li1  1  0.35783600  0.86679500  0.23618000  1
  Li  Li2  1  0.77899400  0.86495800  0.23630000  1
  Li  Li3  1  0.12914700  0.73634400  0.48084500  1
  Li  Li4  1  0.34504700  0.73694000  0.02585400  1
  Li  Li5  1  0.91449200  0.73621200  0.02429500  1
  Li  Li6  1  0.67486000  0.64878300  0.41966700  1
  Li  Li7  1  0.43761100  0.61092600  0.78731100  1
  Li  Li8  1  0.95278000  0.61032300  0.78715400  1
  Li  Li9  1  0.73096700  0.53982700  0.13435800  1
  Li  Li10  1  0.26873100  0.46023000  0.86404700  1
  Li  Li11  1  0.56289900  0.38981600  0.20993900  1
  Li  Li12  1  0.04677900  0.38899800  0.21208700  1
  Li  Li13  1  0.33009200  0.35088300  0.57963200  1
  Li  Li14  1  0.08133000  0.26323800  0.97094000  1
  Li  Li15  1  0.64883800  0.26233800  0.97637300  1
  Li  Li16  1  0.86483000  0.26227800  0.52033900  1
  Li  Li17  1  0.64280600  0.13200600  0.76845500  1
  Li  Li18  1  0.22158200  0.12966600  0.77070000  1
  Li  Li19  1  0.49352500  0.01715500  0.24025300  1
  Cr  Cr0  1  0.04091600  0.93009200  0.87959900  1
  Cr  Cr1  1  0.96008500  0.07693900  0.14269400  1
  Si  Si0  1  0.59955700  0.80000000  0.69289100  1
  Si  Si1  1  0.21926900  0.56148900  0.30793800  1
  Si  Si2  1  0.78048500  0.43828000  0.69030500  1
  Si  Si3  1  0.39577000  0.20002500  0.30813200  1
  O  O0  1  0.55258400  0.90005400  0.49818100  1
  O  O1  1  0.08906300  0.81387900  0.13339400  1
  O  O2  1  0.59450700  0.80954600  0.00896800  1
  O  O3  1  0.40748400  0.74312300  0.63497000  1
  O  O4  1  0.84559900  0.74118600  0.63640300  1
  O  O5  1  0.96729800  0.61234800  0.16883100  1
  O  O6  1  0.42041100  0.61244400  0.16941300  1
  O  O7  1  0.21441000  0.57195600  0.61973500  1
  O  O8  1  0.72697400  0.54470400  0.73585500  1
  O  O9  1  0.27239100  0.45501200  0.26321600  1
  O  O10  1  0.78503800  0.42826600  0.37820700  1
  O  O11  1  0.03219800  0.38721700  0.82978600  1
  O  O12  1  0.58031500  0.38675100  0.82893900  1
  O  O13  1  0.14563200  0.25625900  0.36223700  1
  O  O14  1  0.58339000  0.25913800  0.36590200  1
  O  O15  1  0.40137000  0.19095000  0.99174900  1
  O  O16  1  0.90216800  0.18377100  0.86817600  1
  O  O17  1  0.44744100  0.09990800  0.50157700  1
  O  O18  1  0.25238800  0.00154400  0.99455400  1
  O  O19  1  0.76392200  0.00289400  0.99874700  1
loop_
_geom_bond_atom_site_label_1
_geom_bond_atom_site_label_2
_geom_bond_distance
_geom_bond_site_symmetry_2
Li0 O0 1.984344 1_555
Li0 O17 1.989144 1_565
Li0 O18 2.003703 1_565
Li0 O19 2.079499 1_565
Li1 O0 1.988713 1_555
Li1 O2 2.021058 1_555
Li1 O1 2.068773 1_555
Li1 O18 2.193660 1_564
Li1 O3 2.515891 1_555
Li2 O0 1.995010 1_555
Li2 O1 2.006221 1_655
Li2 O2 2.016636 1_555
Li2 O19 2.236815 1_564
Li2 O4 2.520445 1_555
Li3 O3 1.897931 1_555
Li3 O4 1.898517 1_455
Li3 O1 1.955556 1_555
Li3 O7 2.447430 1_555
Li4 O6 1.887932 1_555
Li4 O1 1.906552 1_555
Li4 O3 2.040323 1_554
Li4 O2 2.045031 1_555
Li5 O5 1.879253 1_555
Li5 O1 1.894100 1_655
Li5 O4 2.026650 1_554
Li5 O2 2.042456 1_555
Li6 O8 2.048964 1_555
Li6 O6 2.224581 1_555
Li6 O5 2.241217 1_555
Li6 O4 2.335200 1_555
Li6 O3 2.368932 1_555
Li7 O7 1.854504 1_555
Li7 O8 1.896383 1_555
Li7 O6 1.976022 1_556
Li7 O3 2.014388 1_555
Li8 O7 1.855108 1_655
Li8 O8 1.898262 1_555
Li8 O5 1.974483 1_556
Li8 O4 1.998962 1_555
Li9 O10 1.908812 1_555
Li9 O5 2.007783 1_555
Li9 O6 2.022315 1_555
Li9 O8 2.041843 1_554
Li10 O7 1.911895 1_555
Li10 O11 2.013955 1_555
Li10 O12 2.032610 1_555
Li10 O9 2.044546 1_556
Li11 O10 1.846883 1_555
Li11 O9 1.898499 1_555
Li11 O12 1.974682 1_554
Li11 O14 2.004234 1_555
Li12 O10 1.855367 1_455
Li12 O9 1.901305 1_555
Li12 O11 1.976978 1_554
Li12 O13 2.017785 1_555
Li13 O9 2.050480 1_555
Li13 O12 2.198935 1_555
Li13 O11 2.263674 1_555
Li13 O14 2.293869 1_555
Li13 O13 2.411371 1_555
Li14 O11 1.877860 1_555
Li14 O16 1.922281 1_455
Li14 O13 2.033515 1_556
Li14 O15 2.035638 1_555
Li15 O12 1.889861 1_555
Li15 O16 1.909623 1_555
Li15 O15 2.022397 1_555
Li15 O14 2.041634 1_556
Li16 O13 1.888122 1_655
Li16 O14 1.899579 1_555
Li16 O16 1.963578 1_555
Li16 O10 2.472324 1_555
Li17 O17 2.000694 1_555
Li17 O16 2.003606 1_555
Li17 O15 2.036597 1_555
Li17 O19 2.115837 1_555
Li17 O14 2.559255 1_555
Li18 O17 2.001097 1_555
Li18 O15 2.035947 1_555
Li18 O16 2.058200 1_455
Li18 O18 2.071629 1_555
Li18 O13 2.576162 1_555
Li19 O17 1.988752 1_555
Li19 O0 2.008698 1_545
Li19 O18 2.011812 1_554
Li19 O19 2.066217 1_554
Cr0 O1 1.988716 1_556
Cr0 O19 1.992175 1_465
Cr0 O18 1.995325 1_565
Cr1 O16 1.942886 1_554
Cr1 O19 2.020619 1_554
Cr1 O18 2.142221 1_654
O0 Si0 1.653325 1_555
O2 Si0 1.660252 1_554
O3 Si0 1.644480 1_555
O4 Si0 1.644138 1_555
O5 Si1 1.674696 1_655
O6 Si1 1.674927 1_555
O7 Si1 1.641940 1_555
O8 Si2 1.657251 1_555
O9 Si1 1.656704 1_555
O10 Si2 1.641664 1_555
O11 Si2 1.674734 1_455
O12 Si2 1.674991 1_555
O13 Si3 1.645858 1_555
O14 Si3 1.646688 1_555
O15 Si3 1.660021 1_556
O17 Si3 1.651127 1_555
