# generated using pymatgen
data_Ca8TiMn7O23
_symmetry_space_group_name_H-M   'P 1'
_cell_length_a   10.89328610
_cell_length_b   15.31942350
_cell_length_c   10.75283597
_cell_angle_alpha   90.03528531
_cell_angle_beta   90.24739828
_cell_angle_gamma   90.06927039
_symmetry_Int_Tables_number   1
_chemical_formula_structural   Ca8TiMn7O23
_chemical_formula_sum   'Ca32 Ti4 Mn28 O92'
_cell_volume   1794.40265559
_cell_formula_units_Z   4
loop_
 _symmetry_equiv_pos_site_id
 _symmetry_equiv_pos_as_xyz
  1  'x, y, z'
loop_
 _atom_site_type_symbol
 _atom_site_label
 _atom_site_symmetry_multiplicity
 _atom_site_fract_x
 _atom_site_fract_y
 _atom_site_fract_z
 _atom_site_occupancy
  Ca  Ca0  1  0.01929155  0.11813790  0.50662701  1
  Ca  Ca1  1  0.01247236  0.11870560  0.99445790  1
  Ca  Ca2  1  0.02022679  0.62565847  0.49754835  1
  Ca  Ca3  1  0.02173188  0.62573429  0.99420352  1
  Ca  Ca4  1  0.52639739  0.12929643  0.50448632  1
  Ca  Ca5  1  0.53553734  0.12234828  0.97334797  1
  Ca  Ca6  1  0.52582682  0.62508020  0.49859726  1
  Ca  Ca7  1  0.52209954  0.62467768  0.99394465  1
  Ca  Ca8  1  0.49287460  0.38455400  0.99610202  1
  Ca  Ca9  1  0.47873609  0.38468387  0.50857453  1
  Ca  Ca10  1  0.48799925  0.86738705  0.99529705  1
  Ca  Ca11  1  0.48138474  0.86477380  0.51487228  1
  Ca  Ca12  1  0.96751881  0.38463985  0.99908296  1
  Ca  Ca13  1  0.97576935  0.38017016  0.50731768  1
  Ca  Ca14  1  0.97409874  0.87185129  0.00401680  1
  Ca  Ca15  1  0.97252234  0.87274042  0.50801903  1
  Ca  Ca16  1  0.23031691  0.38997625  0.25394426  1
  Ca  Ca17  1  0.22502045  0.37895782  0.72968242  1
  Ca  Ca18  1  0.22804322  0.87035744  0.24561695  1
  Ca  Ca19  1  0.22804117  0.87038884  0.74443376  1
  Ca  Ca20  1  0.73059631  0.38459229  0.24495600  1
  Ca  Ca21  1  0.72776607  0.38027136  0.74809625  1
  Ca  Ca22  1  0.73215328  0.86644380  0.24604271  1
  Ca  Ca23  1  0.72760276  0.87158911  0.74580295  1
  Ca  Ca24  1  0.24144807  0.11970421  0.26412639  1
  Ca  Ca25  1  0.27092100  0.11796361  0.73206783  1
  Ca  Ca26  1  0.27390235  0.62658607  0.25634483  1
  Ca  Ca27  1  0.27115757  0.62426961  0.75574929  1
  Ca  Ca28  1  0.77422699  0.11757592  0.25213033  1
  Ca  Ca29  1  0.77518848  0.12365767  0.75662004  1
  Ca  Ca30  1  0.77171752  0.62501417  0.25588526  1
  Ca  Ca31  1  0.77207420  0.62590640  0.75408629  1
  Ti  Ti0  1  0.99694402  0.99358463  0.25087380  1
  Ti  Ti1  1  0.25144193  0.99548586  0.99549277  1
  Ti  Ti2  1  0.25772843  0.24522985  0.96362958  1
  Ti  Ti3  1  0.98598438  0.25094639  0.26919880  1
  Mn  Mn0  1  0.99530586  0.99760352  0.75181953  1
  Mn  Mn1  1  -0.00002083  0.50257727  0.24942939  1
  Mn  Mn2  1  0.00099294  0.50077355  0.75012541  1
  Mn  Mn3  1  0.50742698  0.98696211  0.24260853  1
  Mn  Mn4  1  0.50174535  0.99885322  0.74744703  1
  Mn  Mn5  1  0.49942840  0.50383097  0.25161238  1
  Mn  Mn6  1  0.50006420  0.50146448  0.75034190  1
  Mn  Mn7  1  0.24215009  0.99336077  0.50497259  1
  Mn  Mn8  1  0.24976625  0.50173380  0.00393955  1
  Mn  Mn9  1  0.25063542  0.50319425  0.50039995  1
  Mn  Mn10  1  0.74959556  0.99819561  0.99657956  1
  Mn  Mn11  1  0.74634997  0.00065454  0.50196591  1
  Mn  Mn12  1  0.74891210  0.50315031  0.00082375  1
  Mn  Mn13  1  0.75103460  0.50043600  0.50032102  1
  Mn  Mn14  1  0.25181143  0.25087175  0.49284626  1
  Mn  Mn15  1  0.25053410  0.74788229  0.00209185  1
  Mn  Mn16  1  0.25035263  0.74898121  0.50004519  1
  Mn  Mn17  1  0.75084564  0.25025950  0.99872106  1
  Mn  Mn18  1  0.74902541  0.25019351  0.50594562  1
  Mn  Mn19  1  0.75017718  0.74888186  0.00052866  1
  Mn  Mn20  1  0.75070867  0.74914994  0.49999086  1
  Mn  Mn21  1  0.99515960  0.25118523  0.74402416  1
  Mn  Mn22  1  0.00071168  0.74737691  0.25040066  1
  Mn  Mn23  1  0.00079871  0.74966747  0.75060751  1
  Mn  Mn24  1  0.51889325  0.25627558  0.26056771  1
  Mn  Mn25  1  0.50521040  0.25057008  0.74273107  1
  Mn  Mn26  1  0.49952441  0.74788323  0.25180508  1
  Mn  Mn27  1  0.50003309  0.74767241  0.75122303  1
  O  O0  1  0.09836823  0.26640329  0.59886434  1
  O  O1  1  0.10600448  0.77194537  0.10491233  1
  O  O2  1  0.10615415  0.77257184  0.60319532  1
  O  O3  1  0.58937012  0.25944626  0.10054503  1
  O  O4  1  0.59804101  0.26953886  0.59360619  1
  O  O5  1  0.60730396  0.77214697  0.10886972  1
  O  O6  1  0.60787902  0.76570780  0.60661613  1
  O  O7  1  0.39954315  0.21043198  0.36225456  1
  O  O8  1  0.40561446  0.23108788  0.89067682  1
  O  O9  1  0.39623085  0.72633659  0.39751462  1
  O  O10  1  0.39688736  0.73068229  0.89803859  1
  O  O11  1  0.89743760  0.22968768  0.40682610  1
  O  O12  1  0.90064763  0.23420453  0.90382430  1
  O  O13  1  0.89683550  0.72992624  0.39559050  1
  O  O14  1  0.89579109  0.73006814  0.89619570  1
  O  O15  1  0.15034763  0.24281070  0.33798360  1
  O  O16  1  0.14533012  0.22990814  0.84316918  1
  O  O17  1  0.14700167  0.73043999  0.35162463  1
  O  O18  1  0.14764973  0.73085750  0.85329187  1
  O  O19  1  0.65608798  0.22247903  0.35271604  1
  O  O20  1  0.65010446  0.22889534  0.84968244  1
  O  O21  1  0.64650408  0.72858037  0.35390517  1
  O  O22  1  0.64480524  0.72903151  0.85595629  1
  O  O23  1  0.35325239  0.26612055  0.64158141  1
  O  O24  1  0.35771625  0.77307150  0.14597679  1
  O  O25  1  0.35491826  0.76931971  0.64606572  1
  O  O26  1  0.85893105  0.27142778  0.14546458  1
  O  O27  1  0.84822610  0.27377881  0.65114999  1
  O  O28  1  0.85732562  0.76989575  0.14492015  1
  O  O29  1  0.85667167  0.77132030  0.64526948  1
  O  O30  1  0.35675968  0.48460659  0.14838769  1
  O  O31  1  0.35540728  0.48179520  0.64526804  1
  O  O32  1  0.35354944  0.99799951  0.16386858  1
  O  O33  1  0.35390438  0.98052836  0.64482114  1
  O  O34  1  0.85573806  0.48118727  0.14527196  1
  O  O35  1  0.85662292  0.47879147  0.64541041  1
  O  O36  1  0.85185763  0.98140196  0.14570567  1
  O  O37  1  0.85068756  0.97737779  0.64846241  1
  O  O38  1  0.14030813  0.01021859  0.35928678  1
  O  O39  1  0.14544803  0.02518391  0.86135308  1
  O  O40  1  0.14761129  0.52037964  0.35131298  1
  O  O41  1  0.14898434  0.51452019  0.85336462  1
  O  O42  1  0.62562646  0.02980932  0.35542152  1
  O  O43  1  0.64818085  0.02026091  0.84906896  1
  O  O44  1  0.64674580  0.51931490  0.35368841  1
  O  O45  1  0.64534464  0.52100365  0.85527730  1
  O  O46  1  0.39444934  0.02159486  0.89723280  1
  O  O47  1  0.39618076  0.52297714  0.39757429  1
  O  O48  1  0.39681677  0.51350282  0.89882628  1
  O  O49  1  0.88769391  0.02086501  0.39392231  1
  O  O50  1  0.89499102  0.01673673  0.89887289  1
  O  O51  1  0.89819233  0.51840446  0.39616166  1
  O  O52  1  0.89632752  0.51789222  0.89716054  1
  O  O53  1  0.10236112  0.48154366  0.10473457  1
  O  O54  1  0.10637190  0.47996682  0.60343184  1
  O  O55  1  0.10707216  0.98466767  0.10785128  1
  O  O56  1  0.09674584  0.98112467  0.61207333  1
  O  O57  1  0.60688980  0.48176209  0.10831637  1
  O  O58  1  0.60746555  0.48213882  0.60516699  1
  O  O59  1  0.60179108  0.98625399  0.09372446  1
  O  O60  1  0.59744790  0.98092374  0.59781664  1
  O  O61  1  0.01083731  0.37627940  0.27846598  1
  O  O62  1  0.01277149  0.37496194  0.78707250  1
  O  O63  1  0.00482186  0.87256457  0.28552109  1
  O  O64  1  0.01247588  0.87472049  0.79218387  1
  O  O65  1  0.49853018  0.37775820  0.28498350  1
  O  O66  1  0.50937929  0.37499950  0.78171225  1
  O  O67  1  0.50779969  0.87182614  0.29946182  1
  O  O68  1  0.50922660  0.87433592  0.78364209  1
  O  O69  1  0.49083106  0.12439611  0.71434405  1
  O  O70  1  0.49096397  0.62731807  0.20896082  1
  O  O71  1  0.48861442  0.62462402  0.71412584  1
  O  O72  1  0.99928758  0.13021875  0.21571555  1
  O  O73  1  0.98647695  0.12518283  0.71465466  1
  O  O74  1  0.98869383  0.62537470  0.20901067  1
  O  O75  1  0.99117092  0.62498236  0.71310138  1
  O  O76  1  0.23323492  0.15095457  0.06214981  1
  O  O77  1  0.24844904  0.12021815  0.51594873  1
  O  O78  1  0.23957754  0.62755091  0.03916218  1
  O  O79  1  0.23666914  0.62614242  0.54041626  1
  O  O80  1  0.74468036  0.12482902  0.03747323  1
  O  O81  1  0.74087518  0.12573292  0.54390212  1
  O  O82  1  0.74036872  0.62588098  0.03973389  1
  O  O83  1  0.74498482  0.62452388  0.53788651  1
  O  O84  1  0.26491725  0.37663193  0.46439905  1
  O  O85  1  0.25516402  0.35853516  0.01297930  1
  O  O86  1  0.26846859  0.87456341  0.45811738  1
  O  O87  1  0.26307554  0.87882321  0.96785558  1
  O  O88  1  0.75844560  0.37398436  0.45982310  1
  O  O89  1  0.74885496  0.37539043  0.96604253  1
  O  O90  1  0.75541344  0.87559243  0.46078226  1
  O  O91  1  0.75566573  0.87450656  0.96194462  1
loop_
_geom_bond_atom_site_label_1
_geom_bond_atom_site_label_2
_geom_bond_distance
_geom_bond_site_symmetry_2
Ca0 O73 2.269315 1_455
Ca0 O49 2.392049 1_455
Ca0 O11 2.414396 1_455
Ca0 O77 2.498021 1_555
Ca0 O56 2.530236 1_545
Ca0 O0 2.621033 1_555
Ca0 O38 2.645992 1_555
Ca1 O50 2.261896 1_455
Ca1 O12 2.358267 1_455
Ca1 O72 2.390517 1_456
Ca1 O39 2.493949 1_555
Ca1 O76 2.557079 1_556
Ca1 O55 2.600455 1_546
Ca1 O16 2.767828 1_555
Ca2 O75 2.340699 1_455
Ca2 O13 2.356845 1_455
Ca2 O51 2.373897 1_455
Ca2 O79 2.400452 1_555
Ca2 O17 2.638617 1_555
Ca2 O40 2.649605 1_555
Ca2 O54 2.675311 1_555
Ca2 O2 2.685994 1_555
Ca3 O74 2.339200 1_456
Ca3 O14 2.354214 1_455
Ca3 O52 2.380015 1_455
Ca3 O78 2.419874 1_556
Ca3 O18 2.605066 1_555
Ca3 O53 2.657490 1_556
Ca3 O41 2.671775 1_555
Ca3 O1 2.694288 1_556
Ca4 O69 2.292492 1_555
Ca4 O81 2.373397 1_555
Ca4 O7 2.404527 1_555
Ca4 O42 2.465030 1_555
Ca4 O4 2.475907 1_555
Ca4 O19 2.591302 1_555
Ca4 O60 2.602497 1_545
Ca4 O77 3.033835 1_555
Ca5 O46 2.322962 1_555
Ca5 O8 2.359006 1_555
Ca5 O80 2.377715 1_556
Ca5 O43 2.398662 1_555
Ca5 O20 2.449912 1_555
Ca5 O59 2.557727 1_546
Ca5 O3 2.571425 1_556
Ca5 O69 2.825413 1_555
Ca6 O71 2.354465 1_555
Ca6 O9 2.361077 1_555
Ca6 O47 2.366524 1_555
Ca6 O83 2.422672 1_555
Ca6 O21 2.584268 1_555
Ca6 O6 2.602396 1_555
Ca6 O44 2.609212 1_555
Ca6 O58 2.626435 1_555
Ca7 O70 2.338560 1_556
Ca7 O10 2.357189 1_555
Ca7 O48 2.406132 1_555
Ca7 O82 2.426076 1_556
Ca7 O22 2.561011 1_555
Ca7 O45 2.562752 1_555
Ca7 O57 2.675328 1_556
Ca7 O5 2.733848 1_556
Ca8 O57 2.279585 1_556
Ca8 O66 2.317623 1_555
Ca8 O3 2.456987 1_556
Ca8 O48 2.467671 1_555
Ca8 O85 2.626540 1_556
Ca8 O30 2.693068 1_556
Ca8 O8 2.774510 1_555
Ca8 O89 2.812189 1_555
Ca9 O58 2.292280 1_555
Ca9 O4 2.373568 1_555
Ca9 O84 2.378162 1_555
Ca9 O65 2.417091 1_555
Ca9 O31 2.489523 1_555
Ca9 O47 2.592324 1_555
Ca9 O23 2.688322 1_555
Ca10 O68 2.291128 1_555
Ca10 O5 2.302658 1_556
Ca10 O59 2.439972 1_556
Ca10 O87 2.473034 1_555
Ca10 O10 2.539276 1_555
Ca10 O24 2.597060 1_556
Ca10 O46 2.780436 1_565
Ca11 O6 2.273826 1_555
Ca11 O67 2.337858 1_555
Ca11 O60 2.354335 1_555
Ca11 O86 2.400640 1_555
Ca11 O25 2.457791 1_555
Ca11 O9 2.632955 1_555
Ca11 O33 2.654272 1_555
Ca12 O62 2.339133 1_655
Ca12 O53 2.372810 1_656
Ca12 O89 2.410785 1_555
Ca12 O52 2.443129 1_555
Ca12 O34 2.481798 1_556
Ca12 O12 2.622502 1_555
Ca12 O26 2.626625 1_556
Ca13 O54 2.325851 1_655
Ca13 O0 2.405510 1_655
Ca13 O88 2.421403 1_555
Ca13 O35 2.488098 1_555
Ca13 O61 2.492596 1_655
Ca13 O51 2.574100 1_555
Ca13 O27 2.644794 1_555
Ca13 O11 2.682234 1_555
Ca14 O64 2.318059 1_654
Ca14 O1 2.361782 1_655
Ca14 O91 2.420553 1_554
Ca14 O55 2.511846 1_655
Ca14 O28 2.523478 1_555
Ca14 O14 2.602584 1_554
Ca14 O36 2.632625 1_555
Ca14 O50 2.635641 1_564
Ca15 O2 2.348542 1_655
Ca15 O56 2.412286 1_655
Ca15 O90 2.417265 1_555
Ca15 O63 2.419720 1_655
Ca15 O29 2.489750 1_555
Ca15 O37 2.575080 1_555
Ca15 O13 2.629000 1_555
Ca15 O49 2.739887 1_565
Ca16 O30 2.301683 1_555
Ca16 O84 2.301814 1_555
Ca16 O61 2.415375 1_555
Ca16 O40 2.430765 1_555
Ca16 O53 2.544200 1_555
Ca16 O15 2.581232 1_555
Ca16 O85 2.650220 1_555
Ca16 O65 2.945484 1_555
Ca17 O31 2.308826 1_555
Ca17 O62 2.396319 1_555
Ca17 O23 2.419090 1_555
Ca17 O54 2.429022 1_555
Ca17 O41 2.603437 1_555
Ca17 O0 2.613384 1_555
Ca17 O16 2.732073 1_555
Ca18 O24 2.319623 1_555
Ca18 O86 2.326000 1_555
Ca18 O63 2.471274 1_555
Ca18 O1 2.510833 1_555
Ca18 O32 2.543912 1_555
Ca18 O17 2.584610 1_555
Ca18 O55 2.643764 1_555
Ca18 O38 2.647617 1_565
Ca19 O25 2.332832 1_555
Ca19 O64 2.406843 1_555
Ca19 O33 2.425555 1_555
Ca19 O87 2.434243 1_555
Ca19 O2 2.507965 1_555
Ca19 O18 2.591048 1_555
Ca19 O56 2.634442 1_555
Ca19 O39 2.832794 1_565
Ca20 O34 2.281821 1_555
Ca20 O88 2.334751 1_555
Ca20 O26 2.474022 1_555
Ca20 O57 2.486164 1_555
Ca20 O44 2.543949 1_555
Ca20 O65 2.568194 1_555
Ca20 O19 2.859350 1_555
Ca20 O3 2.902084 1_555
Ca21 O35 2.340448 1_555
Ca21 O27 2.341998 1_555
Ca21 O89 2.355028 1_555
Ca21 O66 2.409062 1_555
Ca21 O58 2.550529 1_555
Ca21 O45 2.606338 1_555
Ca21 O20 2.700554 1_555
Ca21 O4 2.757651 1_555
Ca22 O28 2.290174 1_555
Ca22 O90 2.325954 1_555
Ca22 O36 2.444335 1_555
Ca22 O5 2.467259 1_555
Ca22 O67 2.514394 1_555
Ca22 O21 2.585301 1_555
Ca22 O59 2.838638 1_555
Ca23 O91 2.343237 1_555
Ca23 O29 2.349719 1_555
Ca23 O37 2.351311 1_555
Ca23 O68 2.415523 1_555
Ca23 O6 2.558696 1_555
Ca23 O22 2.644524 1_555
Ca23 O43 2.679321 1_565
Ca23 O60 2.708749 1_555
Ca24 O76 2.225692 1_555
Ca24 O38 2.254206 1_555
Ca24 O15 2.276339 1_555
Ca24 O7 2.446992 1_555
Ca24 O32 2.478704 1_545
Ca24 O72 2.691623 1_455
Ca24 O77 2.708555 1_555
Ca25 O77 2.335980 1_555
Ca25 O69 2.405837 1_555
Ca25 O39 2.415598 1_555
Ca25 O33 2.477820 1_545
Ca25 O16 2.501424 1_555
Ca25 O23 2.628276 1_555
Ca25 O46 2.670536 1_555
Ca25 O8 2.834332 1_555
Ca26 O17 2.346776 1_555
Ca26 O78 2.363537 1_555
Ca26 O40 2.364611 1_555
Ca26 O70 2.420951 1_555
Ca26 O9 2.527819 1_555
Ca26 O47 2.567171 1_555
Ca26 O30 2.627495 1_555
Ca26 O24 2.699176 1_555
Ca27 O79 2.344319 1_555
Ca27 O18 2.364712 1_555
Ca27 O41 2.389256 1_555
Ca27 O71 2.412630 1_555
Ca27 O10 2.616810 1_555
Ca27 O31 2.651134 1_555
Ca27 O48 2.666593 1_555
Ca27 O25 2.677463 1_555
Ca28 O19 2.328840 1_555
Ca28 O80 2.331864 1_555
Ca28 O42 2.381977 1_555
Ca28 O49 2.457298 1_555
Ca28 O72 2.491717 1_555
Ca28 O36 2.527099 1_545
Ca28 O11 2.736744 1_555
Ca28 O26 2.780142 1_555
Ca29 O81 2.316311 1_555
Ca29 O43 2.328062 1_555
Ca29 O20 2.339275 1_555
Ca29 O73 2.347446 1_555
Ca29 O50 2.591685 1_555
Ca29 O37 2.657106 1_545
Ca29 O12 2.685821 1_555
Ca29 O27 2.686023 1_555
Ca30 O21 2.346095 1_555
Ca30 O82 2.347782 1_555
Ca30 O44 2.364398 1_555
Ca30 O74 2.418858 1_555
Ca30 O13 2.582910 1_555
Ca30 O51 2.613652 1_555
Ca30 O34 2.667990 1_555
Ca30 O28 2.688385 1_555
Ca31 O83 2.342230 1_555
Ca31 O22 2.373610 1_555
Ca31 O45 2.383714 1_555
Ca31 O75 2.428958 1_555
Ca31 O14 2.582933 1_555
Ca31 O52 2.632019 1_555
Ca31 O29 2.681113 1_555
Ca31 O35 2.702616 1_555
Mn0 O56 1.886092 1_655
Mn0 O64 1.941216 1_655
Mn0 O50 1.948200 1_565
Mn0 O37 1.948393 1_555
Mn0 O73 1.997468 1_565
Mn0 O39 2.054702 1_665
Mn1 O74 1.934934 1_455
Mn1 O53 1.945165 1_555
Mn1 O51 1.947540 1_455
Mn1 O34 1.952873 1_455
Mn1 O40 1.960673 1_555
Mn1 O61 1.963656 1_555
Mn2 O75 1.947222 1_455
Mn2 O35 1.958947 1_455
Mn2 O41 1.964445 1_555
Mn2 O52 1.970837 1_455
Mn2 O62 1.972339 1_555
Mn2 O54 1.980740 1_555
Mn3 O67 1.867115 1_555
Mn3 O42 1.882477 1_565
Mn3 O32 1.882502 1_555
Mn3 O59 1.906292 1_555
Mn4 O60 1.940525 1_555
Mn4 O68 1.948799 1_555
Mn4 O43 1.956882 1_565
Mn4 O69 1.959780 1_565
Mn4 O33 1.968087 1_555
Mn4 O46 2.024385 1_565
Mn5 O30 1.928123 1_555
Mn5 O70 1.949022 1_555
Mn5 O44 1.954442 1_555
Mn5 O47 1.956991 1_555
Mn5 O65 1.964652 1_555
Mn5 O57 1.968425 1_555
Mn6 O71 1.930809 1_555
Mn6 O31 1.957934 1_555
Mn6 O45 1.962233 1_555
Mn6 O48 1.965665 1_555
Mn6 O66 1.969383 1_555
Mn6 O58 1.977204 1_555
Mn7 O86 1.910360 1_555
Mn7 O38 1.933304 1_565
Mn7 O33 1.940900 1_555
Mn7 O77 1.947998 1_565
Mn7 O56 1.971177 1_555
Mn8 O30 1.955858 1_555
Mn8 O41 1.962321 1_554
Mn8 O53 1.965441 1_555
Mn8 O78 1.967433 1_555
Mn8 O48 1.972603 1_554
Mn8 O85 2.196780 1_555
Mn9 O79 1.938068 1_555
Mn9 O31 1.955198 1_555
Mn9 O54 1.959035 1_555
Mn9 O47 1.960215 1_555
Mn9 O40 1.970902 1_555
Mn9 O84 1.983323 1_555
Mn10 O50 1.925271 1_565
Mn10 O59 1.931583 1_556
Mn10 O91 1.932138 1_555
Mn10 O43 1.958836 1_565
Mn10 O36 1.965756 1_556
Mn10 O80 1.989733 1_566
Mn11 O60 1.948914 1_545
Mn11 O49 1.957293 1_555
Mn11 O90 1.968817 1_545
Mn11 O81 1.969236 1_555
Mn11 O37 1.971446 1_545
Mn11 O42 2.096746 1_555
Mn12 O82 1.928346 1_555
Mn12 O45 1.944989 1_554
Mn12 O57 1.962528 1_555
Mn12 O34 1.966181 1_555
Mn12 O52 1.971575 1_554
Mn12 O89 1.992393 1_554
Mn13 O83 1.944408 1_555
Mn13 O58 1.951933 1_555
Mn13 O44 1.961166 1_555
Mn13 O35 1.962896 1_555
Mn13 O51 1.978564 1_555
Mn13 O88 1.987059 1_555
Mn14 O23 1.953751 1_555
Mn14 O84 1.956035 1_555
Mn14 O15 1.998334 1_555
Mn14 O77 2.017355 1_555
Mn14 O0 2.041372 1_555
Mn14 O7 2.228522 1_555
Mn15 O78 1.889992 1_555
Mn15 O1 1.962892 1_555
Mn15 O18 1.966587 1_554
Mn15 O10 1.969528 1_554
Mn15 O24 1.971910 1_555
Mn15 O87 2.044178 1_554
Mn16 O79 1.937213 1_555
Mn16 O25 1.960347 1_555
Mn16 O2 1.960652 1_555
Mn16 O9 1.969021 1_555
Mn16 O17 1.969355 1_555
Mn16 O86 1.986028 1_555
Mn17 O12 1.944134 1_555
Mn17 O89 1.949216 1_555
Mn17 O20 1.965450 1_555
Mn17 O80 1.967565 1_556
Mn17 O26 1.990890 1_556
Mn17 O3 2.080799 1_556
Mn18 O4 1.922404 1_555
Mn18 O27 1.928710 1_555
Mn18 O81 1.952099 1_555
Mn18 O88 1.963154 1_555
Mn18 O11 1.965719 1_555
Mn18 O19 1.975767 1_555
Mn19 O82 1.934066 1_555
Mn19 O22 1.951885 1_554
Mn19 O28 1.964544 1_555
Mn19 O14 1.968203 1_554
Mn19 O91 1.969852 1_554
Mn19 O5 1.980639 1_555
Mn20 O6 1.953365 1_555
Mn20 O83 1.953424 1_555
Mn20 O21 1.959201 1_555
Mn20 O29 1.967458 1_555
Mn20 O13 1.974069 1_555
Mn20 O90 1.983280 1_555
Mn21 O27 1.914933 1_555
Mn21 O0 1.941565 1_655
Mn21 O73 1.957862 1_555
Mn21 O62 1.960581 1_655
Mn21 O16 1.976223 1_655
Mn21 O12 2.023706 1_555
Mn22 O74 1.925168 1_455
Mn22 O17 1.943681 1_555
Mn22 O13 1.950454 1_455
Mn22 O63 1.954825 1_555
Mn22 O28 1.957450 1_455
Mn22 O1 1.979847 1_555
Mn23 O75 1.954571 1_455
Mn23 O29 1.960693 1_455
Mn23 O18 1.961489 1_555
Mn23 O14 1.965850 1_455
Mn23 O64 1.970779 1_555
Mn23 O2 1.992039 1_555
Mn24 O7 1.841224 1_555
Mn24 O19 1.863626 1_555
Mn24 O3 1.887851 1_555
Mn24 O65 1.892753 1_555
Mn25 O4 1.921499 1_555
Mn25 O66 1.951909 1_555
Mn25 O8 1.952334 1_555
Mn25 O69 1.962648 1_555
Mn25 O20 1.977409 1_555
Mn25 O23 1.991366 1_555
Mn26 O70 1.905379 1_555
Mn26 O24 1.953692 1_555
Mn26 O21 1.960258 1_555
Mn26 O9 1.960826 1_555
Mn26 O67 1.968224 1_555
Mn26 O5 1.973346 1_555
Mn27 O71 1.930288 1_555
Mn27 O22 1.955261 1_555
Mn27 O10 1.958972 1_555
Mn27 O25 1.968171 1_555
Mn27 O6 1.972264 1_555
Mn27 O68 1.973612 1_555
O8 Ti2 1.808052 1_555
O11 Ti3 1.799629 1_555
O15 Ti3 1.938437 1_455
O16 Ti2 1.793664 1_555
O26 Ti3 1.941612 1_555
O32 Ti1 2.121098 1_554
O36 Ti0 1.948111 1_555
O38 Ti0 1.961065 1_445
O39 Ti1 1.899553 1_545
O46 Ti1 1.927786 1_545
O49 Ti0 1.993285 1_545
O55 Ti0 1.959346 1_455
O55 Ti1 1.994100 1_554
O61 Ti3 1.941137 1_455
O63 Ti0 1.893220 1_455
O72 Ti3 1.942257 1_555
O72 Ti0 2.127394 1_545
O76 Ti2 1.811820 1_554
O76 Ti1 2.495153 1_544
O85 Ti2 1.815044 1_554
O87 Ti1 1.816231 1_555
