# generated using pymatgen
data_YCrO4
_symmetry_space_group_name_H-M   'P 1'
_cell_length_a   5.92096012
_cell_length_b   5.92145995
_cell_length_c   5.92145575
_cell_angle_alpha   106.17969572
_cell_angle_beta   106.17593820
_cell_angle_gamma   116.28433148
_symmetry_Int_Tables_number   1
_chemical_formula_structural   YCrO4
_chemical_formula_sum   'Y2 Cr2 O8'
_cell_volume   158.09726471
_cell_formula_units_Z   2
loop_
 _symmetry_equiv_pos_site_id
 _symmetry_equiv_pos_as_xyz
  1  'x, y, z'
loop_
 _atom_site_type_symbol
 _atom_site_label
 _atom_site_symmetry_multiplicity
 _atom_site_fract_x
 _atom_site_fract_y
 _atom_site_fract_z
 _atom_site_occupancy
  Y  Y0  1  0.12496933  0.87499930  0.24997003  1
  Y  Y1  1  0.87503067  0.12500070  0.75002997  1
  Cr  Cr0  1  0.37493950  0.62500603  0.74993447  1
  Cr  Cr1  1  0.62506050  0.37499397  0.25006553  1
  O  O0  1  0.79842696  0.73210559  0.43372529  1
  O  O1  1  0.36464473  0.79839693  0.56624580  1
  O  O2  1  0.73206875  0.79841827  0.93365147  1
  O  O3  1  0.79842596  0.36470266  0.06632236  1
  O  O4  1  0.63535627  0.20160307  0.43375420  1
  O  O5  1  0.20157304  0.26789441  0.56627471  1
  O  O6  1  0.20157404  0.63529734  0.93367764  1
  O  O7  1  0.26793125  0.20158173  0.06634853  1
loop_
_geom_bond_atom_site_label_1
_geom_bond_atom_site_label_2
_geom_bond_distance
_geom_bond_site_symmetry_2
Cr0 O1 1.697602 1_555
Cr0 O2 1.697618 1_555
Cr0 O6 1.697624 1_555
Cr0 O5 1.697636 1_555
Cr1 O4 1.697603 1_555
Cr1 O7 1.697618 1_555
Cr1 O3 1.697624 1_555
Cr1 O0 1.697636 1_555
O0 Y1 2.300022 1_565
O0 Y0 2.423736 1_655
O1 Y0 2.299947 1_555
O1 Y1 2.423933 1_565
O2 Y0 2.300088 1_656
O2 Y1 2.423506 1_565
O3 Y1 2.300035 1_554
O3 Y0 2.423727 1_655
O4 Y1 2.299944 1_555
O4 Y0 2.423938 1_545
O5 Y0 2.300022 1_545
O5 Y1 2.423736 1_455
O6 Y0 2.300035 1_556
O6 Y1 2.423727 1_455
O7 Y1 2.300088 1_454
O7 Y0 2.423506 1_545
