# generated using pymatgen
data_Sr3Sb3N5
_symmetry_space_group_name_H-M   'P 1'
_cell_length_a   6.09609391
_cell_length_b   7.42988742
_cell_length_c   10.84364149
_cell_angle_alpha   100.92617221
_cell_angle_beta   96.56407502
_cell_angle_gamma   95.33915405
_symmetry_Int_Tables_number   1
_chemical_formula_structural   Sr3Sb3N5
_chemical_formula_sum   'Sr6 Sb6 N10'
_cell_volume   475.75486264
_cell_formula_units_Z   2
loop_
 _symmetry_equiv_pos_site_id
 _symmetry_equiv_pos_as_xyz
  1  'x, y, z'
loop_
 _atom_site_type_symbol
 _atom_site_label
 _atom_site_symmetry_multiplicity
 _atom_site_fract_x
 _atom_site_fract_y
 _atom_site_fract_z
 _atom_site_occupancy
  Sr  Sr0  1  0.72523900  0.37205400  0.52872300  1
  Sr  Sr1  1  0.27476100  0.62794600  0.47127700  1
  Sr  Sr2  1  0.71082300  0.86683200  0.92382600  1
  Sr  Sr3  1  0.28917700  0.13316800  0.07617400  1
  Sr  Sr4  1  0.74154300  0.80454900  0.26780500  1
  Sr  Sr5  1  0.25845700  0.19545100  0.73219500  1
  Sb  Sb0  1  0.79845600  0.37212200  0.93163900  1
  Sb  Sb1  1  0.20154400  0.62787800  0.06836100  1
  Sb  Sb2  1  0.71823200  0.92045400  0.61151100  1
  Sb  Sb3  1  0.28176800  0.07954600  0.38848900  1
  Sb  Sb4  1  0.17486300  0.73071200  0.76493900  1
  Sb  Sb5  1  0.82513700  0.26928800  0.23506100  1
  N  N0  1  0.96590900  0.93208400  0.76266700  1
  N  N1  1  0.03409100  0.06791600  0.23733300  1
  N  N2  1  0.70424400  0.68503800  0.47765800  1
  N  N3  1  0.29575600  0.31496200  0.52234200  1
  N  N4  1  0.85583600  0.63108700  0.05168400  1
  N  N5  1  0.14416400  0.36891300  0.94831600  1
  N  N6  1  0.43166200  0.87810800  0.69975100  1
  N  N7  1  0.56833800  0.12189200  0.30024900  1
  N  N8  1  0.29853900  0.80486200  0.95490700  1
  N  N9  1  0.70146100  0.19513800  0.04509300  1
loop_
_geom_bond_atom_site_label_1
_geom_bond_atom_site_label_2
_geom_bond_distance
_geom_bond_site_symmetry_2
N0 Sb4 2.055039 1_655
N0 Sb2 2.080856 1_555
N0 Sr2 2.551326 1_555
N0 Sr5 2.617079 1_665
N1 Sb5 2.055039 1_455
N1 Sb3 2.080856 1_555
N1 Sr3 2.551326 1_555
N1 Sr4 2.617079 1_445
N2 Sb2 2.038363 1_555
N2 Sr0 2.501594 1_555
N2 Sr1 2.603901 1_555
N2 Sr4 2.620132 1_555
N3 Sb3 2.038363 1_555
N3 Sr1 2.501594 1_555
N3 Sr0 2.603901 1_555
N3 Sr5 2.620132 1_555
N4 Sb0 2.083291 1_554
N4 Sb1 2.097271 1_655
N4 Sr2 2.588476 1_554
N4 Sr4 2.652184 1_555
N5 Sb1 2.083291 1_556
N5 Sb0 2.097271 1_455
N5 Sr3 2.588476 1_556
N5 Sr5 2.652184 1_555
N6 Sb4 2.092152 1_555
N6 Sb2 2.111966 1_555
N6 Sr5 2.651745 1_565
N6 Sr1 2.808776 1_555
N6 Sr2 2.822289 1_555
N7 Sb5 2.092152 1_555
N7 Sb3 2.111966 1_555
N7 Sr4 2.651745 1_545
N7 Sr0 2.808776 1_555
N7 Sr3 2.822289 1_555
N8 Sb1 2.056011 1_556
N8 Sb4 2.062213 1_555
N8 Sr3 2.551391 1_566
N8 Sr2 2.584474 1_555
N9 Sb0 2.056011 1_554
N9 Sb5 2.062213 1_555
N9 Sr2 2.551391 1_544
N9 Sr3 2.584474 1_555
