# generated using pymatgen
data_Li9Mn2Co5O16
_symmetry_space_group_name_H-M   'P 1'
_cell_length_a   5.88455200
_cell_length_b   6.57882099
_cell_length_c   8.75550918
_cell_angle_alpha   82.49092269
_cell_angle_beta   109.57115185
_cell_angle_gamma   115.77177167
_symmetry_Int_Tables_number   1
_chemical_formula_structural   Li9Mn2Co5O16
_chemical_formula_sum   'Li9 Mn2 Co5 O16'
_cell_volume   287.56116342
_cell_formula_units_Z   1
loop_
 _symmetry_equiv_pos_site_id
 _symmetry_equiv_pos_as_xyz
  1  'x, y, z'
loop_
 _atom_site_type_symbol
 _atom_site_label
 _atom_site_symmetry_multiplicity
 _atom_site_fract_x
 _atom_site_fract_y
 _atom_site_fract_z
 _atom_site_occupancy
  Li  Li0  1  0.74118800  0.75395200  0.24174200  1
  Li  Li1  1  0.24645400  0.99369200  0.49817300  1
  Li  Li2  1  0.25564700  0.75251800  0.24742700  1
  Li  Li3  1  0.75354600  0.00630800  0.50182700  1
  Li  Li4  1  0.74435300  0.24748200  0.75257300  1
  Li  Li5  1  0.25881200  0.24604800  0.75825800  1
  Li  Li6  1  0.25221500  0.49700500  0.00175700  1
  Li  Li7  1  0.74778500  0.50299500  0.99824300  1
  Li  Li8  1  0.50000000  0.00000000  0.00000000  1
  Mn  Mn0  1  0.00000000  0.00000000  0.00000000  1
  Mn  Mn1  1  0.00000000  0.50000000  0.50000000  1
  Co  Co0  1  0.50025900  0.23988400  0.24482600  1
  Co  Co1  1  0.49974100  0.76011600  0.75517400  1
  Co  Co2  1  0.98798500  0.24558600  0.24301400  1
  Co  Co3  1  0.50000000  0.50000000  0.50000000  1
  Co  Co4  1  0.01201500  0.75441400  0.75698600  1
  O  O0  1  0.12168900  0.00842800  0.23592800  1
  O  O1  1  0.65027500  0.27124500  0.50020800  1
  O  O2  1  0.62679100  0.01704900  0.25522200  1
  O  O3  1  0.11998500  0.26833300  0.48995700  1
  O  O4  1  0.12640400  0.51071800  0.73614700  1
  O  O5  1  0.61859200  0.51550800  0.73629800  1
  O  O6  1  0.64974500  0.76607900  0.99523700  1
  O  O7  1  0.11021900  0.76127300  0.98698400  1
  O  O8  1  0.38140800  0.48449200  0.26370200  1
  O  O9  1  0.88001500  0.73166700  0.51004300  1
  O  O10  1  0.87359600  0.48928200  0.26385300  1
  O  O11  1  0.34972500  0.72875500  0.49979200  1
  O  O12  1  0.37320900  0.98295100  0.74477800  1
  O  O13  1  0.87831100  0.99157200  0.76407200  1
  O  O14  1  0.88978100  0.23872700  0.01301600  1
  O  O15  1  0.35025500  0.23392100  0.00476300  1
loop_
_geom_bond_atom_site_label_1
_geom_bond_atom_site_label_2
_geom_bond_distance
_geom_bond_site_symmetry_2
Li0 O6 2.041651 1_554
Li0 O8 2.140524 1_555
Li0 O2 2.140754 1_565
Li0 O0 2.147855 1_665
Li0 O10 2.160322 1_555
Li0 O9 2.221632 1_555
Li1 O12 2.037225 1_555
Li1 O11 2.077569 1_555
Li1 O9 2.122051 1_455
Li1 O0 2.166745 1_565
Li1 O3 2.218794 1_565
Li1 O1 2.277787 1_565
Li2 O11 2.092520 1_555
Li2 O2 2.104589 1_565
Li2 O0 2.126632 1_565
Li2 O7 2.153288 1_554
Li2 O8 2.162311 1_555
Li2 O10 2.200018 1_455
Li3 O2 2.037225 1_555
Li3 O1 2.077569 1_555
Li3 O3 2.122051 1_655
Li3 O13 2.166745 1_545
Li3 O9 2.218794 1_545
Li3 O11 2.277787 1_545
Li4 O1 2.092520 1_555
Li4 O12 2.104589 1_545
Li4 O13 2.126632 1_545
Li4 O14 2.153288 1_556
Li4 O5 2.162311 1_555
Li4 O4 2.200018 1_655
Li5 O15 2.041651 1_556
Li5 O5 2.140524 1_555
Li5 O12 2.140754 1_545
Li5 O13 2.147855 1_445
Li5 O4 2.160322 1_555
Li5 O3 2.221632 1_555
Li6 O15 2.043368 1_555
Li6 O14 2.095558 1_455
Li6 O8 2.163715 1_555
Li6 O4 2.194132 1_554
Li6 O7 2.206723 1_554
Li6 O6 2.251944 1_554
Li7 O6 2.043368 1_555
Li7 O7 2.095558 1_655
Li7 O5 2.163715 1_555
Li7 O10 2.194132 1_556
Li7 O14 2.206723 1_556
Li7 O15 2.251944 1_556
Li8 O15 2.089763 1_555
Li8 O6 2.089763 1_544
Li8 O12 2.106761 1_544
Li8 O2 2.106761 1_555
Li8 O7 2.116542 1_544
Li8 O14 2.116542 1_555
Mn0 O0 1.946088 1_555
Mn0 O13 1.946088 1_444
Mn0 O15 1.954264 1_555
Mn0 O6 1.954264 1_444
Mn0 O14 1.970365 1_455
Mn0 O7 1.970365 1_544
Mn1 O4 1.948159 1_555
Mn1 O10 1.948159 1_455
Mn1 O1 1.951593 1_455
Mn1 O11 1.951593 1_555
Mn1 O9 1.959972 1_455
Mn1 O3 1.959972 1_555
Co0 O2 1.892281 1_555
Co0 O15 1.986714 1_555
Co0 O8 2.057113 1_555
Co0 O10 2.058651 1_555
Co0 O0 2.062139 1_555
Co0 O1 2.112188 1_555
Co1 O12 1.892281 1_555
Co1 O6 1.986714 1_555
Co1 O5 2.057113 1_555
Co1 O4 2.058651 1_555
Co1 O13 2.062139 1_555
Co1 O11 2.112188 1_555
Co2 O14 1.900687 1_555
Co2 O2 2.029999 1_555
Co2 O10 2.038114 1_555
Co2 O3 2.039317 1_655
Co2 O0 2.045148 1_655
Co2 O8 2.119484 1_655
Co3 O8 1.950326 1_555
Co3 O5 1.950326 1_555
Co3 O1 2.049947 1_555
Co3 O11 2.049947 1_555
Co3 O9 2.066608 1_555
Co3 O3 2.066608 1_555
Co4 O7 1.900687 1_555
Co4 O12 2.029999 1_555
Co4 O4 2.038114 1_555
Co4 O9 2.039317 1_455
Co4 O13 2.045148 1_455
Co4 O5 2.119484 1_455
