# generated using pymatgen
data_Sr2CePrCu3(PbO5)2
_symmetry_space_group_name_H-M   'P 1'
_cell_length_a   3.87411900
_cell_length_b   3.90292925
_cell_length_c   18.95841978
_cell_angle_alpha   94.95998972
_cell_angle_beta   95.61593493
_cell_angle_gamma   89.97966792
_symmetry_Int_Tables_number   1
_chemical_formula_structural   Sr2CePrCu3(PbO5)2
_chemical_formula_sum   'Sr2 Ce1 Pr1 Cu3 Pb2 O10'
_cell_volume   284.20542991
_cell_formula_units_Z   1
loop_
 _symmetry_equiv_pos_site_id
 _symmetry_equiv_pos_as_xyz
  1  'x, y, z'
loop_
 _atom_site_type_symbol
 _atom_site_label
 _atom_site_symmetry_multiplicity
 _atom_site_fract_x
 _atom_site_fract_y
 _atom_site_fract_z
 _atom_site_occupancy
  Sr  Sr0  1  0.12179400  0.13015100  0.23638800  1
  Sr  Sr1  1  0.87864400  0.86951400  0.76461900  1
  Ce  Ce0  1  0.78464200  0.78259300  0.57068600  1
  Pr  Pr0  1  0.21511400  0.21680200  0.42947100  1
  Cu  Cu0  1  0.66609000  0.66838700  0.33062200  1
  Cu  Cu1  1  0.33292500  0.33124500  0.66695200  1
  Cu  Cu2  1  0.99955500  0.99910500  0.99918000  1
  Pb  Pb0  1  0.55408200  0.54658500  0.09374600  1
  Pb  Pb1  1  0.44603100  0.45340100  0.90573900  1
  O  O0  1  0.17140900  0.67494900  0.34189100  1
  O  O1  1  0.32761300  0.82714000  0.65584400  1
  O  O2  1  0.82750000  0.32695400  0.65537900  1
  O  O3  1  0.67128600  0.17222300  0.34083900  1
  O  O4  1  0.25270400  0.74986400  0.50589500  1
  O  O5  1  0.75228000  0.25204100  0.50639700  1
  O  O6  1  0.60850800  0.61912500  0.20907200  1
  O  O7  1  0.39065100  0.38015500  0.78905900  1
  O  O8  1  0.06300800  0.14694400  0.09565100  1
  O  O9  1  0.93616500  0.85282300  0.90257000  1
loop_
_geom_bond_atom_site_label_1
_geom_bond_atom_site_label_2
_geom_bond_distance
_geom_bond_site_symmetry_2
Ce0 O5 2.283497 1_565
Ce0 O4 2.285153 1_655
Ce0 O4 2.291202 1_555
Ce0 O5 2.307146 1_555
Ce0 O2 2.491882 1_555
Ce0 O1 2.506471 1_555
Ce0 O1 2.519646 1_655
Ce0 O2 2.545149 1_565
Cu0 O0 1.948329 1_655
Cu0 O0 1.948909 1_555
Cu0 O3 1.959132 1_565
Cu0 O3 1.962651 1_555
Cu0 O6 2.284683 1_555
Cu1 O2 1.948791 1_455
Cu1 O2 1.949682 1_555
Cu1 O1 1.960436 1_545
Cu1 O1 1.964768 1_555
Cu1 O7 2.295161 1_555
Cu2 O8 1.862257 1_666
Cu2 O9 1.863376 1_555
O0 Pr0 2.537919 1_555
O0 Pr0 2.568269 1_565
O0 Sr0 2.780827 1_565
O0 Sr0 2.783600 1_555
O1 Sr1 2.813696 1_555
O1 Sr1 2.819264 1_455
O2 Sr1 2.823850 1_555
O2 Sr1 2.841598 1_545
O3 Pr0 2.550963 1_555
O3 Pr0 2.559182 1_655
O3 Sr0 2.756629 1_555
O3 Sr0 2.759421 1_655
O4 Pr0 2.420082 1_565
O4 Pr0 2.426235 1_555
O5 Pr0 2.416174 1_655
O5 Pr0 2.418283 1_555
O6 Pb0 2.169730 1_555
O6 Sr0 2.794905 1_565
O6 Sr0 2.796985 1_665
O6 Sr0 2.798269 1_555
O6 Sr0 2.798429 1_655
O7 Pb1 2.195178 1_555
O7 Sr1 2.786345 1_555
O7 Sr1 2.787035 1_455
O7 Sr1 2.787465 1_545
O7 Sr1 2.790078 1_445
O8 Pb0 2.465545 1_555
O8 Pb0 2.513001 1_455
O8 Sr0 2.662047 1_555
O9 Pb1 2.465773 1_555
O9 Pb1 2.515223 1_655
O9 Sr1 2.609455 1_555
