# generated using pymatgen
data_Rb3BN2
_symmetry_space_group_name_H-M   'P 1'
_cell_length_a   6.90224686
_cell_length_b   9.18725100
_cell_length_c   9.52527017
_cell_angle_alpha   90.00000000
_cell_angle_beta   111.60440008
_cell_angle_gamma   90.00000000
_symmetry_Int_Tables_number   1
_chemical_formula_structural   Rb3BN2
_chemical_formula_sum   'Rb12 B4 N8'
_cell_volume   561.58917077
_cell_formula_units_Z   4
loop_
 _symmetry_equiv_pos_site_id
 _symmetry_equiv_pos_as_xyz
  1  'x, y, z'
loop_
 _atom_site_type_symbol
 _atom_site_label
 _atom_site_symmetry_multiplicity
 _atom_site_fract_x
 _atom_site_fract_y
 _atom_site_fract_z
 _atom_site_occupancy
  Rb  Rb0  1  0.25325600  0.04695800  0.99554400  1
  Rb  Rb1  1  0.74674400  0.54695800  0.50445600  1
  Rb  Rb2  1  0.74674400  0.95304200  0.00445600  1
  Rb  Rb3  1  0.25325600  0.45304200  0.49554400  1
  Rb  Rb4  1  0.23332400  0.46143500  0.88620800  1
  Rb  Rb5  1  0.76667500  0.96143500  0.61379200  1
  Rb  Rb6  1  0.76667500  0.53856500  0.11379200  1
  Rb  Rb7  1  0.23332400  0.03856500  0.38620800  1
  Rb  Rb8  1  0.74167700  0.29535200  0.81062600  1
  Rb  Rb9  1  0.25832300  0.79535200  0.68937400  1
  Rb  Rb10  1  0.25832300  0.70464800  0.18937400  1
  Rb  Rb11  1  0.74167700  0.20464800  0.31062600  1
  B  B0  1  0.20750500  0.17474500  0.68122500  1
  B  B1  1  0.79249500  0.67474500  0.81877500  1
  B  B2  1  0.79249500  0.82525500  0.31877500  1
  B  B3  1  0.20750500  0.32525500  0.18122500  1
  N  N0  1  0.39013800  0.09902700  0.72921300  1
  N  N1  1  0.60986200  0.59902700  0.77078700  1
  N  N2  1  0.60986200  0.90097300  0.27078700  1
  N  N3  1  0.39013800  0.40097300  0.22921300  1
  N  N4  1  0.02542700  0.25109000  0.63404900  1
  N  N5  1  0.97457300  0.75109000  0.86595100  1
  N  N6  1  0.97457300  0.74891000  0.36595100  1
  N  N7  1  0.02542700  0.24891000  0.13404900  1
loop_
_geom_bond_atom_site_label_1
_geom_bond_atom_site_label_2
_geom_bond_distance
_geom_bond_site_symmetry_2
B0 N4 1.362878 1_555
B0 N0 1.362937 1_555
B0 Rb0 3.121807 1_555
B0 Rb7 3.140476 1_555
B0 Rb3 3.190034 1_555
B0 Rb4 3.244264 1_555
B1 N5 1.362878 1_555
B1 N1 1.362937 1_555
B1 Rb1 3.121807 1_555
B1 Rb6 3.140479 1_556
B1 Rb2 3.190034 1_556
B1 Rb5 3.244263 1_555
B2 N6 1.362878 1_555
B2 N2 1.362937 1_555
B2 Rb2 3.121807 1_555
B2 Rb5 3.140479 1_555
B2 Rb1 3.190034 1_555
B2 Rb6 3.244263 1_555
B3 N7 1.362878 1_555
B3 N3 1.362937 1_555
B3 Rb3 3.121807 1_555
B3 Rb4 3.140476 1_554
B3 Rb0 3.190034 1_554
B3 Rb7 3.244264 1_555
N0 Rb8 2.890761 1_555
N0 Rb9 2.915697 1_545
N0 Rb0 3.053229 1_555
N0 Rb7 3.090412 1_555
N0 Rb2 3.158926 1_546
N0 Rb5 3.415451 1_545
N1 Rb9 2.890761 1_555
N1 Rb8 2.915697 1_555
N1 Rb1 3.053229 1_555
N1 Rb6 3.090413 1_556
N1 Rb3 3.158926 1_555
N1 Rb4 3.415457 1_555
N2 Rb10 2.890761 1_555
N2 Rb11 2.915697 1_565
N2 Rb2 3.053229 1_555
N2 Rb5 3.090413 1_555
N2 Rb0 3.158926 1_564
N2 Rb7 3.415457 1_565
N3 Rb11 2.890761 1_555
N3 Rb10 2.915697 1_555
N3 Rb3 3.053229 1_555
N3 Rb4 3.090412 1_554
N3 Rb1 3.158926 1_555
N3 Rb6 3.415451 1_555
N4 Rb4 3.004101 1_555
N4 Rb11 3.010882 1_455
N4 Rb3 3.030445 1_555
N4 Rb8 3.042338 1_455
N4 Rb5 3.170928 1_445
N4 Rb1 3.296049 1_455
N5 Rb5 3.004102 1_555
N5 Rb10 3.010882 1_656
N5 Rb2 3.030445 1_556
N5 Rb9 3.042338 1_655
N5 Rb4 3.170924 1_655
N5 Rb0 3.296049 1_665
N6 Rb6 3.004102 1_555
N6 Rb9 3.010882 1_655
N6 Rb1 3.030445 1_555
N6 Rb10 3.042338 1_655
N6 Rb7 3.170924 1_665
N6 Rb3 3.296049 1_655
N7 Rb7 3.004101 1_555
N7 Rb8 3.010882 1_454
N7 Rb0 3.030445 1_554
N7 Rb11 3.042338 1_455
N7 Rb6 3.170928 1_455
N7 Rb2 3.296049 1_445
