# generated using pymatgen
data_Te8Ir3
_symmetry_space_group_name_H-M   'P 1'
_cell_length_a   6.50522267
_cell_length_b   6.50522267
_cell_length_c   6.50522267
_cell_angle_alpha   90.83605912
_cell_angle_beta   90.83605912
_cell_angle_gamma   90.83605912
_symmetry_Int_Tables_number   1
_chemical_formula_structural   Te8Ir3
_chemical_formula_sum   'Te8 Ir3'
_cell_volume   275.19871806
_cell_formula_units_Z   1
loop_
 _symmetry_equiv_pos_site_id
 _symmetry_equiv_pos_as_xyz
  1  'x, y, z'
loop_
 _atom_site_type_symbol
 _atom_site_label
 _atom_site_symmetry_multiplicity
 _atom_site_fract_x
 _atom_site_fract_y
 _atom_site_fract_z
 _atom_site_occupancy
  Te  Te0  1  0.86961509  0.37518697  0.12415261  1
  Te  Te1  1  0.37518697  0.12415261  0.86961509  1
  Te  Te2  1  0.12415261  0.86961509  0.37518697  1
  Te  Te3  1  0.63180315  0.63180315  0.63180315  1
  Te  Te4  1  0.13038491  0.62481303  0.87584739  1
  Te  Te5  1  0.62481303  0.87584739  0.13038491  1
  Te  Te6  1  0.87584739  0.13038491  0.62481303  1
  Te  Te7  1  0.36819685  0.36819685  0.36819685  1
  Ir  Ir0  1  0.50000000  0.00000000  0.50000000  1
  Ir  Ir1  1  -0.00000000  0.50000000  0.50000000  1
  Ir  Ir2  1  0.50000000  0.50000000  -0.00000000  1
loop_
_geom_bond_atom_site_label_1
_geom_bond_atom_site_label_2
_geom_bond_distance
_geom_bond_site_symmetry_2
Te0 Te4 2.863542 1_654
Te1 Te5 2.863542 1_546
Te2 Te6 2.863542 1_465
Te3 Te7 2.926492 1_555
Ir0 Te5 2.666878 1_545
Ir0 Te1 2.666878 1_555
Ir0 Te2 2.686632 1_545
Ir0 Te6 2.686632 1_555
Ir0 Te7 2.702907 1_555
Ir0 Te3 2.702907 1_545
Ir1 Te2 2.666878 1_555
Ir1 Te6 2.666878 1_455
Ir1 Te0 2.686632 1_455
Ir1 Te4 2.686632 1_555
Ir1 Te7 2.702907 1_555
Ir1 Te3 2.702907 1_455
Ir2 Te4 2.666878 1_554
Ir2 Te0 2.666878 1_555
Ir2 Te5 2.686632 1_555
Ir2 Te1 2.686632 1_554
Ir2 Te7 2.702907 1_555
Ir2 Te3 2.702907 1_554
