# generated using pymatgen
data_In3H11C6O19
_symmetry_space_group_name_H-M   'P 1'
_cell_length_a   8.21329273
_cell_length_b   11.34998825
_cell_length_c   11.34460704
_cell_angle_alpha   113.82866593
_cell_angle_beta   103.99206159
_cell_angle_gamma   104.13400214
_symmetry_Int_Tables_number   1
_chemical_formula_structural   In3H11C6O19
_chemical_formula_sum   'In6 H22 C12 O38'
_cell_volume   866.28051807
_cell_formula_units_Z   2
loop_
 _symmetry_equiv_pos_site_id
 _symmetry_equiv_pos_as_xyz
  1  'x, y, z'
loop_
 _atom_site_type_symbol
 _atom_site_label
 _atom_site_symmetry_multiplicity
 _atom_site_fract_x
 _atom_site_fract_y
 _atom_site_fract_z
 _atom_site_occupancy
  In  In0  1  0.44996200  0.58946500  0.59235300  1
  In  In1  1  0.85174200  0.40628400  0.99751700  1
  In  In2  1  0.85280100  0.00189300  0.40056100  1
  In  In3  1  0.95652000  0.60098400  0.59760800  1
  In  In4  1  0.35325000  0.40485400  0.00201000  1
  In  In5  1  0.35723900  0.00379400  0.40599100  1
  H  H0  1  0.19958000  0.66829000  0.49676100  1
  H  H1  1  0.69450800  0.49872400  0.16936100  1
  H  H2  1  0.52502700  0.83306200  0.33481600  1
  H  H3  1  0.69787200  0.49955000  0.66704500  1
  H  H4  1  0.02409100  0.32879300  0.83233900  1
  H  H5  1  0.19488200  0.16881600  0.49789700  1
  H  H6  1  0.53155900  0.88865900  0.67535300  1
  H  H7  1  0.86594300  0.33541500  0.22751100  1
  H  H8  1  0.64404400  0.78633600  0.10933400  1
  H  H9  1  0.05085200  0.64666300  0.86719600  1
  H  H10  1  0.15282700  0.10871000  0.78726800  1
  H  H11  1  0.36932400  0.20991500  0.32603000  1
  H  H12  1  0.53877900  0.84953400  0.79484400  1
  H  H13  1  0.71958200  0.22272200  0.07903000  1
  H  H14  1  0.74873200  0.92323900  0.10653900  1
  H  H15  1  0.12384300  0.80025200  0.89460300  1
  H  H16  1  0.23180000  0.11738000  0.93333400  1
  H  H17  1  0.30094400  0.06253300  0.18680700  1
  H  H18  1  0.03427400  0.95913900  0.02677300  1
  H  H19  1  0.80114600  0.99798100  0.91395600  1
  H  H20  1  0.89127900  0.12127000  0.06820800  1
  H  H21  1  0.50105300  0.05466600  0.03939800  1
  C  C0  1  0.35810500  0.41222000  0.27604900  1
  C  C1  1  0.07609800  0.72330600  0.13062600  1
  C  C2  1  0.94918300  0.86512500  0.58821900  1
  C  C3  1  0.86826500  0.27821300  0.41178500  1
  C  C4  1  0.44709700  0.58564100  0.86157300  1
  C  C5  1  0.58723900  0.13729900  0.72623200  1
  C  C6  1  0.42342800  0.56669200  0.31128800  1
  C  C7  1  0.11147000  0.68964300  0.25228300  1
  C  C8  1  0.85735200  0.74750800  0.43417800  1
  C  C9  1  0.91719300  0.30949000  0.56420300  1
  C  C10  1  0.35173400  0.43159300  0.74453900  1
  C  C11  1  0.60866500  0.25686000  0.69092800  1
  O  O0  1  0.47833400  0.65994000  0.43738600  1
  O  O1  1  0.04097700  0.56305200  0.21974500  1
  O  O2  1  0.81503800  0.78050300  0.34045800  1
  O  O3  1  0.96482300  0.43430800  0.65760000  1
  O  O4  1  0.30936200  0.33857700  0.77876400  1
  O  O5  1  0.53452500  0.22591100  0.56567300  1
  O  O6  1  0.58398800  0.83979700  0.72054100  1
  O  O7  1  0.84855800  0.28503300  0.12608300  1
  O  O8  1  0.75203700  0.87531300  0.16190800  1
  O  O9  1  0.10868000  0.70232300  0.83012500  1
  O  O10  1  0.25799300  0.16180100  0.87843300  1
  O  O11  1  0.38840700  0.12147800  0.28776500  1
  O  O12  1  0.34660200  0.38716900  0.37340800  1
  O  O13  1  0.96794800  0.62534500  0.01107700  1
  O  O14  1  0.96210100  0.98663700  0.61227000  1
  O  O15  1  0.86320300  0.37810200  0.38876300  1
  O  O16  1  0.46128100  0.61045400  0.98377000  1
  O  O17  1  0.48090700  0.01572900  0.62847700  1
  O  O18  1  0.20472400  0.63033200  0.56070000  1
  O  O19  1  0.63626300  0.43631600  0.06799100  1
  O  O20  1  0.56889400  0.93404600  0.37056300  1
  O  O21  1  0.70221500  0.56215400  0.62747700  1
  O  O22  1  0.06902300  0.37183500  0.93434100  1
  O  O23  1  0.13821800  0.06706600  0.43750900  1
  O  O24  1  0.50626300  0.67510500  0.82662600  1
  O  O25  1  0.67996300  0.16999700  0.84983600  1
  O  O26  1  0.84026300  0.15647600  0.32148400  1
  O  O27  1  0.00788800  0.83120500  0.67889400  1
  O  O28  1  0.32212200  0.32170500  0.15191200  1
  O  O29  1  0.16510000  0.84844500  0.16635000  1
  O  O30  1  0.32156400  0.40526600  0.61972000  1
  O  O31  1  0.70174400  0.38134700  0.78982500  1
  O  O32  1  0.91007100  0.20904300  0.58849900  1
  O  O33  1  0.83112200  0.62303600  0.40845100  1
  O  O34  1  0.41954000  0.59236000  0.21193200  1
  O  O35  1  0.20845900  0.78858300  0.37506900  1
  O  O36  1  0.85715000  0.01971300  0.01093100  1
  O  O37  1  0.15296300  0.94948400  0.02779800  1
loop_
_geom_bond_atom_site_label_1
_geom_bond_atom_site_label_2
_geom_bond_distance
_geom_bond_site_symmetry_2
In0 O21 2.135783 1_555
In0 O18 2.154586 1_555
In0 O0 2.242355 1_555
In0 O30 2.277145 1_555
In0 O24 2.306731 1_555
In0 O12 2.362696 1_555
In0 O6 2.399826 1_555
In1 O22 2.141068 1_655
In1 O19 2.155506 1_556
In1 O31 2.244245 1_555
In1 O1 2.251114 1_656
In1 O25 2.316974 1_555
In1 O13 2.361672 1_556
In1 O7 2.375844 1_556
In2 O23 2.155375 1_655
In2 O20 2.161876 1_545
In2 O2 2.237829 1_545
In2 O26 2.282336 1_555
In2 O32 2.284611 1_555
In2 O8 2.296084 1_545
In2 O14 2.444099 1_545
In3 O18 2.153107 1_655
In3 O21 2.164485 1_555
In3 O9 2.257255 1_655
In3 O3 2.264403 1_555
In3 O27 2.276545 1_655
In3 O33 2.284611 1_555
In3 O15 2.435655 1_555
In4 O19 2.151330 1_555
In4 O22 2.157091 1_554
In4 O4 2.235349 1_554
In4 O34 2.282325 1_555
In4 O28 2.288485 1_555
In4 O10 2.340573 1_554
In4 O16 2.396524 1_554
In5 O20 2.136139 1_545
In5 O23 2.148028 1_555
In5 O5 2.235845 1_555
In5 O11 2.257239 1_555
In5 O35 2.285911 1_545
In5 O29 2.384004 1_545
In5 O17 2.416091 1_555
H0 O18 0.979856 1_555
H1 O19 0.981518 1_555
H2 O20 0.979828 1_555
H3 O21 0.980173 1_555
H4 O22 0.981106 1_555
H5 O23 0.981678 1_555
H6 O6 0.997693 1_555
H7 O7 1.010157 1_555
H7 O15 1.700241 1_555
H8 O8 0.991141 1_555
H9 O9 0.982993 1_555
H10 O10 0.994523 1_555
H11 O11 0.989041 1_555
H12 O6 0.978141 1_555
H13 O7 0.981276 1_555
H14 O8 0.982973 1_555
H15 O9 1.008660 1_555
H15 O37 1.663957 1_556
H16 O10 0.976701 1_555
H17 O11 1.011778 1_555
H17 O37 1.638769 1_545
H18 O37 1.005063 1_555
H19 O36 0.981507 1_566
H20 O36 0.989131 1_555
C0 O12 1.265218 1_555
C0 O28 1.267865 1_555
C1 O13 1.257496 1_455
C1 O29 1.265109 1_555
C2 O14 1.264226 1_555
C2 O27 1.268728 1_655
C3 O26 1.264375 1_555
C3 O15 1.269775 1_555
C4 O24 1.265643 1_555
C4 O16 1.266915 1_555
C5 O17 1.266170 1_555
C5 O25 1.268488 1_555
C6 O0 1.265514 1_555
C6 O34 1.268400 1_555
C7 O1 1.264010 1_555
C7 O35 1.264344 1_555
C8 O2 1.264143 1_555
C8 O33 1.270929 1_555
C9 O3 1.264404 1_555
C9 O32 1.268184 1_555
C10 O4 1.266313 1_555
C10 O30 1.268103 1_555
C11 O5 1.259818 1_555
C11 O31 1.271374 1_555
