# generated using pymatgen
data_YNi
_symmetry_space_group_name_H-M   'P 1'
_cell_length_a   4.10365572
_cell_length_b   5.45058588
_cell_length_c   7.16870244
_cell_angle_alpha   90.00116502
_cell_angle_beta   89.99880453
_cell_angle_gamma   90.00066789
_symmetry_Int_Tables_number   1
_chemical_formula_structural   YNi
_chemical_formula_sum   'Y4 Ni4'
_cell_volume   160.34471812
_cell_formula_units_Z   4
loop_
 _symmetry_equiv_pos_site_id
 _symmetry_equiv_pos_as_xyz
  1  'x, y, z'
loop_
 _atom_site_type_symbol
 _atom_site_label
 _atom_site_symmetry_multiplicity
 _atom_site_fract_x
 _atom_site_fract_y
 _atom_site_fract_z
 _atom_site_occupancy
  Y  Y0  1  0.74999104  0.86775193  0.81963287  1
  Y  Y1  1  0.24999386  0.36777589  0.68030283  1
  Y  Y2  1  0.25000896  0.13224807  0.18036713  1
  Y  Y3  1  0.75000614  0.63222411  0.31969717  1
  Ni  Ni0  1  0.75000603  0.38044186  0.96444355  1
  Ni  Ni1  1  0.24999290  0.88038992  0.53546144  1
  Ni  Ni2  1  0.24999397  0.61955814  0.03555645  1
  Ni  Ni3  1  0.75000710  0.11961008  0.46453856  1
loop_
_geom_bond_atom_site_label_1
_geom_bond_atom_site_label_2
_geom_bond_distance
_geom_bond_site_symmetry_2
Ni0 Ni2 2.483603 1_656
Ni0 Ni2 2.483692 1_556
Ni0 Y0 2.851802 1_555
Ni0 Y1 2.891959 1_655
Ni0 Y1 2.892089 1_555
Ni0 Y3 2.892914 1_556
Ni0 Y2 2.904458 1_556
Ni0 Y2 2.904543 1_656
Ni0 Y0 2.981032 1_545
Ni1 Ni3 2.483650 1_465
Ni1 Ni3 2.483703 1_565
Ni1 Y1 2.852228 1_565
Ni1 Y0 2.892152 1_455
Ni1 Y2 2.892154 1_565
Ni1 Y0 2.892203 1_555
Ni1 Y3 2.903765 1_455
Ni1 Y3 2.903819 1_555
Ni1 Y1 2.980761 1_555
Ni2 Y2 2.851802 1_555
Ni2 Y3 2.891959 1_455
Ni2 Y3 2.892089 1_555
Ni2 Y1 2.892914 1_554
Ni2 Y0 2.904458 1_554
Ni2 Y0 2.904543 1_454
Ni2 Y2 2.981032 1_565
Ni3 Y3 2.852228 1_545
Ni3 Y2 2.892152 1_655
Ni3 Y0 2.892154 1_545
Ni3 Y2 2.892203 1_555
Ni3 Y1 2.903765 1_655
Ni3 Y1 2.903819 1_555
Ni3 Y3 2.980761 1_555
