# generated using pymatgen
data_NaCu2H3(SO5)2
_symmetry_space_group_name_H-M   'P 1'
_cell_length_a   5.47611615
_cell_length_b   5.47611615
_cell_length_c   7.68369541
_cell_angle_alpha   66.05184756
_cell_angle_beta   66.05184756
_cell_angle_gamma   70.47693747
_symmetry_Int_Tables_number   1
_chemical_formula_structural   NaCu2H3(SO5)2
_chemical_formula_sum   'Na1 Cu2 H3 S2 O10'
_cell_volume   188.45233932
_cell_formula_units_Z   1
loop_
 _symmetry_equiv_pos_site_id
 _symmetry_equiv_pos_as_xyz
  1  'x, y, z'
loop_
 _atom_site_type_symbol
 _atom_site_label
 _atom_site_symmetry_multiplicity
 _atom_site_fract_x
 _atom_site_fract_y
 _atom_site_fract_z
 _atom_site_occupancy
  Na  Na0  1  0.50012500  0.50012500  0.49986800  1
  Cu  Cu0  1  0.50289100  0.99583400  0.99814200  1
  Cu  Cu1  1  0.99583400  0.50289100  0.99814200  1
  H  H0  1  0.29274000  0.29274000  0.22326200  1
  H  H1  1  0.70814100  0.70814100  0.77912400  1
  H  H2  1  0.48266600  0.48266600  0.00830600  1
  S  S0  1  0.90997300  0.90997300  0.29930800  1
  S  S1  1  0.09043300  0.09043300  0.70026300  1
  O  O0  1  0.79210800  0.79210800  0.51557900  1
  O  O1  1  0.20811800  0.20811800  0.48381600  1
  O  O2  1  0.34209700  0.34209700  0.07454400  1
  O  O3  1  0.65672800  0.65672800  0.92753600  1
  O  O4  1  0.82636300  0.21731400  0.24269800  1
  O  O5  1  0.21731400  0.82636300  0.24269800  1
  O  O6  1  0.17412000  0.78316300  0.75699600  1
  O  O7  1  0.78316300  0.17412000  0.75699600  1
  O  O8  1  0.80819400  0.80819400  0.19343200  1
  O  O9  1  0.19209200  0.19209200  0.80619100  1
loop_
_geom_bond_atom_site_label_1
_geom_bond_atom_site_label_2
_geom_bond_distance
_geom_bond_site_symmetry_2
Na0 O9 2.585752 1_555
Na0 O8 2.586280 1_555
Na0 O0 2.673928 1_555
Na0 O1 2.675534 1_555
Na0 O4 2.695188 1_555
Na0 O5 2.695188 1_555
Na0 O6 2.695551 1_555
Na0 O7 2.695551 1_555
Cu0 O3 1.963071 1_555
Cu0 O7 1.991553 1_565
Cu0 O5 2.001641 1_556
Cu0 O2 2.020777 1_566
Cu0 O8 2.395695 1_556
Cu0 O9 2.399068 1_565
Cu1 O3 1.963071 1_555
Cu1 O6 1.991553 1_655
Cu1 O4 2.001641 1_556
Cu1 O2 2.020777 1_656
Cu1 O8 2.395695 1_556
Cu1 O9 2.399068 1_655
H0 O2 0.999619 1_555
H1 O3 0.995306 1_555
H2 O2 1.097301 1_555
H2 O3 1.359801 1_554
O0 S0 1.460005 1_555
O1 S1 1.460808 1_555
O4 S0 1.511214 1_545
O5 S0 1.511214 1_455
O6 S1 1.510847 1_565
O7 S1 1.510847 1_655
O8 S0 1.492284 1_555
O9 S1 1.491677 1_555
