# generated using pymatgen
data_ZrBrN
_symmetry_space_group_name_H-M   'P 1'
_cell_length_a   3.49647014
_cell_length_b   3.49647014
_cell_length_c   13.87353500
_cell_angle_alpha   90.00000000
_cell_angle_beta   90.00000000
_cell_angle_gamma   120.00000256
_symmetry_Int_Tables_number   1
_chemical_formula_structural   ZrBrN
_chemical_formula_sum   'Zr2 Br2 N2'
_cell_volume   146.88498420
_cell_formula_units_Z   2
loop_
 _symmetry_equiv_pos_site_id
 _symmetry_equiv_pos_as_xyz
  1  'x, y, z'
loop_
 _atom_site_type_symbol
 _atom_site_label
 _atom_site_symmetry_multiplicity
 _atom_site_fract_x
 _atom_site_fract_y
 _atom_site_fract_z
 _atom_site_occupancy
  Zr  Zr0  1  0.00000000  0.00000000  0.83620300  1
  Zr  Zr1  1  0.00000000  0.00000000  0.16379700  1
  Br  Br0  1  0.66666700  0.33333300  0.31058900  1
  Br  Br1  1  0.33333300  0.66666700  0.68941100  1
  N  N0  1  0.66666700  0.33333300  0.87908400  1
  N  N1  1  0.33333300  0.66666700  0.12091600  1
loop_
_geom_bond_atom_site_label_1
_geom_bond_atom_site_label_2
_geom_bond_distance
_geom_bond_site_symmetry_2
Br0 Zr1 2.867494 1_655
Br0 Zr1 2.867496 1_555
Br0 Zr1 2.867496 1_665
Br1 Zr0 2.867494 1_565
Br1 Zr0 2.867496 1_555
Br1 Zr0 2.867496 1_665
N0 Zr0 2.104522 1_655
N0 Zr0 2.104525 1_665
N0 Zr0 2.104525 1_555
N1 Zr1 2.104522 1_565
N1 Zr1 2.104525 1_665
N1 Zr1 2.104525 1_555
