# generated using pymatgen
data_BaNaCeBiO6
_symmetry_space_group_name_H-M   'P 1'
_cell_length_a   8.61885697
_cell_length_b   8.64185085
_cell_length_c   8.66483386
_cell_angle_alpha   90.00000000
_cell_angle_beta   90.00000000
_cell_angle_gamma   90.00000000
_symmetry_Int_Tables_number   1
_chemical_formula_structural   BaNaCeBiO6
_chemical_formula_sum   'Ba4 Na4 Ce4 Bi4 O24'
_cell_volume   645.38174970
_cell_formula_units_Z   4
loop_
 _symmetry_equiv_pos_site_id
 _symmetry_equiv_pos_as_xyz
  1  'x, y, z'
loop_
 _atom_site_type_symbol
 _atom_site_label
 _atom_site_symmetry_multiplicity
 _atom_site_fract_x
 _atom_site_fract_y
 _atom_site_fract_z
 _atom_site_occupancy
  Ba  Ba0  1  -0.00000000  -0.00000000  0.00000000  1
  Ba  Ba1  1  0.50000000  0.50000000  0.50000000  1
  Ba  Ba2  1  0.50000000  0.50000000  0.00000000  1
  Ba  Ba3  1  0.00000000  -0.00000000  0.50000000  1
  Na  Na0  1  0.00000000  0.50000000  0.50000000  1
  Na  Na1  1  0.50000000  -0.00000000  0.50000000  1
  Na  Na2  1  0.50000000  -0.00000000  -0.00000000  1
  Na  Na3  1  -0.00000000  0.50000000  0.00000000  1
  Ce  Ce0  1  0.25000000  0.25000000  0.25000000  1
  Ce  Ce1  1  0.75000000  0.75000000  0.25000000  1
  Ce  Ce2  1  0.75000000  0.25000000  0.75000000  1
  Ce  Ce3  1  0.25000000  0.75000000  0.75000000  1
  Bi  Bi0  1  0.75000000  0.75000000  0.75000000  1
  Bi  Bi1  1  0.25000000  0.25000000  0.75000000  1
  Bi  Bi2  1  0.25000000  0.75000000  0.25000000  1
  Bi  Bi3  1  0.75000000  0.25000000  0.25000000  1
  O  O0  1  0.99538399  0.21463313  0.27046925  1
  O  O1  1  0.00461601  0.78536687  0.27046925  1
  O  O2  1  0.00461601  0.21463313  0.72953075  1
  O  O3  1  0.99538399  0.78536687  0.72953075  1
  O  O4  1  0.27003568  0.99500574  0.20995233  1
  O  O5  1  0.27003568  0.00499426  0.79004767  1
  O  O6  1  0.72996432  0.00499426  0.20995233  1
  O  O7  1  0.72996432  0.99500574  0.79004767  1
  O  O8  1  0.21989879  0.28604585  0.99457389  1
  O  O9  1  0.78010121  0.28604585  0.00542611  1
  O  O10  1  0.21989879  0.71395415  0.00542611  1
  O  O11  1  0.78010121  0.71395415  0.99457389  1
  O  O12  1  0.50461601  0.28536687  0.22953075  1
  O  O13  1  0.49538399  0.71463313  0.22953075  1
  O  O14  1  0.49538399  0.28536687  0.77046925  1
  O  O15  1  0.50461601  0.71463313  0.77046925  1
  O  O16  1  0.22996432  0.50499426  0.29004767  1
  O  O17  1  0.22996432  0.49500574  0.70995233  1
  O  O18  1  0.77003568  0.49500574  0.29004767  1
  O  O19  1  0.77003568  0.50499426  0.70995233  1
  O  O20  1  0.28010121  0.21395415  0.50542611  1
  O  O21  1  0.71989879  0.21395415  0.49457389  1
  O  O22  1  0.28010121  0.78604585  0.49457389  1
  O  O23  1  0.71989879  0.78604585  0.50542611  1
loop_
_geom_bond_atom_site_label_1
_geom_bond_atom_site_label_2
_geom_bond_distance
_geom_bond_site_symmetry_2
Ba0 O4 2.954343 1_545
Ba0 O5 2.954343 1_554
Ba0 O7 2.954343 1_444
Ba0 O6 2.954343 1_455
Ba0 O2 2.989029 1_554
Ba0 O1 2.989029 1_545
Ba0 O0 2.989029 1_455
Ba0 O3 2.989029 1_444
Ba0 O9 3.115268 1_455
Ba0 O11 3.115268 1_444
Ba0 O10 3.115268 1_545
Ba0 O8 3.115268 1_554
Ba1 O16 2.954343 1_555
Ba1 O19 2.954343 1_555
Ba1 O17 2.954343 1_555
Ba1 O18 2.954343 1_555
Ba1 O15 2.989029 1_555
Ba1 O14 2.989029 1_555
Ba1 O12 2.989029 1_555
Ba1 O13 2.989029 1_555
Ba1 O21 3.115268 1_555
Ba1 O22 3.115268 1_555
Ba1 O20 3.115268 1_555
Ba1 O23 3.115268 1_555
Ba2 O15 2.719830 1_554
Ba2 O13 2.719830 1_555
Ba2 O12 2.719830 1_555
Ba2 O14 2.719830 1_554
Ba2 O10 3.041216 1_555
Ba2 O11 3.041216 1_554
Ba2 O9 3.041216 1_555
Ba2 O8 3.041216 1_554
Ba3 O1 2.719830 1_545
Ba3 O3 2.719830 1_445
Ba3 O0 2.719830 1_455
Ba3 O2 2.719830 1_555
Ba3 O22 3.041216 1_545
Ba3 O23 3.041216 1_445
Ba3 O20 3.041216 1_555
Ba3 O21 3.041216 1_455
Na0 O16 2.690688 1_555
Na0 O19 2.690688 1_455
Na0 O17 2.690688 1_555
Na0 O18 2.690688 1_455
Na1 O23 2.648195 1_545
Na1 O22 2.648195 1_545
Na1 O20 2.648195 1_555
Na1 O21 2.648195 1_555
Na2 O6 2.690688 1_555
Na2 O4 2.690688 1_545
Na2 O7 2.690688 1_544
Na2 O5 2.690688 1_554
Na3 O10 2.648195 1_555
Na3 O11 2.648195 1_454
Na3 O8 2.648195 1_554
Na3 O9 2.648195 1_455
Ce0 O0 2.222768 1_455
Ce0 O12 2.222768 1_555
Ce0 O16 2.237451 1_555
Ce0 O4 2.237451 1_545
Ce0 O8 2.250046 1_554
Ce0 O20 2.250046 1_555
Ce1 O1 2.222768 1_655
Ce1 O13 2.222768 1_555
Ce1 O6 2.237451 1_565
Ce1 O18 2.237451 1_555
Ce1 O23 2.250046 1_555
Ce1 O11 2.250046 1_554
Ce2 O2 2.222768 1_655
Ce2 O14 2.222768 1_555
Ce2 O7 2.237451 1_545
Ce2 O19 2.237451 1_555
Ce2 O9 2.250046 1_556
Ce2 O21 2.250046 1_555
Ce3 O15 2.222768 1_555
Ce3 O3 2.222768 1_455
Ce3 O5 2.237451 1_565
Ce3 O17 2.237451 1_555
Ce3 O10 2.250046 1_556
Ce3 O22 2.250046 1_555
Bi0 O3 2.144247 1_555
Bi0 O15 2.144247 1_555
Bi0 O7 2.152488 1_555
Bi0 O19 2.152488 1_555
Bi0 O23 2.157618 1_555
Bi0 O11 2.157618 1_555
Bi1 O2 2.144247 1_555
Bi1 O14 2.144247 1_555
Bi1 O5 2.152488 1_555
Bi1 O17 2.152488 1_555
Bi1 O20 2.157618 1_555
Bi1 O8 2.157618 1_555
Bi2 O1 2.144247 1_555
Bi2 O13 2.144247 1_555
Bi2 O16 2.152488 1_555
Bi2 O4 2.152488 1_555
Bi2 O10 2.157618 1_555
Bi2 O22 2.157618 1_555
Bi3 O0 2.144247 1_555
Bi3 O12 2.144247 1_555
Bi3 O6 2.152488 1_555
Bi3 O18 2.152488 1_555
Bi3 O21 2.157618 1_555
Bi3 O9 2.157618 1_555
