# generated using pymatgen
data_Ba2SrB18
_symmetry_space_group_name_H-M   'P 1'
_cell_length_a   4.25349000
_cell_length_b   4.25349000
_cell_length_c   12.75964500
_cell_angle_alpha   90.00000000
_cell_angle_beta   90.00000000
_cell_angle_gamma   90.00000000
_symmetry_Int_Tables_number   1
_chemical_formula_structural   Ba2SrB18
_chemical_formula_sum   'Ba2 Sr1 B18'
_cell_volume   230.84975810
_cell_formula_units_Z   1
loop_
 _symmetry_equiv_pos_site_id
 _symmetry_equiv_pos_as_xyz
  1  'x, y, z'
loop_
 _atom_site_type_symbol
 _atom_site_label
 _atom_site_symmetry_multiplicity
 _atom_site_fract_x
 _atom_site_fract_y
 _atom_site_fract_z
 _atom_site_occupancy
  Ba  Ba0  1  0.00000000  0.00000000  0.33294500  1
  Ba  Ba1  1  0.00000000  0.00000000  0.66705500  1
  Sr  Sr0  1  0.00000000  0.00000000  0.00000000  1
  B  B0  1  0.20411000  0.50000000  0.16532000  1
  B  B1  1  0.20458100  0.50000000  0.50000000  1
  B  B2  1  0.20411000  0.50000000  0.83468000  1
  B  B3  1  0.50000000  0.50000000  0.26424300  1
  B  B4  1  0.50000000  0.50000000  0.59864300  1
  B  B5  1  0.50000000  0.50000000  0.93278600  1
  B  B6  1  0.50000000  0.20411000  0.16532000  1
  B  B7  1  0.50000000  0.20458100  0.50000000  1
  B  B8  1  0.50000000  0.20411000  0.83468000  1
  B  B9  1  0.50000000  0.50000000  0.06721400  1
  B  B10  1  0.50000000  0.50000000  0.40135700  1
  B  B11  1  0.50000000  0.50000000  0.73575700  1
  B  B12  1  0.50000000  0.79589000  0.16532000  1
  B  B13  1  0.50000000  0.79541900  0.50000000  1
  B  B14  1  0.50000000  0.79589000  0.83468000  1
  B  B15  1  0.79589000  0.50000000  0.16532000  1
  B  B16  1  0.79541900  0.50000000  0.50000000  1
  B  B17  1  0.79589000  0.50000000  0.83468000  1
loop_
_geom_bond_atom_site_label_1
_geom_bond_atom_site_label_2
_geom_bond_distance
_geom_bond_site_symmetry_2
B0 B15 1.736360 1_455
B0 B9 1.775101 1_555
B0 B12 1.779880 1_555
B0 B6 1.779880 1_555
B0 B3 1.782468 1_555
B0 Sr0 3.118726 1_555
B0 Sr0 3.118726 1_565
B0 Ba0 3.138694 1_555
B0 Ba0 3.138694 1_565
B1 B16 1.740366 1_455
B1 B7 1.777047 1_555
B1 B13 1.777047 1_555
B1 B10 1.778524 1_555
B1 B4 1.778524 1_555
B1 Ba1 3.134298 1_565
B1 Ba1 3.134298 1_555
B1 Ba0 3.134298 1_565
B1 Ba0 3.134298 1_555
B2 B5 1.775101 1_555
B2 B8 1.779880 1_555
B2 Sr0 3.118726 1_556
B2 Sr0 3.118726 1_566
B2 Ba1 3.138694 1_555
B2 Ba1 3.138694 1_565
B3 B6 1.782468 1_555
B3 Ba0 3.132816 1_655
B3 Ba0 3.132816 1_665
B3 Ba0 3.132816 1_565
B3 Ba0 3.132816 1_555
B4 B7 1.778524 1_555
B4 Ba1 3.131783 1_655
B4 Ba1 3.131783 1_565
B4 Ba1 3.131783 1_665
B4 Ba1 3.131783 1_555
B5 B9 1.715254 1_556
B5 B8 1.775101 1_555
B5 Sr0 3.127557 1_556
B5 Sr0 3.127557 1_566
B5 Sr0 3.127557 1_656
B5 Sr0 3.127557 1_666
B6 B9 1.775101 1_555
B6 Sr0 3.118726 1_555
B6 Sr0 3.118726 1_655
B6 Ba0 3.138694 1_655
B6 Ba0 3.138694 1_555
B7 Ba1 3.134298 1_655
B7 Ba1 3.134298 1_555
B7 Ba0 3.134298 1_655
B7 Ba0 3.134298 1_555
B8 Sr0 3.118726 1_556
B8 Sr0 3.118726 1_656
B8 Ba1 3.138694 1_555
B8 Ba1 3.138694 1_655
B9 Sr0 3.127557 1_555
B9 Sr0 3.127557 1_565
B9 Sr0 3.127557 1_655
B9 Sr0 3.127557 1_665
B10 B3 1.749526 1_555
B10 B7 1.778524 1_555
B10 B13 1.778524 1_555
B10 B16 1.778524 1_555
B10 Ba0 3.131783 1_555
B10 Ba0 3.131783 1_655
B10 Ba0 3.131783 1_565
B10 Ba0 3.131783 1_665
B11 B4 1.749526 1_555
B11 B14 1.782468 1_555
B11 B8 1.782468 1_555
B11 B17 1.782468 1_555
B11 B2 1.782468 1_555
B11 Ba1 3.132816 1_655
B11 Ba1 3.132816 1_565
B11 Ba1 3.132816 1_665
B11 Ba1 3.132816 1_555
B12 B6 1.736360 1_565
B12 B9 1.775101 1_555
B12 B15 1.779880 1_555
B12 B3 1.782468 1_555
B12 Sr0 3.118726 1_665
B12 Sr0 3.118726 1_565
B12 Ba0 3.138694 1_665
B12 Ba0 3.138694 1_565
B13 B7 1.740366 1_565
B13 B16 1.777047 1_555
B13 B4 1.778524 1_555
B13 Ba1 3.134298 1_565
B13 Ba1 3.134298 1_665
B13 Ba0 3.134298 1_565
B13 Ba0 3.134298 1_665
B14 B8 1.736360 1_565
B14 B5 1.775101 1_555
B14 B17 1.779880 1_555
B14 B2 1.779880 1_555
B14 Sr0 3.118726 1_566
B14 Sr0 3.118726 1_666
B14 Ba1 3.138694 1_565
B14 Ba1 3.138694 1_665
B15 B9 1.775101 1_555
B15 B6 1.779880 1_555
B15 B3 1.782468 1_555
B15 Sr0 3.118726 1_655
B15 Sr0 3.118726 1_665
B15 Ba0 3.138694 1_665
B15 Ba0 3.138694 1_655
B16 B7 1.777047 1_555
B16 B4 1.778524 1_555
B16 Ba1 3.134298 1_655
B16 Ba1 3.134298 1_665
B16 Ba0 3.134298 1_665
B16 Ba0 3.134298 1_655
B17 B2 1.736360 1_655
B17 B5 1.775101 1_555
B17 B8 1.779880 1_555
B17 Sr0 3.118726 1_666
B17 Sr0 3.118726 1_656
B17 Ba1 3.138694 1_655
B17 Ba1 3.138694 1_665
