# generated using pymatgen
data_CoHSO4
_symmetry_space_group_name_H-M   'P 1'
_cell_length_a   5.20577719
_cell_length_b   5.20577719
_cell_length_c   7.12730798
_cell_angle_alpha   111.69547454
_cell_angle_beta   111.69547454
_cell_angle_gamma   100.27535973
_symmetry_Int_Tables_number   1
_chemical_formula_structural   CoHSO4
_chemical_formula_sum   'Co2 H2 S2 O8'
_cell_volume   155.25655517
_cell_formula_units_Z   2
loop_
 _symmetry_equiv_pos_site_id
 _symmetry_equiv_pos_as_xyz
  1  'x, y, z'
loop_
 _atom_site_type_symbol
 _atom_site_label
 _atom_site_symmetry_multiplicity
 _atom_site_fract_x
 _atom_site_fract_y
 _atom_site_fract_z
 _atom_site_occupancy
  Co  Co0  1  0.50000000  0.00000000  0.00000000  1
  Co  Co1  1  0.00000000  0.50000000  0.50000000  1
  H  H0  1  0.30779900  0.69220100  0.75000000  1
  H  H1  1  0.69220100  0.30779900  0.25000000  1
  S  S0  1  0.91752500  0.08247500  0.75000000  1
  S  S1  1  0.08247500  0.91752500  0.25000000  1
  O  O0  1  0.78567500  0.16418000  0.90424100  1
  O  O1  1  0.21432500  0.83582000  0.09575900  1
  O  O2  1  0.83582000  0.21432500  0.59575900  1
  O  O3  1  0.16418000  0.78567500  0.40424100  1
  O  O4  1  0.24992100  0.20234500  0.88871300  1
  O  O5  1  0.75007900  0.79765500  0.11128700  1
  O  O6  1  0.79765500  0.75007900  0.61128700  1
  O  O7  1  0.20234500  0.24992100  0.38871300  1
loop_
_geom_bond_atom_site_label_1
_geom_bond_atom_site_label_2
_geom_bond_distance
_geom_bond_site_symmetry_2
Co0 H1 1.656053 1_555
Co0 H0 1.656053 1_544
Co0 O4 1.943460 1_554
Co0 O5 1.943460 1_545
Co0 O1 2.033764 1_545
Co0 O0 2.033764 1_554
Co1 H0 1.656053 1_555
Co1 H1 1.656053 1_455
Co1 O7 1.943460 1_555
Co1 O6 1.943460 1_455
Co1 O2 2.033764 1_455
Co1 O3 2.033764 1_555
O0 S0 1.475421 1_555
O1 S1 1.475421 1_555
O2 S0 1.475421 1_555
O3 S1 1.475421 1_555
O4 S0 1.501619 1_455
O5 S1 1.501619 1_655
O6 S0 1.501619 1_565
O7 S1 1.501619 1_545
