# generated using pymatgen
data_EuAu2
_symmetry_space_group_name_H-M   'P 1'
_cell_length_a   4.71097374
_cell_length_b   5.99005693
_cell_length_c   5.99004010
_cell_angle_alpha   74.73165246
_cell_angle_beta   66.84413262
_cell_angle_gamma   66.84420148
_symmetry_Int_Tables_number   1
_chemical_formula_structural   EuAu2
_chemical_formula_sum   'Eu2 Au4'
_cell_volume   141.70859761
_cell_formula_units_Z   2
loop_
 _symmetry_equiv_pos_site_id
 _symmetry_equiv_pos_as_xyz
  1  'x, y, z'
loop_
 _atom_site_type_symbol
 _atom_site_label
 _atom_site_symmetry_multiplicity
 _atom_site_fract_x
 _atom_site_fract_y
 _atom_site_fract_z
 _atom_site_occupancy
  Eu  Eu0  1  0.53818980  0.71181020  0.21181020  1
  Eu  Eu1  1  0.46181672  0.28818428  0.78818528  1
  Au  Au0  1  0.16272485  0.29658152  0.37796878  1
  Au  Au1  1  0.83727139  0.70340022  0.62205600  1
  Au  Au2  1  0.83727339  0.12205500  0.20339922  1
  Au  Au3  1  0.16272385  0.87796978  0.79658252  1
loop_
_geom_bond_atom_site_label_1
_geom_bond_atom_site_label_2
_geom_bond_distance
_geom_bond_site_symmetry_2
Au0 Au1 2.757146 1_455
Au0 Au2 2.763015 1_455
Au0 Au2 2.763020 1_555
Au0 Au3 3.043626 1_545
Au0 Eu1 3.254487 1_554
Au0 Eu1 3.260030 1_455
Au0 Eu1 3.260039 1_555
Au0 Eu0 3.328257 1_555
Au0 Eu0 3.328258 1_455
Au0 Eu0 3.459455 1_545
Au1 Au3 2.763016 1_555
Au1 Au3 2.763019 1_655
Au1 Au2 3.043939 1_565
Au1 Eu0 3.254336 1_556
Au1 Eu0 3.260139 1_555
Au1 Eu0 3.260143 1_655
Au1 Eu1 3.328175 1_555
Au1 Eu1 3.328188 1_655
Au1 Eu1 3.459461 1_565
Au2 Au3 2.757126 1_644
Au2 Eu0 3.254353 1_555
Au2 Eu0 3.260140 1_645
Au2 Eu0 3.260143 1_545
Au2 Eu1 3.328167 1_554
Au2 Eu1 3.328174 1_654
Au2 Eu1 3.459463 1_555
Au3 Eu1 3.254509 1_555
Au3 Eu1 3.260027 1_465
Au3 Eu1 3.260037 1_565
Au3 Eu0 3.328250 1_556
Au3 Eu0 3.328251 1_456
Au3 Eu0 3.459454 1_555
