# generated using pymatgen
data_Ba6LiNb2Ir(ClO6)2
_symmetry_space_group_name_H-M   'P 1'
_cell_length_a   6.06167301
_cell_length_b   6.06102199
_cell_length_c   15.08197804
_cell_angle_alpha   89.99578239
_cell_angle_beta   89.99585019
_cell_angle_gamma   120.00068085
_symmetry_Int_Tables_number   1
_chemical_formula_structural   Ba6LiNb2Ir(ClO6)2
_chemical_formula_sum   'Ba6 Li1 Nb2 Ir1 Cl2 O12'
_cell_volume   479.87079136
_cell_formula_units_Z   1
loop_
 _symmetry_equiv_pos_site_id
 _symmetry_equiv_pos_as_xyz
  1  'x, y, z'
loop_
 _atom_site_type_symbol
 _atom_site_label
 _atom_site_symmetry_multiplicity
 _atom_site_fract_x
 _atom_site_fract_y
 _atom_site_fract_z
 _atom_site_occupancy
  Ba  Ba0  1  0.33336800  0.66668900  0.35678500  1
  Ba  Ba1  1  0.33331300  0.66668100  0.79439200  1
  Ba  Ba2  1  0.66663200  0.33331100  0.64321500  1
  Ba  Ba3  1  0.66663800  0.33332000  0.93229600  1
  Ba  Ba4  1  0.33336200  0.66668000  0.06770400  1
  Ba  Ba5  1  0.66668700  0.33331900  0.20560800  1
  Li  Li0  1  0.00000000  0.00000000  0.50000000  1
  Nb  Nb0  1  0.99994600  0.99992300  0.81665600  1
  Nb  Nb1  1  0.00005400  0.00007700  0.18334400  1
  Ir  Ir0  1  0.00000000  0.00000000  0.00000000  1
  Cl  Cl0  1  0.66671100  0.33333000  0.42821600  1
  Cl  Cl1  1  0.33328900  0.66667000  0.57178400  1
  O  O0  1  0.15468300  0.30935900  0.91626400  1
  O  O1  1  0.32090400  0.16045300  0.75670600  1
  O  O2  1  0.16045700  0.32094000  0.24331400  1
  O  O3  1  0.83954300  0.67906000  0.75668600  1
  O  O4  1  0.83955100  0.16047200  0.75671300  1
  O  O5  1  0.84531700  0.69064100  0.08373600  1
  O  O6  1  0.16044900  0.83952800  0.24328700  1
  O  O7  1  0.30937300  0.15469900  0.08378300  1
  O  O8  1  0.84529300  0.15471200  0.08378600  1
  O  O9  1  0.69062700  0.84530100  0.91621700  1
  O  O10  1  0.67909600  0.83954700  0.24329400  1
  O  O11  1  0.15470700  0.84528800  0.91621400  1
loop_
_geom_bond_atom_site_label_1
_geom_bond_atom_site_label_2
_geom_bond_distance
_geom_bond_site_symmetry_2
Ba0 O10 2.494578 1_555
Ba0 O2 2.494624 1_555
Ba0 O6 2.494864 1_555
Ba0 Cl1 3.242610 1_555
Ba0 Cl0 3.661392 1_565
Ba0 Cl0 3.661571 1_455
Ba0 Cl0 3.661781 1_555
Ba1 O11 2.625225 1_555
Ba1 O9 2.625858 1_555
Ba1 O0 2.625908 1_555
Ba1 O1 3.083864 1_565
Ba1 O4 3.084140 1_455
Ba1 O4 3.084166 1_565
Ba1 O3 3.084205 1_455
Ba1 O1 3.084217 1_555
Ba1 O3 3.084613 1_555
Ba1 Cl1 3.357369 1_555
Ba2 O1 2.494578 1_555
Ba2 O3 2.494624 1_555
Ba2 O4 2.494864 1_555
Ba2 Cl0 3.242610 1_555
Ba2 Cl1 3.661392 1_545
Ba2 Cl1 3.661571 1_655
Ba2 Cl1 3.661781 1_555
Ba3 O5 2.955597 1_556
Ba3 O7 2.955719 1_556
Ba3 O8 2.955878 1_556
Ba3 O9 3.042695 1_555
Ba3 O11 3.042859 1_545
Ba3 O9 3.042912 1_545
Ba3 O0 3.042937 1_555
Ba3 O11 3.042981 1_655
Ba3 O0 3.043198 1_655
Ba3 O4 3.210433 1_555
Ba3 O3 3.210450 1_555
Ba3 O1 3.210673 1_555
Ba4 O0 2.955597 1_554
Ba4 O9 2.955719 1_554
Ba4 O11 2.955878 1_554
Ba4 O7 3.042695 1_555
Ba4 O8 3.042859 1_565
Ba4 O7 3.042912 1_565
Ba4 O5 3.042937 1_555
Ba4 O8 3.042981 1_455
Ba4 O5 3.043198 1_455
Ba4 O6 3.210433 1_555
Ba4 O2 3.210450 1_555
Ba4 O10 3.210673 1_555
Ba5 O8 2.625225 1_555
Ba5 O7 2.625858 1_555
Ba5 O5 2.625908 1_555
Ba5 O10 3.083864 1_545
Ba5 O6 3.084140 1_655
Ba5 O6 3.084166 1_545
Ba5 O2 3.084205 1_655
Ba5 O10 3.084217 1_555
Ba5 O2 3.084613 1_555
Ba5 Cl0 3.357369 1_555
Nb0 O3 1.911797 1_555
Nb0 O4 1.911973 1_565
Nb0 O1 1.912052 1_665
Nb0 O9 2.211510 1_555
Nb0 O11 2.211862 1_655
Nb0 O0 2.212593 1_665
Nb1 O2 1.911797 1_555
Nb1 O6 1.911973 1_545
Nb1 O10 1.912052 1_445
Nb1 O7 2.211510 1_555
Nb1 O8 2.211862 1_455
Nb1 O5 2.212593 1_445
Ir0 O5 2.056983 1_445
Ir0 O0 2.056983 1_554
Ir0 O7 2.057866 1_555
Ir0 O9 2.057866 1_444
Ir0 O8 2.057904 1_455
Ir0 O11 2.057904 1_544
