# generated using pymatgen
data_BaNa2Fe4F12
_symmetry_space_group_name_H-M   'P 1'
_cell_length_a   7.05589106
_cell_length_b   7.05589106
_cell_length_c   8.09458642
_cell_angle_alpha   55.08234455
_cell_angle_beta   55.08234455
_cell_angle_gamma   70.36966148
_symmetry_Int_Tables_number   1
_chemical_formula_structural   BaNa2Fe4F12
_chemical_formula_sum   'Ba1 Na2 Fe4 F12'
_cell_volume   270.93618461
_cell_formula_units_Z   1
loop_
 _symmetry_equiv_pos_site_id
 _symmetry_equiv_pos_as_xyz
  1  'x, y, z'
loop_
 _atom_site_type_symbol
 _atom_site_label
 _atom_site_symmetry_multiplicity
 _atom_site_fract_x
 _atom_site_fract_y
 _atom_site_fract_z
 _atom_site_occupancy
  Ba  Ba0  1  0.99952300  0.99952300  0.00055200  1
  Na  Na0  1  0.44990500  0.44990500  0.04920200  1
  Na  Na1  1  0.50115800  0.50115800  0.45787500  1
  Fe  Fe0  1  0.50202200  0.00018100  0.99471300  1
  Fe  Fe1  1  0.99286700  0.50062800  0.50426600  1
  Fe  Fe2  1  0.50062800  0.99286700  0.50426600  1
  Fe  Fe3  1  0.00018100  0.50202200  0.99471300  1
  F  F0  1  0.29019300  0.70733300  0.81147300  1
  F  F1  1  0.70262000  0.29477700  0.19712300  1
  F  F2  1  0.70733300  0.29019300  0.81147300  1
  F  F3  1  0.29477700  0.70262000  0.19712300  1
  F  F4  1  0.90438800  0.51950400  0.28646200  1
  F  F5  1  0.09941000  0.47836800  0.70965700  1
  F  F6  1  0.47836800  0.09941000  0.70965700  1
  F  F7  1  0.51950400  0.90438800  0.28646200  1
  F  F8  1  0.79407900  0.79407900  0.92499300  1
  F  F9  1  0.21136100  0.21136100  0.07555500  1
  F  F10  1  0.79728300  0.79728300  0.48417600  1
  F  F11  1  0.21340000  0.21340000  0.50025500  1
loop_
_geom_bond_atom_site_label_1
_geom_bond_atom_site_label_2
_geom_bond_distance
_geom_bond_site_symmetry_2
Ba0 F10 2.824115 1_555
Ba0 F0 2.824364 1_654
Ba0 F2 2.824364 1_564
Ba0 F8 2.831700 1_554
Ba0 F5 2.837104 1_664
Ba0 F6 2.837104 1_664
Ba0 F7 2.837923 1_555
Ba0 F4 2.837923 1_555
Ba0 F1 2.882178 1_565
Ba0 F3 2.882178 1_655
Ba0 F9 2.900988 1_665
Ba0 F11 2.914168 1_664
F0 Fe2 2.120146 1_555
F0 Fe3 2.131480 1_555
F0 Na0 2.319048 1_556
F1 Fe3 2.147768 1_654
F1 Fe2 2.161201 1_545
F1 Na0 2.333184 1_555
F1 Na1 2.699848 1_555
F2 Fe1 2.120146 1_555
F2 Fe0 2.131480 1_555
F2 Na0 2.319048 1_556
F3 Fe0 2.147768 1_564
F3 Fe1 2.161201 1_455
F3 Na0 2.333184 1_555
F3 Na1 2.699848 1_555
F4 Fe1 2.109769 1_555
F4 Fe3 2.121153 1_654
F4 Na1 2.357829 1_555
F5 Fe3 2.086889 1_555
F5 Fe1 2.099150 1_455
F5 Na1 2.352087 1_555
F6 Fe0 2.086889 1_555
F6 Fe2 2.099150 1_545
F6 Na1 2.352087 1_555
F7 Fe2 2.109769 1_555
F7 Fe0 2.121153 1_564
F7 Na1 2.357829 1_555
F8 Fe0 2.067486 1_565
F8 Fe3 2.067486 1_655
F9 Fe0 2.093127 1_554
F9 Fe3 2.093127 1_554
F9 Na0 2.606307 1_555
F10 Fe2 2.058790 1_555
F10 Fe1 2.058790 1_555
F11 Fe1 2.104346 1_455
F11 Fe2 2.104346 1_545
F11 Na0 2.611709 1_555
