# generated using pymatgen
data_Pu2SnHg
_symmetry_space_group_name_H-M   'P 1'
_cell_length_a   5.34354054
_cell_length_b   5.34354054
_cell_length_c   5.34354054
_cell_angle_alpha   60.00000000
_cell_angle_beta   60.00000000
_cell_angle_gamma   60.00000000
_symmetry_Int_Tables_number   1
_chemical_formula_structural   Pu2SnHg
_chemical_formula_sum   'Pu2 Sn1 Hg1'
_cell_volume   107.88779759
_cell_formula_units_Z   1
loop_
 _symmetry_equiv_pos_site_id
 _symmetry_equiv_pos_as_xyz
  1  'x, y, z'
loop_
 _atom_site_type_symbol
 _atom_site_label
 _atom_site_symmetry_multiplicity
 _atom_site_fract_x
 _atom_site_fract_y
 _atom_site_fract_z
 _atom_site_occupancy
  Pu  Pu0  1  0.25000000  0.25000000  0.25000000  1
  Pu  Pu1  1  0.75000000  0.75000000  0.75000000  1
  Sn  Sn0  1  -0.00000000  0.00000000  -0.00000000  1
  Hg  Hg0  1  0.50000000  0.50000000  0.50000000  1
loop_
_geom_bond_atom_site_label_1
_geom_bond_atom_site_label_2
_geom_bond_distance
_geom_bond_site_symmetry_2
Pu0 Sn0 3.272237 1_565
Pu0 Sn0 3.272237 1_655
Pu0 Sn0 3.272237 1_556
Pu0 Sn0 3.272237 1_555
Pu1 Sn0 3.272237 1_656
Pu1 Sn0 3.272237 1_566
Pu1 Sn0 3.272237 1_666
Pu1 Sn0 3.272237 1_665
Hg0 Pu0 3.272237 1_565
Hg0 Pu0 3.272237 1_655
Hg0 Pu1 3.272237 1_455
Hg0 Pu1 3.272237 1_545
Hg0 Pu1 3.272237 1_554
Hg0 Pu0 3.272237 1_555
Hg0 Pu0 3.272237 1_556
Hg0 Pu1 3.272237 1_555
