# generated using pymatgen
data_BaYCo2O5
_symmetry_space_group_name_H-M   'P 1'
_cell_length_a   3.90787500
_cell_length_b   3.90787500
_cell_length_c   7.69164100
_cell_angle_alpha   90.00000000
_cell_angle_beta   90.00000000
_cell_angle_gamma   90.00000000
_symmetry_Int_Tables_number   1
_chemical_formula_structural   BaYCo2O5
_chemical_formula_sum   'Ba1 Y1 Co2 O5'
_cell_volume   117.46279566
_cell_formula_units_Z   1
loop_
 _symmetry_equiv_pos_site_id
 _symmetry_equiv_pos_as_xyz
  1  'x, y, z'
loop_
 _atom_site_type_symbol
 _atom_site_label
 _atom_site_symmetry_multiplicity
 _atom_site_fract_x
 _atom_site_fract_y
 _atom_site_fract_z
 _atom_site_occupancy
  Ba  Ba0  1  0.00000000  0.00000000  0.00000000  1
  Y  Y0  1  0.00000000  0.00000000  0.50000000  1
  Co  Co0  1  0.50000000  0.50000000  0.26078300  1
  Co  Co1  1  0.50000000  0.50000000  0.73921700  1
  O  O0  1  0.50000000  0.50000000  0.00000000  1
  O  O1  1  0.50000000  0.00000000  0.68353900  1
  O  O2  1  0.50000000  0.00000000  0.31646100  1
  O  O3  1  0.00000000  0.50000000  0.31646100  1
  O  O4  1  0.00000000  0.50000000  0.68353900  1
loop_
_geom_bond_atom_site_label_1
_geom_bond_atom_site_label_2
_geom_bond_distance
_geom_bond_site_symmetry_2
Ba0 O0 2.763285 1_545
Ba0 O0 2.763285 1_455
Ba0 O0 2.763285 1_555
Ba0 O0 2.763285 1_445
Ba0 O4 3.121336 1_554
Ba0 O1 3.121336 1_554
Ba0 O3 3.121336 1_545
Ba0 O3 3.121336 1_555
Ba0 O1 3.121336 1_454
Ba0 O2 3.121336 1_455
Ba0 O4 3.121336 1_544
Ba0 O2 3.121336 1_555
Co0 O3 2.000319 1_555
Co0 O2 2.000319 1_555
Co0 O2 2.000319 1_565
Co0 O3 2.000319 1_655
Co0 O0 2.005849 1_555
Co1 O1 2.000319 1_565
Co1 O4 2.000319 1_555
Co1 O1 2.000319 1_555
Co1 O4 2.000319 1_655
Co1 O0 2.005849 1_556
O1 Y0 2.410563 1_555
O1 Y0 2.410563 1_655
O2 Y0 2.410563 1_555
O2 Y0 2.410563 1_655
O3 Y0 2.410563 1_565
O3 Y0 2.410563 1_555
O4 Y0 2.410563 1_565
O4 Y0 2.410563 1_555
