# generated using pymatgen
data_Dy2Mo3H2Se2O17
_symmetry_space_group_name_H-M   'P 1'
_cell_length_a   7.30538400
_cell_length_b   6.86392300
_cell_length_c   14.36747701
_cell_angle_alpha   80.26567147
_cell_angle_beta   90.00000000
_cell_angle_gamma   90.00000000
_symmetry_Int_Tables_number   1
_chemical_formula_structural   Dy2Mo3H2Se2O17
_chemical_formula_sum   'Dy4 Mo6 H4 Se4 O34'
_cell_volume   710.06431947
_cell_formula_units_Z   2
loop_
 _symmetry_equiv_pos_site_id
 _symmetry_equiv_pos_as_xyz
  1  'x, y, z'
loop_
 _atom_site_type_symbol
 _atom_site_label
 _atom_site_symmetry_multiplicity
 _atom_site_fract_x
 _atom_site_fract_y
 _atom_site_fract_z
 _atom_site_occupancy
  Dy  Dy0  1  0.25000000  0.38719300  0.54102500  1
  Dy  Dy1  1  0.75000000  0.61280700  0.45897500  1
  Dy  Dy2  1  0.25000000  0.74431600  0.12204600  1
  Dy  Dy3  1  0.75000000  0.25568400  0.87795400  1
  Mo  Mo0  1  0.00439900  0.21022300  0.13771500  1
  Mo  Mo1  1  0.50439900  0.78977700  0.86228500  1
  Mo  Mo2  1  0.99560100  0.78977700  0.86228500  1
  Mo  Mo3  1  0.49560100  0.21022300  0.13771500  1
  Mo  Mo4  1  0.75000000  0.12983600  0.33219300  1
  Mo  Mo5  1  0.25000000  0.87016400  0.66780700  1
  H  H0  1  0.35669600  0.24690100  0.36029200  1
  H  H1  1  0.85669600  0.75309900  0.63970800  1
  H  H2  1  0.64330400  0.75309900  0.63970800  1
  H  H3  1  0.14330400  0.24690100  0.36029200  1
  Se  Se0  1  0.25000000  0.78942500  0.38255500  1
  Se  Se1  1  0.75000000  0.21057500  0.61744500  1
  Se  Se2  1  0.75000000  0.74726400  0.18931400  1
  Se  Se3  1  0.25000000  0.25273600  0.81068600  1
  O  O0  1  0.07331200  0.64881900  0.44436700  1
  O  O1  1  0.57331200  0.35118100  0.55563300  1
  O  O2  1  0.92668800  0.35118100  0.55563300  1
  O  O3  1  0.42668800  0.64881900  0.44436700  1
  O  O4  1  0.25000000  0.71316800  0.27552700  1
  O  O5  1  0.75000000  0.28683200  0.72447300  1
  O  O6  1  0.75000000  0.80059000  0.30140100  1
  O  O7  1  0.25000000  0.19941000  0.69859900  1
  O  O8  1  0.93990200  0.88471500  0.14192200  1
  O  O9  1  0.43990200  0.11528500  0.85807800  1
  O  O10  1  0.06009800  0.11528500  0.85807800  1
  O  O11  1  0.56009800  0.88471500  0.14192200  1
  O  O12  1  0.25000000  0.09352500  0.12927200  1
  O  O13  1  0.75000000  0.90647500  0.87072800  1
  O  O14  1  0.93347800  0.23841000  0.01858700  1
  O  O15  1  0.43347800  0.76159000  0.98141300  1
  O  O16  1  0.06652200  0.76159000  0.98141300  1
  O  O17  1  0.56652200  0.23841000  0.01858700  1
  O  O18  1  0.07410500  0.45314500  0.14536700  1
  O  O19  1  0.57410500  0.54685500  0.85463300  1
  O  O20  1  0.92589500  0.54685500  0.85463300  1
  O  O21  1  0.42589500  0.45314500  0.14536700  1
  O  O22  1  0.99686700  0.12311600  0.28621600  1
  O  O23  1  0.49686700  0.87688400  0.71378400  1
  O  O24  1  0.00313300  0.87688400  0.71378400  1
  O  O25  1  0.50313300  0.12311600  0.28621600  1
  O  O26  1  0.75000000  0.23065100  0.17769000  1
  O  O27  1  0.25000000  0.76934900  0.82231000  1
  O  O28  1  0.75000000  0.37027000  0.36331900  1
  O  O29  1  0.25000000  0.62973000  0.63668100  1
  O  O30  1  0.75000000  0.97226700  0.44308700  1
  O  O31  1  0.25000000  0.02773300  0.55691300  1
  O  O32  1  0.25000000  0.29822500  0.39117100  1
  O  O33  1  0.75000000  0.70177500  0.60882900  1
loop_
_geom_bond_atom_site_label_1
_geom_bond_atom_site_label_2
_geom_bond_distance
_geom_bond_site_symmetry_2
Dy0 O29 2.331072 1_555
Dy0 O32 2.335174 1_555
Dy0 O2 2.380392 1_455
Dy0 O1 2.380392 1_555
Dy0 O7 2.408318 1_555
Dy0 O31 2.439108 1_555
Dy0 O0 2.444622 1_555
Dy0 O3 2.444622 1_555
Dy1 O28 2.331072 1_555
Dy1 O33 2.335174 1_555
Dy1 O3 2.380392 1_555
Dy1 O0 2.380392 1_655
Dy1 O6 2.408318 1_555
Dy1 O30 2.439108 1_555
Dy1 O2 2.444622 1_555
Dy1 O1 2.444622 1_555
Dy2 O4 2.179198 1_555
Dy2 O18 2.351871 1_555
Dy2 O21 2.351871 1_555
Dy2 O15 2.410860 1_554
Dy2 O16 2.410860 1_554
Dy2 O12 2.416665 1_565
Dy2 O8 2.497053 1_455
Dy2 O11 2.497053 1_555
Dy3 O5 2.179198 1_555
Dy3 O20 2.351871 1_555
Dy3 O19 2.351871 1_555
Dy3 O17 2.410860 1_556
Dy3 O14 2.410860 1_556
Dy3 O13 2.416665 1_545
Dy3 O10 2.497053 1_655
Dy3 O9 2.497053 1_555
Mo0 O18 1.764541 1_555
Mo0 O14 1.767301 1_455
Mo0 O26 1.957222 1_455
Mo0 O12 1.976960 1_555
Mo0 O22 2.116911 1_455
Mo0 O8 2.274185 1_445
Mo1 O19 1.764541 1_555
Mo1 O15 1.767301 1_555
Mo1 O27 1.957222 1_555
Mo1 O13 1.976960 1_555
Mo1 O23 2.116911 1_555
Mo1 O9 2.274185 1_565
Mo2 O20 1.764541 1_555
Mo2 O16 1.767301 1_655
Mo2 O27 1.957222 1_655
Mo2 O13 1.976960 1_555
Mo2 O24 2.116911 1_655
Mo2 O10 2.274185 1_665
Mo3 O21 1.764541 1_555
Mo3 O17 1.767301 1_555
Mo3 O26 1.957222 1_555
Mo3 O12 1.976960 1_555
Mo3 O25 2.116911 1_555
Mo3 O11 2.274185 1_545
Mo4 O30 1.767914 1_545
Mo4 O28 1.781325 1_555
Mo4 O25 1.923863 1_555
Mo4 O22 1.923863 1_555
Mo4 O26 2.210655 1_555
Mo4 O6 2.375089 1_545
Mo5 O31 1.767914 1_565
Mo5 O29 1.781325 1_555
Mo5 O23 1.923863 1_555
Mo5 O24 1.923863 1_555
Mo5 O27 2.210655 1_555
Mo5 O7 2.375089 1_565
H0 O32 0.990623 1_555
H1 O33 0.990623 1_555
H2 O33 0.990623 1_555
H3 O32 0.990623 1_555
O0 Se0 1.759655 1_555
O1 Se1 1.759655 1_555
O2 Se1 1.759655 1_555
O3 Se0 1.759655 1_555
O4 Se0 1.706089 1_555
O5 Se1 1.706089 1_555
O6 Se2 1.710764 1_555
O7 Se3 1.710764 1_555
O8 Se2 1.749606 1_555
O9 Se3 1.749606 1_555
O10 Se3 1.749606 1_555
O11 Se2 1.749606 1_555
