# generated using pymatgen
data_Ba5(CN3)2
_symmetry_space_group_name_H-M   'P 1'
_cell_length_a   6.12403048
_cell_length_b   7.27107734
_cell_length_c   14.12123456
_cell_angle_alpha   89.99999801
_cell_angle_beta   90.28598472
_cell_angle_gamma   126.41654514
_symmetry_Int_Tables_number   1
_chemical_formula_structural   Ba5(CN3)2
_chemical_formula_sum   'Ba10 C4 N12'
_cell_volume   505.99533476
_cell_formula_units_Z   2
loop_
 _symmetry_equiv_pos_site_id
 _symmetry_equiv_pos_as_xyz
  1  'x, y, z'
loop_
 _atom_site_type_symbol
 _atom_site_label
 _atom_site_symmetry_multiplicity
 _atom_site_fract_x
 _atom_site_fract_y
 _atom_site_fract_z
 _atom_site_occupancy
  Ba  Ba0  1  0.07376026  0.77539105  0.99679998  1
  Ba  Ba1  1  0.92623974  0.70163079  0.50320002  1
  Ba  Ba2  1  0.92623974  0.22460895  0.00320002  1
  Ba  Ba3  1  0.07376026  0.29836921  0.49679998  1
  Ba  Ba4  1  0.34571806  0.06457868  0.68159377  1
  Ba  Ba5  1  0.65428194  0.71886062  0.81840623  1
  Ba  Ba6  1  0.65428194  0.93542132  0.31840623  1
  Ba  Ba7  1  0.34571806  0.28113938  0.18159377  1
  Ba  Ba8  1  0.00000000  0.33206278  0.75000000  1
  Ba  Ba9  1  0.00000000  0.66793722  0.25000000  1
  C  C0  1  0.55878643  0.80771112  0.59163319  1
  C  C1  1  0.44121357  0.24892569  0.90836681  1
  C  C2  1  0.44121357  0.19228888  0.40836681  1
  C  C3  1  0.55878643  0.75107431  0.09163319  1
  N  N0  1  0.80353361  0.95914796  0.64147146  1
  N  N1  1  0.19646639  0.15561534  0.85852854  1
  N  N2  1  0.19646639  0.04085204  0.35852854  1
  N  N3  1  0.80353361  0.84438466  0.14147146  1
  N  N4  1  0.31725278  0.67698575  0.64367854  1
  N  N5  1  0.68274722  0.35973397  0.85632146  1
  N  N6  1  0.68274722  0.32301425  0.35632146  1
  N  N7  1  0.31725278  0.64026603  0.14367854  1
  N  N8  1  0.44232537  0.21205555  0.50480639  1
  N  N9  1  0.55767463  0.76973118  0.99519361  1
  N  N10  1  0.55767463  0.78794445  0.49519361  1
  N  N11  1  0.44232537  0.23026882  0.00480639  1
loop_
_geom_bond_atom_site_label_1
_geom_bond_atom_site_label_2
_geom_bond_distance
_geom_bond_site_symmetry_2
Ba0 N11 2.679639 1_566
Ba0 N3 2.860648 1_456
Ba0 N9 2.988319 1_555
Ba0 N7 3.033048 1_556
Ba0 N1 3.093290 1_565
Ba0 N9 3.136236 1_455
Ba0 N5 3.187996 1_455
Ba1 N10 2.679644 1_555
Ba1 N2 2.860652 1_665
Ba1 N8 2.988323 1_555
Ba1 N6 3.033044 1_555
Ba1 N0 3.093285 1_555
Ba1 N8 3.136232 1_665
Ba1 N4 3.187999 1_655
Ba2 N9 2.679639 1_544
Ba2 N1 2.860648 1_654
Ba2 N11 2.988319 1_555
Ba2 N5 3.033048 1_554
Ba2 N3 3.093290 1_545
Ba2 N11 3.136236 1_655
Ba2 N7 3.187996 1_655
Ba3 N8 2.679644 1_555
Ba3 N0 2.860652 1_445
Ba3 N10 2.988323 1_555
Ba3 N4 3.033044 1_555
Ba3 N2 3.093285 1_555
Ba3 N10 3.136232 1_445
Ba3 N6 3.187999 1_455
Ba4 N8 2.644557 1_555
Ba4 N4 2.770411 1_545
Ba4 N1 2.873574 1_555
Ba4 N0 2.982034 1_445
Ba4 N5 3.105425 1_555
Ba5 N9 2.644559 1_555
Ba5 N5 2.770404 1_555
Ba5 N0 2.873570 1_555
Ba5 N1 2.982037 1_665
Ba5 N4 3.105423 1_555
Ba6 N10 2.644557 1_555
Ba6 N6 2.770411 1_565
Ba6 N3 2.873574 1_555
Ba6 N2 2.982034 1_665
Ba6 N7 3.105425 1_555
Ba7 N11 2.644559 1_555
Ba7 N7 2.770404 1_555
Ba7 N2 2.873570 1_555
Ba7 N3 2.982037 1_445
Ba7 N6 3.105423 1_555
Ba8 N4 2.561757 1_555
Ba8 N5 2.561761 1_455
Ba8 N1 2.693820 1_555
Ba8 N0 2.693826 1_445
Ba9 N6 2.561757 1_455
Ba9 N7 2.561761 1_555
Ba9 N3 2.693820 1_455
Ba9 N2 2.693826 1_565
C0 N10 1.368968 1_555
C0 N4 1.404665 1_555
C0 N0 1.408626 1_555
C1 N11 1.368969 1_556
C1 N5 1.404665 1_555
C1 N1 1.408626 1_555
C2 N8 1.368968 1_555
C2 N6 1.404665 1_555
C2 N2 1.408626 1_555
C3 N9 1.368969 1_554
C3 N7 1.404665 1_555
C3 N3 1.408626 1_555
