# generated using pymatgen
data_LiVPH4O7
_symmetry_space_group_name_H-M   'P 1'
_cell_length_a   6.42799127
_cell_length_b   6.42799127
_cell_length_c   13.14934300
_cell_angle_alpha   90.00000000
_cell_angle_beta   90.00000000
_cell_angle_gamma   90.38921021
_symmetry_Int_Tables_number   1
_chemical_formula_structural   LiVPH4O7
_chemical_formula_sum   'Li4 V4 P4 H16 O28'
_cell_volume   543.30611176
_cell_formula_units_Z   4
loop_
 _symmetry_equiv_pos_site_id
 _symmetry_equiv_pos_as_xyz
  1  'x, y, z'
loop_
 _atom_site_type_symbol
 _atom_site_label
 _atom_site_symmetry_multiplicity
 _atom_site_fract_x
 _atom_site_fract_y
 _atom_site_fract_z
 _atom_site_occupancy
  Li  Li0  1  0.37928800  0.62071200  0.92860300  1
  Li  Li1  1  0.62071200  0.37928800  0.07139700  1
  Li  Li2  1  0.12071200  0.87928800  0.42860300  1
  Li  Li3  1  0.87928800  0.12071200  0.57139700  1
  V  V0  1  0.12298300  0.87701700  0.78833500  1
  V  V1  1  0.87701700  0.12298300  0.21166500  1
  V  V2  1  0.37701700  0.62298300  0.28833500  1
  V  V3  1  0.62298300  0.37701700  0.71166500  1
  P  P0  1  0.62745900  0.87254100  0.75000000  1
  P  P1  1  0.87254100  0.62745900  0.25000000  1
  P  P2  1  0.37254100  0.12745900  0.25000000  1
  P  P3  1  0.12745900  0.37254100  0.75000000  1
  H  H0  1  0.70795200  0.74319700  0.05958900  1
  H  H1  1  0.74319700  0.70795200  0.94041100  1
  H  H2  1  0.24319700  0.20795200  0.55958900  1
  H  H3  1  0.20795200  0.24319700  0.44041100  1
  H  H4  1  0.29204800  0.25680300  0.94041100  1
  H  H5  1  0.25680300  0.29204800  0.05958900  1
  H  H6  1  0.75680300  0.79204800  0.44041100  1
  H  H7  1  0.79204800  0.75680300  0.55958900  1
  H  H8  1  0.23762000  0.93051400  0.03223700  1
  H  H9  1  0.93051400  0.23762000  0.96776300  1
  H  H10  1  0.43051400  0.73762000  0.53223700  1
  H  H11  1  0.73762000  0.43051400  0.46776300  1
  H  H12  1  0.76238000  0.06948600  0.96776300  1
  H  H13  1  0.06948600  0.76238000  0.03223700  1
  H  H14  1  0.56948600  0.26238000  0.46776300  1
  H  H15  1  0.26238000  0.56948600  0.53223700  1
  O  O0  1  0.81528000  0.86717600  0.82559700  1
  O  O1  1  0.86717600  0.81528000  0.17440300  1
  O  O2  1  0.36717600  0.31528000  0.32559700  1
  O  O3  1  0.31528000  0.36717600  0.67440300  1
  O  O4  1  0.18472000  0.13282400  0.17440300  1
  O  O5  1  0.13282400  0.18472000  0.82559700  1
  O  O6  1  0.63282400  0.68472000  0.67440300  1
  O  O7  1  0.68472000  0.63282400  0.32559700  1
  O  O8  1  0.10833400  0.89166600  0.66511300  1
  O  O9  1  0.89166600  0.10833400  0.33488700  1
  O  O10  1  0.39166600  0.60833400  0.16511300  1
  O  O11  1  0.60833400  0.39166600  0.83488700  1
  O  O12  1  0.43151800  0.86479500  0.81810900  1
  O  O13  1  0.86479500  0.43151800  0.18189100  1
  O  O14  1  0.36479500  0.93151800  0.31810900  1
  O  O15  1  0.93151800  0.36479500  0.68189100  1
  O  O16  1  0.56848200  0.13520500  0.18189100  1
  O  O17  1  0.13520500  0.56848200  0.81810900  1
  O  O18  1  0.63520500  0.06848200  0.68189100  1
  O  O19  1  0.06848200  0.63520500  0.31810900  1
  O  O20  1  0.66169100  0.66169100  0.00000000  1
  O  O21  1  0.16169100  0.16169100  0.50000000  1
  O  O22  1  0.33830900  0.33830900  0.00000000  1
  O  O23  1  0.83830900  0.83830900  0.50000000  1
  O  O24  1  0.17157200  0.82842800  0.98728600  1
  O  O25  1  0.82842800  0.17157200  0.01271400  1
  O  O26  1  0.32842800  0.67157200  0.48728600  1
  O  O27  1  0.67157200  0.32842800  0.51271400  1
loop_
_geom_bond_atom_site_label_1
_geom_bond_atom_site_label_2
_geom_bond_distance
_geom_bond_site_symmetry_2
Li0 O24 2.045765 1_555
Li0 O22 2.059013 1_556
Li0 O20 2.059013 1_556
Li0 O12 2.162913 1_555
Li0 O17 2.162913 1_555
Li0 O11 2.425570 1_555
Li1 O25 2.045765 1_555
Li1 O20 2.059013 1_555
Li1 O22 2.059013 1_555
Li1 O13 2.162913 1_555
Li1 O16 2.162913 1_555
Li1 O10 2.425570 1_555
Li2 O26 2.045765 1_555
Li2 O21 2.059013 1_565
Li2 O23 2.059013 1_455
Li2 O14 2.162913 1_555
Li2 O19 2.162913 1_555
Li2 O9 2.425570 1_465
Li3 O27 2.045765 1_555
Li3 O23 2.059013 1_545
Li3 O21 2.059013 1_655
Li3 O18 2.162913 1_555
Li3 O15 2.162913 1_555
Li3 O8 2.425570 1_645
H0 O20 0.987300 1_555
H1 O20 0.987300 1_556
H2 O21 0.987300 1_555
H3 O21 0.987300 1_555
H4 O22 0.987300 1_556
H5 O22 0.987300 1_555
H6 O23 0.987300 1_555
H7 O23 0.987300 1_555
H8 O24 0.977979 1_554
H9 O25 0.977979 1_556
H10 O26 0.977979 1_555
H11 O27 0.977979 1_555
H12 O25 0.977979 1_556
H13 O24 0.977979 1_554
H14 O27 0.977979 1_555
H15 O26 0.977979 1_555
O0 P0 1.564447 1_555
O0 V0 2.038261 1_655
O1 P1 1.564447 1_555
O1 V1 2.038261 1_565
O2 P2 1.564447 1_555
O2 V2 2.038261 1_555
O3 P3 1.564447 1_555
O3 V3 2.038261 1_555
O4 P2 1.564447 1_555
O4 V1 2.038261 1_455
O5 P3 1.564447 1_555
O5 V0 2.038261 1_545
O6 P0 1.564447 1_555
O6 V3 2.038261 1_555
O7 P1 1.564447 1_555
O7 V2 2.038261 1_555
O8 V0 1.625789 1_555
O9 V1 1.625789 1_555
O10 V2 1.625789 1_555
O11 V3 1.625789 1_555
O12 P0 1.545983 1_555
O12 V0 2.023583 1_555
O13 P1 1.545983 1_555
O13 V1 2.023583 1_555
O14 P2 1.545983 1_565
O14 V2 2.023583 1_555
O15 P3 1.545983 1_655
O15 V3 2.023583 1_555
O16 P2 1.545983 1_555
O16 V1 2.023583 1_555
O17 P3 1.545983 1_555
O17 V0 2.023583 1_555
O18 P0 1.545983 1_545
O18 V3 2.023583 1_555
O19 P1 1.545983 1_455
O19 V2 2.023583 1_555
