# generated using pymatgen
data_CsMnFeF6
_symmetry_space_group_name_H-M   'P 1'
_cell_length_a   7.62851822
_cell_length_b   7.62851822
_cell_length_c   7.62851822
_cell_angle_alpha   120.24400454
_cell_angle_beta   119.97361794
_cell_angle_gamma   89.81179652
_symmetry_Int_Tables_number   1
_chemical_formula_structural   CsMnFeF6
_chemical_formula_sum   'Cs2 Mn2 Fe2 F12'
_cell_volume   313.38999544
_cell_formula_units_Z   2
loop_
 _symmetry_equiv_pos_site_id
 _symmetry_equiv_pos_as_xyz
  1  'x, y, z'
loop_
 _atom_site_type_symbol
 _atom_site_label
 _atom_site_symmetry_multiplicity
 _atom_site_fract_x
 _atom_site_fract_y
 _atom_site_fract_z
 _atom_site_occupancy
  Cs  Cs0  1  0.37024400  0.62024400  0.75000000  1
  Cs  Cs1  1  0.62975600  0.37975600  0.25000000  1
  Mn  Mn0  1  0.00000000  0.00000000  0.50000000  1
  Mn  Mn1  1  0.00000000  0.50000000  0.00000000  1
  Fe  Fe0  1  0.00000000  0.00000000  0.00000000  1
  Fe  Fe1  1  0.50000000  0.00000000  0.50000000  1
  F  F0  1  0.30487400  0.05487400  0.25000000  1
  F  F1  1  0.91758500  0.66758500  0.25000000  1
  F  F2  1  0.33590500  0.69484400  0.27423000  1
  F  F3  1  0.92061400  0.06167500  0.22577000  1
  F  F4  1  0.33590500  0.06167500  0.64106100  1
  F  F5  1  0.92061400  0.69484400  0.85893900  1
  F  F6  1  0.69512600  0.94512600  0.75000000  1
  F  F7  1  0.08241500  0.33241500  0.75000000  1
  F  F8  1  0.66409500  0.30515600  0.72577000  1
  F  F9  1  0.07938600  0.93832500  0.77423000  1
  F  F10  1  0.66409500  0.93832500  0.35893900  1
  F  F11  1  0.07938600  0.30515600  0.14106100  1
loop_
_geom_bond_atom_site_label_1
_geom_bond_atom_site_label_2
_geom_bond_distance
_geom_bond_site_symmetry_2
Cs0 F7 3.110297 1_555
Cs0 F9 3.281426 1_555
Cs0 F10 3.281426 1_556
Cs0 F11 3.281426 1_555
Cs0 F8 3.281426 1_555
Cs0 F6 3.510694 1_555
Cs1 F1 3.110297 1_555
Cs1 F3 3.281426 1_555
Cs1 F4 3.281426 1_554
Cs1 F5 3.281426 1_555
Cs1 F2 3.281426 1_555
Cs1 F0 3.510694 1_555
F0 Fe1 1.997914 1_555
F0 Fe0 1.997914 1_555
F1 Mn0 2.098448 1_665
F1 Mn1 2.098448 1_655
F2 Fe1 1.943815 1_565
F2 Mn1 2.165222 1_555
F3 Fe0 1.943815 1_655
F3 Mn0 2.165222 1_655
F4 Fe1 1.943815 1_555
F4 Mn0 2.165222 1_555
F5 Fe0 1.943815 1_666
F5 Mn1 2.165222 1_656
F6 Fe0 1.997914 1_666
F6 Fe1 1.997914 1_565
F7 Mn0 2.098448 1_555
F7 Mn1 2.098448 1_556
F8 Fe1 1.943815 1_555
F8 Mn1 2.165222 1_656
F9 Fe0 1.943815 1_566
F9 Mn0 2.165222 1_565
F10 Fe1 1.943815 1_565
F10 Mn0 2.165222 1_665
F11 Fe0 1.943815 1_555
F11 Mn1 2.165222 1_555
