# generated using pymatgen
data_FeHg2O3F5
_symmetry_space_group_name_H-M   'P 1'
_cell_length_a   6.93589773
_cell_length_b   6.93589773
_cell_length_c   3.98116400
_cell_angle_alpha   90.00000000
_cell_angle_beta   90.00000000
_cell_angle_gamma   115.11750058
_symmetry_Int_Tables_number   1
_chemical_formula_structural   FeHg2O3F5
_chemical_formula_sum   'Fe1 Hg2 O3 F5'
_cell_volume   173.41023123
_cell_formula_units_Z   1
loop_
 _symmetry_equiv_pos_site_id
 _symmetry_equiv_pos_as_xyz
  1  'x, y, z'
loop_
 _atom_site_type_symbol
 _atom_site_label
 _atom_site_symmetry_multiplicity
 _atom_site_fract_x
 _atom_site_fract_y
 _atom_site_fract_z
 _atom_site_occupancy
  Fe  Fe0  1  0.99538800  0.00461200  0.00000000  1
  Hg  Hg0  1  0.49732500  0.00319100  0.50000000  1
  Hg  Hg1  1  0.99680900  0.50267500  0.50000000  1
  O  O0  1  0.66164900  0.33835100  0.50000000  1
  O  O1  1  0.33255400  0.66744600  0.50000000  1
  O  O2  1  0.55545900  0.44454100  0.00000000  1
  F  F0  1  0.69590000  0.93898700  0.00000000  1
  F  F1  1  0.29794700  0.06571600  0.00000000  1
  F  F2  1  0.93428400  0.70205300  0.00000000  1
  F  F3  1  0.06101300  0.30410000  0.00000000  1
  F  F4  1  0.99877100  0.00122900  0.50000000  1
loop_
_geom_bond_atom_site_label_1
_geom_bond_atom_site_label_2
_geom_bond_distance
_geom_bond_site_symmetry_2
Hg0 O0 2.110368 1_555
Hg0 O1 2.114133 1_545
Hg1 O0 2.110368 1_555
Hg1 O1 2.114133 1_655
F0 Fe0 1.928560 1_565
F0 Hg0 2.564829 1_564
F0 Hg0 2.564829 1_565
F1 Fe0 1.956619 1_455
F1 Hg0 2.563576 1_555
F1 Hg0 2.563576 1_554
F2 Fe0 1.956619 1_565
F2 Hg1 2.563576 1_555
F2 Hg1 2.563576 1_554
F3 Fe0 1.928560 1_455
F3 Hg1 2.564829 1_455
F3 Hg1 2.564829 1_454
F4 Fe0 1.990976 1_556
F4 Fe0 1.990976 1_555
