# generated using pymatgen
data_K2UC2SeSNO8
_symmetry_space_group_name_H-M   'P 1'
_cell_length_a   7.30482200
_cell_length_b   11.79814891
_cell_length_c   14.53494714
_cell_angle_alpha   93.67111236
_cell_angle_beta   90.00000000
_cell_angle_gamma   90.00000000
_symmetry_Int_Tables_number   1
_chemical_formula_structural   K2UC2SeSNO8
_chemical_formula_sum   'K8 U4 C8 Se4 S4 N4 O32'
_cell_volume   1250.10039297
_cell_formula_units_Z   4
loop_
 _symmetry_equiv_pos_site_id
 _symmetry_equiv_pos_as_xyz
  1  'x, y, z'
loop_
 _atom_site_type_symbol
 _atom_site_label
 _atom_site_symmetry_multiplicity
 _atom_site_fract_x
 _atom_site_fract_y
 _atom_site_fract_z
 _atom_site_occupancy
  K  K0  1  0.84882400  0.54429700  0.64557100  1
  K  K1  1  0.15117600  0.45570300  0.35442900  1
  K  K2  1  0.34882400  0.45570300  0.85442900  1
  K  K3  1  0.65117600  0.54429700  0.14557100  1
  K  K4  1  0.56842100  0.83668400  0.86200900  1
  K  K5  1  0.43157900  0.16331600  0.13799100  1
  K  K6  1  0.06842100  0.16331600  0.63799100  1
  K  K7  1  0.93157900  0.83668400  0.36200900  1
  U  U0  1  0.85286300  0.25070500  0.95962900  1
  U  U1  1  0.14713700  0.74929500  0.04037100  1
  U  U2  1  0.35286300  0.74929500  0.54037100  1
  U  U3  1  0.64713700  0.25070500  0.45962900  1
  C  C0  1  0.95304800  0.85218300  0.64329200  1
  C  C1  1  0.04695200  0.14781700  0.35670800  1
  C  C2  1  0.45304800  0.14781700  0.85670800  1
  C  C3  1  0.54695200  0.85218300  0.14329200  1
  C  C4  1  0.91217700  0.97421700  0.97925200  1
  C  C5  1  0.08782300  0.02578300  0.02074800  1
  C  C6  1  0.41217700  0.02578300  0.52074800  1
  C  C7  1  0.58782300  0.97421700  0.47925200  1
  Se  Se0  1  0.82652800  0.55384400  0.90033700  1
  Se  Se1  1  0.17347200  0.44615600  0.09966300  1
  Se  Se2  1  0.32652800  0.44615600  0.59966300  1
  Se  Se3  1  0.67347200  0.55384400  0.40033700  1
  S  S0  1  0.82818000  0.94504400  0.69950800  1
  S  S1  1  0.17182000  0.05495600  0.30049200  1
  S  S2  1  0.32818000  0.05495600  0.80049200  1
  S  S3  1  0.67182000  0.94504400  0.19950800  1
  N  N0  1  0.54668200  0.21562100  0.89933700  1
  N  N1  1  0.45331800  0.78437900  0.10066300  1
  N  N2  1  0.04668200  0.78437900  0.60066300  1
  N  N3  1  0.95331800  0.21562100  0.39933700  1
  O  O0  1  0.44694800  0.76124800  0.65560800  1
  O  O1  1  0.55305200  0.23875200  0.34439200  1
  O  O2  1  0.94694800  0.23875200  0.84439200  1
  O  O3  1  0.05305200  0.76124800  0.15560800  1
  O  O4  1  0.65552500  0.61876200  0.85100000  1
  O  O5  1  0.34447500  0.38123800  0.14900000  1
  O  O6  1  0.15552500  0.38123800  0.64900000  1
  O  O7  1  0.84447500  0.61876200  0.35100000  1
  O  O8  1  0.24155200  0.73967600  0.92435600  1
  O  O9  1  0.75844800  0.26032400  0.07564400  1
  O  O10  1  0.74155200  0.26032400  0.57564400  1
  O  O11  1  0.25844800  0.73967600  0.42435600  1
  O  O12  1  0.73429300  0.43506200  0.94342100  1
  O  O13  1  0.26570700  0.56493800  0.05657900  1
  O  O14  1  0.23429300  0.56493800  0.55657900  1
  O  O15  1  0.76570700  0.43506200  0.44342100  1
  O  O16  1  0.89798500  0.86722500  0.97591400  1
  O  O17  1  0.10201500  0.13277500  0.02408600  1
  O  O18  1  0.39798500  0.13277500  0.52408600  1
  O  O19  1  0.60201500  0.86722500  0.47591400  1
  O  O20  1  0.89626600  0.63043600  0.99729400  1
  O  O21  1  0.10373400  0.36956400  0.00270600  1
  O  O22  1  0.39626600  0.36956400  0.50270600  1
  O  O23  1  0.60373400  0.63043600  0.49729400  1
  O  O24  1  0.29464500  0.95664300  0.54893200  1
  O  O25  1  0.70535500  0.04335700  0.45106800  1
  O  O26  1  0.79464500  0.04335700  0.95106800  1
  O  O27  1  0.20535500  0.95664300  0.04893200  1
  O  O28  1  0.99578900  0.52367400  0.82798900  1
  O  O29  1  0.00421100  0.47632600  0.17201100  1
  O  O30  1  0.49578900  0.47632600  0.67201100  1
  O  O31  1  0.50421100  0.52367400  0.32798900  1
loop_
_geom_bond_atom_site_label_1
_geom_bond_atom_site_label_2
_geom_bond_distance
_geom_bond_site_symmetry_2
K0 O30 2.735097 1_555
K0 O28 2.885211 1_555
K0 O6 2.955524 1_655
K0 O23 3.027128 1_555
K0 O14 3.114707 1_655
K0 O15 3.190282 1_555
K0 N2 3.282523 1_655
K1 O31 2.735097 1_555
K1 O29 2.885211 1_555
K1 O7 2.955524 1_455
K1 O22 3.027128 1_555
K1 O15 3.114707 1_455
K1 O14 3.190282 1_555
K1 N3 3.282523 1_455
K2 O28 2.735097 1_455
K2 O30 2.885211 1_555
K2 O4 2.955524 1_555
K2 O21 3.027128 1_556
K2 O12 3.114707 1_555
K2 O13 3.190282 1_556
K2 N0 3.282523 1_555
K3 O29 2.735097 1_655
K3 O31 2.885211 1_555
K3 O5 2.955524 1_555
K3 O20 3.027128 1_554
K3 O13 3.114707 1_555
K3 O12 3.190282 1_554
K3 N1 3.282523 1_555
K4 O4 2.643521 1_555
K4 O8 2.822261 1_555
K4 O16 2.930882 1_555
K4 O26 3.154026 1_565
K4 O0 3.199644 1_555
K4 S2 3.287216 1_565
K4 S0 3.346696 1_555
K5 O5 2.643521 1_555
K5 O9 2.822261 1_555
K5 O17 2.930882 1_555
K5 O27 3.154026 1_545
K5 O1 3.199644 1_555
K5 S3 3.287216 1_545
K5 S1 3.346696 1_555
K6 O6 2.643521 1_555
K6 O10 2.822261 1_455
K6 O18 2.930882 1_555
K6 O24 3.154026 1_545
K6 O2 3.199644 1_455
K6 S0 3.287216 1_445
K6 S2 3.346696 1_555
K7 O7 2.643521 1_555
K7 O11 2.822261 1_655
K7 O19 2.930882 1_555
K7 O25 3.154026 1_565
K7 O3 3.199644 1_655
K7 S1 3.287216 1_665
K7 S3 3.346696 1_555
C0 N2 1.195077 1_655
C0 S0 1.607893 1_555
C1 N3 1.195077 1_455
C1 S1 1.607893 1_555
C2 N0 1.195077 1_555
C2 S2 1.607893 1_555
C3 N1 1.195077 1_555
C3 S3 1.607893 1_555
C4 O16 1.264389 1_555
C4 O26 1.270088 1_565
C5 O17 1.264389 1_555
C5 O27 1.270088 1_545
C6 O18 1.264389 1_555
C6 O24 1.270088 1_545
C7 O19 1.264389 1_555
C7 O25 1.270088 1_565
N0 U0 2.428009 1_555
N1 U1 2.428009 1_555
N2 U2 2.428009 1_555
N3 U3 2.428009 1_555
O0 U2 1.807619 1_555
O1 U3 1.807619 1_555
O2 U0 1.807619 1_555
O3 U1 1.807619 1_555
O4 Se0 1.652747 1_555
O5 Se1 1.652747 1_555
O6 Se2 1.652747 1_555
O7 Se3 1.652747 1_555
O8 U1 1.818667 1_556
O9 U0 1.818667 1_554
O10 U3 1.818667 1_555
O11 U2 1.818667 1_555
O12 Se0 1.709513 1_555
O12 U0 2.366905 1_555
O13 Se1 1.709513 1_555
O13 U1 2.366905 1_555
O14 Se2 1.709513 1_555
O14 U2 2.366905 1_555
O15 Se3 1.709513 1_555
O15 U3 2.366905 1_555
O16 U1 2.508582 1_656
O17 U0 2.508582 1_454
O18 U3 2.508582 1_555
O19 U2 2.508582 1_555
O20 Se0 1.702655 1_555
O20 U1 2.367359 1_656
O21 Se1 1.702655 1_555
O21 U0 2.367359 1_454
O22 Se2 1.702655 1_555
O22 U3 2.367359 1_555
O23 Se3 1.702655 1_555
O23 U2 2.367359 1_555
O24 U2 2.478276 1_555
O25 U3 2.478276 1_555
O26 U0 2.478276 1_555
O27 U1 2.478276 1_555
O28 Se0 1.647214 1_555
O29 Se1 1.647214 1_555
O30 Se2 1.647214 1_555
O31 Se3 1.647214 1_555
