# generated using pymatgen
data_Hf2AlSi
_symmetry_space_group_name_H-M   'P 1'
_cell_length_a   5.38525543
_cell_length_b   5.38525543
_cell_length_c   3.82767800
_cell_angle_alpha   90.00000000
_cell_angle_beta   90.00000000
_cell_angle_gamma   138.90616735
_symmetry_Int_Tables_number   1
_chemical_formula_structural   Hf2AlSi
_chemical_formula_sum   'Hf2 Al1 Si1'
_cell_volume   72.96385364
_cell_formula_units_Z   1
loop_
 _symmetry_equiv_pos_site_id
 _symmetry_equiv_pos_as_xyz
  1  'x, y, z'
loop_
 _atom_site_type_symbol
 _atom_site_label
 _atom_site_symmetry_multiplicity
 _atom_site_fract_x
 _atom_site_fract_y
 _atom_site_fract_z
 _atom_site_occupancy
  Hf  Hf0  1  0.85382100  0.14617900  0.50000000  1
  Hf  Hf1  1  0.14667000  0.85333000  0.00000000  1
  Al  Al0  1  0.57833700  0.42166300  0.50000000  1
  Si  Si0  1  0.42117200  0.57882800  0.00000000  1
loop_
_geom_bond_atom_site_label_1
_geom_bond_atom_site_label_2
_geom_bond_distance
_geom_bond_site_symmetry_2
Hf0 Si0 2.774274 1_655
Hf0 Si0 2.774274 1_656
Hf0 Si0 2.774274 1_545
Hf0 Si0 2.774274 1_546
Hf1 Si0 2.768448 1_555
Hf1 Si0 2.957114 1_455
Hf1 Si0 2.957114 1_565
Al0 Si0 2.484996 1_555
Al0 Si0 2.484996 1_556
Al0 Hf1 2.776716 1_546
Al0 Hf1 2.776716 1_545
Al0 Hf1 2.776716 1_656
Al0 Hf1 2.776716 1_655
Al0 Hf0 2.778351 1_555
Al0 Hf0 2.949505 1_565
Al0 Hf0 2.949505 1_455
