# generated using pymatgen
data_ZrGaPt
_symmetry_space_group_name_H-M   'P 1'
_cell_length_a   3.60084661
_cell_length_b   7.12841483
_cell_length_c   7.12856104
_cell_angle_alpha   119.99931735
_cell_angle_beta   90.00000000
_cell_angle_gamma   90.00000000
_symmetry_Int_Tables_number   1
_chemical_formula_structural   ZrGaPt
_chemical_formula_sum   'Zr3 Ga3 Pt3'
_cell_volume   158.46489913
_cell_formula_units_Z   3
loop_
 _symmetry_equiv_pos_site_id
 _symmetry_equiv_pos_as_xyz
  1  'x, y, z'
loop_
 _atom_site_type_symbol
 _atom_site_label
 _atom_site_symmetry_multiplicity
 _atom_site_fract_x
 _atom_site_fract_y
 _atom_site_fract_z
 _atom_site_occupancy
  Zr  Zr0  1  0.50000000  0.60348935  0.00000000  1
  Zr  Zr1  1  0.50000000  0.39645179  0.39648050  1
  Zr  Zr2  1  0.50000000  0.99997129  0.60351950  1
  Ga  Ga0  1  -0.00000000  0.26443350  -0.00000000  1
  Ga  Ga1  1  0.00000000  0.73549434  0.73553250  1
  Ga  Ga2  1  0.00000000  0.99996184  0.26446750  1
  Pt  Pt0  1  -0.00000000  0.33336879  0.66667014  1
  Pt  Pt1  1  -0.00000000  0.66669865  0.33332986  1
  Pt  Pt2  1  0.50000000  0.00003144  0.00000000  1
loop_
_geom_bond_atom_site_label_1
_geom_bond_atom_site_label_2
_geom_bond_distance
_geom_bond_site_symmetry_2
Ga0 Pt2 2.606506 1_555
Ga0 Pt2 2.606506 1_455
Ga0 Pt0 2.656170 1_554
Ga0 Pt1 2.656171 1_555
Ga0 Zr0 3.013815 1_555
Ga0 Zr0 3.013815 1_455
Ga0 Zr1 3.074992 1_555
Ga0 Zr1 3.074992 1_455
Ga0 Zr2 3.074992 1_444
Ga0 Zr2 3.074992 1_544
Ga1 Pt2 2.607051 1_566
Ga1 Pt2 2.607051 1_466
Ga1 Pt0 2.655331 1_555
Ga1 Pt1 2.656104 1_555
Ga1 Zr1 3.013805 1_455
Ga1 Zr1 3.013805 1_555
Ga1 Zr0 3.074933 1_456
Ga1 Zr0 3.074933 1_556
Ga1 Zr2 3.075002 1_555
Ga1 Zr2 3.075002 1_455
Ga2 Pt2 2.607051 1_565
Ga2 Pt2 2.607051 1_465
Ga2 Pt1 2.655331 1_555
Ga2 Pt0 2.656104 1_565
Ga2 Zr2 3.013805 1_455
Ga2 Zr2 3.013805 1_555
Ga2 Zr0 3.074933 1_455
Ga2 Zr0 3.074933 1_555
Ga2 Zr1 3.075002 1_565
Ga2 Zr1 3.075002 1_465
Pt0 Zr1 2.831882 1_555
Pt0 Zr1 2.831882 1_455
Pt0 Zr0 2.831971 1_456
Pt0 Zr0 2.831971 1_556
Pt0 Zr2 2.832407 1_445
Pt0 Zr2 2.832407 1_545
Pt1 Zr2 2.831882 1_455
Pt1 Zr2 2.831882 1_555
Pt1 Zr0 2.831971 1_455
Pt1 Zr0 2.831971 1_555
Pt1 Zr1 2.832407 1_555
Pt1 Zr1 2.832407 1_455
Pt2 Zr2 2.826121 1_544
Pt2 Zr1 2.826121 1_555
Pt2 Zr0 2.826717 1_545
