# generated using pymatgen
data_Nb2Fe4O9
_symmetry_space_group_name_H-M   'P 1'
_cell_length_a   5.34490927
_cell_length_b   5.34490927
_cell_length_c   14.26238400
_cell_angle_alpha   90.00000000
_cell_angle_beta   90.00000000
_cell_angle_gamma   119.99999099
_symmetry_Int_Tables_number   1
_chemical_formula_structural   Nb2Fe4O9
_chemical_formula_sum   'Nb4 Fe8 O18'
_cell_volume   352.86084640
_cell_formula_units_Z   2
loop_
 _symmetry_equiv_pos_site_id
 _symmetry_equiv_pos_as_xyz
  1  'x, y, z'
loop_
 _atom_site_type_symbol
 _atom_site_label
 _atom_site_symmetry_multiplicity
 _atom_site_fract_x
 _atom_site_fract_y
 _atom_site_fract_z
 _atom_site_occupancy
  Nb  Nb0  1  0.00000000  0.00000000  0.64123700  1
  Nb  Nb1  1  0.00000000  0.00000000  0.35876300  1
  Nb  Nb2  1  0.00000000  0.00000000  0.85876300  1
  Nb  Nb3  1  0.00000000  0.00000000  0.14123700  1
  Fe  Fe0  1  0.33333300  0.66666700  0.51578300  1
  Fe  Fe1  1  0.66666700  0.33333300  0.48421700  1
  Fe  Fe2  1  0.66666700  0.33333300  0.98421700  1
  Fe  Fe3  1  0.33333300  0.66666700  0.01578300  1
  Fe  Fe4  1  0.33333300  0.66666700  0.80662400  1
  Fe  Fe5  1  0.66666700  0.33333300  0.19337600  1
  Fe  Fe6  1  0.66666700  0.33333300  0.69337600  1
  Fe  Fe7  1  0.33333300  0.66666700  0.30662400  1
  O  O0  1  0.33766700  0.31421400  0.58395000  1
  O  O1  1  0.66233300  0.68578600  0.41605000  1
  O  O2  1  0.68578600  0.02345300  0.58395000  1
  O  O3  1  0.31421400  0.33766700  0.91605000  1
  O  O4  1  0.31421400  0.97654700  0.41605000  1
  O  O5  1  0.68578600  0.66233300  0.08395000  1
  O  O6  1  0.97654700  0.66233300  0.58395000  1
  O  O7  1  0.02345300  0.68578600  0.91605000  1
  O  O8  1  0.02345300  0.33766700  0.41605000  1
  O  O9  1  0.97654700  0.31421400  0.08395000  1
  O  O10  1  0.66233300  0.97654700  0.91605000  1
  O  O11  1  0.33766700  0.02345300  0.08395000  1
  O  O12  1  0.28315500  0.00000000  0.75000000  1
  O  O13  1  0.71684500  0.00000000  0.25000000  1
  O  O14  1  0.00000000  0.28315500  0.75000000  1
  O  O15  1  0.00000000  0.71684500  0.25000000  1
  O  O16  1  0.71684500  0.71684500  0.75000000  1
  O  O17  1  0.28315500  0.28315500  0.25000000  1
loop_
_geom_bond_atom_site_label_1
_geom_bond_atom_site_label_2
_geom_bond_distance
_geom_bond_site_symmetry_2
Nb0 O2 1.927264 1_455
Nb0 O6 1.927264 1_445
Nb0 O0 1.927264 1_555
Nb0 O12 2.167205 1_555
Nb0 O14 2.167205 1_555
Nb0 O16 2.167205 1_445
Nb1 O4 1.927264 1_545
Nb1 O8 1.927264 1_555
Nb1 O1 1.927264 1_445
Nb1 O13 2.167205 1_455
Nb1 O15 2.167205 1_545
Nb1 O17 2.167205 1_555
Nb2 O7 1.927264 1_545
Nb2 O10 1.927264 1_445
Nb2 O3 1.927264 1_555
Nb2 O12 2.167205 1_555
Nb2 O14 2.167205 1_555
Nb2 O16 2.167205 1_445
Nb3 O9 1.927264 1_455
Nb3 O11 1.927264 1_555
Nb3 O5 1.927264 1_445
Nb3 O13 2.167205 1_455
Nb3 O15 2.167205 1_545
Nb3 O17 2.167205 1_555
Fe0 O6 2.130302 1_455
Fe0 O2 2.130305 1_565
Fe0 O0 2.130307 1_555
Fe0 O4 2.224021 1_555
Fe0 O8 2.224024 1_555
Fe0 O1 2.224025 1_555
Fe1 O8 2.130302 1_655
Fe1 O4 2.130305 1_545
Fe1 O1 2.130307 1_555
Fe1 O2 2.224021 1_555
Fe1 O6 2.224024 1_555
Fe1 O0 2.224025 1_555
Fe2 O10 2.130302 1_545
Fe2 O7 2.130305 1_655
Fe2 O3 2.130307 1_555
Fe2 O9 2.224021 1_556
Fe2 O11 2.224024 1_556
Fe2 O5 2.224025 1_556
Fe3 O11 2.130302 1_565
Fe3 O9 2.130305 1_455
Fe3 O5 2.130307 1_555
Fe3 O7 2.224021 1_554
Fe3 O10 2.224024 1_554
Fe3 O3 2.224025 1_554
Fe4 O12 2.091934 1_565
Fe4 O14 2.091937 1_555
Fe4 O16 2.091939 1_555
Fe4 O7 2.314880 1_555
Fe4 O10 2.314883 1_555
Fe4 O3 2.314884 1_555
Fe5 O13 2.091934 1_555
Fe5 O15 2.091937 1_655
Fe5 O17 2.091939 1_555
Fe5 O9 2.314880 1_555
Fe5 O11 2.314883 1_555
Fe5 O5 2.314884 1_555
Fe6 O14 2.091934 1_655
Fe6 O12 2.091937 1_555
Fe6 O16 2.091939 1_555
Fe6 O2 2.314880 1_555
Fe6 O6 2.314883 1_555
Fe6 O0 2.314884 1_555
Fe7 O15 2.091934 1_555
Fe7 O13 2.091937 1_565
Fe7 O17 2.091939 1_555
Fe7 O4 2.314880 1_555
Fe7 O8 2.314883 1_555
Fe7 O1 2.314884 1_555
