# generated using pymatgen
data_ThAlIr
_symmetry_space_group_name_H-M   'P 1'
_cell_length_a   7.18664507
_cell_length_b   7.18664507
_cell_length_c   4.15803482
_cell_angle_alpha   90.00000000
_cell_angle_beta   90.00000000
_cell_angle_gamma   119.99999108
_symmetry_Int_Tables_number   1
_chemical_formula_structural   ThAlIr
_chemical_formula_sum   'Th3 Al3 Ir3'
_cell_volume   185.98211667
_cell_formula_units_Z   3
loop_
 _symmetry_equiv_pos_site_id
 _symmetry_equiv_pos_as_xyz
  1  'x, y, z'
loop_
 _atom_site_type_symbol
 _atom_site_label
 _atom_site_symmetry_multiplicity
 _atom_site_fract_x
 _atom_site_fract_y
 _atom_site_fract_z
 _atom_site_occupancy
  Th  Th0  1  0.42009889  0.00000000  0.50000000  1
  Th  Th1  1  0.00000000  0.42009889  0.50000000  1
  Th  Th2  1  0.57990111  0.57990111  0.50000000  1
  Al  Al0  1  0.77325314  0.00000000  0.00000000  1
  Al  Al1  1  0.00000000  0.77325314  -0.00000000  1
  Al  Al2  1  0.22674686  0.22674686  -0.00000000  1
  Ir  Ir0  1  0.33333300  0.66666700  0.00000000  1
  Ir  Ir1  1  0.66666700  0.33333300  0.00000000  1
  Ir  Ir2  1  0.00000000  -0.00000000  0.50000000  1
loop_
_geom_bond_atom_site_label_1
_geom_bond_atom_site_label_2
_geom_bond_distance
_geom_bond_site_symmetry_2
Al0 Ir2 2.641542 1_655
Al0 Ir2 2.641542 1_654
Al0 Ir1 2.856636 1_555
Al0 Ir0 2.856642 1_545
Al1 Ir2 2.641542 1_564
Al1 Ir2 2.641542 1_565
Al1 Ir0 2.856636 1_555
Al1 Ir1 2.856642 1_455
Al2 Ir2 2.641542 1_554
Al2 Ir2 2.641542 1_555
Al2 Ir0 2.856644 1_555
Al2 Ir1 2.856644 1_555
Ir0 Th0 2.992661 1_564
Ir0 Th0 2.992661 1_565
Ir0 Th1 2.992662 1_554
Ir0 Th1 2.992662 1_555
Ir0 Th2 2.992666 1_555
Ir0 Th2 2.992666 1_554
Ir1 Th1 2.992661 1_655
Ir1 Th1 2.992661 1_654
Ir1 Th0 2.992662 1_555
Ir1 Th0 2.992662 1_554
Ir1 Th2 2.992666 1_555
Ir1 Th2 2.992666 1_554
Ir2 Th0 3.019102 1_555
Ir2 Th1 3.019102 1_555
Ir2 Th2 3.019102 1_445
