# generated using pymatgen
data_Lu5(Ge5Rh2)2
_symmetry_space_group_name_H-M   'P 1'
_cell_length_a   13.03180100
_cell_length_b   13.03180100
_cell_length_c   4.21297400
_cell_angle_alpha   90.00000000
_cell_angle_beta   90.00000000
_cell_angle_gamma   90.00000000
_symmetry_Int_Tables_number   1
_chemical_formula_structural   Lu5(Ge5Rh2)2
_chemical_formula_sum   'Lu10 Ge20 Rh8'
_cell_volume   715.48026304
_cell_formula_units_Z   2
loop_
 _symmetry_equiv_pos_site_id
 _symmetry_equiv_pos_as_xyz
  1  'x, y, z'
loop_
 _atom_site_type_symbol
 _atom_site_label
 _atom_site_symmetry_multiplicity
 _atom_site_fract_x
 _atom_site_fract_y
 _atom_site_fract_z
 _atom_site_occupancy
  Lu  Lu0  1  0.50000000  0.50000000  0.00000000  1
  Lu  Lu1  1  0.00000000  0.00000000  0.00000000  1
  Lu  Lu2  1  0.67498900  0.17498900  0.50000000  1
  Lu  Lu3  1  0.32501100  0.82501100  0.50000000  1
  Lu  Lu4  1  0.17498900  0.32501100  0.50000000  1
  Lu  Lu5  1  0.82501100  0.67498900  0.50000000  1
  Lu  Lu6  1  0.88686100  0.38686100  0.50000000  1
  Lu  Lu7  1  0.11313900  0.61313900  0.50000000  1
  Lu  Lu8  1  0.38686100  0.11313900  0.50000000  1
  Lu  Lu9  1  0.61313900  0.88686100  0.50000000  1
  Ge  Ge0  1  0.56622300  0.06622300  0.00000000  1
  Ge  Ge1  1  0.43377700  0.93377700  0.00000000  1
  Ge  Ge2  1  0.06622300  0.43377700  0.00000000  1
  Ge  Ge3  1  0.93377700  0.56622300  0.00000000  1
  Ge  Ge4  1  0.66189300  0.69955000  0.00000000  1
  Ge  Ge5  1  0.33810700  0.30045000  0.00000000  1
  Ge  Ge6  1  0.16189300  0.80045000  0.00000000  1
  Ge  Ge7  1  0.83810700  0.19955000  0.00000000  1
  Ge  Ge8  1  0.30045000  0.66189300  0.00000000  1
  Ge  Ge9  1  0.69955000  0.33810700  0.00000000  1
  Ge  Ge10  1  0.19955000  0.16189300  0.00000000  1
  Ge  Ge11  1  0.80045000  0.83810700  0.00000000  1
  Ge  Ge12  1  0.65515700  0.50764600  0.50000000  1
  Ge  Ge13  1  0.34484300  0.49235400  0.50000000  1
  Ge  Ge14  1  0.15515700  0.99235400  0.50000000  1
  Ge  Ge15  1  0.84484300  0.00764600  0.50000000  1
  Ge  Ge16  1  0.49235400  0.65515700  0.50000000  1
  Ge  Ge17  1  0.50764600  0.34484300  0.50000000  1
  Ge  Ge18  1  0.00764600  0.15515700  0.50000000  1
  Ge  Ge19  1  0.99235400  0.84484300  0.50000000  1
  Rh  Rh0  1  0.74710600  0.52063500  0.00000000  1
  Rh  Rh1  1  0.25289400  0.47936500  0.00000000  1
  Rh  Rh2  1  0.24710600  0.97936500  0.00000000  1
  Rh  Rh3  1  0.75289400  0.02063500  0.00000000  1
  Rh  Rh4  1  0.47936500  0.74710600  0.00000000  1
  Rh  Rh5  1  0.52063500  0.25289400  0.00000000  1
  Rh  Rh6  1  0.02063500  0.24710600  0.00000000  1
  Rh  Rh7  1  0.97936500  0.75289400  0.00000000  1
loop_
_geom_bond_atom_site_label_1
_geom_bond_atom_site_label_2
_geom_bond_distance
_geom_bond_site_symmetry_2
Lu0 Rh0 3.231445 1_555
Lu0 Rh4 3.231445 1_555
Lu0 Rh5 3.231445 1_555
Lu0 Rh1 3.231445 1_555
Lu1 Rh6 3.231445 1_555
Lu1 Rh3 3.231445 1_455
Lu1 Rh2 3.231445 1_545
Lu1 Rh7 3.231445 1_445
Lu2 Rh5 3.084506 1_556
Lu2 Rh3 3.084506 1_555
Lu2 Rh5 3.084506 1_555
Lu2 Rh3 3.084506 1_556
Lu3 Rh2 3.084506 1_555
Lu3 Rh2 3.084506 1_556
Lu3 Rh4 3.084506 1_556
Lu3 Rh4 3.084506 1_555
Lu4 Rh6 3.084506 1_555
Lu4 Rh6 3.084506 1_556
Lu4 Rh1 3.084506 1_555
Lu4 Rh1 3.084506 1_556
Lu5 Rh0 3.084506 1_555
Lu5 Rh0 3.084506 1_556
Lu5 Rh7 3.084506 1_555
Lu5 Rh7 3.084506 1_556
Lu6 Rh6 3.285335 1_656
Lu6 Rh6 3.285335 1_655
Lu6 Rh0 3.285335 1_556
Lu6 Rh0 3.285335 1_555
Lu7 Rh7 3.285335 1_456
Lu7 Rh7 3.285335 1_455
Lu7 Rh1 3.285335 1_555
Lu7 Rh1 3.285335 1_556
Lu8 Rh2 3.285335 1_545
Lu8 Rh2 3.285335 1_546
Lu8 Rh5 3.285335 1_556
Lu8 Rh5 3.285335 1_555
Lu9 Rh3 3.285335 1_566
Lu9 Rh3 3.285335 1_565
Lu9 Rh4 3.285335 1_555
Lu9 Rh4 3.285335 1_556
Ge0 Ge1 2.440947 1_545
Ge0 Rh3 2.504152 1_555
Ge0 Rh5 2.504152 1_555
Ge0 Lu2 2.907822 1_555
Ge0 Lu2 2.907822 1_554
Ge0 Lu9 3.205399 1_544
Ge0 Lu9 3.205399 1_545
Ge0 Lu8 3.205399 1_555
Ge0 Lu8 3.205399 1_554
Ge1 Rh2 2.504152 1_555
Ge1 Rh4 2.504152 1_555
Ge1 Lu3 2.907822 1_554
Ge1 Lu3 2.907822 1_555
Ge1 Lu8 3.205399 1_565
Ge1 Lu8 3.205399 1_564
Ge1 Lu9 3.205399 1_554
Ge1 Lu9 3.205399 1_555
Ge2 Ge3 2.440947 1_455
Ge2 Rh6 2.504152 1_555
Ge2 Rh1 2.504152 1_555
Ge2 Lu4 2.907822 1_555
Ge2 Lu4 2.907822 1_554
Ge2 Lu6 3.205399 1_454
Ge2 Lu6 3.205399 1_455
Ge2 Lu7 3.205399 1_554
Ge2 Lu7 3.205399 1_555
Ge3 Rh7 2.504152 1_555
Ge3 Rh0 2.504152 1_555
Ge3 Lu5 2.907822 1_555
Ge3 Lu5 2.907822 1_554
Ge3 Lu7 3.205399 1_655
Ge3 Lu7 3.205399 1_654
Ge3 Lu6 3.205399 1_555
Ge3 Lu6 3.205399 1_554
Ge4 Rh4 2.458077 1_555
Ge4 Rh0 2.582528 1_555
Ge4 Lu5 3.009722 1_554
Ge4 Lu5 3.009722 1_555
Ge4 Lu9 3.286250 1_554
Ge4 Lu9 3.286250 1_555
Ge4 Lu0 3.348680 1_555
Ge5 Rh5 2.458077 1_555
Ge5 Rh1 2.582528 1_555
Ge5 Lu4 3.009722 1_554
Ge5 Lu4 3.009722 1_555
Ge5 Lu8 3.286250 1_555
Ge5 Lu8 3.286250 1_554
Ge5 Lu0 3.348680 1_555
Ge6 Rh7 2.458077 1_455
Ge6 Ge8 2.553571 1_555
Ge6 Rh2 2.582528 1_555
Ge6 Lu3 3.009722 1_555
Ge6 Lu3 3.009722 1_554
Ge6 Lu7 3.286250 1_554
Ge6 Lu7 3.286250 1_555
Ge6 Lu1 3.348680 1_565
Ge7 Rh6 2.458077 1_655
Ge7 Ge9 2.553571 1_555
Ge7 Rh3 2.582528 1_555
Ge7 Lu2 3.009722 1_554
Ge7 Lu2 3.009722 1_555
Ge7 Lu6 3.286250 1_554
Ge7 Lu6 3.286250 1_555
Ge7 Lu1 3.348680 1_655
Ge8 Rh1 2.458077 1_555
Ge8 Rh4 2.582528 1_555
Ge8 Lu3 3.009722 1_555
Ge8 Lu3 3.009722 1_554
Ge8 Lu7 3.286250 1_554
Ge8 Lu7 3.286250 1_555
Ge8 Lu0 3.348680 1_555
Ge9 Rh0 2.458077 1_555
Ge9 Rh5 2.582528 1_555
Ge9 Lu2 3.009722 1_555
Ge9 Lu2 3.009722 1_554
Ge9 Lu6 3.286250 1_555
Ge9 Lu6 3.286250 1_554
Ge9 Lu0 3.348680 1_555
Ge10 Rh2 2.458077 1_545
Ge10 Ge5 2.553571 1_555
Ge10 Rh6 2.582528 1_555
Ge10 Lu4 3.009722 1_554
Ge10 Lu4 3.009722 1_555
Ge10 Lu8 3.286250 1_554
Ge10 Lu8 3.286250 1_555
Ge10 Lu1 3.348680 1_555
Ge11 Rh3 2.458077 1_565
Ge11 Ge4 2.553571 1_555
Ge11 Rh7 2.582528 1_555
Ge11 Lu5 3.009722 1_554
Ge11 Lu5 3.009722 1_555
Ge11 Lu9 3.286250 1_554
Ge11 Lu9 3.286250 1_555
Ge11 Lu1 3.348680 1_665
Ge12 Rh0 2.429356 1_556
Ge12 Rh0 2.429356 1_555
Ge12 Ge17 2.862975 1_555
Ge12 Ge16 2.862975 1_555
Ge12 Lu0 2.921575 1_555
Ge12 Lu0 2.921575 1_556
Ge12 Lu5 3.107314 1_555
Ge12 Lu6 3.405161 1_555
Ge13 Rh1 2.429356 1_555
Ge13 Rh1 2.429356 1_556
Ge13 Ge17 2.862975 1_555
Ge13 Ge16 2.862975 1_555
Ge13 Lu0 2.921575 1_556
Ge13 Lu0 2.921575 1_555
Ge13 Lu4 3.107314 1_555
Ge13 Lu7 3.405161 1_555
Ge14 Rh2 2.429356 1_555
Ge14 Rh2 2.429356 1_556
Ge14 Ge19 2.862975 1_455
Ge14 Ge18 2.862975 1_565
Ge14 Lu1 2.921575 1_565
Ge14 Lu1 2.921575 1_566
Ge14 Lu3 3.107314 1_555
Ge14 Lu8 3.405161 1_565
Ge15 Rh3 2.429356 1_555
Ge15 Rh3 2.429356 1_556
Ge15 Ge19 2.862975 1_545
Ge15 Ge18 2.862975 1_655
Ge15 Lu1 2.921575 1_655
Ge15 Lu1 2.921575 1_656
Ge15 Lu2 3.107314 1_555
Ge15 Lu9 3.405161 1_545
Ge16 Rh4 2.429356 1_556
Ge16 Rh4 2.429356 1_555
Ge16 Lu0 2.921575 1_556
Ge16 Lu0 2.921575 1_555
Ge16 Lu3 3.107314 1_555
Ge16 Lu9 3.405161 1_555
Ge17 Rh5 2.429356 1_555
Ge17 Rh5 2.429356 1_556
Ge17 Lu0 2.921575 1_556
Ge17 Lu0 2.921575 1_555
Ge17 Lu2 3.107314 1_555
Ge17 Lu8 3.405161 1_555
Ge18 Rh6 2.429356 1_555
Ge18 Rh6 2.429356 1_556
Ge18 Lu1 2.921575 1_556
Ge18 Lu1 2.921575 1_555
Ge18 Lu4 3.107314 1_555
Ge18 Lu6 3.405161 1_455
Ge19 Rh7 2.429356 1_555
Ge19 Rh7 2.429356 1_556
Ge19 Lu1 2.921575 1_666
Ge19 Lu1 2.921575 1_665
Ge19 Lu5 3.107314 1_555
Ge19 Lu7 3.405161 1_655
