# generated using pymatgen
data_GaFeN2
_symmetry_space_group_name_H-M   'P 1'
_cell_length_a   5.23690900
_cell_length_b   10.80407300
_cell_length_c   12.99896000
_cell_angle_alpha   90.00000000
_cell_angle_beta   90.00000000
_cell_angle_gamma   90.00000000
_symmetry_Int_Tables_number   1
_chemical_formula_structural   GaFeN2
_chemical_formula_sum   'Ga16 Fe16 N32'
_cell_volume   735.48046955
_cell_formula_units_Z   16
loop_
 _symmetry_equiv_pos_site_id
 _symmetry_equiv_pos_as_xyz
  1  'x, y, z'
loop_
 _atom_site_type_symbol
 _atom_site_label
 _atom_site_symmetry_multiplicity
 _atom_site_fract_x
 _atom_site_fract_y
 _atom_site_fract_z
 _atom_site_occupancy
  Ga  Ga0  1  0.61307400  0.04752300  0.18520700  1
  Ga  Ga1  1  0.11307400  0.45247700  0.81479300  1
  Ga  Ga2  1  0.38692600  0.54752300  0.31479300  1
  Ga  Ga3  1  0.88692600  0.95247700  0.68520700  1
  Ga  Ga4  1  0.38692600  0.95247700  0.81479300  1
  Ga  Ga5  1  0.88692600  0.54752300  0.18520700  1
  Ga  Ga6  1  0.61307400  0.45247700  0.68520700  1
  Ga  Ga7  1  0.11307400  0.04752300  0.31479300  1
  Ga  Ga8  1  0.80054400  0.29565600  0.06383500  1
  Ga  Ga9  1  0.30054400  0.20434400  0.93616500  1
  Ga  Ga10  1  0.19945600  0.79565600  0.43616500  1
  Ga  Ga11  1  0.69945600  0.70434400  0.56383500  1
  Ga  Ga12  1  0.19945600  0.70434400  0.93616500  1
  Ga  Ga13  1  0.69945600  0.79565600  0.06383500  1
  Ga  Ga14  1  0.80054400  0.20434400  0.56383500  1
  Ga  Ga15  1  0.30054400  0.29565600  0.43616500  1
  Fe  Fe0  1  0.64899700  0.95412700  0.44130100  1
  Fe  Fe1  1  0.14899700  0.54587300  0.55869900  1
  Fe  Fe2  1  0.35100300  0.45412700  0.05869900  1
  Fe  Fe3  1  0.85100300  0.04587300  0.94130100  1
  Fe  Fe4  1  0.35100300  0.04587300  0.55869900  1
  Fe  Fe5  1  0.85100300  0.45412700  0.44130100  1
  Fe  Fe6  1  0.64899700  0.54587300  0.94130100  1
  Fe  Fe7  1  0.14899700  0.95412700  0.05869900  1
  Fe  Fe8  1  0.78357000  0.30008800  0.30741800  1
  Fe  Fe9  1  0.28357000  0.19991200  0.69258200  1
  Fe  Fe10  1  0.21643000  0.80008800  0.19258200  1
  Fe  Fe11  1  0.71643000  0.69991200  0.80741800  1
  Fe  Fe12  1  0.21643000  0.69991200  0.69258200  1
  Fe  Fe13  1  0.71643000  0.80008800  0.30741800  1
  Fe  Fe14  1  0.78357000  0.19991200  0.80741800  1
  Fe  Fe15  1  0.28357000  0.30008800  0.19258200  1
  N  N0  1  0.72818000  0.47639800  0.30808400  1
  N  N1  1  0.22818000  0.02360200  0.69191600  1
  N  N2  1  0.27182000  0.97639800  0.19191600  1
  N  N3  1  0.77182000  0.52360200  0.80808400  1
  N  N4  1  0.27182000  0.52360200  0.69191600  1
  N  N5  1  0.77182000  0.97639800  0.30808400  1
  N  N6  1  0.72818000  0.02360200  0.80808400  1
  N  N7  1  0.22818000  0.47639800  0.19191600  1
  N  N8  1  0.67598200  0.29928500  0.44653000  1
  N  N9  1  0.17598200  0.20071500  0.55347000  1
  N  N10  1  0.32401800  0.79928500  0.05347000  1
  N  N11  1  0.82401800  0.70071500  0.94653000  1
  N  N12  1  0.32401800  0.70071500  0.55347000  1
  N  N13  1  0.82401800  0.79928500  0.44653000  1
  N  N14  1  0.67598200  0.20071500  0.94653000  1
  N  N15  1  0.17598200  0.29928500  0.05347000  1
  N  N16  1  0.70419900  0.47396100  0.06881700  1
  N  N17  1  0.20419900  0.02603900  0.93118300  1
  N  N18  1  0.29580100  0.97396100  0.43118300  1
  N  N19  1  0.79580100  0.52603900  0.56881700  1
  N  N20  1  0.29580100  0.52603900  0.93118300  1
  N  N21  1  0.79580100  0.97396100  0.06881700  1
  N  N22  1  0.70419900  0.02603900  0.56881700  1
  N  N23  1  0.20419900  0.47396100  0.43118300  1
  N  N24  1  0.62859300  0.22682500  0.18690400  1
  N  N25  1  0.12859300  0.27317500  0.81309600  1
  N  N26  1  0.37140700  0.72682500  0.31309600  1
  N  N27  1  0.87140700  0.77317500  0.68690400  1
  N  N28  1  0.37140700  0.77317500  0.81309600  1
  N  N29  1  0.87140700  0.72682500  0.18690400  1
  N  N30  1  0.62859300  0.27317500  0.68690400  1
  N  N31  1  0.12859300  0.22682500  0.31309600  1
loop_
_geom_bond_atom_site_label_1
_geom_bond_atom_site_label_2
_geom_bond_distance
_geom_bond_site_symmetry_2
Ga0 N24 1.939021 1_555
Ga0 N2 1.947277 1_545
Ga0 N5 1.957781 1_545
Ga0 N21 1.958667 1_545
Ga1 N25 1.939021 1_555
Ga1 N3 1.947277 1_455
Ga1 N4 1.957781 1_555
Ga1 N20 1.958667 1_555
Ga2 N26 1.939021 1_555
Ga2 N0 1.947277 1_555
Ga2 N7 1.957781 1_555
Ga2 N23 1.958667 1_555
Ga3 N27 1.939021 1_555
Ga3 N1 1.947277 1_665
Ga3 N6 1.957781 1_565
Ga3 N22 1.958667 1_565
Ga4 N28 1.939021 1_555
Ga4 N6 1.947277 1_565
Ga4 N1 1.957781 1_565
Ga4 N17 1.958667 1_565
Ga5 N29 1.939021 1_555
Ga5 N7 1.947277 1_655
Ga5 N0 1.957781 1_555
Ga5 N16 1.958667 1_555
Ga6 N30 1.939021 1_555
Ga6 N4 1.947277 1_555
Ga6 N3 1.957781 1_555
Ga6 N19 1.958667 1_555
Ga7 N31 1.939021 1_555
Ga7 N5 1.947277 1_445
Ga7 N2 1.957781 1_545
Ga7 N18 1.958667 1_545
Ga8 N14 1.950084 1_554
Ga8 N15 1.971136 1_655
Ga8 N24 1.980699 1_555
Ga8 N16 1.992451 1_555
Ga9 N15 1.950084 1_556
Ga9 N14 1.971136 1_555
Ga9 N25 1.980699 1_555
Ga9 N17 1.992451 1_555
Ga10 N12 1.950084 1_555
Ga10 N13 1.971136 1_455
Ga10 N26 1.980699 1_555
Ga10 N18 1.992451 1_555
Ga11 N13 1.950084 1_555
Ga11 N12 1.971136 1_555
Ga11 N27 1.980699 1_555
Ga11 N19 1.992451 1_555
Ga12 N10 1.950084 1_556
Ga12 N11 1.971136 1_455
Ga12 N28 1.980699 1_555
Ga12 N20 1.992451 1_555
Ga13 N11 1.950084 1_554
Ga13 N10 1.971136 1_555
Ga13 N29 1.980699 1_555
Ga13 N21 1.992451 1_555
Ga14 N8 1.950084 1_555
Ga14 N9 1.971136 1_655
Ga14 N30 1.980699 1_555
Ga14 N22 1.992451 1_555
Ga15 N9 1.950084 1_555
Ga15 N8 1.971136 1_555
Ga15 N31 1.980699 1_555
Ga15 N23 1.992451 1_555
Fe0 N22 1.853313 1_565
Fe0 N5 1.862886 1_555
Fe0 N18 1.866666 1_555
Fe0 N13 1.908768 1_555
Fe1 N23 1.853313 1_555
Fe1 N4 1.862886 1_555
Fe1 N19 1.866666 1_455
Fe1 N12 1.908768 1_555
Fe2 N20 1.853313 1_554
Fe2 N7 1.862886 1_555
Fe2 N16 1.866666 1_555
Fe2 N15 1.908768 1_555
Fe3 N21 1.853313 1_546
Fe3 N6 1.862886 1_555
Fe3 N17 1.866666 1_655
Fe3 N14 1.908768 1_555
Fe4 N18 1.853313 1_545
Fe4 N1 1.862886 1_555
Fe4 N22 1.866666 1_555
Fe4 N9 1.908768 1_555
Fe5 N19 1.853313 1_555
Fe5 N0 1.862886 1_555
Fe5 N23 1.866666 1_655
Fe5 N8 1.908768 1_555
Fe6 N16 1.853313 1_556
Fe6 N3 1.862886 1_555
Fe6 N20 1.866666 1_555
Fe6 N11 1.908768 1_555
Fe7 N17 1.853313 1_564
Fe7 N2 1.862886 1_555
Fe7 N21 1.866666 1_455
Fe7 N10 1.908768 1_555
Fe8 N8 1.894074 1_555
Fe8 N0 1.926845 1_555
Fe8 N24 1.933734 1_555
Fe8 N31 1.974007 1_655
Fe9 N9 1.894074 1_555
Fe9 N1 1.926845 1_555
Fe9 N25 1.933734 1_555
Fe9 N30 1.974007 1_555
Fe10 N10 1.894074 1_555
Fe10 N2 1.926845 1_555
Fe10 N26 1.933734 1_555
Fe10 N29 1.974007 1_455
Fe11 N11 1.894074 1_555
Fe11 N3 1.926845 1_555
Fe11 N27 1.933734 1_555
Fe11 N28 1.974007 1_555
Fe12 N12 1.894074 1_555
Fe12 N4 1.926845 1_555
Fe12 N28 1.933734 1_555
Fe12 N27 1.974007 1_455
Fe13 N13 1.894074 1_555
Fe13 N5 1.926845 1_555
Fe13 N29 1.933734 1_555
Fe13 N26 1.974007 1_555
Fe14 N14 1.894074 1_555
Fe14 N6 1.926845 1_555
Fe14 N30 1.933734 1_555
Fe14 N25 1.974007 1_655
Fe15 N15 1.894074 1_555
Fe15 N7 1.926845 1_555
Fe15 N31 1.933734 1_555
Fe15 N24 1.974007 1_555
