# generated using pymatgen
data_Zr5ZnSb3
_symmetry_space_group_name_H-M   'P 1'
_cell_length_a   8.62919234
_cell_length_b   8.62919258
_cell_length_c   5.86079540
_cell_angle_alpha   90.00000000
_cell_angle_beta   90.00000000
_cell_angle_gamma   119.99999907
_symmetry_Int_Tables_number   1
_chemical_formula_structural   Zr5ZnSb3
_chemical_formula_sum   'Zr10 Zn2 Sb6'
_cell_volume   377.94404509
_cell_formula_units_Z   2
loop_
 _symmetry_equiv_pos_site_id
 _symmetry_equiv_pos_as_xyz
  1  'x, y, z'
loop_
 _atom_site_type_symbol
 _atom_site_label
 _atom_site_symmetry_multiplicity
 _atom_site_fract_x
 _atom_site_fract_y
 _atom_site_fract_z
 _atom_site_occupancy
  Zr  Zr0  1  0.26762397  0.26762397  0.75000000  1
  Zr  Zr1  1  0.33333300  0.66666700  0.50000000  1
  Zr  Zr2  1  0.26762397  0.00000000  0.25000000  1
  Zr  Zr3  1  0.73237603  0.00000000  0.75000000  1
  Zr  Zr4  1  0.00000000  0.73237603  0.75000000  1
  Zr  Zr5  1  -0.00000000  0.26762397  0.25000000  1
  Zr  Zr6  1  0.73237603  0.73237603  0.25000000  1
  Zr  Zr7  1  0.33333300  0.66666700  -0.00000000  1
  Zr  Zr8  1  0.66666700  0.33333300  0.50000000  1
  Zr  Zr9  1  0.66666700  0.33333300  -0.00000000  1
  Zn  Zn0  1  0.00000000  0.00000000  0.50000000  1
  Zn  Zn1  1  0.00000000  0.00000000  -0.00000000  1
  Sb  Sb0  1  -0.00000000  0.38564755  0.75000000  1
  Sb  Sb1  1  0.00000000  0.61435245  0.25000000  1
  Sb  Sb2  1  0.38564755  0.38564755  0.25000000  1
  Sb  Sb3  1  0.38564755  0.00000000  0.75000000  1
  Sb  Sb4  1  0.61435245  0.61435245  0.75000000  1
  Sb  Sb5  1  0.61435245  0.00000000  0.25000000  1
loop_
_geom_bond_atom_site_label_1
_geom_bond_atom_site_label_2
_geom_bond_distance
_geom_bond_site_symmetry_2
Zn0 Zr2 2.734966 1_555
Zn0 Zr3 2.734966 1_455
Zn0 Zr5 2.734966 1_555
Zn0 Zr0 2.734966 1_555
Zn0 Zr4 2.734966 1_545
Zn0 Zr6 2.734966 1_445
Zn1 Zr2 2.734966 1_555
Zn1 Zr3 2.734966 1_454
Zn1 Zr5 2.734966 1_555
Zn1 Zr0 2.734966 1_554
Zn1 Zr6 2.734966 1_445
Zn1 Zr4 2.734966 1_544
Sb0 Zr0 2.953379 1_555
Sb0 Zr3 2.953379 1_455
Sb0 Zr4 2.991987 1_555
Sb0 Zr8 3.053809 1_455
Sb0 Zr9 3.053809 1_456
Sb0 Zr7 3.053811 1_556
Sb0 Zr1 3.053811 1_555
Sb0 Zr5 3.102333 1_555
Sb0 Zr5 3.102333 1_556
Sb1 Zr6 2.953379 1_455
Sb1 Zr2 2.953379 1_565
Sb1 Zr5 2.991987 1_555
Sb1 Zr1 3.053809 1_555
Sb1 Zr7 3.053809 1_555
Sb1 Zr8 3.053811 1_455
Sb1 Zr9 3.053811 1_455
Sb1 Zr4 3.102333 1_555
Sb1 Zr4 3.102333 1_554
Sb2 Zr5 2.953379 1_555
Sb2 Zr2 2.953379 1_555
Sb2 Zr6 2.991987 1_555
Sb2 Zr8 3.053816 1_555
Sb2 Zr9 3.053816 1_555
Sb2 Zr1 3.053816 1_555
Sb2 Zr7 3.053816 1_555
Sb2 Zr0 3.102333 1_554
Sb2 Zr0 3.102333 1_555
Sb3 Zr0 2.953379 1_555
Sb3 Zr4 2.953379 1_545
Sb3 Zr3 2.991987 1_555
Sb3 Zr7 3.053809 1_546
Sb3 Zr1 3.053809 1_545
Sb3 Zr8 3.053811 1_555
Sb3 Zr9 3.053811 1_556
Sb3 Zr2 3.102333 1_556
Sb3 Zr2 3.102333 1_555
Sb4 Zr4 2.953379 1_655
Sb4 Zr3 2.953379 1_565
Sb4 Zr0 2.991987 1_555
Sb4 Zr1 3.053816 1_555
Sb4 Zr7 3.053816 1_556
Sb4 Zr8 3.053816 1_555
Sb4 Zr9 3.053816 1_556
Sb4 Zr6 3.102333 1_556
Sb4 Zr6 3.102333 1_555
Sb5 Zr6 2.953379 1_545
Sb5 Zr5 2.953379 1_655
Sb5 Zr2 2.991987 1_555
Sb5 Zr8 3.053809 1_555
Sb5 Zr9 3.053809 1_555
Sb5 Zr7 3.053811 1_545
Sb5 Zr1 3.053811 1_545
Sb5 Zr3 3.102333 1_554
Sb5 Zr3 3.102333 1_555
