# generated using pymatgen
data_Na5Fe2P2(CO7)2
_symmetry_space_group_name_H-M   'P 1'
_cell_length_a   10.40524817
_cell_length_b   8.46357791
_cell_length_c   8.49036258
_cell_angle_alpha   76.85363404
_cell_angle_beta   71.28635830
_cell_angle_gamma   107.52191191
_symmetry_Int_Tables_number   1
_chemical_formula_structural   Na5Fe2P2(CO7)2
_chemical_formula_sum   'Na10 Fe4 P4 C4 O28'
_cell_volume   630.36423578
_cell_formula_units_Z   2
loop_
 _symmetry_equiv_pos_site_id
 _symmetry_equiv_pos_as_xyz
  1  'x, y, z'
loop_
 _atom_site_type_symbol
 _atom_site_label
 _atom_site_symmetry_multiplicity
 _atom_site_fract_x
 _atom_site_fract_y
 _atom_site_fract_z
 _atom_site_occupancy
  Na  Na0  1  0.91493800  0.70916800  0.55005200  1
  Na  Na1  1  0.92137300  0.21127000  0.05879600  1
  Na  Na2  1  0.72813700  0.75886100  0.26648300  1
  Na  Na3  1  0.73574700  0.49613000  0.00236200  1
  Na  Na4  1  0.74140000  0.23496100  0.75852900  1
  Na  Na5  1  0.27186300  0.74113900  0.23351700  1
  Na  Na6  1  0.25860000  0.26503900  0.74147100  1
  Na  Na7  1  0.26425300  0.00387000  0.49763800  1
  Na  Na8  1  0.07862700  0.28873000  0.44120400  1
  Na  Na9  1  0.08506200  0.79083200  0.94994800  1
  Fe  Fe0  1  0.64773700  0.30031900  0.44405400  1
  Fe  Fe1  1  0.65340300  0.81539100  0.92609500  1
  Fe  Fe2  1  0.35226300  0.19968100  0.05594600  1
  Fe  Fe3  1  0.34659700  0.68460900  0.57390500  1
  P  P0  1  0.58078500  0.55444800  0.68992100  1
  P  P1  1  0.57906100  0.06428900  0.18485300  1
  P  P2  1  0.42093900  0.43571100  0.31514700  1
  P  P3  1  0.41921400  0.94555200  0.81007900  1
  C  C0  1  0.92848000  0.48228400  0.27849900  1
  C  C1  1  0.94453500  0.98121000  0.77198400  1
  C  C2  1  0.07152000  0.01771600  0.22150100  1
  C  C3  1  0.05546500  0.51879000  0.72801600  1
  O  O0  1  0.93262200  0.92702000  0.29615900  1
  O  O1  1  0.91207600  0.44161100  0.80787500  1
  O  O2  1  0.86624900  0.33348400  0.41601500  1
  O  O3  1  0.87860200  0.83407800  0.91179700  1
  O  O4  1  0.83594700  0.52866400  0.22322300  1
  O  O5  1  0.86297600  0.04558800  0.71512800  1
  O  O6  1  0.68533000  0.99370000  0.07850300  1
  O  O7  1  0.67699100  0.65387100  0.77138500  1
  O  O8  1  0.67720800  0.47290000  0.57969400  1
  O  O9  1  0.67012100  0.18766000  0.25784000  1
  O  O10  1  0.56645800  0.58384400  0.16908500  1
  O  O11  1  0.56709000  0.09627200  0.66118000  1
  O  O12  1  0.54257200  0.18757100  0.05092400  1
  O  O13  1  0.54447500  0.67803600  0.56415200  1
  O  O14  1  0.45552500  0.82196400  0.93584800  1
  O  O15  1  0.45742800  0.31242900  0.44907600  1
  O  O16  1  0.43354200  0.91615600  0.33091500  1
  O  O17  1  0.43291000  0.40372800  0.83882000  1
  O  O18  1  0.32300900  0.84612900  0.72861500  1
  O  O19  1  0.31467000  0.50630000  0.42149700  1
  O  O20  1  0.32987900  0.31234000  0.24216000  1
  O  O21  1  0.32279200  0.02710000  0.92030600  1
  O  O22  1  0.16405300  0.97133600  0.27677800  1
  O  O23  1  0.13702400  0.45441200  0.78487200  1
  O  O24  1  0.13375100  0.16651600  0.08398500  1
  O  O25  1  0.12139800  0.66592200  0.58820300  1
  O  O26  1  0.06737800  0.57298000  0.20384100  1
  O  O27  1  0.08792400  0.05838900  0.69212500  1
loop_
_geom_bond_atom_site_label_1
_geom_bond_atom_site_label_2
_geom_bond_distance
_geom_bond_site_symmetry_2
Na0 O25 2.391651 1_655
Na0 O7 2.407731 1_555
Na0 O0 2.411123 1_555
Na0 O8 2.563992 1_555
Na0 O22 2.713207 1_655
Na0 O1 2.753779 1_555
Na1 O24 2.417242 1_655
Na1 O6 2.514764 1_545
Na1 O23 2.524400 1_654
Na1 O9 2.535246 1_555
Na1 O1 2.589434 1_554
Na1 O0 2.824602 1_545
Na2 O0 2.302160 1_555
Na2 O10 2.378558 1_555
Na2 O13 2.415494 1_555
Na2 O6 2.498481 1_555
Na2 O4 2.562478 1_555
Na2 O3 2.725349 1_554
Na2 O8 2.933596 1_555
Na3 O1 2.284336 1_554
Na3 O10 2.307197 1_555
Na3 O4 2.448617 1_555
Na3 O7 2.464111 1_554
Na3 O3 2.586094 1_554
Na3 O12 2.616844 1_555
Na3 O9 2.717988 1_555
Na4 O1 2.308441 1_555
Na4 O11 2.339216 1_555
Na4 O5 2.344221 1_555
Na4 O12 2.521069 1_556
Na4 O2 2.580764 1_555
Na4 O8 2.622377 1_555
Na4 O6 2.762710 1_546
Na5 O26 2.302160 1_555
Na5 O16 2.378558 1_555
Na5 O14 2.415494 1_554
Na5 O19 2.498481 1_555
Na5 O22 2.562480 1_555
Na5 O25 2.725349 1_555
Na5 O21 2.933596 1_564
Na6 O27 2.308441 1_555
Na6 O17 2.339216 1_555
Na6 O23 2.344221 1_555
Na6 O15 2.521069 1_555
Na6 O24 2.580764 1_556
Na6 O21 2.622377 1_555
Na6 O19 2.762710 1_555
Na7 O27 2.284336 1_555
Na7 O16 2.307197 1_545
Na7 O22 2.448609 1_545
Na7 O18 2.464111 1_545
Na7 O25 2.586094 1_545
Na7 O15 2.616844 1_555
Na7 O20 2.717988 1_555
Na8 O2 2.417242 1_455
Na8 O19 2.514764 1_555
Na8 O5 2.524400 1_455
Na8 O20 2.535246 1_555
Na8 O27 2.589434 1_555
Na8 O26 2.824602 1_555
Na9 O3 2.391651 1_455
Na9 O18 2.407731 1_555
Na9 O26 2.411123 1_556
Na9 O21 2.563992 1_565
Na9 O4 2.713210 1_456
Na9 O27 2.753779 1_565
Fe0 O11 1.942055 1_555
Fe0 O15 2.000896 1_555
Fe0 O9 2.011519 1_555
Fe0 O8 2.067818 1_555
Fe0 O2 2.131440 1_555
Fe0 O4 2.191402 1_555
Fe1 O14 2.052065 1_555
Fe1 O7 2.113385 1_555
Fe1 O10 2.193382 1_556
Fe1 O6 2.219129 1_556
Fe1 O5 2.259966 1_565
Fe1 O3 2.261892 1_555
Fe2 O17 1.942055 1_554
Fe2 O12 2.000896 1_555
Fe2 O20 2.011519 1_555
Fe2 O21 2.067818 1_554
Fe2 O24 2.131440 1_555
Fe2 O22 2.191406 1_545
Fe3 O13 2.052065 1_555
Fe3 O18 2.113385 1_555
Fe3 O16 2.193382 1_555
Fe3 O19 2.219129 1_555
Fe3 O23 2.259966 1_555
Fe3 O25 2.261892 1_555
C0 O26 1.265948 1_655
C0 O2 1.312826 1_555
C0 O4 1.317238 1_555
C1 O5 1.292964 1_565
C1 O27 1.294230 1_665
C1 O3 1.311896 1_555
C2 O0 1.265948 1_445
C2 O24 1.312826 1_555
C2 O22 1.317242 1_545
C3 O23 1.292964 1_555
C3 O1 1.294230 1_455
C3 O25 1.311896 1_555
O6 P1 1.548366 1_565
O7 P0 1.546086 1_555
O8 P0 1.570700 1_555
O9 P1 1.564420 1_555
O10 P2 1.532062 1_555
O11 P3 1.558641 1_545
O12 P1 1.581689 1_555
O13 P0 1.538138 1_555
O14 P3 1.538145 1_555
O15 P2 1.581689 1_555
O16 P1 1.532062 1_565
O17 P0 1.558636 1_555
O18 P3 1.546079 1_555
O19 P2 1.548366 1_555
O20 P2 1.564420 1_555
O21 P3 1.570694 1_545
