# generated using pymatgen
data_Nd2TiGe2
_symmetry_space_group_name_H-M   'P 1'
_cell_length_a   3.01330300
_cell_length_b   3.01330300
_cell_length_c   14.63015700
_cell_angle_alpha   90.00000000
_cell_angle_beta   90.00000000
_cell_angle_gamma   90.00000000
_symmetry_Int_Tables_number   1
_chemical_formula_structural   Nd2TiGe2
_chemical_formula_sum   'Nd2 Ti1 Ge2'
_cell_volume   132.84175197
_cell_formula_units_Z   1
loop_
 _symmetry_equiv_pos_site_id
 _symmetry_equiv_pos_as_xyz
  1  'x, y, z'
loop_
 _atom_site_type_symbol
 _atom_site_label
 _atom_site_symmetry_multiplicity
 _atom_site_fract_x
 _atom_site_fract_y
 _atom_site_fract_z
 _atom_site_occupancy
  Nd  Nd0  1  0.50000000  0.50000000  0.62131200  1
  Nd  Nd1  1  0.50000000  0.50000000  0.37868800  1
  Ti  Ti0  1  0.50000000  0.50000000  0.00000000  1
  Ge  Ge0  1  0.50000000  0.50000000  0.17290100  1
  Ge  Ge1  1  0.50000000  0.50000000  0.82709900  1
loop_
_geom_bond_atom_site_label_1
_geom_bond_atom_site_label_2
_geom_bond_distance
_geom_bond_site_symmetry_2
Ge0 Ti0 2.529569 1_555
Ge0 Nd1 3.010696 1_555
Ge1 Ti0 2.529569 1_556
Ge1 Nd0 3.010696 1_555
