# generated using pymatgen
data_Y3(GeRh)2
_symmetry_space_group_name_H-M   'P 1'
_cell_length_a   5.57339683
_cell_length_b   7.79654720
_cell_length_c   13.25150295
_cell_angle_alpha   90.00000000
_cell_angle_beta   90.00000000
_cell_angle_gamma   90.00000000
_symmetry_Int_Tables_number   1
_chemical_formula_structural   Y3(GeRh)2
_chemical_formula_sum   'Y12 Ge8 Rh8'
_cell_volume   575.82088977
_cell_formula_units_Z   4
loop_
 _symmetry_equiv_pos_site_id
 _symmetry_equiv_pos_as_xyz
  1  'x, y, z'
loop_
 _atom_site_type_symbol
 _atom_site_label
 _atom_site_symmetry_multiplicity
 _atom_site_fract_x
 _atom_site_fract_y
 _atom_site_fract_z
 _atom_site_occupancy
  Y  Y0  1  0.62943873  0.26112565  0.25000000  1
  Y  Y1  1  0.37056127  0.73887435  0.75000000  1
  Y  Y2  1  0.37056127  0.76112565  0.25000000  1
  Y  Y3  1  0.62943873  0.23887435  0.75000000  1
  Y  Y4  1  0.14428065  0.39708194  0.10072599  1
  Y  Y5  1  0.85571935  0.60291806  0.89927401  1
  Y  Y6  1  0.85571935  0.60291806  0.60072599  1
  Y  Y7  1  0.85571935  0.89708194  0.39927401  1
  Y  Y8  1  0.14428065  0.39708194  0.39927401  1
  Y  Y9  1  0.14428065  0.10291806  0.60072599  1
  Y  Y10  1  0.14428065  0.10291806  0.89927401  1
  Y  Y11  1  0.85571935  0.89708194  0.10072599  1
  Ge  Ge0  1  0.13206478  0.11323134  0.25000000  1
  Ge  Ge1  1  0.86793522  0.88676866  0.75000000  1
  Ge  Ge2  1  0.86793522  0.61323134  0.25000000  1
  Ge  Ge3  1  0.13206478  0.38676866  0.75000000  1
  Ge  Ge4  1  0.65559334  0.25000000  0.00000000  1
  Ge  Ge5  1  0.34440666  0.75000000  0.00000000  1
  Ge  Ge6  1  0.34440666  0.75000000  0.50000000  1
  Ge  Ge7  1  0.65559334  0.25000000  0.50000000  1
  Rh  Rh0  1  0.37164822  0.04114503  0.09169425  1
  Rh  Rh1  1  0.62835178  0.95885497  0.90830575  1
  Rh  Rh2  1  0.62835178  0.95885497  0.59169425  1
  Rh  Rh3  1  0.62835178  0.54114503  0.40830575  1
  Rh  Rh4  1  0.37164822  0.04114503  0.40830575  1
  Rh  Rh5  1  0.37164822  0.45885497  0.59169425  1
  Rh  Rh6  1  0.37164822  0.45885497  0.90830575  1
  Rh  Rh7  1  0.62835178  0.54114503  0.09169425  1
loop_
_geom_bond_atom_site_label_1
_geom_bond_atom_site_label_2
_geom_bond_distance
_geom_bond_site_symmetry_2
Ge0 Rh4 2.549431 1_555
Ge0 Rh0 2.549431 1_555
Ge0 Y4 2.969031 1_555
Ge0 Y8 2.969031 1_555
Ge0 Y0 3.002314 1_555
Ge0 Y7 3.020766 1_445
Ge0 Y11 3.020766 1_445
Ge0 Y0 3.029362 1_455
Ge0 Y2 3.050088 1_545
Ge1 Rh2 2.549431 1_555
Ge1 Rh1 2.549431 1_555
Ge1 Y6 2.969031 1_555
Ge1 Y5 2.969031 1_555
Ge1 Y1 3.002314 1_555
Ge1 Y9 3.020766 1_665
Ge1 Y10 3.020766 1_665
Ge1 Y1 3.029362 1_655
Ge1 Y3 3.050088 1_565
Ge2 Rh7 2.549431 1_555
Ge2 Rh3 2.549431 1_555
Ge2 Y11 2.969031 1_555
Ge2 Y7 2.969031 1_555
Ge2 Y2 3.002314 1_555
Ge2 Y4 3.020766 1_655
Ge2 Y8 3.020766 1_655
Ge2 Y2 3.029362 1_655
Ge2 Y0 3.050088 1_555
Ge3 Rh6 2.549431 1_555
Ge3 Rh5 2.549431 1_555
Ge3 Y9 2.969031 1_555
Ge3 Y10 2.969031 1_555
Ge3 Y3 3.002314 1_555
Ge3 Y6 3.020766 1_455
Ge3 Y5 3.020766 1_455
Ge3 Y3 3.029362 1_455
Ge3 Y1 3.050088 1_555
Ge4 Rh0 2.575341 1_555
Ge4 Rh6 2.575341 1_554
Ge4 Rh1 2.579157 1_544
Ge4 Rh7 2.579157 1_555
Ge4 Y10 3.242663 1_654
Ge4 Y4 3.242663 1_655
Ge4 Y5 3.255253 1_554
Ge4 Y11 3.255253 1_545
Ge4 Y3 3.317215 1_554
Ge4 Y0 3.317215 1_555
Ge4 Y10 3.349279 1_554
Ge4 Y4 3.349279 1_555
Ge5 Rh1 2.575341 1_554
Ge5 Rh7 2.575341 1_555
Ge5 Rh6 2.579157 1_554
Ge5 Rh0 2.579157 1_565
Ge5 Y5 3.242663 1_454
Ge5 Y11 3.242663 1_455
Ge5 Y10 3.255253 1_564
Ge5 Y4 3.255253 1_555
Ge5 Y2 3.317215 1_555
Ge5 Y1 3.317215 1_554
Ge5 Y5 3.349279 1_554
Ge5 Y11 3.349279 1_555
Ge6 Rh3 2.575341 1_555
Ge6 Rh2 2.575341 1_555
Ge6 Rh5 2.579157 1_555
Ge6 Rh4 2.579157 1_565
Ge6 Y7 3.242663 1_455
Ge6 Y6 3.242663 1_455
Ge6 Y9 3.255253 1_565
Ge6 Y8 3.255253 1_555
Ge6 Y1 3.317215 1_555
Ge6 Y2 3.317215 1_555
Ge6 Y7 3.349279 1_555
Ge6 Y6 3.349279 1_555
Ge7 Rh4 2.575341 1_555
Ge7 Rh5 2.575341 1_555
Ge7 Rh3 2.579157 1_555
Ge7 Rh2 2.579157 1_545
Ge7 Y8 3.242663 1_655
Ge7 Y9 3.242663 1_655
Ge7 Y6 3.255253 1_555
Ge7 Y7 3.255253 1_545
Ge7 Y3 3.317215 1_555
Ge7 Y0 3.317215 1_555
Ge7 Y8 3.349279 1_555
Ge7 Y9 3.349279 1_555
Rh0 Y10 2.887827 1_554
Rh0 Y11 2.924836 1_545
Rh0 Y2 3.027714 1_545
Rh0 Y4 3.053065 1_555
Rh0 Y0 3.067011 1_555
Rh0 Y11 3.089378 1_445
Rh1 Y11 2.887827 1_556
Rh1 Y10 2.924836 1_565
Rh1 Y3 3.027714 1_565
Rh1 Y5 3.053065 1_555
Rh1 Y1 3.067011 1_555
Rh1 Y10 3.089378 1_665
Rh2 Y7 2.887827 1_555
Rh2 Y9 2.924836 1_565
Rh2 Y3 3.027714 1_565
Rh2 Y6 3.053065 1_555
Rh2 Y1 3.067011 1_555
Rh2 Y9 3.089378 1_665
Rh3 Y6 2.887827 1_555
Rh3 Y8 2.924836 1_555
Rh3 Y0 3.027714 1_555
Rh3 Y7 3.053065 1_555
Rh3 Y2 3.067011 1_555
Rh3 Y8 3.089378 1_655
Rh4 Y9 2.887827 1_555
Rh4 Y7 2.924836 1_545
Rh4 Y2 3.027714 1_545
Rh4 Y8 3.053065 1_555
Rh4 Y0 3.067011 1_555
Rh4 Y7 3.089378 1_445
Rh5 Y8 2.887827 1_555
Rh5 Y6 2.924836 1_555
Rh5 Y1 3.027714 1_555
Rh5 Y9 3.053065 1_555
Rh5 Y3 3.067011 1_555
Rh5 Y6 3.089378 1_455
Rh6 Y4 2.887827 1_556
Rh6 Y5 2.924836 1_555
Rh6 Y1 3.027714 1_555
Rh6 Y10 3.053065 1_555
Rh6 Y3 3.067011 1_555
Rh6 Y5 3.089378 1_455
Rh7 Y5 2.887827 1_554
Rh7 Y4 2.924836 1_555
Rh7 Y0 3.027714 1_555
Rh7 Y11 3.053065 1_555
Rh7 Y2 3.067011 1_555
Rh7 Y4 3.089378 1_655
