# generated using pymatgen
data_Sr5Ca3Mn6(FeO12)2
_symmetry_space_group_name_H-M   'P 1'
_cell_length_a   7.56683299
_cell_length_b   7.57488189
_cell_length_c   7.57728616
_cell_angle_alpha   90.00298108
_cell_angle_beta   90.00000000
_cell_angle_gamma   90.00000000
_symmetry_Int_Tables_number   1
_chemical_formula_structural   Sr5Ca3Mn6(FeO12)2
_chemical_formula_sum   'Sr5 Ca3 Mn6 Fe2 O24'
_cell_volume   434.31387354
_cell_formula_units_Z   1
loop_
 _symmetry_equiv_pos_site_id
 _symmetry_equiv_pos_as_xyz
  1  'x, y, z'
loop_
 _atom_site_type_symbol
 _atom_site_label
 _atom_site_symmetry_multiplicity
 _atom_site_fract_x
 _atom_site_fract_y
 _atom_site_fract_z
 _atom_site_occupancy
  Sr  Sr0  1  -0.00000000  0.25040290  0.74909564  1
  Sr  Sr1  1  0.50000000  0.25035360  0.74905043  1
  Sr  Sr2  1  -0.00000000  0.25054212  0.25070757  1
  Sr  Sr3  1  0.50000000  0.25044556  0.25067731  1
  Sr  Sr4  1  -0.00000000  0.74887994  0.25064050  1
  Ca  Ca0  1  -0.00000000  0.74723060  0.74768232  1
  Ca  Ca1  1  0.50000000  0.74747084  0.74737498  1
  Ca  Ca2  1  0.50000000  0.74719276  0.25211591  1
  Mn  Mn0  1  0.25091203  0.50190161  0.99860869  1
  Mn  Mn1  1  0.74908797  0.50190161  0.99860869  1
  Mn  Mn2  1  0.25084815  0.99664508  0.50061300  1
  Mn  Mn3  1  0.74915185  0.99664508  0.50061300  1
  Mn  Mn4  1  0.25086519  0.50177794  0.50037607  1
  Mn  Mn5  1  0.74913481  0.50177794  0.50037607  1
  Fe  Fe0  1  0.25092780  0.99658214  0.99893273  1
  Fe  Fe1  1  0.74907220  0.99658214  0.99893273  1
  O  O0  1  0.25097532  0.99424789  0.75087479  1
  O  O1  1  0.74902468  0.99424789  0.75087479  1
  O  O2  1  0.25096276  0.50757435  0.74997097  1
  O  O3  1  0.74903724  0.50757435  0.74997097  1
  O  O4  1  0.25282973  0.99576012  0.24947957  1
  O  O5  1  0.74717027  0.99576012  0.24947957  1
  O  O6  1  0.25342526  0.50515989  0.25028738  1
  O  O7  1  0.74657474  0.50515989  0.25028738  1
  O  O8  1  0.25078074  0.24968189  0.99930228  1
  O  O9  1  0.74921926  0.24968189  0.99930228  1
  O  O10  1  0.25239600  0.75109414  0.99788291  1
  O  O11  1  0.74760400  0.75109414  0.99788291  1
  O  O12  1  0.25072467  0.25064530  0.50077439  1
  O  O13  1  0.74927533  0.25064530  0.50077439  1
  O  O14  1  0.25293927  0.75014123  0.50325414  1
  O  O15  1  0.74706073  0.75014123  0.50325414  1
  O  O16  1  -0.00000000  0.99615577  0.99756873  1
  O  O17  1  0.50000000  0.99470866  0.99922851  1
  O  O18  1  -0.00000000  0.50496641  0.99694777  1
  O  O19  1  0.50000000  0.50753930  0.99909563  1
  O  O20  1  -0.00000000  0.99544117  0.50351568  1
  O  O21  1  0.50000000  0.99373442  0.50090668  1
  O  O22  1  -0.00000000  0.50521761  0.50346859  1
  O  O23  1  0.50000000  0.50729418  0.50120789  1
loop_
_geom_bond_atom_site_label_1
_geom_bond_atom_site_label_2
_geom_bond_distance
_geom_bond_site_symmetry_2
Ca0 O22 2.604728 1_555
Ca0 O3 2.627173 1_455
Ca0 O2 2.627173 1_555
Ca0 O18 2.633521 1_555
Ca0 O20 2.637865 1_555
Ca0 O14 2.663452 1_555
Ca0 O15 2.663452 1_455
Ca0 O1 2.666127 1_455
Ca0 O0 2.666127 1_555
Ca0 O16 2.672121 1_555
Ca0 O11 2.691198 1_455
Ca0 O10 2.691198 1_555
Ca1 O23 2.605532 1_555
Ca1 O2 2.617940 1_555
Ca1 O3 2.617940 1_555
Ca1 O14 2.630016 1_555
Ca1 O15 2.630016 1_555
Ca1 O19 2.634676 1_555
Ca1 O21 2.639683 1_555
Ca1 O1 2.654374 1_555
Ca1 O0 2.654374 1_555
Ca1 O10 2.667226 1_555
Ca1 O11 2.667226 1_555
Ca1 O17 2.673735 1_555
Ca2 O6 2.615838 1_555
Ca2 O7 2.615838 1_555
Ca2 O23 2.620118 1_555
Ca2 O19 2.640228 1_554
Ca2 O21 2.653508 1_555
Ca2 O4 2.653979 1_555
Ca2 O5 2.653979 1_555
Ca2 O15 2.667697 1_555
Ca2 O14 2.667697 1_555
Ca2 O17 2.680944 1_554
Ca2 O10 2.687411 1_554
Ca2 O11 2.687411 1_554
Mn0 O2 1.884491 1_555
Mn0 O19 1.885294 1_555
Mn0 O10 1.887646 1_555
Mn0 O18 1.898793 1_555
Mn0 O6 1.907295 1_556
Mn0 O8 1.910542 1_555
Mn1 O3 1.884491 1_555
Mn1 O19 1.885294 1_555
Mn1 O11 1.887646 1_555
Mn1 O18 1.898793 1_655
Mn1 O7 1.907295 1_556
Mn1 O9 1.910542 1_555
Mn2 O14 1.867413 1_555
Mn2 O21 1.885421 1_555
Mn2 O0 1.896393 1_555
Mn2 O20 1.898275 1_555
Mn2 O4 1.902980 1_555
Mn2 O12 1.924022 1_565
Mn3 O15 1.867413 1_555
Mn3 O21 1.885421 1_555
Mn3 O1 1.896393 1_555
Mn3 O20 1.898275 1_655
Mn3 O5 1.902980 1_555
Mn3 O13 1.924022 1_565
Mn4 O14 1.881513 1_555
Mn4 O23 1.885635 1_555
Mn4 O2 1.891759 1_555
Mn4 O6 1.895267 1_555
Mn4 O22 1.898578 1_555
Mn4 O12 1.902303 1_555
Mn5 O15 1.881513 1_555
Mn5 O23 1.885635 1_555
Mn5 O3 1.891759 1_555
Mn5 O7 1.895267 1_555
Mn5 O22 1.898578 1_655
Mn5 O13 1.902303 1_555
Fe0 O10 1.859592 1_555
Fe0 O0 1.879688 1_555
Fe0 O17 1.884743 1_555
Fe0 O4 1.898530 1_556
Fe0 O16 1.898760 1_555
Fe0 O8 1.917203 1_565
Fe1 O11 1.859592 1_555
Fe1 O1 1.879688 1_555
Fe1 O17 1.884743 1_555
Fe1 O5 1.898530 1_556
Fe1 O16 1.898760 1_655
Fe1 O9 1.917203 1_565
O0 Sr1 2.704510 1_565
O0 Sr0 2.715079 1_565
O1 Sr1 2.704510 1_565
O1 Sr0 2.715079 1_665
O2 Sr1 2.710614 1_555
O2 Sr0 2.720495 1_555
O3 Sr1 2.710614 1_555
O3 Sr0 2.720495 1_655
O4 Sr4 2.675320 1_555
O4 Sr3 2.686996 1_565
O4 Sr2 2.717498 1_565
O5 Sr4 2.675320 1_655
O5 Sr3 2.686996 1_565
O5 Sr2 2.717498 1_665
O6 Sr4 2.661873 1_555
O6 Sr3 2.684005 1_555
O6 Sr2 2.719777 1_555
O7 Sr4 2.661873 1_655
O7 Sr3 2.684005 1_555
O7 Sr2 2.719777 1_655
O8 Sr1 2.674315 1_555
O8 Sr3 2.680357 1_556
O8 Sr0 2.682418 1_555
O8 Sr2 2.688847 1_556
O9 Sr1 2.674315 1_555
O9 Sr3 2.680357 1_556
O9 Sr0 2.682418 1_655
O9 Sr2 2.688847 1_656
O10 Sr4 2.704778 1_556
O11 Sr4 2.704778 1_656
O12 Sr1 2.664016 1_555
O12 Sr0 2.672034 1_555
O12 Sr3 2.673778 1_555
O12 Sr2 2.681363 1_555
O13 Sr1 2.664016 1_555
O13 Sr0 2.672034 1_655
O13 Sr3 2.673778 1_555
O13 Sr2 2.681363 1_655
O14 Sr4 2.706874 1_555
O15 Sr4 2.706874 1_655
O16 Sr4 2.680672 1_556
O16 Sr0 2.693361 1_565
O16 Sr2 2.718799 1_566
O17 Sr1 2.709964 1_565
O17 Sr3 2.717064 1_566
O18 Sr4 2.666189 1_556
O18 Sr0 2.691650 1_555
O18 Sr2 2.722465 1_556
O19 Sr1 2.717473 1_555
O19 Sr3 2.725247 1_556
O20 Sr4 2.675686 1_555
O20 Sr0 2.681837 1_565
O20 Sr2 2.721014 1_565
O21 Sr1 2.704362 1_565
O21 Sr3 2.716013 1_565
O22 Sr4 2.660287 1_555
O22 Sr0 2.681423 1_555
O22 Sr2 2.718334 1_555
O23 Sr1 2.704668 1_555
O23 Sr3 2.718211 1_555
