# generated using pymatgen
data_LiMoO2
_symmetry_space_group_name_H-M   'P 1'
_cell_length_a   5.58363788
_cell_length_b   5.58363688
_cell_length_c   5.58363863
_cell_angle_alpha   28.71612032
_cell_angle_beta   28.71611456
_cell_angle_gamma   28.71612058
_symmetry_Int_Tables_number   1
_chemical_formula_structural   LiMoO2
_chemical_formula_sum   'Li1 Mo1 O2'
_cell_volume   35.53052127
_cell_formula_units_Z   1
loop_
 _symmetry_equiv_pos_site_id
 _symmetry_equiv_pos_as_xyz
  1  'x, y, z'
loop_
 _atom_site_type_symbol
 _atom_site_label
 _atom_site_symmetry_multiplicity
 _atom_site_fract_x
 _atom_site_fract_y
 _atom_site_fract_z
 _atom_site_occupancy
  Li  Li0  1  0.50000200  0.50000100  0.49999800  1
  Mo  Mo0  1  0.00000100  0.00000000  -0.00000000  1
  O  O0  1  0.24639354  0.24639154  0.24639254  1
  O  O1  1  0.75360846  0.75360746  0.75360746  1
loop_
_geom_bond_atom_site_label_1
_geom_bond_atom_site_label_2
_geom_bond_distance
_geom_bond_site_symmetry_2
Li0 O0 2.047812 1_565
Li0 O0 2.047814 1_655
Li0 O1 2.047815 1_554
Li0 O1 2.047820 1_545
Li0 O0 2.047820 1_556
Li0 O1 2.047820 1_455
Mo0 O1 2.122099 1_454
Mo0 O1 2.122099 1_544
Mo0 O1 2.122100 1_445
Mo0 O0 2.122102 1_455
Mo0 O0 2.122103 1_554
Mo0 O0 2.122103 1_545
