# generated using pymatgen
data_BaCaNdNbO6
_symmetry_space_group_name_H-M   'P 1'
_cell_length_a   8.47292372
_cell_length_b   8.52727453
_cell_length_c   8.50113353
_cell_angle_alpha   90.00000000
_cell_angle_beta   90.00000000
_cell_angle_gamma   90.00000000
_symmetry_Int_Tables_number   1
_chemical_formula_structural   BaCaNdNbO6
_chemical_formula_sum   'Ba4 Ca4 Nd4 Nb4 O24'
_cell_volume   614.21494499
_cell_formula_units_Z   4
loop_
 _symmetry_equiv_pos_site_id
 _symmetry_equiv_pos_as_xyz
  1  'x, y, z'
loop_
 _atom_site_type_symbol
 _atom_site_label
 _atom_site_symmetry_multiplicity
 _atom_site_fract_x
 _atom_site_fract_y
 _atom_site_fract_z
 _atom_site_occupancy
  Ba  Ba0  1  0.00000000  -0.00000000  0.00000000  1
  Ba  Ba1  1  0.50000000  0.50000000  0.50000000  1
  Ba  Ba2  1  0.50000000  -0.00000000  0.50000000  1
  Ba  Ba3  1  0.50000000  0.50000000  0.00000000  1
  Ca  Ca0  1  0.00000000  0.50000000  0.50000000  1
  Ca  Ca1  1  0.50000000  -0.00000000  0.00000000  1
  Ca  Ca2  1  0.00000000  0.50000000  0.00000000  1
  Ca  Ca3  1  0.00000000  -0.00000000  0.50000000  1
  Nd  Nd0  1  0.24368764  0.24955420  0.24635972  1
  Nd  Nd1  1  0.75631236  0.75044580  0.24635972  1
  Nd  Nd2  1  0.75631236  0.24955420  0.75364028  1
  Nd  Nd3  1  0.24368764  0.75044580  0.75364028  1
  Nb  Nb0  1  0.75677570  0.75190266  0.74862816  1
  Nb  Nb1  1  0.24322430  0.24809734  0.74862816  1
  Nb  Nb2  1  0.24322430  0.75190266  0.25137184  1
  Nb  Nb3  1  0.75677570  0.24809734  0.25137184  1
  O  O0  1  0.98142545  0.18436583  0.29250138  1
  O  O1  1  0.01857455  0.81563417  0.29250138  1
  O  O2  1  0.01857455  0.18436583  0.70749862  1
  O  O3  1  0.98142545  0.81563417  0.70749862  1
  O  O4  1  0.29275365  0.97930561  0.19139643  1
  O  O5  1  0.29275365  0.02069439  0.80860357  1
  O  O6  1  0.70724635  0.02069439  0.19139643  1
  O  O7  1  0.70724635  0.97930561  0.80860357  1
  O  O8  1  0.19442241  0.30030180  0.97794655  1
  O  O9  1  0.80557759  0.30030180  0.02205345  1
  O  O10  1  0.19442241  0.69969820  0.02205345  1
  O  O11  1  0.80557759  0.69969820  0.97794655  1
  O  O12  1  0.52086637  0.28543244  0.22634917  1
  O  O13  1  0.47913363  0.71456756  0.22634917  1
  O  O14  1  0.47913363  0.28543244  0.77365083  1
  O  O15  1  0.52086637  0.71456756  0.77365083  1
  O  O16  1  0.19894676  0.51891615  0.29712757  1
  O  O17  1  0.19894676  0.48108385  0.70287243  1
  O  O18  1  0.80105324  0.48108385  0.29712757  1
  O  O19  1  0.80105324  0.51891615  0.70287243  1
  O  O20  1  0.27833839  0.21862941  0.51724469  1
  O  O21  1  0.72166161  0.21862941  0.48275531  1
  O  O22  1  0.27833839  0.78137059  0.48275531  1
  O  O23  1  0.72166161  0.78137059  0.51724469  1
loop_
_geom_bond_atom_site_label_1
_geom_bond_atom_site_label_2
_geom_bond_distance
_geom_bond_site_symmetry_2
Ba0 O3 2.946105 1_444
Ba0 O1 2.946105 1_545
Ba0 O0 2.946105 1_455
Ba0 O2 2.946105 1_554
Ba0 O7 2.971755 1_444
Ba0 O5 2.971755 1_554
Ba0 O6 2.971755 1_455
Ba0 O4 2.971755 1_545
Ba0 O9 3.050623 1_455
Ba0 O8 3.050623 1_554
Ba0 O11 3.050623 1_444
Ba0 O10 3.050623 1_545
Ba1 O15 2.964935 1_555
Ba1 O12 2.964935 1_555
Ba1 O13 2.964935 1_555
Ba1 O14 2.964935 1_555
Ba1 O20 3.050507 1_555
Ba1 O21 3.050507 1_555
Ba1 O22 3.050507 1_555
Ba1 O23 3.050507 1_555
Ba1 O18 3.083344 1_555
Ba1 O19 3.083344 1_555
Ba1 O16 3.083344 1_555
Ba1 O17 3.083344 1_555
Ba2 O22 2.650377 1_545
Ba2 O20 2.650377 1_555
Ba2 O23 2.650377 1_545
Ba2 O21 2.650377 1_555
Ba3 O13 2.661130 1_555
Ba3 O14 2.661130 1_554
Ba3 O15 2.661130 1_554
Ba3 O12 2.661130 1_555
Ba3 O10 3.104606 1_555
Ba3 O11 3.104606 1_554
Ba3 O8 3.104606 1_554
Ba3 O9 3.104606 1_555
Ca0 O19 2.416997 1_455
Ca0 O17 2.416997 1_555
Ca0 O16 2.416997 1_555
Ca0 O18 2.416997 1_455
Ca1 O5 2.400422 1_554
Ca1 O4 2.400422 1_545
Ca1 O7 2.400422 1_544
Ca1 O6 2.400422 1_555
Ca2 O11 2.376686 1_454
Ca2 O10 2.376686 1_555
Ca2 O9 2.376686 1_455
Ca2 O8 2.376686 1_554
Ca3 O1 2.368119 1_545
Ca3 O3 2.368119 1_445
Ca3 O0 2.368119 1_455
Ca3 O2 2.368119 1_555
Ca3 O21 3.009804 1_455
Ca3 O23 3.009804 1_445
Ca3 O20 3.009804 1_555
Ca3 O22 3.009804 1_545
Nd0 O0 2.323944 1_455
Nd0 O20 2.336399 1_555
Nd0 O8 2.359701 1_554
Nd0 O16 2.367663 1_555
Nd0 O12 2.374460 1_555
Nd0 O4 2.387845 1_545
Nd1 O1 2.323944 1_655
Nd1 O23 2.336399 1_555
Nd1 O11 2.359701 1_554
Nd1 O18 2.367663 1_555
Nd1 O13 2.374460 1_555
Nd1 O6 2.387845 1_565
Nd2 O2 2.323944 1_655
Nd2 O21 2.336399 1_555
Nd2 O9 2.359701 1_556
Nd2 O19 2.367663 1_555
Nd2 O14 2.374460 1_555
Nd2 O7 2.387845 1_545
Nd3 O3 2.323944 1_455
Nd3 O22 2.336399 1_555
Nd3 O10 2.359701 1_556
Nd3 O17 2.367663 1_555
Nd3 O15 2.374460 1_555
Nd3 O5 2.387845 1_565
Nb0 O23 2.005202 1_555
Nb0 O3 2.010145 1_555
Nb0 O15 2.035184 1_555
Nb0 O11 2.041951 1_555
Nb0 O7 2.048483 1_555
Nb0 O19 2.058928 1_555
Nb1 O20 2.005202 1_555
Nb1 O2 2.010145 1_555
Nb1 O14 2.035184 1_555
Nb1 O8 2.041951 1_555
Nb1 O5 2.048483 1_555
Nb1 O17 2.058928 1_555
Nb2 O22 2.005202 1_555
Nb2 O1 2.010145 1_555
Nb2 O13 2.035184 1_555
Nb2 O10 2.041951 1_555
Nb2 O4 2.048483 1_555
Nb2 O16 2.058928 1_555
Nb3 O21 2.005202 1_555
Nb3 O0 2.010145 1_555
Nb3 O12 2.035184 1_555
Nb3 O9 2.041951 1_555
Nb3 O6 2.048483 1_555
Nb3 O18 2.058928 1_555
