# generated using pymatgen
data_La5CuGe3
_symmetry_space_group_name_H-M   'P 1'
_cell_length_a   9.27788156
_cell_length_b   9.27788156
_cell_length_c   6.78232300
_cell_angle_alpha   90.00000000
_cell_angle_beta   90.00000000
_cell_angle_gamma   119.99999688
_symmetry_Int_Tables_number   1
_chemical_formula_structural   La5CuGe3
_chemical_formula_sum   'La10 Cu2 Ge6'
_cell_volume   505.59964743
_cell_formula_units_Z   2
loop_
 _symmetry_equiv_pos_site_id
 _symmetry_equiv_pos_as_xyz
  1  'x, y, z'
loop_
 _atom_site_type_symbol
 _atom_site_label
 _atom_site_symmetry_multiplicity
 _atom_site_fract_x
 _atom_site_fract_y
 _atom_site_fract_z
 _atom_site_occupancy
  La  La0  1  0.27026000  0.00000000  0.25000000  1
  La  La1  1  0.72974000  0.00000000  0.75000000  1
  La  La2  1  0.00000000  0.27026000  0.25000000  1
  La  La3  1  0.00000000  0.72974000  0.75000000  1
  La  La4  1  0.72974000  0.72974000  0.25000000  1
  La  La5  1  0.27026000  0.27026000  0.75000000  1
  La  La6  1  0.33333300  0.66666700  0.00000000  1
  La  La7  1  0.66666700  0.33333300  0.00000000  1
  La  La8  1  0.66666700  0.33333300  0.50000000  1
  La  La9  1  0.33333300  0.66666700  0.50000000  1
  Cu  Cu0  1  0.00000000  0.00000000  0.00000000  1
  Cu  Cu1  1  0.00000000  0.00000000  0.50000000  1
  Ge  Ge0  1  0.61914500  0.00000000  0.25000000  1
  Ge  Ge1  1  0.38085500  0.00000000  0.75000000  1
  Ge  Ge2  1  0.00000000  0.61914500  0.25000000  1
  Ge  Ge3  1  0.00000000  0.38085500  0.75000000  1
  Ge  Ge4  1  0.38085500  0.38085500  0.25000000  1
  Ge  Ge5  1  0.61914500  0.61914500  0.75000000  1
loop_
_geom_bond_atom_site_label_1
_geom_bond_atom_site_label_2
_geom_bond_distance
_geom_bond_site_symmetry_2
Cu0 La1 3.026921 1_454
Cu0 La3 3.026921 1_544
Cu0 La0 3.026921 1_555
Cu0 La2 3.026921 1_555
Cu0 La5 3.026921 1_554
Cu0 La4 3.026921 1_445
Cu1 La1 3.026921 1_455
Cu1 La3 3.026921 1_545
Cu1 La0 3.026921 1_555
Cu1 La2 3.026921 1_555
Cu1 La4 3.026921 1_445
Cu1 La5 3.026921 1_555
Ge0 La4 3.148486 1_545
Ge0 La2 3.148486 1_655
Ge0 La0 3.236914 1_555
Ge0 La8 3.357107 1_555
Ge0 La7 3.357107 1_555
Ge0 La9 3.357110 1_545
Ge0 La6 3.357110 1_545
Ge0 La1 3.542998 1_554
Ge0 La1 3.542998 1_555
Ge1 La5 3.148486 1_555
Ge1 La3 3.148486 1_545
Ge1 La1 3.236914 1_555
Ge1 La6 3.357107 1_546
Ge1 La9 3.357107 1_545
Ge1 La8 3.357110 1_555
Ge1 La7 3.357110 1_556
Ge1 La0 3.542998 1_555
Ge1 La0 3.542998 1_556
Ge2 La4 3.148486 1_455
Ge2 La0 3.148486 1_565
Ge2 La2 3.236914 1_555
Ge2 La6 3.357107 1_555
Ge2 La9 3.357107 1_555
Ge2 La7 3.357110 1_455
Ge2 La8 3.357110 1_455
Ge2 La3 3.542998 1_555
Ge2 La3 3.542998 1_554
Ge3 La5 3.148486 1_555
Ge3 La1 3.148486 1_455
Ge3 La3 3.236914 1_555
Ge3 La7 3.357107 1_456
Ge3 La8 3.357107 1_455
Ge3 La6 3.357110 1_556
Ge3 La9 3.357110 1_555
Ge3 La2 3.542998 1_555
Ge3 La2 3.542998 1_556
Ge4 La2 3.148486 1_555
Ge4 La0 3.148486 1_555
Ge4 La4 3.236914 1_555
Ge4 La8 3.357115 1_555
Ge4 La6 3.357115 1_555
Ge4 La9 3.357115 1_555
Ge4 La7 3.357115 1_555
Ge4 La5 3.542998 1_554
Ge4 La5 3.542998 1_555
Ge5 La3 3.148486 1_655
Ge5 La1 3.148486 1_565
Ge5 La5 3.236914 1_555
Ge5 La8 3.357115 1_555
Ge5 La7 3.357115 1_556
Ge5 La6 3.357115 1_556
Ge5 La9 3.357115 1_555
Ge5 La4 3.542998 1_555
Ge5 La4 3.542998 1_556
