# generated using pymatgen
data_Sr3NdTaAl3O12
_symmetry_space_group_name_H-M   'P 1'
_cell_length_a   9.51487294
_cell_length_b   9.51487294
_cell_length_c   5.45910497
_cell_angle_alpha   89.82791003
_cell_angle_beta   89.82791003
_cell_angle_gamma   70.60417803
_symmetry_Int_Tables_number   1
_chemical_formula_structural   Sr3NdTaAl3O12
_chemical_formula_sum   'Sr6 Nd2 Ta2 Al6 O24'
_cell_volume   466.17595196
_cell_formula_units_Z   2
loop_
 _symmetry_equiv_pos_site_id
 _symmetry_equiv_pos_as_xyz
  1  'x, y, z'
loop_
 _atom_site_type_symbol
 _atom_site_label
 _atom_site_symmetry_multiplicity
 _atom_site_fract_x
 _atom_site_fract_y
 _atom_site_fract_z
 _atom_site_occupancy
  Sr  Sr0  1  0.61385600  0.86311700  0.50122800  1
  Sr  Sr1  1  0.14003800  0.85996200  0.00000000  1
  Sr  Sr2  1  0.13688300  0.38614400  0.49877200  1
  Sr  Sr3  1  0.37458300  0.12335400  0.00018000  1
  Sr  Sr4  1  0.87664600  0.62541700  0.99982000  1
  Sr  Sr5  1  0.37221600  0.62778400  0.50000000  1
  Nd  Nd0  1  0.60570300  0.39429700  0.00000000  1
  Nd  Nd1  1  0.87248300  0.12751700  0.50000000  1
  Ta  Ta0  1  0.74401600  0.99613200  0.99924400  1
  Ta  Ta1  1  0.00386800  0.25598400  0.00075600  1
  Al  Al0  1  0.25317200  0.99399500  0.49768900  1
  Al  Al1  1  0.74706700  0.50465300  0.50186200  1
  Al  Al2  1  0.25403100  0.50275900  0.99965800  1
  Al  Al3  1  0.49534700  0.25293300  0.49813800  1
  Al  Al4  1  0.00600500  0.74682800  0.50231100  1
  Al  Al5  1  0.49724100  0.74596900  0.00034200  1
  O  O0  1  0.62758200  0.11042000  0.72064400  1
  O  O1  1  0.12013800  0.10755000  0.24029900  1
  O  O2  1  0.62526300  0.60626400  0.23659500  1
  O  O3  1  0.12731500  0.61757700  0.74574800  1
  O  O4  1  0.89245000  0.87986200  0.75970100  1
  O  O5  1  0.38242300  0.87268500  0.25425200  1
  O  O6  1  0.88958000  0.37241800  0.27935600  1
  O  O7  1  0.39373600  0.37473700  0.76340500  1
  O  O8  1  0.84632300  0.15367700  0.00000000  1
  O  O9  1  0.36071800  0.13499500  0.50083600  1
  O  O10  1  0.86500500  0.63928200  0.49916400  1
  O  O11  1  0.37259500  0.62740500  0.00000000  1
  O  O12  1  0.87731500  0.89681400  0.27393200  1
  O  O13  1  0.37426400  0.88203600  0.75851700  1
  O  O14  1  0.86895800  0.39184900  0.76485000  1
  O  O15  1  0.38205500  0.38629100  0.25475600  1
  O  O16  1  0.63315200  0.85815400  0.00253900  1
  O  O17  1  0.13383200  0.86616800  0.50000000  1
  O  O18  1  0.64928700  0.35071300  0.50000000  1
  O  O19  1  0.14184600  0.36684800  0.99746100  1
  O  O20  1  0.60815100  0.13104200  0.23515000  1
  O  O21  1  0.10318600  0.12268500  0.72606800  1
  O  O22  1  0.61370900  0.61794500  0.74524400  1
  O  O23  1  0.11796400  0.62573600  0.24148300  1
loop_
_geom_bond_atom_site_label_1
_geom_bond_atom_site_label_2
_geom_bond_distance
_geom_bond_site_symmetry_2
Nd0 O2 2.457010 1_555
Nd0 O7 2.457010 1_554
Nd0 O22 2.560765 1_554
Nd0 O15 2.560765 1_555
Nd0 O11 2.563500 1_555
Nd0 O8 2.646110 1_555
Nd0 O18 2.771314 1_554
Nd0 O18 2.771314 1_555
Nd0 O14 2.804421 1_554
Nd0 O20 2.804421 1_555
Nd0 O6 3.051905 1_555
Nd0 O0 3.051905 1_554
Nd1 O18 2.454498 1_555
Nd1 O21 2.508505 1_655
Nd1 O12 2.508505 1_545
Nd1 O6 2.672247 1_555
Nd1 O0 2.672247 1_555
Nd1 O4 2.698689 1_545
Nd1 O1 2.698689 1_655
Nd1 O8 2.744671 1_555
Nd1 O8 2.744671 1_556
Nd1 O17 2.874068 1_645
Nd1 O20 2.895301 1_555
Nd1 O14 2.895301 1_555
Al0 O5 1.915047 1_555
Al0 O13 1.917109 1_555
Al0 O17 1.919875 1_555
Al0 O9 1.938906 1_565
Al0 O1 1.958878 1_565
Al0 O21 1.981960 1_565
Al1 O22 1.904565 1_555
Al1 O2 1.905888 1_555
Al1 O14 1.931898 1_555
Al1 O6 1.939936 1_555
Al1 O10 1.963392 1_555
Al1 O18 1.978972 1_555
Al2 O11 1.888889 1_556
Al2 O3 1.922137 1_555
Al2 O19 1.931020 1_555
Al2 O15 1.937935 1_556
Al2 O23 1.944463 1_556
Al2 O7 1.959046 1_555
Al3 O15 1.904565 1_555
Al3 O7 1.905888 1_555
Al3 O20 1.931898 1_555
Al3 O0 1.939936 1_555
Al3 O9 1.963392 1_555
Al3 O18 1.978972 1_555
Al4 O3 1.915047 1_555
Al4 O23 1.917109 1_555
Al4 O17 1.919875 1_555
Al4 O10 1.938906 1_455
Al4 O4 1.958878 1_455
Al4 O12 1.981960 1_455
Al5 O11 1.888889 1_555
Al5 O5 1.922137 1_555
Al5 O16 1.931020 1_555
Al5 O22 1.937935 1_554
Al5 O13 1.944463 1_554
Al5 O2 1.959046 1_555
O0 Ta0 1.980668 1_545
O0 Sr0 2.685270 1_545
O0 Sr3 2.814434 1_556
O1 Ta1 1.971917 1_555
O1 Sr1 2.650881 1_545
O1 Sr3 2.797097 1_555
O1 Sr2 3.057351 1_555
O2 Sr5 2.749588 1_555
O2 Sr4 2.773910 1_554
O2 Sr0 2.813481 1_555
O3 Sr2 2.561076 1_555
O3 Sr5 2.714740 1_555
O3 Sr1 2.732341 1_556
O3 Sr4 2.735060 1_455
O4 Ta0 1.971917 1_555
O4 Sr1 2.650881 1_656
O4 Sr4 2.797097 1_555
O4 Sr0 3.057351 1_555
O5 Sr0 2.561076 1_555
O5 Sr5 2.714740 1_555
O5 Sr1 2.732341 1_555
O5 Sr3 2.735060 1_565
O6 Ta1 1.980668 1_655
O6 Sr2 2.685270 1_655
O6 Sr4 2.814434 1_554
O7 Sr5 2.749588 1_555
O7 Sr3 2.773910 1_556
O7 Sr2 2.813481 1_555
O8 Ta1 2.040565 1_655
O8 Ta0 2.040565 1_544
O9 Sr2 2.620331 1_555
O9 Sr3 2.729695 1_556
O9 Sr3 2.736721 1_555
O9 Sr0 2.890479 1_545
O10 Sr0 2.620331 1_555
O10 Sr4 2.729695 1_554
O10 Sr4 2.736721 1_555
O10 Sr2 2.890479 1_655
O11 Sr1 2.557441 1_555
O11 Sr5 2.729556 1_555
O11 Sr5 2.729556 1_554
O12 Ta0 1.989262 1_554
O12 Sr1 2.829601 1_655
O12 Sr0 2.905023 1_555
O12 Sr4 2.990280 1_554
O13 Sr0 2.629051 1_555
O13 Sr3 2.652440 1_566
O13 Sr1 2.653367 1_556
O13 Sr5 2.810064 1_555
O14 Ta1 1.968557 1_656
O14 Sr4 2.591395 1_555
O14 Sr2 2.915124 1_655
O15 Sr5 2.637387 1_555
O15 Sr2 2.683257 1_555
O15 Sr3 2.887068 1_555
O16 Ta0 1.938079 1_554
O16 Sr4 2.619940 1_554
O16 Sr0 2.727524 1_555
O16 Sr0 2.742627 1_554
O16 Sr3 2.880445 1_565
O17 Sr5 2.621521 1_555
O17 Sr1 2.730406 1_555
O17 Sr1 2.730406 1_556
O18 Sr5 3.046964 1_555
O19 Ta1 1.938079 1_556
O19 Sr3 2.619940 1_556
O19 Sr2 2.727524 1_555
O19 Sr2 2.742627 1_556
O19 Sr4 2.880445 1_455
O20 Ta0 1.968557 1_544
O20 Sr3 2.591395 1_555
O20 Sr0 2.915124 1_545
O21 Ta1 1.989262 1_556
O21 Sr1 2.829601 1_546
O21 Sr2 2.905023 1_555
O21 Sr3 2.990280 1_556
O22 Sr5 2.637387 1_555
O22 Sr0 2.683257 1_555
O22 Sr4 2.887068 1_555
O23 Sr2 2.629051 1_555
O23 Sr4 2.652440 1_454
O23 Sr1 2.653367 1_555
O23 Sr5 2.810064 1_555
