# generated using pymatgen
data_CsIn(MoO4)2
_symmetry_space_group_name_H-M   'P 1'
_cell_length_a   6.00482800
_cell_length_b   9.17913000
_cell_length_c   15.48393000
_cell_angle_alpha   90.00000000
_cell_angle_beta   90.00000000
_cell_angle_gamma   90.00000000
_symmetry_Int_Tables_number   1
_chemical_formula_structural   CsIn(MoO4)2
_chemical_formula_sum   'Cs4 In4 Mo8 O32'
_cell_volume   853.46023713
_cell_formula_units_Z   4
loop_
 _symmetry_equiv_pos_site_id
 _symmetry_equiv_pos_as_xyz
  1  'x, y, z'
loop_
 _atom_site_type_symbol
 _atom_site_label
 _atom_site_symmetry_multiplicity
 _atom_site_fract_x
 _atom_site_fract_y
 _atom_site_fract_z
 _atom_site_occupancy
  Cs  Cs0  1  0.25000000  0.46422200  0.37282400  1
  Cs  Cs1  1  0.75000000  0.53577800  0.62717600  1
  Cs  Cs2  1  0.75000000  0.96422200  0.12717600  1
  Cs  Cs3  1  0.25000000  0.03577800  0.87282400  1
  In  In0  1  0.25000000  0.30510300  0.10936200  1
  In  In1  1  0.75000000  0.69489700  0.89063800  1
  In  In2  1  0.75000000  0.80510300  0.39063800  1
  In  In3  1  0.25000000  0.19489700  0.60936200  1
  Mo  Mo0  1  0.25000000  0.70587100  0.03645600  1
  Mo  Mo1  1  0.75000000  0.29412900  0.96354400  1
  Mo  Mo2  1  0.75000000  0.20587100  0.46354400  1
  Mo  Mo3  1  0.25000000  0.79412900  0.53645600  1
  Mo  Mo4  1  0.25000000  0.00391600  0.28496400  1
  Mo  Mo5  1  0.75000000  0.99608400  0.71503600  1
  Mo  Mo6  1  0.75000000  0.50391600  0.21503600  1
  Mo  Mo7  1  0.25000000  0.49608400  0.78496400  1
  O  O0  1  0.25000000  0.78062400  0.14047100  1
  O  O1  1  0.75000000  0.21937600  0.85952900  1
  O  O2  1  0.75000000  0.28062400  0.35952900  1
  O  O3  1  0.25000000  0.71937600  0.64047100  1
  O  O4  1  0.25000000  0.51110800  0.03967600  1
  O  O5  1  0.75000000  0.48889200  0.96032400  1
  O  O6  1  0.75000000  0.01110800  0.46032400  1
  O  O7  1  0.25000000  0.98889200  0.53967600  1
  O  O8  1  0.25000000  0.13998400  0.36258600  1
  O  O9  1  0.75000000  0.86001600  0.63741400  1
  O  O10  1  0.75000000  0.63998400  0.13741400  1
  O  O11  1  0.25000000  0.36001600  0.86258600  1
  O  O12  1  0.25000000  0.09669100  0.17952900  1
  O  O13  1  0.75000000  0.90330900  0.82047100  1
  O  O14  1  0.75000000  0.59669100  0.32047100  1
  O  O15  1  0.25000000  0.40330900  0.67952900  1
  O  O16  1  0.99877200  0.39519200  0.19699300  1
  O  O17  1  0.00122800  0.60480800  0.80300700  1
  O  O18  1  0.00122800  0.89519200  0.30300700  1
  O  O19  1  0.49877200  0.60480800  0.80300700  1
  O  O20  1  0.99877200  0.10480800  0.69699300  1
  O  O21  1  0.50122800  0.39519200  0.19699300  1
  O  O22  1  0.50122800  0.10480800  0.69699300  1
  O  O23  1  0.49877200  0.89519200  0.30300700  1
  O  O24  1  0.50784100  0.22321100  0.02203200  1
  O  O25  1  0.49215900  0.77678900  0.97796800  1
  O  O26  1  0.49215900  0.72321100  0.47796800  1
  O  O27  1  0.00784100  0.77678900  0.97796800  1
  O  O28  1  0.50784100  0.27678900  0.52203200  1
  O  O29  1  0.99215900  0.22321100  0.02203200  1
  O  O30  1  0.99215900  0.27678900  0.52203200  1
  O  O31  1  0.00784100  0.72321100  0.47796800  1
loop_
_geom_bond_atom_site_label_1
_geom_bond_atom_site_label_2
_geom_bond_distance
_geom_bond_site_symmetry_2
Cs0 O8 2.980442 1_555
Cs0 O16 3.176415 1_455
Cs0 O21 3.176415 1_555
Cs0 O26 3.227464 1_555
Cs0 O31 3.227464 1_555
Cs0 O30 3.270296 1_455
Cs0 O28 3.270296 1_555
Cs0 O14 3.339183 1_555
Cs0 O14 3.339183 1_455
Cs0 O2 3.449203 1_555
Cs0 O2 3.449203 1_455
Cs1 O9 2.980442 1_555
Cs1 O17 3.176415 1_655
Cs1 O19 3.176415 1_555
Cs1 O28 3.227464 1_555
Cs1 O30 3.227464 1_555
Cs1 O26 3.270296 1_555
Cs1 O31 3.270296 1_655
Cs1 O15 3.339183 1_555
Cs1 O15 3.339183 1_655
Cs1 O3 3.449203 1_555
Cs1 O3 3.449203 1_655
Cs2 O10 2.980442 1_555
Cs2 O23 3.176415 1_555
Cs2 O18 3.176415 1_655
Cs2 O29 3.227464 1_565
Cs2 O24 3.227464 1_565
Cs2 O25 3.270296 1_554
Cs2 O27 3.270296 1_654
Cs2 O12 3.339183 1_665
Cs2 O12 3.339183 1_565
Cs2 O0 3.449203 1_555
Cs2 O0 3.449203 1_655
Cs3 O11 2.980442 1_555
Cs3 O22 3.176415 1_555
Cs3 O20 3.176415 1_455
Cs3 O27 3.227464 1_545
Cs3 O25 3.227464 1_545
Cs3 O24 3.270296 1_556
Cs3 O29 3.270296 1_456
Cs3 O13 3.339183 1_445
Cs3 O13 3.339183 1_545
Cs3 O1 3.449203 1_555
Cs3 O1 3.449203 1_455
In0 O4 2.177142 1_555
In0 O24 2.188774 1_555
In0 O29 2.188774 1_455
In0 O16 2.191061 1_455
In0 O21 2.191061 1_555
In0 O12 2.200028 1_555
In1 O5 2.177142 1_555
In1 O27 2.188774 1_655
In1 O25 2.188774 1_555
In1 O19 2.191061 1_555
In1 O17 2.191061 1_655
In1 O13 2.200028 1_555
In2 O6 2.177142 1_565
In2 O26 2.188774 1_555
In2 O31 2.188774 1_655
In2 O23 2.191061 1_555
In2 O18 2.191061 1_655
In2 O14 2.200028 1_555
In3 O7 2.177142 1_545
In3 O30 2.188774 1_455
In3 O28 2.188774 1_555
In3 O22 2.191061 1_555
In3 O20 2.191061 1_455
In3 O15 2.200028 1_555
Mo0 O0 1.750638 1_555
Mo0 O4 1.788450 1_555
Mo0 O27 1.832590 1_554
Mo0 O25 1.832590 1_554
Mo1 O1 1.750638 1_555
Mo1 O5 1.788450 1_555
Mo1 O24 1.832590 1_556
Mo1 O29 1.832590 1_556
Mo2 O2 1.750638 1_555
Mo2 O6 1.788450 1_555
Mo2 O30 1.832590 1_555
Mo2 O28 1.832590 1_555
Mo3 O3 1.750638 1_555
Mo3 O7 1.788450 1_555
Mo3 O31 1.832590 1_555
Mo3 O26 1.832590 1_555
Mo4 O8 1.733353 1_555
Mo4 O23 1.818124 1_545
Mo4 O18 1.818124 1_545
Mo4 O12 1.841311 1_555
Mo5 O9 1.733353 1_555
Mo5 O22 1.818124 1_565
Mo5 O20 1.818124 1_565
Mo5 O13 1.841311 1_555
Mo6 O10 1.733353 1_555
Mo6 O21 1.818124 1_555
Mo6 O16 1.818124 1_555
Mo6 O14 1.841311 1_555
Mo7 O11 1.733353 1_555
Mo7 O19 1.818124 1_555
Mo7 O17 1.818124 1_555
Mo7 O15 1.841311 1_555
