# generated using pymatgen
data_Li9Mn2Co5O16
_symmetry_space_group_name_H-M   'P 1'
_cell_length_a   5.08057900
_cell_length_b   5.15820343
_cell_length_c   11.30631754
_cell_angle_alpha   81.65720658
_cell_angle_beta   86.46792855
_cell_angle_gamma   80.19064645
_symmetry_Int_Tables_number   1
_chemical_formula_structural   Li9Mn2Co5O16
_chemical_formula_sum   'Li9 Mn2 Co5 O16'
_cell_volume   288.67238950
_cell_formula_units_Z   1
loop_
 _symmetry_equiv_pos_site_id
 _symmetry_equiv_pos_as_xyz
  1  'x, y, z'
loop_
 _atom_site_type_symbol
 _atom_site_label
 _atom_site_symmetry_multiplicity
 _atom_site_fract_x
 _atom_site_fract_y
 _atom_site_fract_z
 _atom_site_occupancy
  Li  Li0  1  0.25135500  0.44112200  0.06496600  1
  Li  Li1  1  0.74527900  0.56509600  0.94234200  1
  Li  Li2  1  0.24947200  0.68883300  0.81422500  1
  Li  Li3  1  0.25260000  0.18789800  0.30556000  1
  Li  Li4  1  0.74237900  0.30866900  0.18426000  1
  Li  Li5  1  0.25271300  0.93745600  0.56294000  1
  Li  Li6  1  0.75329000  0.06066000  0.43554200  1
  Li  Li7  1  0.74893400  0.80946000  0.69004400  1
  Li  Li8  1  0.49978500  0.87599000  0.12390300  1
  Mn  Mn0  1  0.00225400  0.99428900  0.00221200  1
  Mn  Mn1  1  0.00092800  0.50262200  0.49957900  1
  Co  Co0  1  0.50052200  0.11615000  0.88300900  1
  Co  Co1  1  0.00279900  0.24632200  0.75155900  1
  Co  Co2  1  0.50130100  0.37525100  0.62740400  1
  Co  Co3  1  0.49787800  0.62772300  0.36535500  1
  Co  Co4  1  0.98886900  0.76378800  0.24568200  1
  O  O0  1  0.10929700  0.08425800  0.14753400  1
  O  O1  1  0.64184000  0.20809800  0.01950700  1
  O  O2  1  0.11960700  0.31365200  0.90591400  1
  O  O3  1  0.12678200  0.81291000  0.41259700  1
  O  O4  1  0.64252700  0.94889100  0.28430200  1
  O  O5  1  0.12037600  0.57913800  0.65027600  1
  O  O6  1  0.64507800  0.69600600  0.52660300  1
  O  O7  1  0.62566500  0.45143100  0.77345800  1
  O  O8  1  0.35166200  0.80293600  0.96638800  1
  O  O9  1  0.87564400  0.91943600  0.84894900  1
  O  O10  1  0.37233800  0.04896000  0.72354100  1
  O  O11  1  0.36655000  0.54060200  0.22951800  1
  O  O12  1  0.89121400  0.68437000  0.08817700  1
  O  O13  1  0.35989700  0.30164400  0.47874300  1
  O  O14  1  0.88023600  0.42029700  0.35347900  1
  O  O15  1  0.88093000  0.18604200  0.59243300  1
loop_
_geom_bond_atom_site_label_1
_geom_bond_atom_site_label_2
_geom_bond_distance
_geom_bond_site_symmetry_2
Li0 O12 2.060390 1_455
Li0 O11 2.140268 1_555
Li0 O8 2.153027 1_554
Li0 O0 2.156818 1_555
Li0 O2 2.180739 1_554
Li0 O1 2.210399 1_555
Li1 O1 2.058008 1_556
Li1 O12 2.060927 1_556
Li1 O9 2.158848 1_555
Li1 O2 2.164883 1_655
Li1 O8 2.184502 1_555
Li1 O7 2.224488 1_555
Li2 O8 2.020833 1_555
Li2 O9 2.109524 1_455
Li2 O7 2.150058 1_555
Li2 O10 2.157585 1_565
Li2 O5 2.183351 1_555
Li2 O2 2.241394 1_555
Li3 O11 2.056190 1_555
Li3 O0 2.139677 1_555
Li3 O14 2.144527 1_455
Li3 O4 2.167342 1_545
Li3 O13 2.247066 1_555
Li3 O3 2.293744 1_545
Li4 O0 2.072745 1_655
Li4 O1 2.118446 1_555
Li4 O11 2.148933 1_555
Li4 O4 2.149822 1_545
Li4 O14 2.259383 1_555
Li4 O12 2.301029 1_555
Li5 O3 2.074229 1_555
Li5 O13 2.120728 1_565
Li5 O15 2.131762 1_465
Li5 O10 2.134360 1_565
Li5 O5 2.157602 1_555
Li5 O6 2.212543 1_555
Li6 O4 2.021941 1_545
Li6 O3 2.123776 1_645
Li6 O14 2.133691 1_555
Li6 O15 2.145449 1_555
Li6 O6 2.149632 1_545
Li6 O13 2.233328 1_555
Li7 O5 2.112213 1_655
Li7 O7 2.123249 1_555
Li7 O9 2.127632 1_555
Li7 O10 2.138110 1_565
Li7 O6 2.138894 1_555
Li7 O15 2.274101 1_565
Li8 O8 2.082426 1_554
Li8 O4 2.099778 1_555
Li8 O12 2.107629 1_555
Li8 O0 2.110243 1_565
Li8 O11 2.139386 1_555
Li8 O1 2.139688 1_565
Mn0 O12 1.899314 1_455
Mn0 O0 1.904767 1_565
Mn0 O8 1.928729 1_554
Mn0 O1 1.984408 1_465
Mn0 O9 1.995423 1_454
Mn0 O2 1.997209 1_564
Mn1 O14 1.924065 1_455
Mn1 O3 1.937051 1_555
Mn1 O6 1.939809 1_455
Mn1 O13 1.957052 1_555
Mn1 O5 1.957359 1_555
Mn1 O15 1.975690 1_455
Co0 O1 1.893977 1_556
Co0 O8 1.989331 1_545
Co0 O9 2.043070 1_545
Co0 O2 2.047733 1_555
Co0 O10 2.048892 1_555
Co0 O7 2.141359 1_555
Co1 O2 1.972868 1_555
Co1 O10 2.007655 1_555
Co1 O15 2.020422 1_455
Co1 O7 2.044201 1_455
Co1 O9 2.053687 1_445
Co1 O5 2.076057 1_555
Co2 O7 1.918853 1_555
Co2 O13 1.977956 1_555
Co2 O10 2.049545 1_555
Co2 O15 2.050731 1_555
Co2 O5 2.059640 1_555
Co2 O6 2.081334 1_555
Co3 O11 1.853262 1_555
Co3 O4 2.003916 1_555
Co3 O3 2.040281 1_555
Co3 O14 2.058601 1_555
Co3 O6 2.109790 1_555
Co3 O13 2.151586 1_555
Co4 O4 1.911126 1_555
Co4 O12 1.993752 1_555
Co4 O0 2.016679 1_665
Co4 O11 2.075048 1_655
Co4 O3 2.116327 1_655
Co4 O14 2.133774 1_555
