# generated using pymatgen
data_Pr2Co17
_symmetry_space_group_name_H-M   'P 1'
_cell_length_a   6.31738573
_cell_length_b   6.31730562
_cell_length_c   6.31766697
_cell_angle_alpha   83.06790264
_cell_angle_beta   83.06515884
_cell_angle_gamma   83.06782478
_symmetry_Int_Tables_number   1
_chemical_formula_structural   Pr2Co17
_chemical_formula_sum   'Pr2 Co17'
_cell_volume   247.01175476
_cell_formula_units_Z   1
loop_
 _symmetry_equiv_pos_site_id
 _symmetry_equiv_pos_as_xyz
  1  'x, y, z'
loop_
 _atom_site_type_symbol
 _atom_site_label
 _atom_site_symmetry_multiplicity
 _atom_site_fract_x
 _atom_site_fract_y
 _atom_site_fract_z
 _atom_site_occupancy
  Pr  Pr0  1  0.65618516  0.65620370  0.65621725  1
  Pr  Pr1  1  0.34380207  0.34379041  0.34379281  1
  Co  Co0  1  0.00007488  -0.00004592  0.50003475  1
  Co  Co1  1  -0.00007158  0.49996506  0.00004383  1
  Co  Co2  1  0.49999310  -0.00006573  0.00006019  1
  Co  Co3  1  0.28374387  0.71626057  -0.00003791  1
  Co  Co4  1  0.71626526  0.00001979  0.28369865  1
  Co  Co5  1  0.00001462  0.28376003  0.71627502  1
  Co  Co6  1  0.28370311  -0.00002652  0.71626582  1
  Co  Co7  1  -0.00000356  0.71624921  0.28372792  1
  Co  Co8  1  0.71629519  0.28378099  0.00003217  1
  Co  Co9  1  0.33803876  0.33808565  0.84702125  1
  Co  Co10  1  0.33804000  0.84702049  0.33805500  1
  Co  Co11  1  0.84702255  0.33808980  0.33799446  1
  Co  Co12  1  0.66196329  0.66194100  0.15295850  1
  Co  Co13  1  0.66193689  0.15299072  0.66193403  1
  Co  Co14  1  0.15297529  0.66197094  0.66194767  1
  Co  Co15  1  0.90633653  0.90626667  0.90628982  1
  Co  Co16  1  0.09368557  0.09374415  0.09368975  1
loop_
_geom_bond_atom_site_label_1
_geom_bond_atom_site_label_2
_geom_bond_distance
_geom_bond_site_symmetry_2
Co0 Co6 2.380723 1_555
Co0 Co7 2.381431 1_545
Co0 Co5 2.381536 1_555
Co0 Co4 2.382020 1_455
Co0 Co14 2.398283 1_545
Co0 Co10 2.398375 1_545
Co0 Co13 2.399277 1_455
Co0 Co11 2.399674 1_455
Co0 Co15 2.576670 1_445
Co0 Co16 2.577183 1_555
Co0 Pr1 3.242078 1_555
Co0 Pr0 3.242370 1_445
Co1 Co8 2.380444 1_455
Co1 Co5 2.381202 1_554
Co1 Co7 2.381250 1_555
Co1 Co3 2.381764 1_555
Co1 Co11 2.398062 1_455
Co1 Co12 2.398325 1_455
Co1 Co9 2.399062 1_554
Co1 Co14 2.399400 1_554
Co1 Co16 2.576347 1_555
Co1 Co15 2.576777 1_454
Co1 Pr0 3.242282 1_454
Co1 Pr1 3.242463 1_555
Co2 Co3 2.381008 1_545
Co2 Co4 2.381041 1_555
Co2 Co6 2.381799 1_554
Co2 Co8 2.382001 1_555
Co2 Co9 2.399521 1_554
Co2 Pr0 3.242139 1_544
Co2 Pr1 3.242206 1_555
Co3 Co6 2.376818 1_564
Co3 Co7 2.377205 1_555
Co3 Co9 2.652954 1_554
Co3 Pr0 3.024158 1_554
Co3 Pr1 3.024703 1_555
Co4 Co8 2.376896 1_555
Co4 Co7 2.377151 1_645
Co4 Pr1 3.024371 1_555
Co4 Pr0 3.024852 1_545
Co5 Co6 2.377039 1_555
Co5 Co8 2.377051 1_456
Co5 Co9 2.455893 1_555
Co5 Pr1 3.024495 1_555
Co5 Pr0 3.024522 1_455
Co6 Co9 2.456400 1_555
Co6 Pr0 3.024414 1_545
Co6 Pr1 3.024675 1_555
Co7 Pr1 3.024496 1_555
Co7 Pr0 3.024633 1_455
Co8 Co9 2.653709 1_554
Co8 Pr1 3.024408 1_555
Co8 Pr0 3.024475 1_554
Co9 Pr0 3.055563 1_555
Co9 Pr1 3.147638 1_556
Co9 Pr1 3.170936 1_555
Co10 Co2 2.398478 1_565
Co10 Co7 2.456046 1_555
Co10 Co3 2.456330 1_555
Co10 Co14 2.468880 1_555
Co10 Co12 2.469141 1_555
Co10 Co16 2.570898 1_565
Co10 Co6 2.653286 1_565
Co10 Co4 2.653404 1_565
Co10 Pr0 3.055929 1_555
Co10 Pr1 3.147474 1_565
Co10 Pr1 3.170744 1_555
Co11 Co8 2.455517 1_555
Co11 Co4 2.456075 1_555
Co11 Co12 2.468656 1_555
Co11 Co13 2.469283 1_555
Co11 Co16 2.570368 1_655
Co11 Co7 2.652944 1_655
Co11 Co5 2.653871 1_655
Co11 Pr0 3.055973 1_555
Co11 Pr1 3.147575 1_655
Co11 Pr1 3.170723 1_555
Co12 Co2 2.398460 1_565
Co12 Co7 2.455981 1_655
Co12 Co4 2.456100 1_565
Co12 Co15 2.570562 1_554
Co12 Co8 2.652819 1_555
Co12 Co3 2.653447 1_555
Co12 Pr1 3.055814 1_555
Co12 Pr0 3.147486 1_554
Co12 Pr0 3.171095 1_555
Co13 Co2 2.399425 1_556
Co13 Co5 2.456266 1_655
Co13 Co8 2.456560 1_556
Co13 Co9 2.469044 1_555
Co13 Co15 2.571035 1_545
Co13 Co4 2.653484 1_555
Co13 Co6 2.653510 1_555
Co13 Pr1 3.055767 1_555
Co13 Pr0 3.147555 1_545
Co13 Pr0 3.170657 1_555
Co14 Co6 2.455635 1_565
Co14 Co3 2.455907 1_556
Co14 Co9 2.468924 1_555
Co14 Co15 2.570250 1_455
Co14 Co5 2.653199 1_555
Co14 Co7 2.653484 1_555
Co14 Pr1 3.055952 1_555
Co14 Pr0 3.147641 1_455
Co14 Pr0 3.170657 1_555
Co15 Co16 2.284819 1_666
Co15 Co2 2.577101 1_566
Co15 Co6 2.636848 1_665
Co15 Co3 2.637039 1_656
Co15 Co7 2.637298 1_656
Co15 Co4 2.637334 1_566
Co15 Co5 2.637495 1_665
Co15 Co8 2.637766 1_566
Co15 Pr0 3.049073 1_555
Co16 Co9 2.570545 1_554
Co16 Co2 2.576889 1_555
Co16 Co8 2.636982 1_455
Co16 Co4 2.637146 1_455
Co16 Co5 2.637185 1_554
Co16 Co6 2.637340 1_554
Co16 Co7 2.637571 1_545
Co16 Co3 2.637604 1_545
Co16 Pr1 3.048988 1_555
