# generated using pymatgen
data_Th3U3P8
_symmetry_space_group_name_H-M   'P 1'
_cell_length_a   7.28533186
_cell_length_b   7.28533186
_cell_length_c   8.41288549
_cell_angle_alpha   54.98952218
_cell_angle_beta   54.98952218
_cell_angle_gamma   70.62624057
_symmetry_Int_Tables_number   1
_chemical_formula_structural   Th3U3P8
_chemical_formula_sum   'Th3 U3 P8'
_cell_volume   299.54237673
_cell_formula_units_Z   1
loop_
 _symmetry_equiv_pos_site_id
 _symmetry_equiv_pos_as_xyz
  1  'x, y, z'
loop_
 _atom_site_type_symbol
 _atom_site_label
 _atom_site_symmetry_multiplicity
 _atom_site_fract_x
 _atom_site_fract_y
 _atom_site_fract_z
 _atom_site_occupancy
  Th  Th0  1  0.12543900  0.62104300  0.37757100  1
  Th  Th1  1  0.37895700  0.87456100  0.62242900  1
  Th  Th2  1  0.62196400  0.37803600  0.50000000  1
  U  U0  1  0.87785500  0.12214500  0.00000000  1
  U  U1  1  0.74839000  0.75199200  0.87330000  1
  U  U2  1  0.24800800  0.25161000  0.12670000  1
  P  P0  1  0.65426500  0.49025500  0.76837100  1
  P  P1  1  0.99498100  0.15145000  0.59740300  1
  P  P2  1  0.84855000  0.00501900  0.40259700  1
  P  P3  1  0.50974500  0.34573500  0.23162900  1
  P  P4  1  0.99910900  0.65976500  0.08512000  1
  P  P5  1  0.14486500  0.49236300  0.76796600  1
  P  P6  1  0.34023500  0.00089100  0.91488000  1
  P  P7  1  0.50763700  0.85513500  0.23203400  1
loop_
_geom_bond_atom_site_label_1
_geom_bond_atom_site_label_2
_geom_bond_distance
_geom_bond_site_symmetry_2
P0 U2 2.834162 1_556
P0 U1 2.894671 1_555
P0 U0 2.896594 1_556
P0 Th1 2.919721 1_555
P0 Th2 2.945612 1_555
P0 Th0 3.020914 1_655
P1 U1 2.831464 1_545
P1 U0 2.867111 1_556
P1 Th1 2.895434 1_645
P1 Th2 2.967888 1_555
P1 U2 2.968593 1_655
P1 Th0 2.984651 1_655
P2 U2 2.831464 1_655
P2 U0 2.867111 1_555
P2 Th0 2.895434 1_645
P2 Th2 2.967888 1_555
P2 U1 2.968593 1_545
P2 Th1 2.984651 1_545
P3 U1 2.834162 1_554
P3 U2 2.894671 1_555
P3 U0 2.896594 1_555
P3 Th0 2.919721 1_555
P3 Th2 2.945612 1_555
P3 Th1 3.020914 1_545
P4 U2 2.865203 1_655
P4 Th2 2.908905 1_555
P4 U1 2.917224 1_554
P4 Th0 2.934215 1_655
P4 U0 2.936699 1_565
P4 Th1 2.963472 1_654
P5 U0 2.819864 1_456
P5 U1 2.840356 1_455
P5 U2 2.898809 1_556
P5 Th0 2.932262 1_555
P5 Th1 3.000560 1_555
P5 Th2 3.016602 1_555
P6 U1 2.865203 1_545
P6 Th2 2.908905 1_555
P6 U2 2.917224 1_556
P6 Th1 2.934215 1_545
P6 U0 2.936699 1_456
P6 Th0 2.963472 1_546
P7 U0 2.819864 1_565
P7 U2 2.840356 1_565
P7 U1 2.898809 1_554
P7 Th1 2.932262 1_555
P7 Th0 3.000560 1_555
P7 Th2 3.016602 1_555
