# generated using pymatgen
data_La2Mn3Cu9P7
_symmetry_space_group_name_H-M   'P 1'
_cell_length_a   9.54198353
_cell_length_b   9.54198353
_cell_length_c   3.87420700
_cell_angle_alpha   90.00000000
_cell_angle_beta   90.00000000
_cell_angle_gamma   119.99999672
_symmetry_Int_Tables_number   1
_chemical_formula_structural   La2Mn3Cu9P7
_chemical_formula_sum   'La2 Mn3 Cu9 P7'
_cell_volume   305.48563460
_cell_formula_units_Z   1
loop_
 _symmetry_equiv_pos_site_id
 _symmetry_equiv_pos_as_xyz
  1  'x, y, z'
loop_
 _atom_site_type_symbol
 _atom_site_label
 _atom_site_symmetry_multiplicity
 _atom_site_fract_x
 _atom_site_fract_y
 _atom_site_fract_z
 _atom_site_occupancy
  La  La0  1  0.66666700  0.33333300  0.00000000  1
  La  La1  1  0.33333300  0.66666700  0.50000000  1
  Mn  Mn0  1  0.08783300  0.87605100  0.50000000  1
  Mn  Mn1  1  0.78821800  0.91216700  0.50000000  1
  Mn  Mn2  1  0.12394900  0.21178200  0.50000000  1
  Cu  Cu0  1  0.05085100  0.62963000  0.00000000  1
  Cu  Cu1  1  0.57877900  0.94914900  0.00000000  1
  Cu  Cu2  1  0.37037000  0.42122100  0.00000000  1
  Cu  Cu3  1  0.27592800  0.11781900  0.00000000  1
  Cu  Cu4  1  0.84189100  0.72407200  0.00000000  1
  Cu  Cu5  1  0.88218100  0.15810900  0.00000000  1
  Cu  Cu6  1  0.42358400  0.04438900  0.50000000  1
  Cu  Cu7  1  0.62080500  0.57641600  0.50000000  1
  Cu  Cu8  1  0.95561100  0.37919500  0.50000000  1
  P  P0  1  0.29532500  0.88407300  0.00000000  1
  P  P1  1  0.58874800  0.70467500  0.00000000  1
  P  P2  1  0.11592700  0.41125200  0.00000000  1
  P  P3  1  0.40733200  0.29591300  0.50000000  1
  P  P4  1  0.88858100  0.59266800  0.50000000  1
  P  P5  1  0.70408700  0.11141900  0.50000000  1
  P  P6  1  0.00000000  0.00000000  0.00000000  1
loop_
_geom_bond_atom_site_label_1
_geom_bond_atom_site_label_2
_geom_bond_distance
_geom_bond_site_symmetry_2
La0 P5 3.019891 1_555
La0 P5 3.019891 1_554
La0 P4 3.019896 1_554
La0 P4 3.019896 1_555
La0 P3 3.019899 1_554
La0 P3 3.019899 1_555
La1 P0 2.989940 1_556
La1 P0 2.989940 1_555
La1 P2 2.989945 1_556
La1 P2 2.989945 1_555
La1 P1 2.989948 1_555
La1 P1 2.989948 1_556
Mn0 P4 2.405312 1_455
Mn0 P6 2.616266 1_566
Mn0 P6 2.616266 1_565
Mn0 P0 2.743469 1_555
Mn0 P0 2.743469 1_556
Mn1 P5 2.405312 1_565
Mn1 P6 2.616266 1_666
Mn1 P6 2.616266 1_665
Mn1 P1 2.743469 1_556
Mn1 P1 2.743469 1_555
Mn2 P3 2.405312 1_555
Mn2 P6 2.616266 1_555
Mn2 P6 2.616266 1_556
Mn2 P2 2.743469 1_556
Mn2 P2 2.743469 1_555
Cu0 P0 2.381754 1_555
Cu0 P4 2.393352 1_455
Cu0 P4 2.393352 1_454
Cu0 P2 2.453886 1_555
Cu0 Mn0 2.928476 1_555
Cu0 Mn0 2.928476 1_554
Cu0 La1 3.192189 1_554
Cu0 La1 3.192189 1_555
Cu0 La0 3.326811 1_455
Cu1 P1 2.381754 1_555
Cu1 P5 2.393352 1_565
Cu1 P5 2.393352 1_564
Cu1 P0 2.453886 1_555
Cu1 Mn1 2.928476 1_554
Cu1 Mn1 2.928476 1_555
Cu1 La1 3.192192 1_555
Cu1 La1 3.192192 1_554
Cu1 La0 3.326808 1_565
Cu2 P2 2.381754 1_555
Cu2 P3 2.393352 1_555
Cu2 P3 2.393352 1_554
Cu2 P1 2.453886 1_555
Cu2 Mn2 2.928476 1_554
Cu2 Mn2 2.928476 1_555
Cu2 La1 3.192196 1_554
Cu2 La1 3.192196 1_555
Cu2 La0 3.326817 1_555
Cu3 P6 2.288247 1_555
Cu3 P0 2.328467 1_545
Cu3 P3 2.466094 1_555
Cu3 P3 2.466094 1_554
Cu3 Mn2 2.821258 1_555
Cu3 Mn2 2.821258 1_554
Cu3 Mn0 2.855726 1_544
Cu3 Mn0 2.855726 1_545
Cu3 La0 3.234627 1_555
Cu4 P6 2.288247 1_665
Cu4 P1 2.328467 1_555
Cu4 P4 2.466093 1_554
Cu4 P4 2.466093 1_555
Cu4 Mn0 2.821258 1_654
Cu4 Mn0 2.821258 1_655
Cu4 Mn1 2.855726 1_554
Cu4 Mn1 2.855726 1_555
Cu4 La0 3.234628 1_555
Cu5 P6 2.288247 1_655
Cu5 P2 2.328467 1_655
Cu5 P5 2.466093 1_555
Cu5 P5 2.466093 1_554
Cu5 Mn1 2.821258 1_544
Cu5 Mn1 2.821258 1_545
Cu5 Mn2 2.855726 1_655
Cu5 Mn2 2.855726 1_654
Cu5 La0 3.234619 1_555
Cu6 P0 2.391253 1_546
Cu6 P0 2.391253 1_545
Cu6 P5 2.420973 1_555
Cu6 P3 2.481213 1_555
Cu6 Mn0 2.774516 1_545
Cu6 La0 3.215423 1_556
Cu6 La0 3.215423 1_555
Cu6 La1 3.260084 1_545
Cu7 P1 2.391253 1_556
Cu7 P1 2.391253 1_555
Cu7 P3 2.420973 1_555
Cu7 P4 2.481213 1_555
Cu7 Mn1 2.774516 1_555
Cu7 La0 3.215427 1_556
Cu7 La0 3.215427 1_555
Cu7 La1 3.260093 1_555
Cu8 P2 2.391253 1_655
Cu8 P2 2.391253 1_656
Cu8 P4 2.420973 1_555
Cu8 P5 2.481213 1_555
Cu8 Mn2 2.774515 1_655
Cu8 La0 3.215420 1_556
Cu8 La0 3.215420 1_555
Cu8 La1 3.260086 1_655
