# generated using pymatgen
data_KMnCl3O2
_symmetry_space_group_name_H-M   'P 1'
_cell_length_a   6.47611400
_cell_length_b   6.77174560
_cell_length_c   8.99588174
_cell_angle_alpha   107.74594576
_cell_angle_beta   90.54708957
_cell_angle_gamma   112.19742588
_symmetry_Int_Tables_number   1
_chemical_formula_structural   KMnCl3O2
_chemical_formula_sum   'K2 Mn2 Cl6 O4'
_cell_volume   344.39601554
_cell_formula_units_Z   2
loop_
 _symmetry_equiv_pos_site_id
 _symmetry_equiv_pos_as_xyz
  1  'x, y, z'
loop_
 _atom_site_type_symbol
 _atom_site_label
 _atom_site_symmetry_multiplicity
 _atom_site_fract_x
 _atom_site_fract_y
 _atom_site_fract_z
 _atom_site_occupancy
  K  K0  1  0.93510500  0.63496900  0.78885000  1
  K  K1  1  0.06489500  0.36503100  0.21115000  1
  Mn  Mn0  1  0.62349000  0.96917800  0.68266100  1
  Mn  Mn1  1  0.37651000  0.03082200  0.31733900  1
  Cl  Cl0  1  0.73804700  0.18921400  0.48085600  1
  Cl  Cl1  1  0.26195300  0.81078600  0.51914400  1
  Cl  Cl2  1  0.48601200  0.74476300  0.83180800  1
  Cl  Cl3  1  0.51398800  0.25523700  0.16819200  1
  Cl  Cl4  1  0.98793800  0.16514600  0.81846000  1
  Cl  Cl5  1  0.01206200  0.83485400  0.18154000  1
  O  O0  1  0.28804500  0.22764600  0.43653200  1
  O  O1  1  0.71195500  0.77235400  0.56346800  1
  O  O2  1  0.56682900  0.19227500  0.79735800  1
  O  O3  1  0.43317100  0.80772500  0.20264200  1
loop_
_geom_bond_atom_site_label_1
_geom_bond_atom_site_label_2
_geom_bond_distance
_geom_bond_site_symmetry_2
K0 O1 3.028951 1_555
K0 O2 3.069518 1_555
K1 O0 3.028951 1_555
K1 O3 3.069518 1_555
Mn0 O2 1.719743 1_565
Mn0 O1 1.723925 1_555
Mn1 O3 1.719743 1_545
Mn1 O0 1.723925 1_555
Cl0 Mn1 2.423028 1_555
Cl0 Mn0 2.627875 1_545
Cl0 K0 3.215642 1_555
Cl0 K1 3.426277 1_655
Cl1 Mn0 2.423028 1_555
Cl1 Mn1 2.627875 1_565
Cl1 K1 3.215642 1_555
Cl1 K0 3.426277 1_455
Cl2 Mn0 2.268417 1_555
Cl2 K0 3.262052 1_555
Cl2 K0 3.350387 1_455
Cl3 Mn1 2.268417 1_555
Cl3 K1 3.262052 1_555
Cl3 K1 3.350387 1_655
Cl4 Mn0 2.326819 1_545
Cl4 K1 3.331901 1_656
Cl4 K0 3.400712 1_545
Cl4 K0 3.412841 1_555
Cl5 Mn1 2.326819 1_565
Cl5 K0 3.331901 1_454
Cl5 K1 3.400712 1_565
Cl5 K1 3.412841 1_555
