# generated using pymatgen
data_NaSrCeBiO6
_symmetry_space_group_name_H-M   'P 1'
_cell_length_a   8.51591518
_cell_length_b   8.53209439
_cell_length_c   8.53360581
_cell_angle_alpha   90.00000000
_cell_angle_beta   90.00000000
_cell_angle_gamma   90.00000000
_symmetry_Int_Tables_number   1
_chemical_formula_structural   NaSrCeBiO6
_chemical_formula_sum   'Na4 Sr4 Ce4 Bi4 O24'
_cell_volume   620.03978397
_cell_formula_units_Z   4
loop_
 _symmetry_equiv_pos_site_id
 _symmetry_equiv_pos_as_xyz
  1  'x, y, z'
loop_
 _atom_site_type_symbol
 _atom_site_label
 _atom_site_symmetry_multiplicity
 _atom_site_fract_x
 _atom_site_fract_y
 _atom_site_fract_z
 _atom_site_occupancy
  Na  Na0  1  0.00000000  -0.00000000  -0.00000000  1
  Na  Na1  1  0.50000000  0.50000000  0.50000000  1
  Na  Na2  1  0.00000000  0.50000000  0.50000000  1
  Na  Na3  1  0.50000000  -0.00000000  -0.00000000  1
  Sr  Sr0  1  0.50000000  -0.00000000  0.50000000  1
  Sr  Sr1  1  0.50000000  0.50000000  -0.00000000  1
  Sr  Sr2  1  0.00000000  0.50000000  -0.00000000  1
  Sr  Sr3  1  0.00000000  -0.00000000  0.50000000  1
  Ce  Ce0  1  0.25000000  0.25000000  0.25000000  1
  Ce  Ce1  1  0.75000000  0.75000000  0.25000000  1
  Ce  Ce2  1  0.75000000  0.25000000  0.75000000  1
  Ce  Ce3  1  0.25000000  0.75000000  0.75000000  1
  Bi  Bi0  1  0.75000000  0.75000000  0.75000000  1
  Bi  Bi1  1  0.25000000  0.25000000  0.75000000  1
  Bi  Bi2  1  0.25000000  0.75000000  0.25000000  1
  Bi  Bi3  1  0.75000000  0.25000000  0.25000000  1
  O  O0  1  0.99473733  0.20372818  0.28097597  1
  O  O1  1  0.00526267  0.79627182  0.28097597  1
  O  O2  1  0.00526267  0.20372818  0.71902403  1
  O  O3  1  0.99473733  0.79627182  0.71902403  1
  O  O4  1  0.29321319  0.99492494  0.21586590  1
  O  O5  1  0.29321319  0.00507506  0.78413410  1
  O  O6  1  0.70678681  0.00507506  0.21586590  1
  O  O7  1  0.70678681  0.99492494  0.78413410  1
  O  O8  1  0.21523754  0.29429210  0.99476033  1
  O  O9  1  0.78476246  0.29429210  0.00523967  1
  O  O10  1  0.21523754  0.70570790  0.00523967  1
  O  O11  1  0.78476246  0.70570790  0.99476033  1
  O  O12  1  0.50526267  0.29627182  0.21902403  1
  O  O13  1  0.49473733  0.70372818  0.21902403  1
  O  O14  1  0.49473733  0.29627182  0.78097597  1
  O  O15  1  0.50526267  0.70372818  0.78097597  1
  O  O16  1  0.20678681  0.50507506  0.28413410  1
  O  O17  1  0.20678681  0.49492494  0.71586590  1
  O  O18  1  0.79321319  0.49492494  0.28413410  1
  O  O19  1  0.79321319  0.50507506  0.71586590  1
  O  O20  1  0.28476246  0.20570790  0.50523967  1
  O  O21  1  0.71523754  0.20570790  0.49476033  1
  O  O22  1  0.28476246  0.79429210  0.49476033  1
  O  O23  1  0.71523754  0.79429210  0.50523967  1
loop_
_geom_bond_atom_site_label_1
_geom_bond_atom_site_label_2
_geom_bond_distance
_geom_bond_site_symmetry_2
Na0 O2 2.961856 1_554
Na0 O1 2.961856 1_545
Na0 O3 2.961856 1_444
Na0 O0 2.961856 1_455
Na1 O12 2.961856 1_555
Na1 O14 2.961856 1_555
Na1 O13 2.961856 1_555
Na1 O15 2.961856 1_555
Na2 O17 2.548786 1_555
Na2 O16 2.548786 1_555
Na2 O18 2.548786 1_455
Na2 O19 2.548786 1_455
Na3 O7 2.548786 1_544
Na3 O6 2.548786 1_555
Na3 O5 2.548786 1_554
Na3 O4 2.548786 1_545
Ce0 O0 2.225112 1_455
Ce0 O12 2.225112 1_555
Ce0 O4 2.226356 1_545
Ce0 O16 2.226356 1_555
Ce0 O20 2.230388 1_555
Ce0 O8 2.230388 1_554
Ce1 O13 2.225112 1_555
Ce1 O1 2.225112 1_655
Ce1 O18 2.226356 1_555
Ce1 O6 2.226356 1_565
Ce1 O11 2.230388 1_554
Ce1 O23 2.230388 1_555
Ce2 O14 2.225112 1_555
Ce2 O2 2.225112 1_655
Ce2 O7 2.226356 1_545
Ce2 O19 2.226356 1_555
Ce2 O9 2.230388 1_556
Ce2 O21 2.230388 1_555
Ce3 O3 2.225112 1_455
Ce3 O15 2.225112 1_555
Ce3 O5 2.226356 1_565
Ce3 O17 2.226356 1_555
Ce3 O10 2.230388 1_556
Ce3 O22 2.230388 1_555
Bi0 O15 2.137632 1_555
Bi0 O3 2.137632 1_555
Bi0 O19 2.141778 1_555
Bi0 O7 2.141778 1_555
Bi0 O23 2.143144 1_555
Bi0 O11 2.143144 1_555
Bi1 O14 2.137632 1_555
Bi1 O2 2.137632 1_555
Bi1 O17 2.141778 1_555
Bi1 O5 2.141778 1_555
Bi1 O8 2.143144 1_555
Bi1 O20 2.143144 1_555
Bi2 O13 2.137632 1_555
Bi2 O1 2.137632 1_555
Bi2 O16 2.141778 1_555
Bi2 O4 2.141778 1_555
Bi2 O10 2.143144 1_555
Bi2 O22 2.143144 1_555
Bi3 O12 2.137632 1_555
Bi3 O0 2.137632 1_555
Bi3 O18 2.141778 1_555
Bi3 O6 2.141778 1_555
Bi3 O9 2.143144 1_555
Bi3 O21 2.143144 1_555
O0 Sr3 2.552812 1_655
O1 Sr3 2.552812 1_565
O2 Sr3 2.552812 1_555
O3 Sr3 2.552812 1_665
O4 Sr0 2.997004 1_565
O5 Sr0 2.997004 1_555
O6 Sr0 2.997004 1_555
O7 Sr0 2.997004 1_565
O8 Sr2 2.538135 1_556
O8 Sr1 2.993849 1_556
O9 Sr2 2.538135 1_655
O9 Sr1 2.993849 1_555
O10 Sr2 2.538135 1_555
O10 Sr1 2.993849 1_555
O11 Sr2 2.538135 1_656
O11 Sr1 2.993849 1_556
O12 Sr1 2.552812 1_555
O13 Sr1 2.552812 1_555
O14 Sr1 2.552812 1_556
O15 Sr1 2.552812 1_556
O16 Sr2 2.997004 1_555
O17 Sr2 2.997004 1_556
O18 Sr2 2.997004 1_655
O19 Sr2 2.997004 1_656
O20 Sr0 2.538135 1_555
O20 Sr3 2.993849 1_555
O21 Sr0 2.538135 1_555
O21 Sr3 2.993849 1_655
O22 Sr0 2.538135 1_565
O22 Sr3 2.993849 1_565
O23 Sr0 2.538135 1_565
O23 Sr3 2.993849 1_665
