# generated using pymatgen
data_RbNbN2
_symmetry_space_group_name_H-M   'P 1'
_cell_length_a   6.11399400
_cell_length_b   12.30540000
_cell_length_c   17.19611400
_cell_angle_alpha   90.00000000
_cell_angle_beta   90.00000000
_cell_angle_gamma   90.00000000
_symmetry_Int_Tables_number   1
_chemical_formula_structural   RbNbN2
_chemical_formula_sum   'Rb16 Nb16 N32'
_cell_volume   1293.75207464
_cell_formula_units_Z   16
loop_
 _symmetry_equiv_pos_site_id
 _symmetry_equiv_pos_as_xyz
  1  'x, y, z'
loop_
 _atom_site_type_symbol
 _atom_site_label
 _atom_site_symmetry_multiplicity
 _atom_site_fract_x
 _atom_site_fract_y
 _atom_site_fract_z
 _atom_site_occupancy
  Rb  Rb0  1  0.24703300  0.99909900  0.43770000  1
  Rb  Rb1  1  0.74703300  0.50090100  0.56230000  1
  Rb  Rb2  1  0.75296700  0.49909900  0.06230000  1
  Rb  Rb3  1  0.25296700  0.00090100  0.93770000  1
  Rb  Rb4  1  0.75296700  0.00090100  0.56230000  1
  Rb  Rb5  1  0.25296700  0.49909900  0.43770000  1
  Rb  Rb6  1  0.24703300  0.50090100  0.93770000  1
  Rb  Rb7  1  0.74703300  0.99909900  0.06230000  1
  Rb  Rb8  1  0.30112900  0.25706800  0.31330100  1
  Rb  Rb9  1  0.80112900  0.24293200  0.68669900  1
  Rb  Rb10  1  0.69887100  0.75706800  0.18669900  1
  Rb  Rb11  1  0.19887100  0.74293200  0.81330100  1
  Rb  Rb12  1  0.69887100  0.74293200  0.68669900  1
  Rb  Rb13  1  0.19887100  0.75706800  0.31330100  1
  Rb  Rb14  1  0.30112900  0.24293200  0.81330100  1
  Rb  Rb15  1  0.80112900  0.25706800  0.18669900  1
  Nb  Nb0  1  0.74327300  0.00746200  0.31200100  1
  Nb  Nb1  1  0.24327300  0.49253800  0.68799900  1
  Nb  Nb2  1  0.25672700  0.50746200  0.18799900  1
  Nb  Nb3  1  0.75672700  0.99253800  0.81200100  1
  Nb  Nb4  1  0.25672700  0.99253800  0.68799900  1
  Nb  Nb5  1  0.75672700  0.50746200  0.31200100  1
  Nb  Nb6  1  0.74327300  0.49253800  0.81200100  1
  Nb  Nb7  1  0.24327300  0.00746200  0.18799900  1
  Nb  Nb8  1  0.78375300  0.26235100  0.43747900  1
  Nb  Nb9  1  0.28375300  0.23764900  0.56252100  1
  Nb  Nb10  1  0.21624700  0.76235100  0.06252100  1
  Nb  Nb11  1  0.71624700  0.73764900  0.93747900  1
  Nb  Nb12  1  0.21624700  0.73764900  0.56252100  1
  Nb  Nb13  1  0.71624700  0.76235100  0.43747900  1
  Nb  Nb14  1  0.78375300  0.23764900  0.93747900  1
  Nb  Nb15  1  0.28375300  0.26235100  0.06252100  1
  N  N0  1  0.08177700  0.27619100  0.47821400  1
  N  N1  1  0.58177700  0.22380900  0.52178600  1
  N  N2  1  0.91822300  0.77619100  0.02178600  1
  N  N3  1  0.41822300  0.72380900  0.97821400  1
  N  N4  1  0.91822300  0.72380900  0.52178600  1
  N  N5  1  0.41822300  0.77619100  0.47821400  1
  N  N6  1  0.08177700  0.22380900  0.97821400  1
  N  N7  1  0.58177700  0.27619100  0.02178600  1
  N  N8  1  0.69251900  0.40231600  0.39459300  1
  N  N9  1  0.19251900  0.09768400  0.60540700  1
  N  N10  1  0.30748100  0.90231600  0.10540700  1
  N  N11  1  0.80748100  0.59768400  0.89459300  1
  N  N12  1  0.30748100  0.59768400  0.60540700  1
  N  N13  1  0.80748100  0.90231600  0.39459300  1
  N  N14  1  0.69251900  0.09768400  0.89459300  1
  N  N15  1  0.19251900  0.40231600  0.10540700  1
  N  N16  1  0.77626400  0.15449500  0.35356200  1
  N  N17  1  0.27626400  0.34550500  0.64643800  1
  N  N18  1  0.22373600  0.65449500  0.14643800  1
  N  N19  1  0.72373600  0.84550500  0.85356200  1
  N  N20  1  0.22373600  0.84550500  0.64643800  1
  N  N21  1  0.72373600  0.65449500  0.35356200  1
  N  N22  1  0.77626400  0.34550500  0.85356200  1
  N  N23  1  0.27626400  0.15449500  0.14643800  1
  N  N24  1  0.55682800  0.48602400  0.22440800  1
  N  N25  1  0.05682800  0.01397600  0.77559200  1
  N  N26  1  0.44317200  0.98602400  0.27559200  1
  N  N27  1  0.94317200  0.51397600  0.72440800  1
  N  N28  1  0.44317200  0.51397600  0.77559200  1
  N  N29  1  0.94317200  0.98602400  0.22440800  1
  N  N30  1  0.55682800  0.01397600  0.72440800  1
  N  N31  1  0.05682800  0.48602400  0.27559200  1
loop_
_geom_bond_atom_site_label_1
_geom_bond_atom_site_label_2
_geom_bond_distance
_geom_bond_site_symmetry_2
N0 Nb8 1.959539 1_455
N0 Nb9 1.962562 1_555
N0 Rb5 3.017408 1_555
N0 Rb8 3.145804 1_555
N1 Nb9 1.959539 1_555
N1 Nb8 1.962562 1_555
N1 Rb4 3.017408 1_555
N1 Rb9 3.145804 1_555
N2 Nb10 1.959539 1_655
N2 Nb11 1.962562 1_554
N2 Rb7 3.017408 1_555
N2 Rb10 3.145804 1_555
N3 Nb11 1.959539 1_555
N3 Nb10 1.962562 1_556
N3 Rb6 3.017408 1_555
N3 Rb11 3.145804 1_555
N4 Nb12 1.959539 1_655
N4 Nb13 1.962562 1_555
N4 Rb1 3.017408 1_555
N4 Rb12 3.145804 1_555
N5 Nb13 1.959539 1_555
N5 Nb12 1.962562 1_555
N5 Rb0 3.017408 1_555
N5 Rb13 3.145804 1_555
N6 Nb14 1.959539 1_455
N6 Nb15 1.962562 1_556
N6 Rb3 3.017408 1_555
N6 Rb14 3.145804 1_555
N7 Nb15 1.959539 1_555
N7 Nb14 1.962562 1_554
N7 Rb2 3.017408 1_555
N7 Rb15 3.145804 1_555
N8 Nb8 1.954844 1_555
N8 Nb5 1.960952 1_555
N8 Rb5 3.031513 1_555
N8 Rb1 3.146378 1_555
N8 Rb8 3.297718 1_555
N9 Nb9 1.954844 1_555
N9 Nb4 1.960952 1_545
N9 Rb4 3.031513 1_455
N9 Rb0 3.146378 1_545
N9 Rb9 3.297718 1_455
N10 Nb10 1.954844 1_555
N10 Nb7 1.960952 1_565
N10 Rb7 3.031513 1_555
N10 Rb3 3.146378 1_564
N10 Rb10 3.297718 1_555
N11 Nb11 1.954844 1_555
N11 Nb6 1.960952 1_555
N11 Rb6 3.031513 1_655
N11 Rb2 3.146378 1_556
N11 Rb11 3.297718 1_655
N12 Nb12 1.954844 1_555
N12 Nb1 1.960952 1_555
N12 Rb1 3.031513 1_555
N12 Rb5 3.146378 1_555
N12 Rb12 3.297718 1_555
N13 Nb13 1.954844 1_555
N13 Nb0 1.960952 1_565
N13 Rb0 3.031513 1_655
N13 Rb4 3.146378 1_565
N13 Rb13 3.297718 1_655
N14 Nb14 1.954844 1_555
N14 Nb3 1.960952 1_545
N14 Rb3 3.031513 1_555
N14 Rb7 3.146378 1_546
N14 Rb14 3.297718 1_555
N15 Nb15 1.954844 1_555
N15 Nb2 1.960952 1_555
N15 Rb2 3.031513 1_455
N15 Rb6 3.146378 1_554
N15 Rb15 3.297718 1_455
N16 Nb0 1.955768 1_555
N16 Nb8 1.961114 1_555
N16 Rb15 3.138422 1_555
N16 Rb8 3.242120 1_555
N16 Rb8 3.517143 1_655
N17 Nb1 1.955768 1_555
N17 Nb9 1.961114 1_555
N17 Rb14 3.138422 1_555
N17 Rb9 3.242120 1_455
N17 Rb9 3.517143 1_555
N18 Nb2 1.955768 1_555
N18 Nb10 1.961114 1_555
N18 Rb13 3.138422 1_555
N18 Rb10 3.242120 1_555
N18 Rb10 3.517143 1_455
N19 Nb3 1.955768 1_555
N19 Nb11 1.961114 1_555
N19 Rb12 3.138422 1_555
N19 Rb11 3.242120 1_655
N19 Rb11 3.517143 1_555
N20 Nb4 1.955768 1_555
N20 Nb12 1.961114 1_555
N20 Rb11 3.138422 1_555
N20 Rb12 3.242120 1_555
N20 Rb12 3.517143 1_455
N21 Nb5 1.955768 1_555
N21 Nb13 1.961114 1_555
N21 Rb10 3.138422 1_555
N21 Rb13 3.242120 1_655
N21 Rb13 3.517143 1_555
N22 Nb6 1.955768 1_555
N22 Nb14 1.961114 1_555
N22 Rb9 3.138422 1_555
N22 Rb14 3.242120 1_555
N22 Rb14 3.517143 1_655
N23 Nb7 1.955768 1_555
N23 Nb15 1.961114 1_555
N23 Rb8 3.138422 1_555
N23 Rb15 3.242120 1_455
N23 Rb15 3.517143 1_555
N24 Nb2 1.956562 1_555
N24 Nb5 1.957584 1_555
N24 Rb2 3.038884 1_555
N24 Rb15 3.254106 1_555
N24 Rb10 3.506986 1_555
N24 Rb8 3.566289 1_555
N25 Nb3 1.956562 1_445
N25 Nb4 1.957584 1_545
N25 Rb3 3.038884 1_555
N25 Rb14 3.254106 1_555
N25 Rb11 3.506986 1_545
N25 Rb9 3.566289 1_455
N26 Nb0 1.956562 1_565
N26 Nb7 1.957584 1_565
N26 Rb0 3.038884 1_555
N26 Rb13 3.254106 1_555
N26 Rb8 3.506986 1_565
N26 Rb10 3.566289 1_555
N27 Nb1 1.956562 1_655
N27 Nb6 1.957584 1_555
N27 Rb1 3.038884 1_555
N27 Rb12 3.254106 1_555
N27 Rb9 3.506986 1_555
N27 Rb11 3.566289 1_655
N28 Nb6 1.956562 1_555
N28 Nb1 1.957584 1_555
N28 Rb6 3.038884 1_555
N28 Rb11 3.254106 1_555
N28 Rb14 3.506986 1_555
N28 Rb12 3.566289 1_555
N29 Nb7 1.956562 1_665
N29 Nb0 1.957584 1_565
N29 Rb7 3.038884 1_555
N29 Rb10 3.254106 1_555
N29 Rb15 3.506986 1_565
N29 Rb13 3.566289 1_655
N30 Nb4 1.956562 1_545
N30 Nb3 1.957584 1_545
N30 Rb4 3.038884 1_555
N30 Rb9 3.254106 1_555
N30 Rb12 3.506986 1_545
N30 Rb14 3.566289 1_555
N31 Nb5 1.956562 1_455
N31 Nb2 1.957584 1_555
N31 Rb5 3.038884 1_555
N31 Rb8 3.254106 1_555
N31 Rb13 3.506986 1_555
N31 Rb15 3.566289 1_455
