# generated using pymatgen
data_MgTl3
_symmetry_space_group_name_H-M   'P 1'
_cell_length_a   5.45679818
_cell_length_b   5.45679818
_cell_length_c   5.45679818
_cell_angle_alpha   60.00000000
_cell_angle_beta   60.00000000
_cell_angle_gamma   60.00000000
_symmetry_Int_Tables_number   1
_chemical_formula_structural   MgTl3
_chemical_formula_sum   'Mg1 Tl3'
_cell_volume   114.89435154
_cell_formula_units_Z   1
loop_
 _symmetry_equiv_pos_site_id
 _symmetry_equiv_pos_as_xyz
  1  'x, y, z'
loop_
 _atom_site_type_symbol
 _atom_site_label
 _atom_site_symmetry_multiplicity
 _atom_site_fract_x
 _atom_site_fract_y
 _atom_site_fract_z
 _atom_site_occupancy
  Mg  Mg0  1  0.00000000  0.00000000  0.00000000  1
  Tl  Tl0  1  0.25000000  0.25000000  0.25000000  1
  Tl  Tl1  1  0.50000000  0.50000000  0.50000000  1
  Tl  Tl2  1  0.75000000  0.75000000  0.75000000  1
loop_
_geom_bond_atom_site_label_1
_geom_bond_atom_site_label_2
_geom_bond_distance
_geom_bond_site_symmetry_2
Mg0 Tl0 3.341593 1_554
Mg0 Tl2 3.341593 1_445
Mg0 Tl2 3.341593 1_544
Mg0 Tl0 3.341593 1_455
Mg0 Tl0 3.341593 1_555
Mg0 Tl0 3.341593 1_545
Mg0 Tl2 3.341593 1_444
Mg0 Tl2 3.341593 1_454
Tl0 Tl1 3.341593 1_455
Tl0 Tl1 3.341593 1_554
Tl0 Tl1 3.341593 1_555
Tl0 Tl1 3.341593 1_545
Tl1 Tl2 3.341593 1_555
Tl1 Tl2 3.341593 1_545
Tl1 Tl2 3.341593 1_554
Tl1 Tl2 3.341593 1_455
