# generated using pymatgen
data_RbMg
_symmetry_space_group_name_H-M   'P 1'
_cell_length_a   31.37003680
_cell_length_b   31.37003680
_cell_length_c   9.85280600
_cell_angle_alpha   90.00000000
_cell_angle_beta   90.00000000
_cell_angle_gamma   164.60737802
_symmetry_Int_Tables_number   1
_chemical_formula_structural   RbMg
_chemical_formula_sum   'Rb24 Mg24'
_cell_volume   2573.61284344
_cell_formula_units_Z   24
loop_
 _symmetry_equiv_pos_site_id
 _symmetry_equiv_pos_as_xyz
  1  'x, y, z'
loop_
 _atom_site_type_symbol
 _atom_site_label
 _atom_site_symmetry_multiplicity
 _atom_site_fract_x
 _atom_site_fract_y
 _atom_site_fract_z
 _atom_site_occupancy
  Rb  Rb0_0  1  0.48080400  0.01919600  0.00000000  1
  Rb  Rb0_1  1  0.48080400  0.01919600  0.50000000  1
  Rb  Rb0_2  1  0.48080400  0.51919600  0.00000000  1
  Rb  Rb0_3  1  0.48080400  0.51919600  0.50000000  1
  Rb  Rb0_4  1  0.98080400  0.01919600  0.00000000  1
  Rb  Rb0_5  1  0.98080400  0.01919600  0.50000000  1
  Rb  Rb0_6  1  0.98080400  0.51919600  0.00000000  1
  Rb  Rb0_7  1  0.98080400  0.51919600  0.50000000  1
  Rb  Rb1_0  1  0.36108900  0.13891100  0.00000000  1
  Rb  Rb1_1  1  0.36108900  0.13891100  0.50000000  1
  Rb  Rb1_2  1  0.36108900  0.63891100  0.00000000  1
  Rb  Rb1_3  1  0.36108900  0.63891100  0.50000000  1
  Rb  Rb1_4  1  0.86108900  0.13891100  0.00000000  1
  Rb  Rb1_5  1  0.86108900  0.13891100  0.50000000  1
  Rb  Rb1_6  1  0.86108900  0.63891100  0.00000000  1
  Rb  Rb1_7  1  0.86108900  0.63891100  0.50000000  1
  Rb  Rb2_0  1  0.04666600  0.45333400  0.25000000  1
  Rb  Rb2_1  1  0.04666600  0.45333400  0.75000000  1
  Rb  Rb2_2  1  0.04666600  0.95333400  0.25000000  1
  Rb  Rb2_3  1  0.04666600  0.95333400  0.75000000  1
  Rb  Rb2_4  1  0.54666600  0.45333400  0.25000000  1
  Rb  Rb2_5  1  0.54666600  0.45333400  0.75000000  1
  Rb  Rb2_6  1  0.54666600  0.95333400  0.25000000  1
  Rb  Rb2_7  1  0.54666600  0.95333400  0.75000000  1
  Mg  Mg0_0  1  0.16720300  0.33279700  0.00000000  1
  Mg  Mg0_1  1  0.16720300  0.33279700  0.50000000  1
  Mg  Mg0_2  1  0.16720300  0.83279700  0.00000000  1
  Mg  Mg0_3  1  0.16720300  0.83279700  0.50000000  1
  Mg  Mg0_4  1  0.66720300  0.33279700  0.00000000  1
  Mg  Mg0_5  1  0.66720300  0.33279700  0.50000000  1
  Mg  Mg0_6  1  0.66720300  0.83279700  0.00000000  1
  Mg  Mg0_7  1  0.66720300  0.83279700  0.50000000  1
  Mg  Mg1_0  1  0.19846350  0.30153650  0.25000000  1
  Mg  Mg1_1  1  0.19846350  0.30153650  0.75000000  1
  Mg  Mg1_2  1  0.19846350  0.80153650  0.25000000  1
  Mg  Mg1_3  1  0.19846350  0.80153650  0.75000000  1
  Mg  Mg1_4  1  0.69846350  0.30153650  0.25000000  1
  Mg  Mg1_5  1  0.69846350  0.30153650  0.75000000  1
  Mg  Mg1_6  1  0.69846350  0.80153650  0.25000000  1
  Mg  Mg1_7  1  0.69846350  0.80153650  0.75000000  1
  Mg  Mg2_0  1  0.41244150  0.08755850  0.25000000  1
  Mg  Mg2_1  1  0.41244150  0.08755850  0.75000000  1
  Mg  Mg2_2  1  0.41244150  0.58755850  0.25000000  1
  Mg  Mg2_3  1  0.41244150  0.58755850  0.75000000  1
  Mg  Mg2_4  1  0.91244150  0.08755850  0.25000000  1
  Mg  Mg2_5  1  0.91244150  0.08755850  0.75000000  1
  Mg  Mg2_6  1  0.91244150  0.58755850  0.25000000  1
  Mg  Mg2_7  1  0.91244150  0.58755850  0.75000000  1
loop_
_geom_bond_atom_site_label_1
_geom_bond_atom_site_label_2
_geom_bond_distance
_geom_bond_site_symmetry_2
Rb0_0 Rb0_6 4.201150 1_555
Rb0_0 Rb0_6 4.201150 1_445
Rb0_0 Rb2_7 4.778712 1_544
Rb0_0 Rb2_6 4.778712 1_545
Rb0_1 Rb0_7 4.201150 1_555
Rb0_1 Rb0_7 4.201150 1_445
Rb0_1 Rb2_7 4.778712 1_545
Rb0_1 Rb2_6 4.778712 1_545
Rb0_2 Rb0_4 4.201150 1_565
Rb0_2 Rb0_4 4.201150 1_455
Rb0_2 Rb2_5 4.778712 1_554
Rb0_2 Rb2_4 4.778712 1_555
Rb0_3 Rb0_5 4.201150 1_455
Rb0_3 Rb0_5 4.201150 1_565
Rb0_3 Rb2_5 4.778712 1_555
Rb0_3 Rb2_4 4.778712 1_555
Rb0_4 Rb2_2 4.778712 1_645
Rb0_4 Rb2_3 4.778712 1_644
Rb0_5 Rb2_3 4.778712 1_645
Rb0_5 Rb2_2 4.778712 1_645
Rb0_6 Rb2_1 4.778712 1_654
Rb0_6 Rb2_0 4.778712 1_655
Rb0_7 Rb2_1 4.778712 1_655
Rb0_7 Rb2_0 4.778712 1_655
Rb1_0 Rb1_6 4.201150 1_555
Rb1_0 Rb1_6 4.201150 1_445
Rb1_0 Rb1_1 4.926403 1_555
Rb1_0 Rb1_1 4.926403 1_554
Rb1_1 Rb1_7 4.201150 1_555
Rb1_1 Rb1_7 4.201150 1_445
Rb1_2 Rb1_4 4.201150 1_455
Rb1_2 Rb1_4 4.201150 1_565
Rb1_2 Rb1_3 4.926403 1_555
Rb1_2 Rb1_3 4.926403 1_554
Rb1_3 Rb1_5 4.201150 1_565
Rb1_3 Rb1_5 4.201150 1_455
Rb1_4 Rb1_5 4.926403 1_554
Rb1_4 Rb1_5 4.926403 1_555
Rb1_6 Rb1_7 4.926403 1_554
Rb1_6 Rb1_7 4.926403 1_555
Rb2_0 Rb2_6 4.201150 1_445
Rb2_0 Rb2_6 4.201150 1_555
Rb2_0 Rb2_1 4.926403 1_554
Rb2_0 Rb2_1 4.926403 1_555
Rb2_1 Rb2_7 4.201150 1_555
Rb2_1 Rb2_7 4.201150 1_445
Rb2_2 Rb2_4 4.201150 1_565
Rb2_2 Rb2_4 4.201150 1_455
Rb2_2 Rb2_3 4.926403 1_554
Rb2_2 Rb2_3 4.926403 1_555
Rb2_3 Rb2_5 4.201150 1_455
Rb2_3 Rb2_5 4.201150 1_565
Rb2_4 Rb2_5 4.926403 1_555
Rb2_4 Rb2_5 4.926403 1_554
Rb2_6 Rb2_7 4.926403 1_554
Rb2_6 Rb2_7 4.926403 1_555
Mg0_0 Mg1_1 3.137677 1_554
Mg0_0 Mg1_0 3.137677 1_555
Mg0_0 Mg2_3 3.250757 1_554
Mg0_0 Mg2_2 3.250757 1_555
Mg0_0 Mg2_5 3.250757 1_454
Mg0_0 Mg2_4 3.250757 1_455
Mg0_0 Rb1_2 4.072434 1_555
Mg0_0 Rb1_4 4.072434 1_455
Mg0_1 Mg1_0 3.137677 1_555
Mg0_1 Mg1_1 3.137677 1_555
Mg0_1 Mg2_2 3.250757 1_555
Mg0_1 Mg2_3 3.250757 1_555
Mg0_1 Mg2_5 3.250757 1_455
Mg0_1 Mg2_4 3.250757 1_455
Mg0_1 Rb1_3 4.072434 1_555
Mg0_1 Rb1_5 4.072434 1_455
Mg0_2 Mg1_2 3.137677 1_555
Mg0_2 Mg1_3 3.137677 1_554
Mg0_2 Mg2_1 3.250757 1_564
Mg0_2 Mg2_0 3.250757 1_565
Mg0_2 Mg2_6 3.250757 1_455
Mg0_2 Mg2_7 3.250757 1_454
Mg0_2 Rb1_6 4.072434 1_455
Mg0_2 Rb1_0 4.072434 1_565
Mg0_3 Mg1_3 3.137677 1_555
Mg0_3 Mg1_2 3.137677 1_555
Mg0_3 Mg2_0 3.250757 1_565
Mg0_3 Mg2_1 3.250757 1_565
Mg0_3 Mg2_6 3.250757 1_455
Mg0_3 Mg2_7 3.250757 1_455
Mg0_3 Rb1_7 4.072434 1_455
Mg0_3 Rb1_1 4.072434 1_565
Mg0_4 Mg1_5 3.137677 1_554
Mg0_4 Mg1_4 3.137677 1_555
Mg0_4 Mg2_6 3.250757 1_555
Mg0_4 Mg2_7 3.250757 1_554
Mg0_4 Mg2_0 3.250757 1_555
Mg0_4 Mg2_1 3.250757 1_554
Mg0_4 Rb1_6 4.072434 1_555
Mg0_4 Rb1_0 4.072434 1_555
Mg0_5 Mg1_4 3.137677 1_555
Mg0_5 Mg1_5 3.137677 1_555
Mg0_5 Mg2_6 3.250757 1_555
Mg0_5 Mg2_7 3.250757 1_555
Mg0_5 Mg2_0 3.250757 1_555
Mg0_5 Mg2_1 3.250757 1_555
Mg0_5 Rb1_7 4.072434 1_555
Mg0_5 Rb1_1 4.072434 1_555
Mg0_6 Mg1_7 3.137677 1_554
Mg0_6 Mg1_6 3.137677 1_555
Mg0_6 Mg2_4 3.250757 1_565
Mg0_6 Mg2_5 3.250757 1_564
Mg0_6 Mg2_3 3.250757 1_554
Mg0_6 Mg2_2 3.250757 1_555
Mg0_6 Rb1_2 4.072434 1_555
Mg0_6 Rb1_4 4.072434 1_565
Mg0_7 Mg1_6 3.137677 1_555
Mg0_7 Mg1_7 3.137677 1_555
Mg0_7 Mg2_5 3.250757 1_565
Mg0_7 Mg2_4 3.250757 1_565
Mg0_7 Mg2_2 3.250757 1_555
Mg0_7 Mg2_3 3.250757 1_555
Mg0_7 Rb1_3 4.072434 1_555
Mg0_7 Rb1_5 4.072434 1_565
Mg1_0 Mg2_2 3.070588 1_555
Mg1_0 Mg2_4 3.070588 1_455
Mg1_0 Rb0_3 3.810900 1_555
Mg1_0 Rb0_2 3.810900 1_555
Mg1_0 Rb0_5 3.810900 1_455
Mg1_0 Rb0_4 3.810900 1_455
Mg1_1 Mg2_3 3.070588 1_555
Mg1_1 Mg2_5 3.070588 1_455
Mg1_1 Rb0_3 3.810900 1_555
Mg1_1 Rb0_2 3.810900 1_556
Mg1_1 Rb0_5 3.810900 1_455
Mg1_1 Rb0_4 3.810900 1_456
Mg1_2 Mg2_0 3.070588 1_565
Mg1_2 Mg2_6 3.070588 1_455
Mg1_2 Rb0_0 3.810900 1_565
Mg1_2 Rb0_1 3.810900 1_565
Mg1_2 Rb0_6 3.810900 1_455
Mg1_2 Rb0_7 3.810900 1_455
Mg1_3 Mg2_1 3.070588 1_565
Mg1_3 Mg2_7 3.070588 1_455
Mg1_3 Rb0_1 3.810900 1_565
Mg1_3 Rb0_0 3.810900 1_566
Mg1_3 Rb0_6 3.810900 1_456
Mg1_3 Rb0_7 3.810900 1_455
Mg1_4 Mg2_6 3.070588 1_555
Mg1_4 Mg2_0 3.070588 1_555
Mg1_4 Rb0_7 3.810900 1_555
Mg1_4 Rb0_6 3.810900 1_555
Mg1_4 Rb0_0 3.810900 1_555
Mg1_4 Rb0_1 3.810900 1_555
Mg1_5 Mg2_7 3.070588 1_555
Mg1_5 Mg2_1 3.070588 1_555
Mg1_5 Rb0_7 3.810900 1_555
Mg1_5 Rb0_6 3.810900 1_556
Mg1_5 Rb0_0 3.810900 1_556
Mg1_5 Rb0_1 3.810900 1_555
Mg1_6 Mg2_4 3.070588 1_565
Mg1_6 Mg2_2 3.070588 1_555
Mg1_6 Rb0_4 3.810900 1_565
Mg1_6 Rb0_5 3.810900 1_565
Mg1_6 Rb0_3 3.810900 1_555
Mg1_6 Rb0_2 3.810900 1_555
Mg1_7 Mg2_5 3.070588 1_565
Mg1_7 Mg2_3 3.070588 1_555
Mg1_7 Rb0_5 3.810900 1_565
Mg1_7 Rb0_4 3.810900 1_566
Mg1_7 Rb0_3 3.810900 1_555
Mg1_7 Rb0_2 3.810900 1_556
Mg2_0 Rb1_0 4.032563 1_555
Mg2_0 Rb1_1 4.032563 1_555
Mg2_1 Rb1_0 4.032563 1_556
Mg2_1 Rb1_1 4.032563 1_555
Mg2_2 Rb1_3 4.032563 1_555
Mg2_2 Rb1_2 4.032563 1_555
Mg2_3 Rb1_3 4.032563 1_555
Mg2_3 Rb1_2 4.032563 1_556
Mg2_4 Rb1_4 4.032563 1_555
Mg2_4 Rb1_5 4.032563 1_555
Mg2_5 Rb1_4 4.032563 1_556
Mg2_5 Rb1_5 4.032563 1_555
Mg2_6 Rb1_7 4.032563 1_555
Mg2_6 Rb1_6 4.032563 1_555
Mg2_7 Rb1_7 4.032563 1_555
Mg2_7 Rb1_6 4.032563 1_556
