# generated using pymatgen
data_MnGe7N10
_symmetry_space_group_name_H-M   'P 1'
_cell_length_a   7.01396360
_cell_length_b   7.33936700
_cell_length_c   10.30036671
_cell_angle_alpha   90.00000000
_cell_angle_beta   104.32635005
_cell_angle_gamma   90.00000000
_symmetry_Int_Tables_number   1
_chemical_formula_structural   MnGe7N10
_chemical_formula_sum   'Mn2 Ge14 N20'
_cell_volume   513.75335105
_cell_formula_units_Z   2
loop_
 _symmetry_equiv_pos_site_id
 _symmetry_equiv_pos_as_xyz
  1  'x, y, z'
loop_
 _atom_site_type_symbol
 _atom_site_label
 _atom_site_symmetry_multiplicity
 _atom_site_fract_x
 _atom_site_fract_y
 _atom_site_fract_z
 _atom_site_occupancy
  Mn  Mn0  1  0.99007600  0.92176800  0.70233400  1
  Mn  Mn1  1  0.99007600  0.07823200  0.20233400  1
  Ge  Ge0  1  0.54187600  0.97782800  0.82093700  1
  Ge  Ge1  1  0.54187600  0.02217200  0.32093700  1
  Ge  Ge2  1  0.33535700  0.02052200  0.01856000  1
  Ge  Ge3  1  0.33535700  0.97947800  0.51856000  1
  Ge  Ge4  1  0.11287100  0.39460300  0.07274100  1
  Ge  Ge5  1  0.11287100  0.60539700  0.57274100  1
  Ge  Ge6  1  0.66109900  0.35580400  0.99337700  1
  Ge  Ge7  1  0.66109900  0.64419600  0.49337700  1
  Ge  Ge8  1  0.84336800  0.61430300  0.81205600  1
  Ge  Ge9  1  0.84336800  0.38569700  0.31205600  1
  Ge  Ge10  1  0.30391300  0.62243200  0.88068500  1
  Ge  Ge11  1  0.30391300  0.37756800  0.38068500  1
  Ge  Ge12  1  0.49099300  0.36246300  0.68461000  1
  Ge  Ge13  1  0.49099300  0.63753700  0.18461000  1
  N  N0  1  0.76183300  0.85505300  0.80323800  1
  N  N1  1  0.76183300  0.14494700  0.30323800  1
  N  N2  1  0.54328800  0.13398800  0.96600500  1
  N  N3  1  0.54328800  0.86601200  0.46600500  1
  N  N4  1  0.29994100  0.87481800  0.85863800  1
  N  N5  1  0.29994100  0.12518200  0.35863800  1
  N  N6  1  0.12884900  0.14554900  0.04983400  1
  N  N7  1  0.12884900  0.85445100  0.54983400  1
  N  N8  1  0.30010200  0.51545300  0.71919800  1
  N  N9  1  0.30010200  0.48454700  0.21919800  1
  N  N10  1  0.44109500  0.11879200  0.66971400  1
  N  N11  1  0.44109500  0.88120800  0.16971400  1
  N  N12  1  0.88479400  0.37621100  0.13503400  1
  N  N13  1  0.88479400  0.62378900  0.63503400  1
  N  N14  1  0.08059800  0.56967300  0.93789600  1
  N  N15  1  0.08059800  0.43032700  0.43789600  1
  N  N16  1  0.70988800  0.40171000  0.82556900  1
  N  N17  1  0.70988800  0.59829000  0.32556900  1
  N  N18  1  0.51235900  0.55358300  0.01887400  1
  N  N19  1  0.51235900  0.44641700  0.51887400  1
loop_
_geom_bond_atom_site_label_1
_geom_bond_atom_site_label_2
_geom_bond_distance
_geom_bond_site_symmetry_2
Mn0 N7 2.101332 1_655
Mn0 N0 2.169396 1_555
Mn0 N13 2.356986 1_555
Mn0 N4 2.388035 1_655
Mn1 N6 2.101332 1_655
Mn1 N1 2.169396 1_555
Mn1 N12 2.356986 1_555
Mn1 N5 2.388035 1_655
Ge0 N0 1.834266 1_555
Ge0 N10 1.857799 1_565
Ge0 N2 1.881263 1_565
Ge0 N4 1.981931 1_555
Ge1 N1 1.834266 1_555
Ge1 N11 1.857799 1_545
Ge1 N3 1.881263 1_545
Ge1 N5 1.981931 1_555
Ge2 N6 1.809609 1_555
Ge2 N11 1.856910 1_545
Ge2 N2 1.871964 1_554
Ge2 N4 1.927749 1_544
Ge3 N7 1.809609 1_555
Ge3 N10 1.856910 1_565
Ge3 N3 1.871964 1_555
Ge3 N5 1.927749 1_565
Ge4 N6 1.850009 1_555
Ge4 N9 1.858948 1_555
Ge4 N14 1.864352 1_554
Ge4 N12 1.870032 1_455
Ge5 N7 1.850009 1_555
Ge5 N8 1.858948 1_555
Ge5 N15 1.864352 1_555
Ge5 N13 1.870032 1_455
Ge6 N2 1.815861 1_555
Ge6 N18 1.843913 1_556
Ge6 N12 1.865534 1_556
Ge6 N16 1.873766 1_555
Ge7 N3 1.815861 1_555
Ge7 N19 1.843913 1_555
Ge7 N13 1.865534 1_555
Ge7 N17 1.873766 1_555
Ge8 N16 1.842528 1_555
Ge8 N0 1.852489 1_555
Ge8 N14 1.867805 1_655
Ge8 N13 1.917348 1_555
Ge9 N17 1.842528 1_555
Ge9 N1 1.852489 1_555
Ge9 N15 1.867805 1_655
Ge9 N12 1.917348 1_555
Ge10 N8 1.833576 1_555
Ge10 N18 1.840936 1_556
Ge10 N14 1.845906 1_555
Ge10 N4 1.865591 1_555
Ge11 N9 1.833576 1_555
Ge11 N19 1.840936 1_555
Ge11 N15 1.845906 1_555
Ge11 N5 1.865591 1_555
Ge12 N10 1.821482 1_555
Ge12 N8 1.848363 1_555
Ge12 N19 1.855549 1_555
Ge12 N16 1.856094 1_555
Ge13 N11 1.821482 1_555
Ge13 N9 1.848363 1_555
Ge13 N18 1.855549 1_555
Ge13 N17 1.856094 1_555
