# generated using pymatgen
data_ThZr3
_symmetry_space_group_name_H-M   'P 1'
_cell_length_a   6.62497196
_cell_length_b   6.62497196
_cell_length_c   21.56943600
_cell_angle_alpha   90.00000000
_cell_angle_beta   90.00000000
_cell_angle_gamma   119.99999956
_symmetry_Int_Tables_number   1
_chemical_formula_structural   ThZr3
_chemical_formula_sum   'Th8 Zr24'
_cell_volume   819.85587150
_cell_formula_units_Z   8
loop_
 _symmetry_equiv_pos_site_id
 _symmetry_equiv_pos_as_xyz
  1  'x, y, z'
loop_
 _atom_site_type_symbol
 _atom_site_label
 _atom_site_symmetry_multiplicity
 _atom_site_fract_x
 _atom_site_fract_y
 _atom_site_fract_z
 _atom_site_occupancy
  Th  Th0_0  1  0.16666650  0.33333350  0.00000000  1
  Th  Th0_1  1  0.16666650  0.33333350  0.50000000  1
  Th  Th0_2  1  0.16666650  0.83333350  0.00000000  1
  Th  Th0_3  1  0.16666650  0.83333350  0.50000000  1
  Th  Th0_4  1  0.66666650  0.33333350  0.00000000  1
  Th  Th0_5  1  0.66666650  0.33333350  0.50000000  1
  Th  Th0_6  1  0.66666650  0.83333350  0.00000000  1
  Th  Th0_7  1  0.66666650  0.83333350  0.50000000  1
  Zr  Zr0_0  1  0.16666650  0.33333350  0.25000000  1
  Zr  Zr0_1  1  0.16666650  0.33333350  0.75000000  1
  Zr  Zr0_2  1  0.16666650  0.83333350  0.25000000  1
  Zr  Zr0_3  1  0.16666650  0.83333350  0.75000000  1
  Zr  Zr0_4  1  0.66666650  0.33333350  0.25000000  1
  Zr  Zr0_5  1  0.66666650  0.33333350  0.75000000  1
  Zr  Zr0_6  1  0.66666650  0.83333350  0.25000000  1
  Zr  Zr0_7  1  0.66666650  0.83333350  0.75000000  1
  Zr  Zr1_0  1  0.00000000  0.00000000  0.13253100  1
  Zr  Zr1_1  1  0.00000000  0.00000000  0.63253100  1
  Zr  Zr1_2  1  0.00000000  0.50000000  0.13253100  1
  Zr  Zr1_3  1  0.00000000  0.50000000  0.63253100  1
  Zr  Zr1_4  1  0.50000000  0.00000000  0.13253100  1
  Zr  Zr1_5  1  0.50000000  0.00000000  0.63253100  1
  Zr  Zr1_6  1  0.50000000  0.50000000  0.13253100  1
  Zr  Zr1_7  1  0.50000000  0.50000000  0.63253100  1
  Zr  Zr2_0  1  0.00000000  0.00000000  0.36746900  1
  Zr  Zr2_1  1  0.00000000  0.00000000  0.86746900  1
  Zr  Zr2_2  1  0.00000000  0.50000000  0.36746900  1
  Zr  Zr2_3  1  0.00000000  0.50000000  0.86746900  1
  Zr  Zr2_4  1  0.50000000  0.00000000  0.36746900  1
  Zr  Zr2_5  1  0.50000000  0.00000000  0.86746900  1
  Zr  Zr2_6  1  0.50000000  0.50000000  0.36746900  1
  Zr  Zr2_7  1  0.50000000  0.50000000  0.86746900  1
loop_
_geom_bond_atom_site_label_1
_geom_bond_atom_site_label_2
_geom_bond_distance
_geom_bond_site_symmetry_2
Th0_0 Th0_2 3.312486 1_545
Th0_0 Th0_2 3.312486 1_555
Th0_0 Th0_4 3.312486 1_455
Th0_0 Th0_4 3.312486 1_555
Th0_0 Th0_6 3.312486 1_555
Th0_0 Th0_6 3.312486 1_445
Th0_0 Zr1_2 3.439363 1_555
Th0_0 Zr2_3 3.439363 1_554
Th0_0 Zr1_6 3.439364 1_555
Th0_0 Zr1_0 3.439364 1_555
Th0_0 Zr2_7 3.439364 1_554
Th0_0 Zr2_1 3.439364 1_554
Th0_1 Th0_5 3.312486 1_555
Th0_1 Th0_3 3.312486 1_545
Th0_1 Th0_5 3.312486 1_455
Th0_1 Th0_3 3.312486 1_555
Th0_1 Th0_7 3.312486 1_445
Th0_1 Th0_7 3.312486 1_555
Th0_1 Zr1_3 3.439363 1_555
Th0_1 Zr2_2 3.439363 1_555
Th0_1 Zr1_7 3.439364 1_555
Th0_1 Zr1_1 3.439364 1_555
Th0_1 Zr2_6 3.439364 1_555
Th0_1 Zr2_0 3.439364 1_555
Th0_2 Th0_6 3.312486 1_455
Th0_2 Th0_6 3.312486 1_555
Th0_2 Th0_4 3.312486 1_565
Th0_2 Th0_4 3.312486 1_455
Th0_2 Zr1_0 3.439363 1_565
Th0_2 Zr2_1 3.439363 1_564
Th0_2 Zr1_2 3.439364 1_555
Th0_2 Zr1_4 3.439364 1_565
Th0_2 Zr2_3 3.439364 1_554
Th0_2 Zr2_5 3.439364 1_564
Th0_3 Th0_7 3.312486 1_455
Th0_3 Th0_7 3.312486 1_555
Th0_3 Th0_5 3.312486 1_565
Th0_3 Th0_5 3.312486 1_455
Th0_3 Zr1_1 3.439363 1_565
Th0_3 Zr2_0 3.439363 1_565
Th0_3 Zr1_3 3.439364 1_555
Th0_3 Zr1_5 3.439364 1_565
Th0_3 Zr2_2 3.439364 1_555
Th0_3 Zr2_4 3.439364 1_565
Th0_4 Th0_6 3.312486 1_555
Th0_4 Th0_6 3.312486 1_545
Th0_4 Zr1_6 3.439363 1_555
Th0_4 Zr2_7 3.439363 1_554
Th0_4 Zr1_4 3.439364 1_555
Th0_4 Zr1_2 3.439364 1_655
Th0_4 Zr2_3 3.439364 1_654
Th0_4 Zr2_5 3.439364 1_554
Th0_5 Th0_7 3.312486 1_555
Th0_5 Th0_7 3.312486 1_545
Th0_5 Zr1_7 3.439363 1_555
Th0_5 Zr2_6 3.439363 1_555
Th0_5 Zr1_5 3.439364 1_555
Th0_5 Zr1_3 3.439364 1_655
Th0_5 Zr2_4 3.439364 1_555
Th0_5 Zr2_2 3.439364 1_655
Th0_6 Zr1_4 3.439363 1_565
Th0_6 Zr2_5 3.439363 1_564
Th0_6 Zr1_6 3.439364 1_555
Th0_6 Zr1_0 3.439364 1_665
Th0_6 Zr2_7 3.439364 1_554
Th0_6 Zr2_1 3.439364 1_664
Th0_7 Zr1_5 3.439363 1_565
Th0_7 Zr2_4 3.439363 1_565
Th0_7 Zr1_7 3.439364 1_555
Th0_7 Zr1_1 3.439364 1_665
Th0_7 Zr2_6 3.439364 1_555
Th0_7 Zr2_0 3.439364 1_665
Zr0_0 Zr2_2 3.174485 1_555
Zr0_0 Zr1_2 3.174485 1_555
Zr0_0 Zr1_0 3.174486 1_555
Zr0_0 Zr2_0 3.174486 1_555
Zr0_0 Zr2_6 3.174486 1_555
Zr0_0 Zr1_6 3.174486 1_555
Zr0_0 Zr0_2 3.312486 1_555
Zr0_0 Zr0_2 3.312486 1_545
Zr0_0 Zr0_4 3.312486 1_455
Zr0_0 Zr0_4 3.312486 1_555
Zr0_0 Zr0_6 3.312486 1_555
Zr0_0 Zr0_6 3.312486 1_445
Zr0_1 Zr2_3 3.174485 1_555
Zr0_1 Zr1_3 3.174485 1_555
Zr0_1 Zr2_7 3.174486 1_555
Zr0_1 Zr2_1 3.174486 1_555
Zr0_1 Zr1_7 3.174486 1_555
Zr0_1 Zr1_1 3.174486 1_555
Zr0_1 Zr0_5 3.312486 1_455
Zr0_1 Zr0_5 3.312486 1_555
Zr0_1 Zr0_3 3.312486 1_545
Zr0_1 Zr0_3 3.312486 1_555
Zr0_1 Zr0_7 3.312486 1_555
Zr0_1 Zr0_7 3.312486 1_445
Zr0_2 Zr2_0 3.174485 1_565
Zr0_2 Zr1_0 3.174485 1_565
Zr0_2 Zr1_2 3.174486 1_555
Zr0_2 Zr2_2 3.174486 1_555
Zr0_2 Zr2_4 3.174486 1_565
Zr0_2 Zr1_4 3.174486 1_565
Zr0_2 Zr0_6 3.312486 1_455
Zr0_2 Zr0_6 3.312486 1_555
Zr0_2 Zr0_4 3.312486 1_565
Zr0_2 Zr0_4 3.312486 1_455
Zr0_3 Zr2_1 3.174485 1_565
Zr0_3 Zr1_1 3.174485 1_565
Zr0_3 Zr2_5 3.174486 1_565
Zr0_3 Zr2_3 3.174486 1_555
Zr0_3 Zr1_5 3.174486 1_565
Zr0_3 Zr1_3 3.174486 1_555
Zr0_3 Zr0_7 3.312486 1_455
Zr0_3 Zr0_7 3.312486 1_555
Zr0_3 Zr0_5 3.312486 1_565
Zr0_3 Zr0_5 3.312486 1_455
Zr0_4 Zr2_6 3.174485 1_555
Zr0_4 Zr1_6 3.174485 1_555
Zr0_4 Zr2_4 3.174486 1_555
Zr0_4 Zr1_4 3.174486 1_555
Zr0_4 Zr1_2 3.174486 1_655
Zr0_4 Zr2_2 3.174486 1_655
Zr0_4 Zr0_6 3.312486 1_555
Zr0_4 Zr0_6 3.312486 1_545
Zr0_5 Zr2_7 3.174485 1_555
Zr0_5 Zr1_7 3.174485 1_555
Zr0_5 Zr2_5 3.174486 1_555
Zr0_5 Zr2_3 3.174486 1_655
Zr0_5 Zr1_5 3.174486 1_555
Zr0_5 Zr1_3 3.174486 1_655
Zr0_5 Zr0_7 3.312486 1_555
Zr0_5 Zr0_7 3.312486 1_545
Zr0_6 Zr2_4 3.174485 1_565
Zr0_6 Zr1_4 3.174485 1_565
Zr0_6 Zr2_6 3.174486 1_555
Zr0_6 Zr1_6 3.174486 1_555
Zr0_6 Zr1_0 3.174486 1_665
Zr0_6 Zr2_0 3.174486 1_665
Zr0_7 Zr2_5 3.174485 1_565
Zr0_7 Zr1_5 3.174485 1_565
Zr0_7 Zr2_7 3.174486 1_555
Zr0_7 Zr2_1 3.174486 1_665
Zr0_7 Zr1_7 3.174486 1_555
Zr0_7 Zr1_1 3.174486 1_665
Zr1_0 Zr1_4 3.312486 1_455
Zr1_0 Zr1_2 3.312486 1_545
Zr1_0 Zr1_4 3.312486 1_555
Zr1_0 Zr1_2 3.312486 1_555
Zr1_0 Zr1_6 3.312486 1_555
Zr1_0 Zr1_6 3.312486 1_445
Zr1_1 Zr1_3 3.312486 1_545
Zr1_1 Zr1_5 3.312486 1_555
Zr1_1 Zr1_5 3.312486 1_455
Zr1_1 Zr1_3 3.312486 1_555
Zr1_1 Zr1_7 3.312486 1_445
Zr1_1 Zr1_7 3.312486 1_555
Zr1_2 Zr1_6 3.312486 1_555
Zr1_2 Zr1_6 3.312486 1_455
Zr1_2 Zr1_4 3.312486 1_565
Zr1_2 Zr1_4 3.312486 1_455
Zr1_3 Zr1_7 3.312486 1_555
Zr1_3 Zr1_7 3.312486 1_455
Zr1_3 Zr1_5 3.312486 1_455
Zr1_3 Zr1_5 3.312486 1_565
Zr1_4 Zr1_6 3.312486 1_545
Zr1_4 Zr1_6 3.312486 1_555
Zr1_5 Zr1_7 3.312486 1_545
Zr1_5 Zr1_7 3.312486 1_555
Zr2_0 Zr2_2 3.312486 1_555
Zr2_0 Zr2_2 3.312486 1_545
Zr2_0 Zr2_4 3.312486 1_455
Zr2_0 Zr2_4 3.312486 1_555
Zr2_0 Zr2_6 3.312486 1_555
Zr2_0 Zr2_6 3.312486 1_445
Zr2_1 Zr2_5 3.312486 1_555
Zr2_1 Zr2_3 3.312486 1_545
Zr2_1 Zr2_3 3.312486 1_555
Zr2_1 Zr2_5 3.312486 1_455
Zr2_1 Zr2_7 3.312486 1_555
Zr2_1 Zr2_7 3.312486 1_445
Zr2_2 Zr2_6 3.312486 1_555
Zr2_2 Zr2_6 3.312486 1_455
Zr2_2 Zr2_4 3.312486 1_455
Zr2_2 Zr2_4 3.312486 1_565
Zr2_3 Zr2_7 3.312486 1_555
Zr2_3 Zr2_7 3.312486 1_455
Zr2_3 Zr2_5 3.312486 1_565
Zr2_3 Zr2_5 3.312486 1_455
Zr2_4 Zr2_6 3.312486 1_545
Zr2_4 Zr2_6 3.312486 1_555
Zr2_5 Zr2_7 3.312486 1_545
Zr2_5 Zr2_7 3.312486 1_555
