# generated using pymatgen
data_Li5Mn(CoO4)2
_symmetry_space_group_name_H-M   'P 1'
_cell_length_a   2.93937000
_cell_length_b   5.04463100
_cell_length_c   9.77151318
_cell_angle_alpha   78.06781276
_cell_angle_beta   90.00000000
_cell_angle_gamma   90.00000000
_symmetry_Int_Tables_number   1
_chemical_formula_structural   Li5Mn(CoO4)2
_chemical_formula_sum   'Li5 Mn1 Co2 O8'
_cell_volume   141.76166859
_cell_formula_units_Z   1
loop_
 _symmetry_equiv_pos_site_id
 _symmetry_equiv_pos_as_xyz
  1  'x, y, z'
loop_
 _atom_site_type_symbol
 _atom_site_label
 _atom_site_symmetry_multiplicity
 _atom_site_fract_x
 _atom_site_fract_y
 _atom_site_fract_z
 _atom_site_occupancy
  Li  Li0  1  0.00000000  0.73216700  0.75130500  1
  Li  Li1  1  0.50000000  0.00274700  0.49937500  1
  Li  Li2  1  0.00000000  0.25502300  0.25271900  1
  Li  Li3  1  0.50000000  0.49575300  0.99355400  1
  Li  Li4  1  0.50000000  0.26235200  0.75336700  1
  Mn  Mn0  1  0.00000000  0.01158600  0.99193000  1
  Co  Co0  1  0.00000000  0.49358500  0.51166200  1
  Co  Co1  1  0.50000000  0.73553900  0.25185500  1
  O  O0  1  0.00000000  0.16945200  0.60909900  1
  O  O1  1  0.50000000  0.38794100  0.37451600  1
  O  O2  1  0.00000000  0.64808000  0.12779200  1
  O  O3  1  0.50000000  0.88985900  0.88930900  1
  O  O4  1  0.00000000  0.35332700  0.88378700  1
  O  O5  1  0.50000000  0.62574300  0.61549000  1
  O  O6  1  0.00000000  0.83660500  0.37810500  1
  O  O7  1  0.50000000  0.10024000  0.11613600  1
loop_
_geom_bond_atom_site_label_1
_geom_bond_atom_site_label_2
_geom_bond_distance
_geom_bond_site_symmetry_2
Li0 O4 2.074889 1_555
Li0 O5 2.122278 1_555
Li0 O5 2.122278 1_455
Li0 O3 2.248299 1_555
Li0 O3 2.248299 1_455
Li0 O0 2.351499 1_565
Li1 O5 2.003018 1_545
Li1 O1 2.069805 1_555
Li1 O0 2.095134 1_555
Li1 O0 2.095134 1_655
Li1 O6 2.162710 1_545
Li1 O6 2.162710 1_645
Li2 O1 2.087102 1_555
Li2 O1 2.087102 1_455
Li2 O2 2.102590 1_555
Li2 O6 2.210675 1_545
Li2 O7 2.231993 1_455
Li2 O7 2.231993 1_555
Li3 O4 2.036004 1_555
Li3 O4 2.036004 1_655
Li3 O3 2.037844 1_555
Li3 O7 2.104140 1_556
Li3 O2 2.210847 1_556
Li3 O2 2.210847 1_656
Li4 O5 2.038230 1_555
Li4 O4 2.058286 1_555
Li4 O4 2.058286 1_655
Li4 O3 2.064790 1_545
Li4 O0 2.154087 1_555
Li4 O0 2.154087 1_655
Mn0 O4 1.826303 1_555
Mn0 O3 1.948643 1_445
Mn0 O3 1.948643 1_545
Mn0 O7 2.014312 1_556
Mn0 O7 2.014312 1_456
Mn0 O2 2.029397 1_546
Co0 O0 1.713594 1_555
Co0 O6 1.940017 1_555
Co0 O5 1.978248 1_455
Co0 O5 1.978248 1_555
Co0 O1 2.129613 1_455
Co0 O1 2.129613 1_555
Co1 O1 1.908481 1_555
Co1 O2 2.011325 1_555
Co1 O2 2.011325 1_655
Co1 O7 2.033382 1_565
Co1 O6 2.049852 1_655
Co1 O6 2.049852 1_555
