# generated using pymatgen
data_Li9Mn7O16
_symmetry_space_group_name_H-M   'P 1'
_cell_length_a   2.81949211
_cell_length_b   10.37696128
_cell_length_c   10.51082732
_cell_angle_alpha   66.46098614
_cell_angle_beta   90.00000000
_cell_angle_gamma   90.00000000
_symmetry_Int_Tables_number   1
_chemical_formula_structural   Li9Mn7O16
_chemical_formula_sum   'Li9 Mn7 O16'
_cell_volume   281.93374812
_cell_formula_units_Z   1
loop_
 _symmetry_equiv_pos_site_id
 _symmetry_equiv_pos_as_xyz
  1  'x, y, z'
loop_
 _atom_site_type_symbol
 _atom_site_label
 _atom_site_symmetry_multiplicity
 _atom_site_fract_x
 _atom_site_fract_y
 _atom_site_fract_z
 _atom_site_occupancy
  Li  Li0  1  0.50000000  0.75499901  0.75745570  1
  Li  Li1  1  0.50000000  0.24338962  0.75285146  1
  Li  Li2  1  -0.00000000  0.74476853  0.49493752  1
  Li  Li3  1  0.00000000  0.25523147  0.50506248  1
  Li  Li4  1  0.50000000  0.75661038  0.24714854  1
  Li  Li5  1  0.50000000  0.24500099  0.24254430  1
  Li  Li6  1  -0.00000000  0.76050742  0.00667883  1
  Li  Li7  1  0.00000000  0.23949258  0.99332117  1
  Li  Li8  1  0.50000000  -0.00000000  -0.00000000  1
  Mn  Mn0  1  -0.00000000  0.00897387  0.75968956  1
  Mn  Mn1  1  0.00000000  0.99102613  0.24031044  1
  Mn  Mn2  1  -0.00000000  0.50065267  0.74991447  1
  Mn  Mn3  1  0.50000000  -0.00000000  0.50000000  1
  Mn  Mn4  1  0.50000000  0.50000000  0.50000000  1
  Mn  Mn5  1  -0.00000000  0.49934733  0.25008553  1
  Mn  Mn6  1  0.50000000  0.50000000  -0.00000000  1
  O  O0  1  0.50000000  0.88957606  0.86257800  1
  O  O1  1  0.50000000  0.38061544  0.85954616  1
  O  O2  1  -0.00000000  0.89823898  0.62568033  1
  O  O3  1  -0.00000000  0.38327967  0.60977715  1
  O  O4  1  0.50000000  0.88233778  0.36282638  1
  O  O5  1  0.50000000  0.37867003  0.36019997  1
  O  O6  1  0.00000000  0.88735838  0.14011949  1
  O  O7  1  -0.00000000  0.38099578  0.10986308  1
  O  O8  1  0.50000000  0.62132997  0.63980003  1
  O  O9  1  0.50000000  0.11766222  0.63717362  1
  O  O10  1  0.00000000  0.61672033  0.39022285  1
  O  O11  1  0.00000000  0.10176102  0.37431967  1
  O  O12  1  0.50000000  0.61938456  0.14045384  1
  O  O13  1  0.50000000  0.11042394  0.13742200  1
  O  O14  1  -0.00000000  0.61900422  0.89013692  1
  O  O15  1  -0.00000000  0.11264162  0.85988051  1
loop_
_geom_bond_atom_site_label_1
_geom_bond_atom_site_label_2
_geom_bond_distance
_geom_bond_site_symmetry_2
Li0 O14 2.086097 1_555
Li0 O14 2.086097 1_655
Li0 O0 2.098465 1_555
Li0 O2 2.114413 1_655
Li0 O2 2.114413 1_555
Li0 O8 2.196232 1_555
Li1 O15 1.968402 1_555
Li1 O15 1.968402 1_655
Li1 O9 2.108923 1_555
Li1 O1 2.135634 1_555
Li1 O3 2.147663 1_655
Li1 O3 2.147663 1_555
Li2 O10 2.035959 1_555
Li2 O4 2.090487 1_555
Li2 O4 2.090487 1_455
Li2 O8 2.094917 1_455
Li2 O8 2.094917 1_555
Li2 O2 2.484507 1_555
Li3 O3 2.035959 1_555
Li3 O9 2.090487 1_455
Li3 O9 2.090487 1_555
Li3 O5 2.094917 1_555
Li3 O5 2.094917 1_455
Li3 O11 2.484507 1_555
Li4 O6 1.968402 1_555
Li4 O6 1.968402 1_655
Li4 O4 2.108923 1_555
Li4 O12 2.135634 1_555
Li4 O10 2.147663 1_555
Li4 O10 2.147663 1_655
Li5 O7 2.086097 1_655
Li5 O7 2.086097 1_555
Li5 O13 2.098465 1_555
Li5 O11 2.114413 1_555
Li5 O11 2.114413 1_655
Li5 O5 2.196232 1_555
Li6 O0 2.110677 1_454
Li6 O0 2.110677 1_554
Li6 O12 2.112889 1_455
Li6 O12 2.112889 1_555
Li6 O14 2.256839 1_554
Li6 O6 2.274776 1_555
Li7 O13 2.110677 1_456
Li7 O13 2.110677 1_556
Li7 O1 2.112889 1_455
Li7 O1 2.112889 1_555
Li7 O7 2.256839 1_556
Li7 O15 2.274776 1_555
Li8 O15 2.036586 1_654
Li8 O6 2.036586 1_545
Li8 O6 2.036586 1_645
Li8 O15 2.036586 1_554
Li8 O13 2.172870 1_555
Li8 O0 2.172870 1_544
Mn0 O15 1.780765 1_555
Mn0 O0 1.903091 1_445
Mn0 O0 1.903091 1_545
Mn0 O9 1.938462 1_555
Mn0 O9 1.938462 1_455
Mn0 O2 2.144115 1_545
Mn1 O6 1.780765 1_555
Mn1 O13 1.903091 1_565
Mn1 O13 1.903091 1_465
Mn1 O4 1.938462 1_455
Mn1 O4 1.938462 1_555
Mn1 O11 2.144115 1_565
Mn2 O1 1.928811 1_455
Mn2 O1 1.928811 1_555
Mn2 O8 1.933245 1_555
Mn2 O8 1.933245 1_455
Mn2 O3 2.255226 1_555
Mn2 O14 2.264144 1_555
Mn3 O2 1.932176 1_545
Mn3 O2 1.932176 1_645
Mn3 O11 1.932176 1_555
Mn3 O11 1.932176 1_655
Mn3 O4 2.230632 1_545
Mn3 O9 2.230632 1_555
Mn4 O10 1.915588 1_555
Mn4 O3 1.915588 1_655
Mn4 O3 1.915588 1_555
Mn4 O10 1.915588 1_655
Mn4 O8 2.285185 1_555
Mn4 O5 2.285185 1_555
Mn5 O12 1.928811 1_455
Mn5 O12 1.928811 1_555
Mn5 O5 1.933245 1_555
Mn5 O5 1.933245 1_455
Mn5 O10 2.255226 1_555
Mn5 O7 2.264144 1_555
Mn6 O7 1.925306 1_555
Mn6 O14 1.925306 1_654
Mn6 O14 1.925306 1_554
Mn6 O7 1.925306 1_655
Mn6 O12 2.274861 1_555
Mn6 O1 2.274861 1_554
