# generated using pymatgen
data_CaMn2Cu3(RuO6)2
_symmetry_space_group_name_H-M   'P 1'
_cell_length_a   6.47314715
_cell_length_b   6.47314715
_cell_length_c   7.52236003
_cell_angle_alpha   54.72539198
_cell_angle_beta   54.72539198
_cell_angle_gamma   69.83856685
_symmetry_Int_Tables_number   1
_chemical_formula_structural   CaMn2Cu3(RuO6)2
_chemical_formula_sum   'Ca1 Mn2 Cu3 Ru2 O12'
_cell_volume   210.05030451
_cell_formula_units_Z   1
loop_
 _symmetry_equiv_pos_site_id
 _symmetry_equiv_pos_as_xyz
  1  'x, y, z'
loop_
 _atom_site_type_symbol
 _atom_site_label
 _atom_site_symmetry_multiplicity
 _atom_site_fract_x
 _atom_site_fract_y
 _atom_site_fract_z
 _atom_site_occupancy
  Ca  Ca0  1  0.00000000  0.00000000  0.00000000  1
  Mn  Mn0  1  0.00000000  0.50000000  0.50000000  1
  Mn  Mn1  1  0.50000000  0.00000000  0.50000000  1
  Cu  Cu0  1  0.50000000  0.50000000  0.00000000  1
  Cu  Cu1  1  0.00000000  0.00000000  0.50000000  1
  Cu  Cu2  1  0.50000000  0.50000000  0.50000000  1
  Ru  Ru0  1  0.00000000  0.50000000  0.00000000  1
  Ru  Ru1  1  0.50000000  0.00000000  0.00000000  1
  O  O0  1  0.69778900  0.31404300  0.16344000  1
  O  O1  1  0.68595700  0.30221100  0.83656000  1
  O  O2  1  0.31404300  0.69778900  0.16344000  1
  O  O3  1  0.30221100  0.68595700  0.83656000  1
  O  O4  1  0.82860100  0.82860100  0.47969100  1
  O  O5  1  0.17096400  0.17096400  0.13778300  1
  O  O6  1  0.82903600  0.82903600  0.86221700  1
  O  O7  1  0.17139900  0.17139900  0.52030900  1
  O  O8  1  0.52100900  0.86148500  0.30130500  1
  O  O9  1  0.86148500  0.52100900  0.30130500  1
  O  O10  1  0.13851500  0.47899100  0.69869500  1
  O  O11  1  0.47899100  0.13851500  0.69869500  1
loop_
_geom_bond_atom_site_label_1
_geom_bond_atom_site_label_2
_geom_bond_distance
_geom_bond_site_symmetry_2
Ca0 O0 2.615034 1_455
Ca0 O2 2.615034 1_545
Ca0 O3 2.615034 1_544
Ca0 O1 2.615034 1_454
Ca0 O10 2.647093 1_554
Ca0 O11 2.647093 1_554
Ca0 O9 2.647093 1_445
Ca0 O8 2.647093 1_445
Ca0 O6 2.649063 1_444
Ca0 O5 2.649063 1_555
Ca0 O4 2.661407 1_445
Ca0 O7 2.661407 1_554
Mn0 O4 1.993094 1_455
Mn0 O7 1.993094 1_555
Mn0 O10 2.070137 1_555
Mn0 O9 2.070137 1_455
Mn0 O2 2.070588 1_555
Mn0 O1 2.070588 1_455
Mn1 O4 1.993094 1_545
Mn1 O7 1.993094 1_555
Mn1 O11 2.070137 1_555
Mn1 O8 2.070137 1_545
Mn1 O0 2.070588 1_555
Mn1 O3 2.070588 1_545
Cu0 O3 1.909482 1_554
Cu0 O1 1.909482 1_554
Cu0 O2 1.909482 1_555
Cu0 O0 1.909482 1_555
Cu1 O7 1.930121 1_555
Cu1 O4 1.930121 1_445
Cu1 O5 1.937098 1_555
Cu1 O6 1.937098 1_445
Cu2 O8 1.916492 1_555
Cu2 O9 1.916492 1_555
Cu2 O10 1.916492 1_555
Cu2 O11 1.916492 1_555
O0 Ru0 1.980780 1_655
O1 Ru1 1.980780 1_556
O2 Ru1 1.980780 1_565
O3 Ru0 1.980780 1_556
O5 Ru1 1.996424 1_555
O5 Ru0 1.996424 1_555
O6 Ru0 1.996424 1_656
O6 Ru1 1.996424 1_566
O8 Ru1 1.970867 1_565
O9 Ru0 1.970867 1_655
O10 Ru0 1.970867 1_556
O11 Ru1 1.970867 1_556
