# generated using pymatgen
data_Fe2Mo
_symmetry_space_group_name_H-M   'P 1'
_cell_length_a   4.67435820
_cell_length_b   4.67434912
_cell_length_c   7.94457301
_cell_angle_alpha   90.00000000
_cell_angle_beta   90.00000000
_cell_angle_gamma   120.52632847
_symmetry_Int_Tables_number   1
_chemical_formula_structural   Fe2Mo
_chemical_formula_sum   'Fe8 Mo4'
_cell_volume   149.52591537
_cell_formula_units_Z   4
loop_
 _symmetry_equiv_pos_site_id
 _symmetry_equiv_pos_as_xyz
  1  'x, y, z'
loop_
 _atom_site_type_symbol
 _atom_site_label
 _atom_site_symmetry_multiplicity
 _atom_site_fract_x
 _atom_site_fract_y
 _atom_site_fract_z
 _atom_site_occupancy
  Fe  Fe0  1  0.83081455  0.65863512  0.75000000  1
  Fe  Fe1  1  0.82959178  0.17040822  0.75000000  1
  Fe  Fe2  1  0.34136388  0.16918645  0.75000000  1
  Fe  Fe3  1  0.16911700  0.34126988  0.25000000  1
  Fe  Fe4  1  0.17037256  0.82962744  0.25000000  1
  Fe  Fe5  1  0.65873012  0.83088300  0.25000000  1
  Fe  Fe6  1  0.00000185  -0.00000385  0.50003179  1
  Fe  Fe7  1  0.00000185  -0.00000385  -0.00003179  1
  Mo  Mo0  1  0.66474695  0.33525405  0.06816183  1
  Mo  Mo1  1  0.33525525  0.66474475  0.93186109  1
  Mo  Mo2  1  0.33525525  0.66474475  0.56813891  1
  Mo  Mo3  1  0.66474695  0.33525405  0.43183817  1
loop_
_geom_bond_atom_site_label_1
_geom_bond_atom_site_label_2
_geom_bond_distance
_geom_bond_site_symmetry_2
Fe0 Fe2 2.269636 1_555
Fe0 Fe1 2.279245 1_555
Fe0 Fe2 2.367482 1_665
Fe0 Fe1 2.395114 1_565
Fe0 Fe6 2.415230 1_665
Fe0 Fe7 2.415230 1_666
Fe0 Mo2 2.742499 1_555
Fe0 Mo1 2.742499 1_555
Fe0 Mo2 2.753134 1_655
Fe0 Mo1 2.753134 1_655
Fe0 Mo0 2.843335 1_556
Fe0 Mo3 2.843335 1_555
Fe1 Fe2 2.279257 1_555
Fe1 Fe2 2.395112 1_655
Fe1 Fe7 2.420199 1_656
Fe1 Fe6 2.420199 1_655
Fe1 Mo2 2.732270 1_545
Fe1 Mo1 2.732270 1_545
Fe1 Mo2 2.732270 1_655
Fe1 Mo1 2.732270 1_655
Fe1 Mo0 2.860019 1_556
Fe1 Mo3 2.860019 1_555
Fe2 Fe6 2.415234 1_555
Fe2 Fe7 2.415234 1_556
Fe2 Mo2 2.742489 1_555
Fe2 Mo1 2.742489 1_555
Fe2 Mo2 2.753136 1_545
Fe2 Mo1 2.753136 1_545
Fe2 Mo0 2.843340 1_556
Fe2 Mo3 2.843340 1_555
Fe3 Fe5 2.270394 1_555
Fe3 Fe4 2.279778 1_555
Fe3 Fe5 2.366724 1_445
Fe3 Fe4 2.394582 1_545
Fe3 Fe7 2.415447 1_555
Fe3 Fe6 2.415447 1_555
Fe3 Mo0 2.742491 1_555
Fe3 Mo3 2.742491 1_555
Fe3 Mo0 2.752943 1_455
Fe3 Mo3 2.752943 1_455
Fe3 Mo1 2.843347 1_554
Fe3 Mo2 2.843347 1_555
Fe4 Fe5 2.279783 1_555
Fe4 Fe5 2.394586 1_455
Fe4 Fe7 2.420421 1_565
Fe4 Fe6 2.420421 1_565
Fe4 Mo0 2.732167 1_455
Fe4 Mo3 2.732167 1_455
Fe4 Mo0 2.732171 1_565
Fe4 Mo3 2.732171 1_565
Fe4 Mo1 2.860000 1_554
Fe4 Mo2 2.860000 1_555
Fe5 Fe6 2.415444 1_665
Fe5 Fe7 2.415444 1_665
Fe5 Mo0 2.742485 1_555
Fe5 Mo3 2.742485 1_555
Fe5 Mo3 2.752941 1_565
Fe5 Mo0 2.752941 1_565
Fe5 Mo1 2.843348 1_554
Fe5 Mo2 2.843348 1_555
Fe6 Mo2 2.730750 1_445
Fe6 Mo2 2.730753 1_555
Fe6 Mo3 2.730864 1_445
Fe6 Mo3 2.730881 1_555
Fe6 Mo2 2.774714 1_545
Fe6 Mo3 2.774880 1_455
Fe7 Mo1 2.730750 1_444
Fe7 Mo1 2.730753 1_554
Fe7 Mo0 2.730864 1_445
Fe7 Mo0 2.730881 1_555
Fe7 Mo1 2.774714 1_544
Fe7 Mo0 2.774880 1_455
Mo0 Mo1 2.885563 1_554
Mo0 Mo3 2.889253 1_555
Mo0 Mo1 2.909308 1_544
Mo0 Mo1 2.909309 1_654
Mo1 Mo2 2.889617 1_555
Mo2 Mo3 2.885563 1_555
Mo2 Mo3 2.909308 1_565
Mo2 Mo3 2.909309 1_455
