# generated using pymatgen
data_CoCu2TeO6
_symmetry_space_group_name_H-M   'P 1'
_cell_length_a   8.38980124
_cell_length_b   8.38980124
_cell_length_c   8.38980124
_cell_angle_alpha   70.12614820
_cell_angle_beta   70.61116942
_cell_angle_gamma   109.15181703
_symmetry_Int_Tables_number   1
_chemical_formula_structural   CoCu2TeO6
_chemical_formula_sum   'Co4 Cu8 Te4 O24'
_cell_volume   454.58508587
_cell_formula_units_Z   4
loop_
 _symmetry_equiv_pos_site_id
 _symmetry_equiv_pos_as_xyz
  1  'x, y, z'
loop_
 _atom_site_type_symbol
 _atom_site_label
 _atom_site_symmetry_multiplicity
 _atom_site_fract_x
 _atom_site_fract_y
 _atom_site_fract_z
 _atom_site_occupancy
  Co  Co0  1  0.53835100  0.78835100  0.25000000  1
  Co  Co1  1  0.96164900  0.71164900  0.75000000  1
  Co  Co2  1  0.25000000  0.46233700  0.78766300  1
  Co  Co3  1  0.75000000  0.03766300  0.71233700  1
  Cu  Cu0  1  0.22330100  0.75000000  0.02669900  1
  Cu  Cu1  1  0.27669900  0.25000000  0.47330100  1
  Cu  Cu2  1  0.47069600  0.22069600  0.75000000  1
  Cu  Cu3  1  0.02930400  0.27930400  0.25000000  1
  Cu  Cu4  1  0.75000000  0.52961500  0.22038500  1
  Cu  Cu5  1  0.25000000  0.97038500  0.27961500  1
  Cu  Cu6  1  0.77991400  0.25000000  0.97008600  1
  Cu  Cu7  1  0.72008600  0.75000000  0.52991400  1
  Te  Te0  1  0.50154700  0.49677000  0.00252300  1
  Te  Te1  1  0.50070700  0.00323000  0.49522300  1
  Te  Te2  1  0.99929300  0.50407000  0.49747700  1
  Te  Te3  1  0.99845300  0.99593000  0.00477700  1
  O  O0  1  0.47149000  0.42615100  0.80808000  1
  O  O1  1  0.76576800  0.07384900  0.45466200  1
  O  O2  1  0.73423200  0.27957000  0.69192000  1
  O  O3  1  0.02851000  0.22043000  0.04533800  1
  O  O4  1  0.96297700  0.53012600  0.26943200  1
  O  O5  1  0.29955700  0.23240900  0.23056800  1
  O  O6  1  0.53702300  0.26759100  0.43285100  1
  O  O7  1  0.20044300  0.96987400  0.06714900  1
  O  O8  1  0.56847200  0.04971100  0.23033700  1
  O  O9  1  0.93152800  0.70119100  0.51876100  1
  O  O10  1  0.71995200  0.45028900  0.98123900  1
  O  O11  1  0.78004800  0.79880900  0.26966300  1
  O  O12  1  0.52981700  0.57065900  0.19250500  1
  O  O13  1  0.23683600  0.92934100  0.54084100  1
  O  O14  1  0.26316400  0.72232300  0.30749500  1
  O  O15  1  0.97018300  0.77767700  0.95915900  1
  O  O16  1  0.03537500  0.48251200  0.72571500  1
  O  O17  1  0.70822700  0.76109000  0.77428500  1
  O  O18  1  0.46462500  0.73891000  0.55286300  1
  O  O19  1  0.79177300  0.01748800  0.94713700  1
  O  O20  1  0.44067800  0.95879700  0.76534300  1
  O  O21  1  0.05932200  0.29397900  0.48188100  1
  O  O22  1  0.27586000  0.54120300  0.01811900  1
  O  O23  1  0.22414000  0.20602100  0.73465700  1
loop_
_geom_bond_atom_site_label_1
_geom_bond_atom_site_label_2
_geom_bond_distance
_geom_bond_site_symmetry_2
Co0 O12 2.027225 1_555
Co0 O14 2.027226 1_555
Co0 O11 2.064474 1_555
Co0 O8 2.064474 1_565
Co0 O19 2.254471 1_564
Co0 O18 2.254471 1_555
Co1 O13 2.027226 1_655
Co1 O15 2.027228 1_555
Co1 O10 2.064474 1_555
Co1 O9 2.064474 1_555
Co1 O16 2.254471 1_655
Co1 O17 2.254471 1_555
Co2 O3 2.029968 1_556
Co2 O0 2.029971 1_555
Co2 O18 2.074293 1_555
Co2 O16 2.074293 1_555
Co2 O22 2.297252 1_556
Co2 O23 2.297252 1_555
Co3 O1 2.029966 1_555
Co3 O2 2.029968 1_555
Co3 O17 2.074293 1_545
Co3 O19 2.074293 1_555
Co3 O21 2.297252 1_655
Co3 O20 2.297252 1_545
Cu0 O20 1.959544 1_554
Cu0 O22 1.959544 1_555
Cu0 O7 2.041914 1_555
Cu0 O4 2.041916 1_455
Cu0 O15 2.432649 1_454
Cu0 O14 2.432657 1_555
Cu1 O21 1.959544 1_555
Cu1 O23 1.959544 1_555
Cu1 O6 2.041916 1_555
Cu1 O5 2.041918 1_555
Cu1 O12 2.432655 1_555
Cu1 O13 2.432657 1_545
Cu2 O0 1.942785 1_555
Cu2 O2 1.942793 1_555
Cu2 O23 2.081133 1_555
Cu2 O20 2.081133 1_545
Cu2 O7 2.388697 1_546
Cu2 O6 2.388699 1_555
Cu3 O1 1.942791 1_455
Cu3 O3 1.942793 1_555
Cu3 O22 2.081133 1_555
Cu3 O21 2.081133 1_555
Cu3 O5 2.388691 1_555
Cu3 O4 2.388699 1_455
Cu4 O4 1.961246 1_555
Cu4 O6 1.961246 1_555
Cu4 O15 2.057975 1_554
Cu4 O12 2.057982 1_555
Cu4 O11 2.380272 1_555
Cu4 O10 2.380272 1_554
Cu5 O7 1.961242 1_555
Cu5 O5 1.961248 1_565
Cu5 O14 2.057974 1_555
Cu5 O13 2.057974 1_555
Cu5 O8 2.380272 1_565
Cu5 O9 2.380272 1_455
Cu6 O8 1.927654 1_556
Cu6 O10 1.927654 1_555
Cu6 O16 2.054826 1_655
Cu6 O19 2.054826 1_555
Cu6 O3 2.432586 1_656
Cu6 O2 2.432586 1_555
Cu7 O9 1.927654 1_555
Cu7 O11 1.927654 1_555
Cu7 O17 2.054826 1_555
Cu7 O18 2.054826 1_555
Cu7 O0 2.432590 1_555
Cu7 O1 2.432594 1_565
O0 Te0 1.976901 1_556
O1 Te1 1.976896 1_555
O2 Te2 1.976897 1_555
O3 Te3 1.976897 1_445
O4 Te2 1.986841 1_555
O5 Te0 1.986842 1_555
O6 Te1 1.986841 1_555
O7 Te3 1.986849 1_455
O8 Te1 1.959722 1_555
O9 Te2 1.959722 1_555
O10 Te0 1.959722 1_556
O11 Te3 1.959722 1_555
O12 Te0 1.951264 1_555
O13 Te1 1.951267 1_565
O14 Te2 1.951267 1_455
O15 Te3 1.951268 1_556
O16 Te2 1.994094 1_455
O17 Te0 1.994094 1_556
O18 Te1 1.994094 1_565
O19 Te3 1.994094 1_546
O20 Te1 2.018198 1_565
O21 Te2 2.018198 1_455
O22 Te0 2.018198 1_555
O23 Te3 2.018198 1_446
