# generated using pymatgen
data_MgCr2(CuO4)2
_symmetry_space_group_name_H-M   'P 1'
_cell_length_a   6.49987171
_cell_length_b   8.24956500
_cell_length_c   11.89302794
_cell_angle_alpha   90.00000000
_cell_angle_beta   90.27232152
_cell_angle_gamma   90.00000000
_symmetry_Int_Tables_number   1
_chemical_formula_structural   MgCr2(CuO4)2
_chemical_formula_sum   'Mg4 Cr8 Cu8 O32'
_cell_volume   637.71020573
_cell_formula_units_Z   4
loop_
 _symmetry_equiv_pos_site_id
 _symmetry_equiv_pos_as_xyz
  1  'x, y, z'
loop_
 _atom_site_type_symbol
 _atom_site_label
 _atom_site_symmetry_multiplicity
 _atom_site_fract_x
 _atom_site_fract_y
 _atom_site_fract_z
 _atom_site_occupancy
  Mg  Mg0  1  0.11517900  0.15927400  0.04865200  1
  Mg  Mg1  1  0.88482100  0.84072600  0.95134800  1
  Mg  Mg2  1  0.88482100  0.65927400  0.45134800  1
  Mg  Mg3  1  0.11517900  0.34072600  0.54865200  1
  Cr  Cr0  1  0.10216300  0.46149000  0.84570600  1
  Cr  Cr1  1  0.10216300  0.03851000  0.34570600  1
  Cr  Cr2  1  0.61161900  0.08555900  0.13135800  1
  Cr  Cr3  1  0.89783700  0.96149000  0.65429400  1
  Cr  Cr4  1  0.38838100  0.91444100  0.86864200  1
  Cr  Cr5  1  0.38838100  0.58555900  0.36864200  1
  Cr  Cr6  1  0.61161900  0.41444100  0.63135800  1
  Cr  Cr7  1  0.89783700  0.53851000  0.15429400  1
  Cu  Cu0  1  0.75934200  0.18246900  0.87079400  1
  Cu  Cu1  1  0.38240500  0.05917700  0.63386100  1
  Cu  Cu2  1  0.61759500  0.94082300  0.36613900  1
  Cu  Cu3  1  0.24065800  0.81753100  0.12920600  1
  Cu  Cu4  1  0.75934200  0.31753100  0.37079400  1
  Cu  Cu5  1  0.38240500  0.44082300  0.13386100  1
  Cu  Cu6  1  0.24065800  0.68246900  0.62920600  1
  Cu  Cu7  1  0.61759500  0.55917700  0.86613900  1
  O  O0  1  0.03664200  0.22554100  0.39471200  1
  O  O1  1  0.67089800  0.01084200  0.59948400  1
  O  O2  1  0.18685300  0.57452100  0.47226900  1
  O  O3  1  0.81314700  0.07452100  0.02773100  1
  O  O4  1  0.03664200  0.27445900  0.89471200  1
  O  O5  1  0.96335800  0.77445900  0.60528800  1
  O  O6  1  0.07777700  0.10225200  0.61681000  1
  O  O7  1  0.51379400  0.89468100  0.13941000  1
  O  O8  1  0.51379400  0.60531900  0.63941000  1
  O  O9  1  0.31593200  0.86780100  0.72947300  1
  O  O10  1  0.68406800  0.36780100  0.77052700  1
  O  O11  1  0.48620600  0.10531900  0.86059000  1
  O  O12  1  0.92222300  0.89774800  0.38319000  1
  O  O13  1  0.87910800  0.53964200  0.29437100  1
  O  O14  1  0.41456300  0.28247200  0.58539700  1
  O  O15  1  0.41456300  0.21752800  0.08539700  1
  O  O16  1  0.12089200  0.03964200  0.20562900  1
  O  O17  1  0.48620600  0.39468100  0.36059000  1
  O  O18  1  0.12089200  0.46035800  0.70562900  1
  O  O19  1  0.81314700  0.42547900  0.52773100  1
  O  O20  1  0.67089800  0.48915800  0.09948400  1
  O  O21  1  0.68406800  0.13219900  0.27052700  1
  O  O22  1  0.96335800  0.72554100  0.10528800  1
  O  O23  1  0.07777700  0.39774800  0.11681000  1
  O  O24  1  0.18685300  0.92547900  0.97226900  1
  O  O25  1  0.58543700  0.78247200  0.91460300  1
  O  O26  1  0.32910200  0.98915800  0.40051600  1
  O  O27  1  0.32910200  0.51084200  0.90051600  1
  O  O28  1  0.92222300  0.60225200  0.88319000  1
  O  O29  1  0.58543700  0.71752800  0.41460300  1
  O  O30  1  0.31593200  0.63219900  0.22947300  1
  O  O31  1  0.87910800  0.96035800  0.79437100  1
loop_
_geom_bond_atom_site_label_1
_geom_bond_atom_site_label_2
_geom_bond_distance
_geom_bond_site_symmetry_2
Mg0 O15 2.049535 1_555
Mg0 O3 2.097652 1_455
Mg0 O16 2.111907 1_555
Mg0 O4 2.122854 1_554
Mg0 O23 2.142044 1_555
Mg0 O24 2.183164 1_544
Mg1 O25 2.049535 1_555
Mg1 O24 2.097652 1_655
Mg1 O31 2.111907 1_555
Mg1 O22 2.122854 1_556
Mg1 O28 2.142044 1_555
Mg1 O3 2.183164 1_566
Mg2 O29 2.049535 1_555
Mg2 O2 2.097652 1_655
Mg2 O13 2.111907 1_555
Mg2 O5 2.122854 1_555
Mg2 O12 2.142044 1_555
Mg2 O19 2.183164 1_555
Mg3 O14 2.049535 1_555
Mg3 O19 2.097652 1_455
Mg3 O18 2.111907 1_555
Mg3 O0 2.122854 1_555
Mg3 O6 2.142044 1_555
Mg3 O2 2.183164 1_555
Cr0 O27 1.660536 1_555
Cr0 O18 1.670985 1_555
Cr0 O4 1.704124 1_555
Cr0 O28 1.708821 1_455
Cr1 O26 1.660536 1_545
Cr1 O16 1.670985 1_555
Cr1 O0 1.704124 1_555
Cr1 O12 1.708821 1_445
Cr2 O7 1.701061 1_545
Cr2 O21 1.761215 1_555
Cr2 O15 1.765763 1_555
Cr2 O3 1.805103 1_555
Cr3 O1 1.660536 1_565
Cr3 O31 1.670985 1_555
Cr3 O5 1.704124 1_555
Cr3 O6 1.708821 1_665
Cr4 O11 1.701061 1_565
Cr4 O9 1.761215 1_555
Cr4 O25 1.765763 1_555
Cr4 O24 1.805103 1_555
Cr5 O17 1.701061 1_555
Cr5 O30 1.761215 1_555
Cr5 O29 1.765763 1_555
Cr5 O2 1.805103 1_555
Cr6 O8 1.701061 1_555
Cr6 O10 1.761215 1_555
Cr6 O14 1.765763 1_555
Cr6 O19 1.805103 1_555
Cr7 O20 1.660536 1_555
Cr7 O13 1.670985 1_555
Cr7 O22 1.704124 1_555
Cr7 O23 1.708821 1_655
Cu0 O11 1.889343 1_555
Cu0 O4 1.975003 1_655
Cu0 O10 1.998351 1_555
Cu0 O3 2.095899 1_556
Cu0 O31 2.190029 1_545
Cu1 O14 1.941736 1_555
Cu1 O1 1.962063 1_555
Cu1 O9 1.994215 1_545
Cu1 O6 2.020928 1_555
Cu2 O29 1.941736 1_555
Cu2 O26 1.962063 1_555
Cu2 O21 1.994215 1_565
Cu2 O12 2.020928 1_555
Cu3 O7 1.889343 1_555
Cu3 O22 1.975003 1_455
Cu3 O30 1.998351 1_555
Cu3 O24 2.095899 1_554
Cu3 O16 2.190029 1_565
Cu4 O17 1.889343 1_555
Cu4 O0 1.975003 1_655
Cu4 O21 1.998351 1_555
Cu4 O19 2.095899 1_555
Cu4 O13 2.190029 1_555
Cu5 O15 1.941736 1_555
Cu5 O20 1.962063 1_555
Cu5 O30 1.994215 1_555
Cu5 O23 2.020928 1_555
Cu6 O8 1.889343 1_555
Cu6 O5 1.975003 1_455
Cu6 O9 1.998351 1_555
Cu6 O2 2.095899 1_555
Cu6 O18 2.190029 1_555
Cu7 O25 1.941736 1_555
Cu7 O27 1.962063 1_555
Cu7 O10 1.994215 1_555
Cu7 O28 2.020928 1_555
