# generated using pymatgen
data_TiCoCuS4
_symmetry_space_group_name_H-M   'P 1'
_cell_length_a   6.91166565
_cell_length_b   6.91166565
_cell_length_c   6.91166565
_cell_angle_alpha   120.96850960
_cell_angle_beta   118.98001561
_cell_angle_gamma   90.05320386
_symmetry_Int_Tables_number   1
_chemical_formula_structural   TiCoCuS4
_chemical_formula_sum   'Ti2 Co2 Cu2 S8'
_cell_volume   233.47401597
_cell_formula_units_Z   2
loop_
 _symmetry_equiv_pos_site_id
 _symmetry_equiv_pos_as_xyz
  1  'x, y, z'
loop_
 _atom_site_type_symbol
 _atom_site_label
 _atom_site_symmetry_multiplicity
 _atom_site_fract_x
 _atom_site_fract_y
 _atom_site_fract_z
 _atom_site_occupancy
  Ti  Ti0  1  0.00000000  0.00000000  0.50000000  1
  Ti  Ti1  1  0.00000000  0.50000000  0.00000000  1
  Co  Co0  1  0.50000000  0.00000000  0.50000000  1
  Co  Co1  1  0.00000000  0.00000000  0.00000000  1
  Cu  Cu0  1  0.62526900  0.37526900  0.25000000  1
  Cu  Cu1  1  0.37473100  0.62473100  0.75000000  1
  S  S0  1  0.23056100  0.23666600  0.99389400  1
  S  S1  1  0.74277200  0.23666600  0.50610600  1
  S  S2  1  0.75241100  0.22441000  0.97199900  1
  S  S3  1  0.75241100  0.78041200  0.52800100  1
  S  S4  1  0.76943900  0.76333400  0.00610600  1
  S  S5  1  0.25722800  0.76333400  0.49389400  1
  S  S6  1  0.24758900  0.77559000  0.02800100  1
  S  S7  1  0.24758900  0.21958800  0.47199900  1
loop_
_geom_bond_atom_site_label_1
_geom_bond_atom_site_label_2
_geom_bond_distance
_geom_bond_site_symmetry_2
Co0 S5 2.312631 1_545
Co0 S1 2.312631 1_555
Co0 S2 2.316143 1_555
Co0 S7 2.316143 1_555
Co0 S6 2.316143 1_545
Co0 S3 2.316143 1_545
Co1 S0 2.312636 1_554
Co1 S4 2.312636 1_445
Co1 S2 2.316143 1_454
Co1 S3 2.316143 1_444
Co1 S7 2.316143 1_555
Co1 S6 2.316143 1_545
Cu0 S0 2.250364 1_554
Cu0 S1 2.250370 1_555
Cu0 S3 2.264382 1_555
Cu0 S2 2.264382 1_554
Cu1 S4 2.250364 1_556
Cu1 S5 2.250370 1_555
Cu1 S6 2.264382 1_556
Cu1 S7 2.264382 1_555
S0 Ti0 2.417721 1_555
S0 Ti1 2.417726 1_556
S1 Ti0 2.417722 1_655
S1 Ti1 2.417722 1_656
S2 Ti1 2.426457 1_656
S3 Ti0 2.426457 1_665
S4 Ti0 2.417721 1_665
S4 Ti1 2.417726 1_655
S5 Ti1 2.417722 1_555
S5 Ti0 2.417722 1_565
S6 Ti1 2.426457 1_555
S7 Ti0 2.426457 1_555
