# generated using pymatgen
data_Pm3Cu
_symmetry_space_group_name_H-M   'P 1'
_cell_length_a   6.04023387
_cell_length_b   6.04023387
_cell_length_c   6.04023387
_cell_angle_alpha   134.43911392
_cell_angle_beta   134.43911392
_cell_angle_gamma   66.40295017
_symmetry_Int_Tables_number   1
_chemical_formula_structural   Pm3Cu
_chemical_formula_sum   'Pm3 Cu1'
_cell_volume   110.58336656
_cell_formula_units_Z   1
loop_
 _symmetry_equiv_pos_site_id
 _symmetry_equiv_pos_as_xyz
  1  'x, y, z'
loop_
 _atom_site_type_symbol
 _atom_site_label
 _atom_site_symmetry_multiplicity
 _atom_site_fract_x
 _atom_site_fract_y
 _atom_site_fract_z
 _atom_site_occupancy
  Pm  Pm0  1  0.75000100  0.25000000  0.50000000  1
  Pm  Pm1  1  0.25000000  0.75000100  0.50000000  1
  Pm  Pm2  1  0.49999900  0.49999900  0.00000000  1
  Cu  Cu0  1  0.00000000  0.00000000  0.00000000  1
loop_
_geom_bond_atom_site_label_1
_geom_bond_atom_site_label_2
_geom_bond_distance
_geom_bond_site_symmetry_2
Pm0 Pm1 3.307533 1_645
Pm0 Pm1 3.307540 1_544
Pm0 Pm1 3.307540 1_656
Pm0 Pm1 3.307547 1_555
Pm0 Pm2 3.443251 1_656
Pm0 Pm2 3.443254 1_555
Pm0 Pm2 3.443273 1_545
Pm0 Pm2 3.443276 1_556
Pm1 Pm2 3.443251 1_566
Pm1 Pm2 3.443254 1_555
Pm1 Pm2 3.443273 1_455
Pm1 Pm2 3.443276 1_556
Cu0 Pm2 3.307540 1_556
Cu0 Pm2 3.307540 1_545
Cu0 Pm2 3.307540 1_444
Cu0 Pm2 3.307540 1_455
Cu0 Pm1 3.443258 1_545
Cu0 Pm0 3.443258 1_455
Cu0 Pm1 3.443261 1_444
Cu0 Pm0 3.443261 1_444
Cu0 Pm0 3.443265 1_454
Cu0 Pm1 3.443265 1_544
Cu0 Pm0 3.443269 1_555
Cu0 Pm1 3.443269 1_555
