# generated using pymatgen
data_MgV4(PO5)4
_symmetry_space_group_name_H-M   'P 1'
_cell_length_a   5.17737700
_cell_length_b   10.23231412
_cell_length_c   7.42148282
_cell_angle_alpha   70.32824845
_cell_angle_beta   69.83789215
_cell_angle_gamma   78.60111167
_symmetry_Int_Tables_number   1
_chemical_formula_structural   MgV4(PO5)4
_chemical_formula_sum   'Mg1 V4 P4 O20'
_cell_volume   346.04726823
_cell_formula_units_Z   1
loop_
 _symmetry_equiv_pos_site_id
 _symmetry_equiv_pos_as_xyz
  1  'x, y, z'
loop_
 _atom_site_type_symbol
 _atom_site_label
 _atom_site_symmetry_multiplicity
 _atom_site_fract_x
 _atom_site_fract_y
 _atom_site_fract_z
 _atom_site_occupancy
  Mg  Mg0  1  0.25942800  0.69512300  0.56931300  1
  V  V0  1  0.01656300  0.50279300  0.03254700  1
  V  V1  1  0.98556100  0.76099600  0.24637800  1
  V  V2  1  0.46571200  0.25456600  0.77165500  1
  V  V3  1  0.95017000  0.02416400  0.48974700  1
  P  P0  1  0.59582900  0.05115200  0.18733600  1
  P  P1  1  0.37312900  0.44768600  0.32039800  1
  P  P2  1  0.34570700  0.94394200  0.78742900  1
  P  P3  1  0.68499800  0.54468300  0.70391800  1
  O  O0  1  0.28715700  0.08091700  0.29784000  1
  O  O1  1  0.15908600  0.40151900  0.25754700  1
  O  O2  1  0.05859000  0.83874000  0.39752000  1
  O  O3  1  0.27169100  0.84676500  0.00060300  1
  O  O4  1  0.27835200  0.59723600  0.34354300  1
  O  O5  1  0.29453600  0.09853600  0.78847000  1
  O  O6  1  0.38519300  0.34852700  0.52925200  1
  O  O7  1  0.20422400  0.32691800  0.92187000  1
  O  O8  1  0.77032400  0.09680700  0.28442800  1
  O  O9  1  0.17800400  0.91090000  0.66992300  1
  O  O10  1  0.65717700  0.43523900  0.16557900  1
  O  O11  1  0.38596400  0.58206100  0.82897900  1
  O  O12  1  0.84045600  0.15687500  0.58197100  1
  O  O13  1  0.64546600  0.13996300  0.96647500  1
  O  O14  1  0.91843800  0.57649300  0.76496400  1
  O  O15  1  0.67177100  0.89563100  0.20113800  1
  O  O16  1  0.69001700  0.64612500  0.49172800  1
  O  O17  1  0.92452200  0.65470500  0.09461900  1
  O  O18  1  0.65584100  0.91346800  0.67560200  1
  O  O19  1  0.72109900  0.38996900  0.70958900  1
loop_
_geom_bond_atom_site_label_1
_geom_bond_atom_site_label_2
_geom_bond_distance
_geom_bond_site_symmetry_2
Mg0 O2 1.978569 1_555
Mg0 O16 2.102489 1_555
Mg0 O11 2.133317 1_555
Mg0 O14 2.142864 1_455
Mg0 O4 2.190485 1_555
Mg0 O9 2.476910 1_555
O0 P0 1.546474 1_555
O0 V3 1.881587 1_455
O1 P1 1.542857 1_555
O1 V0 1.946490 1_555
O2 V1 1.745279 1_455
O2 V3 2.138195 1_465
O3 P2 1.520550 1_554
O3 V1 1.966021 1_455
O4 P1 1.560124 1_555
O4 V1 2.135812 1_455
O5 P2 1.553601 1_545
O5 V2 1.923246 1_555
O6 P1 1.555234 1_555
O6 V2 1.878454 1_555
O7 V2 1.656143 1_555
O7 V0 2.147366 1_556
O8 P0 1.547850 1_555
O8 V3 1.919201 1_555
O9 P2 1.570096 1_555
O9 V3 2.006539 1_465
O10 P1 1.535835 1_555
O10 V0 1.922817 1_655
O11 P3 1.555327 1_555
O11 V0 2.096289 1_556
O12 V3 1.639500 1_555
O12 V2 2.245717 1_555
O13 P0 1.541960 1_556
O13 V2 1.920008 1_555
O14 P3 1.550540 1_555
O14 V0 2.075143 1_656
O15 P0 1.538878 1_565
O15 V1 1.957007 1_555
O16 P3 1.562025 1_555
O16 V1 2.094693 1_555
O17 V0 1.701020 1_655
O17 V1 1.938344 1_555
O18 P2 1.556248 1_555
O18 V3 1.920695 1_565
O19 P3 1.544818 1_555
O19 V2 1.937693 1_555
