# generated using pymatgen
data_SmAlPd
_symmetry_space_group_name_H-M   'P 1'
_cell_length_a   4.50684437
_cell_length_b   7.04037784
_cell_length_c   7.78135825
_cell_angle_alpha   89.99959413
_cell_angle_beta   90.00000000
_cell_angle_gamma   90.00000000
_symmetry_Int_Tables_number   1
_chemical_formula_structural   SmAlPd
_chemical_formula_sum   'Sm4 Al4 Pd4'
_cell_volume   246.90161977
_cell_formula_units_Z   4
loop_
 _symmetry_equiv_pos_site_id
 _symmetry_equiv_pos_as_xyz
  1  'x, y, z'
loop_
 _atom_site_type_symbol
 _atom_site_label
 _atom_site_symmetry_multiplicity
 _atom_site_fract_x
 _atom_site_fract_y
 _atom_site_fract_z
 _atom_site_occupancy
  Sm  Sm0  1  0.25000000  0.03652187  0.32211063  1
  Sm  Sm1  1  0.25000000  0.53652828  0.17793457  1
  Sm  Sm2  1  0.75000000  0.96347813  0.67788937  1
  Sm  Sm3  1  0.75000000  0.46347172  0.82206543  1
  Al  Al0  1  0.25000000  0.14069185  0.93655316  1
  Al  Al1  1  0.25000000  0.64069526  0.56344804  1
  Al  Al2  1  0.75000000  0.85930815  0.06344684  1
  Al  Al3  1  0.75000000  0.35930474  0.43655196  1
  Pd  Pd0  1  0.25000000  0.27807404  0.61823797  1
  Pd  Pd1  1  0.25000000  0.77811744  0.88171875  1
  Pd  Pd2  1  0.75000000  0.72192596  0.38176203  1
  Pd  Pd3  1  0.75000000  0.22188256  0.11828125  1
loop_
_geom_bond_atom_site_label_1
_geom_bond_atom_site_label_2
_geom_bond_distance
_geom_bond_site_symmetry_2
Sm0 Sm2 3.606469 1_445
Sm0 Sm2 3.606469 1_545
Sm0 Sm1 3.694604 1_545
Sm0 Sm1 3.694674 1_555
Sm1 Sm3 3.607028 1_454
Sm1 Sm3 3.607028 1_554
Sm2 Sm3 3.694604 1_565
Sm2 Sm3 3.694674 1_555
Al0 Pd1 2.588079 1_545
Al0 Pd0 2.659068 1_555
Al0 Pd3 2.721088 1_456
Al0 Pd3 2.721088 1_556
Al0 Sm0 3.088495 1_556
Al0 Sm2 3.268909 1_445
Al0 Sm2 3.268909 1_545
Al0 Sm3 3.322010 1_455
Al0 Sm3 3.322010 1_555
Al0 Sm1 3.360723 1_556
Al1 Pd0 2.588341 1_555
Al1 Pd1 2.658860 1_555
Al1 Pd2 2.720973 1_455
Al1 Pd2 2.720973 1_555
Al1 Sm1 3.088168 1_555
Al1 Sm3 3.268702 1_555
Al1 Sm3 3.268702 1_455
Al1 Sm2 3.321937 1_555
Al1 Sm2 3.321937 1_455
Al1 Sm0 3.360452 1_565
Al2 Pd3 2.588079 1_565
Al2 Pd2 2.659068 1_555
Al2 Pd1 2.721088 1_654
Al2 Pd1 2.721088 1_554
Al2 Sm2 3.088495 1_554
Al2 Sm0 3.268909 1_565
Al2 Sm0 3.268909 1_665
Al2 Sm1 3.322010 1_655
Al2 Sm1 3.322010 1_555
Al2 Sm3 3.360723 1_554
Al3 Pd2 2.588341 1_555
Al3 Pd3 2.658860 1_555
Al3 Pd0 2.720973 1_555
Al3 Pd0 2.720973 1_655
Al3 Sm3 3.088168 1_555
Al3 Sm1 3.268702 1_655
Al3 Sm1 3.268702 1_555
Al3 Sm0 3.321937 1_555
Al3 Sm0 3.321937 1_655
Al3 Sm2 3.360452 1_545
Pd0 Sm0 2.863884 1_555
Pd0 Sm3 3.049137 1_555
Pd0 Sm3 3.049137 1_455
Pd0 Sm2 3.193590 1_445
Pd0 Sm2 3.193590 1_545
Pd1 Sm1 2.864573 1_556
Pd1 Sm2 3.049024 1_555
Pd1 Sm2 3.049024 1_455
Pd1 Sm3 3.193840 1_455
Pd1 Sm3 3.193840 1_555
Pd2 Sm2 2.863884 1_555
Pd2 Sm1 3.049137 1_655
Pd2 Sm1 3.049137 1_555
Pd2 Sm0 3.193590 1_565
Pd2 Sm0 3.193590 1_665
Pd3 Sm3 2.864573 1_554
Pd3 Sm0 3.049024 1_655
Pd3 Sm0 3.049024 1_555
Pd3 Sm1 3.193840 1_655
Pd3 Sm1 3.193840 1_555
