# generated using pymatgen
data_SrLaPt2
_symmetry_space_group_name_H-M   'P 1'
_cell_length_a   12.14407787
_cell_length_b   12.14407787
_cell_length_c   12.14407787
_cell_angle_alpha   125.25285930
_cell_angle_beta   118.33386130
_cell_angle_gamma   87.03106967
_symmetry_Int_Tables_number   1
_chemical_formula_structural   SrLaPt2
_chemical_formula_sum   'Sr1 La1 Pt2'
_cell_volume   1224.30690317
_cell_formula_units_Z   1
loop_
 _symmetry_equiv_pos_site_id
 _symmetry_equiv_pos_as_xyz
  1  'x, y, z'
loop_
 _atom_site_type_symbol
 _atom_site_label
 _atom_site_symmetry_multiplicity
 _atom_site_fract_x
 _atom_site_fract_y
 _atom_site_fract_z
 _atom_site_occupancy
  Sr  Sr0  1  0.00000000  0.00000000  0.00000000  1
  La  La0  1  0.00000000  0.50000000  0.50000000  1
  Pt  Pt0  1  0.00000000  0.28120800  0.28120800  1
  Pt  Pt1  1  0.00000000  0.71879200  0.71879200  1
loop_
_geom_bond_atom_site_label_1
_geom_bond_atom_site_label_2
_geom_bond_distance
_geom_bond_site_symmetry_2
La0 Pt0 2.443350 1_555
La0 Pt1 2.443350 1_555
Pt0 Sr0 3.140378 1_555
Pt1 Sr0 3.140378 1_566
