# generated using pymatgen
data_Fe5(OF4)2
_symmetry_space_group_name_H-M   'P 1'
_cell_length_a   4.82144700
_cell_length_b   8.03304108
_cell_length_c   10.13756434
_cell_angle_alpha   108.84940940
_cell_angle_beta   90.18104534
_cell_angle_gamma   90.13735096
_symmetry_Int_Tables_number   1
_chemical_formula_structural   Fe5(OF4)2
_chemical_formula_sum   'Fe10 O4 F16'
_cell_volume   371.57580861
_cell_formula_units_Z   2
loop_
 _symmetry_equiv_pos_site_id
 _symmetry_equiv_pos_as_xyz
  1  'x, y, z'
loop_
 _atom_site_type_symbol
 _atom_site_label
 _atom_site_symmetry_multiplicity
 _atom_site_fract_x
 _atom_site_fract_y
 _atom_site_fract_z
 _atom_site_occupancy
  Fe  Fe0  1  0.48445100  0.70653100  0.10693600  1
  Fe  Fe1  1  0.51532300  0.89681900  0.70236300  1
  Fe  Fe2  1  0.48598500  0.08809800  0.29732800  1
  Fe  Fe3  1  0.51344600  0.29909100  0.91014600  1
  Fe  Fe4  1  0.51962700  0.49827000  0.50423500  1
  Fe  Fe5  1  0.98621700  0.38783400  0.19141700  1
  Fe  Fe6  1  0.03173700  0.80136000  0.39274000  1
  Fe  Fe7  1  0.98810200  0.22130700  0.60581400  1
  Fe  Fe8  1  0.96890300  0.61394800  0.79336800  1
  Fe  Fe9  1  0.96762900  0.00788600  0.98577400  1
  O  O0  1  0.80456100  0.22487300  0.01437500  1
  O  O1  1  0.81441100  0.43892200  0.62733200  1
  O  O2  1  0.80608100  0.83598900  0.82055900  1
  O  O3  1  0.29892600  0.85695700  0.28833200  1
  F  F0  1  0.81612600  0.04574000  0.43035900  1
  F  F1  1  0.80560700  0.64631800  0.23024000  1
  F  F2  1  0.72335100  0.93554500  0.12063400  1
  F  F3  1  0.69808900  0.33060700  0.32055200  1
  F  F4  1  0.70890800  0.54739400  0.92377000  1
  F  F5  1  0.70227000  0.14279300  0.71083000  1
  F  F6  1  0.71325100  0.74575800  0.51023300  1
  F  F7  1  0.29230100  0.25524100  0.48618200  1
  F  F8  1  0.29286600  0.65764800  0.68033200  1
  F  F9  1  0.28942400  0.05719000  0.87539600  1
  F  F10  1  0.29476800  0.46363600  0.08456000  1
  F  F11  1  0.19509200  0.56448900  0.38830100  1
  F  F12  1  0.18847000  0.97010700  0.58322800  1
  F  F13  1  0.20260900  0.14062300  0.16518100  1
  F  F14  1  0.19382600  0.75624300  0.96896100  1
  F  F15  1  0.19764200  0.36278300  0.78052100  1
loop_
_geom_bond_atom_site_label_1
_geom_bond_atom_site_label_2
_geom_bond_distance
_geom_bond_site_symmetry_2
Fe0 O3 2.054664 1_555
Fe1 O2 2.002689 1_555
Fe2 O3 2.037485 1_545
Fe3 O0 1.960533 1_556
Fe4 O1 2.044765 1_555
Fe5 O0 2.041667 1_555
Fe6 O3 1.814009 1_555
Fe7 O1 1.888532 1_555
Fe8 O2 1.887885 1_555
Fe8 O1 1.955168 1_555
Fe9 O0 1.849848 1_556
Fe9 O2 1.952135 1_545
F0 Fe7 2.050474 1_555
F0 Fe6 2.146734 1_645
F0 Fe2 2.180313 1_555
F1 Fe6 2.027323 1_655
F1 Fe0 2.139197 1_555
F1 Fe5 2.169669 1_555
F2 Fe9 2.028351 1_564
F2 Fe0 2.134058 1_555
F2 Fe2 2.149737 1_565
F3 Fe5 2.062103 1_555
F3 Fe4 2.101641 1_555
F3 Fe2 2.142158 1_555
F4 Fe8 2.017112 1_555
F4 Fe3 2.167466 1_555
F4 Fe0 2.176879 1_556
F5 Fe7 1.967073 1_555
F5 Fe1 2.146030 1_545
F5 Fe3 2.205858 1_555
F6 Fe6 2.080430 1_655
F6 Fe1 2.160311 1_555
F6 Fe4 2.177225 1_555
F7 Fe7 1.979704 1_455
F7 Fe2 2.167140 1_555
F7 Fe4 2.191741 1_555
F8 Fe8 2.035855 1_455
F8 Fe4 2.136258 1_555
F8 Fe1 2.145436 1_555
F9 Fe9 2.027447 1_455
F9 Fe1 2.116953 1_545
F9 Fe3 2.147549 1_555
F10 Fe5 2.046818 1_455
F10 Fe0 2.097407 1_555
F10 Fe3 2.119761 1_554
F11 Fe6 2.048184 1_555
F11 Fe4 2.123435 1_555
F11 Fe5 2.271997 1_455
F12 Fe6 2.105249 1_555
F12 Fe1 2.177284 1_555
F12 Fe7 2.183992 1_465
F13 Fe2 2.048378 1_555
F13 Fe9 2.111031 1_454
F13 Fe5 2.184785 1_455
F14 Fe8 2.078079 1_455
F14 Fe0 2.104898 1_556
F14 Fe9 2.256958 1_465
F15 Fe7 2.032646 1_455
F15 Fe3 2.175437 1_555
F15 Fe8 2.268439 1_455
