# generated using pymatgen
data_Ga6CuSb7(TeCl3)8
_symmetry_space_group_name_H-M   'P 1'
_cell_length_a   11.95710100
_cell_length_b   12.35704730
_cell_length_c   12.74825746
_cell_angle_alpha   112.41564415
_cell_angle_beta   111.69998134
_cell_angle_gamma   99.87049443
_symmetry_Int_Tables_number   1
_chemical_formula_structural   Ga6CuSb7(TeCl3)8
_chemical_formula_sum   'Ga6 Cu1 Sb7 Te8 Cl24'
_cell_volume   1507.07388997
_cell_formula_units_Z   1
loop_
 _symmetry_equiv_pos_site_id
 _symmetry_equiv_pos_as_xyz
  1  'x, y, z'
loop_
 _atom_site_type_symbol
 _atom_site_label
 _atom_site_symmetry_multiplicity
 _atom_site_fract_x
 _atom_site_fract_y
 _atom_site_fract_z
 _atom_site_occupancy
  Ga  Ga0  1  0.02400100  0.71628700  0.30109600  1
  Ga  Ga1  1  0.97599900  0.28371300  0.69890400  1
  Ga  Ga2  1  0.08051300  0.78591800  0.88931700  1
  Ga  Ga3  1  0.91948700  0.21408200  0.11068300  1
  Ga  Ga4  1  0.38484600  0.16958400  0.74390000  1
  Ga  Ga5  1  0.61515400  0.83041600  0.25610000  1
  Cu  Cu0  1  0.00000000  0.00000000  0.50000000  1
  Sb  Sb0  1  0.50000000  0.50000000  0.50000000  1
  Sb  Sb1  1  0.70578600  0.79983800  0.86300800  1
  Sb  Sb2  1  0.29421400  0.20016200  0.13699200  1
  Sb  Sb3  1  0.64268700  0.46167700  0.24453700  1
  Sb  Sb4  1  0.35731300  0.53832300  0.75546300  1
  Sb  Sb5  1  0.64609800  0.22635500  0.40329100  1
  Sb  Sb6  1  0.35390200  0.77364500  0.59670900  1
  Te  Te0  1  0.75594400  0.49431400  0.50457300  1
  Te  Te1  1  0.24405600  0.50568600  0.49542700  1
  Te  Te2  1  0.60618400  0.78527500  0.61259500  1
  Te  Te3  1  0.39381600  0.21472500  0.38740500  1
  Te  Te4  1  0.39618400  0.46916500  0.22740800  1
  Te  Te5  1  0.60381600  0.53083500  0.77259200  1
  Te  Te6  1  0.46363200  0.81041100  0.86224600  1
  Te  Te7  1  0.53636800  0.18958900  0.13775400  1
  Cl  Cl0  1  0.05738200  0.92242700  0.35435800  1
  Cl  Cl1  1  0.94261800  0.07757300  0.64564200  1
  Cl  Cl2  1  0.19855000  0.68818700  0.29124400  1
  Cl  Cl3  1  0.80145000  0.31181300  0.70875600  1
  Cl  Cl4  1  0.84296300  0.59574300  0.12464400  1
  Cl  Cl5  1  0.15703700  0.40425700  0.87535600  1
  Cl  Cl6  1  0.02798800  0.70401000  0.46956000  1
  Cl  Cl7  1  0.97201200  0.29599000  0.53044000  1
  Cl  Cl8  1  0.27015700  0.91611600  0.06278700  1
  Cl  Cl9  1  0.72984300  0.08388400  0.93721300  1
  Cl  Cl10  1  0.12263300  0.65942100  0.74264100  1
  Cl  Cl11  1  0.87736700  0.34057900  0.25735900  1
  Cl  Cl12  1  0.95878000  0.67773600  0.93500500  1
  Cl  Cl13  1  0.04122000  0.32226400  0.06499500  1
  Cl  Cl14  1  0.97583900  0.89200400  0.81434700  1
  Cl  Cl15  1  0.02416100  0.10799600  0.18565300  1
  Cl  Cl16  1  0.52324800  0.34245100  0.92765900  1
  Cl  Cl17  1  0.47675200  0.65754900  0.07234100  1
  Cl  Cl18  1  0.25960500  0.23379500  0.62036600  1
  Cl  Cl19  1  0.74039500  0.76620500  0.37963400  1
  Cl  Cl20  1  0.27327000  0.04096900  0.78061300  1
  Cl  Cl21  1  0.72673000  0.95903100  0.21938700  1
  Cl  Cl22  1  0.48104100  0.07347500  0.64185700  1
  Cl  Cl23  1  0.51895900  0.92652500  0.35814300  1
loop_
_geom_bond_atom_site_label_1
_geom_bond_atom_site_label_2
_geom_bond_distance
_geom_bond_site_symmetry_2
Sb0 Te0 3.052700 1_555
Sb0 Te1 3.052700 1_555
Sb0 Te2 3.059079 1_555
Sb0 Te3 3.059079 1_555
Sb0 Te4 3.065986 1_555
Sb0 Te5 3.065986 1_555
Sb1 Te2 2.884204 1_555
Sb1 Te6 2.917313 1_555
Sb1 Te5 2.917853 1_555
Sb2 Te3 2.884204 1_555
Sb2 Te7 2.917313 1_555
Sb2 Te4 2.917853 1_555
Sb3 Te4 2.894258 1_555
Sb3 Te0 2.908472 1_555
Sb3 Te7 2.921972 1_555
Sb4 Te5 2.894258 1_555
Sb4 Te1 2.908472 1_555
Sb4 Te6 2.921972 1_555
Sb5 Te0 2.889724 1_555
Sb5 Te3 2.922109 1_555
Sb5 Te7 2.953865 1_555
Sb6 Te1 2.889724 1_555
Sb6 Te2 2.922109 1_555
Sb6 Te6 2.953865 1_555
Cl0 Cu0 2.155713 1_565
Cl0 Ga0 2.289309 1_555
Cl1 Cu0 2.155713 1_655
Cl1 Ga1 2.289309 1_555
Cl2 Ga0 2.213906 1_555
Cl3 Ga1 2.213906 1_555
Cl4 Ga0 2.168637 1_655
Cl5 Ga1 2.168637 1_455
Cl6 Ga0 2.193813 1_555
Cl7 Ga1 2.193813 1_555
Cl8 Ga2 2.224498 1_554
Cl8 Sb2 3.196540 1_565
Cl9 Ga3 2.224498 1_556
Cl9 Sb1 3.196540 1_545
Cl10 Ga2 2.220500 1_555
Cl11 Ga3 2.220500 1_555
Cl12 Ga2 2.190576 1_655
Cl13 Ga3 2.190576 1_455
Cl14 Ga2 2.198148 1_655
Cl15 Ga3 2.198148 1_455
Cl16 Ga4 2.212315 1_555
Cl17 Ga5 2.212315 1_555
Cl18 Ga4 2.229044 1_555
Cl19 Ga5 2.229044 1_555
Cl20 Ga4 2.197022 1_555
Cl21 Ga5 2.197022 1_555
Cl22 Ga4 2.195969 1_555
Cl23 Ga5 2.195969 1_555
