# generated using pymatgen
data_K7Na17(ZnSn2)4
_symmetry_space_group_name_H-M   'P 1'
_cell_length_a   9.99014900
_cell_length_b   11.40785194
_cell_length_c   11.61100008
_cell_angle_alpha   119.35593130
_cell_angle_beta   89.89258824
_cell_angle_gamma   90.25607734
_symmetry_Int_Tables_number   1
_chemical_formula_structural   K7Na17(ZnSn2)4
_chemical_formula_sum   'K7 Na17 Zn4 Sn8'
_cell_volume   1153.33083847
_cell_formula_units_Z   1
loop_
 _symmetry_equiv_pos_site_id
 _symmetry_equiv_pos_as_xyz
  1  'x, y, z'
loop_
 _atom_site_type_symbol
 _atom_site_label
 _atom_site_symmetry_multiplicity
 _atom_site_fract_x
 _atom_site_fract_y
 _atom_site_fract_z
 _atom_site_occupancy
  K  K0  1  0.96822800  0.68370100  0.64346800  1
  K  K1  1  0.46460300  0.81559500  0.35443100  1
  K  K2  1  0.03268300  0.31732200  0.35497800  1
  K  K3  1  0.53284600  0.18360400  0.64499700  1
  K  K4  1  0.60772800  0.79666000  0.67694300  1
  K  K5  1  0.89243700  0.29677400  0.67681200  1
  K  K6  1  0.39251000  0.20327900  0.32337700  1
  Na  Na0  1  0.15892200  0.07592400  0.00980400  1
  Na  Na1  1  0.65957900  0.42420500  0.99025700  1
  Na  Na2  1  0.84023400  0.92390200  0.99033500  1
  Na  Na3  1  0.33929600  0.57647600  0.01104700  1
  Na  Na4  1  0.67736100  0.42723700  0.50724300  1
  Na  Na5  1  0.17635200  0.06984800  0.49145900  1
  Na  Na6  1  0.32047200  0.57381800  0.49117600  1
  Na  Na7  1  0.82553800  0.92541100  0.50547200  1
  Na  Na8  1  0.78013000  0.73825100  0.16864400  1
  Na  Na9  1  0.27801700  0.76115800  0.83220000  1
  Na  Na10  1  0.22191800  0.26167800  0.83188800  1
  Na  Na11  1  0.72242900  0.23828800  0.16792300  1
  Na  Na12  1  0.97638300  0.38110600  0.07753500  1
  Na  Na13  1  0.47571700  0.12215400  0.92457800  1
  Na  Na14  1  0.02452700  0.62219000  0.92544900  1
  Na  Na15  1  0.52498600  0.87775500  0.07544500  1
  Na  Na16  1  0.10858100  0.70268500  0.32014900  1
  Zn  Zn0  1  0.53627000  0.48785000  0.25631800  1
  Zn  Zn1  1  0.03458600  0.01285800  0.74366300  1
  Zn  Zn2  1  0.46504400  0.51249900  0.74330900  1
  Zn  Zn3  1  0.96462100  0.98773400  0.25735300  1
  Sn  Sn0  1  0.30494300  0.38799400  0.14919300  1
  Sn  Sn1  1  0.80695500  0.11489400  0.85297900  1
  Sn  Sn2  1  0.69325200  0.61466200  0.85275500  1
  Sn  Sn3  1  0.19231900  0.88305200  0.15020400  1
  Sn  Sn4  1  0.77939500  0.57763700  0.33914700  1
  Sn  Sn5  1  0.27518500  0.92158300  0.65939000  1
  Sn  Sn6  1  0.22316100  0.42300100  0.66136100  1
  Sn  Sn7  1  0.72279500  0.07721500  0.33871600  1
loop_
_geom_bond_atom_site_label_1
_geom_bond_atom_site_label_2
_geom_bond_distance
_geom_bond_site_symmetry_2
K0 Zn1 3.404451 1_665
K0 Sn4 3.649785 1_555
K0 Sn2 3.987950 1_555
K0 Sn6 4.006217 1_655
K0 Na16 4.108593 1_655
K1 Zn0 3.410904 1_555
K1 Sn5 3.657633 1_555
K1 Na16 3.732213 1_555
K1 Sn3 3.930199 1_555
K1 Sn7 4.007145 1_565
K2 Zn3 3.418384 1_445
K2 Sn6 3.678256 1_555
K2 Sn0 3.949908 1_555
K2 Sn4 3.982396 1_455
K2 Sn7 4.067161 1_455
K3 Zn2 3.414646 1_555
K3 Sn7 3.672086 1_555
K3 Sn1 3.980538 1_555
K3 Sn6 4.078069 1_555
K4 Sn2 3.658638 1_555
K4 Sn5 3.665896 1_555
K4 Sn1 3.740847 1_565
K4 Sn4 3.869368 1_555
K5 Sn6 3.637384 1_655
K5 Sn1 3.654734 1_555
K5 Sn2 3.750941 1_555
K5 Sn7 3.860416 1_555
K6 Sn7 3.644584 1_555
K6 Sn0 3.673890 1_555
K6 Sn3 3.759758 1_545
K6 Sn6 3.861872 1_555
Na0 Zn1 3.071845 1_554
Na0 Sn3 3.336960 1_545
Na0 Sn0 3.425574 1_555
Na1 Zn0 3.063108 1_556
Na1 Sn2 3.282566 1_555
Na1 Sn1 3.417943 1_555
Na2 Zn3 3.078862 1_556
Na2 Sn1 3.288874 1_565
Na2 Sn2 3.404442 1_555
Na2 Sn7 3.723154 1_566
Na3 Zn2 3.089316 1_554
Na3 Sn0 3.269063 1_555
Na3 Sn3 3.390390 1_555
Na3 Sn6 3.731806 1_554
Na4 Zn2 3.215682 1_555
Na4 Sn4 3.324516 1_555
Na4 Sn2 3.504302 1_555
Na4 Sn7 3.511569 1_555
Na5 Zn3 3.201190 1_445
Na5 Sn5 3.300489 1_545
Na5 Sn3 3.462428 1_545
Na5 Sn6 3.540507 1_555
Na6 Zn0 3.228071 1_555
Na6 Sn6 3.334818 1_555
Na6 Sn0 3.468597 1_555
Na6 Sn5 3.489128 1_555
Na7 Zn1 3.209889 1_665
Na7 Sn7 3.333509 1_565
Na7 Sn4 3.486664 1_555
Na7 Sn1 3.526573 1_565
Na8 Zn3 3.105482 1_555
Na8 Sn4 3.291323 1_555
Na8 Sn2 3.335353 1_554
Na8 Sn7 3.421827 1_565
Na9 Zn2 3.126103 1_555
Na9 Sn5 3.313180 1_555
Na9 Sn3 3.356292 1_556
Na9 Sn6 3.405737 1_555
Na10 Zn1 3.117316 1_555
Na10 Sn6 3.298453 1_555
Na10 Sn0 3.336687 1_556
Na10 Sn5 3.426770 1_545
Na11 Zn0 3.129307 1_555
Na11 Sn7 3.298760 1_555
Na11 Sn1 3.319473 1_554
Na11 Sn4 3.420731 1_555
Na12 Sn1 3.330605 1_554
Na12 Sn0 3.378783 1_655
Na12 Sn4 3.386151 1_555
Na12 Na16 3.602222 1_655
Na13 Sn0 3.344282 1_556
Na13 Sn1 3.401891 1_555
Na13 Sn5 3.435709 1_545
Na14 Sn3 3.291420 1_556
Na14 Sn2 3.407251 1_455
Na14 Sn6 3.418989 1_555
Na15 Sn2 3.307465 1_554
Na15 Sn7 3.404357 1_565
Na15 Sn3 3.426604 1_555
Na16 Sn3 3.575811 1_555
Na16 Sn4 3.628018 1_455
Na16 Na6 3.673059 1_555
Na16 Sn0 3.706433 1_555
Na16 Na7 3.709774 1_455
Na16 Na5 3.710767 1_565
Na16 Na8 3.841775 1_455
Na16 Sn5 3.855464 1_555
Na16 Na3 3.898521 1_555
Sn0 Zn0 2.604507 1_555
Sn1 Zn1 2.588745 1_655
Sn2 Zn2 2.589557 1_555
Sn3 Zn3 2.589463 1_455
Sn4 Zn0 2.625659 1_555
Sn5 Zn1 2.614123 1_565
Sn6 Zn2 2.611714 1_555
Sn7 Zn3 2.615133 1_545
