# generated using pymatgen
data_Li4CaB10(HO5)4
_symmetry_space_group_name_H-M   'P 1'
_cell_length_a   8.39744700
_cell_length_b   8.87785800
_cell_length_c   9.54618300
_cell_angle_alpha   90.00000000
_cell_angle_beta   90.00000000
_cell_angle_gamma   90.00000000
_symmetry_Int_Tables_number   1
_chemical_formula_structural   Li4CaB10(HO5)4
_chemical_formula_sum   'Li8 Ca2 B20 H8 O40'
_cell_volume   711.68075390
_cell_formula_units_Z   2
loop_
 _symmetry_equiv_pos_site_id
 _symmetry_equiv_pos_as_xyz
  1  'x, y, z'
loop_
 _atom_site_type_symbol
 _atom_site_label
 _atom_site_symmetry_multiplicity
 _atom_site_fract_x
 _atom_site_fract_y
 _atom_site_fract_z
 _atom_site_occupancy
  Li  Li0  1  0.17705100  0.44236800  0.78947800  1
  Li  Li1  1  0.82294900  0.55763200  0.78947800  1
  Li  Li2  1  0.82294900  0.94236800  0.28947800  1
  Li  Li3  1  0.17705100  0.05763200  0.28947800  1
  Li  Li4  1  0.32402400  0.95167300  0.98796400  1
  Li  Li5  1  0.67597600  0.04832700  0.98796400  1
  Li  Li6  1  0.67597600  0.45167300  0.48796400  1
  Li  Li7  1  0.32402400  0.54832700  0.48796400  1
  Ca  Ca0  1  0.00000000  0.50000000  0.16665300  1
  Ca  Ca1  1  0.00000000  0.00000000  0.66665300  1
  B  B0  1  0.43058700  0.26095100  0.88913700  1
  B  B1  1  0.56941300  0.73904900  0.88913700  1
  B  B2  1  0.56941300  0.76095100  0.38913700  1
  B  B3  1  0.43058700  0.23904900  0.38913700  1
  B  B4  1  0.07143600  0.74888400  0.89979400  1
  B  B5  1  0.92856400  0.25111600  0.89979400  1
  B  B6  1  0.92856400  0.24888400  0.39979400  1
  B  B7  1  0.07143600  0.75111600  0.39979400  1
  B  B8  1  0.50000000  0.50000000  0.76404100  1
  B  B9  1  0.50000000  0.00000000  0.26404100  1
  B  B10  1  0.31713000  0.72334400  0.74849900  1
  B  B11  1  0.68287000  0.27665600  0.74849900  1
  B  B12  1  0.68287000  0.22334400  0.24849900  1
  B  B13  1  0.31713000  0.77665600  0.24849900  1
  B  B14  1  0.18046300  0.27516900  0.54132600  1
  B  B15  1  0.81953700  0.72483100  0.54132600  1
  B  B16  1  0.81953700  0.77516900  0.04132600  1
  B  B17  1  0.18046300  0.22483100  0.04132600  1
  B  B18  1  0.00000000  0.50000000  0.51056400  1
  B  B19  1  0.00000000  0.00000000  0.01056400  1
  H  H0  1  0.31766100  0.12500200  0.65626100  1
  H  H1  1  0.68233900  0.87499800  0.65626100  1
  H  H2  1  0.68233900  0.62500200  0.15626100  1
  H  H3  1  0.31766100  0.37499800  0.15626100  1
  H  H4  1  0.32307900  0.86128100  0.57387500  1
  H  H5  1  0.67692100  0.13871900  0.57387500  1
  H  H6  1  0.67692100  0.36128100  0.07387500  1
  H  H7  1  0.32307900  0.63871900  0.07387500  1
  O  O0  1  0.10212700  0.40778300  0.59625000  1
  O  O1  1  0.89787300  0.59221700  0.59625000  1
  O  O2  1  0.89787300  0.90778300  0.09625000  1
  O  O3  1  0.10212700  0.09221700  0.09625000  1
  O  O4  1  0.39466100  0.40778700  0.85867400  1
  O  O5  1  0.60533900  0.59221300  0.85867400  1
  O  O6  1  0.60533900  0.90778700  0.35867400  1
  O  O7  1  0.39466100  0.09221300  0.35867400  1
  O  O8  1  0.17740900  0.66160600  0.82831900  1
  O  O9  1  0.82259100  0.33839400  0.82831900  1
  O  O10  1  0.82259100  0.16160600  0.32831900  1
  O  O11  1  0.17740900  0.83839400  0.32831900  1
  O  O12  1  0.32480800  0.17606000  0.96607300  1
  O  O13  1  0.67519200  0.82394000  0.96607300  1
  O  O14  1  0.67519200  0.67606000  0.46607300  1
  O  O15  1  0.32480800  0.32394000  0.46607300  1
  O  O16  1  0.39901300  0.59936600  0.67934000  1
  O  O17  1  0.60098700  0.40063400  0.67934000  1
  O  O18  1  0.60098700  0.09936600  0.17934000  1
  O  O19  1  0.39901300  0.90063400  0.17934000  1
  O  O20  1  0.06586700  0.31817400  0.95174500  1
  O  O21  1  0.93413300  0.68182600  0.95174500  1
  O  O22  1  0.93413300  0.81817400  0.45174500  1
  O  O23  1  0.06586700  0.18182600  0.45174500  1
  O  O24  1  0.42772400  0.80526100  0.84784500  1
  O  O25  1  0.57227600  0.19473900  0.84784500  1
  O  O26  1  0.57227600  0.30526100  0.34784500  1
  O  O27  1  0.42772400  0.69473900  0.34784500  1
  O  O28  1  0.21527000  0.17506300  0.66243600  1
  O  O29  1  0.78473000  0.82493700  0.66243600  1
  O  O30  1  0.78473000  0.67506300  0.16243600  1
  O  O31  1  0.21527000  0.32493700  0.16243600  1
  O  O32  1  0.24766500  0.83297100  0.64646200  1
  O  O33  1  0.75233500  0.16702900  0.64646200  1
  O  O34  1  0.75233500  0.33297100  0.14646200  1
  O  O35  1  0.24766500  0.66702900  0.14646200  1
  O  O36  1  0.09702100  0.90266200  0.91099200  1
  O  O37  1  0.90297900  0.09733800  0.91099200  1
  O  O38  1  0.90297900  0.40266200  0.41099200  1
  O  O39  1  0.09702100  0.59733800  0.41099200  1
loop_
_geom_bond_atom_site_label_1
_geom_bond_atom_site_label_2
_geom_bond_distance
_geom_bond_site_symmetry_2
Li0 O4 1.967197 1_555
Li0 O0 1.972978 1_555
Li0 O8 1.981369 1_555
Li0 O20 2.118229 1_555
Li1 O5 1.967197 1_555
Li1 O1 1.972978 1_555
Li1 O9 1.981369 1_555
Li1 O21 2.118229 1_555
Li2 O6 1.967197 1_555
Li2 O2 1.972978 1_555
Li2 O10 1.981369 1_565
Li2 O22 2.118229 1_555
Li3 O7 1.967197 1_555
Li3 O3 1.972978 1_555
Li3 O11 1.981369 1_545
Li3 O23 2.118229 1_555
Li4 O19 1.984807 1_556
Li4 O12 2.003018 1_565
Li4 O24 2.058408 1_555
Li4 O36 2.088782 1_555
Li4 O3 2.469320 1_566
Li5 O18 1.984807 1_556
Li5 O13 2.003018 1_545
Li5 O25 2.058408 1_555
Li5 O37 2.088782 1_555
Li5 O2 2.469320 1_546
Li6 O17 1.984807 1_555
Li6 O14 2.003018 1_555
Li6 O26 2.058408 1_555
Li6 O38 2.088782 1_555
Li6 O1 2.469320 1_555
Li7 O16 1.984807 1_555
Li7 O15 2.003018 1_555
Li7 O27 2.058408 1_555
Li7 O39 2.088782 1_555
Li7 O0 2.469320 1_555
Ca0 O30 2.384315 1_455
Ca0 O31 2.384315 1_555
Ca0 O35 2.561523 1_555
Ca0 O34 2.561523 1_455
Ca0 O38 2.617465 1_455
Ca0 O39 2.617465 1_555
Ca0 O20 2.668431 1_554
Ca0 O21 2.668431 1_454
Ca1 O29 2.384315 1_445
Ca1 O28 2.384315 1_555
Ca1 O33 2.561523 1_455
Ca1 O32 2.561523 1_545
Ca1 O37 2.617465 1_455
Ca1 O36 2.617465 1_545
Ca1 O23 2.668431 1_555
Ca1 O22 2.668431 1_445
B0 O4 1.369280 1_555
B0 O12 1.377109 1_555
B0 O25 1.384412 1_555
B1 O5 1.369280 1_555
B1 O13 1.377109 1_555
B1 O24 1.384412 1_555
B2 O6 1.369280 1_555
B2 O14 1.377109 1_555
B2 O27 1.384412 1_555
B3 O7 1.369280 1_555
B3 O15 1.377109 1_555
B3 O26 1.384412 1_555
B4 O8 1.363033 1_555
B4 O36 1.386150 1_555
B4 O21 1.389160 1_455
B5 O9 1.363033 1_555
B5 O37 1.386150 1_555
B5 O20 1.389160 1_655
B6 O10 1.363033 1_555
B6 O38 1.386150 1_555
B6 O23 1.389160 1_655
B7 O11 1.363033 1_555
B7 O39 1.386150 1_555
B7 O22 1.389160 1_455
B8 O16 1.466680 1_555
B8 O17 1.466680 1_555
B8 O5 1.506246 1_555
B8 O4 1.506246 1_555
B9 O19 1.466680 1_545
B9 O18 1.466680 1_555
B9 O6 1.506246 1_545
B9 O7 1.506246 1_555
B10 O16 1.456065 1_555
B10 O32 1.495424 1_555
B10 O8 1.502550 1_555
B10 O24 1.513539 1_555
B11 O17 1.456065 1_555
B11 O33 1.495424 1_555
B11 O9 1.502550 1_555
B11 O25 1.513539 1_555
B12 O18 1.456065 1_555
B12 O34 1.495424 1_555
B12 O10 1.502550 1_555
B12 O26 1.513539 1_555
B13 O19 1.456065 1_555
B13 O35 1.495424 1_555
B13 O11 1.502550 1_555
B13 O27 1.513539 1_555
B14 O0 1.446975 1_555
B14 O15 1.474042 1_555
B14 O28 1.487254 1_555
B14 O23 1.531033 1_555
B15 O1 1.446975 1_555
B15 O14 1.474042 1_555
B15 O29 1.487254 1_555
B15 O22 1.531033 1_555
B16 O2 1.446975 1_555
B16 O13 1.474042 1_554
B16 O30 1.487254 1_555
B16 O21 1.531033 1_554
B17 O3 1.446975 1_555
B17 O12 1.474042 1_554
B17 O31 1.487254 1_555
B17 O20 1.531033 1_554
B18 O1 1.440424 1_455
B18 O0 1.440424 1_555
B18 O38 1.521202 1_455
B18 O39 1.521202 1_555
B19 O2 1.440424 1_445
B19 O3 1.440424 1_555
B19 O37 1.521202 1_454
B19 O36 1.521202 1_544
H0 O28 0.969687 1_555
H1 O29 0.969687 1_555
H2 O30 0.969687 1_555
H3 O31 0.969687 1_555
H4 O32 0.971786 1_555
H5 O33 0.971786 1_555
H6 O34 0.971786 1_555
H7 O35 0.971786 1_555
