# generated using pymatgen
data_MgV4(CuO4)3
_symmetry_space_group_name_H-M   'P 1'
_cell_length_a   6.37437654
_cell_length_b   6.36864599
_cell_length_c   6.38275451
_cell_angle_alpha   109.00342318
_cell_angle_beta   109.64950649
_cell_angle_gamma   109.73180308
_symmetry_Int_Tables_number   1
_chemical_formula_structural   MgV4(CuO4)3
_chemical_formula_sum   'Mg1 V4 Cu3 O12'
_cell_volume   199.53094910
_cell_formula_units_Z   1
loop_
 _symmetry_equiv_pos_site_id
 _symmetry_equiv_pos_as_xyz
  1  'x, y, z'
loop_
 _atom_site_type_symbol
 _atom_site_label
 _atom_site_symmetry_multiplicity
 _atom_site_fract_x
 _atom_site_fract_y
 _atom_site_fract_z
 _atom_site_occupancy
  Mg  Mg0  1  0.00000700  0.00000500  0.00000700  1
  V  V0  1  0.00000600  0.00000700  0.50000100  1
  V  V1  1  0.00000100  0.50000300  0.00000300  1
  V  V2  1  0.49999000  0.49999400  0.49999200  1
  V  V3  1  0.50000100  0.00000300  0.00000500  1
  Cu  Cu0  1  0.49999300  0.49999600  0.99999600  1
  Cu  Cu1  1  0.00000400  0.49999500  0.49999800  1
  Cu  Cu2  1  0.50000000  0.00001800  0.50000900  1
  O  O0  1  0.82553900  0.30072500  0.12637900  1
  O  O1  1  0.17446600  0.69926900  0.87362200  1
  O  O2  1  0.82186100  0.70138900  0.52355800  1
  O  O3  1  0.29386200  0.47385600  0.17124300  1
  O  O4  1  0.47952200  0.18060600  0.30407400  1
  O  O5  1  0.12441800  0.82574200  0.30468200  1
  O  O6  1  0.69620800  0.87602700  0.17228200  1
  O  O7  1  0.52047700  0.81939700  0.69591900  1
  O  O8  1  0.17814800  0.29860400  0.47644500  1
  O  O9  1  0.70613400  0.52614300  0.82875600  1
  O  O10  1  0.87557900  0.17425900  0.69531600  1
  O  O11  1  0.30378300  0.12396400  0.82771600  1
loop_
_geom_bond_atom_site_label_1
_geom_bond_atom_site_label_2
_geom_bond_distance
_geom_bond_site_symmetry_2
Mg0 O3 2.543317 1_555
Mg0 O9 2.543375 1_444
Mg0 O11 2.558789 1_554
Mg0 O6 2.558849 1_445
Mg0 O0 2.567252 1_455
Mg0 O1 2.567305 1_544
Mg0 O5 2.570020 1_545
Mg0 O10 2.570078 1_454
Mg0 O8 2.570366 1_555
Mg0 O2 2.570438 1_444
Mg0 O4 2.571997 1_555
Mg0 O7 2.572091 1_444
Cu0 O6 1.961160 1_556
Cu0 O11 1.961166 1_555
Cu0 O3 1.971190 1_556
Cu0 O9 1.971208 1_555
Cu1 O0 1.956195 1_455
Cu1 O1 1.956224 1_555
Cu1 O8 1.982374 1_555
Cu1 O2 1.982387 1_455
Cu2 O10 1.953233 1_555
Cu2 O5 1.953242 1_545
Cu2 O4 1.957568 1_555
Cu2 O7 1.957611 1_545
O0 V3 1.951756 1_555
O0 V1 1.953213 1_655
O1 V3 1.951767 1_566
O1 V1 1.953203 1_556
O2 V2 1.940923 1_555
O2 V0 1.942096 1_665
O3 V1 1.919216 1_555
O3 V2 1.981849 1_555
O4 V2 1.942360 1_555
O4 V3 1.981080 1_555
O5 V0 1.942422 1_565
O5 V1 1.984668 1_555
O6 V3 1.924596 1_565
O6 V0 1.979057 1_665
O7 V2 1.942393 1_555
O7 V3 1.981163 1_566
O8 V2 1.940824 1_555
O8 V0 1.941979 1_555
O9 V1 1.919232 1_656
O9 V2 1.981921 1_555
O10 V0 1.942444 1_655
O10 V1 1.984704 1_656
O11 V3 1.924597 1_556
O11 V0 1.979017 1_555
