# generated using pymatgen
data_NaMg6Fe
_symmetry_space_group_name_H-M   'P 1'
_cell_length_a   4.98310900
_cell_length_b   6.54639600
_cell_length_c   10.60872500
_cell_angle_alpha   90.00000000
_cell_angle_beta   90.00000000
_cell_angle_gamma   90.00000000
_symmetry_Int_Tables_number   1
_chemical_formula_structural   NaMg6Fe
_chemical_formula_sum   'Na2 Mg12 Fe2'
_cell_volume   346.07151290
_cell_formula_units_Z   2
loop_
 _symmetry_equiv_pos_site_id
 _symmetry_equiv_pos_as_xyz
  1  'x, y, z'
loop_
 _atom_site_type_symbol
 _atom_site_label
 _atom_site_symmetry_multiplicity
 _atom_site_fract_x
 _atom_site_fract_y
 _atom_site_fract_z
 _atom_site_occupancy
  Na  Na0  1  0.50000000  0.50000000  0.83928600  1
  Na  Na1  1  0.50000000  0.00000000  0.33928600  1
  Mg  Mg0  1  0.50000000  0.25000100  0.08722500  1
  Mg  Mg1  1  0.50000000  0.74999900  0.08722500  1
  Mg  Mg2  1  0.00000000  0.23139900  0.90853700  1
  Mg  Mg3  1  0.00000000  0.76860100  0.90853700  1
  Mg  Mg4  1  0.00000000  0.50000000  0.16722700  1
  Mg  Mg5  1  0.00000000  0.50000000  0.66031400  1
  Mg  Mg6  1  0.50000000  0.75000100  0.58722500  1
  Mg  Mg7  1  0.50000000  0.24999900  0.58722500  1
  Mg  Mg8  1  0.00000000  0.73139900  0.40853700  1
  Mg  Mg9  1  0.00000000  0.26860100  0.40853700  1
  Mg  Mg10  1  0.00000000  0.00000000  0.66722700  1
  Mg  Mg11  1  0.00000000  0.00000000  0.16031400  1
  Fe  Fe0  1  0.50000000  0.50000000  0.34165400  1
  Fe  Fe1  1  0.50000000  0.00000000  0.84165400  1
loop_
_geom_bond_atom_site_label_1
_geom_bond_atom_site_label_2
_geom_bond_distance
_geom_bond_site_symmetry_2
Mg0 Mg11 3.080185 1_655
Mg0 Mg11 3.080185 1_555
Mg0 Na0 3.097903 1_554
Mg0 Mg4 3.099452 1_555
Mg0 Mg4 3.099452 1_655
Mg0 Mg2 3.133077 1_554
Mg0 Mg2 3.133077 1_654
Mg0 Na1 3.135123 1_555
Mg0 Mg1 3.273185 1_555
Mg0 Mg1 3.273211 1_545
Mg1 Mg11 3.080185 1_665
Mg1 Mg11 3.080185 1_565
Mg1 Na0 3.097903 1_554
Mg1 Mg4 3.099452 1_655
Mg1 Mg4 3.099452 1_555
Mg1 Mg3 3.133077 1_654
Mg1 Mg3 3.133077 1_554
Mg1 Na1 3.135123 1_565
Mg2 Na0 3.136788 1_555
Mg2 Na0 3.136788 1_455
Mg2 Mg5 3.166431 1_555
Mg2 Mg4 3.259361 1_556
Mg3 Na0 3.136788 1_555
Mg3 Na0 3.136788 1_455
Mg3 Mg5 3.166431 1_555
Mg3 Mg4 3.259361 1_556
Mg4 Mg8 2.974603 1_555
Mg4 Mg9 2.974603 1_555
Mg5 Mg8 3.070688 1_555
Mg5 Mg9 3.070688 1_555
Mg5 Mg6 3.080185 1_555
Mg5 Mg6 3.080185 1_455
Mg5 Mg7 3.080185 1_455
Mg5 Mg7 3.080185 1_555
Mg5 Na0 3.132534 1_555
Mg5 Na0 3.132534 1_455
Mg6 Na1 3.097903 1_565
Mg6 Mg8 3.133077 1_555
Mg6 Mg8 3.133077 1_655
Mg6 Na0 3.135123 1_555
Mg6 Mg7 3.273185 1_565
Mg6 Mg7 3.273211 1_555
Mg7 Na1 3.097903 1_555
Mg7 Mg9 3.133077 1_655
Mg7 Mg9 3.133077 1_555
Mg7 Na0 3.135123 1_555
Mg8 Na1 3.136788 1_465
Mg8 Na1 3.136788 1_565
Mg9 Na1 3.136788 1_455
Mg9 Na1 3.136788 1_555
Mg10 Mg3 2.974603 1_545
Mg10 Mg2 2.974603 1_555
Mg10 Mg6 3.099452 1_445
Mg10 Mg6 3.099452 1_545
Mg10 Mg7 3.099452 1_455
Mg10 Mg7 3.099452 1_555
Mg10 Mg9 3.259361 1_555
Mg10 Mg8 3.259361 1_545
Mg10 Mg5 3.274019 1_555
Mg10 Mg5 3.274019 1_545
Mg11 Mg3 3.070688 1_544
Mg11 Mg2 3.070688 1_554
Mg11 Na1 3.132534 1_555
Mg11 Na1 3.132534 1_455
Mg11 Mg9 3.166431 1_555
Mg11 Mg8 3.166431 1_545
Mg11 Mg4 3.274019 1_555
Mg11 Mg4 3.274019 1_545
Fe0 Mg9 3.001000 1_555
Fe0 Mg9 3.001000 1_655
Fe0 Mg8 3.001000 1_555
Fe0 Mg8 3.001000 1_655
Fe0 Mg6 3.076608 1_555
Fe0 Mg7 3.076608 1_555
Fe0 Mg4 3.103547 1_655
Fe0 Mg4 3.103547 1_555
Fe0 Mg1 3.156571 1_555
Fe0 Mg0 3.156571 1_555
Fe0 Na1 3.273294 1_555
Fe0 Na1 3.273294 1_565
Fe1 Mg2 3.001000 1_655
Fe1 Mg2 3.001000 1_555
Fe1 Mg3 3.001000 1_645
Fe1 Mg3 3.001000 1_545
Fe1 Mg0 3.076608 1_556
Fe1 Mg1 3.076608 1_546
Fe1 Mg10 3.103547 1_555
Fe1 Mg10 3.103547 1_655
Fe1 Mg6 3.156571 1_545
Fe1 Mg7 3.156571 1_555
Fe1 Na0 3.273294 1_545
Fe1 Na0 3.273294 1_555
