# generated using pymatgen
data_ReBiO5
_symmetry_space_group_name_H-M   'P 1'
_cell_length_a   5.95635577
_cell_length_b   9.23586940
_cell_length_c   12.12681000
_cell_angle_alpha   90.00000000
_cell_angle_beta   90.00000000
_cell_angle_gamma   105.21847480
_symmetry_Int_Tables_number   1
_chemical_formula_structural   ReBiO5
_chemical_formula_sum   'Re4 Bi4 O20'
_cell_volume   643.72689060
_cell_formula_units_Z   4
loop_
 _symmetry_equiv_pos_site_id
 _symmetry_equiv_pos_as_xyz
  1  'x, y, z'
loop_
 _atom_site_type_symbol
 _atom_site_label
 _atom_site_symmetry_multiplicity
 _atom_site_fract_x
 _atom_site_fract_y
 _atom_site_fract_z
 _atom_site_occupancy
  Re  Re0  1  0.77679100  0.94207500  0.64750100  1
  Re  Re1  1  0.22320900  0.05792500  0.35249900  1
  Re  Re2  1  0.72320900  0.55792500  0.14750100  1
  Re  Re3  1  0.27679100  0.44207500  0.85249900  1
  Bi  Bi0  1  0.13658100  0.14193800  0.07131300  1
  Bi  Bi1  1  0.86341900  0.85806200  0.92868700  1
  Bi  Bi2  1  0.63658100  0.64193800  0.42868700  1
  Bi  Bi3  1  0.36341900  0.35806200  0.57131300  1
  O  O0  1  0.56717200  0.38507600  0.09359400  1
  O  O1  1  0.08035400  0.33521000  0.95273400  1
  O  O2  1  0.52983300  0.65873600  0.19066600  1
  O  O3  1  0.69931000  0.51006100  0.56103100  1
  O  O4  1  0.86583900  0.52898100  0.26914200  1
  O  O5  1  0.36583900  0.02898100  0.23085800  1
  O  O6  1  0.58035400  0.83521000  0.54726600  1
  O  O7  1  0.41964600  0.16479000  0.45273400  1
  O  O8  1  0.30069000  0.48993900  0.43896900  1
  O  O9  1  0.93282800  0.11492400  0.59359400  1
  O  O10  1  0.13416100  0.47101900  0.73085800  1
  O  O11  1  0.43282800  0.61492400  0.90640600  1
  O  O12  1  0.06717200  0.88507600  0.40640600  1
  O  O13  1  0.63416100  0.97101900  0.76914200  1
  O  O14  1  0.80069000  0.98993900  0.06103100  1
  O  O15  1  0.19931000  0.01006000  0.93896900  1
  O  O16  1  0.47016700  0.34126400  0.80933400  1
  O  O17  1  0.91964600  0.66479000  0.04726600  1
  O  O18  1  0.97016700  0.84126400  0.69066600  1
  O  O19  1  0.02983300  0.15873600  0.30933400  1
loop_
_geom_bond_atom_site_label_1
_geom_bond_atom_site_label_2
_geom_bond_distance
_geom_bond_site_symmetry_2
Bi0 O15 2.106611 1_554
Bi0 O14 2.124741 1_445
Bi0 O1 2.383311 1_554
Bi0 O5 2.728434 1_555
Bi1 O14 2.106605 1_556
Bi1 O15 2.124737 1_665
Bi1 O17 2.383311 1_556
Bi1 O13 2.728434 1_555
Bi2 O3 2.106605 1_555
Bi2 O8 2.124741 1_555
Bi2 O6 2.383311 1_555
Bi2 O4 2.728434 1_555
Bi3 O8 2.106605 1_555
Bi3 O3 2.124741 1_555
Bi3 O7 2.383311 1_555
Bi3 O10 2.728434 1_555
O0 Re2 1.749494 1_555
O1 Re3 1.792873 1_555
O2 Re2 1.740866 1_555
O4 Re2 1.757386 1_555
O5 Re1 1.757386 1_555
O6 Re0 1.792873 1_555
O7 Re1 1.792873 1_555
O9 Re0 1.749494 1_545
O10 Re3 1.757386 1_555
O11 Re3 1.749494 1_555
O12 Re1 1.749494 1_565
O13 Re0 1.757386 1_555
O16 Re3 1.740866 1_555
O17 Re2 1.792873 1_555
O18 Re0 1.740866 1_555
O19 Re1 1.740866 1_555
