# generated using pymatgen
data_Ca3CoO6
_symmetry_space_group_name_H-M   'P 1'
_cell_length_a   6.34532399
_cell_length_b   9.13322730
_cell_length_c   8.93089424
_cell_angle_alpha   90.06271929
_cell_angle_beta   89.99477568
_cell_angle_gamma   85.72597063
_symmetry_Int_Tables_number   1
_chemical_formula_structural   Ca3CoO6
_chemical_formula_sum   'Ca12 Co4 O24'
_cell_volume   516.13498677
_cell_formula_units_Z   4
loop_
 _symmetry_equiv_pos_site_id
 _symmetry_equiv_pos_as_xyz
  1  'x, y, z'
loop_
 _atom_site_type_symbol
 _atom_site_label
 _atom_site_symmetry_multiplicity
 _atom_site_fract_x
 _atom_site_fract_y
 _atom_site_fract_z
 _atom_site_occupancy
  Ca  Ca0  1  0.09832900  0.56946600  0.82584900  1
  Ca  Ca1  1  0.09779000  0.06948100  0.32649300  1
  Ca  Ca2  1  0.75116600  0.25003600  0.85215200  1
  Ca  Ca3  1  0.74881100  0.74970300  0.35189400  1
  Ca  Ca4  1  0.59871200  0.56904500  0.67426100  1
  Ca  Ca5  1  0.59787700  0.06957900  0.17393500  1
  Ca  Ca6  1  0.90167600  0.43052600  0.17414900  1
  Ca  Ca7  1  0.90221700  0.93052300  0.67351100  1
  Ca  Ca8  1  0.24883500  0.74996300  0.14784300  1
  Ca  Ca9  1  0.25118800  0.25029400  0.64810900  1
  Ca  Ca10  1  0.40128400  0.43095000  0.32574100  1
  Ca  Ca11  1  0.40212000  0.93043100  0.82606100  1
  Co  Co0  1  0.99999900  0.50000100  0.49999600  1
  Co  Co1  1  0.50000200  0.00000000  0.49999600  1
  Co  Co2  1  0.99999800  0.99999800  0.00000400  1
  Co  Co3  1  0.50000200  0.50000300  0.00000200  1
  O  O0  1  0.77640200  0.50064300  0.92710700  1
  O  O1  1  0.77608800  0.00065400  0.42610600  1
  O  O2  1  0.72455600  0.49812800  0.42661300  1
  O  O3  1  0.72377100  0.99940200  0.92637700  1
  O  O4  1  0.57332900  0.60181400  0.16726300  1
  O  O5  1  0.57477000  0.10124300  0.66722400  1
  O  O6  1  0.57355200  0.31894000  0.10144100  1
  O  O7  1  0.57390100  0.81845200  0.60016500  1
  O  O8  1  0.92634200  0.18131300  0.10092200  1
  O  O9  1  0.92425200  0.68071800  0.60179000  1
  O  O10  1  0.42667800  0.39819100  0.83273900  1
  O  O11  1  0.42523100  0.89875800  0.33277300  1
  O  O12  1  0.42644600  0.68106100  0.89856500  1
  O  O13  1  0.42610200  0.18154600  0.39983000  1
  O  O14  1  0.92698200  0.39759200  0.66748400  1
  O  O15  1  0.92528300  0.89866000  0.16685200  1
  O  O16  1  0.07302000  0.60240700  0.33251300  1
  O  O17  1  0.07471000  0.10133700  0.83315300  1
  O  O18  1  0.27544300  0.50186700  0.57338100  1
  O  O19  1  0.27622300  0.00060100  0.07363000  1
  O  O20  1  0.07365600  0.81868700  0.89908500  1
  O  O21  1  0.07574200  0.31928300  0.39820600  1
  O  O22  1  0.22360400  0.49935500  0.07289800  1
  O  O23  1  0.22391300  0.99935000  0.57388800  1
loop_
_geom_bond_atom_site_label_1
_geom_bond_atom_site_label_2
_geom_bond_distance
_geom_bond_site_symmetry_2
Ca0 O20 2.361560 1_555
Ca0 O0 2.361769 1_455
Ca0 O22 2.416097 1_556
Ca0 O14 2.428261 1_455
Ca0 O9 2.468659 1_455
Ca0 O12 2.471925 1_555
Ca0 O10 2.511202 1_555
Ca0 O18 2.573177 1_555
Ca1 O1 2.354926 1_455
Ca1 O21 2.363093 1_555
Ca1 O23 2.420632 1_545
Ca1 O15 2.432062 1_445
Ca1 O8 2.474761 1_455
Ca1 O13 2.476504 1_555
Ca1 O11 2.503728 1_545
Ca1 O19 2.582212 1_555
Ca2 O17 2.381565 1_655
Ca2 O10 2.384479 1_555
Ca2 O0 2.400811 1_555
Ca2 O3 2.402546 1_545
Ca2 O14 2.451414 1_555
Ca2 O5 2.459557 1_555
Ca2 O8 2.542663 1_556
Ca2 O6 2.552197 1_556
Ca3 O16 2.378821 1_655
Ca3 O11 2.383716 1_555
Ca3 O1 2.403807 1_565
Ca3 O2 2.409237 1_555
Ca3 O4 2.450068 1_555
Ca3 O15 2.463218 1_555
Ca3 O7 2.536734 1_555
Ca3 O9 2.552674 1_555
Ca4 O18 2.362728 1_555
Ca4 O7 2.366716 1_555
Ca4 O2 2.422457 1_555
Ca4 O10 2.426578 1_555
Ca4 O9 2.457915 1_555
Ca4 O12 2.466349 1_555
Ca4 O14 2.511605 1_555
Ca4 O0 2.580564 1_555
Ca5 O19 2.357074 1_555
Ca5 O6 2.362355 1_555
Ca5 O3 2.420196 1_544
Ca5 O11 2.430187 1_545
Ca5 O8 2.475640 1_555
Ca5 O13 2.476451 1_555
Ca5 O15 2.504639 1_545
Ca5 O1 2.577689 1_555
Ca6 O8 2.361468 1_555
Ca6 O22 2.361769 1_655
Ca6 O0 2.416051 1_554
Ca6 O16 2.428290 1_655
Ca6 O21 2.468585 1_655
Ca6 O6 2.471906 1_555
Ca6 O4 2.511258 1_555
Ca6 O2 2.573168 1_555
Ca7 O23 2.354926 1_655
Ca7 O9 2.363139 1_555
Ca7 O1 2.420725 1_565
Ca7 O17 2.431979 1_665
Ca7 O20 2.474773 1_655
Ca7 O7 2.476574 1_555
Ca7 O5 2.503744 1_565
Ca7 O3 2.582268 1_555
Ca8 O15 2.381603 1_455
Ca8 O4 2.384487 1_555
Ca8 O22 2.400790 1_555
Ca8 O19 2.402545 1_565
Ca8 O16 2.451423 1_555
Ca8 O11 2.459579 1_555
Ca8 O20 2.542579 1_554
Ca8 O12 2.552099 1_554
Ca9 O14 2.378811 1_455
Ca9 O5 2.383704 1_555
Ca9 O23 2.403766 1_545
Ca9 O18 2.409241 1_555
Ca9 O10 2.450130 1_555
Ca9 O17 2.463249 1_555
Ca9 O13 2.536805 1_555
Ca9 O21 2.552750 1_555
Ca10 O2 2.362718 1_555
Ca10 O13 2.366672 1_555
Ca10 O18 2.422386 1_555
Ca10 O4 2.426675 1_555
Ca10 O21 2.457886 1_555
Ca10 O6 2.466305 1_555
Ca10 O16 2.511595 1_555
Ca10 O22 2.580519 1_555
Ca11 O3 2.357074 1_555
Ca11 O12 2.362458 1_555
Ca11 O19 2.420277 1_566
Ca11 O5 2.430139 1_565
Ca11 O20 2.475704 1_555
Ca11 O7 2.476515 1_555
Ca11 O17 2.504595 1_565
Ca11 O23 2.577682 1_555
Co0 O16 1.842372 1_655
Co0 O14 1.842415 1_555
Co0 O2 1.867932 1_555
Co0 O18 1.867939 1_655
Co0 O21 1.913134 1_655
Co0 O9 1.913148 1_555
Co1 O11 1.836573 1_545
Co1 O5 1.836608 1_555
Co1 O1 1.872395 1_555
Co1 O23 1.872416 1_545
Co1 O13 1.912296 1_555
Co1 O7 1.912323 1_545
Co2 O15 1.835780 1_555
Co2 O17 1.835801 1_664
Co2 O19 1.872465 1_665
Co2 O3 1.872475 1_554
Co2 O20 1.911613 1_654
Co2 O8 1.911637 1_565
Co3 O4 1.836877 1_555
Co3 O10 1.836891 1_554
Co3 O22 1.871137 1_555
Co3 O0 1.871141 1_554
Co3 O12 1.913477 1_554
Co3 O6 1.913517 1_555
