# generated using pymatgen
data_K2SnHgTe4
_symmetry_space_group_name_H-M   'P 1'
_cell_length_a   7.25001239
_cell_length_b   7.25001239
_cell_length_c   7.25001239
_cell_angle_alpha   105.39790201
_cell_angle_beta   105.39790201
_cell_angle_gamma   117.96670328
_symmetry_Int_Tables_number   1
_chemical_formula_structural   K2SnHgTe4
_chemical_formula_sum   'K2 Sn1 Hg1 Te4'
_cell_volume   288.45297426
_cell_formula_units_Z   1
loop_
 _symmetry_equiv_pos_site_id
 _symmetry_equiv_pos_as_xyz
  1  'x, y, z'
loop_
 _atom_site_type_symbol
 _atom_site_label
 _atom_site_symmetry_multiplicity
 _atom_site_fract_x
 _atom_site_fract_y
 _atom_site_fract_z
 _atom_site_occupancy
  K  K0  1  0.50000000  0.00000000  0.50000000  1
  K  K1  1  0.00000000  0.50000000  0.50000000  1
  Sn  Sn0  1  0.00000000  0.00000000  0.00000000  1
  Hg  Hg0  1  0.50000000  0.50000000  0.00000000  1
  Te  Te0  1  0.58680700  0.93755500  0.00000000  1
  Te  Te1  1  0.93755500  0.58680700  0.00000000  1
  Te  Te2  1  0.06244500  0.06244500  0.64925200  1
  Te  Te3  1  0.41319300  0.41319300  0.35074800  1
loop_
_geom_bond_atom_site_label_1
_geom_bond_atom_site_label_2
_geom_bond_distance
_geom_bond_site_symmetry_2
K0 Te3 3.697153 1_555
K0 Te2 3.697153 1_655
K0 Te1 3.697153 1_445
K0 Te0 3.697153 1_546
K0 Te2 3.788002 1_555
K0 Te1 3.788002 1_556
K0 Te0 3.788002 1_545
K0 Te3 3.788002 1_545
K1 Te3 3.697153 1_555
K1 Te2 3.697153 1_565
K1 Te1 3.697153 1_456
K1 Te0 3.697153 1_445
K1 Te2 3.788002 1_555
K1 Te1 3.788002 1_455
K1 Te0 3.788002 1_556
K1 Te3 3.788002 1_455
Sn0 Te1 2.811920 1_445
Sn0 Te0 2.811920 1_445
Sn0 Te3 2.811920 1_555
Sn0 Te2 2.811920 1_554
Hg0 Te0 2.930342 1_555
Hg0 Te1 2.930342 1_555
Hg0 Te3 2.930342 1_555
Hg0 Te2 2.930342 1_554
