# generated using pymatgen
data_Eu(HoS2)2
_symmetry_space_group_name_H-M   'P 1'
_cell_length_a   3.95763200
_cell_length_b   11.89444300
_cell_length_c   14.21318100
_cell_angle_alpha   90.00000000
_cell_angle_beta   90.00000000
_cell_angle_gamma   90.00000000
_symmetry_Int_Tables_number   1
_chemical_formula_structural   Eu(HoS2)2
_chemical_formula_sum   'Eu4 Ho8 S16'
_cell_volume   669.06884112
_cell_formula_units_Z   4
loop_
 _symmetry_equiv_pos_site_id
 _symmetry_equiv_pos_as_xyz
  1  'x, y, z'
loop_
 _atom_site_type_symbol
 _atom_site_label
 _atom_site_symmetry_multiplicity
 _atom_site_fract_x
 _atom_site_fract_y
 _atom_site_fract_z
 _atom_site_occupancy
  Eu  Eu0  1  0.25000000  0.75814500  0.33755100  1
  Eu  Eu1  1  0.25000000  0.25814500  0.16244900  1
  Eu  Eu2  1  0.75000000  0.24185500  0.66244900  1
  Eu  Eu3  1  0.75000000  0.74185500  0.83755100  1
  Ho  Ho0  1  0.25000000  0.43280900  0.38972500  1
  Ho  Ho1  1  0.25000000  0.93280900  0.11027500  1
  Ho  Ho2  1  0.75000000  0.56719100  0.61027500  1
  Ho  Ho3  1  0.75000000  0.06719100  0.88972500  1
  Ho  Ho4  1  0.25000000  0.41852000  0.90014700  1
  Ho  Ho5  1  0.25000000  0.91852000  0.59985300  1
  Ho  Ho6  1  0.75000000  0.58148000  0.09985300  1
  Ho  Ho7  1  0.75000000  0.08148000  0.40014700  1
  S  S0  1  0.25000000  0.20704700  0.82326200  1
  S  S1  1  0.25000000  0.70704700  0.67673800  1
  S  S2  1  0.75000000  0.79295300  0.17673800  1
  S  S3  1  0.75000000  0.29295300  0.32326200  1
  S  S4  1  0.25000000  0.13190200  0.52911700  1
  S  S5  1  0.25000000  0.63190200  0.97088300  1
  S  S6  1  0.75000000  0.86809800  0.47088300  1
  S  S7  1  0.75000000  0.36809800  0.02911700  1
  S  S8  1  0.25000000  0.02306100  0.28415200  1
  S  S9  1  0.25000000  0.52306100  0.21584800  1
  S  S10  1  0.75000000  0.97693900  0.71584800  1
  S  S11  1  0.75000000  0.47693900  0.78415200  1
  S  S12  1  0.25000000  0.41155100  0.57943200  1
  S  S13  1  0.25000000  0.91155100  0.92056800  1
  S  S14  1  0.75000000  0.58844900  0.42056800  1
  S  S15  1  0.75000000  0.08844900  0.07943200  1
loop_
_geom_bond_atom_site_label_1
_geom_bond_atom_site_label_2
_geom_bond_distance
_geom_bond_site_symmetry_2
Eu0 S6 3.036022 1_455
Eu0 S6 3.036022 1_555
Eu0 S2 3.051457 1_555
Eu0 S2 3.051457 1_455
Eu0 S14 3.063015 1_455
Eu0 S14 3.063015 1_555
Eu0 S8 3.241144 1_565
Eu0 S9 3.287987 1_555
Eu1 S7 3.036022 1_455
Eu1 S7 3.036022 1_555
Eu1 S3 3.051457 1_455
Eu1 S3 3.051457 1_555
Eu1 S15 3.063015 1_455
Eu1 S15 3.063015 1_555
Eu1 S9 3.241144 1_555
Eu1 S8 3.287987 1_555
Eu2 S4 3.036022 1_555
Eu2 S4 3.036022 1_655
Eu2 S0 3.051457 1_655
Eu2 S0 3.051457 1_555
Eu2 S12 3.063015 1_655
Eu2 S12 3.063015 1_555
Eu2 S10 3.241144 1_545
Eu2 S11 3.287987 1_555
Eu3 S5 3.036022 1_555
Eu3 S5 3.036022 1_655
Eu3 S1 3.051457 1_555
Eu3 S1 3.051457 1_655
Eu3 S13 3.063015 1_555
Eu3 S13 3.063015 1_655
Eu3 S11 3.241144 1_555
Eu3 S10 3.287987 1_555
Ho0 S9 2.694428 1_555
Ho0 S12 2.708170 1_555
Ho0 S14 2.744999 1_455
Ho0 S14 2.744999 1_555
Ho0 S3 2.752334 1_455
Ho0 S3 2.752334 1_555
Ho1 S8 2.694428 1_565
Ho1 S13 2.708170 1_554
Ho1 S15 2.744999 1_465
Ho1 S15 2.744999 1_565
Ho1 S2 2.752334 1_555
Ho1 S2 2.752334 1_455
Ho2 S11 2.694428 1_555
Ho2 S14 2.708170 1_555
Ho2 S12 2.744999 1_655
Ho2 S12 2.744999 1_555
Ho2 S1 2.752334 1_555
Ho2 S1 2.752334 1_655
Ho3 S10 2.694428 1_545
Ho3 S15 2.708170 1_556
Ho3 S13 2.744999 1_545
Ho3 S13 2.744999 1_645
Ho3 S0 2.752334 1_555
Ho3 S0 2.752334 1_655
Ho4 S11 2.667699 1_555
Ho4 S11 2.667699 1_455
Ho4 S5 2.729935 1_555
Ho4 S0 2.742476 1_555
Ho4 S7 2.763252 1_456
Ho4 S7 2.763252 1_556
Ho5 S10 2.667699 1_555
Ho5 S10 2.667699 1_455
Ho5 S4 2.729935 1_565
Ho5 S1 2.742476 1_555
Ho5 S6 2.763252 1_455
Ho5 S6 2.763252 1_555
Ho6 S9 2.667699 1_555
Ho6 S9 2.667699 1_655
Ho6 S7 2.729935 1_555
Ho6 S2 2.742476 1_555
Ho6 S5 2.763252 1_554
Ho6 S5 2.763252 1_654
Ho7 S8 2.667699 1_655
Ho7 S8 2.667699 1_555
Ho7 S6 2.729935 1_545
Ho7 S3 2.742476 1_555
Ho7 S4 2.763252 1_555
Ho7 S4 2.763252 1_655
