# generated using pymatgen
data_NaSrNb2O6
_symmetry_space_group_name_H-M   'P 1'
_cell_length_a   5.70144668
_cell_length_b   5.70144668
_cell_length_c   4.06225300
_cell_angle_alpha   90.00000000
_cell_angle_beta   90.00000000
_cell_angle_gamma   90.02650522
_symmetry_Int_Tables_number   1
_chemical_formula_structural   NaSrNb2O6
_chemical_formula_sum   'Na1 Sr1 Nb2 O6'
_cell_volume   132.04958950
_cell_formula_units_Z   1
loop_
 _symmetry_equiv_pos_site_id
 _symmetry_equiv_pos_as_xyz
  1  'x, y, z'
loop_
 _atom_site_type_symbol
 _atom_site_label
 _atom_site_symmetry_multiplicity
 _atom_site_fract_x
 _atom_site_fract_y
 _atom_site_fract_z
 _atom_site_occupancy
  Na  Na0  1  0.50000000  0.50000000  0.50000000  1
  Sr  Sr0  1  0.00000000  0.00000000  0.50000000  1
  Nb  Nb0  1  0.50000000  0.00000000  0.00000000  1
  Nb  Nb1  1  0.00000000  0.50000000  0.00000000  1
  O  O0  1  0.21806600  0.78193400  0.00000000  1
  O  O1  1  0.78193400  0.21806600  0.00000000  1
  O  O2  1  0.72823000  0.72823000  0.00000000  1
  O  O3  1  0.27177000  0.27177000  0.00000000  1
  O  O4  1  0.50000000  0.00000000  0.50000000  1
  O  O5  1  0.00000000  0.50000000  0.50000000  1
loop_
_geom_bond_atom_site_label_1
_geom_bond_atom_site_label_2
_geom_bond_distance
_geom_bond_site_symmetry_2
Na0 O3 2.740505 1_555
Na0 O3 2.740505 1_556
Na0 O2 2.740505 1_556
Na0 O2 2.740505 1_555
Na0 O4 2.850723 1_555
Na0 O5 2.850723 1_555
Na0 O5 2.850723 1_655
Na0 O4 2.850723 1_565
Nb0 O3 2.023855 1_555
Nb0 O2 2.023855 1_545
Nb0 O4 2.031127 1_554
Nb0 O4 2.031127 1_555
Nb0 O1 2.031689 1_555
Nb0 O0 2.031689 1_545
Nb1 O3 2.023855 1_555
Nb1 O2 2.023855 1_455
Nb1 O5 2.031127 1_555
Nb1 O5 2.031127 1_554
Nb1 O0 2.031689 1_555
Nb1 O1 2.031689 1_455
O0 Sr0 2.686718 1_565
O0 Sr0 2.686718 1_564
O1 Sr0 2.686718 1_654
O1 Sr0 2.686718 1_655
O2 Sr0 2.987481 1_665
O2 Sr0 2.987481 1_664
O3 Sr0 2.987481 1_554
O3 Sr0 2.987481 1_555
O4 Sr0 2.850723 1_555
O4 Sr0 2.850723 1_655
O5 Sr0 2.850723 1_555
O5 Sr0 2.850723 1_565
