# generated using pymatgen
data_K3MgCu2F9
_symmetry_space_group_name_H-M   'P 1'
_cell_length_a   4.06530300
_cell_length_b   4.06530300
_cell_length_c   12.23052800
_cell_angle_alpha   90.00000000
_cell_angle_beta   90.00000000
_cell_angle_gamma   90.00000000
_symmetry_Int_Tables_number   1
_chemical_formula_structural   K3MgCu2F9
_chemical_formula_sum   'K3 Mg1 Cu2 F9'
_cell_volume   202.13012622
_cell_formula_units_Z   1
loop_
 _symmetry_equiv_pos_site_id
 _symmetry_equiv_pos_as_xyz
  1  'x, y, z'
loop_
 _atom_site_type_symbol
 _atom_site_label
 _atom_site_symmetry_multiplicity
 _atom_site_fract_x
 _atom_site_fract_y
 _atom_site_fract_z
 _atom_site_occupancy
  K  K0  1  0.00000000  0.00000000  0.83243300  1
  K  K1  1  0.00000000  0.00000000  0.16756700  1
  K  K2  1  0.00000000  0.00000000  0.50000000  1
  Mg  Mg0  1  0.50000000  0.50000000  0.00000000  1
  Cu  Cu0  1  0.50000000  0.50000000  0.33338600  1
  Cu  Cu1  1  0.50000000  0.50000000  0.66661400  1
  F  F0  1  0.50000000  0.00000000  0.00000000  1
  F  F1  1  0.50000000  0.00000000  0.33359700  1
  F  F2  1  0.50000000  0.00000000  0.66640300  1
  F  F3  1  0.50000000  0.50000000  0.83498200  1
  F  F4  1  0.50000000  0.50000000  0.16501800  1
  F  F5  1  0.50000000  0.50000000  0.50000000  1
  F  F6  1  0.00000000  0.50000000  0.00000000  1
  F  F7  1  0.00000000  0.50000000  0.33359700  1
  F  F8  1  0.00000000  0.50000000  0.66640300  1
loop_
_geom_bond_atom_site_label_1
_geom_bond_atom_site_label_2
_geom_bond_distance
_geom_bond_site_symmetry_2
Cu0 F7 2.032653 1_555
Cu0 F1 2.032653 1_555
Cu0 F7 2.032653 1_655
Cu0 F1 2.032653 1_565
Cu0 F5 2.037777 1_555
Cu0 F4 2.059230 1_555
Cu1 F8 2.032653 1_555
Cu1 F2 2.032653 1_555
Cu1 F8 2.032653 1_655
Cu1 F2 2.032653 1_565
Cu1 F5 2.037777 1_555
Cu1 F3 2.059230 1_555
F0 Mg0 2.032652 1_545
F0 Mg0 2.032652 1_555
F0 K1 2.886494 1_555
F0 K0 2.886494 1_654
F0 K1 2.886494 1_655
F0 K0 2.886494 1_554
F1 K1 2.873177 1_655
F1 K1 2.873177 1_555
F1 K2 2.876404 1_555
F1 K2 2.876404 1_655
F2 K0 2.873177 1_555
F2 K0 2.873177 1_655
F2 K2 2.876404 1_655
F2 K2 2.876404 1_555
F3 Mg0 2.018257 1_556
F3 K0 2.874772 1_665
F3 K0 2.874772 1_555
F3 K0 2.874772 1_565
F3 K0 2.874772 1_655
F4 Mg0 2.018257 1_555
F4 K1 2.874772 1_655
F4 K1 2.874772 1_665
F4 K1 2.874772 1_565
F4 K1 2.874772 1_555
F5 K2 2.874603 1_655
F5 K2 2.874603 1_665
F5 K2 2.874603 1_555
F5 K2 2.874603 1_565
F6 Mg0 2.032652 1_455
F6 Mg0 2.032652 1_555
F6 K0 2.886494 1_564
F6 K1 2.886494 1_555
F6 K1 2.886494 1_565
F6 K0 2.886494 1_554
F7 K1 2.873177 1_565
F7 K1 2.873177 1_555
F7 K2 2.876404 1_555
F7 K2 2.876404 1_565
F8 K0 2.873177 1_555
F8 K0 2.873177 1_565
F8 K2 2.876404 1_565
F8 K2 2.876404 1_555
