# generated using pymatgen
data_Sr2V3O9
_symmetry_space_group_name_H-M   'P 1'
_cell_length_a   8.97241156
_cell_length_b   8.97241156
_cell_length_c   6.96405567
_cell_angle_alpha   77.86269138
_cell_angle_beta   77.86269138
_cell_angle_gamma   130.12036420
_symmetry_Int_Tables_number   1
_chemical_formula_structural   Sr2V3O9
_chemical_formula_sum   'Sr4 V6 O18'
_cell_volume   371.61554123
_cell_formula_units_Z   2
loop_
 _symmetry_equiv_pos_site_id
 _symmetry_equiv_pos_as_xyz
  1  'x, y, z'
loop_
 _atom_site_type_symbol
 _atom_site_label
 _atom_site_symmetry_multiplicity
 _atom_site_fract_x
 _atom_site_fract_y
 _atom_site_fract_z
 _atom_site_occupancy
  Sr  Sr0  1  0.87288469  0.12375855  0.24984472  1
  Sr  Sr1  1  0.12375855  0.87288469  0.74984472  1
  Sr  Sr2  1  0.45364853  0.55080790  0.24715499  1
  Sr  Sr3  1  0.55080790  0.45364853  0.74715499  1
  V  V0  1  0.07987857  0.92161966  0.24886989  1
  V  V1  1  0.92161966  0.07987857  0.74886989  1
  V  V2  1  0.65975641  0.33979645  0.25066550  1
  V  V3  1  0.33979645  0.65975641  0.75066550  1
  V  V4  1  0.03644181  0.52677151  0.46841710  1
  V  V5  1  0.52677151  0.03644181  0.96841710  1
  O  O0  1  0.18264731  0.14507512  0.28109598  1
  O  O1  1  0.85490914  0.81824373  0.21904056  1
  O  O2  1  0.81824373  0.85490914  0.71904056  1
  O  O3  1  0.14507512  0.18264731  0.78109598  1
  O  O4  1  0.48285924  0.28618631  0.47781942  1
  O  O5  1  0.71102902  0.51675901  0.02565796  1
  O  O6  1  0.51675901  0.71102902  0.52565796  1
  O  O7  1  0.28618631  0.48285924  0.97781942  1
  O  O8  1  0.89374222  0.44347911  0.27639515  1
  O  O9  1  0.55623829  0.10812075  0.22020324  1
  O  O10  1  0.10812075  0.55623829  0.72020324  1
  O  O11  1  0.44347911  0.89374222  0.77639515  1
  O  O12  1  0.28836272  0.71467498  0.25509020  1
  O  O13  1  0.71467498  0.28836272  0.75509020  1
  O  O14  1  0.99846103  0.71839030  0.48702902  1
  O  O15  1  0.28124622  0.00326841  0.00881528  1
  O  O16  1  0.00326841  0.28124622  0.50881528  1
  O  O17  1  0.71839030  0.99846103  0.98702902  1
loop_
_geom_bond_atom_site_label_1
_geom_bond_atom_site_label_2
_geom_bond_distance
_geom_bond_site_symmetry_2
O0 V0 1.677494 1_545
O0 Sr2 2.684989 1_555
O0 Sr0 2.719435 1_455
O1 V0 1.679973 1_655
O1 Sr2 2.670255 1_555
O1 Sr0 2.697828 1_565
O2 V1 1.679973 1_565
O2 Sr3 2.670255 1_555
O2 Sr1 2.697828 1_655
O3 V1 1.677494 1_455
O3 Sr3 2.684989 1_555
O3 Sr1 2.719435 1_545
O4 V2 1.700962 1_555
O4 Sr3 2.575429 1_555
O4 Sr1 2.608086 1_545
O4 Sr2 2.767954 1_555
O5 V2 1.702151 1_555
O5 Sr3 2.595019 1_554
O5 Sr1 2.605946 1_654
O5 Sr2 2.723075 1_555
O6 V3 1.702151 1_555
O6 Sr2 2.595019 1_555
O6 Sr0 2.605946 1_565
O6 Sr3 2.723075 1_555
O7 V3 1.700962 1_555
O7 Sr2 2.575429 1_556
O7 Sr0 2.608086 1_456
O7 Sr3 2.767954 1_555
O8 V2 1.736747 1_555
O8 V4 1.973097 1_655
O8 Sr0 2.800742 1_555
O9 V2 1.734548 1_555
O9 V5 2.002032 1_554
O9 Sr0 2.806972 1_555
O10 V3 1.734548 1_555
O10 V4 2.002032 1_555
O10 Sr1 2.806972 1_555
O11 V3 1.736747 1_555
O11 V5 1.973097 1_565
O11 Sr1 2.800742 1_555
O12 V4 1.667920 1_555
O12 V5 2.172031 1_564
O12 Sr2 2.678424 1_555
O13 V5 1.667920 1_555
O13 V4 2.172031 1_655
O13 Sr3 2.678424 1_555
O14 V0 1.763934 1_655
O14 V4 1.979670 1_655
O14 Sr1 2.541446 1_655
O14 Sr3 2.809157 1_555
O15 V0 1.762051 1_545
O15 V5 1.969735 1_554
O15 Sr1 2.538937 1_544
O15 Sr3 2.820270 1_554
O16 V1 1.762051 1_455
O16 V4 1.969735 1_555
O16 Sr0 2.538937 1_455
O16 Sr2 2.820270 1_555
O17 V1 1.763934 1_565
O17 V5 1.979670 1_565
O17 Sr0 2.541446 1_566
O17 Sr2 2.809157 1_556
