# generated using pymatgen
data_Hg2Te2O7
_symmetry_space_group_name_H-M   'P 1'
_cell_length_a   7.65116321
_cell_length_b   7.65116321
_cell_length_c   13.70043869
_cell_angle_alpha   69.96666015
_cell_angle_beta   69.96666015
_cell_angle_gamma   59.12131734
_symmetry_Int_Tables_number   1
_chemical_formula_structural   Hg2Te2O7
_chemical_formula_sum   'Hg8 Te8 O28'
_cell_volume   632.71522570
_cell_formula_units_Z   4
loop_
 _symmetry_equiv_pos_site_id
 _symmetry_equiv_pos_as_xyz
  1  'x, y, z'
loop_
 _atom_site_type_symbol
 _atom_site_label
 _atom_site_symmetry_multiplicity
 _atom_site_fract_x
 _atom_site_fract_y
 _atom_site_fract_z
 _atom_site_occupancy
  Hg  Hg0  1  0.00000000  0.50000000  0.50000000  1
  Hg  Hg1  1  0.50000000  0.00000000  0.00000000  1
  Hg  Hg2  1  0.00000000  0.50000000  0.00000000  1
  Hg  Hg3  1  0.50000000  0.00000000  0.50000000  1
  Hg  Hg4  1  0.23411400  0.76588600  0.75000000  1
  Hg  Hg5  1  0.76588600  0.23411400  0.25000000  1
  Hg  Hg6  1  0.70951300  0.29048700  0.75000000  1
  Hg  Hg7  1  0.29048700  0.70951300  0.25000000  1
  Te  Te0  1  0.00000000  0.00000000  0.00000000  1
  Te  Te1  1  0.00000000  0.00000000  0.50000000  1
  Te  Te2  1  0.50000000  0.50000000  0.50000000  1
  Te  Te3  1  0.50000000  0.50000000  0.00000000  1
  Te  Te4  1  0.22182500  0.22904200  0.74292800  1
  Te  Te5  1  0.77095800  0.77817500  0.75707200  1
  Te  Te6  1  0.77817500  0.77095800  0.25707200  1
  Te  Te7  1  0.22904200  0.22182500  0.24292800  1
  O  O0  1  0.28703300  0.78904800  0.95463900  1
  O  O1  1  0.21095200  0.71296700  0.54536100  1
  O  O2  1  0.71296700  0.21095200  0.04536100  1
  O  O3  1  0.78904800  0.28703300  0.45463900  1
  O  O4  1  0.37794600  0.96085700  0.69948400  1
  O  O5  1  0.03914300  0.62205400  0.80051600  1
  O  O6  1  0.62205400  0.03914300  0.30051600  1
  O  O7  1  0.96085700  0.37794600  0.19948400  1
  O  O8  1  0.42253600  0.28531100  0.60143500  1
  O  O9  1  0.71468900  0.57746400  0.89856500  1
  O  O10  1  0.57746400  0.71468900  0.39856500  1
  O  O11  1  0.28531100  0.42253600  0.10143500  1
  O  O12  1  0.12781400  0.16821100  0.99454300  1
  O  O13  1  0.83178900  0.87218600  0.50545700  1
  O  O14  1  0.87218600  0.83178900  0.00545700  1
  O  O15  1  0.16821100  0.12781400  0.49454300  1
  O  O16  1  0.11090800  0.00244600  0.34633400  1
  O  O17  1  0.99755400  0.88909200  0.15366600  1
  O  O18  1  0.88909200  0.99755400  0.65366600  1
  O  O19  1  0.00244600  0.11090800  0.84633400  1
  O  O20  1  0.38878600  0.99222100  0.17095400  1
  O  O21  1  0.00777900  0.61121400  0.32904600  1
  O  O22  1  0.61121400  0.00777900  0.82904600  1
  O  O23  1  0.99222100  0.38878600  0.67095400  1
  O  O24  1  0.54420700  0.58055000  0.10594100  1
  O  O25  1  0.41945000  0.45579300  0.39405900  1
  O  O26  1  0.45579300  0.41945000  0.89405900  1
  O  O27  1  0.58055000  0.54420700  0.60594100  1
loop_
_geom_bond_atom_site_label_1
_geom_bond_atom_site_label_2
_geom_bond_distance
_geom_bond_site_symmetry_2
Hg0 O23 2.191864 1_455
Hg0 O21 2.191864 1_555
Hg0 O13 2.467629 1_455
Hg0 O15 2.467629 1_555
Hg1 O20 2.191864 1_545
Hg1 O22 2.191864 1_554
Hg1 O14 2.467629 1_545
Hg1 O12 2.467629 1_554
Hg2 O14 2.222169 1_455
Hg2 O12 2.222169 1_554
Hg2 O7 2.531566 1_455
Hg2 O5 2.531566 1_554
Hg2 O11 2.689609 1_555
Hg2 O9 2.689609 1_454
Hg3 O13 2.222169 1_545
Hg3 O15 2.222169 1_555
Hg3 O4 2.531566 1_545
Hg3 O6 2.531566 1_555
Hg3 O8 2.689609 1_555
Hg3 O10 2.689609 1_545
Hg4 O5 2.090758 1_555
Hg4 O4 2.090758 1_555
Hg5 O7 2.090758 1_555
Hg5 O6 2.090758 1_555
Hg6 O26 2.319608 1_555
Hg6 O27 2.319608 1_555
Hg6 O23 2.433950 1_555
Hg6 O22 2.433950 1_555
Hg6 O19 2.505278 1_655
Hg6 O18 2.505278 1_545
Hg7 O24 2.319608 1_555
Hg7 O25 2.319608 1_555
Hg7 O20 2.433950 1_555
Hg7 O21 2.433950 1_555
Hg7 O16 2.505278 1_565
Hg7 O17 2.505278 1_455
O0 Te0 1.981945 1_566
O0 Te3 1.996378 1_556
O1 Te1 1.981945 1_565
O1 Te2 1.996378 1_555
O2 Te0 1.981945 1_655
O2 Te3 1.996378 1_555
O3 Te1 1.981945 1_655
O3 Te2 1.996378 1_555
O4 Te4 1.955840 1_565
O5 Te5 1.955840 1_455
O6 Te6 1.955840 1_545
O7 Te7 1.955840 1_655
O8 Te2 1.962589 1_555
O8 Te4 2.090149 1_555
O9 Te3 1.962589 1_556
O9 Te5 2.090149 1_555
O10 Te2 1.962589 1_555
O10 Te6 2.090149 1_555
O11 Te3 1.962589 1_555
O11 Te7 2.090149 1_555
O12 Te0 1.947868 1_556
O13 Te1 1.947868 1_665
O14 Te0 1.947868 1_665
O15 Te1 1.947868 1_555
O16 Te1 1.979394 1_555
O16 Te7 2.166132 1_555
O17 Te0 1.979394 1_665
O17 Te6 2.166132 1_555
O18 Te1 1.979394 1_665
O18 Te5 2.166132 1_555
O19 Te0 1.979394 1_556
O19 Te4 2.166132 1_555
O20 Te7 1.926009 1_565
O21 Te6 1.926009 1_455
O22 Te5 1.926009 1_545
O23 Te4 1.926009 1_655
O24 Te3 1.940126 1_555
O25 Te2 1.940126 1_555
O26 Te3 1.940126 1_556
O27 Te2 1.940126 1_555
