# generated using pymatgen
data_Li4MnCo2O7
_symmetry_space_group_name_H-M   'P 1'
_cell_length_a   9.82330882
_cell_length_b   9.82330882
_cell_length_c   9.77051846
_cell_angle_alpha   65.68157028
_cell_angle_beta   65.68157028
_cell_angle_gamma   17.13624838
_symmetry_Int_Tables_number   1
_chemical_formula_structural   Li4MnCo2O7
_chemical_formula_sum   'Li8 Mn2 Co4 O14'
_cell_volume   252.56356158
_cell_formula_units_Z   2
loop_
 _symmetry_equiv_pos_site_id
 _symmetry_equiv_pos_as_xyz
  1  'x, y, z'
loop_
 _atom_site_type_symbol
 _atom_site_label
 _atom_site_symmetry_multiplicity
 _atom_site_fract_x
 _atom_site_fract_y
 _atom_site_fract_z
 _atom_site_occupancy
  Li  Li0  1  0.43018100  0.43018100  0.79141300  1
  Li  Li1  1  0.13813500  0.13813500  0.93560800  1
  Li  Li2  1  0.86186500  0.86186500  0.06439200  1
  Li  Li3  1  0.56981900  0.56981900  0.20858700  1
  Li  Li4  1  0.28694700  0.28694700  0.35549200  1
  Li  Li5  1  0.00000000  0.00000000  0.50000000  1
  Li  Li6  1  0.71305300  0.71305300  0.64450800  1
  Li  Li7  1  0.50000000  0.50000000  0.00000000  1
  Mn  Mn0  1  0.06756700  0.06756700  0.72498100  1
  Mn  Mn1  1  0.93243300  0.93243300  0.27501900  1
  Co  Co0  1  0.78588000  0.78588000  0.85671600  1
  Co  Co1  1  0.21412000  0.21412000  0.14328400  1
  Co  Co2  1  0.64357900  0.64357900  0.42891000  1
  Co  Co3  1  0.35642100  0.35642100  0.57109000  1
  O  O0  1  0.54143800  0.54143800  0.61497900  1
  O  O1  1  0.25426100  0.25426100  0.75313600  1
  O  O2  1  0.97269700  0.97269700  0.87593100  1
  O  O3  1  0.68266400  0.68266400  0.03939100  1
  O  O4  1  0.39617700  0.39617700  0.19160800  1
  O  O5  1  0.11146100  0.11146100  0.32913800  1
  O  O6  1  0.82894200  0.82894200  0.46111400  1
  O  O7  1  0.31733600  0.31733600  0.96060900  1
  O  O8  1  0.02730300  0.02730300  0.12406900  1
  O  O9  1  0.74573900  0.74573900  0.24686400  1
  O  O10  1  0.45856200  0.45856200  0.38502100  1
  O  O11  1  0.17105800  0.17105800  0.53888600  1
  O  O12  1  0.88853900  0.88853900  0.67086200  1
  O  O13  1  0.60382300  0.60382300  0.80839200  1
loop_
_geom_bond_atom_site_label_1
_geom_bond_atom_site_label_2
_geom_bond_distance
_geom_bond_site_symmetry_2
Li0 O2 2.018459 1_455
Li0 O2 2.018459 1_545
Li0 O7 2.126114 1_555
Li0 O0 2.130734 1_555
Li0 O12 2.231000 1_545
Li0 O12 2.231000 1_455
Li1 O3 2.156185 1_546
Li1 O3 2.156185 1_456
Li1 O8 2.173583 1_556
Li1 O13 2.195753 1_545
Li1 O13 2.195753 1_455
Li1 O1 2.217676 1_555
Li2 O7 2.156185 1_564
Li2 O7 2.156185 1_654
Li2 O2 2.173583 1_554
Li2 O4 2.195753 1_565
Li2 O4 2.195753 1_655
Li2 O9 2.217676 1_555
Li3 O8 2.018459 1_565
Li3 O8 2.018459 1_655
Li3 O3 2.126114 1_555
Li3 O10 2.130734 1_555
Li3 O5 2.231000 1_655
Li3 O5 2.231000 1_565
Li4 O4 2.058372 1_555
Li4 O6 2.138639 1_455
Li4 O6 2.138639 1_545
Li4 O9 2.148718 1_455
Li4 O9 2.148718 1_545
Li4 O11 2.217990 1_555
Li5 O5 2.113041 1_555
Li5 O12 2.113041 1_445
Li5 O0 2.192097 1_545
Li5 O0 2.192097 1_455
Li5 O10 2.192097 1_455
Li5 O10 2.192097 1_545
Li6 O13 2.058372 1_555
Li6 O11 2.138639 1_655
Li6 O11 2.138639 1_565
Li6 O1 2.148718 1_655
Li6 O1 2.148718 1_565
Li6 O6 2.217990 1_555
Li7 O4 2.104279 1_555
Li7 O13 2.104279 1_554
Li7 O8 2.104351 1_565
Li7 O8 2.104351 1_655
Li7 O2 2.104351 1_454
Li7 O2 2.104351 1_544
Mn0 O2 1.818804 1_445
Mn0 O13 1.944306 1_545
Mn0 O13 1.944306 1_455
Mn0 O0 2.002286 1_545
Mn0 O0 2.002286 1_455
Mn0 O11 2.074486 1_555
Mn1 O8 1.818804 1_665
Mn1 O4 1.944306 1_655
Mn1 O4 1.944306 1_565
Mn1 O10 2.002286 1_655
Mn1 O10 2.002286 1_565
Mn1 O6 2.074486 1_555
Co0 O1 2.015252 1_565
Co0 O1 2.015252 1_655
Co0 O7 2.015551 1_655
Co0 O7 2.015551 1_565
Co0 O3 2.055612 1_556
Co0 O12 2.063635 1_555
Co1 O9 2.015252 1_545
Co1 O9 2.015252 1_455
Co1 O3 2.015551 1_545
Co1 O3 2.015551 1_455
Co1 O7 2.055612 1_554
Co1 O5 2.063635 1_555
Co2 O5 1.997037 1_655
Co2 O5 1.997037 1_565
Co2 O11 2.014766 1_565
Co2 O11 2.014766 1_655
Co2 O9 2.040206 1_555
Co2 O0 2.058624 1_555
Co3 O12 1.997037 1_545
Co3 O12 1.997037 1_455
Co3 O6 2.014766 1_545
Co3 O6 2.014766 1_455
Co3 O1 2.040206 1_555
Co3 O10 2.058624 1_555
