# generated using pymatgen
data_PbI2
_symmetry_space_group_name_H-M   'P 1'
_cell_length_a   4.62998176
_cell_length_b   4.62998176
_cell_length_c   87.85810896
_cell_angle_alpha   90.00000000
_cell_angle_beta   90.00000000
_cell_angle_gamma   120.00001172
_symmetry_Int_Tables_number   1
_chemical_formula_structural   PbI2
_chemical_formula_sum   'Pb12 I24'
_cell_volume   1631.06396127
_cell_formula_units_Z   12
loop_
 _symmetry_equiv_pos_site_id
 _symmetry_equiv_pos_as_xyz
  1  'x, y, z'
loop_
 _atom_site_type_symbol
 _atom_site_label
 _atom_site_symmetry_multiplicity
 _atom_site_fract_x
 _atom_site_fract_y
 _atom_site_fract_z
 _atom_site_occupancy
  Pb  Pb0  1  0.66666700  0.33333300  0.97976118  1
  Pb  Pb1  1  0.66666700  0.33333300  0.89561400  1
  Pb  Pb2  1  0.66666700  0.33333300  0.81199531  1
  Pb  Pb3  1  0.66666700  0.33333300  0.72889163  1
  Pb  Pb4  1  0.66666700  0.33333300  0.64549364  1
  Pb  Pb5  1  0.66666700  0.33333300  0.56224477  1
  Pb  Pb6  1  0.33333300  0.66666700  0.47879970  1
  Pb  Pb7  1  0.33333300  0.66666700  0.39565667  1
  Pb  Pb8  1  0.66666700  0.33333300  0.31229481  1
  Pb  Pb9  1  0.66666700  0.33333300  0.22932701  1
  Pb  Pb10  1  0.33333300  0.66666700  0.14651807  1
  Pb  Pb11  1  0.33333300  0.66666700  0.06342837  1
  I  I0  1  0.33333300  0.66666700  0.00092600  1
  I  I1  1  0.00000000  -0.00000000  0.95856903  1
  I  I2  1  0.33333300  0.66666700  0.91677392  1
  I  I3  1  0.00000000  -0.00000000  0.87445084  1
  I  I4  1  0.33333300  0.66666700  0.83320456  1
  I  I5  1  -0.00000000  -0.00000000  0.79076515  1
  I  I6  1  0.33333300  0.66666700  0.75005883  1
  I  I7  1  0.00000000  -0.00000000  0.70773860  1
  I  I8  1  0.33333300  0.66666700  0.66669611  1
  I  I9  1  0.00000000  -0.00000000  0.62425879  1
  I  I10  1  0.33333300  0.66666700  0.58342092  1
  I  I11  1  0.00000000  -0.00000000  0.54109321  1
  I  I12  1  0.66666700  0.33333300  0.50002572  1
  I  I13  1  0.00000000  -0.00000000  0.45755011  1
  I  I14  1  0.66666700  0.33333300  0.41678824  1
  I  I15  1  0.00000000  -0.00000000  0.37455705  1
  I  I16  1  0.33333300  0.66666700  0.33346438  1
  I  I17  1  0.00000000  -0.00000000  0.29109536  1
  I  I18  1  0.33333300  0.66666700  0.25053864  1
  I  I19  1  0.00000000  -0.00000000  0.20810193  1
  I  I20  1  0.66666700  0.33333300  0.16774929  1
  I  I21  1  0.00000000  -0.00000000  0.12528763  1
  I  I22  1  0.66666700  0.33333300  0.08462178  1
  I  I23  1  0.00000000  -0.00000000  0.04223779  1
loop_
_geom_bond_atom_site_label_1
_geom_bond_atom_site_label_2
_geom_bond_distance
_geom_bond_site_symmetry_2
I0 Pb0 3.256272 1_454
I0 Pb0 3.256272 1_564
I0 Pb0 3.256279 1_554
I1 Pb0 3.257644 1_455
I1 Pb0 3.257647 1_555
I1 Pb0 3.257647 1_445
I2 Pb1 3.256026 1_455
I2 Pb1 3.256026 1_565
I2 Pb1 3.256033 1_555
I3 Pb1 3.256189 1_455
I3 Pb1 3.256192 1_555
I3 Pb1 3.256192 1_445
I4 Pb2 3.258502 1_455
I4 Pb2 3.258502 1_565
I4 Pb2 3.258509 1_555
I5 Pb2 3.259554 1_455
I5 Pb2 3.259557 1_445
I5 Pb2 3.259557 1_555
I6 Pb3 3.256391 1_455
I6 Pb3 3.256391 1_565
I6 Pb3 3.256398 1_555
I7 Pb3 3.255681 1_455
I7 Pb3 3.255684 1_555
I7 Pb3 3.255684 1_445
I8 Pb4 3.258162 1_455
I8 Pb4 3.258162 1_565
I8 Pb4 3.258169 1_555
I9 Pb4 3.259789 1_455
I9 Pb4 3.259792 1_445
I9 Pb4 3.259792 1_555
I10 Pb5 3.256840 1_455
I10 Pb5 3.256840 1_565
I10 Pb5 3.256847 1_555
I11 Pb5 3.255607 1_455
I11 Pb5 3.255610 1_445
I11 Pb5 3.255610 1_555
I12 Pb6 3.259345 1_545
I12 Pb6 3.259345 1_655
I12 Pb6 3.259352 1_555
I13 Pb6 3.260531 1_545
I13 Pb6 3.260534 1_555
I13 Pb6 3.260534 1_445
I14 Pb7 3.254604 1_545
I14 Pb7 3.254604 1_655
I14 Pb7 3.254611 1_555
I15 Pb7 3.253004 1_545
I15 Pb7 3.253007 1_445
I15 Pb7 3.253007 1_555
I16 Pb8 3.256510 1_455
I16 Pb8 3.256510 1_565
I16 Pb8 3.256517 1_555
I17 Pb8 3.258010 1_455
I17 Pb8 3.258013 1_555
I17 Pb8 3.258013 1_445
I18 Pb9 3.258622 1_455
I18 Pb9 3.258622 1_565
I18 Pb9 3.258629 1_555
I19 Pb9 3.259298 1_455
I19 Pb9 3.259301 1_445
I19 Pb9 3.259301 1_555
I20 Pb10 3.259607 1_545
I20 Pb10 3.259607 1_655
I20 Pb10 3.259614 1_555
I21 Pb10 3.259568 1_545
I21 Pb10 3.259571 1_555
I21 Pb10 3.259571 1_445
I22 Pb11 3.257707 1_545
I22 Pb11 3.257707 1_655
I22 Pb11 3.257714 1_555
I23 Pb11 3.257565 1_545
I23 Pb11 3.257568 1_555
I23 Pb11 3.257568 1_445
