# generated using pymatgen
data_YbNiAs
_symmetry_space_group_name_H-M   'P 1'
_cell_length_a   4.00513282
_cell_length_b   4.00513282
_cell_length_c   16.18999300
_cell_angle_alpha   90.00000000
_cell_angle_beta   90.00000000
_cell_angle_gamma   120.00001348
_symmetry_Int_Tables_number   1
_chemical_formula_structural   YbNiAs
_chemical_formula_sum   'Yb4 Ni4 As4'
_cell_volume   224.91119792
_cell_formula_units_Z   4
loop_
 _symmetry_equiv_pos_site_id
 _symmetry_equiv_pos_as_xyz
  1  'x, y, z'
loop_
 _atom_site_type_symbol
 _atom_site_label
 _atom_site_symmetry_multiplicity
 _atom_site_fract_x
 _atom_site_fract_y
 _atom_site_fract_z
 _atom_site_occupancy
  Yb  Yb0  1  0.00000000  0.00000000  0.25000000  1
  Yb  Yb1  1  0.00000000  0.00000000  0.75000000  1
  Yb  Yb2  1  0.00000000  0.00000000  0.00000000  1
  Yb  Yb3  1  0.00000000  0.00000000  0.50000000  1
  Ni  Ni0  1  0.33333300  0.66666700  0.12550900  1
  Ni  Ni1  1  0.66666700  0.33333300  0.87449100  1
  Ni  Ni2  1  0.66666700  0.33333300  0.62550900  1
  Ni  Ni3  1  0.33333300  0.66666700  0.37449100  1
  As  As0  1  0.33333300  0.66666700  0.62528400  1
  As  As1  1  0.66666700  0.33333300  0.37471600  1
  As  As2  1  0.66666700  0.33333300  0.12528400  1
  As  As3  1  0.33333300  0.66666700  0.87471600  1
loop_
_geom_bond_atom_site_label_1
_geom_bond_atom_site_label_2
_geom_bond_distance
_geom_bond_site_symmetry_2
Ni0 Yb0 3.067457 1_565
Ni0 Yb0 3.067459 1_555
Ni0 Yb0 3.067459 1_665
Ni0 Yb2 3.078312 1_565
Ni0 Yb2 3.078314 1_665
Ni0 Yb2 3.078314 1_555
Ni1 Yb1 3.067457 1_655
Ni1 Yb1 3.067459 1_555
Ni1 Yb1 3.067459 1_665
Ni1 Yb2 3.078312 1_656
Ni1 Yb2 3.078314 1_556
Ni1 Yb2 3.078314 1_666
Ni2 Yb1 3.067457 1_655
Ni2 Yb1 3.067459 1_555
Ni2 Yb1 3.067459 1_665
Ni2 Yb3 3.078312 1_655
Ni2 Yb3 3.078314 1_555
Ni2 Yb3 3.078314 1_665
Ni3 Yb0 3.067457 1_565
Ni3 Yb0 3.067459 1_555
Ni3 Yb0 3.067459 1_665
Ni3 Yb3 3.078312 1_565
Ni3 Yb3 3.078314 1_665
Ni3 Yb3 3.078314 1_555
As0 Ni2 2.312365 1_455
As0 Ni2 2.312365 1_565
As0 Ni2 2.312372 1_555
As0 Yb1 3.069852 1_565
As0 Yb1 3.069854 1_555
As0 Yb1 3.069854 1_665
As0 Yb3 3.075908 1_565
As0 Yb3 3.075911 1_665
As0 Yb3 3.075911 1_555
As1 Ni3 2.312365 1_545
As1 Ni3 2.312365 1_655
As1 Ni3 2.312372 1_555
As1 Yb0 3.069852 1_655
As1 Yb0 3.069854 1_555
As1 Yb0 3.069854 1_665
As1 Yb3 3.075908 1_655
As1 Yb3 3.075911 1_555
As1 Yb3 3.075911 1_665
As2 Ni0 2.312365 1_545
As2 Ni0 2.312365 1_655
As2 Ni0 2.312372 1_555
As2 Yb0 3.069852 1_655
As2 Yb0 3.069854 1_555
As2 Yb0 3.069854 1_665
As2 Yb2 3.075908 1_655
As2 Yb2 3.075911 1_665
As2 Yb2 3.075911 1_555
As3 Ni1 2.312365 1_455
As3 Ni1 2.312365 1_565
As3 Ni1 2.312372 1_555
As3 Yb1 3.069852 1_565
As3 Yb1 3.069854 1_555
As3 Yb1 3.069854 1_665
As3 Yb2 3.075908 1_566
As3 Yb2 3.075911 1_556
As3 Yb2 3.075911 1_666
