# generated using pymatgen
data_Pr3SnN
_symmetry_space_group_name_H-M   'P 1'
_cell_length_a   5.05045937
_cell_length_b   5.05046559
_cell_length_c   5.05046559
_cell_angle_alpha   90.00000000
_cell_angle_beta   90.00000000
_cell_angle_gamma   90.00000000
_symmetry_Int_Tables_number   1
_chemical_formula_structural   Pr3SnN
_chemical_formula_sum   'Pr3 Sn1 N1'
_cell_volume   128.82309076
_cell_formula_units_Z   1
loop_
 _symmetry_equiv_pos_site_id
 _symmetry_equiv_pos_as_xyz
  1  'x, y, z'
loop_
 _atom_site_type_symbol
 _atom_site_label
 _atom_site_symmetry_multiplicity
 _atom_site_fract_x
 _atom_site_fract_y
 _atom_site_fract_z
 _atom_site_occupancy
  Pr  Pr0  1  0.50000000  0.00000000  0.00000000  1
  Pr  Pr1  1  -0.00000000  0.50000000  0.00000000  1
  Pr  Pr2  1  0.00000000  0.00000000  0.50000000  1
  Sn  Sn0  1  0.50000000  0.50000000  0.50000000  1
  N  N0  1  -0.00000000  -0.00000000  -0.00000000  1
loop_
_geom_bond_atom_site_label_1
_geom_bond_atom_site_label_2
_geom_bond_distance
_geom_bond_site_symmetry_2
Pr0 Sn0 3.571218 1_544
Pr0 Sn0 3.571218 1_545
Pr0 Sn0 3.571218 1_555
Pr0 Sn0 3.571218 1_554
Pr1 Sn0 3.571216 1_555
Pr1 Sn0 3.571216 1_554
Pr1 Sn0 3.571216 1_455
Pr1 Sn0 3.571216 1_454
Pr2 Sn0 3.571216 1_555
Pr2 Sn0 3.571216 1_545
Pr2 Sn0 3.571216 1_445
Pr2 Sn0 3.571216 1_455
N0 Pr0 2.525230 1_555
N0 Pr0 2.525230 1_455
N0 Pr2 2.525233 1_555
N0 Pr2 2.525233 1_554
N0 Pr1 2.525233 1_545
N0 Pr1 2.525233 1_555
