# generated using pymatgen
data_ScAlCo
_symmetry_space_group_name_H-M   'P 1'
_cell_length_a   5.11728475
_cell_length_b   5.11728475
_cell_length_c   8.14449800
_cell_angle_alpha   90.00000000
_cell_angle_beta   90.00000000
_cell_angle_gamma   118.97292579
_symmetry_Int_Tables_number   1
_chemical_formula_structural   ScAlCo
_chemical_formula_sum   'Sc4 Al4 Co4'
_cell_volume   186.58487601
_cell_formula_units_Z   4
loop_
 _symmetry_equiv_pos_site_id
 _symmetry_equiv_pos_as_xyz
  1  'x, y, z'
loop_
 _atom_site_type_symbol
 _atom_site_label
 _atom_site_symmetry_multiplicity
 _atom_site_fract_x
 _atom_site_fract_y
 _atom_site_fract_z
 _atom_site_occupancy
  Sc  Sc0  1  0.66662200  0.33337800  0.29502100  1
  Sc  Sc1  1  0.32925100  0.67074900  0.17337100  1
  Sc  Sc2  1  0.32925100  0.67074900  0.82662900  1
  Sc  Sc3  1  0.66662200  0.33337800  0.70497900  1
  Al  Al0  1  0.00620900  0.99379100  0.23053600  1
  Al  Al1  1  0.00620900  0.99379100  0.76946400  1
  Al  Al2  1  0.65675000  0.83399600  0.50000000  1
  Al  Al3  1  0.16600400  0.34325000  0.50000000  1
  Co  Co0  1  0.16570100  0.83429900  0.50000000  1
  Co  Co1  1  0.35813000  0.17664100  0.00000000  1
  Co  Co2  1  0.82335900  0.64187000  0.00000000  1
  Co  Co3  1  0.82602100  0.17397900  0.00000000  1
loop_
_geom_bond_atom_site_label_1
_geom_bond_atom_site_label_2
_geom_bond_distance
_geom_bond_site_symmetry_2
Sc0 Sc1 3.128697 1_655
Sc0 Sc1 3.128697 1_545
Sc0 Sc1 3.135321 1_555
Sc1 Sc2 2.824040 1_554
Sc2 Sc3 3.128697 1_455
Sc2 Sc3 3.128697 1_565
Sc2 Sc3 3.135321 1_555
Al0 Co2 2.451854 1_455
Al0 Co1 2.451854 1_565
Al0 Co3 2.459574 1_465
Al0 Co0 2.606545 1_555
Al0 Al3 2.695630 1_565
Al0 Al2 2.695630 1_455
Al0 Sc1 2.886119 1_555
Al0 Sc0 3.004544 1_565
Al0 Sc0 3.004544 1_455
Al0 Sc0 3.039911 1_465
Al0 Sc1 3.066294 1_565
Al0 Sc1 3.066294 1_455
Al1 Co2 2.451854 1_456
Al1 Co1 2.451854 1_566
Al1 Co3 2.459574 1_466
Al1 Co0 2.606545 1_555
Al1 Al2 2.695630 1_455
Al1 Al3 2.695630 1_565
Al1 Sc2 2.886119 1_555
Al1 Sc3 3.004544 1_565
Al1 Sc3 3.004544 1_455
Al1 Sc3 3.039911 1_465
Al1 Sc2 3.066294 1_565
Al1 Sc2 3.066294 1_455
Al2 Co0 2.513589 1_555
Al2 Al3 2.550171 1_555
Al2 Co0 2.603696 1_655
Al2 Al3 2.646349 1_665
Al2 Sc3 3.032330 1_565
Al2 Sc0 3.032330 1_565
Al2 Sc2 3.037600 1_555
Al2 Sc1 3.037600 1_555
Al2 Sc0 3.078610 1_555
Al2 Sc3 3.078610 1_555
Al3 Co0 2.513589 1_555
Al3 Co0 2.603696 1_545
Al3 Sc0 3.032330 1_455
Al3 Sc3 3.032330 1_455
Al3 Sc2 3.037600 1_555
Al3 Sc1 3.037600 1_555
Al3 Sc3 3.078610 1_555
Al3 Sc0 3.078610 1_555
Co0 Sc2 3.025942 1_555
Co0 Sc1 3.025942 1_555
Co0 Sc0 3.088379 1_565
Co0 Sc3 3.088379 1_565
Co0 Sc3 3.088379 1_455
Co0 Sc0 3.088379 1_455
Co1 Co3 2.400960 1_555
Co1 Co2 2.417572 1_555
Co1 Co3 2.716381 1_455
Co1 Sc0 2.771677 1_555
Co1 Sc3 2.771677 1_554
Co1 Co2 2.778948 1_445
Co1 Sc2 2.889092 1_544
Co1 Sc1 2.889092 1_545
Co1 Sc1 2.961573 1_555
Co1 Sc2 2.961573 1_554
Co2 Co3 2.400960 1_555
Co2 Co3 2.716381 1_565
Co2 Sc0 2.771677 1_555
Co2 Sc3 2.771677 1_554
Co2 Sc1 2.889092 1_655
Co2 Sc2 2.889092 1_654
Co2 Sc2 2.961573 1_554
Co2 Sc1 2.961573 1_555
Co3 Sc3 2.783653 1_554
Co3 Sc0 2.783653 1_555
Co3 Sc2 2.957290 1_654
Co3 Sc1 2.957290 1_655
Co3 Sc1 2.957290 1_545
Co3 Sc2 2.957290 1_544
