# generated using pymatgen
data_U2PS
_symmetry_space_group_name_H-M   'P 1'
_cell_length_a   7.20265436
_cell_length_b   7.20265436
_cell_length_c   7.20265415
_cell_angle_alpha   31.25209365
_cell_angle_beta   31.25209365
_cell_angle_gamma   31.25208973
_symmetry_Int_Tables_number   1
_chemical_formula_structural   U2PS
_chemical_formula_sum   'U2 P1 S1'
_cell_volume   89.25525251
_cell_formula_units_Z   1
loop_
 _symmetry_equiv_pos_site_id
 _symmetry_equiv_pos_as_xyz
  1  'x, y, z'
loop_
 _atom_site_type_symbol
 _atom_site_label
 _atom_site_symmetry_multiplicity
 _atom_site_fract_x
 _atom_site_fract_y
 _atom_site_fract_z
 _atom_site_occupancy
  U  U0  1  0.25052959  0.25052959  0.25052959  1
  U  U1  1  0.74947041  0.74947041  0.74947041  1
  P  P0  1  -0.00000000  -0.00000000  -0.00000000  1
  S  S0  1  0.50000000  0.50000000  0.50000000  1
loop_
_geom_bond_atom_site_label_1
_geom_bond_atom_site_label_2
_geom_bond_distance
_geom_bond_site_symmetry_2
P0 U0 2.812511 1_455
P0 U1 2.812511 1_454
P0 U1 2.812511 1_544
P0 U0 2.812511 1_545
P0 U0 2.812511 1_554
P0 U1 2.812511 1_445
S0 U1 2.825716 1_545
S0 U1 2.825716 1_455
S0 U0 2.825716 1_655
S0 U0 2.825716 1_565
S0 U1 2.825716 1_554
S0 U0 2.825716 1_556
