# generated using pymatgen
data_Mn4BiSb3
_symmetry_space_group_name_H-M   'P 1'
_cell_length_a   4.16427632
_cell_length_b   7.18801300
_cell_length_c   5.66327700
_cell_angle_alpha   90.00000000
_cell_angle_beta   90.00000000
_cell_angle_gamma   89.95213323
_symmetry_Int_Tables_number   1
_chemical_formula_structural   Mn4BiSb3
_chemical_formula_sum   'Mn4 Bi1 Sb3'
_cell_volume   169.51808832
_cell_formula_units_Z   1
loop_
 _symmetry_equiv_pos_site_id
 _symmetry_equiv_pos_as_xyz
  1  'x, y, z'
loop_
 _atom_site_type_symbol
 _atom_site_label
 _atom_site_symmetry_multiplicity
 _atom_site_fract_x
 _atom_site_fract_y
 _atom_site_fract_z
 _atom_site_occupancy
  Mn  Mn0  1  0.00006400  0.99244200  0.49435200  1
  Mn  Mn1  1  0.49998200  0.50737700  0.49671300  1
  Mn  Mn2  1  0.00006400  0.99244200  0.00564800  1
  Mn  Mn3  1  0.49998200  0.50737700  0.00328700  1
  Bi  Bi0  1  0.49988900  0.16710000  0.75000000  1
  Sb  Sb0  1  0.99987800  0.66562300  0.75000000  1
  Sb  Sb1  1  0.00002300  0.33275700  0.25000000  1
  Sb  Sb2  1  0.50011800  0.83488000  0.25000000  1
loop_
_geom_bond_atom_site_label_1
_geom_bond_atom_site_label_2
_geom_bond_distance
_geom_bond_site_symmetry_2
Mn0 Sb2 2.744080 1_555
Mn0 Sb2 2.745175 1_455
Mn0 Sb0 2.759490 1_455
Mn0 Sb1 2.810486 1_565
Mn1 Sb2 2.737508 1_555
Mn1 Sb0 2.772110 1_455
Mn1 Sb0 2.772887 1_555
Mn1 Sb1 2.803440 1_655
Mn1 Sb1 2.804744 1_555
Mn2 Sb2 2.744080 1_555
Mn2 Sb2 2.745175 1_455
Mn2 Sb0 2.759490 1_454
Mn2 Sb1 2.810486 1_565
Mn3 Sb2 2.737508 1_555
Mn3 Sb0 2.772110 1_454
Mn3 Sb0 2.772887 1_554
Mn3 Sb1 2.803440 1_655
Mn3 Sb1 2.804744 1_555
Bi0 Mn2 2.829531 1_646
Bi0 Mn0 2.829531 1_645
Bi0 Mn2 2.830002 1_546
Bi0 Mn0 2.830002 1_545
Bi0 Mn3 2.835508 1_556
Bi0 Mn1 2.835508 1_555
