# generated using pymatgen
data_MgSi2
_symmetry_space_group_name_H-M   'P 1'
_cell_length_a   3.68668900
_cell_length_b   7.52988829
_cell_length_c   8.38787707
_cell_angle_alpha   102.56168170
_cell_angle_beta   94.86344805
_cell_angle_gamma   91.33807021
_symmetry_Int_Tables_number   1
_chemical_formula_structural   MgSi2
_chemical_formula_sum   'Mg4 Si8'
_cell_volume   226.24912455
_cell_formula_units_Z   4
loop_
 _symmetry_equiv_pos_site_id
 _symmetry_equiv_pos_as_xyz
  1  'x, y, z'
loop_
 _atom_site_type_symbol
 _atom_site_label
 _atom_site_symmetry_multiplicity
 _atom_site_fract_x
 _atom_site_fract_y
 _atom_site_fract_z
 _atom_site_occupancy
  Mg  Mg0  1  0.55653900  0.98934200  0.90321200  1
  Mg  Mg1  1  0.50638500  0.66542200  0.52535800  1
  Mg  Mg2  1  0.00975900  0.00680400  0.48178100  1
  Mg  Mg3  1  0.08220300  0.35988000  0.97383800  1
  Si  Si0  1  0.03265500  0.69859400  0.79696400  1
  Si  Si1  1  0.87910800  0.35042600  0.32887500  1
  Si  Si2  1  0.55503100  0.22078900  0.69889800  1
  Si  Si3  1  0.46605100  0.85026600  0.22091500  1
  Si  Si4  1  0.97018700  0.65639600  0.26581900  1
  Si  Si5  1  0.04150600  0.38978700  0.62284000  1
  Si  Si6  1  0.34247800  0.16880600  0.20882400  1
  Si  Si7  1  0.57384700  0.64348800  0.97267700  1
loop_
_geom_bond_atom_site_label_1
_geom_bond_atom_site_label_2
_geom_bond_distance
_geom_bond_site_symmetry_2
Mg0 Si2 2.696710 1_565
Mg0 Si7 2.790545 1_555
Mg0 Si6 2.811789 1_566
Mg0 Si0 2.824806 1_555
Mg0 Si0 2.874777 1_655
Mg0 Si3 3.107692 1_556
Mg0 Mg3 3.274932 1_665
Mg0 Mg3 3.298222 1_565
Mg1 Si4 2.802008 1_455
Mg1 Si0 2.827946 1_655
Mg1 Si4 2.870514 1_555
Mg1 Si5 2.953523 1_555
Mg1 Si0 2.958096 1_555
Mg1 Si1 3.010985 1_555
Mg1 Si5 3.086133 1_655
Mg1 Si3 3.157804 1_555
Mg1 Mg2 3.238253 1_665
Mg1 Mg2 3.257096 1_565
Mg2 Si2 2.811668 1_555
Mg2 Si2 2.844418 1_455
Mg2 Si4 2.850037 1_445
Mg2 Si5 2.864716 1_555
Mg2 Si3 2.866917 1_445
Mg2 Si3 2.932895 1_545
Mg2 Si6 3.139395 1_555
Mg2 Si1 3.157330 1_455
Mg3 Si7 2.770771 1_555
Mg3 Si6 2.802336 1_556
Mg3 Si7 2.875052 1_455
Mg3 Si2 2.878696 1_455
Mg3 Si5 2.992689 1_555
Mg3 Si4 2.998288 1_456
Mg3 Si2 3.028240 1_555
Mg3 Si1 3.146749 1_456
Mg3 Si0 3.218865 1_555
Si0 Si7 2.421056 1_455
Si0 Si5 2.464857 1_555
Si0 Si7 2.476156 1_555
Si1 Si6 2.367347 1_655
Si1 Si6 2.394808 1_555
Si1 Si5 2.439198 1_655
Si1 Si4 2.494909 1_555
Si2 Si5 2.384005 1_655
Si2 Si5 2.423104 1_555
Si3 Si7 2.382592 1_554
Si3 Si4 2.417883 1_455
Si3 Si4 2.444277 1_555
Si3 Si6 2.473861 1_565
Si4 Si7 2.733239 1_554
