# generated using pymatgen
data_Lu(Ni2P)2
_symmetry_space_group_name_H-M   'P 1'
_cell_length_a   7.01121500
_cell_length_b   7.01121500
_cell_length_c   3.57954200
_cell_angle_alpha   90.00000000
_cell_angle_beta   90.00000000
_cell_angle_gamma   90.00000000
_symmetry_Int_Tables_number   1
_chemical_formula_structural   Lu(Ni2P)2
_chemical_formula_sum   'Lu2 Ni8 P4'
_cell_volume   175.96003211
_cell_formula_units_Z   2
loop_
 _symmetry_equiv_pos_site_id
 _symmetry_equiv_pos_as_xyz
  1  'x, y, z'
loop_
 _atom_site_type_symbol
 _atom_site_label
 _atom_site_symmetry_multiplicity
 _atom_site_fract_x
 _atom_site_fract_y
 _atom_site_fract_z
 _atom_site_occupancy
  Lu  Lu0  1  0.50000000  0.50000000  0.00000000  1
  Lu  Lu1  1  0.00000000  0.00000000  0.50000000  1
  Ni  Ni0  1  0.16434900  0.58492000  0.50000000  1
  Ni  Ni1  1  0.83565100  0.41508000  0.50000000  1
  Ni  Ni2  1  0.33565100  0.08492000  0.00000000  1
  Ni  Ni3  1  0.66434900  0.91508000  0.00000000  1
  Ni  Ni4  1  0.58492000  0.16434900  0.50000000  1
  Ni  Ni5  1  0.41508000  0.83565100  0.50000000  1
  Ni  Ni6  1  0.08492000  0.33565100  0.00000000  1
  Ni  Ni7  1  0.91508000  0.66434900  0.00000000  1
  P  P0  1  0.71943800  0.71943800  0.50000000  1
  P  P1  1  0.28056200  0.28056200  0.50000000  1
  P  P2  1  0.78056200  0.21943800  0.00000000  1
  P  P3  1  0.21943800  0.78056200  0.00000000  1
loop_
_geom_bond_atom_site_label_1
_geom_bond_atom_site_label_2
_geom_bond_distance
_geom_bond_site_symmetry_2
Lu0 P3 2.781872 1_555
Lu0 P2 2.781872 1_555
Lu0 P1 2.817341 1_555
Lu0 P0 2.817341 1_555
Lu0 P0 2.817341 1_554
Lu0 P1 2.817341 1_554
Lu1 P0 2.781872 1_445
Lu1 P1 2.781872 1_555
Lu1 P2 2.817341 1_456
Lu1 P2 2.817341 1_455
Lu1 P3 2.817341 1_546
Lu1 P3 2.817341 1_545
Ni0 P1 2.284185 1_555
Ni0 P3 2.287792 1_555
Ni0 P3 2.287792 1_556
Ni1 P0 2.284185 1_555
Ni1 P2 2.287792 1_555
Ni1 P2 2.287792 1_556
Ni2 P3 2.284185 1_545
Ni2 P1 2.287792 1_554
Ni2 P1 2.287792 1_555
Ni3 P2 2.284185 1_565
Ni3 P0 2.287792 1_555
Ni3 P0 2.287792 1_554
Ni4 P1 2.284185 1_555
Ni4 P2 2.287792 1_555
Ni4 P2 2.287792 1_556
Ni5 P0 2.284185 1_555
Ni5 P3 2.287792 1_556
Ni5 P3 2.287792 1_555
Ni6 P2 2.284185 1_455
Ni6 P1 2.287792 1_554
Ni6 P1 2.287792 1_555
Ni7 P3 2.284185 1_655
Ni7 P0 2.287792 1_555
Ni7 P0 2.287792 1_554
