# generated using pymatgen
data_Nb2S4Cl9O5
_symmetry_space_group_name_H-M   'P 1'
_cell_length_a   7.63868200
_cell_length_b   7.58204300
_cell_length_c   10.23031309
_cell_angle_alpha   111.75061744
_cell_angle_beta   111.92149168
_cell_angle_gamma   90.00000000
_symmetry_Int_Tables_number   1
_chemical_formula_structural   Nb2S4Cl9O5
_chemical_formula_sum   'Nb2 S4 Cl9 O5'
_cell_volume   503.90988562
_cell_formula_units_Z   1
loop_
 _symmetry_equiv_pos_site_id
 _symmetry_equiv_pos_as_xyz
  1  'x, y, z'
loop_
 _atom_site_type_symbol
 _atom_site_label
 _atom_site_symmetry_multiplicity
 _atom_site_fract_x
 _atom_site_fract_y
 _atom_site_fract_z
 _atom_site_occupancy
  Nb  Nb0  1  0.11852400  0.11852400  0.23704700  1
  Nb  Nb1  1  0.88147600  0.88147600  0.76295300  1
  S  S0  1  0.82364200  0.13174900  0.00000000  1
  S  S1  1  0.17635800  0.13174900  0.00000000  1
  S  S2  1  0.17635800  0.86825100  0.00000000  1
  S  S3  1  0.82364200  0.86825100  0.00000000  1
  Cl  Cl0  1  0.89354900  0.17508400  0.35016800  1
  Cl  Cl1  1  0.10645100  0.82491600  0.64983200  1
  Cl  Cl2  1  0.45661900  0.17508400  0.35016800  1
  Cl  Cl3  1  0.54338100  0.82491600  0.64983200  1
  Cl  Cl4  1  0.16229600  0.45595900  0.32459200  1
  Cl  Cl5  1  0.83770400  0.13136700  0.67540800  1
  Cl  Cl6  1  0.16229600  0.86863300  0.32459200  1
  Cl  Cl7  1  0.83770400  0.54404100  0.67540800  1
  Cl  Cl8  1  0.50000000  0.50000000  0.00000000  1
  O  O0  1  0.38297300  0.58262500  0.76594500  1
  O  O1  1  0.61702700  0.81667900  0.23405500  1
  O  O2  1  0.38297300  0.18332100  0.76594500  1
  O  O3  1  0.61702700  0.41737500  0.23405500  1
  O  O4  1  0.00000000  0.50000000  0.00000000  1
loop_
_geom_bond_atom_site_label_1
_geom_bond_atom_site_label_2
_geom_bond_distance
_geom_bond_site_symmetry_2
Nb0 S1 2.658254 1_555
Nb0 S2 2.658257 1_545
Nb0 S0 2.658258 1_455
Nb0 S3 2.658261 1_445
Nb1 S3 2.658254 1_556
Nb1 S0 2.658257 1_566
Nb1 S2 2.658258 1_656
Nb1 S1 2.658261 1_666
S0 S3 1.997853 1_545
S0 S1 2.694285 1_655
S1 S2 1.997853 1_545
S2 S3 2.694285 1_455
Cl0 Nb0 2.365078 1_655
Cl1 Nb1 2.365078 1_455
Cl2 Nb0 2.365071 1_555
Cl3 Nb1 2.365071 1_555
Cl4 Nb0 2.353243 1_555
Cl5 Nb1 2.353250 1_545
Cl6 Nb0 2.353250 1_565
Cl7 Nb1 2.353243 1_555
