# generated using pymatgen
data_H7C2SN4Cl
_symmetry_space_group_name_H-M   'P 1'
_cell_length_a   6.53472116
_cell_length_b   7.71949200
_cell_length_c   14.94568187
_cell_angle_alpha   90.00000000
_cell_angle_beta   90.20266849
_cell_angle_gamma   90.00000000
_symmetry_Int_Tables_number   1
_chemical_formula_structural   H7C2SN4Cl
_chemical_formula_sum   'H28 C8 S4 N16 Cl4'
_cell_volume   753.92613573
_cell_formula_units_Z   4
loop_
 _symmetry_equiv_pos_site_id
 _symmetry_equiv_pos_as_xyz
  1  'x, y, z'
loop_
 _atom_site_type_symbol
 _atom_site_label
 _atom_site_symmetry_multiplicity
 _atom_site_fract_x
 _atom_site_fract_y
 _atom_site_fract_z
 _atom_site_occupancy
  H  H0  1  0.15741000  0.18911200  0.41419000  1
  H  H1  1  0.84259000  0.81088800  0.58581000  1
  H  H2  1  0.84259000  0.68911200  0.08581000  1
  H  H3  1  0.15741000  0.31088800  0.91419000  1
  H  H4  1  0.47414500  0.40000300  0.16662200  1
  H  H5  1  0.52585500  0.59999700  0.83337800  1
  H  H6  1  0.52585500  0.90000300  0.33337800  1
  H  H7  1  0.47414500  0.09999700  0.66662200  1
  H  H8  1  0.11152400  0.72132400  0.09035000  1
  H  H9  1  0.88847600  0.27867600  0.90965000  1
  H  H10  1  0.88847600  0.22132400  0.40965000  1
  H  H11  1  0.11152400  0.77867600  0.59035000  1
  H  H12  1  0.71438600  0.19121700  0.03154900  1
  H  H13  1  0.28561400  0.80878300  0.96845100  1
  H  H14  1  0.28561400  0.69121700  0.46845100  1
  H  H15  1  0.71438600  0.30878300  0.53154900  1
  H  H16  1  0.32064300  0.29529800  0.03833300  1
  H  H17  1  0.67935700  0.70470200  0.96166700  1
  H  H18  1  0.67935700  0.79529800  0.46166700  1
  H  H19  1  0.32064300  0.20470200  0.53833300  1
  H  H20  1  0.44706600  0.27408600  0.26435400  1
  H  H21  1  0.55293400  0.72591400  0.73564600  1
  H  H22  1  0.55293400  0.77408600  0.23564600  1
  H  H23  1  0.44706600  0.22591400  0.76435400  1
  H  H24  1  0.14649400  0.64169900  0.36628000  1
  H  H25  1  0.85350600  0.35830100  0.63372000  1
  H  H26  1  0.85350600  0.14169900  0.13372000  1
  H  H27  1  0.14649400  0.85830100  0.86628000  1
  C  C0  1  0.01794900  0.24120600  0.03144500  1
  C  C1  1  0.98205100  0.75879400  0.96855500  1
  C  C2  1  0.98205100  0.74120600  0.46855500  1
  C  C3  1  0.01794900  0.25879400  0.53144500  1
  C  C4  1  0.23909000  0.21907900  0.16745300  1
  C  C5  1  0.76091000  0.78092100  0.83254700  1
  C  C6  1  0.76091000  0.71907900  0.33254700  1
  C  C7  1  0.23909000  0.28092100  0.66745300  1
  S  S0  1  0.10171000  0.08242900  0.23043600  1
  S  S1  1  0.89829000  0.91757100  0.76956400  1
  S  S2  1  0.89829000  0.58242900  0.26956400  1
  S  S3  1  0.10171000  0.41757100  0.73043600  1
  N  N0  1  0.19854500  0.25647800  0.07795100  1
  N  N1  1  0.80145500  0.74352200  0.92204900  1
  N  N2  1  0.80145500  0.75647800  0.42204900  1
  N  N3  1  0.19854500  0.24352200  0.57795100  1
  N  N4  1  0.40820100  0.29738700  0.19887200  1
  N  N5  1  0.59179900  0.70261300  0.80112800  1
  N  N6  1  0.59179900  0.79738700  0.30112800  1
  N  N7  1  0.40820100  0.20261300  0.69887200  1
  N  N8  1  0.02128900  0.21328100  0.44576800  1
  N  N9  1  0.97871100  0.78671900  0.55423200  1
  N  N10  1  0.97871100  0.71328100  0.05423200  1
  N  N11  1  0.02128900  0.28671900  0.94576800  1
  N  N12  1  0.15435800  0.68894100  0.43038800  1
  N  N13  1  0.84564200  0.31105900  0.56961200  1
  N  N14  1  0.84564200  0.18894100  0.06961200  1
  N  N15  1  0.15435800  0.81105900  0.93038800  1
  Cl  Cl0  1  0.51478900  0.20516500  0.41725800  1
  Cl  Cl1  1  0.48521100  0.79483500  0.58274200  1
  Cl  Cl2  1  0.48521100  0.70516500  0.08274200  1
  Cl  Cl3  1  0.51478900  0.29483500  0.91725800  1
loop_
_geom_bond_atom_site_label_1
_geom_bond_atom_site_label_2
_geom_bond_distance
_geom_bond_site_symmetry_2
H0 N8 1.025550 1_555
H1 N9 1.025550 1_555
H2 N10 1.025550 1_555
H3 N11 1.025550 1_555
H4 N4 1.023220 1_555
H5 N5 1.023220 1_555
H6 N6 1.023220 1_555
H7 N7 1.023220 1_555
H8 N10 1.022339 1_455
H9 N11 1.022339 1_655
H10 N8 1.022339 1_655
H11 N9 1.022339 1_455
H12 N14 1.027699 1_555
H13 N15 1.027699 1_555
H14 N12 1.027699 1_555
H15 N13 1.027699 1_555
H16 N0 1.039401 1_555
H17 N1 1.039401 1_555
H18 N2 1.039401 1_555
H19 N3 1.039401 1_555
H20 N4 1.026108 1_555
H21 N5 1.026108 1_555
H22 N6 1.026108 1_555
H23 N7 1.026108 1_555
H24 N12 1.026311 1_555
H25 N13 1.026311 1_555
H26 N14 1.026311 1_555
H27 N15 1.026311 1_555
C0 N14 1.326854 1_455
C0 N11 1.328080 1_554
C0 N0 1.372571 1_555
C1 N15 1.326854 1_655
C1 N10 1.328080 1_556
C1 N1 1.372571 1_555
C2 N12 1.326854 1_655
C2 N9 1.328080 1_555
C2 N2 1.372571 1_555
C3 N13 1.326854 1_455
C3 N8 1.328080 1_555
C3 N3 1.372571 1_555
C4 N4 1.342938 1_555
C4 N0 1.392981 1_555
C4 S0 1.676530 1_555
C5 N5 1.342938 1_555
C5 N1 1.392981 1_555
C5 S1 1.676530 1_555
C6 N6 1.342938 1_555
C6 N2 1.392981 1_555
C6 S2 1.676530 1_555
C7 N7 1.342938 1_555
C7 N3 1.392981 1_555
C7 S3 1.676530 1_555
