# generated using pymatgen
data_BaMg2V2O8
_symmetry_space_group_name_H-M   'P 1'
_cell_length_a   9.90113152
_cell_length_b   9.90113152
_cell_length_c   9.90113152
_cell_angle_alpha   100.91691250
_cell_angle_beta   100.91691250
_cell_angle_gamma   128.40596919
_symmetry_Int_Tables_number   1
_chemical_formula_structural   BaMg2V2O8
_chemical_formula_sum   'Ba4 Mg8 V8 O32'
_cell_volume   684.81313914
_cell_formula_units_Z   4
loop_
 _symmetry_equiv_pos_site_id
 _symmetry_equiv_pos_as_xyz
  1  'x, y, z'
loop_
 _atom_site_type_symbol
 _atom_site_label
 _atom_site_symmetry_multiplicity
 _atom_site_fract_x
 _atom_site_fract_y
 _atom_site_fract_z
 _atom_site_occupancy
  Ba  Ba0  1  0.00000000  0.00000000  0.00000000  1
  Ba  Ba1  1  0.25000000  0.75000000  0.50000000  1
  Ba  Ba2  1  0.50000000  0.50000000  0.00000000  1
  Ba  Ba3  1  0.75000000  0.25000000  0.50000000  1
  Mg  Mg0  1  0.58187400  0.91812600  0.00000000  1
  Mg  Mg1  1  0.83187400  0.33187400  0.16374700  1
  Mg  Mg2  1  0.16812600  0.66812600  0.83625300  1
  Mg  Mg3  1  0.91812600  0.58187400  0.00000000  1
  Mg  Mg4  1  0.66812600  0.83187400  0.50000000  1
  Mg  Mg5  1  0.41812600  0.41812600  0.33625300  1
  Mg  Mg6  1  0.08187400  0.08187400  0.66374700  1
  Mg  Mg7  1  0.33187400  0.16812600  0.50000000  1
  V  V0  1  0.87500000  0.70589300  0.33089300  1
  V  V1  1  0.79410700  0.62500000  0.66910700  1
  V  V2  1  0.95589300  0.12500000  0.33089300  1
  V  V3  1  0.37500000  0.54410700  0.66910700  1
  V  V4  1  0.37500000  0.04410700  0.16910700  1
  V  V5  1  0.45589300  0.12500000  0.83089300  1
  V  V6  1  0.29410700  0.62500000  0.16910700  1
  V  V7  1  0.87500000  0.20589300  0.83089300  1
  O  O0  1  0.38094000  0.22156600  0.16449000  1
  O  O1  1  0.05707600  0.21645000  0.83551000  1
  O  O2  1  0.46645000  0.13094000  0.65937400  1
  O  O3  1  0.47156600  0.80707600  0.34062600  1
  O  O4  1  0.69292400  0.02843400  0.65937400  1
  O  O5  1  0.28355000  0.44292400  0.16449000  1
  O  O6  1  0.27843400  0.11906000  0.83551000  1
  O  O7  1  0.36906000  0.03355000  0.34062600  1
  O  O8  1  0.86906000  0.52843400  0.33551000  1
  O  O9  1  0.19292400  0.53355000  0.66449000  1
  O  O10  1  0.78355000  0.61906000  0.84062600  1
  O  O11  1  0.77843400  0.94292400  0.15937400  1
  O  O12  1  0.55707600  0.72156600  0.84062600  1
  O  O13  1  0.96645000  0.30707600  0.33551000  1
  O  O14  1  0.97156600  0.63094000  0.66449000  1
  O  O15  1  0.88094000  0.71645000  0.15937400  1
  O  O16  1  0.43691400  0.60048000  0.51900000  1
  O  O17  1  0.08148100  0.91791400  0.48100000  1
  O  O18  1  0.16791400  0.18691400  0.33643300  1
  O  O19  1  0.85048000  0.83148100  0.66356700  1
  O  O20  1  0.93691400  0.41791400  0.83643300  1
  O  O21  1  0.35048000  0.68691400  0.01900000  1
  O  O22  1  0.66791400  0.33148100  0.98100000  1
  O  O23  1  0.58148100  0.10048000  0.16356700  1
  O  O24  1  0.39952000  0.91851900  0.83643300  1
  O  O25  1  0.08208600  0.56308600  0.16356700  1
  O  O26  1  0.16851900  0.83208600  0.01900000  1
  O  O27  1  0.81308600  0.14952000  0.98100000  1
  O  O28  1  0.31308600  0.33208600  0.66356700  1
  O  O29  1  0.89952000  0.06308600  0.48100000  1
  O  O30  1  0.58208600  0.41851900  0.51900000  1
  O  O31  1  0.66851900  0.64952000  0.33643300  1
loop_
_geom_bond_atom_site_label_1
_geom_bond_atom_site_label_2
_geom_bond_distance
_geom_bond_site_symmetry_2
Ba0 O10 2.780394 1_444
Ba0 O11 2.780394 1_445
Ba0 O1 2.780394 1_554
Ba0 O0 2.780394 1_555
Ba0 O19 3.004922 1_444
Ba0 O18 3.004922 1_555
Ba0 O26 3.004922 1_545
Ba0 O27 3.004931 1_454
Ba0 O12 3.167360 1_444
Ba0 O5 3.167360 1_555
Ba0 O6 3.167360 1_554
Ba0 O15 3.167360 1_445
Ba1 O9 2.780394 1_555
Ba1 O8 2.780394 1_455
Ba1 O3 2.780394 1_555
Ba1 O2 2.780394 1_565
Ba1 O24 3.004922 1_555
Ba1 O25 3.004922 1_555
Ba1 O17 3.004922 1_555
Ba1 O16 3.004931 1_555
Ba1 O7 3.167360 1_565
Ba1 O4 3.167360 1_565
Ba1 O14 3.167360 1_455
Ba1 O13 3.167360 1_455
Ba2 O12 2.780394 1_554
Ba2 O5 2.780394 1_555
Ba2 O6 2.780394 1_554
Ba2 O15 2.780394 1_555
Ba2 O31 3.004922 1_555
Ba2 O28 3.004922 1_554
Ba2 O22 3.004922 1_554
Ba2 O21 3.004931 1_555
Ba2 O11 3.167360 1_555
Ba2 O10 3.167360 1_554
Ba2 O1 3.167360 1_554
Ba2 O0 3.167360 1_555
Ba3 O7 2.780394 1_555
Ba3 O13 2.780394 1_555
Ba3 O14 2.780394 1_555
Ba3 O4 2.780394 1_555
Ba3 O23 3.004922 1_555
Ba3 O20 3.004922 1_555
Ba3 O30 3.004922 1_555
Ba3 O29 3.004931 1_555
Ba3 O9 3.167360 1_655
Ba3 O8 3.167360 1_555
Ba3 O2 3.167360 1_555
Ba3 O3 3.167360 1_545
Mg0 O27 2.082053 1_564
Mg0 O21 2.082053 1_555
Mg0 O11 2.105759 1_555
Mg0 O12 2.105759 1_554
Mg0 O24 2.187748 1_554
Mg0 O23 2.187748 1_565
Mg1 O25 2.082044 1_655
Mg1 O23 2.082056 1_555
Mg1 O8 2.105765 1_555
Mg1 O13 2.105766 1_555
Mg1 O27 2.187742 1_554
Mg1 O22 2.187748 1_554
Mg2 O20 2.082044 1_455
Mg2 O24 2.082056 1_555
Mg2 O14 2.105765 1_455
Mg2 O9 2.105766 1_555
Mg2 O21 2.187742 1_556
Mg2 O26 2.187748 1_556
Mg3 O26 2.082049 1_655
Mg3 O22 2.082049 1_554
Mg3 O10 2.105759 1_554
Mg3 O15 2.105759 1_555
Mg3 O20 2.187755 1_554
Mg3 O25 2.187755 1_655
Mg4 O29 2.082053 1_565
Mg4 O16 2.082053 1_555
Mg4 O4 2.105759 1_565
Mg4 O3 2.105759 1_555
Mg4 O31 2.187748 1_555
Mg4 O19 2.187748 1_555
Mg5 O18 2.082044 1_555
Mg5 O31 2.082056 1_555
Mg5 O0 2.105765 1_555
Mg5 O5 2.105766 1_555
Mg5 O16 2.187742 1_555
Mg5 O30 2.187748 1_555
Mg6 O28 2.082044 1_555
Mg6 O19 2.082056 1_445
Mg6 O6 2.105765 1_555
Mg6 O1 2.105766 1_555
Mg6 O29 2.187742 1_455
Mg6 O17 2.187748 1_545
Mg7 O30 2.082049 1_555
Mg7 O17 2.082049 1_545
Mg7 O2 2.105759 1_555
Mg7 O7 2.105759 1_555
Mg7 O28 2.187755 1_555
Mg7 O18 2.187755 1_555
O0 V4 1.730840 1_555
O1 V7 1.730840 1_455
O2 V5 1.730840 1_555
O3 V6 1.730840 1_555
O4 V7 1.730840 1_555
O5 V6 1.730840 1_555
O6 V5 1.730840 1_555
O7 V4 1.730840 1_555
O8 V0 1.730840 1_555
O9 V3 1.730840 1_555
O10 V1 1.730840 1_555
O11 V2 1.730840 1_565
O12 V3 1.730840 1_555
O13 V2 1.730840 1_555
O14 V1 1.730840 1_555
O15 V0 1.730840 1_555
O16 V3 1.769290 1_555
O17 V0 1.769293 1_455
O18 V2 1.769293 1_455
O19 V1 1.769297 1_555
O20 V7 1.769293 1_555
O21 V6 1.769290 1_555
O22 V5 1.769293 1_555
O23 V4 1.769297 1_555
O24 V5 1.769297 1_565
O25 V6 1.769293 1_555
O26 V4 1.769293 1_565
O27 V7 1.769290 1_555
O28 V3 1.769293 1_555
O29 V2 1.769290 1_555
O30 V1 1.769293 1_555
O31 V0 1.769297 1_555
