# generated using pymatgen
data_ZrGaRh2
_symmetry_space_group_name_H-M   'P 1'
_cell_length_a   10.67028649
_cell_length_b   10.67028649
_cell_length_c   10.67028649
_cell_angle_alpha   127.69315952
_cell_angle_beta   117.56648202
_cell_angle_gamma   85.74416211
_symmetry_Int_Tables_number   1
_chemical_formula_structural   ZrGaRh2
_chemical_formula_sum   'Zr1 Ga1 Rh2'
_cell_volume   813.57601228
_cell_formula_units_Z   1
loop_
 _symmetry_equiv_pos_site_id
 _symmetry_equiv_pos_as_xyz
  1  'x, y, z'
loop_
 _atom_site_type_symbol
 _atom_site_label
 _atom_site_symmetry_multiplicity
 _atom_site_fract_x
 _atom_site_fract_y
 _atom_site_fract_z
 _atom_site_occupancy
  Zr  Zr0  1  0.00000000  0.50000000  0.50000000  1
  Ga  Ga0  1  0.00000000  0.00000000  0.00000000  1
  Rh  Rh0  1  0.00000000  0.26463600  0.26463600  1
  Rh  Rh1  1  0.00000000  0.73536400  0.73536400  1
loop_
_geom_bond_atom_site_label_1
_geom_bond_atom_site_label_2
_geom_bond_distance
_geom_bond_site_symmetry_2
Ga0 Rh0 2.489277 1_555
Ga0 Rh1 2.489277 1_544
Rh0 Zr0 2.213932 1_555
Rh1 Zr0 2.213932 1_555
