# generated using pymatgen
data_Ba2Tl2Zn3(NiO3)4
_symmetry_space_group_name_H-M   'P 1'
_cell_length_a   23.42496758
_cell_length_b   23.42496758
_cell_length_c   3.61927826
_cell_angle_alpha   85.68183822
_cell_angle_beta   85.68183822
_cell_angle_gamma   9.10828753
_symmetry_Int_Tables_number   1
_chemical_formula_structural   Ba2Tl2Zn3(NiO3)4
_chemical_formula_sum   'Ba2 Tl2 Zn3 Ni4 O12'
_cell_volume   313.48798061
_cell_formula_units_Z   1
loop_
 _symmetry_equiv_pos_site_id
 _symmetry_equiv_pos_as_xyz
  1  'x, y, z'
loop_
 _atom_site_type_symbol
 _atom_site_label
 _atom_site_symmetry_multiplicity
 _atom_site_fract_x
 _atom_site_fract_y
 _atom_site_fract_z
 _atom_site_occupancy
  Ba  Ba0  1  0.84369200  0.84369200  0.16639600  1
  Ba  Ba1  1  0.15856200  0.15856200  0.83853700  1
  Tl  Tl0  1  0.27788700  0.27788700  0.72295300  1
  Tl  Tl1  1  0.72526500  0.72526500  0.27488200  1
  Zn  Zn0  1  0.92680400  0.92680400  0.06690200  1
  Zn  Zn1  1  0.06949400  0.06949400  0.92876900  1
  Zn  Zn2  1  0.99892800  0.99892800  0.99991700  1
  Ni  Ni0  1  0.46227600  0.46227600  0.53160200  1
  Ni  Ni1  1  0.60226800  0.60226800  0.39576100  1
  Ni  Ni2  1  0.39625500  0.39625500  0.61020700  1
  Ni  Ni3  1  0.53218800  0.53218800  0.46794500  1
  O  O0  1  0.62099700  0.62099700  0.87705300  1
  O  O1  1  0.48054200  0.48054200  0.01203700  1
  O  O2  1  0.77129500  0.77129500  0.22968700  1
  O  O3  1  0.01982100  0.01982100  0.47933000  1
  O  O4  1  0.23215000  0.23215000  0.76691700  1
  O  O5  1  0.88331700  0.88331700  0.62845200  1
  O  O6  1  0.40854900  0.40854900  0.09814300  1
  O  O7  1  0.68113100  0.68113100  0.31637700  1
  O  O8  1  0.08909500  0.08909500  0.40920900  1
  O  O9  1  0.94931700  0.94931700  0.54476100  1
  O  O10  1  0.55099500  0.55099500  0.94941300  1
  O  O11  1  0.32226700  0.32226700  0.68475000  1
loop_
_geom_bond_atom_site_label_1
_geom_bond_atom_site_label_2
_geom_bond_distance
_geom_bond_site_symmetry_2
Ba0 O5 2.582827 1_554
Ba0 O5 2.586257 1_555
Ba0 O11 2.774296 1_655
Ba0 O11 2.774296 1_565
Ba0 O11 2.786207 1_654
Ba0 O11 2.786207 1_564
Ba1 O0 2.553381 1_545
Ba1 O0 2.553381 1_455
Ba1 O7 2.799421 1_546
Ba1 O7 2.799421 1_456
Ba1 O7 2.800184 1_545
Ba1 O7 2.800184 1_455
Ni0 O9 1.955423 1_455
Ni0 O9 1.955423 1_545
Ni0 O1 1.993819 1_556
Ni0 O1 2.005361 1_555
Ni1 O8 1.958522 1_565
Ni1 O8 1.958522 1_655
Ni1 O0 2.007376 1_555
Ni1 O0 2.010334 1_554
Ni2 O6 1.897761 1_556
Ni2 O6 1.898324 1_555
Ni2 O5 1.955227 1_545
Ni2 O5 1.955227 1_455
Ni3 O3 1.947092 1_655
Ni3 O3 1.947092 1_565
Ni3 O10 2.009778 1_555
Ni3 O10 2.011091 1_554
O1 Zn2 2.047687 1_454
O1 Zn2 2.047687 1_544
O2 Tl1 2.143553 1_555
O2 Tl0 2.612368 1_565
O2 Tl0 2.612368 1_655
O2 Tl0 2.613918 1_654
O2 Tl0 2.613918 1_564
O3 Zn2 2.053902 1_444
O3 Zn2 2.055327 1_445
O4 Tl0 2.129909 1_555
O4 Tl1 2.611641 1_455
O4 Tl1 2.611641 1_545
O4 Tl1 2.617925 1_546
O4 Tl1 2.617925 1_456
O6 Zn0 2.045615 1_545
O6 Zn0 2.045615 1_455
O7 Tl1 2.055266 1_555
O8 Zn1 2.025343 1_554
O8 Zn1 2.028288 1_555
O9 Zn0 2.090774 1_555
O9 Zn0 2.092017 1_556
O10 Zn1 2.049807 1_655
O10 Zn1 2.049807 1_565
O11 Tl0 2.066796 1_555
