# generated using pymatgen
data_Er3(SbPd2)4
_symmetry_space_group_name_H-M   'P 1'
_cell_length_a   9.37386428
_cell_length_b   9.37386428
_cell_length_c   9.37386428
_cell_angle_alpha   60.00000000
_cell_angle_beta   60.00000000
_cell_angle_gamma   60.00000000
_symmetry_Int_Tables_number   1
_chemical_formula_structural   Er3(SbPd2)4
_chemical_formula_sum   'Er6 Sb8 Pd16'
_cell_volume   582.42631154
_cell_formula_units_Z   2
loop_
 _symmetry_equiv_pos_site_id
 _symmetry_equiv_pos_as_xyz
  1  'x, y, z'
loop_
 _atom_site_type_symbol
 _atom_site_label
 _atom_site_symmetry_multiplicity
 _atom_site_fract_x
 _atom_site_fract_y
 _atom_site_fract_z
 _atom_site_occupancy
  Er  Er0  1  0.72435400  0.72435400  0.27564600  1
  Er  Er1  1  0.27564600  0.72435400  0.27564600  1
  Er  Er2  1  0.72435400  0.27564600  0.27564600  1
  Er  Er3  1  0.27564600  0.27564600  0.72435400  1
  Er  Er4  1  0.72435400  0.27564600  0.72435400  1
  Er  Er5  1  0.27564600  0.72435400  0.72435400  1
  Sb  Sb0  1  0.00000000  0.00000000  0.50000000  1
  Sb  Sb1  1  0.50000000  0.00000000  0.50000000  1
  Sb  Sb2  1  0.00000000  0.50000000  0.50000000  1
  Sb  Sb3  1  0.50000000  0.50000000  0.00000000  1
  Sb  Sb4  1  0.00000000  0.50000000  0.00000000  1
  Sb  Sb5  1  0.50000000  0.00000000  0.00000000  1
  Sb  Sb6  1  0.50000000  0.50000000  0.50000000  1
  Sb  Sb7  1  0.00000000  0.00000000  0.00000000  1
  Pd  Pd0  1  0.88125500  0.88125500  0.35623400  1
  Pd  Pd1  1  0.88125500  0.35623400  0.88125500  1
  Pd  Pd2  1  0.35623400  0.88125500  0.88125500  1
  Pd  Pd3  1  0.88125500  0.88125500  0.88125500  1
  Pd  Pd4  1  0.11874500  0.11874500  0.64376600  1
  Pd  Pd5  1  0.11874500  0.64376600  0.11874500  1
  Pd  Pd6  1  0.64376600  0.11874500  0.11874500  1
  Pd  Pd7  1  0.11874500  0.11874500  0.11874500  1
  Pd  Pd8  1  0.66622600  0.66622600  0.00132300  1
  Pd  Pd9  1  0.66622600  0.00132300  0.66622600  1
  Pd  Pd10  1  0.00132300  0.66622600  0.66622600  1
  Pd  Pd11  1  0.66622600  0.66622600  0.66622600  1
  Pd  Pd12  1  0.33377400  0.33377400  0.99867700  1
  Pd  Pd13  1  0.33377400  0.99867700  0.33377400  1
  Pd  Pd14  1  0.99867700  0.33377400  0.33377400  1
  Pd  Pd15  1  0.33377400  0.33377400  0.33377400  1
loop_
_geom_bond_atom_site_label_1
_geom_bond_atom_site_label_2
_geom_bond_distance
_geom_bond_site_symmetry_2
Er0 Sb6 2.974182 1_555
Er0 Pd0 3.046677 1_555
Er0 Pd3 3.046684 1_554
Er0 Pd5 3.046685 1_655
Er0 Pd6 3.046685 1_565
Er0 Pd8 3.210208 1_555
Er0 Pd14 3.210215 1_555
Er0 Pd13 3.210215 1_555
Er0 Pd11 3.210217 1_555
Er0 Sb2 3.331554 1_655
Er0 Sb1 3.331554 1_565
Er0 Sb4 3.331554 1_655
Er0 Sb5 3.331554 1_565
Er1 Sb6 2.974182 1_555
Er1 Pd5 3.046677 1_555
Er1 Pd7 3.046684 1_565
Er1 Pd2 3.046685 1_554
Er1 Pd0 3.046685 1_455
Er1 Pd13 3.210208 1_555
Er1 Pd8 3.210215 1_555
Er1 Pd10 3.210215 1_555
Er1 Pd15 3.210217 1_555
Er1 Sb5 3.331554 1_565
Er1 Sb0 3.331554 1_565
Er1 Sb2 3.331554 1_555
Er1 Sb3 3.331554 1_555
Er2 Sb6 2.974182 1_555
Er2 Pd6 3.046677 1_555
Er2 Pd7 3.046684 1_655
Er2 Pd0 3.046685 1_545
Er2 Pd1 3.046685 1_554
Er2 Pd14 3.210208 1_555
Er2 Pd8 3.210215 1_555
Er2 Pd9 3.210215 1_555
Er2 Pd15 3.210217 1_555
Er2 Sb0 3.331554 1_655
Er2 Sb4 3.331554 1_655
Er2 Sb3 3.331554 1_555
Er2 Sb1 3.331554 1_555
Er3 Sb6 2.974182 1_555
Er3 Pd4 3.046677 1_555
Er3 Pd7 3.046684 1_556
Er3 Pd2 3.046685 1_545
Er3 Pd1 3.046685 1_455
Er3 Pd12 3.210208 1_555
Er3 Pd9 3.210215 1_555
Er3 Pd10 3.210215 1_555
Er3 Pd15 3.210217 1_555
Er3 Sb4 3.331554 1_556
Er3 Sb5 3.331554 1_556
Er3 Sb1 3.331554 1_555
Er3 Sb2 3.331554 1_555
Er4 Sb6 2.974182 1_555
Er4 Pd1 3.046677 1_555
Er4 Pd3 3.046684 1_545
Er4 Pd6 3.046685 1_556
Er4 Pd4 3.046685 1_655
Er4 Pd9 3.210208 1_555
Er4 Pd12 3.210215 1_555
Er4 Pd14 3.210215 1_555
Er4 Pd11 3.210217 1_555
Er4 Sb2 3.331554 1_655
Er4 Sb3 3.331554 1_556
Er4 Sb0 3.331554 1_655
Er4 Sb5 3.331554 1_556
Er5 Sb6 2.974182 1_555
Er5 Pd2 3.046677 1_555
Er5 Pd3 3.046684 1_455
Er5 Pd5 3.046685 1_556
Er5 Pd4 3.046685 1_565
Er5 Pd10 3.210208 1_555
Er5 Pd13 3.210215 1_555
Er5 Pd12 3.210215 1_555
Er5 Pd11 3.210217 1_555
Er5 Sb3 3.331554 1_556
Er5 Sb1 3.331554 1_565
Er5 Sb4 3.331554 1_556
Er5 Sb0 3.331554 1_565
Pd0 Sb7 2.726518 1_665
Pd0 Sb1 2.921163 1_565
Pd0 Sb2 2.921163 1_655
Pd0 Sb0 2.921170 1_665
Pd1 Sb7 2.726518 1_656
Pd1 Sb3 2.921163 1_556
Pd1 Sb2 2.921163 1_655
Pd1 Sb4 2.921170 1_656
Pd2 Sb7 2.726518 1_566
Pd2 Sb3 2.921163 1_556
Pd2 Sb1 2.921163 1_565
Pd2 Sb5 2.921170 1_566
Pd3 Sb7 2.726526 1_666
Pd3 Sb5 2.921162 1_566
Pd3 Sb4 2.921162 1_656
Pd3 Sb0 2.921162 1_665
Pd4 Sb7 2.726518 1_556
Pd4 Sb1 2.921163 1_555
Pd4 Sb2 2.921163 1_555
Pd4 Sb0 2.921170 1_555
Pd5 Sb7 2.726518 1_565
Pd5 Sb3 2.921163 1_555
Pd5 Sb2 2.921163 1_555
Pd5 Sb4 2.921170 1_555
Pd6 Sb7 2.726518 1_655
Pd6 Sb3 2.921163 1_555
Pd6 Sb1 2.921163 1_555
Pd6 Sb5 2.921170 1_555
Pd7 Sb7 2.726526 1_555
Pd7 Sb0 2.921162 1_555
Pd7 Sb4 2.921162 1_555
Pd7 Sb5 2.921162 1_555
Pd8 Sb5 2.706018 1_565
Pd8 Sb4 2.706018 1_655
Pd8 Sb3 2.706026 1_555
Pd9 Sb0 2.706018 1_655
Pd9 Sb5 2.706018 1_556
Pd9 Sb1 2.706026 1_555
Pd10 Sb4 2.706018 1_556
Pd10 Sb0 2.706018 1_565
Pd10 Sb2 2.706026 1_555
Pd11 Sb2 2.706020 1_655
Pd11 Sb3 2.706020 1_556
Pd11 Sb1 2.706020 1_565
Pd12 Sb5 2.706018 1_556
Pd12 Sb4 2.706018 1_556
Pd12 Sb3 2.706026 1_556
Pd13 Sb0 2.706018 1_565
Pd13 Sb5 2.706018 1_565
Pd13 Sb1 2.706026 1_565
Pd14 Sb4 2.706018 1_655
Pd14 Sb0 2.706018 1_655
Pd14 Sb2 2.706026 1_655
Pd15 Sb3 2.706020 1_555
Pd15 Sb1 2.706020 1_555
Pd15 Sb2 2.706020 1_555
