# generated using pymatgen
data_Mn3SiNi
_symmetry_space_group_name_H-M   'P 1'
_cell_length_a   6.05351300
_cell_length_b   6.05351300
_cell_length_c   6.05351300
_cell_angle_alpha   90.00000000
_cell_angle_beta   90.00000000
_cell_angle_gamma   90.00000000
_symmetry_Int_Tables_number   1
_chemical_formula_structural   Mn3SiNi
_chemical_formula_sum   'Mn12 Si4 Ni4'
_cell_volume   221.83110278
_cell_formula_units_Z   4
loop_
 _symmetry_equiv_pos_site_id
 _symmetry_equiv_pos_as_xyz
  1  'x, y, z'
loop_
 _atom_site_type_symbol
 _atom_site_label
 _atom_site_symmetry_multiplicity
 _atom_site_fract_x
 _atom_site_fract_y
 _atom_site_fract_z
 _atom_site_occupancy
  Mn  Mn0  1  0.12328100  0.20359800  0.45470700  1
  Mn  Mn1  1  0.37671900  0.79640200  0.95470700  1
  Mn  Mn2  1  0.87671900  0.70359800  0.04529300  1
  Mn  Mn3  1  0.45470700  0.12328100  0.20359800  1
  Mn  Mn4  1  0.62328100  0.29640200  0.54529300  1
  Mn  Mn5  1  0.95470700  0.37671900  0.79640200  1
  Mn  Mn6  1  0.04529300  0.87671900  0.70359800  1
  Mn  Mn7  1  0.54529300  0.62328100  0.29640200  1
  Mn  Mn8  1  0.20359800  0.45470700  0.12328100  1
  Mn  Mn9  1  0.70359800  0.04529300  0.87671900  1
  Mn  Mn10  1  0.29640200  0.54529300  0.62328100  1
  Mn  Mn11  1  0.79640200  0.95470700  0.37671900  1
  Si  Si0  1  0.06275500  0.06275500  0.06275500  1
  Si  Si1  1  0.43724500  0.93724500  0.56275500  1
  Si  Si2  1  0.93724500  0.56275500  0.43724500  1
  Si  Si3  1  0.56275500  0.43724500  0.93724500  1
  Ni  Ni0  1  0.68671400  0.68671400  0.68671400  1
  Ni  Ni1  1  0.81328600  0.31328600  0.18671400  1
  Ni  Ni2  1  0.31328600  0.18671400  0.81328600  1
  Ni  Ni3  1  0.18671400  0.81328600  0.31328600  1
loop_
_geom_bond_atom_site_label_1
_geom_bond_atom_site_label_2
_geom_bond_distance
_geom_bond_site_symmetry_2
Mn0 Si2 2.450799 1_455
Mn0 Ni2 2.458694 1_555
Mn0 Mn11 2.531489 1_445
Mn0 Mn6 2.531489 1_545
Mn0 Mn5 2.533405 1_455
Mn0 Mn10 2.533405 1_555
Mn0 Ni3 2.542238 1_545
Mn0 Si0 2.547706 1_555
Mn0 Mn8 2.563645 1_555
Mn0 Mn3 2.563645 1_555
Mn0 Ni1 2.567921 1_455
Mn0 Si1 2.576776 1_545
Mn1 Si3 2.450799 1_555
Mn1 Ni3 2.458694 1_556
Mn1 Mn3 2.531489 1_566
Mn1 Mn9 2.531489 1_565
Mn1 Mn8 2.533405 1_556
Mn1 Mn7 2.533405 1_556
Mn1 Ni2 2.542238 1_565
Mn1 Si1 2.547706 1_555
Mn1 Mn10 2.563645 1_555
Mn1 Mn6 2.563645 1_555
Mn1 Ni0 2.567921 1_555
Mn1 Si0 2.576776 1_566
Mn2 Si0 2.450799 1_665
Mn2 Ni0 2.458694 1_554
Mn2 Mn8 2.531489 1_655
Mn2 Mn5 2.531489 1_554
Mn2 Mn9 2.533405 1_564
Mn2 Mn6 2.533405 1_654
Mn2 Ni1 2.542238 1_555
Mn2 Si2 2.547706 1_555
Mn2 Mn7 2.563645 1_555
Mn2 Ni3 2.567921 1_655
Mn2 Si3 2.576776 1_554
Mn3 Si1 2.450799 1_545
Mn3 Ni1 2.458694 1_555
Mn3 Mn9 2.531489 1_554
Mn3 Mn4 2.533405 1_555
Mn3 Ni2 2.542238 1_554
Mn3 Si0 2.547706 1_555
Mn3 Mn8 2.563645 1_555
Mn3 Ni3 2.567921 1_545
Mn3 Si3 2.576776 1_554
Mn4 Si1 2.450799 1_545
Mn4 Ni1 2.458694 1_555
Mn4 Mn7 2.531489 1_555
Mn4 Ni0 2.542238 1_555
Mn4 Si3 2.547706 1_555
Mn4 Mn5 2.563645 1_555
Mn4 Mn9 2.563645 1_555
Mn4 Ni2 2.567921 1_555
Mn4 Si2 2.576776 1_555
Mn5 Si2 2.450799 1_555
Mn5 Ni2 2.458694 1_655
Mn5 Mn8 2.531489 1_656
Mn5 Ni1 2.542238 1_556
Mn5 Si3 2.547706 1_555
Mn5 Mn9 2.563645 1_555
Mn5 Ni0 2.567921 1_555
Mn5 Si0 2.576776 1_656
Mn6 Si0 2.450799 1_566
Mn6 Ni0 2.458694 1_455
Mn6 Mn9 2.533405 1_465
Mn6 Ni3 2.542238 1_555
Mn6 Si1 2.547706 1_555
Mn6 Ni2 2.567921 1_565
Mn6 Si2 2.576776 1_455
Mn7 Si3 2.450799 1_554
Mn7 Ni3 2.458694 1_555
Mn7 Mn8 2.533405 1_555
Mn7 Ni0 2.542238 1_555
Mn7 Si2 2.547706 1_555
Mn7 Ni1 2.567921 1_555
Mn7 Si1 2.576776 1_555
Mn8 Si3 2.450799 1_554
Mn8 Ni3 2.458694 1_555
Mn8 Ni1 2.542238 1_455
Mn8 Si0 2.547706 1_555
Mn8 Ni2 2.567921 1_554
Mn8 Si2 2.576776 1_455
Mn9 Si0 2.450799 1_656
Mn9 Ni0 2.458694 1_545
Mn9 Ni2 2.542238 1_555
Mn9 Si3 2.547706 1_555
Mn9 Ni1 2.567921 1_556
Mn9 Si1 2.576776 1_545
Mn10 Si2 2.450799 1_455
Mn10 Ni2 2.458694 1_555
Mn10 Mn4 2.531489 1_555
Mn10 Mn7 2.531489 1_555
Mn10 Mn5 2.533405 1_455
Mn10 Ni0 2.542238 1_555
Mn10 Si1 2.547706 1_555
Mn10 Mn6 2.563645 1_555
Mn10 Ni3 2.567921 1_555
Mn10 Si3 2.576776 1_555
Mn11 Si1 2.450799 1_555
Mn11 Ni1 2.458694 1_565
Mn11 Mn6 2.531489 1_655
Mn11 Mn3 2.533405 1_565
Mn11 Mn4 2.533405 1_565
Mn11 Ni3 2.542238 1_655
Mn11 Si2 2.547706 1_555
Mn11 Mn7 2.563645 1_555
Mn11 Mn2 2.563645 1_555
Mn11 Ni0 2.567921 1_555
Mn11 Si0 2.576776 1_665
Ni0 Si1 2.267979 1_555
Ni0 Si3 2.267979 1_555
Ni0 Si2 2.267979 1_555
Ni1 Si3 2.267979 1_554
Ni1 Si2 2.267979 1_555
Ni1 Si0 2.267979 1_655
Ni2 Si1 2.267979 1_545
Ni2 Si3 2.267979 1_555
Ni2 Si0 2.267979 1_556
Ni3 Si2 2.267979 1_455
Ni3 Si1 2.267979 1_555
Ni3 Si0 2.267979 1_565
