# generated using pymatgen
data_Li2V5O10
_symmetry_space_group_name_H-M   'P 1'
_cell_length_a   6.39998215
_cell_length_b   8.12763111
_cell_length_c   8.35395099
_cell_angle_alpha   102.58163159
_cell_angle_beta   113.71673509
_cell_angle_gamma   90.65448396
_symmetry_Int_Tables_number   1
_chemical_formula_structural   Li2V5O10
_chemical_formula_sum   'Li4 V10 O20'
_cell_volume   385.89956618
_cell_formula_units_Z   2
loop_
 _symmetry_equiv_pos_site_id
 _symmetry_equiv_pos_as_xyz
  1  'x, y, z'
loop_
 _atom_site_type_symbol
 _atom_site_label
 _atom_site_symmetry_multiplicity
 _atom_site_fract_x
 _atom_site_fract_y
 _atom_site_fract_z
 _atom_site_occupancy
  Li  Li0  1  0.57703900  0.36175900  0.39975500  1
  Li  Li1  1  0.07349800  0.87352100  0.39551300  1
  Li  Li2  1  0.42410800  0.63687500  0.59880000  1
  Li  Li3  1  0.92385600  0.12878900  0.60542300  1
  V  V0  1  0.75357300  0.74931500  0.99748400  1
  V  V1  1  0.42206300  0.28428400  0.68534400  1
  V  V2  1  0.91333800  0.78212200  0.68461200  1
  V  V3  1  0.57683000  0.71696900  0.31324900  1
  V  V4  1  0.08751800  0.21679600  0.31352200  1
  V  V5  1  0.24931500  0.25231500  0.00440400  1
  V  V6  1  0.76848400  0.07803700  0.89728500  1
  V  V7  1  0.27314900  0.58116800  0.89185600  1
  V  V8  1  0.22198600  0.91747100  0.10336000  1
  V  V9  1  0.73189700  0.42233700  0.10925000  1
  O  O0  1  0.06764600  0.01377600  0.86863700  1
  O  O1  1  0.57001700  0.51451800  0.86815800  1
  O  O2  1  0.92389600  0.98454400  0.13642200  1
  O  O3  1  0.43557800  0.48745300  0.13345100  1
  O  O4  1  0.17075500  0.11704300  0.50988400  1
  O  O5  1  0.67804900  0.60853300  0.50320800  1
  O  O6  1  0.82679900  0.88439600  0.48997300  1
  O  O7  1  0.32307500  0.39127100  0.49415300  1
  O  O8  1  0.52191900  0.21032400  0.93988900  1
  O  O9  1  0.02747000  0.69545200  0.93541700  1
  O  O10  1  0.47995700  0.78868100  0.06216000  1
  O  O11  1  0.97307500  0.30204200  0.06090300  1
  O  O12  1  0.33729100  0.15752400  0.22316600  1
  O  O13  1  0.84858400  0.64087700  0.21626300  1
  O  O14  1  0.66423700  0.83842000  0.77540000  1
  O  O15  1  0.15675900  0.36056700  0.78646200  1
  O  O16  1  0.66292800  0.18704800  0.68006800  1
  O  O17  1  0.17239200  0.68632900  0.69157200  1
  O  O18  1  0.33167500  0.81290200  0.31697100  1
  O  O19  1  0.83124200  0.31654500  0.30798600  1
loop_
_geom_bond_atom_site_label_1
_geom_bond_atom_site_label_2
_geom_bond_distance
_geom_bond_site_symmetry_2
Li0 O5 1.988311 1_555
Li0 O19 2.064895 1_555
Li0 O7 2.068529 1_555
Li0 O12 2.083297 1_555
Li0 O3 2.490705 1_555
Li1 O4 1.971638 1_565
Li1 O6 2.024448 1_455
Li1 O18 2.037972 1_555
Li1 O13 2.204534 1_455
Li1 O2 2.370505 1_455
Li2 O7 1.980557 1_555
Li2 O17 2.059341 1_555
Li2 O14 2.070612 1_555
Li2 O5 2.074742 1_555
Li2 O1 2.496036 1_555
Li3 O6 1.979100 1_545
Li3 O4 2.031689 1_655
Li3 O16 2.031958 1_555
Li3 O15 2.222396 1_655
Li3 O0 2.417251 1_655
O0 V5 2.080074 1_556
O0 V6 2.081554 1_455
O0 V2 2.087779 1_445
O0 V8 2.135788 1_546
O1 V0 2.053934 1_555
O1 V7 2.054706 1_555
O1 V1 2.069250 1_555
O1 V9 2.165118 1_556
O2 V0 2.039231 1_554
O2 V4 2.083402 1_665
O2 V8 2.096448 1_655
O2 V6 2.153570 1_564
O3 V3 2.049783 1_555
O3 V9 2.049922 1_555
O3 V5 2.062083 1_555
O3 V7 2.175843 1_554
O4 V4 1.875722 1_555
O4 V1 1.941282 1_555
O5 V3 1.873515 1_555
O5 V2 1.933633 1_555
O6 V2 1.875241 1_555
O6 V3 1.940557 1_555
O7 V1 1.874085 1_555
O7 V4 1.936393 1_555
O8 V6 2.024017 1_555
O8 V9 2.032847 1_556
O8 V5 2.034861 1_556
O8 V1 2.182670 1_555
O9 V7 1.952908 1_555
O9 V0 2.045256 1_455
O9 V8 2.053060 1_556
O9 V2 2.200750 1_455
O10 V7 2.002338 1_554
O10 V0 2.039453 1_554
O10 V8 2.068728 1_555
O10 V3 2.149117 1_555
O11 V9 1.966083 1_555
O11 V5 2.028835 1_655
O11 V6 2.078251 1_554
O11 V4 2.208016 1_655
O12 V8 1.968544 1_545
O12 V5 2.011467 1_555
O12 V4 2.046216 1_555
O13 V9 1.803522 1_555
O13 V0 2.075306 1_554
O13 V3 2.236884 1_555
O14 V6 1.958227 1_565
O14 V0 2.008721 1_555
O14 V2 2.040673 1_555
O15 V7 1.816301 1_555
O15 V5 2.069317 1_556
O15 V1 2.220509 1_555
O16 V1 1.752183 1_555
O16 V6 2.064509 1_555
O17 V2 1.824825 1_455
O17 V7 1.927049 1_555
O18 V3 1.768407 1_555
O18 V8 2.016483 1_555
O19 V4 1.826263 1_655
O19 V9 1.919688 1_555
