# generated using pymatgen
data_KSm(MoO4)2
_symmetry_space_group_name_H-M   'P 1'
_cell_length_a   7.59000293
_cell_length_b   7.59000293
_cell_length_c   7.87054513
_cell_angle_alpha   61.67548399
_cell_angle_beta   61.67548399
_cell_angle_gamma   88.31233763
_symmetry_Int_Tables_number   1
_chemical_formula_structural   KSm(MoO4)2
_chemical_formula_sum   'K2 Sm2 Mo4 O16'
_cell_volume   339.95240857
_cell_formula_units_Z   2
loop_
 _symmetry_equiv_pos_site_id
 _symmetry_equiv_pos_as_xyz
  1  'x, y, z'
loop_
 _atom_site_type_symbol
 _atom_site_label
 _atom_site_symmetry_multiplicity
 _atom_site_fract_x
 _atom_site_fract_y
 _atom_site_fract_z
 _atom_site_occupancy
  K  K0  1  0.20029600  0.79970400  0.75000000  1
  K  K1  1  0.79970400  0.20029600  0.25000000  1
  Sm  Sm0  1  0.77053400  0.22946600  0.75000000  1
  Sm  Sm1  1  0.22946600  0.77053400  0.25000000  1
  Mo  Mo0  1  0.69345800  0.69691500  0.76075300  1
  Mo  Mo1  1  0.30654200  0.30308500  0.23924700  1
  Mo  Mo2  1  0.30308500  0.30654200  0.73924700  1
  Mo  Mo3  1  0.69691500  0.69345800  0.26075300  1
  O  O0  1  0.61390900  0.76745800  0.56236100  1
  O  O1  1  0.38609100  0.23254200  0.43763900  1
  O  O2  1  0.23254200  0.38609100  0.93763900  1
  O  O3  1  0.76745800  0.61390900  0.06236100  1
  O  O4  1  0.38446100  0.07097100  0.87142000  1
  O  O5  1  0.61553900  0.92902900  0.12858000  1
  O  O6  1  0.92902900  0.61553900  0.62858000  1
  O  O7  1  0.07097100  0.38446100  0.37142000  1
  O  O8  1  0.58325000  0.36832100  0.97327100  1
  O  O9  1  0.41675000  0.63167900  0.02672900  1
  O  O10  1  0.63167900  0.41675000  0.52672900  1
  O  O11  1  0.36832100  0.58325000  0.47327100  1
  O  O12  1  0.79379700  0.94950200  0.69045200  1
  O  O13  1  0.20620300  0.05049800  0.30954800  1
  O  O14  1  0.05049800  0.20620300  0.80954800  1
  O  O15  1  0.94950200  0.79379700  0.19045200  1
loop_
_geom_bond_atom_site_label_1
_geom_bond_atom_site_label_2
_geom_bond_distance
_geom_bond_site_symmetry_2
K0 O2 2.827462 1_555
K0 O0 2.827462 1_555
K0 O3 2.853830 1_456
K0 O1 2.853830 1_565
K0 O13 3.039491 1_565
K0 O15 3.039491 1_456
K0 O11 3.115365 1_555
K0 O9 3.115365 1_556
K0 O6 3.226528 1_455
K0 O4 3.226528 1_565
K1 O1 2.827462 1_555
K1 O3 2.827462 1_555
K1 O0 2.853830 1_545
K1 O2 2.853830 1_654
K1 O12 3.039491 1_545
K1 O14 3.039491 1_654
K1 O8 3.115365 1_554
K1 O10 3.115365 1_555
K1 O5 3.226528 1_545
K1 O7 3.226528 1_655
Mo0 O0 1.780899 1_555
Mo0 O12 1.800305 1_555
Mo0 O6 1.854777 1_555
Mo0 O9 1.985939 1_556
Mo0 O8 2.134067 1_555
Mo0 O3 2.484468 1_556
Mo1 O1 1.780899 1_555
Mo1 O13 1.800305 1_555
Mo1 O7 1.854777 1_555
Mo1 O8 1.985939 1_554
Mo1 O9 2.134067 1_555
Mo1 O2 2.484468 1_554
Mo2 O2 1.780899 1_555
Mo2 O14 1.800305 1_555
Mo2 O4 1.854777 1_555
Mo2 O11 1.985939 1_555
Mo2 O10 2.134067 1_555
Mo2 O1 2.484468 1_555
Mo3 O3 1.780899 1_555
Mo3 O15 1.800305 1_555
Mo3 O5 1.854777 1_555
Mo3 O10 1.985939 1_555
Mo3 O11 2.134067 1_555
Mo3 O0 2.484468 1_555
O4 Sm1 2.417899 1_546
O4 Sm0 2.721482 1_555
O5 Sm0 2.417899 1_564
O5 Sm1 2.721482 1_555
O6 Sm1 2.417899 1_655
O6 Sm0 2.721482 1_555
O7 Sm0 2.417899 1_455
O7 Sm1 2.721482 1_555
O8 Sm0 2.349073 1_555
O9 Sm1 2.349073 1_555
O10 Sm0 2.349073 1_555
O11 Sm1 2.349073 1_555
O12 Sm0 2.368663 1_565
O13 Sm1 2.368663 1_545
O14 Sm0 2.368663 1_455
O15 Sm1 2.368663 1_655
