# generated using pymatgen
data_Ba5P3O12F
_symmetry_space_group_name_H-M   'P 1'
_cell_length_a   10.36526542
_cell_length_b   10.36526542
_cell_length_c   7.79264400
_cell_angle_alpha   90.00000000
_cell_angle_beta   90.00000000
_cell_angle_gamma   119.99999628
_symmetry_Int_Tables_number   1
_chemical_formula_structural   Ba5P3O12F
_chemical_formula_sum   'Ba10 P6 O24 F2'
_cell_volume   725.06399382
_cell_formula_units_Z   2
loop_
 _symmetry_equiv_pos_site_id
 _symmetry_equiv_pos_as_xyz
  1  'x, y, z'
loop_
 _atom_site_type_symbol
 _atom_site_label
 _atom_site_symmetry_multiplicity
 _atom_site_fract_x
 _atom_site_fract_y
 _atom_site_fract_z
 _atom_site_occupancy
  Ba  Ba0  1  0.66666700  0.33333300  0.00066900  1
  Ba  Ba1  1  0.33333300  0.66666700  0.99933100  1
  Ba  Ba2  1  0.33333300  0.66666700  0.50066900  1
  Ba  Ba3  1  0.66666700  0.33333300  0.49933100  1
  Ba  Ba4  1  0.75751000  0.01273200  0.75000000  1
  Ba  Ba5  1  0.24249000  0.98726800  0.25000000  1
  Ba  Ba6  1  0.25522200  0.24249000  0.75000000  1
  Ba  Ba7  1  0.74477800  0.75751000  0.25000000  1
  Ba  Ba8  1  0.98726800  0.74477800  0.75000000  1
  Ba  Ba9  1  0.01273200  0.25522200  0.25000000  1
  P  P0  1  0.60122600  0.63187900  0.75000000  1
  P  P1  1  0.39877400  0.36812100  0.25000000  1
  P  P2  1  0.03065300  0.39877400  0.75000000  1
  P  P3  1  0.96934700  0.60122600  0.25000000  1
  P  P4  1  0.36812100  0.96934700  0.75000000  1
  P  P5  1  0.63187900  0.03065300  0.25000000  1
  O  O0  1  0.85850800  0.33351900  0.75000000  1
  O  O1  1  0.14149200  0.66648100  0.25000000  1
  O  O2  1  0.47501000  0.14149200  0.75000000  1
  O  O3  1  0.52499000  0.85850800  0.25000000  1
  O  O4  1  0.66648100  0.52499000  0.75000000  1
  O  O5  1  0.33351900  0.47501000  0.25000000  1
  O  O6  1  0.42717200  0.54094700  0.75000000  1
  O  O7  1  0.57282800  0.45905300  0.25000000  1
  O  O8  1  0.11377500  0.57282800  0.75000000  1
  O  O9  1  0.88622500  0.42717200  0.25000000  1
  O  O10  1  0.45905300  0.88622500  0.75000000  1
  O  O11  1  0.54094700  0.11377500  0.25000000  1
  O  O12  1  0.65370400  0.73343800  0.91275300  1
  O  O13  1  0.34629600  0.26656200  0.08724700  1
  O  O14  1  0.07973300  0.34629600  0.91275300  1
  O  O15  1  0.34629600  0.26656200  0.41275300  1
  O  O16  1  0.92026700  0.65370400  0.08724700  1
  O  O17  1  0.65370400  0.73343800  0.58724700  1
  O  O18  1  0.26656200  0.92026700  0.91275300  1
  O  O19  1  0.92026700  0.65370400  0.41275300  1
  O  O20  1  0.73343800  0.07973300  0.08724700  1
  O  O21  1  0.07973300  0.34629600  0.58724700  1
  O  O22  1  0.73343800  0.07973300  0.41275300  1
  O  O23  1  0.26656200  0.92026700  0.58724700  1
  F  F0  1  0.00000000  0.00000000  0.75000000  1
  F  F1  1  0.00000000  0.00000000  0.25000000  1
loop_
_geom_bond_atom_site_label_1
_geom_bond_atom_site_label_2
_geom_bond_distance
_geom_bond_site_symmetry_2
Ba0 O9 2.772493 1_555
Ba0 O11 2.772493 1_555
Ba0 O7 2.772499 1_555
Ba0 O0 2.786737 1_554
Ba0 O2 2.786745 1_554
Ba0 O4 2.786752 1_554
Ba0 O20 3.108562 1_555
Ba0 O13 3.108562 1_555
Ba0 O16 3.108562 1_555
Ba1 O8 2.772493 1_555
Ba1 O10 2.772493 1_555
Ba1 O6 2.772499 1_555
Ba1 O1 2.786737 1_556
Ba1 O3 2.786745 1_556
Ba1 O5 2.786752 1_556
Ba1 O18 3.108562 1_555
Ba1 O12 3.108562 1_555
Ba1 O14 3.108562 1_555
Ba2 O8 2.772493 1_555
Ba2 O10 2.772493 1_555
Ba2 O6 2.772499 1_555
Ba2 O1 2.786737 1_555
Ba2 O3 2.786745 1_555
Ba2 O5 2.786752 1_555
Ba2 O23 3.108562 1_555
Ba2 O17 3.108562 1_555
Ba2 O21 3.108562 1_555
Ba3 O9 2.772493 1_555
Ba3 O11 2.772493 1_555
Ba3 O7 2.772499 1_555
Ba3 O0 2.786737 1_555
Ba3 O2 2.786745 1_555
Ba3 O4 2.786752 1_555
Ba3 O22 3.108562 1_555
Ba3 O15 3.108562 1_555
Ba3 O19 3.108562 1_555
Ba4 F0 2.581989 1_655
Ba4 O10 2.689456 1_545
Ba4 O22 2.761244 1_555
Ba4 O20 2.761244 1_556
Ba4 O17 2.834099 1_545
Ba4 O12 2.834099 1_545
Ba4 O0 2.944649 1_555
Ba5 F1 2.581989 1_565
Ba5 O11 2.689456 1_565
Ba5 O23 2.761244 1_555
Ba5 O18 2.761244 1_554
Ba5 O13 2.834099 1_565
Ba5 O15 2.834099 1_565
Ba5 O1 2.944649 1_555
Ba6 F0 2.581989 1_555
Ba6 O6 2.689456 1_555
Ba6 O15 2.761247 1_555
Ba6 O13 2.761247 1_556
Ba6 O21 2.834108 1_555
Ba6 O14 2.834108 1_555
Ba6 O2 2.944639 1_555
Ba7 F1 2.581989 1_665
Ba7 O7 2.689456 1_555
Ba7 O12 2.761247 1_554
Ba7 O17 2.761247 1_555
Ba7 O19 2.834108 1_555
Ba7 O16 2.834108 1_555
Ba7 O3 2.944639 1_555
Ba8 F0 2.581989 1_665
Ba8 O8 2.689456 1_655
Ba8 O19 2.761247 1_555
Ba8 O16 2.761247 1_556
Ba8 O18 2.834101 1_655
Ba8 O23 2.834101 1_655
Ba8 O4 2.944647 1_555
Ba9 F1 2.581989 1_555
Ba9 O9 2.689456 1_455
Ba9 O14 2.761247 1_554
Ba9 O21 2.761247 1_555
Ba9 O22 2.834101 1_455
Ba9 O20 2.834101 1_455
Ba9 O5 2.944647 1_555
O0 P2 1.560267 1_655
O1 P3 1.560267 1_455
O2 P4 1.560265 1_545
O3 P5 1.560265 1_565
O4 P0 1.560257 1_555
O5 P1 1.560257 1_555
O6 P0 1.562934 1_555
O7 P1 1.562934 1_555
O8 P2 1.562934 1_555
O9 P3 1.562934 1_555
O10 P4 1.562934 1_555
O11 P5 1.562934 1_555
O12 P0 1.562032 1_555
O13 P1 1.562032 1_555
O14 P2 1.562027 1_555
O15 P1 1.562032 1_555
O16 P3 1.562027 1_555
O17 P0 1.562032 1_555
O18 P4 1.562033 1_555
O19 P3 1.562027 1_555
O20 P5 1.562033 1_555
O21 P2 1.562027 1_555
O22 P5 1.562033 1_555
O23 P4 1.562033 1_555
