# generated using pymatgen
data_Na2Ca5N4
_symmetry_space_group_name_H-M   'P 1'
_cell_length_a   7.90889103
_cell_length_b   7.90889103
_cell_length_c   14.96503307
_cell_angle_alpha   90.00000000
_cell_angle_beta   90.00000000
_cell_angle_gamma   90.00000000
_symmetry_Int_Tables_number   1
_chemical_formula_structural   Na2Ca5N4
_chemical_formula_sum   'Na8 Ca20 N16'
_cell_volume   936.07115891
_cell_formula_units_Z   4
loop_
 _symmetry_equiv_pos_site_id
 _symmetry_equiv_pos_as_xyz
  1  'x, y, z'
loop_
 _atom_site_type_symbol
 _atom_site_label
 _atom_site_symmetry_multiplicity
 _atom_site_fract_x
 _atom_site_fract_y
 _atom_site_fract_z
 _atom_site_occupancy
  Na  Na0  1  0.09389271  0.90610729  0.25000000  1
  Na  Na1  1  0.40610729  0.90610729  0.75000000  1
  Na  Na2  1  0.09389271  0.59389271  0.75000000  1
  Na  Na3  1  0.40610729  0.59389271  0.25000000  1
  Na  Na4  1  0.90610729  0.09389271  0.75000000  1
  Na  Na5  1  0.59389271  0.09389271  0.25000000  1
  Na  Na6  1  0.90610729  0.40610729  0.25000000  1
  Na  Na7  1  0.59389271  0.40610729  0.75000000  1
  Ca  Ca0  1  0.75000000  0.75000000  0.39258752  1
  Ca  Ca1  1  0.75000000  0.75000000  0.89258752  1
  Ca  Ca2  1  0.25000000  0.25000000  0.60741248  1
  Ca  Ca3  1  0.25000000  0.25000000  0.10741248  1
  Ca  Ca4  1  0.13379794  0.57732138  0.42607280  1
  Ca  Ca5  1  0.36620206  0.57732138  0.92607280  1
  Ca  Ca6  1  0.13379794  0.92267862  0.92607280  1
  Ca  Ca7  1  0.36620206  0.92267862  0.42607280  1
  Ca  Ca8  1  0.57732138  0.13379794  0.92607280  1
  Ca  Ca9  1  0.92267862  0.13379794  0.42607280  1
  Ca  Ca10  1  0.57732138  0.36620206  0.42607280  1
  Ca  Ca11  1  0.92267862  0.36620206  0.92607280  1
  Ca  Ca12  1  0.86620206  0.42267862  0.57392720  1
  Ca  Ca13  1  0.63379794  0.42267862  0.07392720  1
  Ca  Ca14  1  0.86620206  0.07732138  0.07392720  1
  Ca  Ca15  1  0.63379794  0.07732138  0.57392720  1
  Ca  Ca16  1  0.42267862  0.86620206  0.07392720  1
  Ca  Ca17  1  0.07732138  0.86620206  0.57392720  1
  Ca  Ca18  1  0.42267862  0.63379794  0.57392720  1
  Ca  Ca19  1  0.07732138  0.63379794  0.07392720  1
  N  N0  1  0.63485003  0.05320809  0.40788068  1
  N  N1  1  0.86514997  0.05320809  0.90788068  1
  N  N2  1  0.63485003  0.44679191  0.90788068  1
  N  N3  1  0.86514997  0.44679191  0.40788068  1
  N  N4  1  0.05320809  0.63485003  0.90788068  1
  N  N5  1  0.44679191  0.63485003  0.40788068  1
  N  N6  1  0.05320809  0.86514997  0.40788068  1
  N  N7  1  0.44679191  0.86514997  0.90788068  1
  N  N8  1  0.36514997  0.94679191  0.59211932  1
  N  N9  1  0.13485003  0.94679191  0.09211932  1
  N  N10  1  0.36514997  0.55320809  0.09211932  1
  N  N11  1  0.13485003  0.55320809  0.59211932  1
  N  N12  1  0.94679191  0.36514997  0.09211932  1
  N  N13  1  0.55320809  0.36514997  0.59211932  1
  N  N14  1  0.94679191  0.13485003  0.59211932  1
  N  N15  1  0.55320809  0.13485003  0.09211932  1
loop_
_geom_bond_atom_site_label_1
_geom_bond_atom_site_label_2
_geom_bond_distance
_geom_bond_site_symmetry_2
Ca0 N5 2.575337 1_555
Ca0 N0 2.575337 1_565
Ca0 N6 2.575337 1_655
Ca0 N3 2.575337 1_555
Ca1 N4 2.575337 1_655
Ca1 N1 2.575337 1_565
Ca1 N2 2.575337 1_555
Ca1 N7 2.575337 1_555
Ca2 N8 2.575337 1_545
Ca2 N14 2.575337 1_455
Ca2 N11 2.575337 1_555
Ca2 N13 2.575337 1_555
Ca3 N12 2.575337 1_455
Ca3 N9 2.575337 1_545
Ca3 N10 2.575337 1_555
Ca3 N15 2.575337 1_555
Ca4 N3 2.377863 1_455
Ca4 N6 2.379577 1_555
Ca4 N11 2.492213 1_555
Ca4 N5 2.531583 1_555
Ca5 N2 2.377863 1_555
Ca5 N7 2.379577 1_555
Ca5 N10 2.492213 1_556
Ca5 N4 2.531583 1_555
Ca6 N1 2.377863 1_465
Ca6 N4 2.379577 1_555
Ca6 N9 2.492213 1_556
Ca6 N7 2.531583 1_555
Ca7 N0 2.377863 1_565
Ca7 N5 2.379577 1_555
Ca7 N8 2.492213 1_555
Ca7 N6 2.531583 1_555
Ca8 N7 2.377863 1_545
Ca8 N1 2.379577 1_555
Ca8 N15 2.492213 1_556
Ca8 N2 2.531583 1_555
Ca9 N6 2.377863 1_645
Ca9 N0 2.379577 1_555
Ca9 N14 2.492213 1_555
Ca9 N3 2.531583 1_555
Ca10 N5 2.377863 1_555
Ca10 N3 2.379577 1_555
Ca10 N13 2.492213 1_555
Ca10 N0 2.531583 1_555
Ca11 N4 2.377863 1_655
Ca11 N2 2.379577 1_555
Ca11 N12 2.492213 1_556
Ca11 N1 2.531583 1_555
Ca12 N11 2.377863 1_655
Ca12 N14 2.379577 1_555
Ca12 N3 2.492213 1_555
Ca12 N13 2.531583 1_555
Ca13 N10 2.377863 1_555
Ca13 N15 2.379577 1_555
Ca13 N2 2.492213 1_554
Ca13 N12 2.531583 1_555
Ca14 N9 2.377863 1_645
Ca14 N12 2.379577 1_555
Ca14 N1 2.492213 1_554
Ca14 N15 2.531583 1_555
Ca15 N8 2.377863 1_545
Ca15 N13 2.379577 1_555
Ca15 N0 2.492213 1_555
Ca15 N14 2.531583 1_555
Ca16 N15 2.377863 1_565
Ca16 N9 2.379577 1_555
Ca16 N7 2.492213 1_554
Ca16 N10 2.531583 1_555
Ca17 N14 2.377863 1_465
Ca17 N8 2.379577 1_555
Ca17 N6 2.492213 1_555
Ca17 N11 2.531583 1_555
Ca18 N13 2.377863 1_555
Ca18 N11 2.379577 1_555
Ca18 N5 2.492213 1_555
Ca18 N8 2.531583 1_555
Ca19 N12 2.377863 1_455
Ca19 N10 2.379577 1_555
Ca19 N4 2.492213 1_554
Ca19 N9 2.531583 1_555
N0 Na5 2.406401 1_555
N1 Na4 2.406401 1_555
N2 Na7 2.406401 1_555
N3 Na6 2.406401 1_555
N4 Na2 2.406401 1_555
N5 Na3 2.406401 1_555
N6 Na0 2.406401 1_555
N7 Na1 2.406401 1_555
N8 Na1 2.406401 1_555
N9 Na0 2.406401 1_555
N10 Na3 2.406401 1_555
N11 Na2 2.406401 1_555
N12 Na6 2.406401 1_555
N13 Na7 2.406401 1_555
N14 Na4 2.406401 1_555
N15 Na5 2.406401 1_555
