# generated using pymatgen
data_Zr2As3Se
_symmetry_space_group_name_H-M   'P 1'
_cell_length_a   3.82951500
_cell_length_b   3.82951500
_cell_length_c   8.14318700
_cell_angle_alpha   90.00000000
_cell_angle_beta   90.00000000
_cell_angle_gamma   90.00000000
_symmetry_Int_Tables_number   1
_chemical_formula_structural   Zr2As3Se
_chemical_formula_sum   'Zr2 As3 Se1'
_cell_volume   119.42134495
_cell_formula_units_Z   1
loop_
 _symmetry_equiv_pos_site_id
 _symmetry_equiv_pos_as_xyz
  1  'x, y, z'
loop_
 _atom_site_type_symbol
 _atom_site_label
 _atom_site_symmetry_multiplicity
 _atom_site_fract_x
 _atom_site_fract_y
 _atom_site_fract_z
 _atom_site_occupancy
  Zr  Zr0  1  0.50000000  0.50000000  0.73654700  1
  Zr  Zr1  1  0.00000000  0.00000000  0.26486700  1
  As  As0  1  0.50000000  0.00000000  0.99985100  1
  As  As1  1  0.00000000  0.50000000  0.99985100  1
  As  As2  1  0.50000000  0.50000000  0.37713900  1
  Se  Se0  1  0.00000000  0.00000000  0.62174700  1
loop_
_geom_bond_atom_site_label_1
_geom_bond_atom_site_label_2
_geom_bond_distance
_geom_bond_site_symmetry_2
As0 As1 2.707876 1_655
As0 As1 2.707876 1_645
As0 As1 2.707876 1_555
As0 As1 2.707876 1_545
As0 Zr0 2.874649 1_545
As0 Zr0 2.874649 1_555
As0 Zr1 2.885062 1_556
As0 Zr1 2.885062 1_656
As1 Zr0 2.874649 1_455
As1 Zr0 2.874649 1_555
As1 Zr1 2.885062 1_556
As1 Zr1 2.885062 1_566
As2 Zr1 2.858050 1_565
As2 Zr1 2.858050 1_655
As2 Zr1 2.858050 1_665
As2 Zr1 2.858050 1_555
As2 Zr0 2.926727 1_555
Se0 Zr0 2.864701 1_445
Se0 Zr0 2.864701 1_545
Se0 Zr0 2.864701 1_455
Se0 Zr0 2.864701 1_555
Se0 Zr1 2.906141 1_555
