# generated using pymatgen
data_Li4MnCo2O7
_symmetry_space_group_name_H-M   'P 1'
_cell_length_a   5.21725000
_cell_length_b   5.91938565
_cell_length_c   8.58122255
_cell_angle_alpha   91.73130254
_cell_angle_beta   94.04042899
_cell_angle_gamma   109.65548046
_symmetry_Int_Tables_number   1
_chemical_formula_structural   Li4MnCo2O7
_chemical_formula_sum   'Li8 Mn2 Co4 O14'
_cell_volume   248.54081089
_cell_formula_units_Z   2
loop_
 _symmetry_equiv_pos_site_id
 _symmetry_equiv_pos_as_xyz
  1  'x, y, z'
loop_
 _atom_site_type_symbol
 _atom_site_label
 _atom_site_symmetry_multiplicity
 _atom_site_fract_x
 _atom_site_fract_y
 _atom_site_fract_z
 _atom_site_occupancy
  Li  Li0  1  0.65121300  0.78894800  0.28221200  1
  Li  Li1  1  0.50000000  0.50000000  0.00000000  1
  Li  Li2  1  0.07623200  0.64856400  0.13767100  1
  Li  Li3  1  0.92376800  0.35143600  0.86232900  1
  Li  Li4  1  0.34878700  0.21105200  0.71778800  1
  Li  Li5  1  0.78147100  0.06738700  0.57375500  1
  Li  Li6  1  0.21852900  0.93261300  0.42624500  1
  Li  Li7  1  0.50000000  0.00000000  0.00000000  1
  Mn  Mn0  1  0.78543300  0.57095700  0.57495200  1
  Mn  Mn1  1  0.21456700  0.42904300  0.42504800  1
  Co  Co0  1  0.64224800  0.28420100  0.28275600  1
  Co  Co1  1  0.35775200  0.71579900  0.71724400  1
  Co  Co2  1  0.07554700  0.14367400  0.14091800  1
  Co  Co3  1  0.92445300  0.85632600  0.85908200  1
  O  O0  1  0.90373300  0.59173800  0.36111400  1
  O  O1  1  0.80277400  0.29608800  0.09070300  1
  O  O2  1  0.33891300  0.45572900  0.21275300  1
  O  O3  1  0.17904500  0.16581000  0.93768200  1
  O  O4  1  0.65389700  0.99693800  0.79138300  1
  O  O5  1  0.04898600  0.88407600  0.65285400  1
  O  O6  1  0.47746300  0.73961000  0.50559500  1
  O  O7  1  0.34610300  0.00306200  0.20861700  1
  O  O8  1  0.19722600  0.70391200  0.90929700  1
  O  O9  1  0.82095500  0.83419000  0.06231800  1
  O  O10  1  0.66108700  0.54427100  0.78724700  1
  O  O11  1  0.09626700  0.40826200  0.63888600  1
  O  O12  1  0.52253700  0.26039000  0.49440500  1
  O  O13  1  0.95101400  0.11592400  0.34714600  1
loop_
_geom_bond_atom_site_label_1
_geom_bond_atom_site_label_2
_geom_bond_distance
_geom_bond_site_symmetry_2
Li0 O13 2.068470 1_565
Li0 O0 2.124510 1_555
Li0 O9 2.126752 1_555
Li0 O2 2.128542 1_555
Li0 O6 2.163824 1_555
Li0 O7 2.408959 1_565
Li1 O10 2.050629 1_554
Li1 O2 2.050629 1_555
Li1 O3 2.141188 1_554
Li1 O9 2.141188 1_555
Li1 O8 2.392534 1_554
Li1 O1 2.392534 1_555
Li2 O9 2.074927 1_455
Li2 O1 2.101614 1_455
Li2 O8 2.102464 1_554
Li2 O2 2.137437 1_555
Li2 O7 2.137945 1_565
Li2 O0 2.162884 1_455
Li3 O3 2.074927 1_655
Li3 O8 2.101614 1_655
Li3 O1 2.102464 1_556
Li3 O10 2.137437 1_555
Li3 O4 2.137945 1_545
Li3 O11 2.162884 1_655
Li4 O5 2.068470 1_545
Li4 O11 2.124510 1_555
Li4 O3 2.126752 1_555
Li4 O10 2.128542 1_555
Li4 O12 2.163824 1_555
Li4 O4 2.408959 1_545
Li5 O4 2.034702 1_545
Li5 O6 2.086325 1_545
Li5 O5 2.125068 1_645
Li5 O12 2.132957 1_555
Li5 O11 2.157379 1_655
Li5 O13 2.179807 1_555
Li6 O7 2.034702 1_565
Li6 O12 2.086325 1_565
Li6 O13 2.125068 1_465
Li6 O6 2.132957 1_555
Li6 O0 2.157379 1_455
Li6 O5 2.179807 1_555
Li7 O1 2.013634 1_555
Li7 O8 2.013634 1_544
Li7 O7 2.014986 1_555
Li7 O4 2.014986 1_544
Li7 O9 2.250427 1_545
Li7 O3 2.250427 1_554
Mn0 O12 1.957537 1_555
Mn0 O5 1.963170 1_655
Mn0 O10 1.969668 1_555
Mn0 O0 1.971149 1_555
Mn0 O11 2.194443 1_655
Mn0 O6 2.216478 1_555
Mn1 O6 1.957537 1_555
Mn1 O13 1.963170 1_455
Mn1 O2 1.969668 1_555
Mn1 O11 1.971149 1_555
Mn1 O0 2.194443 1_455
Mn1 O12 2.216478 1_555
Co0 O1 1.893225 1_555
Co0 O7 1.905044 1_555
Co0 O0 1.937339 1_555
Co0 O12 1.955672 1_555
Co0 O13 2.209036 1_555
Co0 O2 2.209111 1_555
Co1 O8 1.893225 1_555
Co1 O4 1.905044 1_555
Co1 O11 1.937339 1_555
Co1 O6 1.955672 1_555
Co1 O5 2.209036 1_555
Co1 O10 2.209111 1_555
Co2 O3 1.857214 1_554
Co2 O13 1.920603 1_455
Co2 O7 1.930495 1_555
Co2 O9 1.933238 1_445
Co2 O2 1.945361 1_555
Co2 O1 1.955950 1_455
Co3 O9 1.857214 1_556
Co3 O5 1.920603 1_655
Co3 O4 1.930495 1_555
Co3 O3 1.933238 1_665
Co3 O10 1.945361 1_555
Co3 O8 1.955950 1_655
