# generated using pymatgen
data_NdCrTeO6
_symmetry_space_group_name_H-M   'P 1'
_cell_length_a   5.23440213
_cell_length_b   5.23444988
_cell_length_c   10.23746200
_cell_angle_alpha   89.99888154
_cell_angle_beta   90.00055420
_cell_angle_gamma   120.00044244
_symmetry_Int_Tables_number   1
_chemical_formula_structural   NdCrTeO6
_chemical_formula_sum   'Nd2 Cr2 Te2 O12'
_cell_volume   242.91768185
_cell_formula_units_Z   2
loop_
 _symmetry_equiv_pos_site_id
 _symmetry_equiv_pos_as_xyz
  1  'x, y, z'
loop_
 _atom_site_type_symbol
 _atom_site_label
 _atom_site_symmetry_multiplicity
 _atom_site_fract_x
 _atom_site_fract_y
 _atom_site_fract_z
 _atom_site_occupancy
  Nd  Nd0  1  0.00000000  0.00000000  0.00000000  1
  Nd  Nd1  1  0.00000000  0.00000000  0.50000000  1
  Cr  Cr0  1  0.33311000  0.66656500  0.24999600  1
  Cr  Cr1  1  0.66689000  0.33343500  0.75000400  1
  Te  Te0  1  0.33338800  0.66669400  0.75000000  1
  Te  Te1  1  0.66661200  0.33330600  0.25000000  1
  O  O0  1  0.37235600  0.36206100  0.14308900  1
  O  O1  1  0.63797600  0.01036000  0.14308600  1
  O  O2  1  0.98970400  0.62767200  0.14307700  1
  O  O3  1  0.62764400  0.63793900  0.85691100  1
  O  O4  1  0.36202400  0.98964000  0.85691400  1
  O  O5  1  0.01029600  0.37232800  0.85692300  1
  O  O6  1  0.63797600  0.62761600  0.35691400  1
  O  O7  1  0.37235800  0.01029500  0.35691100  1
  O  O8  1  0.98970500  0.36203300  0.35692300  1
  O  O9  1  0.36202400  0.37238400  0.64308600  1
  O  O10  1  0.62764200  0.98970500  0.64308900  1
  O  O11  1  0.01029500  0.63796700  0.64307700  1
loop_
_geom_bond_atom_site_label_1
_geom_bond_atom_site_label_2
_geom_bond_distance
_geom_bond_site_symmetry_2
Nd0 O5 2.416935 1_554
Nd0 O2 2.416935 1_445
Nd0 O1 2.417117 1_455
Nd0 O4 2.417117 1_544
Nd0 O0 2.417144 1_555
Nd0 O3 2.417144 1_444
Nd1 O11 2.416937 1_545
Nd1 O8 2.416937 1_455
Nd1 O9 2.417114 1_555
Nd1 O6 2.417114 1_445
Nd1 O10 2.417155 1_445
Nd1 O7 2.417155 1_555
Cr0 O2 2.025997 1_455
Cr0 O8 2.026070 1_455
Cr0 O7 2.026797 1_565
Cr0 O0 2.026845 1_555
Cr0 O1 2.027585 1_565
Cr0 O6 2.027684 1_555
Cr1 O5 2.025997 1_655
Cr1 O11 2.026070 1_655
Cr1 O10 2.026797 1_545
Cr1 O3 2.026845 1_555
Cr1 O4 2.027585 1_545
Cr1 O9 2.027684 1_555
O0 Te1 1.955700 1_555
O1 Te1 1.955695 1_555
O2 Te1 1.956169 1_555
O3 Te0 1.955700 1_555
O4 Te0 1.955695 1_555
O5 Te0 1.956169 1_555
O6 Te1 1.955696 1_555
O7 Te1 1.955693 1_555
O8 Te1 1.956175 1_555
O9 Te0 1.955696 1_555
O10 Te0 1.955693 1_555
O11 Te0 1.956175 1_555
