# generated using pymatgen
data_Sr
_symmetry_space_group_name_H-M   'P 1'
_cell_length_a   8.64312670
_cell_length_b   8.65453820
_cell_length_c   21.75453080
_cell_angle_alpha   89.93906858
_cell_angle_beta   78.43031692
_cell_angle_gamma   119.96937533
_symmetry_Int_Tables_number   1
_chemical_formula_structural   Sr
_chemical_formula_sum   Sr24
_cell_volume   1371.20103576
_cell_formula_units_Z   24
loop_
 _symmetry_equiv_pos_site_id
 _symmetry_equiv_pos_as_xyz
  1  'x, y, z'
loop_
 _atom_site_type_symbol
 _atom_site_label
 _atom_site_symmetry_multiplicity
 _atom_site_fract_x
 _atom_site_fract_y
 _atom_site_fract_z
 _atom_site_occupancy
  Sr  Sr0_0  1  0.00000295  0.00000147  0.99999573  1
  Sr  Sr0_1  1  0.00000295  0.00000147  0.49999573  1
  Sr  Sr0_2  1  0.00000295  0.50000147  0.99999573  1
  Sr  Sr0_3  1  0.00000295  0.50000147  0.49999573  1
  Sr  Sr0_4  1  0.50000295  0.00000147  0.99999573  1
  Sr  Sr0_5  1  0.50000295  0.00000147  0.49999573  1
  Sr  Sr0_6  1  0.50000295  0.50000147  0.99999573  1
  Sr  Sr0_7  1  0.50000295  0.50000147  0.49999573  1
  Sr  Sr1_0  1  0.22234730  0.11120512  0.16666033  1
  Sr  Sr1_1  1  0.22234730  0.11120512  0.66666033  1
  Sr  Sr1_2  1  0.22234730  0.61120513  0.16666033  1
  Sr  Sr1_3  1  0.22234730  0.61120512  0.66666033  1
  Sr  Sr1_4  1  0.72234730  0.11120512  0.16666033  1
  Sr  Sr1_5  1  0.72234730  0.11120512  0.66666033  1
  Sr  Sr1_6  1  0.72234730  0.61120512  0.16666033  1
  Sr  Sr1_7  1  0.72234730  0.61120512  0.66666033  1
  Sr  Sr2_0  1  0.27764874  0.38879440  0.33334394  1
  Sr  Sr2_1  1  0.27764874  0.38879440  0.83334394  1
  Sr  Sr2_2  1  0.27764874  0.88879440  0.33334394  1
  Sr  Sr2_3  1  0.27764874  0.88879440  0.83334394  1
  Sr  Sr2_4  1  0.77764874  0.38879440  0.33334394  1
  Sr  Sr2_5  1  0.77764875  0.38879440  0.83334394  1
  Sr  Sr2_6  1  0.77764875  0.88879440  0.33334394  1
  Sr  Sr2_7  1  0.77764875  0.88879441  0.83334394  1
loop_
_geom_bond_atom_site_label_1
_geom_bond_atom_site_label_2
_geom_bond_distance
_geom_bond_site_symmetry_2
Sr0_0 Sr2_1 4.317591 1_555
Sr0_0 Sr1_6 4.317809 1_446
Sr0_0 Sr2_3 4.319014 1_545
Sr0_0 Sr1_4 4.319245 1_456
Sr0_0 Sr0_4 4.321563 1_455
Sr0_0 Sr0_4 4.321563 1_555
Sr0_0 Sr2_7 4.326404 1_445
Sr0_0 Sr0_6 4.326421 1_555
Sr0_0 Sr0_6 4.326421 1_445
Sr0_0 Sr1_0 4.326620 1_556
Sr0_0 Sr0_2 4.327269 1_555
Sr0_0 Sr0_2 4.327269 1_545
Sr0_1 Sr2_0 4.317591 1_555
Sr0_1 Sr1_7 4.317809 1_445
Sr0_1 Sr2_2 4.319014 1_545
Sr0_1 Sr1_5 4.319245 1_455
Sr0_1 Sr0_5 4.321563 1_555
Sr0_1 Sr0_5 4.321563 1_455
Sr0_1 Sr2_6 4.326404 1_445
Sr0_1 Sr0_7 4.326421 1_555
Sr0_1 Sr0_7 4.326421 1_445
Sr0_1 Sr1_1 4.326620 1_555
Sr0_1 Sr0_3 4.327269 1_555
Sr0_1 Sr0_3 4.327269 1_545
Sr0_2 Sr2_3 4.317591 1_555
Sr0_2 Sr1_4 4.317809 1_456
Sr0_2 Sr2_1 4.319014 1_555
Sr0_2 Sr1_6 4.319245 1_456
Sr0_2 Sr0_6 4.321563 1_555
Sr0_2 Sr0_6 4.321563 1_455
Sr0_2 Sr2_5 4.326404 1_455
Sr0_2 Sr0_4 4.326421 1_565
Sr0_2 Sr0_4 4.326421 1_455
Sr0_2 Sr1_2 4.326620 1_556
Sr0_3 Sr2_2 4.317591 1_555
Sr0_3 Sr1_5 4.317809 1_455
Sr0_3 Sr2_0 4.319014 1_555
Sr0_3 Sr1_7 4.319245 1_455
Sr0_3 Sr0_7 4.321563 1_555
Sr0_3 Sr0_7 4.321563 1_455
Sr0_3 Sr2_4 4.326404 1_455
Sr0_3 Sr0_5 4.326421 1_455
Sr0_3 Sr0_5 4.326421 1_565
Sr0_3 Sr1_3 4.326620 1_555
Sr0_4 Sr2_5 4.317591 1_555
Sr0_4 Sr1_2 4.317809 1_546
Sr0_4 Sr2_7 4.319014 1_545
Sr0_4 Sr1_0 4.319245 1_556
Sr0_4 Sr2_3 4.326404 1_545
Sr0_4 Sr1_4 4.326620 1_556
Sr0_4 Sr0_6 4.327269 1_545
Sr0_4 Sr0_6 4.327269 1_555
Sr0_5 Sr2_4 4.317591 1_555
Sr0_5 Sr1_3 4.317809 1_545
Sr0_5 Sr2_6 4.319014 1_545
Sr0_5 Sr1_1 4.319245 1_555
Sr0_5 Sr2_2 4.326404 1_545
Sr0_5 Sr1_5 4.326620 1_555
Sr0_5 Sr0_7 4.327269 1_555
Sr0_5 Sr0_7 4.327269 1_545
Sr0_6 Sr2_7 4.317591 1_555
Sr0_6 Sr1_0 4.317809 1_556
Sr0_6 Sr2_5 4.319014 1_555
Sr0_6 Sr1_2 4.319245 1_556
Sr0_6 Sr2_1 4.326404 1_555
Sr0_6 Sr1_6 4.326620 1_556
Sr0_7 Sr2_6 4.317591 1_555
Sr0_7 Sr1_1 4.317809 1_555
Sr0_7 Sr2_4 4.319014 1_555
Sr0_7 Sr1_3 4.319245 1_555
Sr0_7 Sr2_0 4.326404 1_555
Sr0_7 Sr1_7 4.326620 1_555
Sr1_0 Sr2_6 4.316263 1_445
Sr1_0 Sr1_4 4.321563 1_555
Sr1_0 Sr1_4 4.321563 1_455
Sr1_0 Sr2_2 4.322256 1_545
Sr1_0 Sr2_0 4.326120 1_555
Sr1_0 Sr1_6 4.326421 1_555
Sr1_0 Sr1_6 4.326421 1_445
Sr1_0 Sr1_2 4.327269 1_555
Sr1_0 Sr1_2 4.327269 1_545
Sr1_1 Sr2_7 4.316263 1_445
Sr1_1 Sr1_5 4.321563 1_455
Sr1_1 Sr1_5 4.321563 1_555
Sr1_1 Sr2_3 4.322256 1_545
Sr1_1 Sr2_1 4.326120 1_555
Sr1_1 Sr1_7 4.326421 1_555
Sr1_1 Sr1_7 4.326421 1_445
Sr1_1 Sr1_3 4.327269 1_555
Sr1_1 Sr1_3 4.327269 1_545
Sr1_2 Sr2_4 4.316263 1_455
Sr1_2 Sr1_6 4.321563 1_455
Sr1_2 Sr1_6 4.321563 1_555
Sr1_2 Sr2_0 4.322256 1_555
Sr1_2 Sr2_2 4.326120 1_555
Sr1_2 Sr1_4 4.326421 1_565
Sr1_2 Sr1_4 4.326421 1_455
Sr1_3 Sr2_5 4.316263 1_455
Sr1_3 Sr1_7 4.321563 1_555
Sr1_3 Sr1_7 4.321563 1_455
Sr1_3 Sr2_1 4.322256 1_555
Sr1_3 Sr2_3 4.326120 1_555
Sr1_3 Sr1_5 4.326421 1_455
Sr1_3 Sr1_5 4.326421 1_565
Sr1_4 Sr2_2 4.316263 1_545
Sr1_4 Sr2_6 4.322256 1_545
Sr1_4 Sr2_4 4.326120 1_555
Sr1_4 Sr1_6 4.327269 1_555
Sr1_4 Sr1_6 4.327269 1_545
Sr1_5 Sr2_3 4.316263 1_545
Sr1_5 Sr2_7 4.322256 1_545
Sr1_5 Sr2_5 4.326120 1_555
Sr1_5 Sr1_7 4.327269 1_555
Sr1_5 Sr1_7 4.327269 1_545
Sr1_6 Sr2_0 4.316263 1_555
Sr1_6 Sr2_4 4.322256 1_555
Sr1_6 Sr2_6 4.326120 1_555
Sr1_7 Sr2_1 4.316263 1_555
Sr1_7 Sr2_5 4.322256 1_555
Sr1_7 Sr2_7 4.326120 1_555
Sr2_0 Sr2_4 4.321563 1_555
Sr2_0 Sr2_4 4.321563 1_455
Sr2_0 Sr2_6 4.326421 1_555
Sr2_0 Sr2_6 4.326421 1_445
Sr2_0 Sr2_2 4.327269 1_545
Sr2_0 Sr2_2 4.327269 1_555
Sr2_1 Sr2_5 4.321563 1_455
Sr2_1 Sr2_5 4.321563 1_555
Sr2_1 Sr2_7 4.326421 1_445
Sr2_1 Sr2_7 4.326421 1_555
Sr2_1 Sr2_3 4.327269 1_545
Sr2_1 Sr2_3 4.327269 1_555
Sr2_2 Sr2_6 4.321563 1_455
Sr2_2 Sr2_6 4.321563 1_555
Sr2_2 Sr2_4 4.326421 1_565
Sr2_2 Sr2_4 4.326421 1_455
Sr2_3 Sr2_7 4.321563 1_555
Sr2_3 Sr2_7 4.321563 1_455
Sr2_3 Sr2_5 4.326421 1_565
Sr2_3 Sr2_5 4.326421 1_455
Sr2_4 Sr2_6 4.327269 1_555
Sr2_4 Sr2_6 4.327269 1_545
Sr2_5 Sr2_7 4.327269 1_545
Sr2_5 Sr2_7 4.327269 1_555
