# generated using pymatgen
data_PrIn2Cu9
_symmetry_space_group_name_H-M   'P 1'
_cell_length_a   8.51539400
_cell_length_b   8.51539400
_cell_length_c   5.04188400
_cell_angle_alpha   90.00000000
_cell_angle_beta   90.00000000
_cell_angle_gamma   90.00000000
_symmetry_Int_Tables_number   1
_chemical_formula_structural   PrIn2Cu9
_chemical_formula_sum   'Pr2 In4 Cu18'
_cell_volume   365.59676476
_cell_formula_units_Z   2
loop_
 _symmetry_equiv_pos_site_id
 _symmetry_equiv_pos_as_xyz
  1  'x, y, z'
loop_
 _atom_site_type_symbol
 _atom_site_label
 _atom_site_symmetry_multiplicity
 _atom_site_fract_x
 _atom_site_fract_y
 _atom_site_fract_z
 _atom_site_occupancy
  Pr  Pr0  1  0.00000000  0.00000000  0.00000000  1
  Pr  Pr1  1  0.50000000  0.50000000  0.00000000  1
  In  In0  1  0.12255700  0.62255700  0.00000000  1
  In  In1  1  0.87744300  0.37744300  0.00000000  1
  In  In2  1  0.62255700  0.87744300  0.00000000  1
  In  In3  1  0.37744300  0.12255700  0.00000000  1
  Cu  Cu0  1  0.50000000  0.00000000  0.50000000  1
  Cu  Cu1  1  0.00000000  0.50000000  0.50000000  1
  Cu  Cu2  1  0.20714300  0.06410400  0.50000000  1
  Cu  Cu3  1  0.79285700  0.93589600  0.50000000  1
  Cu  Cu4  1  0.06410400  0.79285700  0.50000000  1
  Cu  Cu5  1  0.70714300  0.43589600  0.50000000  1
  Cu  Cu6  1  0.93589600  0.20714300  0.50000000  1
  Cu  Cu7  1  0.29285700  0.56410400  0.50000000  1
  Cu  Cu8  1  0.56410400  0.70714300  0.50000000  1
  Cu  Cu9  1  0.43589600  0.29285700  0.50000000  1
  Cu  Cu10  1  0.67656800  0.17656800  0.24662800  1
  Cu  Cu11  1  0.32343200  0.82343200  0.75337200  1
  Cu  Cu12  1  0.32343200  0.82343200  0.24662800  1
  Cu  Cu13  1  0.17656800  0.32343200  0.24662800  1
  Cu  Cu14  1  0.17656800  0.32343200  0.75337200  1
  Cu  Cu15  1  0.67656800  0.17656800  0.75337200  1
  Cu  Cu16  1  0.82343200  0.67656800  0.75337200  1
  Cu  Cu17  1  0.82343200  0.67656800  0.24662800  1
loop_
_geom_bond_atom_site_label_1
_geom_bond_atom_site_label_2
_geom_bond_distance
_geom_bond_site_symmetry_2
In0 In1 2.951806 1_455
In0 Pr1 3.379265 1_555
In0 Pr0 3.379265 1_565
In1 Pr0 3.379265 1_655
In1 Pr1 3.379265 1_555
In2 In3 2.951806 1_565
In2 Pr0 3.379265 1_665
In2 Pr1 3.379265 1_555
In3 Pr0 3.379265 1_555
In3 Pr1 3.379265 1_555
Cu0 Cu15 2.480572 1_555
Cu0 Cu12 2.480572 1_545
Cu0 Cu10 2.480572 1_555
Cu0 Cu11 2.480572 1_545
Cu0 Cu9 2.552837 1_555
Cu0 Cu8 2.552837 1_545
Cu0 Cu3 2.552837 1_545
Cu0 Cu2 2.552837 1_555
Cu0 In2 2.921205 1_546
Cu0 In2 2.921205 1_545
Cu0 In3 2.921205 1_556
Cu0 In3 2.921205 1_555
Cu1 Cu16 2.480572 1_455
Cu1 Cu17 2.480572 1_455
Cu1 Cu14 2.480572 1_555
Cu1 Cu13 2.480572 1_555
Cu1 Cu7 2.552837 1_555
Cu1 Cu4 2.552837 1_555
Cu1 Cu5 2.552837 1_455
Cu1 Cu6 2.552837 1_455
Cu1 In1 2.921205 1_456
Cu1 In0 2.921205 1_556
Cu1 In0 2.921205 1_555
Cu1 In1 2.921205 1_455
Cu2 Cu4 2.611258 1_545
Cu2 Cu6 2.611258 1_455
Cu2 Cu9 2.754778 1_555
Cu2 In3 2.950576 1_556
Cu2 In3 2.950576 1_555
Cu2 Pr0 3.124817 1_555
Cu2 Pr0 3.124817 1_556
Cu3 Cu4 2.611258 1_655
Cu3 Cu6 2.611258 1_565
Cu3 Cu8 2.754778 1_555
Cu3 In2 2.950576 1_555
Cu3 In2 2.950576 1_556
Cu3 Pr0 3.124817 1_665
Cu3 Pr0 3.124817 1_666
Cu4 Cu7 2.754778 1_555
Cu4 In0 2.950576 1_556
Cu4 In0 2.950576 1_555
Cu4 Pr0 3.124817 1_565
Cu4 Pr0 3.124817 1_566
Cu5 Cu8 2.611258 1_555
Cu5 Cu9 2.611258 1_555
Cu5 Cu6 2.754778 1_555
Cu5 In1 2.950576 1_555
Cu5 In1 2.950576 1_556
Cu5 Pr1 3.124817 1_556
Cu5 Pr1 3.124817 1_555
Cu6 In1 2.950576 1_555
Cu6 In1 2.950576 1_556
Cu6 Pr0 3.124817 1_656
Cu6 Pr0 3.124817 1_655
Cu7 Cu8 2.611258 1_555
Cu7 Cu9 2.611258 1_555
Cu7 In0 2.950576 1_555
Cu7 In0 2.950576 1_556
Cu7 Pr1 3.124817 1_555
Cu7 Pr1 3.124817 1_556
Cu8 In2 2.950576 1_555
Cu8 In2 2.950576 1_556
Cu8 Pr1 3.124817 1_555
Cu8 Pr1 3.124817 1_556
Cu9 In3 2.950576 1_555
Cu9 In3 2.950576 1_556
Cu9 Pr1 3.124817 1_555
Cu9 Pr1 3.124817 1_556
Cu10 Cu15 2.486940 1_554
Cu10 Cu15 2.554944 1_555
Cu10 Cu6 2.564415 1_555
Cu10 Cu5 2.564415 1_555
Cu10 Cu9 2.610102 1_555
Cu10 Cu3 2.610102 1_545
Cu10 In1 2.719934 1_555
Cu10 In3 2.871552 1_555
Cu10 In2 2.871552 1_545
Cu10 Pr1 3.375236 1_555
Cu10 Pr0 3.375236 1_655
Cu11 Cu12 2.486940 1_556
Cu11 Cu12 2.554944 1_555
Cu11 Cu7 2.564415 1_555
Cu11 Cu4 2.564415 1_555
Cu11 Cu2 2.610102 1_565
Cu11 Cu8 2.610102 1_555
Cu11 In0 2.719934 1_556
Cu11 In2 2.871552 1_556
Cu11 In3 2.871552 1_566
Cu11 Pr0 3.375236 1_566
Cu11 Pr1 3.375236 1_556
Cu12 Cu7 2.564415 1_555
Cu12 Cu4 2.564415 1_555
Cu12 Cu2 2.610102 1_565
Cu12 Cu8 2.610102 1_555
Cu12 In0 2.719934 1_555
Cu12 In3 2.871552 1_565
Cu12 In2 2.871552 1_555
Cu12 Pr0 3.375236 1_565
Cu12 Pr1 3.375236 1_555
Cu13 Cu14 2.486940 1_554
Cu13 Cu14 2.554944 1_555
Cu13 Cu2 2.564415 1_555
Cu13 Cu9 2.564415 1_555
Cu13 Cu7 2.610102 1_555
Cu13 Cu6 2.610102 1_455
Cu13 In3 2.719934 1_555
Cu13 In1 2.871552 1_455
Cu13 In0 2.871552 1_555
Cu13 Pr1 3.375236 1_555
Cu13 Pr0 3.375236 1_555
Cu14 Cu2 2.564415 1_555
Cu14 Cu9 2.564415 1_555
Cu14 Cu7 2.610102 1_555
Cu14 Cu6 2.610102 1_455
Cu14 In3 2.719934 1_556
Cu14 In1 2.871552 1_456
Cu14 In0 2.871552 1_556
Cu14 Pr0 3.375236 1_556
Cu14 Pr1 3.375236 1_556
Cu15 Cu6 2.564415 1_555
Cu15 Cu5 2.564415 1_555
Cu15 Cu9 2.610102 1_555
Cu15 Cu3 2.610102 1_545
Cu15 In1 2.719934 1_556
Cu15 In3 2.871552 1_556
Cu15 In2 2.871552 1_546
Cu15 Pr1 3.375236 1_556
Cu15 Pr0 3.375236 1_656
Cu16 Cu17 2.486940 1_556
Cu16 Cu17 2.554944 1_555
Cu16 Cu8 2.564415 1_555
Cu16 Cu3 2.564415 1_555
Cu16 Cu4 2.610102 1_655
Cu16 Cu5 2.610102 1_555
Cu16 In2 2.719934 1_556
Cu16 In0 2.871552 1_656
Cu16 In1 2.871552 1_556
Cu16 Pr1 3.375236 1_556
Cu16 Pr0 3.375236 1_666
Cu17 Cu8 2.564415 1_555
Cu17 Cu3 2.564415 1_555
Cu17 Cu4 2.610102 1_655
Cu17 Cu5 2.610102 1_555
Cu17 In2 2.719934 1_555
Cu17 In0 2.871552 1_655
Cu17 In1 2.871552 1_555
Cu17 Pr0 3.375236 1_665
Cu17 Pr1 3.375236 1_555
