# generated using pymatgen
data_KLiNi2H3(SeO5)2
_symmetry_space_group_name_H-M   'P 1'
_cell_length_a   5.97025658
_cell_length_b   5.97026096
_cell_length_c   8.06932458
_cell_angle_alpha   65.35079052
_cell_angle_beta   65.35067442
_cell_angle_gamma   63.47461348
_symmetry_Int_Tables_number   1
_chemical_formula_structural   KLiNi2H3(SeO5)2
_chemical_formula_sum   'K1 Li1 Ni2 H3 Se2 O10'
_cell_volume   224.27830302
_cell_formula_units_Z   1
loop_
 _symmetry_equiv_pos_site_id
 _symmetry_equiv_pos_as_xyz
  1  'x, y, z'
loop_
 _atom_site_type_symbol
 _atom_site_label
 _atom_site_symmetry_multiplicity
 _atom_site_fract_x
 _atom_site_fract_y
 _atom_site_fract_z
 _atom_site_occupancy
  K  K0  1  0.51405400  0.51405200  0.53214200  1
  Li  Li0  1  0.40360000  0.40360000  0.26201400  1
  Ni  Ni0  1  0.98799200  0.49954100  0.01725700  1
  Ni  Ni1  1  0.49954200  0.98799100  0.01725600  1
  H  H0  1  0.75533700  0.75533700  0.71982900  1
  H  H1  1  0.20068500  0.20068200  0.25432000  1
  H  H2  1  0.59049400  0.59049300  0.89202000  1
  Se  Se0  1  0.91006200  0.91006300  0.26395100  1
  Se  Se1  1  0.08958100  0.08958500  0.74527700  1
  O  O0  1  0.79311400  0.79311500  0.50020200  1
  O  O1  1  0.20336800  0.20337300  0.51277700  1
  O  O2  1  0.25314400  0.78613400  0.23355200  1
  O  O3  1  0.78613500  0.25314400  0.23355400  1
  O  O4  1  0.76081300  0.19890000  0.81001700  1
  O  O5  1  0.19889800  0.76081600  0.81001600  1
  O  O6  1  0.69613000  0.69612900  0.86460800  1
  O  O7  1  0.29121900  0.29121500  0.12834800  1
  O  O8  1  0.74903800  0.74903700  0.17440200  1
  O  O9  1  0.20027200  0.20027200  0.85112500  1
loop_
_geom_bond_atom_site_label_1
_geom_bond_atom_site_label_2
_geom_bond_distance
_geom_bond_site_symmetry_2
K0 O8 2.696541 1_555
K0 O0 2.716791 1_555
K0 O4 2.738388 1_555
K0 O5 2.738397 1_555
K0 O3 2.911386 1_555
K0 O2 2.911410 1_555
K0 O9 2.955439 1_555
Li0 O7 1.916538 1_555
Li0 O2 1.994418 1_555
Li0 O3 1.994424 1_555
Li0 O1 2.047828 1_555
Ni0 O8 2.007608 1_555
Ni0 O7 2.010073 1_655
Ni0 O3 2.085663 1_555
Ni0 O5 2.153450 1_654
Ni0 O6 2.165368 1_554
Ni0 O9 2.270215 1_654
Ni1 O8 2.007616 1_555
Ni1 O7 2.010061 1_565
Ni1 O2 2.085664 1_555
Ni1 O4 2.153440 1_564
Ni1 O6 2.165360 1_554
Ni1 O9 2.270216 1_564
H0 O6 1.018543 1_555
H0 O0 1.619009 1_555
H1 O7 0.980788 1_555
H2 O6 0.983345 1_555
O0 Se0 1.680533 1_555
O1 Se1 1.651912 1_555
O2 Se0 1.783744 1_455
O3 Se0 1.783744 1_545
O4 Se1 1.684171 1_655
O5 Se1 1.684179 1_565
O8 Se0 2.086858 1_555
O9 Se1 1.713079 1_555
