# generated using pymatgen
data_Ca3(RhN2)2
_symmetry_space_group_name_H-M   'P 1'
_cell_length_a   6.94362620
_cell_length_b   8.80120144
_cell_length_c   5.41161038
_cell_angle_alpha   90.00000458
_cell_angle_beta   90.25862528
_cell_angle_gamma   129.32816272
_symmetry_Int_Tables_number   1
_chemical_formula_structural   Ca3(RhN2)2
_chemical_formula_sum   'Ca6 Rh4 N8'
_cell_volume   255.81376072
_cell_formula_units_Z   2
loop_
 _symmetry_equiv_pos_site_id
 _symmetry_equiv_pos_as_xyz
  1  'x, y, z'
loop_
 _atom_site_type_symbol
 _atom_site_label
 _atom_site_symmetry_multiplicity
 _atom_site_fract_x
 _atom_site_fract_y
 _atom_site_fract_z
 _atom_site_occupancy
  Ca  Ca0  1  0.23633600  0.97643500  0.04448900  1
  Ca  Ca1  1  0.76366400  0.74009800  0.45551100  1
  Ca  Ca2  1  0.76366400  0.02356500  0.95551100  1
  Ca  Ca3  1  0.23633600  0.25990200  0.54448900  1
  Ca  Ca4  1  0.00000000  0.59686800  0.75000000  1
  Ca  Ca5  1  0.00000000  0.40313200  0.25000000  1
  Rh  Rh0  1  0.56791400  0.16317500  0.58920200  1
  Rh  Rh1  1  0.43208600  0.59526000  0.91079800  1
  Rh  Rh2  1  0.43208600  0.83682500  0.41079800  1
  Rh  Rh3  1  0.56791400  0.40474000  0.08920200  1
  N  N0  1  0.21682900  0.93940500  0.51891500  1
  N  N1  1  0.78317100  0.72257500  0.98108500  1
  N  N2  1  0.78317100  0.06059500  0.48108500  1
  N  N3  1  0.21682900  0.27742500  0.01891500  1
  N  N4  1  0.68525400  0.26286400  0.93708000  1
  N  N5  1  0.31474600  0.57761100  0.56292000  1
  N  N6  1  0.31474600  0.73713600  0.06292000  1
  N  N7  1  0.68525400  0.42238900  0.43708000  1
loop_
_geom_bond_atom_site_label_1
_geom_bond_atom_site_label_2
_geom_bond_distance
_geom_bond_site_symmetry_2
Ca0 N1 2.467780 1_454
Ca0 N6 2.488987 1_555
Ca0 N4 2.542731 1_564
Ca0 N0 2.581344 1_555
Ca0 N3 2.740388 1_565
Ca0 N0 2.855629 1_554
Ca1 N0 2.467778 1_655
Ca1 N7 2.488987 1_555
Ca1 N5 2.542735 1_555
Ca1 N1 2.581344 1_554
Ca1 N2 2.740388 1_565
Ca1 N1 2.855629 1_555
Ca2 N3 2.467780 1_656
Ca2 N4 2.488987 1_555
Ca2 N6 2.542731 1_546
Ca2 N2 2.581344 1_555
Ca2 N1 2.740388 1_545
Ca2 N2 2.855629 1_556
Ca3 N2 2.467778 1_455
Ca3 N5 2.488987 1_555
Ca3 N7 2.542735 1_555
Ca3 N3 2.581344 1_556
Ca3 N0 2.740388 1_545
Ca3 N3 2.855629 1_555
Ca4 N6 2.390555 1_556
Ca4 N7 2.390556 1_455
Ca4 N5 2.513857 1_555
Ca4 N4 2.513862 1_455
Ca4 N1 2.680118 1_455
Ca4 N0 2.680125 1_555
Ca5 N4 2.390555 1_454
Ca5 N5 2.390556 1_555
Ca5 N7 2.513857 1_455
Ca5 N6 2.513862 1_555
Ca5 N3 2.680118 1_555
Ca5 N2 2.680125 1_455
N0 Rh0 1.967836 1_565
N0 Rh2 2.260479 1_555
N1 Rh1 1.967836 1_555
N1 Rh3 2.260464 1_556
N2 Rh2 1.967836 1_545
N2 Rh0 2.260479 1_555
N3 Rh3 1.967836 1_555
N3 Rh1 2.260464 1_554
N4 Rh0 2.014399 1_555
N4 Rh3 2.048499 1_556
N5 Rh1 2.014402 1_555
N5 Rh2 2.048484 1_555
N6 Rh2 2.014399 1_555
N6 Rh1 2.048499 1_554
N7 Rh3 2.014402 1_555
N7 Rh0 2.048484 1_555
