# generated using pymatgen
data_MgSiO3
_symmetry_space_group_name_H-M   'P 1'
_cell_length_a   8.94090800
_cell_length_b   5.26336700
_cell_length_c   18.62369252
_cell_angle_alpha   89.42909378
_cell_angle_beta   90.00000000
_cell_angle_gamma   90.00000000
_symmetry_Int_Tables_number   1
_chemical_formula_structural   MgSiO3
_chemical_formula_sum   'Mg16 Si16 O48'
_cell_volume   876.37405587
_cell_formula_units_Z   16
loop_
 _symmetry_equiv_pos_site_id
 _symmetry_equiv_pos_as_xyz
  1  'x, y, z'
loop_
 _atom_site_type_symbol
 _atom_site_label
 _atom_site_symmetry_multiplicity
 _atom_site_fract_x
 _atom_site_fract_y
 _atom_site_fract_z
 _atom_site_occupancy
  Mg  Mg0  1  0.39879300  0.75000000  0.00000000  1
  Mg  Mg1  1  0.60120700  0.25000000  0.00000000  1
  Mg  Mg2  1  0.24533000  0.25000000  0.00000000  1
  Mg  Mg3  1  0.75467000  0.75000000  0.00000000  1
  Mg  Mg4  1  0.90140500  0.81926300  0.25114200  1
  Mg  Mg5  1  0.90140500  0.68073700  0.74885800  1
  Mg  Mg6  1  0.09859500  0.18073700  0.74885800  1
  Mg  Mg7  1  0.09859500  0.31926300  0.25114200  1
  Mg  Mg8  1  0.25995700  0.82000800  0.24943200  1
  Mg  Mg9  1  0.25995700  0.67999200  0.75056800  1
  Mg  Mg10  1  0.74004300  0.17999200  0.75056800  1
  Mg  Mg11  1  0.74004300  0.32000800  0.24943200  1
  Mg  Mg12  1  0.59859500  0.25000000  0.50000000  1
  Mg  Mg13  1  0.40140500  0.75000000  0.50000000  1
  Mg  Mg14  1  0.24145600  0.25000000  0.50000000  1
  Mg  Mg15  1  0.75854400  0.75000000  0.50000000  1
  Si  Si0  1  0.91222500  0.02975700  0.89622300  1
  Si  Si1  1  0.91222500  0.47024300  0.10377700  1
  Si  Si2  1  0.08777500  0.97024300  0.10377700  1
  Si  Si3  1  0.08777500  0.52975700  0.89622300  1
  Si  Si4  1  0.41179200  0.09033700  0.85081500  1
  Si  Si5  1  0.41179200  0.40966300  0.14918500  1
  Si  Si6  1  0.58820800  0.90966300  0.14918500  1
  Si  Si7  1  0.58820800  0.59033700  0.85081500  1
  Si  Si8  1  0.91043300  0.15367400  0.39884700  1
  Si  Si9  1  0.91043300  0.34632600  0.60115300  1
  Si  Si10  1  0.08956700  0.84632600  0.60115300  1
  Si  Si11  1  0.08956700  0.65367400  0.39884700  1
  Si  Si12  1  0.58870900  0.60555700  0.35255000  1
  Si  Si13  1  0.58870900  0.89444300  0.64745000  1
  Si  Si14  1  0.41129100  0.39444300  0.64745000  1
  Si  Si15  1  0.41129100  0.10555700  0.35255000  1
  O  O0  1  0.91174700  0.02317000  0.80834000  1
  O  O1  1  0.91174700  0.47683000  0.19166000  1
  O  O2  1  0.08825300  0.97683000  0.19166000  1
  O  O3  1  0.08825300  0.52317000  0.80834000  1
  O  O4  1  0.75880400  0.06821400  0.93918500  1
  O  O5  1  0.75880400  0.43178600  0.06081500  1
  O  O6  1  0.24119600  0.93178600  0.06081500  1
  O  O7  1  0.24119600  0.56821400  0.93918500  1
  O  O8  1  0.04016500  0.23612400  0.92393300  1
  O  O9  1  0.04016500  0.26387600  0.07606700  1
  O  O10  1  0.95983500  0.76387600  0.07606700  1
  O  O11  1  0.95983500  0.73612400  0.92393300  1
  O  O12  1  0.40978900  0.08134900  0.93890100  1
  O  O13  1  0.40978900  0.41865100  0.06109900  1
  O  O14  1  0.59021100  0.91865100  0.06109900  1
  O  O15  1  0.59021100  0.58134900  0.93890100  1
  O  O16  1  0.26308900  0.99781200  0.80926600  1
  O  O17  1  0.26308900  0.50218800  0.19073400  1
  O  O18  1  0.73691100  0.00218800  0.19073400  1
  O  O19  1  0.73691100  0.49781200  0.80926600  1
  O  O20  1  0.54725900  0.88871000  0.82408500  1
  O  O21  1  0.54725900  0.61129000  0.17591500  1
  O  O22  1  0.45274100  0.11129000  0.17591500  1
  O  O23  1  0.45274100  0.38871000  0.82408500  1
  O  O24  1  0.90766700  0.15035800  0.31096200  1
  O  O25  1  0.90766700  0.34964200  0.68903800  1
  O  O26  1  0.09233300  0.84964200  0.68903800  1
  O  O27  1  0.09233300  0.65035800  0.31096200  1
  O  O28  1  0.75896700  0.06804500  0.43974200  1
  O  O29  1  0.75896700  0.43195500  0.56025800  1
  O  O30  1  0.24103300  0.93195500  0.56025800  1
  O  O31  1  0.24103300  0.56804500  0.43974200  1
  O  O32  1  0.04170500  0.94456800  0.42624500  1
  O  O33  1  0.04170500  0.55543200  0.57375500  1
  O  O34  1  0.95829500  0.05543200  0.57375500  1
  O  O35  1  0.95829500  0.44456800  0.42624500  1
  O  O36  1  0.58775400  0.59366700  0.44031500  1
  O  O37  1  0.58775400  0.90633300  0.55968500  1
  O  O38  1  0.41224600  0.40633300  0.55968500  1
  O  O39  1  0.41224600  0.09366700  0.44031500  1
  O  O40  1  0.74491800  0.63839000  0.31165700  1
  O  O41  1  0.74491800  0.86161000  0.68834300  1
  O  O42  1  0.25508200  0.36161000  0.68834300  1
  O  O43  1  0.25508200  0.13839000  0.31165700  1
  O  O44  1  0.53722200  0.31665600  0.32315500  1
  O  O45  1  0.53722200  0.18334400  0.67684500  1
  O  O46  1  0.46277800  0.68334400  0.67684500  1
  O  O47  1  0.46277800  0.81665600  0.32315500  1
loop_
_geom_bond_atom_site_label_1
_geom_bond_atom_site_label_2
_geom_bond_distance
_geom_bond_site_symmetry_2
Mg0 O6 2.050685 1_555
Mg0 O7 2.050685 1_554
Mg0 O12 2.075207 1_564
Mg0 O13 2.075207 1_555
Mg0 O15 2.243200 1_554
Mg0 O14 2.243200 1_555
Mg1 O5 2.050685 1_555
Mg1 O4 2.050685 1_554
Mg1 O15 2.075207 1_554
Mg1 O14 2.075207 1_545
Mg1 O13 2.243200 1_555
Mg1 O12 2.243200 1_554
Mg2 O6 2.012848 1_545
Mg2 O7 2.012848 1_554
Mg2 O13 2.065187 1_555
Mg2 O12 2.065187 1_554
Mg2 O8 2.319304 1_554
Mg2 O9 2.319304 1_555
Mg3 O5 2.012848 1_555
Mg3 O4 2.012848 1_564
Mg3 O14 2.065187 1_555
Mg3 O15 2.065187 1_554
Mg3 O11 2.319304 1_554
Mg3 O10 2.319304 1_555
Mg4 O40 2.027970 1_555
Mg4 O24 2.078434 1_565
Mg4 O18 2.081851 1_565
Mg4 O1 2.126963 1_555
Mg4 O2 2.165069 1_655
Mg4 O27 2.219423 1_655
Mg5 O41 2.027970 1_555
Mg5 O25 2.078434 1_555
Mg5 O19 2.081851 1_555
Mg5 O0 2.126963 1_565
Mg5 O3 2.165069 1_655
Mg5 O26 2.219423 1_655
Mg6 O42 2.027970 1_555
Mg6 O26 2.078434 1_545
Mg6 O16 2.081851 1_545
Mg6 O3 2.126963 1_555
Mg6 O0 2.165069 1_455
Mg6 O25 2.219423 1_455
Mg7 O43 2.027970 1_555
Mg7 O27 2.078434 1_555
Mg7 O17 2.081851 1_555
Mg7 O2 2.126963 1_545
Mg7 O1 2.165069 1_455
Mg7 O24 2.219423 1_455
Mg8 O17 2.007617 1_555
Mg8 O2 2.044024 1_555
Mg8 O43 2.047372 1_565
Mg8 O27 2.082352 1_555
Mg8 O47 2.274506 1_555
Mg8 O22 2.674743 1_565
Mg9 O16 2.007617 1_555
Mg9 O3 2.044024 1_555
Mg9 O42 2.047372 1_555
Mg9 O26 2.082352 1_555
Mg9 O46 2.274506 1_555
Mg9 O23 2.674743 1_555
Mg10 O19 2.007617 1_555
Mg10 O0 2.044024 1_555
Mg10 O41 2.047372 1_545
Mg10 O25 2.082352 1_555
Mg10 O45 2.274506 1_555
Mg10 O20 2.674743 1_545
Mg11 O18 2.007617 1_555
Mg11 O1 2.044024 1_555
Mg11 O40 2.047372 1_555
Mg11 O24 2.082352 1_555
Mg11 O44 2.274506 1_555
Mg11 O21 2.674743 1_555
Mg12 O29 2.062517 1_555
Mg12 O28 2.062517 1_555
Mg12 O37 2.115846 1_545
Mg12 O36 2.115846 1_555
Mg12 O38 2.169523 1_555
Mg12 O39 2.169523 1_555
Mg13 O30 2.062517 1_555
Mg13 O31 2.062517 1_555
Mg13 O38 2.115846 1_555
Mg13 O39 2.115846 1_565
Mg13 O37 2.169523 1_555
Mg13 O36 2.169523 1_555
Mg14 O30 2.006042 1_545
Mg14 O31 2.006042 1_555
Mg14 O38 2.064613 1_555
Mg14 O39 2.064613 1_555
Mg15 O29 2.006042 1_555
Mg15 O28 2.006042 1_565
Mg15 O37 2.064613 1_555
Mg15 O36 2.064613 1_555
O0 Si0 1.637424 1_555
O1 Si1 1.637424 1_555
O2 Si2 1.637424 1_555
O3 Si3 1.637424 1_555
O4 Si0 1.601874 1_555
O5 Si1 1.601874 1_555
O6 Si2 1.601874 1_555
O7 Si3 1.601874 1_555
O8 Si0 1.663068 1_455
O8 Si3 1.679343 1_555
O9 Si1 1.663068 1_455
O9 Si2 1.679343 1_545
O10 Si2 1.663068 1_655
O10 Si1 1.679343 1_555
O11 Si3 1.663068 1_655
O11 Si0 1.679343 1_565
O12 Si4 1.640795 1_555
O13 Si5 1.640795 1_555
O14 Si6 1.640795 1_555
O15 Si7 1.640795 1_555
O16 Si4 1.615892 1_565
O17 Si5 1.615892 1_555
O18 Si6 1.615892 1_545
O19 Si7 1.615892 1_555
O20 Si7 1.683028 1_555
O20 Si4 1.688659 1_565
O21 Si6 1.683028 1_555
O21 Si5 1.688659 1_555
O22 Si5 1.683028 1_555
O22 Si6 1.688659 1_545
O23 Si4 1.683028 1_555
O23 Si7 1.688659 1_555
O24 Si8 1.637197 1_555
O25 Si9 1.637197 1_555
O26 Si10 1.637197 1_555
O27 Si11 1.637197 1_555
O28 Si8 1.615649 1_555
O29 Si9 1.615649 1_555
O30 Si10 1.615649 1_555
O31 Si11 1.615649 1_555
O32 Si11 1.674294 1_555
O32 Si8 1.684648 1_465
O33 Si10 1.674294 1_555
O33 Si9 1.684648 1_455
O34 Si9 1.674294 1_555
O34 Si10 1.684648 1_645
O35 Si8 1.674294 1_555
O35 Si11 1.684648 1_655
O36 Si12 1.635105 1_555
O37 Si13 1.635105 1_555
O38 Si14 1.635105 1_555
O39 Si15 1.635105 1_555
O40 Si12 1.599336 1_555
O41 Si13 1.599336 1_555
O42 Si14 1.599336 1_555
O43 Si15 1.599336 1_555
O44 Si15 1.670279 1_555
O44 Si12 1.685348 1_555
O45 Si14 1.670279 1_555
O45 Si13 1.685348 1_545
O46 Si13 1.670279 1_555
O46 Si14 1.685348 1_555
O47 Si12 1.670279 1_555
O47 Si15 1.685348 1_565
