# generated using pymatgen
data_AlP2H16C2N3O8
_symmetry_space_group_name_H-M   'P 1'
_cell_length_a   8.61110809
_cell_length_b   16.81764540
_cell_length_c   17.47602623
_cell_angle_alpha   90.00000000
_cell_angle_beta   90.00000000
_cell_angle_gamma   90.00000000
_symmetry_Int_Tables_number   1
_chemical_formula_structural   AlP2H16C2N3O8
_chemical_formula_sum   'Al8 P16 H128 C16 N24 O64'
_cell_volume   2530.85299437
_cell_formula_units_Z   8
loop_
 _symmetry_equiv_pos_site_id
 _symmetry_equiv_pos_as_xyz
  1  'x, y, z'
loop_
 _atom_site_type_symbol
 _atom_site_label
 _atom_site_symmetry_multiplicity
 _atom_site_fract_x
 _atom_site_fract_y
 _atom_site_fract_z
 _atom_site_occupancy
  Al  Al0  1  0.01600966  0.84539577  0.23628600  1
  Al  Al1  1  0.48399034  0.15460423  0.73628600  1
  Al  Al2  1  0.51600966  0.65460423  0.76371400  1
  Al  Al3  1  0.98399034  0.34539577  0.26371400  1
  Al  Al4  1  0.00300328  0.59640177  0.25310197  1
  Al  Al5  1  0.49699672  0.40359823  0.75310197  1
  Al  Al6  1  0.50300328  0.90359823  0.74689803  1
  Al  Al7  1  0.99699672  0.09640177  0.24689803  1
  P  P0  1  0.83214541  0.71341116  0.14492106  1
  P  P1  1  0.66785459  0.28658884  0.64492106  1
  P  P2  1  0.33214541  0.78658884  0.85507894  1
  P  P3  1  0.16785459  0.21341116  0.35507894  1
  P  P4  1  0.80641216  0.96300100  0.33007392  1
  P  P5  1  0.69358784  0.03699900  0.83007392  1
  P  P6  1  0.30641216  0.53699900  0.66992608  1
  P  P7  1  0.19358784  0.46300100  0.16992608  1
  P  P8  1  0.16643946  0.97413828  0.13436259  1
  P  P9  1  0.33356054  0.02586172  0.63436259  1
  P  P10  1  0.66643946  0.52586172  0.86563741  1
  P  P11  1  0.83356054  0.47413828  0.36563741  1
  P  P12  1  0.20243935  0.72499947  0.34075569  1
  P  P13  1  0.29756065  0.27500053  0.84075569  1
  P  P14  1  0.70243935  0.77500053  0.65924431  1
  P  P15  1  0.79756065  0.22499947  0.15924431  1
  H  H0  1  0.14773017  0.60015687  0.44170313  1
  H  H1  1  0.35226983  0.39984313  0.94170313  1
  H  H2  1  0.64773017  0.89984313  0.55829687  1
  H  H3  1  0.85226983  0.10015687  0.05829687  1
  H  H4  1  0.21141643  0.54467280  0.51533583  1
  H  H5  1  0.28858357  0.45532720  0.01533583  1
  H  H6  1  0.71141643  0.95532720  0.48466417  1
  H  H7  1  0.78858357  0.04467280  0.98466417  1
  H  H8  1  0.06365215  0.50793517  0.45512497  1
  H  H9  1  0.43634785  0.49206483  0.95512497  1
  H  H10  1  0.56365215  0.99206483  0.54487503  1
  H  H11  1  0.93634785  0.00793517  0.04487503  1
  H  H12  1  0.11760298  0.07965133  0.44658169  1
  H  H13  1  0.38239702  0.92034867  0.94658169  1
  H  H14  1  0.61760298  0.42034867  0.55341831  1
  H  H15  1  0.88239702  0.57965133  0.05341831  1
  H  H16  1  0.14190958  0.01126939  0.51755158  1
  H  H17  1  0.35809042  0.98873061  0.01755158  1
  H  H18  1  0.64190958  0.48873061  0.48244842  1
  H  H19  1  0.85809042  0.51126939  0.98244842  1
  H  H20  1  0.01535154  0.99253642  0.44438110  1
  H  H21  1  0.48464846  0.00746358  0.94438110  1
  H  H22  1  0.51535154  0.50746358  0.55561890  1
  H  H23  1  0.98464846  0.49253642  0.05561890  1
  H  H24  1  0.85733217  0.83351362  0.43116090  1
  H  H25  1  0.64266783  0.16648638  0.93116090  1
  H  H26  1  0.35733217  0.66648638  0.56883910  1
  H  H27  1  0.14266783  0.33351362  0.06883910  1
  H  H28  1  0.96845097  0.75042582  0.44574728  1
  H  H29  1  0.53154903  0.24957418  0.94574728  1
  H  H30  1  0.46845097  0.74957418  0.55425272  1
  H  H31  1  0.03154903  0.25042582  0.05425272  1
  H  H32  1  0.81201309  0.77444437  0.50560456  1
  H  H33  1  0.68798691  0.22555563  0.00560456  1
  H  H34  1  0.31201309  0.72555563  0.49439544  1
  H  H35  1  0.18798691  0.27444437  0.99439544  1
  H  H36  1  0.96835926  0.75569742  0.01601503  1
  H  H37  1  0.53164074  0.24430258  0.51601503  1
  H  H38  1  0.46835926  0.74430258  0.98398497  1
  H  H39  1  0.03164074  0.25569742  0.48398497  1
  H  H40  1  0.04156258  0.85058528  0.01428652  1
  H  H41  1  0.45843742  0.14941472  0.51428652  1
  H  H42  1  0.54156258  0.64941472  0.98571348  1
  H  H43  1  0.95843742  0.35058528  0.48571348  1
  H  H44  1  0.07374283  0.78745996  0.93754690  1
  H  H45  1  0.42625717  0.21254004  0.43754690  1
  H  H46  1  0.57374283  0.71254004  0.06245310  1
  H  H47  1  0.92625717  0.28745996  0.56245310  1
  H  H48  1  0.44327258  0.81704063  0.27315126  1
  H  H49  1  0.05672742  0.18295937  0.77315126  1
  H  H50  1  0.94327258  0.68295937  0.72684874  1
  H  H51  1  0.55672742  0.31704063  0.22684874  1
  H  H52  1  0.56867453  0.82232461  0.19909903  1
  H  H53  1  0.93132547  0.17767539  0.69909903  1
  H  H54  1  0.06867453  0.67767539  0.80090097  1
  H  H55  1  0.43132547  0.32232461  0.30090097  1
  H  H56  1  0.55758458  0.90130020  0.26299458  1
  H  H57  1  0.94241542  0.09869980  0.76299458  1
  H  H58  1  0.05758458  0.59869980  0.73700542  1
  H  H59  1  0.44241542  0.40130020  0.23700542  1
  H  H60  1  0.40990156  0.88363382  0.20197632  1
  H  H61  1  0.09009844  0.11636618  0.70197632  1
  H  H62  1  0.90990156  0.61636618  0.79802368  1
  H  H63  1  0.59009844  0.38363382  0.29802368  1
  H  H64  1  0.61263321  0.62876765  0.23365087  1
  H  H65  1  0.88736679  0.37123235  0.73365087  1
  H  H66  1  0.11263321  0.87123235  0.76634913  1
  H  H67  1  0.38736679  0.12876765  0.26634913  1
  H  H68  1  0.45488779  0.56633360  0.23354548  1
  H  H69  1  0.04511221  0.43366640  0.73354548  1
  H  H70  1  0.95488779  0.93366640  0.76645452  1
  H  H71  1  0.54511221  0.06633360  0.26645452  1
  H  H72  1  0.46267477  0.64964059  0.29206508  1
  H  H73  1  0.03732523  0.35035941  0.79206508  1
  H  H74  1  0.96267477  0.85035941  0.70793492  1
  H  H75  1  0.53732523  0.14964059  0.20793492  1
  H  H76  1  0.58019409  0.56724149  0.30855338  1
  H  H77  1  0.91980591  0.43275851  0.80855338  1
  H  H78  1  0.08019409  0.93275851  0.69144662  1
  H  H79  1  0.41980591  0.06724149  0.19144662  1
  H  H80  1  0.24847123  0.50377324  0.35001903  1
  H  H81  1  0.25152877  0.49622676  0.85001903  1
  H  H82  1  0.74847123  0.99622676  0.64998097  1
  H  H83  1  0.75152877  0.00377324  0.14998097  1
  H  H84  1  0.30594834  0.44228315  0.42779099  1
  H  H85  1  0.19405166  0.55771685  0.92779099  1
  H  H86  1  0.80594834  0.05771685  0.57220901  1
  H  H87  1  0.69405166  0.94228315  0.07220901  1
  H  H88  1  0.39757529  0.53605192  0.41403155  1
  H  H89  1  0.10242471  0.46394808  0.91403155  1
  H  H90  1  0.89757529  0.96394808  0.58596845  1
  H  H91  1  0.60242471  0.03605192  0.08596845  1
  H  H92  1  0.22403058  0.98854484  0.35166291  1
  H  H93  1  0.27596942  0.01145516  0.85166291  1
  H  H94  1  0.72403058  0.51145516  0.64833709  1
  H  H95  1  0.77596942  0.48854484  0.14833709  1
  H  H96  1  0.24459757  0.91408539  0.42294376  1
  H  H97  1  0.25540243  0.08591461  0.92294376  1
  H  H98  1  0.74459757  0.58591461  0.57705624  1
  H  H99  1  0.75540243  0.41408539  0.07705624  1
  H  H100  1  0.35944692  0.00251666  0.42849709  1
  H  H101  1  0.14055308  0.99748334  0.92849709  1
  H  H102  1  0.85944692  0.49748334  0.57150291  1
  H  H103  1  0.64055308  0.50251666  0.07150291  1
  H  H104  1  0.74537868  0.66444709  0.42106450  1
  H  H105  1  0.75462132  0.33555291  0.92106450  1
  H  H106  1  0.24537868  0.83555291  0.57893550  1
  H  H107  1  0.25462132  0.16444709  0.07893550  1
  H  H108  1  0.78595887  0.72745129  0.34172087  1
  H  H109  1  0.71404113  0.27254871  0.84172087  1
  H  H110  1  0.28595887  0.77254871  0.65827913  1
  H  H111  1  0.21404113  0.22745129  0.15827913  1
  H  H112  1  0.62936769  0.75114312  0.40465330  1
  H  H113  1  0.87063231  0.24885688  0.90465330  1
  H  H114  1  0.12936769  0.74885688  0.59534670  1
  H  H115  1  0.37063231  0.25114312  0.09534670  1
  H  H116  1  0.86895114  0.88862235  0.91305366  1
  H  H117  1  0.63104886  0.11137765  0.41305366  1
  H  H118  1  0.36895114  0.61137765  0.08694634  1
  H  H119  1  0.13104886  0.38862235  0.58694634  1
  H  H120  1  0.75836854  0.84062837  0.98656495  1
  H  H121  1  0.74163146  0.15937163  0.48656495  1
  H  H122  1  0.25836854  0.65937163  0.01343505  1
  H  H123  1  0.24163146  0.34062837  0.51343505  1
  H  H124  1  0.80994343  0.78763185  0.90204387  1
  H  H125  1  0.69005657  0.21236815  0.40204387  1
  H  H126  1  0.30994343  0.71236815  0.09795613  1
  H  H127  1  0.19005657  0.28763185  0.59795613  1
  C  C0  1  0.28753410  0.50390431  0.40957950  1
  C  C1  1  0.21246590  0.49609569  0.90957950  1
  C  C2  1  0.78753410  0.99609569  0.59042050  1
  C  C3  1  0.71246590  0.00390431  0.09042050  1
  C  C4  1  0.24613351  0.97834268  0.41257437  1
  C  C5  1  0.25386649  0.02165732  0.91257437  1
  C  C6  1  0.74613351  0.52165732  0.58742563  1
  C  C7  1  0.75386649  0.47834268  0.08742563  1
  C  C8  1  0.74678966  0.72629053  0.40130073  1
  C  C9  1  0.75321034  0.27370947  0.90130073  1
  C  C10  1  0.24678966  0.77370947  0.59869927  1
  C  C11  1  0.25321034  0.22629053  0.09869927  1
  C  C12  1  0.84898402  0.83243382  0.94329495  1
  C  C13  1  0.65101598  0.16756618  0.44329495  1
  C  C14  1  0.34898402  0.66756618  0.05670505  1
  C  C15  1  0.15101598  0.33243382  0.55670505  1
  N  N0  1  0.16817196  0.54144467  0.45889191  1
  N  N1  1  0.33182804  0.45855533  0.95889191  1
  N  N2  1  0.66817196  0.95855533  0.54110809  1
  N  N3  1  0.83182804  0.04144467  0.04110809  1
  N  N4  1  0.12248303  0.01760237  0.45847936  1
  N  N5  1  0.37751697  0.98239763  0.95847936  1
  N  N6  1  0.62248303  0.48239763  0.54152064  1
  N  N7  1  0.87751697  0.51760237  0.04152064  1
  N  N8  1  0.85517291  0.77363568  0.44948992  1
  N  N9  1  0.64482709  0.22636432  0.94948992  1
  N  N10  1  0.35517291  0.72636432  0.55051008  1
  N  N11  1  0.14482709  0.27363568  0.05051008  1
  N  N12  1  0.99435759  0.80499608  0.98077052  1
  N  N13  1  0.50564241  0.19500392  0.48077052  1
  N  N14  1  0.49435759  0.69500392  0.01922948  1
  N  N15  1  0.00564241  0.30499608  0.51922948  1
  N  N16  1  0.49572487  0.85657280  0.23390903  1
  N  N17  1  0.00427513  0.14342720  0.73390903  1
  N  N18  1  0.99572487  0.64342720  0.76609097  1
  N  N19  1  0.50427513  0.35657280  0.26609097  1
  N  N20  1  0.52681479  0.60319497  0.26687410  1
  N  N21  1  0.97318521  0.39680503  0.76687410  1
  N  N22  1  0.02681479  0.89680503  0.73312590  1
  N  N23  1  0.47318521  0.10319497  0.23312590  1
  O  O0  1  0.94630257  0.78279539  0.16448810  1
  O  O1  1  0.55369743  0.21720461  0.66448810  1
  O  O2  1  0.44630257  0.71720461  0.83551190  1
  O  O3  1  0.05369743  0.28279539  0.33551190  1
  O  O4  1  0.84847293  0.64975730  0.21138387  1
  O  O5  1  0.65152707  0.35024270  0.71138387  1
  O  O6  1  0.34847293  0.85024270  0.78861613  1
  O  O7  1  0.15152707  0.14975730  0.28861613  1
  O  O8  1  0.66238741  0.74075910  0.14536524  1
  O  O9  1  0.83761259  0.25924090  0.64536524  1
  O  O10  1  0.16238741  0.75924090  0.85463476  1
  O  O11  1  0.33761259  0.24075910  0.35463476  1
  O  O12  1  0.88476227  0.67819798  0.06821429  1
  O  O13  1  0.61523773  0.32180202  0.56821429  1
  O  O14  1  0.38476227  0.82180202  0.93178571  1
  O  O15  1  0.11523773  0.17819798  0.43178571  1
  O  O16  1  0.10307242  0.79775646  0.31430112  1
  O  O17  1  0.39692758  0.20224354  0.81430112  1
  O  O18  1  0.60307242  0.70224354  0.68569888  1
  O  O19  1  0.89692758  0.29775646  0.18569888  1
  O  O20  1  0.85396178  0.89552574  0.27281577  1
  O  O21  1  0.64603822  0.10447426  0.77281577  1
  O  O22  1  0.35396178  0.60447426  0.72718423  1
  O  O23  1  0.14603822  0.39552574  0.22718423  1
  O  O24  1  0.91975405  0.03455110  0.31743169  1
  O  O25  1  0.58024595  0.96544890  0.81743169  1
  O  O26  1  0.41975405  0.46544890  0.68256831  1
  O  O27  1  0.08024595  0.53455110  0.18256831  1
  O  O28  1  0.63795563  0.98487037  0.31302042  1
  O  O29  1  0.86204437  0.01512963  0.81302042  1
  O  O30  1  0.13795563  0.51512963  0.68697958  1
  O  O31  1  0.36204437  0.48487037  0.18697958  1
  O  O32  1  0.83638473  0.93495994  0.41305615  1
  O  O33  1  0.66361527  0.06504006  0.91305615  1
  O  O34  1  0.33638473  0.56504006  0.58694385  1
  O  O35  1  0.16361527  0.43495994  0.08694385  1
  O  O36  1  0.16153150  0.90652292  0.19697054  1
  O  O37  1  0.33846850  0.09347708  0.69697054  1
  O  O38  1  0.66153150  0.59347708  0.80302946  1
  O  O39  1  0.83846850  0.40652292  0.30302946  1
  O  O40  1  0.07442136  0.04644406  0.16823541  1
  O  O41  1  0.42557864  0.95355594  0.66823541  1
  O  O42  1  0.57442136  0.45355594  0.83176459  1
  O  O43  1  0.92557864  0.54644406  0.33176459  1
  O  O44  1  0.08341695  0.94749945  0.06109708  1
  O  O45  1  0.41658305  0.05250055  0.56109708  1
  O  O46  1  0.58341695  0.55250055  0.93890292  1
  O  O47  1  0.91658305  0.44749945  0.43890292  1
  O  O48  1  0.33689163  0.99722744  0.12220919  1
  O  O49  1  0.16310837  0.00277256  0.62220919  1
  O  O50  1  0.83689163  0.50277256  0.87779081  1
  O  O51  1  0.66310837  0.49722744  0.37779081  1
  O  O52  1  0.15671693  0.65311656  0.28840654  1
  O  O53  1  0.34328307  0.34688344  0.78840654  1
  O  O54  1  0.65671693  0.84688344  0.71159346  1
  O  O55  1  0.84328307  0.15311656  0.21159346  1
  O  O56  1  0.37634670  0.73937148  0.32988403  1
  O  O57  1  0.12365330  0.26062852  0.82988403  1
  O  O58  1  0.87634670  0.76062852  0.67011597  1
  O  O59  1  0.62365330  0.23937148  0.17011597  1
  O  O60  1  0.15670134  0.70769552  0.42471971  1
  O  O61  1  0.34329866  0.29230448  0.92471971  1
  O  O62  1  0.65670134  0.79230448  0.57528029  1
  O  O63  1  0.84329866  0.20769552  0.07528029  1
loop_
_geom_bond_atom_site_label_1
_geom_bond_atom_site_label_2
_geom_bond_distance
_geom_bond_site_symmetry_2
Al0 O0 1.744435 1_455
Al0 O16 1.750084 1_555
Al0 O20 1.750853 1_455
Al0 O36 1.760443 1_555
Al1 O1 1.744435 1_555
Al1 O17 1.750084 1_555
Al1 O21 1.750853 1_555
Al1 O37 1.760443 1_555
Al2 O2 1.744435 1_555
Al2 O18 1.750084 1_555
Al2 O22 1.750853 1_555
Al2 O38 1.760443 1_555
Al3 O3 1.744435 1_655
Al3 O19 1.750084 1_555
Al3 O23 1.750853 1_655
Al3 O39 1.760443 1_555
Al4 O43 1.743623 1_455
Al4 O52 1.744264 1_555
Al4 O27 1.744654 1_555
Al4 O4 1.762786 1_455
Al5 O42 1.743623 1_555
Al5 O53 1.744264 1_555
Al5 O26 1.744654 1_555
Al5 O5 1.762786 1_555
Al6 O41 1.743623 1_555
Al6 O54 1.744264 1_555
Al6 O25 1.744654 1_555
Al6 O6 1.762786 1_555
Al7 O40 1.743623 1_655
Al7 O55 1.744264 1_555
Al7 O24 1.744654 1_555
Al7 O7 1.762786 1_655
H0 N0 1.046987 1_555
H1 N1 1.046987 1_555
H2 N2 1.046987 1_555
H3 N3 1.046987 1_555
H4 N0 1.055761 1_555
H4 O34 1.685649 1_555
H5 N1 1.055761 1_554
H5 O35 1.685649 1_555
H6 N2 1.055761 1_555
H6 O32 1.685649 1_555
H7 N3 1.055761 1_556
H7 O33 1.685649 1_555
H8 N0 1.063945 1_555
H8 O47 1.648409 1_455
H9 N1 1.063945 1_555
H9 O46 1.648409 1_555
H10 N2 1.063945 1_555
H10 O45 1.648409 1_565
H11 N3 1.063945 1_555
H11 O44 1.648409 1_645
H12 N4 1.064860 1_555
H13 N5 1.064860 1_555
H14 N6 1.064860 1_555
H15 N7 1.064860 1_555
H16 N4 1.051223 1_555
H17 N5 1.051223 1_554
H18 N6 1.051223 1_555
H19 N7 1.051223 1_556
H20 N4 1.043769 1_565
H21 N5 1.043769 1_545
H22 N6 1.043769 1_555
H23 N7 1.043769 1_555
H24 N8 1.056887 1_555
H24 O32 1.744529 1_555
H25 N9 1.056887 1_555
H25 O33 1.744529 1_555
H26 N10 1.056887 1_555
H26 O34 1.744529 1_555
H27 N11 1.056887 1_555
H27 O35 1.744529 1_555
H28 N8 1.052683 1_555
H29 N9 1.052683 1_555
H30 N10 1.052683 1_555
H31 N11 1.052683 1_555
H32 N8 1.048812 1_555
H33 N9 1.048812 1_554
H34 N10 1.048812 1_555
H35 N11 1.048812 1_556
H36 N12 1.056826 1_554
H37 N13 1.056826 1_555
H38 N14 1.056826 1_556
H39 N15 1.056826 1_555
H40 N12 1.046967 1_454
H41 N13 1.046967 1_555
H42 N14 1.046967 1_556
H43 N15 1.046967 1_655
H44 N12 1.060600 1_455
H45 N13 1.060600 1_555
H46 N14 1.060600 1_555
H47 N15 1.060600 1_655
H48 N16 1.056568 1_555
H49 N17 1.056568 1_555
H50 N18 1.056568 1_555
H51 N19 1.056568 1_555
H52 N16 1.047106 1_555
H53 N17 1.047106 1_655
H54 N18 1.047106 1_455
H55 N19 1.047106 1_555
H56 N16 1.052586 1_555
H57 N17 1.052586 1_655
H58 N18 1.052586 1_455
H59 N19 1.052586 1_555
H60 N16 1.031851 1_555
H61 N17 1.031851 1_555
H62 N18 1.031851 1_555
H63 N19 1.031851 1_555
H64 N20 1.033527 1_555
H65 N21 1.033527 1_555
H66 N22 1.033527 1_555
H67 N23 1.033527 1_555
H68 N20 1.052223 1_555
H69 N21 1.052223 1_455
H70 N22 1.052223 1_655
H71 N23 1.052223 1_555
H72 N20 1.053086 1_555
H73 N21 1.053086 1_455
H74 N22 1.053086 1_655
H75 N23 1.053086 1_555
H76 N20 1.052348 1_555
H77 N21 1.052348 1_555
H78 N22 1.052348 1_555
H79 N23 1.052348 1_555
C0 H88 1.093734 1_555
C0 H80 1.093885 1_555
C0 H84 1.095628 1_555
C0 N0 1.482471 1_555
C1 H89 1.093734 1_555
C1 H81 1.093885 1_555
C1 H85 1.095628 1_555
C1 N1 1.482471 1_555
C2 H90 1.093734 1_555
C2 H82 1.093885 1_555
C2 H86 1.095628 1_565
C2 N2 1.482471 1_555
C3 H91 1.093734 1_555
C3 H83 1.093885 1_555
C3 H87 1.095628 1_545
C3 N3 1.482471 1_555
C4 H100 1.093074 1_565
C4 H92 1.094899 1_555
C4 H96 1.095825 1_555
C4 N4 1.487700 1_565
C5 H101 1.093074 1_545
C5 H93 1.094899 1_555
C5 H97 1.095825 1_555
C5 N5 1.487700 1_545
C6 H102 1.093074 1_555
C6 H94 1.094899 1_555
C6 H98 1.095825 1_555
C6 N6 1.487700 1_555
C7 H103 1.093074 1_555
C7 H95 1.094899 1_555
C7 H99 1.095825 1_555
C7 N7 1.487700 1_555
C8 H108 1.094661 1_555
C8 H112 1.095680 1_555
C8 H104 1.095979 1_555
C8 N8 1.488040 1_555
C9 H109 1.094661 1_555
C9 H113 1.095680 1_555
C9 H105 1.095979 1_555
C9 N9 1.488040 1_555
C10 H110 1.094661 1_555
C10 H114 1.095680 1_555
C10 H106 1.095979 1_555
C10 N10 1.488040 1_555
C11 H111 1.094661 1_555
C11 H115 1.095680 1_555
C11 H107 1.095979 1_555
C11 N11 1.488040 1_555
C12 H120 1.095299 1_555
C12 H124 1.095641 1_555
C12 H116 1.096275 1_555
C12 N12 1.486245 1_555
C13 H121 1.095299 1_555
C13 H125 1.095641 1_555
C13 H117 1.096275 1_555
C13 N13 1.486245 1_555
C14 H122 1.095299 1_555
C14 H126 1.095641 1_555
C14 H118 1.096275 1_555
C14 N14 1.486245 1_555
C15 H123 1.095299 1_555
C15 H127 1.095641 1_555
C15 H119 1.096275 1_555
C15 N15 1.486245 1_555
O0 P0 1.563607 1_555
O1 P1 1.563607 1_555
O2 P2 1.563607 1_555
O3 P3 1.563607 1_555
O4 P0 1.585828 1_555
O5 P1 1.585828 1_555
O6 P2 1.585828 1_555
O7 P3 1.585828 1_555
O8 P0 1.532471 1_555
O9 P1 1.532471 1_555
O10 P2 1.532471 1_555
O11 P3 1.532471 1_555
O12 P0 1.533954 1_555
O13 P1 1.533954 1_555
O14 P2 1.533954 1_555
O15 P3 1.533954 1_555
O16 P12 1.563040 1_555
O17 P13 1.563040 1_555
O18 P14 1.563040 1_555
O19 P15 1.563040 1_555
O20 P4 1.567373 1_555
O21 P5 1.567373 1_555
O22 P6 1.567373 1_555
O23 P7 1.567373 1_555
O24 P4 1.565033 1_545
O25 P5 1.565033 1_565
O26 P6 1.565033 1_555
O27 P7 1.565033 1_555
O28 P4 1.525885 1_555
O29 P5 1.525885 1_555
O30 P6 1.525885 1_555
O31 P7 1.525885 1_555
O32 P4 1.546637 1_555
O33 P5 1.546637 1_555
O34 P6 1.546637 1_555
O35 P7 1.546637 1_555
O36 P8 1.578604 1_555
O37 P9 1.578604 1_555
O38 P10 1.578604 1_555
O39 P11 1.578604 1_555
O40 P8 1.567472 1_545
O41 P9 1.567472 1_565
O42 P10 1.567472 1_555
O43 P11 1.567472 1_555
O44 P8 1.533365 1_555
O45 P9 1.533365 1_555
O46 P10 1.533365 1_555
O47 P11 1.533365 1_555
O48 P8 1.533061 1_555
O49 P9 1.533061 1_555
O50 P10 1.533061 1_555
O51 P11 1.533061 1_555
O52 P12 1.566339 1_555
O53 P13 1.566339 1_555
O54 P14 1.566339 1_555
O55 P15 1.566339 1_555
O56 P12 1.528767 1_555
O57 P13 1.528767 1_555
O58 P14 1.528767 1_555
O59 P15 1.528767 1_555
O60 P12 1.546915 1_555
O61 P13 1.546915 1_555
O62 P14 1.546915 1_555
O63 P15 1.546915 1_555
