# generated using pymatgen
data_Li2NiPO4F
_symmetry_space_group_name_H-M   'P 1'
_cell_length_a   5.30800600
_cell_length_b   5.34362425
_cell_length_c   7.37958704
_cell_angle_alpha   107.08995663
_cell_angle_beta   108.19144544
_cell_angle_gamma   94.68882634
_symmetry_Int_Tables_number   1
_chemical_formula_structural   Li2NiPO4F
_chemical_formula_sum   'Li4 Ni2 P2 O8 F2'
_cell_volume   186.57110927
_cell_formula_units_Z   2
loop_
 _symmetry_equiv_pos_site_id
 _symmetry_equiv_pos_as_xyz
  1  'x, y, z'
loop_
 _atom_site_type_symbol
 _atom_site_label
 _atom_site_symmetry_multiplicity
 _atom_site_fract_x
 _atom_site_fract_y
 _atom_site_fract_z
 _atom_site_occupancy
  Li  Li0  1  0.23341300  0.58620100  0.15408800  1
  Li  Li1  1  0.44061100  0.13149100  0.84783500  1
  Li  Li2  1  0.50080500  0.99252600  0.48419000  1
  Li  Li3  1  0.80435600  0.44196200  0.82906700  1
  Ni  Ni0  1  0.99563900  0.00100300  0.00663200  1
  Ni  Ni1  1  0.98608400  0.98627100  0.48948800  1
  P  P0  1  0.66138700  0.36806800  0.24306400  1
  P  P1  1  0.33744400  0.62813200  0.76528100  1
  O  O0  1  0.26993000  0.78944200  0.61813700  1
  O  O1  1  0.73555800  0.22192500  0.39709100  1
  O  O2  1  0.32840700  0.32615700  0.66109800  1
  O  O3  1  0.14011100  0.66049200  0.88571500  1
  O  O4  1  0.84366400  0.33488700  0.10920000  1
  O  O5  1  0.36303700  0.25044600  0.08911400  1
  O  O6  1  0.66374500  0.66730200  0.34488700  1
  O  O7  1  0.63048600  0.74685400  0.91385500  1
  F  F0  1  0.84550700  0.08123400  0.73245800  1
  F  F1  1  0.14769800  0.91724200  0.27021200  1
loop_
_geom_bond_atom_site_label_1
_geom_bond_atom_site_label_2
_geom_bond_distance
_geom_bond_site_symmetry_2
Li0 O5 1.955625 1_555
Li0 O3 2.051097 1_554
Li0 O6 2.204379 1_555
Li0 O4 2.247113 1_455
Li1 O5 1.891898 1_556
Li1 O2 1.940908 1_555
Li1 O0 1.996070 1_545
Li1 O4 2.299948 1_556
Li1 O7 2.469464 1_545
Li2 O1 2.044972 1_565
Li2 O6 2.139128 1_555
Li2 O0 2.196809 1_555
Li2 O2 2.316205 1_565
Li3 O3 1.903218 1_655
Li3 O7 1.976073 1_555
Li3 O4 2.256081 1_556
Li3 O2 2.374891 1_555
Ni0 O4 2.056616 1_555
Ni0 O7 2.065058 1_544
Ni0 O5 2.075402 1_655
Ni0 O3 2.096714 1_644
Ni1 O1 2.007796 1_565
Ni1 O0 2.056798 1_655
Ni1 O6 2.070150 1_555
Ni1 O2 2.208153 1_665
O0 P1 1.551834 1_555
O1 P0 1.532778 1_555
O2 P1 1.559612 1_555
O3 P1 1.561238 1_555
O4 P0 1.570125 1_555
O5 P0 1.577302 1_555
O6 P0 1.551205 1_555
O7 P1 1.545664 1_555
F0 Li3 1.905248 1_555
F0 Li2 2.045430 1_545
F0 Ni1 2.095644 1_545
F0 Ni0 2.114595 1_556
F1 Li0 1.885373 1_555
F1 Li2 1.955424 1_555
F1 Ni1 2.014467 1_455
F1 Ni0 2.055663 1_465
