# generated using pymatgen
data_MgMo3P3O13
_symmetry_space_group_name_H-M   'P 1'
_cell_length_a   6.65624500
_cell_length_b   7.82198200
_cell_length_c   10.55234566
_cell_angle_alpha   80.30162042
_cell_angle_beta   90.00000000
_cell_angle_gamma   90.00000000
_symmetry_Int_Tables_number   1
_chemical_formula_structural   MgMo3P3O13
_chemical_formula_sum   'Mg2 Mo6 P6 O26'
_cell_volume   541.55616496
_cell_formula_units_Z   2
loop_
 _symmetry_equiv_pos_site_id
 _symmetry_equiv_pos_as_xyz
  1  'x, y, z'
loop_
 _atom_site_type_symbol
 _atom_site_label
 _atom_site_symmetry_multiplicity
 _atom_site_fract_x
 _atom_site_fract_y
 _atom_site_fract_z
 _atom_site_occupancy
  Mg  Mg0  1  0.75000000  0.39405100  0.17458000  1
  Mg  Mg1  1  0.25000000  0.60594900  0.82542000  1
  Mo  Mo0  1  0.25000000  0.64002300  0.20595000  1
  Mo  Mo1  1  0.75000000  0.35997700  0.79405000  1
  Mo  Mo2  1  0.25000000  0.23080200  0.43789400  1
  Mo  Mo3  1  0.50000000  0.00000000  0.00000000  1
  Mo  Mo4  1  0.75000000  0.76919800  0.56210600  1
  Mo  Mo5  1  0.00000000  0.00000000  0.00000000  1
  P  P0  1  0.25000000  0.78342300  0.50104600  1
  P  P1  1  0.75000000  0.21657700  0.49895400  1
  P  P2  1  0.25000000  0.26946100  0.76618100  1
  P  P3  1  0.75000000  0.73053900  0.23381900  1
  P  P4  1  0.75000000  0.67933000  0.89383400  1
  P  P5  1  0.25000000  0.32067000  0.10616600  1
  O  O0  1  0.75000000  0.64061900  0.75304600  1
  O  O1  1  0.56773300  0.25382300  0.40565300  1
  O  O2  1  0.25000000  0.20506500  0.63947100  1
  O  O3  1  0.54966800  0.77442900  0.90844200  1
  O  O4  1  0.75000000  0.34607200  0.59560400  1
  O  O5  1  0.75000000  0.11422800  0.89690000  1
  O  O6  1  0.25000000  0.65392800  0.40439600  1
  O  O7  1  0.04966800  0.22557100  0.09155800  1
  O  O8  1  0.25000000  0.96931600  0.42318200  1
  O  O9  1  0.75000000  0.03068400  0.57681800  1
  O  O10  1  0.07227300  0.39113400  0.78769200  1
  O  O11  1  0.25000000  0.88577200  0.10310000  1
  O  O12  1  0.57227300  0.60886600  0.21230800  1
  O  O13  1  0.75000000  0.49252100  0.97537400  1
  O  O14  1  0.75000000  0.79493500  0.36052900  1
  O  O15  1  0.45033200  0.22557100  0.09155800  1
  O  O16  1  0.93226700  0.25382300  0.40565300  1
  O  O17  1  0.43226700  0.74617700  0.59434700  1
  O  O18  1  0.42772700  0.39113400  0.78769200  1
  O  O19  1  0.25000000  0.35938100  0.24695400  1
  O  O20  1  0.75000000  0.89529000  0.12538100  1
  O  O21  1  0.25000000  0.10471000  0.87461900  1
  O  O22  1  0.92772700  0.60886600  0.21230800  1
  O  O23  1  0.95033200  0.77442900  0.90844200  1
  O  O24  1  0.06773300  0.74617700  0.59434700  1
  O  O25  1  0.25000000  0.50747900  0.02462600  1
loop_
_geom_bond_atom_site_label_1
_geom_bond_atom_site_label_2
_geom_bond_distance
_geom_bond_site_symmetry_2
Mg0 O13 2.113417 1_554
Mg0 O22 2.146322 1_555
Mg0 O12 2.146322 1_555
Mg0 O7 2.621432 1_655
Mg0 O15 2.621432 1_555
Mg0 O16 2.778396 1_555
Mg0 O1 2.778396 1_555
Mg1 O25 2.113417 1_556
Mg1 O18 2.146322 1_555
Mg1 O10 2.146322 1_555
Mg1 O3 2.621432 1_555
Mg1 O23 2.621432 1_455
Mg1 O17 2.778396 1_555
Mg1 O24 2.778396 1_555
Mo0 O11 2.042063 1_555
Mo0 O6 2.115112 1_555
Mo0 O12 2.158694 1_555
Mo0 O22 2.158694 1_455
Mo0 O19 2.164717 1_555
Mo0 O25 2.324715 1_555
Mo1 O5 2.042063 1_555
Mo1 O4 2.115112 1_555
Mo1 O10 2.158694 1_655
Mo1 O18 2.158694 1_555
Mo1 O0 2.164717 1_555
Mo1 O13 2.324715 1_555
Mo2 O8 2.077136 1_545
Mo2 O19 2.094862 1_555
Mo2 O2 2.102581 1_555
Mo2 O1 2.144848 1_555
Mo2 O16 2.144848 1_455
Mo3 O11 2.103221 1_545
Mo3 O5 2.103221 1_554
Mo3 O15 2.174913 1_555
Mo3 O3 2.174913 1_544
Mo3 O20 2.196661 1_545
Mo3 O21 2.196661 1_554
Mo4 O9 2.077136 1_565
Mo4 O0 2.094862 1_555
Mo4 O14 2.102581 1_555
Mo4 O24 2.144848 1_655
Mo4 O17 2.144848 1_555
Mo5 O11 2.103221 1_545
Mo5 O5 2.103221 1_454
Mo5 O7 2.174913 1_555
Mo5 O23 2.174913 1_444
Mo5 O20 2.196661 1_445
Mo5 O21 2.196661 1_554
O0 P4 1.565371 1_555
O1 P1 1.558670 1_555
O2 P2 1.506134 1_555
O3 P4 1.547204 1_555
O4 P1 1.553771 1_555
O6 P0 1.553771 1_555
O7 P5 1.547204 1_555
O8 P0 1.544941 1_555
O9 P1 1.544941 1_555
O10 P2 1.558707 1_555
O12 P3 1.558707 1_555
O13 P4 1.565854 1_555
O14 P3 1.506134 1_555
O15 P5 1.547204 1_555
O16 P1 1.558670 1_555
O17 P0 1.558670 1_555
O18 P2 1.558707 1_555
O19 P5 1.565371 1_555
O20 P3 1.572651 1_555
O21 P2 1.572651 1_555
O22 P3 1.558707 1_555
O23 P4 1.547204 1_555
O24 P0 1.558670 1_555
O25 P5 1.565854 1_555
