# generated using pymatgen
data_YbAlCo
_symmetry_space_group_name_H-M   'P 1'
_cell_length_a   5.22639451
_cell_length_b   5.22638165
_cell_length_c   8.53363445
_cell_angle_alpha   90.00000000
_cell_angle_beta   90.00000000
_cell_angle_gamma   60.29897863
_symmetry_Int_Tables_number   1
_chemical_formula_structural   YbAlCo
_chemical_formula_sum   'Yb4 Al4 Co4'
_cell_volume   202.47364913
_cell_formula_units_Z   4
loop_
 _symmetry_equiv_pos_site_id
 _symmetry_equiv_pos_as_xyz
  1  'x, y, z'
loop_
 _atom_site_type_symbol
 _atom_site_label
 _atom_site_symmetry_multiplicity
 _atom_site_fract_x
 _atom_site_fract_y
 _atom_site_fract_z
 _atom_site_occupancy
  Yb  Yb0  1  0.33392968  0.33390999  0.55720253  1
  Yb  Yb1  1  0.66973342  0.66973807  0.42640927  1
  Yb  Yb2  1  0.66973342  0.66973807  0.07359073  1
  Yb  Yb3  1  0.33392968  0.33390999  0.94279747  1
  Al  Al0  1  0.99451189  0.99452531  0.49179286  1
  Al  Al1  1  0.99451189  0.99452531  0.00820714  1
  Al  Al2  1  0.83437845  0.34240150  0.75000000  1
  Al  Al3  1  0.34237356  0.83439429  0.75000000  1
  Co  Co0  1  0.83435777  0.83437575  0.75000000  1
  Co  Co1  1  0.17554410  0.64445002  0.25000000  1
  Co  Co2  1  0.64445978  0.17552229  0.25000000  1
  Co  Co3  1  0.17253636  0.17251041  0.25000000  1
loop_
_geom_bond_atom_site_label_1
_geom_bond_atom_site_label_2
_geom_bond_distance
_geom_bond_site_symmetry_2
Yb0 Yb1 3.215323 1_545
Yb0 Yb1 3.215434 1_455
Yb0 Yb1 3.234047 1_555
Yb1 Yb2 3.010825 1_555
Yb2 Yb3 3.215323 1_564
Yb2 Yb3 3.215434 1_654
Yb2 Yb3 3.234047 1_554
Al0 Co2 2.604702 1_565
Al0 Co1 2.604766 1_655
Al0 Co3 2.616518 1_665
Al0 Co0 2.636402 1_555
Al0 Al3 2.711671 1_655
Al0 Al2 2.711707 1_565
Al0 Yb1 2.988170 1_555
Al0 Yb0 3.051046 1_565
Al0 Yb0 3.051189 1_655
Al0 Yb1 3.116085 1_565
Al0 Yb1 3.116132 1_655
Al0 Yb0 3.118115 1_665
Al1 Co2 2.604702 1_565
Al1 Co1 2.604766 1_655
Al1 Co3 2.616518 1_665
Al1 Co0 2.636402 1_554
Al1 Al3 2.711671 1_654
Al1 Al2 2.711707 1_564
Al1 Yb2 2.988170 1_555
Al1 Yb3 3.051046 1_564
Al1 Yb3 3.051189 1_654
Al1 Yb2 3.116085 1_565
Al1 Yb2 3.116132 1_655
Al1 Yb3 3.118115 1_664
Al2 Co0 2.571192 1_555
Al2 Al3 2.582988 1_555
Al2 Co0 2.655190 1_545
Al2 Al3 2.667000 1_645
Al2 Yb3 3.067668 1_655
Al2 Yb0 3.067668 1_655
Al2 Yb3 3.108850 1_555
Al2 Yb0 3.108850 1_555
Al2 Yb2 3.135889 1_556
Al2 Yb1 3.135889 1_555
Al3 Co0 2.571256 1_555
Al3 Co0 2.655139 1_455
Al3 Yb3 3.067607 1_565
Al3 Yb0 3.067607 1_565
Al3 Yb3 3.108895 1_555
Al3 Yb0 3.108895 1_555
Al3 Yb2 3.135941 1_556
Al3 Yb1 3.135941 1_555
Co0 Yb3 3.097900 1_565
Co0 Yb0 3.097900 1_565
Co0 Yb3 3.098067 1_655
Co0 Yb0 3.098067 1_655
Co0 Yb2 3.136822 1_556
Co0 Yb1 3.136822 1_555
Co1 Co2 2.461834 1_555
Co1 Co3 2.474363 1_555
Co1 Co3 2.752090 1_565
Co1 Co2 2.788155 1_465
Co1 Yb0 2.976671 1_555
Co1 Yb3 2.976671 1_554
Co1 Yb1 2.987633 1_455
Co1 Yb2 2.987633 1_455
Co1 Yb1 3.048443 1_555
Co1 Yb2 3.048443 1_555
Co2 Co3 2.474295 1_555
Co2 Co3 2.752171 1_655
Co2 Yb0 2.976652 1_555
Co2 Yb3 2.976652 1_554
Co2 Yb1 2.987538 1_545
Co2 Yb2 2.987538 1_545
Co2 Yb1 3.048523 1_555
Co2 Yb2 3.048523 1_555
Co3 Yb0 3.000114 1_555
Co3 Yb3 3.000114 1_554
Co3 Yb1 3.026066 1_545
Co3 Yb2 3.026066 1_545
Co3 Yb1 3.026205 1_455
Co3 Yb2 3.026205 1_455
