# generated using pymatgen
data_Sr2Mg
_symmetry_space_group_name_H-M   'P 1'
_cell_length_a   20.46744881
_cell_length_b   20.46744881
_cell_length_c   12.50652400
_cell_angle_alpha   90.00000000
_cell_angle_beta   90.00000000
_cell_angle_gamma   156.85094560
_symmetry_Int_Tables_number   1
_chemical_formula_structural   Sr2Mg
_chemical_formula_sum   'Sr32 Mg16'
_cell_volume   2059.65340083
_cell_formula_units_Z   16
loop_
 _symmetry_equiv_pos_site_id
 _symmetry_equiv_pos_as_xyz
  1  'x, y, z'
loop_
 _atom_site_type_symbol
 _atom_site_label
 _atom_site_symmetry_multiplicity
 _atom_site_fract_x
 _atom_site_fract_y
 _atom_site_fract_z
 _atom_site_occupancy
  Sr  Sr0_0  1  0.04194000  0.45806000  0.12500000  1
  Sr  Sr0_1  1  0.04194000  0.45806000  0.62500000  1
  Sr  Sr0_2  1  0.04194000  0.95806000  0.12500000  1
  Sr  Sr0_3  1  0.04194000  0.95806000  0.62500000  1
  Sr  Sr0_4  1  0.54194000  0.45806000  0.12500000  1
  Sr  Sr0_5  1  0.54194000  0.45806000  0.62500000  1
  Sr  Sr0_6  1  0.54194000  0.95806000  0.12500000  1
  Sr  Sr0_7  1  0.54194000  0.95806000  0.62500000  1
  Sr  Sr1_0  1  0.39460600  0.10539400  0.12500000  1
  Sr  Sr1_1  1  0.39460600  0.10539400  0.62500000  1
  Sr  Sr1_2  1  0.39460600  0.60539400  0.12500000  1
  Sr  Sr1_3  1  0.39460600  0.60539400  0.62500000  1
  Sr  Sr1_4  1  0.89460600  0.10539400  0.12500000  1
  Sr  Sr1_5  1  0.89460600  0.10539400  0.62500000  1
  Sr  Sr1_6  1  0.89460600  0.60539400  0.12500000  1
  Sr  Sr1_7  1  0.89460600  0.60539400  0.62500000  1
  Sr  Sr2_0  1  0.10539400  0.39460600  0.37500000  1
  Sr  Sr2_1  1  0.10539400  0.39460600  0.87500000  1
  Sr  Sr2_2  1  0.10539400  0.89460600  0.37500000  1
  Sr  Sr2_3  1  0.10539400  0.89460600  0.87500000  1
  Sr  Sr2_4  1  0.60539400  0.39460600  0.37500000  1
  Sr  Sr2_5  1  0.60539400  0.39460600  0.87500000  1
  Sr  Sr2_6  1  0.60539400  0.89460600  0.37500000  1
  Sr  Sr2_7  1  0.60539400  0.89460600  0.87500000  1
  Sr  Sr3_0  1  0.45806000  0.04194000  0.37500000  1
  Sr  Sr3_1  1  0.45806000  0.04194000  0.87500000  1
  Sr  Sr3_2  1  0.45806000  0.54194000  0.37500000  1
  Sr  Sr3_3  1  0.45806000  0.54194000  0.87500000  1
  Sr  Sr3_4  1  0.95806000  0.04194000  0.37500000  1
  Sr  Sr3_5  1  0.95806000  0.04194000  0.87500000  1
  Sr  Sr3_6  1  0.95806000  0.54194000  0.37500000  1
  Sr  Sr3_7  1  0.95806000  0.54194000  0.87500000  1
  Mg  Mg0_0  1  0.21978050  0.28021950  0.12500000  1
  Mg  Mg0_1  1  0.21978050  0.28021950  0.62500000  1
  Mg  Mg0_2  1  0.21978050  0.78021950  0.12500000  1
  Mg  Mg0_3  1  0.21978050  0.78021950  0.62500000  1
  Mg  Mg0_4  1  0.71978050  0.28021950  0.12500000  1
  Mg  Mg0_5  1  0.71978050  0.28021950  0.62500000  1
  Mg  Mg0_6  1  0.71978050  0.78021950  0.12500000  1
  Mg  Mg0_7  1  0.71978050  0.78021950  0.62500000  1
  Mg  Mg1_0  1  0.28021950  0.21978050  0.37500000  1
  Mg  Mg1_1  1  0.28021950  0.21978050  0.87500000  1
  Mg  Mg1_2  1  0.28021950  0.71978050  0.37500000  1
  Mg  Mg1_3  1  0.28021950  0.71978050  0.87500000  1
  Mg  Mg1_4  1  0.78021950  0.21978050  0.37500000  1
  Mg  Mg1_5  1  0.78021950  0.21978050  0.87500000  1
  Mg  Mg1_6  1  0.78021950  0.71978050  0.37500000  1
  Mg  Mg1_7  1  0.78021950  0.71978050  0.87500000  1
loop_
_geom_bond_atom_site_label_1
_geom_bond_atom_site_label_2
_geom_bond_distance
_geom_bond_site_symmetry_2
Sr0_0 Sr2_1 4.031269 1_554
Sr0_0 Sr2_0 4.031269 1_555
Sr0_0 Sr0_6 4.106638 1_445
Sr0_0 Sr0_6 4.106638 1_555
Sr0_1 Sr2_0 4.031269 1_555
Sr0_1 Sr2_1 4.031269 1_555
Sr0_1 Sr0_7 4.106638 1_555
Sr0_1 Sr0_7 4.106638 1_445
Sr0_2 Sr2_3 4.031269 1_554
Sr0_2 Sr2_2 4.031269 1_555
Sr0_2 Sr0_4 4.106638 1_565
Sr0_2 Sr0_4 4.106638 1_455
Sr0_3 Sr2_2 4.031269 1_555
Sr0_3 Sr2_3 4.031269 1_555
Sr0_3 Sr0_5 4.106638 1_565
Sr0_3 Sr0_5 4.106638 1_455
Sr0_4 Sr2_5 4.031269 1_554
Sr0_4 Sr2_4 4.031269 1_555
Sr0_5 Sr2_4 4.031269 1_555
Sr0_5 Sr2_5 4.031269 1_555
Sr0_6 Sr2_7 4.031269 1_554
Sr0_6 Sr2_6 4.031269 1_555
Sr0_7 Sr2_6 4.031269 1_555
Sr0_7 Sr2_7 4.031269 1_555
Sr1_0 Sr3_1 4.031269 1_554
Sr1_0 Sr3_0 4.031269 1_555
Sr1_0 Sr2_5 4.057671 1_554
Sr1_0 Sr2_3 4.057671 1_544
Sr1_0 Sr2_4 4.057671 1_555
Sr1_0 Sr2_2 4.057671 1_545
Sr1_0 Sr1_6 4.106638 1_555
Sr1_0 Sr1_6 4.106638 1_445
Sr1_1 Sr3_0 4.031269 1_555
Sr1_1 Sr3_1 4.031269 1_555
Sr1_1 Sr2_2 4.057671 1_545
Sr1_1 Sr2_4 4.057671 1_555
Sr1_1 Sr2_3 4.057671 1_545
Sr1_1 Sr2_5 4.057671 1_555
Sr1_1 Sr1_7 4.106638 1_445
Sr1_1 Sr1_7 4.106638 1_555
Sr1_2 Sr3_3 4.031269 1_554
Sr1_2 Sr3_2 4.031269 1_555
Sr1_2 Sr2_7 4.057671 1_554
Sr1_2 Sr2_1 4.057671 1_554
Sr1_2 Sr2_6 4.057671 1_555
Sr1_2 Sr2_0 4.057671 1_555
Sr1_2 Sr1_4 4.106638 1_455
Sr1_2 Sr1_4 4.106638 1_565
Sr1_3 Sr3_2 4.031269 1_555
Sr1_3 Sr3_3 4.031269 1_555
Sr1_3 Sr2_6 4.057671 1_555
Sr1_3 Sr2_0 4.057671 1_555
Sr1_3 Sr2_1 4.057671 1_555
Sr1_3 Sr2_7 4.057671 1_555
Sr1_3 Sr1_5 4.106638 1_455
Sr1_3 Sr1_5 4.106638 1_565
Sr1_4 Sr3_5 4.031269 1_554
Sr1_4 Sr3_4 4.031269 1_555
Sr1_4 Sr2_1 4.057671 1_654
Sr1_4 Sr2_7 4.057671 1_544
Sr1_4 Sr2_0 4.057671 1_655
Sr1_4 Sr2_6 4.057671 1_545
Sr1_5 Sr3_4 4.031269 1_555
Sr1_5 Sr3_5 4.031269 1_555
Sr1_5 Sr2_0 4.057671 1_655
Sr1_5 Sr2_6 4.057671 1_545
Sr1_5 Sr2_1 4.057671 1_655
Sr1_5 Sr2_7 4.057671 1_545
Sr1_6 Sr3_7 4.031269 1_554
Sr1_6 Sr3_6 4.031269 1_555
Sr1_6 Sr2_5 4.057671 1_554
Sr1_6 Sr2_3 4.057671 1_654
Sr1_6 Sr2_4 4.057671 1_555
Sr1_6 Sr2_2 4.057671 1_655
Sr1_7 Sr3_6 4.031269 1_555
Sr1_7 Sr3_7 4.031269 1_555
Sr1_7 Sr2_4 4.057671 1_555
Sr1_7 Sr2_2 4.057671 1_655
Sr1_7 Sr2_5 4.057671 1_555
Sr1_7 Sr2_3 4.057671 1_655
Sr2_0 Sr2_6 4.106638 1_445
Sr2_0 Sr2_6 4.106638 1_555
Sr2_1 Sr2_7 4.106638 1_555
Sr2_1 Sr2_7 4.106638 1_445
Sr2_2 Sr2_4 4.106638 1_565
Sr2_2 Sr2_4 4.106638 1_455
Sr2_3 Sr2_5 4.106638 1_455
Sr2_3 Sr2_5 4.106638 1_565
Sr3_0 Sr3_6 4.106638 1_555
Sr3_0 Sr3_6 4.106638 1_445
Sr3_1 Sr3_7 4.106638 1_445
Sr3_1 Sr3_7 4.106638 1_555
Sr3_2 Sr3_4 4.106638 1_565
Sr3_2 Sr3_4 4.106638 1_455
Sr3_3 Sr3_5 4.106638 1_565
Sr3_3 Sr3_5 4.106638 1_455
Mg0_0 Sr0_2 3.548246 1_545
Mg0_0 Sr0_4 3.548246 1_555
Mg0_0 Sr1_2 3.647524 1_555
Mg0_0 Sr1_4 3.647524 1_455
Mg0_0 Sr3_3 3.769995 1_554
Mg0_0 Sr3_5 3.769995 1_454
Mg0_0 Sr3_4 3.769995 1_455
Mg0_0 Sr3_2 3.769995 1_555
Mg0_1 Sr0_3 3.548246 1_545
Mg0_1 Sr0_5 3.548246 1_555
Mg0_1 Sr1_3 3.647524 1_555
Mg0_1 Sr1_5 3.647524 1_455
Mg0_1 Sr3_2 3.769995 1_555
Mg0_1 Sr3_4 3.769995 1_455
Mg0_1 Sr3_3 3.769995 1_555
Mg0_1 Sr3_5 3.769995 1_455
Mg0_2 Sr0_6 3.548246 1_555
Mg0_2 Sr0_0 3.548246 1_555
Mg0_2 Sr1_0 3.647524 1_565
Mg0_2 Sr1_6 3.647524 1_455
Mg0_2 Sr3_1 3.769995 1_564
Mg0_2 Sr3_7 3.769995 1_454
Mg0_2 Sr3_0 3.769995 1_565
Mg0_2 Sr3_6 3.769995 1_455
Mg0_3 Sr0_7 3.548246 1_555
Mg0_3 Sr0_1 3.548246 1_555
Mg0_3 Sr1_1 3.647524 1_565
Mg0_3 Sr1_7 3.647524 1_455
Mg0_3 Sr3_0 3.769995 1_565
Mg0_3 Sr3_6 3.769995 1_455
Mg0_3 Sr3_1 3.769995 1_565
Mg0_3 Sr3_7 3.769995 1_455
Mg0_4 Sr0_6 3.548246 1_545
Mg0_4 Sr0_0 3.548246 1_655
Mg0_4 Sr1_6 3.647524 1_555
Mg0_4 Sr1_0 3.647524 1_555
Mg0_4 Sr3_1 3.769995 1_554
Mg0_4 Sr3_7 3.769995 1_554
Mg0_4 Sr3_6 3.769995 1_555
Mg0_4 Sr3_0 3.769995 1_555
Mg0_5 Sr0_7 3.548246 1_545
Mg0_5 Sr0_1 3.548246 1_655
Mg0_5 Sr1_7 3.647524 1_555
Mg0_5 Sr1_1 3.647524 1_555
Mg0_5 Sr3_6 3.769995 1_555
Mg0_5 Sr3_0 3.769995 1_555
Mg0_5 Sr3_7 3.769995 1_555
Mg0_5 Sr3_1 3.769995 1_555
Mg0_6 Sr0_2 3.548246 1_655
Mg0_6 Sr0_4 3.548246 1_555
Mg0_6 Sr1_2 3.647524 1_555
Mg0_6 Sr1_4 3.647524 1_565
Mg0_6 Sr3_5 3.769995 1_564
Mg0_6 Sr3_3 3.769995 1_554
Mg0_6 Sr3_4 3.769995 1_565
Mg0_6 Sr3_2 3.769995 1_555
Mg0_7 Sr0_3 3.548246 1_655
Mg0_7 Sr0_5 3.548246 1_555
Mg0_7 Sr1_5 3.647524 1_565
Mg0_7 Sr1_3 3.647524 1_555
Mg0_7 Sr3_4 3.769995 1_565
Mg0_7 Sr3_2 3.769995 1_555
Mg0_7 Sr3_5 3.769995 1_565
Mg0_7 Sr3_3 3.769995 1_555
Mg1_0 Sr3_4 3.548246 1_455
Mg1_0 Sr3_2 3.548246 1_555
Mg1_0 Sr2_4 3.647524 1_555
Mg1_0 Sr2_2 3.647524 1_545
Mg1_0 Sr0_5 3.769995 1_555
Mg1_0 Sr0_3 3.769995 1_545
Mg1_0 Sr0_4 3.769995 1_555
Mg1_0 Sr0_2 3.769995 1_545
Mg1_1 Sr3_5 3.548246 1_455
Mg1_1 Sr3_3 3.548246 1_555
Mg1_1 Sr2_5 3.647524 1_555
Mg1_1 Sr2_3 3.647524 1_545
Mg1_1 Sr0_4 3.769995 1_556
Mg1_1 Sr0_2 3.769995 1_546
Mg1_1 Sr0_5 3.769995 1_555
Mg1_1 Sr0_3 3.769995 1_545
Mg1_2 Sr3_0 3.548246 1_565
Mg1_2 Sr3_6 3.548246 1_455
Mg1_2 Sr2_6 3.647524 1_555
Mg1_2 Sr2_0 3.647524 1_555
Mg1_2 Sr0_7 3.769995 1_555
Mg1_2 Sr0_1 3.769995 1_555
Mg1_2 Sr0_6 3.769995 1_555
Mg1_2 Sr0_0 3.769995 1_555
Mg1_3 Sr3_1 3.548246 1_565
Mg1_3 Sr3_7 3.548246 1_455
Mg1_3 Sr2_7 3.647524 1_555
Mg1_3 Sr2_1 3.647524 1_555
Mg1_3 Sr0_6 3.769995 1_556
Mg1_3 Sr0_0 3.769995 1_556
Mg1_3 Sr0_7 3.769995 1_555
Mg1_3 Sr0_1 3.769995 1_555
Mg1_4 Sr3_6 3.548246 1_555
Mg1_4 Sr3_0 3.548246 1_555
Mg1_4 Sr2_0 3.647524 1_655
Mg1_4 Sr2_6 3.647524 1_545
Mg1_4 Sr0_7 3.769995 1_545
Mg1_4 Sr0_1 3.769995 1_655
Mg1_4 Sr0_0 3.769995 1_655
Mg1_4 Sr0_6 3.769995 1_545
Mg1_5 Sr3_7 3.548246 1_555
Mg1_5 Sr3_1 3.548246 1_555
Mg1_5 Sr2_1 3.647524 1_655
Mg1_5 Sr2_7 3.647524 1_545
Mg1_5 Sr0_6 3.769995 1_546
Mg1_5 Sr0_0 3.769995 1_656
Mg1_5 Sr0_1 3.769995 1_655
Mg1_5 Sr0_7 3.769995 1_545
Mg1_6 Sr3_4 3.548246 1_565
Mg1_6 Sr3_2 3.548246 1_555
Mg1_6 Sr2_2 3.647524 1_655
Mg1_6 Sr2_4 3.647524 1_555
Mg1_6 Sr0_3 3.769995 1_655
Mg1_6 Sr0_5 3.769995 1_555
Mg1_6 Sr0_2 3.769995 1_655
Mg1_6 Sr0_4 3.769995 1_555
Mg1_7 Sr3_5 3.548246 1_565
Mg1_7 Sr3_3 3.548246 1_555
Mg1_7 Sr2_3 3.647524 1_655
Mg1_7 Sr2_5 3.647524 1_555
Mg1_7 Sr0_2 3.769995 1_656
Mg1_7 Sr0_4 3.769995 1_556
Mg1_7 Sr0_3 3.769995 1_655
Mg1_7 Sr0_5 3.769995 1_555
