# generated using pymatgen
data_NaMnFeF6
_symmetry_space_group_name_H-M   'P 1'
_cell_length_a   9.18800051
_cell_length_b   9.18800051
_cell_length_c   5.10298600
_cell_angle_alpha   90.00000000
_cell_angle_beta   90.00000000
_cell_angle_gamma   120.00000368
_symmetry_Int_Tables_number   1
_chemical_formula_structural   NaMnFeF6
_chemical_formula_sum   'Na3 Mn3 Fe3 F18'
_cell_volume   373.07574405
_cell_formula_units_Z   3
loop_
 _symmetry_equiv_pos_site_id
 _symmetry_equiv_pos_as_xyz
  1  'x, y, z'
loop_
 _atom_site_type_symbol
 _atom_site_label
 _atom_site_symmetry_multiplicity
 _atom_site_fract_x
 _atom_site_fract_y
 _atom_site_fract_z
 _atom_site_occupancy
  Na  Na0  1  0.62610900  0.00000000  0.00000000  1
  Na  Na1  1  0.00000000  0.62610900  0.00000000  1
  Na  Na2  1  0.37389100  0.37389100  0.00000000  1
  Mn  Mn0  1  0.29752400  0.00000000  0.50000000  1
  Mn  Mn1  1  0.00000000  0.29752400  0.50000000  1
  Mn  Mn2  1  0.70247600  0.70247600  0.50000000  1
  Fe  Fe0  1  0.33333300  0.66666700  0.49984400  1
  Fe  Fe1  1  0.66666700  0.33333300  0.50015600  1
  Fe  Fe2  1  0.00000000  0.00000000  0.00000000  1
  F  F0  1  0.13087200  0.53569100  0.28659300  1
  F  F1  1  0.46430900  0.59518100  0.28659300  1
  F  F2  1  0.53569100  0.13087200  0.71340700  1
  F  F3  1  0.40481900  0.86912800  0.28659300  1
  F  F4  1  0.59518100  0.46430900  0.71340700  1
  F  F5  1  0.86912800  0.40481900  0.71340700  1
  F  F6  1  0.10435000  0.20153100  0.22120200  1
  F  F7  1  0.79846900  0.90281900  0.22120200  1
  F  F8  1  0.20153100  0.10435000  0.77879800  1
  F  F9  1  0.09718100  0.89565000  0.22120200  1
  F  F10  1  0.90281900  0.79846900  0.77879800  1
  F  F11  1  0.89565000  0.09718100  0.77879800  1
  F  F12  1  0.45869100  0.23128600  0.28907300  1
  F  F13  1  0.76871400  0.22740500  0.28907300  1
  F  F14  1  0.23128600  0.45869100  0.71092700  1
  F  F15  1  0.77259500  0.54130900  0.28907300  1
  F  F16  1  0.22740500  0.76871400  0.71092700  1
  F  F17  1  0.54130900  0.77259500  0.71092700  1
loop_
_geom_bond_atom_site_label_1
_geom_bond_atom_site_label_2
_geom_bond_distance
_geom_bond_site_symmetry_2
F0 Fe0 1.963212 1_555
F0 Mn1 2.188402 1_555
F0 Na1 2.296487 1_555
F1 Fe0 1.963218 1_555
F1 Mn2 2.188402 1_555
F1 Na2 2.296487 1_555
F2 Fe1 1.963212 1_555
F2 Mn0 2.188402 1_555
F2 Na0 2.296487 1_556
F3 Fe0 1.963211 1_555
F3 Mn0 2.188402 1_565
F3 Na0 2.296487 1_565
F4 Fe1 1.963218 1_555
F4 Mn2 2.188402 1_555
F4 Na2 2.296487 1_556
F5 Fe1 1.963211 1_555
F5 Mn1 2.188402 1_655
F5 Na1 2.296487 1_656
F6 Fe2 1.961315 1_555
F6 Mn1 2.137014 1_555
F6 Na2 2.448142 1_555
F7 Fe2 1.961315 1_665
F7 Mn2 2.137014 1_555
F7 Na0 2.448142 1_565
F8 Fe2 1.961315 1_556
F8 Mn0 2.137014 1_555
F8 Na2 2.448142 1_556
F9 Fe2 1.961315 1_565
F9 Mn0 2.137014 1_565
F9 Na1 2.448142 1_555
F10 Fe2 1.961315 1_666
F10 Mn2 2.137014 1_555
F10 Na1 2.448142 1_656
F11 Fe2 1.961315 1_656
F11 Mn1 2.137014 1_655
F11 Na0 2.448142 1_556
F12 Fe1 1.974635 1_555
F12 Mn0 2.172647 1_555
F12 Na2 2.349623 1_555
F13 Fe1 1.974629 1_555
F13 Mn1 2.172647 1_655
F13 Na0 2.349623 1_555
F14 Fe0 1.974635 1_555
F14 Mn1 2.172647 1_555
F14 Na2 2.349623 1_556
F15 Fe1 1.974635 1_555
F15 Mn2 2.172647 1_555
F15 Na1 2.349623 1_655
F16 Fe0 1.974629 1_555
F16 Mn0 2.172647 1_565
F16 Na1 2.349623 1_556
F17 Fe0 1.974635 1_555
F17 Mn2 2.172647 1_555
F17 Na0 2.349623 1_566
