# generated using pymatgen
data_Li3Nd2Sb3
_symmetry_space_group_name_H-M   'P 1'
_cell_length_a   6.43884800
_cell_length_b   6.43884800
_cell_length_c   46.95316200
_cell_angle_alpha   90.00000000
_cell_angle_beta   90.00000000
_cell_angle_gamma   90.00000000
_symmetry_Int_Tables_number   1
_chemical_formula_structural   Li3Nd2Sb3
_chemical_formula_sum   'Li24 Nd16 Sb24'
_cell_volume   1946.62004209
_cell_formula_units_Z   8
loop_
 _symmetry_equiv_pos_site_id
 _symmetry_equiv_pos_as_xyz
  1  'x, y, z'
loop_
 _atom_site_type_symbol
 _atom_site_label
 _atom_site_symmetry_multiplicity
 _atom_site_fract_x
 _atom_site_fract_y
 _atom_site_fract_z
 _atom_site_occupancy
  Li  Li0_0  1  0.25000000  0.25000000  0.25000000  1
  Li  Li0_1  1  0.25000000  0.25000000  0.75000000  1
  Li  Li0_2  1  0.25000000  0.75000000  0.25000000  1
  Li  Li0_3  1  0.25000000  0.75000000  0.75000000  1
  Li  Li0_4  1  0.75000000  0.25000000  0.25000000  1
  Li  Li0_5  1  0.75000000  0.25000000  0.75000000  1
  Li  Li0_6  1  0.75000000  0.75000000  0.25000000  1
  Li  Li0_7  1  0.75000000  0.75000000  0.75000000  1
  Li  Li1_0  1  0.25000000  0.25000000  0.05915050  1
  Li  Li1_1  1  0.25000000  0.25000000  0.55915050  1
  Li  Li1_2  1  0.25000000  0.75000000  0.05915050  1
  Li  Li1_3  1  0.25000000  0.75000000  0.55915050  1
  Li  Li1_4  1  0.75000000  0.25000000  0.05915050  1
  Li  Li1_5  1  0.75000000  0.25000000  0.55915050  1
  Li  Li1_6  1  0.75000000  0.75000000  0.05915050  1
  Li  Li1_7  1  0.75000000  0.75000000  0.55915050  1
  Li  Li2_0  1  0.25000000  0.25000000  0.44084950  1
  Li  Li2_1  1  0.25000000  0.25000000  0.94084950  1
  Li  Li2_2  1  0.25000000  0.75000000  0.44084950  1
  Li  Li2_3  1  0.25000000  0.75000000  0.94084950  1
  Li  Li2_4  1  0.75000000  0.25000000  0.44084950  1
  Li  Li2_5  1  0.75000000  0.25000000  0.94084950  1
  Li  Li2_6  1  0.75000000  0.75000000  0.44084950  1
  Li  Li2_7  1  0.75000000  0.75000000  0.94084950  1
  Nd  Nd0_0  1  0.25000000  0.25000000  0.37043800  1
  Nd  Nd0_1  1  0.25000000  0.25000000  0.87043800  1
  Nd  Nd0_2  1  0.25000000  0.75000000  0.37043800  1
  Nd  Nd0_3  1  0.25000000  0.75000000  0.87043800  1
  Nd  Nd0_4  1  0.75000000  0.25000000  0.37043800  1
  Nd  Nd0_5  1  0.75000000  0.25000000  0.87043800  1
  Nd  Nd0_6  1  0.75000000  0.75000000  0.37043800  1
  Nd  Nd0_7  1  0.75000000  0.75000000  0.87043800  1
  Nd  Nd1_0  1  0.25000000  0.25000000  0.12956200  1
  Nd  Nd1_1  1  0.25000000  0.25000000  0.62956200  1
  Nd  Nd1_2  1  0.25000000  0.75000000  0.12956200  1
  Nd  Nd1_3  1  0.25000000  0.75000000  0.62956200  1
  Nd  Nd1_4  1  0.75000000  0.25000000  0.12956200  1
  Nd  Nd1_5  1  0.75000000  0.25000000  0.62956200  1
  Nd  Nd1_6  1  0.75000000  0.75000000  0.12956200  1
  Nd  Nd1_7  1  0.75000000  0.75000000  0.62956200  1
  Sb  Sb0_0  1  0.25000000  0.25000000  0.19422300  1
  Sb  Sb0_1  1  0.25000000  0.25000000  0.69422300  1
  Sb  Sb0_2  1  0.25000000  0.75000000  0.19422300  1
  Sb  Sb0_3  1  0.25000000  0.75000000  0.69422300  1
  Sb  Sb0_4  1  0.75000000  0.25000000  0.19422300  1
  Sb  Sb0_5  1  0.75000000  0.25000000  0.69422300  1
  Sb  Sb0_6  1  0.75000000  0.75000000  0.19422300  1
  Sb  Sb0_7  1  0.75000000  0.75000000  0.69422300  1
  Sb  Sb1_0  1  0.25000000  0.25000000  0.30577700  1
  Sb  Sb1_1  1  0.25000000  0.25000000  0.80577700  1
  Sb  Sb1_2  1  0.25000000  0.75000000  0.30577700  1
  Sb  Sb1_3  1  0.25000000  0.75000000  0.80577700  1
  Sb  Sb1_4  1  0.75000000  0.25000000  0.30577700  1
  Sb  Sb1_5  1  0.75000000  0.25000000  0.80577700  1
  Sb  Sb1_6  1  0.75000000  0.75000000  0.30577700  1
  Sb  Sb1_7  1  0.75000000  0.75000000  0.80577700  1
  Sb  Sb2_0  1  0.25000000  0.25000000  0.00000000  1
  Sb  Sb2_1  1  0.25000000  0.25000000  0.50000000  1
  Sb  Sb2_2  1  0.25000000  0.75000000  0.00000000  1
  Sb  Sb2_3  1  0.25000000  0.75000000  0.50000000  1
  Sb  Sb2_4  1  0.75000000  0.25000000  0.00000000  1
  Sb  Sb2_5  1  0.75000000  0.25000000  0.50000000  1
  Sb  Sb2_6  1  0.75000000  0.75000000  0.00000000  1
  Sb  Sb2_7  1  0.75000000  0.75000000  0.50000000  1
loop_
_geom_bond_atom_site_label_1
_geom_bond_atom_site_label_2
_geom_bond_distance
_geom_bond_site_symmetry_2
Li0_0 Sb1_0 2.618907 1_555
Li0_0 Sb0_0 2.618907 1_555
Li0_1 Sb1_1 2.618907 1_555
Li0_1 Sb0_1 2.618907 1_555
Li0_2 Sb1_2 2.618907 1_555
Li0_2 Sb0_2 2.618907 1_555
Li0_3 Sb1_3 2.618907 1_555
Li0_3 Sb0_3 2.618907 1_555
Li0_4 Sb1_4 2.618907 1_555
Li0_4 Sb0_4 2.618907 1_555
Li0_5 Sb1_5 2.618907 1_555
Li0_5 Sb0_5 2.618907 1_555
Li0_6 Sb1_6 2.618907 1_555
Li0_6 Sb0_6 2.618907 1_555
Li0_7 Sb1_7 2.618907 1_555
Li0_7 Sb0_7 2.618907 1_555
Li1_0 Sb2_0 2.777303 1_555
Li1_0 Nd1_0 3.306043 1_555
Li1_1 Sb2_1 2.777303 1_555
Li1_1 Nd1_1 3.306043 1_555
Li1_2 Sb2_2 2.777303 1_555
Li1_2 Nd1_2 3.306043 1_555
Li1_3 Sb2_3 2.777303 1_555
Li1_3 Nd1_3 3.306043 1_555
Li1_4 Sb2_4 2.777303 1_555
Li1_4 Nd1_4 3.306043 1_555
Li1_5 Sb2_5 2.777303 1_555
Li1_5 Nd1_5 3.306043 1_555
Li1_6 Sb2_6 2.777303 1_555
Li1_6 Nd1_6 3.306043 1_555
Li1_7 Sb2_7 2.777303 1_555
Li1_7 Nd1_7 3.306043 1_555
Li2_0 Sb2_1 2.777303 1_555
Li2_0 Nd0_0 3.306043 1_555
Li2_1 Sb2_0 2.777303 1_556
Li2_1 Nd0_1 3.306043 1_555
Li2_2 Sb2_3 2.777303 1_555
Li2_2 Nd0_2 3.306043 1_555
Li2_3 Sb2_2 2.777303 1_556
Li2_3 Nd0_3 3.306043 1_555
Li2_4 Sb2_5 2.777303 1_555
Li2_4 Nd0_4 3.306043 1_555
Li2_5 Sb2_4 2.777303 1_556
Li2_5 Nd0_5 3.306043 1_555
Li2_6 Sb2_7 2.777303 1_555
Li2_6 Nd0_6 3.306043 1_555
Li2_7 Sb2_6 2.777303 1_556
Li2_7 Nd0_7 3.306043 1_555
Nd0_0 Sb1_0 3.036038 1_555
Nd0_0 Nd0_4 3.219424 1_555
Nd0_0 Nd0_2 3.219424 1_545
Nd0_0 Nd0_4 3.219424 1_455
Nd0_0 Nd0_2 3.219424 1_555
Nd0_1 Sb1_1 3.036038 1_555
Nd0_1 Nd0_5 3.219424 1_555
Nd0_1 Nd0_5 3.219424 1_455
Nd0_1 Nd0_3 3.219424 1_545
Nd0_1 Nd0_3 3.219424 1_555
Nd0_2 Sb1_2 3.036038 1_555
Nd0_2 Nd0_6 3.219424 1_455
Nd0_2 Nd0_6 3.219424 1_555
Nd0_3 Sb1_3 3.036038 1_555
Nd0_3 Nd0_7 3.219424 1_455
Nd0_3 Nd0_7 3.219424 1_555
Nd0_4 Sb1_4 3.036038 1_555
Nd0_4 Nd0_6 3.219424 1_555
Nd0_4 Nd0_6 3.219424 1_545
Nd0_5 Sb1_5 3.036038 1_555
Nd0_5 Nd0_7 3.219424 1_545
Nd0_5 Nd0_7 3.219424 1_555
Nd0_6 Sb1_6 3.036038 1_555
Nd0_7 Sb1_7 3.036038 1_555
Nd1_0 Sb0_0 3.036038 1_555
Nd1_0 Nd1_4 3.219424 1_455
Nd1_0 Nd1_4 3.219424 1_555
Nd1_0 Nd1_2 3.219424 1_555
Nd1_0 Nd1_2 3.219424 1_545
Nd1_1 Sb0_1 3.036038 1_555
Nd1_1 Nd1_5 3.219424 1_555
Nd1_1 Nd1_3 3.219424 1_555
Nd1_1 Nd1_3 3.219424 1_545
Nd1_1 Nd1_5 3.219424 1_455
Nd1_2 Sb0_2 3.036038 1_555
Nd1_2 Nd1_6 3.219424 1_555
Nd1_2 Nd1_6 3.219424 1_455
Nd1_3 Sb0_3 3.036038 1_555
Nd1_3 Nd1_7 3.219424 1_455
Nd1_3 Nd1_7 3.219424 1_555
Nd1_4 Sb0_4 3.036038 1_555
Nd1_4 Nd1_6 3.219424 1_555
Nd1_4 Nd1_6 3.219424 1_545
Nd1_5 Sb0_5 3.036038 1_555
Nd1_5 Nd1_7 3.219424 1_545
Nd1_5 Nd1_7 3.219424 1_555
Nd1_6 Sb0_6 3.036038 1_555
Nd1_7 Sb0_7 3.036038 1_555
