# generated using pymatgen
data_LiCo5O7F
_symmetry_space_group_name_H-M   'P 1'
_cell_length_a   5.84793105
_cell_length_b   5.87889863
_cell_length_c   10.34644507
_cell_angle_alpha   73.39097674
_cell_angle_beta   91.31699298
_cell_angle_gamma   61.38988404
_symmetry_Int_Tables_number   1
_chemical_formula_structural   LiCo5O7F
_chemical_formula_sum   'Li2 Co10 O14 F2'
_cell_volume   293.79159413
_cell_formula_units_Z   2
loop_
 _symmetry_equiv_pos_site_id
 _symmetry_equiv_pos_as_xyz
  1  'x, y, z'
loop_
 _atom_site_type_symbol
 _atom_site_label
 _atom_site_symmetry_multiplicity
 _atom_site_fract_x
 _atom_site_fract_y
 _atom_site_fract_z
 _atom_site_occupancy
  Li  Li0  1  0.01930400  0.01349500  0.00843600  1
  Li  Li1  1  0.51827500  0.00965700  0.50407000  1
  Co  Co0  1  0.86360400  0.23850200  0.62009800  1
  Co  Co1  1  0.43959700  0.62863400  0.81314800  1
  Co  Co2  1  0.68270000  0.61774000  0.06481000  1
  Co  Co3  1  0.42376000  0.12689400  0.80969200  1
  Co  Co4  1  0.93547700  0.62357000  0.81123200  1
  Co  Co5  1  0.35819300  0.24060000  0.12092300  1
  Co  Co6  1  0.94127000  0.62408100  0.31389500  1
  Co  Co7  1  0.17841600  0.61426600  0.56344900  1
  Co  Co8  1  0.92527900  0.12757100  0.30907800  1
  Co  Co9  1  0.43712600  0.61436500  0.30805600  1
  O  O0  1  0.56277100  0.37697800  0.18402200  1
  O  O1  1  0.07616400  0.36918400  0.68584100  1
  O  O2  1  0.01838600  0.38209000  0.19210100  1
  O  O3  1  0.52685900  0.38635700  0.68749200  1
  O  O4  1  0.57425000  0.82792000  0.19288500  1
  O  O5  1  0.06674500  0.83361200  0.69388000  1
  O  O6  1  0.79962200  0.37779800  0.41622700  1
  O  O7  1  0.29613700  0.39537500  0.91685000  1
  O  O8  1  0.08154800  0.87308000  0.21215200  1
  O  O9  1  0.58216300  0.85441600  0.71055900  1
  O  O10  1  0.30039000  0.41798100  0.42469000  1
  O  O11  1  0.80812400  0.42564000  0.93601300  1
  O  O12  1  0.85167800  0.86866800  0.42945700  1
  O  O13  1  0.35796500  0.86295300  0.93711800  1
  F  F0  1  0.31759800  0.87055300  0.44651500  1
  F  F1  1  0.80660600  0.89802500  0.93731700  1
loop_
_geom_bond_atom_site_label_1
_geom_bond_atom_site_label_2
_geom_bond_distance
_geom_bond_site_symmetry_2
Li0 O8 1.984635 1_545
Li0 O11 2.002800 1_454
Li0 O13 2.002971 1_544
Li1 O10 1.988969 1_555
Li1 O12 1.992905 1_545
Li1 O9 2.014678 1_545
Co0 O1 1.942296 1_655
Co0 O5 1.967564 1_645
Co0 O3 1.972322 1_555
Co0 O6 1.985626 1_555
Co1 O9 1.969426 1_555
Co1 O7 2.009364 1_555
Co1 O13 2.044296 1_555
Co1 O11 2.056313 1_555
Co1 O5 2.058876 1_555
Co1 O3 2.091019 1_555
Co2 O13 1.898424 1_554
Co2 O11 1.923840 1_554
Co2 O2 1.934162 1_655
Co2 O4 1.977149 1_555
Co2 O0 2.002252 1_555
Co2 F1 2.219234 1_554
Co3 O13 1.928611 1_545
Co3 O1 1.966414 1_555
Co3 O9 2.009463 1_545
Co3 O3 2.025350 1_555
Co3 O7 2.046409 1_555
Co3 F1 2.128368 1_545
Co4 O11 1.894927 1_555
Co4 O9 1.898231 1_555
Co4 O5 1.918804 1_655
Co4 O7 1.946397 1_655
Co4 O1 2.139262 1_655
Co4 F1 2.226450 1_555
Co5 O0 1.918912 1_555
Co5 O7 1.991983 1_554
Co5 O2 2.004380 1_555
Co5 O4 2.006282 1_545
Co6 O10 1.962395 1_655
Co6 O12 2.015395 1_555
Co6 O4 2.041023 1_555
Co6 O6 2.053302 1_555
Co6 O8 2.057356 1_655
Co6 O2 2.061984 1_655
Co7 O12 1.940566 1_455
Co7 O1 1.963144 1_555
Co7 O3 1.968884 1_555
Co7 O10 2.026665 1_555
Co7 O5 2.034530 1_555
Co7 F0 2.138677 1_555
Co8 O12 1.903022 1_545
Co8 O8 1.915638 1_645
Co8 O2 1.943042 1_655
Co8 O6 1.966602 1_555
Co8 O0 2.032390 1_555
Co8 F0 2.206926 1_645
Co9 O10 1.886946 1_555
Co9 O8 1.906646 1_555
Co9 O4 1.947306 1_555
Co9 O6 1.964229 1_555
Co9 O0 2.054155 1_555
Co9 F0 2.253978 1_555
F0 Li1 1.888372 1_565
F1 Li0 1.897772 1_666
