# generated using pymatgen
data_Li4MnCo2O7
_symmetry_space_group_name_H-M   'P 1'
_cell_length_a   2.98540500
_cell_length_b   6.43388423
_cell_length_c   13.61471296
_cell_angle_alpha   83.24883978
_cell_angle_beta   86.38624884
_cell_angle_gamma   76.69716669
_symmetry_Int_Tables_number   1
_chemical_formula_structural   Li4MnCo2O7
_chemical_formula_sum   'Li8 Mn2 Co4 O14'
_cell_volume   252.55125398
_cell_formula_units_Z   2
loop_
 _symmetry_equiv_pos_site_id
 _symmetry_equiv_pos_as_xyz
  1  'x, y, z'
loop_
 _atom_site_type_symbol
 _atom_site_label
 _atom_site_symmetry_multiplicity
 _atom_site_fract_x
 _atom_site_fract_y
 _atom_site_fract_z
 _atom_site_occupancy
  Li  Li0  1  0.15221800  0.93106800  0.78245100  1
  Li  Li1  1  0.00550600  0.50126200  0.49912700  1
  Li  Li2  1  0.84912500  0.06789000  0.21596500  1
  Li  Li3  1  0.57486200  0.21197900  0.64201900  1
  Li  Li4  1  0.43764700  0.77692900  0.35684000  1
  Li  Li5  1  0.28026000  0.37354100  0.07306300  1
  Li  Li6  1  0.70037500  0.63936700  0.93627800  1
  Li  Li7  1  0.59280800  0.70625300  0.13712700  1
  Mn  Mn0  1  0.99358900  0.99263700  0.00434500  1
  Mn  Mn1  1  0.86347000  0.56983100  0.71551400  1
  Co  Co0  1  0.71384800  0.14577300  0.42641400  1
  Co  Co1  1  0.40892200  0.28840000  0.86016700  1
  Co  Co2  1  0.29311400  0.86026100  0.57000300  1
  Co  Co3  1  0.14330100  0.43781200  0.27912000  1
  O  O0  1  0.53500400  0.98341900  0.90469600  1
  O  O1  1  0.46960700  0.55094200  0.60686400  1
  O  O2  1  0.26548600  0.12953600  0.32239500  1
  O  O3  1  0.02178600  0.25864200  0.75637900  1
  O  O4  1  0.84328700  0.83974100  0.46546500  1
  O  O5  1  0.74247200  0.39147800  0.18787500  1
  O  O6  1  0.13649000  0.70008200  0.03179600  1
  O  O7  1  0.74118000  0.88093200  0.67549300  1
  O  O8  1  0.54234900  0.44698400  0.38909200  1
  O  O9  1  0.44492500  0.03288000  0.09341300  1
  O  O10  1  0.15696000  0.16500400  0.53278400  1
  O  O11  1  0.01224500  0.71663100  0.25663900  1
  O  O12  1  0.82163600  0.30740700  0.95895600  1
  O  O13  1  0.25752900  0.59331800  0.81972000  1
loop_
_geom_bond_atom_site_label_1
_geom_bond_atom_site_label_2
_geom_bond_distance
_geom_bond_site_symmetry_2
Li0 O3 2.045324 1_565
Li0 O7 2.061127 1_455
Li0 O13 2.127179 1_555
Li0 O0 2.176710 1_555
Li0 O7 2.200642 1_555
Li0 O0 2.395482 1_455
Li1 O1 2.095798 1_455
Li1 O10 2.106604 1_555
Li1 O4 2.120160 1_455
Li1 O8 2.120763 1_555
Li1 O1 2.177984 1_555
Li1 O8 2.210085 1_455
Li2 O5 2.026117 1_555
Li2 O2 2.095488 1_655
Li2 O9 2.181295 1_555
Li2 O2 2.189001 1_555
Li2 O11 2.210091 1_645
Li2 O9 2.351238 1_655
Li3 O7 2.074706 1_545
Li3 O10 2.091110 1_555
Li3 O1 2.131221 1_555
Li3 O3 2.190509 1_555
Li3 O3 2.202421 1_655
Li3 O10 2.204822 1_655
Li4 O11 2.047935 1_555
Li4 O8 2.071158 1_555
Li4 O4 2.099638 1_555
Li4 O11 2.115979 1_655
Li4 O2 2.207812 1_565
Li4 O4 2.231298 1_455
Li5 O6 2.061959 1_555
Li5 O9 2.121520 1_555
Li5 O5 2.162212 1_455
Li5 O12 2.174655 1_554
Li5 O5 2.179082 1_555
Li5 O12 2.271745 1_454
Li6 O6 2.026289 1_656
Li6 O6 2.053905 1_556
Li6 O12 2.071526 1_555
Li6 O0 2.151432 1_555
Li6 O13 2.215671 1_555
Li6 O13 2.218947 1_655
Li7 O5 2.017932 1_555
Li7 O6 2.049018 1_555
Li7 O9 2.068198 1_565
Li7 O6 2.093533 1_655
Li7 O11 2.130921 1_655
Li7 O11 2.296257 1_555
Mn0 O6 1.830236 1_655
Mn0 O9 1.947668 1_665
Mn0 O9 1.961829 1_565
Mn0 O0 2.002221 1_554
Mn0 O12 2.003527 1_564
Mn0 O0 2.038398 1_654
Mn1 O13 1.939648 1_655
Mn1 O7 1.966951 1_555
Mn1 O3 1.969090 1_655
Mn1 O1 1.978082 1_555
Mn1 O13 2.215655 1_555
Mn1 O1 2.254122 1_655
Co0 O8 1.902804 1_555
Co0 O4 1.933515 1_545
Co0 O2 2.036246 1_555
Co0 O10 2.054634 1_655
Co0 O2 2.095296 1_655
Co0 O10 2.126161 1_555
Co1 O12 1.912843 1_555
Co1 O13 1.930165 1_555
Co1 O3 1.934022 1_555
Co1 O0 1.941308 1_545
Co1 O12 2.130888 1_455
Co1 O3 2.226532 1_655
Co2 O10 1.921425 1_565
Co2 O1 1.950903 1_555
Co2 O4 2.052612 1_455
Co2 O7 2.058809 1_555
Co2 O4 2.095365 1_555
Co2 O7 2.107418 1_455
Co3 O11 1.740059 1_555
Co3 O5 1.871546 1_455
Co3 O2 1.957934 1_555
Co3 O8 1.985553 1_555
Co3 O5 2.096033 1_555
Co3 O8 2.257737 1_455
