# generated using pymatgen
data_Cu2PHO5
_symmetry_space_group_name_H-M   'P 1'
_cell_length_a   5.94576611
_cell_length_b   8.12170382
_cell_length_c   8.51892800
_cell_angle_alpha   90.00000000
_cell_angle_beta   90.00000000
_cell_angle_gamma   90.13597974
_symmetry_Int_Tables_number   1
_chemical_formula_structural   Cu2PHO5
_chemical_formula_sum   'Cu8 P4 H4 O20'
_cell_volume   411.37575632
_cell_formula_units_Z   4
loop_
 _symmetry_equiv_pos_site_id
 _symmetry_equiv_pos_as_xyz
  1  'x, y, z'
loop_
 _atom_site_type_symbol
 _atom_site_label
 _atom_site_symmetry_multiplicity
 _atom_site_fract_x
 _atom_site_fract_y
 _atom_site_fract_z
 _atom_site_occupancy
  Cu  Cu0  1  0.25138200  0.50016700  0.00285600  1
  Cu  Cu1  1  0.75138200  0.00016700  0.49714400  1
  Cu  Cu2  1  0.74861800  0.49983300  0.99714400  1
  Cu  Cu3  1  0.24861800  0.99983300  0.50285600  1
  Cu  Cu4  1  0.98800100  0.86151700  0.87400600  1
  Cu  Cu5  1  0.48800100  0.36151700  0.62599400  1
  Cu  Cu6  1  0.01199900  0.13848300  0.12599400  1
  Cu  Cu7  1  0.51199900  0.63848300  0.37400600  1
  P  P0  1  0.49452000  0.73151300  0.75151000  1
  P  P1  1  0.99452000  0.23151300  0.74849000  1
  P  P2  1  0.50548000  0.26848700  0.24849000  1
  P  P3  1  0.00548000  0.76848700  0.25151000  1
  H  H0  1  0.01079000  0.57988700  0.79325200  1
  H  H1  1  0.51079000  0.07988700  0.70674800  1
  H  H2  1  0.98921000  0.42011300  0.20674800  1
  H  H3  1  0.48921000  0.92011300  0.29325200  1
  O  O0  1  0.49926800  0.63312300  0.91093100  1
  O  O1  1  0.99926800  0.13312300  0.58906900  1
  O  O2  1  0.50073200  0.36687700  0.08906900  1
  O  O3  1  0.00073200  0.86687700  0.41093100  1
  O  O4  1  0.29246900  0.84954200  0.74752800  1
  O  O5  1  0.79246900  0.34954200  0.75247200  1
  O  O6  1  0.70753100  0.15045800  0.25247200  1
  O  O7  1  0.20753100  0.65045800  0.24752800  1
  O  O8  1  0.47168800  0.60186000  0.61641200  1
  O  O9  1  0.97168800  0.10186000  0.88358800  1
  O  O10  1  0.52831200  0.39814000  0.38358800  1
  O  O11  1  0.02831200  0.89814000  0.11641200  1
  O  O12  1  0.00371500  0.62535300  0.90041800  1
  O  O13  1  0.50371500  0.12535300  0.59958200  1
  O  O14  1  0.99628500  0.37464700  0.09958200  1
  O  O15  1  0.49628500  0.87464700  0.40041800  1
  O  O16  1  0.71504000  0.83073300  0.73252100  1
  O  O17  1  0.21504000  0.33073300  0.76747900  1
  O  O18  1  0.28496000  0.16926700  0.26747900  1
  O  O19  1  0.78496000  0.66926700  0.23252100  1
loop_
_geom_bond_atom_site_label_1
_geom_bond_atom_site_label_2
_geom_bond_distance
_geom_bond_site_symmetry_2
Cu0 O2 1.979130 1_555
Cu0 O0 1.985957 1_554
Cu0 O12 1.992695 1_554
Cu0 O14 2.002851 1_455
Cu0 O7 2.429791 1_555
Cu0 O17 2.441224 1_554
Cu1 O3 1.979130 1_645
Cu1 O1 1.985957 1_555
Cu1 O13 1.992695 1_555
Cu1 O15 2.002851 1_545
Cu1 O6 2.429791 1_555
Cu1 O16 2.441224 1_545
Cu2 O0 1.979130 1_555
Cu2 O2 1.985957 1_556
Cu2 O14 1.992695 1_556
Cu2 O12 2.002851 1_655
Cu2 O5 2.429791 1_555
Cu2 O19 2.441224 1_556
Cu3 O1 1.979130 1_465
Cu3 O3 1.985957 1_555
Cu3 O15 1.992695 1_555
Cu3 O13 2.002851 1_565
Cu3 O4 2.429791 1_555
Cu3 O18 2.441224 1_565
Cu4 O12 1.933685 1_655
Cu4 O9 1.956337 1_565
Cu4 O16 2.036502 1_555
Cu4 O11 2.099992 1_656
Cu4 O4 2.109118 1_655
Cu5 O13 1.933685 1_555
Cu5 O8 1.956337 1_555
Cu5 O17 2.036502 1_555
Cu5 O10 2.099992 1_555
Cu5 O5 2.109118 1_555
Cu6 O14 1.933685 1_455
Cu6 O11 1.956337 1_545
Cu6 O18 2.036502 1_555
Cu6 O9 2.099992 1_454
Cu6 O6 2.109118 1_455
Cu7 O15 1.933685 1_555
Cu7 O10 1.956337 1_555
Cu7 O19 2.036502 1_555
Cu7 O8 2.099992 1_555
Cu7 O7 2.109118 1_555
H0 O12 0.985726 1_555
H1 O13 0.985726 1_555
H2 O14 0.985726 1_555
H3 O15 0.985726 1_555
O0 P0 1.576033 1_555
O1 P1 1.576033 1_555
O2 P2 1.576033 1_555
O3 P3 1.576033 1_555
O4 P0 1.539078 1_555
O5 P1 1.539078 1_555
O6 P2 1.539078 1_555
O7 P3 1.539078 1_555
O8 P0 1.565604 1_555
O9 P1 1.565604 1_555
O10 P2 1.565604 1_555
O11 P3 1.565604 1_555
O16 P0 1.545854 1_555
O17 P1 1.545854 1_455
O18 P2 1.545854 1_555
O19 P3 1.545854 1_655
