# generated using pymatgen
data_Na8NO3
_symmetry_space_group_name_H-M   'P 1'
_cell_length_a   5.65407100
_cell_length_b   5.65407100
_cell_length_c   5.65407100
_cell_angle_alpha   90.00000000
_cell_angle_beta   90.00000000
_cell_angle_gamma   90.00000000
_symmetry_Int_Tables_number   1
_chemical_formula_structural   Na8NO3
_chemical_formula_sum   'Na8 N1 O3'
_cell_volume   180.75227547
_cell_formula_units_Z   1
loop_
 _symmetry_equiv_pos_site_id
 _symmetry_equiv_pos_as_xyz
  1  'x, y, z'
loop_
 _atom_site_type_symbol
 _atom_site_label
 _atom_site_symmetry_multiplicity
 _atom_site_fract_x
 _atom_site_fract_y
 _atom_site_fract_z
 _atom_site_occupancy
  Na  Na0  1  0.25261000  0.25261000  0.25261000  1
  Na  Na1  1  0.74739000  0.74739000  0.25261000  1
  Na  Na2  1  0.74739000  0.25261000  0.74739000  1
  Na  Na3  1  0.25261000  0.74739000  0.74739000  1
  Na  Na4  1  0.25261000  0.25261000  0.74739000  1
  Na  Na5  1  0.74739000  0.74739000  0.74739000  1
  Na  Na6  1  0.74739000  0.25261000  0.25261000  1
  Na  Na7  1  0.25261000  0.74739000  0.25261000  1
  N  N0  1  0.00000000  0.00000000  0.00000000  1
  O  O0  1  0.50000000  0.50000000  0.00000000  1
  O  O1  1  0.00000000  0.50000000  0.50000000  1
  O  O2  1  0.50000000  0.00000000  0.50000000  1
loop_
_geom_bond_atom_site_label_1
_geom_bond_atom_site_label_2
_geom_bond_distance
_geom_bond_site_symmetry_2
Na0 O0 2.439884 1_555
Na0 O1 2.439884 1_555
Na0 O2 2.439884 1_555
Na1 O2 2.439884 1_565
Na1 O1 2.439884 1_655
Na1 O0 2.439884 1_555
Na2 O1 2.439884 1_655
Na2 O0 2.439884 1_556
Na2 O2 2.439884 1_555
Na3 O2 2.439884 1_565
Na3 O0 2.439884 1_556
Na3 O1 2.439884 1_555
Na4 O0 2.439884 1_556
Na4 O1 2.439884 1_555
Na4 O2 2.439884 1_555
Na5 O2 2.439884 1_565
Na5 O0 2.439884 1_556
Na5 O1 2.439884 1_655
Na6 O1 2.439884 1_655
Na6 O0 2.439884 1_555
Na6 O2 2.439884 1_555
Na7 O2 2.439884 1_565
Na7 O0 2.439884 1_555
Na7 O1 2.439884 1_555
N0 Na2 2.473845 1_454
N0 Na1 2.473845 1_445
N0 Na5 2.473845 1_444
N0 Na3 2.473845 1_544
N0 Na4 2.473845 1_554
N0 Na7 2.473845 1_545
N0 Na6 2.473845 1_455
N0 Na0 2.473845 1_555
