# generated using pymatgen
data_Na2Sb4O11
_symmetry_space_group_name_H-M   'P 1'
_cell_length_a   10.62051619
_cell_length_b   10.62051619
_cell_length_c   7.28032889
_cell_angle_alpha   84.83384052
_cell_angle_beta   84.83384052
_cell_angle_gamma   42.17221134
_symmetry_Int_Tables_number   1
_chemical_formula_structural   Na2Sb4O11
_chemical_formula_sum   'Na4 Sb8 O22'
_cell_volume   548.74001054
_cell_formula_units_Z   2
loop_
 _symmetry_equiv_pos_site_id
 _symmetry_equiv_pos_as_xyz
  1  'x, y, z'
loop_
 _atom_site_type_symbol
 _atom_site_label
 _atom_site_symmetry_multiplicity
 _atom_site_fract_x
 _atom_site_fract_y
 _atom_site_fract_z
 _atom_site_occupancy
  Na  Na0  1  0.96866900  0.96866900  0.28114400  1
  Na  Na1  1  0.26534100  0.26534100  0.07609200  1
  Na  Na2  1  0.73465900  0.73465900  0.92390800  1
  Na  Na3  1  0.03133100  0.03133100  0.71885600  1
  Sb  Sb0  1  0.42403900  0.42403900  0.61712000  1
  Sb  Sb1  1  0.42896900  0.42896900  0.09691800  1
  Sb  Sb2  1  0.58408100  0.06761600  0.43605700  1
  Sb  Sb3  1  0.06761600  0.58408100  0.43605700  1
  Sb  Sb4  1  0.41591900  0.93238400  0.56394300  1
  Sb  Sb5  1  0.93238400  0.41591900  0.56394300  1
  Sb  Sb6  1  0.57103100  0.57103100  0.90308200  1
  Sb  Sb7  1  0.57596100  0.57596100  0.38288000  1
  O  O0  1  0.47686100  0.47686100  0.34400000  1
  O  O1  1  0.66908200  0.15636700  0.56475900  1
  O  O2  1  0.15636700  0.66908200  0.56475900  1
  O  O3  1  0.38079600  0.38079600  0.86915800  1
  O  O4  1  0.56126700  0.17522200  0.18550700  1
  O  O5  1  0.17522200  0.56126700  0.18550700  1
  O  O6  1  0.33252900  0.33252900  0.51451400  1
  O  O7  1  0.84569500  0.84569500  0.35307700  1
  O  O8  1  0.96904400  0.55725800  0.66690200  1
  O  O9  1  0.55725800  0.96904400  0.66690200  1
  O  O10  1  0.03095600  0.44274200  0.33309800  1
  O  O11  1  0.44274200  0.03095600  0.33309800  1
  O  O12  1  0.15430500  0.15430500  0.64692300  1
  O  O13  1  0.66747100  0.66747100  0.48548600  1
  O  O14  1  0.43873300  0.82477800  0.81449300  1
  O  O15  1  0.82477800  0.43873300  0.81449300  1
  O  O16  1  0.61920400  0.61920400  0.13084200  1
  O  O17  1  0.84363300  0.33091800  0.43524100  1
  O  O18  1  0.33091800  0.84363300  0.43524100  1
  O  O19  1  0.52313900  0.52313900  0.65600000  1
  O  O20  1  0.67445900  0.32554100  0.00000000  1
  O  O21  1  0.32554100  0.67445900  0.00000000  1
loop_
_geom_bond_atom_site_label_1
_geom_bond_atom_site_label_2
_geom_bond_distance
_geom_bond_site_symmetry_2
Na0 O7 2.442909 1_555
Na0 O1 2.918481 1_565
Na0 O2 2.918481 1_655
Na1 O10 2.468103 1_555
Na1 O11 2.468103 1_555
Na1 O3 2.615351 1_554
Na1 O4 2.698726 1_555
Na1 O5 2.698726 1_555
Na2 O8 2.468103 1_555
Na2 O9 2.468103 1_555
Na2 O16 2.615351 1_556
Na2 O14 2.698726 1_555
Na2 O15 2.698726 1_555
Na3 O12 2.442909 1_555
Na3 O17 2.918481 1_455
Na3 O18 2.918481 1_545
O0 Sb7 2.011187 1_555
O0 Sb1 2.113355 1_555
O0 Sb0 2.155900 1_555
O1 Sb0 2.012463 1_555
O1 Sb2 2.038149 1_555
O2 Sb0 2.012463 1_555
O2 Sb3 2.038149 1_555
O3 Sb0 1.948818 1_555
O3 Sb1 1.991629 1_556
O4 Sb1 1.972390 1_555
O4 Sb2 1.996446 1_555
O5 Sb1 1.972390 1_555
O5 Sb3 1.996446 1_555
O6 Sb0 2.026993 1_555
O6 Sb3 2.062193 1_555
O6 Sb2 2.062193 1_555
O7 Sb3 1.971623 1_655
O7 Sb2 1.971623 1_565
O8 Sb3 2.010128 1_655
O8 Sb5 2.021937 1_555
O9 Sb2 2.010128 1_565
O9 Sb4 2.021937 1_555
O10 Sb5 2.010128 1_455
O10 Sb3 2.021937 1_555
O11 Sb4 2.010128 1_545
O11 Sb2 2.021937 1_555
O12 Sb5 1.971623 1_455
O12 Sb4 1.971623 1_545
O13 Sb7 2.026993 1_555
O13 Sb5 2.062193 1_555
O13 Sb4 2.062193 1_555
O14 Sb6 1.972390 1_555
O14 Sb4 1.996446 1_555
O15 Sb6 1.972390 1_555
O15 Sb5 1.996446 1_555
O16 Sb7 1.948818 1_555
O16 Sb6 1.991629 1_554
O17 Sb7 2.012463 1_555
O17 Sb5 2.038149 1_555
O18 Sb7 2.012463 1_555
O18 Sb4 2.038149 1_555
O19 Sb0 2.011187 1_555
O19 Sb6 2.113355 1_555
O19 Sb7 2.155900 1_555
O20 Sb1 2.016261 1_555
O20 Sb6 2.016261 1_554
O21 Sb1 2.016261 1_555
O21 Sb6 2.016261 1_554
