# generated using pymatgen
data_K2RbEuV2O8
_symmetry_space_group_name_H-M   'P 1'
_cell_length_a   6.11857305
_cell_length_b   6.11857305
_cell_length_c   7.91232700
_cell_angle_alpha   90.00000000
_cell_angle_beta   90.00000000
_cell_angle_gamma   120.00001136
_symmetry_Int_Tables_number   1
_chemical_formula_structural   K2RbEuV2O8
_chemical_formula_sum   'K2 Rb1 Eu1 V2 O8'
_cell_volume   256.52819683
_cell_formula_units_Z   1
loop_
 _symmetry_equiv_pos_site_id
 _symmetry_equiv_pos_as_xyz
  1  'x, y, z'
loop_
 _atom_site_type_symbol
 _atom_site_label
 _atom_site_symmetry_multiplicity
 _atom_site_fract_x
 _atom_site_fract_y
 _atom_site_fract_z
 _atom_site_occupancy
  K  K0  1  0.33333300  0.66666700  0.70269800  1
  K  K1  1  0.66666700  0.33333300  0.29730200  1
  Rb  Rb0  1  0.00000000  0.00000000  0.00000000  1
  Eu  Eu0  1  0.00000000  0.00000000  0.50000000  1
  V  V0  1  0.33333300  0.66666700  0.24968600  1
  V  V1  1  0.66666700  0.33333300  0.75031400  1
  O  O0  1  0.33333300  0.66666700  0.03594100  1
  O  O1  1  0.66666700  0.33333300  0.96405900  1
  O  O2  1  0.17663000  0.82337000  0.32506300  1
  O  O3  1  0.82337000  0.17663000  0.67493700  1
  O  O4  1  0.17663000  0.35326000  0.32506300  1
  O  O5  1  0.82337000  0.64674000  0.67493700  1
  O  O6  1  0.64674000  0.82337000  0.32506300  1
  O  O7  1  0.35326000  0.17663000  0.67493700  1
loop_
_geom_bond_atom_site_label_1
_geom_bond_atom_site_label_2
_geom_bond_distance
_geom_bond_site_symmetry_2
K0 O0 2.636728 1_556
K0 O7 3.068976 1_565
K0 O5 3.068976 1_455
K0 O3 3.068978 1_455
K0 O3 3.068978 1_565
K0 O5 3.068982 1_555
K0 O7 3.068982 1_555
K1 O1 2.636728 1_554
K1 O6 3.068976 1_545
K1 O4 3.068976 1_655
K1 O2 3.068978 1_545
K1 O2 3.068978 1_655
K1 O6 3.068982 1_555
K1 O4 3.068982 1_555
Eu0 O6 2.328043 1_445
Eu0 O5 2.328043 1_445
Eu0 O7 2.328043 1_555
Eu0 O4 2.328043 1_555
Eu0 O3 2.328043 1_455
Eu0 O2 2.328043 1_545
O0 V0 1.691220 1_555
O0 Rb0 3.543984 1_565
O0 Rb0 3.543989 1_555
O0 Rb0 3.543989 1_665
O1 V1 1.691220 1_555
O1 Rb0 3.543984 1_656
O1 Rb0 3.543989 1_666
O1 Rb0 3.543989 1_556
O2 V0 1.764536 1_555
O2 Rb0 3.181053 1_565
O3 V1 1.764536 1_555
O3 Rb0 3.181053 1_656
O4 V0 1.764541 1_555
O4 Rb0 3.181053 1_555
O5 V1 1.764541 1_555
O5 Rb0 3.181053 1_666
O6 V0 1.764541 1_555
O6 Rb0 3.181053 1_665
O7 V1 1.764541 1_555
O7 Rb0 3.181053 1_556
