# generated using pymatgen
data_Ba2SrY2Cu2PtO10
_symmetry_space_group_name_H-M   'P 1'
_cell_length_a   6.90879991
_cell_length_b   6.90879991
_cell_length_c   7.47004064
_cell_angle_alpha   76.02185448
_cell_angle_beta   76.02185448
_cell_angle_gamma   49.50461432
_symmetry_Int_Tables_number   1
_chemical_formula_structural   Ba2SrY2Cu2PtO10
_chemical_formula_sum   'Ba2 Sr1 Y2 Cu2 Pt1 O10'
_cell_volume   261.37846752
_cell_formula_units_Z   1
loop_
 _symmetry_equiv_pos_site_id
 _symmetry_equiv_pos_as_xyz
  1  'x, y, z'
loop_
 _atom_site_type_symbol
 _atom_site_label
 _atom_site_symmetry_multiplicity
 _atom_site_fract_x
 _atom_site_fract_y
 _atom_site_fract_z
 _atom_site_occupancy
  Ba  Ba0  1  0.35020300  0.35020300  0.02776500  1
  Ba  Ba1  1  0.64979700  0.64979700  0.97223500  1
  Sr  Sr0  1  0.50000000  0.50000000  0.50000000  1
  Y  Y0  1  0.81070300  0.81070300  0.37460600  1
  Y  Y1  1  0.18929700  0.18929700  0.62539400  1
  Cu  Cu0  1  0.91455600  0.91455600  0.69456400  1
  Cu  Cu1  1  0.08544400  0.08544400  0.30543600  1
  Pt  Pt0  1  0.00000000  0.00000000  0.00000000  1
  O  O0  1  0.75548400  0.20704400  0.22007300  1
  O  O1  1  0.24451600  0.79295600  0.77992700  1
  O  O2  1  0.79295600  0.24451600  0.77992700  1
  O  O3  1  0.20704400  0.75548400  0.22007300  1
  O  O4  1  0.83237700  0.83237700  0.05064800  1
  O  O5  1  0.16762300  0.16762300  0.94935200  1
  O  O6  1  0.41227700  0.93819100  0.38216500  1
  O  O7  1  0.58772300  0.06180900  0.61783500  1
  O  O8  1  0.06180900  0.58772300  0.61783500  1
  O  O9  1  0.93819100  0.41227700  0.38216500  1
loop_
_geom_bond_atom_site_label_1
_geom_bond_atom_site_label_2
_geom_bond_distance
_geom_bond_site_symmetry_2
Ba0 O5 2.511145 1_554
Ba0 O2 2.886844 1_554
Ba0 O1 2.886844 1_554
Ba0 O4 2.902854 1_545
Ba0 O4 2.902854 1_455
Ba0 O3 2.922663 1_555
Ba0 O0 2.922663 1_555
Ba1 O4 2.511145 1_556
Ba1 O3 2.886844 1_556
Ba1 O0 2.886844 1_556
Ba1 O5 2.902854 1_565
Ba1 O5 2.902854 1_655
Ba1 O1 2.922663 1_555
Ba1 O2 2.922663 1_555
Cu0 O8 1.955046 1_655
Cu0 O7 1.955046 1_565
Cu0 O2 2.065243 1_565
Cu0 O1 2.065243 1_655
Cu0 O4 2.584487 1_556
Cu1 O9 1.955046 1_455
Cu1 O6 1.955046 1_545
Cu1 O3 2.065243 1_545
Cu1 O0 2.065243 1_455
Cu1 O5 2.584487 1_554
O0 Pt0 2.063606 1_655
O0 Y0 2.510980 1_545
O0 Sr0 2.684443 1_555
O1 Pt0 2.063606 1_566
O1 Y1 2.510980 1_565
O1 Sr0 2.684443 1_555
O2 Pt0 2.063606 1_656
O2 Y1 2.510980 1_655
O2 Sr0 2.684443 1_555
O3 Pt0 2.063606 1_565
O3 Y0 2.510980 1_455
O3 Sr0 2.684443 1_555
O4 Pt0 2.035657 1_665
O4 Y0 2.362232 1_555
O5 Pt0 2.035657 1_556
O5 Y1 2.362232 1_555
O6 Y0 2.270704 1_555
O6 Y1 2.320266 1_565
O6 Sr0 2.625740 1_555
O7 Y1 2.270704 1_555
O7 Y0 2.320266 1_545
O7 Sr0 2.625740 1_555
O8 Y1 2.270704 1_555
O8 Y0 2.320266 1_455
O8 Sr0 2.625740 1_555
O9 Y0 2.270704 1_555
O9 Y1 2.320266 1_655
O9 Sr0 2.625740 1_555
