# generated using pymatgen
data_AlTc3
_symmetry_space_group_name_H-M   'P 1'
_cell_length_a   5.41759980
_cell_length_b   5.41759980
_cell_length_c   4.56502100
_cell_angle_alpha   90.00000000
_cell_angle_beta   90.00000000
_cell_angle_gamma   119.99999759
_symmetry_Int_Tables_number   1
_chemical_formula_structural   AlTc3
_chemical_formula_sum   'Al2 Tc6'
_cell_volume   116.03453420
_cell_formula_units_Z   2
loop_
 _symmetry_equiv_pos_site_id
 _symmetry_equiv_pos_as_xyz
  1  'x, y, z'
loop_
 _atom_site_type_symbol
 _atom_site_label
 _atom_site_symmetry_multiplicity
 _atom_site_fract_x
 _atom_site_fract_y
 _atom_site_fract_z
 _atom_site_occupancy
  Al  Al0  1  0.33333300  0.66666700  0.75000000  1
  Al  Al1  1  0.66666700  0.33333300  0.25000000  1
  Tc  Tc0  1  0.17087800  0.34175700  0.25000000  1
  Tc  Tc1  1  0.65824300  0.82912200  0.25000000  1
  Tc  Tc2  1  0.17087800  0.82912200  0.25000000  1
  Tc  Tc3  1  0.82912200  0.65824300  0.75000000  1
  Tc  Tc4  1  0.34175700  0.17087800  0.75000000  1
  Tc  Tc5  1  0.82912200  0.17087800  0.75000000  1
loop_
_geom_bond_atom_site_label_1
_geom_bond_atom_site_label_2
_geom_bond_distance
_geom_bond_site_symmetry_2
Al0 Tc4 2.709083 1_565
Al0 Tc3 2.709083 1_455
Al0 Tc5 2.709088 1_565
Al0 Tc5 2.709088 1_455
Al0 Tc3 2.709094 1_555
Al0 Tc4 2.709094 1_555
Al0 Tc2 2.744753 1_556
Al0 Tc2 2.744753 1_555
Al0 Tc0 2.744753 1_555
Al0 Tc1 2.744753 1_556
Al0 Tc1 2.744753 1_555
Al0 Tc0 2.744753 1_556
Al1 Tc0 2.709083 1_655
Al1 Tc1 2.709083 1_545
Al1 Tc2 2.709088 1_655
Al1 Tc2 2.709088 1_545
Al1 Tc1 2.709094 1_555
Al1 Tc0 2.709094 1_555
Al1 Tc5 2.744753 1_555
Al1 Tc5 2.744753 1_554
Al1 Tc4 2.744753 1_554
Al1 Tc4 2.744753 1_555
Al1 Tc3 2.744753 1_555
Al1 Tc3 2.744753 1_554
Tc0 Tc2 2.640349 1_555
Tc0 Tc1 2.640349 1_555
Tc0 Tc2 2.777251 1_545
Tc0 Tc1 2.777251 1_445
Tc0 Tc5 2.789424 1_455
Tc0 Tc5 2.789424 1_454
Tc0 Tc4 2.789429 1_554
Tc0 Tc4 2.789429 1_555
Tc1 Tc2 2.640349 1_555
Tc1 Tc2 2.777251 1_655
Tc1 Tc5 2.789424 1_565
Tc1 Tc5 2.789424 1_564
Tc1 Tc3 2.789429 1_554
Tc1 Tc3 2.789429 1_555
Tc2 Tc4 2.789424 1_564
Tc2 Tc4 2.789424 1_565
Tc2 Tc3 2.789424 1_455
Tc2 Tc3 2.789424 1_454
Tc3 Tc5 2.640349 1_555
Tc3 Tc4 2.640349 1_555
Tc3 Tc5 2.777251 1_565
Tc3 Tc4 2.777251 1_665
Tc4 Tc5 2.640349 1_555
Tc4 Tc5 2.777251 1_455
