# generated using pymatgen
data_InCuS2
_symmetry_space_group_name_H-M   'P 1'
_cell_length_a   6.55180881
_cell_length_b   6.55180881
_cell_length_c   6.55180954
_cell_angle_alpha   34.44658997
_cell_angle_beta   34.44658997
_cell_angle_gamma   34.44658788
_symmetry_Int_Tables_number   1
_chemical_formula_structural   InCuS2
_chemical_formula_sum   'In1 Cu1 S2'
_cell_volume   80.26869019
_cell_formula_units_Z   1
loop_
 _symmetry_equiv_pos_site_id
 _symmetry_equiv_pos_as_xyz
  1  'x, y, z'
loop_
 _atom_site_type_symbol
 _atom_site_label
 _atom_site_symmetry_multiplicity
 _atom_site_fract_x
 _atom_site_fract_y
 _atom_site_fract_z
 _atom_site_occupancy
  In  In0  1  0.99557700  0.99557700  0.99557700  1
  Cu  Cu0  1  0.13634300  0.13634300  0.13634300  1
  S  S0  1  0.26062700  0.26062700  0.26062700  1
  S  S1  1  0.76045200  0.76045200  0.76045200  1
loop_
_geom_bond_atom_site_label_1
_geom_bond_atom_site_label_2
_geom_bond_distance
_geom_bond_site_symmetry_2
In0 S0 2.570744 1_656
In0 S0 2.570744 1_566
In0 S0 2.570745 1_665
In0 S1 2.882455 1_655
In0 S1 2.882455 1_565
In0 S1 2.882455 1_556
Cu0 S0 2.295637 1_555
Cu0 S1 2.374001 1_454
Cu0 S1 2.374001 1_544
Cu0 S1 2.374001 1_445
Cu0 In0 2.600075 1_444
