# generated using pymatgen
data_UAgF6
_symmetry_space_group_name_H-M   'P 1'
_cell_length_a   5.27436615
_cell_length_b   5.27436615
_cell_length_c   9.07800951
_cell_angle_alpha   90.00000000
_cell_angle_beta   90.00000000
_cell_angle_gamma   90.06644959
_symmetry_Int_Tables_number   1
_chemical_formula_structural   UAgF6
_chemical_formula_sum   'U2 Ag2 F12'
_cell_volume   252.54041615
_cell_formula_units_Z   2
loop_
 _symmetry_equiv_pos_site_id
 _symmetry_equiv_pos_as_xyz
  1  'x, y, z'
loop_
 _atom_site_type_symbol
 _atom_site_label
 _atom_site_symmetry_multiplicity
 _atom_site_fract_x
 _atom_site_fract_y
 _atom_site_fract_z
 _atom_site_occupancy
  U  U0  1  0.00000000  -0.00000000  0.00000000  1
  U  U1  1  0.00000000  -0.00000000  0.50000000  1
  Ag  Ag0  1  0.50000000  0.50000000  0.24958599  1
  Ag  Ag1  1  0.50000000  0.50000000  0.75041401  1
  F  F0  1  0.27959929  0.27959929  0.00000000  1
  F  F1  1  0.72040071  0.72040071  0.00000000  1
  F  F2  1  0.72080905  0.27919095  0.50000000  1
  F  F3  1  0.27919095  0.72080905  0.50000000  1
  F  F4  1  0.20461713  0.20461713  0.34332736  1
  F  F5  1  0.79538287  0.79538287  0.65667264  1
  F  F6  1  0.79538287  0.79538287  0.34332736  1
  F  F7  1  0.79531273  0.20468727  0.84364288  1
  F  F8  1  0.79531273  0.20468727  0.15635712  1
  F  F9  1  0.20461713  0.20461713  0.65667264  1
  F  F10  1  0.20468727  0.79531273  0.15635712  1
  F  F11  1  0.20468727  0.79531273  0.84364288  1
loop_
_geom_bond_atom_site_label_1
_geom_bond_atom_site_label_2
_geom_bond_distance
_geom_bond_site_symmetry_2
Ag0 F4 2.360722 1_555
Ag0 F6 2.360722 1_555
Ag0 F10 2.360945 1_555
Ag0 F8 2.360945 1_555
Ag1 F9 2.360722 1_555
Ag1 F5 2.360722 1_555
Ag1 F11 2.360945 1_555
Ag1 F7 2.360945 1_555
F0 U0 2.084344 1_555
F1 U0 2.084344 1_665
F2 U1 2.083715 1_655
F3 U1 2.083715 1_565
F4 U1 2.085575 1_555
F5 U1 2.085575 1_665
F6 U1 2.085575 1_665
F7 U0 2.085302 1_656
F8 U0 2.085302 1_655
F9 U1 2.085575 1_555
F10 U0 2.085302 1_565
F11 U0 2.085302 1_566
