# generated using pymatgen
data_Hf3Ge
_symmetry_space_group_name_H-M   'P 1'
_cell_length_a   5.50283087
_cell_length_b   5.50283087
_cell_length_c   5.50283087
_cell_angle_alpha   135.26737863
_cell_angle_beta   135.26737863
_cell_angle_gamma   65.11503626
_symmetry_Int_Tables_number   1
_chemical_formula_structural   Hf3Ge
_chemical_formula_sum   'Hf3 Ge1'
_cell_volume   81.34668512
_cell_formula_units_Z   1
loop_
 _symmetry_equiv_pos_site_id
 _symmetry_equiv_pos_as_xyz
  1  'x, y, z'
loop_
 _atom_site_type_symbol
 _atom_site_label
 _atom_site_symmetry_multiplicity
 _atom_site_fract_x
 _atom_site_fract_y
 _atom_site_fract_z
 _atom_site_occupancy
  Hf  Hf0  1  0.75000000  0.25000000  0.50000000  1
  Hf  Hf1  1  0.25000000  0.75000000  0.50000000  1
  Hf  Hf2  1  0.50000000  0.50000000  0.00000000  1
  Ge  Ge0  1  0.00000000  0.00000000  0.00000000  1
loop_
_geom_bond_atom_site_label_1
_geom_bond_atom_site_label_2
_geom_bond_distance
_geom_bond_site_symmetry_2
Hf0 Hf1 2.961326 1_555
Hf0 Hf1 2.961326 1_544
Hf0 Hf1 2.961326 1_645
Hf0 Hf1 2.961326 1_656
Hf0 Hf2 3.124524 1_556
Hf0 Hf2 3.124524 1_555
Hf0 Hf2 3.124524 1_545
Hf0 Hf2 3.124524 1_656
Hf1 Hf2 3.124524 1_556
Hf1 Hf2 3.124524 1_555
Hf1 Hf2 3.124524 1_566
Hf1 Hf2 3.124524 1_455
Ge0 Hf2 2.961326 1_556
Ge0 Hf2 2.961326 1_444
Ge0 Hf2 2.961326 1_545
Ge0 Hf2 2.961326 1_455
Ge0 Hf1 3.124524 1_544
Ge0 Hf1 3.124524 1_545
Ge0 Hf1 3.124524 1_555
Ge0 Hf0 3.124524 1_455
Ge0 Hf0 3.124524 1_444
Ge0 Hf0 3.124524 1_454
Ge0 Hf1 3.124524 1_444
Ge0 Hf0 3.124524 1_555
