# generated using pymatgen
data_Er4TaV7B24
_symmetry_space_group_name_H-M   'P 1'
_cell_length_a   3.33300400
_cell_length_b   8.89754600
_cell_length_c   11.23958294
_cell_angle_alpha   89.97654048
_cell_angle_beta   90.00000000
_cell_angle_gamma   90.00000000
_symmetry_Int_Tables_number   1
_chemical_formula_structural   Er4TaV7B24
_chemical_formula_sum   'Er4 Ta1 V7 B24'
_cell_volume   333.31605801
_cell_formula_units_Z   1
loop_
 _symmetry_equiv_pos_site_id
 _symmetry_equiv_pos_as_xyz
  1  'x, y, z'
loop_
 _atom_site_type_symbol
 _atom_site_label
 _atom_site_symmetry_multiplicity
 _atom_site_fract_x
 _atom_site_fract_y
 _atom_site_fract_z
 _atom_site_occupancy
  Er  Er0  1  0.50000000  0.17973900  0.58524300  1
  Er  Er1  1  0.50000000  0.82003300  0.41570500  1
  Er  Er2  1  0.50000000  0.32166100  0.08484200  1
  Er  Er3  1  0.50000000  0.67844200  0.91414700  1
  Ta  Ta0  1  0.50000000  0.94591600  0.12767800  1
  V  V0  1  0.50000000  0.14720700  0.31731400  1
  V  V1  1  0.50000000  0.85482200  0.68441100  1
  V  V2  1  0.50000000  0.35453600  0.81524100  1
  V  V3  1  0.50000000  0.64283900  0.18531500  1
  V  V4  1  0.50000000  0.05434100  0.87110900  1
  V  V5  1  0.50000000  0.55440000  0.62885800  1
  V  V6  1  0.50000000  0.44567900  0.37122200  1
  B  B0  1  0.00000000  0.13130000  0.18020000  1
  B  B1  1  0.00000000  0.87288400  0.81992900  1
  B  B2  1  0.00000000  0.37317700  0.67894200  1
  B  B3  1  0.00000000  0.62605000  0.32127900  1
  B  B4  1  0.00000000  0.98143900  0.28636900  1
  B  B5  1  0.00000000  0.01927800  0.71554500  1
  B  B6  1  0.00000000  0.51935600  0.78419200  1
  B  B7  1  0.00000000  0.48057500  0.21587700  1
  B  B8  1  0.00000000  0.30095700  0.26443800  1
  B  B9  1  0.00000000  0.69964700  0.73592700  1
  B  B10  1  0.00000000  0.19987500  0.76357000  1
  B  B11  1  0.00000000  0.79791500  0.23763000  1
  B  B12  1  0.00000000  0.26089200  0.41862700  1
  B  B13  1  0.00000000  0.73961900  0.58188100  1
  B  B14  1  0.00000000  0.24070800  0.91743400  1
  B  B15  1  0.00000000  0.75592800  0.08090900  1
  B  B16  1  0.00000000  0.59411600  0.47538500  1
  B  B17  1  0.00000000  0.40572500  0.52491200  1
  B  B18  1  0.00000000  0.90457600  0.97218800  1
  B  B19  1  0.00000000  0.09753300  0.02297400  1
  B  B20  1  0.00000000  0.05512300  0.43404000  1
  B  B21  1  0.00000000  0.94529500  0.56707500  1
  B  B22  1  0.00000000  0.44493500  0.93286000  1
  B  B23  1  0.00000000  0.55347800  0.06673300  1
loop_
_geom_bond_atom_site_label_1
_geom_bond_atom_site_label_2
_geom_bond_distance
_geom_bond_site_symmetry_2
B0 B8 1.782213 1_555
B0 B4 1.789020 1_545
B0 B19 1.792634 1_555
B0 V0 2.274300 1_555
B0 V0 2.274300 1_455
B0 Ta0 2.418106 1_445
B0 Ta0 2.418106 1_545
B0 Er2 2.606384 1_455
B0 Er2 2.606384 1_555
B1 B18 1.734517 1_555
B1 B5 1.752670 1_565
B1 B9 1.807891 1_555
B1 V1 2.263469 1_455
B1 V1 2.263469 1_555
B1 V4 2.390727 1_565
B1 V4 2.390727 1_465
B1 Er3 2.624927 1_555
B1 Er3 2.624927 1_455
B2 B6 1.758499 1_555
B2 V2 2.269666 1_455
B2 V2 2.269666 1_555
B2 V5 2.386070 1_555
B2 V5 2.386070 1_455
B2 Er0 2.617265 1_455
B2 Er0 2.617265 1_555
B3 B7 1.755023 1_555
B3 V3 2.265985 1_555
B3 V3 2.265985 1_455
B3 V6 2.380581 1_555
B3 V6 2.380581 1_455
B3 Er1 2.623754 1_555
B3 Er1 2.623754 1_455
B4 V0 2.252562 1_565
B4 V0 2.252562 1_465
B4 Ta0 2.461482 1_455
B4 Ta0 2.461482 1_555
B4 Er1 2.636503 1_455
B4 Er1 2.636503 1_555
B5 V1 2.245265 1_545
B5 V1 2.245265 1_445
B5 V4 2.435604 1_555
B5 V4 2.435604 1_455
B5 Er0 2.637944 1_555
B5 Er0 2.637944 1_455
B6 B9 1.693180 1_555
B6 V2 2.247042 1_455
B6 V2 2.247042 1_555
B6 V5 2.433544 1_455
B6 V5 2.433544 1_555
B6 Er3 2.629821 1_455
B6 Er3 2.629821 1_555
B7 B8 1.688580 1_555
B7 V3 2.231420 1_555
B7 V3 2.231420 1_455
B7 V6 2.433465 1_555
B7 V6 2.433465 1_455
B7 Er2 2.635764 1_555
B7 Er2 2.635764 1_455
B8 V0 2.236331 1_455
B8 V0 2.236331 1_555
B8 V6 2.424271 1_555
B8 V6 2.424271 1_455
B8 Er2 2.624032 1_555
B8 Er2 2.624032 1_455
B9 V1 2.240113 1_555
B9 V1 2.240113 1_455
B9 V5 2.428343 1_455
B9 V5 2.428343 1_555
B9 Er3 2.612470 1_555
B9 Er3 2.612470 1_455
B10 B5 1.695319 1_555
B10 B14 1.767264 1_555
B10 B2 1.811408 1_555
B10 V2 2.238041 1_455
B10 V2 2.238041 1_555
B10 V4 2.431798 1_455
B10 V4 2.431798 1_555
B10 Er0 2.612838 1_555
B10 Er0 2.612838 1_455
B11 B4 1.722565 1_555
B11 B3 1.794754 1_555
B11 B15 1.800808 1_555
B11 V3 2.242203 1_555
B11 V3 2.242203 1_455
B11 Ta0 2.457075 1_455
B11 Ta0 2.457075 1_555
B11 Er1 2.611941 1_455
B11 Er1 2.611941 1_555
B12 B17 1.757546 1_555
B12 B8 1.769161 1_555
B12 B20 1.838946 1_555
B12 V0 2.257878 1_455
B12 V0 2.257878 1_555
B12 V6 2.400757 1_555
B12 V6 2.400757 1_455
B12 Er0 2.608540 1_555
B12 Er0 2.608540 1_455
B13 B16 1.763533 1_555
B13 B9 1.767420 1_555
B13 B21 1.837495 1_555
B13 V1 2.270877 1_455
B13 V1 2.270877 1_555
B13 V5 2.402330 1_555
B13 V5 2.402330 1_455
B13 Er1 2.603179 1_455
B13 Er1 2.603179 1_555
B14 B19 1.740325 1_556
B14 B22 1.825443 1_555
B14 V2 2.263033 1_555
B14 V2 2.263033 1_455
B14 V4 2.408048 1_455
B14 V4 2.408048 1_555
B14 Er2 2.614871 1_556
B14 Er2 2.614871 1_456
B15 B18 1.800329 1_554
B15 B23 1.808406 1_555
B15 V3 2.272836 1_455
B15 V3 2.272836 1_555
B15 Ta0 2.431424 1_555
B15 Ta0 2.431424 1_455
B15 Er3 2.601296 1_554
B15 Er3 2.601296 1_454
B16 B3 1.755123 1_555
B16 B17 1.766017 1_555
B16 V5 2.424280 1_455
B16 V5 2.424280 1_555
B16 V6 2.427645 1_555
B16 V6 2.427645 1_455
B16 Er1 2.695663 1_455
B16 Er1 2.695663 1_555
B17 B2 1.755171 1_555
B17 V6 2.426325 1_555
B17 V6 2.426325 1_455
B17 V5 2.427623 1_555
B17 V5 2.427623 1_455
B17 Er0 2.697948 1_555
B17 Er0 2.697948 1_455
B18 B19 1.809470 1_566
B18 V4 2.417094 1_565
B18 V4 2.417094 1_465
B18 Ta0 2.442807 1_556
B18 Ta0 2.442807 1_456
B18 Er3 2.692985 1_455
B18 Er3 2.692985 1_555
B19 V4 2.416394 1_454
B19 V4 2.416394 1_554
B19 Ta0 2.445549 1_445
B19 Ta0 2.445549 1_545
B19 Er2 2.690482 1_555
B19 Er2 2.690482 1_455
B20 B4 1.784801 1_545
B20 B21 1.785922 1_545
B20 V0 2.273511 1_555
B20 V0 2.273511 1_455
B20 Er0 2.626084 1_455
B20 Er0 2.626084 1_555
B20 Er1 2.682417 1_545
B20 Er1 2.682417 1_445
B21 B5 1.794132 1_565
B21 V1 2.272360 1_455
B21 V1 2.272360 1_555
B21 Er1 2.629732 1_455
B21 Er1 2.629732 1_555
B21 Er0 2.677793 1_565
B21 Er0 2.677793 1_465
B22 B23 1.788280 1_556
B22 B6 1.797132 1_555
B22 V2 2.274357 1_555
B22 V2 2.274357 1_455
B22 Er2 2.626165 1_456
B22 Er2 2.626165 1_556
B22 Er3 2.671646 1_455
B22 Er3 2.671646 1_555
B23 B7 1.797193 1_555
B23 V3 2.277424 1_555
B23 V3 2.277424 1_455
B23 Er3 2.636885 1_554
B23 Er3 2.636885 1_454
B23 Er2 2.659444 1_555
B23 Er2 2.659444 1_455
