# generated using pymatgen
data_KTm(MoO4)2
_symmetry_space_group_name_H-M   'P 1'
_cell_length_a   5.09832200
_cell_length_b   8.03732700
_cell_length_c   18.43287700
_cell_angle_alpha   90.00000000
_cell_angle_beta   90.00000000
_cell_angle_gamma   90.00000000
_symmetry_Int_Tables_number   1
_chemical_formula_structural   KTm(MoO4)2
_chemical_formula_sum   'K4 Tm4 Mo8 O32'
_cell_volume   755.32180852
_cell_formula_units_Z   4
loop_
 _symmetry_equiv_pos_site_id
 _symmetry_equiv_pos_as_xyz
  1  'x, y, z'
loop_
 _atom_site_type_symbol
 _atom_site_label
 _atom_site_symmetry_multiplicity
 _atom_site_fract_x
 _atom_site_fract_y
 _atom_site_fract_z
 _atom_site_occupancy
  K  K0  1  0.00000000  0.75000000  0.77009600  1
  K  K1  1  0.00000000  0.25000000  0.22990400  1
  K  K2  1  0.50000000  0.25000000  0.72990400  1
  K  K3  1  0.50000000  0.75000000  0.27009600  1
  Tm  Tm0  1  0.00000000  0.75000000  0.00590200  1
  Tm  Tm1  1  0.00000000  0.25000000  0.99409800  1
  Tm  Tm2  1  0.50000000  0.25000000  0.49409800  1
  Tm  Tm3  1  0.50000000  0.75000000  0.50590200  1
  Mo  Mo0  1  0.02246200  0.51600500  0.39949400  1
  Mo  Mo1  1  0.97753800  0.48399500  0.60050600  1
  Mo  Mo2  1  0.47753800  0.01600500  0.10050600  1
  Mo  Mo3  1  0.97753800  0.98399500  0.39949400  1
  Mo  Mo4  1  0.52246200  0.98399500  0.89949400  1
  Mo  Mo5  1  0.02246200  0.01600500  0.60050600  1
  Mo  Mo6  1  0.52246200  0.48399500  0.10050600  1
  Mo  Mo7  1  0.47753800  0.51600500  0.89949400  1
  O  O0  1  0.10189600  0.97480700  0.31071600  1
  O  O1  1  0.89810400  0.02519300  0.68928400  1
  O  O2  1  0.39810400  0.47480700  0.18928400  1
  O  O3  1  0.89810400  0.52519300  0.31071600  1
  O  O4  1  0.60189600  0.52519300  0.81071600  1
  O  O5  1  0.10189600  0.47480700  0.68928400  1
  O  O6  1  0.60189600  0.02519300  0.18928400  1
  O  O7  1  0.39810400  0.97480700  0.81071600  1
  O  O8  1  0.26621300  0.83677200  0.09818300  1
  O  O9  1  0.73378700  0.16322800  0.90181700  1
  O  O10  1  0.23378700  0.33677200  0.40181700  1
  O  O11  1  0.73378700  0.66322800  0.09818300  1
  O  O12  1  0.76621300  0.66322800  0.59818300  1
  O  O13  1  0.26621300  0.33677200  0.90181700  1
  O  O14  1  0.76621300  0.16322800  0.40181700  1
  O  O15  1  0.23378700  0.83677200  0.59818300  1
  O  O16  1  0.24552100  0.50522900  0.03452300  1
  O  O17  1  0.75447900  0.49477100  0.96547700  1
  O  O18  1  0.25447900  0.00522900  0.46547700  1
  O  O19  1  0.75447900  0.99477100  0.03452300  1
  O  O20  1  0.74552100  0.99477100  0.53452300  1
  O  O21  1  0.24552100  0.00522900  0.96547700  1
  O  O22  1  0.74552100  0.49477100  0.46547700  1
  O  O23  1  0.25447900  0.50522900  0.53452300  1
  O  O24  1  0.24698500  0.69104000  0.40830800  1
  O  O25  1  0.75301500  0.30896000  0.59169200  1
  O  O26  1  0.25301500  0.19104000  0.09169200  1
  O  O27  1  0.75301500  0.80896000  0.40830800  1
  O  O28  1  0.74698500  0.80896000  0.90830800  1
  O  O29  1  0.24698500  0.19104000  0.59169200  1
  O  O30  1  0.74698500  0.30896000  0.09169200  1
  O  O31  1  0.25301500  0.69104000  0.90830800  1
loop_
_geom_bond_atom_site_label_1
_geom_bond_atom_site_label_2
_geom_bond_distance
_geom_bond_site_symmetry_2
K0 O5 2.716783 1_555
K0 O1 2.716783 1_465
K0 O7 2.818660 1_555
K0 O4 2.818660 1_455
K0 O31 2.894656 1_555
K0 O28 2.894656 1_455
K1 O0 2.716783 1_545
K1 O3 2.716783 1_455
K1 O2 2.818660 1_555
K1 O6 2.818660 1_455
K1 O30 2.894656 1_455
K1 O26 2.894656 1_555
K2 O4 2.716783 1_555
K2 O7 2.716783 1_545
K2 O5 2.818660 1_555
K2 O1 2.818660 1_555
K2 O25 2.894656 1_555
K2 O29 2.894656 1_555
K3 O6 2.716783 1_565
K3 O2 2.716783 1_555
K3 O0 2.818660 1_555
K3 O3 2.818660 1_555
K3 O27 2.894656 1_555
K3 O24 2.894656 1_555
Mo0 O3 1.756516 1_455
Mo0 O10 1.799396 1_555
Mo0 O24 1.820944 1_555
Mo0 O22 1.871354 1_455
Mo1 O5 1.756516 1_655
Mo1 O12 1.799396 1_555
Mo1 O25 1.820944 1_555
Mo1 O23 1.871354 1_655
Mo2 O6 1.756516 1_555
Mo2 O8 1.799396 1_545
Mo2 O26 1.820944 1_555
Mo2 O19 1.871354 1_545
Mo3 O0 1.756516 1_655
Mo3 O14 1.799396 1_565
Mo3 O27 1.820944 1_555
Mo3 O18 1.871354 1_665
Mo4 O7 1.756516 1_555
Mo4 O9 1.799396 1_565
Mo4 O28 1.820944 1_555
Mo4 O21 1.871354 1_565
Mo5 O1 1.756516 1_455
Mo5 O15 1.799396 1_545
Mo5 O29 1.820944 1_555
Mo5 O20 1.871354 1_445
Mo6 O2 1.756516 1_555
Mo6 O11 1.799396 1_555
Mo6 O30 1.820944 1_555
Mo6 O16 1.871354 1_555
Mo7 O4 1.756516 1_555
Mo7 O13 1.799396 1_555
Mo7 O31 1.820944 1_555
Mo7 O17 1.871354 1_555
O8 Tm0 2.285148 1_555
O9 Tm1 2.285148 1_655
O10 Tm2 2.285148 1_555
O11 Tm0 2.285148 1_655
O12 Tm3 2.285148 1_555
O13 Tm1 2.285148 1_555
O14 Tm2 2.285148 1_555
O15 Tm3 2.285148 1_555
O16 Tm0 2.390707 1_555
O16 Tm1 2.515986 1_554
O17 Tm1 2.390707 1_655
O17 Tm0 2.515986 1_656
O18 Tm2 2.390707 1_555
O18 Tm3 2.515986 1_545
O19 Tm0 2.390707 1_655
O19 Tm1 2.515986 1_664
O20 Tm3 2.390707 1_555
O20 Tm2 2.515986 1_565
O21 Tm1 2.390707 1_555
O21 Tm0 2.515986 1_546
O22 Tm2 2.390707 1_555
O22 Tm3 2.515986 1_555
O23 Tm3 2.390707 1_555
O23 Tm2 2.515986 1_555
O24 Tm3 2.263784 1_555
O25 Tm2 2.263784 1_555
O26 Tm1 2.263784 1_554
O27 Tm3 2.263784 1_555
O28 Tm0 2.263784 1_656
O29 Tm2 2.263784 1_555
O30 Tm1 2.263784 1_654
O31 Tm0 2.263784 1_556
