# generated using pymatgen
data_GaSb
_symmetry_space_group_name_H-M   'P 1'
_cell_length_a   13.51852348
_cell_length_b   15.05697931
_cell_length_c   13.46662878
_cell_angle_alpha   91.31997272
_cell_angle_beta   87.44107652
_cell_angle_gamma   86.76280408
_symmetry_Int_Tables_number   1
_chemical_formula_structural   GaSb
_chemical_formula_sum   'Ga50 Sb50'
_cell_volume   2733.10649946
_cell_formula_units_Z   50
loop_
 _symmetry_equiv_pos_site_id
 _symmetry_equiv_pos_as_xyz
  1  'x, y, z'
loop_
 _atom_site_type_symbol
 _atom_site_label
 _atom_site_symmetry_multiplicity
 _atom_site_fract_x
 _atom_site_fract_y
 _atom_site_fract_z
 _atom_site_occupancy
  Ga  Ga0  1  0.76760217  0.06121409  0.47053135  1
  Ga  Ga1  1  0.62273691  0.32754113  0.09855201  1
  Ga  Ga2  1  0.24829991  0.02182043  0.87465711  1
  Ga  Ga3  1  0.42128626  0.78511675  0.02659048  1
  Ga  Ga4  1  0.57398146  0.83216085  0.40411708  1
  Ga  Ga5  1  0.18906393  0.84967242  0.66045587  1
  Ga  Ga6  1  0.78566096  0.62460846  0.39043623  1
  Ga  Ga7  1  0.04918854  0.83475160  0.81018351  1
  Ga  Ga8  1  0.71890398  0.48895102  0.00283197  1
  Ga  Ga9  1  0.14796880  0.16839136  0.93198689  1
  Ga  Ga10  1  0.41143108  0.37375543  0.88788644  1
  Ga  Ga11  1  0.96406301  0.11823386  0.95690646  1
  Ga  Ga12  1  0.67720447  0.58456561  0.75468435  1
  Ga  Ga13  1  0.95409315  0.70864547  0.70694345  1
  Ga  Ga14  1  0.63797059  0.68063684  0.54318239  1
  Ga  Ga15  1  0.28730192  0.53685975  0.51572382  1
  Ga  Ga16  1  0.74446299  0.36052066  0.66567292  1
  Ga  Ga17  1  0.39647547  0.08349968  0.65858650  1
  Ga  Ga18  1  0.41889270  0.83620946  0.23208367  1
  Ga  Ga19  1  0.04815862  0.34898371  0.78058140  1
  Ga  Ga20  1  0.32193405  0.67253567  0.62973872  1
  Ga  Ga21  1  0.74790488  0.82608852  0.49922532  1
  Ga  Ga22  1  0.17339161  0.22992371  0.67270520  1
  Ga  Ga23  1  0.34234034  0.00728883  0.06208980  1
  Ga  Ga24  1  0.56285193  0.45773685  0.81856019  1
  Ga  Ga25  1  0.89319839  0.27025942  0.85857335  1
  Ga  Ga26  1  0.52738041  0.92605623  0.07358303  1
  Ga  Ga27  1  0.39356572  0.48901162  0.18487184  1
  Ga  Ga28  1  0.75681008  0.20306260  0.99936890  1
  Ga  Ga29  1  0.86833944  0.67102334  0.88991983  1
  Ga  Ga30  1  0.97098327  0.45631542  0.07019336  1
  Ga  Ga31  1  0.29828906  0.42777193  0.03730845  1
  Ga  Ga32  1  0.20007855  0.40545648  0.41577859  1
  Ga  Ga33  1  0.54435235  0.22465717  0.89381923  1
  Ga  Ga34  1  0.82490176  0.47107230  0.81529175  1
  Ga  Ga35  1  0.87917225  0.09841219  0.78581268  1
  Ga  Ga36  1  0.06741284  0.70122580  0.19925568  1
  Ga  Ga37  1  0.68329997  0.04039216  0.09910771  1
  Ga  Ga38  1  0.13064807  0.50649451  0.63352321  1
  Ga  Ga39  1  0.62667725  0.44556106  0.34933707  1
  Ga  Ga40  1  0.69405206  0.83282317  0.05697089  1
  Ga  Ga41  1  0.51686089  0.23780209  0.50227602  1
  Ga  Ga42  1  0.13191262  0.25146095  0.34013614  1
  Ga  Ga43  1  0.47041272  0.55876162  0.40147819  1
  Ga  Ga44  1  0.17109762  0.34127371  0.93153756  1
  Ga  Ga45  1  0.40976314  0.72733446  0.39468698  1
  Ga  Ga46  1  0.70167598  0.33827650  0.87842032  1
  Ga  Ga47  1  0.92942424  0.32545089  0.63535310  1
  Ga  Ga48  1  0.85713915  0.10462106  0.12537190  1
  Ga  Ga49  1  0.73556034  0.08313206  0.66513404  1
  Sb  Sb0  1  0.11321684  0.12547962  0.14060472  1
  Sb  Sb1  1  0.65973564  0.06258104  0.90071958  1
  Sb  Sb2  1  0.54708872  0.04196808  0.51632354  1
  Sb  Sb3  1  0.64442585  0.73419560  0.22095864  1
  Sb  Sb4  1  0.60576764  0.26153110  0.31541391  1
  Sb  Sb5  1  0.98043585  0.28320053  0.19388521  1
  Sb  Sb6  1  0.29707642  0.58393046  0.92236666  1
  Sb  Sb7  1  0.45416221  0.95786347  0.84542834  1
  Sb  Sb8  1  0.01746592  0.19480038  0.51556276  1
  Sb  Sb9  1  0.95363378  0.05020858  0.28536871  1
  Sb  Sb10  1  0.85359086  0.21053883  0.38160603  1
  Sb  Sb11  1  0.84656801  0.92164124  0.84267613  1
  Sb  Sb12  1  0.94839329  0.86969860  0.46116216  1
  Sb  Sb13  1  0.28111576  0.38981530  0.72614973  1
  Sb  Sb14  1  0.21209460  0.77665117  0.46766124  1
  Sb  Sb15  1  0.99577305  0.45145421  0.50396045  1
  Sb  Sb16  1  0.97548255  0.55961506  0.27821477  1
  Sb  Sb17  1  0.26168675  0.68259860  0.11266831  1
  Sb  Sb18  1  0.51599124  0.62855909  0.93726234  1
  Sb  Sb19  1  0.78030212  0.43523074  0.20200862  1
  Sb  Sb20  1  0.84098890  0.58440279  0.60670607  1
  Sb  Sb21  1  0.63973613  0.48573610  0.55395012  1
  Sb  Sb22  1  0.01405521  0.51630496  0.87677000  1
  Sb  Sb23  1  0.50150270  0.69873546  0.70830162  1
  Sb  Sb24  1  0.38404879  0.94113887  0.42609637  1
  Sb  Sb25  1  0.00943150  0.75763895  0.00848232  1
  Sb  Sb26  1  0.10783532  0.85868235  0.29646999  1
  Sb  Sb27  1  0.31100241  0.23822088  0.15810695  1
  Sb  Sb28  1  0.15770432  0.65074958  0.76604665  1
  Sb  Sb29  1  0.31260593  0.21778217  0.49104523  1
  Sb  Sb30  1  0.98518452  0.02630284  0.61050884  1
  Sb  Sb31  1  0.19594873  0.03438248  0.67363190  1
  Sb  Sb32  1  0.43750616  0.41500246  0.56136208  1
  Sb  Sb33  1  0.64412969  0.92145458  0.65720336  1
  Sb  Sb34  1  0.40647333  0.34527673  0.31129885  1
  Sb  Sb35  1  0.56626905  0.56966089  0.13898396  1
  Sb  Sb36  1  0.34339254  0.20515052  0.81259633  1
  Sb  Sb37  1  0.55101181  0.02248326  0.25995427  1
  Sb  Sb38  1  0.28784041  0.82968093  0.87013105  1
  Sb  Sb39  1  0.40667319  0.86589893  0.64313644  1
  Sb  Sb40  1  0.14591126  0.41493424  0.18699714  1
  Sb  Sb41  1  0.60873545  0.23242186  0.68321355  1
  Sb  Sb42  1  0.27692725  0.10330337  0.31086907  1
  Sb  Sb43  1  0.74536319  0.93599287  0.31766680  1
  Sb  Sb44  1  0.01989333  0.68760668  0.50515868  1
  Sb  Sb45  1  0.19323617  0.87175824  0.07377928  1
  Sb  Sb46  1  0.87349275  0.91423554  0.05506827  1
  Sb  Sb47  1  0.83061084  0.61226376  0.12070950  1
  Sb  Sb48  1  0.26466693  0.58402618  0.31724836  1
  Sb  Sb49  1  0.68535620  0.76216198  0.86929214  1
loop_
_geom_bond_atom_site_label_1
_geom_bond_atom_site_label_2
_geom_bond_distance
_geom_bond_site_symmetry_2
Ga0 Ga49 2.647065 1_555
Ga0 Sb43 2.797050 1_545
Ga0 Sb10 2.852274 1_555
Ga0 Sb2 3.048337 1_555
Ga1 Ga28 2.804777 1_554
Ga1 Ga8 3.099967 1_555
Ga1 Sb19 3.107785 1_555
Ga1 Sb4 3.109481 1_555
Ga1 Ga46 3.116384 1_554
Ga2 Ga9 2.606930 1_555
Ga2 Sb31 2.836325 1_555
Ga2 Ga23 2.883681 1_556
Ga2 Sb7 2.899859 1_545
Ga2 Sb38 2.910917 1_545
Ga2 Sb36 3.222101 1_555
Ga3 Sb18 2.834425 1_554
Ga3 Sb38 2.900314 1_554
Ga3 Sb17 2.935423 1_555
Ga3 Sb45 3.307964 1_555
Ga4 Ga45 2.801321 1_555
Ga4 Sb3 2.937760 1_555
Ga4 Sb24 2.967599 1_555
Ga4 Sb43 3.069094 1_555
Ga5 Ga7 2.723964 1_555
Ga5 Sb31 2.789813 1_565
Ga5 Sb14 2.793595 1_555
Ga5 Sb39 2.964887 1_555
Ga5 Sb38 3.190129 1_555
Ga6 Sb16 3.021325 1_555
Ga6 Sb20 3.103666 1_555
Ga7 Sb25 2.975444 1_556
Ga7 Sb11 2.977887 1_455
Ga7 Sb28 3.093267 1_555
Ga8 Sb35 2.893530 1_555
Ga8 Sb47 2.939837 1_555
Ga8 Sb19 2.959816 1_555
Ga9 Sb0 2.920762 1_556
Ga9 Sb36 3.114082 1_555
Ga10 Ga31 2.561091 1_556
Ga10 Ga24 2.614728 1_555
Ga10 Ga33 2.800108 1_555
Ga10 Sb13 2.867861 1_555
Ga10 Sb36 2.923576 1_555
Ga11 Ga35 2.637771 1_555
Ga11 Ga9 2.648220 1_655
Ga11 Ga48 2.653345 1_556
Ga11 Ga25 2.813588 1_555
Ga11 Ga28 3.037654 1_555
Ga11 Sb0 3.264200 1_656
Ga12 Ga24 2.658348 1_555
Ga12 Ga34 2.719816 1_555
Ga12 Sb20 2.911813 1_555
Ga12 Sb23 2.950898 1_555
Ga12 Sb49 3.066450 1_555
Ga12 Sb21 3.130551 1_555
Ga12 Sb18 3.243011 1_555
Ga13 Ga7 2.739446 1_655
Ga13 Ga29 2.760409 1_555
Ga13 Sb44 2.826363 1_655
Ga13 Sb20 2.837351 1_555
Ga13 Sb28 2.987706 1_655
Ga14 Ga21 2.775642 1_555
Ga14 Sb23 2.823316 1_555
Ga14 Ga6 2.879615 1_555
Ga14 Sb21 2.940336 1_555
Ga14 Sb20 3.190818 1_555
Ga15 Ga20 2.603390 1_555
Ga15 Ga38 2.655775 1_555
Ga15 Ga32 2.720106 1_555
Ga15 Sb32 2.758611 1_555
Ga15 Sb48 2.806736 1_555
Ga15 Ga43 2.894615 1_555
Ga16 Ga47 2.539163 1_555
Ga16 Sb41 2.743100 1_555
Ga16 Sb21 2.800357 1_555
Ga16 Ga34 2.873759 1_555
Ga16 Ga46 2.927973 1_555
Ga17 Sb2 2.767603 1_555
Ga17 Sb36 2.777613 1_555
Ga17 Sb31 2.849711 1_555
Ga17 Sb29 3.262471 1_555
Ga17 Sb39 3.272946 1_545
Ga17 Sb7 3.278030 1_545
Ga18 Ga45 2.767959 1_555
Ga18 Ga3 2.853408 1_555
Ga18 Ga26 2.935058 1_555
Ga18 Sb24 3.026564 1_555
Ga18 Sb3 3.331238 1_555
Ga19 Ga47 2.615236 1_455
Ga19 Ga25 2.652890 1_455
Ga19 Ga44 2.683076 1_555
Ga19 Ga22 2.740056 1_555
Ga19 Sb22 2.811179 1_555
Ga19 Sb13 3.296404 1_555
Ga20 Sb23 2.736049 1_555
Ga20 Sb28 2.855205 1_555
Ga20 Sb14 3.100072 1_555
Ga20 Sb39 3.192554 1_555
Ga21 Ga4 2.725229 1_555
Ga21 Sb33 2.814460 1_555
Ga21 Sb12 2.851689 1_555
Ga21 Sb43 2.984134 1_555
Ga22 Sb31 2.943203 1_555
Ga22 Sb13 2.973957 1_555
Ga22 Sb29 3.014845 1_555
Ga22 Sb36 3.048240 1_555
Ga22 Sb8 3.110261 1_555
Ga23 Ga26 2.734056 1_545
Ga23 Sb45 2.950102 1_545
Ga23 Sb7 3.275821 1_544
Ga24 Ga46 2.688461 1_555
Ga24 Sb18 3.017984 1_555
Ga25 Ga46 2.729441 1_555
Ga25 Ga35 2.765211 1_555
Ga25 Ga28 2.829323 1_555
Ga26 Ga40 2.584710 1_555
Ga26 Ga3 2.706258 1_555
Ga26 Ga37 2.823470 1_565
Ga26 Sb37 2.909505 1_565
Ga26 Sb7 3.306809 1_554
Ga27 Ga31 2.595444 1_555
Ga27 Sb35 2.744670 1_555
Ga27 Sb48 2.754009 1_555
Ga27 Sb34 2.786856 1_555
Ga28 Ga48 2.647668 1_556
Ga28 Ga46 2.728213 1_555
Ga28 Sb1 2.881125 1_555
Ga28 Ga37 3.016297 1_556
Ga29 Sb49 2.788342 1_555
Ga29 Sb25 2.888780 1_656
Ga29 Sb22 2.961466 1_655
Ga29 Sb47 3.276952 1_556
Ga30 Sb22 2.823484 1_654
Ga30 Sb40 2.943709 1_655
Ga30 Sb47 2.980821 1_555
Ga30 Sb19 3.099399 1_555
Ga30 Sb5 3.125164 1_555
Ga30 Sb16 3.177359 1_555
Ga31 Ga44 2.658518 1_554
Ga31 Sb40 2.834827 1_555
Ga31 Sb6 2.844342 1_554
Ga31 Sb27 3.317380 1_555
Ga32 Ga42 2.734874 1_555
Ga32 Sb15 2.995197 1_455
Ga32 Sb34 3.144967 1_555
Ga32 Sb48 3.174622 1_555
Ga32 Sb40 3.202891 1_555
Ga32 Sb29 3.333282 1_555
Ga33 Ga46 2.807278 1_555
Ga33 Sb1 2.826760 1_555
Ga33 Sb41 2.936203 1_555
Ga33 Sb36 3.000610 1_555
Ga34 Ga46 2.797100 1_555
Ga34 Sb22 2.836840 1_655
Ga34 Ga8 2.847114 1_556
Ga34 Sb20 3.325285 1_555
Ga35 Ga49 2.603470 1_555
Ga35 Sb11 2.839230 1_545
Ga35 Sb30 2.865298 1_555
Ga36 Sb16 2.739932 1_455
Ga36 Sb26 2.774972 1_555
Ga36 Sb17 2.822063 1_555
Ga36 Sb25 2.853274 1_555
Ga37 Ga48 2.626449 1_555
Ga37 Sb1 2.730521 1_554
Ga37 Sb37 2.774559 1_555
Ga37 Sb46 3.135443 1_545
Ga38 Sb15 2.728299 1_455
Ga38 Sb28 2.829477 1_555
Ga38 Sb13 2.950236 1_555
Ga39 Ga43 2.695642 1_555
Ga39 Sb19 2.802663 1_555
Ga39 Sb21 2.822815 1_555
Ga39 Sb4 2.829902 1_555
Ga40 Sb49 2.729527 1_554
Ga40 Sb3 2.768317 1_555
Ga40 Sb46 2.778382 1_555
Ga41 Sb4 2.779268 1_555
Ga41 Sb41 2.784640 1_555
Ga41 Sb29 2.804871 1_555
Ga41 Sb32 2.899210 1_555
Ga41 Sb2 2.965457 1_555
Ga42 Sb42 2.893359 1_555
Ga42 Sb5 2.931478 1_455
Ga42 Sb8 2.935649 1_555
Ga42 Sb40 3.255601 1_555
Ga42 Sb29 3.271819 1_555
Ga42 Sb0 3.280566 1_555
Ga42 Sb27 3.362014 1_555
Ga43 Ga45 2.627812 1_555
Ga43 Sb48 3.057694 1_555
Ga43 Sb32 3.123630 1_555
Ga43 Sb21 3.302111 1_555
Ga44 Ga9 2.639381 1_555
Ga44 Sb13 3.200765 1_555
Ga44 Sb36 3.341848 1_555
Ga45 Sb14 2.857535 1_555
Ga45 Sb48 3.185591 1_555
Ga45 Sb24 3.234356 1_555
Ga46 Ga8 2.815606 1_556
Ga46 Sb41 3.370085 1_555
Ga47 Sb8 2.703089 1_655
Ga47 Sb15 2.782076 1_555
Ga48 Sb9 2.688277 1_555
Ga48 Sb46 2.991235 1_545
Ga48 Sb5 3.374708 1_555
Ga49 Sb41 2.748424 1_555
Ga49 Sb33 2.793731 1_545
Sb0 Sb5 2.949846 1_455
Sb0 Sb9 3.121126 1_455
Sb0 Sb27 3.261395 1_555
Sb0 Sb42 3.266752 1_555
Sb1 Sb11 3.261212 1_545
Sb3 Sb35 2.957403 1_555
Sb3 Sb47 3.254028 1_555
Sb10 Sb8 2.921541 1_655
Sb10 Sb5 3.237316 1_555
Sb11 Sb46 2.903234 1_556
Sb11 Sb49 3.347399 1_555
Sb12 Sb44 2.937550 1_655
Sb12 Sb26 3.017949 1_655
Sb12 Sb30 3.139373 1_565
Sb13 Sb32 3.041131 1_555
Sb13 Sb36 3.125288 1_555
Sb14 Sb26 3.008573 1_555
Sb14 Sb44 3.018459 1_555
Sb15 Sb20 3.072594 1_555
Sb16 Sb47 3.039066 1_555
Sb16 Sb40 3.258824 1_655
Sb17 Sb6 2.939116 1_554
Sb17 Sb45 3.009479 1_555
Sb17 Sb48 3.160074 1_555
Sb18 Sb35 2.972481 1_556
Sb18 Sb6 3.085653 1_555
Sb18 Sb49 3.247240 1_555
Sb18 Sb23 3.292784 1_555
Sb19 Sb47 3.006529 1_555
Sb19 Sb5 3.440115 1_555
Sb20 Sb44 3.218862 1_655
Sb20 Sb21 3.270189 1_555
Sb21 Sb32 2.987904 1_555
Sb22 Sb28 3.227500 1_555
Sb24 Sb42 3.231519 1_565
Sb25 Sb46 2.944448 1_455
Sb25 Sb45 3.241529 1_555
Sb26 Sb45 3.179418 1_555
Sb27 Sb42 2.963887 1_555
Sb27 Sb34 2.973119 1_555
Sb27 Sb40 3.378764 1_555
Sb28 Sb6 3.038287 1_555
Sb29 Sb42 3.016082 1_555
Sb30 Sb8 2.913183 1_655
Sb30 Sb31 3.017632 1_655
Sb34 Sb4 2.912812 1_555
Sb38 Sb45 3.012195 1_556
Sb40 Sb5 3.072147 1_455
