# generated using pymatgen
data_Co2As2O7
_symmetry_space_group_name_H-M   'P 1'
_cell_length_a   5.40773100
_cell_length_b   7.80464141
_cell_length_c   16.29286451
_cell_angle_alpha   82.94517336
_cell_angle_beta   88.71542659
_cell_angle_gamma   85.35085810
_symmetry_Int_Tables_number   1
_chemical_formula_structural   Co2As2O7
_chemical_formula_sum   'Co10 As10 O35'
_cell_volume   680.14135422
_cell_formula_units_Z   5
loop_
 _symmetry_equiv_pos_site_id
 _symmetry_equiv_pos_as_xyz
  1  'x, y, z'
loop_
 _atom_site_type_symbol
 _atom_site_label
 _atom_site_symmetry_multiplicity
 _atom_site_fract_x
 _atom_site_fract_y
 _atom_site_fract_z
 _atom_site_occupancy
  Co  Co0  1  0.61984000  0.82140000  0.06340000  1
  Co  Co1  1  0.38016000  0.17860000  0.93660000  1
  Co  Co2  1  0.40552800  0.25770300  0.26138900  1
  Co  Co3  1  0.59447200  0.74229700  0.73861100  1
  Co  Co4  1  0.22551200  0.60892200  0.46151300  1
  Co  Co5  1  0.77448800  0.39107800  0.53848700  1
  Co  Co6  1  0.99459300  0.03214300  0.66157300  1
  Co  Co7  1  0.00540700  0.96785700  0.33842700  1
  Co  Co8  1  0.83749500  0.40661800  0.86665400  1
  Co  Co9  1  0.16250500  0.59338200  0.13334600  1
  As  As0  1  0.50778300  0.73668900  0.27631600  1
  As  As1  1  0.49221700  0.26331100  0.72368400  1
  As  As2  1  0.29055800  0.17832300  0.47378400  1
  As  As3  1  0.70944200  0.82167700  0.52621600  1
  As  As4  1  0.11853100  0.60987600  0.67178200  1
  As  As5  1  0.88146900  0.39012400  0.32821800  1
  As  As6  1  0.88193400  0.96755100  0.86994800  1
  As  As7  1  0.11806600  0.03244900  0.13005200  1
  As  As8  1  0.69635800  0.37974400  0.07617500  1
  As  As9  1  0.30364200  0.62025600  0.92382500  1
  O  O0  1  0.41520600  0.74152300  0.17500600  1
  O  O1  1  0.58479400  0.25847700  0.82499400  1
  O  O2  1  0.21985300  0.15723100  0.37289300  1
  O  O3  1  0.78014700  0.84276900  0.62710700  1
  O  O4  1  0.05641500  0.54196500  0.57825600  1
  O  O5  1  0.94358500  0.45803500  0.42174400  1
  O  O6  1  0.78102600  0.95292000  0.77154800  1
  O  O7  1  0.21897400  0.04708000  0.22845200  1
  O  O8  1  0.64299400  0.33255800  0.97871000  1
  O  O9  1  0.35700600  0.66744200  0.02129000  1
  O  O10  1  0.59741400  0.50855800  0.29460500  1
  O  O11  1  0.40258600  0.49144200  0.70539500  1
  O  O12  1  0.50000000  0.00000000  0.50000000  1
  O  O13  1  0.08457900  0.77611000  0.87624600  1
  O  O14  1  0.91542100  0.22389000  0.12375400  1
  O  O15  1  0.84295000  0.56697800  0.07628300  1
  O  O16  1  0.15705000  0.43302200  0.92371700  1
  O  O17  1  0.74826500  0.85313500  0.28427700  1
  O  O18  1  0.25173500  0.14686500  0.71572300  1
  O  O19  1  0.44797200  0.35715600  0.47836100  1
  O  O20  1  0.55202800  0.64284400  0.52163900  1
  O  O21  1  0.25213200  0.80293600  0.67626700  1
  O  O22  1  0.74786800  0.19706400  0.32373300  1
  O  O23  1  0.05628900  0.13502100  0.88342500  1
  O  O24  1  0.94371100  0.86497900  0.11657500  1
  O  O25  1  0.55760300  0.62881100  0.85918400  1
  O  O26  1  0.44239700  0.37118900  0.14081600  1
  O  O27  1  0.35173200  0.05122600  0.05735800  1
  O  O28  1  0.64826800  0.94877400  0.94264200  1
  O  O29  1  0.10342600  0.44134300  0.25423400  1
  O  O30  1  0.89657400  0.55865700  0.74576600  1
  O  O31  1  0.95747800  0.83744600  0.46015600  1
  O  O32  1  0.04252200  0.16255400  0.53984400  1
  O  O33  1  0.72928300  0.24782500  0.65199800  1
  O  O34  1  0.27071700  0.75217500  0.34800200  1
loop_
_geom_bond_atom_site_label_1
_geom_bond_atom_site_label_2
_geom_bond_distance
_geom_bond_site_symmetry_2
Co0 O24 2.042227 1_555
Co0 O28 2.100877 1_554
Co0 O9 2.111353 1_555
Co0 O0 2.159372 1_555
Co0 O27 2.206946 1_565
Co0 O15 2.227834 1_555
Co1 O23 2.042227 1_555
Co1 O27 2.100877 1_556
Co1 O8 2.111353 1_555
Co1 O1 2.159372 1_555
Co1 O28 2.206946 1_545
Co1 O16 2.227834 1_555
Co2 O26 2.065693 1_555
Co2 O29 2.079576 1_555
Co2 O22 2.123017 1_555
Co2 O7 2.125493 1_555
Co2 O2 2.149291 1_555
Co2 O10 2.411955 1_555
Co3 O25 2.065693 1_555
Co3 O30 2.079576 1_555
Co3 O21 2.123017 1_555
Co3 O6 2.125493 1_555
Co3 O3 2.149291 1_555
Co3 O11 2.411955 1_555
Co4 O34 2.060642 1_555
Co4 O20 2.089147 1_555
Co4 O4 2.117189 1_555
Co4 O5 2.157257 1_455
Co4 O31 2.203436 1_455
Co4 O19 2.209681 1_555
Co5 O33 2.060642 1_555
Co5 O19 2.089147 1_555
Co5 O5 2.117189 1_555
Co5 O4 2.157257 1_655
Co5 O32 2.203436 1_655
Co5 O20 2.209681 1_555
Co6 O18 1.991125 1_655
Co6 O3 2.086997 1_545
Co6 O33 2.114324 1_555
Co6 O32 2.135536 1_655
Co6 O6 2.162762 1_545
Co6 O21 2.168617 1_645
Co7 O17 1.991125 1_455
Co7 O2 2.086997 1_565
Co7 O34 2.114324 1_555
Co7 O31 2.135536 1_455
Co7 O7 2.162762 1_565
Co7 O22 2.168617 1_465
Co8 O16 2.017396 1_655
Co8 O1 2.038480 1_555
Co8 O8 2.127643 1_555
Co8 O25 2.200884 1_555
Co8 O30 2.201960 1_555
Co8 O23 2.330972 1_655
Co9 O15 2.017396 1_455
Co9 O0 2.038480 1_555
Co9 O9 2.127643 1_555
Co9 O26 2.200884 1_555
Co9 O29 2.201960 1_555
Co9 O24 2.330972 1_455
As0 O17 1.661953 1_555
As0 O34 1.721825 1_555
As0 O0 1.730701 1_555
As0 O10 1.797246 1_555
As1 O18 1.661953 1_555
As1 O33 1.721825 1_555
As1 O1 1.730701 1_555
As1 O11 1.797246 1_555
As2 O19 1.702722 1_555
As2 O32 1.703583 1_555
As2 O2 1.726335 1_555
As2 O12 1.738487 1_555
As3 O20 1.702722 1_555
As3 O31 1.703583 1_555
As3 O3 1.726335 1_555
As3 O12 1.738487 1_565
As4 O30 1.716986 1_455
As4 O4 1.722191 1_555
As4 O21 1.733071 1_555
As4 O11 1.788044 1_555
As5 O29 1.716986 1_655
As5 O5 1.722191 1_555
As5 O22 1.733071 1_555
As5 O10 1.788044 1_555
As6 O23 1.710300 1_665
As6 O28 1.715004 1_555
As6 O6 1.724938 1_555
As6 O13 1.773638 1_655
As7 O24 1.710300 1_445
As7 O27 1.715004 1_555
As7 O7 1.724938 1_555
As7 O14 1.773638 1_455
As8 O8 1.709391 1_554
As8 O26 1.712454 1_555
As8 O15 1.718222 1_555
As8 O14 1.749240 1_555
As9 O9 1.709391 1_556
As9 O25 1.712454 1_555
As9 O16 1.718222 1_555
As9 O13 1.749240 1_555
