# generated using pymatgen
data_NaPrTiO4
_symmetry_space_group_name_H-M   'P 1'
_cell_length_a   3.77740600
_cell_length_b   3.77740600
_cell_length_c   13.10646500
_cell_angle_alpha   90.00000000
_cell_angle_beta   90.00000000
_cell_angle_gamma   90.00000000
_symmetry_Int_Tables_number   1
_chemical_formula_structural   NaPrTiO4
_chemical_formula_sum   'Na2 Pr2 Ti2 O8'
_cell_volume   187.01347653
_cell_formula_units_Z   2
loop_
 _symmetry_equiv_pos_site_id
 _symmetry_equiv_pos_as_xyz
  1  'x, y, z'
loop_
 _atom_site_type_symbol
 _atom_site_label
 _atom_site_symmetry_multiplicity
 _atom_site_fract_x
 _atom_site_fract_y
 _atom_site_fract_z
 _atom_site_occupancy
  Na  Na0  1  0.00000000  0.50000000  0.41513200  1
  Na  Na1  1  0.50000000  0.00000000  0.58486800  1
  Pr  Pr0  1  0.00000000  0.50000000  0.10878000  1
  Pr  Pr1  1  0.50000000  0.00000000  0.89122000  1
  Ti  Ti0  1  0.00000000  0.50000000  0.72848600  1
  Ti  Ti1  1  0.50000000  0.00000000  0.27151400  1
  O  O0  1  0.00000000  0.00000000  0.76475900  1
  O  O1  1  0.50000000  0.50000000  0.76475900  1
  O  O2  1  0.50000000  0.50000000  0.23524100  1
  O  O3  1  0.00000000  0.00000000  0.23524100  1
  O  O4  1  0.00000000  0.50000000  0.92939300  1
  O  O5  1  0.50000000  0.00000000  0.07060700  1
  O  O6  1  0.00000000  0.50000000  0.59376300  1
  O  O7  1  0.50000000  0.00000000  0.40623700  1
loop_
_geom_bond_atom_site_label_1
_geom_bond_atom_site_label_2
_geom_bond_distance
_geom_bond_site_symmetry_2
Na0 O6 2.341221 1_555
Na0 O7 2.673572 1_555
Na0 O7 2.673572 1_565
Na0 O7 2.673572 1_455
Na0 O7 2.673572 1_465
Na1 O7 2.341221 1_555
Na1 O6 2.673572 1_555
Na1 O6 2.673572 1_655
Na1 O6 2.673572 1_545
Na1 O6 2.673572 1_645
O0 Ti0 1.947618 1_555
O0 Ti0 1.947618 1_545
O0 Pr1 2.512839 1_455
O0 Pr1 2.512839 1_555
O1 Ti0 1.947618 1_655
O1 Ti0 1.947618 1_555
O1 Pr1 2.512839 1_555
O1 Pr1 2.512839 1_565
O2 Ti1 1.947618 1_555
O2 Ti1 1.947618 1_565
O2 Pr0 2.512839 1_655
O2 Pr0 2.512839 1_555
O3 Ti1 1.947618 1_555
O3 Ti1 1.947618 1_455
O3 Pr0 2.512839 1_545
O3 Pr0 2.512839 1_555
O4 Pr0 2.351129 1_556
O4 Ti0 2.633181 1_555
O4 Pr1 2.717483 1_465
O4 Pr1 2.717483 1_455
O4 Pr1 2.717483 1_555
O4 Pr1 2.717483 1_565
O5 Pr1 2.351129 1_554
O5 Ti1 2.633181 1_555
O5 Pr0 2.717483 1_655
O5 Pr0 2.717483 1_545
O5 Pr0 2.717483 1_555
O5 Pr0 2.717483 1_645
O6 Ti0 1.765742 1_555
O7 Ti1 1.765742 1_555
