# generated using pymatgen
data_MgTi6(H2O7)2
_symmetry_space_group_name_H-M   'P 1'
_cell_length_a   8.52399094
_cell_length_b   7.79414521
_cell_length_c   9.32364923
_cell_angle_alpha   76.70426200
_cell_angle_beta   101.77103685
_cell_angle_gamma   152.89471861
_symmetry_Int_Tables_number   1
_chemical_formula_structural   MgTi6(H2O7)2
_chemical_formula_sum   'Mg1 Ti6 H4 O14'
_cell_volume   274.66704376
_cell_formula_units_Z   1
loop_
 _symmetry_equiv_pos_site_id
 _symmetry_equiv_pos_as_xyz
  1  'x, y, z'
loop_
 _atom_site_type_symbol
 _atom_site_label
 _atom_site_symmetry_multiplicity
 _atom_site_fract_x
 _atom_site_fract_y
 _atom_site_fract_z
 _atom_site_occupancy
  Mg  Mg0  1  0.71335900  0.63407100  0.56853400  1
  Ti  Ti0  1  0.75202400  0.22858700  0.77972400  1
  Ti  Ti1  1  0.25776600  0.78607600  0.21345300  1
  Ti  Ti2  1  0.77019500  0.11358200  0.47922000  1
  Ti  Ti3  1  0.24138800  0.89787700  0.51275100  1
  Ti  Ti4  1  0.79144900  0.04225100  0.16739900  1
  Ti  Ti5  1  0.21542800  0.96966200  0.82658800  1
  H  H0  1  0.63381300  0.57736300  0.14664100  1
  H  H1  1  0.08393500  0.93998000  0.24172900  1
  H  H2  1  0.02497000  0.03330200  0.96837100  1
  H  H3  1  0.01905800  0.13070800  0.79790900  1
  O  O0  1  0.77307500  0.13227900  0.96809500  1
  O  O1  1  0.23535900  0.89040300  0.02523800  1
  O  O2  1  0.78693100  0.06875900  0.68197800  1
  O  O3  1  0.23550300  0.98733000  0.29919600  1
  O  O4  1  0.76819400  0.91274400  0.41965900  1
  O  O5  1  0.21946200  0.08916300  0.58923100  1
  O  O6  1  0.84780400  0.85288900  0.14155400  1
  O  O7  1  0.13270800  0.14147900  0.86946800  1
  O  O8  1  0.71923400  0.46929900  0.79042100  1
  O  O9  1  0.28424000  0.55809800  0.19182200  1
  O  O10  1  0.74193800  0.38193300  0.53031700  1
  O  O11  1  0.26590200  0.68387200  0.45637600  1
  O  O12  1  0.76229100  0.24214000  0.25109400  1
  O  O13  1  0.24751600  0.77860300  0.74203700  1
loop_
_geom_bond_atom_site_label_1
_geom_bond_atom_site_label_2
_geom_bond_distance
_geom_bond_site_symmetry_2
Mg0 O5 1.980060 1_555
Mg0 O4 1.983277 1_555
Mg0 O5 1.990445 1_665
Mg0 O8 2.186764 1_555
Mg0 O10 2.293062 1_555
H0 O6 0.977620 1_555
H1 O3 1.025719 1_555
H1 O6 1.573708 1_455
H2 O7 1.006966 1_555
H3 O7 1.003959 1_555
H3 O2 1.727163 1_455
O0 Ti0 1.784685 1_555
O0 Ti4 1.856645 1_556
O1 Ti1 1.805713 1_555
O1 Ti5 1.836605 1_554
O2 Ti2 1.841496 1_555
O2 Ti0 1.940010 1_555
O3 Ti3 1.958607 1_555
O3 Ti1 2.074673 1_555
O4 Ti2 1.762800 1_565
O4 Ti4 2.309118 1_565
O5 Ti3 1.950813 1_545
O5 Ti5 2.189103 1_545
O6 Ti4 1.984992 1_565
O7 Ti5 2.119609 1_545
O8 Ti5 1.966870 1_655
O8 Ti5 1.983476 1_545
O8 Ti0 2.153836 1_555
O9 Ti4 1.955714 1_455
O9 Ti4 1.986039 1_565
O9 Ti1 2.036230 1_555
O10 Ti3 1.950836 1_545
O10 Ti3 1.955665 1_655
O10 Ti0 2.380404 1_555
O10 Ti2 2.462046 1_555
O11 Ti2 2.015844 1_565
O11 Ti2 2.037358 1_455
O11 Ti3 2.042229 1_555
O11 Ti1 2.230174 1_555
O12 Ti1 1.994209 1_655
O12 Ti1 1.998872 1_545
O12 Ti4 2.103726 1_555
O12 Ti2 2.148019 1_555
O13 Ti0 2.003980 1_565
O13 Ti0 2.004317 1_455
O13 Ti5 2.065643 1_555
O13 Ti3 2.136320 1_555
