# generated using pymatgen
data_Nd3(AgSn)4
_symmetry_space_group_name_H-M   'P 1'
_cell_length_a   4.66878859
_cell_length_b   7.37922729
_cell_length_c   8.92134279
_cell_angle_alpha   114.42939288
_cell_angle_beta   105.16882129
_cell_angle_gamma   90.00000000
_symmetry_Int_Tables_number   1
_chemical_formula_structural   Nd3(AgSn)4
_chemical_formula_sum   'Nd3 Ag4 Sn4'
_cell_volume   268.03544176
_cell_formula_units_Z   1
loop_
 _symmetry_equiv_pos_site_id
 _symmetry_equiv_pos_as_xyz
  1  'x, y, z'
loop_
 _atom_site_type_symbol
 _atom_site_label
 _atom_site_symmetry_multiplicity
 _atom_site_fract_x
 _atom_site_fract_y
 _atom_site_fract_z
 _atom_site_occupancy
  Nd  Nd0  1  -0.00000000  0.50000000  -0.00000000  1
  Nd  Nd1  1  0.86981199  0.86981199  0.73962397  1
  Nd  Nd2  1  0.13018801  0.13018801  0.26037603  1
  Ag  Ag0  1  0.66993611  0.47556927  0.33987122  1
  Ag  Ag1  1  0.66993611  0.86430195  0.33987122  1
  Ag  Ag2  1  0.33006389  0.13569805  0.66012878  1
  Ag  Ag3  1  0.33006389  0.52443073  0.66012878  1
  Sn  Sn0  1  0.78446672  0.28446672  0.56893244  1
  Sn  Sn1  1  0.21553328  0.71553328  0.43106756  1
  Sn  Sn2  1  0.50000000  0.80597949  -0.00000000  1
  Sn  Sn3  1  0.50000000  0.19402051  -0.00000000  1
loop_
_geom_bond_atom_site_label_1
_geom_bond_atom_site_label_2
_geom_bond_distance
_geom_bond_site_symmetry_2
Nd0 Sn3 3.247687 1_555
Nd0 Sn2 3.247687 1_455
Nd0 Sn3 3.247687 1_455
Nd0 Sn2 3.247687 1_555
Nd0 Sn1 3.353687 1_555
Nd0 Sn0 3.353687 1_454
Nd1 Sn1 3.348440 1_655
Nd1 Sn1 3.348443 1_555
Nd1 Sn3 3.406279 1_666
Nd1 Sn2 3.406280 1_656
Nd1 Sn3 3.406280 1_566
Nd1 Sn2 3.406280 1_556
Nd2 Sn0 3.348440 1_455
Nd2 Sn0 3.348443 1_555
Nd2 Sn2 3.406279 1_445
Nd2 Sn3 3.406280 1_455
Nd2 Sn2 3.406280 1_545
Nd2 Sn3 3.406280 1_555
Ag0 Sn3 2.769486 1_555
Ag0 Sn1 2.830177 1_655
Ag0 Sn1 2.830184 1_555
Ag0 Ag1 2.868547 1_555
Ag0 Sn0 2.874435 1_555
Ag0 Nd2 3.304308 1_655
Ag0 Nd2 3.304311 1_555
Ag0 Nd1 3.424851 1_555
Ag1 Sn2 2.769486 1_555
Ag1 Sn1 2.830180 1_655
Ag1 Sn1 2.830188 1_555
Ag1 Sn0 2.874440 1_565
Ag1 Nd2 3.304308 1_665
Ag1 Nd2 3.304311 1_565
Ag1 Nd1 3.424851 1_555
Ag2 Sn3 2.769486 1_556
Ag2 Sn0 2.830180 1_455
Ag2 Sn0 2.830188 1_555
Ag2 Ag3 2.868547 1_555
Ag2 Sn1 2.874440 1_545
Ag2 Nd1 3.304308 1_445
Ag2 Nd1 3.304311 1_545
Ag2 Nd2 3.424851 1_555
Ag3 Sn2 2.769486 1_556
Ag3 Sn0 2.830177 1_455
Ag3 Sn0 2.830184 1_555
Ag3 Sn1 2.874435 1_555
Ag3 Nd1 3.304308 1_455
Ag3 Nd1 3.304311 1_555
Ag3 Nd2 3.424851 1_555
Sn2 Sn3 2.863443 1_565
