# generated using pymatgen
data_NaPrEuWO6
_symmetry_space_group_name_H-M   'P 1'
_cell_length_a   8.39167866
_cell_length_b   8.40261826
_cell_length_c   8.43338663
_cell_angle_alpha   90.00000000
_cell_angle_beta   90.00000000
_cell_angle_gamma   90.00000000
_symmetry_Int_Tables_number   1
_chemical_formula_structural   NaPrEuWO6
_chemical_formula_sum   'Na4 Pr4 Eu4 W4 O24'
_cell_volume   594.65556813
_cell_formula_units_Z   4
loop_
 _symmetry_equiv_pos_site_id
 _symmetry_equiv_pos_as_xyz
  1  'x, y, z'
loop_
 _atom_site_type_symbol
 _atom_site_label
 _atom_site_symmetry_multiplicity
 _atom_site_fract_x
 _atom_site_fract_y
 _atom_site_fract_z
 _atom_site_occupancy
  Na  Na0  1  0.00000000  0.50000000  0.50000000  1
  Na  Na1  1  0.50000000  0.00000000  0.50000000  1
  Na  Na2  1  0.50000000  0.00000000  -0.00000000  1
  Na  Na3  1  0.00000000  0.50000000  -0.00000000  1
  Pr  Pr0  1  0.75000000  0.75000000  0.75000000  1
  Pr  Pr1  1  0.25000000  0.25000000  0.75000000  1
  Pr  Pr2  1  0.25000000  0.75000000  0.25000000  1
  Pr  Pr3  1  0.75000000  0.25000000  0.25000000  1
  Eu  Eu0  1  0.50000000  0.50000000  -0.00000000  1
  Eu  Eu1  1  0.00000000  0.00000000  0.50000000  1
  Eu  Eu2  1  0.00000000  0.00000000  0.00000000  1
  Eu  Eu3  1  0.50000000  0.50000000  0.50000000  1
  W  W0  1  0.25000000  0.25000000  0.25000000  1
  W  W1  1  0.75000000  0.75000000  0.25000000  1
  W  W2  1  0.75000000  0.25000000  0.75000000  1
  W  W3  1  0.25000000  0.75000000  0.75000000  1
  O  O0  1  0.02360061  0.19573741  0.28746712  1
  O  O1  1  0.97639939  0.80426259  0.28746712  1
  O  O2  1  0.97639939  0.19573741  0.71253288  1
  O  O3  1  0.02360061  0.80426259  0.71253288  1
  O  O4  1  0.28556955  0.02565341  0.19758156  1
  O  O5  1  0.28556955  0.97434659  0.80241844  1
  O  O6  1  0.71443045  0.97434659  0.19758156  1
  O  O7  1  0.71443045  0.02565341  0.80241844  1
  O  O8  1  0.20111979  0.29096261  0.02492819  1
  O  O9  1  0.79888021  0.29096261  0.97507181  1
  O  O10  1  0.20111979  0.70903739  0.97507181  1
  O  O11  1  0.79888021  0.70903739  0.02492819  1
  O  O12  1  0.47639939  0.30426259  0.21253288  1
  O  O13  1  0.52360061  0.69573741  0.21253288  1
  O  O14  1  0.52360061  0.30426259  0.78746712  1
  O  O15  1  0.47639939  0.69573741  0.78746712  1
  O  O16  1  0.21443045  0.47434659  0.30241844  1
  O  O17  1  0.21443045  0.52565341  0.69758156  1
  O  O18  1  0.78556955  0.52565341  0.30241844  1
  O  O19  1  0.78556955  0.47434659  0.69758156  1
  O  O20  1  0.29888021  0.20903739  0.47507181  1
  O  O21  1  0.70111979  0.20903739  0.52492819  1
  O  O22  1  0.29888021  0.79096261  0.52492819  1
  O  O23  1  0.70111979  0.79096261  0.47507181  1
loop_
_geom_bond_atom_site_label_1
_geom_bond_atom_site_label_2
_geom_bond_distance
_geom_bond_site_symmetry_2
Na0 O18 2.461892 1_455
Na0 O19 2.461892 1_455
Na0 O17 2.461892 1_555
Na0 O16 2.461892 1_555
Na1 O23 2.444953 1_545
Na1 O22 2.444953 1_545
Na1 O21 2.444953 1_555
Na1 O20 2.444953 1_555
Na2 O5 2.461892 1_544
Na2 O4 2.461892 1_555
Na2 O7 2.461892 1_554
Na2 O6 2.461892 1_545
Na3 O9 2.444953 1_454
Na3 O8 2.444953 1_555
Na3 O11 2.444953 1_455
Na3 O10 2.444953 1_554
Eu0 O12 2.440672 1_555
Eu0 O13 2.440672 1_555
Eu0 O14 2.440672 1_554
Eu0 O15 2.440672 1_554
Eu1 O1 2.440672 1_445
Eu1 O0 2.440672 1_555
Eu1 O2 2.440672 1_455
Eu1 O3 2.440672 1_545
Eu2 O5 2.926727 1_544
Eu2 O7 2.926727 1_454
Eu2 O6 2.926727 1_445
Eu2 O4 2.926727 1_555
Eu2 O2 2.936259 1_454
Eu2 O3 2.936259 1_544
Eu2 O1 2.936259 1_445
Eu2 O0 2.936259 1_555
Eu2 O10 2.978241 1_544
Eu2 O9 2.978241 1_454
Eu2 O8 2.978241 1_555
Eu2 O11 2.978241 1_445
Eu3 O16 2.926727 1_555
Eu3 O17 2.926727 1_555
Eu3 O18 2.926727 1_555
Eu3 O19 2.926727 1_555
Eu3 O14 2.936259 1_555
Eu3 O15 2.936259 1_555
Eu3 O12 2.936259 1_555
Eu3 O13 2.936259 1_555
Eu3 O22 2.978241 1_555
Eu3 O20 2.978241 1_555
Eu3 O23 2.978241 1_555
Eu3 O21 2.978241 1_555
O0 W0 1.979201 1_555
O0 Pr3 2.362033 1_455
O1 W1 1.979201 1_555
O1 Pr2 2.362033 1_655
O2 W2 1.979201 1_555
O2 Pr1 2.362033 1_655
O3 W3 1.979201 1_555
O3 Pr0 2.362033 1_455
O4 W0 1.959111 1_555
O4 Pr2 2.376836 1_545
O5 W3 1.959111 1_555
O5 Pr1 2.376836 1_565
O6 W1 1.959111 1_555
O6 Pr3 2.376836 1_565
O7 W2 1.959111 1_555
O7 Pr0 2.376836 1_545
O8 W0 1.972200 1_555
O8 Pr1 2.379604 1_554
O9 W2 1.972200 1_555
O9 Pr3 2.379604 1_556
O10 W3 1.972200 1_555
O10 Pr2 2.379604 1_556
O11 W1 1.972200 1_555
O11 Pr0 2.379604 1_554
O12 W0 1.979201 1_555
O12 Pr3 2.362033 1_555
O13 W1 1.979201 1_555
O13 Pr2 2.362033 1_555
O14 W2 1.979201 1_555
O14 Pr1 2.362033 1_555
O15 W3 1.979201 1_555
O15 Pr0 2.362033 1_555
O16 W0 1.959111 1_555
O16 Pr2 2.376836 1_555
O17 W3 1.959111 1_555
O17 Pr1 2.376836 1_555
O18 W1 1.959111 1_555
O18 Pr3 2.376836 1_555
O19 W2 1.959111 1_555
O19 Pr0 2.376836 1_555
O20 W0 1.972200 1_555
O20 Pr1 2.379604 1_555
O21 W2 1.972200 1_555
O21 Pr3 2.379604 1_555
O22 W3 1.972200 1_555
O22 Pr2 2.379604 1_555
O23 W1 1.972200 1_555
O23 Pr0 2.379604 1_555
