# generated using pymatgen
data_SrGdCoO4
_symmetry_space_group_name_H-M   'P 1'
_cell_length_a   6.62114836
_cell_length_b   6.62114836
_cell_length_c   5.37525600
_cell_angle_alpha   90.00000000
_cell_angle_beta   90.00000000
_cell_angle_gamma   132.37180075
_symmetry_Int_Tables_number   1
_chemical_formula_structural   SrGdCoO4
_chemical_formula_sum   'Sr2 Gd2 Co2 O8'
_cell_volume   174.09452286
_cell_formula_units_Z   2
loop_
 _symmetry_equiv_pos_site_id
 _symmetry_equiv_pos_as_xyz
  1  'x, y, z'
loop_
 _atom_site_type_symbol
 _atom_site_label
 _atom_site_symmetry_multiplicity
 _atom_site_fract_x
 _atom_site_fract_y
 _atom_site_fract_z
 _atom_site_occupancy
  Sr  Sr0  1  0.60439600  0.39560400  0.25000000  1
  Sr  Sr1  1  0.39560400  0.60439600  0.75000000  1
  Gd  Gd0  1  0.11566500  0.88433500  0.75000000  1
  Gd  Gd1  1  0.88433500  0.11566500  0.25000000  1
  Co  Co0  1  0.24916800  0.75083200  0.25000000  1
  Co  Co1  1  0.75083200  0.24916800  0.75000000  1
  O  O0  1  0.92651100  0.07348900  0.75000000  1
  O  O1  1  0.40718200  0.59281800  0.25000000  1
  O  O2  1  0.07348900  0.92651100  0.25000000  1
  O  O3  1  0.59281800  0.40718200  0.75000000  1
  O  O4  1  0.00000000  0.50000000  0.50000000  1
  O  O5  1  0.50000000  0.00000000  0.00000000  1
  O  O6  1  0.50000000  0.00000000  0.50000000  1
  O  O7  1  0.00000000  0.50000000  0.00000000  1
loop_
_geom_bond_atom_site_label_1
_geom_bond_atom_site_label_2
_geom_bond_distance
_geom_bond_site_symmetry_2
Gd0 O0 2.291573 1_465
Gd0 O5 2.498244 1_566
Gd0 O6 2.498244 1_565
Gd0 O4 2.498244 1_555
Gd0 O7 2.498244 1_556
Gd0 O3 2.687714 1_455
Gd0 O3 2.687714 1_565
Gd0 O2 2.735767 1_555
Gd0 O2 2.735767 1_556
Gd1 O2 2.291573 1_645
Gd1 O6 2.498244 1_555
Gd1 O5 2.498244 1_555
Gd1 O7 2.498244 1_655
Gd1 O4 2.498244 1_655
Gd1 O1 2.687714 1_655
Gd1 O1 2.687714 1_545
Gd1 O0 2.735767 1_555
Gd1 O0 2.735767 1_554
Co0 O5 1.895452 1_565
Co0 O6 1.895452 1_565
Co0 O7 1.895452 1_555
Co0 O4 1.895452 1_555
Co0 O1 1.914316 1_555
Co0 O2 2.128325 1_555
Co1 O7 1.895452 1_656
Co1 O4 1.895452 1_655
Co1 O5 1.895452 1_556
Co1 O6 1.895452 1_555
Co1 O3 1.914316 1_555
Co1 O0 2.128325 1_555
O0 Sr1 2.699518 1_545
O0 Sr1 2.699518 1_655
O1 Sr0 2.389218 1_555
O1 Sr1 2.691286 1_554
O1 Sr1 2.691286 1_555
O2 Sr0 2.699518 1_455
O2 Sr0 2.699518 1_565
O3 Sr1 2.389218 1_555
O3 Sr0 2.691286 1_555
O3 Sr0 2.691286 1_556
O4 Sr0 2.589252 1_455
O4 Sr1 2.589252 1_555
O5 Sr1 2.589252 1_544
O5 Sr0 2.589252 1_555
O6 Sr1 2.589252 1_545
O6 Sr0 2.589252 1_555
O7 Sr0 2.589252 1_455
O7 Sr1 2.589252 1_554
