# generated using pymatgen
data_MgTiNiS4
_symmetry_space_group_name_H-M   'P 1'
_cell_length_a   7.25246996
_cell_length_b   7.19938134
_cell_length_c   7.19980137
_cell_angle_alpha   59.05927268
_cell_angle_beta   59.73499274
_cell_angle_gamma   59.73589334
_symmetry_Int_Tables_number   1
_chemical_formula_structural   MgTiNiS4
_chemical_formula_sum   'Mg2 Ti2 Ni2 S8'
_cell_volume   262.83294924
_cell_formula_units_Z   2
loop_
 _symmetry_equiv_pos_site_id
 _symmetry_equiv_pos_as_xyz
  1  'x, y, z'
loop_
 _atom_site_type_symbol
 _atom_site_label
 _atom_site_symmetry_multiplicity
 _atom_site_fract_x
 _atom_site_fract_y
 _atom_site_fract_z
 _atom_site_occupancy
  Mg  Mg0  1  0.87114100  0.87849400  0.87849200  1
  Mg  Mg1  1  0.12885500  0.12151100  0.12151500  1
  Ti  Ti0  1  0.50000500  0.49999100  0.00000000  1
  Ti  Ti1  1  0.49999500  0.99999600  0.50000900  1
  Ni  Ni0  1  0.50000500  0.50001500  0.49997600  1
  Ni  Ni1  1  0.00000000  0.49999600  0.50001100  1
  S  S0  1  0.74314800  0.73780300  0.73779700  1
  S  S1  1  0.26284300  0.27279900  0.70494900  1
  S  S2  1  0.26284200  0.70495100  0.27279700  1
  S  S3  1  0.71717800  0.26460000  0.26459000  1
  S  S4  1  0.73714800  0.29505400  0.72718900  1
  S  S5  1  0.28282300  0.73539200  0.73540900  1
  S  S6  1  0.25685000  0.26218900  0.26221700  1
  S  S7  1  0.73717100  0.72720600  0.29504900  1
loop_
_geom_bond_atom_site_label_1
_geom_bond_atom_site_label_2
_geom_bond_distance
_geom_bond_site_symmetry_2
Mg0 S0 2.421646 1_555
Mg0 S4 2.427960 1_565
Mg0 S7 2.428058 1_556
Mg0 S5 2.434657 1_655
Mg1 S6 2.421622 1_555
Mg1 S2 2.427958 1_545
Mg1 S1 2.428110 1_554
Mg1 S3 2.434625 1_455
Ni0 S7 2.367879 1_555
Ni0 S2 2.367902 1_555
Ni0 S4 2.367954 1_555
Ni0 S1 2.367957 1_555
Ni0 S3 2.407821 1_555
Ni0 S5 2.407865 1_555
Ni1 S2 2.386809 1_555
Ni1 S4 2.386811 1_455
Ni1 S1 2.386832 1_555
Ni1 S7 2.386867 1_455
Ni1 S0 2.432466 1_455
Ni1 S6 2.432504 1_555
S0 Ti0 2.443081 1_556
S0 Ti1 2.443108 1_555
S1 Ti1 2.451459 1_545
S2 Ti0 2.451547 1_555
S3 Ti0 2.448664 1_555
S3 Ti1 2.448665 1_545
S4 Ti0 2.451514 1_556
S5 Ti1 2.448614 1_555
S5 Ti0 2.448712 1_556
S6 Ti1 2.443088 1_545
S6 Ti0 2.443097 1_555
S7 Ti1 2.451483 1_555
