# generated using pymatgen
data_Cs2(CoN8)3
_symmetry_space_group_name_H-M   'P 1'
_cell_length_a   5.72177000
_cell_length_b   11.27613500
_cell_length_c   16.21987034
_cell_angle_alpha   65.40768240
_cell_angle_beta   90.00000000
_cell_angle_gamma   90.00000000
_symmetry_Int_Tables_number   1
_chemical_formula_structural   Cs2(CoN8)3
_chemical_formula_sum   'Cs4 Co6 N48'
_cell_volume   951.57138085
_cell_formula_units_Z   2
loop_
 _symmetry_equiv_pos_site_id
 _symmetry_equiv_pos_as_xyz
  1  'x, y, z'
loop_
 _atom_site_type_symbol
 _atom_site_label
 _atom_site_symmetry_multiplicity
 _atom_site_fract_x
 _atom_site_fract_y
 _atom_site_fract_z
 _atom_site_occupancy
  Cs  Cs0  1  0.66684300  0.05098300  0.34597500  1
  Cs  Cs1  1  0.83315700  0.05098300  0.84597500  1
  Cs  Cs2  1  0.33315700  0.94901700  0.65402500  1
  Cs  Cs3  1  0.16684300  0.94901700  0.15402500  1
  Co  Co0  1  0.50000000  0.50000000  0.50000000  1
  Co  Co1  1  0.00000000  0.50000000  0.00000000  1
  Co  Co2  1  0.99953600  0.49720500  0.39328800  1
  Co  Co3  1  0.50046400  0.49720500  0.89328800  1
  Co  Co4  1  0.00046400  0.50279500  0.60671200  1
  Co  Co5  1  0.49953600  0.50279500  0.10671200  1
  N  N0  1  0.30953600  0.39604300  0.44048000  1
  N  N1  1  0.19046400  0.39604300  0.94048000  1
  N  N2  1  0.69046400  0.60395700  0.55952000  1
  N  N3  1  0.80953600  0.60395700  0.05952000  1
  N  N4  1  0.16793900  0.60819700  0.47208300  1
  N  N5  1  0.33206100  0.60819700  0.97208300  1
  N  N6  1  0.83206100  0.39180300  0.52791700  1
  N  N7  1  0.66793900  0.39180300  0.02791700  1
  N  N8  1  0.68840900  0.60227600  0.37985600  1
  N  N9  1  0.81159100  0.60227600  0.87985600  1
  N  N10  1  0.31159100  0.39772400  0.62014400  1
  N  N11  1  0.18840900  0.39772400  0.12014400  1
  N  N12  1  0.12817800  0.62769100  0.27423800  1
  N  N13  1  0.37182200  0.62769100  0.77423800  1
  N  N14  1  0.87182200  0.37230900  0.72576200  1
  N  N15  1  0.62817800  0.37230900  0.22576200  1
  N  N16  1  0.34362400  0.28737400  0.44624100  1
  N  N17  1  0.15637600  0.28737400  0.94624100  1
  N  N18  1  0.65637600  0.71262600  0.55375900  1
  N  N19  1  0.84362400  0.71262600  0.05375900  1
  N  N20  1  0.15870500  0.72630700  0.43443700  1
  N  N21  1  0.34129500  0.72630700  0.93443700  1
  N  N22  1  0.84129500  0.27369300  0.56556300  1
  N  N23  1  0.65870500  0.27369300  0.06556300  1
  N  N24  1  0.66212300  0.71368000  0.32611800  1
  N  N25  1  0.83787700  0.71368000  0.82611800  1
  N  N26  1  0.33787700  0.28632000  0.67388200  1
  N  N27  1  0.16212300  0.28632000  0.17388200  1
  N  N28  1  0.25131500  0.62401600  0.21617900  1
  N  N29  1  0.24868500  0.62401600  0.71617900  1
  N  N30  1  0.74868500  0.37598400  0.78382100  1
  N  N31  1  0.75131500  0.37598400  0.28382100  1
  N  N32  1  0.37438000  0.18192800  0.45170200  1
  N  N33  1  0.12562000  0.18192800  0.95170200  1
  N  N34  1  0.62562000  0.81807200  0.54829800  1
  N  N35  1  0.87438000  0.81807200  0.04829800  1
  N  N36  1  0.14845300  0.83959700  0.39731600  1
  N  N37  1  0.35154700  0.83959700  0.89731600  1
  N  N38  1  0.85154700  0.16040300  0.60268400  1
  N  N39  1  0.64845300  0.16040300  0.10268400  1
  N  N40  1  0.63785700  0.82158100  0.27291600  1
  N  N41  1  0.86214300  0.82158100  0.77291600  1
  N  N42  1  0.36214300  0.17841900  0.72708400  1
  N  N43  1  0.13785700  0.17841900  0.22708400  1
  N  N44  1  0.37515100  0.63060000  0.15608800  1
  N  N45  1  0.12484900  0.63060000  0.65608800  1
  N  N46  1  0.62484900  0.36940000  0.84391200  1
  N  N47  1  0.87515100  0.36940000  0.34391200  1
loop_
_geom_bond_atom_site_label_1
_geom_bond_atom_site_label_2
_geom_bond_distance
_geom_bond_site_symmetry_2
Cs0 N32 3.166832 1_555
Cs0 N34 3.247923 1_545
Cs0 N40 3.267178 1_545
Cs0 N43 3.277260 1_655
Cs0 N15 3.331517 1_555
Cs0 N31 3.406659 1_555
Cs0 N36 3.509510 1_645
Cs0 N43 3.555047 1_555
Cs0 N39 3.612899 1_555
Cs0 N36 3.677062 1_545
Cs1 N33 3.166832 1_655
Cs1 N35 3.247923 1_546
Cs1 N41 3.267178 1_545
Cs1 N42 3.277260 1_555
Cs1 N14 3.331517 1_555
Cs1 N30 3.406659 1_555
Cs1 N37 3.509510 1_545
Cs1 N42 3.555047 1_655
Cs1 N38 3.612899 1_555
Cs1 N37 3.677062 1_645
Cs2 N34 3.166832 1_555
Cs2 N32 3.247923 1_565
Cs2 N42 3.267178 1_565
Cs2 N41 3.277260 1_455
Cs2 N13 3.331517 1_555
Cs2 N29 3.406659 1_555
Cs2 N38 3.509510 1_465
Cs2 N41 3.555047 1_555
Cs2 N37 3.612899 1_555
Cs2 N38 3.677062 1_565
Cs3 N35 3.166832 1_455
Cs3 N33 3.247923 1_564
Cs3 N43 3.267178 1_565
Cs3 N40 3.277260 1_555
Cs3 N12 3.331517 1_555
Cs3 N28 3.406659 1_555
Cs3 N39 3.509510 1_565
Cs3 N40 3.555047 1_455
Cs3 N36 3.612899 1_555
Cs3 N39 3.677062 1_465
Co0 N10 2.102178 1_555
Co0 N8 2.102178 1_555
Co0 N2 2.106111 1_555
Co0 N0 2.106111 1_555
Co0 N4 2.200828 1_555
Co0 N6 2.200828 1_555
Co1 N9 2.102178 1_454
Co1 N11 2.102178 1_555
Co1 N1 2.106111 1_554
Co1 N3 2.106111 1_455
Co1 N5 2.200828 1_554
Co1 N7 2.200828 1_455
Co2 N12 2.017579 1_655
Co2 N47 2.045840 1_555
Co2 N0 2.075231 1_655
Co2 N8 2.098920 1_555
Co2 N6 2.222406 1_555
Co2 N4 2.336577 1_655
Co3 N13 2.017579 1_555
Co3 N46 2.045840 1_555
Co3 N1 2.075231 1_555
Co3 N9 2.098920 1_555
Co3 N7 2.222406 1_556
Co3 N5 2.336577 1_555
Co4 N14 2.017579 1_455
Co4 N45 2.045840 1_555
Co4 N2 2.075231 1_455
Co4 N10 2.098920 1_555
Co4 N4 2.222406 1_555
Co4 N6 2.336577 1_455
Co5 N15 2.017579 1_555
Co5 N44 2.045840 1_555
Co5 N3 2.075231 1_555
Co5 N11 2.098920 1_555
Co5 N5 2.222406 1_554
Co5 N7 2.336577 1_555
N0 N16 1.205402 1_555
N1 N17 1.205402 1_555
N10 N26 1.203772 1_555
N11 N27 1.203772 1_555
N12 N28 1.190555 1_555
N13 N29 1.190555 1_555
N14 N30 1.190555 1_555
N15 N31 1.190555 1_555
N16 N32 1.168303 1_555
N17 N33 1.168303 1_555
N18 N34 1.168303 1_555
N18 N2 1.205402 1_555
N19 N35 1.168303 1_555
N19 N3 1.205402 1_555
N20 N36 1.165209 1_555
N20 N4 1.213479 1_555
N21 N37 1.165209 1_555
N21 N5 1.213479 1_555
N22 N38 1.165209 1_555
N22 N6 1.213479 1_555
N23 N39 1.165209 1_555
N23 N7 1.213479 1_555
N24 N40 1.170650 1_555
N24 N8 1.203772 1_555
N25 N41 1.170650 1_555
N25 N9 1.203772 1_555
N26 N42 1.170650 1_555
N27 N43 1.170650 1_555
N28 N44 1.182083 1_555
N29 N45 1.182083 1_555
N30 N46 1.182083 1_555
N31 N47 1.182083 1_555
