# generated using pymatgen
data_MgCu3(NiO3)4
_symmetry_space_group_name_H-M   'P 1'
_cell_length_a   6.25417912
_cell_length_b   6.25417912
_cell_length_c   6.25417912
_cell_angle_alpha   109.47122063
_cell_angle_beta   109.47122063
_cell_angle_gamma   109.47122063
_symmetry_Int_Tables_number   1
_chemical_formula_structural   MgCu3(NiO3)4
_chemical_formula_sum   'Mg1 Cu3 Ni4 O12'
_cell_volume   188.31679564
_cell_formula_units_Z   1
loop_
 _symmetry_equiv_pos_site_id
 _symmetry_equiv_pos_as_xyz
  1  'x, y, z'
loop_
 _atom_site_type_symbol
 _atom_site_label
 _atom_site_symmetry_multiplicity
 _atom_site_fract_x
 _atom_site_fract_y
 _atom_site_fract_z
 _atom_site_occupancy
  Mg  Mg0  1  0.00000000  0.00000000  0.00000000  1
  Cu  Cu0  1  0.50000000  0.00000000  0.50000000  1
  Cu  Cu1  1  0.50000000  0.50000000  0.00000000  1
  Cu  Cu2  1  0.00000000  0.50000000  0.50000000  1
  Ni  Ni0  1  0.00000000  0.50000000  0.00000000  1
  Ni  Ni1  1  0.50000000  0.00000000  0.00000000  1
  Ni  Ni2  1  0.50000000  0.50000000  0.50000000  1
  Ni  Ni3  1  0.00000000  0.00000000  0.50000000  1
  O  O0  1  0.30575000  0.13694700  0.83119700  1
  O  O1  1  0.69425000  0.86305300  0.16880300  1
  O  O2  1  0.69425000  0.52544600  0.83119700  1
  O  O3  1  0.47455400  0.16880300  0.30575000  1
  O  O4  1  0.16880300  0.30575000  0.47455400  1
  O  O5  1  0.83119700  0.30575000  0.13694700  1
  O  O6  1  0.86305300  0.16880300  0.69425000  1
  O  O7  1  0.83119700  0.69425000  0.52544600  1
  O  O8  1  0.30575000  0.47455400  0.16880300  1
  O  O9  1  0.52544600  0.83119700  0.69425000  1
  O  O10  1  0.16880300  0.69425000  0.86305300  1
  O  O11  1  0.13694700  0.83119700  0.30575000  1
loop_
_geom_bond_atom_site_label_1
_geom_bond_atom_site_label_2
_geom_bond_distance
_geom_bond_site_symmetry_2
Mg0 O1 2.522200 1_445
Mg0 O6 2.522200 1_454
Mg0 O10 2.522200 1_544
Mg0 O0 2.522200 1_554
Mg0 O11 2.522200 1_545
Mg0 O5 2.522200 1_455
Mg0 O4 2.522205 1_555
Mg0 O3 2.522205 1_555
Mg0 O2 2.522205 1_444
Mg0 O7 2.522205 1_444
Mg0 O8 2.522205 1_555
Mg0 O9 2.522205 1_444
Cu0 O3 1.858484 1_555
Cu0 O9 1.858484 1_545
Cu0 O6 1.858484 1_555
Cu0 O11 1.858484 1_545
Cu1 O8 1.858484 1_555
Cu1 O2 1.858484 1_554
Cu1 O0 1.858484 1_554
Cu1 O1 1.858484 1_555
Cu2 O4 1.858484 1_555
Cu2 O7 1.858484 1_455
Cu2 O10 1.858484 1_555
Cu2 O5 1.858484 1_455
Ni0 O2 1.940486 1_454
Ni0 O8 1.940486 1_555
Ni0 O6 1.940490 1_454
Ni0 O11 1.940490 1_555
Ni0 O5 1.940490 1_455
Ni0 O10 1.940490 1_554
Ni1 O9 1.940486 1_544
Ni1 O3 1.940486 1_555
Ni1 O5 1.940490 1_555
Ni1 O10 1.940490 1_544
Ni1 O0 1.940490 1_554
Ni1 O1 1.940490 1_545
Ni2 O8 1.940493 1_555
Ni2 O3 1.940493 1_555
Ni2 O4 1.940493 1_555
Ni2 O9 1.940493 1_555
Ni2 O2 1.940493 1_555
Ni2 O7 1.940493 1_555
Ni3 O7 1.940486 1_445
Ni3 O4 1.940486 1_555
Ni3 O1 1.940490 1_445
Ni3 O0 1.940490 1_555
Ni3 O11 1.940490 1_545
Ni3 O6 1.940490 1_455
