# generated using pymatgen
data_Ba2Er2CuPtO8
_symmetry_space_group_name_H-M   'P 1'
_cell_length_a   5.71161900
_cell_length_b   10.39499500
_cell_length_c   13.32569100
_cell_angle_alpha   90.00000000
_cell_angle_beta   90.00000000
_cell_angle_gamma   90.00000000
_symmetry_Int_Tables_number   1
_chemical_formula_structural   Ba2Er2CuPtO8
_chemical_formula_sum   'Ba8 Er8 Cu4 Pt4 O32'
_cell_volume   791.17627009
_cell_formula_units_Z   4
loop_
 _symmetry_equiv_pos_site_id
 _symmetry_equiv_pos_as_xyz
  1  'x, y, z'
loop_
 _atom_site_type_symbol
 _atom_site_label
 _atom_site_symmetry_multiplicity
 _atom_site_fract_x
 _atom_site_fract_y
 _atom_site_fract_z
 _atom_site_occupancy
  Ba  Ba0  1  0.25000000  0.40743100  0.42267700  1
  Ba  Ba1  1  0.75000000  0.59256900  0.57732300  1
  Ba  Ba2  1  0.75000000  0.90743100  0.07732300  1
  Ba  Ba3  1  0.25000000  0.09256900  0.92267700  1
  Ba  Ba4  1  0.25000000  0.68502300  0.20738000  1
  Ba  Ba5  1  0.75000000  0.31497700  0.79262000  1
  Ba  Ba6  1  0.75000000  0.18502300  0.29262000  1
  Ba  Ba7  1  0.25000000  0.81497700  0.70738000  1
  Er  Er0  1  0.25000000  0.01275000  0.41709500  1
  Er  Er1  1  0.75000000  0.98725000  0.58290500  1
  Er  Er2  1  0.75000000  0.51275000  0.08290500  1
  Er  Er3  1  0.25000000  0.48725000  0.91709500  1
  Er  Er4  1  0.25000000  0.31202900  0.14133200  1
  Er  Er5  1  0.75000000  0.68797100  0.85866800  1
  Er  Er6  1  0.75000000  0.81202900  0.35866800  1
  Er  Er7  1  0.25000000  0.18797100  0.64133200  1
  Cu  Cu0  1  0.25000000  0.73329200  0.46117300  1
  Cu  Cu1  1  0.75000000  0.26670800  0.53882700  1
  Cu  Cu2  1  0.75000000  0.23329200  0.03882700  1
  Cu  Cu3  1  0.25000000  0.76670800  0.96117300  1
  Pt  Pt0  1  0.25000000  0.03193000  0.19427800  1
  Pt  Pt1  1  0.75000000  0.96807000  0.80572200  1
  Pt  Pt2  1  0.75000000  0.53193000  0.30572200  1
  Pt  Pt3  1  0.25000000  0.46807000  0.69427800  1
  O  O0  1  0.25000000  0.18547900  0.29627900  1
  O  O1  1  0.75000000  0.81452100  0.70372100  1
  O  O2  1  0.75000000  0.68547900  0.20372100  1
  O  O3  1  0.25000000  0.31452100  0.79627900  1
  O  O4  1  0.50917400  0.44307600  0.21504000  1
  O  O5  1  0.49082600  0.55692400  0.78496000  1
  O  O6  1  0.49082600  0.94307600  0.28496000  1
  O  O7  1  0.00917400  0.55692400  0.78496000  1
  O  O8  1  0.50917400  0.05692400  0.71504000  1
  O  O9  1  0.99082600  0.44307600  0.21504000  1
  O  O10  1  0.99082600  0.05692400  0.71504000  1
  O  O11  1  0.00917400  0.94307600  0.28496000  1
  O  O12  1  0.00917900  0.13972100  0.11393700  1
  O  O13  1  0.99082100  0.86027900  0.88606300  1
  O  O14  1  0.99082100  0.63972100  0.38606300  1
  O  O15  1  0.50917900  0.86027900  0.88606300  1
  O  O16  1  0.00917900  0.36027900  0.61393700  1
  O  O17  1  0.49082100  0.13972100  0.11393700  1
  O  O18  1  0.49082100  0.36027900  0.61393700  1
  O  O19  1  0.50917900  0.63972100  0.38606300  1
  O  O20  1  0.50449800  0.36517900  0.00830000  1
  O  O21  1  0.49550200  0.63482100  0.99170000  1
  O  O22  1  0.49550200  0.86517900  0.49170000  1
  O  O23  1  0.00449800  0.63482100  0.99170000  1
  O  O24  1  0.50449800  0.13482100  0.50830000  1
  O  O25  1  0.99550200  0.36517900  0.00830000  1
  O  O26  1  0.99550200  0.13482100  0.50830000  1
  O  O27  1  0.00449800  0.86517900  0.49170000  1
  O  O28  1  0.25000000  0.60987600  0.58870600  1
  O  O29  1  0.75000000  0.39012400  0.41129400  1
  O  O30  1  0.75000000  0.10987600  0.91129400  1
  O  O31  1  0.25000000  0.89012400  0.08870600  1
loop_
_geom_bond_atom_site_label_1
_geom_bond_atom_site_label_2
_geom_bond_distance
_geom_bond_site_symmetry_2
Ba0 O0 2.856594 1_555
Ba0 O29 2.865488 1_455
Ba0 O29 2.865488 1_555
Ba0 O19 2.874019 1_555
Ba0 O14 2.874019 1_455
Ba0 O18 2.937330 1_555
Ba0 O16 2.937330 1_555
Ba0 O28 3.053441 1_555
Ba0 O4 3.159804 1_555
Ba0 O9 3.159804 1_455
Ba0 O24 3.383060 1_555
Ba0 O26 3.383060 1_455
Ba1 O1 2.856594 1_555
Ba1 O28 2.865488 1_655
Ba1 O28 2.865488 1_555
Ba1 O16 2.874019 1_655
Ba1 O18 2.874019 1_555
Ba1 O14 2.937330 1_555
Ba1 O19 2.937330 1_555
Ba1 O29 3.053441 1_555
Ba1 O5 3.159804 1_555
Ba1 O7 3.159804 1_655
Ba1 O27 3.383060 1_655
Ba1 O22 3.383060 1_555
Ba2 O2 2.856594 1_555
Ba2 O31 2.865488 1_655
Ba2 O31 2.865488 1_555
Ba2 O12 2.874019 1_665
Ba2 O17 2.874019 1_565
Ba2 O13 2.937330 1_554
Ba2 O15 2.937330 1_554
Ba2 O30 3.053441 1_564
Ba2 O6 3.159804 1_555
Ba2 O11 3.159804 1_655
Ba2 O23 3.383060 1_654
Ba2 O21 3.383060 1_554
Ba3 O3 2.856594 1_555
Ba3 O30 2.865488 1_455
Ba3 O30 2.865488 1_555
Ba3 O15 2.874019 1_545
Ba3 O13 2.874019 1_445
Ba3 O17 2.937330 1_556
Ba3 O12 2.937330 1_556
Ba3 O31 3.053441 1_546
Ba3 O8 3.159804 1_555
Ba3 O10 3.159804 1_455
Ba3 O20 3.383060 1_556
Ba3 O25 3.383060 1_456
Ba4 O31 2.654504 1_555
Ba4 O19 2.843001 1_555
Ba4 O14 2.843001 1_455
Ba4 O2 2.856230 1_455
Ba4 O2 2.856230 1_555
Ba4 O9 2.920125 1_455
Ba4 O4 2.920125 1_555
Ba4 O6 3.186905 1_555
Ba4 O11 3.186905 1_555
Ba4 O21 3.240200 1_554
Ba4 O23 3.240200 1_554
Ba5 O30 2.654504 1_555
Ba5 O16 2.843001 1_655
Ba5 O18 2.843001 1_555
Ba5 O3 2.856230 1_555
Ba5 O3 2.856230 1_655
Ba5 O7 2.920125 1_655
Ba5 O5 2.920125 1_555
Ba5 O10 3.186905 1_555
Ba5 O8 3.186905 1_555
Ba5 O20 3.240200 1_556
Ba5 O25 3.240200 1_556
Ba6 O29 2.654504 1_555
Ba6 O12 2.843001 1_655
Ba6 O17 2.843001 1_555
Ba6 O0 2.856230 1_555
Ba6 O0 2.856230 1_655
Ba6 O11 2.920125 1_645
Ba6 O6 2.920125 1_545
Ba6 O9 3.186905 1_555
Ba6 O4 3.186905 1_555
Ba6 O26 3.240200 1_555
Ba6 O24 3.240200 1_555
Ba7 O28 2.654504 1_555
Ba7 O15 2.843001 1_555
Ba7 O13 2.843001 1_455
Ba7 O1 2.856230 1_555
Ba7 O1 2.856230 1_455
Ba7 O8 2.920125 1_565
Ba7 O10 2.920125 1_465
Ba7 O7 3.186905 1_555
Ba7 O5 3.186905 1_555
Ba7 O22 3.240200 1_555
Ba7 O27 3.240200 1_555
Er0 O26 2.280404 1_455
Er0 O24 2.280404 1_555
Er0 O22 2.303849 1_545
Er0 O27 2.303849 1_545
Er0 O6 2.348820 1_545
Er0 O11 2.348820 1_545
Er0 O0 2.411606 1_555
Er1 O27 2.280404 1_655
Er1 O22 2.280404 1_555
Er1 O26 2.303849 1_565
Er1 O24 2.303849 1_565
Er1 O10 2.348820 1_565
Er1 O8 2.348820 1_565
Er1 O1 2.411606 1_555
Er2 O23 2.280404 1_654
Er2 O21 2.280404 1_554
Er2 O20 2.303849 1_555
Er2 O25 2.303849 1_555
Er2 O9 2.348820 1_555
Er2 O4 2.348820 1_555
Er2 O2 2.411606 1_555
Er3 O25 2.280404 1_456
Er3 O20 2.280404 1_556
Er3 O21 2.303849 1_555
Er3 O23 2.303849 1_555
Er3 O5 2.348820 1_555
Er3 O7 2.348820 1_555
Er3 O3 2.411606 1_555
Er4 O4 2.238685 1_555
Er4 O9 2.238685 1_455
Er4 O17 2.287661 1_555
Er4 O12 2.287661 1_555
Er4 O20 2.358137 1_555
Er4 O25 2.358137 1_455
Er4 O0 2.448225 1_555
Er5 O5 2.238685 1_555
Er5 O7 2.238685 1_655
Er5 O13 2.287661 1_555
Er5 O15 2.287661 1_555
Er5 O23 2.358137 1_655
Er5 O21 2.358137 1_555
Er5 O1 2.448225 1_555
Er6 O11 2.238685 1_655
Er6 O6 2.238685 1_555
Er6 O14 2.287661 1_555
Er6 O19 2.287661 1_555
Er6 O27 2.358137 1_655
Er6 O22 2.358137 1_555
Er6 O2 2.448225 1_555
Er7 O10 2.238685 1_455
Er7 O8 2.238685 1_555
Er7 O18 2.287661 1_555
Er7 O16 2.287661 1_555
Er7 O26 2.358137 1_455
Er7 O24 2.358137 1_555
Er7 O3 2.448225 1_555
Cu0 O22 2.002805 1_555
Cu0 O27 2.002805 1_555
Cu0 O19 2.034516 1_555
Cu0 O14 2.034516 1_455
Cu0 O28 2.129328 1_555
Cu1 O24 2.002805 1_555
Cu1 O26 2.002805 1_555
Cu1 O16 2.034516 1_655
Cu1 O18 2.034516 1_555
Cu1 O29 2.129328 1_555
Cu2 O20 2.002805 1_555
Cu2 O25 2.002805 1_555
Cu2 O12 2.034516 1_655
Cu2 O17 2.034516 1_555
Cu2 O30 2.129328 1_554
Cu3 O21 2.002805 1_555
Cu3 O23 2.002805 1_555
Cu3 O15 2.034516 1_555
Cu3 O13 2.034516 1_455
Cu3 O31 2.129328 1_556
O0 Pt0 2.096469 1_555
O1 Pt1 2.096469 1_555
O2 Pt2 2.096469 1_555
O3 Pt3 2.096469 1_555
O4 Pt2 2.050696 1_555
O5 Pt3 2.050696 1_555
O6 Pt0 2.050696 1_565
O7 Pt3 2.050696 1_555
O8 Pt1 2.050696 1_545
O9 Pt2 2.050696 1_555
O10 Pt1 2.050696 1_545
O11 Pt0 2.050696 1_565
O12 Pt0 2.072104 1_555
O13 Pt1 2.072104 1_555
O14 Pt2 2.072104 1_555
O15 Pt1 2.072104 1_555
O16 Pt3 2.072104 1_555
O17 Pt0 2.072104 1_555
O18 Pt3 2.072104 1_555
O19 Pt2 2.072104 1_555
O28 Pt3 2.037654 1_555
O29 Pt2 2.037654 1_555
O30 Pt1 2.037654 1_545
O31 Pt0 2.037654 1_565
