# generated using pymatgen
data_NaMg14Si
_symmetry_space_group_name_H-M   'P 1'
_cell_length_a   6.32607109
_cell_length_b   6.33942448
_cell_length_c   10.44756985
_cell_angle_alpha   90.00000000
_cell_angle_beta   90.00000000
_cell_angle_gamma   120.06985623
_symmetry_Int_Tables_number   1
_chemical_formula_structural   NaMg14Si
_chemical_formula_sum   'Na1 Mg14 Si1'
_cell_volume   362.59655837
_cell_formula_units_Z   1
loop_
 _symmetry_equiv_pos_site_id
 _symmetry_equiv_pos_as_xyz
  1  'x, y, z'
loop_
 _atom_site_type_symbol
 _atom_site_label
 _atom_site_symmetry_multiplicity
 _atom_site_fract_x
 _atom_site_fract_y
 _atom_site_fract_z
 _atom_site_occupancy
  Na  Na0  1  0.16628649  0.83314275  0.12500000  1
  Mg  Mg0  1  0.16655676  0.33327788  0.62500000  1
  Mg  Mg1  1  0.16727173  0.83363536  0.62500000  1
  Mg  Mg2  1  0.66728704  0.33546145  0.12500000  1
  Mg  Mg3  1  0.66635694  0.33245723  0.62500000  1
  Mg  Mg4  1  0.66728704  0.83182459  0.12500000  1
  Mg  Mg5  1  0.66635694  0.83389871  0.62500000  1
  Mg  Mg6  1  0.33218419  0.16958638  0.37376114  1
  Mg  Mg7  1  0.33218419  0.16958638  0.87623886  1
  Mg  Mg8  1  0.33218419  0.66259881  0.37376114  1
  Mg  Mg9  1  0.33218419  0.66259881  0.87623886  1
  Mg  Mg10  1  0.83581466  0.16790783  0.37105972  1
  Mg  Mg11  1  0.83581466  0.16790783  0.87894028  1
  Mg  Mg12  1  0.83099973  0.66550037  0.37890026  1
  Mg  Mg13  1  0.83099973  0.66550037  0.87109974  1
  Si  Si0  1  0.17023152  0.33511526  0.12500000  1
loop_
_geom_bond_atom_site_label_1
_geom_bond_atom_site_label_2
_geom_bond_distance
_geom_bond_site_symmetry_2
Na0 Si0 3.169786 1_565
Na0 Si0 3.169786 1_555
Mg0 Mg5 3.161696 1_445
Mg0 Mg3 3.161696 1_455
Mg0 Mg5 3.164381 1_555
Mg0 Mg3 3.164381 1_555
Mg0 Mg1 3.169715 1_555
Mg0 Mg1 3.169715 1_545
Mg0 Mg7 3.186535 1_555
Mg0 Mg6 3.186535 1_555
Mg0 Mg9 3.186541 1_555
Mg0 Mg8 3.186541 1_555
Mg0 Mg10 3.212068 1_455
Mg0 Mg11 3.212068 1_455
Mg1 Mg3 3.156412 1_565
Mg1 Mg5 3.156412 1_555
Mg1 Mg12 3.162277 1_455
Mg1 Mg13 3.162277 1_455
Mg1 Mg3 3.169659 1_455
Mg1 Mg5 3.169659 1_455
Mg1 Mg9 3.207387 1_555
Mg1 Mg8 3.207387 1_555
Mg1 Mg7 3.207393 1_565
Mg1 Mg6 3.207393 1_565
Mg2 Si0 3.143309 1_555
Mg2 Mg4 3.146657 1_555
Mg2 Na0 3.152527 1_655
Mg2 Na0 3.173560 1_545
Mg2 Mg6 3.181247 1_555
Mg2 Mg7 3.181247 1_554
Mg2 Si0 3.182763 1_655
Mg2 Mg4 3.192768 1_545
Mg3 Mg5 3.160574 1_545
Mg3 Mg5 3.178850 1_555
Mg3 Mg7 3.199610 1_555
Mg3 Mg6 3.199610 1_555
Mg4 Si0 3.143309 1_555
Mg4 Na0 3.152527 1_655
Mg4 Na0 3.173560 1_555
Mg4 Mg8 3.181247 1_555
Mg4 Mg9 3.181247 1_554
Mg4 Si0 3.182762 1_665
Mg5 Mg9 3.199610 1_555
Mg5 Mg8 3.199610 1_555
Mg6 Mg8 3.125415 1_555
Mg6 Si0 3.159541 1_555
Mg6 Na0 3.187776 1_545
Mg6 Mg8 3.214009 1_545
Mg7 Mg9 3.125415 1_555
Mg7 Si0 3.159541 1_556
Mg7 Na0 3.187776 1_546
Mg7 Mg9 3.214009 1_545
Mg8 Si0 3.159548 1_555
Mg8 Na0 3.187770 1_555
Mg9 Si0 3.159548 1_556
Mg9 Na0 3.187770 1_556
Mg10 Mg8 3.134878 1_655
Mg10 Mg6 3.134878 1_655
Mg10 Si0 3.156034 1_655
Mg10 Mg2 3.163591 1_555
Mg10 Mg4 3.163597 1_545
Mg10 Mg12 3.170880 1_545
Mg10 Mg12 3.170880 1_555
Mg10 Mg8 3.191472 1_545
Mg10 Mg6 3.191472 1_555
Mg10 Mg3 3.224389 1_555
Mg10 Mg5 3.224395 1_545
Mg11 Mg9 3.134878 1_655
Mg11 Mg7 3.134878 1_655
Mg11 Si0 3.156034 1_656
Mg11 Mg2 3.163591 1_556
Mg11 Mg4 3.163597 1_546
Mg11 Mg13 3.170880 1_545
Mg11 Mg13 3.170880 1_555
Mg11 Mg9 3.191472 1_545
Mg11 Mg7 3.191472 1_555
Mg11 Mg3 3.224389 1_555
Mg11 Mg5 3.224395 1_545
Mg12 Mg6 3.146824 1_555
Mg12 Mg8 3.146824 1_555
Mg12 Mg5 3.154282 1_555
Mg12 Mg3 3.154289 1_555
Mg12 Mg6 3.180238 1_665
Mg12 Mg8 3.180238 1_655
Mg12 Mg4 3.211721 1_555
Mg12 Mg2 3.211727 1_555
Mg12 Na0 3.225815 1_655
Mg13 Mg7 3.146824 1_555
Mg13 Mg9 3.146824 1_555
Mg13 Mg5 3.154282 1_555
Mg13 Mg3 3.154289 1_555
Mg13 Mg7 3.180238 1_665
Mg13 Mg9 3.180238 1_655
Mg13 Mg4 3.211721 1_556
Mg13 Mg2 3.211727 1_556
Mg13 Na0 3.225815 1_656
