# generated using pymatgen
data_SrYMg6
_symmetry_space_group_name_H-M   'P 1'
_cell_length_a   5.26013700
_cell_length_b   7.09270700
_cell_length_c   11.68786600
_cell_angle_alpha   90.00000000
_cell_angle_beta   90.00000000
_cell_angle_gamma   90.00000000
_symmetry_Int_Tables_number   1
_chemical_formula_structural   SrYMg6
_chemical_formula_sum   'Sr2 Y2 Mg12'
_cell_volume   436.05804041
_cell_formula_units_Z   2
loop_
 _symmetry_equiv_pos_site_id
 _symmetry_equiv_pos_as_xyz
  1  'x, y, z'
loop_
 _atom_site_type_symbol
 _atom_site_label
 _atom_site_symmetry_multiplicity
 _atom_site_fract_x
 _atom_site_fract_y
 _atom_site_fract_z
 _atom_site_occupancy
  Sr  Sr0  1  0.00000000  0.00000000  0.59812200  1
  Sr  Sr1  1  0.00000000  0.50000000  0.09812200  1
  Y  Y0  1  0.50000000  0.00000000  0.90393300  1
  Y  Y1  1  0.50000000  0.50000000  0.40393300  1
  Mg  Mg0  1  0.50000000  0.72204100  0.66415600  1
  Mg  Mg1  1  0.50000000  0.27795900  0.66415600  1
  Mg  Mg2  1  0.50000000  0.00000000  0.40581600  1
  Mg  Mg3  1  0.00000000  0.76888100  0.34036600  1
  Mg  Mg4  1  0.00000000  0.23111900  0.34036600  1
  Mg  Mg5  1  0.00000000  0.00000000  0.08308400  1
  Mg  Mg6  1  0.50000000  0.22204100  0.16415600  1
  Mg  Mg7  1  0.50000000  0.77795900  0.16415600  1
  Mg  Mg8  1  0.50000000  0.50000000  0.90581600  1
  Mg  Mg9  1  0.00000000  0.26888100  0.84036600  1
  Mg  Mg10  1  0.00000000  0.73111900  0.84036600  1
  Mg  Mg11  1  0.00000000  0.50000000  0.58308400  1
loop_
_geom_bond_atom_site_label_1
_geom_bond_atom_site_label_2
_geom_bond_distance
_geom_bond_site_symmetry_2
Mg0 Mg1 3.149744 1_555
Mg0 Mg11 3.208637 1_655
Mg0 Mg11 3.208637 1_555
Mg0 Mg8 3.233877 1_555
Mg0 Mg10 3.341111 1_555
Mg0 Mg10 3.341111 1_655
Mg0 Sr0 3.376340 1_665
Mg0 Sr0 3.376340 1_565
Mg0 Y1 3.425003 1_555
Mg0 Y0 3.426462 1_565
Mg1 Mg11 3.208637 1_655
Mg1 Mg11 3.208637 1_555
Mg1 Mg8 3.233877 1_555
Mg1 Mg9 3.341111 1_655
Mg1 Mg9 3.341111 1_555
Mg1 Sr0 3.376340 1_555
Mg1 Sr0 3.376340 1_655
Mg1 Y1 3.425003 1_555
Mg1 Y0 3.426462 1_555
Mg2 Mg4 3.192117 1_555
Mg2 Mg4 3.192117 1_655
Mg2 Mg3 3.192117 1_645
Mg2 Mg3 3.192117 1_545
Mg2 Mg6 3.233877 1_555
Mg2 Mg7 3.233877 1_545
Mg2 Sr0 3.459650 1_655
Mg2 Sr0 3.459650 1_555
Mg2 Y1 3.546422 1_545
Mg2 Y1 3.546422 1_555
Mg3 Mg4 3.278519 1_565
Mg3 Y1 3.332606 1_455
Mg3 Y1 3.332606 1_555
Mg3 Mg7 3.341111 1_455
Mg3 Mg7 3.341111 1_555
Mg3 Sr1 3.413701 1_555
Mg3 Mg5 3.424863 1_565
Mg3 Sr0 3.429728 1_565
Mg4 Y1 3.332606 1_455
Mg4 Y1 3.332606 1_555
Mg4 Mg6 3.341111 1_455
Mg4 Mg6 3.341111 1_555
Mg4 Sr1 3.413701 1_555
Mg4 Mg5 3.424863 1_555
Mg4 Sr0 3.429728 1_555
Mg5 Mg6 3.208637 1_455
Mg5 Mg6 3.208637 1_555
Mg5 Mg7 3.208637 1_545
Mg5 Mg7 3.208637 1_445
Mg5 Y0 3.361792 1_554
Mg5 Y0 3.361792 1_454
Mg5 Mg9 3.418297 1_554
Mg5 Sr1 3.550706 1_545
Mg5 Sr1 3.550706 1_555
Mg6 Mg7 3.149744 1_545
Mg6 Sr1 3.376340 1_655
Mg6 Sr1 3.376340 1_555
Mg6 Y0 3.425003 1_554
Mg6 Y1 3.426462 1_555
Mg7 Sr1 3.376340 1_655
Mg7 Sr1 3.376340 1_555
Mg7 Y0 3.425003 1_564
Mg7 Y1 3.426462 1_555
Mg8 Mg9 3.192117 1_655
Mg8 Mg9 3.192117 1_555
Mg8 Sr1 3.459650 1_656
Mg8 Sr1 3.459650 1_556
Mg8 Y0 3.546422 1_555
Mg8 Y0 3.546422 1_565
Mg9 Y0 3.332606 1_455
Mg9 Y0 3.332606 1_555
Mg9 Sr0 3.413701 1_555
Mg9 Sr1 3.429728 1_556
Mg10 Mg8 3.192117 1_455
Mg10 Mg8 3.192117 1_555
Mg10 Mg9 3.278519 1_555
Mg10 Y0 3.332606 1_565
Mg10 Y0 3.332606 1_465
Mg10 Sr0 3.413701 1_565
Mg10 Mg5 3.418297 1_566
Mg10 Mg11 3.424863 1_555
Mg10 Sr1 3.429728 1_556
Mg11 Y1 3.361792 1_555
Mg11 Y1 3.361792 1_455
Mg11 Mg3 3.418297 1_555
Mg11 Mg4 3.418297 1_555
Mg11 Mg9 3.424863 1_555
Mg11 Sr0 3.550706 1_565
Mg11 Sr0 3.550706 1_555
