# generated using pymatgen
data_TmSi3Ni5
_symmetry_space_group_name_H-M   'P 1'
_cell_length_a   3.73762199
_cell_length_b   18.46931067
_cell_length_c   6.57071213
_cell_angle_alpha   90.00000000
_cell_angle_beta   90.00000000
_cell_angle_gamma   90.00000000
_symmetry_Int_Tables_number   1
_chemical_formula_structural   TmSi3Ni5
_chemical_formula_sum   'Tm4 Si12 Ni20'
_cell_volume   453.58481143
_cell_formula_units_Z   4
loop_
 _symmetry_equiv_pos_site_id
 _symmetry_equiv_pos_as_xyz
  1  'x, y, z'
loop_
 _atom_site_type_symbol
 _atom_site_label
 _atom_site_symmetry_multiplicity
 _atom_site_fract_x
 _atom_site_fract_y
 _atom_site_fract_z
 _atom_site_occupancy
  Tm  Tm0  1  0.75000000  0.64413223  0.12291506  1
  Tm  Tm1  1  0.25000000  0.35586777  0.87708494  1
  Tm  Tm2  1  0.25000000  0.85586777  0.62291506  1
  Tm  Tm3  1  0.75000000  0.14413223  0.37708494  1
  Si  Si0  1  0.75000000  0.73779220  0.62308410  1
  Si  Si1  1  0.25000000  0.26220780  0.37691590  1
  Si  Si2  1  0.25000000  0.76220780  0.12308410  1
  Si  Si3  1  0.75000000  0.23779220  0.87691590  1
  Si  Si4  1  0.75000000  0.92528817  0.34564089  1
  Si  Si5  1  0.25000000  0.07471183  0.65435911  1
  Si  Si6  1  0.25000000  0.57471183  0.84564089  1
  Si  Si7  1  0.75000000  0.42528817  0.15435911  1
  Si  Si8  1  0.75000000  0.91415461  0.91681308  1
  Si  Si9  1  0.25000000  0.08584539  0.08318692  1
  Si  Si10  1  0.25000000  0.58584539  0.41681308  1
  Si  Si11  1  0.75000000  0.41415461  0.58318692  1
  Ni  Ni0  1  0.75000000  0.80043562  0.31668297  1
  Ni  Ni1  1  0.25000000  0.19956438  0.68331703  1
  Ni  Ni2  1  0.25000000  0.69956438  0.81668297  1
  Ni  Ni3  1  0.75000000  0.30043562  0.18331703  1
  Ni  Ni4  1  0.75000000  0.99433548  0.63318022  1
  Ni  Ni5  1  0.25000000  0.00566452  0.36681978  1
  Ni  Ni6  1  0.25000000  0.50566452  0.13318022  1
  Ni  Ni7  1  0.75000000  0.49433548  0.86681978  1
  Ni  Ni8  1  0.75000000  0.51481149  0.38342868  1
  Ni  Ni9  1  0.25000000  0.48518851  0.61657132  1
  Ni  Ni10  1  0.25000000  0.98518851  0.88342868  1
  Ni  Ni11  1  0.75000000  0.01481149  0.11657132  1
  Ni  Ni12  1  0.75000000  0.79376339  0.93140537  1
  Ni  Ni13  1  0.25000000  0.20623661  0.06859463  1
  Ni  Ni14  1  0.25000000  0.70623661  0.43140537  1
  Ni  Ni15  1  0.75000000  0.29376339  0.56859463  1
  Ni  Ni16  1  0.75000000  0.61490173  0.64401807  1
  Ni  Ni17  1  0.25000000  0.38509827  0.35598193  1
  Ni  Ni18  1  0.25000000  0.88509827  0.14401807  1
  Ni  Ni19  1  0.75000000  0.11490173  0.85598193  1
loop_
_geom_bond_atom_site_label_1
_geom_bond_atom_site_label_2
_geom_bond_distance
_geom_bond_site_symmetry_2
Si0 Tm2 2.871974 1_555
Si0 Tm2 2.871974 1_655
Si1 Tm3 2.871974 1_455
Si1 Tm3 2.871974 1_555
Si2 Tm0 2.871974 1_555
Si2 Tm0 2.871974 1_455
Si3 Tm1 2.871974 1_555
Si3 Tm1 2.871974 1_655
Si4 Tm2 2.907857 1_655
Si4 Tm2 2.907857 1_555
Si5 Tm3 2.907857 1_455
Si5 Tm3 2.907857 1_555
Si6 Tm0 2.907857 1_556
Si6 Tm0 2.907857 1_456
Si7 Tm1 2.907857 1_654
Si7 Tm1 2.907857 1_554
Si8 Tm2 2.894921 1_655
Si8 Tm2 2.894921 1_555
Si9 Tm3 2.894921 1_555
Si9 Tm3 2.894921 1_455
Si10 Tm0 2.894921 1_455
Si10 Tm0 2.894921 1_555
Si11 Tm1 2.894921 1_655
Si11 Tm1 2.894921 1_555
Ni0 Si4 2.313777 1_555
Ni0 Si0 2.322041 1_555
Ni0 Si2 2.368363 1_555
Ni0 Si2 2.368363 1_655
Ni0 Ni12 2.534546 1_554
Ni0 Ni14 2.662246 1_555
Ni0 Ni14 2.662246 1_655
Ni0 Ni18 2.687871 1_555
Ni0 Ni18 2.687871 1_655
Ni0 Tm2 2.930769 1_555
Ni0 Tm2 2.930769 1_655
Ni0 Tm0 3.155111 1_555
Ni1 Si5 2.313777 1_555
Ni1 Si1 2.322041 1_555
Ni1 Si3 2.368363 1_555
Ni1 Si3 2.368363 1_455
Ni1 Ni13 2.534546 1_556
Ni1 Ni15 2.662246 1_455
Ni1 Ni15 2.662246 1_555
Ni1 Ni19 2.687871 1_555
Ni1 Ni19 2.687871 1_455
Ni1 Tm3 2.930769 1_555
Ni1 Tm3 2.930769 1_455
Ni1 Tm1 3.155111 1_555
Ni2 Si6 2.313777 1_555
Ni2 Si2 2.322041 1_556
Ni2 Si0 2.368363 1_455
Ni2 Si0 2.368363 1_555
Ni2 Tm0 2.930769 1_456
Ni2 Tm0 2.930769 1_556
Ni2 Tm2 3.155111 1_555
Ni3 Si7 2.313777 1_555
Ni3 Si3 2.322041 1_554
Ni3 Si1 2.368363 1_655
Ni3 Si1 2.368363 1_555
Ni3 Tm1 2.930769 1_554
Ni3 Tm1 2.930769 1_654
Ni3 Tm3 3.155111 1_555
Ni4 Si4 2.279447 1_555
Ni4 Si8 2.380396 1_555
Ni4 Si5 2.390721 1_565
Ni4 Si5 2.390721 1_665
Ni4 Ni5 2.568922 1_665
Ni4 Ni5 2.568922 1_565
Ni4 Tm2 3.168172 1_655
Ni4 Tm2 3.168172 1_555
Ni4 Tm3 3.238192 1_565
Ni5 Si5 2.279447 1_555
Ni5 Si9 2.380396 1_555
Ni5 Si4 2.390721 1_545
Ni5 Si4 2.390721 1_445
Ni5 Tm3 3.168172 1_455
Ni5 Tm3 3.168172 1_555
Ni5 Tm2 3.238192 1_545
Ni6 Si6 2.279447 1_554
Ni6 Si10 2.380396 1_555
Ni6 Si7 2.390721 1_455
Ni6 Si7 2.390721 1_555
Ni6 Ni8 2.494945 1_555
Ni6 Ni8 2.494945 1_455
Ni6 Ni7 2.568922 1_454
Ni6 Ni7 2.568922 1_554
Ni6 Tm0 3.168172 1_555
Ni6 Tm0 3.168172 1_455
Ni6 Tm1 3.238192 1_554
Ni7 Si7 2.279447 1_556
Ni7 Si11 2.380396 1_555
Ni7 Si6 2.390721 1_655
Ni7 Si6 2.390721 1_555
Ni7 Ni9 2.494945 1_555
Ni7 Ni9 2.494945 1_655
Ni7 Tm1 3.168172 1_655
Ni7 Tm1 3.168172 1_555
Ni7 Tm0 3.238192 1_556
Ni8 Si7 2.235916 1_555
Ni8 Si11 2.275723 1_555
Ni8 Si10 2.293857 1_555
Ni8 Si10 2.293857 1_655
Ni8 Ni9 2.477609 1_555
Ni8 Ni9 2.477609 1_655
Ni8 Tm0 2.938518 1_555
Ni9 Si6 2.235916 1_555
Ni9 Si10 2.275723 1_555
Ni9 Si11 2.293857 1_555
Ni9 Si11 2.293857 1_455
Ni9 Tm1 2.938518 1_555
Ni10 Si5 2.235916 1_565
Ni10 Si9 2.275723 1_566
Ni10 Si8 2.293857 1_555
Ni10 Si8 2.293857 1_455
Ni10 Ni11 2.477609 1_566
Ni10 Ni11 2.477609 1_466
Ni10 Ni4 2.494945 1_555
Ni10 Ni4 2.494945 1_455
Ni10 Ni18 2.519750 1_556
Ni10 Tm2 2.938518 1_555
Ni11 Si4 2.235916 1_545
Ni11 Si8 2.275723 1_544
Ni11 Si9 2.293857 1_655
Ni11 Si9 2.293857 1_555
Ni11 Ni5 2.494945 1_555
Ni11 Ni5 2.494945 1_655
Ni11 Ni19 2.519750 1_554
Ni11 Tm3 2.938518 1_555
Ni12 Si8 2.225609 1_555
Ni12 Si0 2.274394 1_555
Ni12 Si2 2.327741 1_656
Ni12 Si2 2.327741 1_556
Ni12 Ni2 2.662246 1_655
Ni12 Ni2 2.662246 1_555
Ni12 Ni18 2.879187 1_556
Ni12 Ni18 2.879187 1_656
Ni12 Tm2 2.986110 1_655
Ni12 Tm2 2.986110 1_555
Ni12 Tm0 3.036586 1_556
Ni13 Si9 2.225609 1_555
Ni13 Si1 2.274394 1_555
Ni13 Si3 2.327741 1_554
Ni13 Si3 2.327741 1_454
Ni13 Ni3 2.662246 1_555
Ni13 Ni3 2.662246 1_455
Ni13 Ni19 2.879187 1_554
Ni13 Ni19 2.879187 1_454
Ni13 Tm3 2.986110 1_555
Ni13 Tm3 2.986110 1_455
Ni13 Tm1 3.036586 1_554
Ni14 Si10 2.225609 1_555
Ni14 Si2 2.274394 1_555
Ni14 Si0 2.327741 1_555
Ni14 Si0 2.327741 1_455
Ni14 Ni2 2.534546 1_555
Ni14 Ni16 2.879187 1_455
Ni14 Ni16 2.879187 1_555
Ni14 Tm0 2.986110 1_455
Ni14 Tm0 2.986110 1_555
Ni14 Tm2 3.036586 1_555
Ni15 Si11 2.225609 1_555
Ni15 Si3 2.274394 1_555
Ni15 Si1 2.327741 1_655
Ni15 Si1 2.327741 1_555
Ni15 Ni3 2.534546 1_555
Ni15 Ni17 2.879187 1_655
Ni15 Ni17 2.879187 1_555
Ni15 Tm1 2.986110 1_655
Ni15 Tm1 2.986110 1_555
Ni15 Tm3 3.036586 1_555
Ni16 Si0 2.273866 1_555
Ni16 Si6 2.408016 1_555
Ni16 Si6 2.408016 1_655
Ni16 Si10 2.451366 1_655
Ni16 Si10 2.451366 1_555
Ni16 Ni8 2.519750 1_555
Ni16 Ni7 2.664906 1_555
Ni16 Ni2 2.687871 1_555
Ni16 Ni2 2.687871 1_655
Ni16 Tm0 3.192670 1_556
Ni17 Si1 2.273866 1_555
Ni17 Si7 2.408016 1_455
Ni17 Si7 2.408016 1_555
Ni17 Si11 2.451366 1_555
Ni17 Si11 2.451366 1_455
Ni17 Ni9 2.519750 1_555
Ni17 Ni6 2.664906 1_555
Ni17 Ni3 2.687871 1_555
Ni17 Ni3 2.687871 1_455
Ni17 Tm1 3.192670 1_554
Ni18 Si2 2.273866 1_555
Ni18 Si4 2.408016 1_455
Ni18 Si4 2.408016 1_555
Ni18 Si8 2.451366 1_554
Ni18 Si8 2.451366 1_454
Ni18 Ni5 2.664906 1_565
Ni18 Tm2 3.192670 1_555
Ni19 Si3 2.273866 1_555
Ni19 Si5 2.408016 1_555
Ni19 Si5 2.408016 1_655
Ni19 Si9 2.451366 1_656
Ni19 Si9 2.451366 1_556
Ni19 Ni4 2.664906 1_545
Ni19 Tm3 3.192670 1_555
