# generated using pymatgen
data_LiV3Zn2O8
_symmetry_space_group_name_H-M   'P 1'
_cell_length_a   6.00141394
_cell_length_b   5.99661469
_cell_length_c   10.31823785
_cell_angle_alpha   73.21782036
_cell_angle_beta   89.84339617
_cell_angle_gamma   120.21291002
_symmetry_Int_Tables_number   1
_chemical_formula_structural   LiV3Zn2O8
_chemical_formula_sum   'Li2 V6 Zn4 O16'
_cell_volume   302.26851965
_cell_formula_units_Z   2
loop_
 _symmetry_equiv_pos_site_id
 _symmetry_equiv_pos_as_xyz
  1  'x, y, z'
loop_
 _atom_site_type_symbol
 _atom_site_label
 _atom_site_symmetry_multiplicity
 _atom_site_fract_x
 _atom_site_fract_y
 _atom_site_fract_z
 _atom_site_occupancy
  Li  Li0  1  0.30335600  0.61722900  0.06238200  1
  Li  Li1  1  0.82161500  0.63275000  0.56263000  1
  V  V0  1  0.06245700  0.62499200  0.81253900  1
  V  V1  1  0.06246800  0.62497400  0.31249900  1
  V  V2  1  0.56250900  0.62495800  0.81252700  1
  V  V3  1  0.06263500  0.12506800  0.31242200  1
  V  V4  1  0.56261900  0.12502500  0.81250000  1
  V  V5  1  0.56244200  0.62508900  0.31242200  1
  Zn  Zn0  1  0.50339500  0.00409100  0.49216600  1
  Zn  Zn1  1  0.00173200  0.00319700  0.99183700  1
  Zn  Zn2  1  0.62156900  0.24590000  0.13284700  1
  Zn  Zn3  1  0.12321900  0.24677000  0.63317800  1
  O  O0  1  0.17826200  0.37699700  0.42675900  1
  O  O1  1  0.69597100  0.39471200  0.92628100  1
  O  O2  1  0.94677700  0.87301300  0.19826200  1
  O  O3  1  0.42904000  0.85526600  0.69870000  1
  O  O4  1  0.40647300  0.36621300  0.20422400  1
  O  O5  1  0.93066000  0.38919600  0.70444800  1
  O  O6  1  0.71853400  0.88381300  0.42083000  1
  O  O7  1  0.19440400  0.86088500  0.92052100  1
  O  O8  1  0.71707700  0.41244500  0.42099700  1
  O  O9  1  0.20308500  0.40801400  0.92012000  1
  O  O10  1  0.17178300  0.87564900  0.42065400  1
  O  O11  1  0.66585100  0.86150300  0.92093200  1
  O  O12  1  0.95320500  0.37429900  0.20439600  1
  O  O13  1  0.45912000  0.38843400  0.70404100  1
  O  O14  1  0.40786800  0.83756900  0.20402200  1
  O  O15  1  0.92187600  0.84195100  0.70486500  1
loop_
_geom_bond_atom_site_label_1
_geom_bond_atom_site_label_2
_geom_bond_distance
_geom_bond_site_symmetry_2
Li0 O12 2.086816 1_455
Li0 O9 2.097446 1_554
Li0 O7 2.106342 1_554
Li0 O4 2.112115 1_555
Li0 O11 2.132952 1_554
Li0 O14 2.135693 1_555
Li1 O10 2.086690 1_655
Li1 O15 2.097148 1_555
Li1 O5 2.106094 1_555
Li1 O6 2.111949 1_555
Li1 O13 2.132752 1_555
Li1 O8 2.135488 1_555
O0 Zn3 2.007833 1_555
O0 V1 2.028848 1_555
O0 V3 2.033287 1_555
O0 V5 2.107237 1_555
O1 Zn2 2.008480 1_556
O1 V2 2.026778 1_555
O1 V0 2.028562 1_655
O1 V4 2.105500 1_555
O2 Zn1 2.007910 1_664
O2 V1 2.028593 1_655
O2 V3 2.032349 1_665
O2 V5 2.107286 1_555
O3 Zn0 2.008175 1_565
O3 V2 2.027363 1_555
O3 V0 2.029373 1_555
O3 V4 2.105965 1_565
O4 V3 1.909856 1_555
O4 Zn2 1.992050 1_555
O4 V5 2.019039 1_555
O5 V0 1.912793 1_655
O5 Zn3 1.989241 1_655
O5 V4 2.018986 1_555
O6 V3 1.911774 1_665
O6 Zn0 1.991897 1_565
O6 V5 2.020146 1_555
O7 V0 1.912342 1_555
O7 Zn1 1.989448 1_565
O7 V4 2.019597 1_565
O8 V1 1.918036 1_655
O8 Zn0 1.994023 1_555
O8 V5 2.028307 1_555
O9 Zn1 1.976414 1_555
O9 V2 1.976475 1_555
O9 V0 1.978302 1_555
O10 Zn0 1.972785 1_565
O10 V1 1.978790 1_555
O10 V3 1.984627 1_565
O11 V2 1.918979 1_555
O11 Zn1 1.990925 1_665
O11 V4 2.025065 1_565
O12 Zn2 1.973091 1_555
O12 V1 1.978384 1_655
O12 V3 1.984242 1_655
O13 V2 1.919539 1_555
O13 Zn3 1.990803 1_555
O13 V4 2.025754 1_555
O14 V1 1.917973 1_555
O14 Zn2 1.993916 1_565
O14 V5 2.026664 1_555
O15 Zn3 1.976419 1_665
O15 V2 1.976463 1_555
O15 V0 1.978364 1_655
