# generated using pymatgen
data_Ca2TaFeO6
_symmetry_space_group_name_H-M   'P 1'
_cell_length_a   7.81209200
_cell_length_b   5.48028900
_cell_length_c   5.65526217
_cell_angle_alpha   89.65898486
_cell_angle_beta   90.00000000
_cell_angle_gamma   90.00000000
_symmetry_Int_Tables_number   1
_chemical_formula_structural   Ca2TaFeO6
_chemical_formula_sum   'Ca4 Ta2 Fe2 O12'
_cell_volume   242.11174672
_cell_formula_units_Z   2
loop_
 _symmetry_equiv_pos_site_id
 _symmetry_equiv_pos_as_xyz
  1  'x, y, z'
loop_
 _atom_site_type_symbol
 _atom_site_label
 _atom_site_symmetry_multiplicity
 _atom_site_fract_x
 _atom_site_fract_y
 _atom_site_fract_z
 _atom_site_occupancy
  Ca  Ca0  1  0.75000000  0.99119900  0.04205000  1
  Ca  Ca1  1  0.75000000  0.51220200  0.56521400  1
  Ca  Ca2  1  0.25000000  0.48779800  0.43478600  1
  Ca  Ca3  1  0.25000000  0.00880100  0.95795000  1
  Ta  Ta0  1  0.00000000  0.00000000  0.50000000  1
  Ta  Ta1  1  0.50000000  0.00000000  0.50000000  1
  Fe  Fe0  1  0.00000000  0.50000000  0.00000000  1
  Fe  Fe1  1  0.50000000  0.50000000  0.00000000  1
  O  O0  1  0.45118400  0.19629000  0.21099200  1
  O  O1  1  0.54577600  0.70877500  0.30293000  1
  O  O2  1  0.54881600  0.80371000  0.78900800  1
  O  O3  1  0.04577600  0.29122500  0.69707000  1
  O  O4  1  0.25000000  0.90792000  0.52924500  1
  O  O5  1  0.45422400  0.29122500  0.69707000  1
  O  O6  1  0.95422400  0.70877500  0.30293000  1
  O  O7  1  0.04881600  0.19629000  0.21099200  1
  O  O8  1  0.75000000  0.40869900  0.97203400  1
  O  O9  1  0.95118400  0.80371000  0.78900800  1
  O  O10  1  0.25000000  0.59130100  0.02796600  1
  O  O11  1  0.75000000  0.09208000  0.47075500  1
loop_
_geom_bond_atom_site_label_1
_geom_bond_atom_site_label_2
_geom_bond_distance
_geom_bond_site_symmetry_2
Ca0 O8 2.319706 1_564
Ca0 O2 2.364572 1_554
Ca0 O9 2.364572 1_554
Ca0 O11 2.489882 1_565
Ca0 O6 2.662779 1_555
Ca0 O1 2.662779 1_555
Ca0 O0 2.763729 1_565
Ca0 O7 2.763729 1_665
Ca1 O8 2.366286 1_555
Ca1 O11 2.366643 1_555
Ca1 O1 2.426313 1_555
Ca1 O6 2.426313 1_555
Ca1 O9 2.578400 1_555
Ca1 O2 2.578400 1_555
Ca1 O5 2.711247 1_555
Ca1 O3 2.711247 1_655
Ca2 O10 2.366286 1_555
Ca2 O4 2.366643 1_555
Ca2 O5 2.426313 1_555
Ca2 O3 2.426313 1_555
Ca2 O0 2.578400 1_555
Ca2 O7 2.578400 1_555
Ca2 O6 2.711247 1_455
Ca2 O1 2.711247 1_555
Ca3 O10 2.319706 1_546
Ca3 O7 2.364572 1_556
Ca3 O0 2.364572 1_556
Ca3 O4 2.489882 1_545
Ca3 O5 2.662779 1_555
Ca3 O3 2.662779 1_555
Ca3 O2 2.763729 1_545
Ca3 O9 2.763729 1_445
Fe0 O10 2.022526 1_555
Fe0 O8 2.022526 1_454
Fe0 O9 2.077461 1_454
Fe0 O7 2.077461 1_555
Fe0 O6 2.096465 1_455
Fe0 O3 2.096465 1_554
Fe1 O10 2.022526 1_555
Fe1 O8 2.022526 1_554
Fe1 O2 2.077461 1_554
Fe1 O0 2.077461 1_555
Fe1 O5 2.096465 1_554
Fe1 O1 2.096465 1_555
O0 Ta1 1.988217 1_555
O1 Ta1 1.984524 1_565
O2 Ta1 1.988217 1_565
O3 Ta0 1.984524 1_555
O4 Ta1 2.023686 1_565
O4 Ta0 2.023686 1_565
O5 Ta1 1.984524 1_555
O6 Ta0 1.984524 1_665
O7 Ta0 1.988217 1_555
O9 Ta0 1.988217 1_665
O11 Ta0 2.023686 1_655
O11 Ta1 2.023686 1_555
