# generated using pymatgen
data_Hg
_symmetry_space_group_name_H-M   'P 1'
_cell_length_a   10.93339200
_cell_length_b   10.93339374
_cell_length_c   6.37043562
_cell_angle_alpha   90.00000000
_cell_angle_beta   90.00000000
_cell_angle_gamma   120.00000834
_symmetry_Int_Tables_number   1
_chemical_formula_structural   Hg
_chemical_formula_sum   Hg24
_cell_volume   659.49215529
_cell_formula_units_Z   24
loop_
 _symmetry_equiv_pos_site_id
 _symmetry_equiv_pos_as_xyz
  1  'x, y, z'
loop_
 _atom_site_type_symbol
 _atom_site_label
 _atom_site_symmetry_multiplicity
 _atom_site_fract_x
 _atom_site_fract_y
 _atom_site_fract_z
 _atom_site_occupancy
  Hg  Hg0_0  1  0.16666650  0.33333350  0.25000000  1
  Hg  Hg0_1  1  0.16666650  0.33333350  0.75000000  1
  Hg  Hg0_2  1  0.16666650  0.83333350  0.25000000  1
  Hg  Hg0_3  1  0.16666650  0.83333350  0.75000000  1
  Hg  Hg0_4  1  0.66666650  0.33333350  0.25000000  1
  Hg  Hg0_5  1  0.66666650  0.33333350  0.75000000  1
  Hg  Hg0_6  1  0.66666650  0.83333350  0.25000000  1
  Hg  Hg0_7  1  0.66666650  0.83333350  0.75000000  1
  Hg  Hg1_0  1  0.33333350  0.16666650  0.25000000  1
  Hg  Hg1_1  1  0.33333350  0.16666650  0.75000000  1
  Hg  Hg1_2  1  0.33333350  0.66666650  0.25000000  1
  Hg  Hg1_3  1  0.33333350  0.66666650  0.75000000  1
  Hg  Hg1_4  1  0.83333350  0.16666650  0.25000000  1
  Hg  Hg1_5  1  0.83333350  0.16666650  0.75000000  1
  Hg  Hg1_6  1  0.83333350  0.66666650  0.25000000  1
  Hg  Hg1_7  1  0.83333350  0.66666650  0.75000000  1
  Hg  Hg2_0  1  0.00000000  0.00000000  0.00000000  1
  Hg  Hg2_1  1  0.00000000  0.00000000  0.50000000  1
  Hg  Hg2_2  1  1.00000000  0.50000000  0.00000000  1
  Hg  Hg2_3  1  1.00000000  0.50000000  0.50000000  1
  Hg  Hg2_4  1  0.50000000  0.00000000  0.00000000  1
  Hg  Hg2_5  1  0.50000000  0.00000000  0.50000000  1
  Hg  Hg2_6  1  0.50000000  0.50000000  0.00000000  1
  Hg  Hg2_7  1  0.50000000  0.50000000  0.50000000  1
loop_
_geom_bond_atom_site_label_1
_geom_bond_atom_site_label_2
_geom_bond_distance
_geom_bond_site_symmetry_2
Hg0_0 Hg1_4 3.156195 1_455
Hg0_0 Hg1_2 3.156195 1_555
Hg0_0 Hg1_0 3.156205 1_555
Hg0_0 Hg0_1 3.185218 1_554
Hg0_0 Hg0_1 3.185218 1_555
Hg0_1 Hg1_5 3.156195 1_455
Hg0_1 Hg1_3 3.156195 1_555
Hg0_1 Hg1_1 3.156205 1_555
Hg0_2 Hg1_6 3.156195 1_455
Hg0_2 Hg1_0 3.156195 1_565
Hg0_2 Hg1_2 3.156205 1_555
Hg0_2 Hg0_3 3.185218 1_554
Hg0_2 Hg0_3 3.185218 1_555
Hg0_3 Hg1_7 3.156195 1_455
Hg0_3 Hg1_1 3.156195 1_565
Hg0_3 Hg1_3 3.156205 1_555
Hg0_4 Hg1_0 3.156195 1_555
Hg0_4 Hg1_6 3.156195 1_555
Hg0_4 Hg1_4 3.156205 1_555
Hg0_4 Hg0_5 3.185218 1_555
Hg0_4 Hg0_5 3.185218 1_554
Hg0_5 Hg1_1 3.156195 1_555
Hg0_5 Hg1_7 3.156195 1_555
Hg0_5 Hg1_5 3.156205 1_555
Hg0_6 Hg1_2 3.156195 1_555
Hg0_6 Hg1_4 3.156195 1_565
Hg0_6 Hg1_6 3.156205 1_555
Hg0_6 Hg0_7 3.185218 1_555
Hg0_6 Hg0_7 3.185218 1_554
Hg0_7 Hg1_3 3.156195 1_555
Hg0_7 Hg1_5 3.156195 1_565
Hg0_7 Hg1_7 3.156205 1_555
Hg1_0 Hg1_1 3.185218 1_555
Hg1_0 Hg1_1 3.185218 1_554
Hg1_2 Hg1_3 3.185218 1_554
Hg1_2 Hg1_3 3.185218 1_555
Hg1_4 Hg1_5 3.185218 1_555
Hg1_4 Hg1_5 3.185218 1_554
Hg1_6 Hg1_7 3.185218 1_554
Hg1_6 Hg1_7 3.185218 1_555
Hg2_0 Hg2_1 3.185218 1_555
Hg2_0 Hg2_1 3.185218 1_554
Hg2_2 Hg2_3 3.185218 1_555
Hg2_2 Hg2_3 3.185218 1_554
Hg2_4 Hg2_5 3.185218 1_554
Hg2_4 Hg2_5 3.185218 1_555
Hg2_6 Hg2_7 3.185218 1_554
Hg2_6 Hg2_7 3.185218 1_555
