# generated using pymatgen
data_MnB12(H5O12)2
_symmetry_space_group_name_H-M   'P 1'
_cell_length_a   11.85270700
_cell_length_b   8.73187800
_cell_length_c   8.86260448
_cell_angle_alpha   90.00000000
_cell_angle_beta   102.31611860
_cell_angle_gamma   90.00000000
_symmetry_Int_Tables_number   1
_chemical_formula_structural   MnB12(H5O12)2
_chemical_formula_sum   'Mn2 B24 H20 O48'
_cell_volume   896.13768475
_cell_formula_units_Z   2
loop_
 _symmetry_equiv_pos_site_id
 _symmetry_equiv_pos_as_xyz
  1  'x, y, z'
loop_
 _atom_site_type_symbol
 _atom_site_label
 _atom_site_symmetry_multiplicity
 _atom_site_fract_x
 _atom_site_fract_y
 _atom_site_fract_z
 _atom_site_occupancy
  Mn  Mn0  1  0.50000000  0.50000000  0.00000000  1
  Mn  Mn1  1  0.50000000  0.00000000  0.50000000  1
  B  B0  1  0.21634900  0.45136200  0.85861200  1
  B  B1  1  0.78365100  0.95136200  0.64138800  1
  B  B2  1  0.78365100  0.54863800  0.14138800  1
  B  B3  1  0.21634900  0.04863800  0.35861200  1
  B  B4  1  0.15287200  0.59200100  0.60976200  1
  B  B5  1  0.84712800  0.09200100  0.89023800  1
  B  B6  1  0.84712800  0.40799900  0.39023800  1
  B  B7  1  0.15287200  0.90799900  0.10976200  1
  B  B8  1  0.02979200  0.58660400  0.79290500  1
  B  B9  1  0.97020800  0.08660400  0.70709500  1
  B  B10  1  0.97020800  0.41339600  0.20709500  1
  B  B11  1  0.02979200  0.91339600  0.29290500  1
  B  B12  1  0.35084400  0.20127800  0.93527200  1
  B  B13  1  0.64915600  0.70127800  0.56472800  1
  B  B14  1  0.64915600  0.79872200  0.06472800  1
  B  B15  1  0.35084400  0.29872200  0.43527200  1
  B  B16  1  0.47288000  0.25172200  0.74192300  1
  B  B17  1  0.52712000  0.75172200  0.75807700  1
  B  B18  1  0.52712000  0.74827800  0.25807700  1
  B  B19  1  0.47288000  0.24827800  0.24192300  1
  B  B20  1  0.58198500  0.48619000  0.70330100  1
  B  B21  1  0.41801500  0.98619000  0.79669900  1
  B  B22  1  0.41801500  0.51381000  0.29669900  1
  B  B23  1  0.58198500  0.01381000  0.20330100  1
  H  H0  1  0.23818300  0.59198200  0.44120400  1
  H  H1  1  0.76181700  0.09198200  0.05879600  1
  H  H2  1  0.76181700  0.40801800  0.55879600  1
  H  H3  1  0.23818300  0.90801800  0.94120400  1
  H  H4  1  0.91340100  0.58895400  0.92568100  1
  H  H5  1  0.08659900  0.08895400  0.57431900  1
  H  H6  1  0.08659900  0.41104600  0.07431900  1
  H  H7  1  0.91340100  0.91104600  0.42568100  1
  H  H8  1  0.17479700  0.21725700  0.80052700  1
  H  H9  1  0.82520300  0.71725700  0.69947300  1
  H  H10  1  0.82520300  0.78274300  0.19947300  1
  H  H11  1  0.17479700  0.28274300  0.30052700  1
  H  H12  1  0.72031800  0.37223200  0.00198400  1
  H  H13  1  0.27968200  0.87223200  0.49801600  1
  H  H14  1  0.27968200  0.62776800  0.99801600  1
  H  H15  1  0.72031800  0.12776800  0.50198400  1
  H  H16  1  0.31354500  0.12287500  0.14189800  1
  H  H17  1  0.68645500  0.62287500  0.35810200  1
  H  H18  1  0.68645500  0.87712500  0.85810200  1
  H  H19  1  0.31354500  0.37712500  0.64189800  1
  O  O0  1  0.22391100  0.48455700  0.69700000  1
  O  O1  1  0.77608900  0.98455700  0.80300000  1
  O  O2  1  0.77608900  0.51544300  0.30300000  1
  O  O3  1  0.22391100  0.01544300  0.19700000  1
  O  O4  1  0.05610400  0.64395900  0.65860600  1
  O  O5  1  0.94389600  0.14395900  0.84139400  1
  O  O6  1  0.94389600  0.35604100  0.34139400  1
  O  O7  1  0.05610400  0.85604100  0.15860600  1
  O  O8  1  0.10348500  0.48955500  0.88907600  1
  O  O9  1  0.89651500  0.98955500  0.61092400  1
  O  O10  1  0.89651500  0.51044500  0.11092400  1
  O  O11  1  0.10348500  0.01044500  0.38907600  1
  O  O12  1  0.23330900  0.27831200  0.87818800  1
  O  O13  1  0.76669100  0.77831200  0.62181200  1
  O  O14  1  0.76669100  0.72168800  0.12181200  1
  O  O15  1  0.23330900  0.22168800  0.37818800  1
  O  O16  1  0.17580100  0.64880000  0.47529900  1
  O  O17  1  0.82419900  0.14880000  0.02470100  1
  O  O18  1  0.82419900  0.35120000  0.52470100  1
  O  O19  1  0.17580100  0.85120000  0.97529900  1
  O  O20  1  0.92489200  0.62737700  0.82433900  1
  O  O21  1  0.07510800  0.12737700  0.67566100  1
  O  O22  1  0.07510800  0.37262300  0.17566100  1
  O  O23  1  0.92489200  0.87262300  0.32433900  1
  O  O24  1  0.36800400  0.20054600  0.10868300  1
  O  O25  1  0.63199600  0.70054600  0.39131700  1
  O  O26  1  0.63199600  0.79945400  0.89131700  1
  O  O27  1  0.36800400  0.29945400  0.60868300  1
  O  O28  1  0.34181600  0.04416200  0.87998700  1
  O  O29  1  0.65818400  0.54416200  0.62001300  1
  O  O30  1  0.65818400  0.95583800  0.12001300  1
  O  O31  1  0.34181600  0.45583800  0.37998700  1
  O  O32  1  0.44042400  0.28845800  0.88765000  1
  O  O33  1  0.55957600  0.78845800  0.61235000  1
  O  O34  1  0.55957600  0.71154200  0.11235000  1
  O  O35  1  0.44042400  0.21154200  0.38765000  1
  O  O36  1  0.48610600  0.41501400  0.22946400  1
  O  O37  1  0.51389400  0.91501400  0.27053600  1
  O  O38  1  0.51389400  0.58498600  0.77053600  1
  O  O39  1  0.48610600  0.08498600  0.72946400  1
  O  O40  1  0.69179300  0.47125700  0.03079000  1
  O  O41  1  0.30820700  0.97125700  0.46921000  1
  O  O42  1  0.30820700  0.52874300  0.96921000  1
  O  O43  1  0.69179300  0.02874300  0.53079000  1
  O  O44  1  0.57378500  0.33126400  0.71884000  1
  O  O45  1  0.42621500  0.83126400  0.78116000  1
  O  O46  1  0.42621500  0.66873600  0.28116000  1
  O  O47  1  0.57378500  0.16873600  0.21884000  1
loop_
_geom_bond_atom_site_label_1
_geom_bond_atom_site_label_2
_geom_bond_distance
_geom_bond_site_symmetry_2
Mn0 O34 2.145255 1_555
Mn0 O32 2.145255 1_554
Mn0 O36 2.203727 1_555
Mn0 O38 2.203727 1_554
Mn0 O40 2.245118 1_555
Mn0 O42 2.245118 1_554
Mn1 O33 2.145255 1_545
Mn1 O35 2.145255 1_555
Mn1 O39 2.203727 1_555
Mn1 O37 2.203727 1_545
Mn1 O43 2.245118 1_555
Mn1 O41 2.245118 1_545
B0 O8 1.458683 1_555
B0 O42 1.465417 1_555
B0 O0 1.482670 1_555
B0 O12 1.529349 1_555
B1 O9 1.458683 1_555
B1 O43 1.465417 1_565
B1 O1 1.482670 1_555
B1 O13 1.529349 1_555
B2 O10 1.458683 1_555
B2 O40 1.465417 1_555
B2 O2 1.482670 1_555
B2 O14 1.529349 1_555
B3 O11 1.458683 1_555
B3 O41 1.465417 1_545
B3 O3 1.482670 1_555
B3 O15 1.529349 1_555
B4 O16 1.370450 1_555
B4 O0 1.381743 1_555
B4 O4 1.385843 1_555
B5 O17 1.370450 1_556
B5 O1 1.381743 1_545
B5 O5 1.385843 1_555
B6 O18 1.370450 1_555
B6 O2 1.381743 1_555
B6 O6 1.385843 1_555
B7 O19 1.370450 1_554
B7 O3 1.381743 1_565
B7 O7 1.385843 1_555
B8 O8 1.374742 1_555
B8 O20 1.377698 1_455
B8 O4 1.386761 1_555
B9 O9 1.374742 1_545
B9 O21 1.377698 1_655
B9 O5 1.386761 1_555
B10 O10 1.374742 1_555
B10 O22 1.377698 1_655
B10 O6 1.386761 1_555
B11 O11 1.374742 1_565
B11 O23 1.377698 1_455
B11 O7 1.386761 1_555
B12 O32 1.440883 1_555
B12 O28 1.453035 1_555
B12 O24 1.506663 1_556
B12 O12 1.532477 1_555
B13 O33 1.440883 1_555
B13 O29 1.453035 1_555
B13 O25 1.506663 1_555
B13 O13 1.532477 1_555
B14 O34 1.440883 1_555
B14 O30 1.453035 1_555
B14 O26 1.506663 1_554
B14 O14 1.532477 1_555
B15 O35 1.440883 1_555
B15 O31 1.453035 1_555
B15 O27 1.506663 1_555
B15 O15 1.532477 1_555
B16 O44 1.434936 1_555
B16 O32 1.459748 1_555
B16 O39 1.471003 1_555
B16 O27 1.577063 1_555
B17 O45 1.434936 1_555
B17 O33 1.459748 1_555
B17 O38 1.471003 1_555
B17 O26 1.577063 1_555
B18 O46 1.434936 1_555
B18 O34 1.459748 1_555
B18 O37 1.471003 1_555
B18 O25 1.577063 1_555
B19 O47 1.434936 1_555
B19 O35 1.459748 1_555
B19 O36 1.471003 1_555
B19 O24 1.577063 1_555
B20 O44 1.365348 1_555
B20 O29 1.378848 1_555
B20 O38 1.398495 1_555
B21 O45 1.365348 1_555
B21 O28 1.378848 1_565
B21 O39 1.398495 1_565
B22 O46 1.365348 1_555
B22 O31 1.378848 1_555
B22 O36 1.398495 1_555
B23 O47 1.365348 1_555
B23 O30 1.378848 1_545
B23 O37 1.398495 1_545
H0 O16 0.989682 1_555
H1 O17 0.989682 1_555
H2 O18 0.989682 1_555
H3 O19 0.989682 1_555
H4 O20 0.994978 1_555
H5 O21 0.994978 1_555
H6 O22 0.994978 1_555
H7 O23 0.994978 1_555
H8 O12 1.017492 1_555
H8 O21 1.636736 1_555
H9 O13 1.017492 1_555
H9 O20 1.636736 1_555
H10 O14 1.017492 1_555
H10 O23 1.636736 1_555
H11 O15 1.017492 1_555
H11 O22 1.636736 1_555
H12 O40 0.981820 1_555
H13 O41 0.981820 1_555
H14 O42 0.981820 1_555
H15 O43 0.981820 1_555
H16 O24 1.021931 1_555
H16 O3 1.571154 1_555
H17 O25 1.021931 1_555
H17 O2 1.571154 1_555
H18 O26 1.021931 1_555
H18 O1 1.571154 1_555
H19 O27 1.021931 1_555
H19 O0 1.571154 1_555
