# generated using pymatgen
data_Nd6Cd(SiS7)2
_symmetry_space_group_name_H-M   'P 1'
_cell_length_a   10.28209347
_cell_length_b   10.28209347
_cell_length_c   5.72019700
_cell_angle_alpha   90.00000000
_cell_angle_beta   90.00000000
_cell_angle_gamma   119.99999661
_symmetry_Int_Tables_number   1
_chemical_formula_structural   Nd6Cd(SiS7)2
_chemical_formula_sum   'Nd6 Cd1 Si2 S14'
_cell_volume   523.72671520
_cell_formula_units_Z   1
loop_
 _symmetry_equiv_pos_site_id
 _symmetry_equiv_pos_as_xyz
  1  'x, y, z'
loop_
 _atom_site_type_symbol
 _atom_site_label
 _atom_site_symmetry_multiplicity
 _atom_site_fract_x
 _atom_site_fract_y
 _atom_site_fract_z
 _atom_site_occupancy
  Nd  Nd0  1  0.76483000  0.12212200  0.77223500  1
  Nd  Nd1  1  0.35729200  0.23517000  0.77223500  1
  Nd  Nd2  1  0.87787800  0.64270800  0.77223500  1
  Nd  Nd3  1  0.23621700  0.87770600  0.26795100  1
  Nd  Nd4  1  0.64149000  0.76378300  0.26795100  1
  Nd  Nd5  1  0.12229400  0.35851000  0.26795100  1
  Cd  Cd0  1  0.00000000  0.00000000  0.51703400  1
  Si  Si0  1  0.66666700  0.33333300  0.18673200  1
  Si  Si1  1  0.33333300  0.66666700  0.68104200  1
  S  S0  1  0.83056900  0.08799600  0.28644700  1
  S  S1  1  0.25742700  0.16943100  0.28644700  1
  S  S2  1  0.91200400  0.74257300  0.28644700  1
  S  S3  1  0.16973900  0.91486600  0.77631000  1
  S  S4  1  0.74512700  0.83026100  0.77631000  1
  S  S5  1  0.08513400  0.25487300  0.77631000  1
  S  S6  1  0.66666700  0.33333300  0.55452000  1
  S  S7  1  0.33333300  0.66666700  0.04967600  1
  S  S8  1  0.88524500  0.40855400  0.04018600  1
  S  S9  1  0.52330900  0.11475500  0.04018600  1
  S  S10  1  0.59144600  0.47669100  0.04018600  1
  S  S11  1  0.11462400  0.59178700  0.53653700  1
  S  S12  1  0.47716200  0.88537600  0.53653700  1
  S  S13  1  0.40821300  0.52283800  0.53653700  1
loop_
_geom_bond_atom_site_label_1
_geom_bond_atom_site_label_2
_geom_bond_distance
_geom_bond_site_symmetry_2
Nd0 S5 2.866141 1_655
Nd0 S9 2.886847 1_556
Nd0 S4 2.905045 1_545
Nd0 S0 2.922145 1_555
Nd0 S8 2.984884 1_556
Nd0 S12 3.048273 1_545
Nd0 S0 3.077171 1_556
Nd0 S6 3.078613 1_555
Nd1 S3 2.866141 1_545
Nd1 S10 2.886847 1_556
Nd1 S5 2.905044 1_555
Nd1 S1 2.922145 1_555
Nd1 S9 2.984884 1_556
Nd1 S13 3.048276 1_555
Nd1 S1 3.077171 1_556
Nd1 S6 3.078622 1_555
Nd2 S4 2.866141 1_555
Nd2 S8 2.886847 1_556
Nd2 S3 2.905045 1_655
Nd2 S2 2.922145 1_555
Nd2 S10 2.984884 1_556
Nd2 S11 3.048267 1_655
Nd2 S2 3.077171 1_556
Nd2 S6 3.078620 1_555
Nd3 S12 2.882510 1_555
Nd3 S1 2.898597 1_565
Nd3 S2 2.902193 1_455
Nd3 S3 2.963665 1_554
Nd3 S11 2.981728 1_555
Nd3 S9 3.026064 1_565
Nd3 S3 3.054559 1_555
Nd3 S7 3.071060 1_555
Nd4 S13 2.882518 1_555
Nd4 S2 2.898587 1_555
Nd4 S0 2.902192 1_565
Nd4 S4 2.963662 1_554
Nd4 S12 2.981744 1_555
Nd4 S10 3.026061 1_555
Nd4 S4 3.054557 1_555
Nd4 S7 3.071078 1_555
Nd5 S11 2.882527 1_555
Nd5 S0 2.898593 1_455
Nd5 S1 2.902183 1_555
Nd5 S5 2.963662 1_554
Nd5 S13 2.981730 1_555
Nd5 S8 3.026070 1_455
Nd5 S5 3.054556 1_555
Nd5 S7 3.071074 1_555
Cd0 S0 2.677603 1_455
Cd0 S2 2.677603 1_445
Cd0 S1 2.677604 1_555
Cd0 S3 2.745828 1_545
Cd0 S5 2.745828 1_555
Cd0 S4 2.745828 1_445
S6 Si0 2.103820 1_555
S7 Si1 2.108659 1_554
S8 Si0 2.147939 1_555
S9 Si0 2.147941 1_555
S10 Si0 2.147948 1_555
S11 Si1 2.145155 1_555
S12 Si1 2.145156 1_555
S13 Si1 2.145155 1_555
