# generated using pymatgen
data_Sm2Ge5Rh3
_symmetry_space_group_name_H-M   'P 1'
_cell_length_a   8.42239587
_cell_length_b   8.42239587
_cell_length_c   5.98834651
_cell_angle_alpha   70.16086336
_cell_angle_beta   70.16086336
_cell_angle_gamma   92.66519349
_symmetry_Int_Tables_number   1
_chemical_formula_structural   Sm2Ge5Rh3
_chemical_formula_sum   'Sm4 Ge10 Rh6'
_cell_volume   369.53840760
_cell_formula_units_Z   2
loop_
 _symmetry_equiv_pos_site_id
 _symmetry_equiv_pos_as_xyz
  1  'x, y, z'
loop_
 _atom_site_type_symbol
 _atom_site_label
 _atom_site_symmetry_multiplicity
 _atom_site_fract_x
 _atom_site_fract_y
 _atom_site_fract_z
 _atom_site_occupancy
  Sm  Sm0  1  0.86679900  0.59430200  0.76712100  1
  Sm  Sm1  1  0.40569800  0.13320100  0.73287900  1
  Sm  Sm2  1  0.13320100  0.40569800  0.23287900  1
  Sm  Sm3  1  0.59430200  0.86679900  0.26712100  1
  Ge  Ge0  1  0.06855100  0.26257600  0.83352200  1
  Ge  Ge1  1  0.73742400  0.93144900  0.66647800  1
  Ge  Ge2  1  0.93144900  0.73742400  0.16647800  1
  Ge  Ge3  1  0.26257600  0.06855100  0.33352200  1
  Ge  Ge4  1  0.21352500  0.78647500  0.75000000  1
  Ge  Ge5  1  0.78647500  0.21352500  0.25000000  1
  Ge  Ge6  1  0.50687800  0.49312200  0.75000000  1
  Ge  Ge7  1  0.49312200  0.50687800  0.25000000  1
  Ge  Ge8  1  0.77741000  0.22259000  0.75000000  1
  Ge  Ge9  1  0.22259000  0.77741000  0.25000000  1
  Rh  Rh0  1  0.25694600  0.54006500  0.61556600  1
  Rh  Rh1  1  0.45993500  0.74305400  0.88443400  1
  Rh  Rh2  1  0.74305400  0.45993500  0.38443400  1
  Rh  Rh3  1  0.54006500  0.25694600  0.11556600  1
  Rh  Rh4  1  0.00145100  0.99854900  0.75000000  1
  Rh  Rh5  1  0.99854900  0.00145100  0.25000000  1
loop_
_geom_bond_atom_site_label_1
_geom_bond_atom_site_label_2
_geom_bond_distance
_geom_bond_site_symmetry_2
Ge0 Rh0 2.421223 1_555
Ge0 Rh4 2.518826 1_545
Ge0 Rh5 2.561818 1_456
Ge0 Ge5 2.687487 1_456
Ge0 Ge8 2.691912 1_455
Ge0 Sm1 3.030791 1_555
Ge0 Sm2 3.201298 1_556
Ge0 Sm2 3.217699 1_555
Ge0 Sm0 3.316264 1_455
Ge1 Rh1 2.421223 1_555
Ge1 Rh4 2.518826 1_655
Ge1 Rh5 2.561818 1_565
Ge1 Ge5 2.687487 1_565
Ge1 Ge8 2.691912 1_565
Ge1 Sm0 3.030791 1_555
Ge1 Sm3 3.201298 1_555
Ge1 Sm3 3.217699 1_556
Ge1 Sm1 3.316264 1_565
Ge2 Rh2 2.421223 1_555
Ge2 Rh5 2.518826 1_565
Ge2 Rh4 2.561818 1_654
Ge2 Ge4 2.687487 1_654
Ge2 Ge9 2.691912 1_655
Ge2 Sm3 3.030791 1_555
Ge2 Sm0 3.201298 1_554
Ge2 Sm0 3.217699 1_555
Ge2 Sm2 3.316264 1_655
Ge3 Rh3 2.421223 1_555
Ge3 Rh5 2.518826 1_455
Ge3 Rh4 2.561818 1_545
Ge3 Ge4 2.687487 1_545
Ge3 Ge9 2.691912 1_545
Ge3 Sm2 3.030791 1_555
Ge3 Sm1 3.201298 1_555
Ge3 Sm1 3.217699 1_554
Ge3 Sm3 3.316264 1_545
Ge4 Rh0 2.468551 1_555
Ge4 Rh1 2.468551 1_555
Ge4 Rh4 2.584090 1_555
Ge5 Rh3 2.468551 1_555
Ge5 Rh2 2.468551 1_555
Ge5 Rh5 2.584090 1_555
Ge6 Rh0 2.499429 1_555
Ge6 Rh1 2.499429 1_555
Ge6 Rh3 2.517651 1_556
Ge6 Rh2 2.517651 1_555
Ge6 Sm0 3.155330 1_555
Ge6 Sm1 3.155330 1_555
Ge6 Sm3 3.312258 1_555
Ge6 Sm2 3.312258 1_556
Ge7 Rh3 2.499429 1_555
Ge7 Rh2 2.499429 1_555
Ge7 Rh0 2.517651 1_555
Ge7 Rh1 2.517651 1_554
Ge7 Sm2 3.155330 1_555
Ge7 Sm3 3.155330 1_555
Ge7 Sm1 3.312258 1_555
Ge7 Sm0 3.312258 1_554
Ge8 Rh3 2.526959 1_556
Ge8 Rh2 2.526959 1_555
Ge8 Rh4 2.729906 1_645
Ge8 Sm0 3.229505 1_555
Ge8 Sm1 3.229505 1_555
Ge8 Sm2 3.313249 1_655
Ge8 Sm3 3.313249 1_546
Ge9 Rh0 2.526959 1_555
Ge9 Rh1 2.526959 1_554
Ge9 Rh5 2.729906 1_465
Ge9 Sm3 3.229505 1_555
Ge9 Sm2 3.229505 1_555
Ge9 Sm1 3.313249 1_564
Ge9 Sm0 3.313249 1_455
