# generated using pymatgen
data_LaMn2BiO6
_symmetry_space_group_name_H-M   'P 1'
_cell_length_a   5.54987500
_cell_length_b   5.91417000
_cell_length_c   7.72354900
_cell_angle_alpha   89.99998290
_cell_angle_beta   90.00181674
_cell_angle_gamma   89.99939965
_symmetry_Int_Tables_number   1
_chemical_formula_structural   LaMn2BiO6
_chemical_formula_sum   'La2 Mn4 Bi2 O12'
_cell_volume   253.50930906
_cell_formula_units_Z   2
loop_
 _symmetry_equiv_pos_site_id
 _symmetry_equiv_pos_as_xyz
  1  'x, y, z'
loop_
 _atom_site_type_symbol
 _atom_site_label
 _atom_site_symmetry_multiplicity
 _atom_site_fract_x
 _atom_site_fract_y
 _atom_site_fract_z
 _atom_site_occupancy
  La  La0  1  0.48762900  0.43882000  0.75001300  1
  La  La1  1  0.01238200  0.93885000  0.74998600  1
  Mn  Mn0  1  0.00158700  0.49973700  0.00160800  1
  Mn  Mn1  1  0.49840500  0.99970600  0.49841000  1
  Mn  Mn2  1  0.00157100  0.49974300  0.49839500  1
  Mn  Mn3  1  0.49840000  0.99971000  0.00159200  1
  Bi  Bi0  1  0.51172800  0.56779400  0.24998800  1
  Bi  Bi1  1  0.98826700  0.06783400  0.25001100  1
  O  O0  1  0.28371000  0.68560800  0.54446700  1
  O  O1  1  0.21629500  0.18560800  0.95552900  1
  O  O2  1  0.71372900  0.31674800  0.04571600  1
  O  O3  1  0.78628000  0.81674000  0.45427700  1
  O  O4  1  0.71376300  0.31678700  0.45427800  1
  O  O5  1  0.78625300  0.81678000  0.04572700  1
  O  O6  1  0.28377400  0.68565600  0.95554500  1
  O  O7  1  0.21622000  0.18565900  0.54445300  1
  O  O8  1  0.40100800  0.96795900  0.25003100  1
  O  O9  1  0.09899000  0.46796100  0.24997200  1
  O  O10  1  0.58614900  0.02114700  0.74995700  1
  O  O11  1  0.91386200  0.52115700  0.75004500  1
loop_
_geom_bond_atom_site_label_1
_geom_bond_atom_site_label_2
_geom_bond_distance
_geom_bond_site_symmetry_2
La0 O11 2.415146 1_555
La0 O6 2.435392 1_555
La0 O0 2.435411 1_555
La0 O10 2.529974 1_555
La0 O1 2.651420 1_555
La0 O7 2.651633 1_555
La0 O2 2.704015 1_556
La0 O4 2.704318 1_555
La1 O10 2.415088 1_465
La1 O7 2.435272 1_565
La1 O1 2.435288 1_565
La1 O11 2.530101 1_455
La1 O0 2.651497 1_555
La1 O6 2.651666 1_555
La1 O3 2.704127 1_455
La1 O5 2.704409 1_456
Mn0 O6 1.946367 1_554
Mn0 O2 1.959488 1_455
Mn0 O9 2.001789 1_555
Mn0 O11 2.007016 1_454
Mn0 O1 2.235626 1_554
Mn0 O5 2.249467 1_455
Mn1 O7 1.946425 1_565
Mn1 O3 1.959505 1_555
Mn1 O8 2.001876 1_555
Mn1 O10 2.006930 1_565
Mn1 O0 2.235429 1_555
Mn1 O4 2.249761 1_565
Mn2 O0 1.945967 1_555
Mn2 O4 1.959149 1_455
Mn2 O9 2.002286 1_555
Mn2 O11 2.007672 1_455
Mn2 O7 2.235192 1_555
Mn2 O3 2.249100 1_455
Mn3 O1 1.945894 1_564
Mn3 O5 1.959273 1_555
Mn3 O8 2.002348 1_555
Mn3 O10 2.007623 1_564
Mn3 O6 2.234984 1_554
Mn3 O2 2.249442 1_565
Bi0 O9 2.365520 1_555
Bi0 O4 2.439349 1_555
Bi0 O2 2.439359 1_555
Bi0 O8 2.445110 1_555
Bi0 O5 2.641736 1_555
Bi0 O3 2.641762 1_555
Bi0 O6 2.694056 1_554
Bi0 O0 2.694452 1_555
Bi1 O8 2.365586 1_645
Bi1 O5 2.439449 1_545
Bi1 O3 2.439480 1_545
Bi1 O9 2.444909 1_655
Bi1 O4 2.641570 1_555
Bi1 O2 2.641621 1_555
Bi1 O7 2.693998 1_655
Bi1 O1 2.694443 1_654
