# generated using pymatgen
data_MnAl2Cr3
_symmetry_space_group_name_H-M   'P 1'
_cell_length_a   3.05270407
_cell_length_b   3.05270407
_cell_length_c   8.81107195
_cell_angle_alpha   90.00000000
_cell_angle_beta   90.00000000
_cell_angle_gamma   90.00000000
_symmetry_Int_Tables_number   1
_chemical_formula_structural   MnAl2Cr3
_chemical_formula_sum   'Mn1 Al2 Cr3'
_cell_volume   82.11039835
_cell_formula_units_Z   1
loop_
 _symmetry_equiv_pos_site_id
 _symmetry_equiv_pos_as_xyz
  1  'x, y, z'
loop_
 _atom_site_type_symbol
 _atom_site_label
 _atom_site_symmetry_multiplicity
 _atom_site_fract_x
 _atom_site_fract_y
 _atom_site_fract_z
 _atom_site_occupancy
  Mn  Mn0  1  0.50000000  0.50000000  0.17133546  1
  Al  Al0  1  -0.00000000  -0.00000000  -0.00005673  1
  Al  Al1  1  0.50000000  0.50000000  0.50157748  1
  Cr  Cr0  1  -0.00000000  0.00000000  0.67469241  1
  Cr  Cr1  1  -0.00000000  -0.00000000  0.32746966  1
  Cr  Cr2  1  0.50000000  0.50000000  0.82498174  1
loop_
_geom_bond_atom_site_label_1
_geom_bond_atom_site_label_2
_geom_bond_distance
_geom_bond_site_symmetry_2
Al0 Mn0 2.634398 1_545
Al0 Mn0 2.634398 1_455
Al0 Mn0 2.634398 1_555
Al0 Mn0 2.634398 1_445
Al0 Cr2 2.652551 1_544
Al0 Cr2 2.652551 1_444
Al0 Cr2 2.652551 1_454
Al0 Cr2 2.652551 1_554
Al0 Cr0 2.865809 1_554
Al1 Cr0 2.643128 1_565
Al1 Cr0 2.643128 1_655
Al1 Cr0 2.643128 1_555
Al1 Cr0 2.643128 1_665
Al1 Cr1 2.648187 1_565
Al1 Cr1 2.648187 1_655
Al1 Cr1 2.648187 1_665
Al1 Cr1 2.648187 1_555
Cr0 Cr2 2.532397 1_455
Cr0 Cr2 2.532397 1_555
Cr0 Cr2 2.532397 1_445
Cr0 Cr2 2.532397 1_545
Cr1 Mn0 2.559703 1_555
Cr1 Mn0 2.559703 1_445
Cr1 Mn0 2.559703 1_545
Cr1 Mn0 2.559703 1_455
