# generated using pymatgen
data_HgPt3
_symmetry_space_group_name_H-M   'P 1'
_cell_length_a   5.85917796
_cell_length_b   5.85917796
_cell_length_c   15.81127249
_cell_angle_alpha   90.00000000
_cell_angle_beta   90.00000000
_cell_angle_gamma   89.83056141
_symmetry_Int_Tables_number   1
_chemical_formula_structural   HgPt3
_chemical_formula_sum   'Hg8 Pt24'
_cell_volume   542.79807984
_cell_formula_units_Z   8
loop_
 _symmetry_equiv_pos_site_id
 _symmetry_equiv_pos_as_xyz
  1  'x, y, z'
loop_
 _atom_site_type_symbol
 _atom_site_label
 _atom_site_symmetry_multiplicity
 _atom_site_fract_x
 _atom_site_fract_y
 _atom_site_fract_z
 _atom_site_occupancy
  Hg  Hg0_0  1  0.00000000  0.00000000  0.00000000  1
  Hg  Hg0_1  1  0.00000000  0.00000000  0.50000000  1
  Hg  Hg0_2  1  0.00000000  0.50000000  0.00000000  1
  Hg  Hg0_3  1  1.00000000  0.50000000  0.50000000  1
  Hg  Hg0_4  1  0.50000000  0.00000000  0.00000000  1
  Hg  Hg0_5  1  0.50000000  1.00000000  0.50000000  1
  Hg  Hg0_6  1  0.50000000  0.50000000  0.00000000  1
  Hg  Hg0_7  1  0.50000000  0.50000000  0.50000000  1
  Pt  Pt0_0  1  0.25000000  0.25000000  0.13180100  1
  Pt  Pt0_1  1  0.25000000  0.25000000  0.63180100  1
  Pt  Pt0_2  1  0.25000000  0.75000000  0.13180100  1
  Pt  Pt0_3  1  0.25000000  0.75000000  0.63180100  1
  Pt  Pt0_4  1  0.75000000  0.25000000  0.13180100  1
  Pt  Pt0_5  1  0.75000000  0.25000000  0.63180100  1
  Pt  Pt0_6  1  0.75000000  0.75000000  0.13180100  1
  Pt  Pt0_7  1  0.75000000  0.75000000  0.63180100  1
  Pt  Pt1_0  1  0.00000000  0.00000000  0.25000000  1
  Pt  Pt1_1  1  0.00000000  0.00000000  0.75000000  1
  Pt  Pt1_2  1  0.00000000  0.50000000  0.25000000  1
  Pt  Pt1_3  1  1.00000000  0.50000000  0.75000000  1
  Pt  Pt1_4  1  0.50000000  0.00000000  0.25000000  1
  Pt  Pt1_5  1  0.50000000  1.00000000  0.75000000  1
  Pt  Pt1_6  1  0.50000000  0.50000000  0.25000000  1
  Pt  Pt1_7  1  0.50000000  0.50000000  0.75000000  1
  Pt  Pt2_0  1  0.25000000  0.25000000  0.36819900  1
  Pt  Pt2_1  1  0.25000000  0.25000000  0.86819900  1
  Pt  Pt2_2  1  0.25000000  0.75000000  0.36819900  1
  Pt  Pt2_3  1  0.25000000  0.75000000  0.86819900  1
  Pt  Pt2_4  1  0.75000000  0.25000000  0.36819900  1
  Pt  Pt2_5  1  0.75000000  0.25000000  0.86819900  1
  Pt  Pt2_6  1  0.75000000  0.75000000  0.36819900  1
  Pt  Pt2_7  1  0.75000000  0.75000000  0.86819900  1
loop_
_geom_bond_atom_site_label_1
_geom_bond_atom_site_label_2
_geom_bond_distance
_geom_bond_site_symmetry_2
Hg0_0 Hg0_4 2.929589 1_455
Hg0_0 Hg0_2 2.929589 1_555
Hg0_0 Hg0_4 2.929589 1_555
Hg0_0 Hg0_2 2.929589 1_545
Hg0_0 Pt2_3 2.936217 1_544
Hg0_0 Pt2_5 2.936217 1_454
Hg0_0 Pt0_4 2.936217 1_455
Hg0_0 Pt0_2 2.936217 1_545
Hg0_0 Pt2_1 2.940535 1_554
Hg0_0 Pt2_7 2.940535 1_444
Hg0_0 Pt0_0 2.940535 1_555
Hg0_0 Pt0_6 2.940535 1_445
Hg0_1 Hg0_5 2.929589 1_445
Hg0_1 Hg0_3 2.929589 1_455
Hg0_1 Hg0_3 2.929589 1_445
Hg0_1 Hg0_5 2.929589 1_545
Hg0_1 Pt2_4 2.936217 1_455
Hg0_1 Pt2_2 2.936217 1_545
Hg0_1 Pt0_5 2.936217 1_455
Hg0_1 Pt0_3 2.936217 1_545
Hg0_1 Pt2_0 2.940535 1_555
Hg0_1 Pt2_6 2.940535 1_445
Hg0_1 Pt0_1 2.940535 1_555
Hg0_1 Pt0_7 2.940535 1_445
Hg0_2 Hg0_6 2.929589 1_455
Hg0_2 Hg0_6 2.929589 1_555
Hg0_2 Pt0_0 2.936217 1_555
Hg0_2 Pt2_7 2.936217 1_454
Hg0_2 Pt2_1 2.936217 1_554
Hg0_2 Pt0_6 2.936217 1_455
Hg0_2 Pt2_5 2.940535 1_454
Hg0_2 Pt2_3 2.940535 1_554
Hg0_2 Pt0_4 2.940535 1_455
Hg0_2 Pt0_2 2.940535 1_555
Hg0_3 Hg0_7 2.929589 1_555
Hg0_3 Hg0_7 2.929589 1_655
Hg0_3 Pt2_6 2.936217 1_555
Hg0_3 Pt0_7 2.936217 1_555
Hg0_3 Pt2_0 2.936217 1_655
Hg0_3 Pt0_1 2.936217 1_655
Hg0_3 Pt2_4 2.940535 1_555
Hg0_3 Pt0_5 2.940535 1_555
Hg0_3 Pt2_2 2.940535 1_655
Hg0_3 Pt0_3 2.940535 1_655
Hg0_4 Hg0_6 2.929589 1_555
Hg0_4 Hg0_6 2.929589 1_545
Hg0_4 Pt2_1 2.936217 1_554
Hg0_4 Pt0_6 2.936217 1_545
Hg0_4 Pt2_7 2.936217 1_544
Hg0_4 Pt0_0 2.936217 1_555
Hg0_4 Pt2_5 2.940535 1_554
Hg0_4 Pt0_4 2.940535 1_555
Hg0_4 Pt2_3 2.940535 1_544
Hg0_4 Pt0_2 2.940535 1_545
Hg0_5 Hg0_7 2.929589 1_555
Hg0_5 Hg0_7 2.929589 1_565
Hg0_5 Pt2_6 2.936217 1_555
Hg0_5 Pt0_7 2.936217 1_555
Hg0_5 Pt2_0 2.936217 1_565
Hg0_5 Pt0_1 2.936217 1_565
Hg0_5 Pt2_2 2.940535 1_555
Hg0_5 Pt2_4 2.940535 1_565
Hg0_5 Pt0_5 2.940535 1_565
Hg0_5 Pt0_3 2.940535 1_555
Hg0_6 Pt2_5 2.936217 1_554
Hg0_6 Pt2_3 2.936217 1_554
Hg0_6 Pt0_4 2.936217 1_555
Hg0_6 Pt0_2 2.936217 1_555
Hg0_6 Pt2_1 2.940535 1_554
Hg0_6 Pt2_7 2.940535 1_554
Hg0_6 Pt0_0 2.940535 1_555
Hg0_6 Pt0_6 2.940535 1_555
Hg0_7 Pt2_4 2.936217 1_555
Hg0_7 Pt0_5 2.936217 1_555
Hg0_7 Pt2_2 2.936217 1_555
Hg0_7 Pt0_3 2.936217 1_555
Hg0_7 Pt2_0 2.940535 1_555
Hg0_7 Pt2_6 2.940535 1_555
Hg0_7 Pt0_1 2.940535 1_555
Hg0_7 Pt0_7 2.940535 1_555
Pt0_0 Pt1_2 2.787697 1_555
Pt0_0 Pt1_4 2.787697 1_555
Pt0_0 Pt1_0 2.792246 1_555
Pt0_0 Pt1_6 2.792246 1_555
Pt0_0 Pt0_2 2.929589 1_555
Pt0_0 Pt0_4 2.929589 1_555
Pt0_0 Pt0_4 2.929589 1_455
Pt0_0 Pt0_2 2.929589 1_545
Pt0_1 Pt1_3 2.787697 1_455
Pt0_1 Pt1_5 2.787697 1_545
Pt0_1 Pt1_7 2.792246 1_555
Pt0_1 Pt1_1 2.792246 1_555
Pt0_1 Pt0_3 2.929589 1_545
Pt0_1 Pt0_3 2.929589 1_555
Pt0_1 Pt0_5 2.929589 1_555
Pt0_1 Pt0_5 2.929589 1_455
Pt0_2 Pt1_6 2.787697 1_555
Pt0_2 Pt1_0 2.787697 1_565
Pt0_2 Pt1_2 2.792246 1_555
Pt0_2 Pt1_4 2.792246 1_565
Pt0_2 Pt0_6 2.929589 1_555
Pt0_2 Pt0_6 2.929589 1_455
Pt0_3 Pt1_7 2.787697 1_555
Pt0_3 Pt1_1 2.787697 1_565
Pt0_3 Pt1_5 2.792246 1_555
Pt0_3 Pt1_3 2.792246 1_455
Pt0_3 Pt0_7 2.929589 1_455
Pt0_3 Pt0_7 2.929589 1_555
Pt0_4 Pt1_6 2.787697 1_555
Pt0_4 Pt1_0 2.787697 1_655
Pt0_4 Pt1_4 2.792246 1_555
Pt0_4 Pt1_2 2.792246 1_655
Pt0_4 Pt0_6 2.929589 1_545
Pt0_4 Pt0_6 2.929589 1_555
Pt0_5 Pt1_1 2.787697 1_655
Pt0_5 Pt1_7 2.787697 1_555
Pt0_5 Pt1_5 2.792246 1_545
Pt0_5 Pt1_3 2.792246 1_555
Pt0_5 Pt0_7 2.929589 1_545
Pt0_5 Pt0_7 2.929589 1_555
Pt0_6 Pt1_4 2.787697 1_565
Pt0_6 Pt1_2 2.787697 1_655
Pt0_6 Pt1_0 2.792246 1_665
Pt0_6 Pt1_6 2.792246 1_555
Pt0_7 Pt1_5 2.787697 1_555
Pt0_7 Pt1_3 2.787697 1_555
Pt0_7 Pt1_1 2.792246 1_665
Pt0_7 Pt1_7 2.792246 1_555
Pt1_0 Pt2_4 2.787697 1_455
Pt1_0 Pt2_2 2.787697 1_545
Pt1_0 Pt2_0 2.792246 1_555
Pt1_0 Pt2_6 2.792246 1_445
Pt1_0 Pt1_4 2.929589 1_555
Pt1_0 Pt1_2 2.929589 1_555
Pt1_0 Pt1_4 2.929589 1_455
Pt1_0 Pt1_2 2.929589 1_545
Pt1_1 Pt2_5 2.787697 1_455
Pt1_1 Pt2_3 2.787697 1_545
Pt1_1 Pt2_1 2.792246 1_555
Pt1_1 Pt2_7 2.792246 1_445
Pt1_1 Pt1_5 2.929589 1_445
Pt1_1 Pt1_3 2.929589 1_445
Pt1_1 Pt1_3 2.929589 1_455
Pt1_1 Pt1_5 2.929589 1_545
Pt1_2 Pt2_0 2.787697 1_555
Pt1_2 Pt2_6 2.787697 1_455
Pt1_2 Pt2_2 2.792246 1_555
Pt1_2 Pt2_4 2.792246 1_455
Pt1_2 Pt1_6 2.929589 1_455
Pt1_2 Pt1_6 2.929589 1_555
Pt1_3 Pt2_7 2.787697 1_555
Pt1_3 Pt2_1 2.787697 1_655
Pt1_3 Pt2_5 2.792246 1_555
Pt1_3 Pt2_3 2.792246 1_655
Pt1_3 Pt1_7 2.929589 1_555
Pt1_3 Pt1_7 2.929589 1_655
Pt1_4 Pt2_6 2.787697 1_545
Pt1_4 Pt2_0 2.787697 1_555
Pt1_4 Pt2_4 2.792246 1_555
Pt1_4 Pt2_2 2.792246 1_545
Pt1_4 Pt1_6 2.929589 1_545
Pt1_4 Pt1_6 2.929589 1_555
Pt1_5 Pt2_7 2.787697 1_555
Pt1_5 Pt2_1 2.787697 1_565
Pt1_5 Pt2_5 2.792246 1_565
Pt1_5 Pt2_3 2.792246 1_555
Pt1_5 Pt1_7 2.929589 1_555
Pt1_5 Pt1_7 2.929589 1_565
Pt1_6 Pt2_2 2.787697 1_555
Pt1_6 Pt2_4 2.787697 1_555
Pt1_6 Pt2_6 2.792246 1_555
Pt1_6 Pt2_0 2.792246 1_555
Pt1_7 Pt2_3 2.787697 1_555
Pt1_7 Pt2_5 2.787697 1_555
Pt1_7 Pt2_1 2.792246 1_555
Pt1_7 Pt2_7 2.792246 1_555
Pt2_0 Pt2_2 2.929589 1_555
Pt2_0 Pt2_2 2.929589 1_545
Pt2_0 Pt2_4 2.929589 1_555
Pt2_0 Pt2_4 2.929589 1_455
Pt2_1 Pt2_5 2.929589 1_555
Pt2_1 Pt2_3 2.929589 1_555
Pt2_1 Pt2_3 2.929589 1_545
Pt2_1 Pt2_5 2.929589 1_455
Pt2_2 Pt2_6 2.929589 1_555
Pt2_2 Pt2_6 2.929589 1_455
Pt2_3 Pt2_7 2.929589 1_455
Pt2_3 Pt2_7 2.929589 1_555
Pt2_4 Pt2_6 2.929589 1_545
Pt2_4 Pt2_6 2.929589 1_555
Pt2_5 Pt2_7 2.929589 1_555
Pt2_5 Pt2_7 2.929589 1_545
