# generated using pymatgen
data_ZnNiF4
_symmetry_space_group_name_H-M   'P 1'
_cell_length_a   5.09345300
_cell_length_b   5.12046176
_cell_length_c   6.16875231
_cell_angle_alpha   113.81648612
_cell_angle_beta   113.82412203
_cell_angle_gamma   90.08593595
_symmetry_Int_Tables_number   1
_chemical_formula_structural   ZnNiF4
_chemical_formula_sum   'Zn2 Ni2 F8'
_cell_volume   132.01369089
_cell_formula_units_Z   2
loop_
 _symmetry_equiv_pos_site_id
 _symmetry_equiv_pos_as_xyz
  1  'x, y, z'
loop_
 _atom_site_type_symbol
 _atom_site_label
 _atom_site_symmetry_multiplicity
 _atom_site_fract_x
 _atom_site_fract_y
 _atom_site_fract_z
 _atom_site_occupancy
  Zn  Zn0  1  0.74961100  0.75178600  0.49973700  1
  Zn  Zn1  1  0.25038900  0.24821400  0.50026300  1
  Ni  Ni0  1  0.00000000  0.50000000  0.00000000  1
  Ni  Ni1  1  0.50000000  0.00000000  0.00000000  1
  F  F0  1  0.07300300  0.16361600  0.73873200  1
  F  F1  1  0.33941700  0.43420700  0.25662400  1
  F  F2  1  0.92699700  0.83638400  0.26126800  1
  F  F3  1  0.84004500  0.33601300  0.25630600  1
  F  F4  1  0.66058300  0.56579300  0.74337600  1
  F  F5  1  0.57195700  0.06872000  0.73792300  1
  F  F6  1  0.15995500  0.66398700  0.74369400  1
  F  F7  1  0.42804300  0.93128000  0.26207700  1
loop_
_geom_bond_atom_site_label_1
_geom_bond_atom_site_label_2
_geom_bond_distance
_geom_bond_site_symmetry_2
F0 Ni0 1.986633 1_556
F0 Zn1 2.180637 1_555
F0 Zn0 2.202394 1_445
F1 Ni0 1.956995 1_555
F1 Zn0 2.178900 1_555
F1 Zn1 2.253168 1_555
F2 Ni0 1.986633 1_655
F2 Zn0 2.180637 1_555
F2 Zn1 2.202394 1_665
F3 Ni1 2.010405 1_555
F3 Zn1 2.200786 1_655
F3 Zn0 2.231459 1_555
F3 Ni0 2.445301 1_655
F4 Ni0 1.956995 1_656
F4 Zn1 2.178900 1_555
F4 Zn0 2.253168 1_555
F5 Ni1 1.951809 1_556
F5 Zn0 2.182671 1_545
F5 Zn1 2.197641 1_555
F6 Ni1 2.010405 1_566
F6 Zn0 2.200786 1_455
F6 Zn1 2.231459 1_555
F6 Ni0 2.445301 1_556
F7 Ni1 1.951809 1_565
F7 Zn1 2.182671 1_565
F7 Zn0 2.197641 1_555
