# generated using pymatgen
data_Te2MoW2(SeS)2
_symmetry_space_group_name_H-M   'P 1'
_cell_length_a   3.34554169
_cell_length_b   3.34554169
_cell_length_c   31.00379000
_cell_angle_alpha   90.00000000
_cell_angle_beta   90.00000000
_cell_angle_gamma   119.99999381
_symmetry_Int_Tables_number   1
_chemical_formula_structural   Te2MoW2(SeS)2
_chemical_formula_sum   'Te2 Mo1 W2 Se2 S2'
_cell_volume   300.52342994
_cell_formula_units_Z   1
loop_
 _symmetry_equiv_pos_site_id
 _symmetry_equiv_pos_as_xyz
  1  'x, y, z'
loop_
 _atom_site_type_symbol
 _atom_site_label
 _atom_site_symmetry_multiplicity
 _atom_site_fract_x
 _atom_site_fract_y
 _atom_site_fract_z
 _atom_site_occupancy
  Te  Te0  1  0.33333300  0.66666700  0.05451000  1
  Te  Te1  1  0.33333300  0.66666700  0.17673500  1
  Mo  Mo0  1  0.00000000  0.00000000  0.11559700  1
  W  W0  1  0.00000000  0.00000000  0.57831200  1
  W  W1  1  0.33333300  0.66666700  0.34703500  1
  Se  Se0  1  0.00000000  0.00000000  0.40098300  1
  Se  Se1  1  0.00000000  0.00000000  0.29304100  1
  S  S0  1  0.33333300  0.66666700  0.52919900  1
  S  S1  1  0.33333300  0.66666700  0.62742800  1
loop_
_geom_bond_atom_site_label_1
_geom_bond_atom_site_label_2
_geom_bond_distance
_geom_bond_site_symmetry_2
Mo0 Te0 2.705151 1_545
Mo0 Te0 2.705153 1_555
Mo0 Te0 2.705153 1_445
Mo0 Te1 2.706258 1_545
Mo0 Te1 2.706260 1_555
Mo0 Te1 2.706260 1_445
Se0 W1 2.555081 1_545
Se0 W1 2.555084 1_445
Se0 W1 2.555084 1_555
Se1 W1 2.556015 1_545
Se1 W1 2.556018 1_445
Se1 W1 2.556018 1_555
S0 W0 2.459565 1_565
S0 W0 2.459567 1_555
S0 W0 2.459567 1_665
S1 W0 2.459622 1_565
S1 W0 2.459625 1_555
S1 W0 2.459625 1_665
