# generated using pymatgen
data_Li6Y(BO3)3
_symmetry_space_group_name_H-M   'P 1'
_cell_length_a   16.54186000
_cell_length_b   6.72409100
_cell_length_c   7.26765564
_cell_angle_alpha   74.58799882
_cell_angle_beta   90.00000000
_cell_angle_gamma   90.00000000
_symmetry_Int_Tables_number   1
_chemical_formula_structural   Li6Y(BO3)3
_chemical_formula_sum   'Li24 Y4 B12 O36'
_cell_volume   779.30454723
_cell_formula_units_Z   4
loop_
 _symmetry_equiv_pos_site_id
 _symmetry_equiv_pos_as_xyz
  1  'x, y, z'
loop_
 _atom_site_type_symbol
 _atom_site_label
 _atom_site_symmetry_multiplicity
 _atom_site_fract_x
 _atom_site_fract_y
 _atom_site_fract_z
 _atom_site_occupancy
  Li  Li0  1  0.55278900  0.58473200  0.86242500  1
  Li  Li1  1  0.05278900  0.91526800  0.13757500  1
  Li  Li2  1  0.44721100  0.41526800  0.13757500  1
  Li  Li3  1  0.94721100  0.08473200  0.86242500  1
  Li  Li4  1  0.79527600  0.54562300  0.43837900  1
  Li  Li5  1  0.29527600  0.95437700  0.56162100  1
  Li  Li6  1  0.20472400  0.45437700  0.56162100  1
  Li  Li7  1  0.70472400  0.04562300  0.43837900  1
  Li  Li8  1  0.96472500  0.55571700  0.30664300  1
  Li  Li9  1  0.46472500  0.94428300  0.69335700  1
  Li  Li10  1  0.03527500  0.44428300  0.69335700  1
  Li  Li11  1  0.53527500  0.05571700  0.30664300  1
  Li  Li12  1  0.70576200  0.63450700  0.71508100  1
  Li  Li13  1  0.20576200  0.86549300  0.28491900  1
  Li  Li14  1  0.29423800  0.36549300  0.28491900  1
  Li  Li15  1  0.79423800  0.13450700  0.71508100  1
  Li  Li16  1  0.96989100  0.82977800  0.54670100  1
  Li  Li17  1  0.46989100  0.67022200  0.45329900  1
  Li  Li18  1  0.03010900  0.17022200  0.45329900  1
  Li  Li19  1  0.53010900  0.32977800  0.54670100  1
  Li  Li20  1  0.00405400  0.32399200  0.07138800  1
  Li  Li21  1  0.50405400  0.17600800  0.92861200  1
  Li  Li22  1  0.99594600  0.67600800  0.92861200  1
  Li  Li23  1  0.49594600  0.82399200  0.07138800  1
  Y  Y0  1  0.81019900  0.34721600  0.07974300  1
  Y  Y1  1  0.31019900  0.15278400  0.92025700  1
  Y  Y2  1  0.18980100  0.65278400  0.92025700  1
  Y  Y3  1  0.68980100  0.84721600  0.07974300  1
  B  B0  1  0.63560800  0.33827500  0.08354500  1
  B  B1  1  0.13560800  0.16172500  0.91645500  1
  B  B2  1  0.36439200  0.66172500  0.91645500  1
  B  B3  1  0.86439200  0.83827500  0.08354500  1
  B  B4  1  0.62077400  0.99932900  0.71403500  1
  B  B5  1  0.12077400  0.50067100  0.28596500  1
  B  B6  1  0.37922600  0.00067100  0.28596500  1
  B  B7  1  0.87922600  0.49932900  0.71403500  1
  B  B8  1  0.88481600  0.18938300  0.43927800  1
  B  B9  1  0.38481600  0.31061700  0.56072200  1
  B  B10  1  0.11518400  0.81061700  0.56072200  1
  B  B11  1  0.61518400  0.68938300  0.43927800  1
  O  O0  1  0.82612000  0.02773700  0.00748900  1
  O  O1  1  0.32612000  0.47226300  0.99251100  1
  O  O2  1  0.17388000  0.97226300  0.99251100  1
  O  O3  1  0.67388000  0.52773700  0.00748900  1
  O  O4  1  0.68539400  0.16626200  0.14577100  1
  O  O5  1  0.18539400  0.33373800  0.85422900  1
  O  O6  1  0.31460600  0.83373800  0.85422900  1
  O  O7  1  0.81460600  0.66626200  0.14577100  1
  O  O8  1  0.55335000  0.32377600  0.08759600  1
  O  O9  1  0.05335000  0.17622400  0.91240400  1
  O  O10  1  0.44665000  0.67622400  0.91240400  1
  O  O11  1  0.94665000  0.82377600  0.08759600  1
  O  O12  1  0.57404600  0.95825400  0.87977400  1
  O  O13  1  0.07404600  0.54174600  0.12022600  1
  O  O14  1  0.42595400  0.04174600  0.12022600  1
  O  O15  1  0.92595400  0.45825400  0.87977400  1
  O  O16  1  0.79782000  0.44236700  0.74007400  1
  O  O17  1  0.29782000  0.05763300  0.25992600  1
  O  O18  1  0.20218000  0.55763300  0.25992600  1
  O  O19  1  0.70218000  0.94236700  0.74007400  1
  O  O20  1  0.58842700  0.08630800  0.53742000  1
  O  O21  1  0.08842700  0.41369200  0.46258000  1
  O  O22  1  0.41157300  0.91369200  0.46258000  1
  O  O23  1  0.91157300  0.58630800  0.53742000  1
  O  O24  1  0.56867200  0.77124400  0.27642900  1
  O  O25  1  0.06867200  0.72875600  0.72357100  1
  O  O26  1  0.43132800  0.22875600  0.72357100  1
  O  O27  1  0.93132800  0.27124400  0.27642900  1
  O  O28  1  0.80209300  0.22841600  0.42138600  1
  O  O29  1  0.30209300  0.27158400  0.57861400  1
  O  O30  1  0.19790700  0.77158400  0.57861400  1
  O  O31  1  0.69790700  0.72841600  0.42138600  1
  O  O32  1  0.92142000  0.07713400  0.60507900  1
  O  O33  1  0.42142000  0.42286600  0.39492100  1
  O  O34  1  0.07858000  0.92286600  0.39492100  1
  O  O35  1  0.57858000  0.57713400  0.60507900  1
loop_
_geom_bond_atom_site_label_1
_geom_bond_atom_site_label_2
_geom_bond_distance
_geom_bond_site_symmetry_2
Li0 O10 1.926601 1_555
Li0 O35 1.932212 1_555
Li0 O8 2.056892 1_556
Li0 O3 2.248534 1_556
Li0 O12 2.572154 1_555
Li1 O11 1.926601 1_455
Li1 O34 1.932212 1_555
Li1 O9 2.056892 1_564
Li1 O2 2.248534 1_554
Li1 O13 2.572154 1_555
Li2 O8 1.926601 1_555
Li2 O33 1.932212 1_555
Li2 O10 2.056892 1_554
Li2 O1 2.248534 1_554
Li2 O14 2.572154 1_555
Li3 O9 1.926601 1_655
Li3 O32 1.932212 1_555
Li3 O11 2.056892 1_546
Li3 O0 2.248534 1_556
Li3 O15 2.572154 1_555
Li4 O31 2.009860 1_555
Li4 O7 2.089424 1_555
Li4 O23 2.097259 1_555
Li4 O16 2.117131 1_555
Li4 O28 2.171949 1_555
Li5 O30 2.009860 1_555
Li5 O6 2.089424 1_555
Li5 O22 2.097259 1_555
Li5 O17 2.117131 1_565
Li5 O29 2.171949 1_565
Li6 O29 2.009860 1_555
Li6 O5 2.089424 1_555
Li6 O21 2.097259 1_555
Li6 O18 2.117131 1_555
Li6 O30 2.171949 1_555
Li7 O28 2.009860 1_555
Li7 O4 2.089424 1_555
Li7 O20 2.097259 1_555
Li7 O19 2.117131 1_545
Li7 O31 2.171949 1_545
Li8 O23 1.952373 1_555
Li8 O27 2.058047 1_555
Li8 O11 2.085046 1_555
Li8 O13 2.276446 1_655
Li8 O21 2.410041 1_655
Li9 O22 1.952373 1_555
Li9 O26 2.058047 1_565
Li9 O10 2.085046 1_555
Li9 O12 2.276446 1_555
Li9 O20 2.410041 1_565
Li10 O21 1.952373 1_555
Li10 O25 2.058047 1_555
Li10 O9 2.085046 1_555
Li10 O15 2.276446 1_455
Li10 O23 2.410041 1_455
Li11 O20 1.952373 1_555
Li11 O24 2.058047 1_545
Li11 O8 2.085046 1_555
Li11 O14 2.276446 1_555
Li11 O22 2.410041 1_545
Li12 O16 1.973928 1_555
Li12 O31 2.062816 1_555
Li12 O3 2.121031 1_556
Li12 O19 2.126402 1_555
Li12 O35 2.319046 1_555
Li13 O17 1.973928 1_565
Li13 O30 2.062816 1_555
Li13 O2 2.121031 1_554
Li13 O18 2.126402 1_555
Li13 O34 2.319046 1_555
Li14 O18 1.973928 1_555
Li14 O29 2.062816 1_555
Li14 O1 2.121031 1_554
Li14 O17 2.126402 1_555
Li14 O33 2.319046 1_555
Li15 O19 1.973928 1_545
Li15 O28 2.062816 1_555
Li15 O0 2.121031 1_556
Li15 O16 2.126402 1_555
Li15 O32 2.319046 1_555
Li16 O23 1.916771 1_555
Li16 O32 1.991066 1_565
Li16 O25 2.078383 1_655
Li16 O34 2.115209 1_655
Li17 O22 1.916771 1_555
Li17 O33 1.991066 1_555
Li17 O24 2.078383 1_555
Li17 O35 2.115209 1_555
Li18 O21 1.916771 1_555
Li18 O34 1.991066 1_545
Li18 O27 2.078383 1_455
Li18 O32 2.115209 1_455
Li19 O20 1.916771 1_555
Li19 O35 1.991066 1_555
Li19 O26 2.078383 1_555
Li19 O33 2.115209 1_555
Li20 O27 1.874230 1_455
Li20 O9 1.896697 1_554
Li20 O15 1.937821 1_454
Li20 O13 1.971441 1_555
Li21 O26 1.874230 1_555
Li21 O8 1.896697 1_556
Li21 O14 1.937821 1_556
Li21 O12 1.971441 1_545
Li22 O25 1.874230 1_655
Li22 O11 1.896697 1_556
Li22 O13 1.937821 1_656
Li22 O15 1.971441 1_555
Li23 O24 1.874230 1_555
Li23 O10 1.896697 1_554
Li23 O12 1.937821 1_554
Li23 O14 1.971441 1_565
B0 O8 1.363947 1_555
B0 O4 1.393748 1_555
B0 O3 1.398222 1_555
B1 O9 1.363947 1_555
B1 O5 1.393748 1_555
B1 O2 1.398222 1_545
B2 O10 1.363947 1_555
B2 O6 1.393748 1_555
B2 O1 1.398222 1_555
B3 O11 1.363947 1_555
B3 O7 1.393748 1_555
B3 O0 1.398222 1_565
B4 O20 1.370008 1_565
B4 O12 1.395649 1_555
B4 O19 1.399049 1_555
B5 O21 1.370008 1_555
B5 O13 1.395649 1_555
B5 O18 1.399049 1_555
B6 O22 1.370008 1_545
B6 O14 1.395649 1_555
B6 O17 1.399049 1_555
B7 O23 1.370008 1_555
B7 O15 1.395649 1_555
B7 O16 1.399049 1_555
B8 O32 1.380177 1_555
B8 O28 1.392893 1_555
B8 O27 1.396222 1_555
B9 O33 1.380177 1_555
B9 O29 1.392893 1_555
B9 O26 1.396222 1_555
B10 O34 1.380177 1_555
B10 O30 1.392893 1_555
B10 O25 1.396222 1_555
B11 O35 1.380177 1_555
B11 O31 1.392893 1_555
B11 O24 1.396222 1_555
O0 Y0 2.357855 1_555
O0 Y3 2.548578 1_545
O1 Y1 2.357855 1_555
O1 Y2 2.548578 1_555
O2 Y2 2.357855 1_555
O2 Y1 2.548578 1_565
O3 Y3 2.357855 1_555
O3 Y0 2.548578 1_555
O4 Y3 2.320571 1_545
O4 Y0 2.379623 1_555
O5 Y2 2.320571 1_555
O5 Y1 2.379623 1_555
O6 Y1 2.320571 1_565
O6 Y2 2.379623 1_555
O7 Y0 2.320571 1_555
O7 Y3 2.379623 1_555
O12 Y3 2.399851 1_556
O13 Y2 2.399851 1_554
O14 Y1 2.399851 1_554
O15 Y0 2.399851 1_556
O16 Y0 2.388675 1_556
O17 Y1 2.388675 1_554
O18 Y2 2.388675 1_554
O19 Y3 2.388675 1_556
O24 Y3 2.435356 1_555
O25 Y2 2.435356 1_555
O26 Y1 2.435356 1_555
O27 Y0 2.435356 1_555
O28 Y0 2.401433 1_555
O29 Y1 2.401433 1_555
O30 Y2 2.401433 1_555
O31 Y3 2.401433 1_555
