# generated using pymatgen
data_HgB4O7
_symmetry_space_group_name_H-M   'P 1'
_cell_length_a   8.42213432
_cell_length_b   8.80698231
_cell_length_c   14.19380623
_cell_angle_alpha   90.00000000
_cell_angle_beta   90.00000000
_cell_angle_gamma   90.00000000
_symmetry_Int_Tables_number   1
_chemical_formula_structural   HgB4O7
_chemical_formula_sum   'Hg8 B32 O56'
_cell_volume   1052.80553501
_cell_formula_units_Z   8
loop_
 _symmetry_equiv_pos_site_id
 _symmetry_equiv_pos_as_xyz
  1  'x, y, z'
loop_
 _atom_site_type_symbol
 _atom_site_label
 _atom_site_symmetry_multiplicity
 _atom_site_fract_x
 _atom_site_fract_y
 _atom_site_fract_z
 _atom_site_occupancy
  Hg  Hg0  1  0.64285157  0.11271031  0.38308810  1
  Hg  Hg1  1  0.14285157  0.38728969  0.61691190  1
  Hg  Hg2  1  0.35714843  0.61271031  0.11691190  1
  Hg  Hg3  1  0.85714843  0.88728969  0.88308810  1
  Hg  Hg4  1  0.35714843  0.88728969  0.61691190  1
  Hg  Hg5  1  0.85714843  0.61271031  0.38308810  1
  Hg  Hg6  1  0.64285157  0.38728969  0.88308810  1
  Hg  Hg7  1  0.14285157  0.11271031  0.11691190  1
  B  B0  1  0.45767771  0.28196514  0.06200245  1
  B  B1  1  0.22164525  0.15133103  0.45005992  1
  B  B2  1  0.72164525  0.34866897  0.54994008  1
  B  B3  1  0.77835475  0.65133103  0.04994008  1
  B  B4  1  0.27835475  0.84866897  0.95005992  1
  B  B5  1  0.77835475  0.84866897  0.54994008  1
  B  B6  1  0.27835475  0.65133103  0.45005992  1
  B  B7  1  0.22164525  0.34866897  0.95005992  1
  B  B8  1  0.72164525  0.15133103  0.04994008  1
  B  B9  1  0.95767771  0.21803486  0.93799755  1
  B  B10  1  0.54232229  0.78196514  0.43799755  1
  B  B11  1  0.04232229  0.71803486  0.56200245  1
  B  B12  1  0.54232229  0.71803486  0.93799755  1
  B  B13  1  0.04232229  0.78196514  0.06200245  1
  B  B14  1  0.45767771  0.21803486  0.56200245  1
  B  B15  1  0.95767771  0.28196514  0.43799755  1
  B  B16  1  0.50993085  0.32812630  0.23477146  1
  B  B17  1  0.00993085  0.17187370  0.76522854  1
  B  B18  1  0.49006915  0.82812630  0.26522854  1
  B  B19  1  0.99006915  0.67187370  0.73477146  1
  B  B20  1  0.49006915  0.67187370  0.76522854  1
  B  B21  1  0.99006915  0.82812630  0.23477146  1
  B  B22  1  0.50993085  0.17187370  0.73477146  1
  B  B23  1  0.00993085  0.32812630  0.26522854  1
  B  B24  1  0.51965120  0.06309248  0.15992747  1
  B  B25  1  0.01965120  0.43690752  0.84007253  1
  B  B26  1  0.48034880  0.56309248  0.34007253  1
  B  B27  1  0.98034880  0.93690752  0.65992747  1
  B  B28  1  0.48034880  0.93690752  0.84007253  1
  B  B29  1  0.98034880  0.56309248  0.15992747  1
  B  B30  1  0.51965120  0.43690752  0.65992747  1
  B  B31  1  0.01965120  0.06309248  0.34007253  1
  O  O0  1  0.46387355  0.38189021  0.14814280  1
  O  O1  1  0.67642383  0.05359000  0.11822786  1
  O  O2  1  0.17642383  0.44641000  0.88177214  1
  O  O3  1  0.32357617  0.55359000  0.38177214  1
  O  O4  1  0.82357617  0.94641000  0.61822786  1
  O  O5  1  0.32357617  0.94641000  0.88177214  1
  O  O6  1  0.82357617  0.55359000  0.11822786  1
  O  O7  1  0.67642383  0.44641000  0.61822786  1
  O  O8  1  0.03757778  0.41665297  0.18939110  1
  O  O9  1  0.53757778  0.08334703  0.81060890  1
  O  O10  1  0.96242222  0.91665297  0.31060890  1
  O  O11  1  0.46242222  0.58334703  0.68939110  1
  O  O12  1  0.96242222  0.58334703  0.81060890  1
  O  O13  1  0.46242222  0.91665297  0.18939110  1
  O  O14  1  0.03757778  0.08334703  0.68939110  1
  O  O15  1  0.53757778  0.41665297  0.31060890  1
  O  O16  1  0.40596384  0.13183856  0.09232376  1
  O  O17  1  0.90596384  0.36816144  0.90767624  1
  O  O18  1  0.59403616  0.63183856  0.40767624  1
  O  O19  1  0.09403616  0.86816144  0.59232376  1
  O  O20  1  0.59403616  0.86816144  0.90767624  1
  O  O21  1  0.09403616  0.63183856  0.09232376  1
  O  O22  1  0.40596384  0.36816144  0.59232376  1
  O  O23  1  0.90596384  0.13183856  0.40767624  1
  O  O24  1  0.36600769  0.36240051  0.99286427  1
  O  O25  1  0.86600769  0.13759949  0.00713573  1
  O  O26  1  0.63399231  0.86240051  0.50713573  1
  O  O27  1  0.13399231  0.63759949  0.49286427  1
  O  O28  1  0.63399231  0.63759949  0.00713573  1
  O  O29  1  0.13399231  0.86240051  0.99286427  1
  O  O30  1  0.36600769  0.13759949  0.49286427  1
  O  O31  1  0.86600769  0.36240051  0.50713573  1
  O  O32  1  0.17642383  0.05359000  0.38177214  1
  O  O33  1  0.96387355  0.11810979  0.85185720  1
  O  O34  1  0.53612645  0.88189021  0.35185720  1
  O  O35  1  0.03612645  0.61810979  0.64814280  1
  O  O36  1  0.53612645  0.61810979  0.85185720  1
  O  O37  1  0.03612645  0.88189021  0.14814280  1
  O  O38  1  0.46387355  0.11810979  0.64814280  1
  O  O39  1  0.96387355  0.38189021  0.35185720  1
  O  O40  1  0.12021621  0.26723103  0.47731720  1
  O  O41  1  0.03063087  0.32714678  0.75626144  1
  O  O42  1  0.46936913  0.67285322  0.25626144  1
  O  O43  1  0.96936913  0.82714678  0.74373856  1
  O  O44  1  0.46936913  0.82714678  0.75626144  1
  O  O45  1  0.96936913  0.67285322  0.24373856  1
  O  O46  1  0.53063087  0.32714678  0.74373856  1
  O  O47  1  0.03063087  0.17285322  0.25626144  1
  O  O48  1  0.62021621  0.26723103  0.02268280  1
  O  O49  1  0.12021621  0.23276897  0.97731720  1
  O  O50  1  0.37978379  0.76723103  0.47731720  1
  O  O51  1  0.87978379  0.73276897  0.52268280  1
  O  O52  1  0.37978379  0.73276897  0.97731720  1
  O  O53  1  0.87978379  0.76723103  0.02268280  1
  O  O54  1  0.62021621  0.23276897  0.52268280  1
  O  O55  1  0.53063087  0.17285322  0.24373856  1
loop_
_geom_bond_atom_site_label_1
_geom_bond_atom_site_label_2
_geom_bond_distance
_geom_bond_site_symmetry_2
Hg0 O23 2.249598 1_555
Hg0 O54 2.253932 1_555
Hg0 O55 2.255201 1_555
Hg0 O34 2.266458 1_545
Hg1 O22 2.249598 1_555
Hg1 O40 2.253932 1_555
Hg1 O41 2.255201 1_555
Hg1 O35 2.266458 1_555
Hg2 O21 2.249598 1_555
Hg2 O52 2.253932 1_554
Hg2 O42 2.255201 1_555
Hg2 O0 2.266458 1_555
Hg3 O20 2.249598 1_555
Hg3 O53 2.253932 1_556
Hg3 O43 2.255201 1_555
Hg3 O33 2.266458 1_565
Hg4 O19 2.249598 1_555
Hg4 O50 2.253932 1_555
Hg4 O44 2.255201 1_555
Hg4 O38 2.266458 1_565
Hg5 O18 2.249598 1_555
Hg5 O51 2.253932 1_555
Hg5 O45 2.255201 1_555
Hg5 O39 2.266458 1_555
Hg6 O17 2.249598 1_555
Hg6 O48 2.253932 1_556
Hg6 O46 2.255201 1_555
Hg6 O36 2.266458 1_555
Hg7 O16 2.249598 1_555
Hg7 O49 2.253932 1_554
Hg7 O47 2.255201 1_555
Hg7 O37 2.266458 1_545
B0 O24 1.435587 1_554
B0 O16 1.457063 1_555
B0 O48 1.483999 1_555
B0 O0 1.507344 1_555
B1 O32 1.351114 1_555
B1 O30 1.364557 1_555
B1 O40 1.386113 1_555
B2 O7 1.351114 1_555
B2 O31 1.364557 1_555
B2 O54 1.386113 1_555
B3 O6 1.351114 1_555
B3 O28 1.364557 1_555
B3 O53 1.386113 1_555
B4 O5 1.351114 1_555
B4 O29 1.364557 1_555
B4 O52 1.386113 1_555
B5 O4 1.351114 1_555
B5 O26 1.364557 1_555
B5 O51 1.386113 1_555
B6 O3 1.351114 1_555
B6 O27 1.364557 1_555
B6 O50 1.386113 1_555
B7 O2 1.351114 1_555
B7 O24 1.364557 1_555
B7 O49 1.386113 1_555
B8 O1 1.351114 1_555
B8 O25 1.364557 1_555
B8 O48 1.386113 1_555
B9 O25 1.435587 1_556
B9 O17 1.457063 1_555
B9 O49 1.483999 1_655
B9 O33 1.507344 1_555
B10 O26 1.435587 1_555
B10 O18 1.457063 1_555
B10 O50 1.483999 1_555
B10 O34 1.507344 1_555
B11 O27 1.435587 1_555
B11 O19 1.457063 1_555
B11 O51 1.483999 1_455
B11 O35 1.507344 1_555
B12 O28 1.435587 1_556
B12 O20 1.457063 1_555
B12 O52 1.483999 1_555
B12 O36 1.507344 1_555
B13 O29 1.435587 1_554
B13 O21 1.457063 1_555
B13 O53 1.483999 1_455
B13 O37 1.507344 1_555
B14 O30 1.435587 1_555
B14 O22 1.457063 1_555
B14 O54 1.483999 1_555
B14 O38 1.507344 1_555
B15 O31 1.435587 1_555
B15 O23 1.457063 1_555
B15 O40 1.483999 1_655
B15 O39 1.507344 1_555
B16 O15 1.349355 1_555
B16 O0 1.373521 1_555
B16 O55 1.384419 1_555
B17 O14 1.349355 1_555
B17 O33 1.373521 1_455
B17 O41 1.384419 1_555
B18 O13 1.349355 1_555
B18 O34 1.373521 1_555
B18 O42 1.384419 1_555
B19 O12 1.349355 1_555
B19 O35 1.373521 1_655
B19 O43 1.384419 1_555
B20 O11 1.349355 1_555
B20 O36 1.373521 1_555
B20 O44 1.384419 1_555
B21 O10 1.349355 1_555
B21 O37 1.373521 1_655
B21 O45 1.384419 1_555
B22 O9 1.349355 1_555
B22 O38 1.373521 1_555
B22 O46 1.384419 1_555
B23 O8 1.349355 1_555
B23 O39 1.373521 1_455
B23 O47 1.384419 1_555
B24 O13 1.438926 1_545
B24 O1 1.449370 1_555
B24 O16 1.484620 1_555
B24 O55 1.535620 1_555
B25 O12 1.438926 1_455
B25 O2 1.449370 1_555
B25 O17 1.484620 1_455
B25 O41 1.535620 1_555
B26 O15 1.438926 1_555
B26 O3 1.449370 1_555
B26 O18 1.484620 1_555
B26 O42 1.535620 1_555
B27 O14 1.438926 1_665
B27 O4 1.449370 1_555
B27 O19 1.484620 1_655
B27 O43 1.535620 1_555
B28 O9 1.438926 1_565
B28 O5 1.449370 1_555
B28 O20 1.484620 1_555
B28 O44 1.535620 1_555
B29 O8 1.438926 1_655
B29 O6 1.449370 1_555
B29 O21 1.484620 1_655
B29 O45 1.535620 1_555
B30 O11 1.438926 1_555
B30 O7 1.449370 1_555
B30 O22 1.484620 1_555
B30 O46 1.535620 1_555
B31 O10 1.438926 1_445
B31 O32 1.449370 1_555
B31 O23 1.484620 1_455
B31 O47 1.535620 1_555
