# generated using pymatgen
data_CSN2
_symmetry_space_group_name_H-M   'P 1'
_cell_length_a   10.69013700
_cell_length_b   3.94790000
_cell_length_c   6.54284353
_cell_angle_alpha   72.69633366
_cell_angle_beta   90.00000000
_cell_angle_gamma   90.00000000
_symmetry_Int_Tables_number   1
_chemical_formula_structural   CSN2
_chemical_formula_sum   'C4 S4 N8'
_cell_volume   263.63427458
_cell_formula_units_Z   4
loop_
 _symmetry_equiv_pos_site_id
 _symmetry_equiv_pos_as_xyz
  1  'x, y, z'
loop_
 _atom_site_type_symbol
 _atom_site_label
 _atom_site_symmetry_multiplicity
 _atom_site_fract_x
 _atom_site_fract_y
 _atom_site_fract_z
 _atom_site_occupancy
  C  C0  1  0.44973400  0.88363600  0.55403200  1
  C  C1  1  0.55026600  0.11636400  0.44596800  1
  C  C2  1  0.94973400  0.11636400  0.94596800  1
  C  C3  1  0.05026600  0.88363600  0.05403200  1
  S  S0  1  0.11594300  0.17254500  0.70094100  1
  S  S1  1  0.88405700  0.82745500  0.29905900  1
  S  S2  1  0.61594300  0.82745500  0.79905900  1
  S  S3  1  0.38405700  0.17254500  0.20094100  1
  N  N0  1  0.47553900  0.70105900  0.75873500  1
  N  N1  1  0.52446100  0.29894100  0.24126500  1
  N  N2  1  0.97553900  0.29894100  0.74126500  1
  N  N3  1  0.02446100  0.70105900  0.25873500  1
  N  N4  1  0.15166600  0.89118600  0.92980600  1
  N  N5  1  0.84833400  0.10881400  0.07019400  1
  N  N6  1  0.65166600  0.10881400  0.57019400  1
  N  N7  1  0.34833400  0.89118600  0.42980600  1
loop_
_geom_bond_atom_site_label_1
_geom_bond_atom_site_label_2
_geom_bond_distance
_geom_bond_site_symmetry_2
C0 N0 1.347291 1_555
C0 N7 1.349859 1_555
C0 C1 1.453486 1_565
C1 N1 1.347291 1_555
C1 N6 1.349859 1_555
C2 N2 1.347291 1_555
C2 N5 1.349859 1_556
C2 C3 1.453486 1_646
C3 N3 1.347291 1_555
C3 N4 1.349859 1_554
N0 S2 1.627802 1_555
N1 S3 1.627802 1_555
N2 S0 1.627802 1_655
N3 S1 1.627802 1_455
N4 S0 1.622497 1_565
N5 S1 1.622497 1_545
N6 S2 1.622497 1_545
N7 S3 1.622497 1_565
