# generated using pymatgen
data_Tm2Co17
_symmetry_space_group_name_H-M   'P 1'
_cell_length_a   7.93909267
_cell_length_b   8.16021190
_cell_length_c   8.16018688
_cell_angle_alpha   120.00010864
_cell_angle_beta   90.00000908
_cell_angle_gamma   89.99996110
_symmetry_Int_Tables_number   1
_chemical_formula_structural   Tm2Co17
_chemical_formula_sum   'Tm4 Co34'
_cell_volume   457.82823083
_cell_formula_units_Z   2
loop_
 _symmetry_equiv_pos_site_id
 _symmetry_equiv_pos_as_xyz
  1  'x, y, z'
loop_
 _atom_site_type_symbol
 _atom_site_label
 _atom_site_symmetry_multiplicity
 _atom_site_fract_x
 _atom_site_fract_y
 _atom_site_fract_z
 _atom_site_occupancy
  Tm  Tm0  1  0.74999802  0.99999016  0.00000853  1
  Tm  Tm1  1  0.25000198  0.00000984  0.99999247  1
  Tm  Tm2  1  0.24999643  0.66664929  0.33335556  1
  Tm  Tm3  1  0.75000357  0.33335071  0.66664444  1
  Co  Co0  1  0.60760278  0.66666143  0.33334610  1
  Co  Co1  1  0.39239722  0.33333857  0.66665390  1
  Co  Co2  1  0.10760334  0.33333884  0.66665388  1
  Co  Co3  1  0.89239666  0.66666116  0.33334612  1
  Co  Co4  1  0.50000000  0.50000000  0.00000000  1
  Co  Co5  1  0.50000000  0.50000000  0.50000000  1
  Co  Co6  1  0.50000000  -0.00000000  0.50000000  1
  Co  Co7  1  0.00000000  0.50000000  0.00000000  1
  Co  Co8  1  0.00000000  0.50000000  0.50000000  1
  Co  Co9  1  0.00000000  -0.00000000  0.50000000  1
  Co  Co10  1  0.75000120  0.67081772  0.04352616  1
  Co  Co11  1  0.75000133  0.37269592  0.32915037  1
  Co  Co12  1  0.75000132  0.95654320  0.62737578  1
  Co  Co13  1  0.75000132  0.37262003  0.04345442  1
  Co  Co14  1  0.75000120  0.95647465  0.32918524  1
  Co  Co15  1  0.75000126  0.67085110  0.62730223  1
  Co  Co16  1  0.24999880  0.32918228  0.95647384  1
  Co  Co17  1  0.24999867  0.62730408  0.67084963  1
  Co  Co18  1  0.24999868  0.04345680  0.37262422  1
  Co  Co19  1  0.24999868  0.62737997  0.95654558  1
  Co  Co20  1  0.24999880  0.04352535  0.67081476  1
  Co  Co21  1  0.24999874  0.32914890  0.37269777  1
  Co  Co22  1  0.47843230  0.83484248  0.66969941  1
  Co  Co23  1  0.47845644  0.83485593  0.16515331  1
  Co  Co24  1  0.47843022  0.33029944  0.16516168  1
  Co  Co25  1  0.52156770  0.16515752  0.33030059  1
  Co  Co26  1  0.52154356  0.16514407  0.83484669  1
  Co  Co27  1  0.52156978  0.66970056  0.83483832  1
  Co  Co28  1  0.97843655  0.16515805  0.33030141  1
  Co  Co29  1  0.97846083  0.16514437  0.83484617  1
  Co  Co30  1  0.97843445  0.66969960  0.83483756  1
  Co  Co31  1  0.02156345  0.83484195  0.66969859  1
  Co  Co32  1  0.02153917  0.83485563  0.16515383  1
  Co  Co33  1  0.02156555  0.33030040  0.16516244  1
loop_
_geom_bond_atom_site_label_1
_geom_bond_atom_site_label_2
_geom_bond_distance
_geom_bond_site_symmetry_2
Co0 Co3 2.261005 1_555
Co0 Co5 2.505645 1_555
Co0 Co6 2.505798 1_565
Co0 Co4 2.505842 1_555
Co0 Co22 2.588762 1_555
Co0 Co24 2.588832 1_555
Co0 Co23 2.588913 1_555
Co0 Co15 2.636505 1_555
Co0 Co11 2.636559 1_555
Co0 Co14 2.636749 1_555
Co0 Co10 2.636774 1_555
Co0 Co12 2.637199 1_555
Co0 Co13 2.637278 1_555
Co0 Tm2 2.839070 1_555
Co1 Co2 2.261005 1_555
Co1 Co5 2.505645 1_555
Co1 Co6 2.505798 1_555
Co1 Co4 2.505842 1_556
Co1 Co25 2.588762 1_555
Co1 Co27 2.588832 1_555
Co1 Co26 2.588913 1_555
Co1 Co21 2.636505 1_555
Co1 Co17 2.636559 1_555
Co1 Co20 2.636749 1_555
Co1 Co16 2.636774 1_555
Co1 Co18 2.637199 1_555
Co1 Co19 2.637278 1_555
Co1 Tm3 2.839070 1_555
Co2 Co8 2.505643 1_555
Co2 Co9 2.505802 1_555
Co2 Co7 2.505843 1_556
Co2 Co28 2.588745 1_455
Co2 Co30 2.588811 1_455
Co2 Co29 2.588898 1_455
Co2 Co21 2.636494 1_555
Co2 Co20 2.636740 1_555
Co2 Tm3 2.839018 1_455
Co3 Co8 2.505643 1_655
Co3 Co9 2.505802 1_665
Co3 Co7 2.505843 1_655
Co3 Co31 2.588745 1_655
Co3 Co33 2.588811 1_655
Co3 Co32 2.588898 1_655
Co3 Tm2 2.839018 1_655
Co4 Tm2 3.080457 1_555
Co4 Tm3 3.080457 1_554
Co5 Tm3 3.080128 1_555
Co5 Tm2 3.080128 1_555
Co6 Tm2 3.080438 1_545
Co6 Tm3 3.080438 1_555
Co7 Tm3 3.080421 1_454
Co7 Tm2 3.080421 1_555
Co8 Tm3 3.080093 1_455
Co8 Tm2 3.080093 1_555
Co9 Tm2 3.080399 1_545
Co9 Tm3 3.080399 1_455
Co10 Co14 2.331022 1_555
Co10 Co7 2.348047 1_655
Co10 Co4 2.348065 1_555
Co10 Co13 2.433064 1_555
Co10 Co32 2.468936 1_655
Co10 Co23 2.468982 1_555
Co10 Co27 2.484644 1_554
Co10 Co30 2.484656 1_554
Co10 Co3 2.636765 1_555
Co10 Tm0 2.880140 1_555
Co10 Tm3 2.927888 1_554
Co11 Co13 2.331023 1_555
Co11 Co8 2.348157 1_655
Co11 Co5 2.348174 1_555
Co11 Co15 2.432988 1_555
Co11 Co33 2.468939 1_655
Co11 Co24 2.468989 1_555
Co11 Co25 2.484574 1_555
Co11 Co28 2.484581 1_555
Co11 Co3 2.636547 1_555
Co11 Tm0 2.880106 1_545
Co11 Tm3 2.927781 1_555
Co12 Co15 2.331008 1_555
Co12 Co9 2.348192 1_665
Co12 Co6 2.348209 1_565
Co12 Co14 2.433011 1_555
Co12 Co31 2.469143 1_655
Co12 Co22 2.469193 1_555
Co12 Co26 2.484276 1_565
Co12 Co29 2.484286 1_565
Co12 Co3 2.637188 1_555
Co12 Tm0 2.879898 1_556
Co12 Tm3 2.927790 1_565
Co13 Co7 2.348204 1_655
Co13 Co4 2.348220 1_555
Co13 Co33 2.469174 1_655
Co13 Co24 2.469222 1_555
Co13 Co26 2.484310 1_554
Co13 Co29 2.484320 1_554
Co13 Co3 2.637267 1_555
Co13 Tm0 2.879888 1_545
Co13 Tm3 2.927798 1_554
Co14 Co9 2.348034 1_665
Co14 Co6 2.348050 1_565
Co14 Co32 2.468906 1_655
Co14 Co23 2.468955 1_555
Co14 Co25 2.484636 1_565
Co14 Co28 2.484649 1_565
Co14 Co3 2.636740 1_555
Co14 Tm0 2.880156 1_555
Co14 Tm3 2.927836 1_565
Co15 Co8 2.348160 1_655
Co15 Co5 2.348178 1_555
Co15 Co31 2.468938 1_655
Co15 Co22 2.468985 1_555
Co15 Co27 2.484546 1_555
Co15 Co30 2.484554 1_555
Co15 Co3 2.636494 1_555
Co15 Tm0 2.880097 1_556
Co15 Tm3 2.927826 1_555
Co16 Co20 2.331022 1_555
Co16 Co7 2.348047 1_556
Co16 Co4 2.348065 1_556
Co16 Co19 2.433064 1_555
Co16 Co29 2.468936 1_455
Co16 Co26 2.468982 1_555
Co16 Co24 2.484644 1_556
Co16 Co33 2.484656 1_556
Co16 Co2 2.636765 1_555
Co16 Tm1 2.880144 1_555
Co16 Tm2 2.927888 1_556
Co17 Co19 2.331023 1_555
Co17 Co8 2.348157 1_555
Co17 Co5 2.348174 1_555
Co17 Co21 2.432988 1_555
Co17 Co30 2.468939 1_455
Co17 Co27 2.468989 1_555
Co17 Co22 2.484574 1_555
Co17 Co31 2.484581 1_555
Co17 Co2 2.636547 1_555
Co17 Tm1 2.880109 1_565
Co17 Tm2 2.927781 1_555
Co18 Co21 2.331008 1_555
Co18 Co9 2.348192 1_555
Co18 Co6 2.348209 1_555
Co18 Co20 2.433011 1_555
Co18 Co28 2.469143 1_455
Co18 Co25 2.469193 1_555
Co18 Co23 2.484276 1_545
Co18 Co32 2.484286 1_545
Co18 Co2 2.637188 1_555
Co18 Tm1 2.879890 1_554
Co18 Tm2 2.927790 1_545
Co19 Co7 2.348204 1_556
Co19 Co4 2.348220 1_556
Co19 Co30 2.469174 1_455
Co19 Co27 2.469222 1_555
Co19 Co23 2.484310 1_556
Co19 Co32 2.484320 1_556
Co19 Co2 2.637267 1_555
Co19 Tm1 2.879885 1_565
Co19 Tm2 2.927798 1_556
Co20 Co9 2.348034 1_555
Co20 Co6 2.348050 1_555
Co20 Co29 2.468906 1_455
Co20 Co26 2.468955 1_555
Co20 Co22 2.484636 1_545
Co20 Co31 2.484649 1_545
Co20 Tm1 2.880165 1_555
Co20 Tm2 2.927836 1_545
Co21 Co8 2.348160 1_555
Co21 Co5 2.348178 1_555
Co21 Co28 2.468938 1_455
Co21 Co25 2.468985 1_555
Co21 Co24 2.484546 1_555
Co21 Co33 2.484554 1_555
Co21 Tm1 2.880093 1_554
Co21 Tm2 2.927826 1_555
Co22 Co27 2.359067 1_555
Co22 Co26 2.359182 1_565
Co22 Co5 2.372572 1_555
Co22 Co6 2.372674 1_565
Co22 Tm1 2.955870 1_565
Co22 Tm2 2.989779 1_555
Co22 Tm0 3.177591 1_556
Co23 Co25 2.359182 1_565
Co23 Co27 2.359271 1_554
Co23 Co6 2.372581 1_565
Co23 Co4 2.372653 1_555
Co23 Tm1 2.956114 1_564
Co23 Tm2 2.990267 1_555
Co23 Tm0 3.177311 1_555
Co24 Co25 2.359067 1_555
Co24 Co26 2.359271 1_554
Co24 Co5 2.372537 1_555
Co24 Co4 2.372713 1_555
Co24 Tm1 2.955847 1_554
Co24 Tm2 2.989807 1_555
Co24 Tm0 3.177607 1_545
Co25 Co5 2.372572 1_555
Co25 Co6 2.372674 1_555
Co25 Tm0 2.955864 1_545
Co25 Tm3 2.989779 1_555
Co25 Tm1 3.177586 1_554
Co26 Co6 2.372581 1_555
Co26 Co4 2.372653 1_556
Co26 Tm0 2.956120 1_546
Co26 Tm3 2.990267 1_555
Co26 Tm1 3.177316 1_555
Co27 Co5 2.372537 1_555
Co27 Co4 2.372713 1_556
Co27 Tm0 2.955847 1_556
Co27 Tm3 2.989807 1_555
Co27 Tm1 3.177607 1_565
Co28 Co33 2.359061 1_655
Co28 Co32 2.359178 1_645
Co28 Co8 2.372566 1_655
Co28 Co9 2.372670 1_655
Co28 Tm0 2.955910 1_545
Co28 Tm3 2.989760 1_555
Co28 Tm1 3.177588 1_654
Co29 Co31 2.359178 1_645
Co29 Co33 2.359270 1_656
Co29 Co9 2.372575 1_655
Co29 Co7 2.372649 1_656
Co29 Tm0 2.956166 1_546
Co29 Tm3 2.990248 1_555
Co29 Tm1 3.177316 1_655
Co30 Co31 2.359061 1_655
Co30 Co32 2.359270 1_656
Co30 Co8 2.372530 1_655
Co30 Co7 2.372709 1_656
Co30 Tm0 2.955891 1_556
Co30 Tm3 2.989790 1_555
Co30 Tm1 3.177613 1_665
Co31 Co8 2.372566 1_555
Co31 Co9 2.372670 1_565
Co31 Tm1 2.955915 1_565
Co31 Tm2 2.989760 1_555
Co31 Tm0 3.177593 1_456
Co32 Co9 2.372575 1_565
Co32 Co7 2.372649 1_555
Co32 Tm1 2.956161 1_564
Co32 Tm2 2.990248 1_555
Co32 Tm0 3.177311 1_455
Co33 Co8 2.372530 1_555
Co33 Co7 2.372709 1_555
Co33 Tm1 2.955891 1_554
Co33 Tm2 2.989790 1_555
Co33 Tm0 3.177613 1_445
