# generated using pymatgen
data_MgAl
_symmetry_space_group_name_H-M   'P 1'
_cell_length_a   6.00025266
_cell_length_b   6.00025266
_cell_length_c   8.35291872
_cell_angle_alpha   90.00000000
_cell_angle_beta   90.00000000
_cell_angle_gamma   90.00000000
_symmetry_Int_Tables_number   1
_chemical_formula_structural   MgAl
_chemical_formula_sum   'Mg8 Al8'
_cell_volume   300.73039983
_cell_formula_units_Z   8
loop_
 _symmetry_equiv_pos_site_id
 _symmetry_equiv_pos_as_xyz
  1  'x, y, z'
loop_
 _atom_site_type_symbol
 _atom_site_label
 _atom_site_symmetry_multiplicity
 _atom_site_fract_x
 _atom_site_fract_y
 _atom_site_fract_z
 _atom_site_occupancy
  Mg  Mg0_0  1  0.25000000  0.25000000  0.25000000  1
  Mg  Mg0_1  1  0.25000000  0.25000000  0.75000000  1
  Mg  Mg0_2  1  0.25000000  0.75000000  0.25000000  1
  Mg  Mg0_3  1  0.25000000  0.75000000  0.75000000  1
  Mg  Mg0_4  1  0.75000000  0.25000000  0.25000000  1
  Mg  Mg0_5  1  0.75000000  0.25000000  0.75000000  1
  Mg  Mg0_6  1  0.75000000  0.75000000  0.25000000  1
  Mg  Mg0_7  1  0.75000000  0.75000000  0.75000000  1
  Al  Al0_0  1  0.00000000  0.00000000  0.00000000  1
  Al  Al0_1  1  0.00000000  0.00000000  0.50000000  1
  Al  Al0_2  1  0.00000000  0.50000000  0.00000000  1
  Al  Al0_3  1  0.00000000  0.50000000  0.50000000  1
  Al  Al0_4  1  0.50000000  0.00000000  0.00000000  1
  Al  Al0_5  1  0.50000000  0.00000000  0.50000000  1
  Al  Al0_6  1  0.50000000  0.50000000  0.00000000  1
  Al  Al0_7  1  0.50000000  0.50000000  0.50000000  1
loop_
_geom_bond_atom_site_label_1
_geom_bond_atom_site_label_2
_geom_bond_distance
_geom_bond_site_symmetry_2
Mg0_0 Mg0_2 3.000126 1_545
Mg0_0 Mg0_4 3.000126 1_455
Mg0_0 Mg0_4 3.000126 1_555
Mg0_0 Mg0_2 3.000126 1_555
Mg0_1 Mg0_5 3.000126 1_555
Mg0_1 Mg0_3 3.000126 1_545
Mg0_1 Mg0_3 3.000126 1_555
Mg0_1 Mg0_5 3.000126 1_455
Mg0_2 Mg0_6 3.000126 1_455
Mg0_2 Mg0_6 3.000126 1_555
Mg0_3 Mg0_7 3.000126 1_455
Mg0_3 Mg0_7 3.000126 1_555
Mg0_4 Mg0_6 3.000126 1_555
Mg0_4 Mg0_6 3.000126 1_545
Mg0_5 Mg0_7 3.000126 1_555
Mg0_5 Mg0_7 3.000126 1_545
Al0_0 Mg0_5 2.976757 1_454
Al0_0 Mg0_1 2.976757 1_554
Al0_0 Mg0_7 2.976757 1_444
Al0_0 Mg0_3 2.976757 1_544
Al0_0 Mg0_6 2.976757 1_445
Al0_0 Mg0_0 2.976757 1_555
Al0_0 Mg0_2 2.976757 1_545
Al0_0 Mg0_4 2.976757 1_455
Al0_0 Al0_4 3.000126 1_555
Al0_0 Al0_4 3.000126 1_455
Al0_0 Al0_2 3.000126 1_545
Al0_0 Al0_2 3.000126 1_555
Al0_1 Mg0_6 2.976757 1_445
Al0_1 Mg0_0 2.976757 1_555
Al0_1 Mg0_2 2.976757 1_545
Al0_1 Mg0_4 2.976757 1_455
Al0_1 Mg0_3 2.976757 1_545
Al0_1 Mg0_7 2.976757 1_445
Al0_1 Mg0_5 2.976757 1_455
Al0_1 Mg0_1 2.976757 1_555
Al0_1 Al0_5 3.000126 1_555
Al0_1 Al0_5 3.000126 1_455
Al0_1 Al0_3 3.000126 1_555
Al0_1 Al0_3 3.000126 1_545
Al0_2 Mg0_3 2.976757 1_554
Al0_2 Mg0_5 2.976757 1_454
Al0_2 Mg0_1 2.976757 1_554
Al0_2 Mg0_7 2.976757 1_454
Al0_2 Mg0_2 2.976757 1_555
Al0_2 Mg0_6 2.976757 1_455
Al0_2 Mg0_0 2.976757 1_555
Al0_2 Mg0_4 2.976757 1_455
Al0_2 Al0_6 3.000126 1_455
Al0_2 Al0_6 3.000126 1_555
Al0_3 Mg0_2 2.976757 1_555
Al0_3 Mg0_6 2.976757 1_455
Al0_3 Mg0_0 2.976757 1_555
Al0_3 Mg0_4 2.976757 1_455
Al0_3 Mg0_7 2.976757 1_455
Al0_3 Mg0_3 2.976757 1_555
Al0_3 Mg0_5 2.976757 1_455
Al0_3 Mg0_1 2.976757 1_555
Al0_3 Al0_7 3.000126 1_455
Al0_3 Al0_7 3.000126 1_555
Al0_4 Mg0_5 2.976757 1_554
Al0_4 Mg0_1 2.976757 1_554
Al0_4 Mg0_3 2.976757 1_544
Al0_4 Mg0_7 2.976757 1_544
Al0_4 Mg0_4 2.976757 1_555
Al0_4 Mg0_0 2.976757 1_555
Al0_4 Mg0_2 2.976757 1_545
Al0_4 Mg0_6 2.976757 1_545
Al0_4 Al0_6 3.000126 1_545
Al0_4 Al0_6 3.000126 1_555
Al0_5 Mg0_0 2.976757 1_555
Al0_5 Mg0_2 2.976757 1_545
Al0_5 Mg0_4 2.976757 1_555
Al0_5 Mg0_6 2.976757 1_545
Al0_5 Mg0_3 2.976757 1_545
Al0_5 Mg0_7 2.976757 1_545
Al0_5 Mg0_1 2.976757 1_555
Al0_5 Mg0_5 2.976757 1_555
Al0_5 Al0_7 3.000126 1_545
Al0_5 Al0_7 3.000126 1_555
Al0_6 Mg0_3 2.976757 1_554
Al0_6 Mg0_5 2.976757 1_554
Al0_6 Mg0_1 2.976757 1_554
Al0_6 Mg0_7 2.976757 1_554
Al0_6 Mg0_2 2.976757 1_555
Al0_6 Mg0_0 2.976757 1_555
Al0_6 Mg0_6 2.976757 1_555
Al0_6 Mg0_4 2.976757 1_555
Al0_7 Mg0_2 2.976757 1_555
Al0_7 Mg0_0 2.976757 1_555
Al0_7 Mg0_6 2.976757 1_555
Al0_7 Mg0_4 2.976757 1_555
Al0_7 Mg0_3 2.976757 1_555
Al0_7 Mg0_7 2.976757 1_555
Al0_7 Mg0_1 2.976757 1_555
Al0_7 Mg0_5 2.976757 1_555
