# generated using pymatgen
data_Er4In5S13
_symmetry_space_group_name_H-M   'P 1'
_cell_length_a   3.84725800
_cell_length_b   11.84737000
_cell_length_c   21.49718600
_cell_angle_alpha   90.00000000
_cell_angle_beta   90.00000000
_cell_angle_gamma   90.00000000
_symmetry_Int_Tables_number   1
_chemical_formula_structural   Er4In5S13
_chemical_formula_sum   'Er8 In10 S26'
_cell_volume   979.83935194
_cell_formula_units_Z   2
loop_
 _symmetry_equiv_pos_site_id
 _symmetry_equiv_pos_as_xyz
  1  'x, y, z'
loop_
 _atom_site_type_symbol
 _atom_site_label
 _atom_site_symmetry_multiplicity
 _atom_site_fract_x
 _atom_site_fract_y
 _atom_site_fract_z
 _atom_site_occupancy
  Er  Er0  1  0.00000000  0.67195200  0.34025800  1
  Er  Er1  1  0.00000000  0.32804800  0.65974200  1
  Er  Er2  1  0.00000000  0.82804800  0.84025800  1
  Er  Er3  1  0.00000000  0.17195200  0.15974200  1
  Er  Er4  1  0.00000000  0.51467300  0.17194600  1
  Er  Er5  1  0.00000000  0.48532700  0.82805400  1
  Er  Er6  1  0.00000000  0.98532700  0.67194600  1
  Er  Er7  1  0.00000000  0.01467300  0.32805400  1
  In  In0  1  0.00000000  0.50000000  0.50000000  1
  In  In1  1  0.00000000  0.00000000  0.00000000  1
  In  In2  1  0.50000000  0.84501500  0.49310700  1
  In  In3  1  0.50000000  0.15498500  0.50689300  1
  In  In4  1  0.50000000  0.65498500  0.99310700  1
  In  In5  1  0.50000000  0.34501500  0.00689300  1
  In  In6  1  0.50000000  0.84419400  0.17106600  1
  In  In7  1  0.50000000  0.15580600  0.82893400  1
  In  In8  1  0.50000000  0.65580600  0.67106600  1
  In  In9  1  0.50000000  0.34419400  0.32893400  1
  S  S0  1  0.50000000  0.84836300  0.36523900  1
  S  S1  1  0.50000000  0.15163700  0.63476100  1
  S  S2  1  0.50000000  0.65163700  0.86523900  1
  S  S3  1  0.50000000  0.34836300  0.13476100  1
  S  S4  1  0.50000000  0.57952500  0.26103500  1
  S  S5  1  0.50000000  0.42047500  0.73896500  1
  S  S6  1  0.50000000  0.92047500  0.76103500  1
  S  S7  1  0.50000000  0.07952500  0.23896500  1
  S  S8  1  0.50000000  0.50653400  0.40462500  1
  S  S9  1  0.50000000  0.49346600  0.59537500  1
  S  S10  1  0.50000000  0.99346600  0.90462500  1
  S  S11  1  0.50000000  0.00653400  0.09537500  1
  S  S12  1  0.00000000  0.70310700  0.47244000  1
  S  S13  1  0.00000000  0.29689300  0.52756000  1
  S  S14  1  0.00000000  0.79689300  0.97244000  1
  S  S15  1  0.00000000  0.20310700  0.02756000  1
  S  S16  1  0.00000000  0.83236100  0.24374900  1
  S  S17  1  0.00000000  0.16763900  0.75625100  1
  S  S18  1  0.00000000  0.66763900  0.74374900  1
  S  S19  1  0.00000000  0.33236100  0.25625100  1
  S  S20  1  0.50000000  0.65463800  0.11596200  1
  S  S21  1  0.50000000  0.34536200  0.88403800  1
  S  S22  1  0.50000000  0.84536200  0.61596200  1
  S  S23  1  0.50000000  0.15463800  0.38403800  1
  S  S24  1  0.00000000  0.00000000  0.50000000  1
  S  S25  1  0.00000000  0.50000000  0.00000000  1
loop_
_geom_bond_atom_site_label_1
_geom_bond_atom_site_label_2
_geom_bond_distance
_geom_bond_site_symmetry_2
Er0 S4 2.792824 1_555
Er0 S4 2.792824 1_455
Er0 S16 2.813517 1_555
Er0 S12 2.865413 1_555
Er0 S0 2.890825 1_455
Er0 S0 2.890825 1_555
Er0 S8 3.075011 1_555
Er0 S8 3.075011 1_455
Er1 S5 2.792824 1_455
Er1 S5 2.792824 1_555
Er1 S17 2.813517 1_555
Er1 S13 2.865413 1_555
Er1 S1 2.890825 1_455
Er1 S1 2.890825 1_555
Er1 S9 3.075011 1_555
Er1 S9 3.075011 1_455
Er2 S6 2.792824 1_455
Er2 S6 2.792824 1_555
Er2 S18 2.813517 1_555
Er2 S14 2.865413 1_555
Er2 S2 2.890825 1_455
Er2 S2 2.890825 1_555
Er2 S10 3.075011 1_455
Er2 S10 3.075011 1_555
Er3 S7 2.792824 1_555
Er3 S7 2.792824 1_455
Er3 S19 2.813517 1_555
Er3 S15 2.865413 1_555
Er3 S3 2.890825 1_555
Er3 S3 2.890825 1_455
Er3 S11 3.075011 1_555
Er3 S11 3.075011 1_455
Er4 S20 2.810417 1_455
Er4 S20 2.810417 1_555
Er4 S19 2.819530 1_555
Er4 S4 2.821085 1_555
Er4 S4 2.821085 1_455
Er4 S3 2.867328 1_455
Er4 S3 2.867328 1_555
Er5 S21 2.810417 1_555
Er5 S21 2.810417 1_455
Er5 S18 2.819530 1_555
Er5 S5 2.821085 1_555
Er5 S5 2.821085 1_455
Er5 S2 2.867328 1_455
Er5 S2 2.867328 1_555
Er6 S22 2.810417 1_455
Er6 S22 2.810417 1_555
Er6 S17 2.819530 1_565
Er6 S6 2.821085 1_455
Er6 S6 2.821085 1_555
Er6 S1 2.867328 1_465
Er6 S1 2.867328 1_565
Er7 S23 2.810417 1_555
Er7 S23 2.810417 1_455
Er7 S16 2.819530 1_545
Er7 S7 2.821085 1_555
Er7 S7 2.821085 1_455
Er7 S0 2.867328 1_445
Er7 S0 2.867328 1_545
In0 S12 2.478147 1_555
In0 S13 2.478147 1_555
In0 S9 2.812481 1_455
In0 S9 2.812481 1_555
In0 S8 2.812481 1_455
In0 S8 2.812481 1_555
In1 S15 2.478147 1_555
In1 S14 2.478147 1_544
In1 S11 2.812481 1_455
In1 S10 2.812481 1_444
In1 S10 2.812481 1_544
In1 S11 2.812481 1_555
In2 S12 2.593124 1_555
In2 S12 2.593124 1_655
In2 S22 2.641040 1_555
In2 S24 2.663420 1_665
In2 S24 2.663420 1_565
In2 S0 2.749088 1_555
In3 S13 2.593124 1_555
In3 S13 2.593124 1_655
In3 S23 2.641040 1_555
In3 S24 2.663420 1_555
In3 S24 2.663420 1_655
In3 S1 2.749088 1_555
In4 S14 2.593124 1_655
In4 S14 2.593124 1_555
In4 S20 2.641040 1_556
In4 S25 2.663420 1_556
In4 S25 2.663420 1_656
In4 S2 2.749088 1_555
In5 S15 2.593124 1_555
In5 S15 2.593124 1_655
In5 S21 2.641040 1_554
In5 S25 2.663420 1_555
In5 S25 2.663420 1_655
In5 S3 2.749088 1_555
In6 S16 2.482206 1_555
In6 S16 2.482206 1_655
In6 S11 2.519263 1_565
In6 S20 2.539012 1_555
In7 S17 2.482206 1_555
In7 S17 2.482206 1_655
In7 S10 2.519263 1_545
In7 S21 2.539012 1_555
In8 S18 2.482206 1_655
In8 S18 2.482206 1_555
In8 S9 2.519263 1_555
In8 S22 2.539012 1_555
In9 S19 2.482206 1_655
In9 S19 2.482206 1_555
In9 S8 2.519263 1_555
In9 S23 2.539012 1_555
