# generated using pymatgen
data_NaCaTiBiO6
_symmetry_space_group_name_H-M   'P 1'
_cell_length_a   5.71061378
_cell_length_b   5.71061378
_cell_length_c   5.71061378
_cell_angle_alpha   60.00000000
_cell_angle_beta   60.00000000
_cell_angle_gamma   60.00000000
_symmetry_Int_Tables_number   1
_chemical_formula_structural   NaCaTiBiO6
_chemical_formula_sum   'Na1 Ca1 Ti1 Bi1 O6'
_cell_volume   131.68410899
_cell_formula_units_Z   1
loop_
 _symmetry_equiv_pos_site_id
 _symmetry_equiv_pos_as_xyz
  1  'x, y, z'
loop_
 _atom_site_type_symbol
 _atom_site_label
 _atom_site_symmetry_multiplicity
 _atom_site_fract_x
 _atom_site_fract_y
 _atom_site_fract_z
 _atom_site_occupancy
  Na  Na0  1  0.25000000  0.25000000  0.25000000  1
  Ca  Ca0  1  0.75000000  0.75000000  0.75000000  1
  Ti  Ti0  1  0.50000000  0.50000000  0.50000000  1
  Bi  Bi0  1  0.00000000  0.00000000  0.00000000  1
  O  O0  1  0.74147326  0.25852674  0.25852674  1
  O  O1  1  0.25852674  0.74147326  0.74147326  1
  O  O2  1  0.74147326  0.25852674  0.74147326  1
  O  O3  1  0.25852674  0.74147326  0.25852674  1
  O  O4  1  0.74147326  0.74147326  0.25852674  1
  O  O5  1  0.25852674  0.25852674  0.74147326  1
loop_
_geom_bond_atom_site_label_1
_geom_bond_atom_site_label_2
_geom_bond_distance
_geom_bond_site_symmetry_2
Na0 O2 2.856137 1_455
Na0 O1 2.856137 1_554
Na0 O5 2.856137 1_555
Na0 O5 2.856137 1_554
Na0 O3 2.856137 1_545
Na0 O2 2.856137 1_554
Na0 O4 2.856137 1_545
Na0 O3 2.856137 1_555
Na0 O1 2.856137 1_545
Na0 O0 2.856137 1_455
Na0 O0 2.856137 1_555
Na0 O4 2.856137 1_455
Ca0 O4 2.856137 1_555
Ca0 O1 2.856137 1_555
Ca0 O4 2.856137 1_556
Ca0 O0 2.856137 1_565
Ca0 O3 2.856137 1_655
Ca0 O5 2.856137 1_565
Ca0 O1 2.856137 1_655
Ca0 O5 2.856137 1_655
Ca0 O3 2.856137 1_556
Ca0 O0 2.856137 1_556
Ca0 O2 2.856137 1_555
Ca0 O2 2.856137 1_565
Bi0 O5 2.087869 1_554
Bi0 O0 2.087869 1_455
Bi0 O3 2.087869 1_545
Bi0 O2 2.087869 1_454
Bi0 O4 2.087869 1_445
Bi0 O1 2.087869 1_544
O0 Ti0 1.950145 1_555
O1 Ti0 1.950145 1_555
O2 Ti0 1.950145 1_555
O3 Ti0 1.950145 1_555
O4 Ti0 1.950145 1_555
O5 Ti0 1.950145 1_555
