# generated using pymatgen
data_Li5Co3O8
_symmetry_space_group_name_H-M   'P 1'
_cell_length_a   5.84107900
_cell_length_b   4.96749600
_cell_length_c   5.06098776
_cell_angle_alpha   70.89312037
_cell_angle_beta   90.00000000
_cell_angle_gamma   90.00000000
_symmetry_Int_Tables_number   1
_chemical_formula_structural   Li5Co3O8
_chemical_formula_sum   'Li5 Co3 O8'
_cell_volume   138.75740260
_cell_formula_units_Z   1
loop_
 _symmetry_equiv_pos_site_id
 _symmetry_equiv_pos_as_xyz
  1  'x, y, z'
loop_
 _atom_site_type_symbol
 _atom_site_label
 _atom_site_symmetry_multiplicity
 _atom_site_fract_x
 _atom_site_fract_y
 _atom_site_fract_z
 _atom_site_occupancy
  Li  Li0  1  0.50000000  0.00000000  0.50000000  1
  Li  Li1  1  0.74232400  0.50000000  0.50000000  1
  Li  Li2  1  0.00000000  0.00000000  0.50000000  1
  Li  Li3  1  0.25767600  0.50000000  0.50000000  1
  Li  Li4  1  0.50000000  0.50000000  0.00000000  1
  Co  Co0  1  0.25532100  0.00000000  0.00000000  1
  Co  Co1  1  0.74467900  0.00000000  0.00000000  1
  Co  Co2  1  0.00000000  0.50000000  0.00000000  1
  O  O0  1  0.22901700  0.25454300  0.21932900  1
  O  O1  1  0.50000000  0.77788400  0.24005400  1
  O  O2  1  0.77098300  0.25454300  0.21932900  1
  O  O3  1  0.00000000  0.74517700  0.22471700  1
  O  O4  1  0.77098300  0.74545700  0.78067100  1
  O  O5  1  0.00000000  0.25482300  0.77528300  1
  O  O6  1  0.22901700  0.74545700  0.78067100  1
  O  O7  1  0.50000000  0.22211600  0.75994600  1
loop_
_geom_bond_atom_site_label_1
_geom_bond_atom_site_label_2
_geom_bond_distance
_geom_bond_site_symmetry_2
Li0 O7 1.974449 1_555
Li0 O1 1.974449 1_545
Li0 O2 2.223977 1_555
Li0 O0 2.223977 1_555
Li0 O6 2.223977 1_545
Li0 O4 2.223977 1_545
Li1 O1 2.109693 1_555
Li1 O7 2.109693 1_555
Li1 O5 2.139824 1_655
Li1 O3 2.139824 1_655
Li1 O4 2.160172 1_555
Li1 O2 2.160172 1_555
Li2 O0 2.056738 1_555
Li2 O2 2.056738 1_455
Li2 O6 2.056738 1_545
Li2 O4 2.056738 1_445
Li2 O5 2.167461 1_555
Li2 O3 2.167461 1_545
Li3 O1 2.109693 1_555
Li3 O7 2.109693 1_555
Li3 O5 2.139824 1_555
Li3 O3 2.139824 1_555
Li3 O6 2.160172 1_555
Li3 O0 2.160172 1_555
Li4 O4 2.082825 1_554
Li4 O6 2.082825 1_554
Li4 O2 2.082825 1_555
Li4 O0 2.082825 1_555
Li4 O1 2.116454 1_555
Li4 O7 2.116454 1_554
Co0 O0 1.942530 1_555
Co0 O6 1.942530 1_544
Co0 O7 1.964288 1_554
Co0 O1 1.964288 1_545
Co0 O5 2.043874 1_554
Co0 O3 2.043874 1_545
Co1 O2 1.942530 1_555
Co1 O4 1.942530 1_544
Co1 O7 1.964288 1_554
Co1 O1 1.964288 1_545
Co1 O5 2.043874 1_654
Co1 O3 2.043874 1_645
Co2 O6 1.903223 1_554
Co2 O4 1.903223 1_454
Co2 O0 1.903223 1_555
Co2 O2 1.903223 1_455
Co2 O3 1.919254 1_555
Co2 O5 1.919254 1_554
