# generated using pymatgen
data_Sr2NdTaO6
_symmetry_space_group_name_H-M   'P 1'
_cell_length_a   5.89695003
_cell_length_b   6.07715200
_cell_length_c   8.44091372
_cell_angle_alpha   90.00000000
_cell_angle_beta   90.16872382
_cell_angle_gamma   90.00000000
_symmetry_Int_Tables_number   1
_chemical_formula_structural   Sr2NdTaO6
_chemical_formula_sum   'Sr4 Nd2 Ta2 O12'
_cell_volume   302.49285773
_cell_formula_units_Z   2
loop_
 _symmetry_equiv_pos_site_id
 _symmetry_equiv_pos_as_xyz
  1  'x, y, z'
loop_
 _atom_site_type_symbol
 _atom_site_label
 _atom_site_symmetry_multiplicity
 _atom_site_fract_x
 _atom_site_fract_y
 _atom_site_fract_z
 _atom_site_occupancy
  Sr  Sr0  1  0.01188100  0.45440400  0.25333700  1
  Sr  Sr1  1  0.98811900  0.54559600  0.74666300  1
  Sr  Sr2  1  0.48811900  0.95440400  0.24666300  1
  Sr  Sr3  1  0.51188100  0.04559600  0.75333700  1
  Nd  Nd0  1  0.00000000  0.00000000  0.50000000  1
  Nd  Nd1  1  0.50000000  0.50000000  0.00000000  1
  Ta  Ta0  1  0.00000000  0.00000000  0.00000000  1
  Ta  Ta1  1  0.50000000  0.50000000  0.50000000  1
  O  O0  1  0.90608600  0.03738500  0.22865700  1
  O  O1  1  0.09391400  0.96261500  0.77134300  1
  O  O2  1  0.59391400  0.53738500  0.27134300  1
  O  O3  1  0.40608600  0.46261500  0.72865700  1
  O  O4  1  0.18292900  0.72727800  0.05607800  1
  O  O5  1  0.81707100  0.27272200  0.94392200  1
  O  O6  1  0.31707100  0.22727800  0.44392200  1
  O  O7  1  0.68292900  0.77272200  0.55607800  1
  O  O8  1  0.27600900  0.18577900  0.04434700  1
  O  O9  1  0.72399100  0.81422100  0.95565300  1
  O  O10  1  0.22399100  0.68577900  0.45565300  1
  O  O11  1  0.77600900  0.31422100  0.54434700  1
loop_
_geom_bond_atom_site_label_1
_geom_bond_atom_site_label_2
_geom_bond_distance
_geom_bond_site_symmetry_2
Nd0 O11 2.352481 1_455
Nd0 O10 2.352481 1_545
Nd0 O0 2.365735 1_455
Nd0 O1 2.365735 1_545
Nd0 O6 2.373387 1_555
Nd0 O7 2.373387 1_445
Nd1 O9 2.352481 1_554
Nd1 O8 2.352481 1_555
Nd1 O2 2.365735 1_555
Nd1 O3 2.365735 1_554
Nd1 O4 2.373387 1_555
Nd1 O5 2.373387 1_554
O0 Ta0 2.022325 1_655
O0 Sr2 2.520815 1_545
O0 Sr0 2.618102 1_655
O1 Ta0 2.022325 1_566
O1 Sr3 2.520815 1_565
O1 Sr1 2.618102 1_455
O2 Ta1 2.022325 1_555
O2 Sr0 2.520815 1_655
O2 Sr2 2.618102 1_555
O3 Ta1 2.022325 1_555
O3 Sr1 2.520815 1_455
O3 Sr3 2.618102 1_555
O4 Ta0 2.032629 1_565
O4 Sr0 2.559222 1_555
O4 Sr2 2.777581 1_555
O4 Sr1 3.056519 1_454
O5 Ta0 2.032629 1_656
O5 Sr1 2.559222 1_555
O5 Sr3 2.777581 1_555
O5 Sr0 3.056519 1_656
O6 Ta1 2.032629 1_555
O6 Sr2 2.559222 1_545
O6 Sr0 2.777581 1_555
O6 Sr3 3.056519 1_555
O7 Ta1 2.032629 1_555
O7 Sr3 2.559222 1_565
O7 Sr1 2.777581 1_555
O7 Sr2 3.056519 1_555
O8 Ta0 2.015021 1_555
O8 Sr2 2.538778 1_545
O8 Sr0 2.866888 1_555
O8 Sr3 2.952017 1_554
O9 Ta0 2.015021 1_666
O9 Sr3 2.538778 1_565
O9 Sr1 2.866888 1_555
O9 Sr2 2.952017 1_556
O10 Ta1 2.015021 1_555
O10 Sr0 2.538778 1_555
O10 Sr2 2.866888 1_555
O10 Sr1 2.952017 1_455
O11 Ta1 2.015021 1_555
O11 Sr1 2.538778 1_555
O11 Sr3 2.866888 1_555
O11 Sr0 2.952017 1_655
