# generated using pymatgen
data_Eu(BOs)4
_symmetry_space_group_name_H-M   'P 1'
_cell_length_a   7.58663800
_cell_length_b   7.58663800
_cell_length_c   4.03560600
_cell_angle_alpha   90.00000000
_cell_angle_beta   90.00000000
_cell_angle_gamma   90.00000000
_symmetry_Int_Tables_number   1
_chemical_formula_structural   Eu(BOs)4
_chemical_formula_sum   'Eu2 B8 Os8'
_cell_volume   232.27768183
_cell_formula_units_Z   2
loop_
 _symmetry_equiv_pos_site_id
 _symmetry_equiv_pos_as_xyz
  1  'x, y, z'
loop_
 _atom_site_type_symbol
 _atom_site_label
 _atom_site_symmetry_multiplicity
 _atom_site_fract_x
 _atom_site_fract_y
 _atom_site_fract_z
 _atom_site_occupancy
  Eu  Eu0  1  0.00000000  0.00000000  0.00000000  1
  Eu  Eu1  1  0.50000000  0.50000000  0.50000000  1
  B  B0  1  0.66648900  0.78738600  0.11323200  1
  B  B1  1  0.33351100  0.21261400  0.11323200  1
  B  B2  1  0.28738600  0.83351100  0.61323200  1
  B  B3  1  0.71261400  0.16648900  0.61323200  1
  B  B4  1  0.83351100  0.71261400  0.38676800  1
  B  B5  1  0.16648900  0.28738600  0.38676800  1
  B  B6  1  0.21261400  0.66648900  0.88676800  1
  B  B7  1  0.78738600  0.33351100  0.88676800  1
  Os  Os0  1  0.14426100  0.39052100  0.88493500  1
  Os  Os1  1  0.85573900  0.60947900  0.88493500  1
  Os  Os2  1  0.89052100  0.35573900  0.38493500  1
  Os  Os3  1  0.10947900  0.64426100  0.38493500  1
  Os  Os4  1  0.35573900  0.10947900  0.61506500  1
  Os  Os5  1  0.64426100  0.89052100  0.61506500  1
  Os  Os6  1  0.60947900  0.14426100  0.11506500  1
  Os  Os7  1  0.39052100  0.85573900  0.11506500  1
loop_
_geom_bond_atom_site_label_1
_geom_bond_atom_site_label_2
_geom_bond_distance
_geom_bond_site_symmetry_2
Eu0 Os1 3.192381 1_444
Eu0 Os7 3.192381 1_545
Eu0 Os6 3.192381 1_455
Eu0 Os0 3.192381 1_554
Eu0 Os3 3.222874 1_545
Eu0 Os2 3.222874 1_455
Eu0 Os5 3.222874 1_444
Eu0 Os4 3.222874 1_554
Eu1 Os4 3.192381 1_555
Eu1 Os5 3.192381 1_555
Eu1 Os2 3.192381 1_555
Eu1 Os3 3.192381 1_555
Eu1 Os0 3.222874 1_555
Eu1 Os7 3.222874 1_555
Eu1 Os1 3.222874 1_555
Eu1 Os6 3.222874 1_555
B0 B4 1.773692 1_555
B0 Os7 2.156947 1_555
B0 Os5 2.163884 1_554
B0 Os1 2.175315 1_554
B0 Os5 2.177636 1_555
B0 Os6 2.741820 1_565
B0 Eu1 2.964003 1_555
B0 Eu0 3.035245 1_665
B1 B5 1.773692 1_555
B1 Os6 2.156947 1_555
B1 Os4 2.163884 1_554
B1 Os0 2.175315 1_554
B1 Os4 2.177636 1_555
B1 Os7 2.741820 1_545
B1 Eu1 2.964003 1_555
B1 Eu0 3.035245 1_555
B2 B6 1.773692 1_555
B2 Os4 2.156947 1_565
B2 Os7 2.163884 1_555
B2 Os3 2.175315 1_555
B2 Os7 2.177636 1_556
B2 Os5 2.741820 1_555
B2 Eu0 2.964003 1_566
B2 Eu1 3.035245 1_555
B3 B7 1.773692 1_555
B3 Os5 2.156947 1_545
B3 Os6 2.163884 1_555
B3 Os2 2.175315 1_555
B3 Os6 2.177636 1_556
B3 Os4 2.741820 1_555
B3 Eu0 2.964003 1_656
B3 Eu1 3.035245 1_555
B4 Os3 2.156947 1_655
B4 Os1 2.163884 1_555
B4 Os5 2.175315 1_555
B4 Os1 2.177636 1_554
B4 Os2 2.741820 1_555
B4 Eu0 2.964003 1_665
B4 Eu1 3.035245 1_555
B5 Os2 2.156947 1_455
B5 Os0 2.163884 1_555
B5 Os4 2.175315 1_555
B5 Os0 2.177636 1_554
B5 Os3 2.741820 1_555
B5 Eu0 2.964003 1_555
B5 Eu1 3.035245 1_555
B6 Os0 2.156947 1_555
B6 Os3 2.163884 1_556
B6 Os7 2.175315 1_556
B6 Os3 2.177636 1_555
B6 Os1 2.741820 1_455
B6 Eu1 2.964003 1_555
B6 Eu0 3.035245 1_566
B7 Os1 2.156947 1_555
B7 Os2 2.163884 1_556
B7 Os6 2.175315 1_556
B7 Os2 2.177636 1_555
B7 Os0 2.741820 1_655
B7 Eu1 2.964003 1_555
B7 Eu0 3.035245 1_656
