# generated using pymatgen
data_Sm6Ni20As13
_symmetry_space_group_name_H-M   'P 1'
_cell_length_a   13.07051665
_cell_length_b   13.07041921
_cell_length_c   3.92093050
_cell_angle_alpha   90.00000000
_cell_angle_beta   90.00000000
_cell_angle_gamma   119.99707064
_symmetry_Int_Tables_number   1
_chemical_formula_structural   Sm6Ni20As13
_chemical_formula_sum   'Sm6 Ni20 As13'
_cell_volume   580.11603040
_cell_formula_units_Z   1
loop_
 _symmetry_equiv_pos_site_id
 _symmetry_equiv_pos_as_xyz
  1  'x, y, z'
loop_
 _atom_site_type_symbol
 _atom_site_label
 _atom_site_symmetry_multiplicity
 _atom_site_fract_x
 _atom_site_fract_y
 _atom_site_fract_z
 _atom_site_occupancy
  Sm  Sm0  1  0.18623031  0.46902234  -0.00000000  1
  Sm  Sm1  1  0.53095463  0.71721221  -0.00000000  1
  Sm  Sm2  1  0.28278558  0.81374874  -0.00000000  1
  Sm  Sm3  1  0.72034893  0.18742234  0.50000000  1
  Sm  Sm4  1  0.81259953  0.53292741  0.50000000  1
  Sm  Sm5  1  0.46706137  0.27967145  0.50000000  1
  Ni  Ni0  1  0.08756782  0.19755552  0.00000000  1
  Ni  Ni1  1  0.80243363  0.89003126  -0.00000000  1
  Ni  Ni2  1  0.10999703  0.91238047  0.00000000  1
  Ni  Ni3  1  0.33330913  0.66665950  0.50000000  1
  Ni  Ni4  1  0.92063090  0.06391465  0.50000000  1
  Ni  Ni5  1  0.93612946  0.85672816  0.50000000  1
  Ni  Ni6  1  0.14325445  0.07934764  0.50000000  1
  Ni  Ni7  1  0.66668684  0.33334468  0.00000000  1
  Ni  Ni8  1  0.41492526  0.43693200  0.00000000  1
  Ni  Ni9  1  0.56306641  0.97801144  -0.00000000  1
  Ni  Ni10  1  0.02200270  0.58506067  0.00000000  1
  Ni  Ni11  1  0.24108558  0.31131703  0.50000000  1
  Ni  Ni12  1  0.68866854  0.92981258  0.50000000  1
  Ni  Ni13  1  0.07022033  0.75886516  0.50000000  1
  Ni  Ni14  1  0.43566637  0.02294562  0.50000000  1
  Ni  Ni15  1  0.97707291  0.41275511  0.50000000  1
  Ni  Ni16  1  0.58727186  0.56432174  0.50000000  1
  Ni  Ni17  1  0.92380550  0.24436419  0.00000000  1
  Ni  Ni18  1  0.75569952  0.67947823  0.00000000  1
  Ni  Ni19  1  0.32053291  0.07619885  -0.00000000  1
  As  As0  1  0.38492054  0.51996972  0.50000000  1
  As  As1  1  0.47997700  0.86494680  0.50000000  1
  As  As2  1  0.13504560  0.61506169  0.50000000  1
  As  As3  1  0.04147682  0.27410417  0.50000000  1
  As  As4  1  0.72589137  0.76736476  0.50000000  1
  As  As5  1  0.23264330  0.95852828  0.50000000  1
  As  As6  1  0.52328254  0.13589688  -0.00000000  1
  As  As7  1  0.86411476  0.38739143  -0.00000000  1
  As  As8  1  0.61261627  0.47672008  0.00000000  1
  As  As9  1  0.76755108  0.04619073  0.00000000  1
  As  As10  1  0.95383644  0.72136712  -0.00000000  1
  As  As11  1  0.27862372  0.23245355  0.00000000  1
  As  As12  1  0.00001309  0.99997784  -0.00000000  1
loop_
_geom_bond_atom_site_label_1
_geom_bond_atom_site_label_2
_geom_bond_distance
_geom_bond_site_symmetry_2
Ni0 Sm0 3.110849 1_555
Ni1 Sm1 3.111074 1_555
Ni2 Sm2 3.110254 1_555
Ni3 Sm2 3.040567 1_555
Ni3 Sm2 3.040567 1_556
Ni3 Sm0 3.040799 1_555
Ni3 Sm0 3.040799 1_556
Ni3 Sm1 3.040859 1_555
Ni3 Sm1 3.040859 1_556
Ni7 Sm3 3.051337 1_554
Ni7 Sm3 3.051337 1_555
Ni7 Sm4 3.051392 1_555
Ni7 Sm4 3.051392 1_554
Ni7 Sm5 3.051763 1_554
Ni7 Sm5 3.051763 1_555
Ni8 Sm5 3.151710 1_554
Ni8 Sm5 3.151710 1_555
Ni8 Sm1 3.188269 1_555
Ni8 Sm0 3.219418 1_555
Ni9 Sm3 3.151973 1_565
Ni9 Sm3 3.151973 1_564
Ni9 Sm2 3.188346 1_555
Ni9 Sm1 3.219501 1_555
Ni10 Sm4 3.151841 1_454
Ni10 Sm4 3.151841 1_455
Ni10 Sm0 3.187981 1_555
Ni10 Sm2 3.219514 1_555
Ni11 Sm0 3.175551 1_556
Ni11 Sm0 3.175551 1_555
Ni11 Sm5 3.180649 1_555
Ni12 Sm1 3.175961 1_555
Ni12 Sm1 3.175961 1_556
Ni12 Sm3 3.180330 1_565
Ni13 Sm2 3.175580 1_555
Ni13 Sm2 3.175580 1_556
Ni13 Sm4 3.180594 1_455
Ni14 Sm2 3.138381 1_546
Ni14 Sm2 3.138381 1_545
Ni14 Sm5 3.170339 1_555
Ni14 Sm3 3.235506 1_555
Ni15 Sm0 3.138084 1_655
Ni15 Sm0 3.138084 1_656
Ni15 Sm3 3.170470 1_555
Ni15 Sm4 3.234944 1_555
Ni16 Sm1 3.138387 1_556
Ni16 Sm1 3.138387 1_555
Ni16 Sm4 3.170280 1_555
Ni16 Sm5 3.235064 1_555
Ni17 Sm3 3.080603 1_554
Ni17 Sm3 3.080603 1_555
Ni17 Sm0 3.211921 1_655
Ni18 Sm4 3.080591 1_555
Ni18 Sm4 3.080591 1_554
Ni18 Sm1 3.212631 1_555
Ni19 Sm5 3.080786 1_555
Ni19 Sm5 3.080786 1_554
Ni19 Sm2 3.212212 1_545
As0 Ni3 2.329027 1_555
As0 Ni8 2.366599 1_555
As0 Ni8 2.366599 1_556
As0 Ni16 2.407932 1_555
As0 Ni11 2.417697 1_555
As0 Sm1 3.035233 1_555
As0 Sm1 3.035233 1_556
As0 Sm0 3.049916 1_556
As0 Sm0 3.049916 1_555
As1 Ni3 2.328943 1_555
As1 Ni9 2.366851 1_556
As1 Ni9 2.366851 1_555
As1 Ni14 2.407497 1_565
As1 Ni12 2.418011 1_555
As1 Sm2 3.034732 1_555
As1 Sm2 3.034732 1_556
As1 Sm1 3.049992 1_555
As1 Sm1 3.049992 1_556
As2 Ni3 2.328671 1_555
As2 Ni10 2.366633 1_556
As2 Ni10 2.366633 1_555
As2 Ni15 2.407491 1_455
As2 Ni13 2.417256 1_555
As2 Sm0 3.035027 1_556
As2 Sm0 3.035027 1_555
As2 Sm2 3.049923 1_555
As2 Sm2 3.049923 1_556
As3 Ni15 2.349076 1_455
As3 Ni4 2.388173 1_455
As3 Ni17 2.400468 1_456
As3 Ni17 2.400468 1_455
As3 Ni11 2.403026 1_555
As3 Ni0 2.410413 1_555
As3 Ni0 2.410413 1_556
As3 Sm0 3.015613 1_556
As3 Sm0 3.015613 1_555
As4 Ni16 2.348994 1_555
As4 Ni5 2.388723 1_555
As4 Ni18 2.400473 1_555
As4 Ni18 2.400473 1_556
As4 Ni12 2.403718 1_555
As4 Ni1 2.410606 1_556
As4 Ni1 2.410606 1_555
As4 Sm1 3.015789 1_556
As4 Sm1 3.015789 1_555
As5 Ni14 2.348730 1_565
As5 Ni6 2.388235 1_565
As5 Ni19 2.400394 1_565
As5 Ni19 2.400394 1_566
As5 Ni13 2.403669 1_555
As5 Ni2 2.410432 1_556
As5 Ni2 2.410432 1_555
As5 Sm2 3.015619 1_555
As5 Sm2 3.015619 1_556
As6 Ni7 2.310108 1_555
As6 Ni19 2.358807 1_555
As6 Ni9 2.366842 1_545
As6 Ni14 2.375687 1_555
As6 Ni14 2.375687 1_554
As6 Sm3 3.032654 1_554
As6 Sm3 3.032654 1_555
As6 Sm5 3.048863 1_554
As6 Sm5 3.048863 1_555
As7 Ni7 2.309804 1_555
As7 Ni17 2.358352 1_555
As7 Ni10 2.366975 1_655
As7 Ni15 2.375655 1_554
As7 Ni15 2.375655 1_555
As7 Sm4 3.032480 1_555
As7 Sm4 3.032480 1_554
As7 Sm3 3.048742 1_554
As7 Sm3 3.048742 1_555
As8 Ni7 2.309878 1_555
As8 Ni18 2.359022 1_555
As8 Ni8 2.367164 1_555
As8 Ni16 2.375589 1_554
As8 Ni16 2.375589 1_555
As8 Sm5 3.032602 1_554
As8 Sm5 3.032602 1_555
As8 Sm4 3.048836 1_555
As8 Sm4 3.048836 1_554
As9 Ni1 2.303117 1_545
As9 Ni9 2.357120 1_545
As9 Ni17 2.364466 1_555
As9 Ni12 2.377405 1_544
As9 Ni12 2.377405 1_545
As9 Ni4 2.727077 1_555
As9 Ni4 2.727077 1_554
As9 Sm3 2.961484 1_554
As9 Sm3 2.961484 1_555
As10 Ni2 2.303001 1_655
As10 Ni10 2.356916 1_655
As10 Ni18 2.364064 1_555
As10 Ni13 2.377432 1_654
As10 Ni13 2.377432 1_655
As10 Ni5 2.727009 1_555
As10 Ni5 2.727009 1_554
As10 Sm4 2.961624 1_555
As10 Sm4 2.961624 1_554
As11 Ni0 2.303282 1_555
As11 Ni8 2.357077 1_555
As11 Ni19 2.364262 1_555
As11 Ni11 2.377469 1_554
As11 Ni11 2.377469 1_555
As11 Ni6 2.727309 1_555
As11 Ni6 2.727309 1_554
As11 Sm5 2.961529 1_554
As11 Sm5 2.961529 1_555
As12 Ni2 2.241242 1_555
As12 Ni1 2.241303 1_455
As12 Ni0 2.241317 1_565
As12 Ni6 2.546136 1_565
As12 Ni6 2.546136 1_564
As12 Ni5 2.546178 1_455
As12 Ni5 2.546178 1_454
As12 Ni4 2.546631 1_464
As12 Ni4 2.546631 1_465
