# generated using pymatgen
data_Y2BePd
_symmetry_space_group_name_H-M   'P 1'
_cell_length_a   11.50581610
_cell_length_b   11.50581610
_cell_length_c   11.50581610
_cell_angle_alpha   126.35146953
_cell_angle_beta   117.93376441
_cell_angle_gamma   86.49202601
_symmetry_Int_Tables_number   1
_chemical_formula_structural   Y2BePd
_chemical_formula_sum   'Y2 Be1 Pd1'
_cell_volume   1032.45873023
_cell_formula_units_Z   1
loop_
 _symmetry_equiv_pos_site_id
 _symmetry_equiv_pos_as_xyz
  1  'x, y, z'
loop_
 _atom_site_type_symbol
 _atom_site_label
 _atom_site_symmetry_multiplicity
 _atom_site_fract_x
 _atom_site_fract_y
 _atom_site_fract_z
 _atom_site_occupancy
  Y  Y0  1  0.00000000  0.25378900  0.25378900  1
  Y  Y1  1  0.00000000  0.74621100  0.74621100  1
  Be  Be0  1  0.00000000  0.00000000  0.00000000  1
  Pd  Pd0  1  0.00000000  0.50000000  0.50000000  1
loop_
_geom_bond_atom_site_label_1
_geom_bond_atom_site_label_2
_geom_bond_distance
_geom_bond_site_symmetry_2
Be0 Y0 2.635377 1_555
Be0 Y1 2.635377 1_544
Pd0 Y1 2.556686 1_555
Pd0 Y0 2.556686 1_555
