# generated using pymatgen
data_Na4Al3Si3SO16
_symmetry_space_group_name_H-M   'P 1'
_cell_length_a   9.21462300
_cell_length_b   9.21462300
_cell_length_c   9.21462300
_cell_angle_alpha   90.00000000
_cell_angle_beta   90.00000000
_cell_angle_gamma   90.00000000
_symmetry_Int_Tables_number   1
_chemical_formula_structural   Na4Al3Si3SO16
_chemical_formula_sum   'Na8 Al6 Si6 S2 O32'
_cell_volume   782.40697705
_cell_formula_units_Z   2
loop_
 _symmetry_equiv_pos_site_id
 _symmetry_equiv_pos_as_xyz
  1  'x, y, z'
loop_
 _atom_site_type_symbol
 _atom_site_label
 _atom_site_symmetry_multiplicity
 _atom_site_fract_x
 _atom_site_fract_y
 _atom_site_fract_z
 _atom_site_occupancy
  Na  Na0  1  0.27337400  0.27337400  0.27337400  1
  Na  Na1  1  0.72662600  0.72662600  0.27337400  1
  Na  Na2  1  0.72662600  0.27337400  0.72662600  1
  Na  Na3  1  0.77337400  0.77337400  0.77337400  1
  Na  Na4  1  0.27337400  0.72662600  0.72662600  1
  Na  Na5  1  0.22662600  0.22662600  0.77337400  1
  Na  Na6  1  0.77337400  0.22662600  0.22662600  1
  Na  Na7  1  0.22662600  0.77337400  0.22662600  1
  Al  Al0  1  0.25000000  0.00000000  0.50000000  1
  Al  Al1  1  0.75000000  0.00000000  0.50000000  1
  Al  Al2  1  0.50000000  0.25000000  0.00000000  1
  Al  Al3  1  0.50000000  0.75000000  0.00000000  1
  Al  Al4  1  0.00000000  0.50000000  0.25000000  1
  Al  Al5  1  0.00000000  0.50000000  0.75000000  1
  Si  Si0  1  0.25000000  0.50000000  0.00000000  1
  Si  Si1  1  0.75000000  0.50000000  0.00000000  1
  Si  Si2  1  0.00000000  0.25000000  0.50000000  1
  Si  Si3  1  0.00000000  0.75000000  0.50000000  1
  Si  Si4  1  0.50000000  0.00000000  0.25000000  1
  Si  Si5  1  0.50000000  0.00000000  0.75000000  1
  S  S0  1  0.00000000  0.00000000  0.00000000  1
  S  S1  1  0.50000000  0.50000000  0.50000000  1
  O  O0  1  0.09333900  0.09333900  0.09333900  1
  O  O1  1  0.90666100  0.90666100  0.09333900  1
  O  O2  1  0.90666100  0.09333900  0.90666100  1
  O  O3  1  0.59333900  0.59333900  0.59333900  1
  O  O4  1  0.09333900  0.90666100  0.90666100  1
  O  O5  1  0.40666100  0.40666100  0.59333900  1
  O  O6  1  0.59333900  0.40666100  0.40666100  1
  O  O7  1  0.40666100  0.59333900  0.40666100  1
  O  O8  1  0.03439100  0.34583300  0.35511700  1
  O  O9  1  0.96560900  0.65416700  0.35511700  1
  O  O10  1  0.96560900  0.34583300  0.64488300  1
  O  O11  1  0.35511700  0.03439100  0.34583300  1
  O  O12  1  0.84583300  0.53439100  0.85511700  1
  O  O13  1  0.03439100  0.65416700  0.64488300  1
  O  O14  1  0.35511700  0.96560900  0.65416700  1
  O  O15  1  0.15416700  0.46560900  0.85511700  1
  O  O16  1  0.64488300  0.96560900  0.34583300  1
  O  O17  1  0.84583300  0.46560900  0.14488300  1
  O  O18  1  0.64488300  0.03439100  0.65416700  1
  O  O19  1  0.15416700  0.53439100  0.14488300  1
  O  O20  1  0.34583300  0.35511700  0.03439100  1
  O  O21  1  0.53439100  0.85511700  0.84583300  1
  O  O22  1  0.34583300  0.64488300  0.96560900  1
  O  O23  1  0.46560900  0.14488300  0.84583300  1
  O  O24  1  0.65416700  0.64488300  0.03439100  1
  O  O25  1  0.53439100  0.14488300  0.15416700  1
  O  O26  1  0.65416700  0.35511700  0.96560900  1
  O  O27  1  0.46560900  0.85511700  0.15416700  1
  O  O28  1  0.85511700  0.84583300  0.53439100  1
  O  O29  1  0.85511700  0.15416700  0.46560900  1
  O  O30  1  0.14488300  0.15416700  0.53439100  1
  O  O31  1  0.14488300  0.84583300  0.46560900  1
loop_
_geom_bond_atom_site_label_1
_geom_bond_atom_site_label_2
_geom_bond_distance
_geom_bond_site_symmetry_2
Na0 O11 2.421274 1_555
Na0 O20 2.421274 1_555
Na0 O8 2.421274 1_555
Na0 O0 2.873394 1_555
Na0 O25 2.897118 1_555
Na0 O19 2.897118 1_555
Na0 O30 2.897118 1_555
Na1 O9 2.421274 1_555
Na1 O16 2.421274 1_555
Na1 O24 2.421274 1_555
Na1 O1 2.873394 1_555
Na1 O28 2.897118 1_555
Na1 O27 2.897118 1_555
Na1 O17 2.897118 1_555
Na2 O26 2.421274 1_555
Na2 O10 2.421274 1_555
Na2 O18 2.421274 1_555
Na2 O2 2.873394 1_555
Na2 O12 2.897118 1_555
Na2 O29 2.897118 1_555
Na2 O23 2.897118 1_555
Na3 O28 2.421274 1_555
Na3 O12 2.421274 1_555
Na3 O21 2.421274 1_555
Na3 O3 2.873394 1_555
Na3 O13 2.897118 1_655
Na3 O24 2.897118 1_556
Na3 O18 2.897118 1_565
Na4 O14 2.421274 1_555
Na4 O22 2.421274 1_555
Na4 O13 2.421274 1_555
Na4 O4 2.873394 1_555
Na4 O21 2.897118 1_555
Na4 O15 2.897118 1_555
Na4 O31 2.897118 1_555
Na5 O15 2.421274 1_555
Na5 O23 2.421274 1_555
Na5 O30 2.421274 1_555
Na5 O5 2.873394 1_555
Na5 O20 2.897118 1_556
Na5 O14 2.897118 1_545
Na5 O10 2.897118 1_455
Na6 O29 2.421274 1_555
Na6 O17 2.421274 1_555
Na6 O25 2.421274 1_555
Na6 O6 2.873394 1_555
Na6 O8 2.897118 1_655
Na6 O26 2.897118 1_554
Na6 O16 2.897118 1_545
Na7 O27 2.421274 1_555
Na7 O31 2.421274 1_555
Na7 O19 2.421274 1_555
Na7 O7 2.873394 1_555
Na7 O11 2.897118 1_565
Na7 O22 2.897118 1_554
Na7 O9 2.897118 1_455
Al0 O14 1.748347 1_545
Al0 O11 1.748347 1_555
Al0 O30 1.748347 1_555
Al0 O31 1.748347 1_545
Al1 O18 1.748347 1_555
Al1 O29 1.748347 1_555
Al1 O28 1.748347 1_545
Al1 O16 1.748347 1_545
Al2 O26 1.748347 1_554
Al2 O20 1.748347 1_555
Al2 O25 1.748347 1_555
Al2 O23 1.748347 1_554
Al3 O24 1.748347 1_555
Al3 O27 1.748347 1_555
Al3 O21 1.748347 1_554
Al3 O22 1.748347 1_554
Al4 O9 1.748347 1_455
Al4 O8 1.748347 1_555
Al4 O19 1.748347 1_555
Al4 O17 1.748347 1_455
Al5 O13 1.748347 1_555
Al5 O15 1.748347 1_555
Al5 O12 1.748347 1_455
Al5 O10 1.748347 1_455
O0 S0 1.489709 1_555
O1 S0 1.489709 1_665
O2 S0 1.489709 1_656
O3 S1 1.489709 1_555
O4 S0 1.489709 1_566
O5 S1 1.489709 1_555
O6 S1 1.489709 1_555
O7 S1 1.489709 1_555
O8 Si2 1.631737 1_555
O9 Si3 1.631737 1_655
O10 Si2 1.631737 1_655
O11 Si4 1.631737 1_555
O12 Si1 1.631737 1_556
O13 Si3 1.631737 1_555
O14 Si5 1.631737 1_565
O15 Si0 1.631737 1_556
O16 Si4 1.631737 1_565
O17 Si1 1.631737 1_555
O18 Si5 1.631737 1_555
O19 Si0 1.631737 1_555
O20 Si0 1.631737 1_555
O21 Si5 1.631737 1_565
O22 Si0 1.631737 1_556
O23 Si5 1.631737 1_555
O24 Si1 1.631737 1_555
O25 Si4 1.631737 1_555
O26 Si1 1.631737 1_556
O27 Si4 1.631737 1_565
O28 Si3 1.631737 1_655
O29 Si2 1.631737 1_655
O30 Si2 1.631737 1_555
O31 Si3 1.631737 1_555
