# generated using pymatgen
data_K2LiNd4Nb2O12
_symmetry_space_group_name_H-M   'P 1'
_cell_length_a   5.77541689
_cell_length_b   7.10969251
_cell_length_c   8.93953533
_cell_angle_alpha   105.40123560
_cell_angle_beta   89.85910769
_cell_angle_gamma   113.95590042
_symmetry_Int_Tables_number   1
_chemical_formula_structural   K2LiNd4Nb2O12
_chemical_formula_sum   'K2 Li1 Nd4 Nb2 O12'
_cell_volume   321.08257707
_cell_formula_units_Z   1
loop_
 _symmetry_equiv_pos_site_id
 _symmetry_equiv_pos_as_xyz
  1  'x, y, z'
loop_
 _atom_site_type_symbol
 _atom_site_label
 _atom_site_symmetry_multiplicity
 _atom_site_fract_x
 _atom_site_fract_y
 _atom_site_fract_z
 _atom_site_occupancy
  K  K0  1  0.13067100  0.26447800  0.40795600  1
  K  K1  1  0.84262300  0.68885700  0.46711200  1
  Li  Li0  1  0.03963400  0.07341700  0.62041600  1
  Nd  Nd0  1  0.14403800  0.28726000  0.96020600  1
  Nd  Nd1  1  0.58170400  0.16405000  0.19533200  1
  Nd  Nd2  1  0.41079600  0.82039700  0.80170600  1
  Nd  Nd3  1  0.87265400  0.74568500  0.06334900  1
  Nb  Nb0  1  0.65902200  0.31543500  0.70843300  1
  Nb  Nb1  1  0.35008000  0.70176100  0.29617300  1
  O  O0  1  0.99726800  0.52714600  0.83366700  1
  O  O1  1  0.21222700  0.91014400  0.29232900  1
  O  O2  1  0.24588400  0.00374700  0.99914500  1
  O  O3  1  0.78293900  0.09557800  0.71674700  1
  O  O4  1  0.69596200  0.90974200  0.29137800  1
  O  O5  1  0.75812900  0.00406800  0.99864900  1
  O  O6  1  0.31643300  0.09621200  0.71857100  1
  O  O7  1  0.99193000  0.46254000  0.19130500  1
  O  O8  1  0.66317700  0.32534300  0.50239200  1
  O  O9  1  0.33431200  0.66966800  0.50321500  1
  O  O10  1  0.46994300  0.46241900  0.19106200  1
  O  O11  1  0.53182500  0.52761100  0.83371200  1
loop_
_geom_bond_atom_site_label_1
_geom_bond_atom_site_label_2
_geom_bond_distance
_geom_bond_site_symmetry_2
K0 O9 2.521471 1_555
K0 Li0 2.552339 1_555
K0 O1 2.686034 1_545
K0 O4 2.687927 1_445
K0 O7 2.957791 1_455
K0 O10 2.961538 1_555
K0 O8 2.988870 1_455
K0 O8 3.016009 1_555
K1 O8 2.471695 1_555
K1 Li0 2.477761 1_665
K1 O1 2.834648 1_655
K1 O4 2.837046 1_555
K1 O10 2.901100 1_555
K1 O7 2.901859 1_555
K1 O9 2.904246 1_555
K1 O9 2.920484 1_655
Li0 O6 1.752938 1_555
Li0 O3 1.753744 1_455
Nd0 O5 2.420546 1_455
Nd0 O2 2.422121 1_555
Nd0 O10 2.470473 1_556
Nd0 O7 2.470903 1_456
Nd0 O6 2.651708 1_555
Nd0 O3 2.661242 1_455
Nd0 O0 2.666530 1_455
Nd0 O11 2.668473 1_555
Nd1 O5 2.300760 1_554
Nd1 O2 2.301407 1_554
Nd1 O10 2.464364 1_555
Nd1 O7 2.464814 1_555
Nd1 O4 2.497588 1_545
Nd1 O1 2.501646 1_545
Nd1 O8 2.639607 1_555
Nd2 O5 2.344756 1_565
Nd2 O2 2.345114 1_565
Nd2 O6 2.517663 1_565
Nd2 O3 2.527935 1_565
Nd2 O0 2.530205 1_455
Nd2 O11 2.530318 1_555
Nd2 O9 2.562474 1_555
Nd3 O2 2.384061 1_664
Nd3 O5 2.387389 1_564
Nd3 O4 2.500130 1_555
Nd3 O1 2.507942 1_655
Nd3 O11 2.518670 1_554
Nd3 O0 2.520760 1_554
Nd3 O10 2.858900 1_555
Nd3 O7 2.861560 1_555
Nb0 O8 1.861585 1_555
Nb0 O6 1.980444 1_555
Nb0 O3 1.982789 1_555
Nb0 O0 2.015705 1_555
Nb0 O11 2.016934 1_555
Nb1 O9 1.921626 1_555
Nb1 O4 1.952774 1_555
Nb1 O1 1.953215 1_555
Nb1 O7 2.087069 1_455
Nb1 O10 2.088510 1_555
