# generated using pymatgen
data_Mg15Ni
_symmetry_space_group_name_H-M   'P 1'
_cell_length_a   6.31330877
_cell_length_b   6.31330877
_cell_length_c   10.05422900
_cell_angle_alpha   90.00000000
_cell_angle_beta   90.00000000
_cell_angle_gamma   120.00000808
_symmetry_Int_Tables_number   1
_chemical_formula_structural   Mg15Ni
_chemical_formula_sum   'Mg15 Ni1'
_cell_volume   347.05110349
_cell_formula_units_Z   1
loop_
 _symmetry_equiv_pos_site_id
 _symmetry_equiv_pos_as_xyz
  1  'x, y, z'
loop_
 _atom_site_type_symbol
 _atom_site_label
 _atom_site_symmetry_multiplicity
 _atom_site_fract_x
 _atom_site_fract_y
 _atom_site_fract_z
 _atom_site_occupancy
  Mg  Mg0  1  0.00000000  0.00000000  0.00000000  1
  Mg  Mg1  1  0.99534400  0.49767200  0.50000000  1
  Mg  Mg2  1  0.00321400  0.50160700  0.00000000  1
  Mg  Mg3  1  0.50232800  0.49767200  0.50000000  1
  Mg  Mg4  1  0.49839300  0.50160700  0.00000000  1
  Mg  Mg5  1  0.50232800  0.00465600  0.50000000  1
  Mg  Mg6  1  0.49839300  0.99678600  0.00000000  1
  Mg  Mg7  1  0.16042900  0.32085700  0.26210300  1
  Mg  Mg8  1  0.16042900  0.32085700  0.73789700  1
  Mg  Mg9  1  0.16042900  0.83957100  0.26210300  1
  Mg  Mg10  1  0.16042900  0.83957100  0.73789700  1
  Mg  Mg11  1  0.67914300  0.83957100  0.26210300  1
  Mg  Mg12  1  0.67914300  0.83957100  0.73789700  1
  Mg  Mg13  1  0.66666700  0.33333300  0.24598500  1
  Mg  Mg14  1  0.66666700  0.33333300  0.75401500  1
  Ni  Ni0  1  0.00000000  0.00000000  0.50000000  1
loop_
_geom_bond_atom_site_label_1
_geom_bond_atom_site_label_2
_geom_bond_distance
_geom_bond_site_symmetry_2
Mg0 Mg4 3.156703 1_555
Mg0 Mg4 3.156703 1_445
Mg0 Mg6 3.156703 1_445
Mg0 Mg2 3.156703 1_555
Mg0 Mg2 3.156703 1_545
Mg0 Mg6 3.156703 1_545
Mg0 Mg7 3.165756 1_555
Mg0 Mg11 3.165756 1_445
Mg0 Mg8 3.165756 1_554
Mg0 Mg12 3.165756 1_444
Mg0 Mg9 3.165759 1_545
Mg0 Mg10 3.165759 1_544
Mg1 Mg10 3.035919 1_655
Mg1 Mg9 3.035919 1_655
Mg1 Mg8 3.035922 1_655
Mg1 Mg7 3.035922 1_655
Mg1 Mg5 3.112562 1_555
Mg1 Mg3 3.112562 1_555
Mg1 Mg14 3.122799 1_555
Mg1 Mg13 3.122799 1_555
Mg1 Ni0 3.156757 1_665
Mg1 Ni0 3.156757 1_655
Mg1 Mg5 3.200746 1_665
Mg1 Mg3 3.200747 1_655
Mg2 Mg6 3.126218 1_555
Mg2 Mg4 3.126218 1_555
Mg2 Mg6 3.187090 1_445
Mg2 Mg4 3.187091 1_455
Mg2 Mg9 3.219385 1_555
Mg2 Mg7 3.219389 1_555
Mg2 Mg8 3.219389 1_554
Mg3 Mg8 3.035919 1_555
Mg3 Mg7 3.035919 1_555
Mg3 Mg5 3.112562 1_555
Mg3 Ni0 3.156757 1_665
Mg3 Ni0 3.156757 1_555
Mg3 Mg5 3.200747 1_565
Mg4 Mg6 3.126218 1_555
Mg4 Mg6 3.187091 1_545
Mg4 Mg7 3.219385 1_555
Mg4 Mg8 3.219385 1_554
Mg5 Mg9 3.035919 1_545
Mg5 Ni0 3.156757 1_555
Mg5 Ni0 3.156757 1_655
Mg6 Mg9 3.219385 1_555
Mg7 Ni0 2.966235 1_555
Mg7 Mg9 3.038507 1_545
Mg7 Mg9 3.274802 1_555
Mg8 Ni0 2.966235 1_555
Mg9 Ni0 2.966238 1_565
Mg10 Ni0 2.966238 1_565
Mg10 Mg5 3.035919 1_565
Mg10 Mg8 3.038507 1_565
Mg10 Mg12 3.038507 1_455
Mg10 Mg14 3.161547 1_455
Mg10 Mg14 3.161547 1_565
Mg10 Mg2 3.219385 1_556
Mg10 Mg6 3.219385 1_556
Mg10 Mg12 3.274802 1_555
Mg10 Mg8 3.274802 1_555
Mg11 Ni0 2.966235 1_665
Mg11 Mg3 3.035919 1_555
Mg11 Mg5 3.035922 1_565
Mg11 Mg7 3.038507 1_665
Mg11 Mg9 3.038507 1_655
Mg11 Mg13 3.161547 1_555
Mg11 Mg13 3.161547 1_565
Mg11 Mg4 3.219385 1_555
Mg11 Mg6 3.219389 1_555
Mg11 Mg7 3.274801 1_555
Mg11 Mg9 3.274802 1_555
Mg12 Ni0 2.966235 1_665
Mg12 Mg3 3.035919 1_555
Mg12 Mg5 3.035922 1_565
Mg12 Mg8 3.038507 1_665
Mg12 Mg14 3.161547 1_555
Mg12 Mg14 3.161547 1_565
Mg12 Mg4 3.219385 1_556
Mg12 Mg6 3.219389 1_556
Mg12 Mg8 3.274801 1_555
Mg13 Mg6 3.082614 1_545
Mg13 Mg2 3.082614 1_655
Mg13 Mg4 3.082617 1_555
Mg13 Mg5 3.122799 1_555
Mg13 Mg3 3.122802 1_555
Mg13 Mg9 3.161547 1_655
Mg13 Mg9 3.161547 1_545
Mg13 Mg7 3.161547 1_555
Mg13 Mg7 3.161547 1_655
Mg14 Mg2 3.082614 1_656
Mg14 Mg6 3.082614 1_546
Mg14 Mg4 3.082617 1_556
Mg14 Mg5 3.122799 1_555
Mg14 Mg3 3.122802 1_555
Mg14 Mg8 3.161547 1_555
Mg14 Mg8 3.161547 1_655
