# generated using pymatgen
data_Ce2U2O9
_symmetry_space_group_name_H-M   'P 1'
_cell_length_a   6.62682712
_cell_length_b   6.62682712
_cell_length_c   6.62682712
_cell_angle_alpha   131.62510079
_cell_angle_beta   131.62510079
_cell_angle_gamma   70.82178781
_symmetry_Int_Tables_number   1
_chemical_formula_structural   Ce2U2O9
_chemical_formula_sum   'Ce2 U2 O9'
_cell_volume   159.26674131
_cell_formula_units_Z   1
loop_
 _symmetry_equiv_pos_site_id
 _symmetry_equiv_pos_as_xyz
  1  'x, y, z'
loop_
 _atom_site_type_symbol
 _atom_site_label
 _atom_site_symmetry_multiplicity
 _atom_site_fract_x
 _atom_site_fract_y
 _atom_site_fract_z
 _atom_site_occupancy
  Ce  Ce0  1  0.73235000  0.73235000  0.00000000  1
  Ce  Ce1  1  0.26765000  0.26765000  0.00000000  1
  U  U0  1  0.00000000  0.50000000  0.50000000  1
  U  U1  1  0.50000000  0.00000000  0.50000000  1
  O  O0  1  0.35834500  0.35834500  0.46898600  1
  O  O1  1  0.64165500  0.11064100  0.00000000  1
  O  O2  1  0.88935900  0.88935900  0.53101400  1
  O  O3  1  0.11064100  0.64165500  0.00000000  1
  O  O4  1  0.11064100  0.11064100  0.46898600  1
  O  O5  1  0.35834500  0.88935900  0.00000000  1
  O  O6  1  0.64165500  0.64165500  0.53101400  1
  O  O7  1  0.88935900  0.35834500  0.00000000  1
  O  O8  1  0.50000000  0.50000000  0.00000000  1
loop_
_geom_bond_atom_site_label_1
_geom_bond_atom_site_label_2
_geom_bond_distance
_geom_bond_site_symmetry_2
Ce0 O5 2.351826 1_555
Ce0 O0 2.351826 1_554
Ce0 O2 2.351826 1_555
Ce0 O7 2.351826 1_555
Ce0 O4 2.378173 1_665
Ce0 O3 2.378173 1_655
Ce0 O6 2.378173 1_554
Ce0 O1 2.378173 1_565
Ce0 O8 2.509836 1_555
Ce1 O6 2.351826 1_555
Ce1 O1 2.351826 1_555
Ce1 O4 2.351826 1_554
Ce1 O3 2.351826 1_555
Ce1 O5 2.378173 1_545
Ce1 O0 2.378173 1_555
Ce1 O7 2.378173 1_455
Ce1 O2 2.378173 1_444
Ce1 O8 2.509836 1_555
O0 U0 2.343090 1_555
O0 U1 2.343090 1_555
O1 U0 2.343090 1_655
O1 U1 2.343090 1_554
O2 U1 2.343090 1_565
O2 U0 2.343090 1_655
O3 U1 2.343090 1_565
O3 U0 2.343090 1_554
O4 U0 2.343090 1_555
O4 U1 2.343090 1_555
O5 U1 2.343090 1_565
O5 U0 2.343090 1_554
O6 U1 2.343090 1_565
O6 U0 2.343090 1_655
O7 U1 2.343090 1_554
O7 U0 2.343090 1_655
O8 U1 2.715165 1_565
O8 U1 2.715165 1_554
O8 U0 2.715165 1_655
O8 U0 2.715165 1_554
