# generated using pymatgen
data_Ho2HgO4
_symmetry_space_group_name_H-M   'P 1'
_cell_length_a   3.57453823
_cell_length_b   7.00147540
_cell_length_c   8.71900181
_cell_angle_alpha   78.62197719
_cell_angle_beta   78.17135614
_cell_angle_gamma   75.21039835
_symmetry_Int_Tables_number   1
_chemical_formula_structural   Ho2HgO4
_chemical_formula_sum   'Ho4 Hg2 O8'
_cell_volume   204.06437272
_cell_formula_units_Z   2
loop_
 _symmetry_equiv_pos_site_id
 _symmetry_equiv_pos_as_xyz
  1  'x, y, z'
loop_
 _atom_site_type_symbol
 _atom_site_label
 _atom_site_symmetry_multiplicity
 _atom_site_fract_x
 _atom_site_fract_y
 _atom_site_fract_z
 _atom_site_occupancy
  Ho  Ho0  1  0.11876075  0.22494047  0.53753703  1
  Ho  Ho1  1  0.88123925  0.77505953  0.46246297  1
  Ho  Ho2  1  0.34038062  0.51826488  0.80097387  1
  Ho  Ho3  1  0.65961938  0.48173512  0.19902613  1
  Hg  Hg0  1  0.38684130  0.06472142  0.16159599  1
  Hg  Hg1  1  0.61315870  0.93527858  0.83840401  1
  O  O0  1  0.91728650  0.51294670  0.65248030  1
  O  O1  1  0.08271350  0.48705330  0.34751970  1
  O  O2  1  0.73354776  0.14617636  0.38672912  1
  O  O3  1  0.26645224  0.85382364  0.61327088  1
  O  O4  1  0.29789856  0.35080815  0.05339273  1
  O  O5  1  0.70210144  0.64919185  0.94660727  1
  O  O6  1  0.46560302  0.78601402  0.28277994  1
  O  O7  1  0.53439698  0.21398598  0.71722006  1
loop_
_geom_bond_atom_site_label_1
_geom_bond_atom_site_label_2
_geom_bond_distance
_geom_bond_site_symmetry_2
Ho0 O1 2.212799 1_555
Ho0 O2 2.311954 1_455
Ho0 O2 2.311960 1_555
Ho0 O0 2.312842 1_455
Ho0 O7 2.348674 1_455
Ho0 O7 2.348677 1_555
Ho0 O3 2.496366 1_545
Ho1 O0 2.212799 1_555
Ho1 O3 2.311954 1_655
Ho1 O3 2.311960 1_555
Ho1 O1 2.312842 1_655
Ho1 O6 2.348674 1_655
Ho1 O6 2.348677 1_555
Ho1 O2 2.496366 1_565
Ho2 O0 2.194415 1_455
Ho2 O0 2.194415 1_555
Ho2 O4 2.275335 1_556
Ho2 O7 2.281389 1_555
Ho2 O5 2.421137 1_455
Ho2 O5 2.421142 1_555
Ho2 O3 2.571223 1_555
Ho3 O1 2.194415 1_655
Ho3 O1 2.194415 1_555
Ho3 O5 2.275335 1_554
Ho3 O6 2.281389 1_555
Ho3 O4 2.421137 1_655
Ho3 O4 2.421142 1_555
Ho3 O2 2.571223 1_555
Hg0 O6 2.007847 1_545
Hg0 O4 2.013825 1_555
Hg1 O7 2.007847 1_565
Hg1 O5 2.013825 1_555
