# generated using pymatgen
data_TlSnF7
_symmetry_space_group_name_H-M   'P 1'
_cell_length_a   5.43561453
_cell_length_b   8.76455431
_cell_length_c   11.93884140
_cell_angle_alpha   62.44665429
_cell_angle_beta   90.00000000
_cell_angle_gamma   90.00000000
_symmetry_Int_Tables_number   1
_chemical_formula_structural   TlSnF7
_chemical_formula_sum   'Tl4 Sn4 F28'
_cell_volume   504.26504174
_cell_formula_units_Z   4
loop_
 _symmetry_equiv_pos_site_id
 _symmetry_equiv_pos_as_xyz
  1  'x, y, z'
loop_
 _atom_site_type_symbol
 _atom_site_label
 _atom_site_symmetry_multiplicity
 _atom_site_fract_x
 _atom_site_fract_y
 _atom_site_fract_z
 _atom_site_occupancy
  Tl  Tl0  1  0.75945510  0.81456485  0.26446694  1
  Tl  Tl1  1  0.25945510  0.18543515  0.23553306  1
  Tl  Tl2  1  0.24054490  0.18543515  0.73553306  1
  Tl  Tl3  1  0.74054490  0.81456485  0.76446694  1
  Sn  Sn0  1  0.23985304  0.72888151  0.54281516  1
  Sn  Sn1  1  0.73985304  0.27111849  0.95718484  1
  Sn  Sn2  1  0.76014696  0.27111849  0.45718484  1
  Sn  Sn3  1  0.26014696  0.72888151  0.04281516  1
  F  F0  1  0.92370280  0.73433150  0.45786146  1
  F  F1  1  0.42370280  0.26566850  0.04213854  1
  F  F2  1  0.07629720  0.26566850  0.54213854  1
  F  F3  1  0.57629720  0.73433150  0.95786146  1
  F  F4  1  0.06115495  0.70825366  0.91280137  1
  F  F5  1  0.56115495  0.29174634  0.58719863  1
  F  F6  1  0.93884505  0.29174634  0.08719863  1
  F  F7  1  0.43884505  0.70825366  0.41280137  1
  F  F8  1  0.70897021  0.52410472  0.86585707  1
  F  F9  1  0.20897021  0.47589528  0.63414293  1
  F  F10  1  0.29102979  0.47589528  0.13414293  1
  F  F11  1  0.79102979  0.52410472  0.36585707  1
  F  F12  1  0.74268397  0.01778219  0.04999800  1
  F  F13  1  0.24268397  0.98221781  0.45000200  1
  F  F14  1  0.25731603  0.98221781  0.95000200  1
  F  F15  1  0.75731603  0.01778219  0.54999800  1
  F  F16  1  0.04853165  0.73526191  0.68259325  1
  F  F17  1  0.54853165  0.26473809  0.81740675  1
  F  F18  1  0.95146835  0.26473809  0.31740675  1
  F  F19  1  0.45146835  0.73526191  0.18259325  1
  F  F20  1  0.03531189  0.28226906  0.85741961  1
  F  F21  1  0.53531189  0.71773094  0.64258039  1
  F  F22  1  0.96468811  0.71773094  0.14258039  1
  F  F23  1  0.46468811  0.28226906  0.35741961  1
  F  F24  1  0.10689244  0.95934045  0.22958807  1
  F  F25  1  0.60689244  0.04065955  0.27041193  1
  F  F26  1  0.89310756  0.04065955  0.77041193  1
  F  F27  1  0.39310756  0.95934045  0.72958807  1
loop_
_geom_bond_atom_site_label_1
_geom_bond_atom_site_label_2
_geom_bond_distance
_geom_bond_site_symmetry_2
F0 Sn0 1.984768 1_655
F0 Tl0 2.262854 1_555
F1 Sn1 1.984768 1_554
F1 Tl1 2.262854 1_555
F2 Sn2 1.984768 1_455
F2 Tl2 2.262854 1_555
F3 Sn3 1.984768 1_556
F3 Tl3 2.262854 1_555
F4 Sn3 1.967647 1_556
F4 Tl3 2.348378 1_455
F5 Sn2 1.967647 1_555
F5 Tl2 2.348378 1_555
F6 Sn1 1.967647 1_554
F6 Tl1 2.348378 1_655
F7 Sn0 1.967647 1_555
F7 Tl0 2.348378 1_555
F8 Sn1 1.974039 1_555
F8 Tl3 2.263770 1_555
F9 Sn0 1.974039 1_555
F9 Tl2 2.263770 1_555
F10 Sn3 1.974039 1_555
F10 Tl1 2.263770 1_555
F11 Sn2 1.974039 1_555
F11 Tl0 2.263770 1_555
F12 Sn1 1.970271 1_554
F12 Tl0 2.348976 1_545
F13 Sn0 1.970271 1_555
F13 Tl1 2.348976 1_565
F14 Sn3 1.970271 1_556
F14 Tl2 2.348976 1_565
F15 Sn2 1.970271 1_555
F15 Tl3 2.348976 1_545
F16 Sn0 1.988922 1_555
F16 Tl3 2.206742 1_455
F17 Sn1 1.988922 1_555
F17 Tl2 2.206742 1_555
F18 Sn2 1.988922 1_555
F18 Tl1 2.206742 1_655
F19 Sn3 1.988922 1_555
F19 Tl0 2.206742 1_555
F20 Sn1 1.974784 1_455
F20 Tl2 2.285812 1_555
F21 Sn0 1.974784 1_555
F21 Tl3 2.285812 1_555
F22 Sn3 1.974784 1_655
F22 Tl0 2.285812 1_555
F23 Sn2 1.974784 1_555
F23 Tl1 2.285812 1_555
F24 Tl1 2.179373 1_565
F24 Tl0 2.204818 1_455
F25 Tl0 2.179373 1_545
F25 Tl1 2.204818 1_555
F26 Tl3 2.179373 1_545
F26 Tl2 2.204818 1_655
F27 Tl2 2.179373 1_565
F27 Tl3 2.204818 1_555
