# generated using pymatgen
data_Ca5V3ClO12
_symmetry_space_group_name_H-M   'P 1'
_cell_length_a   10.19300741
_cell_length_b   10.19300740
_cell_length_c   6.69598377
_cell_angle_alpha   90.00000000
_cell_angle_beta   90.00000000
_cell_angle_gamma   119.99999756
_symmetry_Int_Tables_number   1
_chemical_formula_structural   Ca5V3ClO12
_chemical_formula_sum   'Ca10 V6 Cl2 O24'
_cell_volume   602.48982119
_cell_formula_units_Z   2
loop_
 _symmetry_equiv_pos_site_id
 _symmetry_equiv_pos_as_xyz
  1  'x, y, z'
loop_
 _atom_site_type_symbol
 _atom_site_label
 _atom_site_symmetry_multiplicity
 _atom_site_fract_x
 _atom_site_fract_y
 _atom_site_fract_z
 _atom_site_occupancy
  Ca  Ca0  1  0.66666700  0.33333300  0.50429663  1
  Ca  Ca1  1  0.33333300  0.66666700  0.00429663  1
  Ca  Ca2  1  0.33333300  0.66666700  0.49570337  1
  Ca  Ca3  1  0.66666700  0.33333300  0.99570337  1
  Ca  Ca4  1  0.03364998  0.26757386  0.75000000  1
  Ca  Ca5  1  0.73242614  0.76607613  0.75000000  1
  Ca  Ca6  1  0.23392387  0.96635002  0.75000000  1
  Ca  Ca7  1  0.96635002  0.73242614  0.25000000  1
  Ca  Ca8  1  0.26757386  0.23392387  0.25000000  1
  Ca  Ca9  1  0.76607613  0.03364998  0.25000000  1
  V  V0  1  0.38401338  0.41580072  0.75000000  1
  V  V1  1  0.58419928  0.96821266  0.75000000  1
  V  V2  1  0.03178734  0.61598662  0.75000000  1
  V  V3  1  0.61598662  0.58419928  0.25000000  1
  V  V4  1  0.41580072  0.03178734  0.25000000  1
  V  V5  1  0.96821266  0.38401338  0.25000000  1
  Cl  Cl0  1  -0.00000000  0.00000000  0.50000000  1
  Cl  Cl1  1  -0.00000000  0.00000000  0.00000000  1
  O  O0  1  0.51540516  0.35961948  0.75000000  1
  O  O1  1  0.64038052  0.15578568  0.75000000  1
  O  O2  1  0.84421432  0.48459484  0.75000000  1
  O  O3  1  0.48459484  0.64038052  0.25000000  1
  O  O4  1  0.35961948  0.84421432  0.25000000  1
  O  O5  1  0.15578568  0.51540516  0.25000000  1
  O  O6  1  0.46902664  0.61232133  0.75000000  1
  O  O7  1  0.38767867  0.85670431  0.75000000  1
  O  O8  1  0.14329569  0.53097336  0.75000000  1
  O  O9  1  0.53097336  0.38767867  0.25000000  1
  O  O10  1  0.61232133  0.14329569  0.25000000  1
  O  O11  1  0.85670431  0.46902664  0.25000000  1
  O  O12  1  0.26426842  0.35128006  0.54812858  1
  O  O13  1  0.64871994  0.91298936  0.54812858  1
  O  O14  1  0.08701064  0.73573158  0.54812858  1
  O  O15  1  0.73573158  0.64871994  0.04812858  1
  O  O16  1  0.35128006  0.08701064  0.04812858  1
  O  O17  1  0.91298936  0.26426842  0.04812858  1
  O  O18  1  0.73573158  0.64871994  0.45187142  1
  O  O19  1  0.35128006  0.08701064  0.45187142  1
  O  O20  1  0.91298936  0.26426842  0.45187142  1
  O  O21  1  0.26426842  0.35128006  0.95187142  1
  O  O22  1  0.64871994  0.91298936  0.95187142  1
  O  O23  1  0.08701064  0.73573158  0.95187142  1
loop_
_geom_bond_atom_site_label_1
_geom_bond_atom_site_label_2
_geom_bond_distance
_geom_bond_site_symmetry_2
Ca0 O1 2.359835 1_555
Ca0 O2 2.359838 1_555
Ca0 O0 2.359843 1_555
Ca0 O10 2.425988 1_555
Ca0 O11 2.425991 1_555
Ca0 O9 2.426002 1_555
Ca1 O4 2.359835 1_555
Ca1 O5 2.359838 1_555
Ca1 O3 2.359843 1_555
Ca1 O7 2.425988 1_554
Ca1 O8 2.425991 1_554
Ca1 O6 2.426002 1_554
Ca2 O4 2.359835 1_555
Ca2 O5 2.359838 1_555
Ca2 O3 2.359843 1_555
Ca2 O7 2.425988 1_555
Ca2 O8 2.425991 1_555
Ca2 O6 2.426002 1_555
Ca3 O1 2.359835 1_555
Ca3 O2 2.359838 1_555
Ca3 O0 2.359843 1_555
Ca3 O10 2.425988 1_556
Ca3 O11 2.425991 1_556
Ca3 O9 2.426002 1_556
Ca4 O8 2.335975 1_555
Ca4 O20 2.336110 1_455
Ca4 O17 2.336110 1_456
Ca4 O21 2.464805 1_555
Ca4 O12 2.464805 1_555
Ca4 Cl1 3.069698 1_556
Ca4 Cl0 3.069698 1_555
Ca5 O6 2.335976 1_555
Ca5 O18 2.336115 1_555
Ca5 O15 2.336115 1_556
Ca5 O13 2.464813 1_555
Ca5 O22 2.464813 1_555
Ca5 Cl0 3.069698 1_665
Ca5 Cl1 3.069698 1_666
Ca6 O7 2.335985 1_555
Ca6 O16 2.336112 1_566
Ca6 O19 2.336112 1_565
Ca6 O23 2.464806 1_555
Ca6 O14 2.464806 1_555
Ca6 Cl0 3.069698 1_565
Ca6 Cl1 3.069698 1_566
Ca7 O11 2.335975 1_555
Ca7 O14 2.336110 1_655
Ca7 O23 2.336110 1_654
Ca7 O15 2.464805 1_555
Ca7 O18 2.464805 1_555
Ca7 Cl1 3.069698 1_665
Ca7 Cl0 3.069698 1_665
Ca8 O9 2.335976 1_555
Ca8 O12 2.336115 1_555
Ca8 O21 2.336115 1_554
Ca8 O19 2.464813 1_555
Ca8 O16 2.464813 1_555
Ca8 Cl0 3.069698 1_555
Ca8 Cl1 3.069698 1_555
Ca9 O10 2.335985 1_555
Ca9 O22 2.336112 1_544
Ca9 O13 2.336112 1_545
Ca9 O20 2.464806 1_555
Ca9 O17 2.464806 1_555
Ca9 Cl1 3.069698 1_655
Ca9 Cl0 3.069698 1_655
O0 V0 1.699572 1_555
O1 V1 1.699572 1_545
O2 V2 1.699572 1_655
O3 V3 1.699572 1_555
O4 V4 1.699572 1_565
O5 V5 1.699572 1_455
O6 V0 1.740014 1_555
O7 V1 1.740015 1_555
O8 V2 1.740023 1_555
O9 V3 1.740014 1_555
O10 V4 1.740015 1_555
O11 V5 1.740023 1_555
O12 V0 1.716607 1_555
O13 V1 1.716602 1_555
O14 V2 1.716607 1_555
O15 V3 1.716607 1_555
O16 V4 1.716602 1_555
O17 V5 1.716607 1_555
O18 V3 1.716607 1_555
O19 V4 1.716602 1_555
O20 V5 1.716607 1_555
O21 V0 1.716607 1_555
O22 V1 1.716602 1_555
O23 V2 1.716607 1_555
