# generated using pymatgen
data_LiVCO4
_symmetry_space_group_name_H-M   'P 1'
_cell_length_a   3.18399063
_cell_length_b   9.40493801
_cell_length_c   9.37554000
_cell_angle_alpha   89.99763855
_cell_angle_beta   89.99930373
_cell_angle_gamma   88.65112979
_symmetry_Int_Tables_number   1
_chemical_formula_structural   LiVCO4
_chemical_formula_sum   'Li4 V4 C4 O16'
_cell_volume   280.67494533
_cell_formula_units_Z   4
loop_
 _symmetry_equiv_pos_site_id
 _symmetry_equiv_pos_as_xyz
  1  'x, y, z'
loop_
 _atom_site_type_symbol
 _atom_site_label
 _atom_site_symmetry_multiplicity
 _atom_site_fract_x
 _atom_site_fract_y
 _atom_site_fract_z
 _atom_site_occupancy
  Li  Li0  1  0.25054600  0.40864600  0.80842100  1
  Li  Li1  1  0.25053500  0.90865800  0.69159900  1
  Li  Li2  1  0.74963000  0.09122300  0.30817600  1
  Li  Li3  1  0.74962200  0.59124700  0.19183200  1
  V  V0  1  0.75609700  0.11875400  0.93911500  1
  V  V1  1  0.75614800  0.61875600  0.56088500  1
  V  V2  1  0.24405500  0.38117300  0.43918800  1
  V  V3  1  0.24406300  0.88116000  0.06079600  1
  C  C0  1  0.25555900  0.33380100  0.13052200  1
  C  C1  1  0.25553800  0.83378600  0.36948600  1
  C  C2  1  0.74426700  0.16623100  0.63054700  1
  C  C3  1  0.74425500  0.66622700  0.86944900  1
  O  O0  1  0.24500700  0.99832400  0.88605100  1
  O  O1  1  0.24505100  0.49831200  0.61393500  1
  O  O2  1  0.75515800  0.50159500  0.38608600  1
  O  O3  1  0.75515300  0.00157500  0.11390400  1
  O  O4  1  0.24115800  0.26122200  0.24975600  1
  O  O5  1  0.24109700  0.76122000  0.25025000  1
  O  O6  1  0.75833300  0.23898300  0.74972200  1
  O  O7  1  0.75829000  0.73897800  0.75026700  1
  O  O8  1  0.26350300  0.25890500  0.00811100  1
  O  O9  1  0.26349500  0.75887000  0.49188400  1
  O  O10  1  0.73671900  0.24108100  0.50809300  1
  O  O11  1  0.73671900  0.74107200  0.99190300  1
  O  O12  1  0.25765100  0.46687800  0.12687200  1
  O  O13  1  0.25766600  0.96686600  0.37315000  1
  O  O14  1  0.74234600  0.03323400  0.62701600  1
  O  O15  1  0.74235100  0.53322900  0.87298500  1
loop_
_geom_bond_atom_site_label_1
_geom_bond_atom_site_label_2
_geom_bond_distance
_geom_bond_site_symmetry_2
Li0 O1 2.008849 1_555
Li0 O15 2.065979 1_455
Li0 O15 2.068284 1_555
Li0 O6 2.311196 1_555
Li0 O6 2.328729 1_455
Li0 O8 2.342480 1_556
Li1 O0 2.008622 1_555
Li1 O14 2.065964 1_465
Li1 O14 2.068273 1_565
Li1 O7 2.311143 1_555
Li1 O7 2.328803 1_455
Li1 O9 2.343025 1_555
Li2 O3 2.007020 1_555
Li2 O13 2.065537 1_645
Li2 O13 2.068522 1_545
Li2 O4 2.314174 1_555
Li2 O4 2.328788 1_655
Li2 O10 2.344934 1_555
Li3 O2 2.006819 1_555
Li3 O12 2.065560 1_655
Li3 O12 2.068606 1_555
Li3 O5 2.314142 1_555
Li3 O5 2.328536 1_655
Li3 O11 2.344745 1_554
C0 O12 1.252222 1_555
C0 O4 1.311152 1_555
C0 O8 1.346544 1_555
C1 O13 1.252260 1_555
C1 O5 1.311159 1_555
C1 O9 1.346489 1_555
C2 O14 1.251427 1_555
C2 O6 1.311529 1_555
C2 O10 1.346605 1_555
C3 O15 1.251433 1_555
C3 O7 1.311526 1_555
C3 O11 1.346629 1_555
O0 V0 1.967400 1_465
O0 V3 1.974428 1_556
O0 V0 2.065270 1_565
O1 V1 1.967408 1_455
O1 V2 1.974390 1_555
O1 V1 2.065299 1_555
O2 V2 1.967402 1_655
O2 V1 1.974910 1_555
O2 V2 2.065315 1_555
O3 V3 1.967425 1_645
O3 V0 1.974849 1_554
O3 V3 2.065290 1_545
O4 V2 2.104209 1_555
O5 V3 2.104252 1_555
O6 V0 2.105190 1_555
O7 V1 2.105142 1_555
O8 V0 2.125677 1_554
O8 V0 2.205970 1_454
O9 V1 2.125596 1_555
O9 V1 2.205586 1_455
O10 V2 2.125223 1_555
O10 V2 2.205169 1_655
O11 V3 2.125169 1_556
O11 V3 2.205175 1_656
