# generated using pymatgen
data_H20SN8O13
_symmetry_space_group_name_H-M   'P 1'
_cell_length_a   6.05362600
_cell_length_b   10.11650000
_cell_length_c   12.68055248
_cell_angle_alpha   86.63780610
_cell_angle_beta   90.00000000
_cell_angle_gamma   90.00000000
_symmetry_Int_Tables_number   1
_chemical_formula_structural   H20SN8O13
_chemical_formula_sum   'H40 S2 N16 O26'
_cell_volume   775.23946237
_cell_formula_units_Z   2
loop_
 _symmetry_equiv_pos_site_id
 _symmetry_equiv_pos_as_xyz
  1  'x, y, z'
loop_
 _atom_site_type_symbol
 _atom_site_label
 _atom_site_symmetry_multiplicity
 _atom_site_fract_x
 _atom_site_fract_y
 _atom_site_fract_z
 _atom_site_occupancy
  H  H0  1  0.01849400  0.99401400  0.11418800  1
  H  H1  1  0.51849400  0.00598600  0.88581200  1
  H  H2  1  0.05605300  0.96468600  0.98814800  1
  H  H3  1  0.55605300  0.03531400  0.01185200  1
  H  H4  1  0.05020500  0.26375800  0.58387500  1
  H  H5  1  0.55020500  0.73624200  0.41612500  1
  H  H6  1  0.50061400  0.41096300  0.99190300  1
  H  H7  1  0.00061400  0.58903700  0.00809700  1
  H  H8  1  0.00787200  0.00214200  0.75336900  1
  H  H9  1  0.50787200  0.99785800  0.24663100  1
  H  H10  1  0.97860500  0.49369200  0.28482100  1
  H  H11  1  0.47860500  0.50630800  0.71517900  1
  H  H12  1  0.47087100  0.50868400  0.09473600  1
  H  H13  1  0.97087100  0.49131600  0.90526400  1
  H  H14  1  0.97857900  0.94911900  0.62623600  1
  H  H15  1  0.47857900  0.05088100  0.37376400  1
  H  H16  1  0.07868900  0.59184500  0.37577000  1
  H  H17  1  0.57868900  0.40815500  0.62423000  1
  H  H18  1  0.15641500  0.61777000  0.24654800  1
  H  H19  1  0.65641500  0.38223000  0.75345200  1
  H  H20  1  0.18698800  0.89383600  0.70465700  1
  H  H21  1  0.68698800  0.10616400  0.29534300  1
  H  H22  1  0.88779500  0.33238800  0.48691800  1
  H  H23  1  0.38779500  0.66761200  0.51308200  1
  H  H24  1  0.41685400  0.34320600  0.10806400  1
  H  H25  1  0.91685400  0.65679400  0.89193600  1
  H  H26  1  0.15152200  0.29269900  0.45896100  1
  H  H27  1  0.65152200  0.70730100  0.54103900  1
  H  H28  1  0.96025400  0.17051800  0.48584700  1
  H  H29  1  0.46025400  0.82948200  0.51415300  1
  H  H30  1  0.89270700  0.65134700  0.28731900  1
  H  H31  1  0.39270700  0.34865300  0.71268100  1
  H  H32  1  0.92364400  0.84680600  0.73206600  1
  H  H33  1  0.42364400  0.15319400  0.26793400  1
  H  H34  1  0.94519300  0.84285600  0.07259200  1
  H  H35  1  0.44519300  0.15714400  0.92740800  1
  H  H36  1  0.68397700  0.39747900  0.09302400  1
  H  H37  1  0.18397700  0.60252100  0.90697600  1
  H  H38  1  0.21839100  0.88749800  0.08184600  1
  H  H39  1  0.71839100  0.11250200  0.91815400  1
  S  S0  1  0.56812200  0.74938100  0.16788100  1
  S  S1  1  0.06812200  0.25061900  0.83211900  1
  N  N0  1  0.02590600  0.25311400  0.12392000  1
  N  N1  1  0.52590600  0.74688600  0.87608000  1
  N  N2  1  0.06089400  0.61901400  0.62060000  1
  N  N3  1  0.56089400  0.38098600  0.37940000  1
  N  N4  1  0.02369400  0.92326200  0.70387300  1
  N  N5  1  0.52369400  0.07673800  0.29612700  1
  N  N6  1  0.02908200  0.58836200  0.29827000  1
  N  N7  1  0.52908200  0.41163800  0.70173000  1
  N  N8  1  0.01340500  0.26458600  0.50350000  1
  N  N9  1  0.51340500  0.73541400  0.49650000  1
  N  N10  1  0.51969400  0.41537400  0.07201700  1
  N  N11  1  0.01969400  0.58462600  0.92798300  1
  N  N12  1  0.05962900  0.92086700  0.06362200  1
  N  N13  1  0.55962900  0.07913300  0.93637800  1
  N  N14  1  0.99872400  0.94968900  0.40210000  1
  N  N15  1  0.49872400  0.05031100  0.59790000  1
  O  O0  1  0.62955600  0.73442000  0.28202800  1
  O  O1  1  0.12955600  0.26558000  0.71797200  1
  O  O2  1  0.22074400  0.20867600  0.13882200  1
  O  O3  1  0.72074400  0.79132400  0.86117800  1
  O  O4  1  0.99197400  0.37727500  0.11834700  1
  O  O5  1  0.49197400  0.62272500  0.88165300  1
  O  O6  1  0.85997900  0.64652600  0.63778800  1
  O  O7  1  0.35997900  0.35347400  0.36221200  1
  O  O8  1  0.11885600  0.56771100  0.53554100  1
  O  O9  1  0.61885600  0.43228900  0.46445900  1
  O  O10  1  0.86733900  0.17382700  0.11383300  1
  O  O11  1  0.36733900  0.82617300  0.88616700  1
  O  O12  1  0.50715200  0.89125900  0.13948700  1
  O  O13  1  0.00715200  0.10874100  0.86051300  1
  O  O14  1  0.76085200  0.71092700  0.10336000  1
  O  O15  1  0.26085200  0.28907300  0.89664000  1
  O  O16  1  0.20588300  0.64316500  0.68881900  1
  O  O17  1  0.70588300  0.35683500  0.31118100  1
  O  O18  1  0.37415500  0.66307800  0.14617700  1
  O  O19  1  0.87415500  0.33692200  0.85382300  1
  O  O20  1  0.08887400  0.83876000  0.40153200  1
  O  O21  1  0.58887400  0.16124000  0.59846800  1
  O  O22  1  0.00377300  0.03076300  0.32164500  1
  O  O23  1  0.50377300  0.96923700  0.67835500  1
  O  O24  1  0.89707200  0.98538700  0.48510800  1
  O  O25  1  0.39707200  0.01461300  0.51489200  1
loop_
_geom_bond_atom_site_label_1
_geom_bond_atom_site_label_2
_geom_bond_distance
_geom_bond_site_symmetry_2
H0 N12 1.037495 1_555
H1 N13 1.037495 1_555
H2 N12 1.031099 1_556
H3 N13 1.031099 1_554
H4 N8 1.042816 1_555
H5 N9 1.042816 1_555
H6 N10 1.026003 1_556
H7 N11 1.026003 1_554
H8 N4 1.048158 1_545
H9 N5 1.048158 1_565
H10 N6 1.029009 1_655
H11 N7 1.029009 1_555
H12 N10 1.045623 1_555
H13 N11 1.045623 1_655
H14 N4 1.040197 1_655
H15 N5 1.040197 1_555
H16 N6 1.030179 1_555
H17 N7 1.030179 1_555
H18 N6 1.044008 1_555
H19 N7 1.044008 1_555
H20 N4 1.032252 1_555
H21 N5 1.032252 1_555
H22 N8 1.037296 1_655
H23 N9 1.037296 1_555
H24 N10 1.044220 1_555
H25 N11 1.044220 1_655
H26 N8 1.039278 1_555
H27 N9 1.039278 1_555
H28 N8 1.041268 1_655
H29 N9 1.041268 1_555
H30 N6 1.047124 1_655
H31 N7 1.047124 1_555
H32 N4 1.029784 1_655
H33 N5 1.029784 1_555
H34 N12 1.051261 1_655
H35 N13 1.051261 1_555
H36 N10 1.042651 1_555
H37 N11 1.042651 1_555
H38 N12 1.040143 1_555
H39 N13 1.040143 1_555
N0 O10 1.262216 1_455
N0 O4 1.270630 1_455
N0 O2 1.272403 1_555
N1 O11 1.262216 1_555
N1 O5 1.270630 1_555
N1 O3 1.272403 1_555
N2 O16 1.266167 1_555
N2 O6 1.269402 1_455
N2 O8 1.273387 1_555
N3 O17 1.266167 1_555
N3 O7 1.269402 1_555
N3 O9 1.273387 1_555
N14 O20 1.248274 1_655
N14 O22 1.271348 1_665
N14 O24 1.289039 1_555
N15 O21 1.248274 1_555
N15 O23 1.271348 1_545
N15 O25 1.289039 1_555
O0 S0 1.493527 1_555
O1 S1 1.493527 1_555
O12 S0 1.505111 1_555
O13 S1 1.505111 1_555
O14 S0 1.489726 1_555
O15 S1 1.489726 1_555
O18 S0 1.498319 1_555
O19 S1 1.498319 1_655
