# generated using pymatgen
data_Ba2TbV3O11
_symmetry_space_group_name_H-M   'P 1'
_cell_length_a   7.79788300
_cell_length_b   12.42463523
_cell_length_c   11.33972517
_cell_angle_alpha   103.30301632
_cell_angle_beta   90.00000000
_cell_angle_gamma   90.00000000
_symmetry_Int_Tables_number   1
_chemical_formula_structural   Ba2TbV3O11
_chemical_formula_sum   'Ba8 Tb4 V12 O44'
_cell_volume   1069.17835436
_cell_formula_units_Z   4
loop_
 _symmetry_equiv_pos_site_id
 _symmetry_equiv_pos_as_xyz
  1  'x, y, z'
loop_
 _atom_site_type_symbol
 _atom_site_label
 _atom_site_symmetry_multiplicity
 _atom_site_fract_x
 _atom_site_fract_y
 _atom_site_fract_z
 _atom_site_occupancy
  Ba  Ba0  1  0.27494200  0.77046800  0.94228700  1
  Ba  Ba1  1  0.72505800  0.22953200  0.05771300  1
  Ba  Ba2  1  0.77494200  0.22953200  0.55771300  1
  Ba  Ba3  1  0.22505800  0.77046800  0.44228700  1
  Ba  Ba4  1  0.74773300  0.55441200  0.88938000  1
  Ba  Ba5  1  0.25226700  0.44558800  0.11062000  1
  Ba  Ba6  1  0.24773300  0.44558800  0.61062000  1
  Ba  Ba7  1  0.75226700  0.55441200  0.38938000  1
  Tb  Tb0  1  0.50172100  0.99746000  0.71409700  1
  Tb  Tb1  1  0.49827900  0.00254000  0.28590300  1
  Tb  Tb2  1  0.00172100  0.00254000  0.78590300  1
  Tb  Tb3  1  0.99827900  0.99746000  0.21409700  1
  V  V0  1  0.75532600  0.90650400  0.97666500  1
  V  V1  1  0.24467400  0.09349600  0.02333500  1
  V  V2  1  0.25532600  0.09349600  0.52333500  1
  V  V3  1  0.74467400  0.90650400  0.47666500  1
  V  V4  1  0.51967900  0.68436900  0.67326800  1
  V  V5  1  0.48032100  0.31563100  0.32673200  1
  V  V6  1  0.01967900  0.31563100  0.82673200  1
  V  V7  1  0.98032100  0.68436900  0.17326800  1
  V  V8  1  0.98074100  0.68831600  0.67135900  1
  V  V9  1  0.01925900  0.31168400  0.32864100  1
  V  V10  1  0.48074100  0.31168400  0.82864100  1
  V  V11  1  0.51925900  0.68831600  0.17135900  1
  O  O0  1  0.44565000  0.81957400  0.71702800  1
  O  O1  1  0.55435000  0.18042600  0.28297200  1
  O  O2  1  0.94565000  0.18042600  0.78297200  1
  O  O3  1  0.05435000  0.81957400  0.21702800  1
  O  O4  1  0.54973100  0.17553900  0.80509600  1
  O  O5  1  0.45026900  0.82446100  0.19490400  1
  O  O6  1  0.04973100  0.82446100  0.69490400  1
  O  O7  1  0.95026900  0.17553900  0.30509600  1
  O  O8  1  0.75044900  0.66511300  0.66690100  1
  O  O9  1  0.24955100  0.33488700  0.33309900  1
  O  O10  1  0.25044900  0.33488700  0.83309900  1
  O  O11  1  0.74955100  0.66511300  0.16690100  1
  O  O12  1  0.94415900  0.37570600  0.96697200  1
  O  O13  1  0.05584100  0.62429400  0.03302800  1
  O  O14  1  0.44415900  0.62429400  0.53302800  1
  O  O15  1  0.55584100  0.37570600  0.46697200  1
  O  O16  1  0.93957300  0.39091100  0.73098600  1
  O  O17  1  0.06042700  0.60908900  0.26901400  1
  O  O18  1  0.43957300  0.60908900  0.76901400  1
  O  O19  1  0.56042700  0.39091100  0.23098600  1
  O  O20  1  0.78311100  0.98717300  0.62623000  1
  O  O21  1  0.21688900  0.01282700  0.37377000  1
  O  O22  1  0.28311100  0.01282700  0.87377000  1
  O  O23  1  0.71688900  0.98717300  0.12623000  1
  O  O24  1  0.97441800  0.88435600  0.97506100  1
  O  O25  1  0.02558200  0.11564400  0.02493900  1
  O  O26  1  0.47441900  0.11564400  0.52493900  1
  O  O27  1  0.52558200  0.88435600  0.47506100  1
  O  O28  1  0.64316000  0.78687200  0.94671200  1
  O  O29  1  0.35684000  0.21312800  0.05328800  1
  O  O30  1  0.14316000  0.21312800  0.55328800  1
  O  O31  1  0.85684000  0.78687200  0.44671200  1
  O  O32  1  0.71999300  0.98361200  0.86396000  1
  O  O33  1  0.28000700  0.01638800  0.13604000  1
  O  O34  1  0.21999300  0.01638800  0.63604000  1
  O  O35  1  0.78000700  0.98361200  0.36396000  1
  O  O36  1  0.55863600  0.37025500  0.71851100  1
  O  O37  1  0.44136400  0.62974500  0.28148900  1
  O  O38  1  0.05863600  0.62974500  0.78148900  1
  O  O39  1  0.94136400  0.37025500  0.21851100  1
  O  O40  1  0.56375700  0.38633200  0.96143000  1
  O  O41  1  0.43624300  0.61366800  0.03857000  1
  O  O42  1  0.06375700  0.61366800  0.53857000  1
  O  O43  1  0.93624300  0.38633200  0.46143000  1
loop_
_geom_bond_atom_site_label_1
_geom_bond_atom_site_label_2
_geom_bond_distance
_geom_bond_site_symmetry_2
Ba0 O24 2.718482 1_455
Ba0 O41 2.747445 1_556
Ba0 O18 2.777777 1_555
Ba0 O38 2.785625 1_555
Ba0 O13 2.852420 1_556
Ba0 O28 2.878165 1_555
Ba0 O0 3.063706 1_555
Ba0 O5 3.104966 1_556
Ba0 O22 3.279006 1_565
Ba0 O33 3.327956 1_566
Ba1 O25 2.718482 1_655
Ba1 O40 2.747445 1_554
Ba1 O19 2.777777 1_555
Ba1 O39 2.785625 1_555
Ba1 O12 2.852420 1_554
Ba1 O29 2.878165 1_555
Ba1 O1 3.063706 1_555
Ba1 O4 3.104966 1_554
Ba1 O23 3.279006 1_545
Ba1 O32 3.327956 1_544
Ba2 O26 2.718475 1_555
Ba2 O43 2.747445 1_555
Ba2 O16 2.777777 1_555
Ba2 O36 2.785625 1_555
Ba2 O15 2.852420 1_555
Ba2 O30 2.878165 1_655
Ba2 O2 3.063706 1_555
Ba2 O7 3.104966 1_555
Ba2 O20 3.279006 1_545
Ba2 O35 3.327956 1_545
Ba3 O27 2.718482 1_555
Ba3 O42 2.747445 1_555
Ba3 O17 2.777777 1_555
Ba3 O37 2.785625 1_555
Ba3 O14 2.852420 1_555
Ba3 O31 2.878165 1_455
Ba3 O3 3.063706 1_555
Ba3 O6 3.104966 1_555
Ba3 O21 3.279006 1_565
Ba3 O34 3.327956 1_565
Ba4 O40 2.805712 1_555
Ba4 O16 2.812752 1_555
Ba4 O18 2.919865 1_555
Ba4 O13 2.920418 1_656
Ba4 O28 2.926665 1_555
Ba4 O41 2.954792 1_556
Ba4 O38 2.962692 1_655
Ba4 O12 2.991546 1_555
Ba4 O36 3.020547 1_555
Ba4 O11 3.131086 1_556
Ba4 O8 3.139091 1_555
Ba5 O41 2.805712 1_555
Ba5 O17 2.812752 1_555
Ba5 O19 2.919865 1_555
Ba5 O12 2.920418 1_454
Ba5 O29 2.926665 1_555
Ba5 O40 2.954792 1_554
Ba5 O39 2.962692 1_455
Ba5 O13 2.991546 1_555
Ba5 O37 3.020547 1_555
Ba5 O10 3.131086 1_554
Ba5 O9 3.139091 1_555
Ba6 O42 2.805712 1_555
Ba6 O18 2.812752 1_555
Ba6 O16 2.919865 1_455
Ba6 O15 2.920418 1_555
Ba6 O30 2.926665 1_555
Ba6 O43 2.954792 1_455
Ba6 O36 2.962692 1_555
Ba6 O14 2.991546 1_555
Ba6 O38 3.020547 1_555
Ba6 O9 3.131086 1_555
Ba6 O10 3.139091 1_555
Ba7 O43 2.805712 1_555
Ba7 O19 2.812752 1_555
Ba7 O17 2.919865 1_655
Ba7 O14 2.920418 1_555
Ba7 O31 2.926665 1_555
Ba7 O42 2.954792 1_655
Ba7 O37 2.962692 1_555
Ba7 O15 2.991546 1_555
Ba7 O39 3.020547 1_555
Ba7 O8 3.131086 1_555
Ba7 O11 3.139091 1_555
O0 V4 1.737190 1_555
O0 Tb0 2.260737 1_555
O1 V5 1.737190 1_555
O1 Tb1 2.260737 1_555
O2 V6 1.737190 1_655
O2 Tb2 2.260737 1_655
O3 V7 1.737190 1_455
O3 Tb3 2.260737 1_455
O4 V10 1.736148 1_555
O4 Tb0 2.247158 1_545
O5 V11 1.736148 1_555
O5 Tb1 2.247158 1_565
O6 V8 1.736148 1_455
O6 Tb2 2.247158 1_565
O7 V9 1.736148 1_655
O7 Tb3 2.247158 1_545
O8 V4 1.814598 1_555
O8 V8 1.817642 1_555
O9 V5 1.814598 1_555
O9 V9 1.817642 1_555
O10 V6 1.814598 1_555
O10 V10 1.817642 1_555
O11 V7 1.814598 1_555
O11 V11 1.817642 1_555
O12 V6 1.699019 1_655
O13 V7 1.699019 1_455
O14 V4 1.699019 1_555
O15 V5 1.699019 1_555
O16 V6 1.706221 1_655
O17 V7 1.706221 1_455
O18 V4 1.706221 1_555
O19 V5 1.706221 1_555
O20 V3 1.785669 1_555
O20 Tb0 2.401090 1_555
O20 Tb2 2.462071 1_665
O21 V2 1.785669 1_555
O21 Tb1 2.401090 1_555
O21 Tb3 2.462071 1_445
O22 V1 1.785669 1_556
O22 Tb2 2.401090 1_555
O22 Tb0 2.462071 1_545
O23 V0 1.785669 1_554
O23 Tb3 2.401090 1_555
O23 Tb1 2.462071 1_565
O24 V0 1.729904 1_555
O24 Tb3 2.757501 1_556
O24 Tb2 2.872635 1_665
O25 V1 1.729904 1_555
O25 Tb2 2.757501 1_554
O25 Tb3 2.872635 1_445
O26 V2 1.729911 1_555
O26 Tb1 2.757500 1_555
O26 Tb0 2.872634 1_545
O27 V3 1.729904 1_555
O27 Tb0 2.757501 1_555
O27 Tb1 2.872635 1_565
O28 V0 1.690382 1_555
O29 V1 1.690382 1_555
O30 V2 1.690382 1_555
O31 V3 1.690382 1_555
O32 V0 1.786232 1_555
O32 Tb2 2.400182 1_665
O32 Tb0 2.439088 1_555
O33 V1 1.786232 1_555
O33 Tb3 2.400182 1_445
O33 Tb1 2.439088 1_555
O34 V2 1.786232 1_555
O34 Tb0 2.400182 1_545
O34 Tb2 2.439088 1_555
O35 V3 1.786232 1_555
O35 Tb1 2.400182 1_565
O35 Tb3 2.439088 1_555
O36 V10 1.695991 1_555
O37 V11 1.695991 1_555
O38 V8 1.695991 1_455
O39 V9 1.695991 1_655
O40 V10 1.704102 1_555
O41 V11 1.704102 1_555
O42 V8 1.704102 1_455
O43 V9 1.704102 1_655
