# generated using pymatgen
data_BaYNbSnO6
_symmetry_space_group_name_H-M   'P 1'
_cell_length_a   8.43628726
_cell_length_b   8.49037840
_cell_length_c   8.44210148
_cell_angle_alpha   90.00000000
_cell_angle_beta   90.00000000
_cell_angle_gamma   90.00000000
_symmetry_Int_Tables_number   1
_chemical_formula_structural   BaYNbSnO6
_chemical_formula_sum   'Ba4 Y4 Nb4 Sn4 O24'
_cell_volume   604.68469160
_cell_formula_units_Z   4
loop_
 _symmetry_equiv_pos_site_id
 _symmetry_equiv_pos_as_xyz
  1  'x, y, z'
loop_
 _atom_site_type_symbol
 _atom_site_label
 _atom_site_symmetry_multiplicity
 _atom_site_fract_x
 _atom_site_fract_y
 _atom_site_fract_z
 _atom_site_occupancy
  Ba  Ba0  1  -0.00000000  -0.00000000  0.00000000  1
  Ba  Ba1  1  0.50000000  0.50000000  0.50000000  1
  Ba  Ba2  1  0.50000000  0.00000000  0.50000000  1
  Ba  Ba3  1  0.50000000  0.50000000  0.00000000  1
  Y  Y0  1  0.24470410  0.24960957  0.24929344  1
  Y  Y1  1  0.75529590  0.75039043  0.24929344  1
  Y  Y2  1  0.75529590  0.24960957  0.75070656  1
  Y  Y3  1  0.24470410  0.75039043  0.75070656  1
  Nb  Nb0  1  0.75157552  0.75100637  0.74776238  1
  Nb  Nb1  1  0.24842448  0.24899363  0.74776238  1
  Nb  Nb2  1  0.24842448  0.75100637  0.25223762  1
  Nb  Nb3  1  0.75157552  0.24899363  0.25223762  1
  Sn  Sn0  1  -0.00000000  0.50000000  0.50000000  1
  Sn  Sn1  1  0.50000000  0.00000000  0.00000000  1
  Sn  Sn2  1  -0.00000000  0.50000000  0.00000000  1
  Sn  Sn3  1  -0.00000000  -0.00000000  0.50000000  1
  O  O0  1  0.98494980  0.20223284  0.28431950  1
  O  O1  1  0.01505020  0.79776716  0.28431950  1
  O  O2  1  0.01505020  0.20223284  0.71568050  1
  O  O3  1  0.98494980  0.79776716  0.71568050  1
  O  O4  1  0.28399401  0.98523336  0.20860655  1
  O  O5  1  0.28399401  0.01476664  0.79139345  1
  O  O6  1  0.71600599  0.01476664  0.20860655  1
  O  O7  1  0.71600599  0.98523336  0.79139345  1
  O  O8  1  0.20945585  0.28807529  0.98422498  1
  O  O9  1  0.79054415  0.28807529  0.01577502  1
  O  O10  1  0.20945585  0.71192471  0.01577502  1
  O  O11  1  0.79054415  0.71192471  0.98422498  1
  O  O12  1  0.51413021  0.27894388  0.23043629  1
  O  O13  1  0.48586979  0.72105612  0.23043629  1
  O  O14  1  0.48586979  0.27894388  0.76956371  1
  O  O15  1  0.51413021  0.72105612  0.76956371  1
  O  O16  1  0.21603463  0.51414094  0.28643755  1
  O  O17  1  0.21603463  0.48585906  0.71356245  1
  O  O18  1  0.78396537  0.48585906  0.28643755  1
  O  O19  1  0.78396537  0.51414094  0.71356245  1
  O  O20  1  0.27720855  0.22567848  0.51331147  1
  O  O21  1  0.72279145  0.22567848  0.48668853  1
  O  O22  1  0.27720855  0.77432152  0.48668853  1
  O  O23  1  0.72279145  0.77432152  0.51331147  1
loop_
_geom_bond_atom_site_label_1
_geom_bond_atom_site_label_2
_geom_bond_distance
_geom_bond_site_symmetry_2
Ba0 O1 2.953903 1_545
Ba0 O0 2.953903 1_455
Ba0 O3 2.953903 1_444
Ba0 O2 2.953903 1_554
Ba0 O5 2.976111 1_554
Ba0 O7 2.976111 1_444
Ba0 O6 2.976111 1_455
Ba0 O4 2.976111 1_545
Ba0 O10 3.020331 1_545
Ba0 O8 3.020331 1_554
Ba0 O9 3.020331 1_455
Ba0 O11 3.020331 1_444
Ba1 O15 2.952205 1_555
Ba1 O14 2.952205 1_555
Ba1 O12 2.952205 1_555
Ba1 O13 2.952205 1_555
Ba1 O20 2.994987 1_555
Ba1 O22 2.994987 1_555
Ba1 O23 2.994987 1_555
Ba1 O21 2.994987 1_555
Ba1 O18 3.000647 1_555
Ba1 O16 3.000647 1_555
Ba1 O19 3.000647 1_555
Ba1 O17 3.000647 1_555
Ba2 O23 2.686391 1_545
Ba2 O20 2.686391 1_555
Ba2 O22 2.686391 1_545
Ba2 O21 2.686391 1_555
Ba2 O4 3.063972 1_545
Ba2 O6 3.063972 1_555
Ba2 O5 3.063972 1_555
Ba2 O7 3.063972 1_545
Ba2 O14 3.286636 1_555
Ba2 O13 3.286636 1_545
Ba2 O12 3.286636 1_555
Ba2 O15 3.286636 1_545
Ba3 O15 2.705777 1_554
Ba3 O12 2.705777 1_555
Ba3 O13 2.705777 1_555
Ba3 O14 2.705777 1_554
Ba3 O8 3.043559 1_554
Ba3 O11 3.043559 1_554
Ba3 O10 3.043559 1_555
Ba3 O9 3.043559 1_555
Nb0 O23 2.003900 1_555
Nb0 O3 2.026622 1_555
Nb0 O15 2.027603 1_555
Nb0 O7 2.044639 1_555
Nb0 O19 2.049989 1_555
Nb0 O11 2.050161 1_555
Nb1 O20 2.003900 1_555
Nb1 O2 2.026622 1_555
Nb1 O14 2.027603 1_555
Nb1 O5 2.044639 1_555
Nb1 O17 2.049989 1_555
Nb1 O8 2.050161 1_555
Nb2 O22 2.003900 1_555
Nb2 O1 2.026622 1_555
Nb2 O13 2.027603 1_555
Nb2 O4 2.044639 1_555
Nb2 O16 2.049989 1_555
Nb2 O10 2.050161 1_555
Nb3 O21 2.003900 1_555
Nb3 O0 2.026622 1_555
Nb3 O12 2.027603 1_555
Nb3 O6 2.044639 1_555
Nb3 O18 2.049989 1_555
Nb3 O9 2.050161 1_555
O0 Y0 2.247511 1_655
O0 Sn3 2.505918 1_655
O1 Y1 2.247511 1_455
O1 Sn3 2.505918 1_565
O2 Y2 2.247511 1_455
O2 Sn3 2.505918 1_555
O3 Y3 2.247511 1_655
O3 Sn3 2.505918 1_665
O4 Y0 2.294846 1_565
O4 Sn1 2.537292 1_565
O5 Y3 2.294846 1_545
O5 Sn1 2.537292 1_556
O6 Y1 2.294846 1_545
O6 Sn1 2.537292 1_555
O7 Y2 2.294846 1_565
O7 Sn1 2.537292 1_566
O8 Y0 2.280908 1_556
O8 Sn2 2.525408 1_556
O9 Y2 2.280908 1_554
O9 Sn2 2.525408 1_655
O10 Y3 2.280908 1_554
O10 Sn2 2.525408 1_555
O11 Y1 2.280908 1_556
O11 Sn2 2.525408 1_656
O12 Y0 2.292096 1_555
O13 Y1 2.292096 1_555
O14 Y2 2.292096 1_555
O15 Y3 2.292096 1_555
O16 Y0 2.280617 1_555
O16 Sn0 2.566425 1_555
O17 Y3 2.280617 1_555
O17 Sn0 2.566425 1_555
O18 Y1 2.280617 1_555
O18 Sn0 2.566425 1_655
O19 Y2 2.280617 1_555
O19 Sn0 2.566425 1_655
O20 Y0 2.254845 1_555
O21 Y2 2.254845 1_555
O22 Y3 2.254845 1_555
O23 Y1 2.254845 1_555
