# generated using pymatgen
data_Zn(CoO2)2
_symmetry_space_group_name_H-M   'P 1'
_cell_length_a   5.01733600
_cell_length_b   5.86390700
_cell_length_c   10.31064600
_cell_angle_alpha   90.00000000
_cell_angle_beta   90.00000000
_cell_angle_gamma   90.00000000
_symmetry_Int_Tables_number   1
_chemical_formula_structural   Zn(CoO2)2
_chemical_formula_sum   'Zn4 Co8 O16'
_cell_volume   303.35149243
_cell_formula_units_Z   4
loop_
 _symmetry_equiv_pos_site_id
 _symmetry_equiv_pos_as_xyz
  1  'x, y, z'
loop_
 _atom_site_type_symbol
 _atom_site_label
 _atom_site_symmetry_multiplicity
 _atom_site_fract_x
 _atom_site_fract_y
 _atom_site_fract_z
 _atom_site_occupancy
  Zn  Zn0  1  0.34384200  0.00000000  0.50000000  1
  Zn  Zn1  1  0.65615800  0.50000000  0.00000000  1
  Zn  Zn2  1  0.01468700  0.00000000  0.00000000  1
  Zn  Zn3  1  0.98531300  0.50000000  0.50000000  1
  Co  Co0  1  0.01878100  0.50000000  0.23182600  1
  Co  Co1  1  0.01878100  0.50000000  0.76817400  1
  Co  Co2  1  0.98121900  0.00000000  0.26817400  1
  Co  Co3  1  0.98121900  0.00000000  0.73182600  1
  Co  Co4  1  0.50000000  0.25000000  0.25000000  1
  Co  Co5  1  0.50000000  0.75000000  0.75000000  1
  Co  Co6  1  0.50000000  0.75000000  0.25000000  1
  Co  Co7  1  0.50000000  0.25000000  0.75000000  1
  O  O0  1  0.34729900  0.50000000  0.14073100  1
  O  O1  1  0.34729900  0.50000000  0.85926900  1
  O  O2  1  0.65270100  0.00000000  0.35926900  1
  O  O3  1  0.65270100  0.00000000  0.64073100  1
  O  O4  1  0.68873700  0.50000000  0.34575900  1
  O  O5  1  0.68873700  0.50000000  0.65424100  1
  O  O6  1  0.31126300  0.00000000  0.15424100  1
  O  O7  1  0.31126300  0.00000000  0.84575900  1
  O  O8  1  0.16673500  0.25226400  0.36532400  1
  O  O9  1  0.16673500  0.74773600  0.63467600  1
  O  O10  1  0.83326500  0.75226400  0.13467600  1
  O  O11  1  0.83326500  0.24773600  0.86532400  1
  O  O12  1  0.83326500  0.24773600  0.13467600  1
  O  O13  1  0.83326500  0.75226400  0.86532400  1
  O  O14  1  0.16673500  0.74773600  0.36532400  1
  O  O15  1  0.16673500  0.25226400  0.63467600  1
loop_
_geom_bond_atom_site_label_1
_geom_bond_atom_site_label_2
_geom_bond_distance
_geom_bond_site_symmetry_2
Co0 O0 1.897111 1_555
Co0 O10 2.014431 1_455
Co0 O12 2.014431 1_455
Co0 O4 2.030300 1_455
Co0 O14 2.134483 1_555
Co0 O8 2.134483 1_555
Co1 O1 1.897111 1_555
Co1 O13 2.014431 1_455
Co1 O11 2.014431 1_455
Co1 O5 2.030300 1_455
Co1 O9 2.134483 1_555
Co1 O15 2.134483 1_555
Co2 O2 1.897111 1_555
Co2 O8 2.014431 1_655
Co2 O14 2.014431 1_645
Co2 O6 2.030300 1_655
Co2 O12 2.134483 1_555
Co2 O10 2.134483 1_545
Co3 O3 1.897111 1_555
Co3 O15 2.014431 1_655
Co3 O9 2.014431 1_645
Co3 O7 2.030300 1_655
Co3 O11 2.134483 1_555
Co3 O13 2.134483 1_545
Co4 O2 2.001345 1_555
Co4 O0 2.001345 1_555
Co4 O4 2.005156 1_555
Co4 O6 2.005156 1_555
Co4 O12 2.051823 1_555
Co4 O8 2.051823 1_555
Co5 O1 2.001345 1_555
Co5 O3 2.001345 1_565
Co5 O7 2.005156 1_565
Co5 O5 2.005156 1_555
Co5 O13 2.051823 1_555
Co5 O9 2.051823 1_555
Co6 O2 2.001345 1_565
Co6 O0 2.001345 1_555
Co6 O4 2.005156 1_555
Co6 O6 2.005156 1_565
Co6 O10 2.051823 1_555
Co6 O14 2.051823 1_555
Co7 O1 2.001345 1_555
Co7 O3 2.001345 1_555
Co7 O7 2.005156 1_555
Co7 O5 2.005156 1_555
Co7 O11 2.051823 1_555
Co7 O15 2.051823 1_555
O0 Zn1 2.122945 1_555
O1 Zn1 2.122945 1_556
O2 Zn0 2.122945 1_555
O3 Zn0 2.122945 1_555
O4 Zn3 2.177921 1_555
O5 Zn3 2.177921 1_555
O6 Zn2 2.177921 1_555
O7 Zn2 2.177921 1_556
O8 Zn3 2.206152 1_455
O8 Zn0 2.214951 1_555
O9 Zn3 2.206152 1_455
O9 Zn0 2.214951 1_565
O10 Zn2 2.206152 1_665
O10 Zn1 2.214951 1_555
O11 Zn2 2.206152 1_656
O11 Zn1 2.214951 1_556
O12 Zn2 2.206152 1_655
O12 Zn1 2.214951 1_555
O13 Zn2 2.206152 1_666
O13 Zn1 2.214951 1_556
O14 Zn3 2.206152 1_455
O14 Zn0 2.214951 1_565
O15 Zn3 2.206152 1_455
O15 Zn0 2.214951 1_555
