# generated using pymatgen
data_Li6Yb17Hg9
_symmetry_space_group_name_H-M   'P 1'
_cell_length_a   13.41820729
_cell_length_b   13.41820729
_cell_length_c   13.41820729
_cell_angle_alpha   109.47122063
_cell_angle_beta   109.47122063
_cell_angle_gamma   109.47122063
_symmetry_Int_Tables_number   1
_chemical_formula_structural   Li6Yb17Hg9
_chemical_formula_sum   'Li12 Yb34 Hg18'
_cell_volume   1859.78011277
_cell_formula_units_Z   2
loop_
 _symmetry_equiv_pos_site_id
 _symmetry_equiv_pos_as_xyz
  1  'x, y, z'
loop_
 _atom_site_type_symbol
 _atom_site_label
 _atom_site_symmetry_multiplicity
 _atom_site_fract_x
 _atom_site_fract_y
 _atom_site_fract_z
 _atom_site_occupancy
  Li  Li0  1  0.84757306  0.84757306  0.69514611  1
  Li  Li1  1  0.15242694  0.15242694  0.30485389  1
  Li  Li2  1  0.15242694  0.84757306  0.00000000  1
  Li  Li3  1  0.84757306  0.15242694  -0.00000000  1
  Li  Li4  1  0.84757306  0.69514611  0.84757306  1
  Li  Li5  1  0.84757306  -0.00000000  0.15242694  1
  Li  Li6  1  0.15242694  0.30485389  0.15242694  1
  Li  Li7  1  0.15242694  0.00000000  0.84757306  1
  Li  Li8  1  0.69514611  0.84757306  0.84757306  1
  Li  Li9  1  0.30485389  0.15242694  0.15242694  1
  Li  Li10  1  0.00000000  0.84757306  0.15242694  1
  Li  Li11  1  -0.00000000  0.15242694  0.84757306  1
  Yb  Yb0  1  0.73679740  0.54538650  0.54538650  1
  Yb  Yb1  1  0.26320260  0.45461350  0.45461350  1
  Yb  Yb2  1  0.26320260  0.80858910  0.80858910  1
  Yb  Yb3  1  -0.00000000  0.45461350  0.19141090  1
  Yb  Yb4  1  0.54538650  0.54538650  0.73679740  1
  Yb  Yb5  1  0.73679740  0.19141090  0.19141090  1
  Yb  Yb6  1  0.00000000  0.54538650  0.80858910  1
  Yb  Yb7  1  0.45461350  0.45461350  0.26320260  1
  Yb  Yb8  1  -0.00000000  0.19141090  0.45461350  1
  Yb  Yb9  1  0.80858910  0.80858910  0.26320260  1
  Yb  Yb10  1  0.00000000  0.80858910  0.54538650  1
  Yb  Yb11  1  0.19141090  0.19141090  0.73679740  1
  Yb  Yb12  1  0.45461350  0.19141090  -0.00000000  1
  Yb  Yb13  1  0.54538650  0.80858910  0.00000000  1
  Yb  Yb14  1  0.19141090  0.45461350  -0.00000000  1
  Yb  Yb15  1  0.80858910  0.54538650  0.00000000  1
  Yb  Yb16  1  0.54538650  0.73679740  0.54538650  1
  Yb  Yb17  1  0.54538650  -0.00000000  0.80858910  1
  Yb  Yb18  1  0.45461350  0.26320260  0.45461350  1
  Yb  Yb19  1  0.45461350  0.00000000  0.19141090  1
  Yb  Yb20  1  0.19141090  -0.00000000  0.45461350  1
  Yb  Yb21  1  0.80858910  -0.00000000  0.54538650  1
  Yb  Yb22  1  0.19141090  0.73679740  0.19141090  1
  Yb  Yb23  1  0.80858910  0.26320260  0.80858910  1
  Yb  Yb24  1  0.50000000  0.50000000  0.00000000  1
  Yb  Yb25  1  0.50000000  -0.00000000  0.50000000  1
  Yb  Yb26  1  0.00000000  0.50000000  0.50000000  1
  Yb  Yb27  1  -0.00000000  0.00000000  0.00000000  1
  Yb  Yb28  1  0.75000000  0.25000000  0.50000000  1
  Yb  Yb29  1  0.25000000  0.75000000  0.50000000  1
  Yb  Yb30  1  0.25000000  0.50000000  0.75000000  1
  Yb  Yb31  1  0.75000000  0.50000000  0.25000000  1
  Yb  Yb32  1  0.50000000  0.75000000  0.25000000  1
  Yb  Yb33  1  0.50000000  0.25000000  0.75000000  1
  Hg  Hg0  1  0.70614078  0.70614078  0.41228157  1
  Hg  Hg1  1  0.29385922  0.29385922  0.58771843  1
  Hg  Hg2  1  0.29385922  0.70614078  -0.00000000  1
  Hg  Hg3  1  0.70614078  0.29385922  0.00000000  1
  Hg  Hg4  1  0.70614078  0.41228157  0.70614078  1
  Hg  Hg5  1  0.70614078  0.00000000  0.29385922  1
  Hg  Hg6  1  0.29385922  0.58771843  0.29385922  1
  Hg  Hg7  1  0.29385922  -0.00000000  0.70614078  1
  Hg  Hg8  1  0.41228157  0.70614078  0.70614078  1
  Hg  Hg9  1  0.58771843  0.29385922  0.29385922  1
  Hg  Hg10  1  0.00000000  0.70614078  0.29385922  1
  Hg  Hg11  1  -0.00000000  0.29385922  0.70614078  1
  Hg  Hg12  1  0.75484120  0.75484120  -0.00000000  1
  Hg  Hg13  1  0.24515880  0.24515880  0.00000000  1
  Hg  Hg14  1  0.75484120  -0.00000000  0.75484120  1
  Hg  Hg15  1  0.24515880  0.00000000  0.24515880  1
  Hg  Hg16  1  -0.00000000  0.75484120  0.75484120  1
  Hg  Hg17  1  0.00000000  0.24515880  0.24515880  1
loop_
_geom_bond_atom_site_label_1
_geom_bond_atom_site_label_2
_geom_bond_distance
_geom_bond_site_symmetry_2
Li0 Yb27 3.339955 1_666
Li1 Yb27 3.339955 1_555
Li2 Yb27 3.339955 1_565
Li3 Yb27 3.339955 1_655
Li4 Yb27 3.339955 1_666
Li5 Yb27 3.339955 1_655
Li6 Yb27 3.339955 1_555
Li7 Yb27 3.339955 1_556
Li8 Yb27 3.339955 1_666
Li9 Yb27 3.339955 1_555
Li10 Yb27 3.339955 1_565
Li11 Yb27 3.339955 1_556
Yb0 Yb26 3.979352 1_655
Yb1 Yb26 3.979352 1_555
Yb2 Yb26 3.979352 1_555
Yb10 Yb26 3.979352 1_555
Yb11 Yb24 3.979352 1_556
Yb12 Yb24 3.979352 1_555
Yb13 Yb24 3.979352 1_555
Yb14 Yb24 3.979352 1_555
Yb15 Yb24 3.979352 1_555
Yb16 Yb25 3.979352 1_565
Yb17 Yb25 3.979352 1_555
Yb18 Yb25 3.979352 1_555
Yb19 Yb25 3.979352 1_555
Yb20 Yb25 3.979352 1_555
Yb21 Yb25 3.979352 1_555
Yb22 Yb25 3.979352 1_565
Yb23 Yb25 3.979352 1_555
Yb24 Yb31 3.873503 1_555
Yb24 Yb33 3.873503 1_554
Yb24 Yb30 3.873503 1_554
Yb24 Yb32 3.873503 1_555
Yb24 Yb4 3.979352 1_554
Yb24 Yb9 3.979352 1_555
Yb24 Yb7 3.979352 1_555
Yb25 Yb29 3.873503 1_545
Yb25 Yb33 3.873503 1_555
Yb25 Yb28 3.873503 1_555
Yb25 Yb32 3.873503 1_545
Yb26 Yb31 3.873503 1_455
Yb26 Yb30 3.873503 1_555
Yb26 Yb28 3.873503 1_455
Yb26 Yb29 3.873503 1_555
Yb26 Yb6 3.979352 1_555
Yb26 Yb5 3.979352 1_455
Yb26 Yb3 3.979352 1_555
Yb26 Yb8 3.979352 1_555
Hg0 Li0 3.099041 1_555
Hg0 Yb7 3.191802 1_555
Hg0 Yb9 3.191802 1_555
Hg0 Yb32 3.265440 1_555
Hg0 Yb31 3.265440 1_555
Hg0 Yb16 3.268334 1_555
Hg0 Yb0 3.268334 1_555
Hg0 Yb21 3.268334 1_565
Hg0 Yb10 3.268334 1_655
Hg1 Li1 3.099041 1_555
Hg1 Yb4 3.191802 1_555
Hg1 Yb11 3.191802 1_555
Hg1 Yb33 3.265440 1_555
Hg1 Yb30 3.265440 1_555
Hg1 Yb18 3.268334 1_555
Hg1 Yb1 3.268334 1_555
Hg1 Yb20 3.268334 1_555
Hg1 Yb8 3.268334 1_555
Hg2 Li2 3.099042 1_555
Hg2 Yb13 3.191802 1_555
Hg2 Yb14 3.191802 1_555
Hg2 Yb30 3.265440 1_554
Hg2 Yb32 3.265440 1_555
Hg2 Yb2 3.268334 1_554
Hg2 Yb19 3.268334 1_565
Hg2 Yb22 3.268334 1_555
Hg2 Yb6 3.268334 1_554
Hg3 Li3 3.099042 1_555
Hg3 Yb12 3.191802 1_555
Hg3 Yb15 3.191802 1_555
Hg3 Yb31 3.265440 1_555
Hg3 Yb33 3.265440 1_554
Hg3 Yb5 3.268334 1_555
Hg3 Yb23 3.268334 1_554
Hg3 Yb3 3.268334 1_655
Hg3 Yb17 3.268334 1_554
Hg4 Li4 3.099041 1_555
Hg4 Yb18 3.191802 1_555
Hg4 Yb23 3.191802 1_555
Hg4 Yb33 3.265440 1_555
Hg4 Yb28 3.265440 1_555
Hg4 Yb4 3.268334 1_555
Hg4 Yb0 3.268334 1_555
Hg4 Yb6 3.268334 1_655
Hg4 Yb15 3.268334 1_556
Hg5 Li5 3.099042 1_555
Hg5 Yb21 3.191802 1_555
Hg5 Yb19 3.191802 1_555
Hg5 Yb28 3.265440 1_555
Hg5 Yb32 3.265440 1_545
Hg5 Yb5 3.268334 1_555
Hg5 Yb8 3.268334 1_655
Hg5 Yb13 3.268334 1_545
Hg5 Yb9 3.268334 1_545
Hg6 Li6 3.099041 1_555
Hg6 Yb16 3.191802 1_555
Hg6 Yb22 3.191802 1_555
Hg6 Yb32 3.265440 1_555
Hg6 Yb29 3.265440 1_555
Hg6 Yb7 3.268334 1_555
Hg6 Yb1 3.268334 1_555
Hg6 Yb14 3.268334 1_555
Hg6 Yb3 3.268334 1_555
Hg7 Li7 3.099042 1_555
Hg7 Yb20 3.191802 1_555
Hg7 Yb17 3.191802 1_555
Hg7 Yb29 3.265440 1_545
Hg7 Yb33 3.265440 1_555
Hg7 Yb12 3.268334 1_556
Hg7 Yb11 3.268334 1_555
Hg7 Yb2 3.268334 1_545
Hg7 Yb10 3.268334 1_545
Hg8 Li8 3.099041 1_555
Hg8 Yb1 3.191802 1_555
Hg8 Yb2 3.191802 1_555
Hg8 Yb29 3.265440 1_555
Hg8 Yb30 3.265440 1_555
Hg8 Yb4 3.268334 1_555
Hg8 Yb16 3.268334 1_555
Hg8 Yb13 3.268334 1_556
Hg8 Yb17 3.268334 1_565
Hg9 Li9 3.099041 1_555
Hg9 Yb0 3.191802 1_555
Hg9 Yb5 3.191802 1_555
Hg9 Yb31 3.265440 1_555
Hg9 Yb28 3.265440 1_555
Hg9 Yb7 3.268334 1_555
Hg9 Yb18 3.268334 1_555
Hg9 Yb19 3.268334 1_555
Hg9 Yb12 3.268334 1_555
Hg10 Li10 3.099042 1_555
Hg10 Yb10 3.191802 1_555
Hg10 Yb3 3.191802 1_555
Hg10 Yb29 3.265440 1_555
Hg10 Yb31 3.265440 1_455
Hg10 Yb20 3.268334 1_565
Hg10 Yb22 3.268334 1_555
Hg10 Yb15 3.268334 1_455
Hg10 Yb9 3.268334 1_455
Hg11 Li11 3.099042 1_555
Hg11 Yb6 3.191802 1_555
Hg11 Yb8 3.191802 1_555
Hg11 Yb28 3.265440 1_455
Hg11 Yb30 3.265440 1_555
Hg11 Yb14 3.268334 1_556
Hg11 Yb23 3.268334 1_455
Hg11 Yb11 3.268334 1_555
Hg11 Yb21 3.268334 1_455
Hg12 Li10 2.764419 1_655
Hg12 Li5 2.764419 1_565
Hg12 Li4 2.764419 1_554
Hg12 Li8 2.764419 1_554
Hg12 Yb4 3.125759 1_554
Hg12 Yb15 3.125759 1_555
Hg12 Yb13 3.125759 1_555
Hg12 Yb9 3.125759 1_555
Hg12 Yb24 3.948512 1_555
Hg13 Li11 2.764419 1_554
Hg13 Li7 2.764419 1_554
Hg13 Li9 2.764419 1_555
Hg13 Li6 2.764419 1_555
Hg13 Yb11 3.125759 1_554
Hg13 Yb7 3.125759 1_555
Hg13 Yb14 3.125759 1_555
Hg13 Yb12 3.125759 1_555
Hg13 Yb24 3.948512 1_555
Hg14 Li11 2.764419 1_655
Hg14 Li3 2.764419 1_556
Hg14 Li0 2.764419 1_545
Hg14 Li8 2.764419 1_545
Hg14 Yb21 3.125759 1_555
Hg14 Yb17 3.125759 1_555
Hg14 Yb16 3.125759 1_545
Hg14 Yb23 3.125759 1_555
Hg14 Yb25 3.948512 1_555
Hg15 Li10 2.764419 1_545
Hg15 Li2 2.764419 1_545
Hg15 Li9 2.764419 1_555
Hg15 Li1 2.764419 1_555
Hg15 Yb22 3.125759 1_545
Hg15 Yb19 3.125759 1_555
Hg15 Yb20 3.125759 1_555
Hg15 Yb18 3.125759 1_555
Hg15 Yb25 3.948512 1_555
Hg16 Li2 2.764419 1_556
Hg16 Li7 2.764419 1_565
Hg16 Li0 2.764419 1_455
Hg16 Li4 2.764419 1_455
Hg16 Yb0 3.125759 1_455
Hg16 Yb6 3.125759 1_555
Hg16 Yb10 3.125759 1_555
Hg16 Yb2 3.125759 1_555
Hg16 Yb26 3.948512 1_555
Hg17 Li5 2.764419 1_455
Hg17 Li3 2.764419 1_455
Hg17 Li1 2.764419 1_555
Hg17 Li6 2.764419 1_555
Hg17 Yb5 3.125759 1_455
Hg17 Yb1 3.125759 1_555
Hg17 Yb3 3.125759 1_555
Hg17 Yb8 3.125759 1_555
Hg17 Yb26 3.948512 1_555
