# generated using pymatgen
data_BeSiN2
_symmetry_space_group_name_H-M   'P 1'
_cell_length_a   4.05330118
_cell_length_b   4.05330005
_cell_length_c   4.96939825
_cell_angle_alpha   114.06836704
_cell_angle_beta   114.06834780
_cell_angle_gamma   89.99999020
_symmetry_Int_Tables_number   1
_chemical_formula_structural   BeSiN2
_chemical_formula_sum   'Be2 Si2 N4'
_cell_volume   66.69604198
_cell_formula_units_Z   2
loop_
 _symmetry_equiv_pos_site_id
 _symmetry_equiv_pos_as_xyz
  1  'x, y, z'
loop_
 _atom_site_type_symbol
 _atom_site_label
 _atom_site_symmetry_multiplicity
 _atom_site_fract_x
 _atom_site_fract_y
 _atom_site_fract_z
 _atom_site_occupancy
  Be  Be0  1  0.00000000  -0.00000000  0.00000000  1
  Be  Be1  1  0.25000000  0.75000000  0.50000000  1
  Si  Si0  1  0.50000000  0.50000000  0.00000000  1
  Si  Si1  1  0.75000000  0.25000000  0.50000000  1
  N  N0  1  0.38124024  0.37500000  0.25000000  1
  N  N1  1  0.86875976  0.87500000  0.25000000  1
  N  N2  1  0.12500000  0.61875976  0.75000000  1
  N  N3  1  0.62500000  0.13124024  0.75000000  1
loop_
_geom_bond_atom_site_label_1
_geom_bond_atom_site_label_2
_geom_bond_distance
_geom_bond_site_symmetry_2
Be0 N2 1.770755 1_544
Be0 N0 1.770755 1_555
Be0 N3 1.770756 1_454
Be0 N1 1.770756 1_445
Be1 N0 1.770755 1_555
Be1 N3 1.770755 1_565
Be1 N1 1.770756 1_455
Be1 N2 1.770756 1_555
N0 Si1 1.741566 1_555
N0 Si0 1.741566 1_555
N1 Si1 1.741566 1_565
N1 Si0 1.741566 1_555
N2 Si1 1.741566 1_455
N2 Si0 1.741566 1_556
N3 Si0 1.741566 1_556
N3 Si1 1.741566 1_555
