# generated using pymatgen
data_AlZnH4O2F5
_symmetry_space_group_name_H-M   'P 1'
_cell_length_a   6.84271900
_cell_length_b   7.45270129
_cell_length_c   7.45270129
_cell_angle_alpha   58.26139980
_cell_angle_beta   62.67246843
_cell_angle_gamma   62.67246843
_symmetry_Int_Tables_number   1
_chemical_formula_structural   AlZnH4O2F5
_chemical_formula_sum   'Al2 Zn2 H8 O4 F10'
_cell_volume   274.98942039
_cell_formula_units_Z   2
loop_
 _symmetry_equiv_pos_site_id
 _symmetry_equiv_pos_as_xyz
  1  'x, y, z'
loop_
 _atom_site_type_symbol
 _atom_site_label
 _atom_site_symmetry_multiplicity
 _atom_site_fract_x
 _atom_site_fract_y
 _atom_site_fract_z
 _atom_site_occupancy
  Al  Al0  1  0.50000000  0.00000000  0.50000000  1
  Al  Al1  1  0.50000000  0.50000000  0.00000000  1
  Zn  Zn0  1  0.50000000  0.00000000  0.00000000  1
  Zn  Zn1  1  0.00000000  0.50000000  0.50000000  1
  H  H0  1  0.05930400  0.75260200  0.54108100  1
  H  H1  1  0.94069600  0.45891900  0.24739800  1
  H  H2  1  0.14701300  0.25260200  0.04108100  1
  H  H3  1  0.85298700  0.95891900  0.74739800  1
  H  H4  1  0.94069600  0.24739800  0.45891900  1
  H  H5  1  0.05930400  0.54108100  0.75260200  1
  H  H6  1  0.85298700  0.74739800  0.95891900  1
  H  H7  1  0.14701300  0.04108100  0.25260200  1
  O  O0  1  0.15485900  0.59992800  0.59992800  1
  O  O1  1  0.84514100  0.40007200  0.40007200  1
  O  O2  1  0.14528500  0.09992800  0.09992800  1
  O  O3  1  0.85471500  0.90007200  0.90007200  1
  F  F0  1  0.56724100  0.06636100  0.66638800  1
  F  F1  1  0.43275900  0.33361200  0.93363900  1
  F  F2  1  0.20001000  0.56636100  0.16638800  1
  F  F3  1  0.79999000  0.83361200  0.43363900  1
  F  F4  1  0.43275900  0.93363900  0.33361200  1
  F  F5  1  0.56724100  0.66638800  0.06636100  1
  F  F6  1  0.79999000  0.43363900  0.83361200  1
  F  F7  1  0.20001000  0.16638800  0.56636100  1
  F  F8  1  0.42807100  0.75000000  0.75000000  1
  F  F9  1  0.57192900  0.25000000  0.25000000  1
loop_
_geom_bond_atom_site_label_1
_geom_bond_atom_site_label_2
_geom_bond_distance
_geom_bond_site_symmetry_2
Al0 F7 1.836306 1_555
Al0 F3 1.836306 1_545
Al0 F0 1.836306 1_555
Al0 F4 1.836306 1_545
Al0 F8 1.879587 1_545
Al0 F9 1.879587 1_555
Al1 F2 1.836306 1_555
Al1 F6 1.836306 1_554
Al1 F5 1.836306 1_555
Al1 F1 1.836306 1_554
Al1 F9 1.879587 1_555
Al1 F8 1.879587 1_554
H0 O0 0.984747 1_555
H1 O1 0.984747 1_555
H2 O2 0.984747 1_555
H3 O3 0.984747 1_555
H4 O1 0.984747 1_555
H5 O0 0.984747 1_555
H6 O3 0.984747 1_555
H7 O2 0.984747 1_555
O0 Zn1 2.065137 1_555
O1 Zn1 2.065137 1_655
O2 Zn0 2.065136 1_555
O3 Zn0 2.065136 1_566
F0 Zn0 2.122009 1_556
F1 Zn0 2.122009 1_556
F2 Zn1 2.122009 1_555
F3 Zn1 2.122009 1_655
F4 Zn0 2.122009 1_565
F5 Zn0 2.122009 1_565
F6 Zn1 2.122009 1_655
F7 Zn1 2.122009 1_555
