# generated using pymatgen
data_Zn3Fe4(MoO4)6
_symmetry_space_group_name_H-M   'P 1'
_cell_length_a   7.09255728
_cell_length_b   8.30332576
_cell_length_c   10.32573235
_cell_angle_alpha   104.44278151
_cell_angle_beta   104.54093124
_cell_angle_gamma   102.72918088
_symmetry_Int_Tables_number   1
_chemical_formula_structural   Zn3Fe4(MoO4)6
_chemical_formula_sum   'Zn3 Fe4 Mo6 O24'
_cell_volume   543.42915935
_cell_formula_units_Z   1
loop_
 _symmetry_equiv_pos_site_id
 _symmetry_equiv_pos_as_xyz
  1  'x, y, z'
loop_
 _atom_site_type_symbol
 _atom_site_label
 _atom_site_symmetry_multiplicity
 _atom_site_fract_x
 _atom_site_fract_y
 _atom_site_fract_z
 _atom_site_occupancy
  Zn  Zn0  1  0.00000000  0.50000000  0.50000000  1
  Zn  Zn1  1  0.28575000  0.28486900  0.79064600  1
  Zn  Zn2  1  0.71425000  0.71513100  0.20935400  1
  Fe  Fe0  1  0.37736100  0.95681000  0.60756300  1
  Fe  Fe1  1  0.62263900  0.04319000  0.39243700  1
  Fe  Fe2  1  0.04827600  0.21394300  0.00759300  1
  Fe  Fe3  1  0.95172400  0.78605700  0.99240700  1
  Mo  Mo0  1  0.77867500  0.33988300  0.72257500  1
  Mo  Mo1  1  0.22132500  0.66011700  0.27742500  1
  Mo  Mo2  1  0.89493600  0.90530100  0.67059500  1
  Mo  Mo3  1  0.40440100  0.72693400  0.87877800  1
  Mo  Mo4  1  0.10506400  0.09469900  0.32940500  1
  Mo  Mo5  1  0.59559900  0.27306600  0.12122200  1
  O  O0  1  0.87636300  0.68618700  0.58410700  1
  O  O1  1  0.12363700  0.31381300  0.41589300  1
  O  O2  1  0.27819000  0.50810300  0.75330500  1
  O  O3  1  0.72181000  0.49189700  0.24669500  1
  O  O4  1  0.79826800  0.30403800  0.53671900  1
  O  O5  1  0.20173200  0.69596200  0.46328100  1
  O  O6  1  0.67269600  0.96134000  0.58233700  1
  O  O7  1  0.32730400  0.03866000  0.41766300  1
  O  O8  1  0.64005900  0.74219500  0.01263300  1
  O  O9  1  0.35994100  0.25780500  0.98736700  1
  O  O10  1  0.48813800  0.77444200  0.28059600  1
  O  O11  1  0.51186200  0.22555800  0.71940400  1
  O  O12  1  0.12541100  0.03117900  0.65320200  1
  O  O13  1  0.07846100  0.06753400  0.14643000  1
  O  O14  1  0.92153900  0.93246600  0.85357000  1
  O  O15  1  0.55224500  0.13556300  0.22404800  1
  O  O16  1  0.44775500  0.86443700  0.77595200  1
  O  O17  1  0.18316200  0.44260200  0.17187900  1
  O  O18  1  0.81683800  0.55739800  0.82812100  1
  O  O19  1  0.99230100  0.26523200  0.81970400  1
  O  O20  1  0.00769900  0.73476800  0.18029600  1
  O  O21  1  0.23707500  0.78822200  0.96833000  1
  O  O22  1  0.76292500  0.21177800  0.03167000  1
  O  O23  1  0.87458900  0.96882100  0.34679800  1
loop_
_geom_bond_atom_site_label_1
_geom_bond_atom_site_label_2
_geom_bond_distance
_geom_bond_site_symmetry_2
Fe0 O16 2.063703 1_555
Fe0 O11 2.108671 1_565
Fe0 O12 2.135568 1_565
Fe0 O6 2.168200 1_555
Fe0 O5 2.175296 1_555
Fe0 O7 2.203274 1_565
Fe1 O15 2.063703 1_555
Fe1 O10 2.108671 1_545
Fe1 O23 2.135568 1_545
Fe1 O7 2.168200 1_555
Fe1 O4 2.175296 1_555
Fe1 O6 2.203274 1_545
Fe2 O17 2.043460 1_555
Fe2 O19 2.050078 1_454
Fe2 O22 2.096909 1_455
Fe2 O13 2.099723 1_555
Fe2 O9 2.231044 1_554
Fe2 O14 2.302606 1_444
Fe3 O18 2.043460 1_555
Fe3 O20 2.050078 1_656
Fe3 O21 2.096909 1_655
Fe3 O14 2.099723 1_555
Fe3 O8 2.231044 1_556
Fe3 O13 2.302606 1_666
Mo0 O18 1.782575 1_555
Mo0 O11 1.909204 1_555
Mo0 O19 1.909635 1_555
Mo0 O4 1.912605 1_555
Mo1 O17 1.782575 1_555
Mo1 O10 1.909204 1_555
Mo1 O20 1.909635 1_555
Mo1 O5 1.912605 1_555
Mo2 O0 1.774778 1_555
Mo2 O14 1.801605 1_555
Mo2 O12 1.812438 1_665
Mo2 O6 1.828941 1_555
Mo3 O21 1.762076 1_555
Mo3 O16 1.771820 1_555
Mo3 O2 1.818793 1_555
Mo3 O8 1.838289 1_556
Mo4 O1 1.774778 1_555
Mo4 O13 1.801605 1_555
Mo4 O23 1.812438 1_445
Mo4 O7 1.828941 1_555
Mo5 O22 1.762076 1_555
Mo5 O15 1.771820 1_555
Mo5 O3 1.818793 1_555
Mo5 O9 1.838289 1_554
O0 Zn0 2.055071 1_655
O1 Zn0 2.055071 1_555
O2 Zn1 1.994303 1_555
O3 Zn2 1.994303 1_555
O4 Zn0 2.095875 1_655
O5 Zn0 2.095875 1_555
O8 Zn2 2.048562 1_555
O9 Zn1 2.048562 1_555
O10 Zn2 2.028621 1_555
O11 Zn1 2.028621 1_555
O12 Zn1 2.094583 1_555
O19 Zn1 2.153340 1_655
O20 Zn2 2.153340 1_455
O23 Zn2 2.094583 1_555
