# generated using pymatgen
data_Li5W2O7
_symmetry_space_group_name_H-M   'P 1'
_cell_length_a   5.45457187
_cell_length_b   6.29950681
_cell_length_c   9.43507408
_cell_angle_alpha   72.16929453
_cell_angle_beta   79.23304061
_cell_angle_gamma   67.76246437
_symmetry_Int_Tables_number   1
_chemical_formula_structural   Li5W2O7
_chemical_formula_sum   'Li10 W4 O14'
_cell_volume   284.74498409
_cell_formula_units_Z   2
loop_
 _symmetry_equiv_pos_site_id
 _symmetry_equiv_pos_as_xyz
  1  'x, y, z'
loop_
 _atom_site_type_symbol
 _atom_site_label
 _atom_site_symmetry_multiplicity
 _atom_site_fract_x
 _atom_site_fract_y
 _atom_site_fract_z
 _atom_site_occupancy
  Li  Li0  1  0.49556700  0.20486800  0.99465100  1
  Li  Li1  1  0.50443300  0.79513200  0.00534900  1
  Li  Li2  1  0.23062700  0.54511600  0.56745200  1
  Li  Li3  1  0.76937300  0.45488400  0.43254800  1
  Li  Li4  1  0.36231900  0.87074500  0.29990700  1
  Li  Li5  1  0.63768100  0.12925500  0.70009300  1
  Li  Li6  1  0.22962100  0.05680500  0.56311200  1
  Li  Li7  1  0.77037900  0.94319500  0.43688800  1
  Li  Li8  1  0.92929600  0.85079300  0.13993200  1
  Li  Li9  1  0.07070400  0.14920700  0.86006800  1
  W  W0  1  0.93469200  0.30980300  0.14345700  1
  W  W1  1  0.06530800  0.69019700  0.85654300  1
  W  W2  1  0.34643800  0.40111300  0.29728500  1
  W  W3  1  0.65356200  0.59888700  0.70271500  1
  O  O0  1  0.20447100  0.04383000  0.07121500  1
  O  O1  1  0.79552900  0.95617000  0.92878500  1
  O  O2  1  0.49247800  0.25451800  0.49255000  1
  O  O3  1  0.50752200  0.74548200  0.50745000  1
  O  O4  1  0.61858200  0.58090500  0.21799200  1
  O  O5  1  0.38141800  0.41909400  0.78200800  1
  O  O6  1  0.17996800  0.51598700  0.08481400  1
  O  O7  1  0.82003200  0.48401300  0.91518600  1
  O  O8  1  0.08886900  0.67135200  0.34840000  1
  O  O9  1  0.91113100  0.32864800  0.65160000  1
  O  O10  1  0.89127900  0.80124400  0.65190000  1
  O  O11  1  0.10872100  0.19875600  0.34810000  1
  O  O12  1  0.35506600  0.85366500  0.79066300  1
  O  O13  1  0.64493400  0.14633500  0.20933700  1
loop_
_geom_bond_atom_site_label_1
_geom_bond_atom_site_label_2
_geom_bond_distance
_geom_bond_site_symmetry_2
Li0 O1 1.947787 1_545
Li0 O5 2.099225 1_555
Li0 O0 2.100933 1_556
Li0 O13 2.198758 1_556
Li0 O6 2.334207 1_556
Li1 O0 1.947787 1_565
Li1 O4 2.099226 1_555
Li1 O1 2.100933 1_554
Li1 O12 2.198758 1_554
Li1 O7 2.334207 1_554
Li2 O2 2.080084 1_555
Li2 O5 2.132705 1_555
Li2 O8 2.151039 1_555
Li2 O10 2.154094 1_455
Li2 O3 2.209218 1_555
Li2 O9 2.479040 1_455
Li3 O3 2.080084 1_555
Li3 O4 2.132705 1_555
Li3 O9 2.151039 1_555
Li3 O11 2.154094 1_655
Li3 O2 2.209218 1_555
Li3 O8 2.479040 1_655
Li4 O3 2.060239 1_555
Li4 O4 2.100892 1_555
Li4 O11 2.137009 1_565
Li4 O8 2.196113 1_555
Li4 O0 2.264666 1_565
Li4 O13 2.597206 1_565
Li5 O2 2.060239 1_555
Li5 O5 2.100888 1_555
Li5 O10 2.137009 1_545
Li5 O9 2.196113 1_555
Li5 O1 2.264666 1_545
Li5 O12 2.597206 1_545
Li6 O11 2.071836 1_555
Li6 O3 2.122027 1_545
Li6 O2 2.130109 1_555
Li6 O9 2.174745 1_455
Li6 O12 2.217836 1_545
Li7 O10 2.071836 1_555
Li7 O2 2.122027 1_565
Li7 O3 2.130109 1_555
Li7 O8 2.174745 1_655
Li7 O13 2.217836 1_565
Li8 O1 2.075683 1_554
Li8 O8 2.106526 1_655
Li8 O13 2.117131 1_565
Li8 O0 2.164963 1_665
Li8 O6 2.193543 1_655
Li9 O0 2.075683 1_556
Li9 O9 2.106526 1_455
Li9 O12 2.117131 1_545
Li9 O1 2.164963 1_445
Li9 O7 2.193543 1_455
O0 W0 1.973770 1_455
O1 W1 1.973770 1_655
O2 W2 1.957341 1_555
O3 W3 1.957341 1_555
O4 W2 2.093969 1_555
O4 W0 2.106615 1_555
O5 W3 2.093973 1_555
O5 W1 2.106619 1_555
O6 W0 2.093240 1_455
O6 W2 2.158997 1_555
O6 W1 2.184137 1_554
O7 W1 2.093240 1_655
O7 W3 2.158997 1_555
O7 W0 2.184137 1_556
O8 W2 1.882511 1_555
O9 W3 1.882511 1_555
O10 W3 2.044663 1_555
O10 W1 2.115072 1_655
O11 W2 2.044663 1_555
O11 W0 2.115072 1_455
O12 W3 2.061156 1_555
O12 W1 2.101813 1_555
O13 W2 2.061156 1_555
O13 W0 2.101813 1_555
