# generated using pymatgen
data_TmRu2
_symmetry_space_group_name_H-M   'P 1'
_cell_length_a   5.24432396
_cell_length_b   5.24432396
_cell_length_c   8.87149800
_cell_angle_alpha   90.00000000
_cell_angle_beta   90.00000000
_cell_angle_gamma   120.05509614
_symmetry_Int_Tables_number   1
_chemical_formula_structural   TmRu2
_chemical_formula_sum   'Tm4 Ru8'
_cell_volume   211.18605273
_cell_formula_units_Z   4
loop_
 _symmetry_equiv_pos_site_id
 _symmetry_equiv_pos_as_xyz
  1  'x, y, z'
loop_
 _atom_site_type_symbol
 _atom_site_label
 _atom_site_symmetry_multiplicity
 _atom_site_fract_x
 _atom_site_fract_y
 _atom_site_fract_z
 _atom_site_occupancy
  Tm  Tm0  1  0.66665900  0.33334100  0.56673800  1
  Tm  Tm1  1  0.33334100  0.66665900  0.43326200  1
  Tm  Tm2  1  0.33334100  0.66665900  0.06673800  1
  Tm  Tm3  1  0.66665900  0.33334100  0.93326200  1
  Ru  Ru0  1  0.00000000  0.00000000  0.50000000  1
  Ru  Ru1  1  0.00000000  0.00000000  0.00000000  1
  Ru  Ru2  1  0.17126000  0.34269400  0.75000000  1
  Ru  Ru3  1  0.17143400  0.82856600  0.75000000  1
  Ru  Ru4  1  0.65730600  0.82874000  0.75000000  1
  Ru  Ru5  1  0.82874000  0.65730600  0.25000000  1
  Ru  Ru6  1  0.82856600  0.17143400  0.25000000  1
  Ru  Ru7  1  0.34269400  0.17126000  0.25000000  1
loop_
_geom_bond_atom_site_label_1
_geom_bond_atom_site_label_2
_geom_bond_distance
_geom_bond_site_symmetry_2
Tm0 Tm1 3.249624 1_655
Tm0 Tm1 3.249624 1_545
Tm0 Tm3 3.251617 1_555
Tm0 Tm1 3.251778 1_555
Tm1 Tm2 3.251617 1_555
Tm2 Tm3 3.249624 1_564
Tm2 Tm3 3.249624 1_454
Tm2 Tm3 3.251778 1_554
Ru0 Ru5 2.709007 1_445
Ru0 Ru7 2.709007 1_555
Ru0 Ru4 2.709007 1_445
Ru0 Ru2 2.709007 1_555
Ru0 Ru6 2.710206 1_455
Ru0 Ru3 2.710206 1_545
Ru0 Tm0 3.083472 1_445
Ru0 Tm0 3.083472 1_555
Ru0 Tm1 3.083472 1_555
Ru0 Tm1 3.083472 1_445
Ru0 Tm0 3.086049 1_455
Ru0 Tm1 3.086049 1_545
Ru1 Ru5 2.709007 1_445
Ru1 Ru2 2.709007 1_554
Ru1 Ru7 2.709007 1_555
Ru1 Ru4 2.709007 1_444
Ru1 Ru6 2.710206 1_455
Ru1 Ru3 2.710206 1_544
Ru1 Tm2 3.083472 1_445
Ru1 Tm2 3.083472 1_555
Ru1 Tm3 3.083472 1_554
Ru1 Tm3 3.083472 1_444
Ru1 Tm2 3.086049 1_545
Ru1 Tm3 3.086049 1_454
Ru2 Ru4 2.546860 1_555
Ru2 Ru3 2.547613 1_555
Ru2 Ru4 2.693096 1_445
Ru2 Ru3 2.696711 1_545
Ru2 Tm3 3.085206 1_455
Ru2 Tm0 3.085206 1_455
Ru2 Tm3 3.085949 1_555
Ru2 Tm0 3.085949 1_555
Ru2 Tm2 3.171475 1_556
Ru2 Tm1 3.171475 1_555
Ru3 Ru4 2.547613 1_555
Ru3 Ru4 2.696711 1_455
Ru3 Tm3 3.083735 1_455
Ru3 Tm3 3.083735 1_565
Ru3 Tm0 3.083735 1_455
Ru3 Tm0 3.083735 1_565
Ru3 Tm2 3.171725 1_556
Ru3 Tm1 3.171725 1_555
Ru4 Tm3 3.085206 1_565
Ru4 Tm0 3.085206 1_565
Ru4 Tm3 3.085949 1_555
Ru4 Tm0 3.085949 1_555
Ru4 Tm2 3.171475 1_556
Ru4 Tm1 3.171475 1_555
Ru5 Ru7 2.546860 1_555
Ru5 Ru6 2.547613 1_555
Ru5 Ru7 2.693096 1_665
Ru5 Ru6 2.696711 1_565
Ru5 Tm1 3.085206 1_655
Ru5 Tm2 3.085206 1_655
Ru5 Tm1 3.085949 1_555
Ru5 Tm2 3.085949 1_555
Ru5 Tm0 3.171475 1_555
Ru5 Tm3 3.171475 1_554
Ru6 Ru7 2.547613 1_555
Ru6 Ru7 2.696711 1_655
Ru6 Tm1 3.083735 1_545
Ru6 Tm1 3.083735 1_655
Ru6 Tm2 3.083735 1_545
Ru6 Tm2 3.083735 1_655
Ru6 Tm0 3.171725 1_555
Ru6 Tm3 3.171725 1_554
Ru7 Tm1 3.085206 1_545
Ru7 Tm2 3.085206 1_545
Ru7 Tm1 3.085949 1_555
Ru7 Tm2 3.085949 1_555
Ru7 Tm0 3.171475 1_555
Ru7 Tm3 3.171475 1_554
