# generated using pymatgen
data_AcNd3
_symmetry_space_group_name_H-M   'P 1'
_cell_length_a   6.52040935
_cell_length_b   6.52040935
_cell_length_c   6.52040935
_cell_angle_alpha   131.63483028
_cell_angle_beta   131.63483028
_cell_angle_gamma   70.80638783
_symmetry_Int_Tables_number   1
_chemical_formula_structural   AcNd3
_chemical_formula_sum   'Ac1 Nd3'
_cell_volume   151.67361313
_cell_formula_units_Z   1
loop_
 _symmetry_equiv_pos_site_id
 _symmetry_equiv_pos_as_xyz
  1  'x, y, z'
loop_
 _atom_site_type_symbol
 _atom_site_label
 _atom_site_symmetry_multiplicity
 _atom_site_fract_x
 _atom_site_fract_y
 _atom_site_fract_z
 _atom_site_occupancy
  Ac  Ac0  1  0.00000000  0.00000000  0.00000000  1
  Nd  Nd0  1  0.75000000  0.25000000  0.50000000  1
  Nd  Nd1  1  0.25000000  0.75000000  0.50000000  1
  Nd  Nd2  1  0.50000000  0.50000000  0.00000000  1
loop_
_geom_bond_atom_site_label_1
_geom_bond_atom_site_label_2
_geom_bond_distance
_geom_bond_site_symmetry_2
Ac0 Nd1 3.767786 1_555
Ac0 Nd0 3.767786 1_455
Ac0 Nd1 3.767786 1_545
Ac0 Nd1 3.767786 1_544
Ac0 Nd0 3.767786 1_444
Ac0 Nd0 3.767786 1_454
Ac0 Nd0 3.767786 1_555
Ac0 Nd1 3.767786 1_444
Ac0 Nd2 3.777447 1_455
Ac0 Nd2 3.777447 1_545
Ac0 Nd2 3.777447 1_556
Ac0 Nd2 3.777447 1_444
Nd0 Nd2 3.767786 1_545
Nd0 Nd2 3.767786 1_556
Nd0 Nd2 3.767786 1_555
Nd0 Nd2 3.767786 1_656
Nd0 Nd1 3.777447 1_544
Nd0 Nd1 3.777447 1_656
Nd0 Nd1 3.777447 1_645
Nd0 Nd1 3.777447 1_555
Nd1 Nd2 3.767786 1_566
Nd1 Nd2 3.767786 1_556
Nd1 Nd2 3.767786 1_555
Nd1 Nd2 3.767786 1_455
