# generated using pymatgen
data_CsTaV2O8
_symmetry_space_group_name_H-M   'P 1'
_cell_length_a   5.71194000
_cell_length_b   9.30666200
_cell_length_c   16.99538652
_cell_angle_alpha   74.40986783
_cell_angle_beta   90.00000000
_cell_angle_gamma   90.00000000
_symmetry_Int_Tables_number   1
_chemical_formula_structural   CsTaV2O8
_chemical_formula_sum   'Cs4 Ta4 V8 O32'
_cell_volume   870.22007226
_cell_formula_units_Z   4
loop_
 _symmetry_equiv_pos_site_id
 _symmetry_equiv_pos_as_xyz
  1  'x, y, z'
loop_
 _atom_site_type_symbol
 _atom_site_label
 _atom_site_symmetry_multiplicity
 _atom_site_fract_x
 _atom_site_fract_y
 _atom_site_fract_z
 _atom_site_occupancy
  Cs  Cs0  1  0.25000000  0.00886000  0.38908400  1
  Cs  Cs1  1  0.75000000  0.99114000  0.61091600  1
  Cs  Cs2  1  0.25000000  0.46749400  0.11679700  1
  Cs  Cs3  1  0.75000000  0.53250600  0.88320300  1
  Ta  Ta0  1  0.25000000  0.91186500  0.15123900  1
  Ta  Ta1  1  0.75000000  0.08813500  0.84876100  1
  Ta  Ta2  1  0.25000000  0.58230500  0.34664000  1
  Ta  Ta3  1  0.75000000  0.41769500  0.65336000  1
  V  V0  1  0.75000000  0.79010600  0.04397900  1
  V  V1  1  0.25000000  0.20989400  0.95602100  1
  V  V2  1  0.75000000  0.70560700  0.45006900  1
  V  V3  1  0.25000000  0.29439300  0.54993100  1
  V  V4  1  0.75000000  0.35456800  0.33219900  1
  V  V5  1  0.25000000  0.64543200  0.66780100  1
  V  V6  1  0.75000000  0.11640600  0.20155400  1
  V  V7  1  0.25000000  0.88359400  0.79844600  1
  O  O0  1  0.00497900  0.82783500  0.09511400  1
  O  O1  1  0.50497900  0.17216500  0.90488600  1
  O  O2  1  0.99502100  0.17216500  0.90488600  1
  O  O3  1  0.49502100  0.82783500  0.09511400  1
  O  O4  1  0.75000000  0.89790000  0.94205900  1
  O  O5  1  0.25000000  0.10210000  0.05794100  1
  O  O6  1  0.00709000  0.00870500  0.20604000  1
  O  O7  1  0.50709000  0.99129500  0.79396000  1
  O  O8  1  0.99291000  0.99129500  0.79396000  1
  O  O9  1  0.49291000  0.00870500  0.20604000  1
  O  O10  1  0.25000000  0.73610200  0.24398300  1
  O  O11  1  0.75000000  0.26389800  0.75601700  1
  O  O12  1  0.00672500  0.46273500  0.30370100  1
  O  O13  1  0.50672500  0.53726500  0.69629900  1
  O  O14  1  0.99327500  0.53726500  0.69629900  1
  O  O15  1  0.49327500  0.46273500  0.30370100  1
  O  O16  1  0.75000000  0.58088100  0.54729300  1
  O  O17  1  0.25000000  0.41911900  0.45270700  1
  O  O18  1  0.00339200  0.68266400  0.39309600  1
  O  O19  1  0.50339200  0.31733600  0.60690400  1
  O  O20  1  0.99660800  0.31733600  0.60690400  1
  O  O21  1  0.49660800  0.68266400  0.39309600  1
  O  O22  1  0.75000000  0.60967400  0.04779500  1
  O  O23  1  0.25000000  0.39032600  0.95220500  1
  O  O24  1  0.75000000  0.87978600  0.45759700  1
  O  O25  1  0.25000000  0.12021400  0.54240300  1
  O  O26  1  0.75000000  0.28179900  0.43135200  1
  O  O27  1  0.25000000  0.71820100  0.56864800  1
  O  O28  1  0.75000000  0.19615200  0.28780700  1
  O  O29  1  0.25000000  0.80384800  0.71219300  1
  O  O30  1  0.75000000  0.25250600  0.11709400  1
  O  O31  1  0.25000000  0.74749400  0.88290600  1
loop_
_geom_bond_atom_site_label_1
_geom_bond_atom_site_label_2
_geom_bond_distance
_geom_bond_site_symmetry_2
Cs0 O25 3.052085 1_555
Cs0 O24 3.194302 1_545
Cs0 O24 3.194302 1_445
Cs0 O18 3.330710 1_545
Cs0 O21 3.330710 1_545
Cs0 O9 3.406649 1_555
Cs0 O6 3.406649 1_555
Cs0 O27 3.491901 1_545
Cs0 O28 3.541872 1_455
Cs0 O28 3.541872 1_555
Cs1 O24 3.052085 1_555
Cs1 O25 3.194302 1_565
Cs1 O25 3.194302 1_665
Cs1 O20 3.330710 1_565
Cs1 O19 3.330710 1_565
Cs1 O7 3.406649 1_555
Cs1 O8 3.406649 1_555
Cs1 O26 3.491901 1_565
Cs1 O29 3.541872 1_555
Cs1 O29 3.541872 1_655
Cs2 O23 3.069287 1_554
Cs2 O22 3.232438 1_555
Cs2 O22 3.232438 1_455
Cs2 O12 3.456507 1_555
Cs2 O15 3.456507 1_555
Cs2 O30 3.486323 1_455
Cs2 O30 3.486323 1_555
Cs2 O0 3.560436 1_555
Cs2 O3 3.560436 1_555
Cs2 O10 3.718347 1_555
Cs2 O5 3.793810 1_555
Cs3 O22 3.069287 1_556
Cs3 O23 3.232438 1_655
Cs3 O23 3.232438 1_555
Cs3 O13 3.456507 1_555
Cs3 O14 3.456507 1_555
Cs3 O31 3.486323 1_655
Cs3 O31 3.486323 1_555
Cs3 O1 3.560436 1_555
Cs3 O2 3.560436 1_555
Cs3 O11 3.718347 1_555
Cs3 O4 3.793810 1_555
O0 V0 1.778694 1_455
O0 Ta0 1.970059 1_555
O1 V1 1.778694 1_555
O1 Ta1 1.970059 1_555
O2 V1 1.778694 1_655
O2 Ta1 1.970059 1_555
O3 V0 1.778694 1_555
O3 Ta0 1.970059 1_555
O4 V0 1.752938 1_556
O4 Ta1 2.034650 1_565
O5 V1 1.752938 1_554
O5 Ta0 2.034650 1_545
O6 V6 1.768009 1_455
O6 Ta0 2.013953 1_545
O7 V7 1.768009 1_555
O7 Ta1 2.013953 1_565
O8 V7 1.768009 1_655
O8 Ta1 2.013953 1_565
O9 V6 1.768009 1_555
O9 Ta0 2.013953 1_545
O10 Ta2 1.936594 1_555
O10 Ta0 1.942764 1_555
O11 Ta3 1.936594 1_555
O11 Ta1 1.942764 1_555
O12 V4 1.770939 1_455
O12 Ta2 2.034278 1_555
O13 V5 1.770939 1_555
O13 Ta3 2.034278 1_555
O14 V5 1.770939 1_655
O14 Ta3 2.034278 1_555
O15 V4 1.770939 1_555
O15 Ta2 2.034278 1_555
O16 V2 1.745495 1_555
O16 Ta3 2.021016 1_555
O17 V3 1.745495 1_555
O17 Ta2 2.021016 1_555
O18 V2 1.785815 1_455
O18 Ta2 1.968832 1_555
O19 V3 1.785815 1_555
O19 Ta3 1.968832 1_555
O20 V3 1.785815 1_655
O20 Ta3 1.968832 1_555
O21 V2 1.785815 1_555
O21 Ta2 1.968832 1_555
O22 V0 1.662963 1_555
O23 V1 1.662963 1_555
O24 V2 1.659990 1_555
O25 V3 1.659990 1_555
O26 V4 1.638576 1_555
O27 V5 1.638576 1_555
O28 V6 1.812310 1_555
O28 V4 1.827764 1_555
O29 V7 1.812310 1_555
O29 V5 1.827764 1_555
O30 V6 1.639375 1_555
O31 V7 1.639375 1_555
