# generated using pymatgen
data_RbMg14SiO16
_symmetry_space_group_name_H-M   'P 1'
_cell_length_a   8.74249284
_cell_length_b   8.49482723
_cell_length_c   4.52169854
_cell_angle_alpha   90.00000000
_cell_angle_beta   90.00000000
_cell_angle_gamma   90.00000000
_symmetry_Int_Tables_number   1
_chemical_formula_structural   RbMg14SiO16
_chemical_formula_sum   'Rb1 Mg14 Si1 O16'
_cell_volume   335.80831110
_cell_formula_units_Z   1
loop_
 _symmetry_equiv_pos_site_id
 _symmetry_equiv_pos_as_xyz
  1  'x, y, z'
loop_
 _atom_site_type_symbol
 _atom_site_label
 _atom_site_symmetry_multiplicity
 _atom_site_fract_x
 _atom_site_fract_y
 _atom_site_fract_z
 _atom_site_occupancy
  Rb  Rb0  1  0.00000000  0.50000000  0.00000000  1
  Mg  Mg0  1  0.50000000  0.00000000  0.00000000  1
  Mg  Mg1  1  0.50000000  0.50000000  0.00000000  1
  Mg  Mg2  1  0.00000000  0.24967226  0.50000000  1
  Mg  Mg3  1  0.00000000  0.75032774  0.50000000  1
  Mg  Mg4  1  0.50000000  0.25081264  0.50000000  1
  Mg  Mg5  1  0.50000000  0.74918736  0.50000000  1
  Mg  Mg6  1  0.25082806  0.00000000  0.50000000  1
  Mg  Mg7  1  0.25515859  0.50000000  0.50000000  1
  Mg  Mg8  1  0.74917194  0.00000000  0.50000000  1
  Mg  Mg9  1  0.74484141  0.50000000  0.50000000  1
  Mg  Mg10  1  0.25966638  0.25085085  0.00000000  1
  Mg  Mg11  1  0.25966638  0.74914915  0.00000000  1
  Mg  Mg12  1  0.74033362  0.25085085  -0.00000000  1
  Mg  Mg13  1  0.74033362  0.74914915  -0.00000000  1
  Si  Si0  1  0.00000000  0.00000000  0.00000000  1
  O  O0  1  0.24368972  0.00000000  0.00000000  1
  O  O1  1  0.28012558  0.50000000  0.00000000  1
  O  O2  1  0.75631028  0.00000000  0.00000000  1
  O  O3  1  0.71987442  0.50000000  0.00000000  1
  O  O4  1  0.24879500  0.24914134  0.50000000  1
  O  O5  1  0.24879500  0.75085866  0.50000000  1
  O  O6  1  0.75120500  0.24914134  0.50000000  1
  O  O7  1  0.75120500  0.75085866  0.50000000  1
  O  O8  1  0.00000000  0.00000000  0.50000000  1
  O  O9  1  0.00000000  0.50000000  0.50000000  1
  O  O10  1  0.50000000  0.00000000  0.50000000  1
  O  O11  1  0.50000000  0.50000000  0.50000000  1
  O  O12  1  0.00000000  0.20356776  0.00000000  1
  O  O13  1  0.00000000  0.79643224  -0.00000000  1
  O  O14  1  0.50000000  0.24144173  0.00000000  1
  O  O15  1  0.50000000  0.75855827  0.00000000  1
loop_
_geom_bond_atom_site_label_1
_geom_bond_atom_site_label_2
_geom_bond_distance
_geom_bond_site_symmetry_2
Mg0 O14 2.051006 1_555
Mg0 O15 2.051006 1_545
Mg0 O0 2.240791 1_555
Mg0 O2 2.240791 1_555
Mg0 O10 2.260849 1_555
Mg0 O10 2.260849 1_554
Mg1 O3 1.922251 1_555
Mg1 O1 1.922251 1_555
Mg1 O15 2.196408 1_555
Mg1 O14 2.196408 1_555
Mg1 O11 2.260849 1_554
Mg1 O11 2.260849 1_555
Mg2 O8 2.120923 1_555
Mg2 O9 2.126491 1_555
Mg2 O4 2.175093 1_555
Mg2 O6 2.175093 1_455
Mg2 O12 2.294522 1_555
Mg2 O12 2.294522 1_556
Mg3 O8 2.120923 1_565
Mg3 O9 2.126491 1_555
Mg3 O5 2.175093 1_555
Mg3 O7 2.175093 1_455
Mg3 O13 2.294522 1_556
Mg3 O13 2.294522 1_555
Mg4 O11 2.116804 1_555
Mg4 O10 2.130610 1_555
Mg4 O4 2.196204 1_555
Mg4 O6 2.196204 1_555
Mg4 O14 2.262250 1_556
Mg4 O14 2.262250 1_555
Mg5 O11 2.116804 1_555
Mg5 O10 2.130610 1_565
Mg5 O5 2.196204 1_555
Mg5 O7 2.196204 1_555
Mg5 O15 2.262250 1_556
Mg5 O15 2.262250 1_555
Mg6 O4 2.116487 1_555
Mg6 O5 2.116487 1_545
Mg6 O10 2.178384 1_555
Mg6 O8 2.192863 1_555
Mg6 O0 2.261710 1_555
Mg6 O0 2.261710 1_556
Mg7 O4 2.131727 1_555
Mg7 O5 2.131727 1_555
Mg7 O11 2.140524 1_555
Mg7 O9 2.230722 1_555
Mg7 O1 2.271361 1_556
Mg7 O1 2.271361 1_555
Mg8 O6 2.116487 1_555
Mg8 O7 2.116487 1_545
Mg8 O10 2.178384 1_555
Mg8 O8 2.192863 1_655
Mg8 O2 2.261710 1_556
Mg8 O2 2.261710 1_555
Mg9 O7 2.131727 1_555
Mg9 O6 2.131727 1_555
Mg9 O11 2.140524 1_555
Mg9 O9 2.230722 1_655
Mg9 O3 2.271361 1_556
Mg9 O3 2.271361 1_555
Mg10 O14 2.102635 1_555
Mg10 O1 2.124023 1_555
Mg10 O0 2.135507 1_555
Mg10 O4 2.262893 1_555
Mg10 O4 2.262893 1_554
Mg10 O12 2.305391 1_555
Mg11 O15 2.102635 1_555
Mg11 O1 2.124023 1_555
Mg11 O0 2.135507 1_565
Mg11 O5 2.262893 1_555
Mg11 O5 2.262893 1_554
Mg11 O13 2.305391 1_555
Mg12 O14 2.102635 1_555
Mg12 O3 2.124023 1_555
Mg12 O2 2.135507 1_555
Mg12 O6 2.262893 1_555
Mg12 O6 2.262893 1_554
Mg12 O12 2.305391 1_655
Mg13 O15 2.102635 1_555
Mg13 O3 2.124023 1_555
Mg13 O2 2.135507 1_565
Mg13 O7 2.262893 1_555
Mg13 O7 2.262893 1_554
Mg13 O13 2.305391 1_655
O0 Si0 2.130456 1_555
O1 Rb0 2.448996 1_555
O2 Si0 2.130456 1_655
O3 Rb0 2.448996 1_655
O8 Si0 2.260849 1_555
O8 Si0 2.260849 1_556
O9 Rb0 2.260849 1_555
O9 Rb0 2.260849 1_556
O12 Si0 1.729273 1_555
O12 Rb0 2.518141 1_555
O13 Si0 1.729273 1_565
O13 Rb0 2.518141 1_555
