# generated using pymatgen
data_Dy2(MoO4)3
_symmetry_space_group_name_H-M   'P 1'
_cell_length_a   7.34527211
_cell_length_b   7.34527211
_cell_length_c   10.54365914
_cell_angle_alpha   90.00000000
_cell_angle_beta   90.00000000
_cell_angle_gamma   90.00000000
_symmetry_Int_Tables_number   1
_chemical_formula_structural   Dy2(MoO4)3
_chemical_formula_sum   'Dy4 Mo6 O24'
_cell_volume   568.86227744
_cell_formula_units_Z   2
loop_
 _symmetry_equiv_pos_site_id
 _symmetry_equiv_pos_as_xyz
  1  'x, y, z'
loop_
 _atom_site_type_symbol
 _atom_site_label
 _atom_site_symmetry_multiplicity
 _atom_site_fract_x
 _atom_site_fract_y
 _atom_site_fract_z
 _atom_site_occupancy
  Dy  Dy0  1  0.18617241  0.68617241  0.73878069  1
  Dy  Dy1  1  0.81382759  0.31382759  0.73878069  1
  Dy  Dy2  1  0.68617241  0.81382759  0.26121931  1
  Dy  Dy3  1  0.31382759  0.18617241  0.26121931  1
  Mo  Mo0  1  0.20677933  0.70677933  0.35536628  1
  Mo  Mo1  1  0.79322067  0.29322067  0.35536628  1
  Mo  Mo2  1  0.70677933  0.79322067  0.64463372  1
  Mo  Mo3  1  0.29322067  0.20677933  0.64463372  1
  Mo  Mo4  1  -0.00000000  0.00000000  0.00000000  1
  Mo  Mo5  1  0.50000000  0.50000000  0.00000000  1
  O  O0  1  0.00483538  0.22480812  0.29541734  1
  O  O1  1  0.99516462  0.77519188  0.29541734  1
  O  O2  1  0.22480812  0.99516462  0.70458266  1
  O  O3  1  0.49516462  0.72480812  0.70458266  1
  O  O4  1  0.77519188  0.00483538  0.70458266  1
  O  O5  1  0.50483538  0.27519188  0.70458266  1
  O  O6  1  0.27519188  0.49516462  0.29541734  1
  O  O7  1  0.72480812  0.50483538  0.29541734  1
  O  O8  1  0.19096938  0.04017904  0.09675196  1
  O  O9  1  0.80903062  0.95982096  0.09675196  1
  O  O10  1  0.04017904  0.80903062  0.90324804  1
  O  O11  1  0.30903062  0.54017904  0.90324804  1
  O  O12  1  0.95982096  0.19096938  0.90324804  1
  O  O13  1  0.69096938  0.45982096  0.90324804  1
  O  O14  1  0.45982096  0.30903062  0.09675196  1
  O  O15  1  0.54017904  0.69096938  0.09675196  1
  O  O16  1  0.62617131  0.12617131  0.30961005  1
  O  O17  1  0.37382869  0.87382869  0.30961005  1
  O  O18  1  0.12617131  0.37382869  0.69038995  1
  O  O19  1  0.87382869  0.62617131  0.69038995  1
  O  O20  1  0.19425095  0.69425095  0.52098782  1
  O  O21  1  0.80574905  0.30574905  0.52098782  1
  O  O22  1  0.69425095  0.80574905  0.47901218  1
  O  O23  1  0.30574905  0.19425095  0.47901218  1
loop_
_geom_bond_atom_site_label_1
_geom_bond_atom_site_label_2
_geom_bond_distance
_geom_bond_site_symmetry_2
Dy0 O11 2.229662 1_555
Dy0 O10 2.229662 1_555
Dy0 O20 2.297867 1_555
Dy0 O3 2.315551 1_555
Dy0 O2 2.315551 1_555
Dy0 O18 2.391263 1_555
Dy0 O19 2.391263 1_455
Dy1 O12 2.229662 1_555
Dy1 O13 2.229662 1_555
Dy1 O21 2.297867 1_555
Dy1 O4 2.315551 1_555
Dy1 O5 2.315551 1_555
Dy1 O18 2.391263 1_655
Dy1 O19 2.391263 1_555
Dy2 O15 2.229662 1_555
Dy2 O9 2.229662 1_555
Dy2 O22 2.297867 1_555
Dy2 O1 2.315551 1_555
Dy2 O7 2.315551 1_555
Dy2 O16 2.391263 1_565
Dy2 O17 2.391263 1_555
Dy3 O8 2.229662 1_555
Dy3 O14 2.229662 1_555
Dy3 O23 2.297867 1_555
Dy3 O6 2.315551 1_555
Dy3 O0 2.315551 1_555
Dy3 O16 2.391263 1_555
Dy3 O17 2.391263 1_545
Mo0 O20 1.751100 1_555
Mo0 O1 1.751599 1_455
Mo0 O6 1.751599 1_555
Mo0 O17 1.801088 1_555
Mo1 O21 1.751100 1_555
Mo1 O7 1.751599 1_555
Mo1 O0 1.751599 1_655
Mo1 O16 1.801088 1_555
Mo2 O22 1.751100 1_555
Mo2 O3 1.751599 1_555
Mo2 O4 1.751599 1_565
Mo2 O19 1.801088 1_555
Mo3 O23 1.751100 1_555
Mo3 O5 1.751599 1_555
Mo3 O2 1.751599 1_545
Mo3 O18 1.801088 1_555
Mo4 O10 1.759367 1_544
Mo4 O8 1.759367 1_555
Mo4 O12 1.759367 1_454
Mo4 O9 1.759367 1_445
Mo5 O13 1.759367 1_554
Mo5 O11 1.759367 1_554
Mo5 O15 1.759367 1_555
Mo5 O14 1.759367 1_555
