# generated using pymatgen
data_La2I6O19
_symmetry_space_group_name_H-M   'P 1'
_cell_length_a   11.25767000
_cell_length_b   7.44448600
_cell_length_c   12.97375816
_cell_angle_alpha   57.35239296
_cell_angle_beta   90.00000000
_cell_angle_gamma   90.00000000
_symmetry_Int_Tables_number   1
_chemical_formula_structural   La2I6O19
_chemical_formula_sum   'La4 I12 O38'
_cell_volume   915.51067403
_cell_formula_units_Z   2
loop_
 _symmetry_equiv_pos_site_id
 _symmetry_equiv_pos_as_xyz
  1  'x, y, z'
loop_
 _atom_site_type_symbol
 _atom_site_label
 _atom_site_symmetry_multiplicity
 _atom_site_fract_x
 _atom_site_fract_y
 _atom_site_fract_z
 _atom_site_occupancy
  La  La0  1  0.50148400  0.10010800  0.07793800  1
  La  La1  1  0.49851600  0.10010800  0.57793800  1
  La  La2  1  0.02067900  0.49493800  0.67666600  1
  La  La3  1  0.97932100  0.49493800  0.17666600  1
  I  I0  1  0.85055000  0.10013600  0.07785400  1
  I  I1  1  0.14945000  0.10013600  0.57785400  1
  I  I2  1  0.66691900  0.33222700  0.75919300  1
  I  I3  1  0.33308100  0.33222700  0.25919300  1
  I  I4  1  0.32989300  0.55365500  0.78683600  1
  I  I5  1  0.67010700  0.55365500  0.28683600  1
  I  I6  1  0.46707300  0.74996400  0.44572800  1
  I  I7  1  0.53292700  0.74996400  0.94572800  1
  I  I8  1  0.14884800  0.76634600  0.32002300  1
  I  I9  1  0.85115200  0.76634600  0.82002300  1
  I  I10  1  0.81077400  0.02845300  0.44944800  1
  I  I11  1  0.18922600  0.02845300  0.94944800  1
  O  O0  1  0.71083100  0.11580100  0.14393800  1
  O  O1  1  0.28916900  0.11580100  0.64393800  1
  O  O2  1  0.87156200  0.80948200  0.17205300  1
  O  O3  1  0.12843800  0.80948200  0.67205300  1
  O  O4  1  0.94977900  0.17238600  0.16267500  1
  O  O5  1  0.05022100  0.17238600  0.66267500  1
  O  O6  1  0.66481300  0.16330100  0.92659400  1
  O  O7  1  0.33518700  0.16330100  0.42659400  1
  O  O8  1  0.82579900  0.30623500  0.74112700  1
  O  O9  1  0.17420100  0.30623500  0.24112700  1
  O  O10  1  0.61872600  0.11798300  0.73838400  1
  O  O11  1  0.38127400  0.11798300  0.23838400  1
  O  O12  1  0.45625600  0.36785100  0.84631000  1
  O  O13  1  0.54374400  0.36785100  0.34631000  1
  O  O14  1  0.23320800  0.39522400  0.74840500  1
  O  O15  1  0.76679200  0.39522400  0.24840500  1
  O  O16  1  0.38773300  0.74066200  0.63303500  1
  O  O17  1  0.61226700  0.74066200  0.13303500  1
  O  O18  1  0.54339100  0.80912000  0.30446200  1
  O  O19  1  0.45660900  0.80912000  0.80446200  1
  O  O20  1  0.51997500  0.47324700  0.54160400  1
  O  O21  1  0.48002500  0.47324700  0.04160400  1
  O  O22  1  0.57652700  0.88185400  0.48980100  1
  O  O23  1  0.42347300  0.88185400  0.98980100  1
  O  O24  1  0.05519400  0.54300600  0.34582000  1
  O  O25  1  0.94480600  0.54300600  0.84582000  1
  O  O26  1  0.29413400  0.64746800  0.33244400  1
  O  O27  1  0.70586600  0.64746800  0.83244400  1
  O  O28  1  0.13316600  0.71859000  0.47304900  1
  O  O29  1  0.86683400  0.71859000  0.97304900  1
  O  O30  1  0.95415300  0.16624300  0.40693600  1
  O  O31  1  0.04584700  0.16624300  0.90693600  1
  O  O32  1  0.73289700  0.15108000  0.52049800  1
  O  O33  1  0.26710300  0.15108000  0.02049800  1
  O  O34  1  0.86161100  0.78665500  0.59450800  1
  O  O35  1  0.13838900  0.78665500  0.09450800  1
  O  O36  1  0.89534900  0.53228600  0.49397000  1
  O  O37  1  0.10465100  0.53228600  0.99397000  1
loop_
_geom_bond_atom_site_label_1
_geom_bond_atom_site_label_2
_geom_bond_distance
_geom_bond_site_symmetry_2
La0 O0 2.531618 1_555
La0 O6 2.541821 1_554
La0 O11 2.545772 1_555
La0 O21 2.565948 1_555
La0 O18 2.585203 1_545
La0 O23 2.592931 1_544
La0 O12 2.607693 1_554
La0 O17 2.676377 1_545
La0 O33 2.712260 1_555
La1 O1 2.531618 1_555
La1 O7 2.541821 1_555
La1 O10 2.545772 1_555
La1 O20 2.565948 1_555
La1 O19 2.585203 1_545
La1 O22 2.592931 1_545
La1 O13 2.607693 1_555
La1 O16 2.676377 1_545
La1 O32 2.712260 1_555
La2 O8 2.493682 1_455
La2 O5 2.525816 1_555
La2 O14 2.529090 1_555
La2 O25 2.553632 1_455
La2 O34 2.561553 1_455
La2 O28 2.570737 1_555
La2 O3 2.609062 1_555
La2 O36 2.641036 1_455
La2 O31 2.665628 1_555
La3 O9 2.493682 1_655
La3 O4 2.525816 1_555
La3 O15 2.529090 1_555
La3 O24 2.553632 1_655
La3 O35 2.561553 1_655
La3 O29 2.570737 1_554
La3 O2 2.609062 1_555
La3 O37 2.641036 1_654
La3 O30 2.665628 1_555
I0 O0 1.824989 1_555
I0 O2 1.838013 1_545
I0 O4 1.840321 1_555
I1 O1 1.824989 1_555
I1 O3 1.838013 1_545
I1 O5 1.840321 1_555
I2 O8 1.827694 1_555
I2 O6 1.830854 1_555
I2 O10 1.837290 1_555
I2 O12 2.701024 1_555
I3 O9 1.827694 1_555
I3 O7 1.830854 1_555
I3 O11 1.837290 1_555
I3 O13 2.701024 1_555
I4 O16 1.829333 1_555
I4 O12 1.838686 1_555
I4 O14 1.859804 1_555
I4 O19 2.484625 1_555
I5 O17 1.829333 1_555
I5 O13 1.838686 1_555
I5 O15 1.859804 1_555
I5 O18 2.484625 1_555
I6 O20 1.838720 1_555
I6 O22 1.847979 1_555
I6 O18 1.849390 1_555
I6 O16 2.554658 1_555
I7 O21 1.838720 1_556
I7 O23 1.847979 1_555
I7 O19 1.849390 1_555
I7 O17 2.554658 1_556
I8 O26 1.824945 1_555
I8 O28 1.826890 1_555
I8 O24 1.840553 1_555
I9 O27 1.824945 1_555
I9 O29 1.826890 1_555
I9 O25 1.840553 1_555
I10 O30 1.830671 1_555
I10 O32 1.832925 1_555
I10 O34 1.858625 1_545
I10 O15 2.611435 1_555
I11 O31 1.830671 1_555
I11 O33 1.832925 1_556
I11 O35 1.858625 1_546
I11 O14 2.611435 1_555
