# generated using pymatgen
data_Th(NF2)4
_symmetry_space_group_name_H-M   'P 1'
_cell_length_a   7.39514700
_cell_length_b   8.73229983
_cell_length_c   9.39914290
_cell_angle_alpha   106.57174326
_cell_angle_beta   93.90120101
_cell_angle_gamma   97.82520605
_symmetry_Int_Tables_number   1
_chemical_formula_structural   Th(NF2)4
_chemical_formula_sum   'Th2 N8 F16'
_cell_volume   572.67462972
_cell_formula_units_Z   2
loop_
 _symmetry_equiv_pos_site_id
 _symmetry_equiv_pos_as_xyz
  1  'x, y, z'
loop_
 _atom_site_type_symbol
 _atom_site_label
 _atom_site_symmetry_multiplicity
 _atom_site_fract_x
 _atom_site_fract_y
 _atom_site_fract_z
 _atom_site_occupancy
  Th  Th0  1  0.23649500  0.95479600  0.91035000  1
  Th  Th1  1  0.76350500  0.04520400  0.08965000  1
  N  N0  1  0.71700400  0.63212400  0.32439400  1
  N  N1  1  0.28299600  0.36787600  0.67560600  1
  N  N2  1  0.16335200  0.49411700  0.17821400  1
  N  N3  1  0.83664800  0.50588300  0.82178600  1
  N  N4  1  0.45490800  0.79105100  0.53860300  1
  N  N5  1  0.54509200  0.20894900  0.46139700  1
  N  N6  1  0.83793200  0.68269400  0.41055100  1
  N  N7  1  0.16206800  0.31730600  0.58944900  1
  F  F0  1  0.24988200  0.42753600  0.05361900  1
  F  F1  1  0.75011800  0.57246400  0.94638100  1
  F  F2  1  0.44529400  0.20484300  0.32782400  1
  F  F3  1  0.55470600  0.79515700  0.67217600  1
  F  F4  1  0.16007000  0.65091400  0.17531600  1
  F  F5  1  0.83993000  0.34908600  0.82468400  1
  F  F6  1  0.09765600  0.08038200  0.11979700  1
  F  F7  1  0.90234400  0.91961800  0.88020300  1
  F  F8  1  0.21892100  0.02882400  0.71647800  1
  F  F9  1  0.78107900  0.97117600  0.28352200  1
  F  F10  1  0.80464000  0.29756300  0.18629600  1
  F  F11  1  0.19536000  0.70243700  0.81370400  1
  F  F12  1  0.46679300  0.89055000  0.06194600  1
  F  F13  1  0.53320700  0.10945000  0.93805400  1
  F  F14  1  0.35836800  0.63665700  0.48979300  1
  F  F15  1  0.64163200  0.36334300  0.51020700  1
loop_
_geom_bond_atom_site_label_1
_geom_bond_atom_site_label_2
_geom_bond_distance
_geom_bond_site_symmetry_2
N0 N6 1.113758 1_555
N1 N7 1.113758 1_555
F0 N2 1.390624 1_555
F1 N3 1.390624 1_555
F2 N5 1.401145 1_555
F3 N4 1.401145 1_555
F4 N2 1.380677 1_555
F5 N3 1.380677 1_555
F6 Th0 2.341463 1_544
F6 Th1 2.435023 1_455
F7 Th1 2.341463 1_566
F7 Th0 2.435023 1_655
F8 Th0 2.101877 1_545
F9 Th1 2.101877 1_565
F10 Th1 2.100443 1_555
F11 Th0 2.100443 1_555
F12 Th1 2.370866 1_565
F12 Th0 2.373071 1_554
F13 Th0 2.370866 1_545
F13 Th1 2.373071 1_556
F14 N4 1.370531 1_555
F15 N5 1.370531 1_555
