# generated using pymatgen
data_Rb4Mo5(PO11)2
_symmetry_space_group_name_H-M   'P 1'
_cell_length_a   10.44179809
_cell_length_b   10.44179809
_cell_length_c   17.44502190
_cell_angle_alpha   90.00000000
_cell_angle_beta   90.00000000
_cell_angle_gamma   143.51652809
_symmetry_Int_Tables_number   1
_chemical_formula_structural   Rb4Mo5(PO11)2
_chemical_formula_sum   'Rb8 Mo10 P4 O44'
_cell_volume   1130.94202037
_cell_formula_units_Z   2
loop_
 _symmetry_equiv_pos_site_id
 _symmetry_equiv_pos_as_xyz
  1  'x, y, z'
loop_
 _atom_site_type_symbol
 _atom_site_label
 _atom_site_symmetry_multiplicity
 _atom_site_fract_x
 _atom_site_fract_y
 _atom_site_fract_z
 _atom_site_occupancy
  Rb  Rb0  1  0.03767265  0.03767265  -0.00000000  1
  Rb  Rb1  1  0.96232735  0.96232735  0.50000000  1
  Rb  Rb2  1  0.70466139  0.22966693  0.59871739  1
  Rb  Rb3  1  0.22966693  0.70466139  0.40128261  1
  Rb  Rb4  1  0.29533861  0.77033307  0.09871739  1
  Rb  Rb5  1  0.77033307  0.29533861  0.90128261  1
  Rb  Rb6  1  0.08290724  0.91709276  0.75000000  1
  Rb  Rb7  1  0.91709276  0.08290724  0.25000000  1
  Mo  Mo0  1  0.29241165  0.57226887  0.59236057  1
  Mo  Mo1  1  0.57226887  0.29241165  0.40763943  1
  Mo  Mo2  1  0.70758835  0.42773113  0.09236057  1
  Mo  Mo3  1  0.42773113  0.70758835  0.90763943  1
  Mo  Mo4  1  0.26247934  0.73752066  0.75000000  1
  Mo  Mo5  1  0.73752066  0.26247934  0.25000000  1
  Mo  Mo6  1  0.52070247  0.47254036  0.85686160  1
  Mo  Mo7  1  0.47253936  0.52070247  0.14313840  1
  Mo  Mo8  1  0.47929753  0.52746064  0.35686160  1
  Mo  Mo9  1  0.52745964  0.47929753  0.64313840  1
  P  P0  1  0.68922364  0.87223952  0.73403765  1
  P  P1  1  0.87223952  0.68922364  0.26596235  1
  P  P2  1  0.31077636  0.12776048  0.23403765  1
  P  P3  1  0.12776048  0.31077636  0.76596235  1
  O  O0  1  0.77250242  0.83246698  0.68497603  1
  O  O1  1  0.83246698  0.77250242  0.31502397  1
  O  O2  1  0.22749758  0.16753302  0.18497603  1
  O  O3  1  0.16753302  0.22749758  0.81502397  1
  O  O4  1  0.61184283  0.76059791  0.81179648  1
  O  O5  1  0.76059791  0.61184283  0.18820352  1
  O  O6  1  0.38815717  0.23940209  0.31179648  1
  O  O7  1  0.23940209  0.38815717  0.68820352  1
  O  O8  1  0.87619838  0.12380162  0.75000000  1
  O  O9  1  0.12380162  0.87619838  0.25000000  1
  O  O10  1  0.52030908  0.81805937  0.69371350  1
  O  O11  1  0.81805937  0.52030908  0.30628650  1
  O  O12  1  0.47969092  0.18194063  0.19371350  1
  O  O13  1  0.18194063  0.47969092  0.80628650  1
  O  O14  1  0.48333738  0.58446349  0.57461907  1
  O  O15  1  0.58446349  0.48333738  0.42538093  1
  O  O16  1  0.51666262  0.41553651  0.07461907  1
  O  O17  1  0.41553651  0.51666262  0.92538093  1
  O  O18  1  0.07479066  0.35601591  0.53792370  1
  O  O19  1  0.35601591  0.07479066  0.46207630  1
  O  O20  1  0.92520934  0.64398409  0.03792370  1
  O  O21  1  0.64398409  0.92520934  0.96207630  1
  O  O22  1  0.42185798  0.79255538  0.54064529  1
  O  O23  1  0.79255538  0.42185798  0.45935471  1
  O  O24  1  0.57814202  0.20744462  0.04064529  1
  O  O25  1  0.20744462  0.57814202  0.95935471  1
  O  O26  1  0.44774426  0.86638630  0.83667370  1
  O  O27  1  0.86638630  0.44774426  0.16332630  1
  O  O28  1  0.55225574  0.13361370  0.33667370  1
  O  O29  1  0.13361370  0.55225574  0.66332630  1
  O  O30  1  0.38385064  0.96676195  0.71034043  1
  O  O31  1  0.96676195  0.38385064  0.28965957  1
  O  O32  1  0.61614936  0.03323805  0.21034043  1
  O  O33  1  0.03323805  0.61614936  0.78965957  1
  O  O34  1  0.41536813  0.24898666  0.89221209  1
  O  O35  1  0.24898666  0.41536813  0.10778791  1
  O  O36  1  0.58463187  0.75101334  0.39221209  1
  O  O37  1  0.75101334  0.58463187  0.60778791  1
  O  O38  1  0.54473602  0.45526398  0.75000000  1
  O  O39  1  0.45526398  0.54473602  0.25000000  1
  O  O40  1  0.78561161  0.67813969  0.88309455  1
  O  O41  1  0.67813969  0.78561161  0.11690545  1
  O  O42  1  0.21438839  0.32186031  0.38309455  1
  O  O43  1  0.32186031  0.21438839  0.61690545  1
loop_
_geom_bond_atom_site_label_1
_geom_bond_atom_site_label_2
_geom_bond_distance
_geom_bond_site_symmetry_2
Mo0 O18 1.706797 1_555
Mo0 O22 1.712369 1_555
Mo0 O14 1.917881 1_555
Mo0 O29 1.941269 1_555
Mo0 O7 2.255349 1_555
Mo0 O10 2.356872 1_555
Mo1 O19 1.706797 1_555
Mo1 O23 1.712369 1_555
Mo1 O15 1.917881 1_555
Mo1 O28 1.941269 1_555
Mo1 O6 2.255349 1_555
Mo1 O11 2.356872 1_555
Mo2 O20 1.706797 1_555
Mo2 O24 1.712369 1_555
Mo2 O16 1.917881 1_555
Mo2 O27 1.941269 1_555
Mo2 O5 2.255349 1_555
Mo2 O12 2.356872 1_555
Mo3 O21 1.706797 1_555
Mo3 O25 1.712369 1_555
Mo3 O17 1.917881 1_555
Mo3 O26 1.941269 1_555
Mo3 O4 2.255349 1_555
Mo3 O13 2.356872 1_555
Mo4 O30 1.713579 1_555
Mo4 O33 1.713579 1_555
Mo4 O26 1.911355 1_555
Mo4 O29 1.911355 1_555
Mo4 O10 2.297526 1_555
Mo4 O13 2.297526 1_555
Mo5 O31 1.713579 1_555
Mo5 O32 1.713579 1_555
Mo5 O28 1.911355 1_555
Mo5 O27 1.911355 1_555
Mo5 O11 2.297526 1_555
Mo5 O12 2.297526 1_555
Mo6 O34 1.705990 1_555
Mo6 O40 1.708940 1_555
Mo6 O38 1.908814 1_555
Mo6 O17 1.913237 1_555
Mo6 O3 2.346420 1_555
Mo6 O4 2.442910 1_555
Mo7 O35 1.705981 1_555
Mo7 O41 1.708940 1_555
Mo7 O39 1.908812 1_555
Mo7 O16 1.913244 1_555
Mo7 O2 2.346422 1_555
Mo7 O5 2.442919 1_555
Mo8 O36 1.705981 1_555
Mo8 O42 1.708940 1_555
Mo8 O39 1.908812 1_555
Mo8 O15 1.913244 1_555
Mo8 O1 2.346422 1_555
Mo8 O6 2.442919 1_555
Mo9 O37 1.705990 1_555
Mo9 O43 1.708940 1_555
Mo9 O38 1.908814 1_555
Mo9 O14 1.913237 1_555
Mo9 O0 2.346420 1_555
Mo9 O7 2.442910 1_555
O0 P0 1.497297 1_555
O0 Rb6 2.822636 1_655
O0 Rb1 3.443607 1_555
O1 P1 1.497297 1_555
O1 Rb7 2.822636 1_565
O1 Rb1 3.443607 1_555
O2 P2 1.497297 1_555
O2 Rb7 2.822636 1_455
O2 Rb0 3.443607 1_555
O3 P3 1.497297 1_555
O3 Rb6 2.822636 1_545
O3 Rb0 3.443607 1_556
O4 P0 1.528810 1_555
O5 P1 1.528810 1_555
O6 P2 1.528810 1_555
O7 P3 1.528810 1_555
O8 P3 1.594489 1_655
O8 P0 1.594489 1_545
O9 P1 1.594489 1_455
O9 P2 1.594489 1_565
O10 P0 1.523558 1_555
O10 Rb2 3.408804 1_565
O11 P1 1.523558 1_555
O11 Rb3 3.408804 1_655
O12 P2 1.523558 1_555
O12 Rb4 3.408804 1_545
O13 P3 1.523558 1_555
O13 Rb5 3.408804 1_455
O14 Rb1 3.247163 1_555
O15 Rb1 3.247163 1_555
O16 Rb0 3.247163 1_555
O17 Rb0 3.247163 1_556
O18 Rb2 3.098843 1_455
O18 Rb1 3.309498 1_445
O18 Rb3 3.476104 1_555
O19 Rb3 3.098843 1_545
O19 Rb1 3.309498 1_445
O19 Rb2 3.476104 1_555
O20 Rb4 3.098843 1_655
O20 Rb0 3.309498 1_665
O20 Rb5 3.476104 1_554
O21 Rb5 3.098843 1_565
O21 Rb0 3.309498 1_666
O21 Rb4 3.476104 1_556
O22 Rb3 2.796171 1_555
O22 Rb2 2.984139 1_565
O23 Rb2 2.796171 1_555
O23 Rb3 2.984139 1_655
O24 Rb5 2.796171 1_554
O24 Rb4 2.984139 1_545
O25 Rb4 2.796171 1_556
O25 Rb5 2.984139 1_455
O26 Rb5 2.901238 1_565
O27 Rb4 2.901238 1_655
O28 Rb3 2.901238 1_545
O29 Rb2 2.901238 1_455
O30 Rb2 2.785990 1_565
O30 Rb6 2.828698 1_555
O31 Rb3 2.785990 1_655
O31 Rb7 2.828698 1_555
O32 Rb4 2.785990 1_545
O32 Rb7 2.828698 1_555
O33 Rb5 2.785990 1_455
O33 Rb6 2.828698 1_555
O34 Rb0 3.156699 1_556
O34 Rb6 3.297000 1_545
O34 Rb5 3.333541 1_555
O35 Rb0 3.156699 1_555
O35 Rb7 3.297000 1_455
O35 Rb4 3.333541 1_555
O36 Rb1 3.156699 1_555
O36 Rb7 3.297000 1_565
O36 Rb3 3.333541 1_555
O37 Rb1 3.156699 1_555
O37 Rb6 3.297000 1_655
O37 Rb2 3.333541 1_555
O38 Rb6 3.355099 1_545
O38 Rb6 3.355099 1_655
O39 Rb7 3.355099 1_565
O39 Rb7 3.355099 1_455
O40 Rb6 2.966120 1_655
O40 Rb0 3.048163 1_666
O41 Rb7 2.966120 1_565
O41 Rb0 3.048163 1_665
O42 Rb7 2.966120 1_455
O42 Rb1 3.048163 1_445
O43 Rb6 2.966120 1_545
O43 Rb1 3.048163 1_445
