# generated using pymatgen
data_LiEr4Be4(SiO7)2
_symmetry_space_group_name_H-M   'P 1'
_cell_length_a   4.86588392
_cell_length_b   7.34234189
_cell_length_c   7.34234189
_cell_angle_alpha   89.16912733
_cell_angle_beta   90.15689855
_cell_angle_gamma   90.15689855
_symmetry_Int_Tables_number   1
_chemical_formula_structural   LiEr4Be4(SiO7)2
_chemical_formula_sum   'Li1 Er4 Be4 Si2 O14'
_cell_volume   262.29020627
_cell_formula_units_Z   1
loop_
 _symmetry_equiv_pos_site_id
 _symmetry_equiv_pos_as_xyz
  1  'x, y, z'
loop_
 _atom_site_type_symbol
 _atom_site_label
 _atom_site_symmetry_multiplicity
 _atom_site_fract_x
 _atom_site_fract_y
 _atom_site_fract_z
 _atom_site_occupancy
  Li  Li0  1  0.00422200  0.83803200  0.33803200  1
  Er  Er0  1  0.50978900  0.15684300  0.65684300  1
  Er  Er1  1  0.50721200  0.84191200  0.34191200  1
  Er  Er2  1  0.48540000  0.65417000  0.83852700  1
  Er  Er3  1  0.48540000  0.33852700  0.15417000  1
  Be  Be0  1  0.96576000  0.62452800  0.12452800  1
  Be  Be1  1  0.95754900  0.35938900  0.85938900  1
  Be  Be2  1  0.03516000  0.15028800  0.36915300  1
  Be  Be3  1  0.03516000  0.86915300  0.65028800  1
  Si  Si0  1  0.00196900  0.00106300  0.99981400  1
  Si  Si1  1  0.00196900  0.49981400  0.50106300  1
  O  O0  1  0.17347600  0.00535700  0.50535700  1
  O  O1  1  0.80967900  0.49459200  0.99459200  1
  O  O2  1  0.29532200  0.62695500  0.12695500  1
  O  O3  1  0.28815800  0.35366000  0.85366000  1
  O  O4  1  0.70701300  0.15022000  0.36095000  1
  O  O5  1  0.70701300  0.86095000  0.65022000  1
  O  O6  1  0.19060600  0.08581600  0.16613800  1
  O  O7  1  0.20356100  0.91761300  0.84245200  1
  O  O8  1  0.79954700  0.15911100  0.91448000  1
  O  O9  1  0.79954700  0.41448000  0.65911100  1
  O  O10  1  0.81421600  0.83477100  0.08750000  1
  O  O11  1  0.81421600  0.58750000  0.33477100  1
  O  O12  1  0.20356100  0.34245200  0.41761300  1
  O  O13  1  0.19060600  0.66613800  0.58581600  1
loop_
_geom_bond_atom_site_label_1
_geom_bond_atom_site_label_2
_geom_bond_distance
_geom_bond_site_symmetry_2
Li0 O0 1.931234 1_565
Li0 O11 2.056923 1_455
Li0 O10 2.056923 1_455
Li0 O6 2.378227 1_565
Li0 O13 2.378227 1_555
Er0 O0 2.273367 1_555
Er0 O3 2.327501 1_555
Er0 O8 2.356423 1_555
Er0 O9 2.356423 1_555
Er0 O5 2.378662 1_545
Er0 O4 2.378662 1_555
Er0 O7 2.662749 1_545
Er0 O12 2.662749 1_555
Er1 O0 2.362322 1_565
Er1 O10 2.396294 1_555
Er1 O11 2.396294 1_555
Er1 Li0 2.418889 1_655
Er1 Li0 2.447671 1_555
Er1 O4 2.466872 1_565
Er1 O5 2.466872 1_555
Er1 O2 2.469703 1_555
Er1 O6 2.680155 1_565
Er1 O13 2.680155 1_555
Er2 O1 2.266481 1_555
Er2 O5 2.306046 1_555
Er2 O2 2.318969 1_556
Er2 O13 2.342979 1_555
Er2 O7 2.374740 1_555
Er2 O3 2.404946 1_555
Er2 O9 2.694845 1_555
Er2 O10 2.775377 1_556
Er3 O1 2.266481 1_554
Er3 O4 2.306046 1_555
Er3 O2 2.318969 1_555
Er3 O6 2.342979 1_555
Er3 O12 2.374740 1_555
Er3 O3 2.404946 1_554
Er3 O8 2.694845 1_554
Er3 O11 2.775377 1_555
Be0 O1 1.554227 1_554
Be0 O2 1.603714 1_655
Be0 O10 1.730193 1_555
Be0 O11 1.730193 1_555
Be1 O1 1.589039 1_555
Be1 O3 1.610051 1_655
Be1 O8 1.701576 1_555
Be1 O9 1.701576 1_555
Be2 O4 1.597695 1_455
Be2 O0 1.598385 1_555
Be2 O12 1.671949 1_555
Be2 O6 1.745481 1_555
Be3 O5 1.597695 1_455
Be3 O0 1.598385 1_565
Be3 O7 1.671949 1_555
Be3 O13 1.745481 1_555
O6 Si0 1.653443 1_554
O7 Si0 1.643967 1_565
O8 Si0 1.640468 1_655
O9 Si1 1.640468 1_655
O10 Si0 1.647492 1_664
O11 Si1 1.647492 1_655
O12 Si1 1.643967 1_555
O13 Si1 1.653443 1_555
