# generated using pymatgen
data_Li8AsO3
_symmetry_space_group_name_H-M   'P 1'
_cell_length_a   5.09369700
_cell_length_b   5.09369700
_cell_length_c   5.09369700
_cell_angle_alpha   90.00000000
_cell_angle_beta   90.00000000
_cell_angle_gamma   90.00000000
_symmetry_Int_Tables_number   1
_chemical_formula_structural   Li8AsO3
_chemical_formula_sum   'Li8 As1 O3'
_cell_volume   132.15978450
_cell_formula_units_Z   1
loop_
 _symmetry_equiv_pos_site_id
 _symmetry_equiv_pos_as_xyz
  1  'x, y, z'
loop_
 _atom_site_type_symbol
 _atom_site_label
 _atom_site_symmetry_multiplicity
 _atom_site_fract_x
 _atom_site_fract_y
 _atom_site_fract_z
 _atom_site_occupancy
  Li  Li0  1  0.26866500  0.26866500  0.26866500  1
  Li  Li1  1  0.73133500  0.73133500  0.26866500  1
  Li  Li2  1  0.73133500  0.26866500  0.73133500  1
  Li  Li3  1  0.26866500  0.73133500  0.73133500  1
  Li  Li4  1  0.26866500  0.26866500  0.73133500  1
  Li  Li5  1  0.73133500  0.73133500  0.73133500  1
  Li  Li6  1  0.73133500  0.26866500  0.26866500  1
  Li  Li7  1  0.26866500  0.73133500  0.26866500  1
  As  As0  1  0.00000000  0.00000000  0.00000000  1
  O  O0  1  0.00000000  0.50000000  0.50000000  1
  O  O1  1  0.50000000  0.50000000  0.00000000  1
  O  O2  1  0.50000000  0.00000000  0.50000000  1
loop_
_geom_bond_atom_site_label_1
_geom_bond_atom_site_label_2
_geom_bond_distance
_geom_bond_site_symmetry_2
Li0 O0 2.156341 1_555
Li0 O1 2.156341 1_555
Li0 O2 2.156341 1_555
Li1 O0 2.156341 1_655
Li1 O1 2.156341 1_555
Li1 O2 2.156341 1_565
Li2 O0 2.156341 1_655
Li2 O1 2.156341 1_556
Li2 O2 2.156341 1_555
Li3 O0 2.156341 1_555
Li3 O2 2.156341 1_565
Li3 O1 2.156341 1_556
Li4 O0 2.156341 1_555
Li4 O2 2.156341 1_555
Li4 O1 2.156341 1_556
Li5 O0 2.156341 1_655
Li5 O1 2.156341 1_556
Li5 O2 2.156341 1_565
Li6 O1 2.156341 1_555
Li6 O2 2.156341 1_555
Li6 O0 2.156341 1_655
Li7 O0 2.156341 1_555
Li7 O1 2.156341 1_555
Li7 O2 2.156341 1_565
As0 Li6 2.370308 1_455
As0 Li7 2.370308 1_545
As0 Li4 2.370308 1_554
As0 Li0 2.370308 1_555
As0 Li2 2.370308 1_454
As0 Li1 2.370308 1_445
As0 Li5 2.370308 1_444
As0 Li3 2.370308 1_544
