# generated using pymatgen
data_BaLa4Mn5O15
_symmetry_space_group_name_H-M   'P 1'
_cell_length_a   5.59313033
_cell_length_b   6.85367040
_cell_length_c   8.83818111
_cell_angle_alpha   104.92407671
_cell_angle_beta   71.49910313
_cell_angle_gamma   89.80909613
_symmetry_Int_Tables_number   1
_chemical_formula_structural   BaLa4Mn5O15
_chemical_formula_sum   'Ba1 La4 Mn5 O15'
_cell_volume   309.11065189
_cell_formula_units_Z   1
loop_
 _symmetry_equiv_pos_site_id
 _symmetry_equiv_pos_as_xyz
  1  'x, y, z'
loop_
 _atom_site_type_symbol
 _atom_site_label
 _atom_site_symmetry_multiplicity
 _atom_site_fract_x
 _atom_site_fract_y
 _atom_site_fract_z
 _atom_site_occupancy
  Ba  Ba0  1  0.00001500  0.99999700  0.99995100  1
  La  La0  1  0.40061100  0.41513500  0.19856600  1
  La  La1  1  0.79712300  0.79754400  0.40579000  1
  La  La2  1  0.20281500  0.20262200  0.59430300  1
  La  La3  1  0.59949500  0.58482400  0.80139300  1
  Mn  Mn0  1  0.79916500  0.29942200  0.40167500  1
  Mn  Mn1  1  0.20082400  0.70053900  0.59829300  1
  Mn  Mn2  1  0.60021900  0.09945700  0.79949400  1
  Mn  Mn3  1  0.99999500  0.49997900  0.00012000  1
  Mn  Mn4  1  0.39976900  0.90057800  0.20049800  1
  O  O0  1  0.49999900  0.49997400  0.49996700  1
  O  O1  1  0.90434800  0.90308900  0.68060700  1
  O  O2  1  0.30977400  0.31160100  0.89758700  1
  O  O3  1  0.69023700  0.68844200  0.10246800  1
  O  O4  1  0.09562000  0.09688100  0.31936000  1
  O  O5  1  0.58529000  0.09725200  0.31935400  1
  O  O6  1  0.00000700  0.49997200  0.49998700  1
  O  O7  1  0.41468100  0.90276500  0.68059800  1
  O  O8  1  0.79339500  0.31187100  0.89778900  1
  O  O9  1  0.20662300  0.68815800  0.10226100  1
  O  O10  1  0.69612500  0.21905200  0.60801800  1
  O  O11  1  0.10397300  0.59159800  0.79100000  1
  O  O12  1  0.50002200  0.99995000  0.99993000  1
  O  O13  1  0.89601300  0.40837100  0.20899600  1
  O  O14  1  0.30386100  0.78092800  0.39199500  1
loop_
_geom_bond_atom_site_label_1
_geom_bond_atom_site_label_2
_geom_bond_distance
_geom_bond_site_symmetry_2
Ba0 O12 2.796544 1_555
Ba0 O12 2.796586 1_455
Ba0 O11 2.868507 1_555
Ba0 O13 2.868640 1_466
Ba0 O8 2.891279 1_465
Ba0 O9 2.891873 1_556
Ba0 O2 2.899337 1_565
Ba0 O3 2.899538 1_456
Ba0 O7 2.942123 1_555
Ba0 O5 2.942566 1_466
Ba0 O1 2.947668 1_455
Ba0 O4 2.948053 1_566
La0 O14 2.587832 1_555
La0 O9 2.606925 1_555
La0 O3 2.611650 1_555
La0 O8 2.776356 1_554
La0 O2 2.779511 1_554
La0 O13 2.795333 1_455
La0 O13 2.802087 1_555
La0 O6 2.803701 1_555
La0 O0 2.808425 1_555
La0 O12 2.878398 1_544
La0 O5 2.972540 1_555
La0 O4 2.979232 1_555
La1 O7 2.604814 1_555
La1 O1 2.608594 1_555
La1 O13 2.726809 1_555
La1 O5 2.751939 1_565
La1 O6 2.756604 1_655
La1 O4 2.756882 1_665
La1 O0 2.762788 1_555
La1 O14 2.798608 1_655
La1 O14 2.801368 1_555
La1 O9 2.838616 1_655
La1 O3 2.844446 1_555
La1 O10 2.923710 1_565
La2 O5 2.605694 1_555
La2 O4 2.609596 1_555
La2 O11 2.725436 1_555
La2 O7 2.752113 1_545
La2 O6 2.755804 1_555
La2 O1 2.757586 1_445
La2 O0 2.762160 1_555
La2 O10 2.798511 1_455
La2 O10 2.801350 1_555
La2 O8 2.838136 1_455
La2 O2 2.844321 1_555
La2 O14 2.924976 1_545
La3 O10 2.587555 1_555
La3 O8 2.606804 1_555
La3 O2 2.611729 1_555
La3 O9 2.777114 1_556
La3 O3 2.780063 1_556
La3 O11 2.794757 1_655
La3 O11 2.802644 1_555
La3 O6 2.803356 1_655
La3 O0 2.808936 1_555
La3 O12 2.877804 1_555
La3 O7 2.973255 1_555
La3 O1 2.978913 1_555
Mn0 O10 1.952930 1_555
Mn0 O13 1.955299 1_555
Mn0 O0 1.972546 1_555
Mn0 O4 1.975978 1_655
Mn0 O6 1.980078 1_655
Mn0 O5 1.981001 1_555
Mn1 O14 1.952635 1_555
Mn1 O11 1.955484 1_555
Mn1 O0 1.972631 1_555
Mn1 O1 1.976101 1_455
Mn1 O6 1.980023 1_555
Mn1 O7 1.981107 1_555
Mn2 O12 1.977910 1_545
Mn2 O1 1.982650 1_545
Mn2 O2 1.986405 1_555
Mn2 O10 1.991171 1_555
Mn2 O7 1.992521 1_545
Mn2 O8 1.999065 1_555
Mn3 O2 1.968786 1_654
Mn3 O3 1.968992 1_555
Mn3 O9 1.971370 1_655
Mn3 O8 1.971793 1_554
Mn3 O13 2.014578 1_555
Mn3 O11 2.016571 1_654
Mn4 O12 1.978421 1_554
Mn4 O4 1.982468 1_565
Mn4 O3 1.986465 1_555
Mn4 O14 1.991571 1_555
Mn4 O5 1.992205 1_565
Mn4 O9 1.998761 1_555
