# generated using pymatgen
data_MgCoO2
_symmetry_space_group_name_H-M   'P 1'
_cell_length_a   2.93358000
_cell_length_b   8.15719835
_cell_length_c   8.23840901
_cell_angle_alpha   85.84882714
_cell_angle_beta   80.38015897
_cell_angle_gamma   80.42411110
_symmetry_Int_Tables_number   1
_chemical_formula_structural   MgCoO2
_chemical_formula_sum   'Mg4 Co4 O8'
_cell_volume   191.46121308
_cell_formula_units_Z   4
loop_
 _symmetry_equiv_pos_site_id
 _symmetry_equiv_pos_as_xyz
  1  'x, y, z'
loop_
 _atom_site_type_symbol
 _atom_site_label
 _atom_site_symmetry_multiplicity
 _atom_site_fract_x
 _atom_site_fract_y
 _atom_site_fract_z
 _atom_site_occupancy
  Mg  Mg0  1  0.60870700  0.07071600  0.74464200  1
  Mg  Mg1  1  0.41431800  0.91304000  0.22175700  1
  Mg  Mg2  1  0.21080700  0.69967900  0.88805700  1
  Mg  Mg3  1  0.81363700  0.27611300  0.08077500  1
  Co  Co0  1  0.20252200  0.22521400  0.39442800  1
  Co  Co1  1  0.42211500  0.39040100  0.75085100  1
  Co  Co2  1  0.60411700  0.58791100  0.22446900  1
  Co  Co3  1  0.82323400  0.78492600  0.56120300  1
  O  O0  1  0.41139100  0.73691200  0.41450800  1
  O  O1  1  0.20427700  0.40713500  0.18461200  1
  O  O2  1  0.81131900  0.55336200  0.81798000  1
  O  O3  1  0.61065300  0.24868600  0.55442300  1
  O  O4  1  0.81755800  0.08870000  0.24869400  1
  O  O5  1  0.99200900  0.20658100  0.85648100  1
  O  O6  1  0.20727700  0.88721100  0.71638400  1
  O  O7  1  0.03844700  0.76274700  0.11512000  1
loop_
_geom_bond_atom_site_label_1
_geom_bond_atom_site_label_2
_geom_bond_distance
_geom_bond_site_symmetry_2
Mg0 O3 2.057615 1_555
Mg0 O5 2.061629 1_555
Mg0 O5 2.067321 1_455
Mg0 O6 2.100057 1_545
Mg0 O6 2.101798 1_645
Mg1 O4 2.049266 1_565
Mg1 O4 2.061258 1_465
Mg1 O0 2.062785 1_555
Mg1 O7 2.102398 1_555
Mg1 O7 2.120997 1_655
Mg2 O7 1.938111 1_556
Mg2 O2 1.980287 1_555
Mg2 O2 1.980533 1_455
Mg2 O6 2.006708 1_555
Mg3 O5 1.933856 1_554
Mg3 O4 1.986025 1_555
Mg3 O1 2.013662 1_655
Mg3 O1 2.013760 1_555
Co0 O3 1.961582 1_555
Co0 O3 1.987412 1_455
Co0 O4 2.176687 1_555
Co0 O1 2.195055 1_555
Co0 O4 2.240987 1_455
Co1 O3 2.004982 1_555
Co1 O2 2.049136 1_555
Co1 O2 2.065500 1_455
Co1 O5 2.161306 1_455
Co1 O5 2.294332 1_555
Co2 O0 1.999778 1_555
Co2 O1 2.096474 1_655
Co2 O1 2.105347 1_555
Co2 O7 2.122239 1_655
Co2 O7 2.263952 1_555
Co3 O0 1.933326 1_655
Co3 O0 1.946176 1_555
Co3 O6 2.115755 1_555
Co3 O6 2.132701 1_655
