# generated using pymatgen
data_Y(BO2)6
_symmetry_space_group_name_H-M   'P 1'
_cell_length_a   8.51767793
_cell_length_b   8.51767793
_cell_length_c   8.51767825
_cell_angle_alpha   60.20880709
_cell_angle_beta   60.20880709
_cell_angle_gamma   60.20880263
_symmetry_Int_Tables_number   1
_chemical_formula_structural   Y(BO2)6
_chemical_formula_sum   'Y2 B12 O24'
_cell_volume   439.03294760
_cell_formula_units_Z   2
loop_
 _symmetry_equiv_pos_site_id
 _symmetry_equiv_pos_as_xyz
  1  'x, y, z'
loop_
 _atom_site_type_symbol
 _atom_site_label
 _atom_site_symmetry_multiplicity
 _atom_site_fract_x
 _atom_site_fract_y
 _atom_site_fract_z
 _atom_site_occupancy
  Y  Y0  1  0.18000500  0.18000500  0.18000500  1
  Y  Y1  1  0.68000500  0.68000500  0.68000500  1
  B  B0  1  0.57364400  0.79627800  0.06353000  1
  B  B1  1  0.79627800  0.06353000  0.57364400  1
  B  B2  1  0.06353000  0.57364400  0.79627800  1
  B  B3  1  0.07364400  0.56353000  0.29627800  1
  B  B4  1  0.56353000  0.29627800  0.07364400  1
  B  B5  1  0.29627800  0.07364400  0.56353000  1
  B  B6  1  0.76863100  0.46712600  0.05141700  1
  B  B7  1  0.46712600  0.05141700  0.76863100  1
  B  B8  1  0.05141700  0.76863100  0.46712600  1
  B  B9  1  0.26863100  0.55141700  0.96712600  1
  B  B10  1  0.55141700  0.96712600  0.26863100  1
  B  B11  1  0.96712600  0.26863100  0.55141700  1
  O  O0  1  0.50841900  0.93986400  0.13576500  1
  O  O1  1  0.93986400  0.13576500  0.50841900  1
  O  O2  1  0.13576500  0.50841900  0.93986400  1
  O  O3  1  0.00841900  0.63576500  0.43986400  1
  O  O4  1  0.63576500  0.43986400  0.00841900  1
  O  O5  1  0.43986400  0.00841900  0.63576500  1
  O  O6  1  0.86765300  0.29068700  0.17285900  1
  O  O7  1  0.29068700  0.17285900  0.86765300  1
  O  O8  1  0.17285900  0.86765300  0.29068700  1
  O  O9  1  0.36765300  0.67285900  0.79068700  1
  O  O10  1  0.67285900  0.79068700  0.36765300  1
  O  O11  1  0.79068700  0.36765300  0.67285900  1
  O  O12  1  0.39876100  0.34995900  0.03731900  1
  O  O13  1  0.34995900  0.03731900  0.39876100  1
  O  O14  1  0.03731900  0.39876100  0.34995900  1
  O  O15  1  0.89876100  0.53731900  0.84995900  1
  O  O16  1  0.53731900  0.84995900  0.89876100  1
  O  O17  1  0.84995900  0.89876100  0.53731900  1
  O  O18  1  0.67137300  0.61016900  0.14407100  1
  O  O19  1  0.61016900  0.14407100  0.67137300  1
  O  O20  1  0.14407100  0.67137300  0.61016900  1
  O  O21  1  0.17137300  0.64407100  0.11016900  1
  O  O22  1  0.64407100  0.11016900  0.17137300  1
  O  O23  1  0.11016900  0.17137300  0.64407100  1
loop_
_geom_bond_atom_site_label_1
_geom_bond_atom_site_label_2
_geom_bond_distance
_geom_bond_site_symmetry_2
B0 O18 1.360906 1_555
B0 O0 1.384157 1_555
B0 O16 1.388425 1_554
B1 O19 1.360906 1_555
B1 O1 1.384157 1_555
B1 O17 1.388425 1_545
B2 O20 1.360906 1_555
B2 O2 1.384157 1_555
B2 O15 1.388425 1_455
B3 O21 1.360906 1_555
B3 O3 1.384157 1_555
B3 O14 1.388425 1_555
B4 O22 1.360906 1_555
B4 O4 1.384157 1_555
B4 O12 1.388425 1_555
B5 O23 1.360906 1_555
B5 O5 1.384157 1_555
B5 O13 1.388425 1_555
B6 O18 1.447914 1_555
B6 O6 1.450034 1_555
B6 O4 1.492087 1_555
B6 O15 1.509842 1_554
B7 O19 1.447914 1_555
B7 O7 1.450034 1_555
B7 O5 1.492087 1_555
B7 O16 1.509842 1_545
B8 O20 1.447914 1_555
B8 O8 1.450034 1_555
B8 O3 1.492087 1_555
B8 O17 1.509842 1_455
B9 O21 1.447914 1_556
B9 O9 1.450034 1_555
B9 O2 1.492087 1_555
B9 O12 1.509842 1_556
B10 O22 1.447914 1_565
B10 O10 1.450034 1_555
B10 O0 1.492087 1_555
B10 O13 1.509842 1_565
B11 O23 1.447914 1_655
B11 O11 1.450034 1_555
B11 O1 1.492087 1_555
B11 O14 1.509842 1_655
O0 Y0 2.486707 1_565
O1 Y0 2.486707 1_655
O2 Y0 2.486707 1_556
O3 Y1 2.486707 1_455
O4 Y1 2.486707 1_554
O5 Y1 2.486707 1_545
O6 Y0 2.362701 1_655
O7 Y0 2.362701 1_556
O8 Y0 2.362701 1_565
O9 Y1 2.362701 1_555
O10 Y1 2.362701 1_555
O11 Y1 2.362701 1_555
O12 Y0 2.392973 1_555
O13 Y0 2.392973 1_555
O14 Y0 2.392973 1_555
O15 Y1 2.392973 1_555
O16 Y1 2.392973 1_555
O17 Y1 2.392973 1_555
