# generated using pymatgen
data_Y2Ni12P7
_symmetry_space_group_name_H-M   'P 1'
_cell_length_a   9.01888343
_cell_length_b   9.01888343
_cell_length_c   3.67049200
_cell_angle_alpha   90.00000000
_cell_angle_beta   90.00000000
_cell_angle_gamma   119.99999582
_symmetry_Int_Tables_number   1
_chemical_formula_structural   Y2Ni12P7
_chemical_formula_sum   'Y2 Ni12 P7'
_cell_volume   258.55948805
_cell_formula_units_Z   1
loop_
 _symmetry_equiv_pos_site_id
 _symmetry_equiv_pos_as_xyz
  1  'x, y, z'
loop_
 _atom_site_type_symbol
 _atom_site_label
 _atom_site_symmetry_multiplicity
 _atom_site_fract_x
 _atom_site_fract_y
 _atom_site_fract_z
 _atom_site_occupancy
  Y  Y0  1  0.66666700  0.33333300  0.00000000  1
  Y  Y1  1  0.33333300  0.66666700  0.50000000  1
  Ni  Ni0  1  0.05984400  0.62612400  0.00000000  1
  Ni  Ni1  1  0.56627900  0.94015600  0.00000000  1
  Ni  Ni2  1  0.37387600  0.43372100  0.00000000  1
  Ni  Ni3  1  0.27382000  0.12196300  0.00000000  1
  Ni  Ni4  1  0.84814400  0.72618000  0.00000000  1
  Ni  Ni5  1  0.87803700  0.15185600  0.00000000  1
  Ni  Ni6  1  0.43038600  0.04848200  0.50000000  1
  Ni  Ni7  1  0.61809500  0.56961400  0.50000000  1
  Ni  Ni8  1  0.95151800  0.38190500  0.50000000  1
  Ni  Ni9  1  0.09449900  0.87729500  0.50000000  1
  Ni  Ni10  1  0.78279600  0.90550100  0.50000000  1
  Ni  Ni11  1  0.12270500  0.21720400  0.50000000  1
  P  P0  1  0.29359500  0.88698000  0.00000000  1
  P  P1  1  0.59338400  0.70640500  0.00000000  1
  P  P2  1  0.11302000  0.40661600  0.00000000  1
  P  P3  1  0.40484200  0.29419100  0.50000000  1
  P  P4  1  0.88934900  0.59515800  0.50000000  1
  P  P5  1  0.70580900  0.11065100  0.50000000  1
  P  P6  1  0.00000000  0.00000000  0.00000000  1
loop_
_geom_bond_atom_site_label_1
_geom_bond_atom_site_label_2
_geom_bond_distance
_geom_bond_site_symmetry_2
Ni0 P0 2.240426 1_555
Ni0 P2 2.258037 1_555
Ni0 P4 2.319726 1_454
Ni0 P4 2.319726 1_455
Ni0 Y1 2.946840 1_555
Ni0 Y1 2.946840 1_554
Ni0 Y0 3.191156 1_455
Ni1 P1 2.240426 1_555
Ni1 P0 2.258038 1_555
Ni1 P5 2.319728 1_565
Ni1 P5 2.319728 1_564
Ni1 Y1 2.946841 1_555
Ni1 Y1 2.946841 1_554
Ni1 Y0 3.191151 1_565
Ni2 P2 2.240426 1_555
Ni2 P1 2.258038 1_555
Ni2 P3 2.319731 1_555
Ni2 P3 2.319731 1_554
Ni2 Y1 2.946840 1_555
Ni2 Y1 2.946840 1_554
Ni2 Y0 3.191169 1_555
Ni3 P6 2.142938 1_555
Ni3 P0 2.213853 1_545
Ni3 P3 2.311219 1_555
Ni3 P3 2.311219 1_554
Ni3 Y0 3.071324 1_555
Ni4 P6 2.142937 1_665
Ni4 P1 2.213871 1_555
Ni4 P4 2.311216 1_555
Ni4 P4 2.311216 1_554
Ni4 Y0 3.071324 1_555
Ni5 P6 2.142930 1_655
Ni5 P2 2.213863 1_655
Ni5 P5 2.311221 1_555
Ni5 P5 2.311221 1_554
Ni5 Y0 3.071323 1_555
Ni6 P5 2.256525 1_555
Ni6 P0 2.283587 1_545
Ni6 P0 2.283587 1_546
Ni6 P3 2.339732 1_555
Ni6 Y0 3.005763 1_556
Ni6 Y0 3.005763 1_555
Ni6 Y1 3.100000 1_545
Ni7 P3 2.256522 1_555
Ni7 P1 2.283587 1_556
Ni7 P1 2.283587 1_555
Ni7 P4 2.339741 1_555
Ni7 Y0 3.005772 1_556
Ni7 Y0 3.005772 1_555
Ni7 Y1 3.100000 1_555
Ni8 P4 2.256516 1_555
Ni8 P2 2.283587 1_655
Ni8 P2 2.283587 1_656
Ni8 P5 2.339737 1_555
Ni8 Y0 3.005758 1_556
Ni8 Y0 3.005758 1_555
Ni8 Y1 3.100000 1_655
Ni9 P4 2.278182 1_455
Ni9 P6 2.502475 1_566
Ni9 P6 2.502475 1_565
Ni9 P0 2.538342 1_555
Ni9 P0 2.538342 1_556
Ni10 P5 2.278181 1_565
Ni10 P6 2.502475 1_666
Ni10 P6 2.502475 1_665
Ni10 P1 2.538344 1_556
Ni10 P1 2.538344 1_555
Ni11 P3 2.278181 1_555
Ni11 P6 2.502475 1_555
Ni11 P6 2.502475 1_556
Ni11 P2 2.538348 1_555
Ni11 P2 2.538348 1_556
P0 Y1 2.856006 1_555
P0 Y1 2.856006 1_554
P1 Y1 2.856006 1_555
P1 Y1 2.856006 1_554
P2 Y1 2.856006 1_554
P2 Y1 2.856006 1_555
P3 Y0 2.869705 1_556
P3 Y0 2.869705 1_555
P4 Y0 2.869703 1_555
P4 Y0 2.869703 1_556
P5 Y0 2.869699 1_555
P5 Y0 2.869699 1_556
