# generated using pymatgen
data_Cd8Au5
_symmetry_space_group_name_H-M   'P 1'
_cell_length_a   8.67736916
_cell_length_b   8.67736916
_cell_length_c   8.67736916
_cell_angle_alpha   109.47122063
_cell_angle_beta   109.47122063
_cell_angle_gamma   109.47122063
_symmetry_Int_Tables_number   1
_chemical_formula_structural   Cd8Au5
_chemical_formula_sum   'Cd16 Au10'
_cell_volume   502.97028841
_cell_formula_units_Z   2
loop_
 _symmetry_equiv_pos_site_id
 _symmetry_equiv_pos_as_xyz
  1  'x, y, z'
loop_
 _atom_site_type_symbol
 _atom_site_label
 _atom_site_symmetry_multiplicity
 _atom_site_fract_x
 _atom_site_fract_y
 _atom_site_fract_z
 _atom_site_occupancy
  Cd  Cd0  1  0.21759134  0.00000000  0.00000000  1
  Cd  Cd1  1  -0.00000000  0.21759134  -0.00000000  1
  Cd  Cd2  1  -0.00000000  -0.00000000  0.21759134  1
  Cd  Cd3  1  0.78240866  0.78240866  0.78240866  1
  Cd  Cd4  1  0.34966784  0.72330840  0.00000000  1
  Cd  Cd5  1  0.62635944  0.27669160  0.27669160  1
  Cd  Cd6  1  0.34966784  0.00000000  0.72330840  1
  Cd  Cd7  1  0.72330840  0.34966784  -0.00000000  1
  Cd  Cd8  1  0.00000000  0.34966784  0.72330840  1
  Cd  Cd9  1  0.27669160  0.62635944  0.27669160  1
  Cd  Cd10  1  0.27669160  0.27669160  0.62635944  1
  Cd  Cd11  1  -0.00000000  0.72330840  0.34966784  1
  Cd  Cd12  1  0.72330840  0.00000000  0.34966784  1
  Cd  Cd13  1  0.65033216  0.65033216  0.37364056  1
  Cd  Cd14  1  0.37364056  0.65033216  0.65033216  1
  Cd  Cd15  1  0.65033216  0.37364056  0.65033216  1
  Au  Au0  1  0.64909181  -0.00000000  -0.00000000  1
  Au  Au1  1  0.00000000  0.64909181  0.00000000  1
  Au  Au2  1  0.00000000  -0.00000000  0.64909181  1
  Au  Au3  1  0.35090819  0.35090819  0.35090819  1
  Au  Au4  1  -0.00000000  0.64082944  0.64082944  1
  Au  Au5  1  0.35917056  0.00000000  0.35917056  1
  Au  Au6  1  0.35917056  0.35917056  -0.00000000  1
  Au  Au7  1  -0.00000000  0.35917056  0.35917056  1
  Au  Au8  1  0.64082944  0.00000000  0.64082944  1
  Au  Au9  1  0.64082944  0.64082944  -0.00000000  1
loop_
_geom_bond_atom_site_label_1
_geom_bond_atom_site_label_2
_geom_bond_distance
_geom_bond_site_symmetry_2
Cd0 Cd5 2.985386 1_555
Cd0 Cd4 2.985386 1_545
Cd0 Cd6 2.985386 1_554
Cd1 Cd9 2.985386 1_555
Cd1 Cd8 2.985386 1_554
Cd1 Cd7 2.985386 1_455
Cd4 Cd8 2.979647 1_554
Cd4 Cd9 2.979647 1_555
Cd5 Cd7 2.979647 1_555
Cd6 Cd7 2.979647 1_556
Cd10 Cd8 2.979647 1_555
Cd10 Cd6 2.979647 1_555
Cd10 Cd14 2.979647 1_555
Cd10 Cd15 2.979647 1_555
Cd10 Cd2 2.985386 1_555
Cd11 Cd6 2.979647 1_565
Cd11 Cd13 2.979647 1_455
Cd11 Cd9 2.979647 1_555
Cd11 Cd7 2.979647 1_455
Cd11 Cd2 2.985386 1_565
Cd12 Cd4 2.979647 1_545
Cd12 Cd5 2.979647 1_555
Cd12 Cd13 2.979647 1_545
Cd12 Cd8 2.979647 1_655
Cd12 Cd2 2.985386 1_655
Cd13 Cd5 2.979647 1_555
Cd13 Cd9 2.979647 1_555
Cd13 Cd3 2.985386 1_555
Cd14 Cd4 2.979647 1_556
Cd14 Cd6 2.979647 1_565
Cd14 Cd9 2.979647 1_555
Cd14 Cd3 2.985386 1_555
Cd15 Cd7 2.979647 1_556
Cd15 Cd8 2.979647 1_655
Cd15 Cd5 2.979647 1_555
Cd15 Cd3 2.985386 1_555
Au0 Cd14 2.884164 1_544
Au0 Cd7 2.884164 1_555
Au0 Cd12 2.884164 1_555
Au0 Cd5 2.890761 1_555
Au0 Cd6 2.890761 1_554
Au0 Cd4 2.890761 1_545
Au0 Cd3 3.000658 1_544
Au0 Cd1 3.000658 1_655
Au0 Cd2 3.000658 1_655
Au0 Au7 3.093496 1_655
Au0 Au9 3.093496 1_545
Au0 Au8 3.093496 1_554
Au1 Cd11 2.884164 1_555
Au1 Cd4 2.884164 1_555
Au1 Cd15 2.884164 1_454
Au1 Cd9 2.890761 1_555
Au1 Cd7 2.890761 1_455
Au1 Cd8 2.890761 1_554
Au1 Cd3 3.000658 1_454
Au1 Cd2 3.000658 1_565
Au1 Cd0 3.000658 1_565
Au1 Au9 3.093496 1_455
Au1 Au4 3.093496 1_554
Au1 Au5 3.093496 1_565
Au2 Cd6 2.884164 1_555
Au2 Cd13 2.884164 1_445
Au2 Cd8 2.884164 1_555
Au2 Cd12 2.890761 1_455
Au2 Cd11 2.890761 1_545
Au2 Cd10 2.890761 1_555
Au2 Cd3 3.000658 1_445
Au2 Cd1 3.000658 1_556
Au2 Cd0 3.000658 1_556
Au2 Au4 3.093496 1_545
Au2 Au6 3.093496 1_556
Au2 Au8 3.093496 1_455
Au3 Cd10 2.884164 1_555
Au3 Cd5 2.884164 1_555
Au3 Cd9 2.884164 1_555
Au3 Cd14 2.890761 1_555
Au3 Cd15 2.890761 1_555
Au3 Cd13 2.890761 1_555
Au3 Cd1 3.000658 1_555
Au3 Cd2 3.000658 1_555
Au3 Cd0 3.000658 1_555
Au3 Au5 3.093496 1_555
Au3 Au6 3.093496 1_555
Au3 Au7 3.093496 1_555
Au4 Au7 2.822155 1_555
Au4 Cd11 2.846225 1_555
Au4 Cd8 2.846225 1_555
Au4 Cd0 2.944525 1_566
Au4 Cd3 2.944525 1_455
Au4 Cd5 3.188193 1_455
Au4 Cd14 3.188193 1_555
Au4 Cd4 3.192644 1_556
Au4 Cd6 3.192644 1_565
Au4 Cd15 3.192644 1_455
Au4 Cd13 3.192644 1_455
Au5 Au8 2.822155 1_555
Au5 Cd15 2.846225 1_555
Au5 Cd9 2.846225 1_545
Au5 Cd2 2.944525 1_555
Au5 Cd0 2.944525 1_555
Au5 Cd12 3.188193 1_555
Au5 Cd6 3.188193 1_555
Au5 Cd11 3.192644 1_545
Au5 Cd10 3.192644 1_555
Au5 Cd5 3.192644 1_555
Au5 Cd4 3.192644 1_545
Au6 Au9 2.822155 1_555
Au6 Cd13 2.846225 1_555
Au6 Cd10 2.846225 1_554
Au6 Cd0 2.944525 1_555
Au6 Cd1 2.944525 1_555
Au6 Cd7 3.188193 1_555
Au6 Cd4 3.188193 1_555
Au6 Cd9 3.192644 1_555
Au6 Cd5 3.192644 1_555
Au6 Cd8 3.192644 1_554
Au6 Cd6 3.192644 1_554
Au7 Cd5 2.846225 1_455
Au7 Cd14 2.846225 1_555
Au7 Cd2 2.944525 1_555
Au7 Cd1 2.944525 1_555
Au7 Cd8 3.188193 1_555
Au7 Cd11 3.188193 1_555
Au7 Cd9 3.192644 1_555
Au7 Cd7 3.192644 1_455
Au7 Cd10 3.192644 1_555
Au7 Cd12 3.192644 1_455
Au8 Cd12 2.846225 1_555
Au8 Cd6 2.846225 1_555
Au8 Cd1 2.944525 1_656
Au8 Cd3 2.944525 1_545
Au8 Cd9 3.188193 1_545
Au8 Cd15 3.188193 1_555
Au8 Cd8 3.192644 1_655
Au8 Cd14 3.192644 1_545
Au8 Cd7 3.192644 1_556
Au8 Cd13 3.192644 1_545
Au9 Cd7 2.846225 1_555
Au9 Cd4 2.846225 1_555
Au9 Cd2 2.944525 1_665
Au9 Cd3 2.944525 1_554
Au9 Cd13 3.188193 1_555
Au9 Cd10 3.188193 1_554
Au9 Cd12 3.192644 1_565
Au9 Cd15 3.192644 1_554
Au9 Cd14 3.192644 1_554
Au9 Cd11 3.192644 1_655
