# generated using pymatgen
data_Ca3SnS5
_symmetry_space_group_name_H-M   'P 1'
_cell_length_a   9.00671640
_cell_length_b   9.00671640
_cell_length_c   12.09636322
_cell_angle_alpha   68.58233130
_cell_angle_beta   68.58233130
_cell_angle_gamma   59.93335455
_symmetry_Int_Tables_number   1
_chemical_formula_structural   Ca3SnS5
_chemical_formula_sum   'Ca9 Sn3 S15'
_cell_volume   770.10243030
_cell_formula_units_Z   3
loop_
 _symmetry_equiv_pos_site_id
 _symmetry_equiv_pos_as_xyz
  1  'x, y, z'
loop_
 _atom_site_type_symbol
 _atom_site_label
 _atom_site_symmetry_multiplicity
 _atom_site_fract_x
 _atom_site_fract_y
 _atom_site_fract_z
 _atom_site_occupancy
  Ca  Ca0  1  0.28324500  0.75556700  0.67784500  1
  Ca  Ca1  1  0.75556700  0.28324500  0.67784500  1
  Ca  Ca2  1  0.70297500  0.27690700  0.31698600  1
  Ca  Ca3  1  0.27690700  0.70297500  0.31698600  1
  Ca  Ca4  1  0.50428500  0.98708400  0.00922900  1
  Ca  Ca5  1  0.98708400  0.50428500  0.00922900  1
  Ca  Ca6  1  0.70216800  0.70216800  0.32151100  1
  Ca  Ca7  1  0.28510100  0.28510100  0.67918500  1
  Ca  Ca8  1  0.50427000  0.50427000  0.00511500  1
  Sn  Sn0  1  0.99652700  0.99652700  0.00934200  1
  Sn  Sn1  1  0.22361600  0.22361600  0.33611200  1
  Sn  Sn2  1  0.78675500  0.78675500  0.64049100  1
  S  S0  1  0.86122300  0.86122300  0.41749900  1
  S  S1  1  0.49761200  0.49761200  0.50629700  1
  S  S2  1  0.38746000  0.95990000  0.26445600  1
  S  S3  1  0.95990000  0.38746000  0.26445600  1
  S  S4  1  0.39079700  0.39079700  0.25697200  1
  S  S5  1  0.06095100  0.06095100  0.79377500  1
  S  S6  1  0.15828800  0.15828800  0.55054300  1
  S  S7  1  0.61820600  0.61820600  0.14764100  1
  S  S8  1  0.36814000  0.36814000  0.89580100  1
  S  S9  1  0.83277700  0.27314200  0.06575800  1
  S  S10  1  0.27314200  0.83277700  0.06575800  1
  S  S11  1  0.61454200  0.61454200  0.73077500  1
  S  S12  1  0.82986300  0.82986300  0.07373900  1
  S  S13  1  0.04069200  0.61440800  0.73262700  1
  S  S14  1  0.61440800  0.04069200  0.73262700  1
loop_
_geom_bond_atom_site_label_1
_geom_bond_atom_site_label_2
_geom_bond_distance
_geom_bond_site_symmetry_2
Ca0 S11 2.816125 1_555
Ca0 S13 2.817539 1_555
Ca0 S5 2.964599 1_565
Ca0 S1 3.087373 1_555
Ca0 S6 3.144911 1_565
Ca0 S8 3.433915 1_555
Ca1 S11 2.816125 1_555
Ca1 S14 2.817539 1_555
Ca1 S5 2.964599 1_655
Ca1 S1 3.087373 1_555
Ca1 S6 3.144911 1_655
Ca1 S8 3.433915 1_555
Ca2 S3 2.742787 1_555
Ca2 S4 2.746226 1_555
Ca2 S9 2.836184 1_555
Ca2 S7 2.901756 1_555
Ca2 S1 3.027135 1_555
Ca2 S0 3.181356 1_545
Ca3 S2 2.742787 1_555
Ca3 S4 2.746226 1_555
Ca3 S10 2.836184 1_555
Ca3 S7 2.901756 1_555
Ca3 S1 3.027135 1_555
Ca3 S0 3.181356 1_455
Ca4 S10 2.810449 1_555
Ca4 S12 2.813613 1_555
Ca4 S2 2.834121 1_555
Ca4 S7 2.944574 1_555
Ca4 S8 2.955997 1_564
Ca4 S14 3.047645 1_564
Ca5 S9 2.810449 1_555
Ca5 S12 2.813613 1_555
Ca5 S3 2.834121 1_555
Ca5 S7 2.944574 1_555
Ca5 S8 2.955997 1_654
Ca5 S13 3.047645 1_654
Ca6 S3 2.750420 1_555
Ca6 S2 2.750420 1_555
Ca6 S12 2.814043 1_555
Ca6 S7 2.909182 1_555
Ca6 S1 3.028365 1_555
Ca6 S0 3.152555 1_555
Ca7 S13 2.807049 1_555
Ca7 S14 2.807049 1_555
Ca7 S6 2.988945 1_555
Ca7 S1 3.086213 1_555
Ca7 S5 3.173233 1_555
Ca7 S8 3.377499 1_555
Ca8 S4 2.805212 1_555
Ca8 S10 2.814979 1_555
Ca8 S9 2.814979 1_555
Ca8 S8 2.937593 1_554
Ca8 S7 2.952599 1_555
Ca8 S11 3.026486 1_554
S0 Sn2 2.446184 1_555
S2 Sn1 2.372319 1_565
S3 Sn1 2.372319 1_655
S4 Sn1 2.370102 1_555
S5 Sn0 2.366467 1_446
S6 Sn1 2.353307 1_555
S9 Sn0 2.381751 1_545
S10 Sn0 2.381751 1_455
S11 Sn2 2.437370 1_555
S12 Sn0 2.379756 1_555
S13 Sn2 2.433809 1_455
S14 Sn2 2.433809 1_545
