# generated using pymatgen
data_Y3AlC3
_symmetry_space_group_name_H-M   'P 1'
_cell_length_a   3.57785812
_cell_length_b   7.05402041
_cell_length_c   9.96492032
_cell_angle_alpha   90.00000000
_cell_angle_beta   90.00000000
_cell_angle_gamma   90.00000000
_symmetry_Int_Tables_number   1
_chemical_formula_structural   Y3AlC3
_chemical_formula_sum   'Y6 Al2 C6'
_cell_volume   251.49749109
_cell_formula_units_Z   2
loop_
 _symmetry_equiv_pos_site_id
 _symmetry_equiv_pos_as_xyz
  1  'x, y, z'
loop_
 _atom_site_type_symbol
 _atom_site_label
 _atom_site_symmetry_multiplicity
 _atom_site_fract_x
 _atom_site_fract_y
 _atom_site_fract_z
 _atom_site_occupancy
  Y  Y0  1  0.50000000  0.99021819  0.80146896  1
  Y  Y1  1  0.50000000  0.00978181  0.19853104  1
  Y  Y2  1  0.50000000  0.50978181  0.80146896  1
  Y  Y3  1  0.50000000  0.49021819  0.19853104  1
  Y  Y4  1  -0.00000000  0.75000000  0.54284765  1
  Y  Y5  1  0.00000000  0.25000000  0.45715235  1
  Al  Al0  1  -0.00000000  0.75000000  0.99350961  1
  Al  Al1  1  0.00000000  0.25000000  0.00649039  1
  C  C0  1  0.50000000  0.99139734  0.43413647  1
  C  C1  1  0.50000000  0.00860266  0.56586353  1
  C  C2  1  0.50000000  0.50860266  0.43413647  1
  C  C3  1  0.50000000  0.49139734  0.56586353  1
  C  C4  1  -0.00000000  0.75000000  0.79202404  1
  C  C5  1  0.00000000  0.25000000  0.20797596  1
loop_
_geom_bond_atom_site_label_1
_geom_bond_atom_site_label_2
_geom_bond_distance
_geom_bond_site_symmetry_2
Al0 C4 2.007788 1_555
Al1 C5 2.007788 1_555
C0 C1 1.318248 1_565
C0 Y1 2.351368 1_565
C0 Y5 2.565255 1_665
C0 Y5 2.565255 1_565
C0 Y4 2.696925 1_555
C0 Y4 2.696925 1_655
C1 Y0 2.351368 1_545
C1 Y4 2.565255 1_645
C1 Y4 2.565255 1_545
C1 Y5 2.696925 1_655
C1 Y5 2.696925 1_555
C2 C3 1.318248 1_555
C2 Y3 2.351368 1_555
C2 Y5 2.565255 1_555
C2 Y5 2.565255 1_655
C2 Y4 2.696925 1_555
C2 Y4 2.696925 1_655
C3 Y2 2.351368 1_555
C3 Y4 2.565255 1_655
C3 Y4 2.565255 1_555
C3 Y5 2.696925 1_655
C3 Y5 2.696925 1_555
C4 Y0 2.465861 1_555
C4 Y2 2.465861 1_455
C4 Y0 2.465861 1_455
C4 Y2 2.465861 1_555
C4 Y4 2.483023 1_555
C5 Y1 2.465861 1_455
C5 Y3 2.465861 1_455
C5 Y1 2.465861 1_555
C5 Y3 2.465861 1_555
C5 Y5 2.483023 1_555
