# generated using pymatgen
data_BaLa2Ti3O10
_symmetry_space_group_name_H-M   'P 1'
_cell_length_a   14.67693057
_cell_length_b   14.67693057
_cell_length_c   7.74496700
_cell_angle_alpha   90.00000000
_cell_angle_beta   90.00000000
_cell_angle_gamma   164.65477793
_symmetry_Int_Tables_number   1
_chemical_formula_structural   BaLa2Ti3O10
_chemical_formula_sum   'Ba2 La4 Ti6 O20'
_cell_volume   441.50551415
_cell_formula_units_Z   2
loop_
 _symmetry_equiv_pos_site_id
 _symmetry_equiv_pos_as_xyz
  1  'x, y, z'
loop_
 _atom_site_type_symbol
 _atom_site_label
 _atom_site_symmetry_multiplicity
 _atom_site_fract_x
 _atom_site_fract_y
 _atom_site_fract_z
 _atom_site_occupancy
  Ba  Ba0  1  0.26587400  0.73412600  0.25889900  1
  Ba  Ba1  1  0.73412600  0.26587400  0.75889900  1
  La  La0  1  0.57459600  0.42540400  0.25759300  1
  La  La1  1  0.42540400  0.57459600  0.75759300  1
  La  La2  1  0.42639800  0.57360200  0.25748500  1
  La  La3  1  0.57360200  0.42639800  0.75748500  1
  Ti  Ti0  1  0.00002000  0.99998000  0.00872400  1
  Ti  Ti1  1  0.99998000  0.00002000  0.50872400  1
  Ti  Ti2  1  0.14455400  0.85544600  0.00936200  1
  Ti  Ti3  1  0.85544600  0.14455400  0.50936200  1
  Ti  Ti4  1  0.85531800  0.14468200  0.00829900  1
  Ti  Ti5  1  0.14468200  0.85531800  0.50829900  1
  O  O0  1  0.50000700  0.49999300  0.01654100  1
  O  O1  1  0.49999300  0.50000700  0.51654100  1
  O  O2  1  0.99662300  0.00337700  0.26056200  1
  O  O3  1  0.00337700  0.99662300  0.76056200  1
  O  O4  1  0.87170300  0.12829700  0.25770900  1
  O  O5  1  0.12829700  0.87170300  0.75770900  1
  O  O6  1  0.13314200  0.86685800  0.25804000  1
  O  O7  1  0.86685800  0.13314200  0.75804000  1
  O  O8  1  0.06654500  0.93345500  0.01806800  1
  O  O9  1  0.93345500  0.06654500  0.51806800  1
  O  O10  1  0.93352200  0.06647800  0.99608700  1
  O  O11  1  0.06647800  0.93352200  0.49608700  1
  O  O12  1  0.20582300  0.79417700  0.98814800  1
  O  O13  1  0.79417700  0.20582300  0.48814800  1
  O  O14  1  0.79403900  0.20596100  0.03070900  1
  O  O15  1  0.20596100  0.79403900  0.53070900  1
  O  O16  1  0.63028000  0.36972000  0.00529900  1
  O  O17  1  0.36972000  0.63028000  0.50529900  1
  O  O18  1  0.36953500  0.63046500  0.01107600  1
  O  O19  1  0.63046500  0.36953500  0.51107600  1
loop_
_geom_bond_atom_site_label_1
_geom_bond_atom_site_label_2
_geom_bond_distance
_geom_bond_site_symmetry_2
Ba0 O12 2.729296 1_554
Ba0 O15 2.733041 1_555
Ba0 O14 2.763081 1_565
Ba0 O14 2.763081 1_455
Ba0 O13 2.769525 1_565
Ba0 O13 2.769525 1_455
Ba1 O13 2.729296 1_555
Ba1 O14 2.733041 1_556
Ba1 O15 2.763081 1_655
Ba1 O15 2.763081 1_545
Ba1 O12 2.769525 1_655
Ba1 O12 2.769525 1_545
La0 O16 2.538158 1_555
La0 O19 2.548683 1_555
La0 O6 2.596273 1_655
La0 O6 2.596273 1_545
La0 O11 2.703239 1_655
La0 O11 2.703239 1_545
La0 O8 2.708533 1_655
La0 O8 2.708533 1_545
La0 O0 2.862484 1_555
La0 O1 2.955050 1_555
La0 O2 2.997606 1_565
La0 O2 2.997606 1_455
La1 O17 2.538158 1_555
La1 O18 2.548683 1_556
La1 O7 2.596273 1_565
La1 O7 2.596273 1_455
La1 O10 2.703239 1_565
La1 O10 2.703239 1_455
La1 O9 2.708533 1_565
La1 O9 2.708533 1_455
La1 O1 2.862484 1_555
La1 O0 2.955050 1_556
La1 O3 2.997606 1_655
La1 O3 2.997606 1_545
La2 O4 2.524196 1_455
La2 O4 2.524196 1_565
La2 O18 2.525569 1_555
La2 O17 2.530291 1_555
La2 O9 2.820488 1_565
La2 O9 2.820488 1_455
La2 O10 2.825150 1_454
La2 O10 2.825150 1_564
La2 O2 2.830890 1_565
La2 O2 2.830890 1_455
La2 O0 2.840384 1_555
La2 O1 2.934153 1_555
La3 O5 2.524196 1_655
La3 O5 2.524196 1_545
La3 O19 2.525569 1_555
La3 O16 2.530291 1_556
La3 O8 2.820488 1_656
La3 O8 2.820488 1_546
La3 O11 2.825150 1_655
La3 O11 2.825150 1_545
La3 O3 2.830890 1_655
La3 O3 2.830890 1_545
La3 O1 2.840384 1_555
La3 O0 2.934153 1_556
O0 Ti0 1.960488 1_545
O0 Ti0 1.960488 1_655
O1 Ti1 1.960488 1_455
O1 Ti1 1.960488 1_565
O2 Ti1 1.924486 1_555
O2 Ti0 1.952979 1_645
O3 Ti0 1.924486 1_556
O3 Ti1 1.952979 1_465
O4 Ti4 1.989613 1_555
O4 Ti3 2.005602 1_555
O5 Ti5 1.989613 1_555
O5 Ti2 2.005602 1_556
O6 Ti2 1.954406 1_555
O6 Ti5 1.967106 1_555
O7 Ti3 1.954406 1_555
O7 Ti4 1.967106 1_556
O8 Ti0 1.936635 1_555
O8 Ti2 2.270366 1_555
O9 Ti1 1.936635 1_555
O9 Ti3 2.270366 1_555
O10 Ti0 1.936972 1_646
O10 Ti4 2.277002 1_556
O11 Ti1 1.936972 1_465
O11 Ti5 2.277002 1_555
O12 Ti2 1.789937 1_556
O13 Ti3 1.789937 1_555
O14 Ti4 1.791100 1_555
O15 Ti5 1.791100 1_555
O16 Ti2 2.003314 1_655
O16 Ti2 2.003314 1_545
O17 Ti3 2.003314 1_565
O17 Ti3 2.003314 1_455
O18 Ti4 2.002839 1_565
O18 Ti4 2.002839 1_455
O19 Ti5 2.002839 1_655
O19 Ti5 2.002839 1_545
