# generated using pymatgen
data_Pb7(BrO4)2
_symmetry_space_group_name_H-M   'P 1'
_cell_length_a   5.99353544
_cell_length_b   7.33086812
_cell_length_c   20.01947500
_cell_angle_alpha   90.00000000
_cell_angle_beta   90.00000000
_cell_angle_gamma   114.65892636
_symmetry_Int_Tables_number   1
_chemical_formula_structural   Pb7(BrO4)2
_chemical_formula_sum   'Pb14 Br4 O16'
_cell_volume   799.39802626
_cell_formula_units_Z   2
loop_
 _symmetry_equiv_pos_site_id
 _symmetry_equiv_pos_as_xyz
  1  'x, y, z'
loop_
 _atom_site_type_symbol
 _atom_site_label
 _atom_site_symmetry_multiplicity
 _atom_site_fract_x
 _atom_site_fract_y
 _atom_site_fract_z
 _atom_site_occupancy
  Pb  Pb0  1  0.36123900  0.45020200  0.03228700  1
  Pb  Pb1  1  0.63876100  0.54979800  0.53228700  1
  Pb  Pb2  1  0.70111000  0.14692500  0.99791500  1
  Pb  Pb3  1  0.29889000  0.85307500  0.49791500  1
  Pb  Pb4  1  0.18225700  0.12290500  0.87073800  1
  Pb  Pb5  1  0.81774300  0.87709500  0.37073800  1
  Pb  Pb6  1  0.86775800  0.47721800  0.86342200  1
  Pb  Pb7  1  0.13224200  0.52278200  0.36342200  1
  Pb  Pb8  1  0.82129500  0.34258800  0.16257800  1
  Pb  Pb9  1  0.17870500  0.65741200  0.66257800  1
  Pb  Pb10  1  0.13734700  0.05039200  0.15661700  1
  Pb  Pb11  1  0.86265300  0.94960800  0.65661700  1
  Pb  Pb12  1  0.48220100  0.71352300  0.22517500  1
  Pb  Pb13  1  0.51779900  0.28647700  0.72517500  1
  Br  Br0  1  0.97572500  0.71106200  0.05825900  1
  Br  Br1  1  0.02427500  0.28893800  0.55825900  1
  Br  Br2  1  0.53145400  0.81673100  0.91990700  1
  Br  Br3  1  0.46854600  0.18326900  0.41990700  1
  O  O0  1  0.97705600  0.20329000  0.07592900  1
  O  O1  1  0.02294400  0.79671000  0.57592900  1
  O  O2  1  0.50297200  0.20768900  0.07787900  1
  O  O3  1  0.49702800  0.79231100  0.57787900  1
  O  O4  1  0.53678600  0.30059300  0.93589800  1
  O  O5  1  0.46321400  0.69940700  0.43589800  1
  O  O6  1  0.02241700  0.30488600  0.93517500  1
  O  O7  1  0.97758300  0.69511400  0.43517500  1
  O  O8  1  0.22775800  0.76496300  0.28544300  1
  O  O9  1  0.77224200  0.23503700  0.78544300  1
  O  O10  1  0.64454500  0.61657000  0.30292600  1
  O  O11  1  0.35545500  0.38343000  0.80292600  1
  O  O12  1  0.74698400  0.00301700  0.19700200  1
  O  O13  1  0.25301600  0.99698300  0.69700200  1
  O  O14  1  0.28988600  0.46023800  0.16388000  1
  O  O15  1  0.71011400  0.53976200  0.66388000  1
loop_
_geom_bond_atom_site_label_1
_geom_bond_atom_site_label_2
_geom_bond_distance
_geom_bond_site_symmetry_2
Br0 Pb10 2.998827 1_665
Br0 Pb8 3.229330 1_555
Br1 Pb11 2.998827 1_445
Br1 Pb9 3.229330 1_555
Br2 Pb2 2.697834 1_565
Br2 Pb0 3.321869 1_556
Br3 Pb3 2.697834 1_545
Br3 Pb1 3.321869 1_555
O0 Pb2 2.185193 1_554
O0 Pb10 2.384778 1_655
O0 Pb8 2.391420 1_555
O0 Pb0 2.421552 1_655
O1 Pb3 2.185193 1_555
O1 Pb11 2.384778 1_455
O1 Pb9 2.391420 1_555
O1 Pb1 2.421552 1_455
O2 Pb2 2.147740 1_554
O2 Pb8 2.432853 1_555
O2 Pb0 2.444496 1_555
O2 Pb10 2.551081 1_555
O3 Pb3 2.147740 1_555
O3 Pb9 2.432853 1_555
O3 Pb1 2.444496 1_555
O3 Pb11 2.551081 1_555
O4 Pb2 2.169394 1_555
O4 Pb6 2.360833 1_555
O4 Pb4 2.367264 1_555
O4 Pb0 2.645067 1_556
O5 Pb3 2.169394 1_555
O5 Pb7 2.360833 1_555
O5 Pb5 2.367264 1_555
O5 Pb1 2.645067 1_555
O6 Pb2 2.183187 1_455
O6 Pb4 2.329824 1_555
O6 Pb6 2.344325 1_455
O6 Pb0 2.689471 1_556
O7 Pb3 2.183187 1_655
O7 Pb5 2.329824 1_555
O7 Pb7 2.344325 1_655
O7 Pb1 2.689471 1_555
O8 Pb12 2.098442 1_555
O8 Pb7 2.251377 1_555
O9 Pb13 2.098442 1_555
O9 Pb6 2.251377 1_555
O10 Pb12 2.109926 1_555
O10 Pb5 2.216721 1_555
O11 Pb13 2.109926 1_555
O11 Pb4 2.216721 1_555
O12 Pb12 2.128428 1_545
O12 Pb10 2.360132 1_655
O12 Pb8 2.438239 1_555
O13 Pb13 2.128428 1_565
O13 Pb11 2.360132 1_455
O13 Pb9 2.438239 1_555
O14 Pb12 2.120419 1_555
O14 Pb8 2.571203 1_455
O14 Pb0 2.674835 1_555
O14 Pb10 2.755374 1_555
O15 Pb13 2.120419 1_555
O15 Pb9 2.571203 1_655
O15 Pb1 2.674835 1_555
O15 Pb11 2.755374 1_555
