# generated using pymatgen
data_Li7Mn2(CoO4)3
_symmetry_space_group_name_H-M   'P 1'
_cell_length_a   4.99421600
_cell_length_b   5.05132667
_cell_length_c   9.87176808
_cell_angle_alpha   85.32415378
_cell_angle_beta   101.15748896
_cell_angle_gamma   118.86788396
_symmetry_Int_Tables_number   1
_chemical_formula_structural   Li7Mn2(CoO4)3
_chemical_formula_sum   'Li7 Mn2 Co3 O12'
_cell_volume   213.94971260
_cell_formula_units_Z   1
loop_
 _symmetry_equiv_pos_site_id
 _symmetry_equiv_pos_as_xyz
  1  'x, y, z'
loop_
 _atom_site_type_symbol
 _atom_site_label
 _atom_site_symmetry_multiplicity
 _atom_site_fract_x
 _atom_site_fract_y
 _atom_site_fract_z
 _atom_site_occupancy
  Li  Li0  1  0.74427800  0.00397500  0.25320000  1
  Li  Li1  1  0.57518100  0.66759800  0.74636700  1
  Li  Li2  1  0.41675700  0.33141400  0.25339600  1
  Li  Li3  1  0.08973200  0.66340200  0.25593900  1
  Li  Li4  1  0.91670300  0.32928000  0.74379700  1
  Li  Li5  1  0.25727700  0.00443800  0.74690200  1
  Li  Li6  1  0.50137100  0.99885300  0.49995400  1
  Mn  Mn0  1  0.99903900  0.99899000  0.99993000  1
  Mn  Mn1  1  0.83231700  0.66713400  0.49990100  1
  Co  Co0  1  0.66248800  0.33467400  0.99895500  1
  Co  Co1  1  0.33870800  0.66619400  0.00128900  1
  Co  Co2  1  0.16887200  0.33051400  0.50020600  1
  O  O0  1  0.02241800  0.32291700  0.11217600  1
  O  O1  1  0.90094000  0.00253300  0.60991300  1
  O  O2  1  0.67878200  0.65240100  0.12181900  1
  O  O3  1  0.36265100  0.00011300  0.11749500  1
  O  O4  1  0.18137100  0.63648600  0.61009000  1
  O  O5  1  0.53793800  0.36366900  0.60934500  1
  O  O6  1  0.45365600  0.63597000  0.38882000  1
  O  O7  1  0.32235500  0.34809200  0.87897700  1
  O  O8  1  0.10006300  0.00508000  0.39194000  1
  O  O9  1  0.82243800  0.35956500  0.39003700  1
  O  O10  1  0.63695000  0.99978500  0.88223800  1
  O  O11  1  0.97771700  0.67692400  0.88731400  1
loop_
_geom_bond_atom_site_label_1
_geom_bond_atom_site_label_2
_geom_bond_distance
_geom_bond_site_symmetry_2
Li0 O8 2.020630 1_655
Li0 O3 2.099478 1_555
Li0 O2 2.143224 1_545
Li0 O0 2.164506 1_655
Li0 O9 2.172081 1_555
Li0 O6 2.257361 1_545
Li1 O5 2.046144 1_555
Li1 O7 2.059213 1_555
Li1 O4 2.101126 1_555
Li1 O10 2.101626 1_555
Li1 O11 2.194631 1_555
Li1 O1 2.267724 1_565
Li2 O6 2.038167 1_555
Li2 O2 2.072260 1_555
Li2 O3 2.112485 1_555
Li2 O9 2.154075 1_555
Li2 O0 2.165525 1_555
Li2 O8 2.245336 1_555
Li3 O9 2.065028 1_455
Li3 O6 2.081862 1_555
Li3 O3 2.173009 1_565
Li3 O0 2.177200 1_555
Li3 O2 2.195114 1_455
Li3 O8 2.246992 1_565
Li4 O4 2.063528 1_655
Li4 O1 2.160349 1_555
Li4 O5 2.162900 1_555
Li4 O7 2.163942 1_655
Li4 O10 2.170879 1_545
Li4 O11 2.214881 1_555
Li5 O1 2.012492 1_455
Li5 O10 2.106755 1_545
Li5 O7 2.116405 1_555
Li5 O11 2.180000 1_445
Li5 O4 2.225556 1_545
Li5 O5 2.231679 1_555
Li6 O1 2.071217 1_565
Li6 O8 2.093605 1_565
Li6 O6 2.103649 1_555
Li6 O5 2.125698 1_565
Li6 O9 2.144389 1_565
Li6 O4 2.147097 1_555
Mn0 O10 1.952724 1_555
Mn0 O3 1.954518 1_666
Mn0 O11 1.993919 1_555
Mn0 O0 1.994956 1_666
Mn0 O2 2.183724 1_556
Mn0 O7 2.190000 1_665
Mn1 O6 1.934343 1_555
Mn1 O4 1.935298 1_655
Mn1 O1 1.939718 1_565
Mn1 O9 1.942280 1_555
Mn1 O5 1.961416 1_555
Mn1 O8 1.972012 1_665
Co0 O7 1.900632 1_555
Co0 O0 1.949029 1_656
Co0 O2 2.051004 1_556
Co0 O10 2.063501 1_545
Co0 O3 2.092829 1_556
Co0 O11 2.101123 1_555
Co1 O2 1.903631 1_555
Co1 O11 1.954114 1_454
Co1 O7 2.048886 1_554
Co1 O3 2.059847 1_565
Co1 O10 2.090533 1_554
Co1 O0 2.101230 1_555
Co2 O5 1.883878 1_555
Co2 O8 1.887201 1_555
Co2 O9 1.920602 1_455
Co2 O4 1.929591 1_555
Co2 O6 1.955073 1_555
Co2 O1 1.958555 1_455
