# generated using pymatgen
data_TlIn3
_symmetry_space_group_name_H-M   'P 1'
_cell_length_a   6.43215940
_cell_length_b   6.43215940
_cell_length_c   21.17204886
_cell_angle_alpha   90.00000000
_cell_angle_beta   90.00000000
_cell_angle_gamma   90.00000000
_symmetry_Int_Tables_number   1
_chemical_formula_structural   TlIn3
_chemical_formula_sum   'Tl8 In24'
_cell_volume   875.94428698
_cell_formula_units_Z   8
loop_
 _symmetry_equiv_pos_site_id
 _symmetry_equiv_pos_as_xyz
  1  'x, y, z'
loop_
 _atom_site_type_symbol
 _atom_site_label
 _atom_site_symmetry_multiplicity
 _atom_site_fract_x
 _atom_site_fract_y
 _atom_site_fract_z
 _atom_site_occupancy
  Tl  Tl0_0  1  0.00000000  0.00000000  0.00000000  1
  Tl  Tl0_1  1  0.00000000  0.00000000  0.50000000  1
  Tl  Tl0_2  1  0.00000000  0.50000000  0.00000000  1
  Tl  Tl0_3  1  0.00000000  0.50000000  0.50000000  1
  Tl  Tl0_4  1  0.50000000  0.00000000  0.00000000  1
  Tl  Tl0_5  1  0.50000000  0.00000000  0.50000000  1
  Tl  Tl0_6  1  0.50000000  0.50000000  0.00000000  1
  Tl  Tl0_7  1  0.50000000  0.50000000  0.50000000  1
  In  In0_0  1  0.25000000  0.25000000  0.36713775  1
  In  In0_1  1  0.25000000  0.25000000  0.86713775  1
  In  In0_2  1  0.25000000  0.75000000  0.36713775  1
  In  In0_3  1  0.25000000  0.75000000  0.86713775  1
  In  In0_4  1  0.75000000  0.25000000  0.36713775  1
  In  In0_5  1  0.75000000  0.25000000  0.86713775  1
  In  In0_6  1  0.75000000  0.75000000  0.36713775  1
  In  In0_7  1  0.75000000  0.75000000  0.86713775  1
  In  In1_0  1  0.00000000  0.00000000  0.25000000  1
  In  In1_1  1  0.00000000  0.00000000  0.75000000  1
  In  In1_2  1  0.00000000  0.50000000  0.25000000  1
  In  In1_3  1  0.00000000  0.50000000  0.75000000  1
  In  In1_4  1  0.50000000  0.00000000  0.25000000  1
  In  In1_5  1  0.50000000  0.00000000  0.75000000  1
  In  In1_6  1  0.50000000  0.50000000  0.25000000  1
  In  In1_7  1  0.50000000  0.50000000  0.75000000  1
  In  In2_0  1  0.25000000  0.25000000  0.13286225  1
  In  In2_1  1  0.25000000  0.25000000  0.63286225  1
  In  In2_2  1  0.25000000  0.75000000  0.13286225  1
  In  In2_3  1  0.25000000  0.75000000  0.63286225  1
  In  In2_4  1  0.75000000  0.25000000  0.13286225  1
  In  In2_5  1  0.75000000  0.25000000  0.63286225  1
  In  In2_6  1  0.75000000  0.75000000  0.13286225  1
  In  In2_7  1  0.75000000  0.75000000  0.63286225  1
loop_
_geom_bond_atom_site_label_1
_geom_bond_atom_site_label_2
_geom_bond_distance
_geom_bond_site_symmetry_2
Tl0_0 Tl0_2 3.216080 1_545
Tl0_0 Tl0_4 3.216080 1_555
Tl0_0 Tl0_4 3.216080 1_455
Tl0_0 Tl0_2 3.216080 1_555
Tl0_1 Tl0_5 3.216080 1_555
Tl0_1 Tl0_3 3.216080 1_555
Tl0_1 Tl0_3 3.216080 1_545
Tl0_1 Tl0_5 3.216080 1_455
Tl0_2 Tl0_6 3.216080 1_555
Tl0_2 Tl0_6 3.216080 1_455
Tl0_3 Tl0_7 3.216080 1_455
Tl0_3 Tl0_7 3.216080 1_555
Tl0_4 Tl0_6 3.216080 1_555
Tl0_4 Tl0_6 3.216080 1_545
Tl0_5 Tl0_7 3.216080 1_555
Tl0_5 Tl0_7 3.216080 1_545
In0_0 In0_4 3.216080 1_555
In0_0 In0_2 3.216080 1_555
In0_0 In0_2 3.216080 1_545
In0_0 In0_4 3.216080 1_455
In0_0 In1_2 3.364850 1_555
In0_0 In1_6 3.364850 1_555
In0_0 In1_0 3.364850 1_555
In0_0 In1_4 3.364850 1_555
In0_1 In0_5 3.216080 1_455
In0_1 In0_5 3.216080 1_555
In0_1 In0_3 3.216080 1_545
In0_1 In0_3 3.216080 1_555
In0_1 In1_3 3.364850 1_555
In0_1 In1_7 3.364850 1_555
In0_1 In1_1 3.364850 1_555
In0_1 In1_5 3.364850 1_555
In0_2 In0_6 3.216080 1_455
In0_2 In0_6 3.216080 1_555
In0_2 In1_2 3.364850 1_555
In0_2 In1_6 3.364850 1_555
In0_2 In1_4 3.364850 1_565
In0_2 In1_0 3.364850 1_565
In0_3 In0_7 3.216080 1_555
In0_3 In0_7 3.216080 1_455
In0_3 In1_3 3.364850 1_555
In0_3 In1_7 3.364850 1_555
In0_3 In1_1 3.364850 1_565
In0_3 In1_5 3.364850 1_565
In0_4 In0_6 3.216080 1_555
In0_4 In0_6 3.216080 1_545
In0_4 In1_2 3.364850 1_655
In0_4 In1_6 3.364850 1_555
In0_4 In1_0 3.364850 1_655
In0_4 In1_4 3.364850 1_555
In0_5 In0_7 3.216080 1_555
In0_5 In0_7 3.216080 1_545
In0_5 In1_7 3.364850 1_555
In0_5 In1_3 3.364850 1_655
In0_5 In1_5 3.364850 1_555
In0_5 In1_1 3.364850 1_655
In0_6 In1_2 3.364850 1_655
In0_6 In1_6 3.364850 1_555
In0_6 In1_4 3.364850 1_565
In0_6 In1_0 3.364850 1_665
In0_7 In1_7 3.364850 1_555
In0_7 In1_1 3.364850 1_665
In0_7 In1_3 3.364850 1_655
In0_7 In1_5 3.364850 1_565
In1_0 In1_2 3.216080 1_545
In1_0 In1_4 3.216080 1_455
In1_0 In1_2 3.216080 1_555
In1_0 In1_4 3.216080 1_555
In1_0 In2_2 3.364850 1_545
In1_0 In2_4 3.364850 1_455
In1_0 In2_0 3.364850 1_555
In1_0 In2_6 3.364850 1_445
In1_1 In1_3 3.216080 1_555
In1_1 In1_3 3.216080 1_545
In1_1 In1_5 3.216080 1_455
In1_1 In1_5 3.216080 1_555
In1_1 In2_1 3.364850 1_555
In1_1 In2_3 3.364850 1_545
In1_1 In2_5 3.364850 1_455
In1_1 In2_7 3.364850 1_445
In1_2 In1_6 3.216080 1_455
In1_2 In1_6 3.216080 1_555
In1_2 In2_6 3.364850 1_455
In1_2 In2_2 3.364850 1_555
In1_2 In2_4 3.364850 1_455
In1_2 In2_0 3.364850 1_555
In1_3 In1_7 3.216080 1_455
In1_3 In1_7 3.216080 1_555
In1_3 In2_1 3.364850 1_555
In1_3 In2_5 3.364850 1_455
In1_3 In2_3 3.364850 1_555
In1_3 In2_7 3.364850 1_455
In1_4 In1_6 3.216080 1_545
In1_4 In1_6 3.216080 1_555
In1_4 In2_2 3.364850 1_545
In1_4 In2_0 3.364850 1_555
In1_4 In2_4 3.364850 1_555
In1_4 In2_6 3.364850 1_545
In1_5 In1_7 3.216080 1_555
In1_5 In1_7 3.216080 1_545
In1_5 In2_1 3.364850 1_555
In1_5 In2_3 3.364850 1_545
In1_5 In2_7 3.364850 1_545
In1_5 In2_5 3.364850 1_555
In1_6 In2_6 3.364850 1_555
In1_6 In2_2 3.364850 1_555
In1_6 In2_0 3.364850 1_555
In1_6 In2_4 3.364850 1_555
In1_7 In2_1 3.364850 1_555
In1_7 In2_7 3.364850 1_555
In1_7 In2_5 3.364850 1_555
In1_7 In2_3 3.364850 1_555
In2_0 In2_4 3.216080 1_555
In2_0 In2_2 3.216080 1_545
In2_0 In2_2 3.216080 1_555
In2_0 In2_4 3.216080 1_455
In2_1 In2_3 3.216080 1_545
In2_1 In2_5 3.216080 1_555
In2_1 In2_5 3.216080 1_455
In2_1 In2_3 3.216080 1_555
In2_2 In2_6 3.216080 1_455
In2_2 In2_6 3.216080 1_555
In2_3 In2_7 3.216080 1_555
In2_3 In2_7 3.216080 1_455
In2_4 In2_6 3.216080 1_545
In2_4 In2_6 3.216080 1_555
In2_5 In2_7 3.216080 1_545
In2_5 In2_7 3.216080 1_555
