# generated using pymatgen
data_ZrCr2
_symmetry_space_group_name_H-M   'P 1'
_cell_length_a   5.07715022
_cell_length_b   5.07714087
_cell_length_c   8.05697631
_cell_angle_alpha   90.00000000
_cell_angle_beta   89.99999729
_cell_angle_gamma   119.99992706
_symmetry_Int_Tables_number   1
_chemical_formula_structural   ZrCr2
_chemical_formula_sum   'Zr4 Cr8'
_cell_volume   179.86317873
_cell_formula_units_Z   4
loop_
 _symmetry_equiv_pos_site_id
 _symmetry_equiv_pos_as_xyz
  1  'x, y, z'
loop_
 _atom_site_type_symbol
 _atom_site_label
 _atom_site_symmetry_multiplicity
 _atom_site_fract_x
 _atom_site_fract_y
 _atom_site_fract_z
 _atom_site_occupancy
  Zr  Zr0  1  0.33332711  0.66666356  0.05988711  1
  Zr  Zr1  1  0.66667228  0.33333664  0.55989640  1
  Zr  Zr2  1  0.66667289  0.33333644  0.94011289  1
  Zr  Zr3  1  0.33332772  0.66666336  0.44010360  1
  Cr  Cr0  1  -0.00000000  -0.00000000  -0.00000000  1
  Cr  Cr1  1  -0.00000000  -0.00000000  0.50000000  1
  Cr  Cr2  1  0.83257800  0.66515375  0.24998543  1
  Cr  Cr3  1  0.16742200  0.83257475  0.75001457  1
  Cr  Cr4  1  0.66515385  0.83257693  0.75001458  1
  Cr  Cr5  1  0.33484615  0.16742307  0.24998542  1
  Cr  Cr6  1  0.83257800  0.16742525  0.24998543  1
  Cr  Cr7  1  0.16742200  0.33484625  0.75001457  1
loop_
_geom_bond_atom_site_label_1
_geom_bond_atom_site_label_2
_geom_bond_distance
_geom_bond_site_symmetry_2
Zr0 Zr3 3.063395 1_555
Zr0 Zr2 3.086007 1_454
Zr0 Zr2 3.086079 1_554
Zr0 Zr2 3.086079 1_564
Zr1 Zr2 3.063395 1_555
Zr1 Zr3 3.086058 1_655
Zr1 Zr3 3.086119 1_555
Zr1 Zr3 3.086128 1_545
Cr0 Cr2 2.494868 1_445
Cr0 Cr7 2.494868 1_554
Cr0 Cr5 2.494869 1_555
Cr0 Cr4 2.494869 1_444
Cr0 Cr3 2.494870 1_544
Cr0 Cr6 2.494870 1_455
Cr0 Zr2 2.970723 1_454
Cr0 Zr0 2.970723 1_545
Cr0 Zr2 2.970724 1_444
Cr0 Zr0 2.970724 1_555
Cr0 Zr2 2.970770 1_554
Cr0 Zr0 2.970770 1_445
Cr1 Cr2 2.495058 1_445
Cr1 Cr7 2.495058 1_555
Cr1 Cr4 2.495059 1_445
Cr1 Cr5 2.495059 1_555
Cr1 Cr3 2.495060 1_545
Cr1 Cr6 2.495060 1_455
Cr1 Zr1 2.970735 1_445
Cr1 Zr3 2.970735 1_555
Cr1 Zr3 2.970739 1_545
Cr1 Zr1 2.970739 1_455
Cr1 Zr1 2.970779 1_555
Cr1 Zr3 2.970779 1_445
Cr2 Cr6 2.527038 1_555
Cr2 Cr5 2.527057 1_555
Cr2 Cr5 2.550094 1_665
Cr2 Cr6 2.550103 1_565
Cr2 Zr2 2.891680 1_554
Cr2 Zr1 2.891947 1_555
Cr2 Zr0 2.964812 1_655
Cr2 Zr0 2.964863 1_555
Cr2 Zr3 2.964898 1_655
Cr2 Zr3 2.964942 1_555
Cr3 Cr7 2.527038 1_555
Cr3 Cr4 2.527054 1_555
Cr3 Cr4 2.550096 1_455
Cr3 Cr7 2.550103 1_565
Cr3 Zr0 2.891677 1_556
Cr3 Zr3 2.891946 1_555
Cr3 Zr2 2.964810 1_455
Cr3 Zr2 2.964865 1_565
Cr3 Zr1 2.964894 1_455
Cr3 Zr1 2.964947 1_565
Cr4 Cr7 2.527057 1_555
Cr4 Cr7 2.550094 1_665
Cr4 Zr0 2.891702 1_556
Cr4 Zr3 2.891968 1_555
Cr4 Zr2 2.964833 1_565
Cr4 Zr2 2.964833 1_555
Cr4 Zr1 2.964914 1_555
Cr4 Zr1 2.964918 1_565
Cr5 Cr6 2.527054 1_555
Cr5 Cr6 2.550096 1_455
Cr5 Zr2 2.891702 1_554
Cr5 Zr1 2.891968 1_555
Cr5 Zr0 2.964833 1_545
Cr5 Zr0 2.964833 1_555
Cr5 Zr3 2.964914 1_555
Cr5 Zr3 2.964918 1_545
Cr6 Zr2 2.891677 1_554
Cr6 Zr1 2.891946 1_555
Cr6 Zr0 2.964810 1_655
Cr6 Zr0 2.964865 1_545
Cr6 Zr3 2.964894 1_655
Cr6 Zr3 2.964947 1_545
Cr7 Zr0 2.891680 1_556
Cr7 Zr3 2.891947 1_555
Cr7 Zr2 2.964812 1_455
Cr7 Zr2 2.964863 1_555
Cr7 Zr1 2.964898 1_455
Cr7 Zr1 2.964942 1_555
