# generated using pymatgen
data_NaSi68
_symmetry_space_group_name_H-M   'P 1'
_cell_length_a   10.41295525
_cell_length_b   10.41295525
_cell_length_c   18.03683797
_cell_angle_alpha   73.22237034
_cell_angle_beta   90.00000000
_cell_angle_gamma   120.00000000
_symmetry_Int_Tables_number   1
_chemical_formula_structural   NaSi68
_chemical_formula_sum   'Na1 Si68'
_cell_volume   1596.85690263
_cell_formula_units_Z   1
loop_
 _symmetry_equiv_pos_site_id
 _symmetry_equiv_pos_as_xyz
  1  'x, y, z'
loop_
 _atom_site_type_symbol
 _atom_site_label
 _atom_site_symmetry_multiplicity
 _atom_site_fract_x
 _atom_site_fract_y
 _atom_site_fract_z
 _atom_site_occupancy
  Na  Na0  1  0.93749473  0.37498946  0.18751581  1
  Si  Si0  1  0.12330435  0.37056992  0.38216450  1
  Si  Si1  1  0.62330117  0.37061967  0.88206184  1
  Si  Si2  1  0.94413621  0.76392382  0.18530532  1
  Si  Si3  1  0.44404160  0.76441745  0.68525320  1
  Si  Si4  1  0.94413621  0.99490707  0.18530532  1
  Si  Si5  1  0.44404160  0.99437095  0.68525320  1
  Si  Si6  1  0.23854924  0.37060092  0.49734740  1
  Si  Si7  1  0.73831215  0.37052967  0.99725282  1
  Si  Si8  1  0.31978761  0.37055847  0.18530532  1
  Si  Si9  1  0.82037585  0.37070520  0.68525320  1
  Si  Si10  1  0.74726558  0.99453115  0.38216450  1
  Si  Si11  1  0.24731849  0.99463699  0.88206184  1
  Si  Si12  1  0.63205168  0.76410336  0.49734740  1
  Si  Si13  1  0.13221752  0.76443504  0.99725282  1
  Si  Si14  1  0.55077086  0.37055847  0.18530532  1
  Si  Si15  1  0.05032935  0.37070520  0.68525320  1
  Si  Si16  1  0.31978761  0.76392382  0.18530532  1
  Si  Si17  1  0.82037585  0.76441745  0.68525320  1
  Si  Si18  1  0.63205168  0.37060092  0.49734740  1
  Si  Si19  1  0.13221752  0.37052967  0.99725282  1
  Si  Si20  1  0.74726558  0.37056992  0.38216450  1
  Si  Si21  1  0.24731849  0.37061967  0.88206184  1
  Si  Si22  1  0.55077086  0.99490707  0.18530532  1
  Si  Si23  1  0.05032935  0.99437095  0.68525320  1
  Si  Si24  1  0.37620718  0.62917734  0.11785250  1
  Si  Si25  1  0.87679656  0.62950077  0.61779502  1
  Si  Si26  1  0.55617520  0.23574285  0.31462345  1
  Si  Si27  1  0.05586448  0.23561004  0.81472586  1
  Si  Si28  1  0.55617520  0.00580890  0.31462345  1
  Si  Si29  1  0.05586448  0.00552859  0.81472586  1
  Si  Si30  1  0.26147440  0.62929284  0.00288873  1
  Si  Si31  1  0.76165153  0.62942633  0.50279887  1
  Si  Si32  1  0.17956765  0.62920134  0.31462345  1
  Si  Si33  1  0.67974555  0.62940966  0.81472586  1
  Si  Si34  1  0.75297016  0.00594032  0.11785250  1
  Si  Si35  1  0.25270421  0.00540842  0.61779502  1
  Si  Si36  1  0.86781844  0.23563688  0.00288873  1
  Si  Si37  1  0.36777480  0.23554960  0.50279887  1
  Si  Si38  1  0.94963370  0.62920134  0.31462345  1
  Si  Si39  1  0.44966411  0.62940966  0.81472586  1
  Si  Si40  1  0.17956765  0.23574285  0.31462345  1
  Si  Si41  1  0.67974555  0.23561004  0.81472586  1
  Si  Si42  1  0.86781844  0.62929284  0.00288873  1
  Si  Si43  1  0.36777480  0.62942633  0.50279887  1
  Si  Si44  1  0.75297016  0.62917734  0.11785250  1
  Si  Si45  1  0.25270421  0.62950077  0.61779502  1
  Si  Si46  1  0.94963370  0.00580890  0.31462345  1
  Si  Si47  1  0.44966411  0.00552859  0.81472586  1
  Si  Si48  1  0.31253101  0.12506202  0.06240697  1
  Si  Si49  1  0.81248145  0.12496289  0.56255566  1
  Si  Si50  1  0.18749227  0.87498454  0.43752319  1
  Si  Si51  1  0.68748773  0.87497545  0.93753682  1
  Si  Si52  1  0.85865154  0.21730308  0.42404539  1
  Si  Si53  1  0.35858957  0.21717915  0.92423128  1
  Si  Si54  1  0.17405151  0.84810303  0.10865462  1
  Si  Si55  1  0.67423816  0.84847632  0.60857968  1
  Si  Si56  1  0.17405151  0.21729386  0.10865462  1
  Si  Si57  1  0.67423816  0.21718216  0.60857968  1
  Si  Si58  1  0.54324235  0.21729386  0.10865462  1
  Si  Si59  1  0.04294400  0.21718216  0.60857968  1
  Si  Si60  1  0.64147542  0.78295084  0.07557373  1
  Si  Si61  1  0.14139067  0.78278134  0.57582798  1
  Si  Si62  1  0.32565797  0.15131594  0.39158942  1
  Si  Si63  1  0.82572320  0.15144639  0.89129331  1
  Si  Si64  1  0.32565797  0.78275261  0.39158942  1
  Si  Si65  1  0.82572320  0.78298349  0.89129331  1
  Si  Si66  1  0.95709464  0.78275261  0.39158942  1
  Si  Si67  1  0.45726029  0.78298349  0.89129331  1
loop_
_geom_bond_atom_site_label_1
_geom_bond_atom_site_label_2
_geom_bond_distance
_geom_bond_site_symmetry_2
Si0 Si40 2.368188 1_555
Si0 Si32 2.368188 1_555
Si0 Si52 2.370246 1_455
Si0 Si6 2.399218 1_555
Si1 Si33 2.368326 1_555
Si1 Si41 2.368326 1_555
Si1 Si53 2.371404 1_555
Si1 Si7 2.398127 1_555
Si2 Si38 2.367074 1_555
Si2 Si44 2.367257 1_555
Si2 Si54 2.369234 1_655
Si2 Si4 2.405218 1_555
Si3 Si45 2.368863 1_555
Si3 Si39 2.370714 1_555
Si3 Si55 2.372230 1_555
Si3 Si5 2.394496 1_555
Si4 Si46 2.367074 1_565
Si4 Si56 2.369234 1_665
Si5 Si57 2.372230 1_565
Si10 Si46 2.368188 1_565
Si10 Si28 2.368188 1_565
Si10 Si52 2.370247 1_565
Si10 Si12 2.399218 1_555
Si11 Si29 2.368326 1_565
Si11 Si47 2.368327 1_565
Si11 Si53 2.371404 1_565
Si11 Si13 2.398127 1_555
Si12 Si31 2.368647 1_555
Si12 Si43 2.368647 1_555
Si12 Si55 2.371009 1_555
Si13 Si30 2.369318 1_556
Si13 Si42 2.369318 1_456
Si13 Si54 2.370097 1_556
Si14 Si26 2.367074 1_555
Si14 Si44 2.367257 1_555
Si14 Si58 2.369234 1_555
Si14 Si8 2.405218 1_555
Si15 Si45 2.368863 1_555
Si15 Si27 2.370714 1_555
Si15 Si59 2.372230 1_555
Si15 Si9 2.394496 1_455
Si16 Si32 2.367074 1_555
Si16 Si24 2.367257 1_555
Si16 Si54 2.369234 1_555
Si16 Si22 2.405218 1_555
Si17 Si25 2.368863 1_555
Si17 Si33 2.370714 1_555
Si17 Si55 2.372230 1_555
Si17 Si23 2.394496 1_655
Si18 Si37 2.368647 1_555
Si18 Si31 2.368647 1_555
Si18 Si57 2.371009 1_555
Si18 Si20 2.399218 1_555
Si19 Si30 2.369318 1_556
Si19 Si36 2.369318 1_456
Si19 Si56 2.370097 1_556
Si19 Si21 2.398127 1_555
Si20 Si38 2.368188 1_555
Si20 Si26 2.368188 1_555
Si20 Si52 2.370246 1_555
Si21 Si27 2.368326 1_555
Si21 Si39 2.368327 1_555
Si21 Si53 2.371404 1_555
Si22 Si28 2.367074 1_565
Si22 Si34 2.367257 1_565
Si22 Si58 2.369234 1_565
Si23 Si35 2.368863 1_565
Si23 Si29 2.370714 1_565
Si23 Si59 2.372230 1_565
Si24 Si8 2.367257 1_555
Si24 Si60 2.376438 1_555
Si24 Si30 2.393130 1_555
Si25 Si9 2.368863 1_555
Si25 Si61 2.369935 1_655
Si25 Si31 2.395781 1_555
Si26 Si62 2.376337 1_555
Si26 Si28 2.394292 1_555
Si27 Si63 2.370511 1_455
Si27 Si29 2.395828 1_555
Si28 Si64 2.376337 1_545
Si29 Si65 2.370511 1_445
Si30 Si67 2.376262 1_554
Si31 Si66 2.369859 1_555
Si32 Si64 2.376337 1_555
Si32 Si38 2.394292 1_455
Si33 Si65 2.370511 1_555
Si33 Si39 2.395828 1_555
Si34 Si4 2.367257 1_545
Si34 Si60 2.376438 1_545
Si34 Si36 2.393130 1_555
Si35 Si5 2.368863 1_545
Si35 Si61 2.369935 1_545
Si35 Si37 2.395781 1_555
Si36 Si7 2.369318 1_554
Si36 Si63 2.376262 1_554
Si37 Si6 2.368647 1_555
Si37 Si62 2.369859 1_555
Si38 Si66 2.376337 1_555
Si39 Si67 2.370511 1_555
Si40 Si8 2.367074 1_555
Si40 Si62 2.376337 1_555
Si40 Si46 2.394292 1_455
Si41 Si63 2.370512 1_555
Si41 Si9 2.370714 1_555
Si41 Si47 2.395828 1_555
Si42 Si7 2.369318 1_554
Si42 Si65 2.376262 1_554
Si42 Si44 2.393130 1_555
Si43 Si6 2.368647 1_555
Si43 Si64 2.369859 1_555
Si43 Si45 2.395781 1_555
Si44 Si60 2.376438 1_555
Si45 Si61 2.369935 1_555
Si46 Si66 2.376337 1_545
Si47 Si67 2.370511 1_545
Si47 Si5 2.370714 1_545
Si48 Si53 2.349736 1_554
Si48 Si58 2.354763 1_555
Si48 Si54 2.354763 1_545
Si48 Si56 2.354763 1_555
Si49 Si59 2.350746 1_655
Si49 Si55 2.350746 1_545
Si49 Si57 2.350746 1_555
Si49 Si52 2.355425 1_555
Si50 Si62 2.349427 1_565
Si50 Si66 2.349427 1_455
Si50 Si64 2.349427 1_555
Si50 Si61 2.351931 1_555
Si51 Si60 2.347376 1_556
Si51 Si65 2.350615 1_555
Si51 Si63 2.350615 1_565
Si51 Si67 2.350615 1_555
Si56 Si8 2.369234 1_555
Si57 Si9 2.372230 1_555
Si58 Si7 2.370097 1_554
Si59 Si6 2.371009 1_555
