# generated using pymatgen
data_Ba2TbWO6
_symmetry_space_group_name_H-M   'P 1'
_cell_length_a   6.03023701
_cell_length_b   6.03023701
_cell_length_c   6.08487041
_cell_angle_alpha   59.67145368
_cell_angle_beta   59.67145368
_cell_angle_gamma   60.57396130
_symmetry_Int_Tables_number   1
_chemical_formula_structural   Ba2TbWO6
_chemical_formula_sum   'Ba2 Tb1 W1 O6'
_cell_volume   156.33627881
_cell_formula_units_Z   1
loop_
 _symmetry_equiv_pos_site_id
 _symmetry_equiv_pos_as_xyz
  1  'x, y, z'
loop_
 _atom_site_type_symbol
 _atom_site_label
 _atom_site_symmetry_multiplicity
 _atom_site_fract_x
 _atom_site_fract_y
 _atom_site_fract_z
 _atom_site_occupancy
  Ba  Ba0  1  0.24890900  0.24890900  0.25554400  1
  Ba  Ba1  1  0.75109100  0.75109100  0.74445600  1
  Tb  Tb0  1  0.50000000  0.50000000  0.50000000  1
  W  W0  1  0.00000000  0.00000000  0.00000000  1
  O  O0  1  0.76851100  0.76851100  0.20216900  1
  O  O1  1  0.23148900  0.23148900  0.79783100  1
  O  O2  1  0.74463700  0.22122000  0.25505900  1
  O  O3  1  0.25536300  0.77878000  0.74494100  1
  O  O4  1  0.77878000  0.25536300  0.74494100  1
  O  O5  1  0.22122000  0.74463700  0.25505900  1
loop_
_geom_bond_atom_site_label_1
_geom_bond_atom_site_label_2
_geom_bond_distance
_geom_bond_site_symmetry_2
Ba0 O1 2.894956 1_554
Ba0 O3 2.896417 1_545
Ba0 O4 2.896417 1_455
Ba0 O5 2.909516 1_555
Ba0 O2 2.909516 1_555
Ba0 O0 3.052661 1_455
Ba0 O0 3.052661 1_545
Ba0 O5 3.127827 1_545
Ba0 O2 3.127827 1_455
Ba0 O3 3.136628 1_554
Ba0 O4 3.136628 1_554
Ba0 O1 3.197047 1_555
Ba1 O0 2.894956 1_556
Ba1 O5 2.896417 1_655
Ba1 O2 2.896417 1_565
Ba1 O3 2.909516 1_555
Ba1 O4 2.909516 1_555
Ba1 O1 3.052661 1_565
Ba1 O1 3.052661 1_655
Ba1 O3 3.127827 1_655
Ba1 O4 3.127827 1_565
Ba1 O5 3.136628 1_556
Ba1 O2 3.136628 1_556
Ba1 O0 3.197047 1_555
O0 W0 1.963868 1_665
O0 Tb0 2.275299 1_555
O1 W0 1.963868 1_556
O1 Tb0 2.275299 1_555
O2 W0 2.053868 1_655
O2 Tb0 2.257621 1_555
O3 W0 2.053868 1_566
O3 Tb0 2.257621 1_555
O4 W0 2.053868 1_656
O4 Tb0 2.257621 1_555
O5 W0 2.053868 1_565
O5 Tb0 2.257621 1_555
