# generated using pymatgen
data_Li6MnV3(PO4)6
_symmetry_space_group_name_H-M   'P 1'
_cell_length_a   8.49647300
_cell_length_b   8.63314101
_cell_length_c   14.98279131
_cell_angle_alpha   92.30470291
_cell_angle_beta   103.94145626
_cell_angle_gamma   118.21813977
_symmetry_Int_Tables_number   1
_chemical_formula_structural   Li6MnV3(PO4)6
_chemical_formula_sum   'Li12 Mn2 V6 P12 O48'
_cell_volume   924.47624305
_cell_formula_units_Z   2
loop_
 _symmetry_equiv_pos_site_id
 _symmetry_equiv_pos_as_xyz
  1  'x, y, z'
loop_
 _atom_site_type_symbol
 _atom_site_label
 _atom_site_symmetry_multiplicity
 _atom_site_fract_x
 _atom_site_fract_y
 _atom_site_fract_z
 _atom_site_occupancy
  Li  Li0  1  0.50021700  0.00072500  0.00057100  1
  Li  Li1  1  0.74523200  0.40959400  0.06396400  1
  Li  Li2  1  0.74334900  0.90585700  0.56417400  1
  Li  Li3  1  0.12724000  0.52797500  0.37468500  1
  Li  Li4  1  0.12801800  0.02848000  0.87189000  1
  Li  Li5  1  0.50161700  0.50285700  0.50177300  1
  Li  Li6  1  0.99959300  0.75036400  0.24978200  1
  Li  Li7  1  0.99544600  0.24953300  0.74956600  1
  Li  Li8  1  0.87267400  0.97259700  0.12748400  1
  Li  Li9  1  0.87049500  0.47044900  0.62788400  1
  Li  Li10  1  0.25636000  0.09173300  0.43651700  1
  Li  Li11  1  0.24995600  0.58977100  0.93591200  1
  Mn  Mn0  1  0.36070600  0.71898100  0.57162200  1
  Mn  Mn1  1  0.85761600  0.46812600  0.81905900  1
  V  V0  1  0.36478400  0.22021900  0.07219300  1
  V  V1  1  0.14483800  0.53762600  0.18262100  1
  V  V2  1  0.85501300  0.96501500  0.31799200  1
  V  V3  1  0.63479100  0.28321800  0.42750400  1
  V  V4  1  0.14565800  0.03740200  0.68161300  1
  V  V5  1  0.63676300  0.78238600  0.92726100  1
  P  P0  1  0.74888600  0.26105300  0.22421200  1
  P  P1  1  0.05284700  0.77747500  0.02690300  1
  P  P2  1  0.75085700  0.75742800  0.72428700  1
  P  P3  1  0.44762100  0.83847100  0.37560200  1
  P  P4  1  0.55174900  0.66286400  0.12529000  1
  P  P5  1  0.94636500  0.72407500  0.47388500  1
  P  P6  1  0.05000000  0.27763500  0.52502900  1
  P  P7  1  0.45310100  0.33966800  0.87422800  1
  P  P8  1  0.55117200  0.15688300  0.62485900  1
  P  P9  1  0.25037600  0.23982300  0.27537500  1
  P  P10  1  0.94966000  0.22748200  0.97468200  1
  P  P11  1  0.24965200  0.73816800  0.77466400  1
  O  O0  1  0.32057800  0.22265700  0.19330000  1
  O  O1  1  0.60325300  0.20283200  0.12650300  1
  O  O2  1  0.75853000  0.55179000  0.46877600  1
  O  O3  1  0.38680300  0.63273300  0.16000100  1
  O  O4  1  0.53963200  0.48466200  0.09276500  1
  O  O5  1  0.46110700  0.01724000  0.40741200  1
  O  O6  1  0.91056400  0.45392200  0.22685000  1
  O  O7  1  0.61256600  0.86607200  0.34185900  1
  O  O8  1  0.23782200  0.95336500  0.03349000  1
  O  O9  1  0.91461200  0.95166600  0.72907200  1
  O  O10  1  0.97561900  0.35727600  0.05810500  1
  O  O11  1  0.54756800  0.77278800  0.04445200  1
  O  O12  1  0.18487900  0.37905800  0.26887500  1
  O  O13  1  0.97781000  0.85695800  0.55771800  1
  O  O14  1  0.18617700  0.87822900  0.76807100  1
  O  O15  1  0.10663800  0.68383500  0.48351200  1
  O  O16  1  0.74679000  0.77545700  0.19862500  1
  O  O17  1  0.39591700  0.29783100  0.37325300  1
  O  O18  1  0.11534900  0.19185700  0.98734500  1
  O  O19  1  0.31426100  0.71318800  0.69138600  1
  O  O20  1  0.74838500  0.26703800  0.69433500  1
  O  O21  1  0.93239000  0.80049700  0.38132500  1
  O  O22  1  0.94092900  0.30542700  0.88215600  1
  O  O23  1  0.06383700  0.70460800  0.12081400  1
  O  O24  1  0.06454800  0.20301200  0.61802900  1
  O  O25  1  0.25260800  0.72512000  0.30278100  1
  O  O26  1  0.67906900  0.27848600  0.30662900  1
  O  O27  1  0.88506700  0.81053400  0.01147800  1
  O  O28  1  0.61073100  0.69911800  0.62594300  1
  O  O29  1  0.25760600  0.22691900  0.80116000  1
  O  O30  1  0.88346000  0.31131800  0.51179100  1
  O  O31  1  0.81404500  0.12143400  0.23084400  1
  O  O32  1  0.45143900  0.72839800  0.45725900  1
  O  O33  1  0.02480500  0.14672700  0.44208200  1
  O  O34  1  0.81544600  0.61618300  0.73163800  1
  O  O35  1  0.45630100  0.23008000  0.95546600  1
  O  O36  1  0.03313600  0.64705200  0.94666200  1
  O  O37  1  0.08866200  0.04669700  0.27286800  1
  O  O38  1  0.76360900  0.05266700  0.96719900  1
  O  O39  1  0.38836300  0.12829000  0.66096900  1
  O  O40  1  0.08588000  0.54530400  0.77421900  1
  O  O41  1  0.53556900  0.97538000  0.59289400  1
  O  O42  1  0.46590600  0.51779300  0.90716700  1
  O  O43  1  0.61778800  0.36827800  0.83948000  1
  O  O44  1  0.23530600  0.45236900  0.52959400  1
  O  O45  1  0.54066700  0.26409200  0.54310900  1
  O  O46  1  0.39633700  0.79538400  0.87194100  1
  O  O47  1  0.67898200  0.77444400  0.80571700  1
loop_
_geom_bond_atom_site_label_1
_geom_bond_atom_site_label_2
_geom_bond_distance
_geom_bond_site_symmetry_2
Li0 O1 2.205823 1_555
Li0 O46 2.249844 1_544
Li0 O8 2.250527 1_545
Li0 O38 2.251116 1_554
Li0 O11 2.278521 1_545
Li0 O35 2.280643 1_554
Li1 O1 2.040183 1_555
Li1 O10 2.226909 1_555
Li1 O4 2.251466 1_555
Li1 O35 2.312471 1_554
Li1 O6 2.416671 1_555
Li1 O23 2.595144 1_655
Li2 O28 2.011270 1_555
Li2 O41 2.238153 1_555
Li2 O13 2.245180 1_555
Li2 O32 2.315056 1_555
Li2 O9 2.454122 1_555
Li2 O24 2.613774 1_665
Li3 O25 2.044016 1_555
Li3 O15 2.164167 1_555
Li3 O12 2.282871 1_555
Li3 O6 2.347824 1_455
Li3 O32 2.406365 1_555
Li3 O44 2.513504 1_555
Li4 O29 2.048101 1_555
Li4 O18 2.242851 1_555
Li4 O14 2.271689 1_545
Li4 O9 2.277163 1_445
Li4 O35 2.434758 1_555
Li4 O8 2.600607 1_546
Li5 O28 2.149739 1_555
Li5 O2 2.202842 1_555
Li5 O44 2.240537 1_555
Li5 O17 2.244270 1_555
Li5 O32 2.273837 1_555
Li5 O45 2.322279 1_555
Li6 O23 2.199665 1_655
Li6 O16 2.215425 1_555
Li6 O25 2.221219 1_655
Li6 O21 2.259442 1_555
Li6 O37 2.282330 1_665
Li6 O6 2.283251 1_555
Li7 O20 2.141742 1_555
Li7 O22 2.229692 1_555
Li7 O24 2.259850 1_655
Li7 O40 2.275712 1_655
Li7 O29 2.278337 1_655
Li7 O9 2.311591 1_545
Li8 O16 2.037281 1_555
Li8 O27 2.240869 1_555
Li8 O31 2.261502 1_565
Li8 O37 2.318045 1_665
Li8 O11 2.412240 1_555
Li8 O38 2.602069 1_564
Li9 O20 2.016658 1_555
Li9 O34 2.228849 1_555
Li9 O30 2.228949 1_555
Li9 O40 2.325503 1_655
Li9 O45 2.453991 1_555
Li9 O2 2.598963 1_555
Li10 O17 2.037735 1_555
Li10 O5 2.242992 1_555
Li10 O33 2.249932 1_555
Li10 O45 2.269513 1_555
Li10 O37 2.430899 1_555
Li10 O21 2.602589 1_445
Li11 O46 2.059108 1_555
Li11 O36 2.159229 1_555
Li11 O42 2.318534 1_555
Li11 O11 2.359832 1_556
Li11 O40 2.398245 1_555
Li11 O22 2.509080 1_455
Mn0 O19 1.925579 1_555
Mn0 O41 1.952886 1_555
Mn0 O44 2.017568 1_555
Mn0 O32 2.031098 1_555
Mn0 O15 2.114221 1_555
Mn0 O28 2.174209 1_555
Mn1 O43 1.910350 1_555
Mn1 O34 1.954320 1_555
Mn1 O22 2.022941 1_555
Mn1 O40 2.024491 1_655
Mn1 O36 2.115520 1_655
Mn1 O20 2.178753 1_555
O0 P9 1.520626 1_555
O0 V0 1.940826 1_555
O1 P0 1.551350 1_555
O1 V0 2.071935 1_555
O2 P5 1.565997 1_555
O2 V3 2.032220 1_555
O3 P4 1.523012 1_555
O3 V1 1.943548 1_555
O4 P4 1.542929 1_555
O4 V0 2.007349 1_555
O5 P3 1.539307 1_545
O5 V3 2.016657 1_555
O6 P0 1.570537 1_555
O6 V1 2.058474 1_655
O7 P3 1.520441 1_555
O7 V2 1.953570 1_555
O8 P1 1.562676 1_555
O8 V0 2.012057 1_565
O9 P2 1.577606 1_555
O9 V4 2.061076 1_665
O10 P10 1.545092 1_554
O10 V1 2.080573 1_655
O11 P4 1.572383 1_555
O11 V5 2.063421 1_554
O12 P9 1.542703 1_555
O12 V1 2.007658 1_555
O13 P5 1.548442 1_555
O13 V4 2.072990 1_665
O14 P11 1.537309 1_555
O14 V4 2.015071 1_565
O15 P5 1.533824 1_455
O16 P4 1.552979 1_555
O16 V2 2.066717 1_555
O17 P9 1.553064 1_555
O17 V3 2.061863 1_555
O18 P10 1.548497 1_455
O18 V0 2.086522 1_556
O19 P11 1.524813 1_555
O20 P8 1.539039 1_555
O21 P5 1.562352 1_555
O21 V2 2.010153 1_555
O22 P10 1.566145 1_555
O23 P1 1.564501 1_555
O23 V1 2.036624 1_555
O24 P6 1.560892 1_555
O24 V4 2.037545 1_555
O25 P3 1.550201 1_555
O25 V1 2.066245 1_555
O26 P0 1.523745 1_555
O26 V3 1.939065 1_555
O27 P1 1.548652 1_655
O27 V5 2.076022 1_554
O28 P2 1.539562 1_555
O29 P7 1.553731 1_555
O29 V4 2.064351 1_555
O30 P6 1.544229 1_655
O30 V3 2.079085 1_555
O31 P0 1.543830 1_555
O31 V2 2.004227 1_545
O32 P3 1.582542 1_555
O33 P6 1.548423 1_555
O33 V2 2.081269 1_445
O34 P2 1.553925 1_555
O35 P7 1.574270 1_555
O35 V0 2.067645 1_556
O36 P1 1.535248 1_556
O37 P9 1.572531 1_555
O37 V2 2.063151 1_445
O38 P10 1.560140 1_555
O38 V5 2.040356 1_545
O39 P8 1.521719 1_555
O39 V4 1.939197 1_555
O40 P11 1.585010 1_555
O41 P8 1.553981 1_565
O42 P7 1.541114 1_555
O42 V5 2.003537 1_555
O43 P7 1.524638 1_555
O44 P6 1.566193 1_555
O45 P8 1.575268 1_555
O45 V3 2.057313 1_555
O46 P11 1.551183 1_555
O46 V5 2.069032 1_555
O47 P2 1.520681 1_555
O47 V5 1.943618 1_555
