# generated using pymatgen
data_Li7Mn2(CoO4)3
_symmetry_space_group_name_H-M   'P 1'
_cell_length_a   5.87274700
_cell_length_b   5.90090872
_cell_length_c   6.46737233
_cell_angle_alpha   104.58803635
_cell_angle_beta   103.33874426
_cell_angle_gamma   87.17628020
_symmetry_Int_Tables_number   1
_chemical_formula_structural   Li7Mn2(CoO4)3
_chemical_formula_sum   'Li7 Mn2 Co3 O12'
_cell_volume   211.03792476
_cell_formula_units_Z   1
loop_
 _symmetry_equiv_pos_site_id
 _symmetry_equiv_pos_as_xyz
  1  'x, y, z'
loop_
 _atom_site_type_symbol
 _atom_site_label
 _atom_site_symmetry_multiplicity
 _atom_site_fract_x
 _atom_site_fract_y
 _atom_site_fract_z
 _atom_site_occupancy
  Li  Li0  1  0.82989800  0.83130900  0.33848400  1
  Li  Li1  1  0.66555800  0.16847400  0.66861300  1
  Li  Li2  1  0.50154600  0.50286000  0.99484900  1
  Li  Li3  1  0.34249800  0.82984300  0.34403500  1
  Li  Li4  1  0.16593100  0.16457600  0.66487700  1
  Li  Li5  1  0.99260400  0.50007300  0.98701200  1
  Li  Li6  1  0.66572700  0.66765800  0.66438200  1
  Mn  Mn0  1  0.99787100  0.99361300  0.99959900  1
  Mn  Mn1  1  0.83219400  0.33960800  0.33838900  1
  Co  Co0  1  0.50155000  0.99670500  0.99351400  1
  Co  Co1  1  0.33671900  0.34090000  0.33792800  1
  Co  Co2  1  0.16672200  0.66777600  0.66955500  1
  O  O0  1  0.06865700  0.08757800  0.31772500  1
  O  O1  1  0.90856300  0.40817500  0.64416300  1
  O  O2  1  0.75869500  0.78439100  0.00044500  1
  O  O3  1  0.58808900  0.11117100  0.31949900  1
  O  O4  1  0.39233500  0.42780800  0.64829600  1
  O  O5  1  0.23483200  0.75356800  0.99607200  1
  O  O6  1  0.59270400  0.56788600  0.32461500  1
  O  O7  1  0.42039600  0.92147900  0.68863200  1
  O  O8  1  0.24798000  0.22225600  0.01924400  1
  O  O9  1  0.07648100  0.55880100  0.34324800  1
  O  O10  1  0.93979400  0.90646900  0.68526100  1
  O  O11  1  0.77265700  0.24702300  0.01156300  1
loop_
_geom_bond_atom_site_label_1
_geom_bond_atom_site_label_2
_geom_bond_distance
_geom_bond_site_symmetry_2
Li0 O2 2.077443 1_555
Li0 O6 2.109541 1_555
Li0 O9 2.111574 1_655
Li0 O10 2.121879 1_555
Li0 O3 2.132977 1_565
Li0 O0 2.160779 1_665
Li1 O11 2.096917 1_556
Li1 O1 2.116127 1_555
Li1 O3 2.139113 1_555
Li1 O7 2.145187 1_545
Li1 O4 2.166985 1_555
Li1 O10 2.180413 1_545
Li2 O6 2.015816 1_556
Li2 O5 2.100868 1_555
Li2 O4 2.120272 1_555
Li2 O11 2.142837 1_556
Li2 O2 2.287682 1_556
Li2 O8 2.338177 1_556
Li3 O6 2.080365 1_555
Li3 O7 2.101282 1_555
Li3 O5 2.127901 1_554
Li3 O0 2.165968 1_565
Li3 O9 2.288477 1_555
Li3 O3 2.309870 1_565
Li4 O7 2.026943 1_545
Li4 O1 2.039176 1_455
Li4 O10 2.117081 1_445
Li4 O0 2.119774 1_555
Li4 O4 2.131976 1_555
Li4 O8 2.171210 1_556
Li5 O11 2.080266 1_556
Li5 O1 2.090439 1_555
Li5 O5 2.095633 1_655
Li5 O2 2.112802 1_556
Li5 O9 2.182137 1_656
Li5 O8 2.183099 1_656
Li6 O7 2.029052 1_555
Li6 O1 2.040948 1_555
Li6 O2 2.057133 1_556
Li6 O6 2.073035 1_555
Li6 O10 2.149882 1_555
Li6 O4 2.159738 1_555
Mn0 O2 1.917037 1_556
Mn0 O10 1.919467 1_555
Mn0 O5 1.935894 1_655
Mn0 O0 1.940803 1_666
Mn0 O11 1.945627 1_566
Mn0 O8 2.004180 1_666
Mn1 O1 1.865787 1_555
Mn1 O6 1.901732 1_555
Mn1 O9 1.968171 1_655
Mn1 O3 1.978316 1_555
Mn1 O0 1.984975 1_655
Mn1 O11 1.996144 1_555
Co0 O7 1.859692 1_555
Co0 O2 1.913850 1_556
Co0 O8 1.955557 1_566
Co0 O3 1.995347 1_566
Co0 O5 2.181183 1_555
Co0 O11 2.188488 1_566
Co1 O4 1.895850 1_555
Co1 O9 1.949000 1_555
Co1 O8 1.955284 1_555
Co1 O3 1.958002 1_555
Co1 O6 2.092294 1_555
Co1 O0 2.183677 1_555
Co2 O10 1.890957 1_455
Co2 O4 1.892277 1_555
Co2 O5 1.991803 1_555
Co2 O9 1.995464 1_555
Co2 O7 2.125500 1_555
Co2 O1 2.158569 1_455
