# generated using pymatgen
data_CaMnAl4SiP3(HO4)5
_symmetry_space_group_name_H-M   'P 1'
_cell_length_a   11.94861743
_cell_length_b   11.94861743
_cell_length_c   7.03689704
_cell_angle_alpha   77.09869572
_cell_angle_beta   77.09869572
_cell_angle_gamma   64.06217976
_symmetry_Int_Tables_number   1
_chemical_formula_structural   CaMnAl4SiP3(HO4)5
_chemical_formula_sum   'Ca2 Mn2 Al8 Si2 P6 H10 O40'
_cell_volume   871.55856884
_cell_formula_units_Z   2
loop_
 _symmetry_equiv_pos_site_id
 _symmetry_equiv_pos_as_xyz
  1  'x, y, z'
loop_
 _atom_site_type_symbol
 _atom_site_label
 _atom_site_symmetry_multiplicity
 _atom_site_fract_x
 _atom_site_fract_y
 _atom_site_fract_z
 _atom_site_occupancy
  Ca  Ca0  1  0.73035300  0.26964700  0.00000000  1
  Ca  Ca1  1  0.26964700  0.73035300  0.00000000  1
  Mn  Mn0  1  0.24048800  0.24048800  0.17071200  1
  Mn  Mn1  1  0.75951200  0.75951200  0.82928800  1
  Al  Al0  1  0.79389100  0.58534500  0.47648600  1
  Al  Al1  1  0.58534500  0.79389100  0.47648600  1
  Al  Al2  1  0.20610900  0.41465500  0.52351400  1
  Al  Al3  1  0.41465500  0.20610900  0.52351400  1
  Al  Al4  1  0.98312300  0.19220500  0.24114200  1
  Al  Al5  1  0.19220500  0.98312300  0.24114200  1
  Al  Al6  1  0.01687700  0.80779500  0.75885800  1
  Al  Al7  1  0.80779500  0.01687700  0.75885800  1
  Si  Si0  1  0.04644100  0.04644100  0.68836800  1
  Si  Si1  1  0.95355900  0.95355900  0.31163200  1
  P  P0  1  0.53469300  0.53469300  0.60694600  1
  P  P1  1  0.46530700  0.46530700  0.39305400  1
  P  P2  1  0.93617300  0.45167600  0.79318200  1
  P  P3  1  0.45167600  0.93617300  0.79318200  1
  P  P4  1  0.06382700  0.54832400  0.20681800  1
  P  P5  1  0.54832400  0.06382700  0.20681800  1
  H  H0  1  0.81058300  0.81058300  0.09900300  1
  H  H1  1  0.18941700  0.18941700  0.90099700  1
  H  H2  1  0.89120400  0.89120400  0.24067800  1
  H  H3  1  0.10879600  0.10879600  0.75932200  1
  H  H4  1  0.06434000  0.27178800  0.26252600  1
  H  H5  1  0.27178800  0.06434000  0.26252600  1
  H  H6  1  0.93566000  0.72821200  0.73747400  1
  H  H7  1  0.72821200  0.93566000  0.73747400  1
  H  H8  1  0.10472100  0.10472100  0.08332200  1
  H  H9  1  0.89527900  0.89527900  0.91667800  1
  O  O0  1  0.37880300  0.37880300  0.53360800  1
  O  O1  1  0.62119700  0.62119700  0.46639200  1
  O  O2  1  0.58197400  0.58197400  0.98860600  1
  O  O3  1  0.41802600  0.41802600  0.01139400  1
  O  O4  1  0.11202000  0.89307900  0.76096400  1
  O  O5  1  0.89307900  0.11202000  0.76096400  1
  O  O6  1  0.88798000  0.10692100  0.23903600  1
  O  O7  1  0.10692100  0.88798000  0.23903600  1
  O  O8  1  0.07034700  0.42785600  0.69347200  1
  O  O9  1  0.42785600  0.07034700  0.69347200  1
  O  O10  1  0.92965300  0.57214400  0.30652800  1
  O  O11  1  0.57214400  0.92965300  0.30652800  1
  O  O12  1  0.86825200  0.56373600  0.89869400  1
  O  O13  1  0.56373600  0.86825200  0.89869400  1
  O  O14  1  0.13174800  0.43626400  0.10130600  1
  O  O15  1  0.43626400  0.13174800  0.10130600  1
  O  O16  1  0.85774800  0.44938400  0.64548900  1
  O  O17  1  0.44938400  0.85774800  0.64548900  1
  O  O18  1  0.14225200  0.55061600  0.35451100  1
  O  O19  1  0.55061600  0.14225200  0.35451100  1
  O  O20  1  0.07021600  0.07021600  0.44342100  1
  O  O21  1  0.92978400  0.92978400  0.55657900  1
  O  O22  1  0.62818600  0.42002000  0.71466000  1
  O  O23  1  0.42002000  0.62818600  0.71466000  1
  O  O24  1  0.37181400  0.57998000  0.28534000  1
  O  O25  1  0.57998000  0.37181400  0.28534000  1
  O  O26  1  0.95400200  0.32123200  0.94332400  1
  O  O27  1  0.32123200  0.95400200  0.94332400  1
  O  O28  1  0.04599800  0.67876800  0.05667600  1
  O  O29  1  0.67876800  0.04599800  0.05667600  1
  O  O30  1  0.26905700  0.26905700  0.42842400  1
  O  O31  1  0.73094300  0.73094300  0.57157600  1
  O  O32  1  0.76328600  0.76328600  0.09035800  1
  O  O33  1  0.23671400  0.23671400  0.90964200  1
  O  O34  1  0.66032000  0.14295400  0.87470700  1
  O  O35  1  0.14295400  0.66032000  0.87470700  1
  O  O36  1  0.33968000  0.85704600  0.12529300  1
  O  O37  1  0.85704600  0.33968000  0.12529300  1
  O  O38  1  0.37094700  0.37094700  0.93057000  1
  O  O39  1  0.62905300  0.62905300  0.06943000  1
loop_
_geom_bond_atom_site_label_1
_geom_bond_atom_site_label_2
_geom_bond_distance
_geom_bond_site_symmetry_2
Ca0 O34 2.408896 1_554
Ca0 O37 2.408896 1_555
Ca0 O22 2.512974 1_554
Ca0 O25 2.512974 1_555
Ca0 O5 2.628283 1_554
Ca0 O6 2.628283 1_555
Ca1 O35 2.408896 1_554
Ca1 O36 2.408896 1_555
Ca1 O23 2.512974 1_554
Ca1 O24 2.512974 1_555
Ca1 O4 2.628283 1_554
Ca1 O7 2.628283 1_555
Mn0 O33 1.858723 1_554
Mn0 O30 2.043677 1_555
Mn0 O15 2.124424 1_555
Mn0 O14 2.124424 1_555
Mn0 O38 2.736503 1_554
Mn1 O32 1.858723 1_556
Mn1 O31 2.043677 1_555
Mn1 O12 2.124424 1_555
Mn1 O13 2.124424 1_555
Mn1 O39 2.736503 1_556
Al0 O10 1.755205 1_555
Al0 O16 1.758918 1_555
Al0 O31 1.786175 1_555
Al0 O1 1.930024 1_555
Al1 O11 1.755205 1_555
Al1 O17 1.758918 1_555
Al1 O31 1.786175 1_555
Al1 O1 1.930024 1_555
Al2 O8 1.755205 1_555
Al2 O18 1.758918 1_555
Al2 O30 1.786175 1_555
Al2 O0 1.930024 1_555
Al3 O9 1.755205 1_555
Al3 O19 1.758918 1_555
Al3 O30 1.786175 1_555
Al3 O0 1.930024 1_555
Al4 H4 1.674800 1_655
Al4 H8 1.704783 1_655
Al4 O6 1.832671 1_555
Al4 O37 1.903626 1_555
Al4 O20 1.908324 1_655
Al5 H5 1.674800 1_565
Al5 H8 1.704783 1_565
Al5 O7 1.832671 1_555
Al5 O36 1.903626 1_555
Al5 O20 1.908324 1_565
Al6 H6 1.674800 1_455
Al6 H9 1.704783 1_455
Al6 O4 1.832671 1_555
Al6 O35 1.903626 1_555
Al6 O21 1.908324 1_455
Al7 H7 1.674800 1_545
Al7 H9 1.704783 1_545
Al7 O5 1.832671 1_555
Al7 O34 1.903626 1_555
Al7 O21 1.908324 1_545
H0 O32 0.975984 1_555
H1 O33 0.975984 1_555
H2 Si1 1.475585 1_555
H3 Si0 1.475585 1_555
H4 Mn0 1.949165 1_555
H5 Mn0 1.949165 1_555
H6 Mn1 1.949165 1_555
H7 Mn1 1.949165 1_555
O0 P1 1.771012 1_555
O1 P0 1.771012 1_555
O2 O39 1.232439 1_556
O3 O38 1.232439 1_554
O4 Si0 1.654546 1_565
O5 Si0 1.654546 1_655
O6 Si1 1.654546 1_545
O7 Si1 1.654546 1_455
O8 P2 1.526844 1_455
O9 P3 1.526844 1_545
O10 P4 1.526844 1_655
O11 P5 1.526844 1_565
O12 P2 1.492311 1_555
O13 P3 1.492311 1_555
O14 P4 1.492311 1_555
O15 P5 1.492311 1_555
O16 P2 1.558539 1_555
O17 P3 1.558539 1_555
O18 P4 1.558539 1_555
O19 P5 1.558539 1_555
O20 Si0 1.663045 1_555
O21 Si1 1.663045 1_555
O22 P0 1.508380 1_555
O23 P0 1.508380 1_555
O24 P1 1.508380 1_555
O25 P1 1.508380 1_555
O26 O37 1.506847 1_556
O26 P2 1.632685 1_555
O27 O36 1.506847 1_556
O27 P3 1.632685 1_555
O28 O35 1.506847 1_554
O28 P4 1.632685 1_555
O29 O34 1.506847 1_554
O29 P5 1.632685 1_555
