# generated using pymatgen
data_Mg(NiO2)2
_symmetry_space_group_name_H-M   'P 1'
_cell_length_a   5.78023973
_cell_length_b   5.85514800
_cell_length_c   5.85515006
_cell_angle_alpha   90.01048465
_cell_angle_beta   120.41454287
_cell_angle_gamma   120.43260072
_symmetry_Int_Tables_number   1
_chemical_formula_structural   Mg(NiO2)2
_chemical_formula_sum   'Mg2 Ni4 O8'
_cell_volume   138.29527599
_cell_formula_units_Z   2
loop_
 _symmetry_equiv_pos_site_id
 _symmetry_equiv_pos_as_xyz
  1  'x, y, z'
loop_
 _atom_site_type_symbol
 _atom_site_label
 _atom_site_symmetry_multiplicity
 _atom_site_fract_x
 _atom_site_fract_y
 _atom_site_fract_z
 _atom_site_occupancy
  Mg  Mg0  1  0.25001685  0.12535638  0.87524207  1
  Mg  Mg1  1  0.74998106  0.87464244  0.12475491  1
  Ni  Ni0  1  0.50000190  0.00000402  0.50000428  1
  Ni  Ni1  1  0.50001020  0.50000462  0.50000390  1
  Ni  Ni2  1  0.00000646  0.50000060  0.00000662  1
  Ni  Ni3  1  -0.00000009  0.50000210  0.49999773  1
  O  O0  1  0.03300784  0.74450679  0.24065595  1
  O  O1  1  0.46736447  0.75951354  0.71162154  1
  O  O2  1  0.46705247  0.70735324  0.25517809  1
  O  O3  1  0.96744139  0.71201944  0.70770915  1
  O  O4  1  0.53294538  0.29264101  0.74481754  1
  O  O5  1  0.53263441  0.24048871  0.28837877  1
  O  O6  1  0.03255370  0.28798100  0.29228881  1
  O  O7  1  0.96698697  0.25548711  0.75934264  1
loop_
_geom_bond_atom_site_label_1
_geom_bond_atom_site_label_2
_geom_bond_distance
_geom_bond_site_symmetry_2
Mg0 O7 1.963766 1_455
Mg0 O5 1.963994 1_556
Mg0 O4 1.964458 1_555
Mg0 O3 1.964571 1_445
Mg1 O0 1.963774 1_655
Mg1 O1 1.963979 1_554
Mg1 O2 1.964454 1_555
Mg1 O6 1.964579 1_665
Ni0 O1 1.876647 1_545
Ni0 O5 1.876656 1_555
Ni0 O7 1.894250 1_555
Ni0 O0 1.894293 1_545
Ni0 O4 2.102143 1_555
Ni0 O2 2.102230 1_545
Ni1 O2 1.877115 1_555
Ni1 O4 1.877120 1_555
Ni1 O3 1.895995 1_555
Ni1 O6 1.896099 1_555
Ni1 O5 2.099045 1_555
Ni1 O1 2.099080 1_555
Ni2 O0 1.876640 1_555
Ni2 O7 1.876660 1_454
Ni2 O2 1.894567 1_555
Ni2 O4 1.894631 1_454
Ni2 O6 2.101573 1_555
Ni2 O3 2.101636 1_454
Ni3 O6 1.877066 1_555
Ni3 O3 1.877082 1_455
Ni3 O1 1.895738 1_555
Ni3 O5 1.895744 1_455
Ni3 O0 2.099795 1_555
Ni3 O7 2.099851 1_455
