# generated using pymatgen
data_CaMnF4
_symmetry_space_group_name_H-M   'P 1'
_cell_length_a   6.65398234
_cell_length_b   6.65398234
_cell_length_c   6.65398234
_cell_angle_alpha   131.66344327
_cell_angle_beta   131.66344327
_cell_angle_gamma   70.76110387
_symmetry_Int_Tables_number   1
_chemical_formula_structural   CaMnF4
_chemical_formula_sum   'Ca2 Mn2 F8'
_cell_volume   161.05312998
_cell_formula_units_Z   2
loop_
 _symmetry_equiv_pos_site_id
 _symmetry_equiv_pos_as_xyz
  1  'x, y, z'
loop_
 _atom_site_type_symbol
 _atom_site_label
 _atom_site_symmetry_multiplicity
 _atom_site_fract_x
 _atom_site_fract_y
 _atom_site_fract_z
 _atom_site_occupancy
  Ca  Ca0  1  0.75000000  0.75000000  0.00000000  1
  Ca  Ca1  1  0.25000000  0.25000000  0.00000000  1
  Mn  Mn0  1  0.00000000  0.50000000  0.50000000  1
  Mn  Mn1  1  0.50000000  0.00000000  0.50000000  1
  F  F0  1  0.91137700  0.41137700  0.07417700  1
  F  F1  1  0.66280100  0.16280100  0.07417700  1
  F  F2  1  0.08862300  0.58862300  0.92582300  1
  F  F3  1  0.58862300  0.66280100  0.50000000  1
  F  F4  1  0.33719900  0.83719900  0.92582300  1
  F  F5  1  0.83719900  0.91137700  0.50000000  1
  F  F6  1  0.41137700  0.33719900  0.50000000  1
  F  F7  1  0.16280100  0.08862300  0.50000000  1
loop_
_geom_bond_atom_site_label_1
_geom_bond_atom_site_label_2
_geom_bond_distance
_geom_bond_site_symmetry_2
Ca0 F2 2.377601 1_654
Ca0 F0 2.377601 1_555
Ca0 F3 2.377604 1_554
Ca0 F7 2.377604 1_665
Ca0 F5 2.377604 1_555
Ca0 F6 2.377604 1_554
Ca0 F4 2.377607 1_554
Ca0 F1 2.377607 1_565
Ca1 F0 2.377601 1_455
Ca1 F2 2.377601 1_554
Ca1 F5 2.377604 1_444
Ca1 F6 2.377604 1_555
Ca1 F3 2.377604 1_555
Ca1 F7 2.377604 1_554
Ca1 F4 2.377607 1_544
Ca1 F1 2.377607 1_555
F0 Mn0 2.123695 1_655
F0 Mn1 2.590777 1_554
F1 Mn0 2.123688 1_655
F1 Mn1 2.590772 1_554
F2 Mn0 2.123695 1_555
F2 Mn1 2.590777 1_566
F3 Mn1 2.123689 1_565
F3 Mn0 2.590778 1_655
F4 Mn0 2.123688 1_555
F4 Mn1 2.590772 1_566
F5 Mn1 2.123689 1_565
F5 Mn0 2.590778 1_655
F6 Mn1 2.123689 1_555
F6 Mn0 2.590778 1_555
F7 Mn1 2.123689 1_555
F7 Mn0 2.590778 1_555
