# generated using pymatgen
data_Mg6VZn
_symmetry_space_group_name_H-M   'P 1'
_cell_length_a   4.93605000
_cell_length_b   6.20292700
_cell_length_c   10.67658400
_cell_angle_alpha   90.00000000
_cell_angle_beta   90.00000000
_cell_angle_gamma   90.00000000
_symmetry_Int_Tables_number   1
_chemical_formula_structural   Mg6VZn
_chemical_formula_sum   'Mg12 V2 Zn2'
_cell_volume   326.89519856
_cell_formula_units_Z   2
loop_
 _symmetry_equiv_pos_site_id
 _symmetry_equiv_pos_as_xyz
  1  'x, y, z'
loop_
 _atom_site_type_symbol
 _atom_site_label
 _atom_site_symmetry_multiplicity
 _atom_site_fract_x
 _atom_site_fract_y
 _atom_site_fract_z
 _atom_site_occupancy
  Mg  Mg0  1  0.00000000  0.25940000  0.08864500  1
  Mg  Mg1  1  0.00000000  0.74060000  0.08864500  1
  Mg  Mg2  1  0.00000000  0.50000000  0.83320000  1
  Mg  Mg3  1  0.50000000  0.24247900  0.91556100  1
  Mg  Mg4  1  0.50000000  0.75752100  0.91556100  1
  Mg  Mg5  1  0.50000000  0.50000000  0.66544100  1
  Mg  Mg6  1  0.00000000  0.75940000  0.58864500  1
  Mg  Mg7  1  0.00000000  0.24060000  0.58864500  1
  Mg  Mg8  1  0.00000000  0.00000000  0.33320000  1
  Mg  Mg9  1  0.50000000  0.74247900  0.41556100  1
  Mg  Mg10  1  0.50000000  0.25752100  0.41556100  1
  Mg  Mg11  1  0.50000000  0.00000000  0.16544100  1
  V  V0  1  0.50000000  0.50000000  0.16968500  1
  V  V1  1  0.50000000  0.00000000  0.66968500  1
  Zn  Zn0  1  0.00000000  0.50000000  0.32326300  1
  Zn  Zn1  1  0.00000000  0.00000000  0.82326300  1
loop_
_geom_bond_atom_site_label_1
_geom_bond_atom_site_label_2
_geom_bond_distance
_geom_bond_site_symmetry_2
Mg0 Zn0 2.915810 1_555
Mg0 Mg1 2.984848 1_555
Mg0 V0 3.011163 1_555
Mg0 V0 3.011163 1_455
Mg0 Mg11 3.058173 1_555
Mg0 Mg11 3.058173 1_455
Mg0 Mg8 3.066984 1_555
Mg0 Mg3 3.084975 1_554
Mg0 Mg3 3.084975 1_454
Mg0 Mg2 3.108920 1_554
Mg0 Mg1 3.218079 1_545
Mg0 Zn1 3.258376 1_554
Mg1 Zn0 2.915810 1_555
Mg1 V0 3.011163 1_455
Mg1 V0 3.011163 1_555
Mg1 Mg11 3.058173 1_565
Mg1 Mg11 3.058173 1_465
Mg1 Mg8 3.066984 1_565
Mg1 Mg4 3.084975 1_454
Mg1 Mg4 3.084975 1_554
Mg1 Mg2 3.108920 1_554
Mg1 Zn1 3.258376 1_564
Mg2 Mg5 3.049453 1_555
Mg2 Mg5 3.049453 1_455
Mg2 Mg7 3.066984 1_555
Mg2 Mg6 3.066984 1_555
Mg2 Mg4 3.068552 1_555
Mg2 Mg3 3.068552 1_555
Mg2 Mg3 3.068552 1_455
Mg2 Mg4 3.068552 1_455
Mg2 Zn1 3.103278 1_565
Mg2 Zn1 3.103278 1_555
Mg3 Mg4 3.008159 1_545
Mg3 V1 3.025473 1_555
Mg3 Zn1 3.053599 1_555
Mg3 Zn1 3.053599 1_655
Mg3 Mg5 3.111722 1_555
Mg3 V0 3.148485 1_556
Mg3 Mg4 3.194768 1_555
Mg4 V1 3.025473 1_565
Mg4 Zn1 3.053599 1_565
Mg4 Zn1 3.053599 1_665
Mg4 Mg5 3.111722 1_555
Mg4 V0 3.148485 1_556
Mg5 Mg7 3.058173 1_655
Mg5 Mg6 3.058173 1_555
Mg5 Mg7 3.058173 1_555
Mg5 Mg6 3.058173 1_655
Mg5 Mg9 3.062639 1_555
Mg5 V1 3.101794 1_565
Mg5 V1 3.101794 1_555
Mg6 Zn1 2.915810 1_565
Mg6 Mg7 2.984848 1_565
Mg6 V1 3.011163 1_465
Mg6 V1 3.011163 1_565
Mg6 Mg9 3.084975 1_555
Mg6 Mg9 3.084975 1_455
Mg6 Mg8 3.108920 1_565
Mg6 Mg7 3.218079 1_555
Mg6 Zn0 3.258376 1_555
Mg7 Zn1 2.915810 1_555
Mg7 V1 3.011163 1_555
Mg7 V1 3.011163 1_455
Mg7 Mg8 3.108920 1_555
Mg7 Zn0 3.258376 1_555
Mg8 Mg9 3.068552 1_545
Mg8 Mg9 3.068552 1_445
Mg8 Zn0 3.103278 1_555
Mg8 Zn0 3.103278 1_545
Mg9 V0 3.025473 1_555
Mg9 Zn0 3.053599 1_655
Mg9 Zn0 3.053599 1_555
Mg9 V1 3.148485 1_565
Mg10 Mg9 3.008159 1_555
Mg10 V0 3.025473 1_555
Mg10 Zn0 3.053599 1_655
Mg10 Zn0 3.053599 1_555
Mg10 Mg5 3.062639 1_555
Mg10 Mg8 3.068552 1_655
Mg10 Mg8 3.068552 1_555
Mg10 Mg7 3.084975 1_555
Mg10 Mg7 3.084975 1_655
Mg10 Mg11 3.111722 1_555
Mg10 V1 3.148485 1_555
Mg10 Mg9 3.194768 1_545
Mg11 Mg8 3.049453 1_555
Mg11 Mg8 3.049453 1_655
Mg11 Mg4 3.062639 1_544
Mg11 Mg3 3.062639 1_554
Mg11 V0 3.101794 1_545
Mg11 V0 3.101794 1_555
Mg11 Mg9 3.111722 1_545
V0 Zn0 2.963060 1_655
V0 Zn0 2.963060 1_555
V1 Zn1 2.963060 1_555
V1 Zn1 2.963060 1_655
