# generated using pymatgen
data_BaMnNb2O6
_symmetry_space_group_name_H-M   'P 1'
_cell_length_a   5.79552848
_cell_length_b   5.79552848
_cell_length_c   5.79552848
_cell_angle_alpha   60.00000000
_cell_angle_beta   60.00000000
_cell_angle_gamma   60.00000000
_symmetry_Int_Tables_number   1
_chemical_formula_structural   BaMnNb2O6
_chemical_formula_sum   'Ba1 Mn1 Nb2 O6'
_cell_volume   137.64617125
_cell_formula_units_Z   1
loop_
 _symmetry_equiv_pos_site_id
 _symmetry_equiv_pos_as_xyz
  1  'x, y, z'
loop_
 _atom_site_type_symbol
 _atom_site_label
 _atom_site_symmetry_multiplicity
 _atom_site_fract_x
 _atom_site_fract_y
 _atom_site_fract_z
 _atom_site_occupancy
  Ba  Ba0  1  -0.00000000  -0.00000000  0.00000000  1
  Mn  Mn0  1  0.50000000  0.50000000  0.50000000  1
  Nb  Nb0  1  0.25000000  0.25000000  0.25000000  1
  Nb  Nb1  1  0.75000000  0.75000000  0.75000000  1
  O  O0  1  -0.00000000  -0.00000000  0.50000000  1
  O  O1  1  0.50000000  0.50000000  0.00000000  1
  O  O2  1  -0.00000000  0.50000000  0.50000000  1
  O  O3  1  0.50000000  -0.00000000  0.00000000  1
  O  O4  1  -0.00000000  0.50000000  0.00000000  1
  O  O5  1  0.50000000  -0.00000000  0.50000000  1
loop_
_geom_bond_atom_site_label_1
_geom_bond_atom_site_label_2
_geom_bond_distance
_geom_bond_site_symmetry_2
Ba0 O2 2.897764 1_545
Ba0 O4 2.897764 1_555
Ba0 O5 2.897764 1_455
Ba0 O5 2.897764 1_554
Ba0 O2 2.897764 1_554
Ba0 O4 2.897764 1_545
Ba0 O3 2.897764 1_455
Ba0 O1 2.897764 1_545
Ba0 O0 2.897764 1_554
Ba0 O3 2.897764 1_555
Ba0 O0 2.897764 1_555
Ba0 O1 2.897764 1_455
Mn0 O0 2.897764 1_655
Mn0 O1 2.897764 1_555
Mn0 O4 2.897764 1_556
Mn0 O1 2.897764 1_556
Mn0 O0 2.897764 1_565
Mn0 O4 2.897764 1_655
Mn0 O5 2.897764 1_555
Mn0 O2 2.897764 1_655
Mn0 O5 2.897764 1_565
Mn0 O2 2.897764 1_555
Mn0 O3 2.897764 1_556
Mn0 O3 2.897764 1_565
Nb0 O1 2.049029 1_555
Nb0 O4 2.049029 1_555
Nb0 O0 2.049029 1_555
Nb0 O5 2.049029 1_555
Nb0 O3 2.049029 1_555
Nb0 O2 2.049029 1_555
Nb1 O1 2.049029 1_556
Nb1 O0 2.049029 1_665
Nb1 O4 2.049029 1_656
Nb1 O2 2.049029 1_655
Nb1 O5 2.049029 1_565
Nb1 O3 2.049029 1_566
