# generated using pymatgen
data_U2Cu(GeO9)2
_symmetry_space_group_name_H-M   'P 1'
_cell_length_a   7.12570172
_cell_length_b   7.16021900
_cell_length_c   8.35397954
_cell_angle_alpha   115.37566625
_cell_angle_beta   112.11048062
_cell_angle_gamma   90.00000000
_symmetry_Int_Tables_number   1
_chemical_formula_structural   U2Cu(GeO9)2
_chemical_formula_sum   'U2 Cu1 Ge2 O18'
_cell_volume   350.10112481
_cell_formula_units_Z   1
loop_
 _symmetry_equiv_pos_site_id
 _symmetry_equiv_pos_as_xyz
  1  'x, y, z'
loop_
 _atom_site_type_symbol
 _atom_site_label
 _atom_site_symmetry_multiplicity
 _atom_site_fract_x
 _atom_site_fract_y
 _atom_site_fract_z
 _atom_site_occupancy
  U  U0  1  0.36569200  0.25151900  0.50303900  1
  U  U1  1  0.63430800  0.74848100  0.49696100  1
  Cu  Cu0  1  0.00000000  0.00000000  0.00000000  1
  Ge  Ge0  1  0.86607300  0.29617600  0.59235300  1
  Ge  Ge1  1  0.13392700  0.70382400  0.40764700  1
  O  O0  1  0.00000000  0.33086100  0.00000000  1
  O  O1  1  0.00000000  0.66913900  0.00000000  1
  O  O2  1  0.87415200  0.07687200  0.15374300  1
  O  O3  1  0.12584800  0.92312800  0.84625700  1
  O  O4  1  0.68697100  0.44686300  0.52881600  1
  O  O5  1  0.68697100  0.08195200  0.52881600  1
  O  O6  1  0.31302900  0.55313700  0.47118400  1
  O  O7  1  0.31302900  0.91804800  0.47118400  1
  O  O8  1  0.05130800  0.43982700  0.87965400  1
  O  O9  1  0.94869200  0.56017300  0.12034600  1
  O  O10  1  0.07032400  0.26283300  0.52566500  1
  O  O11  1  0.92967600  0.73716700  0.47433500  1
  O  O12  1  0.49664000  0.38245900  0.76491700  1
  O  O13  1  0.50336000  0.61754100  0.23508300  1
  O  O14  1  0.25393700  0.11317500  0.22635000  1
  O  O15  1  0.74606300  0.88682500  0.77365000  1
  O  O16  1  0.50000000  0.08501000  0.00000000  1
  O  O17  1  0.50000000  0.91499000  0.00000000  1
loop_
_geom_bond_atom_site_label_1
_geom_bond_atom_site_label_2
_geom_bond_distance
_geom_bond_site_symmetry_2
Cu0 O2 1.737193 1_455
Cu0 O3 1.737193 1_544
Cu0 O15 1.901946 1_444
Cu0 O14 1.901946 1_555
Cu0 O1 2.369037 1_545
Cu0 O0 2.369037 1_555
Ge0 O10 1.726858 1_655
Ge0 O5 1.748011 1_555
Ge0 O4 1.748011 1_555
Ge0 O8 2.014935 1_655
Ge1 O11 1.726858 1_455
Ge1 O7 1.748011 1_555
Ge1 O6 1.748011 1_555
Ge1 O9 2.014935 1_455
O0 O9 1.643836 1_455
O0 O8 1.643836 1_554
O1 O8 1.643836 1_554
O1 O9 1.643836 1_455
O4 U1 2.300684 1_555
O4 U0 2.571876 1_555
O5 U1 2.300670 1_545
O5 U0 2.571876 1_555
O6 U0 2.300684 1_555
O6 U1 2.571876 1_555
O7 U0 2.300670 1_565
O7 U1 2.571876 1_555
O10 U0 2.181381 1_555
O11 U1 2.181381 1_555
O12 U0 1.800303 1_555
O13 U1 1.800303 1_555
O14 U0 1.900020 1_555
O15 U1 1.900020 1_555
O16 O17 1.217380 1_545
