# generated using pymatgen
data_Cs5Re6S8Cl7
_symmetry_space_group_name_H-M   'P 1'
_cell_length_a   19.27988906
_cell_length_b   19.27988906
_cell_length_c   19.27988893
_cell_angle_alpha   30.27657175
_cell_angle_beta   30.27657175
_cell_angle_gamma   30.27657060
_symmetry_Int_Tables_number   1
_chemical_formula_structural   Cs5Re6S8Cl7
_chemical_formula_sum   'Cs10 Re12 S16 Cl14'
_cell_volume   1614.28815222
_cell_formula_units_Z   2
loop_
 _symmetry_equiv_pos_site_id
 _symmetry_equiv_pos_as_xyz
  1  'x, y, z'
loop_
 _atom_site_type_symbol
 _atom_site_label
 _atom_site_symmetry_multiplicity
 _atom_site_fract_x
 _atom_site_fract_y
 _atom_site_fract_z
 _atom_site_occupancy
  Cs  Cs0  1  0.56119300  0.93933000  0.25042500  1
  Cs  Cs1  1  0.25042500  0.56119300  0.93933000  1
  Cs  Cs2  1  0.93933000  0.25042500  0.56119300  1
  Cs  Cs3  1  0.75042500  0.43933000  0.06119300  1
  Cs  Cs4  1  0.06119300  0.75042500  0.43933000  1
  Cs  Cs5  1  0.43933000  0.06119300  0.75042500  1
  Cs  Cs6  1  0.83664400  0.83664400  0.83664400  1
  Cs  Cs7  1  0.33664400  0.33664400  0.33664400  1
  Cs  Cs8  1  0.16187900  0.16187900  0.16187900  1
  Cs  Cs9  1  0.66187900  0.66187900  0.66187900  1
  Re  Re0  1  0.46063800  0.63979000  0.34129500  1
  Re  Re1  1  0.34129500  0.46063800  0.63979000  1
  Re  Re2  1  0.63979000  0.34129500  0.46063800  1
  Re  Re3  1  0.84129500  0.13979000  0.96063800  1
  Re  Re4  1  0.96063800  0.84129500  0.13979000  1
  Re  Re5  1  0.13979000  0.96063800  0.84129500  1
  Re  Re6  1  0.53902300  0.36040000  0.65896200  1
  Re  Re7  1  0.65896200  0.53902300  0.36040000  1
  Re  Re8  1  0.36040000  0.65896200  0.53902300  1
  Re  Re9  1  0.15896200  0.86040000  0.03902300  1
  Re  Re10  1  0.03902300  0.15896200  0.86040000  1
  Re  Re11  1  0.86040000  0.03902300  0.15896200  1
  S  S0  1  0.18821600  0.74018800  0.51808100  1
  S  S1  1  0.51808100  0.18821600  0.74018800  1
  S  S2  1  0.74018800  0.51808100  0.18821600  1
  S  S3  1  0.01808100  0.24018800  0.68821600  1
  S  S4  1  0.68821600  0.01808100  0.24018800  1
  S  S5  1  0.24018800  0.68821600  0.01808100  1
  S  S6  1  0.81201600  0.25976100  0.48196200  1
  S  S7  1  0.48196200  0.81201600  0.25976100  1
  S  S8  1  0.25976100  0.48196200  0.81201600  1
  S  S9  1  0.98196200  0.75976100  0.31201600  1
  S  S10  1  0.31201600  0.98196200  0.75976100  1
  S  S11  1  0.75976100  0.31201600  0.98196200  1
  S  S12  1  0.44613200  0.44613200  0.44613200  1
  S  S13  1  0.94613200  0.94613200  0.94613200  1
  S  S14  1  0.55388200  0.55388200  0.55388200  1
  S  S15  1  0.05388200  0.05388200  0.05388200  1
  Cl  Cl0  1  0.40196200  0.82562600  0.13689200  1
  Cl  Cl1  1  0.13689200  0.40196200  0.82562600  1
  Cl  Cl2  1  0.82562600  0.13689200  0.40196200  1
  Cl  Cl3  1  0.63689200  0.32562600  0.90196200  1
  Cl  Cl4  1  0.90196200  0.63689200  0.32562600  1
  Cl  Cl5  1  0.32562600  0.90196200  0.63689200  1
  Cl  Cl6  1  0.59439400  0.17476400  0.86668400  1
  Cl  Cl7  1  0.86668400  0.59439400  0.17476400  1
  Cl  Cl8  1  0.17476400  0.86668400  0.59439400  1
  Cl  Cl9  1  0.36668400  0.67476400  0.09439400  1
  Cl  Cl10  1  0.09439400  0.36668400  0.67476400  1
  Cl  Cl11  1  0.67476400  0.09439400  0.36668400  1
  Cl  Cl12  1  0.77004200  0.77004200  0.77004200  1
  Cl  Cl13  1  0.27004200  0.27004200  0.27004200  1
loop_
_geom_bond_atom_site_label_1
_geom_bond_atom_site_label_2
_geom_bond_distance
_geom_bond_site_symmetry_2
Cs0 S4 3.662191 1_565
Cs0 S7 3.691767 1_555
Cs0 S13 3.829440 1_554
Cs0 S14 3.842433 1_555
Cs1 S5 3.662191 1_556
Cs1 S8 3.691767 1_555
Cs1 S13 3.829440 1_455
Cs1 S14 3.842433 1_555
Cs2 S3 3.662191 1_655
Cs2 S6 3.691767 1_555
Cs2 S13 3.829440 1_545
Cs2 S14 3.842433 1_555
Cs3 S2 3.662191 1_555
Cs3 S11 3.691767 1_554
Cs3 S12 3.829440 1_555
Cs3 S15 3.842433 1_655
Cs4 S0 3.662191 1_555
Cs4 S9 3.691767 1_455
Cs4 S12 3.829440 1_555
Cs4 S15 3.842433 1_565
Cs5 S1 3.662191 1_555
Cs5 S10 3.691767 1_545
Cs5 S12 3.829440 1_555
Cs5 S15 3.842433 1_556
Cs6 S1 3.629881 1_565
Cs6 S0 3.629881 1_655
Cs6 S2 3.629881 1_556
Cs6 S8 4.012716 1_655
Cs6 S7 4.012716 1_556
Cs6 S6 4.012716 1_565
Cs7 S4 3.629881 1_555
Cs7 S5 3.629881 1_555
Cs7 S3 3.629881 1_555
Cs7 S9 4.012716 1_455
Cs7 S10 4.012716 1_545
Cs7 S11 4.012716 1_554
Cs8 S7 3.657199 1_545
Cs8 S6 3.657199 1_455
Cs8 S8 3.657199 1_554
Cs8 S2 3.997004 1_455
Cs8 S1 3.997004 1_554
Cs8 S0 3.997004 1_545
Cs9 S10 3.657199 1_555
Cs9 S11 3.657199 1_555
Cs9 S9 3.657199 1_555
Cs9 S3 3.997004 1_655
Cs9 S4 3.997004 1_565
Cs9 S5 3.997004 1_556
Re0 S0 2.421907 1_555
Re0 S7 2.427330 1_555
Re0 S12 2.428305 1_555
Re0 S2 2.430764 1_555
Re1 S1 2.421907 1_555
Re1 S8 2.427330 1_555
Re1 S12 2.428305 1_555
Re1 S0 2.430764 1_555
Re2 S2 2.421907 1_555
Re2 S6 2.427330 1_555
Re2 S12 2.428305 1_555
Re2 S1 2.430764 1_555
Re3 S3 2.421907 1_655
Re3 S11 2.427330 1_555
Re3 S13 2.428305 1_545
Re3 S4 2.430764 1_556
Re4 S4 2.421907 1_565
Re4 S9 2.427330 1_555
Re4 S13 2.428305 1_554
Re4 S5 2.430764 1_655
Re5 S5 2.421907 1_556
Re5 S10 2.427330 1_555
Re5 S13 2.428305 1_455
Re5 S3 2.430764 1_565
Re6 S1 2.424768 1_555
Re6 S6 2.426390 1_555
Re6 S14 2.427333 1_555
Re6 S8 2.428559 1_555
Re7 S2 2.424768 1_555
Re7 S7 2.426390 1_555
Re7 S14 2.427333 1_555
Re7 S6 2.428559 1_555
Re8 S0 2.424768 1_555
Re8 S8 2.426390 1_555
Re8 S14 2.427333 1_555
Re8 S7 2.428559 1_555
Re9 S5 2.424768 1_555
Re9 S9 2.426390 1_455
Re9 S15 2.427333 1_565
Re9 S10 2.428559 1_554
Re10 S3 2.424768 1_555
Re10 S10 2.426390 1_545
Re10 S15 2.427333 1_556
Re10 S11 2.428559 1_455
Re11 S4 2.424768 1_555
Re11 S11 2.426390 1_554
Re11 S15 2.427333 1_655
Re11 S9 2.428559 1_545
Cl0 Re0 2.441140 1_555
Cl0 Cs8 3.660437 1_565
Cl0 Cs5 3.820282 1_564
Cl0 Cs4 3.866470 1_555
Cl1 Re1 2.441140 1_555
Cl1 Cs8 3.660437 1_556
Cl1 Cs3 3.820282 1_456
Cl1 Cs5 3.866470 1_555
Cl2 Re2 2.441140 1_555
Cl2 Cs8 3.660437 1_655
Cl2 Cs4 3.820282 1_645
Cl2 Cs3 3.866470 1_555
Cl3 Re3 2.441140 1_555
Cl3 Cs9 3.660437 1_555
Cl3 Cs1 3.820282 1_555
Cl3 Cs2 3.866470 1_555
Cl4 Re4 2.441140 1_555
Cl4 Cs9 3.660437 1_555
Cl4 Cs2 3.820282 1_555
Cl4 Cs0 3.866470 1_555
Cl5 Re5 2.441140 1_555
Cl5 Cs9 3.660437 1_555
Cl5 Cs0 3.820282 1_555
Cl5 Cs1 3.866470 1_555
Cl6 Re6 2.452808 1_555
Cl6 Cs6 3.729168 1_545
Cl6 Cs0 3.819102 1_546
Cl6 Cs2 3.912494 1_555
Cl7 Re7 2.452808 1_555
Cl7 Cs6 3.729168 1_554
Cl7 Cs1 3.819102 1_654
Cl7 Cs0 3.912494 1_555
Cl8 Re8 2.452808 1_555
Cl8 Cs6 3.729168 1_455
Cl8 Cs2 3.819102 1_465
Cl8 Cs1 3.912494 1_555
Cl9 Re9 2.452808 1_555
Cl9 Cs7 3.729168 1_555
Cl9 Cs3 3.819102 1_555
Cl9 Cs4 3.912494 1_555
Cl10 Re10 2.452808 1_555
Cl10 Cs7 3.729168 1_555
Cl10 Cs4 3.819102 1_555
Cl10 Cs5 3.912494 1_555
Cl11 Re11 2.452808 1_555
Cl11 Cs7 3.729168 1_555
Cl11 Cs5 3.819102 1_555
Cl11 Cs3 3.912494 1_555
Cl12 Cs5 3.314634 1_565
Cl12 Cs4 3.314634 1_655
Cl12 Cs3 3.314634 1_556
Cl12 Cs6 3.672918 1_555
Cl13 Cs0 3.314634 1_545
Cl13 Cs1 3.314634 1_554
Cl13 Cs2 3.314634 1_455
Cl13 Cs7 3.672918 1_555
