# generated using pymatgen
data_Co3SbO8
_symmetry_space_group_name_H-M   'P 1'
_cell_length_a   5.75134603
_cell_length_b   5.73377150
_cell_length_c   9.19426124
_cell_angle_alpha   89.45323661
_cell_angle_beta   90.75911244
_cell_angle_gamma   60.75436698
_symmetry_Int_Tables_number   1
_chemical_formula_structural   Co3SbO8
_chemical_formula_sum   'Co6 Sb2 O16'
_cell_volume   264.48278009
_cell_formula_units_Z   2
loop_
 _symmetry_equiv_pos_site_id
 _symmetry_equiv_pos_as_xyz
  1  'x, y, z'
loop_
 _atom_site_type_symbol
 _atom_site_label
 _atom_site_symmetry_multiplicity
 _atom_site_fract_x
 _atom_site_fract_y
 _atom_site_fract_z
 _atom_site_occupancy
  Co  Co0  1  0.34712900  0.82160300  0.21681600  1
  Co  Co1  1  0.16686000  0.66642300  0.71172700  1
  Co  Co2  1  0.16691000  0.17088300  0.71233900  1
  Co  Co3  1  0.84642900  0.33170100  0.21258200  1
  Co  Co4  1  0.66203100  0.17070900  0.71231800  1
  Co  Co5  1  0.84294500  0.82669700  0.20988500  1
  Sb  Sb0  1  0.65355800  0.67305500  0.49597400  1
  Sb  Sb1  1  0.33587200  0.32738400  0.98659000  1
  O  O0  1  0.30929100  0.84452100  0.60215200  1
  O  O1  1  0.17283800  0.66501200  0.09756600  1
  O  O2  1  0.50209700  0.52823900  0.33844700  1
  O  O3  1  0.48664900  0.48400700  0.82939200  1
  O  O4  1  0.65290300  0.69030600  0.11090900  1
  O  O5  1  0.33146600  0.34085700  0.61283400  1
  O  O6  1  0.02452800  0.97132100  0.30603000  1
  O  O7  1  0.99886800  0.99758600  0.80895400  1
  O  O8  1  0.83448600  0.31892100  0.59894000  1
  O  O9  1  0.67386100  0.16443400  0.10329300  1
  O  O10  1  0.50528200  0.96917800  0.34105000  1
  O  O11  1  0.03437200  0.48417600  0.83070200  1
  O  O12  1  0.95774300  0.52247000  0.34394000  1
  O  O13  1  0.48652400  0.03279100  0.83143300  1
  O  O14  1  0.17199900  0.15257900  0.09894800  1
  O  O15  1  0.83515400  0.84535000  0.60290400  1
loop_
_geom_bond_atom_site_label_1
_geom_bond_atom_site_label_2
_geom_bond_distance
_geom_bond_site_symmetry_2
Co0 O2 1.829533 1_555
Co0 O6 1.830217 1_555
Co0 O4 1.836673 1_555
Co0 O10 1.894999 1_555
Co0 O14 1.963282 1_565
Co0 O1 1.970325 1_555
Co1 O5 1.880439 1_555
Co1 O0 1.883723 1_555
Co1 O7 1.897574 1_455
Co1 O11 1.909829 1_555
Co1 O3 1.921743 1_555
Co1 O15 1.926283 1_455
Co2 O5 1.894655 1_555
Co2 O7 1.911732 1_445
Co2 O13 1.926887 1_555
Co2 O11 1.927063 1_555
Co2 O0 1.938943 1_545
Co2 O8 1.951269 1_455
Co3 O12 1.937504 1_555
Co3 O9 1.958727 1_555
Co3 O14 1.961058 1_655
Co3 O6 1.982885 1_645
Co3 O4 2.009990 1_555
Co3 O2 2.106179 1_555
Co4 O5 1.878169 1_555
Co4 O7 1.893761 1_545
Co4 O8 1.904385 1_555
Co4 O13 1.906925 1_555
Co4 O3 1.923083 1_555
Co4 O15 1.931579 1_545
Co5 O6 1.842673 1_655
Co5 O4 1.859238 1_555
Co5 O9 1.937695 1_565
Co5 O12 1.951909 1_555
Co5 O1 1.969076 1_655
Co5 O10 2.103291 1_555
O0 Sb0 2.001864 1_555
O1 Sb1 1.989308 1_554
O2 Sb0 2.059678 1_555
O3 Sb1 2.101613 1_555
O8 Sb0 1.993670 1_555
O9 Sb1 1.988454 1_554
O10 Sb0 2.036152 1_555
O11 Sb1 2.062931 1_555
O12 Sb0 2.090930 1_555
O13 Sb1 2.070663 1_555
O14 Sb1 1.972088 1_554
O15 Sb0 2.008190 1_555
