# generated using pymatgen
data_Ho9B5S21
_symmetry_space_group_name_H-M   'P 1'
_cell_length_a   11.15553703
_cell_length_b   11.15553703
_cell_length_c   11.15553708
_cell_angle_alpha   94.12384305
_cell_angle_beta   94.12384305
_cell_angle_gamma   94.12384572
_symmetry_Int_Tables_number   1
_chemical_formula_structural   Ho9B5S21
_chemical_formula_sum   'Ho18 B10 S42'
_cell_volume   1376.93060190
_cell_formula_units_Z   2
loop_
 _symmetry_equiv_pos_site_id
 _symmetry_equiv_pos_as_xyz
  1  'x, y, z'
loop_
 _atom_site_type_symbol
 _atom_site_label
 _atom_site_symmetry_multiplicity
 _atom_site_fract_x
 _atom_site_fract_y
 _atom_site_fract_z
 _atom_site_occupancy
  Ho  Ho0  1  0.92222100  0.53288100  0.76193000  1
  Ho  Ho1  1  0.55559100  0.19760100  0.41765500  1
  Ho  Ho2  1  0.23837900  0.84957100  0.08446000  1
  Ho  Ho3  1  0.19760100  0.41765500  0.55559100  1
  Ho  Ho4  1  0.84957100  0.08446000  0.23837900  1
  Ho  Ho5  1  0.53288100  0.76193000  0.92222100  1
  Ho  Ho6  1  0.08446000  0.23837900  0.84957100  1
  Ho  Ho7  1  0.76193000  0.92222100  0.53288100  1
  Ho  Ho8  1  0.41765500  0.55559100  0.19760100  1
  Ho  Ho9  1  0.72332200  0.08172400  0.86593900  1
  Ho  Ho10  1  0.37625800  0.76543600  0.53182600  1
  Ho  Ho11  1  0.05796100  0.44664300  0.21093000  1
  Ho  Ho12  1  0.44664300  0.21093000  0.05796100  1
  Ho  Ho13  1  0.08172400  0.86593900  0.72332200  1
  Ho  Ho14  1  0.76543600  0.53182600  0.37625800  1
  Ho  Ho15  1  0.53182600  0.37625800  0.76543600  1
  Ho  Ho16  1  0.21093000  0.05796100  0.44664300  1
  Ho  Ho17  1  0.86593900  0.72332200  0.08172400  1
  B  B0  1  0.76012100  0.42199200  0.08491200  1
  B  B1  1  0.42199200  0.08491200  0.76012100  1
  B  B2  1  0.08491200  0.76012100  0.42199200  1
  B  B3  1  0.58600800  0.92008900  0.26115300  1
  B  B4  1  0.26115300  0.58600800  0.92008900  1
  B  B5  1  0.92008900  0.26115300  0.58600800  1
  B  B6  1  0.02392700  0.02392700  0.02392700  1
  B  B7  1  0.69853800  0.69853800  0.69853800  1
  B  B8  1  0.19811200  0.19811200  0.19811200  1
  B  B9  1  0.52414600  0.52414600  0.52414600  1
  S  S0  1  0.97249100  0.65514700  0.30958500  1
  S  S1  1  0.65514700  0.30958500  0.97249100  1
  S  S2  1  0.30958500  0.97249100  0.65514700  1
  S  S3  1  0.47359100  0.80741400  0.15635700  1
  S  S4  1  0.15635700  0.47359100  0.80741400  1
  S  S5  1  0.80741400  0.15635700  0.47359100  1
  S  S6  1  0.51132400  0.35480200  0.25233700  1
  S  S7  1  0.15106300  0.01902900  0.92953600  1
  S  S8  1  0.82015600  0.68927300  0.59763800  1
  S  S9  1  0.68927300  0.59763800  0.82015600  1
  S  S10  1  0.35480200  0.25233700  0.51132400  1
  S  S11  1  0.01902900  0.92953600  0.15106300  1
  S  S12  1  0.92953600  0.15106300  0.01902900  1
  S  S13  1  0.59763800  0.82015600  0.68927300  1
  S  S14  1  0.25233700  0.51132400  0.35480200  1
  S  S15  1  0.73563500  0.88937300  0.99455600  1
  S  S16  1  0.41539200  0.54736700  0.63698300  1
  S  S17  1  0.08366000  0.21651300  0.30588200  1
  S  S18  1  0.54736700  0.63698300  0.41539200  1
  S  S19  1  0.21651300  0.30588200  0.08366000  1
  S  S20  1  0.88937300  0.99455600  0.73563500  1
  S  S21  1  0.30588200  0.08366000  0.21651300  1
  S  S22  1  0.99455600  0.73563500  0.88937300  1
  S  S23  1  0.63698300  0.41539200  0.54736700  1
  S  S24  1  0.68378600  0.56646500  0.14057600  1
  S  S25  1  0.34642800  0.22755300  0.82002500  1
  S  S26  1  0.01163200  0.90371200  0.47949800  1
  S  S27  1  0.90371200  0.47949800  0.01163200  1
  S  S28  1  0.56646500  0.14057600  0.68378600  1
  S  S29  1  0.22755300  0.82002500  0.34642800  1
  S  S30  1  0.82002500  0.34642800  0.22755300  1
  S  S31  1  0.47949800  0.01163200  0.90371200  1
  S  S32  1  0.14057600  0.68378600  0.56646500  1
  S  S33  1  0.74498800  0.86165500  0.28906400  1
  S  S34  1  0.41996800  0.52605400  0.94898700  1
  S  S35  1  0.07933800  0.20079400  0.60885300  1
  S  S36  1  0.52605400  0.94898700  0.41996800  1
  S  S37  1  0.20079400  0.60885300  0.07933800  1
  S  S38  1  0.86165500  0.28906400  0.74498800  1
  S  S39  1  0.60885300  0.07933800  0.20079400  1
  S  S40  1  0.28906400  0.74498800  0.86165500  1
  S  S41  1  0.94898700  0.41996800  0.52605400  1
loop_
_geom_bond_atom_site_label_1
_geom_bond_atom_site_label_2
_geom_bond_distance
_geom_bond_site_symmetry_2
Ho0 S22 2.626451 1_555
Ho0 S38 2.744726 1_555
Ho0 S4 2.761002 1_655
Ho0 S9 2.853433 1_555
Ho0 S8 2.853879 1_555
Ho0 S41 2.879240 1_555
Ho0 S27 2.908649 1_556
Ho1 S10 2.631252 1_555
Ho1 S6 2.679369 1_555
Ho1 S36 2.771496 1_545
Ho1 S39 2.794016 1_555
Ho1 S23 2.794496 1_555
Ho1 S5 2.909958 1_555
Ho1 S28 3.076411 1_555
Ho2 S37 2.683777 1_555
Ho2 S3 2.770999 1_555
Ho2 S40 2.781822 1_554
Ho2 S11 2.795630 1_555
Ho2 S7 2.828757 1_564
Ho2 S21 2.925892 1_565
Ho2 S29 2.974421 1_555
Ho3 S14 2.631251 1_555
Ho3 S10 2.679369 1_555
Ho3 S41 2.771496 1_455
Ho3 S35 2.794016 1_555
Ho3 S16 2.794496 1_555
Ho3 S4 2.909958 1_555
Ho3 S32 3.076411 1_555
Ho4 S39 2.683777 1_555
Ho4 S5 2.770999 1_555
Ho4 S33 2.781822 1_545
Ho4 S12 2.795630 1_555
Ho4 S11 2.828757 1_645
Ho4 S17 2.925892 1_655
Ho4 S30 2.974421 1_555
Ho5 S15 2.626451 1_555
Ho5 S40 2.744726 1_555
Ho5 S3 2.761002 1_556
Ho5 S13 2.853433 1_555
Ho5 S9 2.853879 1_555
Ho5 S34 2.879239 1_555
Ho5 S31 2.908649 1_565
Ho6 S35 2.683777 1_555
Ho6 S4 2.770999 1_555
Ho6 S38 2.781822 1_455
Ho6 S7 2.795630 1_555
Ho6 S12 2.828757 1_456
Ho6 S19 2.925892 1_556
Ho6 S25 2.974421 1_555
Ho7 S20 2.626451 1_555
Ho7 S33 2.744726 1_555
Ho7 S5 2.761002 1_565
Ho7 S8 2.853433 1_555
Ho7 S13 2.853879 1_555
Ho7 S36 2.879240 1_555
Ho7 S26 2.908649 1_655
Ho8 S6 2.631252 1_555
Ho8 S14 2.679369 1_555
Ho8 S34 2.771496 1_554
Ho8 S37 2.794016 1_555
Ho8 S18 2.794496 1_555
Ho8 S3 2.909958 1_555
Ho8 S24 3.076411 1_555
Ho9 S20 2.633048 1_545
Ho9 S15 2.671836 1_545
Ho9 S28 2.732709 1_555
Ho9 S12 2.792117 1_556
Ho9 S31 2.844930 1_555
Ho9 S1 2.902774 1_555
Ho9 S38 3.128389 1_555
Ho9 S13 3.542779 1_545
Ho10 S29 2.689468 1_555
Ho10 S2 2.778171 1_555
Ho10 S32 2.782761 1_555
Ho10 S18 2.804699 1_555
Ho10 S16 2.823854 1_555
Ho10 S13 2.926036 1_555
Ho10 S36 2.952540 1_555
Ho11 S14 2.627977 1_555
Ho11 S0 2.762639 1_455
Ho11 S27 2.774145 1_455
Ho11 S30 2.829021 1_455
Ho11 S19 2.837228 1_555
Ho11 S17 2.871951 1_555
Ho11 S37 2.876114 1_555
Ho12 S6 2.627977 1_555
Ho12 S1 2.762639 1_554
Ho12 S31 2.774145 1_554
Ho12 S25 2.829021 1_554
Ho12 S21 2.837228 1_555
Ho12 S19 2.871951 1_555
Ho12 S39 2.876114 1_555
Ho13 S22 2.633048 1_455
Ho13 S20 2.671836 1_455
Ho13 S32 2.732709 1_555
Ho13 S7 2.792117 1_565
Ho13 S26 2.844930 1_555
Ho13 S2 2.902774 1_555
Ho13 S40 3.128389 1_555
Ho13 S8 3.542779 1_455
Ho14 S30 2.689468 1_555
Ho14 S0 2.778171 1_555
Ho14 S24 2.782761 1_555
Ho14 S23 2.804699 1_555
Ho14 S18 2.823854 1_555
Ho14 S8 2.926036 1_555
Ho14 S41 2.952540 1_555
Ho15 S25 2.689467 1_555
Ho15 S1 2.778171 1_555
Ho15 S28 2.782761 1_555
Ho15 S16 2.804699 1_555
Ho15 S23 2.823854 1_555
Ho15 S9 2.926036 1_555
Ho15 S34 2.952540 1_555
Ho16 S10 2.627977 1_555
Ho16 S2 2.762639 1_545
Ho16 S26 2.774145 1_545
Ho16 S29 2.829021 1_545
Ho16 S17 2.837228 1_555
Ho16 S21 2.871951 1_555
Ho16 S35 2.876114 1_555
Ho17 S15 2.633048 1_554
Ho17 S22 2.671836 1_554
Ho17 S24 2.732709 1_555
Ho17 S11 2.792117 1_655
Ho17 S27 2.844930 1_555
Ho17 S0 2.902774 1_555
Ho17 S33 3.128389 1_555
Ho17 S9 3.542779 1_554
B0 S27 1.939496 1_555
B0 S30 1.951969 1_555
B0 S24 1.959016 1_555
B0 S1 1.966713 1_554
B1 S31 1.939496 1_555
B1 S25 1.951969 1_555
B1 S28 1.959015 1_555
B1 S2 1.966713 1_545
B2 S26 1.939496 1_555
B2 S29 1.951969 1_555
B2 S32 1.959016 1_555
B2 S0 1.966713 1_455
B3 S33 1.945056 1_555
B3 S39 1.950876 1_565
B3 S36 1.951751 1_555
B3 S3 1.967332 1_555
B4 S40 1.945056 1_555
B4 S37 1.950876 1_556
B4 S34 1.951751 1_555
B4 S4 1.967332 1_555
B5 S38 1.945056 1_555
B5 S35 1.950876 1_655
B5 S41 1.951751 1_555
B5 S5 1.967332 1_555
B6 S11 1.827815 1_545
B6 S7 1.827815 1_554
B6 S12 1.827815 1_455
B7 S9 1.827947 1_555
B7 S8 1.827947 1_555
B7 S13 1.827947 1_555
B8 S19 1.827736 1_555
B8 S17 1.827736 1_555
B8 S21 1.827736 1_555
B9 S18 1.827948 1_555
B9 S16 1.827948 1_555
B9 S23 1.827948 1_555
