# generated using pymatgen
data_Li4Cr2C4SO16
_symmetry_space_group_name_H-M   'P 1'
_cell_length_a   9.41767800
_cell_length_b   9.48450229
_cell_length_c   16.29948792
_cell_angle_alpha   74.48445080
_cell_angle_beta   73.81892466
_cell_angle_gamma   60.57825807
_symmetry_Int_Tables_number   1
_chemical_formula_structural   Li4Cr2C4SO16
_chemical_formula_sum   'Li16 Cr8 C16 S4 O64'
_cell_volume   1202.95967921
_cell_formula_units_Z   4
loop_
 _symmetry_equiv_pos_site_id
 _symmetry_equiv_pos_as_xyz
  1  'x, y, z'
loop_
 _atom_site_type_symbol
 _atom_site_label
 _atom_site_symmetry_multiplicity
 _atom_site_fract_x
 _atom_site_fract_y
 _atom_site_fract_z
 _atom_site_occupancy
  Li  Li0  1  0.78230900  0.28252000  0.03277600  1
  Li  Li1  1  0.41816500  0.91860600  0.16957500  1
  Li  Li2  1  0.99290600  0.91877400  0.16853900  1
  Li  Li3  1  0.41918100  0.49169200  0.16913300  1
  Li  Li4  1  0.67721500  0.63142200  0.45491100  1
  Li  Li5  1  0.13622500  0.18721900  0.45873000  1
  Li  Li6  1  0.08527000  0.58844900  0.34223700  1
  Li  Li7  1  0.91886300  0.40968100  0.67273100  1
  Li  Li8  1  0.89641800  0.77796600  0.53430800  1
  Li  Li9  1  0.69794800  0.21858000  0.45476800  1
  Li  Li10  1  0.93005000  0.99341500  0.67101100  1
  Li  Li11  1  0.63200000  0.70625900  0.95626200  1
  Li  Li12  1  0.20682700  0.13284500  0.95561800  1
  Li  Li13  1  0.48520600  0.43330800  0.66287800  1
  Li  Li14  1  0.59350900  0.09279000  0.84238800  1
  Li  Li15  1  0.20605100  0.70636900  0.95550100  1
  Cr  Cr0  1  0.00076000  0.50029100  0.99979900  1
  Cr  Cr1  1  0.74870500  0.75112300  0.24934000  1
  Cr  Cr2  1  0.25027800  0.24904100  0.25024900  1
  Cr  Cr3  1  0.49952500  0.00078300  0.49960800  1
  Cr  Cr4  1  0.74945000  0.25045400  0.25012600  1
  Cr  Cr5  1  0.75289900  0.74888500  0.75038100  1
  Cr  Cr6  1  0.25091500  0.25042600  0.75013400  1
  Cr  Cr7  1  0.25192800  0.75056500  0.74981300  1
  C  C0  1  0.07430300  0.20711000  0.13841000  1
  C  C1  1  0.70485600  0.57182100  0.14039000  1
  C  C2  1  0.07964900  0.57456900  0.14371900  1
  C  C3  1  0.89056400  0.39697100  0.32717200  1
  C  C4  1  0.42525900  0.92695700  0.35577300  1
  C  C5  1  0.60842900  0.10500000  0.17466000  1
  C  C6  1  0.42689400  0.28909000  0.36028400  1
  C  C7  1  0.79405900  0.92676600  0.35844400  1
  C  C8  1  0.57899600  0.70573600  0.63988500  1
  C  C9  1  0.20610300  0.07465600  0.64044600  1
  C  C10  1  0.58155400  0.07345000  0.64254000  1
  C  C11  1  0.39286500  0.89603900  0.82738200  1
  C  C12  1  0.92394400  0.42788600  0.85669700  1
  C  C13  1  0.10897400  0.60656600  0.67476700  1
  C  C14  1  0.92701300  0.79120500  0.86033700  1
  C  C15  1  0.29295900  0.42919200  0.85806700  1
  S  S0  1  0.31250900  0.81250700  0.06249100  1
  S  S1  1  0.81195000  0.31228500  0.56269300  1
  S  S2  1  0.17792100  0.68725900  0.43784800  1
  S  S3  1  0.68803300  0.18756300  0.93764400  1
  O  O0  1  0.40891000  0.65207700  0.02940900  1
  O  O1  1  0.15112200  0.90724100  0.03049300  1
  O  O2  1  0.40983300  0.90854600  0.03079900  1
  O  O3  1  0.28027100  0.78222700  0.15930400  1
  O  O4  1  0.77457900  0.52079700  0.06541900  1
  O  O5  1  0.93926700  0.19210400  0.14787200  1
  O  O6  1  0.12594600  0.27713900  0.06528300  1
  O  O7  1  0.64061700  0.48995100  0.20143600  1
  O  O8  1  0.69574500  0.70587000  0.15093100  1
  O  O9  1  0.15662300  0.14610000  0.20088400  1
  O  O10  1  0.86923400  0.27281700  0.32701200  1
  O  O11  1  0.02744200  0.62561100  0.07119800  1
  O  O12  1  0.50250700  0.84972700  0.29010300  1
  O  O13  1  0.46491300  0.11767800  0.17739600  1
  O  O14  1  0.76674500  0.54166800  0.32908200  1
  O  O15  1  0.21502800  0.44212000  0.15453600  1
  O  O16  1  0.28999800  0.06234200  0.35059600  1
  O  O17  1  0.73736600  0.96416100  0.17615100  1
  O  O18  1  0.03779600  0.37577100  0.32884600  1
  O  O19  1  0.99747000  0.66212700  0.20650100  1
  O  O20  1  0.90727700  0.15256100  0.52879300  1
  O  O21  1  0.65003700  0.40816400  0.53027300  1
  O  O22  1  0.48684200  0.86913300  0.42636100  1
  O  O23  1  0.62444500  0.23623600  0.17130000  1
  O  O24  1  0.34419100  0.36009900  0.29612400  1
  O  O25  1  0.80575900  0.78798000  0.35074000  1
  O  O26  1  0.90883900  0.40775500  0.53227800  1
  O  O27  1  0.77888100  0.28041900  0.65944700  1
  O  O28  1  0.44449200  0.69347800  0.64967400  1
  O  O29  1  0.27638400  0.02674100  0.56563500  1
  O  O30  1  0.36908300  0.21666300  0.42975500  1
  O  O31  1  0.85045900  0.00806500  0.29348900  1
  O  O32  1  0.63241500  0.77699400  0.56627700  1
  O  O33  1  0.14272000  0.99079100  0.70105500  1
  O  O34  1  0.56624600  0.29014300  0.35283900  1
  O  O35  1  0.72529200  0.98005200  0.43231500  1
  O  O36  1  0.20090100  0.71670300  0.34105300  1
  O  O37  1  0.07068100  0.59593100  0.46720300  1
  O  O38  1  0.19246400  0.21007100  0.65292000  1
  O  O39  1  0.66507700  0.64215800  0.70112300  1
  O  O40  1  0.52902500  0.12666800  0.57017800  1
  O  O41  1  0.37192000  0.77217800  0.82668300  1
  O  O42  1  0.07358900  0.84398800  0.47459500  1
  O  O43  1  0.33622500  0.59137200  0.46894600  1
  O  O44  1  0.96501100  0.62285800  0.66986300  1
  O  O45  1  0.00487400  0.35443700  0.79041300  1
  O  O46  1  0.71924500  0.93932800  0.65120600  1
  O  O47  1  0.26954600  0.04093500  0.82922100  1
  O  O48  1  0.23621300  0.46493200  0.67728200  1
  O  O49  1  0.79073700  0.56446900  0.85111600  1
  O  O50  1  0.54035000  0.87406400  0.82985900  1
  O  O51  1  0.50089700  0.15563900  0.70680100  1
  O  O52  1  0.11946400  0.73542900  0.67809500  1
  O  O53  1  0.97818200  0.36532500  0.93019500  1
  O  O54  1  0.84214400  0.86286200  0.79687400  1
  O  O55  1  0.30670700  0.28774200  0.85183400  1
  O  O56  1  0.87016000  0.71720600  0.92981700  1
  O  O57  1  0.35489700  0.50640300  0.79301400  1
  O  O58  1  0.06526100  0.79414100  0.85230200  1
  O  O59  1  0.21639400  0.48944600  0.92872800  1
  O  O60  1  0.59075000  0.09127800  0.96557600  1
  O  O61  1  0.71716000  0.21498600  0.84073400  1
  O  O62  1  0.84733600  0.09725800  0.97202900  1
  O  O63  1  0.59703000  0.34676300  0.97226900  1
loop_
_geom_bond_atom_site_label_1
_geom_bond_atom_site_label_2
_geom_bond_distance
_geom_bond_site_symmetry_2
Li0 O62 1.994624 1_554
Li0 O63 1.995412 1_554
Li0 O23 2.396041 1_555
Li0 O53 2.411848 1_554
Li0 O4 2.419874 1_555
Li0 O5 2.424725 1_555
Li1 O12 2.142526 1_555
Li1 O13 2.179844 1_565
Li1 O3 2.296727 1_555
Li1 O2 2.313774 1_555
Li1 O9 2.376974 1_565
Li1 O8 2.387559 1_555
Li2 O17 2.199258 1_555
Li2 O31 2.224523 1_565
Li2 O1 2.323347 1_655
Li2 O19 2.327257 1_555
Li2 O5 2.330284 1_565
Li2 O3 2.336196 1_655
Li3 O23 2.235884 1_555
Li3 O24 2.238317 1_555
Li3 O15 2.275336 1_555
Li3 O7 2.280338 1_555
Li3 O0 2.373772 1_555
Li3 O3 2.381019 1_555
Li4 O22 2.108658 1_555
Li4 O14 2.215186 1_555
Li4 O21 2.241393 1_555
Li4 O32 2.391846 1_555
Li4 O25 2.413489 1_555
Li4 O26 2.530686 1_555
Li5 O16 2.148396 1_555
Li5 O29 2.232585 1_555
Li5 O30 2.250351 1_555
Li5 O20 2.276917 1_455
Li5 O26 2.430644 1_455
Li5 O18 2.445170 1_555
Li6 O36 1.985722 1_555
Li6 O37 2.021033 1_555
Li6 O18 2.343585 1_555
Li6 O25 2.360626 1_455
Li6 O19 2.385720 1_455
Li6 O24 2.421236 1_555
Li7 O45 2.126335 1_655
Li7 O44 2.253993 1_555
Li7 O27 2.275269 1_555
Li7 O26 2.322653 1_555
Li7 O38 2.323458 1_655
Li7 O39 2.353766 1_555
Li8 O42 1.979582 1_655
Li8 O37 2.024009 1_655
Li8 O44 2.363504 1_555
Li8 O32 2.398155 1_555
Li8 O35 2.405909 1_555
Li8 O46 2.456845 1_555
Li9 O34 2.115994 1_555
Li9 O21 2.242478 1_555
Li9 O35 2.266361 1_545
Li9 O20 2.333032 1_555
Li9 O10 2.360714 1_555
Li9 O40 2.376270 1_555
Li10 O33 2.177848 1_655
Li10 O52 2.204071 1_655
Li10 O54 2.264676 1_555
Li10 O27 2.353674 1_565
Li10 O46 2.398983 1_555
Li10 O20 2.405191 1_565
Li11 O49 2.193279 1_555
Li11 O56 2.212070 1_555
Li11 O4 2.323650 1_556
Li11 O50 2.325957 1_555
Li11 O2 2.328329 1_556
Li11 O0 2.331645 1_556
Li12 O53 2.239208 1_455
Li12 O55 2.246321 1_555
Li12 O47 2.264939 1_555
Li12 O6 2.274638 1_556
Li12 O2 2.365933 1_546
Li12 O1 2.385805 1_546
Li13 O48 2.164171 1_555
Li13 O57 2.232930 1_555
Li13 O28 2.261551 1_555
Li13 O21 2.276018 1_555
Li13 O27 2.402521 1_555
Li13 O51 2.477479 1_555
Li14 O60 1.997106 1_555
Li14 O61 1.997938 1_555
Li14 O54 2.381062 1_545
Li14 O55 2.398311 1_555
Li14 O51 2.420509 1_555
Li14 O50 2.428974 1_545
Li15 O58 2.165630 1_555
Li15 O59 2.166240 1_555
Li15 O1 2.305767 1_556
Li15 O0 2.313127 1_556
Li15 O41 2.380563 1_555
Li15 O11 2.386925 1_556
Cr0 O59 2.005972 1_555
Cr0 O11 2.006670 1_556
Cr0 O6 2.012452 1_556
Cr0 O56 2.021608 1_455
Cr0 O53 2.037099 1_455
Cr0 O4 2.038040 1_456
Cr1 O8 2.007578 1_555
Cr1 O12 2.008851 1_555
Cr1 O14 2.018611 1_555
Cr1 O17 2.021539 1_555
Cr1 O25 2.032522 1_555
Cr1 O19 2.037015 1_555
Cr2 O13 2.006916 1_555
Cr2 O9 2.010099 1_555
Cr2 O15 2.015064 1_555
Cr2 O16 2.022726 1_555
Cr2 O18 2.030321 1_555
Cr2 O24 2.038651 1_555
Cr3 O29 2.001986 1_555
Cr3 O22 2.005561 1_545
Cr3 O30 2.014676 1_555
Cr3 O40 2.016072 1_555
Cr3 O32 2.041194 1_545
Cr3 O35 2.041398 1_545
Cr4 O34 2.002635 1_555
Cr4 O7 2.010386 1_555
Cr4 O31 2.011578 1_555
Cr4 O10 2.013281 1_555
Cr4 O5 2.034868 1_555
Cr4 O23 2.036315 1_555
Cr5 O39 1.995188 1_555
Cr5 O49 2.014827 1_555
Cr5 O54 2.033516 1_555
Cr5 O46 2.033986 1_555
Cr5 O50 2.034044 1_555
Cr5 O44 2.042982 1_555
Cr6 O38 1.994464 1_555
Cr6 O45 2.006532 1_555
Cr6 O47 2.013357 1_555
Cr6 O48 2.022556 1_555
Cr6 O55 2.032533 1_555
Cr6 O51 2.045271 1_555
Cr7 O52 2.005458 1_555
Cr7 O41 2.010726 1_555
Cr7 O33 2.016226 1_555
Cr7 O58 2.017592 1_555
Cr7 O57 2.025050 1_555
Cr7 O28 2.025940 1_555
C0 O9 1.287170 1_555
C0 O6 1.291946 1_555
C0 O5 1.310761 1_455
C1 O8 1.286383 1_555
C1 O7 1.292935 1_555
C1 O4 1.309804 1_555
C2 O11 1.287352 1_555
C2 O15 1.291481 1_555
C2 O19 1.310565 1_455
C3 O10 1.288910 1_555
C3 O14 1.294032 1_555
C3 O18 1.306914 1_655
C4 O12 1.293613 1_555
C4 O16 1.293651 1_565
C4 O22 1.297201 1_555
C5 O13 1.285628 1_555
C5 O17 1.290310 1_545
C5 O23 1.310888 1_555
C6 O30 1.287706 1_555
C6 O34 1.288648 1_555
C6 O24 1.309836 1_555
C7 O31 1.284449 1_565
C7 O35 1.301531 1_555
C7 O25 1.303387 1_555
C8 O28 1.290604 1_555
C8 O39 1.290671 1_555
C8 O32 1.308871 1_555
C9 O38 1.292458 1_555
C9 O33 1.297057 1_545
C9 O29 1.297160 1_555
C10 O40 1.285306 1_555
C10 O51 1.301298 1_555
C10 O46 1.305748 1_545
C11 O41 1.286536 1_555
C11 O47 1.293399 1_565
C11 O50 1.310204 1_555
C12 O45 1.286670 1_655
C12 O49 1.290002 1_555
C12 O53 1.308102 1_555
C13 O48 1.287850 1_555
C13 O52 1.289791 1_555
C13 O44 1.310121 1_455
C14 O58 1.285185 1_655
C14 O56 1.291434 1_555
C14 O54 1.312152 1_555
C15 O59 1.287417 1_555
C15 O57 1.288550 1_555
C15 O55 1.312198 1_555
O0 S0 1.496383 1_555
O1 S0 1.496264 1_555
O2 S0 1.497086 1_555
O3 S0 1.496975 1_555
O20 S1 1.497128 1_555
O21 S1 1.503666 1_555
O26 S1 1.489207 1_555
O27 S1 1.496373 1_555
O36 S2 1.499115 1_555
O37 S2 1.538722 1_555
O42 S2 1.499070 1_555
O43 S2 1.465996 1_555
O60 S3 1.499238 1_555
O61 S3 1.498926 1_555
O62 S3 1.499290 1_555
O63 S3 1.499288 1_555
