# generated using pymatgen
data_Mg30ZnCoO32
_symmetry_space_group_name_H-M   'P 1'
_cell_length_a   8.51558700
_cell_length_b   8.51558700
_cell_length_c   8.53578800
_cell_angle_alpha   90.00000000
_cell_angle_beta   90.00000000
_cell_angle_gamma   90.00000000
_symmetry_Int_Tables_number   1
_chemical_formula_structural   Mg30ZnCoO32
_chemical_formula_sum   'Mg30 Zn1 Co1 O32'
_cell_volume   618.97456138
_cell_formula_units_Z   1
loop_
 _symmetry_equiv_pos_site_id
 _symmetry_equiv_pos_as_xyz
  1  'x, y, z'
loop_
 _atom_site_type_symbol
 _atom_site_label
 _atom_site_symmetry_multiplicity
 _atom_site_fract_x
 _atom_site_fract_y
 _atom_site_fract_z
 _atom_site_occupancy
  Mg  Mg0  1  0.00000000  0.50000000  0.00000000  1
  Mg  Mg1  1  0.00000000  0.50000000  0.50000000  1
  Mg  Mg2  1  0.50000000  0.00000000  0.00000000  1
  Mg  Mg3  1  0.50000000  0.00000000  0.50000000  1
  Mg  Mg4  1  0.50000000  0.50000000  0.00000000  1
  Mg  Mg5  1  0.50000000  0.50000000  0.50000000  1
  Mg  Mg6  1  0.00000000  0.24879300  0.24983500  1
  Mg  Mg7  1  0.00000000  0.24879300  0.75016500  1
  Mg  Mg8  1  0.00000000  0.75120700  0.24983500  1
  Mg  Mg9  1  0.00000000  0.75120700  0.75016500  1
  Mg  Mg10  1  0.50000000  0.24962400  0.24980600  1
  Mg  Mg11  1  0.50000000  0.24962400  0.75019400  1
  Mg  Mg12  1  0.50000000  0.75037600  0.24980600  1
  Mg  Mg13  1  0.50000000  0.75037600  0.75019400  1
  Mg  Mg14  1  0.24879300  0.00000000  0.24983500  1
  Mg  Mg15  1  0.24879300  0.00000000  0.75016500  1
  Mg  Mg16  1  0.24962400  0.50000000  0.24980600  1
  Mg  Mg17  1  0.24962400  0.50000000  0.75019400  1
  Mg  Mg18  1  0.75120700  0.00000000  0.24983500  1
  Mg  Mg19  1  0.75120700  0.00000000  0.75016500  1
  Mg  Mg20  1  0.75037600  0.50000000  0.24980600  1
  Mg  Mg21  1  0.75037600  0.50000000  0.75019400  1
  Mg  Mg22  1  0.24972000  0.24972000  0.00000000  1
  Mg  Mg23  1  0.25010200  0.25010200  0.50000000  1
  Mg  Mg24  1  0.24972000  0.75028000  0.00000000  1
  Mg  Mg25  1  0.25010200  0.74989800  0.50000000  1
  Mg  Mg26  1  0.75028000  0.24972000  0.00000000  1
  Mg  Mg27  1  0.74989800  0.25010200  0.50000000  1
  Mg  Mg28  1  0.75028000  0.75028000  0.00000000  1
  Mg  Mg29  1  0.74989800  0.74989800  0.50000000  1
  Zn  Zn0  1  0.00000000  0.00000000  0.00000000  1
  Co  Co0  1  0.00000000  0.00000000  0.50000000  1
  O  O0  1  0.25471600  0.00000000  0.00000000  1
  O  O1  1  0.24992200  0.00000000  0.50000000  1
  O  O2  1  0.25043700  0.50000000  0.00000000  1
  O  O3  1  0.24967100  0.50000000  0.50000000  1
  O  O4  1  0.74528400  0.00000000  0.00000000  1
  O  O5  1  0.75007800  0.00000000  0.50000000  1
  O  O6  1  0.74956300  0.50000000  0.00000000  1
  O  O7  1  0.75032900  0.50000000  0.50000000  1
  O  O8  1  0.24953200  0.24953200  0.25032500  1
  O  O9  1  0.24953200  0.24953200  0.74967500  1
  O  O10  1  0.24953200  0.75046800  0.25032500  1
  O  O11  1  0.24953200  0.75046800  0.74967500  1
  O  O12  1  0.75046800  0.24953200  0.25032500  1
  O  O13  1  0.75046800  0.24953200  0.74967500  1
  O  O14  1  0.75046800  0.75046800  0.25032500  1
  O  O15  1  0.75046800  0.75046800  0.74967500  1
  O  O16  1  0.00000000  0.00000000  0.24597000  1
  O  O17  1  0.00000000  0.00000000  0.75403000  1
  O  O18  1  0.00000000  0.50000000  0.25097200  1
  O  O19  1  0.00000000  0.50000000  0.74902800  1
  O  O20  1  0.50000000  0.00000000  0.25097200  1
  O  O21  1  0.50000000  0.00000000  0.74902800  1
  O  O22  1  0.50000000  0.50000000  0.25035100  1
  O  O23  1  0.50000000  0.50000000  0.74964900  1
  O  O24  1  0.00000000  0.25471600  0.00000000  1
  O  O25  1  0.00000000  0.24992200  0.50000000  1
  O  O26  1  0.00000000  0.74528400  0.00000000  1
  O  O27  1  0.00000000  0.75007800  0.50000000  1
  O  O28  1  0.50000000  0.25043700  0.00000000  1
  O  O29  1  0.50000000  0.24967100  0.50000000  1
  O  O30  1  0.50000000  0.74956300  0.00000000  1
  O  O31  1  0.50000000  0.75032900  0.50000000  1
loop_
_geom_bond_atom_site_label_1
_geom_bond_atom_site_label_2
_geom_bond_distance
_geom_bond_site_symmetry_2
Mg0 O26 2.088737 1_555
Mg0 O24 2.088737 1_555
Mg0 O2 2.132618 1_555
Mg0 O6 2.132618 1_455
Mg0 O18 2.142244 1_555
Mg0 O19 2.142244 1_554
Mg1 O19 2.125650 1_555
Mg1 O18 2.125650 1_555
Mg1 O3 2.126095 1_555
Mg1 O7 2.126095 1_455
Mg1 O27 2.129561 1_555
Mg1 O25 2.129561 1_555
Mg2 O4 2.088737 1_555
Mg2 O0 2.088737 1_555
Mg2 O28 2.132618 1_555
Mg2 O30 2.132618 1_545
Mg2 O20 2.142244 1_555
Mg2 O21 2.142244 1_554
Mg3 O21 2.125650 1_555
Mg3 O20 2.125650 1_555
Mg3 O29 2.126095 1_555
Mg3 O31 2.126095 1_545
Mg3 O5 2.129561 1_555
Mg3 O1 2.129561 1_555
Mg4 O30 2.125175 1_555
Mg4 O6 2.125175 1_555
Mg4 O2 2.125175 1_555
Mg4 O28 2.125175 1_555
Mg4 O23 2.136943 1_554
Mg4 O22 2.136943 1_555
Mg5 O22 2.130951 1_555
Mg5 O23 2.130951 1_555
Mg5 O7 2.131698 1_555
Mg5 O31 2.131698 1_555
Mg5 O3 2.131698 1_555
Mg5 O29 2.131698 1_555
Mg6 O16 2.118875 1_555
Mg6 O8 2.124925 1_555
Mg6 O12 2.124925 1_455
Mg6 O24 2.133135 1_555
Mg6 O25 2.135377 1_555
Mg6 O18 2.139197 1_555
Mg7 O17 2.118875 1_555
Mg7 O9 2.124925 1_555
Mg7 O13 2.124925 1_455
Mg7 O24 2.133135 1_556
Mg7 O25 2.135377 1_555
Mg7 O19 2.139197 1_555
Mg8 O16 2.118875 1_565
Mg8 O10 2.124925 1_555
Mg8 O14 2.124925 1_455
Mg8 O26 2.133135 1_555
Mg8 O27 2.135377 1_555
Mg8 O18 2.139197 1_555
Mg9 O17 2.118875 1_565
Mg9 O11 2.124925 1_555
Mg9 O15 2.124925 1_455
Mg9 O26 2.133135 1_556
Mg9 O27 2.135377 1_555
Mg9 O19 2.139197 1_555
Mg10 O20 2.125718 1_555
Mg10 O22 2.132104 1_555
Mg10 O28 2.132302 1_555
Mg10 O12 2.132887 1_555
Mg10 O8 2.132887 1_555
Mg10 O29 2.135603 1_555
Mg11 O21 2.125718 1_555
Mg11 O23 2.132104 1_555
Mg11 O28 2.132302 1_556
Mg11 O13 2.132887 1_555
Mg11 O9 2.132887 1_555
Mg11 O29 2.135603 1_555
Mg12 O20 2.125718 1_565
Mg12 O22 2.132104 1_555
Mg12 O30 2.132302 1_555
Mg12 O14 2.132887 1_555
Mg12 O10 2.132887 1_555
Mg12 O31 2.135603 1_555
Mg13 O21 2.125718 1_565
Mg13 O23 2.132104 1_555
Mg13 O30 2.132302 1_556
Mg13 O15 2.132887 1_555
Mg13 O11 2.132887 1_555
Mg13 O31 2.135603 1_555
Mg14 O16 2.118875 1_555
Mg14 O8 2.124925 1_555
Mg14 O10 2.124925 1_545
Mg14 O0 2.133135 1_555
Mg14 O1 2.135377 1_555
Mg14 O20 2.139197 1_555
Mg15 O17 2.118875 1_555
Mg15 O9 2.124925 1_555
Mg15 O11 2.124925 1_545
Mg15 O0 2.133135 1_556
Mg15 O1 2.135377 1_555
Mg15 O21 2.139197 1_555
Mg16 O18 2.125718 1_555
Mg16 O22 2.132104 1_555
Mg16 O2 2.132302 1_555
Mg16 O10 2.132887 1_555
Mg16 O8 2.132887 1_555
Mg16 O3 2.135603 1_555
Mg17 O19 2.125718 1_555
Mg17 O23 2.132104 1_555
Mg17 O2 2.132302 1_556
Mg17 O11 2.132887 1_555
Mg17 O9 2.132887 1_555
Mg17 O3 2.135603 1_555
Mg18 O16 2.118875 1_655
Mg18 O12 2.124925 1_555
Mg18 O14 2.124925 1_545
Mg18 O4 2.133135 1_555
Mg18 O5 2.135377 1_555
Mg18 O20 2.139197 1_555
Mg19 O17 2.118875 1_655
Mg19 O13 2.124925 1_555
Mg19 O15 2.124925 1_545
Mg19 O4 2.133135 1_556
Mg19 O5 2.135377 1_555
Mg19 O21 2.139197 1_555
Mg20 O18 2.125718 1_655
Mg20 O22 2.132104 1_555
Mg20 O6 2.132302 1_555
Mg20 O14 2.132887 1_555
Mg20 O12 2.132887 1_555
Mg20 O7 2.135603 1_555
Mg21 O19 2.125718 1_655
Mg21 O23 2.132104 1_555
Mg21 O6 2.132302 1_556
Mg21 O15 2.132887 1_555
Mg21 O13 2.132887 1_555
Mg21 O7 2.135603 1_555
Mg22 O24 2.126938 1_555
Mg22 O0 2.126938 1_555
Mg22 O2 2.131290 1_555
Mg22 O28 2.131290 1_555
Mg22 O8 2.136722 1_555
Mg22 O9 2.136722 1_554
Mg23 O3 2.128031 1_555
Mg23 O29 2.128031 1_555
Mg23 O25 2.129766 1_555
Mg23 O1 2.129766 1_555
Mg23 O9 2.131184 1_555
Mg23 O8 2.131184 1_555
Mg24 O0 2.126938 1_565
Mg24 O26 2.126938 1_555
Mg24 O30 2.131290 1_555
Mg24 O2 2.131290 1_555
Mg24 O10 2.136722 1_555
Mg24 O11 2.136722 1_554
Mg25 O3 2.128031 1_555
Mg25 O31 2.128031 1_555
Mg25 O27 2.129766 1_555
Mg25 O1 2.129766 1_565
Mg25 O11 2.131184 1_555
Mg25 O10 2.131184 1_555
Mg26 O24 2.126938 1_655
Mg26 O4 2.126938 1_555
Mg26 O6 2.131290 1_555
Mg26 O28 2.131290 1_555
Mg26 O12 2.136722 1_555
Mg26 O13 2.136722 1_554
Mg27 O29 2.128031 1_555
Mg27 O7 2.128031 1_555
Mg27 O5 2.129766 1_555
Mg27 O25 2.129766 1_655
Mg27 O13 2.131184 1_555
Mg27 O12 2.131184 1_555
Mg28 O26 2.126938 1_655
Mg28 O4 2.126938 1_565
Mg28 O30 2.131290 1_555
Mg28 O6 2.131290 1_555
Mg28 O14 2.136722 1_555
Mg28 O15 2.136722 1_554
Mg29 O7 2.128031 1_555
Mg29 O31 2.128031 1_555
Mg29 O27 2.129766 1_655
Mg29 O5 2.129766 1_565
Mg29 O15 2.131184 1_555
Mg29 O14 2.131184 1_555
Co0 O25 2.128233 1_555
Co0 O1 2.128233 1_555
Co0 O27 2.128233 1_545
Co0 O5 2.128233 1_455
Co0 O16 2.168346 1_555
Co0 O17 2.168346 1_555
O0 Zn0 2.169056 1_555
O4 Zn0 2.169056 1_655
O16 Zn0 2.099548 1_555
O17 Zn0 2.099548 1_556
O24 Zn0 2.169056 1_555
O26 Zn0 2.169056 1_565
