# generated using pymatgen
data_Ca4TiMn3O11
_symmetry_space_group_name_H-M   'P 1'
_cell_length_a   7.75605700
_cell_length_b   7.73254700
_cell_length_c   7.64709400
_cell_angle_alpha   90.00000000
_cell_angle_beta   90.00000000
_cell_angle_gamma   90.00000000
_symmetry_Int_Tables_number   1
_chemical_formula_structural   Ca4TiMn3O11
_chemical_formula_sum   'Ca8 Ti2 Mn6 O22'
_cell_volume   458.62739128
_cell_formula_units_Z   2
loop_
 _symmetry_equiv_pos_site_id
 _symmetry_equiv_pos_as_xyz
  1  'x, y, z'
loop_
 _atom_site_type_symbol
 _atom_site_label
 _atom_site_symmetry_multiplicity
 _atom_site_fract_x
 _atom_site_fract_y
 _atom_site_fract_z
 _atom_site_occupancy
  Ca  Ca0  1  0.24647500  0.25387200  0.24447800  1
  Ca  Ca1  1  0.25035900  0.26013300  0.71822500  1
  Ca  Ca2  1  0.24647500  0.74612800  0.24447800  1
  Ca  Ca3  1  0.25035900  0.73986700  0.71822500  1
  Ca  Ca4  1  0.75352500  0.25387200  0.24447800  1
  Ca  Ca5  1  0.74964100  0.26013300  0.71822500  1
  Ca  Ca6  1  0.75352500  0.74612800  0.24447800  1
  Ca  Ca7  1  0.74964100  0.73986700  0.71822500  1
  Ti  Ti0  1  0.00000000  0.00000000  0.98554200  1
  Ti  Ti1  1  0.50000000  0.00000000  0.01328100  1
  Mn  Mn0  1  0.00000000  0.00000000  0.49447700  1
  Mn  Mn1  1  0.00000000  0.50000000  0.00860400  1
  Mn  Mn2  1  0.00000000  0.50000000  0.49439700  1
  Mn  Mn3  1  0.50000000  0.00000000  0.49553000  1
  Mn  Mn4  1  0.50000000  0.50000000  0.99616900  1
  Mn  Mn5  1  0.50000000  0.50000000  0.50136600  1
  O  O0  1  0.00000000  0.00000000  0.75569100  1
  O  O1  1  0.00000000  0.50000000  0.25232000  1
  O  O2  1  0.00000000  0.50000000  0.75295100  1
  O  O3  1  0.50000000  0.00000000  0.25486200  1
  O  O4  1  0.50000000  0.00000000  0.75380300  1
  O  O5  1  0.50000000  0.50000000  0.74996300  1
  O  O6  1  0.24123100  0.00000000  0.04185600  1
  O  O7  1  0.24656900  0.00000000  0.48653900  1
  O  O8  1  0.25713500  0.50000000  0.03205600  1
  O  O9  1  0.25331200  0.50000000  0.49187100  1
  O  O10  1  0.75876900  0.00000000  0.04185600  1
  O  O11  1  0.75343100  0.00000000  0.48653900  1
  O  O12  1  0.74286500  0.50000000  0.03205600  1
  O  O13  1  0.74668800  0.50000000  0.49187100  1
  O  O14  1  0.00000000  0.24742300  0.02487400  1
  O  O15  1  0.00000000  0.24819500  0.48756900  1
  O  O16  1  0.00000000  0.75257700  0.02487400  1
  O  O17  1  0.00000000  0.75180500  0.48756900  1
  O  O18  1  0.50000000  0.25435600  0.02427600  1
  O  O19  1  0.50000000  0.25622300  0.48107600  1
  O  O20  1  0.50000000  0.74564400  0.02427600  1
  O  O21  1  0.50000000  0.74377700  0.48107600  1
loop_
_geom_bond_atom_site_label_1
_geom_bond_atom_site_label_2
_geom_bond_distance
_geom_bond_site_symmetry_2
Ca0 O6 2.501236 1_555
Ca0 O8 2.503538 1_555
Ca0 O14 2.545023 1_555
Ca0 O18 2.588842 1_555
Ca0 O15 2.666849 1_555
Ca0 O19 2.672153 1_555
Ca0 O9 2.684030 1_555
Ca0 O7 2.698167 1_555
Ca0 O1 2.698194 1_555
Ca0 O3 2.779663 1_555
Ca1 O9 2.537111 1_555
Ca1 O15 2.624931 1_555
Ca1 O19 2.653052 1_555
Ca1 O7 2.680665 1_555
Ca1 O5 2.692231 1_555
Ca1 O2 2.698392 1_555
Ca1 O4 2.805192 1_555
Ca1 O0 2.810474 1_555
Ca2 O6 2.501236 1_565
Ca2 O8 2.503538 1_555
Ca2 O16 2.545023 1_555
Ca2 O20 2.588842 1_555
Ca2 O17 2.666849 1_555
Ca2 O21 2.672153 1_555
Ca2 O9 2.684030 1_555
Ca2 O7 2.698167 1_565
Ca2 O1 2.698194 1_555
Ca2 O3 2.779663 1_565
Ca3 O9 2.537111 1_555
Ca3 O17 2.624931 1_555
Ca3 O21 2.653052 1_555
Ca3 O7 2.680665 1_565
Ca3 O5 2.692231 1_555
Ca3 O2 2.698392 1_555
Ca3 O4 2.805192 1_565
Ca3 O0 2.810474 1_565
Ca4 O10 2.501236 1_555
Ca4 O12 2.503538 1_555
Ca4 O14 2.545023 1_655
Ca4 O18 2.588842 1_555
Ca4 O15 2.666849 1_655
Ca4 O19 2.672153 1_555
Ca4 O13 2.684030 1_555
Ca4 O11 2.698167 1_555
Ca4 O1 2.698194 1_655
Ca4 O3 2.779663 1_555
Ca5 O13 2.537111 1_555
Ca5 O15 2.624931 1_655
Ca5 O19 2.653052 1_555
Ca5 O11 2.680665 1_555
Ca5 O5 2.692231 1_555
Ca5 O2 2.698392 1_655
Ca5 O4 2.805192 1_555
Ca5 O0 2.810474 1_655
Ca6 O10 2.501236 1_565
Ca6 O12 2.503538 1_555
Ca6 O16 2.545023 1_655
Ca6 O20 2.588842 1_555
Ca6 O17 2.666849 1_655
Ca6 O21 2.672153 1_555
Ca6 O13 2.684030 1_555
Ca6 O11 2.698167 1_565
Ca6 O1 2.698194 1_655
Ca6 O3 2.779663 1_565
Ca7 O13 2.537111 1_555
Ca7 O17 2.624931 1_655
Ca7 O21 2.653052 1_555
Ca7 O11 2.680665 1_565
Ca7 O5 2.692231 1_555
Ca7 O2 2.698392 1_655
Ca7 O4 2.805192 1_565
Ca7 O0 2.810474 1_665
Mn0 O7 1.913366 1_555
Mn0 O11 1.913366 1_455
Mn0 O15 1.919906 1_555
Mn0 O17 1.919906 1_545
Mn0 O0 1.997528 1_555
Mn1 O1 1.863719 1_555
Mn1 O2 1.955003 1_554
Mn1 O14 1.957022 1_555
Mn1 O16 1.957022 1_555
Mn1 O12 2.002401 1_455
Mn1 O8 2.002401 1_555
Mn2 O1 1.851186 1_555
Mn2 O17 1.947794 1_555
Mn2 O15 1.947794 1_555
Mn2 O13 1.964797 1_455
Mn2 O9 1.964797 1_555
Mn2 O2 1.977187 1_555
Mn3 O3 1.840411 1_555
Mn3 O11 1.966827 1_555
Mn3 O7 1.966827 1_555
Mn3 O4 1.975038 1_555
Mn3 O21 1.984337 1_545
Mn3 O19 1.984337 1_555
Mn4 O5 1.882760 1_555
Mn4 O12 1.903561 1_556
Mn4 O8 1.903561 1_556
Mn4 O18 1.911576 1_556
Mn4 O20 1.911576 1_556
Mn5 O21 1.891392 1_555
Mn5 O19 1.891392 1_555
Mn5 O5 1.901045 1_555
Mn5 O9 1.914703 1_555
Mn5 O13 1.914703 1_555
O0 Ti0 1.757692 1_555
O3 Ti1 1.847393 1_555
O4 Ti1 1.984253 1_556
O6 Ti0 1.919921 1_554
O6 Ti1 2.018888 1_555
O10 Ti0 1.919921 1_654
O10 Ti1 2.018888 1_555
O14 Ti0 1.936708 1_554
O16 Ti0 1.936708 1_564
O18 Ti1 1.968616 1_555
O20 Ti1 1.968616 1_565
