# generated using pymatgen
data_Nd2Ge2Ru
_symmetry_space_group_name_H-M   'P 1'
_cell_length_a   6.02968522
_cell_length_b   6.02968522
_cell_length_c   10.59528723
_cell_angle_alpha   62.76368348
_cell_angle_beta   62.76368348
_cell_angle_gamma   42.45262974
_symmetry_Int_Tables_number   1
_chemical_formula_structural   Nd2Ge2Ru
_chemical_formula_sum   'Nd4 Ge4 Ru2'
_cell_volume   226.51620868
_cell_formula_units_Z   2
loop_
 _symmetry_equiv_pos_site_id
 _symmetry_equiv_pos_as_xyz
  1  'x, y, z'
loop_
 _atom_site_type_symbol
 _atom_site_label
 _atom_site_symmetry_multiplicity
 _atom_site_fract_x
 _atom_site_fract_y
 _atom_site_fract_z
 _atom_site_occupancy
  Nd  Nd0  1  0.99947600  0.99947600  0.32760300  1
  Nd  Nd1  1  0.00052400  0.00052400  0.67239700  1
  Nd  Nd2  1  0.81495800  0.81495800  0.11041800  1
  Nd  Nd3  1  0.18504200  0.18504200  0.88958200  1
  Ge  Ge0  1  0.65337000  0.65337000  0.43239500  1
  Ge  Ge1  1  0.34663000  0.34663000  0.56760500  1
  Ge  Ge2  1  0.50427800  0.50427800  0.12669900  1
  Ge  Ge3  1  0.49572200  0.49572200  0.87330100  1
  Ru  Ru0  1  0.72565000  0.72565000  0.62334000  1
  Ru  Ru1  1  0.27435000  0.27435000  0.37666000  1
loop_
_geom_bond_atom_site_label_1
_geom_bond_atom_site_label_2
_geom_bond_distance
_geom_bond_site_symmetry_2
Nd0 Ru0 3.134063 1_555
Nd0 Ru1 3.185705 1_565
Nd0 Ru1 3.185705 1_655
Nd0 Ru1 3.375625 1_665
Nd1 Ru1 3.134063 1_555
Nd1 Ru0 3.185705 1_455
Nd1 Ru0 3.185705 1_545
Nd1 Ru0 3.375625 1_445
Nd2 Ru1 3.415734 1_565
Nd2 Ru1 3.415734 1_655
Nd3 Ru0 3.415734 1_455
Nd3 Ru0 3.415734 1_545
Ge0 Ru1 2.485036 1_565
Ge0 Ru1 2.485036 1_655
Ge0 Ru0 2.523354 1_555
Ge0 Nd2 2.975333 1_555
Ge0 Nd1 3.145467 1_565
Ge0 Nd1 3.145467 1_655
Ge0 Nd0 3.298087 1_545
Ge0 Nd0 3.298087 1_455
Ge1 Ru0 2.485036 1_455
Ge1 Ru0 2.485036 1_545
Ge1 Ru1 2.523354 1_555
Ge1 Nd3 2.975333 1_555
Ge1 Nd0 3.145467 1_455
Ge1 Nd0 3.145467 1_545
Ge1 Nd1 3.298087 1_565
Ge1 Nd1 3.298087 1_655
Ge2 Ru1 2.640636 1_555
Ge2 Ge3 2.733331 1_554
Ge2 Nd0 3.030997 1_545
Ge2 Nd0 3.030997 1_455
Ge2 Nd2 3.112106 1_455
Ge2 Nd2 3.112106 1_545
Ge2 Nd3 3.192762 1_564
Ge2 Nd3 3.192762 1_654
Ge2 Nd2 3.411045 1_555
Ge3 Ru0 2.640636 1_555
Ge3 Nd1 3.030997 1_565
Ge3 Nd1 3.030997 1_655
Ge3 Nd3 3.112106 1_655
Ge3 Nd3 3.112106 1_565
Ge3 Nd2 3.192762 1_456
Ge3 Nd2 3.192762 1_546
Ge3 Nd3 3.411045 1_555
