# generated using pymatgen
data_RbBS2
_symmetry_space_group_name_H-M   'P 1'
_cell_length_a   9.69555218
_cell_length_b   9.69555218
_cell_length_c   9.69555084
_cell_angle_alpha   110.87839604
_cell_angle_beta   110.87839604
_cell_angle_gamma   110.87839713
_symmetry_Int_Tables_number   1
_chemical_formula_structural   RbBS2
_chemical_formula_sum   'Rb6 B6 S12'
_cell_volume   662.54379830
_cell_formula_units_Z   6
loop_
 _symmetry_equiv_pos_site_id
 _symmetry_equiv_pos_as_xyz
  1  'x, y, z'
loop_
 _atom_site_type_symbol
 _atom_site_label
 _atom_site_symmetry_multiplicity
 _atom_site_fract_x
 _atom_site_fract_y
 _atom_site_fract_z
 _atom_site_occupancy
  Rb  Rb0  1  0.25000000  0.69819306  0.80180694  1
  Rb  Rb1  1  0.80180694  0.25000000  0.69819306  1
  Rb  Rb2  1  0.69819306  0.80180694  0.25000000  1
  Rb  Rb3  1  0.75000000  0.30180694  0.19819306  1
  Rb  Rb4  1  0.19819306  0.75000000  0.30180694  1
  Rb  Rb5  1  0.30180694  0.19819306  0.75000000  1
  B  B0  1  0.25000000  0.36283880  0.13716120  1
  B  B1  1  0.13716120  0.25000000  0.36283880  1
  B  B2  1  0.36283880  0.13716120  0.25000000  1
  B  B3  1  0.75000000  0.63716120  0.86283880  1
  B  B4  1  0.86283880  0.75000000  0.63716120  1
  B  B5  1  0.63716120  0.86283880  0.75000000  1
  S  S0  1  0.86671167  0.63328833  0.75000000  1
  S  S1  1  0.63328833  0.75000000  0.86671167  1
  S  S2  1  0.75000000  0.86671167  0.63328833  1
  S  S3  1  0.13328833  0.36671167  0.25000000  1
  S  S4  1  0.36671167  0.25000000  0.13328833  1
  S  S5  1  0.25000000  0.13328833  0.36671167  1
  S  S6  1  0.52630072  0.97369928  0.75000000  1
  S  S7  1  0.97369928  0.75000000  0.52630072  1
  S  S8  1  0.75000000  0.52630072  0.97369928  1
  S  S9  1  0.47369928  0.02630072  0.25000000  1
  S  S10  1  0.02630072  0.25000000  0.47369928  1
  S  S11  1  0.25000000  0.47369928  0.02630072  1
loop_
_geom_bond_atom_site_label_1
_geom_bond_atom_site_label_2
_geom_bond_distance
_geom_bond_site_symmetry_2
Rb0 S0 3.351978 1_455
Rb0 S1 3.351978 1_555
Rb0 S7 3.373272 1_455
Rb0 S6 3.373272 1_555
Rb0 S9 3.495480 1_566
Rb0 S10 3.495480 1_555
Rb0 S11 3.584953 1_556
Rb1 S0 3.351978 1_555
Rb1 S2 3.351978 1_545
Rb1 S8 3.373272 1_555
Rb1 S6 3.373272 1_545
Rb1 S9 3.495480 1_555
Rb1 S11 3.495480 1_656
Rb1 S10 3.584953 1_655
Rb2 S1 3.351977 1_554
Rb2 S2 3.351977 1_555
Rb2 S8 3.373272 1_554
Rb2 S7 3.373272 1_555
Rb2 S11 3.495480 1_555
Rb2 S10 3.495480 1_665
Rb2 S9 3.584953 1_565
Rb3 S3 3.351978 1_655
Rb3 S4 3.351978 1_555
Rb3 S10 3.373272 1_655
Rb3 S9 3.373272 1_555
Rb3 S6 3.495480 1_544
Rb3 S7 3.495480 1_555
Rb3 S8 3.584953 1_554
Rb4 S3 3.351978 1_555
Rb4 S5 3.351978 1_565
Rb4 S11 3.373272 1_555
Rb4 S9 3.373272 1_565
Rb4 S6 3.495480 1_555
Rb4 S8 3.495480 1_454
Rb4 S7 3.584953 1_455
Rb5 S4 3.351977 1_556
Rb5 S5 3.351977 1_555
Rb5 S10 3.373272 1_555
Rb5 S11 3.373272 1_556
Rb5 S8 3.495480 1_555
Rb5 S7 3.495480 1_445
Rb5 S6 3.584953 1_545
B0 S11 1.770337 1_555
B0 S3 1.833634 1_555
B0 S4 1.833634 1_555
B1 S10 1.770337 1_555
B1 S3 1.833634 1_555
B1 S5 1.833634 1_555
B2 S9 1.770337 1_555
B2 S4 1.833634 1_555
B2 S5 1.833634 1_555
B3 S8 1.770337 1_555
B3 S0 1.833634 1_555
B3 S1 1.833634 1_555
B4 S7 1.770337 1_555
B4 S0 1.833634 1_555
B4 S2 1.833634 1_555
B5 S6 1.770337 1_555
B5 S2 1.833634 1_555
B5 S1 1.833634 1_555
