# generated using pymatgen
data_Nd2Pd2O5
_symmetry_space_group_name_H-M   'P 1'
_cell_length_a   6.59447375
_cell_length_b   6.59447375
_cell_length_c   5.57725277
_cell_angle_alpha   90.00000000
_cell_angle_beta   90.00000000
_cell_angle_gamma   90.00000000
_symmetry_Int_Tables_number   1
_chemical_formula_structural   Nd2Pd2O5
_chemical_formula_sum   'Nd4 Pd4 O10'
_cell_volume   242.53845992
_cell_formula_units_Z   2
loop_
 _symmetry_equiv_pos_site_id
 _symmetry_equiv_pos_as_xyz
  1  'x, y, z'
loop_
 _atom_site_type_symbol
 _atom_site_label
 _atom_site_symmetry_multiplicity
 _atom_site_fract_x
 _atom_site_fract_y
 _atom_site_fract_z
 _atom_site_occupancy
  Nd  Nd0  1  0.10682027  0.26116576  0.00000000  1
  Nd  Nd1  1  0.89317973  0.73883424  -0.00000000  1
  Nd  Nd2  1  0.26116576  0.89317973  0.50000000  1
  Nd  Nd3  1  0.73883424  0.10682027  0.50000000  1
  Pd  Pd0  1  0.59618890  0.30535622  0.00000000  1
  Pd  Pd1  1  0.40381110  0.69464378  -0.00000000  1
  Pd  Pd2  1  0.30535622  0.40381110  0.50000000  1
  Pd  Pd3  1  0.69464378  0.59618890  0.50000000  1
  O  O0  1  0.40260136  0.19607480  0.25843826  1
  O  O1  1  0.59739864  0.80392520  0.74156174  1
  O  O2  1  0.59739864  0.80392520  0.25843826  1
  O  O3  1  0.19607480  0.59739864  0.75843826  1
  O  O4  1  0.40260136  0.19607480  0.74156174  1
  O  O5  1  0.80392520  0.40260136  0.24156174  1
  O  O6  1  0.80392520  0.40260136  0.75843826  1
  O  O7  1  0.19607480  0.59739864  0.24156174  1
  O  O8  1  -0.00000000  0.00000000  0.25000000  1
  O  O9  1  -0.00000000  0.00000000  0.75000000  1
loop_
_geom_bond_atom_site_label_1
_geom_bond_atom_site_label_2
_geom_bond_distance
_geom_bond_site_symmetry_2
Nd0 O9 2.325182 1_554
Nd0 O8 2.325182 1_555
Nd0 O0 2.462994 1_555
Nd0 O4 2.462994 1_554
Nd0 O6 2.583552 1_454
Nd0 O5 2.583552 1_455
Nd0 O7 2.660422 1_555
Nd0 O3 2.660422 1_554
Nd1 O8 2.325182 1_665
Nd1 O9 2.325182 1_664
Nd1 O1 2.462994 1_554
Nd1 O2 2.462994 1_555
Nd1 O7 2.583552 1_655
Nd1 O3 2.583552 1_654
Nd1 O6 2.660422 1_554
Nd1 O5 2.660422 1_555
Nd2 O9 2.325182 1_565
Nd2 O8 2.325182 1_565
Nd2 O7 2.462994 1_555
Nd2 O3 2.462994 1_555
Nd2 O0 2.583552 1_565
Nd2 O4 2.583552 1_565
Nd2 O1 2.660422 1_555
Nd2 O2 2.660422 1_555
Nd3 O9 2.325182 1_655
Nd3 O8 2.325182 1_655
Nd3 O5 2.462994 1_555
Nd3 O6 2.462994 1_555
Nd3 O1 2.583552 1_545
Nd3 O2 2.583552 1_545
Nd3 O4 2.660422 1_555
Nd3 O0 2.660422 1_555
O0 Pd2 2.025582 1_555
O0 Pd0 2.055878 1_555
O1 Pd3 2.025582 1_555
O1 Pd1 2.055878 1_556
O2 Pd3 2.025582 1_555
O2 Pd1 2.055878 1_555
O3 Pd1 2.025582 1_556
O3 Pd2 2.055878 1_555
O4 Pd2 2.025582 1_555
O4 Pd0 2.055878 1_556
O5 Pd0 2.025582 1_555
O5 Pd3 2.055878 1_555
O6 Pd0 2.025582 1_556
O6 Pd3 2.055878 1_555
O7 Pd1 2.025582 1_555
O7 Pd2 2.055878 1_555
