# generated using pymatgen
data_Nd2Sn5
_symmetry_space_group_name_H-M   'P 1'
_cell_length_a   4.60169702
_cell_length_b   4.67075890
_cell_length_c   17.98434664
_cell_angle_alpha   90.00000000
_cell_angle_beta   97.35034963
_cell_angle_gamma   90.00000000
_symmetry_Int_Tables_number   1
_chemical_formula_structural   Nd2Sn5
_chemical_formula_sum   'Nd4 Sn10'
_cell_volume   383.36859438
_cell_formula_units_Z   2
loop_
 _symmetry_equiv_pos_site_id
 _symmetry_equiv_pos_as_xyz
  1  'x, y, z'
loop_
 _atom_site_type_symbol
 _atom_site_label
 _atom_site_symmetry_multiplicity
 _atom_site_fract_x
 _atom_site_fract_y
 _atom_site_fract_z
 _atom_site_occupancy
  Nd  Nd0  1  0.93140674  0.50000000  0.86281547  1
  Nd  Nd1  1  0.06859326  0.50000000  0.13718453  1
  Nd  Nd2  1  0.79756041  0.50000000  0.59512181  1
  Nd  Nd3  1  0.20243959  0.50000000  0.40487819  1
  Sn  Sn0  1  0.63718780  0.50000000  0.27437460  1
  Sn  Sn1  1  0.36281220  0.50000000  0.72562540  1
  Sn  Sn2  1  0.72218700  0.00000000  0.44437300  1
  Sn  Sn3  1  0.27781300  -0.00000000  0.55562700  1
  Sn  Sn4  1  0.50000000  0.50000000  -0.00000000  1
  Sn  Sn5  1  0.57204662  0.00000000  0.14409224  1
  Sn  Sn6  1  0.42795338  -0.00000000  0.85590776  1
  Sn  Sn7  1  0.86243286  0.00000000  0.72486573  1
  Sn  Sn8  1  0.13756714  0.00000000  0.27513427  1
  Sn  Sn9  1  -0.00000000  0.00000000  -0.00000000  1
loop_
_geom_bond_atom_site_label_1
_geom_bond_atom_site_label_2
_geom_bond_distance
_geom_bond_site_symmetry_2
Nd0 Sn6 3.280712 1_565
Nd0 Sn6 3.280712 1_555
Nd0 Sn6 3.280715 1_665
Nd0 Sn6 3.280715 1_655
Nd0 Sn4 3.358750 1_556
Nd0 Sn4 3.358756 1_656
Nd0 Sn1 3.358824 1_555
Nd0 Sn1 3.358827 1_655
Nd0 Sn9 3.382501 1_666
Nd0 Sn9 3.382501 1_656
Nd0 Sn7 3.392388 1_555
Nd0 Sn7 3.392388 1_565
Nd1 Sn5 3.280712 1_565
Nd1 Sn5 3.280712 1_555
Nd1 Sn5 3.280715 1_465
Nd1 Sn5 3.280715 1_455
Nd1 Sn4 3.358750 1_555
Nd1 Sn4 3.358756 1_455
Nd1 Sn0 3.358824 1_555
Nd1 Sn0 3.358827 1_455
Nd1 Sn9 3.382501 1_565
Nd1 Sn9 3.382501 1_555
Nd1 Sn8 3.392388 1_565
Nd1 Sn8 3.392388 1_555
Nd2 Sn1 3.272958 1_655
Nd2 Sn1 3.272958 1_555
Nd2 Sn7 3.287773 1_565
Nd2 Sn7 3.287773 1_555
Nd2 Sn3 3.353230 1_655
Nd2 Sn3 3.353230 1_665
Nd2 Sn3 3.353230 1_565
Nd2 Sn3 3.353230 1_555
Nd2 Sn2 3.561440 1_565
Nd2 Sn2 3.561440 1_555
Nd3 Sn0 3.272958 1_455
Nd3 Sn0 3.272958 1_555
Nd3 Sn8 3.287773 1_565
Nd3 Sn8 3.287773 1_555
Nd3 Sn2 3.353230 1_455
Nd3 Sn2 3.353230 1_465
Nd3 Sn2 3.353230 1_565
Nd3 Sn2 3.353230 1_555
Nd3 Sn3 3.561440 1_565
Nd3 Sn3 3.561440 1_555
Sn0 Sn8 3.278426 1_655
Sn0 Sn8 3.278426 1_665
Sn0 Sn8 3.278429 1_555
Sn0 Sn8 3.278429 1_565
Sn0 Sn5 3.294540 1_565
Sn0 Sn5 3.294540 1_555
Sn1 Sn7 3.278426 1_465
Sn1 Sn7 3.278426 1_455
Sn1 Sn7 3.278429 1_565
Sn1 Sn7 3.278429 1_555
Sn1 Sn6 3.294540 1_555
Sn1 Sn6 3.294540 1_565
Sn2 Sn3 3.038368 1_655
Sn2 Sn3 3.038375 1_555
Sn4 Sn9 3.278399 1_565
Sn4 Sn9 3.278399 1_665
Sn4 Sn9 3.278399 1_555
Sn4 Sn9 3.278399 1_655
Sn4 Sn6 3.472673 1_554
Sn4 Sn5 3.472673 1_555
Sn4 Sn6 3.472673 1_564
Sn4 Sn5 3.472673 1_565
Sn5 Sn8 3.279794 1_655
Sn5 Sn8 3.279797 1_555
Sn5 Sn9 3.449545 1_655
Sn5 Sn9 3.449547 1_555
Sn6 Sn7 3.279794 1_455
Sn6 Sn7 3.279797 1_555
Sn6 Sn9 3.449545 1_556
Sn6 Sn9 3.449547 1_656
