# generated using pymatgen
data_Mo2C8Br8N2O3
_symmetry_space_group_name_H-M   'P 1'
_cell_length_a   11.20310000
_cell_length_b   11.37214300
_cell_length_c   26.24130900
_cell_angle_alpha   90.00000000
_cell_angle_beta   90.00000000
_cell_angle_gamma   90.00000000
_symmetry_Int_Tables_number   1
_chemical_formula_structural   Mo2C8Br8N2O3
_chemical_formula_sum   'Mo8 C32 Br32 N8 O12'
_cell_volume   3343.22818845
_cell_formula_units_Z   4
loop_
 _symmetry_equiv_pos_site_id
 _symmetry_equiv_pos_as_xyz
  1  'x, y, z'
loop_
 _atom_site_type_symbol
 _atom_site_label
 _atom_site_symmetry_multiplicity
 _atom_site_fract_x
 _atom_site_fract_y
 _atom_site_fract_z
 _atom_site_occupancy
  Mo  Mo0  1  0.99553100  0.04316500  0.41134600  1
  Mo  Mo1  1  0.49553100  0.45683500  0.58865400  1
  Mo  Mo2  1  0.50446900  0.95683500  0.91134600  1
  Mo  Mo3  1  0.00446900  0.54316500  0.08865400  1
  Mo  Mo4  1  0.73789500  0.98841900  0.34307200  1
  Mo  Mo5  1  0.23789500  0.51158100  0.65692800  1
  Mo  Mo6  1  0.76210500  0.01158100  0.84307200  1
  Mo  Mo7  1  0.26210500  0.48841900  0.15692800  1
  C  C0  1  0.14350700  0.13388000  0.71747800  1
  C  C1  1  0.64350700  0.36612000  0.28252200  1
  C  C2  1  0.35649300  0.86612000  0.21747800  1
  C  C3  1  0.85649300  0.63388000  0.78252200  1
  C  C4  1  0.18704600  0.02962000  0.73686400  1
  C  C5  1  0.68704600  0.47038000  0.26313600  1
  C  C6  1  0.31295400  0.97038000  0.23686400  1
  C  C7  1  0.81295400  0.52962000  0.76313600  1
  C  C8  1  0.25002500  0.13401500  0.74373600  1
  C  C9  1  0.75002500  0.36598500  0.25626400  1
  C  C10  1  0.24997500  0.86598500  0.24373600  1
  C  C11  1  0.74997500  0.63401500  0.75626400  1
  C  C12  1  0.15870800  0.81361300  0.75280500  1
  C  C13  1  0.65870800  0.68638700  0.24719500  1
  C  C14  1  0.34129200  0.18638700  0.25280500  1
  C  C15  1  0.84129200  0.31361300  0.74719500  1
  C  C16  1  0.79629300  0.00074400  0.60736700  1
  C  C17  1  0.29629300  0.49925600  0.39263300  1
  C  C18  1  0.70370700  0.99925600  0.10736700  1
  C  C19  1  0.20370700  0.50074400  0.89263300  1
  C  C20  1  0.72623700  0.88907200  0.60322500  1
  C  C21  1  0.22623700  0.61092800  0.39677500  1
  C  C22  1  0.77376300  0.11092800  0.10322500  1
  C  C23  1  0.27376300  0.38907200  0.89677500  1
  C  C24  1  0.63623700  0.97819600  0.61991100  1
  C  C25  1  0.13623700  0.52180400  0.38008900  1
  C  C26  1  0.86376300  0.02180400  0.11991100  1
  C  C27  1  0.36376300  0.47819600  0.88008900  1
  C  C28  1  0.69648300  0.95405800  0.55537400  1
  C  C29  1  0.19648300  0.54594200  0.44462600  1
  C  C30  1  0.80351700  0.04594200  0.05537400  1
  C  C31  1  0.30351700  0.45405800  0.94462600  1
  Br  Br0  1  0.94450800  0.87507100  0.34285800  1
  Br  Br1  1  0.44450800  0.62492900  0.65714200  1
  Br  Br2  1  0.55549200  0.12492900  0.84285800  1
  Br  Br3  1  0.05549200  0.37507100  0.15714200  1
  Br  Br4  1  0.89391600  0.16718500  0.33678600  1
  Br  Br5  1  0.39391600  0.33281500  0.66321400  1
  Br  Br6  1  0.60608400  0.83281500  0.83678600  1
  Br  Br7  1  0.10608400  0.66718500  0.16321400  1
  Br  Br8  1  0.92199000  0.19547600  0.47000200  1
  Br  Br9  1  0.42199000  0.30452400  0.52999800  1
  Br  Br10  1  0.57801000  0.80452400  0.97000200  1
  Br  Br11  1  0.07801000  0.69547600  0.02999800  1
  Br  Br12  1  0.98352200  0.88483500  0.47576700  1
  Br  Br13  1  0.48352200  0.61516500  0.52423300  1
  Br  Br14  1  0.51647800  0.11516500  0.97576700  1
  Br  Br15  1  0.01647800  0.38483500  0.02423300  1
  Br  Br16  1  0.20163900  0.08180500  0.39076800  1
  Br  Br17  1  0.70163900  0.41819500  0.60923200  1
  Br  Br18  1  0.29836100  0.91819500  0.89076800  1
  Br  Br19  1  0.79836100  0.58180500  0.10923200  1
  Br  Br20  1  0.65366900  0.81669500  0.38834500  1
  Br  Br21  1  0.15366900  0.68330500  0.61165500  1
  Br  Br22  1  0.84633100  0.18330500  0.88834500  1
  Br  Br23  1  0.34633100  0.31669500  0.11165500  1
  Br  Br24  1  0.60436700  0.12505000  0.38788200  1
  Br  Br25  1  0.10436700  0.37495000  0.61211800  1
  Br  Br26  1  0.89563300  0.87495000  0.88788200  1
  Br  Br27  1  0.39563300  0.62505000  0.11211800  1
  Br  Br28  1  0.69863400  0.98392600  0.25277200  1
  Br  Br29  1  0.19863400  0.51607400  0.74722800  1
  Br  Br30  1  0.80136600  0.01607400  0.75277200  1
  Br  Br31  1  0.30136600  0.48392600  0.24722800  1
  N  N0  1  0.17569500  0.91553200  0.74452400  1
  N  N1  1  0.67569500  0.58446800  0.25547600  1
  N  N2  1  0.32430500  0.08446800  0.24452400  1
  N  N3  1  0.82430500  0.41553200  0.75547600  1
  N  N4  1  0.69327000  0.06496500  0.58515100  1
  N  N5  1  0.19327000  0.43503500  0.41484900  1
  N  N6  1  0.80673000  0.93503500  0.08515100  1
  N  N7  1  0.30673000  0.56496500  0.91484900  1
  O  O0  1  0.18892400  0.04980400  0.03484000  1
  O  O1  1  0.68892400  0.45019600  0.96516000  1
  O  O2  1  0.31107600  0.95019600  0.53484000  1
  O  O3  1  0.81107600  0.54980400  0.46516000  1
  O  O4  1  0.26658400  0.96766000  0.04100100  1
  O  O5  1  0.76658400  0.53234000  0.95899900  1
  O  O6  1  0.23341600  0.03234000  0.54100100  1
  O  O7  1  0.73341600  0.46766000  0.45899900  1
  O  O8  1  0.14645000  0.06617000  0.98983500  1
  O  O9  1  0.64645000  0.43383000  0.01016500  1
  O  O10  1  0.35355000  0.93383000  0.48983500  1
  O  O11  1  0.85355000  0.56617000  0.51016500  1
loop_
_geom_bond_atom_site_label_1
_geom_bond_atom_site_label_2
_geom_bond_distance
_geom_bond_site_symmetry_2
C0 C8 1.377979 1_555
C0 C4 1.379311 1_555
C1 C9 1.377979 1_555
C1 C5 1.379311 1_555
C2 C6 1.379311 1_555
C3 C7 1.379311 1_555
C4 N0 1.319048 1_545
C4 C8 1.392755 1_555
C5 N1 1.319048 1_555
C5 C9 1.392755 1_555
C6 N2 1.319048 1_565
C7 N3 1.319048 1_555
C10 C2 1.377979 1_555
C10 C6 1.392755 1_555
C11 C3 1.377979 1_555
C11 C7 1.392755 1_555
C12 N0 1.194490 1_555
C13 N1 1.194490 1_555
C14 N2 1.194490 1_555
C15 N3 1.194490 1_555
C16 N4 1.485049 1_555
C16 C20 1.496853 1_545
C17 N5 1.485049 1_555
C17 C21 1.496853 1_555
C18 N6 1.485049 1_555
C18 C22 1.496853 1_565
C19 N7 1.485049 1_555
C19 C23 1.496853 1_555
C20 C28 1.494655 1_555
C20 C24 1.495191 1_555
C21 C29 1.494655 1_555
C21 C25 1.495191 1_555
C22 C30 1.494655 1_555
C22 C26 1.495191 1_555
C23 C31 1.494655 1_555
C23 C27 1.495191 1_555
C24 N4 1.487932 1_565
C25 N5 1.487932 1_555
C26 N6 1.487932 1_545
C27 N7 1.487932 1_555
C28 N4 1.484121 1_565
C29 N5 1.484121 1_555
C30 N6 1.484121 1_545
C31 N7 1.484121 1_555
Br0 Mo4 2.649423 1_555
Br0 Mo0 2.685312 1_565
Br1 Mo5 2.649423 1_555
Br1 Mo1 2.685312 1_555
Br2 Mo6 2.649423 1_555
Br2 Mo2 2.685312 1_545
Br3 Mo7 2.649423 1_555
Br3 Mo3 2.685312 1_555
Br4 Mo0 2.667060 1_555
Br4 Mo4 2.686136 1_545
Br5 Mo1 2.667060 1_555
Br5 Mo5 2.686136 1_555
Br6 Mo2 2.667060 1_555
Br6 Mo6 2.686136 1_565
Br7 Mo3 2.667060 1_555
Br7 Mo7 2.686136 1_555
Br8 Mo0 2.459296 1_555
Br9 Mo1 2.459296 1_555
Br10 Mo2 2.459296 1_555
Br11 Mo3 2.459296 1_555
Br12 Mo0 2.473428 1_565
Br13 Mo1 2.473428 1_555
Br14 Mo2 2.473428 1_545
Br15 Mo3 2.473428 1_555
Br16 Mo0 2.411719 1_455
Br17 Mo1 2.411719 1_555
Br18 Mo2 2.411719 1_555
Br19 Mo3 2.411719 1_655
Br20 Mo4 2.472947 1_555
Br21 Mo5 2.472947 1_555
Br22 Mo6 2.472947 1_555
Br23 Mo7 2.472947 1_555
Br24 Mo4 2.456569 1_545
Br25 Mo5 2.456569 1_555
Br26 Mo6 2.456569 1_565
Br27 Mo7 2.456569 1_555
Br28 Mo4 2.410608 1_555
Br29 Mo5 2.410608 1_555
Br30 Mo6 2.410608 1_555
Br31 Mo7 2.410608 1_555
O0 O4 1.286755 1_545
O0 O8 1.286779 1_554
O1 O5 1.286755 1_555
O1 O9 1.286779 1_556
O2 O6 1.286755 1_565
O3 O7 1.286755 1_555
O10 O2 1.286779 1_555
O11 O3 1.286779 1_555
