# generated using pymatgen
data_Cs3ScCl6
_symmetry_space_group_name_H-M   'P 1'
_cell_length_a   13.88258535
_cell_length_b   13.88258535
_cell_length_c   12.91178739
_cell_angle_alpha   80.36047903
_cell_angle_beta   80.36047903
_cell_angle_gamma   33.95330527
_symmetry_Int_Tables_number   1
_chemical_formula_structural   Cs3ScCl6
_chemical_formula_sum   'Cs12 Sc4 Cl24'
_cell_volume   1368.36926100
_cell_formula_units_Z   4
loop_
 _symmetry_equiv_pos_site_id
 _symmetry_equiv_pos_as_xyz
  1  'x, y, z'
loop_
 _atom_site_type_symbol
 _atom_site_label
 _atom_site_symmetry_multiplicity
 _atom_site_fract_x
 _atom_site_fract_y
 _atom_site_fract_z
 _atom_site_occupancy
  Cs  Cs0  1  0.02720810  0.64588232  0.80183573  1
  Cs  Cs1  1  0.35411768  0.97279190  0.69816427  1
  Cs  Cs2  1  0.97279190  0.35411768  0.19816427  1
  Cs  Cs3  1  0.64588232  0.02720810  0.30183573  1
  Cs  Cs4  1  0.83830116  0.46805648  0.85527905  1
  Cs  Cs5  1  0.53194352  0.16169884  0.64472095  1
  Cs  Cs6  1  0.16169884  0.53194352  0.14472095  1
  Cs  Cs7  1  0.46805648  0.83830116  0.35527905  1
  Cs  Cs8  1  0.80685007  0.29536168  0.56464300  1
  Cs  Cs9  1  0.70463832  0.19314993  0.93535700  1
  Cs  Cs10  1  0.19314993  0.70463832  0.43535700  1
  Cs  Cs11  1  0.29536168  0.80685007  0.06464300  1
  Sc  Sc0  1  0.22076808  0.77923192  0.75000000  1
  Sc  Sc1  1  0.77923192  0.22076808  0.25000000  1
  Sc  Sc2  1  -0.00000000  0.50000000  0.50000000  1
  Sc  Sc3  1  0.50000000  0.00000000  -0.00000000  1
  Cl  Cl0  1  0.95038543  0.94104508  0.19036815  1
  Cl  Cl1  1  0.05895492  0.04961457  0.30963185  1
  Cl  Cl2  1  0.04961457  0.05895492  0.80963185  1
  Cl  Cl3  1  0.94104508  0.95038543  0.69036815  1
  Cl  Cl4  1  0.38474950  0.50657594  0.68652785  1
  Cl  Cl5  1  0.49342406  0.61525050  0.81347215  1
  Cl  Cl6  1  0.61525050  0.49342406  0.31347215  1
  Cl  Cl7  1  0.50657594  0.38474950  0.18652785  1
  Cl  Cl8  1  0.16643915  0.72184417  0.92629599  1
  Cl  Cl9  1  0.27815583  0.83356085  0.57370401  1
  Cl  Cl10  1  0.83356085  0.27815583  0.07370401  1
  Cl  Cl11  1  0.72184417  0.16643915  0.42629599  1
  Cl  Cl12  1  0.86273846  0.76879963  0.53660895  1
  Cl  Cl13  1  0.23120037  0.13726154  0.96339105  1
  Cl  Cl14  1  0.13726154  0.23120037  0.46339105  1
  Cl  Cl15  1  0.76879963  0.86273846  0.03660895  1
  Cl  Cl16  1  0.13018064  0.36954539  0.67602686  1
  Cl  Cl17  1  0.63045461  0.86981936  0.82397314  1
  Cl  Cl18  1  0.86981936  0.63045461  0.32397314  1
  Cl  Cl19  1  0.36954539  0.13018064  0.17602686  1
  Cl  Cl20  1  0.74319922  0.60960853  0.57741203  1
  Cl  Cl21  1  0.39039147  0.25680078  0.92258797  1
  Cl  Cl22  1  0.25680078  0.39039147  0.42258797  1
  Cl  Cl23  1  0.60960853  0.74319922  0.07741203  1
loop_
_geom_bond_atom_site_label_1
_geom_bond_atom_site_label_2
_geom_bond_distance
_geom_bond_site_symmetry_2
Cl0 Sc1 2.529762 1_565
Cl0 Cs3 3.394480 1_565
Cl0 Cs11 3.556618 1_655
Cl0 Cs10 3.725491 1_655
Cl0 Cs6 3.756386 1_655
Cl0 Cs9 3.850165 1_564
Cl1 Sc1 2.529762 1_455
Cl1 Cs2 3.394480 1_455
Cl1 Cs10 3.556618 1_545
Cl1 Cs11 3.725491 1_545
Cl1 Cs7 3.756386 1_545
Cl1 Cs8 3.850165 1_455
Cl2 Sc0 2.529762 1_545
Cl2 Cs1 3.394480 1_545
Cl2 Cs9 3.556618 1_455
Cl2 Cs8 3.725491 1_455
Cl2 Cs4 3.756386 1_455
Cl2 Cs11 3.850165 1_546
Cl3 Sc0 2.529762 1_655
Cl3 Cs0 3.394480 1_655
Cl3 Cs8 3.556618 1_565
Cl3 Cs9 3.725491 1_565
Cl3 Cs5 3.756386 1_565
Cl3 Cs10 3.850165 1_655
Cl4 Sc0 2.510045 1_555
Cl4 Cs5 3.413985 1_555
Cl4 Cs10 3.594739 1_555
Cl4 Cs0 3.627447 1_555
Cl4 Cs8 3.919718 1_555
Cl4 Cs9 4.125079 1_555
Cl5 Sc0 2.510045 1_555
Cl5 Cs4 3.413985 1_555
Cl5 Cs11 3.594739 1_556
Cl5 Cs1 3.627447 1_555
Cl5 Cs9 3.919718 1_555
Cl5 Cs8 4.125079 1_555
Cl6 Sc1 2.510045 1_555
Cl6 Cs7 3.413985 1_555
Cl6 Cs8 3.594739 1_555
Cl6 Cs2 3.627447 1_555
Cl6 Cs10 3.919718 1_555
Cl6 Cs11 4.125079 1_555
Cl7 Sc1 2.510045 1_555
Cl7 Cs6 3.413985 1_555
Cl7 Cs9 3.594739 1_554
Cl7 Cs3 3.627447 1_555
Cl7 Cs11 3.919718 1_555
Cl7 Cs10 4.125079 1_555
Cl8 Sc0 2.489910 1_555
Cl8 Cs0 3.524189 1_555
Cl8 Cs6 3.555839 1_556
Cl8 Cs11 3.614898 1_556
Cl8 Cs9 3.786910 1_465
Cl9 Sc0 2.489910 1_555
Cl9 Cs1 3.524189 1_555
Cl9 Cs7 3.555839 1_555
Cl9 Cs10 3.614898 1_555
Cl9 Cs8 3.786910 1_465
Cl10 Sc1 2.489910 1_555
Cl10 Cs2 3.524189 1_555
Cl10 Cs4 3.555839 1_554
Cl10 Cs9 3.614898 1_554
Cl10 Cs11 3.786910 1_645
Cl11 Sc1 2.489910 1_555
Cl11 Cs3 3.524189 1_555
Cl11 Cs5 3.555839 1_555
Cl11 Cs8 3.614898 1_555
Cl11 Cs10 3.786910 1_645
Cl12 Sc2 2.504394 1_655
Cl12 Cs5 3.411282 1_565
Cl12 Cs3 3.552336 1_565
Cl12 Cs0 3.748406 1_655
Cl12 Cs10 3.891827 1_655
Cl13 Sc3 2.504394 1_556
Cl13 Cs4 3.411282 1_455
Cl13 Cs2 3.552336 1_456
Cl13 Cs1 3.748406 1_545
Cl13 Cs11 3.891827 1_546
Cl14 Sc2 2.504394 1_555
Cl14 Cs7 3.411282 1_545
Cl14 Cs1 3.552336 1_545
Cl14 Cs2 3.748406 1_455
Cl14 Cs8 3.891827 1_455
Cl15 Sc3 2.504394 1_565
Cl15 Cs6 3.411282 1_655
Cl15 Cs0 3.552336 1_654
Cl15 Cs3 3.748406 1_565
Cl15 Cs9 3.891827 1_564
Cl16 Sc2 2.505789 1_555
Cl16 Cs1 3.383370 1_545
Cl16 Cs0 3.407433 1_555
Cl16 Cs4 3.517390 1_455
Cl16 Cs5 3.540381 1_555
Cl17 Sc3 2.505789 1_566
Cl17 Cs0 3.383370 1_655
Cl17 Cs1 3.407433 1_555
Cl17 Cs5 3.517390 1_565
Cl17 Cs4 3.540381 1_555
Cl18 Sc2 2.505789 1_655
Cl18 Cs3 3.383370 1_565
Cl18 Cs2 3.407433 1_555
Cl18 Cs6 3.517390 1_655
Cl18 Cs7 3.540381 1_555
Cl19 Sc3 2.505789 1_555
Cl19 Cs2 3.383370 1_455
Cl19 Cs3 3.407433 1_555
Cl19 Cs7 3.517390 1_545
Cl19 Cs6 3.540381 1_555
Cl20 Sc2 2.518033 1_655
Cl20 Cs1 3.414601 1_555
Cl20 Cs7 3.660173 1_555
Cl20 Cs4 3.660299 1_555
Cl20 Cs8 3.692796 1_555
Cl21 Sc3 2.518033 1_556
Cl21 Cs0 3.414601 1_555
Cl21 Cs6 3.660173 1_556
Cl21 Cs5 3.660299 1_555
Cl21 Cs9 3.692796 1_555
Cl22 Sc2 2.518033 1_555
Cl22 Cs3 3.414601 1_555
Cl22 Cs5 3.660173 1_555
Cl22 Cs6 3.660299 1_555
Cl22 Cs10 3.692796 1_555
Cl23 Sc3 2.518033 1_565
Cl23 Cs2 3.414601 1_555
Cl23 Cs4 3.660173 1_554
Cl23 Cs7 3.660299 1_555
Cl23 Cs11 3.692796 1_555
