# generated using pymatgen
data_Si5Mo10P
_symmetry_space_group_name_H-M   'P 1'
_cell_length_a   4.92935400
_cell_length_b   7.26224747
_cell_length_c   7.26224747
_cell_angle_alpha   96.61402047
_cell_angle_beta   109.83923444
_cell_angle_gamma   70.16076556
_symmetry_Int_Tables_number   1
_chemical_formula_structural   Si5Mo10P
_chemical_formula_sum   'Si5 Mo10 P1'
_cell_volume   230.03128966
_cell_formula_units_Z   1
loop_
 _symmetry_equiv_pos_site_id
 _symmetry_equiv_pos_as_xyz
  1  'x, y, z'
loop_
 _atom_site_type_symbol
 _atom_site_label
 _atom_site_symmetry_multiplicity
 _atom_site_fract_x
 _atom_site_fract_y
 _atom_site_fract_z
 _atom_site_occupancy
  Si  Si0  1  0.33241800  0.50000000  0.16483600  1
  Si  Si1  1  0.66758200  0.50000000  0.83516400  1
  Si  Si2  1  0.83241800  0.83516400  0.50000000  1
  Si  Si3  1  0.16758200  0.16483600  0.50000000  1
  Si  Si4  1  0.75000000  0.00000000  0.00000000  1
  Mo  Mo0  1  0.42247000  0.85242700  0.70080900  1
  Mo  Mo1  1  0.57408800  0.14757300  0.29919100  1
  Mo  Mo2  1  0.92591200  0.29919100  0.14757300  1
  Mo  Mo3  1  0.07753000  0.70080900  0.85242700  1
  Mo  Mo4  1  0.72166000  0.70080900  0.14757300  1
  Mo  Mo5  1  0.27489700  0.29919100  0.85242700  1
  Mo  Mo6  1  0.77834000  0.14757300  0.70080900  1
  Mo  Mo7  1  0.22510300  0.85242700  0.29919100  1
  Mo  Mo8  1  0.25000000  0.50000000  0.50000000  1
  Mo  Mo9  1  0.75000000  0.50000000  0.50000000  1
  P  P0  1  0.25000000  0.00000000  0.00000000  1
loop_
_geom_bond_atom_site_label_1
_geom_bond_atom_site_label_2
_geom_bond_distance
_geom_bond_site_symmetry_2
Mo0 Si3 2.536999 1_565
Mo0 Si1 2.576536 1_555
Mo0 P0 2.586770 1_566
Mo0 Si4 2.594840 1_566
Mo0 Si2 2.815768 1_455
Mo0 Si2 2.830580 1_555
Mo1 Si2 2.536999 1_545
Mo1 Si0 2.576536 1_555
Mo1 P0 2.586770 1_555
Mo1 Si4 2.594840 1_555
Mo1 Si3 2.815768 1_555
Mo1 Si3 2.830580 1_655
Mo2 Si1 2.536999 1_554
Mo2 Si3 2.576536 1_655
Mo2 P0 2.586770 1_655
Mo2 Si4 2.594840 1_555
Mo2 Si0 2.815768 1_655
Mo2 Si0 2.830580 1_555
Mo3 Si0 2.536999 1_556
Mo3 Si2 2.576536 1_455
Mo3 P0 2.586770 1_566
Mo3 Si4 2.594840 1_466
Mo3 Si1 2.815768 1_555
Mo3 Si1 2.830580 1_455
Mo4 Si1 2.536999 1_554
Mo4 Si2 2.576536 1_555
Mo4 P0 2.586768 1_565
Mo4 Si4 2.594843 1_565
Mo4 Si0 2.815764 1_555
Mo4 Si0 2.830585 1_655
Mo5 Si0 2.536999 1_556
Mo5 Si3 2.576536 1_555
Mo5 P0 2.586770 1_556
Mo5 Si4 2.594840 1_556
Mo5 Si1 2.815768 1_455
Mo5 Si1 2.830580 1_555
Mo6 Si2 2.536999 1_545
Mo6 Si1 2.576536 1_555
Mo6 P0 2.586768 1_656
Mo6 Si4 2.594843 1_556
Mo6 Si3 2.815764 1_655
Mo6 Si3 2.830585 1_555
Mo7 Si3 2.536999 1_565
Mo7 Si0 2.576536 1_555
Mo7 P0 2.586770 1_565
Mo7 Si4 2.594840 1_465
Mo7 Si2 2.815768 1_555
Mo7 Si2 2.830580 1_455
Mo8 Mo9 2.464677 1_555
Mo8 Mo9 2.464677 1_455
Mo8 Si1 2.600161 1_555
Mo8 Si0 2.600161 1_555
Mo8 Si3 2.600161 1_555
Mo8 Si2 2.600161 1_455
Mo9 Si3 2.600161 1_655
Mo9 Si1 2.600161 1_555
Mo9 Si2 2.600161 1_555
Mo9 Si0 2.600161 1_555
P0 Si4 2.464677 1_455
P0 Si4 2.464677 1_555
