# generated using pymatgen
data_Sr3LaTi2Mn2O12
_symmetry_space_group_name_H-M   'P 1'
_cell_length_a   5.58504178
_cell_length_b   9.57597042
_cell_length_c   9.56418488
_cell_angle_alpha   108.81338230
_cell_angle_beta   90.50353939
_cell_angle_gamma   90.65339302
_symmetry_Int_Tables_number   1
_chemical_formula_structural   Sr3LaTi2Mn2O12
_chemical_formula_sum   'Sr6 La2 Ti4 Mn4 O24'
_cell_volume   484.11198125
_cell_formula_units_Z   2
loop_
 _symmetry_equiv_pos_site_id
 _symmetry_equiv_pos_as_xyz
  1  'x, y, z'
loop_
 _atom_site_type_symbol
 _atom_site_label
 _atom_site_symmetry_multiplicity
 _atom_site_fract_x
 _atom_site_fract_y
 _atom_site_fract_z
 _atom_site_occupancy
  Sr  Sr0  1  0.99973100  0.37498200  0.12499000  1
  Sr  Sr1  1  0.50028200  0.87500100  0.12499300  1
  Sr  Sr2  1  0.00134600  0.62411500  0.87174800  1
  Sr  Sr3  1  0.50144700  0.12406900  0.87170400  1
  Sr  Sr4  1  0.49866600  0.62586500  0.37821900  1
  Sr  Sr5  1  0.99855400  0.12590300  0.37825500  1
  La  La0  1  0.49950300  0.37489500  0.62496600  1
  La  La1  1  0.00048300  0.87506200  0.62500700  1
  Ti  Ti0  1  0.50100600  0.50005600  0.99920700  1
  Ti  Ti1  1  0.00080800  0.00007000  0.99924100  1
  Ti  Ti2  1  0.49924700  0.24983000  0.25057800  1
  Ti  Ti3  1  0.99906500  0.74979900  0.25057300  1
  Mn  Mn0  1  0.49924300  0.99924400  0.50062200  1
  Mn  Mn1  1  0.00075800  0.25075100  0.74933800  1
  Mn  Mn2  1  0.99901200  0.49933400  0.50073900  1
  Mn  Mn3  1  0.50100900  0.75062000  0.74927300  1
  O  O0  1  0.24988000  0.62490600  0.62491600  1
  O  O1  1  0.74981900  0.12487000  0.62488000  1
  O  O2  1  0.00077400  0.37501000  0.62502400  1
  O  O3  1  0.49930900  0.87494700  0.62487400  1
  O  O4  1  0.75057900  0.62471800  0.62474400  1
  O  O5  1  0.25077600  0.12462600  0.62464300  1
  O  O6  1  0.24998300  0.12507400  0.12508100  1
  O  O7  1  0.74999600  0.62509000  0.12509800  1
  O  O8  1  0.50033800  0.37508700  0.12517400  1
  O  O9  1  0.99956300  0.87501200  0.12502300  1
  O  O10  1  0.74985300  0.12508600  0.12508300  1
  O  O11  1  0.24982000  0.62511700  0.12511300  1
  O  O12  1  0.74958200  0.87624300  0.86882900  1
  O  O13  1  0.25055400  0.37588300  0.86876100  1
  O  O14  1  0.75054800  0.37383300  0.38126600  1
  O  O15  1  0.24962200  0.87423100  0.38135700  1
  O  O16  1  0.00210600  0.62379900  0.37952300  1
  O  O17  1  0.50251300  0.12372200  0.37947500  1
  O  O18  1  0.49787300  0.62625900  0.87054000  1
  O  O19  1  0.99750000  0.12628300  0.87056200  1
  O  O20  1  0.26391200  0.37053100  0.37935300  1
  O  O21  1  0.76288900  0.87031800  0.37910800  1
  O  O22  1  0.23559900  0.87972600  0.87090300  1
  O  O23  1  0.73645200  0.38003200  0.87121500  1
loop_
_geom_bond_atom_site_label_1
_geom_bond_atom_site_label_2
_geom_bond_distance
_geom_bond_site_symmetry_2
La0 O20 2.670647 1_555
La0 O23 2.677605 1_555
La0 O13 2.722711 1_555
La0 O14 2.727828 1_555
La0 O5 2.755451 1_555
La0 O4 2.759759 1_555
La0 O17 2.767200 1_555
La0 O18 2.768571 1_555
La0 O0 2.784282 1_555
La0 O2 2.785440 1_555
La0 O1 2.786021 1_555
La0 O2 2.799602 1_655
La1 O22 2.670934 1_555
La1 O21 2.677472 1_455
La1 O15 2.722471 1_555
La1 O12 2.728107 1_455
La1 O5 2.755833 1_565
La1 O4 2.759488 1_455
La1 O16 2.767505 1_555
La1 O19 2.767818 1_465
La1 O0 2.784472 1_555
La1 O1 2.785774 1_465
La1 O3 2.785988 1_555
La1 O3 2.799054 1_455
Mn0 O17 1.911644 1_565
Mn0 O15 1.931612 1_555
Mn0 O3 1.934231 1_555
Mn0 O1 1.956618 1_565
Mn0 O5 1.980564 1_565
Mn0 O21 2.046749 1_555
Mn1 O19 1.912160 1_455
Mn1 O13 1.933367 1_555
Mn1 O2 1.934417 1_555
Mn1 O1 1.959817 1_455
Mn1 O5 1.992375 1_555
Mn1 O23 2.052219 1_455
Mn2 O16 1.912068 1_655
Mn2 O14 1.929775 1_555
Mn2 O2 1.934739 1_655
Mn2 O0 1.957241 1_655
Mn2 O4 1.980374 1_555
Mn2 O20 2.050910 1_655
Mn3 O18 1.911648 1_555
Mn3 O12 1.931006 1_555
Mn3 O3 1.935646 1_555
Mn3 O0 1.959517 1_555
Mn3 O4 1.989042 1_555
Mn3 O22 2.055121 1_555
O0 Sr2 2.751149 1_555
O0 Sr4 2.751196 1_555
O1 Sr3 2.750646 1_555
O1 Sr5 2.750650 1_555
O2 Sr2 2.761828 1_555
O2 Sr5 2.761953 1_455
O3 Sr4 2.761312 1_555
O3 Sr3 2.762379 1_565
O4 Sr2 2.737386 1_655
O4 Sr4 2.738181 1_555
O5 Sr3 2.737458 1_555
O5 Sr5 2.738289 1_455
O6 Ti2 1.952899 1_555
O6 Ti1 1.954864 1_554
O6 Sr0 2.785331 1_455
O6 Sr1 2.786365 1_545
O6 Sr5 2.807627 1_455
O6 Sr3 2.808954 1_554
O7 Ti3 1.951867 1_555
O7 Ti0 1.954459 1_554
O7 Sr1 2.783856 1_555
O7 Sr0 2.784993 1_555
O7 Sr4 2.807047 1_555
O7 Sr2 2.808484 1_654
O8 Ti2 1.950665 1_555
O8 Ti0 1.952805 1_554
O8 Sr0 2.789158 1_555
O8 Sr0 2.795885 1_455
O8 Sr4 2.806532 1_555
O8 Sr3 2.810180 1_554
O9 Ti3 1.951456 1_555
O9 Ti1 1.952059 1_664
O9 Sr1 2.788502 1_555
O9 Sr1 2.796540 1_655
O9 Sr5 2.808132 1_565
O9 Sr2 2.808493 1_654
O10 Ti2 1.992356 1_555
O10 Ti1 1.996204 1_654
O10 Sr0 2.756683 1_555
O10 Sr1 2.756896 1_545
O10 Sr5 2.778653 1_555
O10 Sr3 2.779015 1_554
O11 Ti3 1.992567 1_455
O11 Ti0 1.997558 1_554
O11 Sr1 2.758278 1_555
O11 Sr0 2.758654 1_455
O11 Sr4 2.778693 1_555
O11 Sr2 2.779126 1_554
O12 Ti1 1.976829 1_665
O12 Sr3 2.754427 1_565
O12 Sr2 2.815551 1_655
O12 Sr1 2.831900 1_556
O13 Ti0 1.975248 1_555
O13 Sr2 2.760581 1_555
O13 Sr3 2.810535 1_555
O13 Sr0 2.835793 1_456
O14 Ti2 1.978915 1_555
O14 Sr5 2.754576 1_555
O14 Sr4 2.815436 1_555
O14 Sr0 2.832259 1_555
O15 Ti3 1.978019 1_455
O15 Sr4 2.760839 1_555
O15 Sr5 2.810283 1_465
O15 Sr1 2.836113 1_555
O16 Ti3 1.984188 1_455
O16 Sr4 2.773320 1_555
O16 Sr0 2.803784 1_455
O16 Sr4 2.811975 1_455
O17 Ti2 1.984623 1_555
O17 Sr5 2.770406 1_555
O17 Sr1 2.802981 1_545
O17 Sr5 2.814897 1_455
O18 Ti0 1.983554 1_555
O18 Sr2 2.773119 1_555
O18 Sr1 2.802918 1_556
O18 Sr2 2.812176 1_655
O19 Ti1 1.983736 1_655
O19 Sr3 2.770461 1_555
O19 Sr0 2.802554 1_556
O19 Sr3 2.814838 1_655
O20 Ti2 1.930111 1_555
O20 Sr5 2.754771 1_455
O20 Sr4 2.764370 1_555
O20 Sr0 2.846475 1_455
O21 Ti3 1.931640 1_555
O21 Sr4 2.750564 1_555
O21 Sr5 2.768063 1_565
O21 Sr1 2.840622 1_555
O22 Ti1 1.924749 1_565
O22 Sr3 2.754701 1_565
O22 Sr2 2.764598 1_555
O22 Sr1 2.846456 1_556
O23 Ti0 1.924574 1_555
O23 Sr2 2.750494 1_655
O23 Sr3 2.768520 1_555
O23 Sr0 2.840800 1_556
