# generated using pymatgen
data_Mg7Si4
_symmetry_space_group_name_H-M   'P 1'
_cell_length_a   5.17251600
_cell_length_b   6.20627011
_cell_length_c   14.41534344
_cell_angle_alpha   83.91090642
_cell_angle_beta   80.07104570
_cell_angle_gamma   78.51225889
_symmetry_Int_Tables_number   1
_chemical_formula_structural   Mg7Si4
_chemical_formula_sum   'Mg14 Si8'
_cell_volume   445.46403399
_cell_formula_units_Z   2
loop_
 _symmetry_equiv_pos_site_id
 _symmetry_equiv_pos_as_xyz
  1  'x, y, z'
loop_
 _atom_site_type_symbol
 _atom_site_label
 _atom_site_symmetry_multiplicity
 _atom_site_fract_x
 _atom_site_fract_y
 _atom_site_fract_z
 _atom_site_occupancy
  Mg  Mg0  1  0.36816100  0.90776600  0.90344900  1
  Mg  Mg1  1  0.31090500  0.51537900  0.63757100  1
  Mg  Mg2  1  0.90385800  0.31720600  0.52441600  1
  Mg  Mg3  1  0.62546200  0.07243400  0.70151200  1
  Mg  Mg4  1  0.31036300  0.42170500  0.85252400  1
  Mg  Mg5  1  0.93063000  0.80953600  0.31572100  1
  Mg  Mg6  1  0.89727500  0.31387500  0.29610000  1
  Mg  Mg7  1  0.82727200  0.79057900  0.54504200  1
  Mg  Mg8  1  0.87021900  0.68117500  0.00367900  1
  Mg  Mg9  1  0.79704000  0.19653400  0.94213300  1
  Mg  Mg10  1  0.25011000  0.24861500  0.07965900  1
  Mg  Mg11  1  0.29529600  0.75096300  0.12467200  1
  Mg  Mg12  1  0.41977300  0.67272000  0.42597500  1
  Mg  Mg13  1  0.47674600  0.16928200  0.44174700  1
  Si  Si0  1  0.74034200  0.96716400  0.13977600  1
  Si  Si1  1  0.09632800  0.13178900  0.75190700  1
  Si  Si2  1  0.78206500  0.48126200  0.72389300  1
  Si  Si3  1  0.37137100  0.43329000  0.27684300  1
  Si  Si4  1  0.70039800  0.36726000  0.12853000  1
  Si  Si5  1  0.90561100  0.77882700  0.81464200  1
  Si  Si6  1  0.24506300  0.95789500  0.59776600  1
  Si  Si7  1  0.37561700  0.01465300  0.27613500  1
loop_
_geom_bond_atom_site_label_1
_geom_bond_atom_site_label_2
_geom_bond_distance
_geom_bond_site_symmetry_2
Mg0 Si5 2.848053 1_555
Mg0 Si1 2.884175 1_565
Mg1 Si6 2.710778 1_555
Mg1 Si2 2.841977 1_455
Mg1 Si2 2.883922 1_555
Mg1 Si1 3.034002 1_555
Mg2 Si6 2.789505 1_645
Mg2 Si2 3.072971 1_555
Mg3 Si1 2.669059 1_555
Mg3 Si5 2.685616 1_545
Mg3 Si1 2.760383 1_655
Mg3 Si2 2.877597 1_555
Mg3 Si6 2.900159 1_545
Mg4 Si5 2.807656 1_455
Mg4 Si2 2.860347 1_555
Mg4 Si1 2.909939 1_555
Mg5 Si7 2.793576 1_665
Mg5 Si0 2.882645 1_555
Mg5 Si3 2.946280 1_655
Mg5 Si7 3.023726 1_565
Mg6 Si3 2.661852 1_655
Mg6 Si3 2.727601 1_555
Mg6 Si4 2.743348 1_555
Mg6 Si7 2.773254 1_655
Mg7 Si6 2.820226 1_655
Mg7 Si6 2.976158 1_555
Mg7 Si2 3.050892 1_555
Mg8 Si4 2.683094 1_555
Mg8 Si0 2.694429 1_555
Mg8 Si5 2.710795 1_554
Mg9 Si4 2.919289 1_556
Mg9 Si1 2.932500 1_655
Mg9 Si0 3.040969 1_546
Mg10 Si4 2.776454 1_455
Mg10 Si4 2.796846 1_555
Mg10 Si0 2.984044 1_545
Mg10 Si7 3.152414 1_555
Mg11 Si3 2.815124 1_555
Mg11 Si4 2.844153 1_555
Mg11 Si0 2.898263 1_455
Mg11 Si0 2.934661 1_555
Mg11 Si7 2.993282 1_565
Mg12 Si3 2.811384 1_555
Mg12 Si7 2.868065 1_565
Mg12 Si6 3.098840 1_555
Mg13 Si6 2.699327 1_545
Mg13 Si3 2.810230 1_555
Mg13 Si7 2.830319 1_555
Si0 Si4 2.440609 1_565
Si0 Si7 2.476359 1_565
Si1 Si2 2.479091 1_455
Si1 Si6 2.506471 1_545
Si1 Si5 2.592769 1_445
Si2 Si5 2.607904 1_555
Si3 Si4 2.507716 1_555
Si3 Si7 2.594979 1_555
