# generated using pymatgen
data_Y3Mg
_symmetry_space_group_name_H-M   'P 1'
_cell_length_a   7.05279996
_cell_length_b   7.05279996
_cell_length_c   5.66411982
_cell_angle_alpha   90.00000000
_cell_angle_beta   90.00000000
_cell_angle_gamma   119.99999663
_symmetry_Int_Tables_number   1
_chemical_formula_structural   Y3Mg
_chemical_formula_sum   'Y6 Mg2'
_cell_volume   243.99796854
_cell_formula_units_Z   2
loop_
 _symmetry_equiv_pos_site_id
 _symmetry_equiv_pos_as_xyz
  1  'x, y, z'
loop_
 _atom_site_type_symbol
 _atom_site_label
 _atom_site_symmetry_multiplicity
 _atom_site_fract_x
 _atom_site_fract_y
 _atom_site_fract_z
 _atom_site_occupancy
  Y  Y0  1  0.65911868  0.82955984  0.75000000  1
  Y  Y1  1  0.17044016  0.34088132  0.75000000  1
  Y  Y2  1  0.17044016  0.82955984  0.75000000  1
  Y  Y3  1  0.82955984  0.65911868  0.25000000  1
  Y  Y4  1  0.82955984  0.17044016  0.25000000  1
  Y  Y5  1  0.34088132  0.17044016  0.25000000  1
  Mg  Mg0  1  0.66666700  0.33333300  0.75000000  1
  Mg  Mg1  1  0.33333300  0.66666700  0.25000000  1
loop_
_geom_bond_atom_site_label_1
_geom_bond_atom_site_label_2
_geom_bond_distance
_geom_bond_site_symmetry_2
Y0 Y2 3.446552 1_555
Y0 Y1 3.446552 1_555
Y0 Y4 3.515047 1_566
Y0 Y4 3.515047 1_565
Y0 Y3 3.515054 1_555
Y0 Y3 3.515054 1_556
Y0 Y2 3.606248 1_655
Y0 Y1 3.606248 1_665
Y1 Y2 3.446552 1_555
Y1 Y4 3.515047 1_455
Y1 Y4 3.515047 1_456
Y1 Y5 3.515054 1_556
Y1 Y5 3.515054 1_555
Y1 Y2 3.606248 1_545
Y2 Y3 3.515047 1_456
Y2 Y3 3.515047 1_455
Y2 Y5 3.515047 1_566
Y2 Y5 3.515047 1_565
Y3 Y4 3.446552 1_555
Y3 Y5 3.446552 1_555
Y3 Y4 3.606248 1_565
Y3 Y5 3.606248 1_665
Y4 Y5 3.446552 1_555
Y4 Y5 3.606248 1_655
Mg0 Y4 3.461233 1_555
Mg0 Y4 3.461233 1_556
Mg0 Y3 3.461233 1_556
Mg0 Y5 3.461233 1_556
Mg0 Y5 3.461233 1_555
Mg0 Y3 3.461233 1_555
Mg0 Y0 3.526694 1_545
Mg0 Y1 3.526694 1_655
Mg0 Y2 3.526701 1_545
Mg0 Y2 3.526701 1_655
Mg0 Y1 3.526708 1_555
Mg0 Y0 3.526708 1_555
Mg1 Y2 3.461233 1_555
Mg1 Y2 3.461233 1_554
Mg1 Y0 3.461233 1_554
Mg1 Y1 3.461233 1_555
Mg1 Y1 3.461233 1_554
Mg1 Y0 3.461233 1_555
Mg1 Y3 3.526694 1_455
Mg1 Y5 3.526694 1_565
Mg1 Y4 3.526701 1_455
Mg1 Y4 3.526701 1_565
Mg1 Y5 3.526708 1_555
Mg1 Y3 3.526708 1_555
