# generated using pymatgen
data_Li3Yb2(BO3)3
_symmetry_space_group_name_H-M   'P 1'
_cell_length_a   13.62633600
_cell_length_b   5.89298400
_cell_length_c   9.44180925
_cell_angle_alpha   66.66595687
_cell_angle_beta   90.00000000
_cell_angle_gamma   90.00000000
_symmetry_Int_Tables_number   1
_chemical_formula_structural   Li3Yb2(BO3)3
_chemical_formula_sum   'Li12 Yb8 B12 O36'
_cell_volume   696.16496542
_cell_formula_units_Z   4
loop_
 _symmetry_equiv_pos_site_id
 _symmetry_equiv_pos_as_xyz
  1  'x, y, z'
loop_
 _atom_site_type_symbol
 _atom_site_label
 _atom_site_symmetry_multiplicity
 _atom_site_fract_x
 _atom_site_fract_y
 _atom_site_fract_z
 _atom_site_occupancy
  Li  Li0  1  0.33584200  0.91701400  0.01491400  1
  Li  Li1  1  0.66415800  0.08298600  0.98508600  1
  Li  Li2  1  0.83584200  0.08298600  0.48508600  1
  Li  Li3  1  0.16415800  0.91701400  0.51491400  1
  Li  Li4  1  0.78054200  0.92545000  0.28257600  1
  Li  Li5  1  0.21945800  0.07455000  0.71742400  1
  Li  Li6  1  0.28054200  0.07455000  0.21742400  1
  Li  Li7  1  0.71945800  0.92545000  0.78257600  1
  Li  Li8  1  0.88661900  0.54173200  0.29428600  1
  Li  Li9  1  0.11338100  0.45826800  0.70571400  1
  Li  Li10  1  0.38661900  0.45826800  0.20571400  1
  Li  Li11  1  0.61338100  0.54173200  0.79428600  1
  Yb  Yb0  1  0.65877400  0.42412500  0.21058800  1
  Yb  Yb1  1  0.34122600  0.57587500  0.78941200  1
  Yb  Yb2  1  0.15877400  0.57587500  0.28941200  1
  Yb  Yb3  1  0.84122600  0.42412500  0.71058800  1
  Yb  Yb4  1  0.50583600  0.83315100  0.33686600  1
  Yb  Yb5  1  0.49416400  0.16684900  0.66313400  1
  Yb  Yb6  1  0.00583600  0.16684900  0.16313400  1
  Yb  Yb7  1  0.99416400  0.83315100  0.83686600  1
  B  B0  1  0.98520000  0.76083200  0.48872100  1
  B  B1  1  0.01480000  0.23916800  0.51127900  1
  B  B2  1  0.48520000  0.23916800  0.01127900  1
  B  B3  1  0.51480000  0.76083200  0.98872100  1
  B  B4  1  0.83647000  0.88805300  0.03058800  1
  B  B5  1  0.16353000  0.11194700  0.96941200  1
  B  B6  1  0.33647000  0.11194700  0.46941200  1
  B  B7  1  0.66353000  0.88805300  0.53058800  1
  B  B8  1  0.82115500  0.38873600  0.02739200  1
  B  B9  1  0.17884500  0.61126400  0.97260800  1
  B  B10  1  0.32115500  0.61126400  0.47260800  1
  B  B11  1  0.67884500  0.38873600  0.52739200  1
  O  O0  1  0.89625800  0.81783000  0.41331800  1
  O  O1  1  0.10374200  0.18217000  0.58668200  1
  O  O2  1  0.39625800  0.18217000  0.08668200  1
  O  O3  1  0.60374200  0.81783000  0.91331800  1
  O  O4  1  0.59577500  0.46636800  0.43944300  1
  O  O5  1  0.40422500  0.53363200  0.56055700  1
  O  O6  1  0.09577500  0.53363200  0.06055700  1
  O  O7  1  0.90422500  0.46636800  0.93944300  1
  O  O8  1  0.75359200  0.80533000  0.12089200  1
  O  O9  1  0.24640800  0.19467000  0.87910800  1
  O  O10  1  0.25359200  0.19467000  0.37910800  1
  O  O11  1  0.74640800  0.80533000  0.62089200  1
  O  O12  1  0.56651700  0.18736100  0.10475600  1
  O  O13  1  0.43348300  0.81263900  0.89524400  1
  O  O14  1  0.06651700  0.81263900  0.39524400  1
  O  O15  1  0.93348300  0.18736100  0.60475600  1
  O  O16  1  0.92506100  0.85576500  0.10628700  1
  O  O17  1  0.07493900  0.14423500  0.89371300  1
  O  O18  1  0.42506100  0.14423500  0.39371300  1
  O  O19  1  0.57493900  0.85576500  0.60628700  1
  O  O20  1  0.82659600  0.28664200  0.18626800  1
  O  O21  1  0.17340400  0.71335800  0.81373200  1
  O  O22  1  0.32659600  0.71335800  0.31373200  1
  O  O23  1  0.67340400  0.28664200  0.68626800  1
  O  O24  1  0.50953200  0.66309800  0.14619000  1
  O  O25  1  0.49046800  0.33690200  0.85381000  1
  O  O26  1  0.00953200  0.33690200  0.35381000  1
  O  O27  1  0.99046800  0.66309800  0.64619000  1
  O  O28  1  0.76724700  0.40660000  0.45141100  1
  O  O29  1  0.23275300  0.59340000  0.54858900  1
  O  O30  1  0.26724700  0.59340000  0.04858900  1
  O  O31  1  0.73275300  0.40660000  0.95141100  1
  O  O32  1  0.66523600  0.99969100  0.37369200  1
  O  O33  1  0.33476400  0.00030900  0.62630800  1
  O  O34  1  0.16523600  0.00030900  0.12630800  1
  O  O35  1  0.83476400  0.99969100  0.87369200  1
loop_
_geom_bond_atom_site_label_1
_geom_bond_atom_site_label_2
_geom_bond_distance
_geom_bond_site_symmetry_2
Li0 O13 1.993929 1_554
Li0 O30 2.032550 1_555
Li0 O9 2.035801 1_564
Li0 O2 2.101733 1_565
Li0 O22 2.595002 1_555
Li1 O12 1.993929 1_556
Li1 O31 2.032550 1_555
Li1 O8 2.035801 1_546
Li1 O3 2.101733 1_545
Li1 O23 2.595002 1_555
Li2 O15 1.993929 1_555
Li2 O28 2.032550 1_555
Li2 O11 2.035801 1_545
Li2 O0 2.101733 1_545
Li2 O20 2.595002 1_555
Li3 O14 1.993929 1_555
Li3 O29 2.032550 1_555
Li3 O10 2.035801 1_565
Li3 O1 2.101733 1_565
Li3 O21 2.595002 1_555
Li4 O32 1.923110 1_555
Li4 O0 1.947337 1_555
Li4 O8 1.955110 1_555
Li4 O20 2.053759 1_565
Li5 O33 1.923110 1_555
Li5 O1 1.947337 1_555
Li5 O9 1.955110 1_555
Li5 O21 2.053759 1_545
Li6 O34 1.923110 1_555
Li6 O2 1.947337 1_555
Li6 O10 1.955110 1_555
Li6 O22 2.053759 1_545
Li7 O35 1.923110 1_555
Li7 O3 1.947337 1_555
Li7 O11 1.955110 1_555
Li7 O23 2.053759 1_565
Li8 O26 2.010121 1_655
Li8 O16 2.060983 1_555
Li8 O28 2.131902 1_555
Li8 O20 2.276702 1_555
Li8 O0 2.318662 1_555
Li8 O8 2.522780 1_555
Li9 O27 2.010121 1_455
Li9 O17 2.060983 1_555
Li9 O29 2.131902 1_555
Li9 O21 2.276702 1_555
Li9 O1 2.318662 1_555
Li9 O9 2.522780 1_555
Li10 O24 2.010121 1_555
Li10 O18 2.060983 1_555
Li10 O30 2.131902 1_555
Li10 O22 2.276702 1_555
Li10 O2 2.318662 1_555
Li10 O10 2.522780 1_555
Li11 O25 2.010121 1_555
Li11 O19 2.060983 1_555
Li11 O31 2.131902 1_555
Li11 O23 2.276702 1_555
Li11 O3 2.318662 1_555
Li11 O11 2.522780 1_555
B0 O27 1.367137 1_555
B0 O14 1.373499 1_655
B0 O0 1.378069 1_555
B1 O26 1.367137 1_555
B1 O15 1.373499 1_455
B1 O1 1.378069 1_555
B2 O25 1.367137 1_554
B2 O12 1.373499 1_555
B2 O2 1.378069 1_555
B3 O24 1.367137 1_556
B3 O13 1.373499 1_555
B3 O3 1.378069 1_555
B4 O35 1.362278 1_554
B4 O16 1.377163 1_555
B4 O8 1.382291 1_555
B5 O34 1.362278 1_556
B5 O17 1.377163 1_555
B5 O9 1.382291 1_555
B6 O33 1.362278 1_555
B6 O18 1.377163 1_555
B6 O10 1.382291 1_555
B7 O32 1.362278 1_555
B7 O19 1.377163 1_555
B7 O11 1.382291 1_555
B8 O7 1.370837 1_554
B8 O20 1.379402 1_555
B8 O31 1.384545 1_554
B9 O6 1.370837 1_556
B9 O21 1.379402 1_555
B9 O30 1.384545 1_556
B10 O5 1.370837 1_555
B10 O22 1.379402 1_555
B10 O29 1.384545 1_555
B11 O4 1.370837 1_555
B11 O23 1.379402 1_555
B11 O28 1.384545 1_555
O0 Yb6 2.861977 1_665
O0 Yb3 2.943544 1_555
O1 Yb7 2.861977 1_445
O1 Yb2 2.943544 1_555
O2 Yb4 2.861977 1_545
O2 Yb1 2.943544 1_554
O3 Yb5 2.861977 1_565
O3 Yb0 2.943544 1_556
O4 Yb4 2.335266 1_555
O4 Yb0 2.427776 1_555
O4 Yb5 2.557360 1_555
O5 Yb5 2.335266 1_555
O5 Yb1 2.427776 1_555
O5 Yb4 2.557360 1_555
O6 Yb6 2.335266 1_555
O6 Yb2 2.427776 1_555
O6 Yb7 2.557360 1_454
O7 Yb7 2.335266 1_555
O7 Yb3 2.427776 1_555
O7 Yb6 2.557360 1_656
O8 Yb0 2.434317 1_555
O9 Yb1 2.434317 1_555
O10 Yb2 2.434317 1_555
O11 Yb3 2.434317 1_555
O12 Yb0 2.372767 1_555
O12 Yb4 2.493939 1_545
O13 Yb1 2.372767 1_555
O13 Yb5 2.493939 1_565
O14 Yb2 2.372767 1_555
O14 Yb6 2.493939 1_565
O15 Yb3 2.372767 1_555
O15 Yb7 2.493939 1_545
O16 Yb6 2.374805 1_665
O16 Yb7 2.764776 1_554
O17 Yb7 2.374805 1_445
O17 Yb6 2.764776 1_556
O18 Yb4 2.374805 1_545
O18 Yb5 2.764776 1_555
O19 Yb5 2.374805 1_565
O19 Yb4 2.764776 1_555
O20 Yb0 2.466973 1_555
O20 Yb6 2.575549 1_655
O21 Yb1 2.466973 1_555
O21 Yb7 2.575549 1_455
O22 Yb2 2.466973 1_555
O22 Yb4 2.575549 1_555
O23 Yb3 2.466973 1_555
O23 Yb5 2.575549 1_555
O24 Yb4 2.382680 1_555
O24 Yb0 2.410437 1_555
O25 Yb5 2.382680 1_555
O25 Yb1 2.410437 1_555
O26 Yb6 2.382680 1_555
O26 Yb2 2.410437 1_555
O27 Yb7 2.382680 1_555
O27 Yb3 2.410437 1_555
O28 Yb0 2.679473 1_555
O28 Yb3 2.686142 1_555
O29 Yb1 2.679473 1_555
O29 Yb2 2.686142 1_555
O30 Yb2 2.679473 1_555
O30 Yb1 2.686142 1_554
O31 Yb3 2.679473 1_555
O31 Yb0 2.686142 1_556
O32 Yb0 2.363032 1_565
O32 Yb4 2.464174 1_555
O33 Yb1 2.363032 1_545
O33 Yb5 2.464174 1_555
O34 Yb2 2.363032 1_545
O34 Yb6 2.464174 1_555
O35 Yb3 2.363032 1_565
O35 Yb7 2.464174 1_555
