# generated using pymatgen
data_Ba10Gd4Y(Cu3O7)5
_symmetry_space_group_name_H-M   'P 1'
_cell_length_a   3.92824267
_cell_length_b   11.84618144
_cell_length_c   19.24081414
_cell_angle_alpha   90.00000000
_cell_angle_beta   90.00000000
_cell_angle_gamma   90.00000000
_symmetry_Int_Tables_number   1
_chemical_formula_structural   Ba10Gd4Y(Cu3O7)5
_chemical_formula_sum   'Ba10 Gd4 Y1 Cu15 O35'
_cell_volume   895.36504061
_cell_formula_units_Z   1
loop_
 _symmetry_equiv_pos_site_id
 _symmetry_equiv_pos_as_xyz
  1  'x, y, z'
loop_
 _atom_site_type_symbol
 _atom_site_label
 _atom_site_symmetry_multiplicity
 _atom_site_fract_x
 _atom_site_fract_y
 _atom_site_fract_z
 _atom_site_occupancy
  Ba  Ba0  1  0.50000000  0.18012035  0.10003802  1
  Ba  Ba1  1  0.50000000  0.18014015  0.29994118  1
  Ba  Ba2  1  0.50000000  0.18014015  0.50005882  1
  Ba  Ba3  1  0.50000000  0.18012035  0.69996198  1
  Ba  Ba4  1  0.50000000  0.18046618  0.90000000  1
  Ba  Ba5  1  0.50000000  0.81987965  0.10003802  1
  Ba  Ba6  1  0.50000000  0.81985985  0.29994118  1
  Ba  Ba7  1  0.50000000  0.81985985  0.50005882  1
  Ba  Ba8  1  0.50000000  0.81987965  0.69996198  1
  Ba  Ba9  1  0.50000000  0.81953382  0.90000000  1
  Gd  Gd0  1  0.50000000  0.50000000  0.09977072  1
  Gd  Gd1  1  0.50000000  0.50000000  0.29994063  1
  Gd  Gd2  1  0.50000000  0.50000000  0.50005937  1
  Gd  Gd3  1  0.50000000  0.50000000  0.70022928  1
  Y  Y0  1  0.50000000  0.50000000  0.90000000  1
  Cu  Cu0  1  -0.00000000  0.35142869  0.99958603  1
  Cu  Cu1  1  -0.00000000  0.35079658  0.19994266  1
  Cu  Cu2  1  0.00000000  0.35076063  0.40000000  1
  Cu  Cu3  1  0.00000000  0.35079658  0.60005734  1
  Cu  Cu4  1  -0.00000000  0.35142869  0.80041397  1
  Cu  Cu5  1  0.00000000  0.64857131  0.99958603  1
  Cu  Cu6  1  0.00000000  0.64920342  0.19994266  1
  Cu  Cu7  1  0.00000000  0.64923937  0.40000000  1
  Cu  Cu8  1  0.00000000  0.64920342  0.60005734  1
  Cu  Cu9  1  -0.00000000  0.64857131  0.80041397  1
  Cu  Cu10  1  -0.00000000  -0.00000000  -0.00002099  1
  Cu  Cu11  1  0.00000000  -0.00000000  0.19997821  1
  Cu  Cu12  1  0.00000000  -0.00000000  0.40000000  1
  Cu  Cu13  1  -0.00000000  -0.00000000  0.60002179  1
  Cu  Cu14  1  0.00000000  -0.00000000  0.80002099  1
  O  O0  1  0.00000000  0.15848112  -0.00009257  1
  O  O1  1  0.00000000  0.15824546  0.19997953  1
  O  O2  1  -0.00000000  0.15829708  0.40000000  1
  O  O3  1  0.00000000  0.15824546  0.60002047  1
  O  O4  1  0.00000000  0.15848112  0.80009257  1
  O  O5  1  0.00000000  0.84151888  -0.00009257  1
  O  O6  1  -0.00000000  0.84175454  0.19997953  1
  O  O7  1  -0.00000000  0.84170292  0.40000000  1
  O  O8  1  -0.00000000  0.84175454  0.60002047  1
  O  O9  1  0.00000000  0.84151888  0.80009257  1
  O  O10  1  0.50000000  0.37741374  0.99883631  1
  O  O11  1  0.50000000  0.37614042  0.19989305  1
  O  O12  1  0.50000000  0.37612723  0.40000000  1
  O  O13  1  0.50000000  0.37614042  0.60010695  1
  O  O14  1  0.50000000  0.37741374  0.80116369  1
  O  O15  1  0.50000000  0.62258626  0.99883631  1
  O  O16  1  0.50000000  0.62385958  0.19989305  1
  O  O17  1  0.50000000  0.62387277  0.40000000  1
  O  O18  1  0.50000000  0.62385958  0.60010695  1
  O  O19  1  0.50000000  0.62258626  0.80116369  1
  O  O20  1  0.50000000  -0.00000000  0.00000486  1
  O  O21  1  0.50000000  -0.00000000  0.19993019  1
  O  O22  1  0.50000000  -0.00000000  0.40000000  1
  O  O23  1  0.50000000  -0.00000000  0.60006981  1
  O  O24  1  0.50000000  -0.00000000  0.79999514  1
  O  O25  1  0.00000000  0.37679713  0.09969960  1
  O  O26  1  0.00000000  0.37689256  0.29999123  1
  O  O27  1  -0.00000000  0.37689256  0.50000877  1
  O  O28  1  -0.00000000  0.37679713  0.70030040  1
  O  O29  1  -0.00000000  0.37984332  0.90000000  1
  O  O30  1  0.00000000  0.62320287  0.09969960  1
  O  O31  1  0.00000000  0.62310744  0.29999123  1
  O  O32  1  -0.00000000  0.62310744  0.50000877  1
  O  O33  1  0.00000000  0.62320287  0.70030040  1
  O  O34  1  -0.00000000  0.62015668  0.90000000  1
loop_
_geom_bond_atom_site_label_1
_geom_bond_atom_site_label_2
_geom_bond_distance
_geom_bond_site_symmetry_2
Ba0 O1 2.760921 1_555
Ba0 O1 2.760921 1_655
Ba0 O0 2.763195 1_555
Ba0 O0 2.763195 1_655
Ba0 O21 2.871750 1_555
Ba0 O20 2.873566 1_555
Ba0 O11 3.013878 1_555
Ba0 O10 3.042035 1_554
Ba0 O25 3.047311 1_555
Ba0 O25 3.047311 1_655
Ba1 O1 2.761213 1_655
Ba1 O1 2.761213 1_555
Ba1 O2 2.762458 1_555
Ba1 O2 2.762458 1_655
Ba1 O21 2.873455 1_555
Ba1 O22 2.874071 1_555
Ba1 O11 3.016068 1_555
Ba1 O12 3.016079 1_555
Ba1 O26 3.047989 1_555
Ba1 O26 3.047989 1_655
Ba2 O3 2.761213 1_655
Ba2 O3 2.761213 1_555
Ba2 O2 2.762458 1_555
Ba2 O2 2.762458 1_655
Ba2 O23 2.873455 1_555
Ba2 O22 2.874071 1_555
Ba2 O13 3.016068 1_555
Ba2 O12 3.016079 1_555
Ba2 O27 3.047989 1_555
Ba2 O27 3.047989 1_655
Ba3 O3 2.760921 1_655
Ba3 O3 2.760921 1_555
Ba3 O4 2.763195 1_655
Ba3 O4 2.763195 1_555
Ba3 O23 2.871750 1_555
Ba3 O24 2.873566 1_555
Ba3 O13 3.013878 1_555
Ba3 O14 3.042035 1_555
Ba3 O28 3.047311 1_555
Ba3 O28 3.047311 1_655
Ba4 O0 2.760587 1_556
Ba4 O0 2.760587 1_656
Ba4 O4 2.760587 1_555
Ba4 O4 2.760587 1_655
Ba4 O24 2.876245 1_555
Ba4 O20 2.876245 1_556
Ba4 O14 3.009929 1_555
Ba4 O10 3.009929 1_555
Ba4 O29 3.071831 1_655
Ba4 O29 3.071831 1_555
Ba5 O6 2.760921 1_655
Ba5 O6 2.760921 1_555
Ba5 O5 2.763195 1_555
Ba5 O5 2.763195 1_655
Ba5 O21 2.871750 1_565
Ba5 O20 2.873566 1_565
Ba5 O16 3.013878 1_555
Ba5 O15 3.042035 1_554
Ba5 O30 3.047311 1_555
Ba5 O30 3.047311 1_655
Ba6 O6 2.761213 1_655
Ba6 O6 2.761213 1_555
Ba6 O7 2.762458 1_555
Ba6 O7 2.762458 1_655
Ba6 O21 2.873455 1_565
Ba6 O22 2.874071 1_565
Ba6 O16 3.016068 1_555
Ba6 O17 3.016079 1_555
Ba6 O31 3.047989 1_555
Ba6 O31 3.047989 1_655
Ba7 O8 2.761213 1_555
Ba7 O8 2.761213 1_655
Ba7 O7 2.762458 1_555
Ba7 O7 2.762458 1_655
Ba7 O23 2.873455 1_565
Ba7 O22 2.874071 1_565
Ba7 O18 3.016068 1_555
Ba7 O17 3.016079 1_555
Ba7 O32 3.047989 1_655
Ba7 O32 3.047989 1_555
Ba8 O8 2.760921 1_655
Ba8 O8 2.760921 1_555
Ba8 O9 2.763195 1_655
Ba8 O9 2.763195 1_555
Ba8 O23 2.871750 1_565
Ba8 O24 2.873566 1_565
Ba8 O18 3.013878 1_555
Ba8 O19 3.042035 1_555
Ba8 O33 3.047311 1_555
Ba8 O33 3.047311 1_655
Ba9 O9 2.760587 1_555
Ba9 O9 2.760587 1_655
Ba9 O5 2.760587 1_556
Ba9 O5 2.760587 1_656
Ba9 O24 2.876245 1_565
Ba9 O20 2.876245 1_566
Ba9 O15 3.009929 1_555
Ba9 O19 3.009929 1_555
Ba9 O34 3.071831 1_555
Ba9 O34 3.071831 1_655
Gd0 O16 2.421572 1_555
Gd0 O11 2.421572 1_555
Gd0 O10 2.424958 1_554
Gd0 O15 2.424958 1_554
Gd0 O30 2.447012 1_655
Gd0 O30 2.447012 1_555
Gd0 O25 2.447012 1_655
Gd0 O25 2.447012 1_555
Gd1 O11 2.420428 1_555
Gd1 O16 2.420428 1_555
Gd1 O17 2.420704 1_555
Gd1 O12 2.420704 1_555
Gd1 O26 2.446338 1_555
Gd1 O26 2.446338 1_655
Gd1 O31 2.446338 1_555
Gd1 O31 2.446338 1_655
Gd2 O18 2.420428 1_555
Gd2 O13 2.420428 1_555
Gd2 O17 2.420704 1_555
Gd2 O12 2.420704 1_555
Gd2 O27 2.446338 1_555
Gd2 O27 2.446338 1_655
Gd2 O32 2.446338 1_555
Gd2 O32 2.446338 1_655
Gd3 O13 2.421572 1_555
Gd3 O18 2.421572 1_555
Gd3 O14 2.424958 1_555
Gd3 O19 2.424958 1_555
Gd3 O33 2.447012 1_655
Gd3 O33 2.447012 1_555
Gd3 O28 2.447012 1_655
Gd3 O28 2.447012 1_555
Cu0 O29 1.945457 1_555
Cu0 O25 1.949568 1_556
Cu0 O10 1.988149 1_455
Cu0 O10 1.988149 1_555
Cu0 O0 2.285700 1_556
Cu1 O26 1.949680 1_555
Cu1 O25 1.953196 1_555
Cu1 O11 1.986935 1_555
Cu1 O11 1.986935 1_455
Cu1 O1 2.280996 1_555
Cu2 O27 1.948992 1_555
Cu2 O26 1.948992 1_555
Cu2 O12 1.986975 1_455
Cu2 O12 1.986975 1_555
Cu2 O2 2.279958 1_555
Cu3 O27 1.949680 1_555
Cu3 O28 1.953196 1_555
Cu3 O13 1.986935 1_555
Cu3 O13 1.986935 1_455
Cu3 O3 2.280996 1_555
Cu4 O29 1.945457 1_555
Cu4 O28 1.949568 1_555
Cu4 O14 1.988149 1_555
Cu4 O14 1.988149 1_455
Cu4 O4 2.285700 1_555
Cu5 O34 1.945457 1_555
Cu5 O30 1.949568 1_556
Cu5 O15 1.988149 1_555
Cu5 O15 1.988149 1_455
Cu5 O5 2.285700 1_556
Cu6 O31 1.949680 1_555
Cu6 O30 1.953196 1_555
Cu6 O16 1.986935 1_455
Cu6 O16 1.986935 1_555
Cu6 O6 2.280996 1_555
Cu7 O32 1.948992 1_555
Cu7 O31 1.948992 1_555
Cu7 O17 1.986975 1_555
Cu7 O17 1.986975 1_455
Cu7 O7 2.279958 1_555
Cu8 O32 1.949680 1_555
Cu8 O33 1.953196 1_555
Cu8 O18 1.986935 1_455
Cu8 O18 1.986935 1_555
Cu8 O8 2.280996 1_555
Cu9 O34 1.945457 1_555
Cu9 O33 1.949568 1_555
Cu9 O19 1.988149 1_455
Cu9 O19 1.988149 1_555
Cu9 O9 2.285700 1_555
Cu10 O0 1.877397 1_555
Cu10 O5 1.877397 1_545
Cu10 O20 1.964121 1_555
Cu10 O20 1.964121 1_455
Cu11 O6 1.874604 1_545
Cu11 O1 1.874604 1_555
Cu11 O21 1.964122 1_555
Cu11 O21 1.964122 1_455
Cu12 O7 1.875216 1_545
Cu12 O2 1.875216 1_555
Cu12 O22 1.964121 1_455
Cu12 O22 1.964121 1_555
Cu13 O8 1.874604 1_545
Cu13 O3 1.874604 1_555
Cu13 O23 1.964122 1_555
Cu13 O23 1.964122 1_455
Cu14 O4 1.877397 1_555
Cu14 O9 1.877397 1_545
Cu14 O24 1.964121 1_555
Cu14 O24 1.964121 1_455
O10 Y0 2.392750 1_555
O14 Y0 2.392750 1_555
O15 Y0 2.392750 1_555
O19 Y0 2.392750 1_555
O29 Y0 2.425662 1_555
O29 Y0 2.425662 1_455
O34 Y0 2.425662 1_555
O34 Y0 2.425662 1_455
