# generated using pymatgen
data_IrOsRu
_symmetry_space_group_name_H-M   'P 1'
_cell_length_a   5.45451030
_cell_length_b   5.45451030
_cell_length_c   13.34702600
_cell_angle_alpha   90.00000000
_cell_angle_beta   90.00000000
_cell_angle_gamma   119.99997944
_symmetry_Int_Tables_number   1
_chemical_formula_structural   IrOsRu
_chemical_formula_sum   'Ir8 Os8 Ru8'
_cell_volume   343.89571250
_cell_formula_units_Z   8
loop_
 _symmetry_equiv_pos_site_id
 _symmetry_equiv_pos_as_xyz
  1  'x, y, z'
loop_
 _atom_site_type_symbol
 _atom_site_label
 _atom_site_symmetry_multiplicity
 _atom_site_fract_x
 _atom_site_fract_y
 _atom_site_fract_z
 _atom_site_occupancy
  Ir  Ir0_0  1  0.00000000  0.00000000  0.00038450  1
  Ir  Ir0_1  1  0.00000000  0.00000000  0.50038450  1
  Ir  Ir0_2  1  0.00000000  0.50000000  0.00038450  1
  Ir  Ir0_3  1  0.00000000  0.50000000  0.50038450  1
  Ir  Ir0_4  1  0.50000000  0.00000000  0.00038450  1
  Ir  Ir0_5  1  0.50000000  0.00000000  0.50038450  1
  Ir  Ir0_6  1  0.50000000  0.50000000  0.00038450  1
  Ir  Ir0_7  1  0.50000000  0.50000000  0.50038450  1
  Os  Os0_0  1  0.33333350  0.16666650  0.16906200  1
  Os  Os0_1  1  0.33333350  0.16666650  0.66906200  1
  Os  Os0_2  1  0.33333350  0.66666650  0.16906200  1
  Os  Os0_3  1  0.33333350  0.66666650  0.66906200  1
  Os  Os0_4  1  0.83333350  0.16666650  0.16906200  1
  Os  Os0_5  1  0.83333350  0.16666650  0.66906200  1
  Os  Os0_6  1  0.83333350  0.66666650  0.16906200  1
  Os  Os0_7  1  0.83333350  0.66666650  0.66906200  1
  Ru  Ru0_0  1  0.16666650  0.33333350  0.33055350  1
  Ru  Ru0_1  1  0.16666650  0.33333350  0.83055350  1
  Ru  Ru0_2  1  0.16666650  0.83333350  0.33055350  1
  Ru  Ru0_3  1  0.16666650  0.83333350  0.83055350  1
  Ru  Ru0_4  1  0.66666650  0.33333350  0.33055350  1
  Ru  Ru0_5  1  0.66666650  0.33333350  0.83055350  1
  Ru  Ru0_6  1  0.66666650  0.83333350  0.33055350  1
  Ru  Ru0_7  1  0.66666650  0.83333350  0.83055350  1
loop_
_geom_bond_atom_site_label_1
_geom_bond_atom_site_label_2
_geom_bond_distance
_geom_bond_site_symmetry_2
Ir0_0 Ir0_2 2.727255 1_545
Ir0_0 Ir0_2 2.727255 1_555
Ir0_0 Ir0_4 2.727255 1_455
Ir0_0 Ir0_4 2.727255 1_555
Ir0_0 Ir0_6 2.727256 1_445
Ir0_0 Ir0_6 2.727256 1_555
Ir0_0 Os0_4 2.747334 1_455
Ir0_0 Os0_6 2.747336 1_445
Ir0_0 Os0_0 2.747336 1_555
Ir0_0 Ru0_3 2.759965 1_544
Ir0_0 Ru0_1 2.759966 1_554
Ir0_0 Ru0_7 2.759966 1_444
Ir0_1 Ir0_5 2.727255 1_555
Ir0_1 Ir0_3 2.727255 1_545
Ir0_1 Ir0_3 2.727255 1_555
Ir0_1 Ir0_5 2.727255 1_455
Ir0_1 Ir0_7 2.727256 1_445
Ir0_1 Ir0_7 2.727256 1_555
Ir0_1 Os0_5 2.747334 1_455
Ir0_1 Os0_7 2.747336 1_445
Ir0_1 Os0_1 2.747336 1_555
Ir0_1 Ru0_2 2.759965 1_545
Ir0_1 Ru0_6 2.759966 1_445
Ir0_1 Ru0_0 2.759966 1_555
Ir0_2 Ir0_6 2.727255 1_555
Ir0_2 Ir0_6 2.727255 1_455
Ir0_2 Ir0_4 2.727256 1_455
Ir0_2 Ir0_4 2.727256 1_565
Ir0_2 Os0_6 2.747334 1_455
Ir0_2 Os0_2 2.747336 1_555
Ir0_2 Os0_4 2.747336 1_455
Ir0_2 Ru0_1 2.759965 1_554
Ir0_2 Ru0_3 2.759966 1_554
Ir0_2 Ru0_5 2.759966 1_454
Ir0_3 Ir0_7 2.727255 1_455
Ir0_3 Ir0_7 2.727255 1_555
Ir0_3 Ir0_5 2.727256 1_455
Ir0_3 Ir0_5 2.727256 1_565
Ir0_3 Os0_7 2.747334 1_455
Ir0_3 Os0_5 2.747336 1_455
Ir0_3 Os0_3 2.747336 1_555
Ir0_3 Ru0_0 2.759965 1_555
Ir0_3 Ru0_2 2.759966 1_555
Ir0_3 Ru0_4 2.759966 1_455
Ir0_4 Ir0_6 2.727255 1_545
Ir0_4 Ir0_6 2.727255 1_555
Ir0_4 Os0_0 2.747334 1_555
Ir0_4 Os0_4 2.747336 1_555
Ir0_4 Os0_2 2.747336 1_545
Ir0_4 Ru0_7 2.759965 1_544
Ir0_4 Ru0_5 2.759966 1_554
Ir0_4 Ru0_3 2.759966 1_544
Ir0_5 Ir0_7 2.727255 1_545
Ir0_5 Ir0_7 2.727255 1_555
Ir0_5 Os0_1 2.747334 1_555
Ir0_5 Os0_5 2.747336 1_555
Ir0_5 Os0_3 2.747336 1_545
Ir0_5 Ru0_6 2.759965 1_545
Ir0_5 Ru0_4 2.759966 1_555
Ir0_5 Ru0_2 2.759966 1_545
Ir0_6 Os0_2 2.747334 1_555
Ir0_6 Os0_0 2.747336 1_555
Ir0_6 Os0_6 2.747336 1_555
Ir0_6 Ru0_5 2.759965 1_554
Ir0_6 Ru0_1 2.759966 1_554
Ir0_6 Ru0_7 2.759966 1_554
Ir0_7 Os0_3 2.747334 1_555
Ir0_7 Os0_1 2.747336 1_555
Ir0_7 Os0_7 2.747336 1_555
Ir0_7 Ru0_4 2.759965 1_555
Ir0_7 Ru0_0 2.759966 1_555
Ir0_7 Ru0_6 2.759966 1_555
Os0_0 Ru0_4 2.669305 1_555
Os0_0 Ru0_2 2.669305 1_545
Os0_0 Ru0_0 2.669307 1_555
Os0_0 Os0_2 2.727255 1_555
Os0_0 Os0_4 2.727255 1_555
Os0_0 Os0_4 2.727255 1_455
Os0_0 Os0_2 2.727255 1_545
Os0_0 Os0_6 2.727256 1_445
Os0_0 Os0_6 2.727256 1_555
Os0_1 Ru0_5 2.669305 1_555
Os0_1 Ru0_3 2.669305 1_545
Os0_1 Ru0_1 2.669307 1_555
Os0_1 Os0_5 2.727255 1_555
Os0_1 Os0_3 2.727255 1_555
Os0_1 Os0_3 2.727255 1_545
Os0_1 Os0_5 2.727255 1_455
Os0_1 Os0_7 2.727256 1_445
Os0_1 Os0_7 2.727256 1_555
Os0_2 Ru0_6 2.669305 1_555
Os0_2 Ru0_0 2.669305 1_555
Os0_2 Ru0_2 2.669307 1_555
Os0_2 Os0_6 2.727255 1_455
Os0_2 Os0_6 2.727255 1_555
Os0_2 Os0_4 2.727256 1_565
Os0_2 Os0_4 2.727256 1_455
Os0_3 Ru0_7 2.669305 1_555
Os0_3 Ru0_1 2.669305 1_555
Os0_3 Ru0_3 2.669307 1_555
Os0_3 Os0_7 2.727255 1_455
Os0_3 Os0_7 2.727255 1_555
Os0_3 Os0_5 2.727256 1_565
Os0_3 Os0_5 2.727256 1_455
Os0_4 Ru0_6 2.669305 1_545
Os0_4 Ru0_0 2.669305 1_655
Os0_4 Ru0_4 2.669307 1_555
Os0_4 Os0_6 2.727255 1_555
Os0_4 Os0_6 2.727255 1_545
Os0_5 Ru0_7 2.669305 1_545
Os0_5 Ru0_1 2.669305 1_655
Os0_5 Ru0_5 2.669307 1_555
Os0_5 Os0_7 2.727255 1_555
Os0_5 Os0_7 2.727255 1_545
Os0_6 Ru0_4 2.669305 1_555
Os0_6 Ru0_2 2.669305 1_655
Os0_6 Ru0_6 2.669307 1_555
Os0_7 Ru0_5 2.669305 1_555
Os0_7 Ru0_3 2.669305 1_655
Os0_7 Ru0_7 2.669307 1_555
Ru0_0 Ru0_4 2.727255 1_555
Ru0_0 Ru0_2 2.727255 1_555
Ru0_0 Ru0_2 2.727255 1_545
Ru0_0 Ru0_4 2.727255 1_455
Ru0_0 Ru0_6 2.727256 1_555
Ru0_0 Ru0_6 2.727256 1_445
Ru0_1 Ru0_3 2.727255 1_555
Ru0_1 Ru0_5 2.727255 1_555
Ru0_1 Ru0_3 2.727255 1_545
Ru0_1 Ru0_5 2.727255 1_455
Ru0_1 Ru0_7 2.727256 1_555
Ru0_1 Ru0_7 2.727256 1_445
Ru0_2 Ru0_6 2.727255 1_555
Ru0_2 Ru0_6 2.727255 1_455
Ru0_2 Ru0_4 2.727256 1_565
Ru0_2 Ru0_4 2.727256 1_455
Ru0_3 Ru0_7 2.727255 1_555
Ru0_3 Ru0_7 2.727255 1_455
Ru0_3 Ru0_5 2.727256 1_565
Ru0_3 Ru0_5 2.727256 1_455
Ru0_4 Ru0_6 2.727255 1_545
Ru0_4 Ru0_6 2.727255 1_555
Ru0_5 Ru0_7 2.727255 1_545
Ru0_5 Ru0_7 2.727255 1_555
