# generated using pymatgen
data_Ba3UAgS6
_symmetry_space_group_name_H-M   'P 1'
_cell_length_a   8.51861807
_cell_length_b   8.51861807
_cell_length_c   8.51861753
_cell_angle_alpha   92.69647931
_cell_angle_beta   92.69647931
_cell_angle_gamma   92.69648049
_symmetry_Int_Tables_number   1
_chemical_formula_structural   Ba3UAgS6
_chemical_formula_sum   'Ba6 U2 Ag2 S12'
_cell_volume   616.04903729
_cell_formula_units_Z   2
loop_
 _symmetry_equiv_pos_site_id
 _symmetry_equiv_pos_as_xyz
  1  'x, y, z'
loop_
 _atom_site_type_symbol
 _atom_site_label
 _atom_site_symmetry_multiplicity
 _atom_site_fract_x
 _atom_site_fract_y
 _atom_site_fract_z
 _atom_site_occupancy
  Ba  Ba0  1  0.37554200  0.12445800  0.75000000  1
  Ba  Ba1  1  0.75000000  0.37554200  0.12445800  1
  Ba  Ba2  1  0.12445800  0.75000000  0.37554200  1
  Ba  Ba3  1  0.25000000  0.62445800  0.87554200  1
  Ba  Ba4  1  0.87554200  0.25000000  0.62445800  1
  Ba  Ba5  1  0.62445800  0.87554200  0.25000000  1
  U  U0  1  0.50000000  0.50000000  0.50000000  1
  U  U1  1  0.00000000  0.00000000  0.00000000  1
  Ag  Ag0  1  0.25000000  0.25000000  0.25000000  1
  Ag  Ag1  1  0.75000000  0.75000000  0.75000000  1
  S  S0  1  0.20687300  0.41663700  0.54829300  1
  S  S1  1  0.54829300  0.20687300  0.41663700  1
  S  S2  1  0.41663700  0.54829300  0.20687300  1
  S  S3  1  0.04829300  0.91663700  0.70687300  1
  S  S4  1  0.70687300  0.04829300  0.91663700  1
  S  S5  1  0.91663700  0.70687300  0.04829300  1
  S  S6  1  0.79312700  0.58336300  0.45170700  1
  S  S7  1  0.45170700  0.79312700  0.58336300  1
  S  S8  1  0.58336300  0.45170700  0.79312700  1
  S  S9  1  0.95170700  0.08336300  0.29312700  1
  S  S10  1  0.29312700  0.95170700  0.08336300  1
  S  S11  1  0.08336300  0.29312700  0.95170700  1
loop_
_geom_bond_atom_site_label_1
_geom_bond_atom_site_label_2
_geom_bond_distance
_geom_bond_site_symmetry_2
Ba0 S4 3.206928 1_555
Ba0 S7 3.206928 1_545
Ba0 S3 3.227772 1_545
Ba0 S8 3.227772 1_555
Ba0 S10 3.347611 1_546
Ba0 S1 3.347611 1_555
Ba0 S11 3.423218 1_555
Ba0 S0 3.423218 1_555
Ba1 S8 3.206928 1_554
Ba1 S5 3.206928 1_555
Ba1 S6 3.227772 1_555
Ba1 S4 3.227772 1_554
Ba1 S11 3.347611 1_654
Ba1 S2 3.347611 1_555
Ba1 S1 3.423218 1_555
Ba1 S9 3.423218 1_555
Ba2 S3 3.206928 1_555
Ba2 S6 3.206928 1_455
Ba2 S5 3.227772 1_455
Ba2 S7 3.227772 1_555
Ba2 S0 3.347611 1_555
Ba2 S9 3.347611 1_465
Ba2 S10 3.423218 1_555
Ba2 S2 3.423218 1_555
Ba3 S2 3.206928 1_556
Ba3 S11 3.206928 1_555
Ba3 S0 3.227772 1_555
Ba3 S10 3.227772 1_556
Ba3 S5 3.347611 1_456
Ba3 S8 3.347611 1_555
Ba3 S7 3.423218 1_555
Ba3 S3 3.423218 1_555
Ba4 S9 3.206928 1_555
Ba4 S0 3.206928 1_655
Ba4 S11 3.227772 1_655
Ba4 S1 3.227772 1_555
Ba4 S6 3.347611 1_555
Ba4 S3 3.347611 1_645
Ba4 S4 3.423218 1_555
Ba4 S8 3.423218 1_555
Ba5 S10 3.206928 1_555
Ba5 S1 3.206928 1_565
Ba5 S9 3.227772 1_565
Ba5 S2 3.227772 1_555
Ba5 S4 3.347611 1_564
Ba5 S7 3.347611 1_555
Ba5 S5 3.423218 1_555
Ba5 S6 3.423218 1_555
Ag0 S11 2.899038 1_554
Ag0 S0 2.899038 1_555
Ag0 S10 2.899038 1_545
Ag0 S1 2.899038 1_555
Ag0 S2 2.899038 1_555
Ag0 S9 2.899038 1_455
Ag1 S5 2.899038 1_556
Ag1 S6 2.899038 1_555
Ag1 S4 2.899038 1_565
Ag1 S7 2.899038 1_555
Ag1 S3 2.899038 1_655
Ag1 S8 2.899038 1_555
S0 U0 2.620311 1_555
S1 U0 2.620311 1_555
S2 U0 2.620311 1_555
S3 U1 2.620311 1_566
S4 U1 2.620311 1_656
S5 U1 2.620311 1_665
S6 U0 2.620311 1_555
S7 U0 2.620311 1_555
S8 U0 2.620311 1_555
S9 U1 2.620311 1_655
S10 U1 2.620311 1_565
S11 U1 2.620311 1_556
