# generated using pymatgen
data_TaTiZn(PO4)3
_symmetry_space_group_name_H-M   'P 1'
_cell_length_a   9.34432241
_cell_length_b   9.34432220
_cell_length_c   9.34432201
_cell_angle_alpha   54.24760739
_cell_angle_beta   54.24760932
_cell_angle_gamma   54.24761319
_symmetry_Int_Tables_number   1
_chemical_formula_structural   TaTiZn(PO4)3
_chemical_formula_sum   'Ta2 Ti2 Zn2 P6 O24'
_cell_volume   499.49032914
_cell_formula_units_Z   2
loop_
 _symmetry_equiv_pos_site_id
 _symmetry_equiv_pos_as_xyz
  1  'x, y, z'
loop_
 _atom_site_type_symbol
 _atom_site_label
 _atom_site_symmetry_multiplicity
 _atom_site_fract_x
 _atom_site_fract_y
 _atom_site_fract_z
 _atom_site_occupancy
  Ta  Ta0  1  0.35087100  0.35087100  0.35087100  1
  Ta  Ta1  1  0.85087100  0.85087100  0.85087100  1
  Ti  Ti0  1  0.15088500  0.15088500  0.15088500  1
  Ti  Ti1  1  0.65088500  0.65088500  0.65088500  1
  Zn  Zn0  1  0.00301000  0.00301000  0.00301000  1
  Zn  Zn1  1  0.50301000  0.50301000  0.50301000  1
  P  P0  1  0.02800100  0.46196100  0.75781900  1
  P  P1  1  0.46196100  0.75781900  0.02800100  1
  P  P2  1  0.75781900  0.02800100  0.46196100  1
  P  P3  1  0.25781900  0.96196100  0.52800100  1
  P  P4  1  0.52800100  0.25781900  0.96196100  1
  P  P5  1  0.96196100  0.52800100  0.25781900  1
  O  O0  1  0.14279900  0.50744800  0.25242200  1
  O  O1  1  0.25242200  0.14279900  0.50744800  1
  O  O2  1  0.07230300  0.29656300  0.93311900  1
  O  O3  1  0.50744800  0.25242200  0.14279900  1
  O  O4  1  0.00744800  0.64279900  0.75242200  1
  O  O5  1  0.19479500  0.42778000  0.57231900  1
  O  O6  1  0.29656300  0.93311900  0.07230300  1
  O  O7  1  0.42778000  0.57231900  0.19479500  1
  O  O8  1  0.25966000  0.98905100  0.34919500  1
  O  O9  1  0.57231900  0.19479500  0.42778000  1
  O  O10  1  0.07231900  0.92778000  0.69479500  1
  O  O11  1  0.34919500  0.25966000  0.98905100  1
  O  O12  1  0.64279900  0.75242200  0.00744800  1
  O  O13  1  0.93311900  0.07230300  0.29656300  1
  O  O14  1  0.43311900  0.79656300  0.57230300  1
  O  O15  1  0.75242200  0.00744800  0.64279900  1
  O  O16  1  0.57230300  0.43311900  0.79656300  1
  O  O17  1  0.69479500  0.07231900  0.92778000  1
  O  O18  1  0.79656300  0.57230300  0.43311900  1
  O  O19  1  0.98905100  0.34919500  0.25966000  1
  O  O20  1  0.48905100  0.75966000  0.84919500  1
  O  O21  1  0.92778000  0.69479500  0.07231900  1
  O  O22  1  0.75966000  0.84919500  0.48905100  1
  O  O23  1  0.84919500  0.48905100  0.75966000  1
loop_
_geom_bond_atom_site_label_1
_geom_bond_atom_site_label_2
_geom_bond_distance
_geom_bond_site_symmetry_2
O0 P5 1.558003 1_455
O0 Ta0 1.990048 1_555
O1 P3 1.558003 1_545
O1 Ta0 1.990047 1_555
O2 P0 1.526307 1_555
O2 Ti0 1.968254 1_556
O3 P4 1.558003 1_554
O3 Ta0 1.990048 1_555
O4 P0 1.558003 1_555
O4 Ta1 1.990048 1_455
O5 P0 1.563331 1_555
O5 Ta0 1.977826 1_555
O6 P1 1.526307 1_555
O6 Ti0 1.968254 1_565
O7 P1 1.563330 1_555
O7 Ta0 1.977826 1_555
O8 P3 1.527506 1_555
O8 Ti0 1.970798 1_565
O9 P2 1.563331 1_555
O9 Ta0 1.977826 1_555
O10 P3 1.563330 1_555
O10 Ta1 1.977826 1_455
O11 P4 1.527506 1_555
O11 Ti0 1.970798 1_556
O12 P1 1.558003 1_555
O12 Ta1 1.990048 1_554
O13 P2 1.526307 1_555
O13 Ti0 1.968254 1_655
O14 P3 1.526307 1_555
O14 Ti1 1.968254 1_555
O15 P2 1.558003 1_555
O15 Ta1 1.990048 1_545
O16 P4 1.526307 1_555
O16 Ti1 1.968254 1_555
O17 P4 1.563331 1_555
O17 Ta1 1.977826 1_545
O18 P5 1.526307 1_555
O18 Ti1 1.968254 1_555
O19 P5 1.527506 1_555
O19 Ti0 1.970798 1_655
O20 P1 1.527506 1_556
O20 Ti1 1.970798 1_555
O21 P5 1.563330 1_555
O21 Ta1 1.977826 1_554
O22 P2 1.527506 1_565
O22 Ti1 1.970798 1_555
O23 P0 1.527506 1_655
O23 Ti1 1.970798 1_555
