# generated using pymatgen
data_LiMn9CdO10
_symmetry_space_group_name_H-M   'P 1'
_cell_length_a   5.66953957
_cell_length_b   8.75321655
_cell_length_c   5.67158922
_cell_angle_alpha   70.99926372
_cell_angle_beta   109.97718672
_cell_angle_gamma   96.01966755
_symmetry_Int_Tables_number   1
_chemical_formula_structural   LiMn9CdO10
_chemical_formula_sum   'Li1 Mn9 Cd1 O10'
_cell_volume   250.10706264
_cell_formula_units_Z   1
loop_
 _symmetry_equiv_pos_site_id
 _symmetry_equiv_pos_as_xyz
  1  'x, y, z'
loop_
 _atom_site_type_symbol
 _atom_site_label
 _atom_site_symmetry_multiplicity
 _atom_site_fract_x
 _atom_site_fract_y
 _atom_site_fract_z
 _atom_site_occupancy
  Li  Li0  1  0.11233800  0.99951800  0.38892300  1
  Mn  Mn0  1  0.49330900  0.39884000  0.30291100  1
  Mn  Mn1  1  0.00859300  0.00023100  0.94881600  1
  Mn  Mn2  1  0.55155300  0.00390200  0.49138500  1
  Mn  Mn3  1  0.99859400  0.60474200  0.20665900  1
  Mn  Mn4  1  0.98865900  0.24011200  0.39379700  1
  Mn  Mn5  1  0.50262800  0.20181000  0.89638600  1
  Mn  Mn6  1  0.49284400  0.59517300  0.70310600  1
  Mn  Mn7  1  0.99909300  0.38224400  0.82179000  1
  Mn  Mn8  1  0.99129200  0.74394000  0.63387900  1
  Cd  Cd0  1  0.50248900  0.80700300  0.09324200  1
  O  O0  1  0.76752100  0.03345700  0.23813800  1
  O  O1  1  0.74238400  0.41001500  0.04891300  1
  O  O2  1  0.75123400  0.20161500  0.64869700  1
  O  O3  1  0.75324800  0.57364800  0.47284000  1
  O  O4  1  0.25039000  0.18473400  0.15517400  1
  O  O5  1  0.21850800  0.80145400  0.37983400  1
  O  O6  1  0.77053300  0.80074700  0.83056500  1
  O  O7  1  0.24645500  0.03513300  0.71518700  1
  O  O8  1  0.25160900  0.40968600  0.54845200  1
  O  O9  1  0.23767700  0.57199600  0.96225800  1
loop_
_geom_bond_atom_site_label_1
_geom_bond_atom_site_label_2
_geom_bond_distance
_geom_bond_site_symmetry_2
Li0 O0 1.858887 1_465
Li0 O7 1.861175 1_565
Li0 O5 1.915454 1_555
Li0 O4 2.010443 1_565
Li0 Mn4 2.299662 1_465
Li0 Mn2 2.354933 1_565
Li0 Mn1 2.358809 1_564
Mn0 O9 2.184300 1_554
Mn0 O3 2.226845 1_555
Mn0 O8 2.289867 1_555
Mn0 O2 2.308704 1_555
Mn0 O1 2.312627 1_555
Mn0 O4 2.409117 1_555
Mn1 O7 2.130422 1_555
Mn1 O6 2.229387 1_445
Mn1 O2 2.241039 1_455
Mn1 O4 2.351049 1_556
Mn1 O5 2.469089 1_546
Mn1 O0 2.563557 1_456
Mn2 O0 2.126610 1_555
Mn2 O2 2.230939 1_555
Mn2 O6 2.237811 1_545
Mn2 O4 2.331030 1_555
Mn2 O5 2.513528 1_545
Mn2 O7 2.550166 1_555
Mn3 O8 2.277960 1_655
Mn3 O5 2.301786 1_655
Mn3 O6 2.315822 1_554
Mn3 O3 2.318615 1_555
Mn3 O1 2.324097 1_555
Mn3 O9 2.337723 1_654
Mn4 O1 2.159288 1_555
Mn4 O8 2.164540 1_655
Mn4 O2 2.221007 1_555
Mn4 O7 2.297400 1_655
Mn4 O0 2.330513 1_555
Mn4 O4 2.493752 1_655
Mn5 O0 2.190711 1_556
Mn5 O7 2.192289 1_555
Mn5 O2 2.305445 1_555
Mn5 O4 2.338426 1_556
Mn5 O8 2.348710 1_555
Mn5 O1 2.370857 1_556
Mn6 O8 2.217639 1_555
Mn6 O1 2.233845 1_556
Mn6 O3 2.335972 1_555
Mn6 O9 2.343405 1_555
Mn6 O5 2.350702 1_555
Mn6 O6 2.390473 1_555
Mn7 O9 2.208436 1_655
Mn7 O2 2.245079 1_555
Mn7 O3 2.261054 1_555
Mn7 O4 2.267437 1_656
Mn7 O1 2.322888 1_556
Mn7 O8 2.390092 1_655
Mn8 O3 2.121281 1_555
Mn8 O6 2.122234 1_555
Mn8 O9 2.126784 1_655
Mn8 O5 2.156120 1_655
Cd0 O6 2.479819 1_554
Cd0 O7 2.526915 1_564
Cd0 O0 2.540581 1_565
Cd0 O3 2.546106 1_555
Cd0 O9 2.573463 1_554
Cd0 O5 2.637612 1_555
