# generated using pymatgen
data_Na6Li2Y3Zr3P6(CO17)2
_symmetry_space_group_name_H-M   'P 1'
_cell_length_a   11.08558530
_cell_length_b   11.12365521
_cell_length_c   11.08958385
_cell_angle_alpha   90.07707462
_cell_angle_beta   89.96161413
_cell_angle_gamma   90.04330322
_symmetry_Int_Tables_number   1
_chemical_formula_structural   Na6Li2Y3Zr3P6(CO17)2
_chemical_formula_sum   'Na12 Li4 Y6 Zr6 P12 C4 O68'
_cell_volume   1367.47936561
_cell_formula_units_Z   2
loop_
 _symmetry_equiv_pos_site_id
 _symmetry_equiv_pos_as_xyz
  1  'x, y, z'
loop_
 _atom_site_type_symbol
 _atom_site_label
 _atom_site_symmetry_multiplicity
 _atom_site_fract_x
 _atom_site_fract_y
 _atom_site_fract_z
 _atom_site_occupancy
  Na  Na0  1  0.18547142  0.32679339  0.50613708  1
  Na  Na1  1  0.18516530  0.99871914  0.47985209  1
  Na  Na2  1  0.51049238  0.32522396  0.48187625  1
  Na  Na3  1  0.18614839  0.67406563  0.15500200  1
  Na  Na4  1  0.18698444  0.65223058  0.83041423  1
  Na  Na5  1  0.85916904  0.00102867  0.15450458  1
  Na  Na6  1  0.51040092  0.67341893  0.83036399  1
  Na  Na7  1  0.83574483  0.00113155  0.83226326  1
  Na  Na8  1  0.50929694  0.00219047  0.50274612  1
  Na  Na9  1  0.83730689  0.32634299  0.15509422  1
  Na  Na10  1  0.85632949  0.32722238  0.83334327  1
  Na  Na11  1  0.51109808  0.65355843  0.15500887  1
  Li  Li0  1  0.04100407  0.85766338  0.68653052  1
  Li  Li1  1  0.04043980  0.47102131  0.30028035  1
  Li  Li2  1  0.65424699  0.46926064  0.68696281  1
  Li  Li3  1  0.65273365  0.85994843  0.29685286  1
  Y  Y0  1  0.84895756  0.66344243  0.17575991  1
  Y  Y1  1  0.53126436  0.66358601  0.49313253  1
  Y  Y2  1  0.84879836  0.98127828  0.49305964  1
  Y  Y3  1  0.16697245  0.66313309  0.49317813  1
  Y  Y4  1  0.84945322  0.66309932  0.81057299  1
  Y  Y5  1  0.84921701  0.34511782  0.49400057  1
  Zr  Zr0  1  0.57221411  0.16274997  0.99304790  1
  Zr  Zr1  1  0.34877971  0.39295584  0.99352245  1
  Zr  Zr2  1  0.34839099  0.16354510  0.76988011  1
  Zr  Zr3  1  0.12264286  0.16379359  0.99492467  1
  Zr  Zr4  1  0.34961146  0.16326609  0.21782540  1
  Zr  Zr5  1  0.35016979  0.93384057  0.99404229  1
  P  P0  1  0.36357950  0.85441890  0.30187537  1
  P  P1  1  0.03811894  0.14883818  0.68722881  1
  P  P2  1  0.65822583  0.14864441  0.30179300  1
  P  P3  1  0.65807482  0.47291045  0.97771744  1
  P  P4  1  0.36350792  0.47148438  0.68416384  1
  P  P5  1  0.65816220  0.85383470  0.00806768  1
  P  P6  1  0.04015460  0.17918118  0.30286873  1
  P  P7  1  0.65774121  0.17894488  0.68437050  1
  P  P8  1  0.04052200  0.85321610  0.97803737  1
  P  P9  1  0.33269742  0.47306538  0.30258940  1
  P  P10  1  0.04012323  0.47293270  0.00874628  1
  P  P11  1  0.33233966  0.85467615  0.68327999  1
  C  C0  1  0.96628627  0.54554586  0.61021654  1
  C  C1  1  0.96679107  0.78162390  0.37520176  1
  C  C2  1  0.73053024  0.78207006  0.61121320  1
  C  C3  1  0.73089203  0.54448134  0.37518258  1
  O  O0  1  0.20505812  0.81015234  0.64039693  1
  O  O1  1  0.68814341  0.33805078  0.99194538  1
  O  O2  1  0.96875438  0.08282496  0.37471060  1
  O  O3  1  0.68362639  0.68606121  0.65777235  1
  O  O4  1  0.34601179  0.98961002  0.65304890  1
  O  O5  1  0.68361447  0.49739664  0.47087384  1
  O  O6  1  0.68378461  0.64022645  0.32842320  1
  O  O7  1  0.68306423  0.82956394  0.51594782  1
  O  O8  1  0.52297750  0.50463264  0.99272989  1
  O  O9  1  0.34932416  0.50313111  0.81941961  1
  O  O10  1  0.68854861  0.16301455  0.16641671  1
  O  O11  1  0.68700100  0.16368834  0.81988837  1
  O  O12  1  0.96897109  0.54345394  0.91124294  1
  O  O13  1  0.49052752  0.81020851  0.34544422  1
  O  O14  1  0.49030382  0.51587150  0.63988392  1
  O  O15  1  0.42860834  0.78355629  0.61046793  1
  O  O16  1  0.42853362  0.54494097  0.37506123  1
  O  O17  1  0.52269774  0.16292333  0.65319379  1
  O  O18  1  0.17424381  0.16354178  0.66050784  1
  O  O19  1  0.34940856  0.33639569  0.65440256  1
  O  O20  1  0.01020572  0.98793229  0.99407203  1
  O  O21  1  0.00944225  0.16363306  0.16755744  1
  O  O22  1  0.00460588  0.16181584  0.82217106  1
  O  O23  1  0.34780724  0.33833248  0.33276177  1
  O  O24  1  0.17555217  0.16435699  0.33279368  1
  O  O25  1  0.34993840  0.98948195  0.33206053  1
  O  O26  1  0.87109838  0.82866502  0.32794144  1
  O  O27  1  0.01340428  0.68545724  0.32871537  1
  O  O28  1  0.70135919  0.81000330  0.13524522  1
  O  O29  1  0.73007963  0.54383702  0.07451541  1
  O  O30  1  0.52293471  0.82225475  0.99304175  1
  O  O31  1  0.17568975  0.82165149  0.99198212  1
  O  O32  1  0.34942905  0.82295616  0.16665107  1
  O  O33  1  0.01402868  0.82884007  0.47089286  1
  O  O34  1  0.82686859  0.82851141  0.65804123  1
  O  O35  1  0.70154843  0.02166877  0.34544196  1
  O  O36  1  0.73133829  0.08363649  0.61302126  1
  O  O37  1  0.99575016  0.02246193  0.64059604  1
  O  O38  1  0.01325081  0.64140433  0.65701541  1
  O  O39  1  0.01336241  0.49858376  0.51428621  1
  O  O40  1  0.87054245  0.49860695  0.65757971  1
  O  O41  1  0.72985286  0.24531054  0.37314019  1
  O  O42  1  0.52276916  0.16346784  0.33243585  1
  O  O43  1  0.96919864  0.78168983  0.07485820  1
  O  O44  1  0.73025010  0.78312296  0.91123631  1
  O  O45  1  0.96978668  0.24704706  0.61492228  1
  O  O46  1  0.70171449  0.51666570  0.85048305  1
  O  O47  1  0.26558470  0.54172810  0.61322877  1
  O  O48  1  0.99611561  0.30604917  0.34598168  1
  O  O49  1  0.70117597  0.30623508  0.64152717  1
  O  O50  1  0.99622111  0.81031931  0.85077472  1
  O  O51  1  0.20512340  0.51667216  0.34539592  1
  O  O52  1  0.17537608  0.50432138  0.99446178  1
  O  O53  1  0.68816873  0.98880308  0.99419820  1
  O  O54  1  0.99587000  0.51697310  0.13558510  1
  O  O55  1  0.34858699  0.50460308  0.16766186  1
  O  O56  1  0.34852422  0.82339464  0.81818734  1
  O  O57  1  0.82708363  0.49798870  0.32821880  1
  O  O58  1  0.00962534  0.33795268  0.99482568  1
  O  O59  1  0.26536619  0.78439457  0.37269867  1
  O  O60  1  0.23684770  0.27749893  0.10634011  1
  O  O61  1  0.46141089  0.04934548  0.10593582  1
  O  O62  1  0.46106322  0.27783581  0.88144937  1
  O  O63  1  0.23649687  0.04945616  0.88316600  1
  O  O64  1  0.45949901  0.27607452  0.10442984  1
  O  O65  1  0.23794266  0.27466741  0.88508310  1
  O  O66  1  0.45892087  0.05062234  0.88231519  1
  O  O67  1  0.23793377  0.05132754  0.10406580  1
loop_
_geom_bond_atom_site_label_1
_geom_bond_atom_site_label_2
_geom_bond_distance
_geom_bond_site_symmetry_2
Na0 O19 2.453726 1_555
Na0 O18 2.500309 1_555
Na0 O23 2.635771 1_555
Na0 O24 2.638717 1_555
Na0 O39 2.702750 1_555
Na0 O48 2.759907 1_455
Na0 O51 2.773991 1_555
Na0 O47 2.811743 1_555
Na0 O45 2.820444 1_455
Na1 O25 2.455405 1_555
Na1 O24 2.464616 1_565
Na1 O4 2.623744 1_555
Na1 O33 2.678480 1_555
Na1 O18 2.716588 1_565
Na1 O0 2.762130 1_555
Na1 O37 2.766040 1_465
Na1 O59 2.807213 1_555
Na1 O2 2.828472 1_465
Na2 O42 2.448374 1_555
Na2 O23 2.452187 1_555
Na2 O19 2.619126 1_555
Na2 O17 2.626219 1_555
Na2 O5 2.713074 1_555
Na2 O14 2.758257 1_555
Na2 O49 2.766616 1_555
Na2 O41 2.855530 1_555
Na2 O16 2.866113 1_555
Na3 O31 2.446503 1_554
Na3 O32 2.455858 1_555
Na3 O52 2.596137 1_554
Na3 O55 2.611876 1_555
Na3 O27 2.718269 1_555
Na3 O54 2.746506 1_455
Na3 O51 2.752922 1_555
Na3 O43 2.831484 1_455
Na3 O59 2.845839 1_555
Na4 O9 2.451109 1_555
Na4 O52 2.457747 1_555
Na4 O31 2.601644 1_555
Na4 O56 2.616397 1_555
Na4 O38 2.724951 1_555
Na4 O0 2.752314 1_555
Na4 O50 2.760318 1_455
Na4 O47 2.839335 1_555
Na4 O12 2.846767 1_455
Na5 O20 2.446546 1_644
Na5 O21 2.462260 1_655
Na5 O53 2.603026 1_544
Na5 O10 2.616463 1_555
Na5 O26 2.720932 1_545
Na5 O35 2.753837 1_555
Na5 O28 2.759516 1_545
Na5 O43 2.866708 1_545
Na5 O2 2.874597 1_555
Na6 O30 2.450874 1_555
Na6 O56 2.455008 1_555
Na6 O9 2.604966 1_555
Na6 O8 2.606991 1_555
Na6 O3 2.714041 1_555
Na6 O14 2.751905 1_555
Na6 O46 2.755961 1_555
Na6 O44 2.868571 1_555
Na6 O15 2.877901 1_555
Na7 O53 2.432375 1_545
Na7 O11 2.452122 1_555
Na7 O22 2.589712 1_655
Na7 O20 2.643397 1_645
Na7 O34 2.723881 1_545
Na7 O37 2.777761 1_555
Na7 O50 2.778379 1_545
Na7 O44 2.831181 1_545
Na7 O36 2.846837 1_555
Na8 O17 2.448317 1_555
Na8 O4 2.463838 1_545
Na8 O25 2.593645 1_545
Na8 O42 2.610771 1_555
Na8 O7 2.725097 1_545
Na8 O35 2.761783 1_555
Na8 O13 2.763439 1_545
Na8 O15 2.853930 1_545
Na8 O36 2.893571 1_555
Na9 O1 2.455524 1_554
Na9 O10 2.455974 1_555
Na9 O58 2.611564 1_654
Na9 O21 2.634863 1_655
Na9 O57 2.708226 1_555
Na9 O54 2.761914 1_555
Na9 O48 2.763741 1_555
Na9 O29 2.841863 1_555
Na9 O41 2.842307 1_555
Na10 O22 2.471075 1_655
Na10 O58 2.472283 1_655
Na10 O1 2.565056 1_555
Na10 O11 2.617133 1_555
Na10 O46 2.723708 1_555
Na10 O40 2.732685 1_555
Na10 O49 2.746008 1_555
Na10 O12 2.842928 1_555
Na10 O45 2.869867 1_555
Na11 O8 2.447905 1_554
Na11 O55 2.450793 1_555
Na11 O30 2.602513 1_554
Na11 O32 2.604505 1_555
Na11 O6 2.718653 1_555
Na11 O28 2.742237 1_555
Na11 O13 2.745604 1_555
Na11 O29 2.859724 1_555
Na11 O16 2.873293 1_555
Li0 O50 1.960173 1_455
Li0 O0 1.961621 1_555
Li0 O37 1.968725 1_465
Li0 O34 2.416515 1_455
Li0 O33 2.430934 1_555
Li0 O38 2.446539 1_555
Li1 O51 1.959639 1_555
Li1 O54 1.960928 1_455
Li1 O48 1.966383 1_455
Li1 O57 2.404139 1_455
Li1 O39 2.411136 1_555
Li1 O27 2.424438 1_555
Li2 O49 1.952358 1_555
Li2 O46 1.959989 1_555
Li2 O14 1.961578 1_555
Li2 O5 2.438686 1_555
Li2 O40 2.441322 1_555
Li2 O3 2.455101 1_555
Li3 O28 1.951294 1_555
Li3 O35 1.953357 1_565
Li3 O13 1.956487 1_555
Li3 O26 2.470316 1_555
Li3 O7 2.476705 1_555
Li3 O6 2.493687 1_555
C0 O40 1.293897 1_555
C0 O39 1.294271 1_655
C0 O38 1.294379 1_655
C1 O33 1.294214 1_655
C1 O27 1.294634 1_655
C1 O26 1.294653 1_555
C2 O7 1.294118 1_555
C2 O34 1.294716 1_555
C2 O3 1.295294 1_555
C3 O57 1.294276 1_555
C3 O5 1.294383 1_555
C3 O6 1.295601 1_555
O0 P11 1.568931 1_555
O0 Y3 2.347514 1_555
O1 P3 1.545271 1_555
O1 Zr0 2.334619 1_555
O2 P6 1.552487 1_655
O2 Y2 2.183148 1_545
O3 Y1 2.500213 1_555
O3 Y4 2.514340 1_555
O4 P11 1.545697 1_555
O4 Zr2 2.327220 1_565
O5 Y5 2.512315 1_555
O5 Y1 2.516676 1_555
O6 Y1 2.501561 1_555
O6 Y0 2.506363 1_555
O7 Y2 2.506760 1_555
O7 Y1 2.509815 1_555
O8 P3 1.547722 1_555
O8 Zr1 2.295374 1_555
O9 P4 1.548155 1_555
O9 Zr1 2.288245 1_555
O10 P2 1.546685 1_555
O10 Zr0 2.315775 1_554
O11 P7 1.547240 1_555
O11 Zr0 2.302933 1_555
O12 P10 1.552747 1_656
O12 Y4 2.186704 1_555
O13 P0 1.567917 1_555
O13 Y1 2.357056 1_555
O14 P4 1.568222 1_555
O14 Y1 2.357878 1_555
O15 P11 1.554076 1_555
O15 Y1 2.182825 1_555
O16 P9 1.553049 1_555
O16 Y1 2.179042 1_555
O17 P7 1.546783 1_555
O17 Zr2 2.324842 1_555
O18 P1 1.546244 1_555
O18 Zr2 2.280607 1_555
O19 P4 1.545892 1_555
O19 Zr2 2.311606 1_555
O20 P8 1.546008 1_555
O20 Zr3 2.318784 1_565
O21 P6 1.548342 1_555
O21 Zr3 2.288357 1_554
O22 P1 1.548221 1_555
O22 Zr3 2.320784 1_555
O23 P9 1.545311 1_555
O23 Zr4 2.326075 1_555
O24 P6 1.546413 1_555
O24 Zr4 2.312034 1_555
O25 P0 1.546296 1_555
O25 Zr4 2.312657 1_565
O26 Y0 2.505527 1_555
O26 Y2 2.507505 1_555
O27 Y0 2.502547 1_455
O27 Y3 2.508417 1_555
O28 P5 1.568188 1_555
O28 Y0 2.354549 1_555
O29 P3 1.552360 1_554
O29 Y0 2.182356 1_555
O30 P5 1.548476 1_556
O30 Zr5 2.283052 1_555
O31 P8 1.547155 1_555
O31 Zr5 2.301179 1_555
O32 P0 1.547468 1_555
O32 Zr5 2.278544 1_554
O33 Y2 2.508730 1_455
O33 Y3 2.517905 1_555
O34 Y2 2.510240 1_555
O34 Y4 2.513780 1_555
O35 P2 1.569425 1_555
O35 Y2 2.356466 1_545
O36 P7 1.553657 1_555
O36 Y2 2.181172 1_545
O37 P1 1.568943 1_655
O37 Y2 2.353926 1_545
O38 Y4 2.500117 1_455
O38 Y3 2.501969 1_555
O39 Y5 2.504145 1_455
O39 Y3 2.510130 1_555
O40 Y5 2.500657 1_555
O40 Y4 2.504593 1_555
O41 P2 1.552413 1_555
O41 Y5 2.185415 1_555
O42 P2 1.548243 1_555
O42 Zr4 2.302899 1_555
O43 P8 1.552812 1_654
O43 Y0 2.181340 1_555
O44 P5 1.551752 1_556
O44 Y4 2.184383 1_555
O45 P1 1.553906 1_655
O45 Y5 2.187071 1_555
O46 P3 1.569191 1_555
O46 Y4 2.351244 1_555
O47 P4 1.552999 1_555
O47 Y3 2.190936 1_555
O48 P6 1.567616 1_655
O48 Y5 2.351749 1_555
O49 P7 1.569367 1_555
O49 Y5 2.356716 1_555
O50 P8 1.568239 1_655
O50 Y4 2.350044 1_555
O51 P9 1.568505 1_555
O51 Y3 2.347729 1_555
O52 P10 1.547293 1_556
O52 Zr1 2.287666 1_555
O53 P5 1.545358 1_556
O53 Zr0 2.323847 1_565
O54 P10 1.567397 1_655
O54 Y0 2.346589 1_555
O55 P9 1.547239 1_555
O55 Zr1 2.294604 1_554
O56 P11 1.547042 1_555
O56 Zr5 2.303559 1_555
O57 Y0 2.512308 1_555
O57 Y5 2.518212 1_555
O58 P10 1.546360 1_556
O58 Zr3 2.307905 1_555
O59 P0 1.551831 1_555
O59 Y3 2.189735 1_555
O60 Zr4 2.171284 1_555
O60 Zr3 2.173626 1_554
O60 Zr1 2.180409 1_554
O61 Zr0 2.160354 1_554
O61 Zr4 2.162762 1_555
O61 Zr5 2.169470 1_544
O62 Zr0 2.167348 1_555
O62 Zr2 2.168552 1_555
O62 Zr1 2.174830 1_555
O63 Zr2 2.174235 1_555
O63 Zr3 2.177772 1_555
O63 Zr5 2.182322 1_545
O64 Zr4 2.154013 1_555
O64 Zr0 2.161514 1_554
O64 Zr1 2.172164 1_554
O65 Zr3 2.153631 1_555
O65 Zr2 2.157571 1_555
O65 Zr1 2.163889 1_555
O66 Zr0 2.153261 1_555
O66 Zr2 2.154622 1_555
O66 Zr5 2.162407 1_545
O67 Zr4 2.161053 1_555
O67 Zr3 2.161481 1_554
O67 Zr5 2.177338 1_544
