# generated using pymatgen
data_Sc4MnSi7
_symmetry_space_group_name_H-M   'P 1'
_cell_length_a   3.67291400
_cell_length_b   3.84109200
_cell_length_c   14.06098100
_cell_angle_alpha   90.00000000
_cell_angle_beta   90.00000000
_cell_angle_gamma   90.00000000
_symmetry_Int_Tables_number   1
_chemical_formula_structural   Sc4MnSi7
_chemical_formula_sum   'Sc4 Mn1 Si7'
_cell_volume   198.37232813
_cell_formula_units_Z   1
loop_
 _symmetry_equiv_pos_site_id
 _symmetry_equiv_pos_as_xyz
  1  'x, y, z'
loop_
 _atom_site_type_symbol
 _atom_site_label
 _atom_site_symmetry_multiplicity
 _atom_site_fract_x
 _atom_site_fract_y
 _atom_site_fract_z
 _atom_site_occupancy
  Sc  Sc0  1  0.00000000  0.00000000  0.11312400  1
  Sc  Sc1  1  0.00000000  0.50000000  0.59626600  1
  Sc  Sc2  1  0.50000000  0.50000000  0.41419400  1
  Sc  Sc3  1  0.50000000  0.00000000  0.90026100  1
  Mn  Mn0  1  0.00000000  0.00000000  0.40292600  1
  Si  Si0  1  0.00000000  0.50000000  0.26849900  1
  Si  Si1  1  0.00000000  0.00000000  0.74277400  1
  Si  Si2  1  0.50000000  0.00000000  0.26863800  1
  Si  Si3  1  0.50000000  0.50000000  0.75313300  1
  Si  Si4  1  0.00000000  0.50000000  0.94366100  1
  Si  Si5  1  0.50000000  0.50000000  0.05425900  1
  Si  Si6  1  0.50000000  0.00000000  0.54226500  1
loop_
_geom_bond_atom_site_label_1
_geom_bond_atom_site_label_2
_geom_bond_distance
_geom_bond_site_symmetry_2
Sc0 Si5 2.783192 1_445
Sc0 Si5 2.783192 1_455
Sc0 Si5 2.783192 1_545
Sc0 Si5 2.783192 1_555
Sc0 Si2 2.855546 1_455
Sc0 Si2 2.855546 1_555
Sc0 Si0 2.908869 1_545
Sc0 Si0 2.908869 1_555
Sc0 Si4 3.060443 1_554
Sc0 Si4 3.060443 1_544
Sc1 Si6 2.763624 1_455
Sc1 Si6 2.763624 1_555
Sc1 Si6 2.763624 1_565
Sc1 Si6 2.763624 1_465
Sc1 Si1 2.816432 1_565
Sc1 Si1 2.816432 1_555
Sc1 Si3 2.870140 1_455
Sc1 Si3 2.870140 1_555
Sc2 Si6 2.632754 1_555
Sc2 Si6 2.632754 1_565
Sc2 Si0 2.751254 1_555
Sc2 Si0 2.751254 1_655
Sc2 Si2 2.806655 1_555
Sc2 Si2 2.806655 1_565
Sc3 Si4 2.726439 1_545
Sc3 Si4 2.726439 1_555
Sc3 Si4 2.726439 1_655
Sc3 Si4 2.726439 1_645
Sc3 Si3 2.822814 1_545
Sc3 Si3 2.822814 1_555
Sc3 Si1 2.876845 1_555
Sc3 Si1 2.876845 1_655
Sc3 Si5 2.894355 1_556
Sc3 Si5 2.894355 1_546
Mn0 Si2 2.633999 1_555
Mn0 Si2 2.633999 1_455
Mn0 Sc2 2.661987 1_445
Mn0 Sc2 2.661987 1_555
Mn0 Sc2 2.661987 1_455
Mn0 Sc2 2.661987 1_545
Mn0 Si6 2.685369 1_455
Mn0 Si6 2.685369 1_555
Mn0 Si0 2.694673 1_545
Mn0 Si0 2.694673 1_555
Si0 Si2 2.657268 1_455
Si0 Si2 2.657268 1_565
Si0 Si2 2.657268 1_465
Si0 Si2 2.657268 1_555
Si1 Si3 2.661257 1_455
Si1 Si3 2.661257 1_545
Si1 Si3 2.661257 1_445
Si1 Si3 2.661257 1_555
Si4 Si5 2.406442 1_456
Si4 Si5 2.406442 1_556
