# generated using pymatgen
data_Te2MoWSeS
_symmetry_space_group_name_H-M   'P 1'
_cell_length_a   3.39539583
_cell_length_b   3.39539583
_cell_length_c   39.92691700
_cell_angle_alpha   90.00000000
_cell_angle_beta   90.00000000
_cell_angle_gamma   119.99999676
_symmetry_Int_Tables_number   1
_chemical_formula_structural   Te2MoWSeS
_chemical_formula_sum   'Te4 Mo2 W2 Se2 S2'
_cell_volume   398.63666945
_cell_formula_units_Z   2
loop_
 _symmetry_equiv_pos_site_id
 _symmetry_equiv_pos_as_xyz
  1  'x, y, z'
loop_
 _atom_site_type_symbol
 _atom_site_label
 _atom_site_symmetry_multiplicity
 _atom_site_fract_x
 _atom_site_fract_y
 _atom_site_fract_z
 _atom_site_occupancy
  Te  Te0  1  0.00000000  0.00000000  0.32830200  1
  Te  Te1  1  0.33333300  0.66666700  0.42361200  1
  Te  Te2  1  0.33333300  0.66666700  0.51746800  1
  Te  Te3  1  0.00000000  0.00000000  0.23389100  1
  Mo  Mo0  1  0.00000000  0.00000000  0.09366400  1
  Mo  Mo1  1  0.00000000  0.00000000  0.47055200  1
  W  W0  1  0.33333300  0.66666700  0.28108100  1
  W  W1  1  0.33333300  0.66666700  0.65761500  1
  Se  Se0  1  0.33333300  0.66666700  0.05235700  1
  Se  Se1  1  0.33333300  0.66666700  0.13498700  1
  S  S0  1  0.00000000  0.00000000  0.69534800  1
  S  S1  1  0.00000000  0.00000000  0.61987100  1
loop_
_geom_bond_atom_site_label_1
_geom_bond_atom_site_label_2
_geom_bond_distance
_geom_bond_site_symmetry_2
Te0 W0 2.719851 1_545
Te0 W0 2.719853 1_445
Te0 W0 2.719853 1_555
Te3 W0 2.718993 1_545
Te3 W0 2.718995 1_555
Te3 W0 2.718995 1_445
Mo0 Se0 2.561827 1_545
Mo0 Se0 2.561830 1_555
Mo0 Se0 2.561830 1_445
Mo0 Se1 2.562239 1_545
Mo0 Se1 2.562241 1_445
Mo0 Se1 2.562241 1_555
Mo1 Te2 2.711423 1_545
Mo1 Te2 2.711426 1_445
Mo1 Te2 2.711426 1_555
Mo1 Te1 2.712085 1_545
Mo1 Te1 2.712088 1_445
Mo1 Te1 2.712088 1_555
S0 W1 2.472373 1_545
S0 W1 2.472375 1_555
S0 W1 2.472375 1_445
S1 W1 2.472640 1_545
S1 W1 2.472643 1_445
S1 W1 2.472643 1_555
