# generated using pymatgen
data_Li3TiCr2O6
_symmetry_space_group_name_H-M   'P 1'
_cell_length_a   2.95731035
_cell_length_b   12.96912226
_cell_length_c   5.98403318
_cell_angle_alpha   102.88646113
_cell_angle_beta   90.08129340
_cell_angle_gamma   89.97993265
_symmetry_Int_Tables_number   1
_chemical_formula_structural   Li3TiCr2O6
_chemical_formula_sum   'Li6 Ti2 Cr4 O12'
_cell_volume   223.72924986
_cell_formula_units_Z   2
loop_
 _symmetry_equiv_pos_site_id
 _symmetry_equiv_pos_as_xyz
  1  'x, y, z'
loop_
 _atom_site_type_symbol
 _atom_site_label
 _atom_site_symmetry_multiplicity
 _atom_site_fract_x
 _atom_site_fract_y
 _atom_site_fract_z
 _atom_site_occupancy
  Li  Li0  1  0.00000700  0.66657400  0.83463300  1
  Li  Li1  1  0.49999200  0.16677100  0.33206800  1
  Li  Li2  1  0.00000300  0.99847200  0.49614900  1
  Li  Li3  1  0.49985600  0.49775400  0.99417800  1
  Li  Li4  1  0.00012800  0.33544700  0.17211500  1
  Li  Li5  1  0.49999600  0.83497500  0.67077600  1
  Ti  Ti0  1  0.99929500  0.66426600  0.33660100  1
  Ti  Ti1  1  0.50062400  0.16917700  0.83003100  1
  Cr  Cr0  1  0.50040200  0.50043800  0.50017200  1
  Cr  Cr1  1  0.99964800  0.33279200  0.66670600  1
  Cr  Cr2  1  0.99966600  0.00028500  0.00135700  1
  Cr  Cr3  1  0.50037500  0.83303400  0.16526500  1
  O  O0  1  0.00004600  0.50280800  0.26515300  1
  O  O1  1  0.49904800  0.00573400  0.76993300  1
  O  O2  1  0.00100100  0.82759000  0.39681800  1
  O  O3  1  0.50002800  0.33070600  0.90163900  1
  O  O4  1  0.99980000  0.83966200  0.93655000  1
  O  O5  1  0.49974700  0.33964800  0.43795500  1
  O  O6  1  0.00025600  0.49368800  0.72874100  1
  O  O7  1  0.50021200  0.99362900  0.23012500  1
  O  O8  1  0.00204900  0.17058400  0.59136300  1
  O  O9  1  0.50116200  0.67172700  0.09858300  1
  O  O10  1  0.99894000  0.16151200  0.06795300  1
  O  O11  1  0.49771900  0.66273000  0.57514400  1
loop_
_geom_bond_atom_site_label_1
_geom_bond_atom_site_label_2
_geom_bond_distance
_geom_bond_site_symmetry_2
Li0 O11 2.133543 1_555
Li0 O11 2.139883 1_455
Li0 O9 2.152913 1_456
Li0 O9 2.154558 1_556
Li0 O6 2.189788 1_555
Li0 O4 2.190987 1_455
Li1 O8 2.133232 1_555
Li1 O8 2.138630 1_655
Li1 O10 2.153658 1_555
Li1 O10 2.154883 1_455
Li1 O5 2.189674 1_555
Li1 O7 2.191669 1_545
Li2 O7 2.161357 1_455
Li2 O2 2.162694 1_555
Li2 O7 2.165259 1_555
Li2 O8 2.177120 1_565
Li2 O1 2.189861 1_565
Li2 O1 2.196759 1_465
Li3 O3 2.113081 1_555
Li3 O6 2.159792 1_555
Li3 O6 2.164468 1_655
Li3 O0 2.183477 1_656
Li3 O0 2.185800 1_556
Li3 O9 2.202811 1_556
Li4 O0 2.117106 1_555
Li4 O5 2.161346 1_555
Li4 O5 2.165945 1_455
Li4 O3 2.181656 1_454
Li4 O3 2.184337 1_554
Li4 O10 2.202257 1_455
Li5 O4 2.160566 1_555
Li5 O1 2.161109 1_565
Li5 O4 2.164416 1_455
Li5 O11 2.178874 1_555
Li5 O2 2.190333 1_555
Li5 O2 2.197430 1_655
Cr0 O6 2.027601 1_655
Cr0 O6 2.031103 1_555
Cr0 O5 2.034901 1_555
Cr0 O0 2.044915 1_555
Cr0 O0 2.046293 1_655
Cr0 O11 2.051894 1_555
Cr1 O5 2.028713 1_555
Cr1 O5 2.032014 1_655
Cr1 O6 2.036303 1_655
Cr1 O3 2.043995 1_655
Cr1 O3 2.045268 1_555
Cr1 O8 2.050805 1_655
Cr2 O7 2.029670 1_645
Cr2 O7 2.030191 1_545
Cr2 O4 2.032124 1_544
Cr2 O1 2.037742 1_554
Cr2 O1 2.037977 1_654
Cr2 O10 2.039438 1_555
Cr3 O4 2.029446 1_454
Cr3 O4 2.029841 1_554
Cr3 O7 2.031755 1_555
Cr3 O2 2.038276 1_655
Cr3 O2 2.038479 1_555
Cr3 O9 2.040440 1_555
O0 Ti0 2.041612 1_455
O1 Ti1 2.069424 1_555
O2 Ti0 2.067865 1_455
O3 Ti1 2.042495 1_555
O8 Ti1 2.054188 1_555
O8 Ti1 2.063161 1_455
O9 Ti0 2.064838 1_555
O9 Ti0 2.075661 1_455
O10 Ti1 2.065354 1_554
O10 Ti1 2.075403 1_654
O11 Ti0 2.053621 1_455
O11 Ti0 2.063237 1_555
