# generated using pymatgen
data_NdSiNi4
_symmetry_space_group_name_H-M   'P 1'
_cell_length_a   4.84169348
_cell_length_b   4.84169348
_cell_length_c   3.92565823
_cell_angle_alpha   90.00000000
_cell_angle_beta   90.00000000
_cell_angle_gamma   115.96431977
_symmetry_Int_Tables_number   1
_chemical_formula_structural   NdSiNi4
_chemical_formula_sum   'Nd1 Si1 Ni4'
_cell_volume   82.73686503
_cell_formula_units_Z   1
loop_
 _symmetry_equiv_pos_site_id
 _symmetry_equiv_pos_as_xyz
  1  'x, y, z'
loop_
 _atom_site_type_symbol
 _atom_site_label
 _atom_site_symmetry_multiplicity
 _atom_site_fract_x
 _atom_site_fract_y
 _atom_site_fract_z
 _atom_site_occupancy
  Nd  Nd0  1  -0.00000000  -0.00000000  0.00000000  1
  Si  Si0  1  0.50000000  0.50000000  0.50000000  1
  Ni  Ni0  1  0.34212279  0.65787721  0.00000000  1
  Ni  Ni1  1  0.65787721  0.34212279  -0.00000000  1
  Ni  Ni2  1  0.50000000  -0.00000000  0.50000000  1
  Ni  Ni3  1  -0.00000000  0.50000000  0.50000000  1
loop_
_geom_bond_atom_site_label_1
_geom_bond_atom_site_label_2
_geom_bond_distance
_geom_bond_site_symmetry_2
Nd0 Ni1 2.808958 1_455
Nd0 Ni0 2.808958 1_545
Nd0 Ni0 2.875696 1_445
Nd0 Ni1 2.875696 1_555
Nd0 Ni1 2.875696 1_445
Nd0 Ni0 2.875696 1_555
Nd0 Ni2 3.116600 1_455
Nd0 Ni2 3.116600 1_454
Nd0 Ni3 3.116600 1_554
Nd0 Ni2 3.116600 1_555
Nd0 Ni3 3.116600 1_545
Nd0 Ni3 3.116600 1_544
Nd0 Ni3 3.116600 1_555
Nd0 Ni2 3.116600 1_554
Nd0 Si0 3.231425 1_554
Nd0 Si0 3.231425 1_555
Nd0 Si0 3.231425 1_444
Nd0 Si0 3.231425 1_445
Ni0 Si0 2.352215 1_555
Ni0 Si0 2.352215 1_554
Ni0 Ni3 2.464170 1_555
Ni0 Ni2 2.464170 1_564
Ni0 Ni3 2.464170 1_554
Ni0 Ni2 2.464170 1_565
Ni0 Ni1 2.592464 1_555
Ni1 Si0 2.352215 1_555
Ni1 Si0 2.352215 1_554
Ni1 Ni2 2.464170 1_554
Ni1 Ni3 2.464170 1_654
Ni1 Ni3 2.464170 1_655
Ni1 Ni2 2.464170 1_555
Ni2 Si0 2.420847 1_545
Ni2 Si0 2.420847 1_555
Ni2 Ni3 2.566985 1_655
Ni2 Ni3 2.566985 1_545
Ni3 Si0 2.420847 1_455
Ni3 Si0 2.420847 1_555
