# generated using pymatgen
data_Ni(GeO3)2
_symmetry_space_group_name_H-M   'P 1'
_cell_length_a   8.97386700
_cell_length_b   5.37049400
_cell_length_c   10.12771788
_cell_angle_alpha   74.65877417
_cell_angle_beta   90.00000000
_cell_angle_gamma   90.00000000
_symmetry_Int_Tables_number   1
_chemical_formula_structural   Ni(GeO3)2
_chemical_formula_sum   'Ni4 Ge8 O24'
_cell_volume   470.70405271
_cell_formula_units_Z   4
loop_
 _symmetry_equiv_pos_site_id
 _symmetry_equiv_pos_as_xyz
  1  'x, y, z'
loop_
 _atom_site_type_symbol
 _atom_site_label
 _atom_site_symmetry_multiplicity
 _atom_site_fract_x
 _atom_site_fract_y
 _atom_site_fract_z
 _atom_site_occupancy
  Ni  Ni0  1  0.66344900  0.00412200  0.23444800  1
  Ni  Ni1  1  0.16344900  0.49587800  0.76555200  1
  Ni  Ni2  1  0.33655100  0.99587800  0.76555200  1
  Ni  Ni3  1  0.83655100  0.50412200  0.23444800  1
  Ge  Ge0  1  0.34203200  0.13803900  0.05504200  1
  Ge  Ge1  1  0.84203200  0.36196100  0.94495800  1
  Ge  Ge2  1  0.65796800  0.86196100  0.94495800  1
  Ge  Ge3  1  0.15796800  0.63803900  0.05504200  1
  Ge  Ge4  1  0.34793700  0.89246300  0.48651600  1
  Ge  Ge5  1  0.84793700  0.60753700  0.51348400  1
  Ge  Ge6  1  0.65206300  0.10753700  0.51348400  1
  Ge  Ge7  1  0.15206300  0.39246300  0.48651600  1
  O  O0  1  0.26614500  0.66088900  0.40576300  1
  O  O1  1  0.76614500  0.83911100  0.59423700  1
  O  O2  1  0.73385500  0.33911100  0.59423700  1
  O  O3  1  0.23385500  0.16088900  0.40576300  1
  O  O4  1  0.30326600  0.80409400  0.11374400  1
  O  O5  1  0.80326600  0.69590600  0.88625600  1
  O  O6  1  0.69673400  0.19590600  0.88625600  1
  O  O7  1  0.19673400  0.30409400  0.11374400  1
  O  O8  1  0.96729000  0.38184500  0.41573100  1
  O  O9  1  0.46729000  0.11815500  0.58426900  1
  O  O10  1  0.03271000  0.61815500  0.58426900  1
  O  O11  1  0.53271000  0.88184500  0.41573100  1
  O  O12  1  0.98600300  0.70815800  0.11993700  1
  O  O13  1  0.48600300  0.79184200  0.88006300  1
  O  O14  1  0.01399700  0.29184200  0.88006300  1
  O  O15  1  0.51399700  0.20815800  0.11993700  1
  O  O16  1  0.33820900  0.24795000  0.87130300  1
  O  O17  1  0.83820900  0.25205000  0.12869700  1
  O  O18  1  0.66179100  0.75205000  0.12869700  1
  O  O19  1  0.16179100  0.74795000  0.87130300  1
  O  O20  1  0.31238500  0.73369500  0.66692000  1
  O  O21  1  0.81238500  0.76630500  0.33308000  1
  O  O22  1  0.68761500  0.26630500  0.33308000  1
  O  O23  1  0.18761500  0.23369500  0.66692000  1
loop_
_geom_bond_atom_site_label_1
_geom_bond_atom_site_label_2
_geom_bond_distance
_geom_bond_site_symmetry_2
Ni0 O15 1.916245 1_555
Ni0 O21 1.933987 1_545
Ni0 O18 1.935749 1_545
Ni0 O22 1.942091 1_555
Ni0 O11 2.130866 1_545
Ni0 O17 2.150550 1_555
Ni1 O14 1.916245 1_555
Ni1 O20 1.933987 1_555
Ni1 O19 1.935749 1_555
Ni1 O23 1.942091 1_555
Ni1 O10 2.130866 1_555
Ni1 O16 2.150550 1_555
Ni2 O13 1.916245 1_555
Ni2 O23 1.933987 1_565
Ni2 O16 1.935749 1_565
Ni2 O20 1.942091 1_555
Ni2 O9 2.130866 1_565
Ni2 O19 2.150550 1_555
Ni3 O12 1.916245 1_555
Ni3 O22 1.933987 1_555
Ni3 O17 1.935749 1_555
Ni3 O21 1.942091 1_555
Ni3 O8 2.130866 1_555
Ni3 O18 2.150550 1_555
Ge0 O15 1.756749 1_555
Ge0 O4 1.768262 1_545
Ge0 O7 1.769014 1_555
Ge0 O16 1.797548 1_554
Ge1 O14 1.756749 1_655
Ge1 O5 1.768262 1_555
Ge1 O6 1.769014 1_555
Ge1 O17 1.797548 1_556
Ge2 O13 1.756749 1_555
Ge2 O6 1.768262 1_565
Ge2 O5 1.769014 1_555
Ge2 O18 1.797548 1_556
Ge3 O12 1.756749 1_455
Ge3 O7 1.768262 1_555
Ge3 O4 1.769014 1_555
Ge3 O19 1.797548 1_554
Ge4 O3 1.780802 1_565
Ge4 O11 1.813341 1_555
Ge4 O0 1.814528 1_555
Ge4 O20 1.828309 1_555
Ge4 O9 2.057030 1_565
Ge5 O2 1.780802 1_555
Ge5 O10 1.813341 1_655
Ge5 O1 1.814528 1_555
Ge5 O21 1.828309 1_555
Ge5 O8 2.057030 1_555
Ge6 O1 1.780802 1_545
Ge6 O9 1.813341 1_555
Ge6 O2 1.814528 1_555
Ge6 O22 1.828309 1_555
Ge6 O11 2.057030 1_545
Ge7 O0 1.780802 1_555
Ge7 O8 1.813341 1_455
Ge7 O3 1.814528 1_555
Ge7 O23 1.828309 1_555
Ge7 O10 2.057030 1_555
