# generated using pymatgen
data_PuSn2
_symmetry_space_group_name_H-M   'P 1'
_cell_length_a   4.58564625
_cell_length_b   4.61334778
_cell_length_c   15.20101838
_cell_angle_alpha   98.69204376
_cell_angle_beta   98.67523342
_cell_angle_gamma   90.00000000
_symmetry_Int_Tables_number   1
_chemical_formula_structural   PuSn2
_chemical_formula_sum   'Pu4 Sn8'
_cell_volume   314.16451376
_cell_formula_units_Z   4
loop_
 _symmetry_equiv_pos_site_id
 _symmetry_equiv_pos_as_xyz
  1  'x, y, z'
loop_
 _atom_site_type_symbol
 _atom_site_label
 _atom_site_symmetry_multiplicity
 _atom_site_fract_x
 _atom_site_fract_y
 _atom_site_fract_z
 _atom_site_occupancy
  Pu  Pu0  1  0.32491506  0.82368868  0.64982613  1
  Pu  Pu1  1  0.92508494  0.92631132  0.85017387  1
  Pu  Pu2  1  0.17373122  0.67295180  0.34746244  1
  Pu  Pu3  1  0.07626878  0.07704820  0.15253756  1
  Sn  Sn0  1  0.50186143  0.00080261  0.00372385  1
  Sn  Sn1  1  0.74813857  0.74919739  0.49627615  1
  Sn  Sn2  1  0.99948700  0.50003299  0.99897400  1
  Sn  Sn3  1  0.25051300  0.24996701  0.50102600  1
  Sn  Sn4  1  0.66219605  0.16127313  0.32439511  1
  Sn  Sn5  1  0.58780395  0.58872687  0.17560489  1
  Sn  Sn6  1  0.83755575  0.33850255  0.67511150  1
  Sn  Sn7  1  0.41244425  0.41149745  0.82488850  1
loop_
_geom_bond_atom_site_label_1
_geom_bond_atom_site_label_2
_geom_bond_distance
_geom_bond_site_symmetry_2
Pu0 Sn3 3.193086 1_555
Pu0 Sn3 3.195577 1_565
Pu0 Sn1 3.233700 1_555
Pu0 Sn1 3.233709 1_455
Pu0 Sn6 3.266732 1_555
Pu0 Sn6 3.266744 1_455
Pu0 Sn6 3.281182 1_565
Pu0 Sn6 3.281195 1_465
Pu0 Sn7 3.473610 1_555
Pu0 Sn7 3.477504 1_565
Pu0 Pu1 3.756234 1_555
Pu0 Pu1 3.756257 1_455
Pu1 Sn2 3.193086 1_565
Pu1 Sn2 3.195577 1_555
Pu1 Sn0 3.233700 1_566
Pu1 Sn0 3.233709 1_666
Pu1 Sn7 3.266732 1_565
Pu1 Sn7 3.266744 1_665
Pu1 Sn7 3.281182 1_555
Pu1 Sn7 3.281195 1_655
Pu1 Sn6 3.473610 1_565
Pu1 Sn6 3.477504 1_555
Pu2 Sn1 3.184497 1_455
Pu2 Sn1 3.184501 1_555
Pu2 Sn3 3.241873 1_555
Pu2 Sn3 3.245466 1_565
Pu2 Sn4 3.269711 1_565
Pu2 Sn4 3.269720 1_465
Pu2 Sn4 3.270962 1_555
Pu2 Sn4 3.270971 1_455
Pu2 Sn5 3.430831 1_455
Pu2 Sn5 3.430840 1_555
Pu2 Pu3 3.698045 1_555
Pu2 Pu3 3.704714 1_565
Pu3 Sn0 3.184497 1_555
Pu3 Sn0 3.184501 1_455
Pu3 Sn2 3.241873 1_454
Pu3 Sn2 3.245466 1_444
Pu3 Sn5 3.269711 1_445
Pu3 Sn5 3.269720 1_545
Pu3 Sn5 3.270962 1_455
Pu3 Sn5 3.270971 1_555
Pu3 Sn4 3.430831 1_555
Pu3 Sn4 3.430840 1_455
Sn0 Sn2 3.247898 1_444
Sn0 Sn2 3.247901 1_544
Sn0 Sn2 3.258337 1_454
Sn0 Sn2 3.258340 1_554
Sn0 Sn5 3.433146 1_545
Sn0 Sn5 3.447594 1_555
Sn0 Sn7 3.516898 1_554
Sn0 Sn7 3.518432 1_544
Sn1 Sn3 3.247898 1_665
Sn1 Sn3 3.247901 1_565
Sn1 Sn3 3.258337 1_655
Sn1 Sn3 3.258340 1_555
Sn1 Sn4 3.433146 1_565
Sn1 Sn4 3.447594 1_555
Sn1 Sn6 3.516898 1_555
Sn1 Sn6 3.518432 1_565
Sn2 Sn7 3.455523 1_555
Sn2 Sn7 3.455523 1_655
Sn2 Sn5 3.483881 1_556
Sn2 Sn5 3.483890 1_656
Sn3 Sn6 3.455523 1_555
Sn3 Sn6 3.455523 1_455
Sn3 Sn4 3.483881 1_555
Sn3 Sn4 3.483890 1_455
Sn4 Sn5 3.189088 1_545
Sn4 Sn5 3.199378 1_555
Sn6 Sn7 3.194436 1_655
Sn6 Sn7 3.194436 1_555
