# generated using pymatgen
data_Th(SiPt)2
_symmetry_space_group_name_H-M   'P 1'
_cell_length_a   4.27602772
_cell_length_b   4.27602772
_cell_length_c   9.80455761
_cell_angle_alpha   90.00000000
_cell_angle_beta   90.00000000
_cell_angle_gamma   90.00000000
_symmetry_Int_Tables_number   1
_chemical_formula_structural   Th(SiPt)2
_chemical_formula_sum   'Th2 Si4 Pt4'
_cell_volume   179.27058123
_cell_formula_units_Z   2
loop_
 _symmetry_equiv_pos_site_id
 _symmetry_equiv_pos_as_xyz
  1  'x, y, z'
loop_
 _atom_site_type_symbol
 _atom_site_label
 _atom_site_symmetry_multiplicity
 _atom_site_fract_x
 _atom_site_fract_y
 _atom_site_fract_z
 _atom_site_occupancy
  Th  Th0  1  -0.00000000  0.50000000  0.25004645  1
  Th  Th1  1  0.50000000  -0.00000000  0.74995355  1
  Si  Si0  1  0.00000000  0.00000000  0.50000000  1
  Si  Si1  1  0.50000000  0.50000000  0.50000000  1
  Si  Si2  1  0.00000000  0.50000000  0.86803970  1
  Si  Si3  1  0.50000000  0.00000000  0.13196030  1
  Pt  Pt0  1  0.00000000  0.00000000  0.00000000  1
  Pt  Pt1  1  0.50000000  0.50000000  0.00000000  1
  Pt  Pt2  1  -0.00000000  0.50000000  0.61908003  1
  Pt  Pt3  1  0.50000000  0.00000000  0.38091997  1
loop_
_geom_bond_atom_site_label_1
_geom_bond_atom_site_label_2
_geom_bond_distance
_geom_bond_site_symmetry_2
Si0 Th1 3.252223 1_455
Si0 Th0 3.252223 1_555
Si0 Th0 3.252223 1_545
Si0 Th1 3.252223 1_555
Si1 Th0 3.252223 1_555
Si1 Th1 3.252223 1_565
Si1 Th1 3.252223 1_555
Si1 Th0 3.252223 1_655
Si2 Th1 3.237695 1_565
Si2 Th1 3.237695 1_555
Si2 Th1 3.237695 1_465
Si2 Th1 3.237695 1_455
Si3 Th0 3.237695 1_655
Si3 Th0 3.237695 1_645
Si3 Th0 3.237695 1_555
Si3 Th0 3.237695 1_545
Pt0 Si3 2.499011 1_455
Pt0 Si3 2.499011 1_555
Pt0 Si2 2.499011 1_544
Pt0 Si2 2.499011 1_554
Pt0 Th0 3.252910 1_555
Pt0 Th1 3.252910 1_454
Pt0 Th0 3.252910 1_545
Pt0 Th1 3.252910 1_554
Pt1 Si3 2.499011 1_565
Pt1 Si3 2.499011 1_555
Pt1 Si2 2.499011 1_554
Pt1 Si2 2.499011 1_654
Pt1 Th0 3.252910 1_555
Pt1 Th0 3.252910 1_655
Pt1 Th1 3.252910 1_564
Pt1 Th1 3.252910 1_554
Pt2 Si1 2.436026 1_555
Pt2 Si0 2.436026 1_565
Pt2 Si0 2.436026 1_555
Pt2 Si1 2.436026 1_455
Pt2 Si2 2.440939 1_555
Pt2 Th1 3.284615 1_565
Pt2 Th1 3.284615 1_555
Pt2 Th1 3.284615 1_465
Pt2 Th1 3.284615 1_455
Pt3 Si0 2.436026 1_555
Pt3 Si1 2.436026 1_545
Pt3 Si1 2.436026 1_555
Pt3 Si0 2.436026 1_655
Pt3 Si3 2.440939 1_555
Pt3 Th0 3.284615 1_555
Pt3 Th0 3.284615 1_545
Pt3 Th0 3.284615 1_655
Pt3 Th0 3.284615 1_645
