# generated using pymatgen
data_Nb
_symmetry_space_group_name_H-M   'P 1'
_cell_length_a   5.37434300
_cell_length_b   6.93801069
_cell_length_c   7.17991642
_cell_angle_alpha   107.49679114
_cell_angle_beta   108.62026610
_cell_angle_gamma   102.62492072
_symmetry_Int_Tables_number   1
_chemical_formula_structural   Nb
_chemical_formula_sum   Nb12
_cell_volume   226.83961495
_cell_formula_units_Z   12
loop_
 _symmetry_equiv_pos_site_id
 _symmetry_equiv_pos_as_xyz
  1  'x, y, z'
loop_
 _atom_site_type_symbol
 _atom_site_label
 _atom_site_symmetry_multiplicity
 _atom_site_fract_x
 _atom_site_fract_y
 _atom_site_fract_z
 _atom_site_occupancy
  Nb  Nb0  1  0.06949000  0.14039300  0.50331600  1
  Nb  Nb1  1  0.50966700  0.21257300  0.34060600  1
  Nb  Nb2  1  0.07271900  0.73144100  0.13375600  1
  Nb  Nb3  1  0.04611200  0.40581600  0.26233800  1
  Nb  Nb4  1  0.02419300  0.98391800  0.88225500  1
  Nb  Nb5  1  0.59636800  0.92596700  0.05004100  1
  Nb  Nb6  1  0.68387200  0.72041400  0.39369500  1
  Nb  Nb7  1  0.05469400  0.56424100  0.69776300  1
  Nb  Nb8  1  0.55334000  0.56381100  0.69914800  1
  Nb  Nb9  1  0.42808000  0.39500100  0.99830700  1
  Nb  Nb10  1  0.77133900  0.25117600  0.78939500  1
  Nb  Nb11  1  0.33650400  0.88006700  0.60414700  1
loop_
_geom_bond_atom_site_label_1
_geom_bond_atom_site_label_2
_geom_bond_distance
_geom_bond_site_symmetry_2
Nb0 Nb11 2.664843 1_545
Nb0 Nb3 2.877276 1_555
Nb0 Nb7 2.882257 1_555
Nb0 Nb6 2.888675 1_445
Nb0 Nb1 2.968283 1_555
Nb0 Nb10 3.011346 1_455
Nb0 Nb8 3.034967 1_555
Nb0 Nb5 3.069349 1_445
Nb0 Nb1 3.071417 1_455
Nb0 Nb9 3.135021 1_555
Nb0 Nb2 3.258098 1_545
Nb0 Nb4 3.274729 1_545
Nb0 Nb10 3.445769 1_555
Nb1 Nb5 2.656098 1_545
Nb1 Nb8 2.865750 1_555
Nb1 Nb10 2.975752 1_555
Nb1 Nb9 3.042908 1_554
Nb1 Nb3 3.055983 1_555
Nb1 Nb7 3.070162 1_655
Nb1 Nb4 3.118095 1_544
Nb1 Nb3 3.197376 1_655
Nb1 Nb2 3.198173 1_545
Nb1 Nb6 3.310402 1_555
Nb2 Nb3 2.678419 1_555
Nb2 Nb4 2.863240 1_554
Nb2 Nb7 2.954335 1_554
Nb2 Nb8 3.117330 1_454
Nb2 Nb5 3.122859 1_455
Nb2 Nb5 3.163945 1_555
Nb2 Nb6 3.219157 1_455
Nb2 Nb6 3.249373 1_555
Nb2 Nb9 3.368315 1_454
Nb2 Nb9 3.436809 1_554
Nb3 Nb7 2.967087 1_555
Nb3 Nb8 3.104161 1_555
Nb3 Nb9 3.206308 1_554
Nb3 Nb5 3.213643 1_445
Nb3 Nb9 3.227444 1_454
Nb3 Nb6 3.290774 1_555
Nb3 Nb4 3.296962 1_544
Nb3 Nb6 3.351989 1_455
Nb4 Nb9 2.872309 1_565
Nb4 Nb7 2.878846 1_555
Nb4 Nb5 2.924994 1_456
Nb4 Nb8 2.995769 1_455
Nb4 Nb5 3.087882 1_556
Nb4 Nb6 3.094744 1_455
Nb5 Nb8 2.877786 1_554
Nb5 Nb7 3.075373 1_554
Nb5 Nb6 3.164044 1_555
Nb6 Nb9 2.709861 1_554
Nb6 Nb8 2.926530 1_555
Nb6 Nb7 3.082204 1_655
Nb7 Nb8 2.677394 1_555
Nb7 Nb8 2.696994 1_455
Nb7 Nb9 3.138528 1_555
Nb8 Nb9 2.920608 1_555
Nb10 Nb4 2.644934 1_645
Nb10 Nb11 2.680553 1_545
Nb10 Nb7 2.742784 1_655
Nb10 Nb8 2.822865 1_555
Nb10 Nb9 2.884552 1_555
Nb10 Nb3 2.962611 1_656
Nb10 Nb9 3.143714 1_655
Nb10 Nb2 3.157368 1_656
Nb11 Nb7 2.762609 1_555
Nb11 Nb8 2.854445 1_555
Nb11 Nb5 2.939162 1_556
Nb11 Nb2 2.947710 1_555
Nb11 Nb6 2.948608 1_555
Nb11 Nb4 3.021156 1_555
Nb11 Nb6 3.118218 1_455
Nb11 Nb3 3.120710 1_555
Nb11 Nb4 3.379930 1_655
