# generated using pymatgen
data_Zr5Sn3As
_symmetry_space_group_name_H-M   'P 1'
_cell_length_a   8.66441951
_cell_length_b   8.66441951
_cell_length_c   5.95940015
_cell_angle_alpha   90.00000000
_cell_angle_beta   90.00000000
_cell_angle_gamma   120.00000951
_symmetry_Int_Tables_number   1
_chemical_formula_structural   Zr5Sn3As
_chemical_formula_sum   'Zr10 Sn6 As2'
_cell_volume   387.44680182
_cell_formula_units_Z   2
loop_
 _symmetry_equiv_pos_site_id
 _symmetry_equiv_pos_as_xyz
  1  'x, y, z'
loop_
 _atom_site_type_symbol
 _atom_site_label
 _atom_site_symmetry_multiplicity
 _atom_site_fract_x
 _atom_site_fract_y
 _atom_site_fract_z
 _atom_site_occupancy
  Zr  Zr0  1  0.66666700  0.33333300  -0.00000000  1
  Zr  Zr1  1  0.33333300  0.66666700  -0.00000000  1
  Zr  Zr2  1  0.33333300  0.66666700  0.50000000  1
  Zr  Zr3  1  0.66666700  0.33333300  0.50000000  1
  Zr  Zr4  1  0.73974416  0.73974416  0.75000000  1
  Zr  Zr5  1  0.26025584  0.00000000  0.75000000  1
  Zr  Zr6  1  0.00000000  0.26025584  0.75000000  1
  Zr  Zr7  1  0.26025584  0.26025584  0.25000000  1
  Zr  Zr8  1  0.73974416  -0.00000000  0.25000000  1
  Zr  Zr9  1  -0.00000000  0.73974416  0.25000000  1
  Sn  Sn0  1  0.39603101  0.39603101  0.75000000  1
  Sn  Sn1  1  0.60396899  0.00000000  0.75000000  1
  Sn  Sn2  1  0.00000000  0.60396899  0.75000000  1
  Sn  Sn3  1  0.60396899  0.60396899  0.25000000  1
  Sn  Sn4  1  0.39603101  -0.00000000  0.25000000  1
  Sn  Sn5  1  -0.00000000  0.39603101  0.25000000  1
  As  As0  1  0.00000000  -0.00000000  -0.00000000  1
  As  As1  1  0.00000000  -0.00000000  0.50000000  1
loop_
_geom_bond_atom_site_label_1
_geom_bond_atom_site_label_2
_geom_bond_distance
_geom_bond_site_symmetry_2
Sn0 Zr4 2.978074 1_555
Sn0 Zr5 3.020197 1_555
Sn0 Zr6 3.020197 1_555
Sn0 Zr1 3.047489 1_556
Sn0 Zr3 3.047489 1_555
Sn0 Zr2 3.047489 1_555
Sn0 Zr0 3.047489 1_556
Sn0 Zr7 3.203523 1_555
Sn0 Zr7 3.203523 1_556
Sn1 Zr5 2.978075 1_555
Sn1 Zr6 3.020197 1_655
Sn1 Zr4 3.020197 1_545
Sn1 Zr3 3.047481 1_555
Sn1 Zr0 3.047481 1_556
Sn1 Zr2 3.047484 1_545
Sn1 Zr1 3.047484 1_546
Sn1 Zr8 3.203523 1_556
Sn1 Zr8 3.203523 1_555
Sn2 Zr6 2.978075 1_555
Sn2 Zr5 3.020197 1_565
Sn2 Zr4 3.020197 1_455
Sn2 Zr2 3.047481 1_555
Sn2 Zr1 3.047481 1_556
Sn2 Zr0 3.047484 1_456
Sn2 Zr3 3.047484 1_455
Sn2 Zr9 3.203523 1_555
Sn2 Zr9 3.203523 1_556
Sn3 Zr7 2.978074 1_555
Sn3 Zr8 3.020197 1_565
Sn3 Zr9 3.020197 1_655
Sn3 Zr3 3.047489 1_555
Sn3 Zr0 3.047489 1_555
Sn3 Zr2 3.047489 1_555
Sn3 Zr1 3.047489 1_555
Sn3 Zr4 3.203523 1_555
Sn3 Zr4 3.203523 1_554
Sn4 Zr8 2.978075 1_555
Sn4 Zr9 3.020197 1_545
Sn4 Zr7 3.020197 1_555
Sn4 Zr2 3.047481 1_545
Sn4 Zr1 3.047481 1_545
Sn4 Zr3 3.047484 1_555
Sn4 Zr0 3.047484 1_555
Sn4 Zr5 3.203523 1_555
Sn4 Zr5 3.203523 1_554
Sn5 Zr9 2.978075 1_555
Sn5 Zr8 3.020197 1_455
Sn5 Zr7 3.020197 1_555
Sn5 Zr3 3.047481 1_455
Sn5 Zr0 3.047481 1_455
Sn5 Zr2 3.047484 1_555
Sn5 Zr1 3.047484 1_555
Sn5 Zr6 3.203523 1_555
Sn5 Zr6 3.203523 1_554
As0 Zr7 2.702688 1_555
As0 Zr4 2.702688 1_444
As0 Zr8 2.702688 1_455
As0 Zr5 2.702688 1_554
As0 Zr6 2.702688 1_554
As0 Zr9 2.702688 1_545
As1 Zr7 2.702688 1_555
As1 Zr4 2.702688 1_445
As1 Zr8 2.702688 1_455
As1 Zr5 2.702688 1_555
As1 Zr6 2.702688 1_555
As1 Zr9 2.702688 1_545
