# generated using pymatgen
data_CsAl3(SiO4)3
_symmetry_space_group_name_H-M   'P 1'
_cell_length_a   5.34859583
_cell_length_b   5.34859583
_cell_length_c   22.16846868
_cell_angle_alpha   82.12581970
_cell_angle_beta   82.12581970
_cell_angle_gamma   60.02261480
_symmetry_Int_Tables_number   1
_chemical_formula_structural   CsAl3(SiO4)3
_chemical_formula_sum   'Cs2 Al6 Si6 O24'
_cell_volume   542.42582262
_cell_formula_units_Z   2
loop_
 _symmetry_equiv_pos_site_id
 _symmetry_equiv_pos_as_xyz
  1  'x, y, z'
loop_
 _atom_site_type_symbol
 _atom_site_label
 _atom_site_symmetry_multiplicity
 _atom_site_fract_x
 _atom_site_fract_y
 _atom_site_fract_z
 _atom_site_occupancy
  Cs  Cs0  1  0.09358500  0.89460200  0.26249500  1
  Cs  Cs1  1  0.89460200  0.09358500  0.76249500  1
  Al  Al0  1  0.36745700  0.82108900  0.49766400  1
  Al  Al1  1  0.19540000  0.62763200  0.99768300  1
  Al  Al2  1  0.62763200  0.19540000  0.49768300  1
  Al  Al3  1  0.82108900  0.36745700  0.99766400  1
  Al  Al4  1  0.71130900  0.52891600  0.37412000  1
  Al  Al5  1  0.52891600  0.71130900  0.87412000  1
  Si  Si0  1  0.40215900  0.18345300  0.37143300  1
  Si  Si1  1  0.81813200  0.60432200  0.12390400  1
  Si  Si2  1  0.60432200  0.81813200  0.62390400  1
  Si  Si3  1  0.18345300  0.40215900  0.87143300  1
  Si  Si4  1  0.47181700  0.29242500  0.12458400  1
  Si  Si5  1  0.29242500  0.47181700  0.62458400  1
  O  O0  1  0.60652700  0.32009800  0.34141300  1
  O  O1  1  0.64585800  0.42495800  0.15438100  1
  O  O2  1  0.42495800  0.64585800  0.65438100  1
  O  O3  1  0.32009800  0.60652700  0.84141300  1
  O  O4  1  0.07580700  0.40603000  0.35372800  1
  O  O5  1  0.62135900  0.94037100  0.14402000  1
  O  O6  1  0.94037100  0.62135900  0.64402000  1
  O  O7  1  0.40603000  0.07580700  0.85372800  1
  O  O8  1  0.51935600  0.88163900  0.34052800  1
  O  O9  1  0.13198700  0.45066600  0.15545500  1
  O  O10  1  0.45066600  0.13198700  0.65545500  1
  O  O11  1  0.88163900  0.51935600  0.84052800  1
  O  O12  1  0.42870600  0.11214600  0.44744900  1
  O  O13  1  0.88687500  0.57104700  0.05089800  1
  O  O14  1  0.57104700  0.88687500  0.55089800  1
  O  O15  1  0.11214600  0.42870600  0.94744900  1
  O  O16  1  0.00675400  0.92745100  0.47230800  1
  O  O17  1  0.06100700  0.98637300  0.03323800  1
  O  O18  1  0.98637300  0.06100700  0.53323800  1
  O  O19  1  0.92745100  0.00675400  0.97230800  1
  O  O20  1  0.60976500  0.52026300  0.45280000  1
  O  O21  1  0.47682700  0.37583100  0.05189800  1
  O  O22  1  0.37583100  0.47682700  0.55189800  1
  O  O23  1  0.52026300  0.60976500  0.95280000  1
loop_
_geom_bond_atom_site_label_1
_geom_bond_atom_site_label_2
_geom_bond_distance
_geom_bond_site_symmetry_2
Cs0 O0 2.990653 1_465
Cs0 O8 3.011974 1_555
Cs0 O4 3.110582 1_555
Cs0 O8 3.339830 1_455
Cs0 O0 3.383389 1_555
Cs0 O9 3.497673 1_555
Cs0 O1 3.528030 1_465
Cs0 O4 3.575653 1_565
Cs0 O9 3.614105 1_565
Cs0 O1 3.615856 1_555
Cs0 O5 3.661889 1_555
Cs0 O5 3.789577 1_455
Cs1 O3 2.990653 1_645
Cs1 O11 3.011974 1_555
Cs1 O7 3.110582 1_555
Cs1 O11 3.339830 1_545
Cs1 O3 3.383389 1_555
Cs1 O10 3.497673 1_555
Cs1 O2 3.528030 1_645
Cs1 O7 3.575653 1_655
Cs1 O10 3.614105 1_655
Cs1 O2 3.615856 1_555
Cs1 O6 3.661889 1_555
Cs1 O6 3.789577 1_545
Al0 O20 1.805302 1_555
Al0 O16 1.863962 1_555
Al0 O14 1.884408 1_555
Al0 O18 1.909502 1_465
Al0 O12 1.924802 1_565
Al0 O22 2.040519 1_555
Al1 O23 1.845175 1_555
Al1 O19 1.867203 1_465
Al1 O15 1.872012 1_555
Al1 O21 1.884245 1_556
Al1 O17 1.923656 1_556
Al1 O13 2.018471 1_456
Al2 O20 1.845175 1_555
Al2 O16 1.867203 1_645
Al2 O12 1.872012 1_555
Al2 O22 1.884245 1_555
Al2 O18 1.923656 1_555
Al2 O14 2.018471 1_545
Al3 O23 1.805302 1_555
Al3 O19 1.863962 1_555
Al3 O13 1.884408 1_556
Al3 O17 1.909502 1_646
Al3 O15 1.924802 1_655
Al3 O21 2.040519 1_556
Al4 O4 1.731053 1_655
Al4 O0 1.745272 1_555
Al4 O8 1.748355 1_555
Al4 O20 1.755803 1_555
Al5 O7 1.731053 1_565
Al5 O3 1.745272 1_555
Al5 O11 1.748355 1_555
Al5 O23 1.755803 1_555
O0 Si0 1.624077 1_555
O1 Si1 1.661635 1_555
O1 Si4 1.661788 1_555
O2 Si2 1.661635 1_555
O2 Si5 1.661788 1_555
O3 Si3 1.624077 1_555
O4 Si0 1.612838 1_555
O5 Si1 1.654624 1_555
O5 Si4 1.654727 1_565
O6 Si2 1.654624 1_555
O6 Si5 1.654727 1_655
O7 Si3 1.612838 1_555
O8 Si0 1.625538 1_565
O9 Si1 1.663777 1_455
O9 Si4 1.664022 1_555
O10 Si2 1.663777 1_545
O10 Si5 1.664022 1_555
O11 Si3 1.625538 1_655
O12 Si0 1.685445 1_555
O13 Si1 1.623781 1_555
O14 Si2 1.623781 1_555
O15 Si3 1.685445 1_555
O16 O18 1.578870 1_465
O17 O19 1.578870 1_464
O21 Si4 1.612233 1_555
O22 Si5 1.612233 1_555
