# generated using pymatgen
data_Mg6TiCoO8
_symmetry_space_group_name_H-M   'P 1'
_cell_length_a   8.67816491
_cell_length_b   4.23344036
_cell_length_c   4.23344036
_cell_angle_alpha   90.00000000
_cell_angle_beta   90.00000000
_cell_angle_gamma   90.00000000
_symmetry_Int_Tables_number   1
_chemical_formula_structural   Mg6TiCoO8
_chemical_formula_sum   'Mg6 Ti1 Co1 O8'
_cell_volume   155.53022149
_cell_formula_units_Z   1
loop_
 _symmetry_equiv_pos_site_id
 _symmetry_equiv_pos_as_xyz
  1  'x, y, z'
loop_
 _atom_site_type_symbol
 _atom_site_label
 _atom_site_symmetry_multiplicity
 _atom_site_fract_x
 _atom_site_fract_y
 _atom_site_fract_z
 _atom_site_occupancy
  Mg  Mg0  1  0.50000000  0.00000000  0.00000000  1
  Mg  Mg1  1  0.50000000  0.50000000  0.50000000  1
  Mg  Mg2  1  0.25124340  0.00000000  0.50000000  1
  Mg  Mg3  1  0.74875660  0.00000000  0.50000000  1
  Mg  Mg4  1  0.25124340  0.50000000  0.00000000  1
  Mg  Mg5  1  0.74875660  0.50000000  0.00000000  1
  Ti  Ti0  1  0.00000000  0.50000000  0.50000000  1
  Co  Co0  1  0.00000000  0.00000000  0.00000000  1
  O  O0  1  0.26142003  0.00000000  0.00000000  1
  O  O1  1  0.73857997  0.00000000  0.00000000  1
  O  O2  1  0.24727611  0.50000000  0.50000000  1
  O  O3  1  0.75272389  0.50000000  0.50000000  1
  O  O4  1  0.00000000  0.00000000  0.50000000  1
  O  O5  1  0.50000000  0.00000000  0.50000000  1
  O  O6  1  0.00000000  0.50000000  0.00000000  1
  O  O7  1  0.50000000  0.50000000  0.00000000  1
loop_
_geom_bond_atom_site_label_1
_geom_bond_atom_site_label_2
_geom_bond_distance
_geom_bond_site_symmetry_2
Mg0 O1 2.070436 1_555
Mg0 O0 2.070436 1_555
Mg0 O7 2.116720 1_555
Mg0 O5 2.116720 1_554
Mg0 O5 2.116720 1_555
Mg0 O7 2.116720 1_545
Mg1 O7 2.116720 1_555
Mg1 O7 2.116720 1_556
Mg1 O5 2.116720 1_555
Mg1 O5 2.116720 1_565
Mg1 O3 2.193180 1_555
Mg1 O2 2.193180 1_555
Mg2 O2 2.117000 1_555
Mg2 O2 2.117000 1_545
Mg2 O0 2.118562 1_555
Mg2 O0 2.118562 1_556
Mg2 O5 2.158751 1_555
Mg2 O4 2.180332 1_555
Mg3 O3 2.117000 1_545
Mg3 O3 2.117000 1_555
Mg3 O1 2.118562 1_555
Mg3 O1 2.118562 1_556
Mg3 O5 2.158751 1_555
Mg3 O4 2.180332 1_655
Mg4 O2 2.117000 1_554
Mg4 O2 2.117000 1_555
Mg4 O0 2.118562 1_555
Mg4 O0 2.118562 1_565
Mg4 O7 2.158751 1_555
Mg4 O6 2.180332 1_555
Mg5 O3 2.117000 1_555
Mg5 O3 2.117000 1_554
Mg5 O1 2.118562 1_555
Mg5 O1 2.118562 1_565
Mg5 O7 2.158751 1_555
Mg5 O6 2.180332 1_655
Co0 O6 2.116720 1_555
Co0 O4 2.116720 1_554
Co0 O4 2.116720 1_555
Co0 O6 2.116720 1_545
Co0 O0 2.268646 1_555
Co0 O1 2.268646 1_455
O2 Ti0 2.145903 1_555
O3 Ti0 2.145903 1_655
O4 Ti0 2.116720 1_545
O4 Ti0 2.116720 1_555
O6 Ti0 2.116720 1_555
O6 Ti0 2.116720 1_554
