# generated using pymatgen
data_SmReB4
_symmetry_space_group_name_H-M   'P 1'
_cell_length_a   3.65472158
_cell_length_b   6.03375913
_cell_length_c   11.66659688
_cell_angle_alpha   90.00000000
_cell_angle_beta   90.00000000
_cell_angle_gamma   90.00000000
_symmetry_Int_Tables_number   1
_chemical_formula_structural   SmReB4
_chemical_formula_sum   'Sm4 Re4 B16'
_cell_volume   257.26840760
_cell_formula_units_Z   4
loop_
 _symmetry_equiv_pos_site_id
 _symmetry_equiv_pos_as_xyz
  1  'x, y, z'
loop_
 _atom_site_type_symbol
 _atom_site_label
 _atom_site_symmetry_multiplicity
 _atom_site_fract_x
 _atom_site_fract_y
 _atom_site_fract_z
 _atom_site_occupancy
  Sm  Sm0  1  0.50000000  0.37529289  0.15059675  1
  Sm  Sm1  1  0.50000000  0.62470711  0.84940325  1
  Sm  Sm2  1  0.50000000  0.12470711  0.65059675  1
  Sm  Sm3  1  0.50000000  0.87529289  0.34940325  1
  Re  Re0  1  0.50000000  0.36959111  0.41381863  1
  Re  Re1  1  0.50000000  0.63040889  0.58618137  1
  Re  Re2  1  0.50000000  0.13040889  0.91381863  1
  Re  Re3  1  0.50000000  0.86959111  0.08618137  1
  B  B0  1  0.00000000  0.11294751  0.04635515  1
  B  B1  1  -0.00000000  0.88705249  0.95364485  1
  B  B2  1  -0.00000000  0.38705249  0.54635515  1
  B  B3  1  0.00000000  0.61294751  0.45364485  1
  B  B4  1  0.00000000  0.13963748  0.46800190  1
  B  B5  1  -0.00000000  0.86036252  0.53199810  1
  B  B6  1  0.00000000  0.36036252  0.96800190  1
  B  B7  1  -0.00000000  0.63963748  0.03199810  1
  B  B8  1  0.00000000  0.02421467  0.19024904  1
  B  B9  1  0.00000000  0.97578533  0.80975096  1
  B  B10  1  -0.00000000  0.47578533  0.69024904  1
  B  B11  1  -0.00000000  0.52421467  0.30975096  1
  B  B12  1  0.00000000  0.21678184  0.31626828  1
  B  B13  1  0.00000000  0.78321816  0.68373172  1
  B  B14  1  -0.00000000  0.28321816  0.81626828  1
  B  B15  1  -0.00000000  0.71678184  0.18373172  1
loop_
_geom_bond_atom_site_label_1
_geom_bond_atom_site_label_2
_geom_bond_distance
_geom_bond_site_symmetry_2
Re0 Re1 2.553475 1_555
Re0 Sm0 3.071096 1_555
Re0 Sm3 3.075700 1_545
Re0 Sm2 3.132737 1_555
Re0 Sm3 3.142466 1_555
Re1 Sm1 3.071096 1_555
Re1 Sm2 3.075700 1_565
Re1 Sm3 3.132737 1_555
Re1 Sm2 3.142466 1_555
Re2 Re3 2.553475 1_546
Re2 Sm2 3.071096 1_555
Re2 Sm1 3.075700 1_555
Re2 Sm0 3.132737 1_556
Re2 Sm1 3.142466 1_545
Re3 Sm3 3.071096 1_555
Re3 Sm0 3.075700 1_555
Re3 Sm1 3.132737 1_554
Re3 Sm0 3.142466 1_565
B0 B1 1.740013 1_544
B0 B6 1.750482 1_554
B0 B8 1.762059 1_555
B0 Re3 2.389811 1_545
B0 Re3 2.389811 1_445
B0 Re2 2.396088 1_454
B0 Re2 2.396088 1_554
B0 Sm0 2.706274 1_555
B0 Sm0 2.706274 1_455
B1 B7 1.750482 1_556
B1 B9 1.762059 1_555
B1 Re2 2.389811 1_465
B1 Re2 2.389811 1_565
B1 Re3 2.396088 1_456
B1 Re3 2.396088 1_556
B1 Sm1 2.706274 1_555
B1 Sm1 2.706274 1_455
B2 B3 1.740013 1_555
B2 B4 1.750482 1_555
B2 Re1 2.389811 1_455
B2 Re1 2.389811 1_555
B2 Re0 2.396088 1_455
B2 Re0 2.396088 1_555
B2 Sm2 2.706274 1_555
B2 Sm2 2.706274 1_455
B3 B5 1.750482 1_555
B3 Re0 2.389811 1_455
B3 Re0 2.389811 1_555
B3 Re1 2.396088 1_555
B3 Re1 2.396088 1_455
B3 Sm3 2.706274 1_555
B3 Sm3 2.706274 1_455
B4 B5 1.843075 1_545
B4 Re0 2.379907 1_455
B4 Re0 2.379907 1_555
B4 Sm3 2.792438 1_445
B4 Sm3 2.792438 1_545
B4 Sm2 2.808091 1_455
B4 Sm2 2.808091 1_555
B5 Re1 2.379907 1_555
B5 Re1 2.379907 1_455
B5 Sm2 2.792438 1_465
B5 Sm2 2.792438 1_565
B5 Sm3 2.808091 1_455
B5 Sm3 2.808091 1_555
B6 B7 1.843075 1_556
B6 Re2 2.379907 1_555
B6 Re2 2.379907 1_455
B6 Sm1 2.792438 1_555
B6 Sm1 2.792438 1_455
B6 Sm0 2.808091 1_456
B6 Sm0 2.808091 1_556
B7 Re3 2.379907 1_455
B7 Re3 2.379907 1_555
B7 Sm0 2.792438 1_555
B7 Sm0 2.792438 1_455
B7 Sm1 2.808091 1_554
B7 Sm1 2.808091 1_454
B8 Re3 2.384060 1_445
B8 Re3 2.384060 1_545
B8 Sm3 2.755779 1_545
B8 Sm3 2.755779 1_445
B8 Sm0 2.835584 1_455
B8 Sm0 2.835584 1_555
B9 Re2 2.384060 1_565
B9 Re2 2.384060 1_465
B9 Sm2 2.755779 1_465
B9 Sm2 2.755779 1_565
B9 Sm1 2.835584 1_555
B9 Sm1 2.835584 1_455
B10 B2 1.762059 1_555
B10 B13 1.856533 1_555
B10 B14 1.873914 1_555
B10 Re1 2.384060 1_455
B10 Re1 2.384060 1_555
B10 Sm1 2.755779 1_555
B10 Sm1 2.755779 1_455
B10 Sm2 2.835584 1_455
B10 Sm2 2.835584 1_555
B11 B3 1.762059 1_555
B11 B12 1.856533 1_555
B11 B15 1.873914 1_555
B11 Re0 2.384060 1_555
B11 Re0 2.384060 1_455
B11 Sm0 2.755779 1_455
B11 Sm0 2.755779 1_555
B11 Sm3 2.835584 1_455
B11 Sm3 2.835584 1_555
B12 B4 1.830389 1_555
B12 B8 1.873914 1_555
B12 Re0 2.341919 1_455
B12 Re0 2.341919 1_555
B12 Sm3 2.781041 1_445
B12 Sm3 2.781041 1_545
B12 Sm0 2.826621 1_455
B12 Sm0 2.826621 1_555
B13 B5 1.830389 1_555
B13 B9 1.873914 1_555
B13 Re1 2.341919 1_455
B13 Re1 2.341919 1_555
B13 Sm2 2.781041 1_465
B13 Sm2 2.781041 1_565
B13 Sm1 2.826621 1_455
B13 Sm1 2.826621 1_555
B14 B6 1.830389 1_555
B14 B9 1.856533 1_545
B14 Re2 2.341919 1_555
B14 Re2 2.341919 1_455
B14 Sm1 2.781041 1_555
B14 Sm1 2.781041 1_455
B14 Sm2 2.826621 1_455
B14 Sm2 2.826621 1_555
B15 B7 1.830389 1_555
B15 B8 1.856533 1_565
B15 Re3 2.341919 1_555
B15 Re3 2.341919 1_455
B15 Sm0 2.781041 1_555
B15 Sm0 2.781041 1_455
B15 Sm3 2.826621 1_455
B15 Sm3 2.826621 1_555
