# generated using pymatgen
data_Na5Ni2P2(CO7)2
_symmetry_space_group_name_H-M   'P 1'
_cell_length_a   8.41035600
_cell_length_b   8.43643027
_cell_length_c   8.95665591
_cell_angle_alpha   90.67010773
_cell_angle_beta   90.56060415
_cell_angle_gamma   103.71666207
_symmetry_Int_Tables_number   1
_chemical_formula_structural   Na5Ni2P2(CO7)2
_chemical_formula_sum   'Na10 Ni4 P4 C4 O28'
_cell_volume   617.28674670
_cell_formula_units_Z   2
loop_
 _symmetry_equiv_pos_site_id
 _symmetry_equiv_pos_as_xyz
  1  'x, y, z'
loop_
 _atom_site_type_symbol
 _atom_site_label
 _atom_site_symmetry_multiplicity
 _atom_site_fract_x
 _atom_site_fract_y
 _atom_site_fract_z
 _atom_site_occupancy
  Na  Na0  1  0.23476900  0.98083800  0.08525700  1
  Na  Na1  1  0.87174300  0.86020000  0.26918600  1
  Na  Na2  1  0.39047500  0.38758300  0.24229700  1
  Na  Na3  1  0.62892100  0.14276100  0.26352800  1
  Na  Na4  1  0.11260100  0.61694200  0.25482500  1
  Na  Na5  1  0.88739900  0.38305800  0.74517500  1
  Na  Na6  1  0.37107900  0.85723900  0.73647200  1
  Na  Na7  1  0.60952500  0.61241700  0.75770300  1
  Na  Na8  1  0.12825700  0.13980000  0.73081400  1
  Na  Na9  1  0.76523100  0.01916200  0.91474300  1
  Ni  Ni0  1  0.98479100  0.23163100  0.35271200  1
  Ni  Ni1  1  0.48397800  0.73641600  0.35282400  1
  Ni  Ni2  1  0.01520900  0.76836900  0.64728800  1
  Ni  Ni3  1  0.51602200  0.26358400  0.64717600  1
  P  P0  1  0.76821900  0.51826700  0.42375000  1
  P  P1  1  0.26936600  0.01923400  0.41799500  1
  P  P2  1  0.73063400  0.98076600  0.58200500  1
  P  P3  1  0.23178100  0.48173300  0.57625000  1
  C  C0  1  0.51814300  0.77095000  0.07239900  1
  C  C1  1  0.01025500  0.25749000  0.07154300  1
  C  C2  1  0.98974500  0.74251000  0.92845700  1
  C  C3  1  0.48185700  0.22905000  0.92760100  1
  O  O0  1  0.98495300  0.74113000  0.07066700  1
  O  O1  1  0.46591900  0.20839600  0.06846900  1
  O  O2  1  0.40572900  0.65837200  0.13150000  1
  O  O3  1  0.89833100  0.14681500  0.13857400  1
  O  O4  1  0.61628200  0.86879200  0.16622900  1
  O  O5  1  0.11151600  0.35687500  0.15873300  1
  O  O6  1  0.32496900  0.88826500  0.32073300  1
  O  O7  1  0.82652600  0.38758900  0.32989400  1
  O  O8  1  0.63758000  0.57675000  0.32990600  1
  O  O9  1  0.13821200  0.07350000  0.31986700  1
  O  O10  1  0.80080800  0.04937100  0.43132100  1
  O  O11  1  0.29986900  0.55024000  0.42395900  1
  O  O12  1  0.91736700  0.66745300  0.45254400  1
  O  O13  1  0.41836000  0.16750900  0.44759000  1
  O  O14  1  0.58164000  0.83249100  0.55241000  1
  O  O15  1  0.08263300  0.33254700  0.54745600  1
  O  O16  1  0.19919200  0.95062900  0.56867900  1
  O  O17  1  0.70013100  0.44976000  0.57604100  1
  O  O18  1  0.86178800  0.92650000  0.68013300  1
  O  O19  1  0.17347400  0.61241100  0.67010600  1
  O  O20  1  0.67503100  0.11173500  0.67926700  1
  O  O21  1  0.36242000  0.42325000  0.67009400  1
  O  O22  1  0.88848400  0.64312500  0.84126700  1
  O  O23  1  0.38371800  0.13120800  0.83377100  1
  O  O24  1  0.59427100  0.34162800  0.86850000  1
  O  O25  1  0.10166900  0.85318500  0.86142600  1
  O  O26  1  0.53408100  0.79160400  0.93153100  1
  O  O27  1  0.01504700  0.25887000  0.92933300  1
loop_
_geom_bond_atom_site_label_1
_geom_bond_atom_site_label_2
_geom_bond_distance
_geom_bond_site_symmetry_2
Na0 O1 2.393748 1_565
Na0 O25 2.401226 1_554
Na0 O6 2.433482 1_555
Na0 O9 2.445847 1_565
Na0 O0 2.548433 1_455
Na0 O23 2.760551 1_564
Na1 O10 2.329383 1_565
Na1 O4 2.346997 1_555
Na1 O0 2.349913 1_555
Na1 O12 2.415477 1_555
Na1 O9 2.552488 1_665
Na1 O3 2.660858 1_565
Na1 O8 2.776797 1_555
Na2 O1 2.351807 1_555
Na2 O11 2.362010 1_555
Na2 O5 2.409263 1_555
Na2 O8 2.418180 1_555
Na2 O2 2.477235 1_555
Na2 O13 2.676001 1_555
Na3 O10 2.344043 1_555
Na3 O1 2.360938 1_555
Na3 O7 2.388631 1_555
Na3 O4 2.438755 1_545
Na3 O13 2.474246 1_555
Na3 O3 2.530115 1_555
Na4 O11 2.342151 1_555
Na4 O5 2.345380 1_555
Na4 O0 2.347352 1_455
Na4 O12 2.526832 1_455
Na4 O6 2.605186 1_555
Na4 O2 2.659642 1_555
Na4 O7 2.799839 1_455
Na5 O17 2.342151 1_555
Na5 O22 2.345380 1_555
Na5 O27 2.347352 1_655
Na5 O15 2.526832 1_655
Na5 O20 2.605186 1_555
Na5 O24 2.659642 1_555
Na5 O19 2.799839 1_655
Na6 O16 2.344043 1_555
Na6 O26 2.360938 1_555
Na6 O19 2.388631 1_555
Na6 O23 2.438755 1_565
Na6 O14 2.474246 1_555
Na6 O25 2.530115 1_555
Na7 O26 2.351807 1_555
Na7 O17 2.362010 1_555
Na7 O22 2.409263 1_555
Na7 O21 2.418180 1_555
Na7 O24 2.477235 1_555
Na7 O14 2.676001 1_555
Na8 O16 2.329383 1_545
Na8 O23 2.346997 1_555
Na8 O27 2.349913 1_555
Na8 O15 2.415477 1_555
Na8 O18 2.552488 1_445
Na8 O25 2.660858 1_545
Na8 O21 2.776797 1_555
Na9 O26 2.393748 1_545
Na9 O3 2.401226 1_556
Na9 O20 2.433482 1_555
Na9 O18 2.445847 1_545
Na9 O27 2.548433 1_655
Na9 O4 2.760551 1_546
Ni0 O15 2.012295 1_655
Ni0 O10 2.042703 1_555
Ni0 O9 2.084657 1_655
Ni0 O7 2.091927 1_555
Ni0 O3 2.100759 1_555
Ni0 O5 2.194549 1_655
Ni1 O14 2.036875 1_555
Ni1 O11 2.039573 1_555
Ni1 O6 2.079839 1_555
Ni1 O8 2.085524 1_555
Ni1 O2 2.129475 1_555
Ni1 O4 2.183852 1_555
Ni2 O12 2.012295 1_455
Ni2 O16 2.042703 1_555
Ni2 O18 2.084657 1_455
Ni2 O19 2.091927 1_555
Ni2 O25 2.100759 1_555
Ni2 O22 2.194549 1_455
Ni3 O13 2.036875 1_555
Ni3 O17 2.039573 1_555
Ni3 O20 2.079839 1_555
Ni3 O21 2.085524 1_555
Ni3 O24 2.129475 1_555
Ni3 O23 2.183852 1_555
C0 O26 1.279690 1_554
C0 O2 1.292988 1_555
C0 O4 1.309954 1_555
C1 O27 1.274859 1_554
C1 O5 1.292743 1_555
C1 O3 1.313654 1_455
C2 O0 1.274859 1_556
C2 O22 1.292743 1_555
C2 O25 1.313654 1_655
C3 O1 1.279690 1_556
C3 O24 1.292988 1_555
C3 O23 1.309954 1_555
O6 P1 1.558494 1_565
O7 P0 1.550912 1_555
O8 P0 1.551070 1_555
O9 P1 1.558430 1_555
O10 P2 1.541642 1_545
O11 P3 1.548957 1_555
O12 P0 1.568893 1_555
O13 P1 1.564497 1_555
O14 P2 1.564497 1_555
O15 P3 1.568893 1_555
O16 P1 1.541642 1_565
O17 P0 1.548957 1_555
O18 P2 1.558430 1_555
O19 P3 1.550912 1_555
O20 P2 1.558494 1_545
O21 P3 1.551070 1_555
