# generated using pymatgen
data_CaLaCrCuO6
_symmetry_space_group_name_H-M   'P 1'
_cell_length_a   5.55197700
_cell_length_b   5.47237500
_cell_length_c   9.42684388
_cell_angle_alpha   54.58281242
_cell_angle_beta   90.00000000
_cell_angle_gamma   90.00000000
_symmetry_Int_Tables_number   1
_chemical_formula_structural   CaLaCrCuO6
_chemical_formula_sum   'Ca2 La2 Cr2 Cu2 O12'
_cell_volume   233.41185587
_cell_formula_units_Z   2
loop_
 _symmetry_equiv_pos_site_id
 _symmetry_equiv_pos_as_xyz
  1  'x, y, z'
loop_
 _atom_site_type_symbol
 _atom_site_label
 _atom_site_symmetry_multiplicity
 _atom_site_fract_x
 _atom_site_fract_y
 _atom_site_fract_z
 _atom_site_occupancy
  Ca  Ca0  1  0.69936800  0.26000600  0.25057800  1
  Ca  Ca1  1  0.30063200  0.26000600  0.75057800  1
  La  La0  1  0.21247900  0.74283500  0.24995300  1
  La  La1  1  0.78752100  0.74283500  0.74995300  1
  Cr  Cr0  1  0.25089700  0.99794200  0.50102100  1
  Cr  Cr1  1  0.74910300  0.99794200  0.00102100  1
  Cu  Cu0  1  0.24854900  0.49963500  0.99944600  1
  Cu  Cu1  1  0.75145100  0.49963500  0.49944600  1
  O  O0  1  0.72959300  0.17044000  0.75630100  1
  O  O1  1  0.46439800  0.74752200  0.04165600  1
  O  O2  1  0.45829000  0.31774300  0.46201600  1
  O  O3  1  0.94819200  0.67139400  0.04213200  1
  O  O4  1  0.96185800  0.25163800  0.45254300  1
  O  O5  1  0.23298400  0.84084400  0.74435600  1
  O  O6  1  0.27040700  0.17044000  0.25630100  1
  O  O7  1  0.53560200  0.74752200  0.54165600  1
  O  O8  1  0.54171000  0.31774300  0.96201600  1
  O  O9  1  0.05180800  0.67139400  0.54213200  1
  O  O10  1  0.03814200  0.25163800  0.95254300  1
  O  O11  1  0.76701600  0.84084400  0.24435600  1
loop_
_geom_bond_atom_site_label_1
_geom_bond_atom_site_label_2
_geom_bond_distance
_geom_bond_site_symmetry_2
Ca0 O11 2.358392 1_545
Ca0 O4 2.376907 1_555
Ca0 O3 2.389670 1_555
Ca0 O6 2.425784 1_555
Ca0 O2 2.567889 1_555
Ca0 O1 2.570642 1_555
Ca0 O8 2.696195 1_554
Ca0 O7 2.702185 1_545
Ca1 O5 2.358392 1_545
Ca1 O10 2.376907 1_555
Ca1 O9 2.389670 1_555
Ca1 O0 2.425784 1_555
Ca1 O8 2.567889 1_555
Ca1 O7 2.570642 1_555
Ca1 O2 2.696195 1_555
Ca1 O1 2.702185 1_546
La0 O6 2.396871 1_565
La0 O1 2.398783 1_555
La0 O2 2.424932 1_555
La0 O11 2.524751 1_455
La0 O4 2.618928 1_455
La0 O3 2.651725 1_455
La0 O9 2.699410 1_555
La0 O10 2.738971 1_564
La1 O0 2.396871 1_565
La1 O7 2.398783 1_555
La1 O8 2.424932 1_555
La1 O5 2.524751 1_655
La1 O10 2.618928 1_655
La1 O9 2.651725 1_655
La1 O3 2.699410 1_556
La1 O4 2.738971 1_565
Cr0 O6 1.923727 1_565
Cr0 O5 1.930067 1_555
Cr0 O9 1.939746 1_555
Cr0 O2 1.943689 1_565
Cr0 O7 1.978588 1_555
Cr0 O4 1.994014 1_465
Cr1 O0 1.923727 1_564
Cr1 O11 1.930067 1_555
Cr1 O3 1.939746 1_555
Cr1 O8 1.943689 1_564
Cr1 O1 1.978588 1_555
Cr1 O10 1.994014 1_664
Cu0 O1 2.015010 1_556
Cu0 O6 2.016716 1_556
Cu0 O5 2.017991 1_555
Cu0 O10 2.024210 1_555
Cu0 O8 2.042430 1_555
Cu0 O3 2.065085 1_456
Cu1 O7 2.015010 1_555
Cu1 O0 2.016716 1_555
Cu1 O11 2.017991 1_555
Cu1 O4 2.024210 1_555
Cu1 O2 2.042430 1_555
Cu1 O9 2.065085 1_655
