# generated using pymatgen
data_TmFe2SiC
_symmetry_space_group_name_H-M   'P 1'
_cell_length_a   5.52941942
_cell_length_b   5.52941942
_cell_length_c   6.72953700
_cell_angle_alpha   90.00000000
_cell_angle_beta   90.00000000
_cell_angle_gamma   141.02495489
_symmetry_Int_Tables_number   1
_chemical_formula_structural   TmFe2SiC
_chemical_formula_sum   'Tm2 Fe4 Si2 C2'
_cell_volume   129.41432922
_cell_formula_units_Z   2
loop_
 _symmetry_equiv_pos_site_id
 _symmetry_equiv_pos_as_xyz
  1  'x, y, z'
loop_
 _atom_site_type_symbol
 _atom_site_label
 _atom_site_symmetry_multiplicity
 _atom_site_fract_x
 _atom_site_fract_y
 _atom_site_fract_z
 _atom_site_occupancy
  Tm  Tm0  1  0.54739600  0.45260400  0.25000000  1
  Tm  Tm1  1  0.45260400  0.54739600  0.75000000  1
  Fe  Fe0  1  0.83461300  0.16538700  0.06187400  1
  Fe  Fe1  1  0.16538700  0.83461300  0.93812600  1
  Fe  Fe2  1  0.16538700  0.83461300  0.56187400  1
  Fe  Fe3  1  0.83461300  0.16538700  0.43812600  1
  Si  Si0  1  0.26768200  0.73231800  0.25000000  1
  Si  Si1  1  0.73231800  0.26768200  0.75000000  1
  C  C0  1  0.00000000  0.00000000  0.00000000  1
  C  C1  1  0.00000000  0.00000000  0.50000000  1
loop_
_geom_bond_atom_site_label_1
_geom_bond_atom_site_label_2
_geom_bond_distance
_geom_bond_site_symmetry_2
Fe0 Si0 2.343563 1_545
Fe0 Si0 2.343563 1_655
Fe0 Si1 2.354179 1_554
Fe1 Si1 2.343563 1_455
Fe1 Si1 2.343563 1_565
Fe1 Si0 2.354179 1_556
Fe2 Si1 2.343563 1_455
Fe2 Si1 2.343563 1_565
Fe2 Si0 2.354179 1_555
Fe3 Si0 2.343563 1_545
Fe3 Si0 2.343563 1_655
Fe3 Si1 2.354179 1_555
Si0 Tm0 2.916109 1_555
Si0 Tm0 2.945639 1_455
Si0 Tm0 2.945639 1_565
Si1 Tm1 2.916109 1_555
Si1 Tm1 2.945639 1_545
Si1 Tm1 2.945639 1_655
C0 Fe1 1.773777 1_544
C0 Fe0 1.773777 1_455
C0 Tm1 2.545035 1_554
C0 Tm1 2.545035 1_444
C0 Tm0 2.545035 1_445
C0 Tm0 2.545035 1_555
C1 Fe3 1.773777 1_455
C1 Fe2 1.773777 1_545
C1 Tm1 2.545035 1_445
C1 Tm0 2.545035 1_445
C1 Tm1 2.545035 1_555
C1 Tm0 2.545035 1_555
