# generated using pymatgen
data_Li4V5Ni3O16
_symmetry_space_group_name_H-M   'P 1'
_cell_length_a   5.89404500
_cell_length_b   5.89531962
_cell_length_c   9.54242899
_cell_angle_alpha   90.45945344
_cell_angle_beta   89.89213236
_cell_angle_gamma   119.84617268
_symmetry_Int_Tables_number   1
_chemical_formula_structural   Li4V5Ni3O16
_chemical_formula_sum   'Li4 V5 Ni3 O16'
_cell_volume   287.58499688
_cell_formula_units_Z   1
loop_
 _symmetry_equiv_pos_site_id
 _symmetry_equiv_pos_as_xyz
  1  'x, y, z'
loop_
 _atom_site_type_symbol
 _atom_site_label
 _atom_site_symmetry_multiplicity
 _atom_site_fract_x
 _atom_site_fract_y
 _atom_site_fract_z
 _atom_site_occupancy
  Li  Li0  1  0.34628000  0.65307600  0.89977900  1
  Li  Li1  1  0.99409400  0.99792400  0.98847700  1
  Li  Li2  1  0.99493500  0.00053700  0.49608600  1
  Li  Li3  1  0.67033900  0.33490400  0.39821600  1
  V  V0  1  0.16728200  0.35438000  0.22252400  1
  V  V1  1  0.65787800  0.84618300  0.21570300  1
  V  V2  1  0.81675300  0.18173400  0.73769000  1
  V  V3  1  0.33061100  0.66231800  0.50084700  1
  V  V4  1  0.63798400  0.33975900  0.99623800  1
  Ni  Ni0  1  0.16325200  0.82681500  0.21200200  1
  Ni  Ni1  1  0.34422600  0.17305000  0.70760500  1
  Ni  Ni2  1  0.82804300  0.65761700  0.70606500  1
  O  O0  1  0.17695200  0.35454400  0.58991600  1
  O  O1  1  0.47776300  0.52003700  0.34341900  1
  O  O2  1  0.33040300  0.64349800  0.10306000  1
  O  O3  1  0.00494500  0.02051400  0.30587900  1
  O  O4  1  0.98888100  0.01225600  0.79285600  1
  O  O5  1  0.64684700  0.82454200  0.58720400  1
  O  O6  1  0.04589300  0.51831000  0.34939900  1
  O  O7  1  0.49703600  0.96051800  0.33900200  1
  O  O8  1  0.82870800  0.17182600  0.10230000  1
  O  O9  1  0.17623500  0.82698700  0.58212900  1
  O  O10  1  0.53062000  0.02628600  0.84417400  1
  O  O11  1  0.97230500  0.46477200  0.84505900  1
  O  O12  1  0.69063900  0.30926400  0.60431700  1
  O  O13  1  0.33584200  0.16944800  0.09184400  1
  O  O14  1  0.53333800  0.47765300  0.84722200  1
  O  O15  1  0.81161700  0.67094900  0.09882700  1
loop_
_geom_bond_atom_site_label_1
_geom_bond_atom_site_label_2
_geom_bond_distance
_geom_bond_site_symmetry_2
Li0 O14 1.913403 1_555
Li0 O2 1.941793 1_556
Li0 O11 1.980681 1_455
Li0 O10 1.984953 1_565
Li1 O4 1.870289 1_565
Li1 O15 1.986463 1_556
Li1 O13 2.004220 1_666
Li1 O8 2.038102 1_566
Li2 O3 1.818741 1_655
Li2 O5 1.982610 1_545
Li2 O9 1.991939 1_645
Li2 O0 2.013265 1_655
Li3 O6 1.976810 1_655
Li3 O12 1.982106 1_555
Li3 O7 1.993046 1_545
Li3 O1 1.999349 1_555
Ni0 O3 2.004508 1_565
Ni0 O2 2.063284 1_555
Ni0 O6 2.070722 1_555
Ni0 O15 2.098353 1_455
Ni0 O7 2.100134 1_555
Ni0 O13 2.101701 1_565
Ni1 O4 1.994186 1_455
Ni1 O12 2.039187 1_555
Ni1 O14 2.053534 1_555
Ni1 O0 2.109861 1_555
Ni1 O9 2.128588 1_545
Ni1 O10 2.150229 1_555
Ni2 O4 1.989498 1_565
Ni2 O12 2.032634 1_555
Ni2 O14 2.033953 1_555
Ni2 O5 2.112814 1_555
Ni2 O9 2.139530 1_655
Ni2 O11 2.182951 1_555
O0 V3 1.794709 1_555
O0 V2 2.322186 1_455
O1 V0 1.960741 1_555
O1 V1 2.076107 1_555
O1 V3 2.100371 1_555
O2 V0 1.877494 1_555
O2 V1 2.000066 1_555
O3 V0 1.889424 1_555
O3 V1 1.970065 1_445
O4 V2 1.823188 1_555
O5 V3 1.812932 1_555
O5 V2 2.314552 1_565
O6 V0 1.891522 1_555
O6 V3 2.048622 1_555
O7 V1 1.832070 1_555
O7 V3 2.181579 1_555
O8 V1 1.993886 1_545
O8 V0 2.075530 1_655
O8 V4 2.096719 1_554
O9 V3 1.798996 1_555
O10 V2 1.785128 1_555
O10 V4 2.172018 1_555
O11 V2 1.768599 1_555
O11 V4 2.251230 1_555
O12 V2 1.820084 1_555
O13 V4 1.800183 1_554
O13 V0 2.186849 1_555
O14 V4 1.893200 1_555
O15 V4 1.949894 1_554
O15 V1 2.010380 1_555
