# generated using pymatgen
data_Te2Mo2WS4
_symmetry_space_group_name_H-M   'P 1'
_cell_length_a   3.30486744
_cell_length_b   3.30486744
_cell_length_c   30.55469000
_cell_angle_alpha   90.00000000
_cell_angle_beta   90.00000000
_cell_angle_gamma   119.99998883
_symmetry_Int_Tables_number   1
_chemical_formula_structural   Te2Mo2WS4
_chemical_formula_sum   'Te2 Mo2 W1 S4'
_cell_volume   289.01251666
_cell_formula_units_Z   1
loop_
 _symmetry_equiv_pos_site_id
 _symmetry_equiv_pos_as_xyz
  1  'x, y, z'
loop_
 _atom_site_type_symbol
 _atom_site_label
 _atom_site_symmetry_multiplicity
 _atom_site_fract_x
 _atom_site_fract_y
 _atom_site_fract_z
 _atom_site_occupancy
  Te  Te0  1  0.33333300  0.66666700  0.06310000  1
  Te  Te1  1  0.33333300  0.66666700  0.93690000  1
  Mo  Mo0  1  0.33333300  0.66666700  0.76862300  1
  Mo  Mo1  1  0.33333300  0.66666700  0.23137700  1
  W  W0  1  0.66666700  0.33333300  0.00000000  1
  S  S0  1  0.66666700  0.33333300  0.71855200  1
  S  S1  1  0.66666700  0.33333300  0.18127200  1
  S  S2  1  0.66666700  0.33333300  0.81872800  1
  S  S3  1  0.66666700  0.33333300  0.28144800  1
loop_
_geom_bond_atom_site_label_1
_geom_bond_atom_site_label_2
_geom_bond_distance
_geom_bond_site_symmetry_2
Te0 W0 2.712544 1_455
Te0 W0 2.712544 1_565
Te0 W0 2.712548 1_555
Te1 W0 2.712544 1_456
Te1 W0 2.712544 1_566
Te1 W0 2.712548 1_556
Mo0 S0 2.445673 1_455
Mo0 S0 2.445673 1_565
Mo0 S0 2.445677 1_555
Mo0 S2 2.446323 1_455
Mo0 S2 2.446323 1_565
Mo0 S2 2.446327 1_555
Mo1 S3 2.445673 1_455
Mo1 S3 2.445673 1_565
Mo1 S3 2.445677 1_555
Mo1 S1 2.446323 1_565
Mo1 S1 2.446323 1_455
Mo1 S1 2.446327 1_555
