# generated using pymatgen
data_Tm6Co30P19
_symmetry_space_group_name_H-M   'P 1'
_cell_length_a   3.55807600
_cell_length_b   14.63564133
_cell_length_c   14.63564133
_cell_angle_alpha   119.99999698
_cell_angle_beta   90.00000000
_cell_angle_gamma   90.00000000
_symmetry_Int_Tables_number   1
_chemical_formula_structural   Tm6Co30P19
_chemical_formula_sum   'Tm6 Co30 P19'
_cell_volume   660.03867077
_cell_formula_units_Z   1
loop_
 _symmetry_equiv_pos_site_id
 _symmetry_equiv_pos_as_xyz
  1  'x, y, z'
loop_
 _atom_site_type_symbol
 _atom_site_label
 _atom_site_symmetry_multiplicity
 _atom_site_fract_x
 _atom_site_fract_y
 _atom_site_fract_z
 _atom_site_occupancy
  Tm  Tm0  1  0.50000000  0.29546000  0.90234900  1
  Tm  Tm1  1  0.50000000  0.09765100  0.39311100  1
  Tm  Tm2  1  0.50000000  0.60688900  0.70454000  1
  Tm  Tm3  1  0.00000000  0.70469000  0.09799200  1
  Tm  Tm4  1  0.00000000  0.90200800  0.60669800  1
  Tm  Tm5  1  0.00000000  0.39330200  0.29531000  1
  Co  Co0  1  0.50000000  0.42729600  0.77568500  1
  Co  Co1  1  0.50000000  0.22431500  0.65161100  1
  Co  Co2  1  0.50000000  0.34838900  0.57270400  1
  Co  Co3  1  0.00000000  0.57330500  0.22477500  1
  Co  Co4  1  0.00000000  0.77522500  0.34853000  1
  Co  Co5  1  0.00000000  0.65147000  0.42669500  1
  Co  Co6  1  0.50000000  0.53715400  0.07395900  1
  Co  Co7  1  0.50000000  0.92604100  0.46319400  1
  Co  Co8  1  0.50000000  0.53680600  0.46284600  1
  Co  Co9  1  0.00000000  0.46094100  0.92598800  1
  Co  Co10  1  0.00000000  0.07401200  0.53495300  1
  Co  Co11  1  0.00000000  0.46504700  0.53905900  1
  Co  Co12  1  0.50000000  0.04374600  0.77374000  1
  Co  Co13  1  0.50000000  0.22626000  0.27000600  1
  Co  Co14  1  0.50000000  0.72999400  0.95625400  1
  Co  Co15  1  0.00000000  0.95012700  0.22485400  1
  Co  Co16  1  0.00000000  0.77514600  0.72527300  1
  Co  Co17  1  0.00000000  0.27472700  0.04987300  1
  Co  Co18  1  0.50000000  0.73453800  0.58332900  1
  Co  Co19  1  0.50000000  0.41667000  0.15120900  1
  Co  Co20  1  0.50000000  0.84879100  0.26546200  1
  Co  Co21  1  0.00000000  0.26622600  0.41406900  1
  Co  Co22  1  0.00000000  0.58593100  0.85215700  1
  Co  Co23  1  0.00000000  0.14784300  0.73377400  1
  Co  Co24  1  0.50000000  0.13035600  0.97251500  1
  Co  Co25  1  0.50000000  0.02748500  0.15784100  1
  Co  Co26  1  0.50000000  0.84215900  0.86964400  1
  Co  Co27  1  0.00000000  0.88803400  0.02446400  1
  Co  Co28  1  0.00000000  0.97553600  0.86357000  1
  Co  Co29  1  0.00000000  0.13643000  0.11196600  1
  P  P0  1  0.50000000  0.68298500  0.23212900  1
  P  P1  1  0.50000000  0.76787100  0.45085500  1
  P  P2  1  0.50000000  0.54914500  0.31701500  1
  P  P3  1  0.00000000  0.31480800  0.76770200  1
  P  P4  1  0.00000000  0.23229800  0.54710500  1
  P  P5  1  0.00000000  0.45289500  0.68519200  1
  P  P6  1  0.50000000  0.87954200  0.74324600  1
  P  P7  1  0.50000000  0.25675400  0.13629700  1
  P  P8  1  0.50000000  0.86370300  0.12045800  1
  P  P9  1  0.00000000  0.12000600  0.25497300  1
  P  P10  1  0.00000000  0.74502700  0.86503300  1
  P  P11  1  0.00000000  0.13496700  0.87999400  1
  P  P12  1  0.50000000  0.06073800  0.62871400  1
  P  P13  1  0.50000000  0.37128600  0.43202400  1
  P  P14  1  0.50000000  0.56797600  0.93926200  1
  P  P15  1  0.00000000  0.93729400  0.37048600  1
  P  P16  1  0.00000000  0.62951400  0.56680800  1
  P  P17  1  0.00000000  0.43319200  0.06270600  1
  P  P18  1  0.50000000  0.00000000  0.00000000  1
loop_
_geom_bond_atom_site_label_1
_geom_bond_atom_site_label_2
_geom_bond_distance
_geom_bond_site_symmetry_2
Co0 P14 2.245333 1_555
Co0 P5 2.357042 1_555
Co0 P5 2.357042 1_655
Co0 P3 2.386774 1_655
Co0 P3 2.386774 1_555
Co1 P12 2.245333 1_555
Co1 P3 2.357036 1_655
Co1 P3 2.357036 1_555
Co1 P4 2.386784 1_655
Co1 P4 2.386784 1_555
Co2 P13 2.245333 1_555
Co2 P4 2.357033 1_655
Co2 P4 2.357033 1_555
Co2 P5 2.386779 1_555
Co2 P5 2.386779 1_655
Co3 P17 2.228756 1_555
Co3 P0 2.362324 1_455
Co3 P0 2.362324 1_555
Co3 P2 2.364284 1_455
Co3 P2 2.364284 1_555
Co4 P15 2.228756 1_555
Co4 P1 2.362314 1_455
Co4 P1 2.362314 1_555
Co4 P0 2.364290 1_555
Co4 P0 2.364290 1_455
Co5 P16 2.228756 1_555
Co5 P2 2.362320 1_455
Co5 P2 2.362320 1_555
Co5 P1 2.364293 1_555
Co5 P1 2.364293 1_455
Co6 P0 2.230116 1_555
Co6 P14 2.231391 1_554
Co6 P17 2.292733 1_555
Co6 P17 2.292733 1_655
Co6 Tm3 2.904914 1_655
Co6 Tm3 2.904914 1_555
Co7 P1 2.230115 1_555
Co7 P12 2.231401 1_565
Co7 P15 2.292724 1_655
Co7 P15 2.292724 1_555
Co7 Tm4 2.904925 1_655
Co7 Tm4 2.904925 1_555
Co8 P2 2.230115 1_555
Co8 P13 2.231405 1_555
Co8 P16 2.292729 1_555
Co8 P16 2.292729 1_655
Co8 Tm5 2.904918 1_555
Co8 Tm5 2.904918 1_655
Co9 P17 2.231904 1_556
Co9 P3 2.233003 1_555
Co9 P14 2.313523 1_555
Co9 P14 2.313523 1_455
Co9 Tm0 2.883133 1_455
Co9 Tm0 2.883133 1_555
Co10 P15 2.231905 1_545
Co10 P4 2.233009 1_555
Co10 P12 2.313523 1_555
Co10 P12 2.313523 1_455
Co10 Tm1 2.883133 1_455
Co10 Tm1 2.883133 1_555
Co11 P16 2.231904 1_555
Co11 P5 2.232995 1_555
Co11 P13 2.313523 1_455
Co11 P13 2.313523 1_555
Co11 Tm2 2.883133 1_555
Co11 Tm2 2.883133 1_455
Co12 P6 2.214078 1_545
Co12 P12 2.257191 1_555
Co12 P11 2.299904 1_555
Co12 P11 2.299904 1_655
Co12 Tm4 2.893720 1_645
Co12 Tm4 2.893720 1_545
Co13 P7 2.214064 1_555
Co13 P13 2.257191 1_555
Co13 P9 2.299904 1_555
Co13 P9 2.299904 1_655
Co13 Tm5 2.893720 1_555
Co13 Tm5 2.893720 1_655
Co14 P8 2.214073 1_556
Co14 P14 2.257191 1_555
Co14 P10 2.299904 1_655
Co14 P10 2.299904 1_555
Co14 Tm3 2.893720 1_656
Co14 Tm3 2.893720 1_556
Co15 P15 2.231264 1_555
Co15 P8 2.273051 1_555
Co15 P8 2.273051 1_455
Co15 P9 2.297816 1_565
Co15 Tm1 2.928133 1_565
Co15 Tm1 2.928133 1_465
Co16 P16 2.231264 1_555
Co16 P6 2.273048 1_455
Co16 P6 2.273048 1_555
Co16 P10 2.297816 1_555
Co16 Tm2 2.928133 1_455
Co16 Tm2 2.928133 1_555
Co17 P17 2.231264 1_555
Co17 P7 2.273057 1_455
Co17 P7 2.273057 1_555
Co17 P11 2.297816 1_554
Co17 Tm0 2.928133 1_554
Co17 Tm0 2.928133 1_454
Co18 P1 2.223279 1_555
Co18 P6 2.239349 1_555
Co18 P16 2.283514 1_655
Co18 P16 2.283514 1_555
Co18 Tm4 2.907095 1_655
Co18 Tm4 2.907095 1_555
Co19 P2 2.223274 1_555
Co19 P7 2.239341 1_555
Co19 P17 2.283520 1_655
Co19 P17 2.283520 1_555
Co19 Tm5 2.907088 1_555
Co19 Tm5 2.907088 1_655
Co20 P0 2.223265 1_555
Co20 P8 2.239341 1_555
Co20 P15 2.283514 1_655
Co20 P15 2.283514 1_555
Co20 Tm3 2.907096 1_655
Co20 Tm3 2.907096 1_555
Co21 P4 2.237068 1_555
Co21 P9 2.240200 1_555
Co21 P13 2.279089 1_455
Co21 P13 2.279089 1_555
Co21 Tm1 2.930764 1_455
Co21 Tm1 2.930764 1_555
Co22 P5 2.237078 1_555
Co22 P10 2.240200 1_555
Co22 P14 2.279089 1_455
Co22 P14 2.279089 1_555
Co22 Tm2 2.930764 1_455
Co22 Tm2 2.930764 1_555
Co23 P3 2.237082 1_555
Co23 P11 2.240200 1_555
Co23 P12 2.279089 1_555
Co23 P12 2.279089 1_455
Co23 Tm0 2.930764 1_455
Co23 Tm0 2.930764 1_555
Co24 P18 2.137553 1_556
Co24 P7 2.175709 1_556
Co24 P11 2.257102 1_655
Co24 P11 2.257102 1_555
Co25 P18 2.137553 1_555
Co25 P8 2.175714 1_545
Co25 P9 2.257102 1_655
Co25 P9 2.257102 1_555
Co26 P18 2.137553 1_566
Co26 P6 2.175699 1_555
Co26 P10 2.257102 1_655
Co26 P10 2.257102 1_555
Co27 P10 2.222956 1_554
Co27 P8 2.401233 1_555
Co27 P8 2.401233 1_455
Co27 P18 2.562269 1_465
Co27 P18 2.562269 1_565
Co28 P11 2.222956 1_565
Co28 P6 2.401226 1_555
Co28 P6 2.401226 1_455
Co28 P18 2.562269 1_466
Co28 P18 2.562269 1_566
Co29 P9 2.222956 1_555
Co29 P7 2.401223 1_555
Co29 P7 2.401223 1_455
Co29 P18 2.562269 1_555
Co29 P18 2.562269 1_455
P0 Tm3 2.782733 1_655
P0 Tm3 2.782733 1_555
P1 Tm4 2.782740 1_555
P1 Tm4 2.782740 1_655
P2 Tm5 2.782745 1_655
P2 Tm5 2.782745 1_555
P3 Tm0 2.772478 1_555
P3 Tm0 2.772478 1_455
P4 Tm1 2.772471 1_555
P4 Tm1 2.772471 1_455
P5 Tm2 2.772467 1_555
P5 Tm2 2.772467 1_455
P6 Tm4 2.814972 1_555
P6 Tm4 2.814972 1_655
P7 Tm5 2.814965 1_655
P7 Tm5 2.814965 1_555
P8 Tm3 2.814960 1_555
P8 Tm3 2.814960 1_655
P9 Tm1 2.832123 1_555
P9 Tm1 2.832123 1_455
P10 Tm2 2.832123 1_455
P10 Tm2 2.832123 1_555
P11 Tm0 2.832123 1_455
P11 Tm0 2.832123 1_555
P12 Tm4 2.813737 1_545
P12 Tm4 2.813737 1_645
P13 Tm5 2.813737 1_555
P13 Tm5 2.813737 1_655
P14 Tm3 2.813737 1_556
P14 Tm3 2.813737 1_656
P15 Tm1 2.829408 1_565
P15 Tm1 2.829408 1_465
P16 Tm2 2.829408 1_455
P16 Tm2 2.829408 1_555
P17 Tm0 2.829408 1_554
P17 Tm0 2.829408 1_454
