# generated using pymatgen
data_CaV2CoO7
_symmetry_space_group_name_H-M   'P 1'
_cell_length_a   14.68363500
_cell_length_b   6.84555400
_cell_length_c   11.38884257
_cell_angle_alpha   80.09210183
_cell_angle_beta   90.00000000
_cell_angle_gamma   90.00000000
_symmetry_Int_Tables_number   1
_chemical_formula_structural   CaV2CoO7
_chemical_formula_sum   'Ca8 V16 Co8 O56'
_cell_volume   1127.70562960
_cell_formula_units_Z   8
loop_
 _symmetry_equiv_pos_site_id
 _symmetry_equiv_pos_as_xyz
  1  'x, y, z'
loop_
 _atom_site_type_symbol
 _atom_site_label
 _atom_site_symmetry_multiplicity
 _atom_site_fract_x
 _atom_site_fract_y
 _atom_site_fract_z
 _atom_site_occupancy
  Ca  Ca0  1  0.50796600  0.92054900  0.73117300  1
  Ca  Ca1  1  0.87088400  0.67505300  0.97086300  1
  Ca  Ca2  1  0.37088400  0.32494700  0.52913700  1
  Ca  Ca3  1  0.12911600  0.32494700  0.02913700  1
  Ca  Ca4  1  0.62911600  0.67505300  0.47086300  1
  Ca  Ca5  1  0.99203400  0.92054900  0.23117300  1
  Ca  Ca6  1  0.49203400  0.07945100  0.26882700  1
  Ca  Ca7  1  0.00796600  0.07945100  0.76882700  1
  V  V0  1  0.87146600  0.16071800  0.98051700  1
  V  V1  1  0.01270200  0.58604100  0.68520400  1
  V  V2  1  0.48729800  0.58604100  0.18520400  1
  V  V3  1  0.98729800  0.41395900  0.31479600  1
  V  V4  1  0.70448300  0.49426300  0.79460100  1
  V  V5  1  0.20448300  0.50573700  0.70539900  1
  V  V6  1  0.29551700  0.50573700  0.20539900  1
  V  V7  1  0.79551700  0.49426300  0.29460100  1
  V  V8  1  0.51270200  0.41395900  0.81479600  1
  V  V9  1  0.13653300  0.13006600  0.48412900  1
  V  V10  1  0.63653300  0.86993400  0.01587100  1
  V  V11  1  0.86346700  0.86993400  0.51587100  1
  V  V12  1  0.37146600  0.83928200  0.51948300  1
  V  V13  1  0.62853400  0.16071800  0.48051700  1
  V  V14  1  0.12853400  0.83928200  0.01948300  1
  V  V15  1  0.36346700  0.13006600  0.98412900  1
  Co  Co0  1  0.67587000  0.36324500  0.07459100  1
  Co  Co1  1  0.17587000  0.63675500  0.42540900  1
  Co  Co2  1  0.32413000  0.63675500  0.92540900  1
  Co  Co3  1  0.82413000  0.36324500  0.57459100  1
  Co  Co4  1  0.75343900  0.00123100  0.24635300  1
  Co  Co5  1  0.25343900  0.99876900  0.25364700  1
  Co  Co6  1  0.24656100  0.99876900  0.75364700  1
  Co  Co7  1  0.74656100  0.00123100  0.74635300  1
  O  O0  1  0.98147400  0.24144600  0.96185800  1
  O  O1  1  0.48147400  0.75855400  0.53814200  1
  O  O2  1  0.01852600  0.75855400  0.03814200  1
  O  O3  1  0.51852600  0.24144600  0.46185800  1
  O  O4  1  0.85638800  0.01226100  0.87073400  1
  O  O5  1  0.35638800  0.98773900  0.62926600  1
  O  O6  1  0.14361200  0.98773900  0.12926600  1
  O  O7  1  0.64361200  0.01226100  0.37073400  1
  O  O8  1  0.85884800  0.00533000  0.11772800  1
  O  O9  1  0.35884800  0.99467000  0.38227200  1
  O  O10  1  0.14115200  0.99467000  0.88227200  1
  O  O11  1  0.64115200  0.00533000  0.61772800  1
  O  O12  1  0.28670000  0.32285700  0.95516200  1
  O  O13  1  0.78670000  0.67714300  0.54483800  1
  O  O14  1  0.71330000  0.67714300  0.04483800  1
  O  O15  1  0.21330000  0.32285700  0.45516200  1
  O  O16  1  0.36399400  0.03530700  0.13580600  1
  O  O17  1  0.86399400  0.96469300  0.36419400  1
  O  O18  1  0.63600600  0.96469300  0.86419400  1
  O  O19  1  0.13600600  0.03530700  0.63580600  1
  O  O20  1  0.34135800  0.95020400  0.89361900  1
  O  O21  1  0.44088300  0.60872900  0.82345500  1
  O  O22  1  0.84135800  0.04979600  0.60638100  1
  O  O23  1  0.15864200  0.95020400  0.39361900  1
  O  O24  1  0.47935600  0.27955400  0.70978600  1
  O  O25  1  0.97935600  0.72044600  0.79021400  1
  O  O26  1  0.52064400  0.72044600  0.29021400  1
  O  O27  1  0.02064400  0.27955400  0.20978600  1
  O  O28  1  0.47258700  0.23304500  0.94820600  1
  O  O29  1  0.97258700  0.76695500  0.55179400  1
  O  O30  1  0.52741300  0.76695500  0.05179400  1
  O  O31  1  0.02741300  0.23304500  0.44820600  1
  O  O32  1  0.89519400  0.57401800  0.20758700  1
  O  O33  1  0.39519400  0.42598200  0.29241300  1
  O  O34  1  0.10480600  0.42598200  0.79241300  1
  O  O35  1  0.60480600  0.57401800  0.70758700  1
  O  O36  1  0.75080300  0.30988000  0.22380000  1
  O  O37  1  0.25080300  0.69012000  0.27620000  1
  O  O38  1  0.24919700  0.69012000  0.77620000  1
  O  O39  1  0.74919700  0.30988000  0.72380000  1
  O  O40  1  0.70416100  0.36586500  0.46222500  1
  O  O41  1  0.20416100  0.63413500  0.03777500  1
  O  O42  1  0.29583900  0.63413500  0.53777500  1
  O  O43  1  0.79583900  0.36586500  0.96222500  1
  O  O44  1  0.73040500  0.70149600  0.29286900  1
  O  O45  1  0.23040500  0.29850400  0.20713100  1
  O  O46  1  0.26959500  0.29850400  0.70713100  1
  O  O47  1  0.76959500  0.70149600  0.79286900  1
  O  O48  1  0.87786000  0.40266500  0.41152700  1
  O  O49  1  0.37786000  0.59733500  0.08847300  1
  O  O50  1  0.12214000  0.59733500  0.58847300  1
  O  O51  1  0.62214000  0.40266500  0.91152700  1
  O  O52  1  0.05911700  0.60872900  0.32345500  1
  O  O53  1  0.55911700  0.39127100  0.17654500  1
  O  O54  1  0.94088300  0.39127100  0.67654500  1
  O  O55  1  0.65864200  0.04979600  0.10638100  1
loop_
_geom_bond_atom_site_label_1
_geom_bond_atom_site_label_2
_geom_bond_distance
_geom_bond_site_symmetry_2
Ca0 O11 2.360647 1_565
Ca0 O21 2.420588 1_555
Ca0 O24 2.463646 1_565
Ca0 O18 2.465502 1_555
Ca0 O5 2.515683 1_555
Ca0 O1 2.655748 1_555
Ca0 O35 2.817931 1_555
Ca0 O20 3.094859 1_555
Ca1 O2 2.400928 1_656
Ca1 O4 2.401757 1_565
Ca1 O43 2.403212 1_555
Ca1 O14 2.463392 1_556
Ca1 O47 2.495565 1_555
Ca1 O25 2.578037 1_555
Ca1 O32 2.689346 1_556
Ca2 O3 2.400928 1_555
Ca2 O5 2.401757 1_545
Ca2 O42 2.403212 1_555
Ca2 O15 2.463392 1_555
Ca2 O46 2.495565 1_555
Ca2 O24 2.578037 1_555
Ca2 O33 2.689346 1_555
Ca3 O0 2.400928 1_454
Ca3 O6 2.401757 1_545
Ca3 O41 2.403212 1_555
Ca3 O12 2.463392 1_554
Ca3 O45 2.495565 1_555
Ca3 O27 2.578037 1_555
Ca3 O34 2.689346 1_554
Ca4 O1 2.400928 1_555
Ca4 O7 2.401757 1_565
Ca4 O40 2.403212 1_555
Ca4 O13 2.463392 1_555
Ca4 O44 2.495565 1_555
Ca4 O26 2.578037 1_555
Ca4 O35 2.689346 1_555
Ca5 O8 2.360647 1_565
Ca5 O52 2.420588 1_655
Ca5 O27 2.463646 1_665
Ca5 O17 2.465502 1_555
Ca5 O6 2.515683 1_655
Ca5 O2 2.655748 1_655
Ca5 O32 2.817931 1_555
Ca5 O23 3.094859 1_655
Ca6 O9 2.360647 1_545
Ca6 O53 2.420588 1_555
Ca6 O26 2.463646 1_545
Ca6 O16 2.465502 1_555
Ca6 O7 2.515683 1_555
Ca6 O3 2.655748 1_555
Ca6 O33 2.817931 1_555
Ca6 O55 3.094859 1_555
Ca7 O10 2.360647 1_545
Ca7 O54 2.420588 1_455
Ca7 O25 2.463646 1_445
Ca7 O19 2.465502 1_555
Ca7 O4 2.515683 1_455
Ca7 O0 2.655748 1_455
Ca7 O34 2.817931 1_555
Ca7 O22 3.094859 1_455
Co0 O51 1.992904 1_554
Co0 O36 2.004530 1_555
Co0 O53 2.097793 1_555
Co0 O55 2.128826 1_555
Co0 O43 2.175608 1_554
Co0 O14 2.187164 1_555
Co1 O50 1.992904 1_555
Co1 O37 2.004530 1_555
Co1 O52 2.097793 1_555
Co1 O23 2.128826 1_555
Co1 O42 2.175608 1_555
Co1 O15 2.187164 1_555
Co2 O49 1.992904 1_556
Co2 O38 2.004530 1_555
Co2 O21 2.097793 1_555
Co2 O20 2.128826 1_555
Co2 O41 2.175608 1_556
Co2 O12 2.187164 1_555
Co3 O48 1.992904 1_555
Co3 O39 2.004530 1_555
Co3 O54 2.097793 1_555
Co3 O22 2.128826 1_555
Co3 O40 2.175608 1_555
Co3 O13 2.187164 1_555
Co4 O44 2.056957 1_545
Co4 O36 2.084454 1_555
Co4 O17 2.093673 1_545
Co4 O55 2.099268 1_555
Co4 O8 2.127954 1_555
Co4 O7 2.156342 1_555
Co5 O45 2.056957 1_565
Co5 O37 2.084454 1_555
Co5 O16 2.093673 1_565
Co5 O23 2.099268 1_555
Co5 O9 2.127954 1_555
Co5 O6 2.156342 1_555
Co6 O46 2.056957 1_565
Co6 O38 2.084454 1_555
Co6 O19 2.093673 1_565
Co6 O20 2.099268 1_555
Co6 O10 2.127954 1_555
Co6 O5 2.156342 1_555
Co7 O47 2.056957 1_545
Co7 O39 2.084454 1_555
Co7 O18 2.093673 1_545
Co7 O22 2.099268 1_555
Co7 O11 2.127954 1_555
Co7 O4 2.156342 1_555
O0 V0 1.708623 1_555
O1 V12 1.708623 1_555
O2 V14 1.708623 1_555
O3 V13 1.708623 1_555
O4 V0 1.755660 1_555
O5 V12 1.755660 1_555
O6 V14 1.755660 1_555
O7 V13 1.755660 1_555
O8 V0 1.742339 1_554
O9 V12 1.742339 1_555
O10 V14 1.742339 1_556
O11 V13 1.742339 1_555
O12 V15 1.723774 1_555
O13 V11 1.723774 1_555
O14 V10 1.723774 1_555
O15 V9 1.723774 1_555
O16 V15 1.737593 1_554
O17 V11 1.737593 1_555
O18 V10 1.737593 1_556
O19 V9 1.737593 1_555
O20 V15 1.766551 1_565
O21 V8 1.716039 1_555
O22 V11 1.766551 1_545
O23 V9 1.766551 1_565
O24 V8 1.701538 1_555
O25 V1 1.701538 1_655
O26 V2 1.701538 1_555
O27 V3 1.701538 1_455
O28 V15 1.769852 1_555
O28 V8 1.881946 1_555
O29 V11 1.769852 1_555
O29 V1 1.881946 1_655
O30 V10 1.769852 1_555
O30 V2 1.881946 1_555
O31 V9 1.769852 1_555
O31 V3 1.881946 1_455
O32 V7 1.798926 1_555
O32 V3 2.014946 1_555
O33 V6 1.798926 1_555
O33 V2 2.014946 1_555
O34 V5 1.798926 1_555
O34 V1 2.014946 1_555
O35 V4 1.798926 1_555
O35 V8 2.014946 1_555
O36 V7 1.739156 1_555
O37 V6 1.739156 1_555
O38 V5 1.739156 1_555
O39 V4 1.739156 1_555
O40 V13 1.774280 1_555
O40 V7 2.374664 1_555
O41 V14 1.774280 1_555
O41 V6 2.374664 1_555
O42 V12 1.774280 1_555
O42 V5 2.374664 1_555
O43 V0 1.774280 1_555
O43 V4 2.374664 1_555
O44 V7 1.708024 1_555
O45 V6 1.708024 1_555
O46 V5 1.708024 1_555
O47 V4 1.708024 1_555
O48 V7 1.827850 1_555
O48 V3 1.942315 1_555
O49 V6 1.827850 1_555
O49 V2 1.942315 1_555
O50 V5 1.827850 1_555
O50 V1 1.942315 1_555
O51 V4 1.827850 1_555
O51 V8 1.942315 1_555
O52 V3 1.716039 1_455
O53 V2 1.716039 1_555
O54 V1 1.716039 1_655
O55 V10 1.766551 1_545
