# generated using pymatgen
data_NaMg14Cd
_symmetry_space_group_name_H-M   'P 1'
_cell_length_a   6.40777103
_cell_length_b   6.40303586
_cell_length_c   10.39625303
_cell_angle_alpha   90.00000000
_cell_angle_beta   90.00000000
_cell_angle_gamma   119.97556337
_symmetry_Int_Tables_number   1
_chemical_formula_structural   NaMg14Cd
_chemical_formula_sum   'Na1 Mg14 Cd1'
_cell_volume   369.49390577
_cell_formula_units_Z   1
loop_
 _symmetry_equiv_pos_site_id
 _symmetry_equiv_pos_as_xyz
  1  'x, y, z'
loop_
 _atom_site_type_symbol
 _atom_site_label
 _atom_site_symmetry_multiplicity
 _atom_site_fract_x
 _atom_site_fract_y
 _atom_site_fract_z
 _atom_site_occupancy
  Na  Na0  1  0.16615210  0.33307555  0.12500000  1
  Mg  Mg0  1  0.16644402  0.33322151  0.62500000  1
  Mg  Mg1  1  0.16709552  0.83354726  0.62500000  1
  Mg  Mg2  1  0.66703740  0.33181010  0.12500000  1
  Mg  Mg3  1  0.66649858  0.33277361  0.62500000  1
  Mg  Mg4  1  0.66703740  0.83522630  0.12500000  1
  Mg  Mg5  1  0.66649858  0.83372397  0.62500000  1
  Mg  Mg6  1  0.33357133  0.16528964  0.37587949  1
  Mg  Mg7  1  0.33357133  0.16528964  0.87412051  1
  Mg  Mg8  1  0.33357133  0.66828270  0.37587949  1
  Mg  Mg9  1  0.33357133  0.66828270  0.87412051  1
  Mg  Mg10  1  0.83183336  0.16591718  0.37711770  1
  Mg  Mg11  1  0.83183336  0.16591718  0.87288230  1
  Mg  Mg12  1  0.83378765  0.66689433  0.37387308  1
  Mg  Mg13  1  0.83378765  0.66689433  0.87612692  1
  Cd  Cd0  1  0.16770904  0.83385402  0.12500000  1
loop_
_geom_bond_atom_site_label_1
_geom_bond_atom_site_label_2
_geom_bond_distance
_geom_bond_site_symmetry_2
Mg0 Mg10 3.176597 1_455
Mg0 Mg11 3.176597 1_455
Mg0 Mg6 3.187700 1_555
Mg0 Mg7 3.187700 1_555
Mg0 Mg8 3.187706 1_555
Mg0 Mg9 3.187706 1_555
Mg0 Mg1 3.201520 1_555
Mg0 Mg1 3.201520 1_545
Mg0 Mg5 3.202104 1_445
Mg0 Mg3 3.202104 1_455
Mg0 Mg5 3.205669 1_555
Mg0 Mg3 3.205669 1_555
Mg1 Mg9 3.177008 1_555
Mg1 Mg8 3.177008 1_555
Mg1 Mg6 3.177014 1_565
Mg1 Mg7 3.177014 1_565
Mg1 Mg3 3.199495 1_565
Mg1 Mg5 3.199495 1_555
Mg1 Mg12 3.199837 1_455
Mg1 Mg13 3.199837 1_455
Mg1 Mg3 3.208276 1_455
Mg1 Mg5 3.208276 1_455
Mg2 Mg4 3.179644 1_545
Mg2 Na0 3.194172 1_655
Mg2 Mg6 3.198247 1_555
Mg2 Mg7 3.198247 1_554
Mg2 Na0 3.213614 1_555
Mg2 Mg4 3.223392 1_555
Mg3 Mg6 3.181620 1_555
Mg3 Mg7 3.181620 1_555
Mg3 Mg5 3.195433 1_545
Mg3 Mg5 3.207603 1_555
Mg4 Na0 3.194172 1_665
Mg4 Mg9 3.198247 1_554
Mg4 Mg8 3.198247 1_555
Mg4 Na0 3.213614 1_555
Mg5 Mg9 3.181620 1_555
Mg5 Mg8 3.181620 1_555
Mg6 Mg8 3.182353 1_545
Mg6 Na0 3.203045 1_555
Mg6 Mg8 3.220683 1_555
Mg7 Mg9 3.182353 1_545
Mg7 Na0 3.203045 1_556
Mg7 Mg9 3.220683 1_555
Mg8 Na0 3.203051 1_555
Mg9 Na0 3.203051 1_556
Mg10 Mg3 3.167973 1_555
Mg10 Mg5 3.167979 1_545
Mg10 Mg8 3.190769 1_545
Mg10 Mg6 3.190769 1_555
Mg10 Mg2 3.199108 1_555
Mg10 Mg4 3.199115 1_545
Mg10 Mg12 3.201714 1_545
Mg10 Mg12 3.201714 1_555
Mg10 Na0 3.211486 1_655
Mg10 Mg8 3.217057 1_655
Mg10 Mg6 3.217057 1_655
Mg11 Mg3 3.167973 1_555
Mg11 Mg5 3.167979 1_545
Mg11 Mg9 3.190769 1_545
Mg11 Mg7 3.190769 1_555
Mg11 Mg2 3.199108 1_556
Mg11 Mg4 3.199115 1_546
Mg11 Mg13 3.201714 1_545
Mg11 Mg13 3.201714 1_555
Mg11 Na0 3.211486 1_656
Mg11 Mg9 3.217057 1_655
Mg11 Mg7 3.217057 1_655
Mg12 Mg4 3.185686 1_555
Mg12 Mg2 3.185693 1_555
Mg12 Mg6 3.198135 1_665
Mg12 Mg8 3.198135 1_655
Mg12 Mg5 3.201649 1_555
Mg12 Mg3 3.201656 1_555
Mg12 Mg6 3.209790 1_555
Mg12 Mg8 3.209790 1_555
Mg13 Mg4 3.185686 1_556
Mg13 Mg2 3.185693 1_556
Mg13 Mg7 3.198135 1_665
Mg13 Mg9 3.198135 1_655
Mg13 Mg5 3.201649 1_555
Mg13 Mg3 3.201656 1_555
Mg13 Mg7 3.209790 1_555
Mg13 Mg9 3.209790 1_555
Cd0 Mg13 3.182730 1_454
Cd0 Mg12 3.182730 1_455
Cd0 Mg8 3.190948 1_555
Cd0 Mg9 3.190948 1_554
Cd0 Mg6 3.190955 1_565
Cd0 Mg7 3.190955 1_564
Cd0 Mg2 3.195200 1_565
Cd0 Mg4 3.195201 1_555
Cd0 Na0 3.201530 1_555
Cd0 Na0 3.201530 1_565
Cd0 Mg2 3.212588 1_455
Cd0 Mg4 3.212588 1_455
