# generated using pymatgen
data_V3Fe3C
_symmetry_space_group_name_H-M   'P 1'
_cell_length_a   7.58019177
_cell_length_b   7.58019177
_cell_length_c   7.58019177
_cell_angle_alpha   60.00000000
_cell_angle_beta   60.00000000
_cell_angle_gamma   60.00000000
_symmetry_Int_Tables_number   1
_chemical_formula_structural   V3Fe3C
_chemical_formula_sum   'V12 Fe12 C4'
_cell_volume   307.98217389
_cell_formula_units_Z   4
loop_
 _symmetry_equiv_pos_site_id
 _symmetry_equiv_pos_as_xyz
  1  'x, y, z'
loop_
 _atom_site_type_symbol
 _atom_site_label
 _atom_site_symmetry_multiplicity
 _atom_site_fract_x
 _atom_site_fract_y
 _atom_site_fract_z
 _atom_site_occupancy
  V  V0  1  0.80583600  0.80583600  0.19416400  1
  V  V1  1  0.19416400  0.19416400  0.80583600  1
  V  V2  1  0.80583600  0.19416400  0.80583600  1
  V  V3  1  0.19416400  0.80583600  0.19416400  1
  V  V4  1  0.19416400  0.80583600  0.80583600  1
  V  V5  1  0.80583600  0.19416400  0.19416400  1
  V  V6  1  0.44416400  0.44416400  0.05583600  1
  V  V7  1  0.05583600  0.05583600  0.44416400  1
  V  V8  1  0.44416400  0.05583600  0.44416400  1
  V  V9  1  0.05583600  0.44416400  0.05583600  1
  V  V10  1  0.05583600  0.44416400  0.44416400  1
  V  V11  1  0.44416400  0.05583600  0.05583600  1
  Fe  Fe0  1  0.12500000  0.62500000  0.62500000  1
  Fe  Fe1  1  0.62500000  0.12500000  0.62500000  1
  Fe  Fe2  1  0.62500000  0.62500000  0.12500000  1
  Fe  Fe3  1  0.62500000  0.62500000  0.62500000  1
  Fe  Fe4  1  0.73947300  0.42017600  0.42017600  1
  Fe  Fe5  1  0.42017600  0.73947300  0.42017600  1
  Fe  Fe6  1  0.42017600  0.42017600  0.73947300  1
  Fe  Fe7  1  0.42017600  0.42017600  0.42017600  1
  Fe  Fe8  1  0.51052700  0.82982400  0.82982400  1
  Fe  Fe9  1  0.82982400  0.51052700  0.82982400  1
  Fe  Fe10  1  0.82982400  0.82982400  0.51052700  1
  Fe  Fe11  1  0.82982400  0.82982400  0.82982400  1
  C  C0  1  0.62500000  0.12500000  0.12500000  1
  C  C1  1  0.12500000  0.62500000  0.12500000  1
  C  C2  1  0.12500000  0.12500000  0.62500000  1
  C  C3  1  0.12500000  0.12500000  0.12500000  1
loop_
_geom_bond_atom_site_label_1
_geom_bond_atom_site_label_2
_geom_bond_distance
_geom_bond_site_symmetry_2
Fe0 Fe7 2.300051 1_555
Fe0 Fe11 2.300051 1_455
Fe0 Fe5 2.300055 1_555
Fe0 Fe6 2.300055 1_555
Fe0 Fe10 2.300055 1_455
Fe0 Fe9 2.300055 1_455
Fe0 V9 2.710947 1_556
Fe0 V7 2.710947 1_565
Fe0 V10 2.710947 1_555
Fe0 V3 2.710947 1_555
Fe0 V4 2.710947 1_555
Fe0 V1 2.710947 1_555
Fe1 Fe11 2.300051 1_545
Fe1 Fe7 2.300051 1_555
Fe1 Fe4 2.300055 1_555
Fe1 Fe6 2.300055 1_555
Fe1 Fe8 2.300055 1_545
Fe1 Fe10 2.300055 1_545
Fe1 V8 2.710947 1_555
Fe1 V2 2.710947 1_555
Fe1 V11 2.710947 1_556
Fe1 V7 2.710947 1_655
Fe1 V1 2.710947 1_555
Fe1 V5 2.710947 1_555
Fe2 Fe7 2.300051 1_555
Fe2 Fe5 2.300055 1_555
Fe2 Fe4 2.300055 1_555
Fe2 Fe9 2.300055 1_554
Fe2 Fe8 2.300055 1_554
Fe2 V11 2.710947 1_565
Fe2 V9 2.710947 1_655
Fe2 V6 2.710947 1_555
Fe2 V0 2.710947 1_555
Fe2 V3 2.710947 1_555
Fe2 V5 2.710947 1_555
Fe3 Fe8 2.300049 1_555
Fe3 Fe9 2.300049 1_555
Fe3 Fe5 2.300049 1_555
Fe3 Fe4 2.300049 1_555
Fe3 Fe6 2.300049 1_555
Fe3 V10 2.710947 1_655
Fe3 V4 2.710947 1_555
Fe3 V6 2.710947 1_556
Fe3 V2 2.710947 1_555
Fe3 V0 2.710947 1_555
Fe3 V8 2.710947 1_565
Fe4 Fe6 2.420332 1_555
Fe4 Fe7 2.420332 1_555
Fe4 Fe5 2.420332 1_555
Fe4 V10 2.592710 1_655
Fe4 V9 2.592714 1_655
Fe4 V7 2.592714 1_655
Fe4 V2 2.708262 1_555
Fe4 V0 2.708262 1_555
Fe4 V5 2.708268 1_555
Fe5 Fe6 2.420332 1_555
Fe5 Fe7 2.420332 1_555
Fe5 V8 2.592710 1_565
Fe5 V7 2.592714 1_565
Fe5 V11 2.592714 1_565
Fe5 V0 2.708262 1_555
Fe5 V4 2.708262 1_555
Fe5 V3 2.708268 1_555
Fe6 Fe7 2.420332 1_555
Fe6 V6 2.592710 1_556
Fe6 V11 2.592714 1_556
Fe6 V9 2.592714 1_556
Fe6 V2 2.708262 1_555
Fe6 V4 2.708262 1_555
Fe6 V1 2.708268 1_555
Fe7 V8 2.592717 1_555
Fe7 V6 2.592717 1_555
Fe7 V10 2.592717 1_555
Fe7 V3 2.708265 1_555
Fe7 V1 2.708265 1_555
Fe7 V5 2.708265 1_555
Fe8 Fe9 2.420332 1_555
Fe8 V4 2.592710 1_555
Fe8 V1 2.592714 1_565
Fe8 V3 2.592714 1_556
Fe8 V8 2.708262 1_565
Fe8 V6 2.708262 1_556
Fe8 V11 2.708268 1_566
Fe9 V2 2.592710 1_555
Fe9 V5 2.592714 1_556
Fe9 V1 2.592714 1_655
Fe9 V10 2.708262 1_655
Fe9 V6 2.708262 1_556
Fe9 V9 2.708268 1_656
Fe10 Fe3 2.300049 1_555
Fe10 Fe11 2.420332 1_555
Fe10 Fe8 2.420332 1_555
Fe10 Fe9 2.420332 1_555
Fe10 V0 2.592710 1_555
Fe10 V3 2.592714 1_655
Fe10 V5 2.592714 1_565
Fe10 V10 2.708262 1_655
Fe10 V8 2.708262 1_565
Fe10 V7 2.708268 1_665
Fe11 Fe2 2.300051 1_556
Fe11 Fe8 2.420332 1_555
Fe11 Fe9 2.420332 1_555
Fe11 V0 2.592717 1_556
Fe11 V2 2.592717 1_565
Fe11 V4 2.592717 1_655
Fe11 V9 2.708265 1_656
Fe11 V11 2.708265 1_566
Fe11 V7 2.708265 1_665
C0 V0 2.034930 1_545
C0 V5 2.034930 1_555
C0 V11 2.034930 1_555
C0 V8 2.034930 1_555
C0 V2 2.034930 1_554
C0 V6 2.034930 1_555
C1 V10 2.034930 1_555
C1 V0 2.034930 1_455
C1 V3 2.034930 1_555
C1 V4 2.034930 1_554
C1 V9 2.034930 1_555
C1 V6 2.034930 1_555
C2 V2 2.034930 1_455
C2 V10 2.034930 1_555
C2 V4 2.034930 1_545
C2 V1 2.034930 1_555
C2 V8 2.034930 1_555
C2 V7 2.034930 1_555
C3 V3 2.034930 1_545
C3 V11 2.034930 1_555
C3 V9 2.034930 1_555
C3 V1 2.034930 1_554
C3 V5 2.034930 1_455
C3 V7 2.034930 1_555
