# generated using pymatgen
data_V2ZnO4
_symmetry_space_group_name_H-M   'P 1'
_cell_length_a   5.18847900
_cell_length_b   5.97828500
_cell_length_c   10.30826600
_cell_angle_alpha   90.00000000
_cell_angle_beta   90.00000000
_cell_angle_gamma   90.00000000
_symmetry_Int_Tables_number   1
_chemical_formula_structural   V2ZnO4
_chemical_formula_sum   'V8 Zn4 O16'
_cell_volume   319.74392013
_cell_formula_units_Z   4
loop_
 _symmetry_equiv_pos_site_id
 _symmetry_equiv_pos_as_xyz
  1  'x, y, z'
loop_
 _atom_site_type_symbol
 _atom_site_label
 _atom_site_symmetry_multiplicity
 _atom_site_fract_x
 _atom_site_fract_y
 _atom_site_fract_z
 _atom_site_occupancy
  V  V0  1  0.01275200  0.50000000  0.23432000  1
  V  V1  1  0.01275200  0.50000000  0.76568000  1
  V  V2  1  0.98724800  0.00000000  0.26568000  1
  V  V3  1  0.98724800  0.00000000  0.73432000  1
  V  V4  1  0.50000000  0.25000000  0.25000000  1
  V  V5  1  0.50000000  0.75000000  0.75000000  1
  V  V6  1  0.50000000  0.75000000  0.25000000  1
  V  V7  1  0.50000000  0.25000000  0.75000000  1
  Zn  Zn0  1  0.35054600  0.00000000  0.50000000  1
  Zn  Zn1  1  0.64945400  0.50000000  0.00000000  1
  Zn  Zn2  1  0.03584900  0.00000000  0.00000000  1
  Zn  Zn3  1  0.96415100  0.50000000  0.50000000  1
  O  O0  1  0.35655000  0.50000000  0.14114500  1
  O  O1  1  0.35655000  0.50000000  0.85885500  1
  O  O2  1  0.64345000  0.00000000  0.35885500  1
  O  O3  1  0.64345000  0.00000000  0.64114500  1
  O  O4  1  0.69271400  0.50000000  0.34854700  1
  O  O5  1  0.69271400  0.50000000  0.65145300  1
  O  O6  1  0.30728600  0.00000000  0.15145300  1
  O  O7  1  0.30728600  0.00000000  0.84854700  1
  O  O8  1  0.16549600  0.25197900  0.36305100  1
  O  O9  1  0.16549600  0.74802100  0.63694900  1
  O  O10  1  0.83450400  0.75197900  0.13694900  1
  O  O11  1  0.83450400  0.24802100  0.86305100  1
  O  O12  1  0.83450400  0.24802100  0.13694900  1
  O  O13  1  0.83450400  0.75197900  0.86305100  1
  O  O14  1  0.16549600  0.74802100  0.36305100  1
  O  O15  1  0.16549600  0.25197900  0.63694900  1
loop_
_geom_bond_atom_site_label_1
_geom_bond_atom_site_label_2
_geom_bond_distance
_geom_bond_site_symmetry_2
O0 V4 2.011673 1_555
O0 V6 2.011673 1_555
O0 V0 2.025934 1_555
O0 Zn1 2.103919 1_555
O1 V7 2.011673 1_555
O1 V5 2.011673 1_555
O1 V1 2.025934 1_555
O1 Zn1 2.103919 1_556
O2 V4 2.011673 1_555
O2 V6 2.011673 1_545
O2 V2 2.025934 1_555
O2 Zn0 2.103919 1_555
O3 V5 2.011673 1_545
O3 V7 2.011673 1_555
O3 V3 2.025934 1_555
O3 Zn0 2.103919 1_555
O4 V0 2.035623 1_655
O4 V6 2.065303 1_555
O4 V4 2.065303 1_555
O4 Zn3 2.102579 1_555
O5 V1 2.035623 1_655
O5 V5 2.065303 1_555
O5 V7 2.065303 1_555
O5 Zn3 2.102579 1_555
O6 V2 2.035623 1_455
O6 V4 2.065303 1_555
O6 V6 2.065303 1_545
O6 Zn2 2.102579 1_555
O7 V3 2.035623 1_455
O7 V5 2.065303 1_545
O7 V7 2.065303 1_555
O7 Zn2 2.102579 1_556
O8 V2 2.032741 1_455
O8 V4 2.090549 1_555
O8 V0 2.141845 1_555
O8 Zn0 2.276842 1_555
O8 Zn3 2.298430 1_455
O9 V3 2.032741 1_465
O9 V5 2.090549 1_555
O9 V1 2.141845 1_555
O9 Zn0 2.276842 1_565
O9 Zn3 2.298430 1_455
O10 V0 2.032741 1_655
O10 V6 2.090549 1_555
O10 V2 2.141845 1_565
O10 Zn1 2.276842 1_555
O10 Zn2 2.298430 1_665
O11 V1 2.032741 1_655
O11 V7 2.090549 1_555
O11 V3 2.141845 1_555
O11 Zn1 2.276842 1_556
O11 Zn2 2.298430 1_656
O12 V0 2.032741 1_655
O12 V4 2.090549 1_555
O12 V2 2.141845 1_555
O12 Zn1 2.276842 1_555
O12 Zn2 2.298430 1_655
O13 V1 2.032741 1_655
O13 V5 2.090549 1_555
O13 V3 2.141845 1_565
O13 Zn1 2.276842 1_556
O13 Zn2 2.298430 1_666
O14 V2 2.032741 1_465
O14 V6 2.090549 1_555
O14 V0 2.141845 1_555
O14 Zn0 2.276842 1_565
O14 Zn3 2.298430 1_455
O15 V3 2.032741 1_455
O15 V7 2.090549 1_555
O15 V1 2.141845 1_555
O15 Zn0 2.276842 1_555
O15 Zn3 2.298430 1_455
