# generated using pymatgen
data_Tm5Ni2Sb
_symmetry_space_group_name_H-M   'P 1'
_cell_length_a   8.43938290
_cell_length_b   8.43938290
_cell_length_c   8.43938290
_cell_angle_alpha   127.42243984
_cell_angle_beta   127.42243984
_cell_angle_gamma   77.56253884
_symmetry_Int_Tables_number   1
_chemical_formula_structural   Tm5Ni2Sb
_chemical_formula_sum   'Tm10 Ni4 Sb2'
_cell_volume   367.65019300
_cell_formula_units_Z   2
loop_
 _symmetry_equiv_pos_site_id
 _symmetry_equiv_pos_as_xyz
  1  'x, y, z'
loop_
 _atom_site_type_symbol
 _atom_site_label
 _atom_site_symmetry_multiplicity
 _atom_site_fract_x
 _atom_site_fract_y
 _atom_site_fract_z
 _atom_site_occupancy
  Tm  Tm0  1  -0.00000000  -0.00000000  -0.00000000  1
  Tm  Tm1  1  0.50000000  0.50000000  -0.00000000  1
  Tm  Tm2  1  0.79237683  0.29237683  0.81275656  1
  Tm  Tm3  1  0.20762317  0.70762317  0.18724344  1
  Tm  Tm4  1  0.47962028  0.97962028  0.18724344  1
  Tm  Tm5  1  0.29237683  0.47962028  0.50000000  1
  Tm  Tm6  1  0.02037972  0.20762317  0.50000000  1
  Tm  Tm7  1  0.52037972  0.02037972  0.81275656  1
  Tm  Tm8  1  0.70762317  0.52037972  0.50000000  1
  Tm  Tm9  1  0.97962028  0.79237683  0.50000000  1
  Ni  Ni0  1  0.13200189  0.63200189  0.76400477  1
  Ni  Ni1  1  0.86799811  0.36799811  0.23599523  1
  Ni  Ni2  1  0.63200189  0.86799811  0.50000000  1
  Ni  Ni3  1  0.36799811  0.13200189  0.50000000  1
  Sb  Sb0  1  0.25000000  0.25000000  -0.00000000  1
  Sb  Sb1  1  0.75000000  0.75000000  -0.00000000  1
loop_
_geom_bond_atom_site_label_1
_geom_bond_atom_site_label_2
_geom_bond_distance
_geom_bond_site_symmetry_2
Ni0 Tm8 2.807617 1_455
Ni0 Tm6 2.807617 1_555
Ni0 Tm9 2.807625 1_455
Ni0 Tm5 2.807625 1_555
Ni0 Tm3 2.864835 1_556
Ni0 Tm4 2.864843 1_556
Ni0 Tm0 2.922607 1_566
Ni0 Tm1 2.922607 1_556
Ni1 Tm5 2.807617 1_655
Ni1 Tm9 2.807617 1_555
Ni1 Tm6 2.807625 1_655
Ni1 Tm8 2.807625 1_555
Ni1 Tm2 2.864835 1_554
Ni1 Tm7 2.864843 1_554
Ni1 Tm0 2.922607 1_655
Ni1 Tm1 2.922607 1_555
Ni2 Tm2 2.807618 1_565
Ni2 Tm3 2.807618 1_555
Ni2 Tm4 2.807619 1_555
Ni2 Tm7 2.807619 1_565
Ni2 Tm9 2.864843 1_555
Ni2 Tm8 2.864843 1_555
Ni2 Tm0 2.922609 1_666
Ni2 Tm1 2.922609 1_555
Ni3 Tm2 2.807618 1_555
Ni3 Tm3 2.807618 1_545
Ni3 Tm4 2.807619 1_545
Ni3 Tm7 2.807619 1_555
Ni3 Tm6 2.864843 1_555
Ni3 Tm5 2.864843 1_555
Ni3 Tm0 2.922609 1_555
Ni3 Tm1 2.922609 1_556
Sb0 Tm7 3.196105 1_554
Sb0 Tm4 3.196105 1_545
Sb0 Tm8 3.196105 1_555
Sb0 Tm6 3.196105 1_554
Sb0 Tm9 3.196105 1_444
Sb0 Tm5 3.196105 1_555
Sb0 Tm2 3.196105 1_454
Sb0 Tm3 3.196105 1_555
Sb0 Tm1 3.289430 1_555
Sb0 Tm0 3.289430 1_555
Sb1 Tm7 3.196105 1_564
Sb1 Tm4 3.196105 1_555
Sb1 Tm9 3.196105 1_555
Sb1 Tm6 3.196105 1_665
Sb1 Tm5 3.196105 1_554
Sb1 Tm8 3.196105 1_554
Sb1 Tm2 3.196105 1_554
Sb1 Tm3 3.196105 1_655
Sb1 Tm1 3.289430 1_555
Sb1 Tm0 3.289430 1_665
