# generated using pymatgen
data_SrV2(H4O5)2
_symmetry_space_group_name_H-M   'P 1'
_cell_length_a   10.80296870
_cell_length_b   10.80296870
_cell_length_c   14.80507303
_cell_angle_alpha   59.22803700
_cell_angle_beta   59.22803700
_cell_angle_gamma   39.34671755
_symmetry_Int_Tables_number   1
_chemical_formula_structural   SrV2(H4O5)2
_chemical_formula_sum   'Sr4 V8 H32 O40'
_cell_volume   919.64824370
_cell_formula_units_Z   4
loop_
 _symmetry_equiv_pos_site_id
 _symmetry_equiv_pos_as_xyz
  1  'x, y, z'
loop_
 _atom_site_type_symbol
 _atom_site_label
 _atom_site_symmetry_multiplicity
 _atom_site_fract_x
 _atom_site_fract_y
 _atom_site_fract_z
 _atom_site_occupancy
  Sr  Sr0  1  0.28209100  0.31796100  0.96057700  1
  Sr  Sr1  1  0.68203900  0.71790900  0.53942300  1
  Sr  Sr2  1  0.71790900  0.68203900  0.03942300  1
  Sr  Sr3  1  0.31796100  0.28209100  0.46057700  1
  V  V0  1  0.06425300  0.08241600  0.13277500  1
  V  V1  1  0.91758400  0.93574700  0.36722500  1
  V  V2  1  0.93574700  0.91758400  0.86722500  1
  V  V3  1  0.08241600  0.06425300  0.63277500  1
  V  V4  1  0.05808300  0.09106500  0.38291700  1
  V  V5  1  0.90893500  0.94191700  0.11708300  1
  V  V6  1  0.94191700  0.90893500  0.61708300  1
  V  V7  1  0.09106500  0.05808300  0.88291700  1
  H  H0  1  0.27002200  0.59411100  0.73117100  1
  H  H1  1  0.40588900  0.72997800  0.76882900  1
  H  H2  1  0.72997800  0.40588900  0.26882900  1
  H  H3  1  0.59411100  0.27002200  0.23117100  1
  H  H4  1  0.50091500  0.40702400  0.71376600  1
  H  H5  1  0.59297600  0.49908500  0.78623400  1
  H  H6  1  0.49908500  0.59297600  0.28623400  1
  H  H7  1  0.40702400  0.50091500  0.21376600  1
  H  H8  1  0.96555500  0.44185800  0.21693300  1
  H  H9  1  0.55814200  0.03444500  0.28306700  1
  H  H10  1  0.03444500  0.55814200  0.78306700  1
  H  H11  1  0.44185800  0.96555500  0.71693300  1
  H  H12  1  0.99572300  0.58786700  0.14935700  1
  H  H13  1  0.41213300  0.00427700  0.35064300  1
  H  H14  1  0.00427700  0.41213300  0.85064300  1
  H  H15  1  0.58786700  0.99572300  0.64935700  1
  H  H16  1  0.52782900  0.66147700  0.95151200  1
  H  H17  1  0.33852300  0.47217100  0.54848800  1
  H  H18  1  0.47217100  0.33852300  0.04848800  1
  H  H19  1  0.66147700  0.52782900  0.45151200  1
  H  H20  1  0.73248700  0.44066200  0.96907600  1
  H  H21  1  0.55933800  0.26751300  0.53092400  1
  H  H22  1  0.26751300  0.55933800  0.03092400  1
  H  H23  1  0.44066200  0.73248700  0.46907600  1
  H  H24  1  0.58541200  0.00959700  0.81766100  1
  H  H25  1  0.99040300  0.41458800  0.68233900  1
  H  H26  1  0.41458800  0.99040300  0.18233900  1
  H  H27  1  0.00959700  0.58541200  0.31766100  1
  H  H28  1  0.43644000  0.98084800  0.88004500  1
  H  H29  1  0.01915200  0.56356000  0.61995500  1
  H  H30  1  0.56356000  0.01915200  0.11995500  1
  H  H31  1  0.98084800  0.43644000  0.38004500  1
  O  O0  1  0.00605300  0.07813000  0.02969000  1
  O  O1  1  0.92187000  0.99394700  0.47031000  1
  O  O2  1  0.99394700  0.92187000  0.97031000  1
  O  O3  1  0.07813000  0.00605300  0.52969000  1
  O  O4  1  0.98509000  0.10293200  0.28062300  1
  O  O5  1  0.89706800  0.01491000  0.21937700  1
  O  O6  1  0.01491000  0.89706800  0.71937700  1
  O  O7  1  0.10293200  0.98509000  0.78062300  1
  O  O8  1  0.01346300  0.29544800  0.06934000  1
  O  O9  1  0.70455200  0.98653700  0.43066000  1
  O  O10  1  0.98653700  0.70455200  0.93066000  1
  O  O11  1  0.29544800  0.01346300  0.56934000  1
  O  O12  1  0.31001300  0.89284800  0.11506300  1
  O  O13  1  0.10715200  0.68998700  0.38493700  1
  O  O14  1  0.68998700  0.10715200  0.88493700  1
  O  O15  1  0.89284800  0.31001300  0.61506300  1
  O  O16  1  0.93109100  0.33394500  0.35868600  1
  O  O17  1  0.66605500  0.06890900  0.14131400  1
  O  O18  1  0.06890900  0.66605500  0.64131400  1
  O  O19  1  0.33394500  0.93109100  0.85868600  1
  O  O20  1  0.30195900  0.96046800  0.32586300  1
  O  O21  1  0.03953200  0.69804100  0.17413700  1
  O  O22  1  0.69804100  0.03953200  0.67413700  1
  O  O23  1  0.96046800  0.30195900  0.82586300  1
  O  O24  1  0.37425500  0.45535600  0.76407800  1
  O  O25  1  0.54464400  0.62574500  0.73592200  1
  O  O26  1  0.62574500  0.54464400  0.23592200  1
  O  O27  1  0.45535600  0.37425500  0.26407800  1
  O  O28  1  0.98572100  0.50948100  0.14228100  1
  O  O29  1  0.49051900  0.01427900  0.35771900  1
  O  O30  1  0.01427900  0.49051900  0.85771900  1
  O  O31  1  0.50948200  0.98572100  0.64228100  1
  O  O32  1  0.61922200  0.55735400  0.00173800  1
  O  O33  1  0.44264600  0.38077800  0.49826200  1
  O  O34  1  0.38077800  0.44264600  0.99826200  1
  O  O35  1  0.55735400  0.61922200  0.50173800  1
  O  O36  1  0.50909900  0.99487500  0.89046500  1
  O  O37  1  0.00512500  0.49090100  0.60953500  1
  O  O38  1  0.49090100  0.00512500  0.10953500  1
  O  O39  1  0.99487500  0.50909900  0.39046500  1
loop_
_geom_bond_atom_site_label_1
_geom_bond_atom_site_label_2
_geom_bond_distance
_geom_bond_site_symmetry_2
H0 O24 0.977612 1_555
H1 O25 0.977612 1_555
H2 O26 0.977612 1_555
H3 O27 0.977612 1_555
H4 O24 0.974573 1_555
H5 O25 0.974573 1_555
H6 O26 0.974573 1_555
H7 O27 0.974573 1_555
H8 O28 0.988061 1_555
H9 O29 0.988061 1_555
H10 O30 0.988061 1_555
H11 O31 0.988065 1_555
H12 O28 0.991763 1_555
H13 O29 0.991763 1_555
H14 O30 0.991763 1_555
H15 O31 0.991752 1_555
H16 O32 0.985238 1_556
H17 O33 0.985238 1_555
H18 O34 0.985238 1_554
H19 O35 0.985238 1_555
H20 O32 0.976123 1_556
H21 O33 0.976123 1_555
H22 O34 0.976123 1_554
H23 O35 0.976123 1_555
H24 O36 0.992402 1_545
H25 O37 0.992402 1_655
H26 O38 0.992402 1_565
H27 O39 0.992402 1_455
H28 O36 0.997331 1_555
H29 O37 0.997331 1_555
H30 O38 0.997331 1_555
H31 O39 0.997331 1_555
O0 V7 1.934966 1_554
O0 V0 1.955984 1_555
O0 V5 1.997681 1_445
O1 V6 1.934966 1_555
O1 V1 1.955984 1_555
O1 V4 1.997681 1_665
O2 V5 1.934966 1_556
O2 V2 1.955984 1_555
O2 V7 1.997681 1_665
O3 V4 1.934966 1_555
O3 V3 1.955984 1_555
O3 V6 1.997681 1_445
O4 V4 1.949055 1_655
O4 V0 1.964580 1_655
O4 V1 2.036802 1_545
O5 V5 1.949055 1_545
O5 V1 1.964580 1_545
O5 V0 2.036802 1_655
O6 V6 1.949055 1_455
O6 V2 1.964580 1_455
O6 V3 2.036802 1_565
O7 V7 1.949055 1_565
O7 V3 1.964580 1_565
O7 V2 2.036802 1_455
O8 V0 1.685853 1_555
O8 Sr2 2.600553 1_455
O8 Sr0 2.642513 1_554
O9 V1 1.685853 1_555
O9 Sr3 2.600553 1_565
O9 Sr1 2.642513 1_555
O10 V2 1.685853 1_555
O10 Sr0 2.600553 1_655
O10 Sr2 2.642513 1_556
O11 V3 1.685853 1_555
O11 Sr1 2.600553 1_545
O11 Sr3 2.642513 1_555
O12 V0 1.655076 1_565
O12 Sr2 2.810158 1_555
O13 V1 1.655076 1_455
O13 Sr3 2.810158 1_555
O14 V2 1.655076 1_545
O14 Sr0 2.810158 1_555
O15 V3 1.655076 1_655
O15 Sr1 2.810158 1_555
O16 V4 1.693625 1_655
O17 V5 1.693625 1_545
O18 V6 1.693625 1_455
O19 V7 1.693625 1_565
O20 V4 1.684768 1_565
O21 V5 1.684768 1_455
O22 V6 1.684768 1_545
O23 V7 1.684768 1_655
O24 Sr0 2.561470 1_555
O25 Sr1 2.561470 1_555
O26 Sr2 2.561470 1_555
O27 Sr3 2.561470 1_555
O28 Sr2 2.725137 1_555
O28 Sr0 2.899143 1_654
O29 Sr3 2.725137 1_555
O29 Sr1 2.899143 1_545
O30 Sr0 2.725137 1_555
O30 Sr2 2.899143 1_456
O31 Sr1 2.725142 1_555
O31 Sr3 2.899146 1_565
O32 Sr2 2.619321 1_555
O33 Sr3 2.619321 1_555
O34 Sr0 2.619321 1_555
O35 Sr1 2.619321 1_555
O36 Sr2 2.654543 1_556
O36 Sr0 2.671636 1_565
O37 Sr3 2.654543 1_555
O37 Sr1 2.671636 1_455
O38 Sr0 2.654543 1_554
O38 Sr2 2.671636 1_545
O39 Sr1 2.654543 1_555
O39 Sr3 2.671636 1_655
