# generated using pymatgen
data_RbMg30GaO32
_symmetry_space_group_name_H-M   'P 1'
_cell_length_a   8.63973300
_cell_length_b   8.63973300
_cell_length_c   8.56872800
_cell_angle_alpha   90.00000000
_cell_angle_beta   90.00000000
_cell_angle_gamma   90.00000000
_symmetry_Int_Tables_number   1
_chemical_formula_structural   RbMg30GaO32
_chemical_formula_sum   'Rb1 Mg30 Ga1 O32'
_cell_volume   639.61258427
_cell_formula_units_Z   1
loop_
 _symmetry_equiv_pos_site_id
 _symmetry_equiv_pos_as_xyz
  1  'x, y, z'
loop_
 _atom_site_type_symbol
 _atom_site_label
 _atom_site_symmetry_multiplicity
 _atom_site_fract_x
 _atom_site_fract_y
 _atom_site_fract_z
 _atom_site_occupancy
  Rb  Rb0  1  0.00000000  0.00000000  0.00000000  1
  Mg  Mg0  1  0.50000000  0.00000000  0.00000000  1
  Mg  Mg1  1  0.50000000  0.00000000  0.50000000  1
  Mg  Mg2  1  0.00000000  0.50000000  0.00000000  1
  Mg  Mg3  1  0.00000000  0.50000000  0.50000000  1
  Mg  Mg4  1  0.50000000  0.50000000  0.00000000  1
  Mg  Mg5  1  0.50000000  0.50000000  0.50000000  1
  Mg  Mg6  1  0.25687700  0.00000000  0.25028700  1
  Mg  Mg7  1  0.25687700  0.00000000  0.74971300  1
  Mg  Mg8  1  0.74312300  0.00000000  0.25028700  1
  Mg  Mg9  1  0.74312300  0.00000000  0.74971300  1
  Mg  Mg10  1  0.25064400  0.50000000  0.24934800  1
  Mg  Mg11  1  0.25064400  0.50000000  0.75065200  1
  Mg  Mg12  1  0.74935600  0.50000000  0.24934800  1
  Mg  Mg13  1  0.74935600  0.50000000  0.75065200  1
  Mg  Mg14  1  0.00000000  0.25687700  0.25028700  1
  Mg  Mg15  1  0.00000000  0.25687700  0.74971300  1
  Mg  Mg16  1  0.50000000  0.25064400  0.24934800  1
  Mg  Mg17  1  0.50000000  0.25064400  0.75065200  1
  Mg  Mg18  1  0.00000000  0.74312300  0.25028700  1
  Mg  Mg19  1  0.00000000  0.74312300  0.74971300  1
  Mg  Mg20  1  0.50000000  0.74935600  0.24934800  1
  Mg  Mg21  1  0.50000000  0.74935600  0.75065200  1
  Mg  Mg22  1  0.25335200  0.25335200  0.00000000  1
  Mg  Mg23  1  0.25109900  0.25109900  0.50000000  1
  Mg  Mg24  1  0.74664800  0.25335200  0.00000000  1
  Mg  Mg25  1  0.74890100  0.25109900  0.50000000  1
  Mg  Mg26  1  0.25335200  0.74664800  0.00000000  1
  Mg  Mg27  1  0.25109900  0.74890100  0.50000000  1
  Mg  Mg28  1  0.74664800  0.74664800  0.00000000  1
  Mg  Mg29  1  0.74890100  0.74890100  0.50000000  1
  Ga  Ga0  1  0.00000000  0.00000000  0.50000000  1
  O  O0  1  0.00000000  0.27876600  0.00000000  1
  O  O1  1  0.00000000  0.25000900  0.50000000  1
  O  O2  1  0.50000000  0.25550400  0.00000000  1
  O  O3  1  0.50000000  0.25032600  0.50000000  1
  O  O4  1  0.00000000  0.72123400  0.00000000  1
  O  O5  1  0.00000000  0.74999100  0.50000000  1
  O  O6  1  0.50000000  0.74449600  0.00000000  1
  O  O7  1  0.50000000  0.74967400  0.50000000  1
  O  O8  1  0.24895400  0.24895400  0.25017000  1
  O  O9  1  0.24895400  0.24895400  0.74983000  1
  O  O10  1  0.75104600  0.24895400  0.25017000  1
  O  O11  1  0.75104600  0.24895400  0.74983000  1
  O  O12  1  0.24895400  0.75104600  0.25017000  1
  O  O13  1  0.24895400  0.75104600  0.74983000  1
  O  O14  1  0.75104600  0.75104600  0.25017000  1
  O  O15  1  0.75104600  0.75104600  0.74983000  1
  O  O16  1  0.00000000  0.00000000  0.28417800  1
  O  O17  1  0.00000000  0.00000000  0.71582200  1
  O  O18  1  0.50000000  0.00000000  0.25727700  1
  O  O19  1  0.50000000  0.00000000  0.74272300  1
  O  O20  1  0.00000000  0.50000000  0.25727700  1
  O  O21  1  0.00000000  0.50000000  0.74272300  1
  O  O22  1  0.50000000  0.50000000  0.25237300  1
  O  O23  1  0.50000000  0.50000000  0.74762700  1
  O  O24  1  0.27876600  0.00000000  0.00000000  1
  O  O25  1  0.25000900  0.00000000  0.50000000  1
  O  O26  1  0.72123400  0.00000000  0.00000000  1
  O  O27  1  0.74999100  0.00000000  0.50000000  1
  O  O28  1  0.25550400  0.50000000  0.00000000  1
  O  O29  1  0.25032600  0.50000000  0.50000000  1
  O  O30  1  0.74449600  0.50000000  0.00000000  1
  O  O31  1  0.74967400  0.50000000  0.50000000  1
loop_
_geom_bond_atom_site_label_1
_geom_bond_atom_site_label_2
_geom_bond_distance
_geom_bond_site_symmetry_2
Mg0 O26 1.911403 1_555
Mg0 O24 1.911403 1_555
Mg0 O18 2.204537 1_555
Mg0 O19 2.204537 1_554
Mg0 O2 2.207486 1_555
Mg0 O6 2.207486 1_545
Mg1 O19 2.079827 1_555
Mg1 O18 2.079827 1_555
Mg1 O27 2.159855 1_555
Mg1 O25 2.159855 1_555
Mg1 O3 2.162750 1_555
Mg1 O7 2.162750 1_545
Mg2 O4 1.911403 1_555
Mg2 O0 1.911403 1_555
Mg2 O20 2.204537 1_555
Mg2 O21 2.204537 1_554
Mg2 O28 2.207486 1_555
Mg2 O30 2.207486 1_455
Mg3 O21 2.079827 1_555
Mg3 O20 2.079827 1_555
Mg3 O5 2.159855 1_555
Mg3 O1 2.159855 1_555
Mg3 O29 2.162750 1_555
Mg3 O31 2.162750 1_455
Mg4 O30 2.112380 1_555
Mg4 O6 2.112380 1_555
Mg4 O2 2.112380 1_555
Mg4 O28 2.112380 1_555
Mg4 O22 2.162516 1_555
Mg4 O23 2.162516 1_554
Mg5 O23 2.121848 1_555
Mg5 O22 2.121848 1_555
Mg5 O7 2.157117 1_555
Mg5 O31 2.157117 1_555
Mg5 O3 2.157117 1_555
Mg5 O29 2.157117 1_555
Mg6 O18 2.101372 1_555
Mg6 O25 2.140545 1_555
Mg6 O8 2.151985 1_555
Mg6 O12 2.151985 1_545
Mg6 O24 2.152963 1_555
Mg6 O16 2.238268 1_555
Mg7 O19 2.101372 1_555
Mg7 O25 2.140545 1_555
Mg7 O9 2.151985 1_555
Mg7 O13 2.151985 1_545
Mg7 O24 2.152963 1_556
Mg7 O17 2.238268 1_555
Mg8 O18 2.101372 1_555
Mg8 O27 2.140545 1_555
Mg8 O10 2.151985 1_555
Mg8 O14 2.151985 1_545
Mg8 O26 2.152963 1_555
Mg8 O16 2.238268 1_655
Mg9 O19 2.101372 1_555
Mg9 O27 2.140545 1_555
Mg9 O11 2.151985 1_555
Mg9 O15 2.151985 1_545
Mg9 O26 2.152963 1_556
Mg9 O17 2.238268 1_655
Mg10 O28 2.137008 1_555
Mg10 O29 2.147771 1_555
Mg10 O22 2.154525 1_555
Mg10 O20 2.166563 1_555
Mg10 O12 2.169031 1_555
Mg10 O8 2.169031 1_555
Mg11 O28 2.137008 1_556
Mg11 O29 2.147771 1_555
Mg11 O23 2.154525 1_555
Mg11 O21 2.166563 1_555
Mg11 O13 2.169031 1_555
Mg11 O9 2.169031 1_555
Mg12 O30 2.137008 1_555
Mg12 O31 2.147771 1_555
Mg12 O22 2.154525 1_555
Mg12 O20 2.166563 1_655
Mg12 O14 2.169031 1_555
Mg12 O10 2.169031 1_555
Mg13 O30 2.137008 1_556
Mg13 O31 2.147771 1_555
Mg13 O23 2.154525 1_555
Mg13 O21 2.166563 1_655
Mg13 O15 2.169031 1_555
Mg13 O11 2.169031 1_555
Mg14 O20 2.101372 1_555
Mg14 O1 2.140545 1_555
Mg14 O8 2.151985 1_555
Mg14 O10 2.151985 1_455
Mg14 O0 2.152963 1_555
Mg14 O16 2.238268 1_555
Mg15 O21 2.101372 1_555
Mg15 O1 2.140545 1_555
Mg15 O9 2.151985 1_555
Mg15 O11 2.151985 1_455
Mg15 O0 2.152963 1_556
Mg15 O17 2.238268 1_555
Mg16 O2 2.137008 1_555
Mg16 O3 2.147771 1_555
Mg16 O22 2.154525 1_555
Mg16 O18 2.166563 1_555
Mg16 O10 2.169031 1_555
Mg16 O8 2.169031 1_555
Mg17 O2 2.137008 1_556
Mg17 O3 2.147771 1_555
Mg17 O23 2.154525 1_555
Mg17 O19 2.166563 1_555
Mg17 O11 2.169031 1_555
Mg17 O9 2.169031 1_555
Mg18 O20 2.101372 1_555
Mg18 O5 2.140545 1_555
Mg18 O12 2.151985 1_555
Mg18 O14 2.151985 1_455
Mg18 O4 2.152963 1_555
Mg18 O16 2.238268 1_565
Mg19 O21 2.101372 1_555
Mg19 O5 2.140545 1_555
Mg19 O13 2.151985 1_555
Mg19 O15 2.151985 1_455
Mg19 O4 2.152963 1_556
Mg19 O17 2.238268 1_565
Mg20 O6 2.137008 1_555
Mg20 O7 2.147771 1_555
Mg20 O22 2.154525 1_555
Mg20 O18 2.166563 1_565
Mg20 O14 2.169031 1_555
Mg20 O12 2.169031 1_555
Mg21 O6 2.137008 1_556
Mg21 O7 2.147771 1_555
Mg21 O23 2.154525 1_555
Mg21 O19 2.166563 1_565
Mg21 O15 2.169031 1_555
Mg21 O13 2.169031 1_555
Mg22 O2 2.131054 1_555
Mg22 O28 2.131054 1_555
Mg22 O9 2.144312 1_554
Mg22 O8 2.144312 1_555
Mg22 O24 2.199879 1_555
Mg22 O0 2.199879 1_555
Mg23 O8 2.140886 1_555
Mg23 O9 2.140886 1_555
Mg23 O29 2.150449 1_555
Mg23 O3 2.150449 1_555
Mg23 O1 2.169449 1_555
Mg23 O25 2.169449 1_555
Mg24 O2 2.131054 1_555
Mg24 O30 2.131054 1_555
Mg24 O11 2.144312 1_554
Mg24 O10 2.144312 1_555
Mg24 O26 2.199879 1_555
Mg24 O0 2.199879 1_655
Mg25 O10 2.140886 1_555
Mg25 O11 2.140886 1_555
Mg25 O3 2.150449 1_555
Mg25 O31 2.150449 1_555
Mg25 O27 2.169449 1_555
Mg25 O1 2.169449 1_655
Mg26 O28 2.131054 1_555
Mg26 O6 2.131054 1_555
Mg26 O13 2.144312 1_554
Mg26 O12 2.144312 1_555
Mg26 O4 2.199879 1_555
Mg26 O24 2.199879 1_565
Mg27 O12 2.140886 1_555
Mg27 O13 2.140886 1_555
Mg27 O29 2.150449 1_555
Mg27 O7 2.150449 1_555
Mg27 O5 2.169449 1_555
Mg27 O25 2.169449 1_565
Mg28 O6 2.131054 1_555
Mg28 O30 2.131054 1_555
Mg28 O15 2.144312 1_554
Mg28 O14 2.144312 1_555
Mg28 O26 2.199879 1_565
Mg28 O4 2.199879 1_655
Mg29 O14 2.140886 1_555
Mg29 O15 2.140886 1_555
Mg29 O7 2.150449 1_555
Mg29 O31 2.150449 1_555
Mg29 O27 2.169449 1_565
Mg29 O5 2.169449 1_655
Ga0 O17 1.849320 1_555
Ga0 O16 1.849320 1_555
Ga0 O1 2.160011 1_555
Ga0 O25 2.160011 1_555
Ga0 O5 2.160011 1_545
Ga0 O27 2.160011 1_455
O0 Rb0 2.408464 1_555
O4 Rb0 2.408464 1_565
O16 Rb0 2.435044 1_555
O17 Rb0 2.435044 1_556
O24 Rb0 2.408464 1_555
O26 Rb0 2.408464 1_655
