# generated using pymatgen
data_Y3Ni19B10
_symmetry_space_group_name_H-M   'P 1'
_cell_length_a   7.87827104
_cell_length_b   7.87827104
_cell_length_c   5.77089123
_cell_angle_alpha   88.94742242
_cell_angle_beta   88.94742242
_cell_angle_gamma   67.04814575
_symmetry_Int_Tables_number   1
_chemical_formula_structural   Y3Ni19B10
_chemical_formula_sum   'Y3 Ni19 B10'
_cell_volume   329.74640566
_cell_formula_units_Z   1
loop_
 _symmetry_equiv_pos_site_id
 _symmetry_equiv_pos_as_xyz
  1  'x, y, z'
loop_
 _atom_site_type_symbol
 _atom_site_label
 _atom_site_symmetry_multiplicity
 _atom_site_fract_x
 _atom_site_fract_y
 _atom_site_fract_z
 _atom_site_occupancy
  Y  Y0  1  0.00000000  0.00000000  0.00000000  1
  Y  Y1  1  0.62520900  0.62520900  0.61601700  1
  Y  Y2  1  0.37479100  0.37479100  0.38398300  1
  Ni  Ni0  1  0.00000000  0.00000000  0.50000000  1
  Ni  Ni1  1  0.62211300  0.62211300  0.12767900  1
  Ni  Ni2  1  0.37788700  0.37788700  0.87232100  1
  Ni  Ni3  1  0.16239000  0.16239000  0.29734300  1
  Ni  Ni4  1  0.83761000  0.83761000  0.70265700  1
  Ni  Ni5  1  0.18206400  0.18206400  0.72920100  1
  Ni  Ni6  1  0.81793600  0.81793600  0.27079900  1
  Ni  Ni7  1  0.48282900  0.95529500  0.30224100  1
  Ni  Ni8  1  0.95529500  0.48282900  0.30224100  1
  Ni  Ni9  1  0.51717100  0.04470500  0.69775900  1
  Ni  Ni10  1  0.04470500  0.51717100  0.69775900  1
  Ni  Ni11  1  0.12199300  0.62322100  0.07262700  1
  Ni  Ni12  1  0.62322100  0.12199300  0.07262700  1
  Ni  Ni13  1  0.87800700  0.37677900  0.92737300  1
  Ni  Ni14  1  0.37677900  0.87800700  0.92737300  1
  Ni  Ni15  1  0.77020600  0.28957600  0.30157800  1
  Ni  Ni16  1  0.28957600  0.77020600  0.30157800  1
  Ni  Ni17  1  0.22979400  0.71042400  0.69842200  1
  Ni  Ni18  1  0.71042400  0.22979400  0.69842200  1
  B  B0  1  0.38464500  0.61535500  0.00000000  1
  B  B1  1  0.61535500  0.38464500  0.00000000  1
  B  B2  1  0.64982300  0.85827600  0.97568500  1
  B  B3  1  0.85827600  0.64982300  0.97568500  1
  B  B4  1  0.35017700  0.14172400  0.02431500  1
  B  B5  1  0.14172400  0.35017700  0.02431500  1
  B  B6  1  0.93572500  0.30008700  0.56972100  1
  B  B7  1  0.30008700  0.93572500  0.56972100  1
  B  B8  1  0.06427500  0.69991300  0.43027900  1
  B  B9  1  0.69991300  0.06427500  0.43027900  1
loop_
_geom_bond_atom_site_label_1
_geom_bond_atom_site_label_2
_geom_bond_distance
_geom_bond_site_symmetry_2
Ni0 Ni4 2.409942 1_445
Ni0 Ni3 2.409942 1_555
Ni0 Y0 2.885446 1_556
Ni0 Y0 2.885446 1_555
Ni1 Y1 2.819335 1_555
Ni1 Y1 2.952130 1_554
Ni2 Y2 2.819335 1_555
Ni2 Y2 2.952130 1_556
Ni3 Ni7 2.413390 1_545
Ni3 Ni8 2.413390 1_455
Ni3 Ni5 2.511226 1_555
Ni3 Y0 2.766902 1_555
Ni3 Y2 2.845265 1_555
Ni4 Ni9 2.413390 1_565
Ni4 Ni6 2.511226 1_555
Ni4 Y0 2.766902 1_666
Ni4 Y1 2.845265 1_555
Ni5 Y0 2.827856 1_556
Ni5 Y2 3.186766 1_555
Ni6 Y0 2.827856 1_665
Ni6 Y1 3.186766 1_555
Ni7 Y1 2.987699 1_555
Ni7 Y2 3.117373 1_565
Ni8 Y1 2.987699 1_555
Ni8 Y2 3.117373 1_655
Ni9 Y2 2.987699 1_555
Ni9 Y1 3.117373 1_545
Ni10 Ni4 2.413390 1_455
Ni10 Y2 2.987699 1_555
Ni10 Y1 3.117373 1_455
Ni11 Y0 2.766705 1_565
Ni11 Y2 2.826273 1_555
Ni12 Y0 2.766705 1_655
Ni12 Y2 2.826273 1_555
Ni13 Y0 2.766705 1_656
Ni13 Y1 2.826273 1_555
Ni14 Y0 2.766705 1_566
Ni14 Y1 2.826273 1_555
Ni15 Y0 2.884431 1_655
Ni15 Y2 2.950839 1_555
Ni15 Y1 3.055135 1_555
Ni16 Y0 2.884431 1_565
Ni16 Y2 2.950839 1_555
Ni16 Y1 3.055135 1_555
Ni17 Y0 2.884431 1_566
Ni17 Y1 2.950839 1_555
Ni17 Y2 3.055135 1_555
Ni18 Y0 2.884431 1_656
Ni18 Y1 2.950839 1_555
Ni18 Y2 3.055135 1_555
B0 B1 2.007670 1_555
B0 Ni2 2.043415 1_554
B0 Ni1 2.043415 1_555
B0 Ni11 2.080950 1_555
B0 Ni14 2.080950 1_554
B0 Ni17 2.096582 1_554
B0 Ni16 2.096582 1_555
B0 Y2 2.909016 1_555
B0 Y1 2.909016 1_554
B1 Ni2 2.043415 1_554
B1 Ni1 2.043415 1_555
B1 Ni12 2.080950 1_555
B1 Ni13 2.080950 1_554
B1 Ni18 2.096582 1_554
B1 Ni15 2.096582 1_555
B1 Y2 2.909016 1_555
B1 Y1 2.909016 1_554
B2 B3 1.813987 1_555
B2 Ni12 2.090995 1_566
B2 Ni4 2.105642 1_555
B2 Ni14 2.118689 1_555
B2 Ni6 2.119032 1_556
B2 Ni1 2.128025 1_556
B2 Ni9 2.144694 1_565
B2 Ni7 2.245898 1_556
B2 Y1 2.854776 1_555
B3 Ni11 2.090995 1_656
B3 Ni4 2.105642 1_555
B3 Ni13 2.118689 1_555
B3 Ni6 2.119032 1_556
B3 Ni1 2.128025 1_556
B3 Ni10 2.144694 1_655
B3 Ni8 2.245898 1_556
B3 Y1 2.854776 1_555
B4 B5 1.813987 1_555
B4 Ni14 2.090995 1_544
B4 Ni3 2.105642 1_555
B4 Ni12 2.118689 1_555
B4 Ni5 2.119032 1_554
B4 Ni2 2.128025 1_554
B4 Ni7 2.144694 1_545
B4 Ni9 2.245898 1_554
B4 Y2 2.854776 1_555
B5 Ni13 2.090995 1_454
B5 Ni3 2.105642 1_555
B5 Ni11 2.118689 1_555
B5 Ni5 2.119032 1_554
B5 Ni2 2.128025 1_554
B5 Ni8 2.144694 1_455
B5 Ni10 2.245898 1_554
B5 Y2 2.854776 1_555
B6 Ni5 2.026034 1_655
B6 Ni15 2.065155 1_555
B6 Ni8 2.135861 1_555
B6 Ni13 2.151479 1_555
B6 Ni18 2.170704 1_555
B6 Ni0 2.258621 1_655
B6 Ni3 2.298932 1_655
B6 Ni10 2.328733 1_655
B6 Y1 2.780438 1_555
B7 Ni5 2.026034 1_565
B7 Ni16 2.065155 1_555
B7 Ni7 2.135861 1_555
B7 Ni14 2.151479 1_555
B7 Ni17 2.170704 1_555
B7 Ni0 2.258621 1_565
B7 Ni3 2.298932 1_565
B7 Ni9 2.328733 1_565
B7 Y1 2.780438 1_555
B8 Ni6 2.026034 1_455
B8 Ni17 2.065155 1_555
B8 Ni10 2.135861 1_555
B8 Ni11 2.151479 1_555
B8 Ni16 2.170704 1_555
B8 Ni0 2.258621 1_565
B8 Ni4 2.298932 1_455
B8 Ni8 2.328733 1_455
B8 Y2 2.780438 1_555
B9 Ni6 2.026034 1_545
B9 Ni18 2.065155 1_555
B9 Ni9 2.135861 1_555
B9 Ni12 2.151479 1_555
B9 Ni15 2.170704 1_555
B9 Ni0 2.258621 1_655
B9 Ni4 2.298932 1_545
B9 Ni7 2.328733 1_545
B9 Y2 2.780438 1_555
