# generated using pymatgen
data_SrZnF2
_symmetry_space_group_name_H-M   'P 1'
_cell_length_a   7.81194600
_cell_length_b   7.81194600
_cell_length_c   7.94731621
_cell_angle_alpha   119.43811965
_cell_angle_beta   119.43811965
_cell_angle_gamma   90.00000000
_symmetry_Int_Tables_number   1
_chemical_formula_structural   SrZnF2
_chemical_formula_sum   'Sr4 Zn4 F8'
_cell_volume   348.68827431
_cell_formula_units_Z   4
loop_
 _symmetry_equiv_pos_site_id
 _symmetry_equiv_pos_as_xyz
  1  'x, y, z'
loop_
 _atom_site_type_symbol
 _atom_site_label
 _atom_site_symmetry_multiplicity
 _atom_site_fract_x
 _atom_site_fract_y
 _atom_site_fract_z
 _atom_site_occupancy
  Sr  Sr0  1  0.62500000  0.87500000  0.25000000  1
  Sr  Sr1  1  0.62500000  0.37500000  0.25000000  1
  Sr  Sr2  1  0.62500000  0.37500000  0.75000000  1
  Sr  Sr3  1  0.12500000  0.37500000  0.75000000  1
  Zn  Zn0  1  0.12500000  0.37500000  0.25000000  1
  Zn  Zn1  1  0.12500000  0.87500000  0.25000000  1
  Zn  Zn2  1  0.12500000  0.87500000  0.75000000  1
  Zn  Zn3  1  0.62500000  0.87500000  0.75000000  1
  F  F0  1  0.47037300  0.16167900  0.32127800  1
  F  F1  1  0.85090500  0.15959900  0.32127800  1
  F  F2  1  0.40959900  0.22037300  0.82127800  1
  F  F3  1  0.77962700  0.58832100  0.17872200  1
  F  F4  1  0.41167900  0.60090500  0.82127800  1
  F  F5  1  0.39909500  0.59040100  0.17872200  1
  F  F6  1  0.84040100  0.52962700  0.67872200  1
  F  F7  1  0.83832100  0.14909500  0.67872200  1
loop_
_geom_bond_atom_site_label_1
_geom_bond_atom_site_label_2
_geom_bond_distance
_geom_bond_site_symmetry_2
F0 Sr1 2.481447 1_555
F0 Sr2 2.493661 1_555
F0 Sr0 2.494203 1_545
F1 Sr0 2.481447 1_545
F1 Sr3 2.493661 1_655
F1 Sr1 2.494203 1_555
F2 Sr3 2.481447 1_555
F2 Sr1 2.493661 1_556
F2 Sr2 2.494203 1_555
F3 Sr1 2.481447 1_555
F3 Sr2 2.493661 1_554
F3 Sr0 2.494203 1_555
F4 Sr2 2.481447 1_555
F4 Sr0 2.493661 1_556
F4 Sr3 2.494203 1_555
F5 Sr0 2.481447 1_555
F5 Sr3 2.493661 1_554
F5 Sr1 2.494203 1_555
F6 Sr3 2.481447 1_655
F6 Sr1 2.493661 1_555
F6 Sr2 2.494203 1_555
F7 Sr2 2.481447 1_555
F7 Sr0 2.493661 1_545
F7 Sr3 2.494203 1_655
