# generated using pymatgen
data_Li2VO2F
_symmetry_space_group_name_H-M   'P 1'
_cell_length_a   3.01772100
_cell_length_b   8.92058800
_cell_length_c   9.04986975
_cell_angle_alpha   70.89791875
_cell_angle_beta   90.00000000
_cell_angle_gamma   90.00000000
_symmetry_Int_Tables_number   1
_chemical_formula_structural   Li2VO2F
_chemical_formula_sum   'Li8 V4 O8 F4'
_cell_volume   230.20659528
_cell_formula_units_Z   4
loop_
 _symmetry_equiv_pos_site_id
 _symmetry_equiv_pos_as_xyz
  1  'x, y, z'
loop_
 _atom_site_type_symbol
 _atom_site_label
 _atom_site_symmetry_multiplicity
 _atom_site_fract_x
 _atom_site_fract_y
 _atom_site_fract_z
 _atom_site_occupancy
  Li  Li0  1  0.00000000  0.25510200  0.90234300  1
  Li  Li1  1  0.00000000  0.71799500  0.41972700  1
  Li  Li2  1  0.00000000  0.27516900  0.59101900  1
  Li  Li3  1  0.00000000  0.74691400  0.09589000  1
  Li  Li4  1  0.50000000  0.49835800  0.63264200  1
  Li  Li5  1  0.50000000  0.00165200  0.84422400  1
  Li  Li6  1  0.50000000  0.50156000  0.36651700  1
  Li  Li7  1  0.50000000  0.99910900  0.14259600  1
  V  V0  1  0.00000000  0.26089200  0.24582000  1
  V  V1  1  0.00000000  0.74632000  0.75019000  1
  V  V2  1  0.50000000  0.99985300  0.51950100  1
  V  V3  1  0.50000000  0.50191400  0.99756800  1
  O  O0  1  0.00000000  0.50676400  0.84393300  1
  O  O1  1  0.00000000  0.99547800  0.66295400  1
  O  O2  1  0.00000000  0.49622400  0.15224300  1
  O  O3  1  0.00000000  0.49632000  0.49923400  1
  O  O4  1  0.50000000  0.25216800  0.09283800  1
  O  O5  1  0.50000000  0.23044900  0.40167800  1
  O  O6  1  0.50000000  0.74661100  0.90671900  1
  O  O7  1  0.50000000  0.76617900  0.58843000  1
  F  F0  1  0.00000000  0.99945900  0.34096900  1
  F  F1  1  0.00000000  0.00034100  0.00158700  1
  F  F2  1  0.50000000  0.23780400  0.76021500  1
  F  F3  1  0.50000000  0.76736600  0.24116500  1
loop_
_geom_bond_atom_site_label_1
_geom_bond_atom_site_label_2
_geom_bond_distance
_geom_bond_site_symmetry_2
Li0 O0 2.131343 1_555
Li0 O4 2.284696 1_456
Li0 O4 2.284696 1_556
Li1 O3 1.869988 1_555
Li1 O7 2.285139 1_455
Li1 O7 2.285139 1_555
Li2 O3 1.873330 1_555
Li2 O1 2.363427 1_545
Li2 O5 2.412328 1_555
Li2 O5 2.412328 1_455
Li3 O2 2.124778 1_555
Li3 O6 2.282662 1_554
Li3 O6 2.282662 1_454
Li4 O3 1.936231 1_655
Li4 O3 1.936231 1_555
Li4 O7 2.289615 1_555
Li4 O0 2.456109 1_555
Li4 O0 2.456109 1_655
Li5 O6 2.157277 1_545
Li5 O1 2.242759 1_545
Li5 O1 2.242759 1_645
Li6 O3 1.919550 1_555
Li6 O3 1.919550 1_655
Li6 O5 2.333788 1_555
Li6 O2 2.469747 1_555
Li6 O2 2.469747 1_655
Li7 O4 2.152548 1_565
O0 V1 2.024804 1_555
O0 V3 2.042623 1_555
O0 V3 2.042623 1_455
O1 V2 1.982530 1_555
O1 V2 1.982530 1_455
O1 V1 2.101169 1_555
O2 V0 1.990137 1_555
O2 V3 2.047472 1_554
O2 V3 2.047472 1_454
O4 V0 2.066394 1_655
O4 V0 2.066394 1_555
O4 V3 2.109411 1_554
O5 V2 1.983137 1_545
O5 V0 2.022177 1_555
O5 V0 2.022177 1_655
O6 V3 2.065464 1_555
O6 V1 2.070202 1_655
O6 V1 2.070202 1_555
O7 V2 1.970595 1_555
O7 V1 2.069137 1_655
O7 V1 2.069137 1_555
F0 V0 2.205895 1_565
F0 V2 2.211526 1_555
F0 V2 2.211526 1_455
F0 Li7 2.345903 1_555
F0 Li7 2.345903 1_455
F0 Li1 2.375070 1_555
F1 Li7 1.973846 1_445
F1 Li7 1.973846 1_545
F1 Li5 2.072197 1_554
F1 Li5 2.072197 1_454
F1 Li3 2.139255 1_545
F1 Li0 2.153026 1_554
F2 Li5 1.991880 1_555
F2 Li0 2.021086 1_555
F2 Li0 2.021086 1_655
F2 Li2 2.097211 1_655
F2 Li2 2.097211 1_555
F2 Li4 2.231353 1_555
F3 Li7 1.965305 1_555
F3 Li3 2.048274 1_555
F3 Li3 2.048274 1_655
F3 Li1 2.148524 1_655
F3 Li1 2.148524 1_555
F3 Li6 2.269076 1_555
