# generated using pymatgen
data_Sr2Ca6Mn5Fe3O20
_symmetry_space_group_name_H-M   'P 1'
_cell_length_a   10.95755445
_cell_length_b   11.14333167
_cell_length_c   17.40297028
_cell_angle_alpha   108.63929285
_cell_angle_beta   108.28164558
_cell_angle_gamma   89.99242710
_symmetry_Int_Tables_number   1
_chemical_formula_structural   Sr2Ca6Mn5Fe3O20
_chemical_formula_sum   'Sr8 Ca24 Mn20 Fe12 O80'
_cell_volume   1900.00530788
_cell_formula_units_Z   4
loop_
 _symmetry_equiv_pos_site_id
 _symmetry_equiv_pos_as_xyz
  1  'x, y, z'
loop_
 _atom_site_type_symbol
 _atom_site_label
 _atom_site_symmetry_multiplicity
 _atom_site_fract_x
 _atom_site_fract_y
 _atom_site_fract_z
 _atom_site_occupancy
  Sr  Sr0  1  0.30927100  0.56046800  0.61025800  1
  Sr  Sr1  1  0.80827400  0.05883600  0.61071900  1
  Sr  Sr2  1  0.19974200  0.44157600  0.89257700  1
  Sr  Sr3  1  0.05923200  0.29890100  0.60935700  1
  Sr  Sr4  1  0.05829000  0.80168100  0.61053200  1
  Sr  Sr5  1  0.55936400  0.30093100  0.61071200  1
  Sr  Sr6  1  0.44888400  0.19957200  0.89044700  1
  Sr  Sr7  1  0.94642200  0.19828100  0.38531300  1
  Ca  Ca0  1  0.30469400  0.06452900  0.10812100  1
  Ca  Ca1  1  0.30604300  0.05947900  0.60409100  1
  Ca  Ca2  1  0.30685600  0.56596100  0.10951600  1
  Ca  Ca3  1  0.80526700  0.06203900  0.10546500  1
  Ca  Ca4  1  0.80657100  0.56304400  0.10765900  1
  Ca  Ca5  1  0.80717200  0.56135600  0.60618600  1
  Ca  Ca6  1  0.19913200  0.43654600  0.39058400  1
  Ca  Ca7  1  0.19850000  0.93502900  0.39091200  1
  Ca  Ca8  1  0.20026400  0.93787700  0.89639300  1
  Ca  Ca9  1  0.69509900  0.43633500  0.39123800  1
  Ca  Ca10  1  0.70103400  0.43804100  0.89561500  1
  Ca  Ca11  1  0.69809500  0.93526000  0.39106700  1
  Ca  Ca12  1  0.70066500  0.93824800  0.89353800  1
  Ca  Ca13  1  0.05783900  0.29537600  0.10929900  1
  Ca  Ca14  1  0.05632300  0.79333700  0.10727100  1
  Ca  Ca15  1  0.55587400  0.29385600  0.10856400  1
  Ca  Ca16  1  0.55652300  0.79445100  0.10843600  1
  Ca  Ca17  1  0.55802900  0.79461000  0.60602400  1
  Ca  Ca18  1  0.44981800  0.20623400  0.39062000  1
  Ca  Ca19  1  0.44863500  0.70589700  0.39192700  1
  Ca  Ca20  1  0.45157800  0.70787400  0.89595800  1
  Ca  Ca21  1  0.95144800  0.20522600  0.89506300  1
  Ca  Ca22  1  0.94725400  0.70471500  0.39000900  1
  Ca  Ca23  1  0.94886700  0.70755500  0.89445200  1
  Mn  Mn0  1  0.00495100  0.99934100  0.49835100  1
  Mn  Mn1  1  0.00225600  0.49950800  0.49625200  1
  Mn  Mn2  1  0.25650200  0.25093300  0.00288800  1
  Mn  Mn3  1  0.25338000  0.24792400  0.49561200  1
  Mn  Mn4  1  0.11244300  0.09331700  0.24695300  1
  Mn  Mn5  1  0.11361200  0.09508000  0.75545800  1
  Mn  Mn6  1  0.10969300  0.59840400  0.24941800  1
  Mn  Mn7  1  0.10925800  0.60235700  0.75139900  1
  Mn  Mn8  1  0.60656300  0.09627700  0.24940200  1
  Mn  Mn9  1  0.60991500  0.09440300  0.74926200  1
  Mn  Mn10  1  0.60748600  0.59757400  0.24928800  1
  Mn  Mn11  1  0.61612700  0.60541400  0.75351700  1
  Mn  Mn12  1  0.35921400  0.40349900  0.24830600  1
  Mn  Mn13  1  0.36697200  0.40490500  0.75185800  1
  Mn  Mn14  1  0.35816800  0.90100800  0.24963000  1
  Mn  Mn15  1  0.36356600  0.90102000  0.75095400  1
  Mn  Mn16  1  0.85758100  0.40668700  0.24813900  1
  Mn  Mn17  1  0.86009200  0.40644300  0.75288100  1
  Mn  Mn18  1  0.85866300  0.89847000  0.24695400  1
  Mn  Mn19  1  0.85912100  0.89831600  0.75243900  1
  Fe  Fe0  1  0.00719300  0.00256400  0.00228800  1
  Fe  Fe1  1  0.00595700  0.50037700  0.00199000  1
  Fe  Fe2  1  0.50638500  0.00082100  0.00254800  1
  Fe  Fe3  1  0.50248200  0.99839900  0.49677900  1
  Fe  Fe4  1  0.50693200  0.50097500  0.00269600  1
  Fe  Fe5  1  0.50304500  0.49719200  0.49490100  1
  Fe  Fe6  1  0.25610000  0.75246500  0.00215000  1
  Fe  Fe7  1  0.25298800  0.74885700  0.49721300  1
  Fe  Fe8  1  0.75669500  0.25042300  0.00163700  1
  Fe  Fe9  1  0.75306800  0.24951100  0.49757700  1
  Fe  Fe10  1  0.75612200  0.75033000  0.00082500  1
  Fe  Fe11  1  0.75262400  0.74737200  0.49639000  1
  O  O0  1  0.12784700  0.11776700  0.48936400  1
  O  O1  1  0.12544000  0.12263700  0.98763000  1
  O  O2  1  0.11977300  0.61909100  0.48662200  1
  O  O3  1  0.12300600  0.62538300  0.99283500  1
  O  O4  1  0.62144700  0.11922100  0.48571600  1
  O  O5  1  0.62841300  0.11978300  0.99353400  1
  O  O6  1  0.62346000  0.61985200  0.48780900  1
  O  O7  1  0.62495800  0.62039200  0.98900100  1
  O  O8  1  0.13776400  0.37868000  0.01517800  1
  O  O9  1  0.13281800  0.37698100  0.50417900  1
  O  O10  1  0.13640000  0.88158800  0.01225000  1
  O  O11  1  0.13171600  0.88034400  0.50465400  1
  O  O12  1  0.63710600  0.38121800  0.01447700  1
  O  O13  1  0.63715200  0.38189600  0.50959900  1
  O  O14  1  0.63486500  0.87845400  0.01266400  1
  O  O15  1  0.62987300  0.87402600  0.50609500  1
  O  O16  1  0.37034100  0.11832500  0.48698000  1
  O  O17  1  0.37256000  0.11913800  0.99259100  1
  O  O18  1  0.37303800  0.61821800  0.48731200  1
  O  O19  1  0.37887600  0.62362800  0.99400800  1
  O  O20  1  0.87413400  0.11591200  0.48966700  1
  O  O21  1  0.87409700  0.11779600  0.98723000  1
  O  O22  1  0.87191300  0.61724200  0.48768700  1
  O  O23  1  0.87364500  0.61761000  0.98842800  1
  O  O24  1  0.38585500  0.38281200  0.01660300  1
  O  O25  1  0.38025200  0.37525400  0.50372900  1
  O  O26  1  0.38593100  0.88320400  0.01227400  1
  O  O27  1  0.38215800  0.88160300  0.50932400  1
  O  O28  1  0.88570400  0.38201900  0.01202800  1
  O  O29  1  0.88072100  0.38342900  0.50508800  1
  O  O30  1  0.88706400  0.88293500  0.01400300  1
  O  O31  1  0.88128300  0.87723800  0.50195000  1
  O  O32  1  0.08584500  0.09940400  0.13190900  1
  O  O33  1  0.07733200  0.07951400  0.63410500  1
  O  O34  1  0.07990900  0.59345200  0.13513100  1
  O  O35  1  0.06972200  0.58423100  0.63324800  1
  O  O36  1  0.57979300  0.09408700  0.13633400  1
  O  O37  1  0.57711500  0.08494200  0.63387700  1
  O  O38  1  0.57967300  0.59478100  0.13565200  1
  O  O39  1  0.57633900  0.58902200  0.63509600  1
  O  O40  1  0.44871100  0.40200200  0.36571100  1
  O  O41  1  0.44608100  0.41080800  0.86790000  1
  O  O42  1  0.44149600  0.90605900  0.36438100  1
  O  O43  1  0.45028800  0.91090000  0.86627500  1
  O  O44  1  0.94225800  0.41407200  0.36180900  1
  O  O45  1  0.94462200  0.40521500  0.86601800  1
  O  O46  1  0.94402100  0.90999800  0.36260800  1
  O  O47  1  0.94491600  0.90405500  0.86654900  1
  O  O48  1  0.32638000  0.28515000  0.12929000  1
  O  O49  1  0.32549000  0.29531600  0.63272600  1
  O  O50  1  0.32989600  0.79263700  0.13592300  1
  O  O51  1  0.32275200  0.79765200  0.63359300  1
  O  O52  1  0.83202100  0.29090900  0.13620900  1
  O  O53  1  0.82471500  0.30101600  0.63560200  1
  O  O54  1  0.82846300  0.78625800  0.13427800  1
  O  O55  1  0.82365500  0.79601000  0.63409800  1
  O  O56  1  0.19201100  0.20779500  0.36625800  1
  O  O57  1  0.19682200  0.21014700  0.87426000  1
  O  O58  1  0.19251600  0.70737200  0.36455100  1
  O  O59  1  0.19679100  0.70995300  0.86732500  1
  O  O60  1  0.68975000  0.20701200  0.36394300  1
  O  O61  1  0.69049400  0.20657700  0.86413400  1
  O  O62  1  0.69364700  0.70642600  0.36334200  1
  O  O63  1  0.69967500  0.71469400  0.86715900  1
  O  O64  1  0.42729800  0.07166600  0.24929900  1
  O  O65  1  0.42934200  0.06628700  0.74288800  1
  O  O66  1  0.42965500  0.57847800  0.24983300  1
  O  O67  1  0.44215700  0.57696700  0.75833200  1
  O  O68  1  0.92502500  0.05645200  0.23967800  1
  O  O69  1  0.93113500  0.06589700  0.75803000  1
  O  O70  1  0.92318000  0.57595200  0.24850900  1
  O  O71  1  0.92739900  0.57567300  0.75180800  1
  O  O72  1  0.17228200  0.43292000  0.24980400  1
  O  O73  1  0.18927000  0.44207900  0.75114700  1
  O  O74  1  0.18023400  0.92033900  0.24895700  1
  O  O75  1  0.19144000  0.92876300  0.75956600  1
  O  O76  1  0.67745800  0.42662500  0.24894200  1
  O  O77  1  0.68554600  0.43678800  0.75898300  1
  O  O78  1  0.67619400  0.92750300  0.25003300  1
  O  O79  1  0.67536900  0.92318500  0.75050700  1
loop_
_geom_bond_atom_site_label_1
_geom_bond_atom_site_label_2
_geom_bond_distance
_geom_bond_site_symmetry_2
Ca0 O48 2.366953 1_555
Ca0 O64 2.377378 1_555
Ca0 O10 2.497342 1_545
Ca0 O26 2.536539 1_545
Ca0 O32 2.567644 1_555
Ca0 O17 2.585710 1_554
Ca0 O1 2.637783 1_554
Ca0 O36 2.899066 1_555
Ca1 O65 2.345449 1_555
Ca1 O27 2.473326 1_545
Ca1 O49 2.509297 1_555
Ca1 O11 2.519367 1_545
Ca1 O0 2.569756 1_555
Ca1 O16 2.614464 1_555
Ca1 O33 2.711059 1_555
Ca1 O37 2.848166 1_555
Ca2 O66 2.348182 1_555
Ca2 O50 2.416733 1_555
Ca2 O24 2.509452 1_555
Ca2 O8 2.527083 1_555
Ca2 O19 2.626336 1_554
Ca2 O3 2.629234 1_554
Ca2 O34 2.661699 1_555
Ca2 O38 2.881042 1_555
Ca3 O68 2.313310 1_555
Ca3 O52 2.430261 1_555
Ca3 O30 2.486783 1_545
Ca3 O14 2.505387 1_545
Ca3 O5 2.529130 1_554
Ca3 O21 2.641913 1_554
Ca3 O36 2.688873 1_555
Ca3 O32 2.971125 1_655
Ca4 O70 2.339117 1_555
Ca4 O54 2.377590 1_555
Ca4 O12 2.488912 1_555
Ca4 O28 2.519871 1_555
Ca4 O7 2.626384 1_554
Ca4 O23 2.641741 1_554
Ca4 O38 2.682041 1_555
Ca4 O34 2.883133 1_655
Ca5 O71 2.414637 1_555
Ca5 O13 2.486561 1_555
Ca5 O55 2.497814 1_555
Ca5 O29 2.517029 1_555
Ca5 O22 2.623501 1_555
Ca5 O6 2.641500 1_555
Ca5 O39 2.728533 1_555
Ca5 O35 2.763474 1_655
Ca6 O72 2.361175 1_555
Ca6 O56 2.443867 1_555
Ca6 O18 2.524568 1_555
Ca6 O2 2.534859 1_555
Ca6 O9 2.572309 1_555
Ca6 O25 2.586513 1_555
Ca6 O44 2.696628 1_455
Ca6 O40 2.906963 1_555
Ca7 O74 2.366690 1_555
Ca7 O58 2.426448 1_555
Ca7 O0 2.506611 1_565
Ca7 O16 2.521064 1_565
Ca7 O11 2.550491 1_555
Ca7 O27 2.614010 1_555
Ca7 O46 2.673321 1_455
Ca7 O42 2.843035 1_555
Ca8 O75 2.321795 1_555
Ca8 O59 2.423792 1_555
Ca8 O1 2.481694 1_565
Ca8 O17 2.510659 1_565
Ca8 O10 2.577241 1_556
Ca8 O26 2.605413 1_556
Ca8 O47 2.684025 1_455
Ca8 O43 2.944612 1_555
Ca9 O76 2.389541 1_555
Ca9 O60 2.442521 1_555
Ca9 O6 2.500607 1_555
Ca9 O22 2.536302 1_555
Ca9 O29 2.574546 1_555
Ca9 O13 2.575554 1_555
Ca9 O40 2.602281 1_555
Ca9 O44 2.906426 1_555
Ca10 O77 2.325629 1_555
Ca10 O61 2.454238 1_555
Ca10 O7 2.490728 1_555
Ca10 O23 2.491720 1_555
Ca10 O28 2.612460 1_556
Ca10 O12 2.630015 1_556
Ca10 O41 2.681525 1_555
Ca10 O45 2.874923 1_555
Ca11 O78 2.363060 1_555
Ca11 O62 2.436464 1_555
Ca11 O4 2.515929 1_565
Ca11 O20 2.536558 1_565
Ca11 O31 2.556960 1_555
Ca11 O15 2.616078 1_555
Ca11 O42 2.704002 1_555
Ca11 O46 2.886901 1_555
Ca12 O79 2.366648 1_555
Ca12 O63 2.383797 1_555
Ca12 O21 2.498964 1_565
Ca12 O5 2.522107 1_565
Ca12 O43 2.633635 1_555
Ca12 O14 2.661321 1_556
Ca12 O30 2.661952 1_556
Ca12 O47 2.864064 1_555
Ca13 O32 2.343338 1_555
Ca13 O72 2.362599 1_555
Ca13 O8 2.486733 1_555
Ca13 O28 2.529132 1_455
Ca13 O52 2.662040 1_455
Ca13 O21 2.667002 1_454
Ca13 O1 2.667510 1_554
Ca13 O48 2.859306 1_555
Ca14 O74 2.365550 1_555
Ca14 O34 2.423771 1_555
Ca14 O30 2.493587 1_455
Ca14 O10 2.534090 1_555
Ca14 O3 2.555949 1_554
Ca14 O23 2.633202 1_454
Ca14 O54 2.687201 1_455
Ca14 O50 2.880896 1_555
Ca15 O76 2.362254 1_555
Ca15 O36 2.421943 1_555
Ca15 O24 2.481462 1_555
Ca15 O12 2.520827 1_555
Ca15 O17 2.616220 1_554
Ca15 O5 2.630131 1_554
Ca15 O48 2.656064 1_555
Ca15 O52 2.912961 1_555
Ca16 O78 2.372322 1_555
Ca16 O38 2.416064 1_555
Ca16 O14 2.507235 1_555
Ca16 O26 2.523455 1_555
Ca16 O19 2.554249 1_554
Ca16 O7 2.654257 1_554
Ca16 O50 2.673453 1_555
Ca16 O54 2.876667 1_555
Ca17 O79 2.386989 1_555
Ca17 O39 2.494335 1_555
Ca17 O15 2.504012 1_555
Ca17 O27 2.548177 1_555
Ca17 O6 2.627335 1_555
Ca17 O18 2.649266 1_555
Ca17 O51 2.764656 1_555
Ca17 O55 2.795280 1_555
Ca18 O40 2.355465 1_555
Ca18 O64 2.370676 1_555
Ca18 O4 2.507675 1_555
Ca18 O16 2.548866 1_555
Ca18 O25 2.564036 1_555
Ca18 O13 2.660139 1_555
Ca18 O56 2.722794 1_555
Ca18 O60 2.809972 1_555
Ca19 O66 2.367985 1_555
Ca19 O42 2.422982 1_555
Ca19 O18 2.509171 1_555
Ca19 O6 2.527887 1_555
Ca19 O15 2.558838 1_555
Ca19 O27 2.629552 1_555
Ca19 O58 2.696201 1_555
Ca19 O62 2.880116 1_555
Ca20 O67 2.342368 1_555
Ca20 O43 2.475458 1_555
Ca20 O7 2.502013 1_555
Ca20 O19 2.510895 1_555
Ca20 O14 2.597290 1_556
Ca20 O26 2.610995 1_556
Ca20 O59 2.679141 1_555
Ca20 O63 2.920035 1_555
Ca21 O69 2.334003 1_555
Ca21 O45 2.433884 1_555
Ca21 O21 2.468271 1_555
Ca21 O1 2.469275 1_655
Ca21 O28 2.626743 1_556
Ca21 O8 2.648490 1_656
Ca21 O61 2.739670 1_555
Ca21 O57 2.826057 1_655
Ca22 O70 2.350822 1_555
Ca22 O46 2.479543 1_555
Ca22 O2 2.518295 1_655
Ca22 O22 2.541863 1_555
Ca22 O31 2.550048 1_555
Ca22 O11 2.621333 1_655
Ca22 O62 2.671074 1_555
Ca22 O58 2.859209 1_655
Ca23 O71 2.383122 1_555
Ca23 O47 2.387209 1_555
Ca23 O23 2.500489 1_555
Ca23 O3 2.522488 1_655
Ca23 O30 2.625098 1_556
Ca23 O63 2.626438 1_555
Ca23 O10 2.646324 1_656
Ca23 O59 2.901106 1_655
Mn0 O11 1.922677 1_555
Mn0 O20 1.937532 1_465
Mn0 O31 1.949295 1_455
Mn0 O0 1.960597 1_565
Mn0 O33 2.117584 1_565
Mn0 O46 2.127168 1_455
Mn1 O29 1.930383 1_455
Mn1 O2 1.934050 1_555
Mn1 O22 1.942741 1_455
Mn1 O9 1.981422 1_555
Mn1 O44 2.103357 1_455
Mn1 O35 2.139528 1_555
Mn2 O1 1.922361 1_554
Mn2 O8 1.935059 1_555
Mn2 O17 1.944352 1_554
Mn2 O24 1.946716 1_555
Mn2 O48 1.994459 1_555
Mn2 O57 2.019031 1_554
Mn3 O25 1.927446 1_555
Mn3 O16 1.931920 1_555
Mn3 O0 1.952796 1_555
Mn3 O9 1.954905 1_555
Mn3 O56 2.031428 1_555
Mn3 O49 2.146822 1_555
Mn4 O32 1.954149 1_555
Mn4 O56 1.967205 1_555
Mn4 O68 2.050876 1_455
Mn4 O74 2.072389 1_545
Mn5 O57 1.968018 1_555
Mn5 O33 1.971647 1_555
Mn5 O69 2.042398 1_455
Mn5 O75 2.052615 1_545
Mn6 O34 1.894208 1_555
Mn6 O58 1.901836 1_555
Mn6 O72 1.968651 1_555
Mn6 O70 2.053530 1_455
Mn7 O35 1.905791 1_555
Mn7 O59 1.915138 1_555
Mn7 O73 1.988865 1_555
Mn7 O71 2.017386 1_455
Mn8 O36 1.888318 1_555
Mn8 O60 1.901329 1_555
Mn8 O64 1.982759 1_555
Mn8 O78 2.031473 1_545
Mn9 O37 1.893258 1_555
Mn9 O61 1.906333 1_555
Mn9 O65 1.966145 1_555
Mn9 O79 2.042404 1_545
Mn10 O38 1.894018 1_555
Mn10 O62 1.894213 1_555
Mn10 O66 1.963512 1_555
Mn10 O76 2.052286 1_555
Mn11 O63 1.886074 1_555
Mn11 O39 1.914772 1_555
Mn11 O67 1.964380 1_555
Mn11 O77 2.046213 1_555
Mn12 O40 1.975183 1_555
Mn12 O48 1.986263 1_555
Mn12 O72 2.081257 1_555
Mn12 O66 2.086335 1_555
Mn13 O41 1.910722 1_555
Mn13 O49 1.945971 1_555
Mn13 O73 1.987764 1_555
Mn13 O67 2.042479 1_555
Mn14 O50 1.886288 1_555
Mn14 O42 1.899765 1_555
Mn14 O74 1.958348 1_555
Mn14 O64 2.049491 1_565
Mn15 O43 1.898735 1_555
Mn15 O51 1.903042 1_555
Mn15 O75 1.955225 1_555
Mn15 O65 2.039566 1_565
Mn16 O44 1.877596 1_555
Mn16 O52 1.894388 1_555
Mn16 O76 1.990046 1_555
Mn16 O70 2.015955 1_555
Mn17 O45 1.899429 1_555
Mn17 O53 1.914987 1_555
Mn17 O77 1.971787 1_555
Mn17 O71 2.032730 1_555
Mn18 O54 1.882511 1_555
Mn18 O46 1.896332 1_555
Mn18 O68 1.960757 1_565
Mn18 O78 2.039892 1_555
Mn19 O47 1.891845 1_555
Mn19 O55 1.920770 1_555
Mn19 O69 1.988829 1_565
Mn19 O79 2.023694 1_555
Fe0 O21 1.954298 1_454
Fe0 O10 1.961309 1_545
Fe0 O30 1.973293 1_445
Fe0 O1 1.990021 1_554
Fe0 O32 2.054354 1_555
Fe0 O47 2.140617 1_444
Fe1 O28 1.948961 1_455
Fe1 O23 1.961166 1_454
Fe1 O3 1.970105 1_554
Fe1 O8 1.992017 1_555
Fe1 O34 2.094563 1_555
Fe1 O45 2.138712 1_454
Fe2 O26 1.941893 1_545
Fe2 O5 1.958268 1_554
Fe2 O14 1.967170 1_545
Fe2 O17 1.976044 1_554
Fe2 O36 2.103930 1_555
Fe2 O43 2.138399 1_544
Fe3 O27 1.960244 1_555
Fe3 O4 1.967904 1_565
Fe3 O15 1.974016 1_555
Fe3 O16 1.975289 1_565
Fe3 O42 2.081584 1_555
Fe3 O37 2.143987 1_565
Fe4 O12 1.961735 1_555
Fe4 O19 1.964256 1_554
Fe4 O7 1.974006 1_554
Fe4 O24 1.989502 1_555
Fe4 O38 2.092583 1_555
Fe4 O41 2.114087 1_554
Fe5 O6 1.958297 1_555
Fe5 O13 1.961945 1_555
Fe5 O18 1.964925 1_555
Fe5 O25 1.985936 1_555
Fe5 O40 2.042151 1_555
Fe5 O39 2.195404 1_555
Fe6 O10 1.950393 1_555
Fe6 O26 1.963824 1_555
Fe6 O3 1.965715 1_554
Fe6 O19 1.969818 1_554
Fe6 O50 2.104033 1_555
Fe6 O59 2.117796 1_554
Fe7 O27 1.962136 1_555
Fe7 O18 1.964863 1_555
Fe7 O11 1.978782 1_555
Fe7 O2 1.979170 1_555
Fe7 O58 2.083512 1_555
Fe7 O51 2.133083 1_555
Fe8 O28 1.962671 1_555
Fe8 O5 1.964680 1_554
Fe8 O12 1.966314 1_555
Fe8 O21 1.966466 1_554
Fe8 O52 2.116963 1_555
Fe8 O61 2.157518 1_554
Fe9 O13 1.949935 1_555
Fe9 O4 1.962856 1_555
Fe9 O29 1.990407 1_555
Fe9 O20 1.994535 1_555
Fe9 O60 2.097133 1_555
Fe9 O53 2.156698 1_555
Fe10 O7 1.956804 1_554
Fe10 O14 1.956901 1_555
Fe10 O23 1.965197 1_554
Fe10 O30 1.967801 1_555
Fe10 O54 2.105533 1_555
Fe10 O63 2.111475 1_554
Fe11 O6 1.943439 1_555
Fe11 O22 1.953853 1_555
Fe11 O15 1.954288 1_555
Fe11 O31 1.979022 1_555
Fe11 O62 2.091180 1_555
Fe11 O55 2.154645 1_555
O0 Sr7 2.610664 1_455
O0 Sr3 2.700077 1_555
O2 Sr4 2.711137 1_555
O2 Sr0 2.731851 1_555
O3 Sr2 2.565557 1_555
O4 Sr5 2.721624 1_555
O4 Sr1 2.741803 1_555
O5 Sr6 2.585328 1_555
O8 Sr2 2.714747 1_554
O9 Sr0 2.583785 1_555
O9 Sr3 2.588768 1_555
O9 Sr7 2.670837 1_455
O11 Sr4 2.602605 1_555
O12 Sr6 2.724940 1_554
O13 Sr5 2.567679 1_555
O15 Sr1 2.597861 1_565
O16 Sr5 2.733036 1_555
O17 Sr6 2.571777 1_555
O18 Sr0 2.701584 1_555
O19 Sr2 2.573425 1_555
O20 Sr7 2.595420 1_555
O20 Sr1 2.678386 1_555
O20 Sr3 2.691835 1_655
O22 Sr4 2.723717 1_655
O24 Sr2 2.718097 1_554
O24 Sr6 2.748063 1_554
O25 Sr5 2.587851 1_555
O25 Sr0 2.600003 1_555
O29 Sr3 2.621319 1_655
O29 Sr7 2.704055 1_555
O31 Sr4 2.599759 1_655
O31 Sr1 2.611354 1_565
O33 Sr3 2.611650 1_555
O33 Sr1 2.845729 1_455
O33 Sr4 2.988571 1_545
O35 Sr4 2.573839 1_555
O35 Sr0 2.776888 1_555
O35 Sr3 3.069293 1_555
O37 Sr5 2.562056 1_555
O37 Sr1 2.688517 1_555
O39 Sr0 2.823243 1_555
O39 Sr5 3.098466 1_555
O41 Sr6 2.505682 1_555
O41 Sr2 2.867221 1_555
O43 Sr6 3.108675 1_565
O44 Sr7 2.562935 1_555
O45 Sr2 2.694910 1_655
O46 Sr7 3.107839 1_565
O49 Sr5 2.710972 1_555
O49 Sr3 2.818681 1_555
O49 Sr0 3.099895 1_555
O51 Sr0 2.539423 1_555
O51 Sr4 2.800447 1_555
O53 Sr1 2.589804 1_555
O53 Sr3 2.746298 1_655
O53 Sr5 2.802024 1_555
O55 Sr4 2.731391 1_655
O55 Sr1 3.080602 1_565
O56 Sr7 2.818758 1_455
O57 Sr2 2.494284 1_555
O57 Sr6 2.693472 1_555
O59 Sr2 3.157388 1_555
O60 Sr7 2.724841 1_555
O61 Sr6 2.829894 1_555
O65 Sr6 2.462382 1_555
O67 Sr0 2.477445 1_555
O68 Sr7 2.458294 1_555
O69 Sr1 2.469149 1_555
O73 Sr2 2.429575 1_555
O73 Sr3 2.437813 1_555
O75 Sr4 2.477844 1_555
O77 Sr5 2.475287 1_555
