# generated using pymatgen
data_YbGeAu
_symmetry_space_group_name_H-M   'P 1'
_cell_length_a   3.55294795
_cell_length_b   4.39183549
_cell_length_c   4.39264377
_cell_angle_alpha   60.06859008
_cell_angle_beta   90.00000000
_cell_angle_gamma   90.00000000
_symmetry_Int_Tables_number   1
_chemical_formula_structural   YbGeAu
_chemical_formula_sum   'Yb1 Ge1 Au1'
_cell_volume   59.40066090
_cell_formula_units_Z   1
loop_
 _symmetry_equiv_pos_site_id
 _symmetry_equiv_pos_as_xyz
  1  'x, y, z'
loop_
 _atom_site_type_symbol
 _atom_site_label
 _atom_site_symmetry_multiplicity
 _atom_site_fract_x
 _atom_site_fract_y
 _atom_site_fract_z
 _atom_site_occupancy
  Yb  Yb0  1  0.00000000  0.00001318  0.00012046  1
  Ge  Ge0  1  0.50000000  0.66673761  0.66686302  1
  Au  Au0  1  0.50000000  0.33314921  0.33311652  1
loop_
_geom_bond_atom_site_label_1
_geom_bond_atom_site_label_2
_geom_bond_distance
_geom_bond_site_symmetry_2
Ge0 Yb0 3.095065 1_566
Ge0 Yb0 3.095065 1_666
Ge0 Yb0 3.097624 1_656
Ge0 Yb0 3.097624 1_556
Ge0 Yb0 3.098062 1_665
Ge0 Yb0 3.098062 1_565
Au0 Ge0 2.536277 1_554
Au0 Ge0 2.536414 1_545
Au0 Ge0 2.537525 1_555
Au0 Yb0 3.093817 1_655
Au0 Yb0 3.093817 1_555
Au0 Yb0 3.098058 1_565
Au0 Yb0 3.098058 1_665
Au0 Yb0 3.098877 1_556
Au0 Yb0 3.098877 1_656
