# generated using pymatgen
data_La5CoGe3
_symmetry_space_group_name_H-M   'P 1'
_cell_length_a   9.05948735
_cell_length_b   9.05948735
_cell_length_c   7.15458300
_cell_angle_alpha   90.00000000
_cell_angle_beta   90.00000000
_cell_angle_gamma   119.99999524
_symmetry_Int_Tables_number   1
_chemical_formula_structural   La5CoGe3
_chemical_formula_sum   'La10 Co2 Ge6'
_cell_volume   508.53661093
_cell_formula_units_Z   2
loop_
 _symmetry_equiv_pos_site_id
 _symmetry_equiv_pos_as_xyz
  1  'x, y, z'
loop_
 _atom_site_type_symbol
 _atom_site_label
 _atom_site_symmetry_multiplicity
 _atom_site_fract_x
 _atom_site_fract_y
 _atom_site_fract_z
 _atom_site_occupancy
  La  La0  1  0.23832400  0.00000000  0.25000000  1
  La  La1  1  0.76167600  0.00000000  0.75000000  1
  La  La2  1  0.00000000  0.23832400  0.25000000  1
  La  La3  1  0.00000000  0.76167600  0.75000000  1
  La  La4  1  0.76167600  0.76167600  0.25000000  1
  La  La5  1  0.23832400  0.23832400  0.75000000  1
  La  La6  1  0.33333300  0.66666700  0.00000000  1
  La  La7  1  0.66666700  0.33333300  0.00000000  1
  La  La8  1  0.66666700  0.33333300  0.50000000  1
  La  La9  1  0.33333300  0.66666700  0.50000000  1
  Co  Co0  1  0.00000000  0.00000000  0.00000000  1
  Co  Co1  1  0.00000000  0.00000000  0.50000000  1
  Ge  Ge0  1  0.59083200  0.00000000  0.25000000  1
  Ge  Ge1  1  0.40916800  0.00000000  0.75000000  1
  Ge  Ge2  1  0.00000000  0.59083200  0.25000000  1
  Ge  Ge3  1  0.00000000  0.40916800  0.75000000  1
  Ge  Ge4  1  0.40916800  0.40916800  0.25000000  1
  Ge  Ge5  1  0.59083200  0.59083200  0.75000000  1
loop_
_geom_bond_atom_site_label_1
_geom_bond_atom_site_label_2
_geom_bond_distance
_geom_bond_site_symmetry_2
Co0 La2 2.803736 1_555
Co0 La0 2.803736 1_555
Co0 La1 2.803736 1_454
Co0 La3 2.803736 1_544
Co0 La5 2.803736 1_554
Co0 La4 2.803736 1_445
Co1 La2 2.803736 1_555
Co1 La0 2.803736 1_555
Co1 La1 2.803736 1_455
Co1 La3 2.803736 1_545
Co1 La5 2.803736 1_555
Co1 La4 2.803736 1_445
Ge0 La0 3.193542 1_555
Ge0 La4 3.224748 1_545
Ge0 La2 3.224748 1_655
Ge0 La8 3.273516 1_555
Ge0 La7 3.273516 1_555
Ge0 La9 3.273519 1_545
Ge0 La6 3.273519 1_545
Ge1 La1 3.193542 1_555
Ge1 La5 3.224748 1_555
Ge1 La3 3.224748 1_545
Ge1 La6 3.273516 1_546
Ge1 La9 3.273516 1_545
Ge1 La8 3.273519 1_555
Ge1 La7 3.273519 1_556
Ge2 La2 3.193542 1_555
Ge2 La4 3.224748 1_455
Ge2 La0 3.224748 1_565
Ge2 La6 3.273516 1_555
Ge2 La9 3.273516 1_555
Ge2 La7 3.273519 1_455
Ge2 La8 3.273519 1_455
Ge3 La3 3.193542 1_555
Ge3 La5 3.224748 1_555
Ge3 La1 3.224748 1_455
Ge3 La8 3.273516 1_455
Ge3 La7 3.273516 1_456
Ge3 La9 3.273519 1_555
Ge3 La6 3.273519 1_556
Ge4 La4 3.193542 1_555
Ge4 La0 3.224748 1_555
Ge4 La2 3.224748 1_555
Ge4 La8 3.273524 1_555
Ge4 La6 3.273524 1_555
Ge4 La9 3.273524 1_555
Ge4 La7 3.273524 1_555
Ge5 La5 3.193542 1_555
Ge5 La1 3.224748 1_565
Ge5 La3 3.224748 1_655
Ge5 La8 3.273524 1_555
Ge5 La7 3.273524 1_556
Ge5 La9 3.273524 1_555
Ge5 La6 3.273524 1_556
