# generated using pymatgen
data_CuC4(NO5)2
_symmetry_space_group_name_H-M   'P 1'
_cell_length_a   7.66230300
_cell_length_b   9.01422928
_cell_length_c   9.97481406
_cell_angle_alpha   65.95735125
_cell_angle_beta   83.69895603
_cell_angle_gamma   87.05904729
_symmetry_Int_Tables_number   1
_chemical_formula_structural   CuC4(NO5)2
_chemical_formula_sum   'Cu2 C8 N4 O20'
_cell_volume   625.36823636
_cell_formula_units_Z   2
loop_
 _symmetry_equiv_pos_site_id
 _symmetry_equiv_pos_as_xyz
  1  'x, y, z'
loop_
 _atom_site_type_symbol
 _atom_site_label
 _atom_site_symmetry_multiplicity
 _atom_site_fract_x
 _atom_site_fract_y
 _atom_site_fract_z
 _atom_site_occupancy
  Cu  Cu0  1  0.00000000  0.00000000  0.00000000  1
  Cu  Cu1  1  0.50000000  0.50000000  0.50000000  1
  C  C0  1  0.43585600  0.07619300  0.81377500  1
  C  C1  1  0.56414400  0.92380700  0.18622500  1
  C  C2  1  0.25443700  0.30136700  0.97538700  1
  C  C3  1  0.74556300  0.69863300  0.02461300  1
  C  C4  1  0.46561600  0.70536400  0.63413400  1
  C  C5  1  0.53438400  0.29463600  0.36586600  1
  C  C6  1  0.28083700  0.63100200  0.65209900  1
  C  C7  1  0.71916300  0.36899800  0.34790100  1
  N  N0  1  0.96356400  0.04019600  0.71905800  1
  N  N1  1  0.03643600  0.95980400  0.28094200  1
  N  N2  1  0.78975200  0.45077500  0.91241600  1
  N  N3  1  0.21024800  0.54922500  0.08758400  1
  O  O0  1  0.54464500  0.16867600  0.73920900  1
  O  O1  1  0.45535500  0.83132400  0.26079100  1
  O  O2  1  0.93066600  0.11080300  0.80760700  1
  O  O3  1  0.06933400  0.88919700  0.19239300  1
  O  O4  1  0.32682900  0.98500700  0.89245700  1
  O  O5  1  0.67317100  0.01499300  0.10754300  1
  O  O6  1  0.40286200  0.33719600  0.95525900  1
  O  O7  1  0.59713800  0.66280400  0.04474100  1
  O  O8  1  0.89317100  0.74016200  0.00548600  1
  O  O9  1  0.10682900  0.25983800  0.99451400  1
  O  O10  1  0.58551100  0.64754300  0.56321400  1
  O  O11  1  0.41448900  0.35245700  0.43678600  1
  O  O12  1  0.28168800  0.52482800  0.59258600  1
  O  O13  1  0.71831200  0.47517200  0.40741400  1
  O  O14  1  0.15107100  0.66451000  0.71790100  1
  O  O15  1  0.84892900  0.33549000  0.28209900  1
  O  O16  1  0.49506500  0.80484700  0.68318900  1
  O  O17  1  0.50493500  0.19515300  0.31681100  1
  O  O18  1  0.90087100  0.07925700  0.60462700  1
  O  O19  1  0.09912900  0.92074300  0.39537300  1
loop_
_geom_bond_atom_site_label_1
_geom_bond_atom_site_label_2
_geom_bond_distance
_geom_bond_site_symmetry_2
Cu0 O3 1.889500 1_545
Cu0 O2 1.889500 1_454
Cu0 O9 2.498315 1_554
Cu0 O8 2.498315 1_445
Cu0 O4 2.633260 1_544
Cu0 O5 2.633260 1_455
Cu1 O10 1.859892 1_555
Cu1 O11 1.859892 1_555
Cu1 O12 1.868706 1_555
Cu1 O13 1.868706 1_555
C0 O0 1.171759 1_555
C0 O4 1.179144 1_545
C1 O1 1.171759 1_555
C1 O5 1.179144 1_565
C2 O6 1.171645 1_555
C2 O9 1.180518 1_555
C3 O7 1.171645 1_555
C3 O8 1.180518 1_555
C4 O16 1.223551 1_555
C4 O10 1.313281 1_555
C5 O17 1.223551 1_555
C5 O11 1.313281 1_555
C6 O14 1.223994 1_555
C6 O12 1.315254 1_555
C7 O15 1.223994 1_555
C7 O13 1.315254 1_555
N0 O18 1.197126 1_555
N0 O2 1.281217 1_555
N1 O19 1.197126 1_555
N1 O3 1.281217 1_555
