# generated using pymatgen
data_LiY3Si2(O4F)2
_symmetry_space_group_name_H-M   'P 1'
_cell_length_a   9.26610000
_cell_length_b   9.26610000
_cell_length_c   11.75421928
_cell_angle_alpha   50.66507125
_cell_angle_beta   50.66507125
_cell_angle_gamma   30.95086965
_symmetry_Int_Tables_number   1
_chemical_formula_structural   LiY3Si2(O4F)2
_chemical_formula_sum   'Li2 Y6 Si4 O16 F4'
_cell_volume   390.98892303
_cell_formula_units_Z   2
loop_
 _symmetry_equiv_pos_site_id
 _symmetry_equiv_pos_as_xyz
  1  'x, y, z'
loop_
 _atom_site_type_symbol
 _atom_site_label
 _atom_site_symmetry_multiplicity
 _atom_site_fract_x
 _atom_site_fract_y
 _atom_site_fract_z
 _atom_site_occupancy
  Li  Li0  1  0.00000000  0.50000000  0.00000000  1
  Li  Li1  1  0.50000000  0.00000000  0.50000000  1
  Y  Y0  1  0.78705100  0.21294900  0.25000000  1
  Y  Y1  1  0.21294900  0.78705100  0.75000000  1
  Y  Y2  1  0.67279600  0.07958200  0.09153400  1
  Y  Y3  1  0.92041800  0.32720400  0.40846600  1
  Y  Y4  1  0.32720400  0.92041800  0.90846600  1
  Y  Y5  1  0.07958200  0.67279600  0.59153400  1
  Si  Si0  1  0.08725400  0.63319700  0.29346600  1
  Si  Si1  1  0.36680300  0.91274600  0.20653400  1
  Si  Si2  1  0.91274600  0.36680300  0.70653400  1
  Si  Si3  1  0.63319700  0.08725400  0.79346600  1
  O  O0  1  0.42613700  0.31128300  0.28494300  1
  O  O1  1  0.68871700  0.57386300  0.21505700  1
  O  O2  1  0.57386300  0.68871700  0.71505700  1
  O  O3  1  0.31128300  0.42613700  0.78494300  1
  O  O4  1  0.04944400  0.87925600  0.13925700  1
  O  O5  1  0.12074400  0.95055600  0.36074300  1
  O  O6  1  0.95055600  0.12074400  0.86074300  1
  O  O7  1  0.87925600  0.04944400  0.63925700  1
  O  O8  1  0.88081000  0.67106600  0.29019100  1
  O  O9  1  0.32893400  0.11919000  0.20980900  1
  O  O10  1  0.11919000  0.32893400  0.70980900  1
  O  O11  1  0.67106600  0.88081000  0.79019100  1
  O  O12  1  0.93176400  0.77080300  0.42860200  1
  O  O13  1  0.22919700  0.06823600  0.07139800  1
  O  O14  1  0.06823600  0.22919700  0.57139800  1
  O  O15  1  0.77080300  0.93176400  0.92860200  1
  F  F0  1  0.53274400  0.31568800  0.47858500  1
  F  F1  1  0.68431200  0.46725600  0.02141500  1
  F  F2  1  0.46725600  0.68431200  0.52141500  1
  F  F3  1  0.31568800  0.53274400  0.97858500  1
loop_
_geom_bond_atom_site_label_1
_geom_bond_atom_site_label_2
_geom_bond_distance
_geom_bond_site_symmetry_2
Li0 O15 2.156439 1_454
Li0 O13 2.156439 1_555
Li0 O1 2.177630 1_455
Li0 O3 2.177630 1_554
Li1 O12 2.156439 1_545
Li1 O14 2.156439 1_555
Li1 O2 2.177630 1_545
Li1 O0 2.177630 1_555
O0 Si0 1.637757 1_555
O0 Y0 2.385280 1_555
O0 Y2 2.487051 1_555
O1 Si1 1.637757 1_555
O1 Y0 2.385280 1_555
O1 Y3 2.487051 1_555
O2 Si2 1.637757 1_555
O2 Y1 2.385280 1_555
O2 Y4 2.487051 1_555
O3 Si3 1.637757 1_555
O3 Y1 2.385280 1_555
O3 Y5 2.487051 1_555
O4 Si0 1.674079 1_555
O4 Y0 2.315616 1_465
O4 Y4 2.376923 1_554
O4 Y2 2.447608 1_465
O5 Si1 1.674079 1_555
O5 Y0 2.315616 1_465
O5 Y5 2.376923 1_555
O5 Y3 2.447608 1_465
O6 Si2 1.674079 1_555
O6 Y1 2.315616 1_645
O6 Y2 2.376923 1_556
O6 Y4 2.447608 1_645
O7 Si3 1.674079 1_555
O7 Y1 2.315616 1_645
O7 Y3 2.376923 1_555
O7 Y5 2.447608 1_645
O8 Si0 1.645848 1_655
O8 Y3 2.290257 1_555
O8 Y2 2.341453 1_565
O9 Si1 1.645848 1_545
O9 Y2 2.290257 1_555
O9 Y3 2.341453 1_455
O10 Si2 1.645848 1_455
O10 Y5 2.290257 1_555
O10 Y4 2.341453 1_545
O11 Si3 1.645848 1_565
O11 Y4 2.290257 1_555
O11 Y5 2.341453 1_655
O12 Si0 1.655300 1_655
O12 Y5 2.314216 1_655
O12 Y0 2.496545 1_565
O13 Si1 1.655300 1_545
O13 Y4 2.314216 1_544
O13 Y0 2.496545 1_455
O14 Si2 1.655300 1_455
O14 Y3 2.314216 1_455
O14 Y1 2.496545 1_545
O15 Si3 1.655300 1_565
O15 Y2 2.314216 1_566
O15 Y1 2.496545 1_655
F0 Y5 2.239139 1_555
F0 Y0 2.246489 1_555
F1 Y4 2.239139 1_554
F1 Y0 2.246489 1_555
F2 Y3 2.239139 1_555
F2 Y1 2.246489 1_555
F3 Y2 2.239139 1_556
F3 Y1 2.246489 1_555
