# generated using pymatgen
data_Lu4C7
_symmetry_space_group_name_H-M   'P 1'
_cell_length_a   3.58344290
_cell_length_b   6.25742485
_cell_length_c   13.45768037
_cell_angle_alpha   90.00000000
_cell_angle_beta   90.00000000
_cell_angle_gamma   105.32951491
_symmetry_Int_Tables_number   1
_chemical_formula_structural   Lu4C7
_chemical_formula_sum   'Lu8 C14'
_cell_volume   291.02691859
_cell_formula_units_Z   2
loop_
 _symmetry_equiv_pos_site_id
 _symmetry_equiv_pos_as_xyz
  1  'x, y, z'
loop_
 _atom_site_type_symbol
 _atom_site_label
 _atom_site_symmetry_multiplicity
 _atom_site_fract_x
 _atom_site_fract_y
 _atom_site_fract_z
 _atom_site_occupancy
  Lu  Lu0  1  0.63402161  0.25936306  0.94560495  1
  Lu  Lu1  1  0.36597839  0.24063694  0.44560495  1
  Lu  Lu2  1  0.36597839  0.74063694  0.05439505  1
  Lu  Lu3  1  0.63402161  0.75936306  0.55439505  1
  Lu  Lu4  1  0.94217545  0.33931913  0.65977743  1
  Lu  Lu5  1  0.05782455  0.16067987  0.15977743  1
  Lu  Lu6  1  0.05782455  0.66067987  0.34022257  1
  Lu  Lu7  1  0.94217545  0.83932013  0.84022257  1
  C  C0  1  -0.00000000  0.50000000  0.50000000  1
  C  C1  1  -0.00000000  0.00000000  0.00000000  1
  C  C2  1  0.53642726  0.07593641  0.78626563  1
  C  C3  1  0.46357274  0.42406359  0.28626563  1
  C  C4  1  0.46357274  0.92406359  0.21373437  1
  C  C5  1  0.53642726  0.57593641  0.71373437  1
  C  C6  1  0.62252929  0.45544501  0.19752634  1
  C  C7  1  0.37747071  0.04455499  0.69752634  1
  C  C8  1  0.73242900  0.95052022  0.39643940  1
  C  C9  1  0.26757100  0.54947978  0.89643940  1
  C  C10  1  0.26757100  0.04947978  0.60356060  1
  C  C11  1  0.73242900  0.45052022  0.10356060  1
  C  C12  1  0.62252929  0.95544501  0.30247366  1
  C  C13  1  0.37747071  0.54455499  0.80247366  1
loop_
_geom_bond_atom_site_label_1
_geom_bond_atom_site_label_2
_geom_bond_distance
_geom_bond_site_symmetry_2
C0 Lu6 2.359491 1_555
C0 Lu4 2.359494 1_455
C0 Lu1 2.452578 1_555
C0 Lu3 2.452578 1_455
C0 Lu3 2.526280 1_555
C0 Lu1 2.526280 1_455
C1 Lu7 2.359491 1_444
C1 Lu5 2.359491 1_555
C1 Lu0 2.452578 1_454
C1 Lu2 2.452578 1_545
C1 Lu2 2.526280 1_445
C1 Lu0 2.526280 1_554
C2 C7 1.315314 1_555
C2 Lu7 2.363692 1_445
C2 Lu0 2.413638 1_555
C2 Lu7 2.443721 1_545
C2 Lu4 2.541824 1_555
C3 C6 1.315314 1_555
C3 Lu6 2.363692 1_655
C3 Lu1 2.413638 1_555
C3 Lu6 2.443721 1_555
C3 Lu5 2.541827 1_555
C4 Lu5 2.363692 1_665
C4 Lu2 2.413638 1_555
C4 Lu5 2.443721 1_565
C4 Lu6 2.541827 1_555
C5 Lu4 2.363694 1_455
C5 Lu3 2.413638 1_555
C5 Lu4 2.443726 1_555
C5 Lu7 2.541827 1_555
C6 Lu5 2.404488 1_555
C6 Lu6 2.590564 1_655
C6 Lu5 2.759446 1_655
C6 Lu2 2.933875 1_555
C7 Lu4 2.404484 1_555
C7 Lu7 2.590564 1_445
C7 Lu4 2.759441 1_455
C7 Lu3 2.933875 1_545
C8 Lu3 2.418838 1_555
C8 Lu6 2.517840 1_655
C8 Lu1 2.590066 1_665
C8 Lu1 2.591955 1_565
C8 Lu6 2.717975 1_555
C9 Lu2 2.418838 1_556
C9 Lu7 2.517840 1_455
C9 Lu0 2.590066 1_455
C9 Lu0 2.591955 1_555
C9 Lu7 2.717975 1_555
C10 C7 1.327243 1_555
C10 Lu1 2.418838 1_555
C10 Lu4 2.517835 1_455
C10 Lu3 2.590066 1_445
C10 Lu3 2.591955 1_545
C10 Lu4 2.717972 1_555
C11 C6 1.327243 1_555
C11 Lu0 2.418838 1_554
C11 Lu5 2.517840 1_655
C11 Lu2 2.590066 1_655
C11 Lu2 2.591955 1_555
C11 Lu5 2.717975 1_555
C12 C4 1.315314 1_555
C12 C8 1.327243 1_555
C12 Lu6 2.404488 1_555
C12 Lu5 2.590564 1_665
C12 Lu6 2.759446 1_655
C12 Lu1 2.933875 1_565
C13 C5 1.315314 1_555
C13 C9 1.327243 1_555
C13 Lu7 2.404488 1_555
C13 Lu4 2.590566 1_455
C13 Lu7 2.759446 1_455
C13 Lu0 2.933875 1_555
