# generated using pymatgen
data_Li9Mn7O16
_symmetry_space_group_name_H-M   'P 1'
_cell_length_a   6.95427167
_cell_length_b   6.95427167
_cell_length_c   15.37675440
_cell_angle_alpha   84.94688940
_cell_angle_beta   84.94688940
_cell_angle_gamma   23.91705027
_symmetry_Int_Tables_number   1
_chemical_formula_structural   Li9Mn7O16
_chemical_formula_sum   'Li9 Mn7 O16'
_cell_volume   300.26103530
_cell_formula_units_Z   1
loop_
 _symmetry_equiv_pos_site_id
 _symmetry_equiv_pos_as_xyz
  1  'x, y, z'
loop_
 _atom_site_type_symbol
 _atom_site_label
 _atom_site_symmetry_multiplicity
 _atom_site_fract_x
 _atom_site_fract_y
 _atom_site_fract_z
 _atom_site_occupancy
  Li  Li0  1  0.81365500  0.81365500  0.56052700  1
  Li  Li1  1  0.18634500  0.18634500  0.43947300  1
  Li  Li2  1  0.55550300  0.55550300  0.31701500  1
  Li  Li3  1  0.44449700  0.44449700  0.68298500  1
  Li  Li4  1  0.06068300  0.06068300  0.81226200  1
  Li  Li5  1  0.68741000  0.68741000  0.93759100  1
  Li  Li6  1  0.93931700  0.93931700  0.18773800  1
  Li  Li7  1  0.31259000  0.31259000  0.06240900  1
  Li  Li8  1  0.50000000  0.50000000  0.50000000  1
  Mn  Mn0  1  0.11492300  0.11492300  0.62010500  1
  Mn  Mn1  1  0.88507700  0.88507700  0.37989500  1
  Mn  Mn2  1  0.25372200  0.25372200  0.25356300  1
  Mn  Mn3  1  0.62682600  0.62682600  0.12596400  1
  Mn  Mn4  1  0.00000000  0.00000000  0.00000000  1
  Mn  Mn5  1  0.37317400  0.37317400  0.87403600  1
  Mn  Mn6  1  0.74627800  0.74627800  0.74643700  1
  O  O0  1  0.65389400  0.65389400  0.53949500  1
  O  O1  1  0.01441100  0.01441100  0.40239800  1
  O  O2  1  0.40593900  0.40593900  0.29315100  1
  O  O3  1  0.26852400  0.26852400  0.65888700  1
  O  O4  1  0.90440400  0.90440400  0.78951600  1
  O  O5  1  0.53235300  0.53235300  0.91520000  1
  O  O6  1  0.78349100  0.78349100  0.16825500  1
  O  O7  1  0.15808600  0.15808600  0.04074700  1
  O  O8  1  0.98558900  0.98558900  0.59760200  1
  O  O9  1  0.34610600  0.34610600  0.46050500  1
  O  O10  1  0.73147600  0.73147600  0.34111300  1
  O  O11  1  0.59406100  0.59406100  0.70684900  1
  O  O12  1  0.21650900  0.21650900  0.83174500  1
  O  O13  1  0.84191400  0.84191400  0.95925300  1
  O  O14  1  0.09559600  0.09559600  0.21048400  1
  O  O15  1  0.46764700  0.46764700  0.08480000  1
loop_
_geom_bond_atom_site_label_1
_geom_bond_atom_site_label_2
_geom_bond_distance
_geom_bond_site_symmetry_2
Li0 O9 2.124737 1_565
Li0 O9 2.124737 1_655
Li0 O3 2.138626 1_565
Li0 O3 2.138626 1_655
Li0 O0 2.226359 1_555
Li0 O8 2.457276 1_555
Li1 O0 2.124737 1_545
Li1 O0 2.124737 1_455
Li1 O10 2.138626 1_545
Li1 O10 2.138626 1_455
Li1 O9 2.226359 1_555
Li1 O1 2.457276 1_555
Li2 O1 1.995123 1_655
Li2 O1 1.995123 1_565
Li2 O2 2.100152 1_555
Li2 O14 2.212782 1_655
Li2 O14 2.212782 1_565
Li2 O10 2.455662 1_555
Li3 O8 1.995123 1_455
Li3 O8 1.995123 1_545
Li3 O11 2.100152 1_555
Li3 O4 2.212782 1_455
Li3 O4 2.212782 1_545
Li3 O3 2.455662 1_555
Li4 O5 2.149531 1_455
Li4 O5 2.149531 1_545
Li4 O12 2.167881 1_555
Li4 O11 2.185725 1_455
Li4 O11 2.185725 1_545
Li4 O4 2.185865 1_445
Li5 O7 2.153514 1_566
Li5 O7 2.153514 1_656
Li5 O13 2.157930 1_555
Li5 O5 2.168100 1_555
Li5 O12 2.183127 1_565
Li5 O12 2.183127 1_655
Li6 O15 2.149531 1_565
Li6 O15 2.149531 1_655
Li6 O6 2.167881 1_555
Li6 O2 2.185725 1_565
Li6 O2 2.185725 1_655
Li6 O14 2.185865 1_665
Li7 O13 2.153514 1_544
Li7 O13 2.153514 1_454
Li7 O7 2.157930 1_555
Li7 O15 2.168100 1_555
Li7 O6 2.183127 1_545
Li7 O6 2.183127 1_455
Li8 O8 2.077066 1_455
Li8 O8 2.077066 1_545
Li8 O1 2.077066 1_655
Li8 O1 2.077066 1_565
Li8 O0 2.232173 1_555
Li8 O9 2.232173 1_555
Mn0 O8 1.823817 1_445
Mn0 O0 1.943084 1_545
Mn0 O0 1.943084 1_455
Mn0 O11 1.966690 1_455
Mn0 O11 1.966690 1_545
Mn0 O3 2.224446 1_555
Mn1 O1 1.823817 1_665
Mn1 O9 1.943084 1_565
Mn1 O9 1.943084 1_655
Mn1 O2 1.966690 1_655
Mn1 O2 1.966690 1_565
Mn1 O10 2.224446 1_555
Mn2 O6 1.966074 1_545
Mn2 O6 1.966074 1_455
Mn2 O10 1.976596 1_455
Mn2 O10 1.976596 1_545
Mn2 O2 2.210731 1_555
Mn2 O14 2.307530 1_555
Mn3 O14 1.961259 1_655
Mn3 O14 1.961259 1_565
Mn3 O7 1.968233 1_655
Mn3 O7 1.968233 1_565
Mn3 O6 2.283992 1_555
Mn3 O15 2.310549 1_555
Mn4 O5 1.966481 1_454
Mn4 O5 1.966481 1_544
Mn4 O15 1.966481 1_455
Mn4 O15 1.966481 1_545
Mn4 O13 2.293944 1_444
Mn4 O7 2.293944 1_555
Mn5 O4 1.961259 1_455
Mn5 O4 1.961259 1_545
Mn5 O13 1.968233 1_545
Mn5 O13 1.968233 1_455
Mn5 O12 2.283992 1_555
Mn5 O5 2.310549 1_555
Mn6 O12 1.966074 1_565
Mn6 O12 1.966074 1_655
Mn6 O3 1.976596 1_655
Mn6 O3 1.976596 1_565
Mn6 O11 2.210731 1_555
Mn6 O4 2.307530 1_555
