# generated using pymatgen
data_Na3Mg2(WO4)3
_symmetry_space_group_name_H-M   'P 1'
_cell_length_a   9.17690392
_cell_length_b   9.17690392
_cell_length_c   7.26668814
_cell_angle_alpha   74.61426074
_cell_angle_beta   74.61426074
_cell_angle_gamma   95.68002876
_symmetry_Int_Tables_number   1
_chemical_formula_structural   Na3Mg2(WO4)3
_chemical_formula_sum   'Na6 Mg4 W6 O24'
_cell_volume   559.36881485
_cell_formula_units_Z   2
loop_
 _symmetry_equiv_pos_site_id
 _symmetry_equiv_pos_as_xyz
  1  'x, y, z'
loop_
 _atom_site_type_symbol
 _atom_site_label
 _atom_site_symmetry_multiplicity
 _atom_site_fract_x
 _atom_site_fract_y
 _atom_site_fract_z
 _atom_site_occupancy
  Na  Na0  1  0.23533700  0.76466300  0.25000000  1
  Na  Na1  1  0.76466300  0.23533700  0.75000000  1
  Na  Na2  1  0.00000000  0.00000000  0.00000000  1
  Na  Na3  1  0.00000000  0.00000000  0.50000000  1
  Na  Na4  1  0.53019700  0.46980300  0.25000000  1
  Na  Na5  1  0.46980300  0.53019700  0.75000000  1
  Mg  Mg0  1  0.55464000  0.86741600  0.37325400  1
  Mg  Mg1  1  0.44536000  0.13258400  0.62674600  1
  Mg  Mg2  1  0.13258400  0.44536000  0.12674600  1
  Mg  Mg3  1  0.86741600  0.55464000  0.87325400  1
  W  W0  1  0.78004600  0.21995400  0.25000000  1
  W  W1  1  0.21995400  0.78004600  0.75000000  1
  W  W2  1  0.38553800  0.15800700  0.12490900  1
  W  W3  1  0.61446200  0.84199300  0.87509100  1
  W  W4  1  0.84199300  0.61446200  0.37509100  1
  W  W5  1  0.15800700  0.38553800  0.62490900  1
  O  O0  1  0.45914500  0.09517500  0.34100700  1
  O  O1  1  0.54085500  0.90482500  0.65899300  1
  O  O2  1  0.90482500  0.54085500  0.15899300  1
  O  O3  1  0.09517500  0.45914500  0.84100700  1
  O  O4  1  0.50127400  0.85166900  0.11793300  1
  O  O5  1  0.49872600  0.14833100  0.88206700  1
  O  O6  1  0.14833100  0.49872600  0.38206700  1
  O  O7  1  0.85166900  0.50127400  0.61793300  1
  O  O8  1  0.20595500  0.03348800  0.19519300  1
  O  O9  1  0.79404500  0.96651200  0.80480700  1
  O  O10  1  0.96651200  0.79404500  0.30480700  1
  O  O11  1  0.03348800  0.20595500  0.69519300  1
  O  O12  1  0.75798800  0.02060300  0.22485100  1
  O  O13  1  0.24201200  0.97939700  0.77514900  1
  O  O14  1  0.97939700  0.24201200  0.27514900  1
  O  O15  1  0.02060300  0.75798800  0.72485100  1
  O  O16  1  0.65889600  0.27626900  0.46905800  1
  O  O17  1  0.34110400  0.72373100  0.53094200  1
  O  O18  1  0.72373100  0.34110400  0.03094200  1
  O  O19  1  0.27626900  0.65889600  0.96905800  1
  O  O20  1  0.64817300  0.65850900  0.40409400  1
  O  O21  1  0.35182700  0.34149100  0.59590600  1
  O  O22  1  0.34149100  0.35182700  0.09590600  1
  O  O23  1  0.65850900  0.64817300  0.90409400  1
loop_
_geom_bond_atom_site_label_1
_geom_bond_atom_site_label_2
_geom_bond_distance
_geom_bond_site_symmetry_2
Na0 O4 2.340799 1_555
Na0 O6 2.340799 1_555
Na0 O17 2.442887 1_555
Na0 O19 2.442887 1_554
Na0 O8 2.446347 1_565
Na0 O10 2.446347 1_455
Na1 O5 2.340799 1_555
Na1 O7 2.340799 1_555
Na1 O18 2.442887 1_556
Na1 O16 2.442887 1_555
Na1 O11 2.446347 1_655
Na1 O9 2.446347 1_545
Na2 O10 2.423850 1_445
Na2 O11 2.423850 1_554
Na2 O13 2.441193 1_544
Na2 O12 2.441193 1_455
Na2 O8 2.686521 1_555
Na2 O9 2.686521 1_444
Na3 O9 2.423850 1_445
Na3 O8 2.423850 1_555
Na3 O14 2.441193 1_455
Na3 O15 2.441193 1_545
Na3 O11 2.686521 1_555
Na3 O10 2.686521 1_445
Na4 O21 2.499742 1_555
Na4 O23 2.499742 1_554
Na4 O22 2.593458 1_555
Na4 O20 2.593458 1_555
Na4 O16 2.644954 1_555
Na4 O18 2.644954 1_555
Na5 O22 2.499742 1_556
Na5 O20 2.499742 1_555
Na5 O21 2.593458 1_555
Na5 O23 2.593458 1_555
Na5 O19 2.644954 1_555
Na5 O17 2.644954 1_555
Mg0 O12 2.056685 1_565
Mg0 O4 2.076874 1_555
Mg0 O17 2.094513 1_555
Mg0 O20 2.159200 1_555
Mg0 O1 2.166254 1_555
Mg0 O0 2.324469 1_565
Mg1 O13 2.056685 1_545
Mg1 O5 2.076874 1_555
Mg1 O16 2.094513 1_555
Mg1 O21 2.159200 1_555
Mg1 O0 2.166254 1_555
Mg1 O1 2.324469 1_545
Mg2 O14 2.056685 1_455
Mg2 O6 2.076874 1_555
Mg2 O19 2.094513 1_554
Mg2 O22 2.159200 1_555
Mg2 O3 2.166254 1_554
Mg2 O2 2.324469 1_455
Mg3 O15 2.056685 1_655
Mg3 O7 2.076874 1_555
Mg3 O18 2.094513 1_556
Mg3 O23 2.159200 1_555
Mg3 O2 2.166254 1_556
Mg3 O3 2.324469 1_655
O0 W2 1.847738 1_555
O1 W3 1.847738 1_555
O2 W4 1.847738 1_555
O3 W5 1.847738 1_555
O4 W3 1.824718 1_554
O5 W2 1.824718 1_556
O6 W5 1.824718 1_555
O7 W4 1.824718 1_555
O8 W2 1.775805 1_555
O9 W3 1.775805 1_555
O10 W4 1.775805 1_555
O11 W5 1.775805 1_555
O12 W0 1.882791 1_555
O13 W1 1.882791 1_555
O14 W0 1.882791 1_555
O15 W1 1.882791 1_555
O16 W0 1.910030 1_555
O17 W1 1.910030 1_555
O18 W0 1.910030 1_555
O19 W1 1.910030 1_555
O20 W4 1.833050 1_555
O21 W5 1.833050 1_555
O22 W2 1.833050 1_555
O23 W3 1.833050 1_555
