# generated using pymatgen
data_Sr3Mg
_symmetry_space_group_name_H-M   'P 1'
_cell_length_a   7.97093371
_cell_length_b   7.97093371
_cell_length_c   6.47083200
_cell_angle_alpha   90.00000000
_cell_angle_beta   90.00000000
_cell_angle_gamma   119.99999759
_symmetry_Int_Tables_number   1
_chemical_formula_structural   Sr3Mg
_chemical_formula_sum   'Sr6 Mg2'
_cell_volume   356.04850076
_cell_formula_units_Z   2
loop_
 _symmetry_equiv_pos_site_id
 _symmetry_equiv_pos_as_xyz
  1  'x, y, z'
loop_
 _atom_site_type_symbol
 _atom_site_label
 _atom_site_symmetry_multiplicity
 _atom_site_fract_x
 _atom_site_fract_y
 _atom_site_fract_z
 _atom_site_occupancy
  Sr  Sr0  1  0.17102400  0.82897600  0.75000000  1
  Sr  Sr1  1  0.65795100  0.82897600  0.75000000  1
  Sr  Sr2  1  0.17102400  0.34204900  0.75000000  1
  Sr  Sr3  1  0.82897600  0.17102400  0.25000000  1
  Sr  Sr4  1  0.82897600  0.65795100  0.25000000  1
  Sr  Sr5  1  0.34204900  0.17102400  0.25000000  1
  Mg  Mg0  1  0.66666700  0.33333300  0.75000000  1
  Mg  Mg1  1  0.33333300  0.66666700  0.25000000  1
loop_
_geom_bond_atom_site_label_1
_geom_bond_atom_site_label_2
_geom_bond_distance
_geom_bond_site_symmetry_2
Sr0 Sr2 3.881263 1_555
Sr0 Sr1 3.881263 1_555
Sr0 Sr5 4.005375 1_565
Sr0 Sr4 4.005375 1_455
Sr0 Sr5 4.005375 1_566
Sr0 Sr4 4.005375 1_456
Sr0 Sr1 4.089671 1_455
Sr0 Sr2 4.089671 1_565
Sr1 Sr2 3.881263 1_555
Sr1 Sr3 4.005375 1_566
Sr1 Sr3 4.005375 1_565
Sr1 Sr4 4.005383 1_556
Sr1 Sr4 4.005383 1_555
Sr1 Sr2 4.089671 1_665
Sr2 Sr3 4.005375 1_455
Sr2 Sr3 4.005375 1_456
Sr2 Sr5 4.005383 1_555
Sr2 Sr5 4.005383 1_556
Sr3 Sr5 3.881263 1_555
Sr3 Sr4 3.881263 1_555
Sr3 Sr4 4.089671 1_545
Sr3 Sr5 4.089671 1_655
Sr4 Sr5 3.881263 1_555
Sr4 Sr5 4.089671 1_665
Mg0 Sr3 3.935647 1_555
Mg0 Sr3 3.935647 1_556
Mg0 Sr4 3.935647 1_556
Mg0 Sr4 3.935647 1_555
Mg0 Sr5 3.935647 1_556
Mg0 Sr5 3.935647 1_555
Mg0 Sr2 3.985913 1_655
Mg0 Sr1 3.985913 1_545
Mg0 Sr0 3.985921 1_655
Mg0 Sr0 3.985921 1_545
Mg0 Sr1 3.985929 1_555
Mg0 Sr2 3.985929 1_555
Mg1 Sr0 3.935647 1_555
Mg1 Sr0 3.935647 1_554
Mg1 Sr1 3.935647 1_555
Mg1 Sr1 3.935647 1_554
Mg1 Sr2 3.935647 1_555
Mg1 Sr2 3.935647 1_554
Mg1 Sr5 3.985913 1_565
Mg1 Sr4 3.985913 1_455
Mg1 Sr3 3.985921 1_565
Mg1 Sr3 3.985921 1_455
Mg1 Sr4 3.985929 1_555
Mg1 Sr5 3.985929 1_555
