# generated using pymatgen
data_AuC
_symmetry_space_group_name_H-M   'P 1'
_cell_length_a   3.43992934
_cell_length_b   3.43992934
_cell_length_c   5.86187700
_cell_angle_alpha   90.00000000
_cell_angle_beta   90.00000000
_cell_angle_gamma   119.99998722
_symmetry_Int_Tables_number   1
_chemical_formula_structural   AuC
_chemical_formula_sum   'Au2 C2'
_cell_volume   60.07121712
_cell_formula_units_Z   2
loop_
 _symmetry_equiv_pos_site_id
 _symmetry_equiv_pos_as_xyz
  1  'x, y, z'
loop_
 _atom_site_type_symbol
 _atom_site_label
 _atom_site_symmetry_multiplicity
 _atom_site_fract_x
 _atom_site_fract_y
 _atom_site_fract_z
 _atom_site_occupancy
  Au  Au0  1  0.66666700  0.33333300  0.50496400  1
  Au  Au1  1  0.33333300  0.66666700  0.00496400  1
  C  C0  1  0.66666700  0.33333300  0.87003600  1
  C  C1  1  0.33333300  0.66666700  0.37003600  1
loop_
_geom_bond_atom_site_label_1
_geom_bond_atom_site_label_2
_geom_bond_distance
_geom_bond_site_symmetry_2
Au0 C1 2.137741 1_545
Au0 C1 2.137741 1_655
Au0 C1 2.137746 1_555
Au0 C0 2.140007 1_555
Au1 C0 2.137741 1_454
Au1 C0 2.137741 1_564
Au1 C0 2.137746 1_554
Au1 C1 2.140007 1_555
