# generated using pymatgen
data_PrMnB4
_symmetry_space_group_name_H-M   'P 1'
_cell_length_a   3.54042600
_cell_length_b   6.02927200
_cell_length_c   11.67464400
_cell_angle_alpha   90.00000000
_cell_angle_beta   90.00000000
_cell_angle_gamma   90.00000000
_symmetry_Int_Tables_number   1
_chemical_formula_structural   PrMnB4
_chemical_formula_sum   'Pr4 Mn4 B16'
_cell_volume   249.20918477
_cell_formula_units_Z   4
loop_
 _symmetry_equiv_pos_site_id
 _symmetry_equiv_pos_as_xyz
  1  'x, y, z'
loop_
 _atom_site_type_symbol
 _atom_site_label
 _atom_site_symmetry_multiplicity
 _atom_site_fract_x
 _atom_site_fract_y
 _atom_site_fract_z
 _atom_site_occupancy
  Pr  Pr0  1  0.00000000  0.62354700  0.34852700  1
  Pr  Pr1  1  0.00000000  0.37645300  0.65147300  1
  Pr  Pr2  1  0.00000000  0.12354700  0.15147300  1
  Pr  Pr3  1  0.00000000  0.87645300  0.84852700  1
  Mn  Mn0  1  0.00000000  0.62132100  0.08062600  1
  Mn  Mn1  1  0.00000000  0.37867900  0.91937400  1
  Mn  Mn2  1  0.00000000  0.12132100  0.41937400  1
  Mn  Mn3  1  0.00000000  0.87867900  0.58062600  1
  B  B0  1  0.50000000  0.77562400  0.18023900  1
  B  B1  1  0.50000000  0.22437600  0.81976100  1
  B  B2  1  0.50000000  0.27562400  0.31976100  1
  B  B3  1  0.50000000  0.72437600  0.68023900  1
  B  B4  1  0.50000000  0.85568700  0.03338100  1
  B  B5  1  0.50000000  0.14431300  0.96661900  1
  B  B6  1  0.50000000  0.35568700  0.46661900  1
  B  B7  1  0.50000000  0.64431300  0.53338100  1
  B  B8  1  0.50000000  0.88961200  0.45519900  1
  B  B9  1  0.50000000  0.11038800  0.54480100  1
  B  B10  1  0.50000000  0.38961200  0.04480100  1
  B  B11  1  0.50000000  0.61038800  0.95519900  1
  B  B12  1  0.50000000  0.97857400  0.31342500  1
  B  B13  1  0.50000000  0.02142600  0.68657500  1
  B  B14  1  0.50000000  0.47857400  0.18657500  1
  B  B15  1  0.50000000  0.52142600  0.81342500  1
loop_
_geom_bond_atom_site_label_1
_geom_bond_atom_site_label_2
_geom_bond_distance
_geom_bond_site_symmetry_2
B0 B4 1.781174 1_555
B0 B14 1.792522 1_555
B0 B12 1.978638 1_555
B0 Mn0 2.313357 1_555
B0 Mn0 2.313357 1_655
B0 Pr2 2.765299 1_565
B0 Pr2 2.765299 1_665
B0 Pr0 2.799007 1_555
B0 Pr0 2.799007 1_655
B1 B5 1.781174 1_555
B1 B15 1.792522 1_555
B1 B13 1.978638 1_555
B1 Mn1 2.313357 1_555
B1 Mn1 2.313357 1_655
B1 Pr3 2.765299 1_645
B1 Pr3 2.765299 1_545
B1 Pr1 2.799007 1_655
B1 Pr1 2.799007 1_555
B2 B6 1.781174 1_555
B2 Mn2 2.313357 1_655
B2 Mn2 2.313357 1_555
B2 Pr0 2.765299 1_555
B2 Pr0 2.765299 1_655
B2 Pr2 2.799007 1_655
B2 Pr2 2.799007 1_555
B3 B7 1.781174 1_555
B3 Mn3 2.313357 1_655
B3 Mn3 2.313357 1_555
B3 Pr1 2.765299 1_655
B3 Pr1 2.765299 1_555
B3 Pr3 2.799007 1_655
B3 Pr3 2.799007 1_555
B4 B5 1.906780 1_564
B4 Mn0 2.331225 1_655
B4 Mn0 2.331225 1_555
B4 Pr2 2.764534 1_565
B4 Pr2 2.764534 1_665
B4 Pr3 2.794055 1_554
B4 Pr3 2.794055 1_654
B5 Mn1 2.331225 1_555
B5 Mn1 2.331225 1_655
B5 Pr3 2.764534 1_545
B5 Pr3 2.764534 1_645
B5 Pr2 2.794055 1_556
B5 Pr2 2.794055 1_656
B6 B9 1.737951 1_555
B6 B7 1.906780 1_555
B6 Mn2 2.331225 1_555
B6 Mn2 2.331225 1_655
B6 Pr0 2.764534 1_555
B6 Pr0 2.764534 1_655
B6 Pr1 2.794055 1_655
B6 Pr1 2.794055 1_555
B7 B8 1.737951 1_555
B7 Mn3 2.331225 1_655
B7 Mn3 2.331225 1_555
B7 Pr1 2.764534 1_655
B7 Pr1 2.764534 1_555
B7 Pr0 2.794055 1_555
B7 Pr0 2.794055 1_655
B8 B9 1.692968 1_565
B8 Mn2 2.293533 1_565
B8 Mn2 2.293533 1_665
B8 Mn3 2.298308 1_555
B8 Mn3 2.298308 1_655
B8 Pr0 2.694060 1_555
B8 Pr0 2.694060 1_655
B9 Mn3 2.293533 1_545
B9 Mn3 2.293533 1_645
B9 Mn2 2.298308 1_555
B9 Mn2 2.298308 1_655
B9 Pr1 2.694060 1_655
B9 Pr1 2.694060 1_555
B10 B11 1.692968 1_554
B10 B5 1.737951 1_554
B10 B14 1.739901 1_555
B10 Mn0 2.293533 1_555
B10 Mn0 2.293533 1_655
B10 Mn1 2.298308 1_554
B10 Mn1 2.298308 1_654
B10 Pr2 2.694060 1_655
B10 Pr2 2.694060 1_555
B11 B4 1.737951 1_556
B11 B15 1.739901 1_555
B11 Mn1 2.293533 1_555
B11 Mn1 2.293533 1_655
B11 Mn0 2.298308 1_656
B11 Mn0 2.298308 1_556
B11 Pr3 2.694060 1_555
B11 Pr3 2.694060 1_655
B12 B8 1.739901 1_555
B12 B2 1.792522 1_565
B12 Mn2 2.324727 1_665
B12 Mn2 2.324727 1_565
B12 Pr2 2.733595 1_565
B12 Pr2 2.733595 1_665
B12 Pr0 2.807769 1_555
B12 Pr0 2.807769 1_655
B13 B9 1.739901 1_555
B13 B3 1.792522 1_545
B13 Mn3 2.324727 1_645
B13 Mn3 2.324727 1_545
B13 Pr3 2.733595 1_645
B13 Pr3 2.733595 1_545
B13 Pr1 2.807769 1_655
B13 Pr1 2.807769 1_555
B14 B2 1.978638 1_555
B14 Mn0 2.324727 1_655
B14 Mn0 2.324727 1_555
B14 Pr0 2.733595 1_555
B14 Pr0 2.733595 1_655
B14 Pr2 2.807769 1_655
B14 Pr2 2.807769 1_555
B15 B3 1.978638 1_555
B15 Mn1 2.324727 1_555
B15 Mn1 2.324727 1_655
B15 Pr1 2.733595 1_655
B15 Pr1 2.733595 1_555
B15 Pr3 2.807769 1_655
B15 Pr3 2.807769 1_555
