# generated using pymatgen
data_CsGa2(Se2O7)2
_symmetry_space_group_name_H-M   'P 1'
_cell_length_a   9.27546091
_cell_length_b   9.27546091
_cell_length_c   12.86352319
_cell_angle_alpha   58.71647009
_cell_angle_beta   58.71647009
_cell_angle_gamma   49.53293679
_symmetry_Int_Tables_number   1
_chemical_formula_structural   CsGa2(Se2O7)2
_chemical_formula_sum   'Cs2 Ga4 Se8 O28'
_cell_volume   690.69241933
_cell_formula_units_Z   2
loop_
 _symmetry_equiv_pos_site_id
 _symmetry_equiv_pos_as_xyz
  1  'x, y, z'
loop_
 _atom_site_type_symbol
 _atom_site_label
 _atom_site_symmetry_multiplicity
 _atom_site_fract_x
 _atom_site_fract_y
 _atom_site_fract_z
 _atom_site_occupancy
  Cs  Cs0  1  0.75742900  0.24257100  0.75000000  1
  Cs  Cs1  1  0.24257100  0.75742900  0.25000000  1
  Ga  Ga0  1  0.73564200  0.63369100  0.88791300  1
  Ga  Ga1  1  0.26435800  0.36630900  0.11208700  1
  Ga  Ga2  1  0.63369100  0.73564200  0.38791300  1
  Ga  Ga3  1  0.36630900  0.26435800  0.61208700  1
  Se  Se0  1  0.19421100  0.29649000  0.90808600  1
  Se  Se1  1  0.80578900  0.70351000  0.09191400  1
  Se  Se2  1  0.29649000  0.19421100  0.40808600  1
  Se  Se3  1  0.70351000  0.80578900  0.59191400  1
  Se  Se4  1  0.76480400  0.30418900  0.39846100  1
  Se  Se5  1  0.23519600  0.69581100  0.60153900  1
  Se  Se6  1  0.30418900  0.76480400  0.89846100  1
  Se  Se7  1  0.69581100  0.23519600  0.10153900  1
  O  O0  1  0.68774300  0.65555700  0.05431200  1
  O  O1  1  0.31225700  0.34444300  0.94568800  1
  O  O2  1  0.65555700  0.68774300  0.55431200  1
  O  O3  1  0.34444300  0.31225700  0.44568800  1
  O  O4  1  0.76167800  0.62276200  0.72936500  1
  O  O5  1  0.23832200  0.37723800  0.27063500  1
  O  O6  1  0.62276200  0.76167800  0.22936500  1
  O  O7  1  0.37723800  0.23832200  0.77063500  1
  O  O8  1  0.97759700  0.46502300  0.15578300  1
  O  O9  1  0.02240300  0.53497700  0.84421700  1
  O  O10  1  0.46502300  0.97759700  0.65578300  1
  O  O11  1  0.53497700  0.02240300  0.34421700  1
  O  O12  1  0.79366800  0.36190300  0.95751300  1
  O  O13  1  0.20633200  0.63809700  0.04248700  1
  O  O14  1  0.36190300  0.79366800  0.45751300  1
  O  O15  1  0.63809700  0.20633200  0.54248700  1
  O  O16  1  0.77655600  0.44004300  0.44538100  1
  O  O17  1  0.22344400  0.55995700  0.55461900  1
  O  O18  1  0.44004300  0.77655600  0.94538100  1
  O  O19  1  0.55995700  0.22344400  0.05461900  1
  O  O20  1  0.99217100  0.09990400  0.37822300  1
  O  O21  1  0.00782900  0.90009600  0.62177700  1
  O  O22  1  0.09990400  0.99217100  0.87822300  1
  O  O23  1  0.90009600  0.00782900  0.12177700  1
  O  O24  1  0.11531900  0.27473000  0.67278000  1
  O  O25  1  0.88468100  0.72527000  0.32722000  1
  O  O26  1  0.27473000  0.11531900  0.17278000  1
  O  O27  1  0.72527000  0.88468100  0.82722000  1
loop_
_geom_bond_atom_site_label_1
_geom_bond_atom_site_label_2
_geom_bond_distance
_geom_bond_site_symmetry_2
Cs0 O24 3.106192 1_655
Cs0 O27 3.106192 1_545
Cs0 O21 3.176790 1_645
Cs0 O22 3.176790 1_645
Cs0 O1 3.300062 1_555
Cs0 O2 3.300062 1_555
Cs0 O16 3.314625 1_555
Cs0 O19 3.314625 1_556
Cs0 O7 3.421292 1_555
Cs0 O4 3.421292 1_555
Cs0 O12 3.598167 1_555
Cs0 O15 3.598167 1_555
Cs1 O26 3.106192 1_565
Cs1 O25 3.106192 1_455
Cs1 O20 3.176790 1_465
Cs1 O23 3.176790 1_465
Cs1 O3 3.300062 1_555
Cs1 O0 3.300062 1_555
Cs1 O18 3.314625 1_554
Cs1 O17 3.314625 1_555
Cs1 O5 3.421292 1_555
Cs1 O6 3.421292 1_555
Cs1 O14 3.598167 1_555
Cs1 O13 3.598167 1_555
Ga0 O12 1.960028 1_555
Ga0 O4 1.974721 1_555
Ga0 O27 1.984503 1_555
Ga0 O18 2.004073 1_555
Ga0 O9 2.012376 1_655
Ga0 O0 2.041182 1_556
Ga1 O13 1.960028 1_555
Ga1 O5 1.974721 1_555
Ga1 O26 1.984503 1_555
Ga1 O19 2.004073 1_555
Ga1 O8 2.012376 1_455
Ga1 O1 2.041182 1_554
Ga2 O14 1.960028 1_555
Ga2 O6 1.974721 1_555
Ga2 O25 1.984503 1_555
Ga2 O16 2.004073 1_555
Ga2 O11 2.012376 1_565
Ga2 O2 2.041182 1_555
Ga3 O15 1.960028 1_555
Ga3 O7 1.974721 1_555
Ga3 O24 1.984503 1_555
Ga3 O17 2.004073 1_555
Ga3 O10 2.012376 1_545
Ga3 O3 2.041182 1_555
O0 Se1 1.742492 1_555
O1 Se0 1.742492 1_555
O2 Se3 1.742492 1_555
O3 Se2 1.742492 1_555
O4 Se3 1.727369 1_555
O5 Se2 1.727369 1_555
O6 Se1 1.727369 1_555
O7 Se0 1.727369 1_555
O8 Se1 1.733315 1_555
O9 Se0 1.733315 1_555
O10 Se3 1.733315 1_555
O11 Se2 1.733315 1_555
O12 Se7 1.736215 1_556
O13 Se6 1.736215 1_554
O14 Se5 1.736215 1_555
O15 Se4 1.736215 1_555
O16 Se4 1.732201 1_555
O17 Se5 1.732201 1_555
O18 Se6 1.732201 1_555
O19 Se7 1.732201 1_555
O20 Se4 1.691417 1_555
O21 Se5 1.691417 1_555
O22 Se6 1.691417 1_555
O23 Se7 1.691417 1_555
