# generated using pymatgen
data_Cr2FeO4
_symmetry_space_group_name_H-M   'P 1'
_cell_length_a   2.95140500
_cell_length_b   5.08711561
_cell_length_c   9.86023300
_cell_angle_alpha   90.00000000
_cell_angle_beta   90.00000000
_cell_angle_gamma   106.86312809
_symmetry_Int_Tables_number   1
_chemical_formula_structural   Cr2FeO4
_chemical_formula_sum   'Cr4 Fe2 O8'
_cell_volume   141.67712725
_cell_formula_units_Z   2
loop_
 _symmetry_equiv_pos_site_id
 _symmetry_equiv_pos_as_xyz
  1  'x, y, z'
loop_
 _atom_site_type_symbol
 _atom_site_label
 _atom_site_symmetry_multiplicity
 _atom_site_fract_x
 _atom_site_fract_y
 _atom_site_fract_z
 _atom_site_occupancy
  Cr  Cr0  1  0.36719800  0.73439600  0.42812800  1
  Cr  Cr1  1  0.63280200  0.26560400  0.57187200  1
  Cr  Cr2  1  0.36719800  0.73439600  0.07187200  1
  Cr  Cr3  1  0.63280200  0.26560400  0.92812800  1
  Fe  Fe0  1  0.11505500  0.23011000  0.25000000  1
  Fe  Fe1  1  0.88494500  0.76989000  0.75000000  1
  O  O0  1  0.00000000  0.00000000  0.50000000  1
  O  O1  1  0.00000000  0.00000000  0.00000000  1
  O  O2  1  0.46285200  0.92570500  0.25000000  1
  O  O3  1  0.53714800  0.07429500  0.75000000  1
  O  O4  1  0.26825400  0.53650700  0.88824100  1
  O  O5  1  0.73174600  0.46349300  0.11175900  1
  O  O6  1  0.26825400  0.53650700  0.61175900  1
  O  O7  1  0.73174600  0.46349300  0.38824100  1
loop_
_geom_bond_atom_site_label_1
_geom_bond_atom_site_label_2
_geom_bond_distance
_geom_bond_site_symmetry_2
Cr0 O2 1.988045 1_555
Cr0 O7 2.017860 1_555
Cr0 O7 2.017862 1_455
Cr0 O6 2.050992 1_555
Cr0 O0 2.086125 1_665
Cr0 O0 2.086126 1_565
Cr1 O3 1.988045 1_555
Cr1 O6 2.017860 1_555
Cr1 O6 2.017862 1_655
Cr1 O7 2.050992 1_555
Cr1 O0 2.086125 1_555
Cr1 O0 2.086126 1_655
Cr2 O2 1.988045 1_555
Cr2 O5 2.017860 1_555
Cr2 O5 2.017862 1_455
Cr2 O4 2.050992 1_554
Cr2 O1 2.086125 1_665
Cr2 O1 2.086126 1_565
Cr3 O3 1.988045 1_555
Cr3 O4 2.017860 1_555
Cr3 O4 2.017862 1_655
Cr3 O5 2.050992 1_556
Cr3 O1 2.086125 1_556
Cr3 O1 2.086126 1_656
Fe0 O2 2.091385 1_545
Fe0 O2 2.091387 1_445
Fe0 O7 2.307952 1_555
Fe0 O5 2.307952 1_555
Fe0 O7 2.307954 1_455
Fe0 O5 2.307954 1_455
Fe1 O3 2.091385 1_565
Fe1 O3 2.091387 1_665
Fe1 O4 2.307952 1_555
Fe1 O6 2.307952 1_555
Fe1 O6 2.307954 1_655
Fe1 O4 2.307954 1_655
