# generated using pymatgen
data_HoTiCo11
_symmetry_space_group_name_H-M   'P 1'
_cell_length_a   4.68800300
_cell_length_b   6.34023897
_cell_length_c   6.34023897
_cell_angle_alpha   97.60097488
_cell_angle_beta   111.69725921
_cell_angle_gamma   68.30274079
_symmetry_Int_Tables_number   1
_chemical_formula_structural   HoTiCo11
_chemical_formula_sum   'Ho1 Ti1 Co11'
_cell_volume   162.69169407
_cell_formula_units_Z   1
loop_
 _symmetry_equiv_pos_site_id
 _symmetry_equiv_pos_as_xyz
  1  'x, y, z'
loop_
 _atom_site_type_symbol
 _atom_site_label
 _atom_site_symmetry_multiplicity
 _atom_site_fract_x
 _atom_site_fract_y
 _atom_site_fract_z
 _atom_site_occupancy
  Ho  Ho0  1  0.00772800  0.99227200  0.00772800  1
  Ti  Ti0  1  0.63105400  0.36894600  0.63105400  1
  Co  Co0  1  0.72556100  0.77443900  0.22556100  1
  Co  Co1  1  0.28092900  0.21907100  0.78092900  1
  Co  Co2  1  0.49876200  0.78263100  0.78015500  1
  Co  Co3  1  0.49876200  0.21984500  0.21736900  1
  Co  Co4  1  0.49952100  0.99506400  0.49876600  1
  Co  Co5  1  0.00418000  0.99506400  0.49876600  1
  Co  Co6  1  0.49952100  0.50123400  0.00493600  1
  Co  Co7  1  0.00418000  0.50123400  0.00493600  1
  Co  Co8  1  0.35302500  0.64697500  0.35302500  1
  Co  Co9  1  0.99838800  0.35990200  0.35667900  1
  Co  Co10  1  0.99838800  0.64332100  0.64009800  1
loop_
_geom_bond_atom_site_label_1
_geom_bond_atom_site_label_2
_geom_bond_distance
_geom_bond_site_symmetry_2
Ho0 Ti0 3.130120 1_464
Co0 Co7 2.387521 1_655
Co0 Co5 2.387521 1_655
Co0 Co6 2.387524 1_555
Co0 Co4 2.387524 1_555
Co0 Co9 2.557537 1_555
Co0 Co10 2.557537 1_555
Co0 Co8 2.572212 1_555
Co0 Co8 2.572212 1_655
Co0 Co3 2.624100 1_565
Co0 Co2 2.624100 1_554
Co0 Ho0 2.961596 1_655
Co0 Ho0 2.961597 1_555
Co1 Co6 2.423828 1_556
Co1 Co4 2.423828 1_545
Co1 Co7 2.423830 1_556
Co1 Co5 2.423830 1_545
Co1 Co3 2.571110 1_556
Co1 Co2 2.571110 1_545
Co1 Co10 2.629352 1_455
Co1 Co9 2.629352 1_455
Co1 Ti0 2.654332 1_555
Co1 Ti0 2.654332 1_455
Co1 Ho0 3.007714 1_546
Co1 Ho0 3.007714 1_646
Co2 Co4 2.375064 1_555
Co2 Co5 2.375066 1_555
Co2 Co7 2.424543 1_656
Co2 Co6 2.424545 1_556
Co2 Ti0 2.594705 1_555
Co2 Co8 2.643979 1_555
Co2 Ho0 2.972170 1_556
Co2 Ho0 2.972170 1_656
Co3 Co6 2.375064 1_555
Co3 Co7 2.375066 1_555
Co3 Co5 2.424543 1_645
Co3 Co4 2.424545 1_545
Co3 Ti0 2.594705 1_555
Co3 Co9 2.618304 1_555
Co3 Co9 2.618309 1_455
Co3 Co8 2.643979 1_555
Co3 Ho0 2.972170 1_545
Co3 Ho0 2.972170 1_645
Co4 Co5 2.322160 1_555
Co4 Co5 2.365843 1_655
Co4 Co8 2.511610 1_555
Co4 Co9 2.578712 1_465
Co4 Ti0 2.622097 1_565
Co4 Ho0 3.117162 1_555
Co4 Ho0 3.223190 1_656
Co5 Co8 2.511613 1_555
Co5 Co9 2.578711 1_465
Co5 Ti0 2.622095 1_465
Co5 Ho0 3.117163 1_555
Co5 Ho0 3.223188 1_556
Co6 Co7 2.322160 1_555
Co6 Co7 2.365843 1_655
Co6 Co8 2.511610 1_555
Co6 Co9 2.523613 1_555
Co6 Ti0 2.622097 1_554
Co6 Ho0 3.117162 1_555
Co6 Ho0 3.223190 1_645
Co7 Co8 2.511613 1_555
Co7 Co9 2.523613 1_455
Co7 Ti0 2.622095 1_454
Co7 Ho0 3.117163 1_555
Co7 Ho0 3.223188 1_545
Co8 Ti0 2.310391 1_555
Co8 Ho0 2.869381 1_555
Co8 Co9 2.890404 1_555
Co8 Co9 2.890408 1_455
Co9 Ti0 2.847919 1_555
Co9 Ti0 2.847923 1_655
Co9 Ho0 2.993598 1_645
Co10 Co9 2.367233 1_555
Co10 Co5 2.523613 1_655
Co10 Co4 2.523613 1_555
Co10 Co7 2.578711 1_656
Co10 Co6 2.578712 1_656
Co10 Co2 2.618304 1_555
Co10 Co2 2.618309 1_655
Co10 Ti0 2.847919 1_555
Co10 Ti0 2.847923 1_655
Co10 Co8 2.890404 1_555
Co10 Co8 2.890408 1_655
Co10 Ho0 2.993598 1_656
