# generated using pymatgen
data_BaYCuNiO5
_symmetry_space_group_name_H-M   'P 1'
_cell_length_a   3.88584400
_cell_length_b   3.88585200
_cell_length_c   7.55479600
_cell_angle_alpha   90.00011965
_cell_angle_beta   89.99997767
_cell_angle_gamma   90.00001474
_symmetry_Int_Tables_number   1
_chemical_formula_structural   BaYCuNiO5
_chemical_formula_sum   'Ba1 Y1 Cu1 Ni1 O5'
_cell_volume   114.07601954
_cell_formula_units_Z   1
loop_
 _symmetry_equiv_pos_site_id
 _symmetry_equiv_pos_as_xyz
  1  'x, y, z'
loop_
 _atom_site_type_symbol
 _atom_site_label
 _atom_site_symmetry_multiplicity
 _atom_site_fract_x
 _atom_site_fract_y
 _atom_site_fract_z
 _atom_site_occupancy
  Ba  Ba0  1  0.99999900  0.00000000  0.96588600  1
  Y  Y0  1  0.00000100  0.99999900  0.46788300  1
  Cu  Cu0  1  0.49999700  0.50000000  0.23183800  1
  Ni  Ni0  1  0.50000000  0.50000100  0.70119200  1
  O  O0  1  0.00000000  0.50000100  0.65143800  1
  O  O1  1  0.50000000  0.00000100  0.65143800  1
  O  O2  1  0.99999600  0.49999900  0.27788100  1
  O  O3  1  0.50000000  0.00000000  0.27788000  1
  O  O4  1  0.50000100  0.49999300  0.96248000  1
loop_
_geom_bond_atom_site_label_1
_geom_bond_atom_site_label_2
_geom_bond_distance
_geom_bond_site_symmetry_2
Ba0 O4 2.747806 1_555
Ba0 O4 2.747816 1_655
Ba0 O4 2.747843 1_545
Ba0 O4 2.747855 1_645
Ba0 O3 3.054606 1_556
Ba0 O2 3.054612 1_556
Ba0 O3 3.054612 1_656
Ba0 O2 3.054623 1_546
Ba0 O0 3.068934 1_645
Ba0 O1 3.068935 1_555
Ba0 O1 3.068939 1_655
Ba0 O0 3.068945 1_655
Cu0 O2 1.973810 1_555
Cu0 O3 1.973816 1_565
Cu0 O3 1.973817 1_555
Cu0 O2 1.973818 1_455
Cu0 O4 2.034945 1_554
Ni0 O4 1.973978 1_555
Ni0 O0 1.978947 1_655
Ni0 O0 1.978948 1_555
Ni0 O1 1.978951 1_555
Ni0 O1 1.978952 1_565
O0 Y0 2.387035 1_555
O0 Y0 2.387043 1_545
O1 Y0 2.387033 1_545
O1 Y0 2.387039 1_645
O2 Y0 2.415657 1_655
O2 Y0 2.415662 1_645
O3 Y0 2.415657 1_545
O3 Y0 2.415664 1_645
