# generated using pymatgen
data_NaSbBrOF3
_symmetry_space_group_name_H-M   'P 1'
_cell_length_a   5.82516583
_cell_length_b   7.82960848
_cell_length_c   12.01596000
_cell_angle_alpha   90.00000000
_cell_angle_beta   90.00000000
_cell_angle_gamma   95.65441396
_symmetry_Int_Tables_number   1
_chemical_formula_structural   NaSbBrOF3
_chemical_formula_sum   'Na4 Sb4 Br4 O4 F12'
_cell_volume   545.36655152
_cell_formula_units_Z   4
loop_
 _symmetry_equiv_pos_site_id
 _symmetry_equiv_pos_as_xyz
  1  'x, y, z'
loop_
 _atom_site_type_symbol
 _atom_site_label
 _atom_site_symmetry_multiplicity
 _atom_site_fract_x
 _atom_site_fract_y
 _atom_site_fract_z
 _atom_site_occupancy
  Na  Na0  1  0.80419200  0.00247600  0.37105600  1
  Na  Na1  1  0.69580800  0.99752400  0.87105600  1
  Na  Na2  1  0.19580800  0.99752400  0.62894400  1
  Na  Na3  1  0.30419200  0.00247600  0.12894400  1
  Sb  Sb0  1  0.68544800  0.31817800  0.59637900  1
  Sb  Sb1  1  0.81455200  0.68182200  0.09637900  1
  Sb  Sb2  1  0.31455200  0.68182200  0.40362100  1
  Sb  Sb3  1  0.18544800  0.31817800  0.90362100  1
  Br  Br0  1  0.74632100  0.47843700  0.36307200  1
  Br  Br1  1  0.75367900  0.52156300  0.86307200  1
  Br  Br2  1  0.25367900  0.52156300  0.63692800  1
  Br  Br3  1  0.24632100  0.47843700  0.13692800  1
  O  O0  1  0.17992900  0.22491100  0.25068100  1
  O  O1  1  0.32007100  0.77508900  0.75068100  1
  O  O2  1  0.82007100  0.77508900  0.74931900  1
  O  O3  1  0.67992900  0.22491100  0.24931900  1
  F  F0  1  0.94095900  0.84724500  0.21444300  1
  F  F1  1  0.55904100  0.15275500  0.71444300  1
  F  F2  1  0.05904100  0.15275500  0.78555700  1
  F  F3  1  0.44095900  0.84724500  0.28555700  1
  F  F4  1  0.44584500  0.19045900  0.50615800  1
  F  F5  1  0.05415500  0.80954100  0.00615800  1
  F  F6  1  0.55415500  0.80954100  0.49384200  1
  F  F7  1  0.94584500  0.19045900  0.99384200  1
  F  F8  1  0.10698600  0.85414900  0.45590000  1
  F  F9  1  0.39301400  0.14585100  0.95590000  1
  F  F10  1  0.89301400  0.14585100  0.54410000  1
  F  F11  1  0.60698600  0.85414900  0.04410000  1
loop_
_geom_bond_atom_site_label_1
_geom_bond_atom_site_label_2
_geom_bond_distance
_geom_bond_site_symmetry_2
Na0 O3 2.438283 1_555
Na1 O2 2.438283 1_555
Na2 O1 2.438283 1_555
Na3 O0 2.438283 1_555
Br0 O3 2.409738 1_555
Br0 Sb0 3.077595 1_555
Br0 Sb2 3.144569 1_555
Br1 O2 2.409738 1_555
Br1 Sb1 3.077595 1_556
Br1 Sb3 3.144569 1_655
Br2 O1 2.409738 1_555
Br2 Sb2 3.077595 1_555
Br2 Sb0 3.144569 1_555
Br3 O0 2.409738 1_555
Br3 Sb3 3.077595 1_554
Br3 Sb1 3.144569 1_455
F0 Sb1 2.011063 1_555
F0 Na0 2.417457 1_565
F0 Na3 2.550076 1_665
F1 Sb0 2.011063 1_555
F1 Na1 2.417457 1_545
F1 Na2 2.550076 1_545
F2 Sb3 2.011063 1_555
F2 Na2 2.417457 1_545
F2 Na1 2.550076 1_445
F3 Sb2 2.011063 1_555
F3 Na3 2.417457 1_565
F3 Na0 2.550076 1_565
F4 Sb0 1.961697 1_555
F4 Na2 2.479225 1_545
F5 Sb1 1.961697 1_455
F5 Na3 2.479225 1_565
F6 Sb2 1.961697 1_555
F6 Na0 2.479225 1_565
F7 Sb3 1.961697 1_655
F7 Na1 2.479225 1_545
F8 Sb2 1.999628 1_555
F8 Na2 2.395175 1_555
F8 Na0 2.429566 1_465
F9 Sb3 1.999628 1_555
F9 Na3 2.395175 1_556
F9 Na1 2.429566 1_545
F10 Sb0 1.999628 1_555
F10 Na0 2.395175 1_555
F10 Na2 2.429566 1_645
F11 Sb1 1.999628 1_555
F11 Na1 2.395175 1_554
F11 Na3 2.429566 1_565
