# generated using pymatgen
data_Cs3GeSe3
_symmetry_space_group_name_H-M   'P 1'
_cell_length_a   10.68813574
_cell_length_b   10.68813574
_cell_length_c   9.73548330
_cell_angle_alpha   84.83672535
_cell_angle_beta   84.83672535
_cell_angle_gamma   79.76448557
_symmetry_Int_Tables_number   1
_chemical_formula_structural   Cs3GeSe3
_chemical_formula_sum   'Cs12 Ge4 Se12'
_cell_volume   1086.89348013
_cell_formula_units_Z   4
loop_
 _symmetry_equiv_pos_site_id
 _symmetry_equiv_pos_as_xyz
  1  'x, y, z'
loop_
 _atom_site_type_symbol
 _atom_site_label
 _atom_site_symmetry_multiplicity
 _atom_site_fract_x
 _atom_site_fract_y
 _atom_site_fract_z
 _atom_site_occupancy
  Cs  Cs0  1  0.20133816  0.24643169  0.30384772  1
  Cs  Cs1  1  0.75356831  0.79866184  0.19615228  1
  Cs  Cs2  1  0.79866184  0.75356831  0.69615228  1
  Cs  Cs3  1  0.24643169  0.20133816  0.80384772  1
  Cs  Cs4  1  0.20097483  0.60995885  0.62410273  1
  Cs  Cs5  1  0.39004115  0.79902517  0.87589727  1
  Cs  Cs6  1  0.79902517  0.39004115  0.37589727  1
  Cs  Cs7  1  0.60995885  0.20097483  0.12410273  1
  Cs  Cs8  1  0.59164670  0.40835330  0.75000000  1
  Cs  Cs9  1  0.40835330  0.59164670  0.25000000  1
  Cs  Cs10  1  0.07920569  0.92079431  0.25000000  1
  Cs  Cs11  1  0.92079431  0.07920569  0.75000000  1
  Ge  Ge0  1  0.56555938  0.07809853  0.53882437  1
  Ge  Ge1  1  0.92190147  0.43444062  0.96117563  1
  Ge  Ge2  1  0.43444062  0.92190147  0.46117563  1
  Ge  Ge3  1  0.07809853  0.56555938  0.03882437  1
  Se  Se0  1  0.57916426  0.05385579  0.78381547  1
  Se  Se1  1  0.94614421  0.42083574  0.71618453  1
  Se  Se2  1  0.42083574  0.94614421  0.21618453  1
  Se  Se3  1  0.05385579  0.57916426  0.28381547  1
  Se  Se4  1  0.46759024  0.29129578  0.47185809  1
  Se  Se5  1  0.70870422  0.53240976  0.02814191  1
  Se  Se6  1  0.53240976  0.70870422  0.52814191  1
  Se  Se7  1  0.29129578  0.46759024  0.97185809  1
  Se  Se8  1  0.77493582  0.04170213  0.43030112  1
  Se  Se9  1  0.95829787  0.22506418  0.06969888  1
  Se  Se10  1  0.22506418  0.95829787  0.56969888  1
  Se  Se11  1  0.04170213  0.77493582  0.93030112  1
loop_
_geom_bond_atom_site_label_1
_geom_bond_atom_site_label_2
_geom_bond_distance
_geom_bond_site_symmetry_2
Cs0 Se4 3.530929 1_555
Cs0 Se3 3.620531 1_555
Cs0 Se9 3.656039 1_455
Cs0 Se2 3.740302 1_545
Cs0 Se10 3.827926 1_545
Cs0 Se7 3.978879 1_554
Cs1 Se5 3.530929 1_555
Cs1 Se2 3.620531 1_555
Cs1 Se8 3.656039 1_565
Cs1 Se3 3.740302 1_655
Cs1 Se11 3.827926 1_654
Cs1 Se6 3.978879 1_555
Cs2 Se6 3.530929 1_555
Cs2 Se1 3.620531 1_555
Cs2 Se11 3.656039 1_655
Cs2 Se0 3.740302 1_565
Cs2 Se8 3.827926 1_565
Cs2 Se5 3.978879 1_556
Cs3 Se7 3.530929 1_555
Cs3 Se0 3.620531 1_555
Cs3 Se10 3.656039 1_545
Cs3 Se1 3.740302 1_455
Cs3 Se9 3.827926 1_456
Cs3 Se4 3.978879 1_555
Cs4 Se1 3.674089 1_455
Cs4 Se7 3.721342 1_555
Cs4 Se11 3.722817 1_555
Cs4 Se10 3.764234 1_555
Cs4 Se3 3.856643 1_555
Cs4 Se6 3.884710 1_555
Cs4 Se4 4.314694 1_555
Cs5 Se0 3.674089 1_565
Cs5 Se6 3.721342 1_555
Cs5 Se10 3.722817 1_555
Cs5 Se11 3.764234 1_555
Cs5 Se2 3.856643 1_556
Cs5 Se7 3.884710 1_555
Cs5 Se5 4.314694 1_556
Cs6 Se3 3.674089 1_655
Cs6 Se5 3.721342 1_555
Cs6 Se9 3.722817 1_555
Cs6 Se8 3.764234 1_555
Cs6 Se1 3.856643 1_555
Cs6 Se4 3.884710 1_555
Cs6 Se6 4.314694 1_555
Cs7 Se2 3.674089 1_545
Cs7 Se4 3.721342 1_555
Cs7 Se8 3.722817 1_555
Cs7 Se9 3.764234 1_555
Cs7 Se0 3.856643 1_554
Cs7 Se5 3.884710 1_555
Cs7 Se7 4.314694 1_554
Cs8 Se4 3.535734 1_555
Cs8 Se5 3.535734 1_556
Cs8 Se7 3.694207 1_555
Cs8 Se6 3.694207 1_555
Cs8 Se0 3.798593 1_555
Cs8 Se1 3.798593 1_555
Cs9 Se7 3.535734 1_554
Cs9 Se6 3.535734 1_555
Cs9 Se4 3.694207 1_555
Cs9 Se5 3.694207 1_555
Cs9 Se3 3.798593 1_555
Cs9 Se2 3.798593 1_555
Cs10 Se8 3.635163 1_465
Cs10 Se9 3.635163 1_465
Cs10 Se10 3.687568 1_555
Cs10 Se11 3.687568 1_554
Cs10 Se2 3.692371 1_555
Cs10 Se3 3.692371 1_555
Cs11 Se11 3.635163 1_645
Cs11 Se10 3.635163 1_645
Cs11 Se8 3.687568 1_555
Cs11 Se9 3.687568 1_556
Cs11 Se1 3.692371 1_555
Cs11 Se0 3.692371 1_555
Ge0 Se8 2.369506 1_555
Ge0 Se0 2.390568 1_555
Ge0 Se4 2.391940 1_555
Ge1 Se9 2.369506 1_556
Ge1 Se1 2.390568 1_555
Ge1 Se5 2.391940 1_556
Ge2 Se10 2.369506 1_555
Ge2 Se2 2.390568 1_555
Ge2 Se6 2.391940 1_555
Ge3 Se11 2.369506 1_554
Ge3 Se3 2.390568 1_555
Ge3 Se7 2.391940 1_554
