# generated using pymatgen
data_CaAl2Si3O10
_symmetry_space_group_name_H-M   'P 1'
_cell_length_a   7.96861400
_cell_length_b   9.72628871
_cell_length_c   9.74802410
_cell_angle_alpha   83.38700093
_cell_angle_beta   77.54760228
_cell_angle_gamma   77.91968585
_symmetry_Int_Tables_number   1
_chemical_formula_structural   CaAl2Si3O10
_chemical_formula_sum   'Ca2 Al4 Si6 O20'
_cell_volume   719.46734757
_cell_formula_units_Z   2
loop_
 _symmetry_equiv_pos_site_id
 _symmetry_equiv_pos_as_xyz
  1  'x, y, z'
loop_
 _atom_site_type_symbol
 _atom_site_label
 _atom_site_symmetry_multiplicity
 _atom_site_fract_x
 _atom_site_fract_y
 _atom_site_fract_z
 _atom_site_occupancy
  Ca  Ca0  1  0.64269800  0.23894500  0.22696900  1
  Ca  Ca1  1  0.14565300  0.22404300  0.22853700  1
  Al  Al0  1  0.31426900  0.73764300  0.03714100  1
  Al  Al1  1  0.83016000  0.04636000  0.73448300  1
  Al  Al2  1  0.43626100  0.16603600  0.92027400  1
  Al  Al3  1  0.92019500  0.89913200  0.16721400  1
  Si  Si0  1  0.07092600  0.04330900  0.96488300  1
  Si  Si1  1  0.58933800  0.94660100  0.03256900  1
  Si  Si2  1  0.84023800  0.20254400  0.46453400  1
  Si  Si3  1  0.33257900  0.47039600  0.20043000  1
  Si  Si4  1  0.89278400  0.95282800  0.45616100  1
  Si  Si5  1  0.39856100  0.45700800  0.95086400  1
  O  O0  1  0.11808100  0.87011800  0.03135800  1
  O  O1  1  0.62991900  0.03045300  0.86407500  1
  O  O2  1  0.22614300  0.12988400  0.94768000  1
  O  O3  1  0.75098000  0.86791000  0.10070400  1
  O  O4  1  0.84924200  0.32195700  0.33767700  1
  O  O5  1  0.34082200  0.34456100  0.32060400  1
  O  O6  1  0.02859400  0.07435100  0.42056100  1
  O  O7  1  0.52644500  0.43479800  0.07634500  1
  O  O8  1  0.48405500  0.10258900  0.09878900  1
  O  O9  1  0.92566100  0.08844000  0.11345500  1
  O  O10  1  0.46414800  0.84323600  0.02378700  1
  O  O11  1  0.99096200  0.04656100  0.82898100  1
  O  O12  1  0.86935300  0.90725100  0.62171800  1
  O  O13  1  0.35965000  0.62138800  0.90059700  1
  O  O14  1  0.72036100  0.08648800  0.42778800  1
  O  O15  1  0.22547400  0.42165300  0.08141700  1
  O  O16  1  0.27984200  0.63913000  0.20421900  1
  O  O17  1  0.79964800  0.21108900  0.63231500  1
  O  O18  1  0.45652700  0.33304200  0.84584600  1
  O  O19  1  0.93263400  0.84145500  0.33922600  1
loop_
_geom_bond_atom_site_label_1
_geom_bond_atom_site_label_2
_geom_bond_distance
_geom_bond_site_symmetry_2
Ca0 O7 2.417956 1_555
Ca0 O14 2.425641 1_555
Ca0 O5 2.430990 1_555
Ca0 O4 2.459334 1_555
Ca0 O9 2.523297 1_555
Ca0 O8 2.585134 1_555
Ca1 O15 2.374632 1_555
Ca1 O6 2.383585 1_555
Ca1 O4 2.413697 1_455
Ca1 O5 2.491087 1_555
Ca1 O8 2.794050 1_555
Ca1 O9 2.868413 1_455
Ca1 O2 2.884442 1_554
Al0 O10 1.706964 1_555
Al0 O13 1.774512 1_554
Al0 O16 1.789929 1_555
Al0 O0 1.812615 1_555
Al1 O11 1.732329 1_555
Al1 O12 1.775990 1_545
Al1 O17 1.786590 1_555
Al1 O1 1.831632 1_555
Al2 O18 1.725921 1_555
Al2 O2 1.740788 1_555
Al2 O1 1.835913 1_555
Al2 O8 1.869266 1_556
Al3 O3 1.710125 1_555
Al3 O19 1.722747 1_555
Al3 O0 1.821880 1_655
Al3 O9 1.862326 1_565
O0 Si0 1.728385 1_564
O1 Si1 1.743639 1_546
O2 Si0 1.606541 1_555
O3 Si1 1.589105 1_555
O4 Si2 1.596593 1_555
O5 Si3 1.594956 1_555
O6 Si4 1.722684 1_445
O6 Si2 1.747423 1_455
O7 Si5 1.722180 1_554
O7 Si3 1.742480 1_555
O8 Si1 1.697539 1_545
O9 Si0 1.685499 1_654
O10 Si1 1.577881 1_555
O11 Si0 1.583672 1_655
O12 Si4 1.604934 1_555
O13 Si5 1.603126 1_555
O14 Si4 1.728517 1_545
O14 Si2 1.734076 1_555
O15 Si5 1.726544 1_554
O15 Si3 1.738438 1_555
O16 Si3 1.609332 1_555
O17 Si2 1.605744 1_555
O18 Si5 1.600749 1_555
O19 Si4 1.599349 1_555
