# generated using pymatgen
data_Al4Cr13Si2(SbO14)2
_symmetry_space_group_name_H-M   'P 1'
_cell_length_a   12.10961206
_cell_length_b   12.10961206
_cell_length_c   8.69069288
_cell_angle_alpha   87.33952307
_cell_angle_beta   87.33952307
_cell_angle_gamma   152.50069117
_symmetry_Int_Tables_number   1
_chemical_formula_structural   Al4Cr13Si2(SbO14)2
_chemical_formula_sum   'Al4 Cr13 Si2 Sb2 O28'
_cell_volume   577.12039297
_cell_formula_units_Z   1
loop_
 _symmetry_equiv_pos_site_id
 _symmetry_equiv_pos_as_xyz
  1  'x, y, z'
loop_
 _atom_site_type_symbol
 _atom_site_label
 _atom_site_symmetry_multiplicity
 _atom_site_fract_x
 _atom_site_fract_y
 _atom_site_fract_z
 _atom_site_occupancy
  Al  Al0  1  0.07172100  0.50988000  0.66519700  1
  Al  Al1  1  0.49012000  0.92827900  0.33480300  1
  Al  Al2  1  0.92827900  0.49012000  0.33480300  1
  Al  Al3  1  0.50988000  0.07172100  0.66519700  1
  Cr  Cr0  1  0.89449700  0.60602500  0.63675400  1
  Cr  Cr1  1  0.66817000  0.80663500  0.34971900  1
  Cr  Cr2  1  0.39397500  0.10550300  0.36324600  1
  Cr  Cr3  1  0.10550300  0.39397500  0.36324600  1
  Cr  Cr4  1  0.33183000  0.19336500  0.65028100  1
  Cr  Cr5  1  0.28496100  0.71503900  0.00000000  1
  Cr  Cr6  1  0.19336500  0.33183000  0.65028100  1
  Cr  Cr7  1  0.00000000  0.00000000  0.00000000  1
  Cr  Cr8  1  0.42638400  0.57361600  0.00000000  1
  Cr  Cr9  1  0.80663500  0.66817000  0.34971900  1
  Cr  Cr10  1  0.60602500  0.89449700  0.63675400  1
  Cr  Cr11  1  0.57361600  0.42638400  0.00000000  1
  Cr  Cr12  1  0.71503900  0.28496100  0.00000000  1
  Si  Si0  1  0.23666000  0.23666000  0.32082400  1
  Si  Si1  1  0.76334000  0.76334000  0.67917600  1
  Sb  Sb0  1  0.85985300  0.14014700  0.00000000  1
  Sb  Sb1  1  0.14014700  0.85985300  0.00000000  1
  O  O0  1  0.66302900  0.96880800  0.39313400  1
  O  O1  1  0.17154100  0.62408100  0.37408800  1
  O  O2  1  0.95111400  0.95111400  0.33557200  1
  O  O3  1  0.35449800  0.35449800  0.13086900  1
  O  O4  1  0.82845900  0.37591900  0.62591200  1
  O  O5  1  0.33697100  0.03119200  0.60686600  1
  O  O6  1  0.99576400  0.55499200  0.12134700  1
  O  O7  1  0.00423600  0.44500800  0.87865300  1
  O  O8  1  0.64550200  0.64550200  0.86913100  1
  O  O9  1  0.14751700  0.28712000  0.89129900  1
  O  O10  1  0.26183500  0.38068000  0.40120600  1
  O  O11  1  0.03119200  0.33697100  0.60686600  1
  O  O12  1  0.44500800  0.00423600  0.87865300  1
  O  O13  1  0.71288000  0.85248300  0.10870100  1
  O  O14  1  0.61932000  0.73816500  0.59879400  1
  O  O15  1  0.04888600  0.04888600  0.66442800  1
  O  O16  1  0.28712000  0.14751700  0.89129900  1
  O  O17  1  0.85248300  0.71288000  0.10870100  1
  O  O18  1  0.55499200  0.99576400  0.12134700  1
  O  O19  1  0.18819400  0.47320400  0.12192200  1
  O  O20  1  0.81180600  0.52679600  0.87807800  1
  O  O21  1  0.38068000  0.26183500  0.40120600  1
  O  O22  1  0.47320400  0.18819400  0.12192200  1
  O  O23  1  0.62408100  0.17154100  0.37408800  1
  O  O24  1  0.73816500  0.61932000  0.59879400  1
  O  O25  1  0.52679600  0.81180600  0.87807800  1
  O  O26  1  0.96880800  0.66302900  0.39313400  1
  O  O27  1  0.37591900  0.82845900  0.62591200  1
loop_
_geom_bond_atom_site_label_1
_geom_bond_atom_site_label_2
_geom_bond_distance
_geom_bond_site_symmetry_2
Al0 O4 1.758716 1_455
Al0 O27 1.766111 1_555
Al0 O11 1.783444 1_555
Al0 O7 1.819716 1_555
Al1 O23 1.758716 1_565
Al1 O1 1.766111 1_555
Al1 O0 1.783444 1_555
Al1 O18 1.819716 1_555
Al2 O1 1.758716 1_655
Al2 O23 1.766111 1_555
Al2 O26 1.783444 1_555
Al2 O6 1.819716 1_555
Al3 O27 1.758716 1_545
Al3 O4 1.766111 1_555
Al3 O5 1.783444 1_555
Al3 O12 1.819716 1_555
Cr0 O20 2.058067 1_555
Cr0 O24 2.076634 1_555
Cr0 O26 2.086717 1_555
Cr0 O4 2.119234 1_555
Cr0 O5 2.468165 1_665
Cr1 O2 2.030309 1_555
Cr1 O13 2.059679 1_555
Cr1 O0 2.070375 1_555
Cr1 O14 2.137155 1_555
Cr1 O10 2.360778 1_555
Cr2 O22 2.058067 1_555
Cr2 O21 2.076634 1_555
Cr2 O5 2.086717 1_555
Cr2 O23 2.119234 1_555
Cr2 O26 2.468165 1_445
Cr3 O19 2.058067 1_555
Cr3 O10 2.076634 1_555
Cr3 O11 2.086717 1_555
Cr3 O1 2.119234 1_555
Cr3 O0 2.468165 1_445
Cr4 O15 2.030309 1_555
Cr4 O16 2.059679 1_555
Cr4 O5 2.070375 1_555
Cr4 O21 2.137155 1_555
Cr4 O24 2.360778 1_555
Cr5 O18 2.072143 1_555
Cr5 O7 2.072143 1_554
Cr5 O6 2.135237 1_455
Cr5 O12 2.135237 1_564
Cr5 O25 2.140301 1_554
Cr5 O19 2.140301 1_555
Cr6 O15 2.030309 1_555
Cr6 O9 2.059679 1_555
Cr6 O11 2.070375 1_555
Cr6 O10 2.137155 1_555
Cr6 O14 2.360778 1_555
Cr7 O17 2.166163 1_445
Cr7 O13 2.166163 1_445
Cr7 O9 2.166163 1_554
Cr7 O16 2.166163 1_554
Cr7 O3 2.522753 1_555
Cr7 O8 2.522753 1_444
Cr8 O13 2.036861 1_555
Cr8 O9 2.036861 1_554
Cr8 O19 2.072583 1_555
Cr8 O25 2.072583 1_554
Cr8 O3 2.149938 1_555
Cr8 O8 2.149938 1_554
Cr9 O2 2.030309 1_555
Cr9 O17 2.059679 1_555
Cr9 O26 2.070375 1_555
Cr9 O24 2.137155 1_555
Cr9 O21 2.360778 1_555
Cr10 O25 2.058067 1_555
Cr10 O14 2.076634 1_555
Cr10 O0 2.086717 1_555
Cr10 O27 2.119234 1_555
Cr10 O11 2.468165 1_665
Cr11 O17 2.036861 1_555
Cr11 O16 2.036861 1_554
Cr11 O22 2.072583 1_555
Cr11 O20 2.072583 1_554
Cr11 O3 2.149938 1_555
Cr11 O8 2.149938 1_554
Cr12 O6 2.072143 1_555
Cr12 O12 2.072143 1_554
Cr12 O18 2.135237 1_545
Cr12 O7 2.135237 1_654
Cr12 O20 2.140301 1_554
Cr12 O22 2.140301 1_555
O2 Si0 1.623567 1_665
O3 Si0 1.657715 1_555
O6 Sb1 2.411354 1_655
O7 Sb0 2.411354 1_456
O8 Si1 1.657715 1_555
O9 Sb0 2.175880 1_456
O10 Si0 1.676969 1_555
O12 Sb1 2.411354 1_546
O13 Sb0 2.175880 1_565
O14 Si1 1.676969 1_555
O15 Si1 1.623567 1_445
O16 Sb1 2.175880 1_546
O17 Sb1 2.175880 1_655
O18 Sb0 2.411354 1_565
O19 Sb0 2.353191 1_455
O20 Sb1 2.353191 1_656
O21 Si0 1.676969 1_555
O22 Sb1 2.353191 1_545
O24 Si1 1.676969 1_555
O25 Sb0 2.353191 1_566
