# generated using pymatgen
data_BaSrY(CuO2)4
_symmetry_space_group_name_H-M   'P 1'
_cell_length_a   13.76317166
_cell_length_b   13.76317166
_cell_length_c   3.84031500
_cell_angle_alpha   90.00000000
_cell_angle_beta   90.00000000
_cell_angle_gamma   163.73444959
_symmetry_Int_Tables_number   1
_chemical_formula_structural   BaSrY(CuO2)4
_chemical_formula_sum   'Ba1 Sr1 Y1 Cu4 O8'
_cell_volume   203.75150899
_cell_formula_units_Z   1
loop_
 _symmetry_equiv_pos_site_id
 _symmetry_equiv_pos_as_xyz
  1  'x, y, z'
loop_
 _atom_site_type_symbol
 _atom_site_label
 _atom_site_symmetry_multiplicity
 _atom_site_fract_x
 _atom_site_fract_y
 _atom_site_fract_z
 _atom_site_occupancy
  Ba  Ba0  1  0.63646500  0.36353500  0.50000000  1
  Sr  Sr0  1  0.36532200  0.63467800  0.50000000  1
  Y  Y0  1  0.49914500  0.50085500  0.50000000  1
  Cu  Cu0  1  0.21328500  0.78671500  0.00000000  1
  Cu  Cu1  1  0.78893900  0.21106100  0.00000000  1
  Cu  Cu2  1  0.06161800  0.93838200  0.00000000  1
  Cu  Cu3  1  0.93660700  0.06339300  0.00000000  1
  O  O0  1  0.14517000  0.85483000  0.00000000  1
  O  O1  1  0.85675800  0.14324200  0.00000000  1
  O  O2  1  0.55170300  0.44829700  0.00000000  1
  O  O3  1  0.44496600  0.55503400  0.00000000  1
  O  O4  1  0.05146400  0.94853600  0.50000000  1
  O  O5  1  0.94579700  0.05420300  0.50000000  1
  O  O6  1  0.71943600  0.28056400  0.00000000  1
  O  O7  1  0.28332500  0.71667500  0.00000000  1
loop_
_geom_bond_atom_site_label_1
_geom_bond_atom_site_label_2
_geom_bond_distance
_geom_bond_site_symmetry_2
Ba0 O0 2.744858 1_656
Ba0 O0 2.744858 1_546
Ba0 O0 2.744858 1_655
Ba0 O0 2.744858 1_545
Ba0 O6 2.966270 1_556
Ba0 O6 2.966270 1_555
Ba0 O2 3.003635 1_555
Ba0 O2 3.003635 1_556
Ba0 O4 3.025875 1_545
Ba0 O4 3.025875 1_655
Cu0 O0 1.856100 1_555
Cu0 O7 1.908556 1_555
Cu0 O6 1.954243 1_455
Cu0 O6 1.954243 1_565
Cu1 O1 1.848034 1_555
Cu1 O6 1.893923 1_555
Cu1 O7 1.953043 1_655
Cu1 O7 1.953043 1_545
Cu2 O4 1.939990 1_555
Cu2 O4 1.939990 1_554
Cu2 O2 1.965698 1_565
Cu2 O2 1.965698 1_455
Cu2 O0 2.276751 1_555
Cu3 O5 1.936418 1_555
Cu3 O5 1.936418 1_554
Cu3 O3 1.960320 1_545
Cu3 O3 1.960320 1_655
Cu3 O1 2.175846 1_555
O1 Sr0 2.744528 1_654
O1 Sr0 2.744528 1_655
O1 Sr0 2.744528 1_544
O1 Sr0 2.744528 1_545
O2 Y0 2.395442 1_554
O2 Y0 2.395442 1_555
O3 Y0 2.422110 1_555
O3 Y0 2.422110 1_554
O3 Sr0 2.897763 1_554
O3 Sr0 2.897763 1_555
O4 Y0 2.413193 1_565
O4 Y0 2.413193 1_455
O5 Y0 2.429863 1_655
O5 Y0 2.429863 1_545
O5 Sr0 2.932542 1_655
O5 Sr0 2.932542 1_545
O7 Sr0 2.946091 1_554
O7 Sr0 2.946091 1_555
