# generated using pymatgen
data_Mg4Si7
_symmetry_space_group_name_H-M   'P 1'
_cell_length_a   12.79378542
_cell_length_b   12.79378542
_cell_length_c   8.74459165
_cell_angle_alpha   80.71672769
_cell_angle_beta   80.71672769
_cell_angle_gamma   16.24077503
_symmetry_Int_Tables_number   1
_chemical_formula_structural   Mg4Si7
_chemical_formula_sum   'Mg8 Si14'
_cell_volume   394.95415523
_cell_formula_units_Z   2
loop_
 _symmetry_equiv_pos_site_id
 _symmetry_equiv_pos_as_xyz
  1  'x, y, z'
loop_
 _atom_site_type_symbol
 _atom_site_label
 _atom_site_symmetry_multiplicity
 _atom_site_fract_x
 _atom_site_fract_y
 _atom_site_fract_z
 _atom_site_occupancy
  Mg  Mg0  1  0.38086200  0.38086200  0.02169000  1
  Mg  Mg1  1  0.15491400  0.15491400  0.70253300  1
  Mg  Mg2  1  0.54130800  0.54130800  0.86563800  1
  Mg  Mg3  1  0.72416800  0.72416800  0.40926500  1
  Mg  Mg4  1  0.31507400  0.31507400  0.50622800  1
  Mg  Mg5  1  0.00697900  0.00697900  0.36717600  1
  Mg  Mg6  1  0.60538100  0.60538100  0.43548500  1
  Mg  Mg7  1  0.69997400  0.69997400  0.00799700  1
  Si  Si0  1  0.85301000  0.85301000  0.78091500  1
  Si  Si1  1  0.41460500  0.41460500  0.30480100  1
  Si  Si2  1  0.96883200  0.96883200  0.09588700  1
  Si  Si3  1  0.90449700  0.90449700  0.51516200  1
  Si  Si4  1  0.17044700  0.17044700  0.24518500  1
  Si  Si5  1  0.11369100  0.11369100  0.03264400  1
  Si  Si6  1  0.46750100  0.46750100  0.62796500  1
  Si  Si7  1  0.82514600  0.82514600  0.23728500  1
  Si  Si8  1  0.28734200  0.28734200  0.86176700  1
  Si  Si9  1  0.95032300  0.95032300  0.83120600  1
  Si  Si10  1  0.04697100  0.04697100  0.63413700  1
  Si  Si11  1  0.74688700  0.74688700  0.70922100  1
  Si  Si12  1  0.26872900  0.26872900  0.15438400  1
  Si  Si13  1  0.55772100  0.55772100  0.14975900  1
loop_
_geom_bond_atom_site_label_1
_geom_bond_atom_site_label_2
_geom_bond_distance
_geom_bond_site_symmetry_2
Mg0 Si1 2.747591 1_555
Mg0 Si7 2.818672 1_455
Mg0 Si7 2.818672 1_545
Mg0 Si9 2.860275 1_544
Mg0 Si9 2.860275 1_454
Mg0 Si12 2.887975 1_555
Mg0 Si8 2.940632 1_554
Mg0 Si0 2.946313 1_454
Mg0 Si0 2.946313 1_544
Mg0 Si2 3.020537 1_455
Mg0 Si2 3.020537 1_545
Mg1 Si10 2.892596 1_555
Mg1 Si5 2.905337 1_556
Mg1 Si11 2.956603 1_455
Mg1 Si11 2.956603 1_545
Mg2 Si13 2.585023 1_556
Mg2 Si10 2.699984 1_655
Mg2 Si10 2.699984 1_565
Mg2 Si9 2.982365 1_545
Mg2 Si9 2.982365 1_455
Mg2 Si6 3.013524 1_555
Mg2 Si2 3.079869 1_546
Mg2 Si2 3.079869 1_456
Mg2 Si5 3.103728 1_656
Mg2 Si5 3.103728 1_566
Mg3 Si7 2.747866 1_555
Mg3 Si11 2.775471 1_555
Mg3 Si4 2.795113 1_655
Mg3 Si4 2.795113 1_565
Mg3 Si12 2.947500 1_655
Mg3 Si12 2.947500 1_565
Mg4 Si1 2.830512 1_555
Mg4 Si11 2.898442 1_455
Mg4 Si11 2.898442 1_545
Mg4 Si3 2.908719 1_545
Mg4 Si3 2.908719 1_455
Mg4 Si7 2.943866 1_455
Mg4 Si7 2.943866 1_545
Mg4 Si8 3.073736 1_555
Mg5 Si10 2.691968 1_555
Mg5 Si2 2.703458 1_445
Mg5 Si3 2.705345 1_445
Mg5 Si13 2.781404 1_545
Mg5 Si13 2.781404 1_455
Mg5 Si6 2.953526 1_545
Mg5 Si6 2.953526 1_455
Mg5 Si1 3.074828 1_455
Mg5 Si1 3.074828 1_545
Mg6 Si10 2.763152 1_655
Mg6 Si10 2.763152 1_565
Mg6 Si4 2.803165 1_565
Mg6 Si4 2.803165 1_655
Mg6 Si13 2.946754 1_555
Mg7 Si11 2.688198 1_554
Mg7 Si4 2.760733 1_565
Mg7 Si4 2.760733 1_655
Mg7 Si5 2.817053 1_655
Mg7 Si5 2.817053 1_565
Mg7 Si12 2.943529 1_565
Mg7 Si12 2.943529 1_655
Mg7 Si8 2.979362 1_564
Mg7 Si8 2.979362 1_654
Si0 Si3 2.472599 1_555
Si0 Si8 2.479812 1_565
Si0 Si8 2.479812 1_655
Si0 Si9 2.573539 1_555
Si1 Si3 2.561591 1_545
Si1 Si3 2.561591 1_455
Si1 Si2 2.769896 1_455
Si1 Si2 2.769896 1_545
Si2 Si9 2.435265 1_554
Si3 Si6 2.701666 1_565
Si3 Si6 2.701666 1_655
Si4 Si5 2.528261 1_555
Si6 Si9 2.522264 1_455
Si6 Si9 2.522264 1_545
Si10 Si6 2.712299 1_545
Si10 Si6 2.712299 1_455
Si10 Si9 2.754708 1_445
Si11 Si8 2.557524 1_565
Si11 Si8 2.557524 1_655
Si12 Si7 2.484219 1_455
Si12 Si7 2.484219 1_545
Si12 Si4 2.486817 1_555
Si12 Si8 2.525205 1_554
Si13 Si5 2.419003 1_565
Si13 Si5 2.419003 1_655
