# generated using pymatgen
data_Bi2Pd3S2
_symmetry_space_group_name_H-M   'P 1'
_cell_length_a   7.27705101
_cell_length_b   7.27705101
_cell_length_c   7.28659957
_cell_angle_alpha   110.42884463
_cell_angle_beta   108.54160603
_cell_angle_gamma   109.39553810
_symmetry_Int_Tables_number   1
_chemical_formula_structural   Bi2Pd3S2
_chemical_formula_sum   'Bi4 Pd6 S4'
_cell_volume   297.15319242
_cell_formula_units_Z   2
loop_
 _symmetry_equiv_pos_site_id
 _symmetry_equiv_pos_as_xyz
  1  'x, y, z'
loop_
 _atom_site_type_symbol
 _atom_site_label
 _atom_site_symmetry_multiplicity
 _atom_site_fract_x
 _atom_site_fract_y
 _atom_site_fract_z
 _atom_site_occupancy
  Bi  Bi0  1  0.74683101  0.98714699  0.73398000  1
  Bi  Bi1  1  0.25316899  0.01285301  0.26602000  1
  Bi  Bi2  1  0.78116294  0.50268452  0.28384746  1
  Bi  Bi3  1  0.21883706  0.49731548  0.71615254  1
  Pd  Pd0  1  -0.00000000  -0.00000000  0.50000000  1
  Pd  Pd1  1  0.50000000  0.50000000  0.50000000  1
  Pd  Pd2  1  0.97030466  0.22099220  0.19129686  1
  Pd  Pd3  1  0.02969534  0.77900780  0.80870314  1
  Pd  Pd4  1  0.27718403  0.77718503  0.50000000  1
  Pd  Pd5  1  0.72281497  0.22281597  0.50000000  1
  S  S0  1  0.25494525  0.49734595  0.19780544  1
  S  S1  1  0.70046049  0.94286119  0.19780544  1
  S  S2  1  0.74505475  0.50265405  0.80219456  1
  S  S3  1  0.29953951  0.05713881  0.80219456  1
loop_
_geom_bond_atom_site_label_1
_geom_bond_atom_site_label_2
_geom_bond_distance
_geom_bond_site_symmetry_2
Bi0 Pd2 2.720575 1_566
Bi0 Pd4 2.815860 1_555
Bi0 Pd5 2.815871 1_565
Bi0 Pd1 2.881683 1_555
Bi0 Pd0 2.881695 1_665
Bi0 Pd3 2.959954 1_655
Bi1 Pd3 2.720575 1_544
Bi1 Pd5 2.815853 1_555
Bi1 Pd4 2.815865 1_545
Bi1 Pd1 2.881683 1_555
Bi1 Pd0 2.881695 1_555
Bi1 Pd2 2.959954 1_455
Bi2 Pd2 2.837345 1_555
Bi2 Pd1 2.951568 1_555
Bi2 Pd0 2.951568 1_665
Bi2 Pd4 2.983121 1_655
Bi2 Pd5 2.983121 1_555
Bi2 Pd3 3.123726 1_655
Bi3 Pd3 2.837345 1_555
Bi3 Pd1 2.951568 1_555
Bi3 Pd0 2.951568 1_555
Bi3 Pd4 2.983126 1_555
Bi3 Pd5 2.983126 1_455
Bi3 Pd2 3.123726 1_455
Pd0 S3 2.340772 1_555
Pd0 S1 2.340772 1_445
Pd1 S2 2.340773 1_555
Pd1 S0 2.340773 1_555
Pd2 S1 2.332647 1_545
Pd2 S0 2.332656 1_655
Pd3 S3 2.332647 1_565
Pd3 S2 2.332656 1_455
Pd4 S3 2.333657 1_565
Pd4 S0 2.333664 1_555
Pd5 S2 2.333657 1_555
Pd5 S1 2.333664 1_545
