# generated using pymatgen
data_Mg(AgO2)2
_symmetry_space_group_name_H-M   'P 1'
_cell_length_a   6.27368090
_cell_length_b   6.27368090
_cell_length_c   20.99836289
_cell_angle_alpha   82.29886272
_cell_angle_beta   82.29886272
_cell_angle_gamma   62.55449185
_symmetry_Int_Tables_number   1
_chemical_formula_structural   Mg(AgO2)2
_chemical_formula_sum   'Mg8 Ag16 O32'
_cell_volume   724.38404609
_cell_formula_units_Z   8
loop_
 _symmetry_equiv_pos_site_id
 _symmetry_equiv_pos_as_xyz
  1  'x, y, z'
loop_
 _atom_site_type_symbol
 _atom_site_label
 _atom_site_symmetry_multiplicity
 _atom_site_fract_x
 _atom_site_fract_y
 _atom_site_fract_z
 _atom_site_occupancy
  Mg  Mg0  1  0.85826300  0.85826300  0.96995000  1
  Mg  Mg1  1  0.37649700  0.37649700  0.87539300  1
  Mg  Mg2  1  0.60763100  0.60763100  0.71965500  1
  Mg  Mg3  1  0.12636300  0.12636300  0.62507800  1
  Mg  Mg4  1  0.87528300  0.87528300  0.37513300  1
  Mg  Mg5  1  0.00031100  0.00031100  0.49903400  1
  Mg  Mg6  1  0.62607900  0.62607900  0.12484500  1
  Mg  Mg7  1  0.74940800  0.74940800  0.25073300  1
  Ag  Ag0  1  0.37711500  0.87233200  0.87538300  1
  Ag  Ag1  1  0.25236900  0.25236900  0.74842500  1
  Ag  Ag2  1  0.87233200  0.37711500  0.87538300  1
  Ag  Ag3  1  0.35737000  0.35737000  0.46643800  1
  Ag  Ag4  1  0.12419400  0.63053400  0.62359300  1
  Ag  Ag5  1  0.89815100  0.89815100  0.78121200  1
  Ag  Ag6  1  0.10818400  0.10818400  0.21800500  1
  Ag  Ag7  1  0.63053400  0.12419400  0.62359300  1
  Ag  Ag8  1  0.87475200  0.37483100  0.37528200  1
  Ag  Ag9  1  0.64298600  0.64298600  0.53185300  1
  Ag  Ag10  1  0.37483100  0.87475200  0.37528200  1
  Ag  Ag11  1  0.11704700  0.62786500  0.12638400  1
  Ag  Ag12  1  0.62786500  0.11704700  0.12638400  1
  Ag  Ag13  1  0.39244300  0.39244300  0.28350100  1
  Ag  Ag14  1  0.49977200  0.49977200  0.00018400  1
  Ag  Ag15  1  0.14832600  0.14832600  0.03222000  1
  O  O0  1  0.66987800  0.21539300  0.93395600  1
  O  O1  1  0.55880600  0.55880600  0.81939200  1
  O  O2  1  0.21539300  0.66987800  0.93395600  1
  O  O3  1  0.69009800  0.69009800  0.93736600  1
  O  O4  1  0.07406700  0.07406700  0.81299000  1
  O  O5  1  0.42591700  0.96834300  0.68409900  1
  O  O6  1  0.51495900  0.08252200  0.81518900  1
  O  O7  1  0.31323700  0.31323700  0.57441900  1
  O  O8  1  0.96834300  0.42591700  0.68409900  1
  O  O9  1  0.18735800  0.18735800  0.92572500  1
  O  O10  1  0.43749000  0.43749000  0.68550600  1
  O  O11  1  0.08252200  0.51495900  0.81518900  1
  O  O12  1  0.16340200  0.73877300  0.43320500  1
  O  O13  1  0.82218000  0.82218000  0.56385600  1
  O  O14  1  0.26438700  0.83670400  0.56658700  1
  O  O15  1  0.06173200  0.06173200  0.32258700  1
  O  O16  1  0.73877300  0.16340200  0.43320500  1
  O  O17  1  0.93900200  0.93900200  0.67529100  1
  O  O18  1  0.17465900  0.17465900  0.43338000  1
  O  O19  1  0.83670400  0.26438700  0.56658700  1
  O  O20  1  0.57472700  0.57472700  0.31718300  1
  O  O21  1  0.91037400  0.48849800  0.18292200  1
  O  O22  1  0.01175700  0.58527300  0.31736000  1
  O  O23  1  0.80689700  0.80689700  0.06706700  1
  O  O24  1  0.48849800  0.91037400  0.18292200  1
  O  O25  1  0.68771300  0.68771300  0.42777300  1
  O  O26  1  0.92480600  0.92480600  0.18580600  1
  O  O27  1  0.58527300  0.01175700  0.31736000  1
  O  O28  1  0.32232000  0.32232000  0.06868200  1
  O  O29  1  0.76429300  0.32869800  0.06737200  1
  O  O30  1  0.43757000  0.43757000  0.17865900  1
  O  O31  1  0.32869800  0.76429300  0.06737200  1
loop_
_geom_bond_atom_site_label_1
_geom_bond_atom_site_label_2
_geom_bond_distance
_geom_bond_site_symmetry_2
Mg0 O3 2.026624 1_555
Mg0 O23 2.027289 1_556
Mg0 O0 2.081489 1_565
Mg0 O2 2.081489 1_655
Mg1 O2 2.116641 1_555
Mg1 O0 2.116641 1_555
Mg1 O1 2.117563 1_555
Mg1 O9 2.135120 1_555
Mg1 O11 2.146614 1_555
Mg1 O6 2.146614 1_555
Mg2 O10 2.062396 1_555
Mg2 O1 2.077602 1_555
Mg2 O8 2.091738 1_555
Mg2 O5 2.091738 1_555
Mg3 O19 2.103155 1_455
Mg3 O14 2.103155 1_545
Mg3 O7 2.116386 1_555
Mg3 O17 2.117634 1_445
Mg3 O8 2.151303 1_455
Mg3 O5 2.151303 1_545
Mg4 O12 2.090834 1_655
Mg4 O16 2.090834 1_565
Mg4 O22 2.095781 1_655
Mg4 O27 2.095781 1_565
Mg4 O15 2.126827 1_665
Mg4 O25 2.137888 1_555
Mg5 O16 2.081139 1_455
Mg5 O12 2.081139 1_545
Mg5 O14 2.117198 1_545
Mg5 O19 2.117198 1_455
Mg5 O18 2.141959 1_555
Mg5 O13 2.164808 1_445
Mg6 O24 2.072468 1_555
Mg6 O21 2.072468 1_555
Mg6 O23 2.119945 1_555
Mg6 O31 2.126219 1_555
Mg6 O29 2.126219 1_555
Mg6 O30 2.155728 1_555
Mg7 O22 2.096522 1_655
Mg7 O27 2.096522 1_565
Mg7 O24 2.107658 1_555
Mg7 O21 2.107658 1_555
Mg7 O26 2.143011 1_555
Mg7 O20 2.153220 1_555
Ag0 O6 2.096642 1_565
Ag0 O9 2.120033 1_565
Ag0 O2 2.142464 1_555
Ag0 O1 2.178167 1_555
Ag0 O4 2.222172 1_565
Ag0 O3 2.252425 1_555
Ag1 O6 2.101250 1_555
Ag1 O11 2.101250 1_555
Ag1 O5 2.155828 1_545
Ag1 O8 2.155828 1_455
Ag1 O4 2.163607 1_555
Ag1 O10 2.205468 1_555
Ag2 O11 2.096642 1_655
Ag2 O9 2.120033 1_655
Ag2 O0 2.142464 1_555
Ag2 O1 2.178167 1_555
Ag2 O4 2.222172 1_655
Ag2 O3 2.252425 1_555
Ag3 O18 2.178864 1_555
Ag3 O12 2.188439 1_555
Ag3 O16 2.188439 1_555
Ag3 O7 2.242473 1_555
Ag4 O14 2.056937 1_555
Ag4 O17 2.103770 1_455
Ag4 O7 2.117018 1_555
Ag4 O8 2.145947 1_455
Ag4 O13 2.177591 1_455
Ag4 O10 2.255830 1_555
Ag5 O4 2.097344 1_665
Ag5 O6 2.196473 1_565
Ag5 O11 2.196473 1_655
Ag5 O17 2.198474 1_555
Ag6 O15 2.174336 1_555
Ag6 O26 2.177440 1_445
Ag6 O24 2.195473 1_545
Ag6 O21 2.195473 1_455
Ag7 O19 2.056937 1_555
Ag7 O17 2.103770 1_545
Ag7 O7 2.117018 1_555
Ag7 O5 2.145947 1_545
Ag7 O13 2.177591 1_545
Ag7 O10 2.255830 1_555
Ag8 O22 2.072835 1_655
Ag8 O16 2.073443 1_555
Ag8 O25 2.134214 1_555
Ag8 O15 2.137622 1_655
Ag8 O18 2.152207 1_655
Ag8 O20 2.152544 1_555
Ag9 O13 2.132897 1_555
Ag9 O25 2.162819 1_555
Ag9 O14 2.182412 1_555
Ag9 O19 2.182412 1_555
Ag10 O27 2.072835 1_565
Ag10 O12 2.073443 1_555
Ag10 O25 2.134214 1_555
Ag10 O15 2.137622 1_565
Ag10 O18 2.152207 1_565
Ag10 O20 2.152544 1_555
Ag11 O21 2.051677 1_455
Ag11 O31 2.086531 1_555
Ag11 O26 2.151859 1_455
Ag11 O30 2.168215 1_555
Ag11 O28 2.174795 1_555
Ag11 O23 2.204324 1_455
Ag12 O24 2.051677 1_545
Ag12 O29 2.086531 1_555
Ag12 O26 2.151859 1_545
Ag12 O30 2.168215 1_555
Ag12 O28 2.174795 1_555
Ag12 O23 2.204324 1_545
Ag13 O30 2.178703 1_555
Ag13 O20 2.180579 1_555
Ag13 O22 2.187480 1_555
Ag13 O27 2.187480 1_555
Ag14 O31 2.115704 1_555
Ag14 O29 2.115704 1_555
Ag14 O2 2.183577 1_554
Ag14 O0 2.183577 1_554
Ag14 O28 2.198128 1_555
Ag14 O3 2.249767 1_554
Ag15 O28 2.125015 1_555
Ag15 O29 2.205478 1_455
Ag15 O31 2.205478 1_545
Ag15 O9 2.209607 1_554
