# generated using pymatgen
data_Rb7Fe7P8(HO9)4
_symmetry_space_group_name_H-M   'P 1'
_cell_length_a   8.33192700
_cell_length_b   22.54221900
_cell_length_c   10.13253554
_cell_angle_alpha   90.00000000
_cell_angle_beta   108.85832991
_cell_angle_gamma   90.00000000
_symmetry_Int_Tables_number   1
_chemical_formula_structural   Rb7Fe7P8(HO9)4
_chemical_formula_sum   'Rb14 Fe14 P16 H8 O72'
_cell_volume   1800.93729157
_cell_formula_units_Z   2
loop_
 _symmetry_equiv_pos_site_id
 _symmetry_equiv_pos_as_xyz
  1  'x, y, z'
loop_
 _atom_site_type_symbol
 _atom_site_label
 _atom_site_symmetry_multiplicity
 _atom_site_fract_x
 _atom_site_fract_y
 _atom_site_fract_z
 _atom_site_occupancy
  Rb  Rb0  1  0.50000000  0.00000000  0.00000000  1
  Rb  Rb1  1  0.50000000  0.50000000  0.50000000  1
  Rb  Rb2  1  0.36845900  0.85525000  0.23302400  1
  Rb  Rb3  1  0.63154100  0.35525000  0.26697600  1
  Rb  Rb4  1  0.63154100  0.14475000  0.76697600  1
  Rb  Rb5  1  0.36845900  0.64475000  0.73302400  1
  Rb  Rb6  1  0.07248500  0.75691300  0.39872500  1
  Rb  Rb7  1  0.92751500  0.25691300  0.10127500  1
  Rb  Rb8  1  0.92751500  0.24308700  0.60127500  1
  Rb  Rb9  1  0.07248500  0.74308700  0.89872500  1
  Rb  Rb10  1  0.87744500  0.93543100  0.39176200  1
  Rb  Rb11  1  0.12255500  0.43543100  0.10823800  1
  Rb  Rb12  1  0.12255500  0.06456900  0.60823800  1
  Rb  Rb13  1  0.87744500  0.56456900  0.89176200  1
  Fe  Fe0  1  0.00000000  0.00000000  0.00000000  1
  Fe  Fe1  1  0.00000000  0.50000000  0.50000000  1
  Fe  Fe2  1  0.60384300  0.07788200  0.38451200  1
  Fe  Fe3  1  0.39615700  0.57788200  0.11548800  1
  Fe  Fe4  1  0.39615700  0.92211800  0.61548800  1
  Fe  Fe5  1  0.60384300  0.42211800  0.88451200  1
  Fe  Fe6  1  0.48432400  0.16645000  0.07859700  1
  Fe  Fe7  1  0.51567600  0.66645000  0.42140300  1
  Fe  Fe8  1  0.51567600  0.83355000  0.92140300  1
  Fe  Fe9  1  0.48432400  0.33355000  0.57859700  1
  Fe  Fe10  1  0.22025200  0.12438900  0.21641400  1
  Fe  Fe11  1  0.77974800  0.62438900  0.28358600  1
  Fe  Fe12  1  0.77974800  0.87561100  0.78358600  1
  Fe  Fe13  1  0.22025200  0.37561100  0.71641400  1
  P  P0  1  0.50163300  0.21233400  0.37599200  1
  P  P1  1  0.49836700  0.71233400  0.12400800  1
  P  P2  1  0.49836700  0.78766600  0.62400800  1
  P  P3  1  0.50163300  0.28766600  0.87599200  1
  P  P4  1  0.15698800  0.13415500  0.92660800  1
  P  P5  1  0.84301200  0.63415500  0.57339200  1
  P  P6  1  0.84301200  0.86584500  0.07339200  1
  P  P7  1  0.15698800  0.36584500  0.42660800  1
  P  P8  1  0.84191800  0.09144400  0.18884100  1
  P  P9  1  0.15808200  0.59144400  0.31115900  1
  P  P10  1  0.15808200  0.90855600  0.81115900  1
  P  P11  1  0.84191800  0.40855600  0.68884100  1
  P  P12  1  0.30743700  0.99494300  0.31893500  1
  P  P13  1  0.69256300  0.49494300  0.18106500  1
  P  P14  1  0.69256300  0.00505700  0.68106500  1
  P  P15  1  0.30743700  0.50505700  0.81893500  1
  H  H0  1  0.25389100  0.18704200  0.49157800  1
  H  H1  1  0.74610900  0.68704200  0.00842200  1
  H  H2  1  0.74610900  0.81295800  0.50842200  1
  H  H3  1  0.25389100  0.31295800  0.99157800  1
  H  H4  1  0.28498600  0.21892400  0.63186400  1
  H  H5  1  0.71501400  0.71892400  0.86813600  1
  H  H6  1  0.71501400  0.78107600  0.36813600  1
  H  H7  1  0.28498600  0.28107600  0.13186400  1
  O  O0  1  0.61066700  0.16087300  0.46388600  1
  O  O1  1  0.38933300  0.66087300  0.03611400  1
  O  O2  1  0.38933300  0.83912700  0.53611400  1
  O  O3  1  0.61066700  0.33912700  0.96388600  1
  O  O4  1  0.30889500  0.19642500  0.33854800  1
  O  O5  1  0.69110500  0.69642500  0.16145200  1
  O  O6  1  0.69110500  0.80357500  0.66145200  1
  O  O7  1  0.30889500  0.30357500  0.83854800  1
  O  O8  1  0.54811600  0.22408700  0.24077000  1
  O  O9  1  0.45188400  0.72408700  0.25923000  1
  O  O10  1  0.45188400  0.77591300  0.75923000  1
  O  O11  1  0.54811600  0.27591300  0.74077000  1
  O  O12  1  0.45704300  0.73015200  0.53703400  1
  O  O13  1  0.54295700  0.23015200  0.96296600  1
  O  O14  1  0.54295700  0.26984800  0.46296600  1
  O  O15  1  0.45704300  0.76984800  0.03703400  1
  O  O16  1  0.10984200  0.08201100  0.01270000  1
  O  O17  1  0.89015800  0.58201100  0.48730000  1
  O  O18  1  0.89015800  0.91798900  0.98730000  1
  O  O19  1  0.10984200  0.41798900  0.51270000  1
  O  O20  1  0.01169600  0.15158600  0.79944900  1
  O  O21  1  0.98830400  0.65158600  0.70055100  1
  O  O22  1  0.98830400  0.84841400  0.20055100  1
  O  O23  1  0.01169600  0.34841400  0.29944900  1
  O  O24  1  0.21296600  0.18355900  0.04587100  1
  O  O25  1  0.78703400  0.68355900  0.45412900  1
  O  O26  1  0.78703400  0.81644100  0.95412900  1
  O  O27  1  0.21296600  0.31644100  0.54587100  1
  O  O28  1  0.32772200  0.11986700  0.90083200  1
  O  O29  1  0.67227800  0.61986700  0.59916800  1
  O  O30  1  0.67227800  0.88013300  0.09916800  1
  O  O31  1  0.32772200  0.38013300  0.40083200  1
  O  O32  1  0.88111800  0.03168200  0.13106300  1
  O  O33  1  0.11888200  0.53168200  0.36893700  1
  O  O34  1  0.11888200  0.96831800  0.86893700  1
  O  O35  1  0.88111800  0.46831800  0.63106300  1
  O  O36  1  0.68828700  0.12134100  0.07883600  1
  O  O37  1  0.31171300  0.62134100  0.42116400  1
  O  O38  1  0.31171300  0.87865900  0.92116400  1
  O  O39  1  0.68828700  0.37865900  0.57883600  1
  O  O40  1  0.80373600  0.07617300  0.32643600  1
  O  O41  1  0.19626400  0.57617300  0.17356400  1
  O  O42  1  0.19626400  0.92382700  0.67356400  1
  O  O43  1  0.80373600  0.42382700  0.82643600  1
  O  O44  1  0.98990600  0.13673200  0.22478800  1
  O  O45  1  0.01009400  0.63673200  0.27521200  1
  O  O46  1  0.01009400  0.86326800  0.77521200  1
  O  O47  1  0.98990600  0.36326800  0.72478800  1
  O  O48  1  0.72653400  0.05099600  0.57879500  1
  O  O49  1  0.27346600  0.55099600  0.92120500  1
  O  O50  1  0.27346600  0.94900400  0.42120500  1
  O  O51  1  0.72653400  0.44900400  0.07879500  1
  O  O52  1  0.25771700  0.05823900  0.35613100  1
  O  O53  1  0.74228300  0.55823900  0.14386900  1
  O  O54  1  0.74228300  0.94176100  0.64386900  1
  O  O55  1  0.25771700  0.44176100  0.85613100  1
  O  O56  1  0.50118200  0.99551900  0.33627100  1
  O  O57  1  0.49881800  0.49551900  0.16372900  1
  O  O58  1  0.49881800  0.00448100  0.66372900  1
  O  O59  1  0.50118200  0.50448100  0.83627100  1
  O  O60  1  0.20468900  0.97677100  0.16821900  1
  O  O61  1  0.79531100  0.47677100  0.33178100  1
  O  O62  1  0.79531100  0.02322900  0.83178100  1
  O  O63  1  0.20468900  0.52322900  0.66821900  1
  O  O64  1  0.44657000  0.10647700  0.20789100  1
  O  O65  1  0.55343000  0.60647700  0.29210900  1
  O  O66  1  0.55343000  0.89352300  0.79210900  1
  O  O67  1  0.44657000  0.39352300  0.70789100  1
  O  O68  1  0.24086100  0.18165900  0.58488300  1
  O  O69  1  0.75913900  0.68165900  0.91511700  1
  O  O70  1  0.75913900  0.81834100  0.41511700  1
  O  O71  1  0.24086100  0.31834100  0.08488300  1
loop_
_geom_bond_atom_site_label_1
_geom_bond_atom_site_label_2
_geom_bond_distance
_geom_bond_site_symmetry_2
Fe0 O32 2.026110 1_455
Fe0 O34 2.026110 1_544
Fe0 O16 2.048350 1_555
Fe0 O18 2.048350 1_444
Fe0 O60 2.051543 1_545
Fe0 O62 2.051543 1_454
Fe1 O35 2.026110 1_455
Fe1 O33 2.026110 1_555
Fe1 O17 2.048350 1_455
Fe1 O19 2.048350 1_555
Fe1 O63 2.051543 1_555
Fe1 O61 2.051543 1_455
Fe2 O40 1.937837 1_555
Fe2 O64 1.954315 1_555
Fe2 O48 1.996673 1_555
Fe2 O0 2.029878 1_555
Fe2 O56 2.036521 1_545
Fe3 O41 1.937837 1_555
Fe3 O65 1.954315 1_555
Fe3 O49 1.996673 1_554
Fe3 O1 2.029878 1_555
Fe3 O57 2.036521 1_555
Fe4 O42 1.937837 1_555
Fe4 O66 1.954315 1_555
Fe4 O50 1.996673 1_555
Fe4 O2 2.029878 1_555
Fe4 O58 2.036521 1_565
Fe5 O43 1.937837 1_555
Fe5 O67 1.954315 1_555
Fe5 O51 1.996673 1_556
Fe5 O3 2.029878 1_555
Fe5 O59 2.036521 1_555
Fe6 O64 1.977209 1_555
Fe6 O36 1.979727 1_555
Fe6 O13 2.010834 1_554
Fe6 O8 2.026368 1_555
Fe6 O28 2.128430 1_554
Fe6 O24 2.210400 1_555
Fe7 O65 1.977209 1_555
Fe7 O37 1.979727 1_555
Fe7 O12 2.010834 1_555
Fe7 O9 2.026368 1_555
Fe7 O29 2.128430 1_555
Fe7 O25 2.210400 1_555
Fe8 O66 1.977209 1_555
Fe8 O38 1.979727 1_555
Fe8 O15 2.010834 1_556
Fe8 O10 2.026368 1_555
Fe8 O30 2.128430 1_556
Fe8 O26 2.210400 1_555
Fe9 O67 1.977209 1_555
Fe9 O39 1.979727 1_555
Fe9 O14 2.010834 1_555
Fe9 O11 2.026368 1_555
Fe9 O31 2.128430 1_555
Fe9 O27 2.210400 1_555
Fe10 O64 1.957421 1_555
Fe10 O44 1.968075 1_455
Fe10 O52 2.009854 1_555
Fe10 O4 2.030514 1_555
Fe10 O24 2.168191 1_555
Fe10 O16 2.189062 1_555
Fe11 O65 1.957421 1_555
Fe11 O45 1.968075 1_655
Fe11 O53 2.009854 1_555
Fe11 O5 2.030514 1_555
Fe11 O25 2.168191 1_555
Fe11 O17 2.189062 1_555
Fe12 O66 1.957421 1_555
Fe12 O46 1.968075 1_655
Fe12 O54 2.009854 1_555
Fe12 O6 2.030514 1_555
Fe12 O26 2.168191 1_555
Fe12 O18 2.189062 1_555
Fe13 O67 1.957421 1_555
Fe13 O47 1.968075 1_455
Fe13 O55 2.009854 1_555
Fe13 O7 2.030514 1_555
Fe13 O27 2.168191 1_555
Fe13 O19 2.189062 1_555
H0 O68 0.993315 1_555
H1 O69 0.993315 1_554
H2 O70 0.993315 1_555
H3 O71 0.993315 1_556
H4 O68 0.976881 1_555
H4 Rb8 2.943973 1_455
H5 O69 0.976881 1_555
H5 Rb9 2.943973 1_655
H6 O70 0.976881 1_555
H6 Rb6 2.943973 1_655
H7 O71 0.976881 1_555
H7 Rb7 2.943973 1_455
O0 P0 1.562412 1_555
O0 Rb4 3.041139 1_555
O0 Rb8 3.156926 1_555
O1 P1 1.562412 1_555
O1 Rb5 3.041139 1_554
O1 Rb9 3.156926 1_554
O2 P2 1.562412 1_555
O2 Rb2 3.041139 1_555
O2 Rb6 3.156926 1_555
O3 P3 1.562412 1_555
O3 Rb3 3.041139 1_556
O3 Rb7 3.156926 1_556
O4 P0 1.567652 1_555
O5 P1 1.567652 1_555
O6 P2 1.567652 1_555
O7 P3 1.567652 1_555
O8 P0 1.562216 1_555
O8 Rb3 3.029265 1_555
O9 P1 1.562216 1_555
O9 Rb2 3.029265 1_555
O10 P2 1.562216 1_555
O10 Rb5 3.029265 1_555
O11 P3 1.562216 1_555
O11 Rb4 3.029265 1_555
O12 P2 1.542699 1_555
O12 Rb5 3.023606 1_555
O12 Rb6 3.113103 1_555
O13 P3 1.542699 1_555
O13 Rb4 3.023606 1_555
O13 Rb7 3.113103 1_556
O14 P0 1.542699 1_555
O14 Rb3 3.023606 1_555
O14 Rb8 3.113103 1_555
O15 P1 1.542699 1_555
O15 Rb2 3.023606 1_555
O15 Rb9 3.113103 1_554
O16 P4 1.586962 1_554
O17 P5 1.586962 1_555
O18 P6 1.586962 1_556
O19 P7 1.586962 1_555
O20 P4 1.507195 1_555
O20 Rb8 2.805001 1_455
O20 Rb4 3.080722 1_455
O20 Rb12 3.100237 1_555
O21 P5 1.507195 1_555
O21 Rb9 2.805001 1_655
O21 Rb5 3.080722 1_655
O21 Rb13 3.100237 1_555
O22 P6 1.507195 1_555
O22 Rb6 2.805001 1_655
O22 Rb2 3.080722 1_655
O22 Rb10 3.100237 1_555
O23 P7 1.507195 1_555
O23 Rb7 2.805001 1_455
O23 Rb3 3.080722 1_455
O23 Rb11 3.100237 1_555
O24 P4 1.598052 1_554
O24 Rb7 3.093401 1_455
O25 P5 1.598052 1_555
O25 Rb6 3.093401 1_655
O26 P6 1.598052 1_556
O26 Rb9 3.093401 1_655
O27 P7 1.598052 1_555
O27 Rb8 3.093401 1_455
O28 P4 1.560693 1_555
O28 Rb0 3.072268 1_556
O28 Rb12 3.160592 1_555
O28 Rb4 3.283545 1_555
O29 P5 1.560693 1_555
O29 Rb1 3.072268 1_555
O29 Rb13 3.160592 1_555
O29 Rb5 3.283545 1_555
O30 P6 1.560693 1_555
O30 Rb0 3.072268 1_565
O30 Rb10 3.160592 1_555
O30 Rb2 3.283545 1_555
O31 P7 1.560693 1_555
O31 Rb1 3.072268 1_555
O31 Rb11 3.160592 1_555
O31 Rb3 3.283545 1_555
O32 P8 1.545278 1_555
O32 Rb0 3.103384 1_555
O32 Rb10 3.426162 1_545
O33 P9 1.545278 1_555
O33 Rb1 3.103384 1_555
O33 Rb11 3.426162 1_555
O34 P10 1.545278 1_555
O34 Rb0 3.103384 1_566
O34 Rb12 3.426162 1_565
O35 P11 1.545278 1_555
O35 Rb1 3.103384 1_555
O35 Rb13 3.426162 1_555
O36 P8 1.553306 1_555
O36 Rb4 3.085668 1_554
O36 Rb0 3.125849 1_555
O37 P9 1.553306 1_555
O37 Rb5 3.085668 1_555
O37 Rb1 3.125849 1_555
O38 P10 1.553306 1_555
O38 Rb2 3.085668 1_556
O38 Rb0 3.125849 1_566
O39 P11 1.553306 1_555
O39 Rb3 3.085668 1_555
O39 Rb1 3.125849 1_555
O40 P8 1.565308 1_555
O40 Rb12 3.220954 1_655
O40 Rb10 3.258548 1_545
O41 P9 1.565308 1_555
O41 Rb13 3.220954 1_454
O41 Rb11 3.258548 1_555
O42 P10 1.565308 1_555
O42 Rb10 3.220954 1_455
O42 Rb12 3.258548 1_565
O43 P11 1.565308 1_555
O43 Rb11 3.220954 1_656
O43 Rb13 3.258548 1_555
O44 P8 1.550776 1_555
O44 Rb7 2.958950 1_555
O45 P9 1.550776 1_555
O45 Rb6 2.958950 1_555
O46 P10 1.550776 1_555
O46 Rb9 2.958950 1_555
O47 P11 1.550776 1_555
O47 Rb8 2.958950 1_555
O48 P14 1.554331 1_555
O48 Rb4 3.115171 1_555
O48 Rb12 3.230129 1_655
O49 P15 1.554331 1_555
O49 Rb5 3.115171 1_555
O49 Rb13 3.230129 1_455
O50 P12 1.554331 1_555
O50 Rb2 3.115171 1_555
O50 Rb10 3.230129 1_455
O51 P13 1.554331 1_555
O51 Rb3 3.115171 1_555
O51 Rb11 3.230129 1_655
O52 P12 1.565389 1_545
O52 Rb12 3.110255 1_555
O53 P13 1.565389 1_555
O53 Rb13 3.110255 1_554
O54 P14 1.565389 1_565
O54 Rb10 3.110255 1_555
O55 P15 1.565389 1_555
O55 Rb11 3.110255 1_556
O56 P12 1.566391 1_555
O56 Rb10 3.292347 1_555
O56 Rb2 3.401107 1_555
O56 Rb0 3.405606 1_565
O57 P13 1.566391 1_555
O57 Rb11 3.292347 1_555
O57 Rb3 3.401107 1_555
O57 Rb1 3.405606 1_555
O58 P14 1.566391 1_555
O58 Rb12 3.292347 1_555
O58 Rb4 3.401107 1_555
O58 Rb0 3.405606 1_556
O59 P15 1.566391 1_555
O59 Rb13 3.292347 1_555
O59 Rb5 3.401107 1_555
O59 Rb1 3.405606 1_555
O60 P12 1.545211 1_555
O60 Rb2 3.036103 1_555
O60 Rb0 3.456118 1_565
O61 P13 1.545211 1_555
O61 Rb3 3.036103 1_555
O61 Rb1 3.456118 1_555
O62 P14 1.545211 1_555
O62 Rb4 3.036103 1_555
O62 Rb0 3.456118 1_556
O63 P15 1.545211 1_555
O63 Rb5 3.036103 1_555
O63 Rb1 3.456118 1_555
O64 Rb0 3.317028 1_555
O65 Rb1 3.317028 1_555
O66 Rb0 3.317028 1_566
O67 Rb1 3.317028 1_555
O68 Rb12 2.853985 1_555
O68 Rb8 3.006912 1_455
O68 Rb4 3.287815 1_555
O69 Rb13 2.853985 1_555
O69 Rb9 3.006912 1_655
O69 Rb5 3.287815 1_555
O70 Rb10 2.853985 1_555
O70 Rb6 3.006912 1_655
O70 Rb2 3.287815 1_555
O71 Rb11 2.853985 1_555
O71 Rb7 3.006912 1_455
O71 Rb3 3.287815 1_555
