# generated using pymatgen
data_ThCo9Si2
_symmetry_space_group_name_H-M   'P 1'
_cell_length_a   7.51354366
_cell_length_b   7.51354366
_cell_length_c   7.51354366
_cell_angle_alpha   100.44504550
_cell_angle_beta   100.44504550
_cell_angle_gamma   129.59935148
_symmetry_Int_Tables_number   1
_chemical_formula_structural   ThCo9Si2
_chemical_formula_sum   'Th2 Co18 Si4'
_cell_volume   295.72159255
_cell_formula_units_Z   2
loop_
 _symmetry_equiv_pos_site_id
 _symmetry_equiv_pos_as_xyz
  1  'x, y, z'
loop_
 _atom_site_type_symbol
 _atom_site_label
 _atom_site_symmetry_multiplicity
 _atom_site_fract_x
 _atom_site_fract_y
 _atom_site_fract_z
 _atom_site_occupancy
  Th  Th0  1  -0.00000000  -0.00000000  0.00000000  1
  Th  Th1  1  0.25000000  0.75000000  0.50000000  1
  Co  Co0  1  0.75000000  0.25000000  0.50000000  1
  Co  Co1  1  0.77426463  0.18912447  0.83085931  1
  Co  Co2  1  0.35826515  0.94340531  0.16914069  1
  Co  Co3  1  0.19340531  0.52426463  0.08514016  1
  Co  Co4  1  0.89173485  0.56087553  0.08514016  1
  Co  Co5  1  0.47573537  0.80659469  0.91485984  1
  Co  Co6  1  0.43912447  0.10826515  0.91485984  1
  Co  Co7  1  0.05659469  0.64173485  0.83085931  1
  Co  Co8  1  0.81087553  0.64173485  0.58514016  1
  Co  Co9  1  0.47573537  0.56087553  0.66914069  1
  Co  Co10  1  0.89173485  0.80659469  0.33085931  1
  Co  Co11  1  0.05659469  0.22573537  0.41485984  1
  Co  Co12  1  0.35826515  0.18912447  0.41485984  1
  Co  Co13  1  0.77426463  0.94340531  0.58514016  1
  Co  Co14  1  0.43912447  0.52426463  0.33085931  1
  Co  Co15  1  0.19340531  0.10826515  0.66914069  1
  Co  Co16  1  0.81087553  0.22573537  0.16914069  1
  Co  Co17  1  0.50000000  0.50000000  0.00000000  1
  Si  Si0  1  0.62500000  0.87500000  0.25000000  1
  Si  Si1  1  0.62500000  0.37500000  0.25000000  1
  Si  Si2  1  0.12500000  0.37500000  0.75000000  1
  Si  Si3  1  0.62500000  0.37500000  0.75000000  1
loop_
_geom_bond_atom_site_label_1
_geom_bond_atom_site_label_2
_geom_bond_distance
_geom_bond_site_symmetry_2
Co0 Si3 2.533181 1_555
Co0 Si1 2.533181 1_555
Co0 Si0 2.533181 1_545
Co0 Si2 2.533181 1_655
Co0 Co1 2.603175 1_555
Co0 Co16 2.603175 1_555
Co0 Co2 2.603175 1_545
Co0 Co7 2.603175 1_655
Co0 Co13 2.603175 1_545
Co0 Co8 2.603175 1_555
Co0 Co12 2.603175 1_555
Co0 Co11 2.603175 1_655
Co0 Th1 3.199150 1_545
Co0 Th1 3.199150 1_655
Co1 Si2 2.336768 1_655
Co1 Co13 2.362453 1_545
Co1 Si3 2.373744 1_555
Co1 Co3 2.423471 1_656
Co1 Co6 2.423471 1_555
Co1 Co16 2.451134 1_556
Co1 Co4 2.557697 1_556
Co1 Co5 2.577344 1_545
Co1 Co7 2.620725 1_655
Co1 Th0 3.075170 1_656
Co1 Th1 3.080469 1_545
Co2 Si1 2.336768 1_565
Co2 Si0 2.373744 1_555
Co2 Co3 2.423471 1_555
Co2 Co6 2.423471 1_564
Co2 Co7 2.451134 1_554
Co2 Co5 2.557697 1_554
Co2 Co4 2.577344 1_455
Co2 Th0 3.075170 1_565
Co2 Th1 3.080469 1_555
Co3 Si0 2.336768 1_555
Co3 Si2 2.373744 1_554
Co3 Co4 2.451134 1_455
Co3 Co7 2.557697 1_554
Co3 Co5 2.620725 1_554
Co3 Th1 3.075170 1_555
Co3 Th0 3.080469 1_555
Co4 Si1 2.336768 1_555
Co4 Si3 2.373744 1_554
Co4 Co7 2.423471 1_654
Co4 Co6 2.620725 1_554
Co4 Th1 3.075170 1_655
Co4 Th0 3.080469 1_665
Co5 Si2 2.336768 1_555
Co5 Co9 2.362453 1_555
Co5 Si0 2.373744 1_556
Co5 Co7 2.423471 1_555
Co5 Co6 2.451134 1_565
Co5 Th1 3.075170 1_555
Co5 Th0 3.080469 1_666
Co6 Si3 2.336768 1_555
Co6 Si1 2.373744 1_556
Co6 Co7 2.577344 1_545
Co6 Th1 3.075170 1_545
Co6 Th0 3.080469 1_556
Co7 Si3 2.336768 1_455
Co7 Co8 2.362453 1_455
Co7 Si2 2.373744 1_555
Co7 Th0 3.075170 1_566
Co7 Th1 3.080469 1_555
Co8 Si3 2.336768 1_555
Co8 Si1 2.373744 1_555
Co8 Co9 2.423471 1_555
Co8 Th0 3.075170 1_666
Co8 Th1 3.080469 1_655
Co9 Si2 2.336768 1_555
Co9 Si3 2.373744 1_555
Co9 Th1 3.075170 1_555
Co9 Th0 3.080469 1_666
Co10 Si1 2.336768 1_555
Co10 Co4 2.362453 1_555
Co10 Si0 2.373744 1_555
Co10 Co11 2.423471 1_665
Co10 Co8 2.423471 1_555
Co10 Co15 2.451134 1_665
Co10 Co13 2.557697 1_555
Co10 Co12 2.577344 1_665
Co10 Co17 2.603175 1_555
Co10 Co14 2.620725 1_555
Co10 Th1 3.075170 1_655
Co10 Th0 3.080469 1_665
Co11 Si0 2.336768 1_445
Co11 Co16 2.362453 1_455
Co11 Si2 2.373744 1_555
Co11 Co9 2.423471 1_555
Co11 Co12 2.451134 1_555
Co11 Co15 2.557697 1_555
Co11 Co14 2.577344 1_555
Co11 Co13 2.620725 1_445
Co11 Th0 3.075170 1_555
Co11 Th1 3.080469 1_555
Co12 Si1 2.336768 1_555
Co12 Co2 2.362453 1_545
Co12 Si3 2.373744 1_555
Co12 Co14 2.423471 1_555
Co12 Co15 2.423471 1_555
Co12 Co9 2.557697 1_555
Co12 Co8 2.620725 1_555
Co12 Th0 3.075170 1_555
Co12 Th1 3.080469 1_545
Co13 Si2 2.336768 1_665
Co13 Si0 2.373744 1_555
Co13 Co15 2.423471 1_665
Co13 Co14 2.423471 1_555
Co13 Co8 2.451134 1_555
Co13 Co9 2.577344 1_555
Co13 Th0 3.075170 1_666
Co13 Th1 3.080469 1_555
Co14 Si0 2.336768 1_555
Co14 Co3 2.362453 1_555
Co14 Si1 2.373744 1_555
Co14 Co9 2.451134 1_555
Co14 Co8 2.557697 1_555
Co14 Co17 2.603175 1_555
Co14 Th1 3.075170 1_555
Co14 Th0 3.080469 1_555
Co15 Si3 2.336768 1_555
Co15 Co6 2.362453 1_555
Co15 Si2 2.373744 1_555
Co15 Co8 2.577344 1_445
Co15 Co17 2.603175 1_556
Co15 Co9 2.620725 1_555
Co15 Th1 3.075170 1_545
Co15 Th0 3.080469 1_556
Co16 Si0 2.336768 1_545
Co16 Si1 2.373744 1_555
Co16 Co5 2.423471 1_544
Co16 Co4 2.423471 1_555
Co16 Co6 2.557697 1_554
Co16 Co3 2.577344 1_655
Co16 Co2 2.620725 1_545
Co16 Th0 3.075170 1_655
Co16 Th1 3.080469 1_655
Co17 Si1 2.533181 1_555
Co17 Si3 2.533181 1_554
Co17 Si0 2.533181 1_555
Co17 Si2 2.533181 1_554
Co17 Co9 2.603175 1_554
Co17 Co4 2.603175 1_555
Co17 Co6 2.603175 1_554
Co17 Co3 2.603175 1_555
Co17 Co5 2.603175 1_554
Co17 Th0 3.199150 1_665
Co17 Th0 3.199150 1_555
