# generated using pymatgen
data_Pr(NO5)3
_symmetry_space_group_name_H-M   'P 1'
_cell_length_a   9.09463367
_cell_length_b   11.70079589
_cell_length_c   7.07305071
_cell_angle_alpha   91.50830444
_cell_angle_beta   115.14060858
_cell_angle_gamma   109.12863527
_symmetry_Int_Tables_number   1
_chemical_formula_structural   Pr(NO5)3
_chemical_formula_sum   'Pr2 N6 O30'
_cell_volume   631.57781819
_cell_formula_units_Z   2
loop_
 _symmetry_equiv_pos_site_id
 _symmetry_equiv_pos_as_xyz
  1  'x, y, z'
loop_
 _atom_site_type_symbol
 _atom_site_label
 _atom_site_symmetry_multiplicity
 _atom_site_fract_x
 _atom_site_fract_y
 _atom_site_fract_z
 _atom_site_occupancy
  Pr  Pr0  1  0.86679500  0.71164200  0.86246300  1
  Pr  Pr1  1  0.13320500  0.28835800  0.13753700  1
  N  N0  1  0.65798500  0.83574500  0.92253800  1
  N  N1  1  0.34201500  0.16425500  0.07746200  1
  N  N2  1  0.66280400  0.48083100  0.92684700  1
  N  N3  1  0.33719600  0.51916900  0.07315300  1
  N  N4  1  0.76051700  0.18091000  0.83652900  1
  N  N5  1  0.23948300  0.81909000  0.16347100  1
  O  O0  1  0.56895500  0.88054900  0.96088200  1
  O  O1  1  0.43104500  0.11945100  0.03911800  1
  O  O2  1  0.81205900  0.84255600  0.07041100  1
  O  O3  1  0.18794100  0.15744400  0.92958900  1
  O  O4  1  0.61238700  0.77723100  0.73681300  1
  O  O5  1  0.38761300  0.22276900  0.26318700  1
  O  O6  1  0.82059100  0.55470200  0.06706300  1
  O  O7  1  0.17940900  0.44529800  0.93293700  1
  O  O8  1  0.61052400  0.50717300  0.73938300  1
  O  O9  1  0.38947600  0.49282700  0.26061700  1
  O  O10  1  0.57426500  0.39537900  0.97416500  1
  O  O11  1  0.42573500  0.60462100  0.02583500  1
  O  O12  1  0.84483900  0.29914700  0.91212400  1
  O  O13  1  0.15516100  0.70085300  0.08787600  1
  O  O14  1  0.61224400  0.13804000  0.69219600  1
  O  O15  1  0.38775600  0.86196000  0.30780400  1
  O  O16  1  0.85015300  0.11330500  0.92529700  1
  O  O17  1  0.14984700  0.88669500  0.07470300  1
  O  O18  1  0.83372300  0.94181300  0.53329200  1
  O  O19  1  0.16627700  0.05818700  0.46670800  1
  O  O20  1  0.84866900  0.71419500  0.44131800  1
  O  O21  1  0.15133100  0.28580500  0.55868200  1
  O  O22  1  0.83641600  0.45629500  0.53824800  1
  O  O23  1  0.16358400  0.54370500  0.46175200  1
  O  O24  1  0.99250900  0.25319900  0.42566600  1
  O  O25  1  0.00749100  0.74680100  0.57433400  1
  O  O26  1  0.76142400  0.00625400  0.42631200  1
  O  O27  1  0.23857600  0.99374600  0.57368800  1
  O  O28  1  0.77889100  0.35327000  0.43079700  1
  O  O29  1  0.22110900  0.64673000  0.56920200  1
loop_
_geom_bond_atom_site_label_1
_geom_bond_atom_site_label_2
_geom_bond_distance
_geom_bond_site_symmetry_2
N0 O0 1.208837 1_555
N0 O4 1.292318 1_555
N0 O2 1.319440 1_556
N1 O1 1.208837 1_555
N1 O5 1.292318 1_555
N1 O3 1.319440 1_554
N2 O10 1.216169 1_555
N2 O8 1.288828 1_555
N2 O6 1.312502 1_556
N3 O11 1.216169 1_555
N3 O9 1.288828 1_555
N3 O7 1.312502 1_554
N4 O14 1.213362 1_555
N4 O16 1.303217 1_555
N4 O12 1.305872 1_555
N5 O15 1.213362 1_555
N5 O17 1.303217 1_555
N5 O13 1.305872 1_555
O2 Pr0 2.400169 1_554
O3 Pr1 2.400169 1_556
O4 Pr0 2.486903 1_555
O5 Pr1 2.486903 1_555
O6 Pr0 2.407024 1_554
O7 Pr1 2.407024 1_556
O8 Pr0 2.534900 1_555
O9 Pr1 2.534900 1_555
O12 Pr1 2.471968 1_656
O13 Pr0 2.471968 1_454
O16 Pr1 2.484884 1_656
O17 Pr0 2.484884 1_454
O18 O26 1.227051 1_565
O19 O27 1.227051 1_545
O20 O25 1.257912 1_655
O20 Pr0 2.914082 1_555
O21 O24 1.257912 1_455
O21 Pr1 2.914082 1_555
O22 O28 1.226818 1_555
O23 O29 1.226816 1_555
O24 Pr1 2.806186 1_655
O25 Pr0 2.806186 1_455
