# generated using pymatgen
data_Sm4MgV4O12
_symmetry_space_group_name_H-M   'P 1'
_cell_length_a   5.53057412
_cell_length_b   6.03658489
_cell_length_c   8.00383970
_cell_angle_alpha   91.42390914
_cell_angle_beta   91.42978249
_cell_angle_gamma   86.72167079
_symmetry_Int_Tables_number   1
_chemical_formula_structural   Sm4MgV4O12
_chemical_formula_sum   'Sm4 Mg1 V4 O12'
_cell_volume   266.62063000
_cell_formula_units_Z   1
loop_
 _symmetry_equiv_pos_site_id
 _symmetry_equiv_pos_as_xyz
  1  'x, y, z'
loop_
 _atom_site_type_symbol
 _atom_site_label
 _atom_site_symmetry_multiplicity
 _atom_site_fract_x
 _atom_site_fract_y
 _atom_site_fract_z
 _atom_site_occupancy
  Sm  Sm0  1  0.99128100  0.41724900  0.76338800  1
  Sm  Sm1  1  0.05008800  0.62292100  0.20704600  1
  Sm  Sm2  1  0.43208100  0.07838300  0.23886200  1
  Sm  Sm3  1  0.52485000  0.92231100  0.76560500  1
  Mg  Mg0  1  0.86802900  0.26292700  0.36058100  1
  V  V0  1  0.99193600  0.92717900  0.53449800  1
  V  V1  1  0.48641500  0.51322100  0.50237300  1
  V  V2  1  0.99470200  0.00853400  0.99298600  1
  V  V3  1  0.51213000  0.49464800  0.99326300  1
  O  O0  1  0.29301700  0.82011000  0.42934200  1
  O  O1  1  0.71972500  0.17765100  0.56608400  1
  O  O2  1  0.80191800  0.68507000  0.57881100  1
  O  O3  1  0.18829500  0.33488900  0.41276200  1
  O  O4  1  0.81390400  0.68935400  0.94646700  1
  O  O5  1  0.19295700  0.31408800  0.04562600  1
  O  O6  1  0.32537600  0.80450700  0.05206500  1
  O  O7  1  0.67960800  0.20325900  0.93710600  1
  O  O8  1  0.86039900  0.97073000  0.25666300  1
  O  O9  1  0.12700800  0.03343000  0.74905300  1
  O  O10  1  0.37970600  0.54705800  0.75858200  1
  O  O11  1  0.63562500  0.45373200  0.24217000  1
loop_
_geom_bond_atom_site_label_1
_geom_bond_atom_site_label_2
_geom_bond_distance
_geom_bond_site_symmetry_2
Mg0 O3 1.882167 1_655
Mg0 O11 1.923821 1_555
Mg0 O8 1.933564 1_545
Mg0 O1 1.949574 1_555
O0 V0 1.954139 1_455
O0 V1 2.171104 1_555
O0 Sm2 2.379155 1_565
O0 Sm1 2.519130 1_555
O0 Sm3 3.017272 1_555
O1 V0 2.087145 1_545
O1 V1 2.397499 1_555
O1 Sm3 2.546737 1_545
O1 Sm0 2.618766 1_555
O2 V0 1.893739 1_555
O2 V1 2.148812 1_555
O2 Sm0 2.396024 1_555
O2 Sm3 2.528086 1_555
O3 V1 2.120704 1_555
O3 Sm2 2.429097 1_555
O3 Sm1 2.499185 1_555
O3 Sm0 3.054723 1_455
O4 V3 2.141190 1_555
O4 V2 2.239860 1_565
O4 Sm0 2.361242 1_555
O4 Sm1 2.462242 1_656
O4 Sm3 2.521368 1_555
O5 V3 2.181586 1_554
O5 V2 2.225213 1_454
O5 Sm1 2.352000 1_555
O5 Sm2 2.440828 1_555
O5 Sm0 2.568977 1_454
O6 V3 2.132270 1_554
O6 V2 2.193911 1_464
O6 Sm2 2.293818 1_565
O6 Sm1 2.326150 1_555
O6 Sm3 2.697518 1_554
O7 V3 1.987250 1_555
O7 V2 2.090826 1_555
O7 Sm3 2.341959 1_545
O7 Sm0 2.652677 1_555
O7 Sm2 2.940927 1_556
O8 V2 2.275796 1_564
O8 Sm1 2.322489 1_655
O8 V0 2.338768 1_555
O8 Sm2 2.421927 1_565
O9 V0 1.963280 1_445
O9 V2 2.113843 1_455
O9 Sm3 2.264919 1_545
O9 Sm0 2.395222 1_455
O10 V3 2.024612 1_555
O10 V1 2.149649 1_555
O10 Sm0 2.329911 1_455
O10 Sm3 2.445050 1_555
O11 V3 2.105625 1_554
O11 V1 2.271996 1_555
O11 Sm2 2.586342 1_555
O11 Sm1 2.586617 1_655
