# generated using pymatgen
data_RbEu2Cl5
_symmetry_space_group_name_H-M   'P 1'
_cell_length_a   7.87992188
_cell_length_b   8.97547845
_cell_length_c   12.63444306
_cell_angle_alpha   89.77265290
_cell_angle_beta   89.99847048
_cell_angle_gamma   90.00081249
_symmetry_Int_Tables_number   1
_chemical_formula_structural   RbEu2Cl5
_chemical_formula_sum   'Rb4 Eu8 Cl20'
_cell_volume   893.57745680
_cell_formula_units_Z   4
loop_
 _symmetry_equiv_pos_site_id
 _symmetry_equiv_pos_as_xyz
  1  'x, y, z'
loop_
 _atom_site_type_symbol
 _atom_site_label
 _atom_site_symmetry_multiplicity
 _atom_site_fract_x
 _atom_site_fract_y
 _atom_site_fract_z
 _atom_site_occupancy
  Rb  Rb0  1  0.44459171  0.48918202  0.83422071  1
  Rb  Rb1  1  0.55536212  0.51084304  0.16580517  1
  Rb  Rb2  1  0.94460966  0.51080437  0.66581320  1
  Rb  Rb3  1  0.05542278  0.48917118  0.33418593  1
  Eu  Eu0  1  0.47604970  0.99868013  0.82215711  1
  Eu  Eu1  1  0.52397455  0.00136381  0.17778088  1
  Eu  Eu2  1  0.97605353  0.00133876  0.67779429  1
  Eu  Eu3  1  0.02394499  0.99867767  0.32223861  1
  Eu  Eu4  1  0.43198882  0.75295964  0.50617793  1
  Eu  Eu5  1  0.56803931  0.24702062  0.49382278  1
  Eu  Eu6  1  0.93195225  0.24696266  0.99383773  1
  Eu  Eu7  1  0.06804350  0.75298352  0.00618938  1
  Cl  Cl0  1  0.32748742  0.46494326  0.58038565  1
  Cl  Cl1  1  0.67251986  0.53505389  0.41959942  1
  Cl  Cl2  1  0.82751068  0.53503133  0.91962555  1
  Cl  Cl3  1  0.17250551  0.46495654  0.08040659  1
  Cl  Cl4  1  0.66608751  0.78951221  0.68362649  1
  Cl  Cl5  1  0.33393552  0.21049576  0.31635662  1
  Cl  Cl6  1  0.16605523  0.21049663  0.81635633  1
  Cl  Cl7  1  0.83394076  0.78947941  0.18366162  1
  Cl  Cl8  1  0.19084372  0.77543625  0.78360252  1
  Cl  Cl9  1  0.80913926  0.22453718  0.21638976  1
  Cl  Cl10  1  0.69082035  0.22457081  0.71638547  1
  Cl  Cl11  1  0.30917526  0.77547760  0.28360078  1
  Cl  Cl12  1  0.04975305  0.78983592  0.50224413  1
  Cl  Cl13  1  0.95026142  0.21015218  0.49776807  1
  Cl  Cl14  1  0.54970929  0.21013668  0.99774137  1
  Cl  Cl15  1  0.45028503  0.78991393  0.00221439  1
  Cl  Cl16  1  0.83958041  0.96101809  0.89951528  1
  Cl  Cl17  1  0.16038342  0.03897399  0.10050185  1
  Cl  Cl18  1  0.33956026  0.03895953  0.60046846  1
  Cl  Cl19  1  0.66041514  0.96103036  0.39952593  1
loop_
_geom_bond_atom_site_label_1
_geom_bond_atom_site_label_2
_geom_bond_distance
_geom_bond_site_symmetry_2
Cl0 Eu4 2.867135 1_555
Cl0 Eu5 2.938011 1_555
Cl0 Rb2 3.231152 1_455
Cl0 Rb0 3.345115 1_555
Cl0 Rb3 3.783409 1_555
Cl1 Eu5 2.867288 1_555
Cl1 Eu4 2.937878 1_555
Cl1 Rb3 3.231303 1_655
Cl1 Rb1 3.344719 1_555
Cl1 Rb2 3.783678 1_555
Cl2 Eu6 2.867476 1_555
Cl2 Eu7 2.938097 1_656
Cl2 Rb0 3.231389 1_555
Cl2 Rb2 3.344775 1_555
Cl2 Rb1 3.783458 1_556
Cl3 Eu7 2.867206 1_555
Cl3 Eu6 2.938475 1_454
Cl3 Rb1 3.230947 1_555
Cl3 Rb3 3.344332 1_555
Cl3 Rb0 3.783263 1_554
Cl4 Eu4 2.922827 1_555
Cl4 Eu0 2.975976 1_555
Cl4 Eu2 3.095925 1_565
Cl4 Rb2 3.336133 1_555
Cl4 Rb0 3.727166 1_555
Cl5 Eu5 2.922995 1_555
Cl5 Eu1 2.976114 1_555
Cl5 Eu3 3.096045 1_545
Cl5 Rb3 3.335880 1_555
Cl5 Rb1 3.726747 1_555
Cl6 Eu6 2.923008 1_455
Cl6 Eu2 2.976031 1_455
Cl6 Eu0 3.096084 1_545
Cl6 Rb0 3.336063 1_555
Cl6 Rb2 3.726591 1_455
Cl7 Eu7 2.922949 1_655
Cl7 Eu3 2.976382 1_655
Cl7 Eu1 3.096304 1_565
Cl7 Rb1 3.335945 1_555
Cl7 Rb3 3.726608 1_655
Cl8 Eu2 2.956614 1_465
Cl8 Eu7 2.980123 1_556
Cl8 Eu0 3.051338 1_555
Cl8 Rb0 3.315928 1_555
Cl8 Rb2 3.413088 1_455
Cl9 Eu3 2.956651 1_645
Cl9 Eu6 2.979725 1_554
Cl9 Eu1 3.050794 1_555
Cl9 Rb1 3.316344 1_555
Cl9 Rb3 3.413361 1_655
Cl10 Eu0 2.956172 1_545
Cl10 Eu5 2.979835 1_555
Cl10 Eu2 3.051524 1_555
Cl10 Rb2 3.315806 1_555
Cl10 Rb0 3.413182 1_555
Cl11 Eu1 2.956548 1_565
Cl11 Eu4 2.980130 1_555
Cl11 Eu3 3.051414 1_555
Cl11 Rb3 3.316168 1_555
Cl11 Rb1 3.412921 1_555
Cl12 Eu3 2.948465 1_555
Cl12 Eu2 2.982241 1_465
Cl12 Eu4 3.030511 1_555
Cl12 Rb2 3.344892 1_455
Cl12 Rb3 3.440706 1_555
Cl13 Eu2 2.948496 1_555
Cl13 Eu3 2.981859 1_645
Cl13 Eu5 3.030399 1_555
Cl13 Rb3 3.344945 1_655
Cl13 Rb2 3.440513 1_555
Cl14 Eu1 2.948352 1_556
Cl14 Eu0 2.982248 1_545
Cl14 Eu6 3.030500 1_555
Cl14 Rb0 3.344603 1_555
Cl14 Rb1 3.441043 1_556
Cl15 Eu0 2.948503 1_554
Cl15 Eu1 2.982089 1_565
Cl15 Eu7 3.030606 1_555
Cl15 Rb1 3.345240 1_555
Cl15 Rb0 3.440678 1_554
Cl16 Eu7 2.919620 1_656
Cl16 Eu6 2.925940 1_565
Cl16 Eu2 3.021032 1_565
Cl16 Eu0 3.045158 1_555
Cl17 Eu6 2.919144 1_454
Cl17 Eu7 2.926187 1_545
Cl17 Eu3 3.021094 1_545
Cl17 Eu1 3.045234 1_555
Cl18 Eu5 2.919608 1_555
Cl18 Eu4 2.926324 1_545
Cl18 Eu0 3.020713 1_545
Cl18 Eu2 3.044750 1_455
Cl19 Eu4 2.919443 1_555
Cl19 Eu5 2.926177 1_565
Cl19 Eu1 3.021292 1_565
Cl19 Eu3 3.044792 1_655
