# generated using pymatgen
data_MgV12Zn6O24
_symmetry_space_group_name_H-M   'P 1'
_cell_length_a   6.03121196
_cell_length_b   6.08458207
_cell_length_c   17.90266950
_cell_angle_alpha   65.12051725
_cell_angle_beta   59.45339935
_cell_angle_gamma   60.04926248
_symmetry_Int_Tables_number   1
_chemical_formula_structural   MgV12Zn6O24
_chemical_formula_sum   'Mg1 V12 Zn6 O24'
_cell_volume   477.81251055
_cell_formula_units_Z   1
loop_
 _symmetry_equiv_pos_site_id
 _symmetry_equiv_pos_as_xyz
  1  'x, y, z'
loop_
 _atom_site_type_symbol
 _atom_site_label
 _atom_site_symmetry_multiplicity
 _atom_site_fract_x
 _atom_site_fract_y
 _atom_site_fract_z
 _atom_site_occupancy
  Mg  Mg0  1  0.24796916  0.50639741  0.99895819  1
  V  V0  1  0.04575112  0.37097212  0.17412909  1
  V  V1  1  0.52844754  0.37691216  0.17442663  1
  V  V2  1  0.98983164  0.50062920  0.50062895  1
  V  V3  1  0.53697019  0.88413610  0.17080178  1
  V  V4  1  0.51238886  0.44026673  0.33510625  1
  V  V5  1  0.48755004  0.50189987  0.50088799  1
  V  V6  1  0.94516810  0.63541407  0.82528643  1
  V  V7  1  0.48854192  0.00073722  0.50122205  1
  V  V8  1  0.43696755  0.12359086  0.83677284  1
  V  V9  1  0.46758738  0.56224334  0.66576715  1
  V  V10  1  0.45416640  0.63370230  0.82435288  1
  V  V11  1  0.77272852  0.02651858  0.97598876  1
  Zn  Zn0  1  0.18442012  0.95667292  0.05397977  1
  Zn  Zn1  1  0.13124397  0.07510008  0.38015822  1
  Zn  Zn2  1  0.74405879  0.51144226  0.99644224  1
  Zn  Zn3  1  0.08739489  0.20693103  0.70800508  1
  Zn  Zn4  1  0.88845463  0.79969488  0.29560463  1
  Zn  Zn5  1  0.84251517  0.92832403  0.62364767  1
  O  O0  1  0.35011510  0.11824230  0.07629021  1
  O  O1  1  0.30331503  0.15233995  0.24488479  1
  O  O2  1  0.32342213  0.57757971  0.08783233  1
  O  O3  1  0.78863936  0.11982655  0.07862823  1
  O  O4  1  0.30493668  0.65274507  0.24730064  1
  O  O5  1  0.26805256  0.22601148  0.42117608  1
  O  O6  1  0.75606252  0.18840176  0.24973837  1
  O  O7  1  0.81012751  0.60954425  0.08467972  1
  O  O8  1  0.26351656  0.68752525  0.41909708  1
  O  O9  1  0.23280979  0.29326667  0.57280153  1
  O  O10  1  0.75787617  0.65540976  0.24884531  1
  O  O11  1  0.71963255  0.23497454  0.42275371  1
  O  O12  1  0.25673842  0.76991636  0.57737077  1
  O  O13  1  0.22891713  0.34623400  0.75210907  1
  O  O14  1  0.71645340  0.31531154  0.58058850  1
  O  O15  1  0.74484686  0.70996761  0.42826517  1
  O  O16  1  0.18997816  0.41738736  0.90903866  1
  O  O17  1  0.23406953  0.81911038  0.74618909  1
  O  O18  1  0.71509494  0.77736046  0.57815615  1
  O  O19  1  0.67537684  0.35658796  0.75288905  1
  O  O20  1  0.17797829  0.89008917  0.92106831  1
  O  O21  1  0.67485883  0.85798508  0.75805248  1
  O  O22  1  0.66323610  0.41629793  0.91410087  1
  O  O23  1  0.66636455  0.90171870  0.91811727  1
loop_
_geom_bond_atom_site_label_1
_geom_bond_atom_site_label_2
_geom_bond_distance
_geom_bond_site_symmetry_2
Mg0 O22 2.084100 1_555
Mg0 O2 2.106862 1_556
Mg0 O20 2.109053 1_555
Mg0 O16 2.121828 1_555
Mg0 O0 2.130037 1_556
Mg0 O7 2.181427 1_456
O0 Zn0 1.960041 1_545
O0 V3 2.114085 1_545
O0 V11 2.191604 1_554
O0 V0 2.232009 1_555
O1 V1 1.990797 1_555
O1 V3 2.008255 1_545
O1 Zn1 2.034067 1_555
O1 V0 2.075145 1_555
O2 Zn0 1.949351 1_555
O2 V1 2.066766 1_555
O2 Zn2 2.142522 1_554
O2 V0 2.147049 1_555
O3 Zn0 1.951905 1_645
O3 V3 2.172520 1_545
O3 Zn2 2.174257 1_554
O3 V11 2.195326 1_554
O3 V1 2.218432 1_555
O4 Zn4 2.014170 1_455
O4 V1 2.032658 1_555
O4 V3 2.052577 1_555
O4 V4 2.093319 1_555
O5 Zn1 2.000749 1_555
O5 V7 2.040850 1_555
O5 V4 2.040921 1_555
O5 V2 2.098820 1_455
O6 V1 2.006478 1_555
O6 Zn4 2.013029 1_545
O6 V4 2.069516 1_555
O6 V0 2.094681 1_655
O7 Zn2 2.163615 1_554
O7 V3 2.172549 1_555
O7 V0 2.233511 1_655
O7 V1 2.276879 1_555
O7 V11 2.448454 1_564
O8 Zn1 1.996791 1_565
O8 V4 2.032696 1_555
O8 V2 2.043763 1_455
O8 V5 2.083556 1_555
O9 V2 2.028716 1_455
O9 Zn3 2.033786 1_555
O9 V5 2.047238 1_555
O9 V7 2.087607 1_555
O10 V3 2.017102 1_555
O10 Zn4 2.017574 1_555
O10 V4 2.049576 1_555
O10 V0 2.094232 1_655
O11 Zn1 1.994804 1_655
O11 V5 2.050639 1_555
O11 V7 2.062985 1_555
O11 V4 2.090501 1_555
O12 Zn5 2.005091 1_455
O12 V5 2.036338 1_555
O12 V7 2.048843 1_565
O12 V9 2.115845 1_555
O13 Zn3 2.010217 1_555
O13 V9 2.026528 1_555
O13 V8 2.053115 1_555
O13 V6 2.096408 1_455
O14 Zn5 1.999396 1_545
O14 V2 2.034268 1_555
O14 V9 2.045772 1_555
O14 V5 2.074860 1_555
O15 Zn4 1.994739 1_555
O15 V2 2.040088 1_555
O15 V5 2.056002 1_555
O15 V7 2.094488 1_565
O16 V8 2.101546 1_555
O16 V10 2.128203 1_555
O16 V6 2.192931 1_455
O16 Zn2 2.224416 1_455
O17 Zn3 1.997800 1_565
O17 V10 2.014327 1_555
O17 V9 2.033113 1_555
O17 V6 2.096520 1_455
O18 Zn5 2.016955 1_555
O18 V7 2.023564 1_565
O18 V9 2.060410 1_555
O18 V2 2.085666 1_555
O19 Zn3 1.994114 1_655
O19 V10 2.023295 1_555
O19 V9 2.085163 1_555
O19 V8 2.093264 1_555
O20 V11 1.961579 1_465
O20 V8 2.179827 1_565
O20 V10 2.225456 1_555
O21 V10 1.971731 1_555
O21 Zn5 2.021854 1_555
O21 V8 2.049942 1_565
O21 V6 2.087874 1_555
O22 V11 2.063312 1_555
O22 Zn2 2.115674 1_555
O22 V10 2.127652 1_555
O22 V6 2.220074 1_555
O23 V11 1.971172 1_565
O23 V8 2.094339 1_565
O23 Zn2 2.140068 1_555
O23 V6 2.218038 1_555
