# generated using pymatgen
data_KAs4(HO4)3
_symmetry_space_group_name_H-M   'P 1'
_cell_length_a   5.24871861
_cell_length_b   7.18485738
_cell_length_c   7.79588758
_cell_angle_alpha   63.33857785
_cell_angle_beta   79.22346333
_cell_angle_gamma   84.47167843
_symmetry_Int_Tables_number   1
_chemical_formula_structural   KAs4(HO4)3
_chemical_formula_sum   'K1 As4 H3 O12'
_cell_volume   258.07432963
_cell_formula_units_Z   1
loop_
 _symmetry_equiv_pos_site_id
 _symmetry_equiv_pos_as_xyz
  1  'x, y, z'
loop_
 _atom_site_type_symbol
 _atom_site_label
 _atom_site_symmetry_multiplicity
 _atom_site_fract_x
 _atom_site_fract_y
 _atom_site_fract_z
 _atom_site_occupancy
  K  K0  1  0.00232100  0.99508200  0.00079300  1
  As  As0  1  0.40358000  0.87976600  0.42928900  1
  As  As1  1  0.59461900  0.12449800  0.56896500  1
  As  As2  1  0.83936700  0.68552700  0.68021100  1
  As  As3  1  0.15400400  0.32474900  0.31055200  1
  H  H0  1  0.50780400  0.65986800  0.28360200  1
  H  H1  1  0.49200700  0.33895000  0.71920200  1
  H  H2  1  0.97076500  0.49445100  0.98198900  1
  O  O0  1  0.11376900  0.70999800  0.50651800  1
  O  O1  1  0.88936300  0.28362000  0.49946200  1
  O  O2  1  0.58007500  0.63018600  0.60243500  1
  O  O3  1  0.41827400  0.36889300  0.39542100  1
  O  O4  1  0.51189100  0.81398200  0.23072800  1
  O  O5  1  0.48575000  0.18532300  0.77056000  1
  O  O6  1  0.87758800  0.46239900  0.88729600  1
  O  O7  1  0.09827000  0.53482600  0.10807700  1
  O  O8  1  0.30877200  0.96156400  0.62594600  1
  O  O9  1  0.69667500  0.03358600  0.37753500  1
  O  O10  1  0.77123800  0.88779700  0.74586600  1
  O  O11  1  0.22887000  0.11093400  0.25755300  1
loop_
_geom_bond_atom_site_label_1
_geom_bond_atom_site_label_2
_geom_bond_distance
_geom_bond_site_symmetry_2
K0 O5 2.879514 1_564
K0 O4 2.891201 1_455
K0 O10 2.910554 1_454
K0 O11 2.947803 1_565
K0 O7 3.040244 1_555
K0 O6 3.100318 1_464
K0 O8 3.159747 1_554
K0 O9 3.187165 1_465
K0 O4 3.329995 1_555
K0 O5 3.368279 1_464
As0 O4 1.794019 1_555
As0 O8 1.846736 1_555
As0 O9 1.856365 1_565
As0 O0 1.876196 1_555
As0 O11 1.887337 1_565
As0 O2 1.967499 1_555
As1 O5 1.794409 1_555
As1 O8 1.855060 1_545
As1 O9 1.857205 1_555
As1 O1 1.861540 1_555
As1 O10 1.929518 1_545
As1 O3 1.947715 1_555
As2 O6 1.718460 1_555
As2 O10 1.732297 1_555
As2 O2 1.734110 1_555
As2 O0 1.744891 1_655
As3 O7 1.674759 1_555
As3 O11 1.754346 1_555
As3 O3 1.754600 1_555
As3 O1 1.763282 1_455
H0 O4 0.994039 1_555
H1 O5 0.992568 1_555
H2 O6 1.070725 1_555
H2 O7 1.427434 1_656
