# generated using pymatgen
data_In2GaAs3
_symmetry_space_group_name_H-M   'P 1'
_cell_length_a   9.55225286
_cell_length_b   9.55225286
_cell_length_c   9.55225286
_cell_angle_alpha   154.10593642
_cell_angle_beta   154.10593642
_cell_angle_gamma   36.94564636
_symmetry_Int_Tables_number   1
_chemical_formula_structural   In2GaAs3
_chemical_formula_sum   'In2 Ga1 As3'
_cell_volume   165.99441753
_cell_formula_units_Z   1
loop_
 _symmetry_equiv_pos_site_id
 _symmetry_equiv_pos_as_xyz
  1  'x, y, z'
loop_
 _atom_site_type_symbol
 _atom_site_label
 _atom_site_symmetry_multiplicity
 _atom_site_fract_x
 _atom_site_fract_y
 _atom_site_fract_z
 _atom_site_occupancy
  In  In0  1  0.33675600  0.33675600  0.00000000  1
  In  In1  1  0.66324400  0.66324400  0.00000000  1
  Ga  Ga0  1  0.00000000  0.00000000  0.00000000  1
  As  As0  1  0.25000000  0.75000000  0.50000000  1
  As  As1  1  0.57547500  0.07547500  0.50000000  1
  As  As2  1  0.92452500  0.42452500  0.50000000  1
loop_
_geom_bond_atom_site_label_1
_geom_bond_atom_site_label_2
_geom_bond_distance
_geom_bond_site_symmetry_2
As0 In0 2.655497 1_555
As0 In1 2.655497 1_455
As0 In1 2.655497 1_556
As0 In0 2.655497 1_566
As1 Ga0 2.539835 1_555
As1 Ga0 2.539835 1_656
As1 In1 2.666405 1_545
As1 In1 2.666405 1_556
As2 Ga0 2.539835 1_666
As2 Ga0 2.539835 1_655
As2 In0 2.666405 1_555
As2 In0 2.666405 1_656
