# generated using pymatgen
data_NaTi4(CuO4)3
_symmetry_space_group_name_H-M   'P 1'
_cell_length_a   6.43475062
_cell_length_b   6.43475062
_cell_length_c   6.43475062
_cell_angle_alpha   109.47122063
_cell_angle_beta   109.47122063
_cell_angle_gamma   109.47122063
_symmetry_Int_Tables_number   1
_chemical_formula_structural   NaTi4(CuO4)3
_chemical_formula_sum   'Na1 Ti4 Cu3 O12'
_cell_volume   205.10359353
_cell_formula_units_Z   1
loop_
 _symmetry_equiv_pos_site_id
 _symmetry_equiv_pos_as_xyz
  1  'x, y, z'
loop_
 _atom_site_type_symbol
 _atom_site_label
 _atom_site_symmetry_multiplicity
 _atom_site_fract_x
 _atom_site_fract_y
 _atom_site_fract_z
 _atom_site_occupancy
  Na  Na0  1  0.00000000  0.00000000  0.00000000  1
  Ti  Ti0  1  0.50000000  0.50000000  0.50000000  1
  Ti  Ti1  1  0.50000000  0.00000000  0.00000000  1
  Ti  Ti2  1  0.00000000  0.50000000  0.00000000  1
  Ti  Ti3  1  0.00000000  0.00000000  0.50000000  1
  Cu  Cu0  1  0.50000000  0.50000000  0.00000000  1
  Cu  Cu1  1  0.50000000  0.00000000  0.50000000  1
  Cu  Cu2  1  0.00000000  0.50000000  0.50000000  1
  O  O0  1  0.82242800  0.69031300  0.51274100  1
  O  O1  1  0.17757200  0.30968700  0.48725900  1
  O  O2  1  0.17757200  0.69031300  0.86788600  1
  O  O3  1  0.82242800  0.30968700  0.13211400  1
  O  O4  1  0.69031300  0.51274100  0.82242800  1
  O  O5  1  0.30968700  0.48725900  0.17757200  1
  O  O6  1  0.69031300  0.86788600  0.17757200  1
  O  O7  1  0.30968700  0.13211400  0.82242800  1
  O  O8  1  0.51274100  0.82242800  0.69031300  1
  O  O9  1  0.48725900  0.17757200  0.30968700  1
  O  O10  1  0.13211400  0.82242800  0.30968700  1
  O  O11  1  0.86788600  0.17757200  0.69031300  1
loop_
_geom_bond_atom_site_label_1
_geom_bond_atom_site_label_2
_geom_bond_distance
_geom_bond_site_symmetry_2
Na0 O10 2.652468 1_545
Na0 O3 2.652468 1_455
Na0 O7 2.652468 1_554
Na0 O11 2.652468 1_454
Na0 O2 2.652468 1_544
Na0 O6 2.652468 1_445
Na0 O0 2.652469 1_444
Na0 O1 2.652469 1_555
Na0 O4 2.652469 1_444
Na0 O8 2.652469 1_444
Na0 O5 2.652469 1_555
Na0 O9 2.652469 1_555
Cu0 O4 1.934009 1_554
Cu0 O5 1.934009 1_555
Cu0 O7 1.934014 1_554
Cu0 O6 1.934014 1_555
Cu1 O8 1.934009 1_545
Cu1 O9 1.934009 1_555
Cu1 O11 1.934014 1_555
Cu1 O10 1.934014 1_545
Cu2 O0 1.934009 1_455
Cu2 O1 1.934009 1_555
Cu2 O3 1.934014 1_455
Cu2 O2 1.934014 1_555
O0 Ti3 1.984135 1_665
O0 Ti0 1.984135 1_555
O1 Ti0 1.984135 1_555
O1 Ti3 1.984135 1_555
O2 Ti2 1.984130 1_556
O2 Ti1 1.984137 1_566
O3 Ti2 1.984130 1_655
O3 Ti1 1.984137 1_555
O4 Ti2 1.984135 1_656
O4 Ti0 1.984135 1_555
O5 Ti0 1.984135 1_555
O5 Ti2 1.984135 1_555
O6 Ti1 1.984130 1_565
O6 Ti3 1.984137 1_665
O7 Ti1 1.984130 1_556
O7 Ti3 1.984137 1_555
O8 Ti1 1.984135 1_566
O8 Ti0 1.984135 1_555
O9 Ti0 1.984135 1_555
O9 Ti1 1.984135 1_555
O10 Ti3 1.984130 1_565
O10 Ti2 1.984137 1_555
O11 Ti3 1.984130 1_655
O11 Ti2 1.984137 1_656
