# generated using pymatgen
data_Li6Mn3CoO10
_symmetry_space_group_name_H-M   'P 1'
_cell_length_a   5.02933200
_cell_length_b   5.18633723
_cell_length_c   7.68530227
_cell_angle_alpha   103.76719928
_cell_angle_beta   107.25140796
_cell_angle_gamma   101.22841695
_symmetry_Int_Tables_number   1
_chemical_formula_structural   Li6Mn3CoO10
_chemical_formula_sum   'Li6 Mn3 Co1 O10'
_cell_volume   178.17614262
_cell_formula_units_Z   1
loop_
 _symmetry_equiv_pos_site_id
 _symmetry_equiv_pos_as_xyz
  1  'x, y, z'
loop_
 _atom_site_type_symbol
 _atom_site_label
 _atom_site_symmetry_multiplicity
 _atom_site_fract_x
 _atom_site_fract_y
 _atom_site_fract_z
 _atom_site_occupancy
  Li  Li0  1  0.21134500  0.50428300  0.90716700  1
  Li  Li1  1  0.78755400  0.50782100  0.10139700  1
  Li  Li2  1  0.41325900  0.49512600  0.29959600  1
  Li  Li3  1  0.98262400  0.49010400  0.49277000  1
  Li  Li4  1  0.60602200  0.50477900  0.70059700  1
  Li  Li5  1  0.60028800  0.99910800  0.20041600  1
  Mn  Mn0  1  0.00110200  0.99161100  0.00407100  1
  Mn  Mn1  1  0.19693500  0.00637500  0.39597200  1
  Mn  Mn2  1  0.40284200  0.99810400  0.80580100  1
  Co  Co0  1  0.79218500  0.00716400  0.58907900  1
  O  O0  1  0.02025900  0.77107200  0.76707900  1
  O  O1  1  0.62799900  0.75396000  0.95005100  1
  O  O2  1  0.18432900  0.78015900  0.15403800  1
  O  O3  1  0.82360000  0.76996400  0.36950000  1
  O  O4  1  0.40147600  0.79115700  0.54538300  1
  O  O5  1  0.37814800  0.23186300  0.03501900  1
  O  O6  1  0.01684800  0.21959600  0.24626700  1
  O  O7  1  0.58071700  0.23802100  0.45602400  1
  O  O8  1  0.17063300  0.23114400  0.62701700  1
  O  O9  1  0.80183300  0.20858800  0.85275600  1
loop_
_geom_bond_atom_site_label_1
_geom_bond_atom_site_label_2
_geom_bond_distance
_geom_bond_site_symmetry_2
Li0 O5 2.073363 1_556
Li0 O1 2.122970 1_555
Li0 O2 2.145194 1_556
Li0 O0 2.147181 1_555
Li0 O9 2.173118 1_455
Li0 O8 2.204119 1_555
Li1 O1 2.044130 1_554
Li1 O2 2.071776 1_655
Li1 O5 2.104774 1_555
Li1 O3 2.115632 1_555
Li1 O9 2.185960 1_554
Li1 O6 2.346466 1_655
Li2 O6 2.076501 1_555
Li2 O5 2.098023 1_555
Li2 O3 2.100412 1_555
Li2 O7 2.128947 1_555
Li2 O4 2.156462 1_555
Li2 O2 2.334164 1_555
Li3 O3 2.073885 1_555
Li3 O7 2.081177 1_555
Li3 O8 2.082736 1_655
Li3 O6 2.146923 1_655
Li3 O0 2.190277 1_655
Li3 O4 2.225372 1_655
Li4 O1 1.999302 1_555
Li4 O7 2.003765 1_555
Li4 O0 2.102617 1_655
Li4 O8 2.191354 1_555
Li4 O4 2.323280 1_555
Li4 O9 2.336261 1_555
Li5 O2 2.057402 1_555
Li5 O6 2.063559 1_665
Li5 O1 2.098072 1_554
Li5 O7 2.099440 1_565
Li5 O5 2.175857 1_565
Li5 O3 2.179792 1_555
Mn0 O1 1.899023 1_454
Mn0 O6 1.922906 1_565
Mn0 O2 1.935302 1_555
Mn0 O0 1.946880 1_554
Mn0 O5 1.968836 1_565
Mn0 O9 1.998463 1_464
Mn1 O7 1.920040 1_555
Mn1 O2 1.923661 1_545
Mn1 O8 1.934822 1_555
Mn1 O6 1.935058 1_555
Mn1 O3 1.956617 1_445
Mn1 O4 1.994797 1_545
Mn2 O5 1.939176 1_566
Mn2 O0 1.946423 1_555
Mn2 O9 1.969388 1_565
Mn2 O4 2.030803 1_555
Mn2 O1 2.143949 1_555
Mn2 O8 2.258516 1_565
Co0 O3 1.905746 1_545
Co0 O8 1.925021 1_655
Co0 O4 1.949692 1_545
Co0 O7 2.010939 1_555
Co0 O9 2.028418 1_555
Co0 O0 2.258299 1_645
