# generated using pymatgen
data_CsMg6W
_symmetry_space_group_name_H-M   'P 1'
_cell_length_a   6.60031041
_cell_length_b   6.60031041
_cell_length_c   5.25251700
_cell_angle_alpha   90.00000000
_cell_angle_beta   90.00000000
_cell_angle_gamma   118.63425624
_symmetry_Int_Tables_number   1
_chemical_formula_structural   CsMg6W
_chemical_formula_sum   'Cs1 Mg6 W1'
_cell_volume   200.83556005
_cell_formula_units_Z   1
loop_
 _symmetry_equiv_pos_site_id
 _symmetry_equiv_pos_as_xyz
  1  'x, y, z'
loop_
 _atom_site_type_symbol
 _atom_site_label
 _atom_site_symmetry_multiplicity
 _atom_site_fract_x
 _atom_site_fract_y
 _atom_site_fract_z
 _atom_site_occupancy
  Cs  Cs0  1  0.35157200  0.64842800  0.50000000  1
  Mg  Mg0  1  0.88127600  0.69176700  0.50000000  1
  Mg  Mg1  1  0.30823300  0.11872400  0.50000000  1
  Mg  Mg2  1  0.82480600  0.17519400  0.50000000  1
  Mg  Mg3  1  0.69974600  0.85754000  0.00000000  1
  Mg  Mg4  1  0.14246000  0.30025400  0.00000000  1
  Mg  Mg5  1  0.65820400  0.34179600  0.00000000  1
  W  W0  1  0.13370400  0.86629600  0.00000000  1
loop_
_geom_bond_atom_site_label_1
_geom_bond_atom_site_label_2
_geom_bond_distance
_geom_bond_site_symmetry_2
Cs0 Mg1 3.250889 1_565
Cs0 Mg0 3.250889 1_455
Cs0 Mg4 3.323148 1_556
Cs0 Mg4 3.323148 1_555
Cs0 Mg3 3.323148 1_555
Cs0 Mg3 3.323148 1_556
Cs0 Mg0 3.368500 1_555
Cs0 Mg1 3.368500 1_555
Cs0 Mg2 3.381724 1_455
Cs0 Mg2 3.381724 1_565
Cs0 W0 3.607601 1_555
Cs0 W0 3.607601 1_556
Mg0 Mg1 2.876021 1_665
Mg0 W0 3.026653 1_656
Mg0 W0 3.026653 1_655
Mg0 Mg2 3.247448 1_555
Mg0 Mg3 3.284273 1_555
Mg0 Mg3 3.284273 1_556
Mg0 Mg5 3.337832 1_556
Mg0 Mg5 3.337832 1_555
Mg0 Mg2 3.385225 1_565
Mg1 W0 3.026653 1_546
Mg1 W0 3.026653 1_545
Mg1 Mg2 3.247448 1_555
Mg1 Mg4 3.284273 1_556
Mg1 Mg4 3.284273 1_555
Mg1 Mg5 3.337832 1_556
Mg1 Mg5 3.337832 1_555
Mg1 Mg2 3.385225 1_455
Mg2 Mg4 3.211804 1_656
Mg2 Mg3 3.211804 1_545
Mg2 Mg4 3.211804 1_655
Mg2 Mg3 3.211804 1_546
Mg2 Mg5 3.236433 1_556
Mg2 Mg5 3.236433 1_555
Mg3 W0 2.837016 1_655
Mg3 Mg5 3.281510 1_555
Mg3 Mg5 3.336327 1_565
Mg4 W0 2.837016 1_545
Mg4 Mg5 3.281510 1_555
Mg4 Mg5 3.336327 1_455
Mg5 W0 3.379510 1_545
Mg5 W0 3.379510 1_655
