# generated using pymatgen
data_Ca3HoMn4O12
_symmetry_space_group_name_H-M   'P 1'
_cell_length_a   7.57885700
_cell_length_b   5.34741400
_cell_length_c   5.46762928
_cell_angle_alpha   89.98174542
_cell_angle_beta   90.00000000
_cell_angle_gamma   90.00000000
_symmetry_Int_Tables_number   1
_chemical_formula_structural   Ca3HoMn4O12
_chemical_formula_sum   'Ca3 Ho1 Mn4 O12'
_cell_volume   221.58816437
_cell_formula_units_Z   1
loop_
 _symmetry_equiv_pos_site_id
 _symmetry_equiv_pos_as_xyz
  1  'x, y, z'
loop_
 _atom_site_type_symbol
 _atom_site_label
 _atom_site_symmetry_multiplicity
 _atom_site_fract_x
 _atom_site_fract_y
 _atom_site_fract_z
 _atom_site_occupancy
  Ca  Ca0  1  0.50000000  0.00885900  0.04920800  1
  Ca  Ca1  1  0.00000000  0.50892000  0.45508400  1
  Ca  Ca2  1  0.00000000  0.98995300  0.95256500  1
  Ho  Ho0  1  0.50000000  0.48705700  0.56076900  1
  Mn  Mn0  1  0.24911800  0.99796000  0.49914400  1
  Mn  Mn1  1  0.75110900  0.50178200  0.00385700  1
  Mn  Mn2  1  0.75088200  0.99796000  0.49914400  1
  Mn  Mn3  1  0.24889100  0.50178200  0.00385700  1
  O  O0  1  0.50000000  0.58079300  0.97283200  1
  O  O1  1  0.50000000  0.90579500  0.47970000  1
  O  O2  1  0.00000000  0.41778100  0.02341100  1
  O  O3  1  0.00000000  0.07894300  0.52457100  1
  O  O4  1  0.30032500  0.21361300  0.78467500  1
  O  O5  1  0.70104100  0.29959000  0.29793500  1
  O  O6  1  0.79036100  0.79878800  0.20369900  1
  O  O7  1  0.21556600  0.69921700  0.70161900  1
  O  O8  1  0.20963900  0.79878800  0.20369900  1
  O  O9  1  0.78443400  0.69921700  0.70161900  1
  O  O10  1  0.69967500  0.21361300  0.78467500  1
  O  O11  1  0.29895900  0.29959000  0.29793500  1
loop_
_geom_bond_atom_site_label_1
_geom_bond_atom_site_label_2
_geom_bond_distance
_geom_bond_site_symmetry_2
Ca0 O0 2.326957 1_544
Ca0 O10 2.362179 1_554
Ca0 O4 2.362179 1_554
Ca0 O1 2.417261 1_545
Ca0 O5 2.566965 1_555
Ca0 O11 2.566965 1_555
Ca0 O8 2.611026 1_545
Ca0 O6 2.611026 1_545
Ca1 O3 2.330324 1_555
Ca1 O7 2.350000 1_555
Ca1 O9 2.350000 1_455
Ca1 O2 2.410171 1_555
Ca1 O8 2.610524 1_555
Ca1 O6 2.610524 1_455
Ca1 O11 2.669381 1_555
Ca1 O5 2.669381 1_455
Ca2 O2 2.320457 1_566
Ca2 O8 2.335351 1_556
Ca2 O6 2.335351 1_456
Ca2 O3 2.387858 1_565
Ca2 O7 2.640100 1_555
Ca2 O9 2.640100 1_455
Ca2 O4 2.730036 1_565
Ca2 O10 2.730036 1_465
Ho0 O1 2.282478 1_555
Ho0 O0 2.308248 1_555
Ho0 O5 2.322195 1_555
Ho0 O11 2.322195 1_555
Ho0 O10 2.434296 1_555
Ho0 O4 2.434296 1_555
Ho0 O9 2.554940 1_555
Ho0 O7 2.554940 1_555
Mn0 O3 1.942049 1_565
Mn0 O8 1.958169 1_555
Mn0 O7 1.959879 1_555
Mn0 O1 1.967117 1_555
Mn0 O4 1.979615 1_565
Mn0 O11 1.988324 1_565
Mn1 O2 1.941992 1_655
Mn1 O6 1.950881 1_555
Mn1 O0 1.956809 1_554
Mn1 O5 1.974147 1_555
Mn1 O9 1.976907 1_554
Mn1 O10 1.990945 1_554
Mn2 O3 1.942049 1_665
Mn2 O6 1.958169 1_555
Mn2 O9 1.959879 1_555
Mn2 O1 1.967117 1_555
Mn2 O10 1.979615 1_565
Mn2 O5 1.988324 1_565
Mn3 O2 1.941992 1_555
Mn3 O8 1.950881 1_555
Mn3 O0 1.956809 1_554
Mn3 O11 1.974147 1_555
Mn3 O7 1.976907 1_554
Mn3 O4 1.990945 1_554
