# generated using pymatgen
data_CrBiWO6
_symmetry_space_group_name_H-M   'P 1'
_cell_length_a   7.20919881
_cell_length_b   7.20919881
_cell_length_c   7.20919881
_cell_angle_alpha   120.50553684
_cell_angle_beta   119.25133638
_cell_angle_gamma   90.21410242
_symmetry_Int_Tables_number   1
_chemical_formula_structural   CrBiWO6
_chemical_formula_sum   'Cr2 Bi2 W2 O12'
_cell_volume   265.38430742
_cell_formula_units_Z   2
loop_
 _symmetry_equiv_pos_site_id
 _symmetry_equiv_pos_as_xyz
  1  'x, y, z'
loop_
 _atom_site_type_symbol
 _atom_site_label
 _atom_site_symmetry_multiplicity
 _atom_site_fract_x
 _atom_site_fract_y
 _atom_site_fract_z
 _atom_site_occupancy
  Cr  Cr0  1  0.00000000  0.50000000  0.00000000  1
  Cr  Cr1  1  0.00000000  0.00000000  0.50000000  1
  Bi  Bi0  1  0.00000000  0.00000000  0.00000000  1
  Bi  Bi1  1  0.50000000  0.00000000  0.50000000  1
  W  W0  1  0.50000000  0.50000000  0.00000000  1
  W  W1  1  0.00000000  0.50000000  0.50000000  1
  O  O0  1  0.07482100  0.82482100  0.25000000  1
  O  O1  1  0.68664100  0.43664100  0.25000000  1
  O  O2  1  0.05604100  0.81943300  0.63342000  1
  O  O3  1  0.68601300  0.42262100  0.86658000  1
  O  O4  1  0.68601300  0.81943300  0.26339200  1
  O  O5  1  0.05604100  0.42262100  0.23660800  1
  O  O6  1  0.92517900  0.17517900  0.75000000  1
  O  O7  1  0.31335900  0.56335900  0.75000000  1
  O  O8  1  0.94395900  0.18056700  0.36658000  1
  O  O9  1  0.31398700  0.57737900  0.13342000  1
  O  O10  1  0.31398700  0.18056700  0.73660800  1
  O  O11  1  0.94395900  0.57737900  0.76339200  1
loop_
_geom_bond_atom_site_label_1
_geom_bond_atom_site_label_2
_geom_bond_distance
_geom_bond_site_symmetry_2
Cr0 O9 1.917876 1_555
Cr0 O5 1.917876 1_555
Cr0 O11 1.917876 1_454
Cr0 O3 1.917876 1_454
Cr0 O0 1.943836 1_555
Cr0 O6 1.943836 1_454
Cr1 O10 1.917876 1_555
Cr1 O4 1.917876 1_445
Cr1 O8 1.917876 1_455
Cr1 O2 1.917876 1_545
Cr1 O6 1.943836 1_455
Cr1 O0 1.943836 1_545
Bi0 O5 2.529157 1_555
Bi0 O11 2.529157 1_444
Bi0 O2 2.529157 1_544
Bi0 O8 2.529157 1_455
Bi0 O6 2.549508 1_454
Bi0 O0 2.549508 1_545
Bi1 O3 2.529157 1_555
Bi1 O4 2.529157 1_545
Bi1 O9 2.529157 1_545
Bi1 O10 2.529157 1_555
Bi1 O6 2.549508 1_555
Bi1 O0 2.549508 1_545
O1 W0 1.933336 1_555
O1 W1 1.933336 1_655
O2 W1 1.938049 1_555
O3 W0 1.938049 1_556
O4 W0 1.938049 1_555
O5 W1 1.938049 1_555
O7 W0 1.933336 1_556
O7 W1 1.933336 1_555
O8 W1 1.938049 1_655
O9 W0 1.938049 1_555
O10 W0 1.938049 1_556
O11 W1 1.938049 1_655
