# generated using pymatgen
data_Te4Mo2WSe2
_symmetry_space_group_name_H-M   'P 1'
_cell_length_a   3.47787156
_cell_length_b   3.47787156
_cell_length_c   31.97565900
_cell_angle_alpha   90.00000000
_cell_angle_beta   90.00000000
_cell_angle_gamma   119.99999171
_symmetry_Int_Tables_number   1
_chemical_formula_structural   Te4Mo2WSe2
_chemical_formula_sum   'Te4 Mo2 W1 Se2'
_cell_volume   334.94789380
_cell_formula_units_Z   1
loop_
 _symmetry_equiv_pos_site_id
 _symmetry_equiv_pos_as_xyz
  1  'x, y, z'
loop_
 _atom_site_type_symbol
 _atom_site_label
 _atom_site_symmetry_multiplicity
 _atom_site_fract_x
 _atom_site_fract_y
 _atom_site_fract_z
 _atom_site_occupancy
  Te  Te0  1  0.33333300  0.66666700  0.05812200  1
  Te  Te1  1  0.33333300  0.66666700  0.52037400  1
  Te  Te2  1  0.33333300  0.66666700  0.17320400  1
  Te  Te3  1  0.33333300  0.66666700  0.63623600  1
  Mo  Mo0  1  0.00000000  0.00000000  0.11565500  1
  Mo  Mo1  1  0.33333300  0.66666700  0.34697800  1
  W  W0  1  0.00000000  0.00000000  0.57831500  1
  Se  Se0  1  0.00000000  0.00000000  0.39776400  1
  Se  Se1  1  0.00000000  0.00000000  0.29619300  1
loop_
_geom_bond_atom_site_label_1
_geom_bond_atom_site_label_2
_geom_bond_distance
_geom_bond_site_symmetry_2
Te1 W0 2.732098 1_565
Te1 W0 2.732100 1_665
Te1 W0 2.732100 1_555
Te3 W0 2.731664 1_565
Te3 W0 2.731667 1_665
Te3 W0 2.731667 1_555
Mo0 Te0 2.723268 1_545
Mo0 Te0 2.723270 1_445
Mo0 Te0 2.723270 1_555
Mo0 Te2 2.723613 1_545
Mo0 Te2 2.723616 1_445
Mo0 Te2 2.723616 1_555
Mo1 Se1 2.582412 1_565
Mo1 Se1 2.582415 1_555
Mo1 Se1 2.582415 1_665
Mo1 Se0 2.582433 1_565
Mo1 Se0 2.582435 1_665
Mo1 Se0 2.582435 1_555
