# generated using pymatgen
data_YP(H2O3)2
_symmetry_space_group_name_H-M   'P 1'
_cell_length_a   5.61216706
_cell_length_b   6.24916776
_cell_length_c   8.14704934
_cell_angle_alpha   67.44789974
_cell_angle_beta   80.54410009
_cell_angle_gamma   64.63608535
_symmetry_Int_Tables_number   1
_chemical_formula_structural   YP(H2O3)2
_chemical_formula_sum   'Y2 P2 H8 O12'
_cell_volume   238.44236896
_cell_formula_units_Z   2
loop_
 _symmetry_equiv_pos_site_id
 _symmetry_equiv_pos_as_xyz
  1  'x, y, z'
loop_
 _atom_site_type_symbol
 _atom_site_label
 _atom_site_symmetry_multiplicity
 _atom_site_fract_x
 _atom_site_fract_y
 _atom_site_fract_z
 _atom_site_occupancy
  Y  Y0  1  0.25000000  0.17196300  0.65607300  1
  Y  Y1  1  0.75000000  0.82803700  0.34392700  1
  P  P0  1  0.25000000  0.66767400  0.66465300  1
  P  P1  1  0.75000000  0.33232600  0.33534700  1
  H  H0  1  0.74508100  0.32065200  0.83223400  1
  H  H1  1  0.75491900  0.84711400  0.83223400  1
  H  H2  1  0.25491900  0.67934800  0.16776600  1
  H  H3  1  0.24508100  0.15288600  0.16776600  1
  H  H4  1  0.92703000  0.24245800  0.99523100  1
  H  H5  1  0.57297000  0.76231100  0.99523100  1
  H  H6  1  0.07297000  0.75754200  0.00476900  1
  H  H7  1  0.42703000  0.23768900  0.00476900  1
  O  O0  1  0.07774700  0.83222100  0.77736300  1
  O  O1  1  0.42225300  0.39041700  0.77736300  1
  O  O2  1  0.92225300  0.16777900  0.22263700  1
  O  O3  1  0.57774700  0.60958300  0.22263700  1
  O  O4  1  0.41757500  0.81472300  0.54712500  1
  O  O5  1  0.08242500  0.63815200  0.54712500  1
  O  O6  1  0.58242500  0.18527700  0.45287500  1
  O  O7  1  0.91757500  0.36184800  0.45287500  1
  O  O8  1  0.92738300  0.27668300  0.86557000  1
  O  O9  1  0.57261700  0.85774800  0.86557000  1
  O  O10  1  0.07261700  0.72331700  0.13443000  1
  O  O11  1  0.42738300  0.14225200  0.13443000  1
loop_
_geom_bond_atom_site_label_1
_geom_bond_atom_site_label_2
_geom_bond_distance
_geom_bond_site_symmetry_2
H0 O8 0.994599 1_555
H1 O9 0.994598 1_555
H2 O10 0.994599 1_555
H3 O11 0.994598 1_555
H4 O8 0.993986 1_555
H5 O9 0.993987 1_555
H6 O10 0.993986 1_555
H7 O11 0.993987 1_555
O0 P0 1.554362 1_555
O0 Y0 2.500767 1_565
O1 P0 1.554362 1_555
O1 Y0 2.500778 1_555
O2 P1 1.554362 1_555
O2 Y1 2.500767 1_545
O3 P1 1.554362 1_555
O3 Y1 2.500778 1_555
O4 P0 1.554133 1_555
O4 Y1 2.289229 1_555
O4 Y0 2.470438 1_565
O5 P0 1.554137 1_555
O5 Y1 2.289229 1_455
O5 Y0 2.470444 1_555
O6 P1 1.554133 1_555
O6 Y0 2.289229 1_555
O6 Y1 2.470438 1_545
O7 P1 1.554137 1_555
O7 Y0 2.289229 1_655
O7 Y1 2.470444 1_555
O8 Y0 2.333625 1_655
O9 Y0 2.333622 1_565
O10 Y1 2.333625 1_455
O11 Y1 2.333622 1_545
