# generated using pymatgen
data_UAl3Fe7Si2
_symmetry_space_group_name_H-M   'P 1'
_cell_length_a   4.71986000
_cell_length_b   6.32175485
_cell_length_c   6.41758397
_cell_angle_alpha   97.16500487
_cell_angle_beta   111.57561017
_cell_angle_gamma   68.08053385
_symmetry_Int_Tables_number   1
_chemical_formula_structural   UAl3Fe7Si2
_chemical_formula_sum   'U1 Al3 Fe7 Si2'
_cell_volume   165.17947987
_cell_formula_units_Z   1
loop_
 _symmetry_equiv_pos_site_id
 _symmetry_equiv_pos_as_xyz
  1  'x, y, z'
loop_
 _atom_site_type_symbol
 _atom_site_label
 _atom_site_symmetry_multiplicity
 _atom_site_fract_x
 _atom_site_fract_y
 _atom_site_fract_z
 _atom_site_occupancy
  U  U0  1  0.99100900  0.00942500  0.99144300  1
  Al  Al0  1  0.36092900  0.64853900  0.37039700  1
  Al  Al1  1  0.00857900  0.34315300  0.36031000  1
  Al  Al2  1  0.99023600  0.65716700  0.63764000  1
  Fe  Fe0  1  0.66473400  0.33423600  0.66370500  1
  Fe  Fe1  1  0.72404000  0.76878900  0.21686900  1
  Fe  Fe2  1  0.27719100  0.22285000  0.77723300  1
  Fe  Fe3  1  0.50162400  0.77727500  0.78052300  1
  Fe  Fe4  1  0.49142800  0.23038700  0.21324300  1
  Fe  Fe5  1  0.50587500  0.00467300  0.50161800  1
  Fe  Fe6  1  0.99107100  0.00467300  0.50161800  1
  Si  Si0  1  0.49831600  0.49941600  0.99270100  1
  Si  Si1  1  0.99496800  0.49941600  0.99270100  1
loop_
_geom_bond_atom_site_label_1
_geom_bond_atom_site_label_2
_geom_bond_distance
_geom_bond_site_symmetry_2
Al0 Fe0 2.523485 1_555
Al0 Fe6 2.549360 1_465
Al0 Fe5 2.549362 1_565
Al0 Fe3 2.571874 1_555
Al0 Fe1 2.624373 1_555
Al0 Fe1 2.624373 1_455
Al0 Fe4 2.638292 1_555
Al0 Si0 2.704445 1_554
Al0 Si1 2.704447 1_454
Al0 Al2 2.849180 1_555
Al0 Al2 2.849184 1_455
Al0 Al1 2.963739 1_555
Al0 Al1 2.963742 1_655
Al0 U0 3.074909 1_464
Al1 Fe6 2.465583 1_455
Al1 Fe5 2.465583 1_555
Al1 Al2 2.493894 1_455
Al1 Fe2 2.576373 1_555
Al1 Fe4 2.606501 1_555
Al1 Fe4 2.606506 1_455
Al1 Fe1 2.627150 1_455
Al1 Si1 2.639724 1_454
Al1 Si0 2.639728 1_454
Al1 U0 2.966836 1_454
Al1 Fe0 2.974498 1_555
Al1 Fe0 2.974506 1_455
Al2 Fe5 2.464857 1_565
Al2 Fe6 2.464861 1_565
Al2 Fe1 2.585827 1_555
Al2 Si1 2.588437 1_555
Al2 Si0 2.588437 1_655
Al2 Fe3 2.609605 1_555
Al2 Fe3 2.609609 1_655
Al2 Fe2 2.668395 1_655
Al2 U0 2.975425 1_565
Al2 Fe0 3.028497 1_555
Al2 Fe0 3.028497 1_655
Fe0 Fe5 2.457013 1_555
Fe0 Fe6 2.457017 1_555
Fe0 Si0 2.494503 1_555
Fe0 Si1 2.494503 1_555
Fe0 Fe2 2.538144 1_555
Fe0 Fe2 2.538144 1_655
Fe0 Fe3 2.699992 1_555
Fe0 U0 2.710352 1_555
Fe0 Fe4 2.765076 1_555
Fe1 Si1 2.391808 1_554
Fe1 Si0 2.391811 1_554
Fe1 Fe5 2.486180 1_565
Fe1 Fe6 2.486182 1_565
Fe1 Fe3 2.603831 1_554
Fe1 Fe4 2.706930 1_565
Fe1 U0 3.052151 1_564
Fe1 U0 3.052151 1_464
Fe2 Si0 2.399183 1_555
Fe2 Si1 2.399183 1_455
Fe2 Fe6 2.424867 1_455
Fe2 Fe5 2.424872 1_555
Fe2 Fe4 2.603093 1_556
Fe2 Fe3 2.612975 1_545
Fe2 U0 2.953592 1_455
Fe2 U0 2.953596 1_555
Fe3 Si1 2.360644 1_555
Fe3 Si0 2.360646 1_555
Fe3 Fe6 2.441412 1_465
Fe3 Fe5 2.441415 1_565
Fe3 U0 3.009530 1_465
Fe3 U0 3.009530 1_565
Fe4 Si0 2.360584 1_554
Fe4 Si1 2.360586 1_454
Fe4 Fe5 2.441104 1_555
Fe4 Fe6 2.441107 1_555
Fe4 U0 3.008427 1_454
Fe4 U0 3.008427 1_554
Fe5 Fe6 2.290057 1_555
Fe5 Fe6 2.429803 1_455
Fe5 U0 3.139993 1_555
Fe5 U0 3.277867 1_454
Fe6 U0 3.139994 1_555
Fe6 U0 3.277865 1_554
Si0 Si1 2.344128 1_555
Si0 Si1 2.375732 1_455
Si0 U0 3.103616 1_555
Si0 U0 3.218223 1_465
Si1 U0 3.103615 1_555
Si1 U0 3.218225 1_565
