# generated using pymatgen
data_Dy2TiCuO6
_symmetry_space_group_name_H-M   'P 1'
_cell_length_a   3.63785900
_cell_length_b   3.63797355
_cell_length_c   11.36813300
_cell_angle_alpha   90.00003599
_cell_angle_beta   90.00037548
_cell_angle_gamma   120.00074061
_symmetry_Int_Tables_number   1
_chemical_formula_structural   Dy2TiCuO6
_chemical_formula_sum   'Dy2 Ti1 Cu1 O6'
_cell_volume   130.29325559
_cell_formula_units_Z   1
loop_
 _symmetry_equiv_pos_site_id
 _symmetry_equiv_pos_as_xyz
  1  'x, y, z'
loop_
 _atom_site_type_symbol
 _atom_site_label
 _atom_site_symmetry_multiplicity
 _atom_site_fract_x
 _atom_site_fract_y
 _atom_site_fract_z
 _atom_site_occupancy
  Dy  Dy0  1  0.00002100  0.00001000  0.27194000  1
  Dy  Dy1  1  0.99999400  0.99999900  0.72395500  1
  Ti  Ti0  1  0.66673800  0.33336800  0.99800800  1
  Cu  Cu0  1  0.33323400  0.66661400  0.49803600  1
  O  O0  1  0.66668900  0.33334400  0.16220900  1
  O  O1  1  0.33331100  0.66665600  0.66676000  1
  O  O2  1  0.99995000  0.99997400  0.99795300  1
  O  O3  1  0.00005800  0.00002900  0.49791400  1
  O  O4  1  0.33333900  0.66667000  0.32939100  1
  O  O5  1  0.66666700  0.33333500  0.83383400  1
loop_
_geom_bond_atom_site_label_1
_geom_bond_atom_site_label_2
_geom_bond_distance
_geom_bond_site_symmetry_2
Dy0 O4 2.199532 1_545
Dy0 O4 2.199546 1_555
Dy0 O4 2.199557 1_445
Dy0 O0 2.442833 1_555
Dy0 O0 2.442864 1_455
Dy0 O0 2.442871 1_445
Dy0 O3 2.568902 1_555
Dy1 O1 2.198680 1_655
Dy1 O1 2.198681 1_665
Dy1 O1 2.198688 1_555
Dy1 O5 2.443689 1_665
Dy1 O5 2.443722 1_565
Dy1 O5 2.443734 1_555
Dy1 O3 2.569664 1_665
Cu0 O4 1.917179 1_555
Cu0 O1 1.918077 1_555
Cu0 O3 2.100113 1_555
Cu0 O3 2.100122 1_565
Cu0 O3 2.100799 1_665
O0 Ti0 1.866659 1_554
O2 Ti0 2.100169 1_565
O2 Ti0 2.100178 1_555
O2 Ti0 2.100686 1_665
O5 Ti0 1.866352 1_555
