# generated using pymatgen
data_Pr3Ga5O12
_symmetry_space_group_name_H-M   'P 1'
_cell_length_a   11.00039844
_cell_length_b   11.00039844
_cell_length_c   11.00039844
_cell_angle_alpha   109.47122063
_cell_angle_beta   109.47122063
_cell_angle_gamma   109.47122063
_symmetry_Int_Tables_number   1
_chemical_formula_structural   Pr3Ga5O12
_chemical_formula_sum   'Pr12 Ga20 O48'
_cell_volume   1024.71562059
_cell_formula_units_Z   4
loop_
 _symmetry_equiv_pos_site_id
 _symmetry_equiv_pos_as_xyz
  1  'x, y, z'
loop_
 _atom_site_type_symbol
 _atom_site_label
 _atom_site_symmetry_multiplicity
 _atom_site_fract_x
 _atom_site_fract_y
 _atom_site_fract_z
 _atom_site_occupancy
  Pr  Pr0  1  0.25000000  0.37500000  0.12500000  1
  Pr  Pr1  1  0.75000000  0.62500000  0.87500000  1
  Pr  Pr2  1  0.75000000  0.12500000  0.37500000  1
  Pr  Pr3  1  0.12500000  0.25000000  0.37500000  1
  Pr  Pr4  1  0.37500000  0.75000000  0.12500000  1
  Pr  Pr5  1  0.25000000  0.87500000  0.62500000  1
  Pr  Pr6  1  0.87500000  0.75000000  0.62500000  1
  Pr  Pr7  1  0.62500000  0.25000000  0.87500000  1
  Pr  Pr8  1  0.37500000  0.12500000  0.25000000  1
  Pr  Pr9  1  0.62500000  0.87500000  0.75000000  1
  Pr  Pr10  1  0.12500000  0.37500000  0.75000000  1
  Pr  Pr11  1  0.87500000  0.62500000  0.25000000  1
  Ga  Ga0  1  0.25000000  0.62500000  0.37500000  1
  Ga  Ga1  1  0.75000000  0.37500000  0.62500000  1
  Ga  Ga2  1  0.75000000  0.87500000  0.12500000  1
  Ga  Ga3  1  0.37500000  0.25000000  0.62500000  1
  Ga  Ga4  1  0.62500000  0.75000000  0.37500000  1
  Ga  Ga5  1  0.25000000  0.12500000  0.87500000  1
  Ga  Ga6  1  0.12500000  0.75000000  0.87500000  1
  Ga  Ga7  1  0.87500000  0.25000000  0.12500000  1
  Ga  Ga8  1  0.62500000  0.37500000  0.25000000  1
  Ga  Ga9  1  0.37500000  0.62500000  0.75000000  1
  Ga  Ga10  1  0.87500000  0.12500000  0.75000000  1
  Ga  Ga11  1  0.12500000  0.87500000  0.25000000  1
  Ga  Ga12  1  0.00000000  0.00000000  0.00000000  1
  Ga  Ga13  1  0.50000000  0.00000000  0.50000000  1
  Ga  Ga14  1  0.00000000  0.50000000  0.50000000  1
  Ga  Ga15  1  0.50000000  0.00000000  0.00000000  1
  Ga  Ga16  1  0.50000000  0.50000000  0.00000000  1
  Ga  Ga17  1  0.50000000  0.50000000  0.50000000  1
  Ga  Ga18  1  0.00000000  0.00000000  0.50000000  1
  Ga  Ga19  1  0.00000000  0.50000000  0.00000000  1
  O  O0  1  0.47825700  0.38182000  0.29935900  1
  O  O1  1  0.52174300  0.61818000  0.70064100  1
  O  O2  1  0.58246100  0.17889900  0.20064100  1
  O  O3  1  0.91753900  0.11818000  0.59643700  1
  O  O4  1  0.29935900  0.47825700  0.38182000  1
  O  O5  1  0.32110100  0.91753900  0.29935900  1
  O  O6  1  0.41753900  0.82110100  0.79935900  1
  O  O7  1  0.08246100  0.88182000  0.40356300  1
  O  O8  1  0.70064100  0.52174300  0.61818000  1
  O  O9  1  0.67889900  0.08246100  0.70064100  1
  O  O10  1  0.02174300  0.32110100  0.90356300  1
  O  O11  1  0.20064100  0.58246100  0.17889900  1
  O  O12  1  0.11818000  0.02174300  0.20064100  1
  O  O13  1  0.97825700  0.67889900  0.09643700  1
  O  O14  1  0.79935900  0.41753900  0.82110100  1
  O  O15  1  0.88182000  0.97825700  0.79935900  1
  O  O16  1  0.59643700  0.91753900  0.11818000  1
  O  O17  1  0.17889900  0.47825700  0.59643700  1
  O  O18  1  0.40356300  0.08246100  0.88182000  1
  O  O19  1  0.82110100  0.52174300  0.40356300  1
  O  O20  1  0.90356300  0.02174300  0.32110100  1
  O  O21  1  0.38182000  0.58246100  0.90356300  1
  O  O22  1  0.09643700  0.97825700  0.67889900  1
  O  O23  1  0.61818000  0.41753900  0.09643700  1
  O  O24  1  0.38182000  0.29935900  0.47825700  1
  O  O25  1  0.58246100  0.90356300  0.38182000  1
  O  O26  1  0.61818000  0.70064100  0.52174300  1
  O  O27  1  0.41753900  0.09643700  0.61818000  1
  O  O28  1  0.11818000  0.59643700  0.91753900  1
  O  O29  1  0.02174300  0.20064100  0.11818000  1
  O  O30  1  0.88182000  0.40356300  0.08246100  1
  O  O31  1  0.97825700  0.79935900  0.88182000  1
  O  O32  1  0.32110100  0.90356300  0.02174300  1
  O  O33  1  0.91753900  0.29935900  0.32110100  1
  O  O34  1  0.67889900  0.09643700  0.97825700  1
  O  O35  1  0.08246100  0.70064100  0.67889900  1
  O  O36  1  0.17889900  0.20064100  0.58246100  1
  O  O37  1  0.47825700  0.59643700  0.17889900  1
  O  O38  1  0.82110100  0.79935900  0.41753900  1
  O  O39  1  0.52174300  0.40356300  0.82110100  1
  O  O40  1  0.29935900  0.32110100  0.91753900  1
  O  O41  1  0.70064100  0.67889900  0.08246100  1
  O  O42  1  0.20064100  0.11818000  0.02174300  1
  O  O43  1  0.79935900  0.88182000  0.97825700  1
  O  O44  1  0.90356300  0.38182000  0.58246100  1
  O  O45  1  0.09643700  0.61818000  0.41753900  1
  O  O46  1  0.59643700  0.17889900  0.47825700  1
  O  O47  1  0.40356300  0.82110100  0.52174300  1
loop_
_geom_bond_atom_site_label_1
_geom_bond_atom_site_label_2
_geom_bond_distance
_geom_bond_site_symmetry_2
Ga0 O11 1.882563 1_555
Ga0 O47 1.882568 1_555
Ga0 O4 1.882574 1_555
Ga0 O45 1.882574 1_555
Ga1 O14 1.882563 1_555
Ga1 O46 1.882568 1_555
Ga1 O8 1.882574 1_555
Ga1 O44 1.882574 1_555
Ga2 O41 1.882563 1_555
Ga2 O20 1.882568 1_565
Ga2 O16 1.882574 1_555
Ga2 O43 1.882574 1_554
Ga3 O36 1.882563 1_555
Ga3 O39 1.882568 1_555
Ga3 O27 1.882574 1_555
Ga3 O24 1.882574 1_555
Ga4 O38 1.882563 1_555
Ga4 O37 1.882568 1_555
Ga4 O26 1.882574 1_555
Ga4 O25 1.882574 1_555
Ga5 O40 1.882563 1_555
Ga5 O22 1.882568 1_545
Ga5 O18 1.882574 1_555
Ga5 O42 1.882574 1_556
Ga6 O35 1.882563 1_555
Ga6 O32 1.882568 1_556
Ga6 O28 1.882574 1_555
Ga6 O31 1.882574 1_455
Ga7 O33 1.882563 1_555
Ga7 O34 1.882568 1_554
Ga7 O30 1.882574 1_555
Ga7 O29 1.882574 1_655
Ga8 O2 1.882563 1_555
Ga8 O19 1.882568 1_555
Ga8 O0 1.882574 1_555
Ga8 O23 1.882574 1_555
Ga9 O6 1.882563 1_555
Ga9 O17 1.882568 1_555
Ga9 O1 1.882574 1_555
Ga9 O21 1.882574 1_555
Ga10 O9 1.882563 1_555
Ga10 O10 1.882568 1_655
Ga10 O3 1.882574 1_555
Ga10 O15 1.882574 1_545
Ga11 O5 1.882563 1_555
Ga11 O13 1.882568 1_455
Ga11 O7 1.882574 1_555
Ga11 O12 1.882574 1_565
Ga12 O42 2.036317 1_555
Ga12 O12 2.036317 1_555
Ga12 O29 2.036317 1_555
Ga12 O43 2.036317 1_444
Ga12 O31 2.036317 1_444
Ga12 O15 2.036317 1_444
Ga13 O25 2.036317 1_545
Ga13 O27 2.036317 1_555
Ga13 O9 2.036322 1_555
Ga13 O5 2.036322 1_545
Ga13 O47 2.036326 1_545
Ga13 O46 2.036326 1_555
Ga14 O44 2.036317 1_455
Ga14 O45 2.036317 1_555
Ga14 O35 2.036322 1_555
Ga14 O33 2.036322 1_455
Ga14 O17 2.036326 1_555
Ga14 O19 2.036326 1_455
Ga15 O18 2.036317 1_554
Ga15 O16 2.036317 1_545
Ga15 O2 2.036322 1_555
Ga15 O6 2.036322 1_544
Ga15 O34 2.036326 1_554
Ga15 O32 2.036326 1_545
Ga16 O21 2.036317 1_554
Ga16 O23 2.036317 1_555
Ga16 O41 2.036322 1_555
Ga16 O40 2.036322 1_554
Ga16 O39 2.036326 1_554
Ga16 O37 2.036326 1_555
Ga17 O4 2.036317 1_555
Ga17 O8 2.036317 1_555
Ga17 O24 2.036317 1_555
Ga17 O0 2.036317 1_555
Ga17 O26 2.036317 1_555
Ga17 O1 2.036317 1_555
Ga18 O7 2.036317 1_545
Ga18 O3 2.036317 1_455
Ga18 O36 2.036322 1_555
Ga18 O38 2.036322 1_445
Ga18 O22 2.036326 1_545
Ga18 O20 2.036326 1_455
Ga19 O30 2.036317 1_455
Ga19 O28 2.036317 1_554
Ga19 O11 2.036322 1_555
Ga19 O14 2.036322 1_454
Ga19 O13 2.036326 1_455
Ga19 O10 2.036326 1_554
O0 Pr8 2.448106 1_555
O0 Pr0 2.560656 1_555
O1 Pr9 2.448106 1_555
O1 Pr1 2.560656 1_555
O2 Pr8 2.448106 1_555
O2 Pr2 2.560664 1_555
O3 Pr10 2.448106 1_655
O3 Pr2 2.560656 1_555
O4 Pr0 2.448106 1_555
O4 Pr3 2.560656 1_555
O5 Pr8 2.448106 1_565
O5 Pr4 2.560664 1_555
O6 Pr9 2.448106 1_555
O6 Pr5 2.560664 1_555
O7 Pr11 2.448106 1_455
O7 Pr5 2.560656 1_555
O8 Pr1 2.448106 1_555
O8 Pr6 2.560656 1_555
O9 Pr9 2.448106 1_545
O9 Pr7 2.560664 1_555
O10 Pr10 2.448109 1_555
O10 Pr0 2.560652 1_556
O11 Pr0 2.448106 1_555
O11 Pr4 2.560664 1_555
O12 Pr8 2.448106 1_555
O12 Pr3 2.560656 1_555
O13 Pr11 2.448109 1_555
O13 Pr1 2.560652 1_554
O14 Pr1 2.448106 1_555
O14 Pr7 2.560664 1_555
O15 Pr9 2.448106 1_555
O15 Pr6 2.560656 1_555
O16 Pr2 2.448106 1_565
O16 Pr4 2.560656 1_555
O17 Pr10 2.448109 1_555
O17 Pr3 2.560652 1_555
O18 Pr5 2.448106 1_545
O18 Pr7 2.560656 1_555
O19 Pr11 2.448109 1_555
O19 Pr6 2.560652 1_555
O20 Pr2 2.448109 1_555
O20 Pr3 2.560652 1_655
O21 Pr10 2.448106 1_555
O21 Pr4 2.560656 1_556
O22 Pr5 2.448109 1_555
O22 Pr6 2.560652 1_455
O23 Pr11 2.448106 1_555
O23 Pr7 2.560656 1_554
O24 Pr3 2.448106 1_555
O24 Pr8 2.560656 1_555
O25 Pr4 2.448106 1_555
O25 Pr2 2.560656 1_565
O26 Pr6 2.448106 1_555
O26 Pr9 2.560656 1_555
O27 Pr7 2.448106 1_555
O27 Pr5 2.560656 1_545
O28 Pr4 2.448106 1_556
O28 Pr10 2.560656 1_555
O29 Pr3 2.448106 1_555
O29 Pr0 2.560656 1_555
O30 Pr7 2.448106 1_554
O30 Pr11 2.560656 1_555
O31 Pr6 2.448106 1_555
O31 Pr1 2.560656 1_555
O32 Pr4 2.448109 1_555
O32 Pr8 2.560652 1_565
O33 Pr3 2.448106 1_655
O33 Pr2 2.560664 1_555
O34 Pr7 2.448109 1_555
O34 Pr9 2.560652 1_545
O35 Pr6 2.448106 1_455
O35 Pr5 2.560664 1_555
O36 Pr3 2.448106 1_555
O36 Pr10 2.560664 1_555
O37 Pr4 2.448109 1_555
O37 Pr0 2.560652 1_555
O38 Pr6 2.448106 1_555
O38 Pr11 2.560664 1_555
O39 Pr7 2.448109 1_555
O39 Pr1 2.560652 1_555
O40 Pr0 2.448106 1_556
O40 Pr10 2.560664 1_555
O41 Pr1 2.448106 1_554
O41 Pr11 2.560664 1_555
O42 Pr0 2.448106 1_555
O42 Pr8 2.560656 1_555
O43 Pr1 2.448106 1_555
O43 Pr9 2.560656 1_555
O44 Pr2 2.448106 1_555
O44 Pr10 2.560656 1_655
O45 Pr5 2.448106 1_555
O45 Pr11 2.560656 1_455
O46 Pr2 2.448109 1_555
O46 Pr8 2.560652 1_555
O47 Pr5 2.448109 1_555
O47 Pr9 2.560652 1_555
