# generated using pymatgen
data_Mg7SiN6
_symmetry_space_group_name_H-M   'P 1'
_cell_length_a   5.49580100
_cell_length_b   8.19537998
_cell_length_c   8.19537998
_cell_angle_alpha   77.77185128
_cell_angle_beta   70.40929171
_cell_angle_gamma   70.40929171
_symmetry_Int_Tables_number   1
_chemical_formula_structural   Mg7SiN6
_chemical_formula_sum   'Mg14 Si2 N12'
_cell_volume   325.56265431
_cell_formula_units_Z   2
loop_
 _symmetry_equiv_pos_site_id
 _symmetry_equiv_pos_as_xyz
  1  'x, y, z'
loop_
 _atom_site_type_symbol
 _atom_site_label
 _atom_site_symmetry_multiplicity
 _atom_site_fract_x
 _atom_site_fract_y
 _atom_site_fract_z
 _atom_site_occupancy
  Mg  Mg0  1  0.28134300  0.95788700  0.04211300  1
  Mg  Mg1  1  0.71865700  0.04211300  0.95788700  1
  Mg  Mg2  1  0.21865700  0.45788700  0.54211300  1
  Mg  Mg3  1  0.78134300  0.54211300  0.45788700  1
  Mg  Mg4  1  0.72514200  0.15112500  0.60891700  1
  Mg  Mg5  1  0.51481700  0.60891700  0.15112500  1
  Mg  Mg6  1  0.77485800  0.89108300  0.34887500  1
  Mg  Mg7  1  0.98518300  0.34887500  0.89108300  1
  Mg  Mg8  1  0.27485800  0.84887500  0.39108300  1
  Mg  Mg9  1  0.48518300  0.39108300  0.84887500  1
  Mg  Mg10  1  0.22514200  0.10891700  0.65112500  1
  Mg  Mg11  1  0.01481700  0.65112500  0.10891700  1
  Mg  Mg12  1  0.25000000  0.25000000  0.25000000  1
  Mg  Mg13  1  0.75000000  0.75000000  0.75000000  1
  Si  Si0  1  0.75000000  0.25000000  0.25000000  1
  Si  Si1  1  0.25000000  0.75000000  0.75000000  1
  N  N0  1  0.02173200  0.06678200  0.27717300  1
  N  N1  1  0.63431300  0.27717300  0.06678200  1
  N  N2  1  0.47826800  0.22282700  0.43321800  1
  N  N3  1  0.86568700  0.43321800  0.22282700  1
  N  N4  1  0.97826800  0.93321800  0.72282700  1
  N  N5  1  0.36568700  0.72282700  0.93321800  1
  N  N6  1  0.52173200  0.77717300  0.56678200  1
  N  N7  1  0.13431300  0.56678200  0.77717300  1
  N  N8  1  0.87083900  0.34454200  0.65545800  1
  N  N9  1  0.12916100  0.65545800  0.34454200  1
  N  N10  1  0.62916100  0.84454200  0.15545800  1
  N  N11  1  0.37083900  0.15545800  0.84454200  1
loop_
_geom_bond_atom_site_label_1
_geom_bond_atom_site_label_2
_geom_bond_distance
_geom_bond_site_symmetry_2
Mg0 N11 2.091592 1_564
Mg0 N0 2.138782 1_565
Mg0 N5 2.138782 1_554
Mg0 N10 2.239239 1_555
Mg1 N10 2.091592 1_546
Mg1 N4 2.138782 1_545
Mg1 N1 2.138782 1_556
Mg1 N11 2.239239 1_555
Mg2 N9 2.091592 1_555
Mg2 N2 2.138782 1_555
Mg2 N7 2.138782 1_555
Mg2 N8 2.239239 1_455
Mg3 N8 2.091592 1_555
Mg3 N6 2.138782 1_555
Mg3 N3 2.138782 1_555
Mg3 N9 2.239239 1_655
Mg4 N4 2.120050 1_545
Mg4 N8 2.147402 1_555
Mg4 N2 2.162528 1_555
Mg4 N11 2.232230 1_555
Mg5 N5 2.120053 1_554
Mg5 N9 2.147406 1_555
Mg5 N3 2.162524 1_555
Mg5 N10 2.232227 1_555
Mg6 N6 2.120050 1_555
Mg6 N10 2.147402 1_555
Mg6 N0 2.162528 1_665
Mg6 N9 2.232230 1_655
Mg7 N7 2.120053 1_655
Mg7 N11 2.147406 1_655
Mg7 N1 2.162524 1_556
Mg7 N8 2.232227 1_555
Mg8 N0 2.120050 1_565
Mg8 N9 2.147402 1_555
Mg8 N6 2.162528 1_555
Mg8 N10 2.232230 1_555
Mg9 N1 2.120053 1_556
Mg9 N8 2.147406 1_555
Mg9 N7 2.162524 1_555
Mg9 N11 2.232227 1_555
Mg10 N2 2.120050 1_555
Mg10 N11 2.147402 1_555
Mg10 N4 2.162528 1_445
Mg10 N8 2.232230 1_455
Mg11 N3 2.120053 1_455
Mg11 N10 2.147406 1_455
Mg11 N5 2.162524 1_554
Mg11 N9 2.232227 1_555
Mg12 N1 2.193682 1_555
Mg12 N3 2.193682 1_455
Mg12 N2 2.193682 1_555
Mg12 N0 2.193682 1_555
Mg13 N7 2.193682 1_655
Mg13 N5 2.193682 1_555
Mg13 N4 2.193682 1_555
Mg13 N6 2.193682 1_555
N0 Si0 1.764101 1_455
N1 Si0 1.764101 1_555
N2 Si0 1.764101 1_555
N3 Si0 1.764101 1_555
N4 Si1 1.764101 1_655
N5 Si1 1.764101 1_555
N6 Si1 1.764101 1_555
N7 Si1 1.764101 1_555
