# generated using pymatgen
data_Nb2GeSb2
_symmetry_space_group_name_H-M   'P 1'
_cell_length_a   5.79440600
_cell_length_b   5.79440600
_cell_length_c   28.62758000
_cell_angle_alpha   90.00000000
_cell_angle_beta   90.00000000
_cell_angle_gamma   90.00000000
_symmetry_Int_Tables_number   1
_chemical_formula_structural   Nb2GeSb2
_chemical_formula_sum   'Nb16 Ge8 Sb16'
_cell_volume   961.17503192
_cell_formula_units_Z   8
loop_
 _symmetry_equiv_pos_site_id
 _symmetry_equiv_pos_as_xyz
  1  'x, y, z'
loop_
 _atom_site_type_symbol
 _atom_site_label
 _atom_site_symmetry_multiplicity
 _atom_site_fract_x
 _atom_site_fract_y
 _atom_site_fract_z
 _atom_site_occupancy
  Nb  Nb0_0  1  0.25000000  0.25000000  0.09015600  1
  Nb  Nb0_1  1  0.25000000  0.25000000  0.59015600  1
  Nb  Nb0_2  1  0.25000000  0.75000000  0.09015600  1
  Nb  Nb0_3  1  0.25000000  0.75000000  0.59015600  1
  Nb  Nb0_4  1  0.75000000  0.25000000  0.09015600  1
  Nb  Nb0_5  1  0.75000000  0.25000000  0.59015600  1
  Nb  Nb0_6  1  0.75000000  0.75000000  0.09015600  1
  Nb  Nb0_7  1  0.75000000  0.75000000  0.59015600  1
  Nb  Nb1_0  1  0.25000000  0.25000000  0.40984400  1
  Nb  Nb1_1  1  0.25000000  0.25000000  0.90984400  1
  Nb  Nb1_2  1  0.25000000  0.75000000  0.40984400  1
  Nb  Nb1_3  1  0.25000000  0.75000000  0.90984400  1
  Nb  Nb1_4  1  0.75000000  0.25000000  0.40984400  1
  Nb  Nb1_5  1  0.75000000  0.25000000  0.90984400  1
  Nb  Nb1_6  1  0.75000000  0.75000000  0.40984400  1
  Nb  Nb1_7  1  0.75000000  0.75000000  0.90984400  1
  Ge  Ge0_0  1  0.25000000  0.25000000  0.00000000  1
  Ge  Ge0_1  1  0.25000000  0.25000000  0.50000000  1
  Ge  Ge0_2  1  0.25000000  0.75000000  0.00000000  1
  Ge  Ge0_3  1  0.25000000  0.75000000  0.50000000  1
  Ge  Ge0_4  1  0.75000000  0.25000000  0.00000000  1
  Ge  Ge0_5  1  0.75000000  0.25000000  0.50000000  1
  Ge  Ge0_6  1  0.75000000  0.75000000  0.00000000  1
  Ge  Ge0_7  1  0.75000000  0.75000000  0.50000000  1
  Sb  Sb0_0  1  0.25000000  0.25000000  0.30830400  1
  Sb  Sb0_1  1  0.25000000  0.25000000  0.80830400  1
  Sb  Sb0_2  1  0.25000000  0.75000000  0.30830400  1
  Sb  Sb0_3  1  0.25000000  0.75000000  0.80830400  1
  Sb  Sb0_4  1  0.75000000  0.25000000  0.30830400  1
  Sb  Sb0_5  1  0.75000000  0.25000000  0.80830400  1
  Sb  Sb0_6  1  0.75000000  0.75000000  0.30830400  1
  Sb  Sb0_7  1  0.75000000  0.75000000  0.80830400  1
  Sb  Sb1_0  1  0.25000000  0.25000000  0.19169600  1
  Sb  Sb1_1  1  0.25000000  0.25000000  0.69169600  1
  Sb  Sb1_2  1  0.25000000  0.75000000  0.19169600  1
  Sb  Sb1_3  1  0.25000000  0.75000000  0.69169600  1
  Sb  Sb1_4  1  0.75000000  0.25000000  0.19169600  1
  Sb  Sb1_5  1  0.75000000  0.25000000  0.69169600  1
  Sb  Sb1_6  1  0.75000000  0.75000000  0.19169600  1
  Sb  Sb1_7  1  0.75000000  0.75000000  0.69169600  1
loop_
_geom_bond_atom_site_label_1
_geom_bond_atom_site_label_2
_geom_bond_distance
_geom_bond_site_symmetry_2
Nb0_0 Nb0_4 2.897203 1_555
Nb0_0 Nb0_2 2.897203 1_555
Nb0_0 Nb0_2 2.897203 1_545
Nb0_0 Nb0_4 2.897203 1_455
Nb0_0 Sb1_0 2.906844 1_555
Nb0_1 Nb0_5 2.897203 1_555
Nb0_1 Nb0_3 2.897203 1_555
Nb0_1 Nb0_3 2.897203 1_545
Nb0_1 Nb0_5 2.897203 1_455
Nb0_1 Sb1_1 2.906844 1_555
Nb0_2 Nb0_6 2.897203 1_555
Nb0_2 Nb0_6 2.897203 1_455
Nb0_2 Sb1_2 2.906844 1_555
Nb0_3 Nb0_7 2.897203 1_555
Nb0_3 Nb0_7 2.897203 1_455
Nb0_3 Sb1_3 2.906844 1_555
Nb0_4 Nb0_6 2.897203 1_555
Nb0_4 Nb0_6 2.897203 1_545
Nb0_4 Sb1_4 2.906844 1_555
Nb0_5 Nb0_7 2.897203 1_555
Nb0_5 Nb0_7 2.897203 1_545
Nb0_5 Sb1_5 2.906844 1_555
Nb0_6 Sb1_6 2.906844 1_555
Nb0_7 Sb1_7 2.906844 1_555
Nb1_0 Nb1_2 2.897203 1_555
Nb1_0 Nb1_4 2.897203 1_555
Nb1_0 Nb1_4 2.897203 1_455
Nb1_0 Nb1_2 2.897203 1_545
Nb1_0 Sb0_0 2.906844 1_555
Nb1_1 Nb1_5 2.897203 1_555
Nb1_1 Nb1_3 2.897203 1_555
Nb1_1 Nb1_5 2.897203 1_455
Nb1_1 Nb1_3 2.897203 1_545
Nb1_1 Sb0_1 2.906844 1_555
Nb1_2 Nb1_6 2.897203 1_555
Nb1_2 Nb1_6 2.897203 1_455
Nb1_2 Sb0_2 2.906844 1_555
Nb1_3 Nb1_7 2.897203 1_555
Nb1_3 Nb1_7 2.897203 1_455
Nb1_3 Sb0_3 2.906844 1_555
Nb1_4 Nb1_6 2.897203 1_555
Nb1_4 Nb1_6 2.897203 1_545
Nb1_4 Sb0_4 2.906844 1_555
Nb1_5 Nb1_7 2.897203 1_555
Nb1_5 Nb1_7 2.897203 1_545
Nb1_5 Sb0_5 2.906844 1_555
Nb1_6 Sb0_6 2.906844 1_555
Nb1_7 Sb0_7 2.906844 1_555
Ge0_0 Nb0_0 2.580948 1_555
Ge0_0 Nb1_1 2.580948 1_554
Ge0_1 Nb1_0 2.580948 1_555
Ge0_1 Nb0_1 2.580948 1_555
Ge0_2 Nb0_2 2.580948 1_555
Ge0_2 Nb1_3 2.580948 1_554
Ge0_3 Nb1_2 2.580948 1_555
Ge0_3 Nb0_3 2.580948 1_555
Ge0_4 Nb0_4 2.580948 1_555
Ge0_4 Nb1_5 2.580948 1_554
Ge0_5 Nb1_4 2.580948 1_555
Ge0_5 Nb0_5 2.580948 1_555
Ge0_6 Nb0_6 2.580948 1_555
Ge0_6 Nb1_7 2.580948 1_554
Ge0_7 Nb1_6 2.580948 1_555
Ge0_7 Nb0_7 2.580948 1_555
Sb0_0 Sb0_4 2.897203 1_555
Sb0_0 Sb0_2 2.897203 1_555
Sb0_0 Sb0_2 2.897203 1_545
Sb0_0 Sb0_4 2.897203 1_455
Sb0_0 Sb1_0 3.338205 1_555
Sb0_1 Sb0_5 2.897203 1_555
Sb0_1 Sb0_3 2.897203 1_555
Sb0_1 Sb0_3 2.897203 1_545
Sb0_1 Sb0_5 2.897203 1_455
Sb0_1 Sb1_1 3.338205 1_555
Sb0_2 Sb0_6 2.897203 1_555
Sb0_2 Sb0_6 2.897203 1_455
Sb0_2 Sb1_2 3.338205 1_555
Sb0_3 Sb0_7 2.897203 1_555
Sb0_3 Sb0_7 2.897203 1_455
Sb0_3 Sb1_3 3.338205 1_555
Sb0_4 Sb0_6 2.897203 1_555
Sb0_4 Sb0_6 2.897203 1_545
Sb0_4 Sb1_4 3.338205 1_555
Sb0_5 Sb0_7 2.897203 1_555
Sb0_5 Sb0_7 2.897203 1_545
Sb0_5 Sb1_5 3.338205 1_555
Sb0_6 Sb1_6 3.338205 1_555
Sb0_7 Sb1_7 3.338205 1_555
Sb1_0 Sb1_4 2.897203 1_555
Sb1_0 Sb1_2 2.897203 1_555
Sb1_0 Sb1_2 2.897203 1_545
Sb1_0 Sb1_4 2.897203 1_455
Sb1_1 Sb1_3 2.897203 1_555
Sb1_1 Sb1_5 2.897203 1_555
Sb1_1 Sb1_3 2.897203 1_545
Sb1_1 Sb1_5 2.897203 1_455
Sb1_2 Sb1_6 2.897203 1_555
Sb1_2 Sb1_6 2.897203 1_455
Sb1_3 Sb1_7 2.897203 1_555
Sb1_3 Sb1_7 2.897203 1_455
Sb1_4 Sb1_6 2.897203 1_555
Sb1_4 Sb1_6 2.897203 1_545
Sb1_5 Sb1_7 2.897203 1_555
Sb1_5 Sb1_7 2.897203 1_545
