# generated using pymatgen
data_Sr3BiAs
_symmetry_space_group_name_H-M   'P 1'
_cell_length_a   5.88000000
_cell_length_b   5.88000000
_cell_length_c   5.88000000
_cell_angle_alpha   90.00000000
_cell_angle_beta   90.00000000
_cell_angle_gamma   90.00000000
_symmetry_Int_Tables_number   1
_chemical_formula_structural   Sr3BiAs
_chemical_formula_sum   'Sr3 Bi1 As1'
_cell_volume   203.29747200
_cell_formula_units_Z   1
loop_
 _symmetry_equiv_pos_site_id
 _symmetry_equiv_pos_as_xyz
  1  'x, y, z'
loop_
 _atom_site_type_symbol
 _atom_site_label
 _atom_site_symmetry_multiplicity
 _atom_site_fract_x
 _atom_site_fract_y
 _atom_site_fract_z
 _atom_site_occupancy
  Sr  Sr0  1  0.00000000  0.50000000  0.50000000  1
  Sr  Sr1  1  0.50000000  0.00000000  0.50000000  1
  Sr  Sr2  1  0.50000000  0.50000000  0.00000000  1
  Bi  Bi0  1  0.00000000  0.00000000  0.00000000  1
  As  As0  1  0.50000000  0.50000000  0.50000000  1
loop_
_geom_bond_atom_site_label_1
_geom_bond_atom_site_label_2
_geom_bond_distance
_geom_bond_site_symmetry_2
Bi0 Sr0 4.157788 1_544
Bi0 Sr2 4.157788 1_455
Bi0 Sr1 4.157788 1_554
Bi0 Sr1 4.157788 1_555
Bi0 Sr2 4.157788 1_545
Bi0 Sr0 4.157788 1_545
Bi0 Sr2 4.157788 1_555
Bi0 Sr2 4.157788 1_445
Bi0 Sr0 4.157788 1_555
Bi0 Sr0 4.157788 1_554
Bi0 Sr1 4.157788 1_454
Bi0 Sr1 4.157788 1_455
As0 Sr1 2.940000 1_555
As0 Sr1 2.940000 1_565
As0 Sr0 2.940000 1_655
As0 Sr2 2.940000 1_556
As0 Sr2 2.940000 1_555
As0 Sr0 2.940000 1_555
