# generated using pymatgen
data_BaSrLaVO6
_symmetry_space_group_name_H-M   'P 1'
_cell_length_a   5.98641006
_cell_length_b   5.98854923
_cell_length_c   8.46813573
_cell_angle_alpha   90.77045404
_cell_angle_beta   90.66600947
_cell_angle_gamma   90.36404370
_symmetry_Int_Tables_number   1
_chemical_formula_structural   BaSrLaVO6
_chemical_formula_sum   'Ba2 Sr2 La2 V2 O12'
_cell_volume   303.52752663
_cell_formula_units_Z   2
loop_
 _symmetry_equiv_pos_site_id
 _symmetry_equiv_pos_as_xyz
  1  'x, y, z'
loop_
 _atom_site_type_symbol
 _atom_site_label
 _atom_site_symmetry_multiplicity
 _atom_site_fract_x
 _atom_site_fract_y
 _atom_site_fract_z
 _atom_site_occupancy
  Ba  Ba0  1  0.50544744  0.52417318  0.24964263  1
  Ba  Ba1  1  0.49455256  0.47582682  0.75035737  1
  Sr  Sr0  1  0.99254975  0.03637761  0.25369640  1
  Sr  Sr1  1  0.00745025  0.96362239  0.74630360  1
  La  La0  1  0.00000000  0.50000000  0.00000000  1
  La  La1  1  0.50000000  -0.00000000  0.50000000  1
  V  V0  1  0.50000000  -0.00000000  0.00000000  1
  V  V1  1  0.00000000  0.50000000  0.50000000  1
  O  O0  1  0.24592479  0.19183055  0.95960137  1
  O  O1  1  0.25157318  0.69476010  0.52983691  1
  O  O2  1  0.75407521  0.80816945  0.04039863  1
  O  O3  1  0.74842682  0.30523990  0.47016309  1
  O  O4  1  0.30643612  0.74738831  0.96426000  1
  O  O5  1  0.18592457  0.23862597  0.53713728  1
  O  O6  1  0.69356388  0.25261169  0.03574000  1
  O  O7  1  0.81407543  0.76137403  0.46286272  1
  O  O8  1  0.42412372  0.99671578  0.22236001  1
  O  O9  1  0.05722751  0.47327532  0.27737031  1
  O  O10  1  0.57587628  0.00328422  0.77763999  1
  O  O11  1  0.94277249  0.52672468  0.72262969  1
loop_
_geom_bond_atom_site_label_1
_geom_bond_atom_site_label_2
_geom_bond_distance
_geom_bond_site_symmetry_2
Ba0 O6 2.680560 1_555
Ba0 O3 2.710877 1_555
Ba0 O9 2.711813 1_555
Ba0 O8 2.886327 1_555
Ba0 O2 2.890952 1_555
Ba0 O7 2.917455 1_555
Ba0 O1 3.003593 1_555
Ba0 O4 3.014403 1_554
Ba0 O8 3.197815 1_545
Ba1 O4 2.680560 1_555
Ba1 O1 2.710877 1_555
Ba1 O11 2.711813 1_555
Ba1 O10 2.886327 1_555
Ba1 O0 2.890952 1_555
Ba1 O5 2.917455 1_555
Ba1 O3 3.003593 1_555
Ba1 O6 3.014403 1_556
Ba1 O10 3.197815 1_565
La0 O4 2.375306 1_554
La0 O6 2.375306 1_455
La0 O9 2.377390 1_555
La0 O11 2.377390 1_454
La0 O0 2.391549 1_554
La0 O2 2.391549 1_455
La1 O3 2.367181 1_555
La1 O1 2.367181 1_545
La1 O8 2.389176 1_545
La1 O10 2.389176 1_555
La1 O5 2.389959 1_555
La1 O7 2.389959 1_545
O0 V0 1.941869 1_556
O0 Sr1 2.648983 1_545
O0 Sr0 3.082507 1_456
O1 V1 1.911327 1_555
O1 Sr1 2.846244 1_555
O2 V0 1.941869 1_565
O2 Sr0 2.648983 1_565
O2 Sr1 3.082507 1_654
O3 V1 1.911327 1_655
O3 Sr0 2.846244 1_555
O4 V0 1.918348 1_566
O4 Sr1 2.881647 1_555
O5 V1 1.953194 1_555
O5 Sr1 2.662915 1_545
O5 Sr0 2.899564 1_455
O6 V0 1.918348 1_555
O6 Sr0 2.881647 1_555
O7 V1 1.953194 1_655
O7 Sr0 2.662915 1_565
O7 Sr1 2.899564 1_655
O8 V0 1.942439 1_565
O8 Sr0 2.612231 1_465
O9 V1 1.924780 1_555
O9 Sr0 2.647033 1_455
O10 V0 1.942439 1_556
O10 Sr1 2.612231 1_645
O11 V1 1.924780 1_655
O11 Sr1 2.647033 1_655
