# generated using pymatgen
data_YSc(BO3)2
_symmetry_space_group_name_H-M   'P 1'
_cell_length_a   6.07512331
_cell_length_b   6.07512331
_cell_length_c   6.07512402
_cell_angle_alpha   47.67570451
_cell_angle_beta   47.67570451
_cell_angle_gamma   47.67570248
_symmetry_Int_Tables_number   1
_chemical_formula_structural   YSc(BO3)2
_chemical_formula_sum   'Y1 Sc1 B2 O6'
_cell_volume   112.20291827
_cell_formula_units_Z   1
loop_
 _symmetry_equiv_pos_site_id
 _symmetry_equiv_pos_as_xyz
  1  'x, y, z'
loop_
 _atom_site_type_symbol
 _atom_site_label
 _atom_site_symmetry_multiplicity
 _atom_site_fract_x
 _atom_site_fract_y
 _atom_site_fract_z
 _atom_site_occupancy
  Y  Y0  1  0.50000000  0.50000000  0.50000000  1
  Sc  Sc0  1  0.00000000  0.00000000  0.00000000  1
  B  B0  1  0.74499300  0.74499300  0.74499300  1
  B  B1  1  0.25500700  0.25500700  0.25500700  1
  O  O0  1  0.01845300  0.45412000  0.76645700  1
  O  O1  1  0.45412000  0.76645700  0.01845300  1
  O  O2  1  0.76645700  0.01845300  0.45412000  1
  O  O3  1  0.54588000  0.23354300  0.98154700  1
  O  O4  1  0.23354300  0.98154700  0.54588000  1
  O  O5  1  0.98154700  0.54588000  0.23354300  1
loop_
_geom_bond_atom_site_label_1
_geom_bond_atom_site_label_2
_geom_bond_distance
_geom_bond_site_symmetry_2
B0 O0 1.388392 1_655
B0 O1 1.388392 1_556
B0 O2 1.388392 1_565
B1 O5 1.388392 1_455
B1 O3 1.388392 1_554
B1 O4 1.388392 1_545
O0 Sc0 2.137268 1_556
O0 Y0 2.317243 1_555
O1 Sc0 2.137268 1_565
O1 Y0 2.317244 1_555
O2 Sc0 2.137268 1_655
O2 Y0 2.317243 1_555
O3 Sc0 2.137268 1_656
O3 Y0 2.317244 1_555
O4 Sc0 2.137268 1_566
O4 Y0 2.317243 1_555
O5 Sc0 2.137268 1_665
O5 Y0 2.317243 1_555
