# generated using pymatgen
data_UCl2O15
_symmetry_space_group_name_H-M   'P 1'
_cell_length_a   16.45875900
_cell_length_b   5.79767100
_cell_length_c   14.97399425
_cell_angle_alpha   81.51451283
_cell_angle_beta   90.00000000
_cell_angle_gamma   90.00000000
_symmetry_Int_Tables_number   1
_chemical_formula_structural   UCl2O15
_chemical_formula_sum   'U4 Cl8 O60'
_cell_volume   1413.21421995
_cell_formula_units_Z   4
loop_
 _symmetry_equiv_pos_site_id
 _symmetry_equiv_pos_as_xyz
  1  'x, y, z'
loop_
 _atom_site_type_symbol
 _atom_site_label
 _atom_site_symmetry_multiplicity
 _atom_site_fract_x
 _atom_site_fract_y
 _atom_site_fract_z
 _atom_site_occupancy
  U  U0  1  0.62318700  0.54730000  0.21927900  1
  U  U1  1  0.87681300  0.54730000  0.71927900  1
  U  U2  1  0.37681300  0.45270000  0.78072100  1
  U  U3  1  0.12318700  0.45270000  0.28072100  1
  Cl  Cl0  1  0.85756100  0.11593900  0.40359400  1
  Cl  Cl1  1  0.64243900  0.11593900  0.90359400  1
  Cl  Cl2  1  0.14243900  0.88406100  0.59640600  1
  Cl  Cl3  1  0.35756100  0.88406100  0.09640600  1
  Cl  Cl4  1  0.88659000  0.04387400  0.06632600  1
  Cl  Cl5  1  0.61341000  0.04387400  0.56632600  1
  Cl  Cl6  1  0.11341000  0.95612600  0.93367400  1
  Cl  Cl7  1  0.38659000  0.95612600  0.43367400  1
  O  O0  1  0.64768600  0.23191900  0.27680100  1
  O  O1  1  0.85231400  0.23191900  0.77680100  1
  O  O2  1  0.35231400  0.76808100  0.72319900  1
  O  O3  1  0.14768600  0.76808100  0.22319900  1
  O  O4  1  0.59006200  0.86400400  0.17160600  1
  O  O5  1  0.90993800  0.86400400  0.67160600  1
  O  O6  1  0.40993800  0.13599600  0.82839400  1
  O  O7  1  0.09006200  0.13599600  0.32839400  1
  O  O8  1  0.50583400  0.49339500  0.27590100  1
  O  O9  1  0.99416600  0.49339500  0.77590100  1
  O  O10  1  0.49416600  0.50660500  0.72409900  1
  O  O11  1  0.00583400  0.50660500  0.22409900  1
  O  O12  1  0.69069500  0.52177700  0.10744600  1
  O  O13  1  0.80930500  0.52177700  0.60744600  1
  O  O14  1  0.30930500  0.47822300  0.89255400  1
  O  O15  1  0.19069500  0.47822300  0.39255400  1
  O  O16  1  0.62195700  0.65271200  0.34799200  1
  O  O17  1  0.87804300  0.65271200  0.84799200  1
  O  O18  1  0.37804300  0.34728800  0.65200800  1
  O  O19  1  0.12195700  0.34728800  0.15200800  1
  O  O20  1  0.73651500  0.66233100  0.24732800  1
  O  O21  1  0.76348500  0.66233100  0.74732800  1
  O  O22  1  0.26348500  0.33766900  0.75267200  1
  O  O23  1  0.23651500  0.33766900  0.25267200  1
  O  O24  1  0.54872600  0.41891300  0.12815300  1
  O  O25  1  0.95127400  0.41891300  0.62815300  1
  O  O26  1  0.45127400  0.58108700  0.87184700  1
  O  O27  1  0.04872600  0.58108700  0.37184700  1
  O  O28  1  0.79055700  0.96298900  0.42949900  1
  O  O29  1  0.70944300  0.96298900  0.92949900  1
  O  O30  1  0.20944300  0.03701100  0.57050100  1
  O  O31  1  0.29055700  0.03701100  0.07050100  1
  O  O32  1  0.93092700  0.04743300  0.45109000  1
  O  O33  1  0.56907300  0.04743300  0.95109000  1
  O  O34  1  0.06907300  0.95256700  0.54891000  1
  O  O35  1  0.43092700  0.95256700  0.04891000  1
  O  O36  1  0.87008000  0.14679900  0.30369600  1
  O  O37  1  0.62992000  0.14679900  0.80369600  1
  O  O38  1  0.12992000  0.85320100  0.69630400  1
  O  O39  1  0.37008000  0.85320100  0.19630400  1
  O  O40  1  0.83657700  0.36339100  0.41043300  1
  O  O41  1  0.66342300  0.36339100  0.91043300  1
  O  O42  1  0.16342300  0.63660900  0.58956700  1
  O  O43  1  0.33657700  0.63660900  0.08956700  1
  O  O44  1  0.95152000  0.04806400  0.13585400  1
  O  O45  1  0.54848000  0.04806400  0.63585400  1
  O  O46  1  0.04848000  0.95193600  0.86414600  1
  O  O47  1  0.45152000  0.95193600  0.36414600  1
  O  O48  1  0.81710800  0.12754200  0.11667600  1
  O  O49  1  0.68289200  0.12754200  0.61667600  1
  O  O50  1  0.18289200  0.87245800  0.88332400  1
  O  O51  1  0.31710800  0.87245800  0.38332400  1
  O  O52  1  0.90363000  0.20546800  0.98692000  1
  O  O53  1  0.59637000  0.20546800  0.48692000  1
  O  O54  1  0.09637000  0.79453200  0.01308000  1
  O  O55  1  0.40363000  0.79453200  0.51308000  1
  O  O56  1  0.87398900  0.81002700  0.04904900  1
  O  O57  1  0.62601100  0.81002700  0.54904900  1
  O  O58  1  0.12601100  0.18997300  0.95095100  1
  O  O59  1  0.37398900  0.18997300  0.45095100  1
loop_
_geom_bond_atom_site_label_1
_geom_bond_atom_site_label_2
_geom_bond_distance
_geom_bond_site_symmetry_2
Cl0 O32 1.427686 1_555
Cl0 O28 1.432292 1_545
Cl0 O40 1.493765 1_555
Cl0 O36 1.494361 1_555
Cl1 O33 1.427686 1_555
Cl1 O29 1.432292 1_545
Cl1 O41 1.493765 1_555
Cl1 O37 1.494361 1_555
Cl2 O34 1.427686 1_555
Cl2 O30 1.432292 1_565
Cl2 O42 1.493765 1_555
Cl2 O38 1.494361 1_555
Cl3 O35 1.427686 1_555
Cl3 O31 1.432292 1_565
Cl3 O43 1.493765 1_555
Cl3 O39 1.494361 1_555
Cl4 O52 1.428779 1_554
Cl4 O56 1.432327 1_545
Cl4 O48 1.489782 1_555
Cl4 O44 1.494663 1_555
Cl5 O53 1.428779 1_555
Cl5 O57 1.432327 1_545
Cl5 O49 1.489782 1_555
Cl5 O45 1.494663 1_555
Cl6 O54 1.428779 1_556
Cl6 O58 1.432327 1_565
Cl6 O50 1.489782 1_555
Cl6 O46 1.494663 1_555
Cl7 O55 1.428779 1_555
Cl7 O59 1.432327 1_565
Cl7 O51 1.489782 1_555
Cl7 O47 1.494663 1_555
O0 U0 1.944998 1_555
O1 U1 1.944998 1_555
O2 U2 1.944998 1_555
O3 U3 1.944998 1_555
O4 U0 1.947161 1_555
O5 U1 1.947161 1_555
O6 U2 1.947161 1_555
O7 U3 1.947161 1_555
O8 U0 2.113993 1_555
O9 U1 2.113993 1_555
O10 U2 2.113993 1_555
O11 U3 2.113993 1_555
O12 U0 2.033176 1_555
O13 U1 2.033176 1_555
O14 U2 2.033176 1_555
O15 U3 2.033176 1_555
O16 U0 2.106227 1_555
O17 U1 2.106227 1_555
O18 U2 2.106227 1_555
O19 U3 2.106227 1_555
O20 U0 2.045227 1_555
O21 U1 2.045227 1_555
O22 U2 2.045227 1_555
O23 U3 2.045227 1_555
O24 U0 2.053691 1_555
O25 U1 2.053691 1_555
O26 U2 2.053691 1_555
O27 U3 2.053691 1_555
