# generated using pymatgen
data_Mg9Si5
_symmetry_space_group_name_H-M   'P 1'
_cell_length_a   7.20011300
_cell_length_b   7.21199352
_cell_length_c   12.42722115
_cell_angle_alpha   82.10309012
_cell_angle_beta   86.20001117
_cell_angle_gamma   61.54174654
_symmetry_Int_Tables_number   1
_chemical_formula_structural   Mg9Si5
_chemical_formula_sum   'Mg18 Si10'
_cell_volume   561.95368815
_cell_formula_units_Z   2
loop_
 _symmetry_equiv_pos_site_id
 _symmetry_equiv_pos_as_xyz
  1  'x, y, z'
loop_
 _atom_site_type_symbol
 _atom_site_label
 _atom_site_symmetry_multiplicity
 _atom_site_fract_x
 _atom_site_fract_y
 _atom_site_fract_z
 _atom_site_occupancy
  Mg  Mg0  1  0.24389400  0.66787900  0.60674600  1
  Mg  Mg1  1  0.66161800  0.41924900  0.43539800  1
  Mg  Mg2  1  0.01163300  0.39084100  0.58752600  1
  Mg  Mg3  1  0.89244100  0.84700200  0.42862300  1
  Mg  Mg4  1  0.51430400  0.12594400  0.58466800  1
  Mg  Mg5  1  0.20421300  0.06976500  0.42148700  1
  Mg  Mg6  1  0.60321700  0.34566400  0.07607400  1
  Mg  Mg7  1  0.24587900  0.56924200  0.90749900  1
  Mg  Mg8  1  0.98291300  0.90894100  0.06927800  1
  Mg  Mg9  1  0.19320400  0.19109000  0.07915600  1
  Mg  Mg10  1  0.84197900  0.59343100  0.01447200  1
  Mg  Mg11  1  0.58334500  0.07374500  0.91222200  1
  Mg  Mg12  1  0.29851600  0.73289800  0.25064700  1
  Mg  Mg13  1  0.63343000  0.37681900  0.72671600  1
  Mg  Mg14  1  0.97272700  0.51368000  0.25810100  1
  Mg  Mg15  1  0.85204200  0.63462500  0.77454800  1
  Mg  Mg16  1  0.51176800  0.19880700  0.28741800  1
  Mg  Mg17  1  0.34296300  0.92089200  0.78399900  1
  Si  Si0  1  0.91916200  0.15479700  0.25024100  1
  Si  Si1  1  0.91921900  0.07012600  0.58538400  1
  Si  Si2  1  0.95357900  0.95679900  0.78723900  1
  Si  Si3  1  0.41853700  0.78341000  0.01930400  1
  Si  Si4  1  0.58860900  0.80320900  0.33625300  1
  Si  Si5  1  0.27879100  0.32840900  0.75280100  1
  Si  Si6  1  0.60401900  0.90642500  0.13953300  1
  Si  Si7  1  0.87809700  0.24113400  0.90339800  1
  Si  Si8  1  0.59904100  0.72080100  0.59700700  1
  Si  Si9  1  0.25085800  0.45432600  0.42398100  1
loop_
_geom_bond_atom_site_label_1
_geom_bond_atom_site_label_2
_geom_bond_distance
_geom_bond_site_symmetry_2
Mg0 Si1 2.712671 1_465
Mg0 Si8 2.752363 1_555
Mg0 Si5 2.757653 1_555
Mg0 Si9 2.899258 1_555
Mg0 Si2 3.202203 1_455
Mg1 Si4 2.687649 1_555
Mg1 Si1 2.823454 1_555
Mg1 Si9 2.857229 1_555
Mg1 Si8 3.018704 1_555
Mg1 Si0 3.104902 1_555
Mg2 Si1 2.698042 1_455
Mg2 Si9 2.709064 1_555
Mg2 Si5 2.750548 1_555
Mg2 Si8 2.791982 1_455
Mg3 Si4 2.700756 1_555
Mg3 Si1 2.761987 1_565
Mg3 Si9 2.782660 1_655
Mg3 Si0 2.979444 1_565
Mg4 Si8 2.668990 1_545
Mg4 Si5 2.717026 1_555
Mg4 Si1 2.746966 1_555
Mg4 Si9 2.848796 1_555
Mg5 Si4 2.752801 1_545
Mg5 Si1 2.793125 1_455
Mg5 Si0 2.852732 1_455
Mg5 Si9 2.952711 1_555
Mg6 Si7 2.747700 1_554
Mg6 Si3 2.782838 1_555
Mg6 Si0 2.933262 1_555
Mg6 Si6 3.154925 1_545
Mg7 Si5 2.689551 1_555
Mg7 Si2 2.852730 1_455
Mg7 Si3 2.917240 1_556
Mg8 Si7 2.772140 1_564
Mg8 Si6 2.816403 1_555
Mg8 Si3 2.869366 1_655
Mg8 Si0 2.931762 1_565
Mg9 Si6 2.758720 1_545
Mg9 Si3 2.779379 1_545
Mg9 Si0 2.874952 1_455
Mg9 Si7 3.115803 1_454
Mg10 Si3 2.682062 1_555
Mg10 Si6 2.715058 1_555
Mg10 Si7 2.952094 1_554
Mg11 Si5 2.800788 1_555
Mg11 Si2 2.810390 1_545
Mg11 Si7 2.889250 1_555
Mg11 Si6 2.899298 1_546
Mg11 Si3 2.992722 1_546
Mg12 Si4 2.683978 1_555
Mg12 Si9 2.857259 1_555
Mg12 Si0 2.965766 1_465
Mg12 Si3 2.971155 1_555
Mg12 Si6 3.171354 1_555
Mg13 Si7 2.676053 1_555
Mg13 Si8 2.680043 1_555
Mg13 Si5 2.730539 1_555
Mg13 Si2 2.829180 1_545
Mg13 Si1 2.908980 1_555
Mg14 Si4 2.765833 1_555
Mg14 Si0 2.807702 1_555
Mg14 Si9 2.816161 1_655
Mg14 Si6 3.073595 1_555
Mg15 Si8 2.765776 1_555
Mg15 Si2 2.773617 1_555
Mg15 Si5 2.824575 1_655
Mg15 Si7 2.989382 1_555
Mg16 Si4 2.622723 1_545
Mg16 Si9 2.634888 1_555
Mg16 Si6 2.798814 1_545
Mg16 Si0 2.809218 1_555
Mg17 Si2 2.687913 1_455
Mg17 Si5 2.723607 1_565
Mg17 Si8 2.949538 1_555
Mg17 Si3 2.954672 1_556
Si1 Si2 2.519514 1_545
Si2 Si7 2.496294 1_565
Si3 Si6 2.561426 1_555
Si4 Si6 2.466904 1_555
