# generated using pymatgen
data_SbH7F12
_symmetry_space_group_name_H-M   'P 1'
_cell_length_a   7.82629032
_cell_length_b   7.82629032
_cell_length_c   5.06884159
_cell_angle_alpha   70.33539390
_cell_angle_beta   70.33539390
_cell_angle_gamma   44.66620483
_symmetry_Int_Tables_number   1
_chemical_formula_structural   SbH7F12
_chemical_formula_sum   'Sb1 H7 F12'
_cell_volume   203.29770008
_cell_formula_units_Z   1
loop_
 _symmetry_equiv_pos_site_id
 _symmetry_equiv_pos_as_xyz
  1  'x, y, z'
loop_
 _atom_site_type_symbol
 _atom_site_label
 _atom_site_symmetry_multiplicity
 _atom_site_fract_x
 _atom_site_fract_y
 _atom_site_fract_z
 _atom_site_occupancy
  Sb  Sb0  1  0.00048894  0.99951106  0.00000000  1
  H  H0  1  0.80354008  0.82186655  0.80909560  1
  H  H1  1  0.17813345  0.19645992  0.19090440  1
  H  H2  1  0.71783618  0.73989637  0.56811581  1
  H  H3  1  0.26010363  0.28216382  0.43188419  1
  H  H4  1  0.63457345  0.63974694  0.35818954  1
  H  H5  1  0.36025306  0.36542655  0.64181046  1
  H  H6  1  0.50170673  0.49829327  0.50000000  1
  F  F0  1  0.91683227  0.91411959  0.78097958  1
  F  F1  1  0.08588041  0.08316773  0.21902042  1
  F  F2  1  0.57534427  0.57127559  0.31069143  1
  F  F3  1  0.42872441  0.42465573  0.68930857  1
  F  F4  1  0.71668493  0.73042279  0.37716164  1
  F  F5  1  0.26957721  0.28331507  0.62283836  1
  F  F6  1  0.85742266  0.30180069  0.75982364  1
  F  F7  1  0.69819931  0.14257734  0.24017636  1
  F  F8  1  0.14393789  0.69749587  0.24071623  1
  F  F9  1  0.30250413  0.85606211  0.75928377  1
  F  F10  1  0.72810383  0.75984884  0.82096427  1
  F  F11  1  0.24015116  0.27189617  0.17903573  1
loop_
_geom_bond_atom_site_label_1
_geom_bond_atom_site_label_2
_geom_bond_distance
_geom_bond_site_symmetry_2
F0 H0 1.443623 1_555
F0 Sb0 1.928393 1_656
F1 H1 1.443623 1_555
F1 Sb0 1.928393 1_545
F2 H4 1.036958 1_555
F2 H6 1.142944 1_555
F3 H5 1.036958 1_555
F3 H6 1.142944 1_555
F4 H2 0.998779 1_555
F4 H4 1.289203 1_555
F5 H3 0.998779 1_555
F5 H5 1.289203 1_555
F6 Sb0 1.882517 1_646
F7 Sb0 1.882517 1_645
F8 Sb0 1.882121 1_555
F9 Sb0 1.882121 1_556
F10 H0 0.975605 1_555
F10 H2 1.376708 1_555
F11 H1 0.975605 1_555
F11 H3 1.376708 1_555
