# generated using pymatgen
data_Ba2PrHfO6
_symmetry_space_group_name_H-M   'P 1'
_cell_length_a   8.81845453
_cell_length_b   8.81845453
_cell_length_c   8.81845453
_cell_angle_alpha   90.00000000
_cell_angle_beta   90.00000000
_cell_angle_gamma   90.00000000
_symmetry_Int_Tables_number   1
_chemical_formula_structural   Ba2PrHfO6
_chemical_formula_sum   'Ba8 Pr4 Hf4 O24'
_cell_volume   685.76835373
_cell_formula_units_Z   4
loop_
 _symmetry_equiv_pos_site_id
 _symmetry_equiv_pos_as_xyz
  1  'x, y, z'
loop_
 _atom_site_type_symbol
 _atom_site_label
 _atom_site_symmetry_multiplicity
 _atom_site_fract_x
 _atom_site_fract_y
 _atom_site_fract_z
 _atom_site_occupancy
  Ba  Ba0  1  0.50000000  0.50000000  0.50000000  1
  Ba  Ba1  1  0.00000000  0.00000000  -0.00000000  1
  Ba  Ba2  1  0.00000000  0.00000000  0.50000000  1
  Ba  Ba3  1  0.00000000  0.50000000  -0.00000000  1
  Ba  Ba4  1  0.50000000  0.00000000  -0.00000000  1
  Ba  Ba5  1  0.50000000  0.50000000  -0.00000000  1
  Ba  Ba6  1  0.50000000  0.00000000  0.50000000  1
  Ba  Ba7  1  0.00000000  0.50000000  0.50000000  1
  Pr  Pr0  1  0.25000000  0.25000000  0.25000000  1
  Pr  Pr1  1  0.25000000  0.75000000  0.75000000  1
  Pr  Pr2  1  0.75000000  0.25000000  0.75000000  1
  Pr  Pr3  1  0.75000000  0.75000000  0.25000000  1
  Hf  Hf0  1  0.75000000  0.75000000  0.75000000  1
  Hf  Hf1  1  0.75000000  0.25000000  0.25000000  1
  Hf  Hf2  1  0.25000000  0.75000000  0.25000000  1
  Hf  Hf3  1  0.25000000  0.25000000  0.75000000  1
  O  O0  1  0.22620806  0.27666249  0.51532392  1
  O  O1  1  0.22620806  0.72333751  0.48467608  1
  O  O2  1  0.77379194  0.27666249  0.48467608  1
  O  O3  1  0.77379194  0.72333751  0.51532392  1
  O  O4  1  0.27666249  0.51532392  0.22620806  1
  O  O5  1  0.72333751  0.48467608  0.22620806  1
  O  O6  1  0.27666249  0.48467608  0.77379194  1
  O  O7  1  0.72333751  0.51532392  0.77379194  1
  O  O8  1  0.51532392  0.22620806  0.27666249  1
  O  O9  1  0.48467608  0.22620806  0.72333751  1
  O  O10  1  0.48467608  0.77379194  0.27666249  1
  O  O11  1  0.51532392  0.77379194  0.72333751  1
  O  O12  1  0.27379194  0.22333751  0.98467608  1
  O  O13  1  0.27379194  0.77666249  0.01532392  1
  O  O14  1  0.72620806  0.22333751  0.01532392  1
  O  O15  1  0.72620806  0.77666249  0.98467608  1
  O  O16  1  0.22333751  0.98467608  0.27379194  1
  O  O17  1  0.77666249  0.01532392  0.27379194  1
  O  O18  1  0.22333751  0.01532392  0.72620806  1
  O  O19  1  0.77666249  0.98467608  0.72620806  1
  O  O20  1  0.98467608  0.27379194  0.22333751  1
  O  O21  1  0.01532392  0.27379194  0.77666249  1
  O  O22  1  0.01532392  0.72620806  0.22333751  1
  O  O23  1  0.98467608  0.72620806  0.77666249  1
loop_
_geom_bond_atom_site_label_1
_geom_bond_atom_site_label_2
_geom_bond_distance
_geom_bond_site_symmetry_2
Ba0 O8 3.118748 1_555
Ba0 O5 3.118748 1_555
Ba0 O9 3.118748 1_555
Ba0 O0 3.118748 1_555
Ba0 O4 3.118748 1_555
Ba0 O1 3.118748 1_555
Ba0 O11 3.118748 1_555
Ba0 O6 3.118748 1_555
Ba0 O7 3.118748 1_555
Ba0 O10 3.118748 1_555
Ba0 O2 3.118748 1_555
Ba0 O3 3.118748 1_555
Ba1 O23 3.118748 1_444
Ba1 O15 3.118748 1_444
Ba1 O19 3.118748 1_444
Ba1 O14 3.118748 1_455
Ba1 O22 3.118748 1_545
Ba1 O18 3.118748 1_554
Ba1 O16 3.118748 1_545
Ba1 O21 3.118748 1_554
Ba1 O12 3.118748 1_554
Ba1 O13 3.118748 1_545
Ba1 O20 3.118748 1_455
Ba1 O17 3.118748 1_455
Ba2 O17 2.806494 1_455
Ba2 O16 2.806494 1_545
Ba2 O18 2.806494 1_555
Ba2 O19 2.806494 1_445
Ba2 O1 3.154333 1_545
Ba2 O0 3.154333 1_555
Ba2 O2 3.154333 1_455
Ba2 O3 3.154333 1_445
Ba3 O20 2.806494 1_455
Ba3 O21 2.806494 1_554
Ba3 O23 2.806494 1_454
Ba3 O22 2.806494 1_555
Ba3 O6 3.154333 1_554
Ba3 O5 3.154333 1_455
Ba3 O7 3.154333 1_454
Ba3 O4 3.154333 1_555
Ba4 O13 2.806494 1_545
Ba4 O12 2.806494 1_554
Ba4 O14 2.806494 1_555
Ba4 O15 2.806494 1_544
Ba4 O10 3.154333 1_545
Ba4 O9 3.154333 1_554
Ba4 O11 3.154333 1_544
Ba4 O8 3.154333 1_555
Ba5 O7 2.806494 1_554
Ba5 O6 2.806494 1_554
Ba5 O4 2.806494 1_555
Ba5 O5 2.806494 1_555
Ba5 O12 3.154333 1_554
Ba5 O13 3.154333 1_555
Ba5 O15 3.154333 1_554
Ba5 O14 3.154333 1_555
Ba6 O11 2.806494 1_545
Ba6 O10 2.806494 1_545
Ba6 O8 2.806494 1_555
Ba6 O9 2.806494 1_555
Ba6 O16 3.154333 1_545
Ba6 O17 3.154333 1_555
Ba6 O18 3.154333 1_555
Ba6 O19 3.154333 1_545
Ba7 O2 2.806494 1_455
Ba7 O3 2.806494 1_455
Ba7 O1 2.806494 1_555
Ba7 O0 2.806494 1_555
Ba7 O20 3.154333 1_455
Ba7 O21 3.154333 1_555
Ba7 O23 3.154333 1_455
Ba7 O22 3.154333 1_555
Hf0 O11 2.093335 1_555
Hf0 O7 2.093335 1_555
Hf0 O3 2.093335 1_555
Hf0 O15 2.093335 1_555
Hf0 O19 2.093335 1_555
Hf0 O23 2.093335 1_555
Hf1 O8 2.093335 1_555
Hf1 O2 2.093335 1_555
Hf1 O17 2.093335 1_555
Hf1 O5 2.093335 1_555
Hf1 O14 2.093335 1_555
Hf1 O20 2.093335 1_555
Hf2 O4 2.093335 1_555
Hf2 O13 2.093335 1_555
Hf2 O22 2.093335 1_555
Hf2 O10 2.093335 1_555
Hf2 O1 2.093335 1_555
Hf2 O16 2.093335 1_555
Hf3 O0 2.093335 1_555
Hf3 O9 2.093335 1_555
Hf3 O21 2.093335 1_555
Hf3 O18 2.093335 1_555
Hf3 O6 2.093335 1_555
Hf3 O12 2.093335 1_555
O0 Pr0 2.360872 1_555
O1 Pr1 2.360872 1_555
O2 Pr2 2.360872 1_555
O3 Pr3 2.360872 1_555
O4 Pr0 2.360872 1_555
O5 Pr3 2.360872 1_555
O6 Pr1 2.360872 1_555
O7 Pr2 2.360872 1_555
O8 Pr0 2.360872 1_555
O9 Pr2 2.360872 1_555
O10 Pr3 2.360872 1_555
O11 Pr1 2.360872 1_555
O12 Pr0 2.360872 1_556
O13 Pr1 2.360872 1_554
O14 Pr2 2.360872 1_554
O15 Pr3 2.360872 1_556
O16 Pr0 2.360872 1_565
O17 Pr3 2.360872 1_545
O18 Pr1 2.360872 1_545
O19 Pr2 2.360872 1_565
O20 Pr0 2.360872 1_655
O21 Pr2 2.360872 1_455
O22 Pr3 2.360872 1_455
O23 Pr1 2.360872 1_655
