# generated using pymatgen
data_H5CN5O6
_symmetry_space_group_name_H-M   'P 1'
_cell_length_a   8.30846000
_cell_length_b   12.17829200
_cell_length_c   14.64374945
_cell_angle_alpha   90.00000000
_cell_angle_beta   106.73045378
_cell_angle_gamma   90.00000000
_symmetry_Int_Tables_number   1
_chemical_formula_structural   H5CN5O6
_chemical_formula_sum   'H40 C8 N40 O48'
_cell_volume   1418.97556671
_cell_formula_units_Z   8
loop_
 _symmetry_equiv_pos_site_id
 _symmetry_equiv_pos_as_xyz
  1  'x, y, z'
loop_
 _atom_site_type_symbol
 _atom_site_label
 _atom_site_symmetry_multiplicity
 _atom_site_fract_x
 _atom_site_fract_y
 _atom_site_fract_z
 _atom_site_occupancy
  H  H0  1  0.30844500  0.82750300  0.95088700  1
  H  H1  1  0.30844500  0.67249700  0.45088700  1
  H  H2  1  0.69155500  0.17249700  0.04911300  1
  H  H3  1  0.69155500  0.32750300  0.54911300  1
  H  H4  1  0.32481200  0.91449700  0.04321000  1
  H  H5  1  0.32481200  0.58550300  0.54321000  1
  H  H6  1  0.67518800  0.08550300  0.95679000  1
  H  H7  1  0.67518800  0.41449700  0.45679000  1
  H  H8  1  0.33680700  0.77896100  0.06324300  1
  H  H9  1  0.33680700  0.72103900  0.56324300  1
  H  H10  1  0.66319300  0.22103900  0.93675700  1
  H  H11  1  0.66319300  0.27896100  0.43675700  1
  H  H12  1  0.06184500  0.75710400  0.98038900  1
  H  H13  1  0.06184500  0.74289600  0.48038900  1
  H  H14  1  0.93815500  0.24289600  0.01961100  1
  H  H15  1  0.93815500  0.25710400  0.51961100  1
  H  H16  1  0.04612200  0.88883800  0.94974200  1
  H  H17  1  0.04612200  0.61116200  0.44974200  1
  H  H18  1  0.95387800  0.11116200  0.05025800  1
  H  H19  1  0.95387800  0.38883800  0.55025800  1
  H  H20  1  0.96195800  0.35506400  0.37457400  1
  H  H21  1  0.96195800  0.14493600  0.87457400  1
  H  H22  1  0.03804200  0.64493600  0.62542600  1
  H  H23  1  0.03804200  0.85506400  0.12542600  1
  H  H24  1  0.04054800  0.31613400  0.28232600  1
  H  H25  1  0.04054800  0.18386600  0.78232600  1
  H  H26  1  0.95945200  0.68386600  0.71767400  1
  H  H27  1  0.95945200  0.81613400  0.21767400  1
  H  H28  1  0.90726600  0.42201000  0.26902100  1
  H  H29  1  0.90726600  0.07799000  0.76902100  1
  H  H30  1  0.09273400  0.57799000  0.73097900  1
  H  H31  1  0.09273400  0.92201000  0.23097900  1
  H  H32  1  0.24617000  0.41527300  0.38234100  1
  H  H33  1  0.24617000  0.08472700  0.88234100  1
  H  H34  1  0.75383000  0.58472700  0.61765900  1
  H  H35  1  0.75383000  0.91527300  0.11765900  1
  H  H36  1  0.15659600  0.50128200  0.29657900  1
  H  H37  1  0.15659600  0.99871800  0.79657900  1
  H  H38  1  0.84340400  0.49871800  0.70342100  1
  H  H39  1  0.84340400  0.00128200  0.20342100  1
  C  C0  1  0.54380800  0.68302900  0.29701900  1
  C  C1  1  0.54380800  0.81697100  0.79701900  1
  C  C2  1  0.45619200  0.31697100  0.70298100  1
  C  C3  1  0.45619200  0.18302900  0.20298100  1
  C  C4  1  0.24649200  0.47268700  0.00172200  1
  C  C5  1  0.24649200  0.02731300  0.50172200  1
  C  C6  1  0.75350800  0.52731300  0.99827800  1
  C  C7  1  0.75350800  0.97268700  0.49827800  1
  N  N0  1  0.27858800  0.83880500  0.01483200  1
  N  N1  1  0.27858800  0.66119500  0.51483200  1
  N  N2  1  0.72141200  0.16119500  0.98516800  1
  N  N3  1  0.72141200  0.33880500  0.48516800  1
  N  N4  1  0.09998800  0.83502300  0.00404300  1
  N  N5  1  0.09998800  0.66497700  0.50404300  1
  N  N6  1  0.90001200  0.16497700  0.99595700  1
  N  N7  1  0.90001200  0.33502300  0.49595700  1
  N  N8  1  0.00510900  0.38183800  0.31760800  1
  N  N9  1  0.00510900  0.11816200  0.81760800  1
  N  N10  1  0.99489100  0.61816200  0.68239200  1
  N  N11  1  0.99489100  0.88183800  0.18239200  1
  N  N12  1  0.13904200  0.46031300  0.35420900  1
  N  N13  1  0.13904200  0.03968700  0.85420900  1
  N  N14  1  0.86095800  0.53968700  0.64579100  1
  N  N15  1  0.86095800  0.96031300  0.14579100  1
  N  N16  1  0.65580100  0.73028400  0.24849800  1
  N  N17  1  0.65580100  0.76971600  0.74849800  1
  N  N18  1  0.34419900  0.26971600  0.75150200  1
  N  N19  1  0.34419900  0.23028400  0.25150200  1
  N  N20  1  0.38184400  0.72821600  0.28021900  1
  N  N21  1  0.38184400  0.77178400  0.78021900  1
  N  N22  1  0.61815600  0.27178400  0.71978100  1
  N  N23  1  0.61815600  0.22821600  0.21978100  1
  N  N24  1  0.60348100  0.59432800  0.35912400  1
  N  N25  1  0.60348100  0.90567200  0.85912400  1
  N  N26  1  0.39651900  0.40567200  0.64087600  1
  N  N27  1  0.39651900  0.09432800  0.14087600  1
  N  N28  1  0.16875000  0.51427700  0.91246500  1
  N  N29  1  0.16875000  0.98572300  0.41246500  1
  N  N30  1  0.83125000  0.48572300  0.08753500  1
  N  N31  1  0.83125000  0.01427700  0.58753500  1
  N  N32  1  0.26778600  0.52349900  0.08896900  1
  N  N33  1  0.26778600  0.97650100  0.58896900  1
  N  N34  1  0.73221400  0.47650100  0.91103100  1
  N  N35  1  0.73221400  0.02349900  0.41103100  1
  N  N36  1  0.31863400  0.36267200  0.00604200  1
  N  N37  1  0.31863400  0.13732800  0.50604200  1
  N  N38  1  0.68136600  0.63732800  0.99395800  1
  N  N39  1  0.68136600  0.86267200  0.49395800  1
  O  O0  1  0.80605800  0.74240800  0.29408200  1
  O  O1  1  0.80605800  0.75759200  0.79408200  1
  O  O2  1  0.19394200  0.25759200  0.70591800  1
  O  O3  1  0.19394200  0.24240800  0.20591800  1
  O  O4  1  0.59732200  0.75819000  0.16347800  1
  O  O5  1  0.59732200  0.74181000  0.66347800  1
  O  O6  1  0.40267800  0.24181000  0.83652200  1
  O  O7  1  0.40267800  0.25819000  0.33652200  1
  O  O8  1  0.34518500  0.81097200  0.22786600  1
  O  O9  1  0.34518500  0.68902800  0.72786600  1
  O  O10  1  0.65481500  0.18902800  0.77213400  1
  O  O11  1  0.65481500  0.31097200  0.27213400  1
  O  O12  1  0.27885000  0.68594800  0.31821500  1
  O  O13  1  0.27885000  0.81405200  0.81821500  1
  O  O14  1  0.72115000  0.31405200  0.68178500  1
  O  O15  1  0.72115000  0.18594800  0.18178500  1
  O  O16  1  0.52157000  0.55988000  0.41356500  1
  O  O17  1  0.52157000  0.94012000  0.91356500  1
  O  O18  1  0.47843000  0.44012000  0.58643500  1
  O  O19  1  0.47843000  0.05988000  0.08643500  1
  O  O20  1  0.73847800  0.54974900  0.35762100  1
  O  O21  1  0.73847800  0.95025100  0.85762100  1
  O  O22  1  0.26152200  0.45025100  0.64237900  1
  O  O23  1  0.26152200  0.04974900  0.14237900  1
  O  O24  1  0.17408200  0.45512300  0.84207800  1
  O  O25  1  0.17408200  0.04487700  0.34207800  1
  O  O26  1  0.82591800  0.54487700  0.15792200  1
  O  O27  1  0.82591800  0.95512300  0.65792200  1
  O  O28  1  0.09620100  0.60597800  0.90145700  1
  O  O29  1  0.09620100  0.89402200  0.40145700  1
  O  O30  1  0.90379900  0.39402200  0.09854300  1
  O  O31  1  0.90379900  0.10597800  0.59854300  1
  O  O32  1  0.22457800  0.62163100  0.09402500  1
  O  O33  1  0.22457800  0.87836900  0.59402500  1
  O  O34  1  0.77542200  0.37836900  0.90597500  1
  O  O35  1  0.77542200  0.12163100  0.40597500  1
  O  O36  1  0.33135100  0.46530700  0.16162900  1
  O  O37  1  0.33135100  0.03469300  0.66162900  1
  O  O38  1  0.66864900  0.53469300  0.83837100  1
  O  O39  1  0.66864900  0.96530700  0.33837100  1
  O  O40  1  0.22114900  0.28363900  0.98957500  1
  O  O41  1  0.22114900  0.21636100  0.48957500  1
  O  O42  1  0.77885100  0.71636100  0.01042500  1
  O  O43  1  0.77885100  0.78363900  0.51042500  1
  O  O44  1  0.47413400  0.35604100  0.02737700  1
  O  O45  1  0.47413400  0.14395900  0.52737700  1
  O  O46  1  0.52586600  0.64395900  0.97262300  1
  O  O47  1  0.52586600  0.85604100  0.47262300  1
loop_
_geom_bond_atom_site_label_1
_geom_bond_atom_site_label_2
_geom_bond_distance
_geom_bond_site_symmetry_2
H0 N0 1.044535 1_556
H1 N1 1.044535 1_555
H2 N2 1.044535 1_554
H3 N3 1.044535 1_555
H4 N0 1.038274 1_555
H5 N1 1.038274 1_555
H6 N2 1.038274 1_555
H7 N3 1.038274 1_555
H8 N0 1.034534 1_555
H9 N1 1.034534 1_555
H10 N2 1.034534 1_555
H11 N3 1.034534 1_555
H12 N4 1.028427 1_556
H13 N5 1.028427 1_555
H14 N6 1.028427 1_554
H15 N7 1.028427 1_555
H16 N4 1.028210 1_556
H17 N5 1.028210 1_555
H18 N6 1.028210 1_554
H19 N7 1.028210 1_555
H20 N8 1.050201 1_655
H21 N9 1.050201 1_655
H22 N10 1.050201 1_455
H23 N11 1.050201 1_455
H24 N8 1.039943 1_555
H25 N9 1.039943 1_555
H26 N10 1.039943 1_555
H27 N11 1.039943 1_555
H28 N8 1.036056 1_655
H29 N9 1.036056 1_655
H30 N10 1.036056 1_455
H31 N11 1.036056 1_455
H32 N12 1.025519 1_555
H33 N13 1.025519 1_555
H34 N14 1.025519 1_555
H35 N15 1.025519 1_555
H36 N12 1.026289 1_555
H37 N13 1.026289 1_565
H38 N14 1.026289 1_555
H39 N15 1.026289 1_545
C0 N24 1.407195 1_555
C0 N20 1.408398 1_555
C0 N16 1.443083 1_555
C1 N25 1.407195 1_555
C1 N21 1.408398 1_555
C1 N17 1.443083 1_555
C2 N26 1.407195 1_555
C2 N22 1.408398 1_555
C2 N18 1.443083 1_555
C3 N27 1.407195 1_555
C3 N23 1.408398 1_555
C3 N19 1.443083 1_555
C4 N28 1.376981 1_554
C4 N32 1.384341 1_555
C4 N36 1.461673 1_555
C5 N29 1.376981 1_545
C5 N33 1.384341 1_545
C5 N37 1.461673 1_555
C6 N30 1.376981 1_556
C6 N34 1.384341 1_555
C6 N38 1.461673 1_555
C7 N31 1.376981 1_565
C7 N35 1.384341 1_565
C7 N39 1.461673 1_555
N16 O0 1.243428 1_555
N16 O4 1.246334 1_555
N17 O1 1.243428 1_555
N17 O5 1.246334 1_555
N18 O2 1.243428 1_555
N18 O6 1.246334 1_555
N19 O3 1.243428 1_555
N19 O7 1.246334 1_555
N20 O8 1.249716 1_555
N20 O12 1.257354 1_555
N21 O9 1.249716 1_555
N21 O13 1.257354 1_555
N22 O10 1.249716 1_555
N22 O14 1.257354 1_555
N23 O11 1.249716 1_555
N23 O15 1.257354 1_555
N24 O20 1.251982 1_555
N24 O16 1.259793 1_555
N25 O21 1.251982 1_555
N25 O17 1.259793 1_555
N26 O22 1.251982 1_555
N26 O18 1.259793 1_555
N27 O23 1.251982 1_555
N27 O19 1.259793 1_555
N28 O28 1.257192 1_555
N28 O24 1.268710 1_555
N29 O29 1.257192 1_555
N29 O25 1.268710 1_565
N30 O30 1.257192 1_555
N30 O26 1.268710 1_555
N31 O31 1.257192 1_555
N31 O27 1.268710 1_545
N32 O32 1.256135 1_555
N32 O36 1.260851 1_555
N33 O33 1.256135 1_555
N33 O37 1.260851 1_565
N34 O34 1.256135 1_555
N34 O38 1.260851 1_555
N35 O35 1.256135 1_555
N35 O39 1.260851 1_545
N36 O40 1.236164 1_554
N36 O44 1.241335 1_555
N37 O41 1.236164 1_555
N37 O45 1.241335 1_555
N38 O42 1.236164 1_556
N38 O46 1.241335 1_555
N39 O43 1.236164 1_555
N39 O47 1.241335 1_555
