# generated using pymatgen
data_Na2CoP2O7
_symmetry_space_group_name_H-M   'P 1'
_cell_length_a   5.32499100
_cell_length_b   8.81199600
_cell_length_c   13.96465000
_cell_angle_alpha   90.00000000
_cell_angle_beta   90.00000000
_cell_angle_gamma   90.00000000
_symmetry_Int_Tables_number   1
_chemical_formula_structural   Na2CoP2O7
_chemical_formula_sum   'Na8 Co4 P8 O28'
_cell_volume   655.27443518
_cell_formula_units_Z   4
loop_
 _symmetry_equiv_pos_site_id
 _symmetry_equiv_pos_as_xyz
  1  'x, y, z'
loop_
 _atom_site_type_symbol
 _atom_site_label
 _atom_site_symmetry_multiplicity
 _atom_site_fract_x
 _atom_site_fract_y
 _atom_site_fract_z
 _atom_site_occupancy
  Na  Na0  1  0.75000000  0.86643100  0.60255400  1
  Na  Na1  1  0.75000000  0.63356900  0.10255400  1
  Na  Na2  1  0.25000000  0.13356900  0.39744600  1
  Na  Na3  1  0.25000000  0.36643100  0.89744600  1
  Na  Na4  1  0.25000000  0.86506700  0.20297400  1
  Na  Na5  1  0.25000000  0.63493300  0.70297400  1
  Na  Na6  1  0.75000000  0.13493300  0.79702600  1
  Na  Na7  1  0.75000000  0.36506700  0.29702600  1
  Co  Co0  1  0.75000000  0.76888600  0.32980500  1
  Co  Co1  1  0.75000000  0.73111400  0.82980500  1
  Co  Co2  1  0.25000000  0.23111400  0.67019500  1
  Co  Co3  1  0.25000000  0.26888600  0.17019500  1
  P  P0  1  0.75000000  0.05464800  0.19118700  1
  P  P1  1  0.75000000  0.44535200  0.69118700  1
  P  P2  1  0.25000000  0.94535200  0.80881300  1
  P  P3  1  0.25000000  0.55464800  0.30881300  1
  P  P4  1  0.75000000  0.27473900  0.03985700  1
  P  P5  1  0.75000000  0.22526100  0.53985700  1
  P  P6  1  0.25000000  0.72526100  0.96014300  1
  P  P7  1  0.25000000  0.77473900  0.46014300  1
  O  O0  1  0.99106400  0.12193000  0.23460900  1
  O  O1  1  0.50893600  0.37807000  0.73460900  1
  O  O2  1  0.49106400  0.87807000  0.76539100  1
  O  O3  1  0.00893600  0.62193000  0.26539100  1
  O  O4  1  0.00893600  0.87807000  0.76539100  1
  O  O5  1  0.49106400  0.62193000  0.26539100  1
  O  O6  1  0.50893600  0.12193000  0.23460900  1
  O  O7  1  0.99106400  0.37807000  0.73460900  1
  O  O8  1  0.75000000  0.88078100  0.19626300  1
  O  O9  1  0.75000000  0.61921900  0.69626300  1
  O  O10  1  0.25000000  0.11921900  0.80373700  1
  O  O11  1  0.25000000  0.38078100  0.30373700  1
  O  O12  1  0.75000000  0.09634600  0.07822200  1
  O  O13  1  0.75000000  0.40365400  0.57822200  1
  O  O14  1  0.25000000  0.90365400  0.92177800  1
  O  O15  1  0.25000000  0.59634600  0.42177800  1
  O  O16  1  0.51427800  0.35123000  0.08244900  1
  O  O17  1  0.98572200  0.14877000  0.58244900  1
  O  O18  1  0.01427800  0.64877000  0.91755100  1
  O  O19  1  0.48572200  0.85123000  0.41755100  1
  O  O20  1  0.48572200  0.64877000  0.91755100  1
  O  O21  1  0.01427800  0.85123000  0.41755100  1
  O  O22  1  0.98572200  0.35123000  0.08244900  1
  O  O23  1  0.51427800  0.14877000  0.58244900  1
  O  O24  1  0.75000000  0.26491500  0.93254900  1
  O  O25  1  0.75000000  0.23508500  0.43254900  1
  O  O26  1  0.25000000  0.73508500  0.06745100  1
  O  O27  1  0.25000000  0.76491500  0.56745100  1
loop_
_geom_bond_atom_site_label_1
_geom_bond_atom_site_label_2
_geom_bond_distance
_geom_bond_site_symmetry_2
Na0 O9 2.541266 1_555
Na0 O2 2.661315 1_555
Na0 O4 2.661315 1_655
Na0 O17 2.800784 1_565
Na0 O23 2.800784 1_565
Na0 O27 2.851213 1_655
Na0 O27 2.851213 1_555
Na0 O21 2.944972 1_655
Na0 O19 2.944972 1_555
Na1 O8 2.541266 1_555
Na1 O5 2.661315 1_555
Na1 O3 2.661315 1_655
Na1 O22 2.800784 1_555
Na1 O16 2.800784 1_555
Na1 O26 2.851213 1_555
Na1 O26 2.851213 1_655
Na1 O18 2.944972 1_654
Na1 O20 2.944972 1_554
Na2 O11 2.541266 1_555
Na2 O0 2.661315 1_455
Na2 O6 2.661315 1_555
Na2 O21 2.800784 1_545
Na2 O19 2.800784 1_545
Na2 O25 2.851213 1_455
Na2 O25 2.851213 1_555
Na2 O17 2.944972 1_455
Na2 O23 2.944972 1_555
Na3 O10 2.541266 1_555
Na3 O1 2.661315 1_555
Na3 O7 2.661315 1_455
Na3 O20 2.800784 1_555
Na3 O18 2.800784 1_555
Na3 O24 2.851213 1_555
Na3 O24 2.851213 1_455
Na3 O22 2.944972 1_456
Na3 O16 2.944972 1_556
Na4 O26 2.212152 1_555
Na4 O3 2.645361 1_555
Na4 O5 2.645361 1_555
Na4 O8 2.667741 1_555
Na4 O8 2.667741 1_455
Na4 O6 2.686943 1_565
Na4 O0 2.686943 1_465
Na5 O27 2.212152 1_555
Na5 O4 2.645361 1_555
Na5 O2 2.645361 1_555
Na5 O9 2.667741 1_455
Na5 O9 2.667741 1_555
Na5 O1 2.686943 1_555
Na5 O7 2.686943 1_455
Na6 O24 2.212152 1_555
Na6 O7 2.645361 1_555
Na6 O1 2.645361 1_555
Na6 O10 2.667741 1_555
Na6 O10 2.667741 1_655
Na6 O2 2.686943 1_545
Na6 O4 2.686943 1_645
Na7 O25 2.212152 1_555
Na7 O6 2.645361 1_555
Na7 O0 2.645361 1_555
Na7 O11 2.667741 1_555
Na7 O11 2.667741 1_655
Na7 O3 2.686943 1_655
Na7 O5 2.686943 1_555
Co0 O19 2.002102 1_555
Co0 O21 2.002102 1_655
Co0 O5 2.094582 1_555
Co0 O3 2.094582 1_655
Co0 O8 2.109493 1_555
Co1 O18 2.002102 1_655
Co1 O20 2.002102 1_555
Co1 O2 2.094582 1_555
Co1 O4 2.094582 1_655
Co1 O9 2.109493 1_555
Co2 O17 2.002102 1_455
Co2 O23 2.002102 1_555
Co2 O7 2.094582 1_455
Co2 O1 2.094582 1_555
Co2 O10 2.109493 1_555
Co3 O16 2.002102 1_555
Co3 O22 2.002102 1_455
Co3 O0 2.094582 1_455
Co3 O6 2.094582 1_555
Co3 O11 2.109493 1_555
O0 P0 1.538505 1_555
O1 P1 1.538505 1_555
O2 P2 1.538505 1_555
O3 P3 1.538505 1_555
O4 P2 1.538505 1_555
O5 P3 1.538505 1_555
O6 P0 1.538505 1_555
O7 P1 1.538505 1_555
O8 P0 1.533754 1_565
O9 P1 1.533754 1_555
O10 P2 1.533754 1_545
O11 P3 1.533754 1_555
O12 P0 1.619745 1_555
O12 P4 1.660786 1_555
O13 P1 1.619745 1_555
O13 P5 1.660786 1_555
O14 P2 1.619745 1_555
O14 P6 1.660786 1_555
O15 P3 1.619745 1_555
O15 P7 1.660786 1_555
O16 P4 1.543912 1_555
O17 P5 1.543912 1_555
O18 P6 1.543912 1_555
O19 P7 1.543912 1_555
O20 P6 1.543912 1_555
O21 P7 1.543912 1_555
O22 P4 1.543912 1_555
O23 P5 1.543912 1_555
O24 P4 1.501017 1_556
O25 P5 1.501017 1_555
O26 P6 1.501017 1_554
O27 P7 1.501017 1_555
