# generated using pymatgen
data_Tb3Pm
_symmetry_space_group_name_H-M   'P 1'
_cell_length_a   7.30837298
_cell_length_b   7.30837298
_cell_length_c   5.84627009
_cell_angle_alpha   90.00000000
_cell_angle_beta   90.00000000
_cell_angle_gamma   120.00000252
_symmetry_Int_Tables_number   1
_chemical_formula_structural   Tb3Pm
_chemical_formula_sum   'Tb6 Pm2'
_cell_volume   270.42753058
_cell_formula_units_Z   2
loop_
 _symmetry_equiv_pos_site_id
 _symmetry_equiv_pos_as_xyz
  1  'x, y, z'
loop_
 _atom_site_type_symbol
 _atom_site_label
 _atom_site_symmetry_multiplicity
 _atom_site_fract_x
 _atom_site_fract_y
 _atom_site_fract_z
 _atom_site_occupancy
  Tb  Tb0  1  0.83483217  0.16516783  0.75000000  1
  Tb  Tb1  1  0.33033767  0.16516783  0.75000000  1
  Tb  Tb2  1  0.83483217  0.66966233  0.75000000  1
  Tb  Tb3  1  0.16516783  0.83483217  0.25000000  1
  Tb  Tb4  1  0.66966233  0.83483217  0.25000000  1
  Tb  Tb5  1  0.16516783  0.33033767  0.25000000  1
  Pm  Pm0  1  0.66666700  0.33333300  0.25000000  1
  Pm  Pm1  1  0.33333300  0.66666700  0.75000000  1
loop_
_geom_bond_atom_site_label_1
_geom_bond_atom_site_label_2
_geom_bond_distance
_geom_bond_site_symmetry_2
Tb0 Tb5 3.593890 1_656
Tb0 Tb5 3.593890 1_655
Tb0 Tb4 3.593890 1_545
Tb0 Tb4 3.593890 1_546
Tb0 Tb2 3.621339 1_545
Tb0 Tb1 3.621339 1_655
Tb0 Tb2 3.687034 1_555
Tb0 Tb1 3.687034 1_555
Tb1 Tb3 3.593890 1_545
Tb1 Tb3 3.593890 1_546
Tb1 Tb5 3.593905 1_555
Tb1 Tb5 3.593905 1_556
Tb1 Tb2 3.621339 1_445
Tb1 Tb2 3.687034 1_555
Tb2 Tb3 3.593890 1_655
Tb2 Tb3 3.593890 1_656
Tb2 Tb4 3.593905 1_555
Tb2 Tb4 3.593905 1_556
Tb3 Tb4 3.621339 1_455
Tb3 Tb5 3.621339 1_565
Tb3 Tb5 3.687034 1_555
Tb3 Tb4 3.687034 1_555
Tb4 Tb5 3.621339 1_665
Tb4 Tb5 3.687034 1_555
Pm0 Tb1 3.616091 1_554
Pm0 Tb1 3.616091 1_555
Pm0 Tb2 3.616091 1_555
Pm0 Tb2 3.616091 1_554
Pm0 Tb0 3.616095 1_555
Pm0 Tb0 3.616095 1_554
Pm0 Tb5 3.654225 1_655
Pm0 Tb4 3.654225 1_545
Pm0 Tb3 3.654236 1_655
Pm0 Tb3 3.654236 1_545
Pm0 Tb4 3.654247 1_555
Pm0 Tb5 3.654247 1_555
Pm1 Tb5 3.616091 1_555
Pm1 Tb5 3.616091 1_556
Pm1 Tb4 3.616091 1_555
Pm1 Tb4 3.616091 1_556
Pm1 Tb3 3.616095 1_556
Pm1 Tb3 3.616095 1_555
Pm1 Tb1 3.654225 1_565
Pm1 Tb2 3.654225 1_455
Pm1 Tb0 3.654236 1_565
Pm1 Tb0 3.654236 1_455
Pm1 Tb1 3.654247 1_555
Pm1 Tb2 3.654247 1_555
