# generated using pymatgen
data_UC2
_symmetry_space_group_name_H-M   'P 1'
_cell_length_a   5.39486200
_cell_length_b   5.39486200
_cell_length_c   5.39486200
_cell_angle_alpha   90.00000000
_cell_angle_beta   90.00000000
_cell_angle_gamma   90.00000000
_symmetry_Int_Tables_number   1
_chemical_formula_structural   UC2
_chemical_formula_sum   'U4 C8'
_cell_volume   157.01495529
_cell_formula_units_Z   4
loop_
 _symmetry_equiv_pos_site_id
 _symmetry_equiv_pos_as_xyz
  1  'x, y, z'
loop_
 _atom_site_type_symbol
 _atom_site_label
 _atom_site_symmetry_multiplicity
 _atom_site_fract_x
 _atom_site_fract_y
 _atom_site_fract_z
 _atom_site_occupancy
  U  U0  1  0.50000000  0.50000000  0.00000000  1
  U  U1  1  0.50000000  0.00000000  0.50000000  1
  U  U2  1  0.00000000  0.50000000  0.50000000  1
  U  U3  1  0.00000000  0.00000000  0.00000000  1
  C  C0  1  0.07657200  0.92342800  0.42342800  1
  C  C1  1  0.92342800  0.42342800  0.07657200  1
  C  C2  1  0.42342800  0.07657200  0.92342800  1
  C  C3  1  0.57657200  0.57657200  0.57657200  1
  C  C4  1  0.92342800  0.07657200  0.57657200  1
  C  C5  1  0.07657200  0.57657200  0.92342800  1
  C  C6  1  0.57657200  0.92342800  0.07657200  1
  C  C7  1  0.42342800  0.42342800  0.42342800  1
loop_
_geom_bond_atom_site_label_1
_geom_bond_atom_site_label_2
_geom_bond_distance
_geom_bond_site_symmetry_2
C0 C4 1.431004 1_465
C0 U3 2.357856 1_565
C0 U1 2.357856 1_565
C0 U2 2.357856 1_555
C1 C5 1.431004 1_654
C1 U0 2.357856 1_555
C1 U2 2.357856 1_655
C1 U3 2.357856 1_655
C2 C6 1.431004 1_546
C2 U3 2.357856 1_556
C2 U1 2.357856 1_555
C2 U0 2.357856 1_556
C3 C7 1.431004 1_555
C3 U2 2.357856 1_655
C3 U1 2.357856 1_565
C3 U0 2.357856 1_556
C4 U1 2.357856 1_555
C4 U2 2.357856 1_655
C4 U3 2.357856 1_656
C5 U3 2.357856 1_566
C5 U2 2.357856 1_555
C5 U0 2.357856 1_556
C6 U0 2.357856 1_555
C6 U1 2.357856 1_565
C6 U3 2.357856 1_665
C7 U0 2.357856 1_555
C7 U1 2.357856 1_555
C7 U2 2.357856 1_555
