# generated using pymatgen
data_ZnFe3O7
_symmetry_space_group_name_H-M   'P 1'
_cell_length_a   5.44893700
_cell_length_b   10.00070800
_cell_length_c   10.34257400
_cell_angle_alpha   90.00000000
_cell_angle_beta   90.00000000
_cell_angle_gamma   90.00000000
_symmetry_Int_Tables_number   1
_chemical_formula_structural   ZnFe3O7
_chemical_formula_sum   'Zn4 Fe12 O28'
_cell_volume   563.60024151
_cell_formula_units_Z   4
loop_
 _symmetry_equiv_pos_site_id
 _symmetry_equiv_pos_as_xyz
  1  'x, y, z'
loop_
 _atom_site_type_symbol
 _atom_site_label
 _atom_site_symmetry_multiplicity
 _atom_site_fract_x
 _atom_site_fract_y
 _atom_site_fract_z
 _atom_site_occupancy
  Zn  Zn0  1  0.39242400  0.05334700  0.25000000  1
  Zn  Zn1  1  0.89242400  0.44665300  0.75000000  1
  Zn  Zn2  1  0.60757600  0.94665300  0.75000000  1
  Zn  Zn3  1  0.10757600  0.55334700  0.25000000  1
  Fe  Fe0  1  0.70782400  0.68446000  0.96947100  1
  Fe  Fe1  1  0.20782400  0.81554000  0.03052900  1
  Fe  Fe2  1  0.29217600  0.31554000  0.46947100  1
  Fe  Fe3  1  0.79217600  0.18446000  0.53052900  1
  Fe  Fe4  1  0.70591100  0.76810100  0.25000000  1
  Fe  Fe5  1  0.20591100  0.73189900  0.75000000  1
  Fe  Fe6  1  0.29408900  0.23189900  0.75000000  1
  Fe  Fe7  1  0.79408900  0.26810100  0.25000000  1
  Fe  Fe8  1  0.20782400  0.81554000  0.46947100  1
  Fe  Fe9  1  0.70782400  0.68446000  0.53052900  1
  Fe  Fe10  1  0.79217600  0.18446000  0.96947100  1
  Fe  Fe11  1  0.29217600  0.31554000  0.03052900  1
  O  O0  1  0.05077700  0.29141900  0.87638400  1
  O  O1  1  0.55077700  0.20858100  0.12361600  1
  O  O2  1  0.94922300  0.70858100  0.37638400  1
  O  O3  1  0.44922300  0.79141900  0.62361600  1
  O  O4  1  0.94922300  0.70858100  0.12361600  1
  O  O5  1  0.44922300  0.79141900  0.87638400  1
  O  O6  1  0.05077700  0.29141900  0.62361600  1
  O  O7  1  0.55077700  0.20858100  0.37638400  1
  O  O8  1  0.52340900  0.27945200  0.88486300  1
  O  O9  1  0.02340900  0.22054800  0.11513700  1
  O  O10  1  0.47659100  0.72054800  0.38486300  1
  O  O11  1  0.97659100  0.77945200  0.61513700  1
  O  O12  1  0.47659100  0.72054800  0.11513700  1
  O  O13  1  0.97659100  0.77945200  0.88486300  1
  O  O14  1  0.52340900  0.27945200  0.61513700  1
  O  O15  1  0.02340900  0.22054800  0.38486300  1
  O  O16  1  0.80848800  0.44603600  0.25000000  1
  O  O17  1  0.30848800  0.05396400  0.75000000  1
  O  O18  1  0.19151200  0.55396400  0.75000000  1
  O  O19  1  0.69151200  0.94603600  0.25000000  1
  O  O20  1  0.77830400  0.01943400  0.59920500  1
  O  O21  1  0.27830400  0.48056600  0.40079500  1
  O  O22  1  0.22169600  0.98056600  0.09920500  1
  O  O23  1  0.72169600  0.51943400  0.90079500  1
  O  O24  1  0.22169600  0.98056600  0.40079500  1
  O  O25  1  0.72169600  0.51943400  0.59920500  1
  O  O26  1  0.77830400  0.01943400  0.90079500  1
  O  O27  1  0.27830400  0.48056600  0.09920500  1
loop_
_geom_bond_atom_site_label_1
_geom_bond_atom_site_label_2
_geom_bond_distance
_geom_bond_site_symmetry_2
Fe0 O23 1.798323 1_555
Fe0 O13 1.952680 1_555
Fe0 O12 1.996876 1_556
Fe0 O5 2.014114 1_555
Fe0 O4 2.080874 1_556
Fe1 O22 1.798323 1_555
Fe1 O12 1.952680 1_555
Fe1 O13 1.996876 1_454
Fe1 O4 2.014114 1_455
Fe1 O5 2.080874 1_554
Fe2 O21 1.798323 1_555
Fe2 O15 1.952680 1_555
Fe2 O14 1.996876 1_555
Fe2 O7 2.014114 1_555
Fe2 O6 2.080874 1_555
Fe3 O20 1.798323 1_555
Fe3 O14 1.952680 1_555
Fe3 O15 1.996876 1_655
Fe3 O6 2.014114 1_655
Fe3 O7 2.080874 1_555
Fe4 O19 1.781205 1_555
Fe4 O10 1.932120 1_555
Fe4 O12 1.932120 1_555
Fe4 O2 1.954646 1_555
Fe4 O4 1.954646 1_555
Fe5 O18 1.781205 1_555
Fe5 O13 1.932120 1_455
Fe5 O11 1.932120 1_455
Fe5 O5 1.954646 1_555
Fe5 O3 1.954646 1_555
Fe6 O17 1.781205 1_555
Fe6 O8 1.932120 1_555
Fe6 O14 1.932120 1_555
Fe6 O0 1.954646 1_555
Fe6 O6 1.954646 1_555
Fe7 O16 1.781205 1_555
Fe7 O15 1.932120 1_655
Fe7 O9 1.932120 1_655
Fe7 O7 1.954646 1_555
Fe7 O1 1.954646 1_555
Fe8 O24 1.798323 1_555
Fe8 O10 1.952680 1_555
Fe8 O11 1.996876 1_455
Fe8 O2 2.014114 1_455
Fe8 O3 2.080874 1_555
Fe9 O25 1.798323 1_555
Fe9 O11 1.952680 1_555
Fe9 O10 1.996876 1_555
Fe9 O3 2.014114 1_555
Fe9 O2 2.080874 1_555
Fe10 O26 1.798323 1_555
Fe10 O8 1.952680 1_555
Fe10 O9 1.996876 1_656
Fe10 O0 2.014114 1_655
Fe10 O1 2.080874 1_556
Fe11 O27 1.798323 1_555
Fe11 O9 1.952680 1_555
Fe11 O8 1.996876 1_554
Fe11 O1 2.014114 1_555
Fe11 O0 2.080874 1_554
O0 Zn1 2.205272 1_455
O1 Zn0 2.205272 1_555
O2 Zn3 2.205272 1_655
O3 Zn2 2.205272 1_555
O4 Zn3 2.205272 1_655
O5 Zn2 2.205272 1_555
O6 Zn1 2.205272 1_455
O7 Zn0 2.205272 1_555
O16 Zn3 1.951330 1_655
O17 Zn2 1.951330 1_545
O18 Zn1 1.951330 1_455
O19 Zn0 1.951330 1_565
O20 Zn2 1.956424 1_545
O21 Zn3 1.956424 1_555
O22 Zn0 1.956424 1_565
O23 Zn1 1.956424 1_555
O24 Zn0 1.956424 1_565
O25 Zn1 1.956424 1_555
O26 Zn2 1.956424 1_545
O27 Zn3 1.956424 1_555
