# generated using pymatgen
data_Sr2CoMoO6
_symmetry_space_group_name_H-M   'P 1'
_cell_length_a   5.56046400
_cell_length_b   5.56431567
_cell_length_c   5.56046400
_cell_angle_alpha   119.97710455
_cell_angle_beta   90.00000000
_cell_angle_gamma   119.97710455
_symmetry_Int_Tables_number   1
_chemical_formula_structural   Sr2CoMoO6
_chemical_formula_sum   'Sr2 Co1 Mo1 O6'
_cell_volume   121.73603139
_cell_formula_units_Z   1
loop_
 _symmetry_equiv_pos_site_id
 _symmetry_equiv_pos_as_xyz
  1  'x, y, z'
loop_
 _atom_site_type_symbol
 _atom_site_label
 _atom_site_symmetry_multiplicity
 _atom_site_fract_x
 _atom_site_fract_y
 _atom_site_fract_z
 _atom_site_occupancy
  Sr  Sr0  1  0.75000000  0.50000000  0.25000000  1
  Sr  Sr1  1  0.25000000  0.50000000  0.75000000  1
  Co  Co0  1  0.00000000  0.00000000  0.00000000  1
  Mo  Mo0  1  0.50000000  0.00000000  0.50000000  1
  O  O0  1  0.25225000  0.50450000  0.25225000  1
  O  O1  1  0.21593100  0.00000000  0.71305400  1
  O  O2  1  0.71305400  0.00000000  0.78406900  1
  O  O3  1  0.28694600  0.00000000  0.21593100  1
  O  O4  1  0.74775000  0.49550000  0.74775000  1
  O  O5  1  0.78406900  0.00000000  0.28694600  1
loop_
_geom_bond_atom_site_label_1
_geom_bond_atom_site_label_2
_geom_bond_distance
_geom_bond_site_symmetry_2
Co0 O4 1.986361 1_444
Co0 O0 1.986361 1_555
Co0 O3 1.996851 1_555
Co0 O1 1.996851 1_554
Co0 O5 1.996851 1_455
Co0 O2 1.996851 1_454
Mo0 O0 1.950926 1_545
Mo0 O4 1.950926 1_555
Mo0 O2 1.974452 1_555
Mo0 O5 1.974452 1_555
Mo0 O1 1.974452 1_555
Mo0 O3 1.974452 1_555
O0 Sr0 2.780288 1_555
O0 Sr1 2.780288 1_555
O0 Sr1 2.780288 1_554
O0 Sr0 2.780288 1_455
O1 Sr0 2.592421 1_445
O1 Sr1 2.592421 1_555
O1 Sr1 2.986024 1_545
O1 Sr0 2.986024 1_556
O2 Sr1 2.592421 1_545
O2 Sr0 2.592421 1_556
O2 Sr1 2.986024 1_655
O2 Sr0 2.986024 1_545
O3 Sr0 2.592421 1_555
O3 Sr1 2.592421 1_544
O3 Sr0 2.986024 1_445
O3 Sr1 2.986024 1_555
O4 Sr1 2.780288 1_655
O4 Sr0 2.780288 1_555
O4 Sr0 2.780288 1_556
O4 Sr1 2.780288 1_555
O5 Sr1 2.592421 1_655
O5 Sr0 2.592421 1_545
O5 Sr1 2.986024 1_544
O5 Sr0 2.986024 1_555
