# generated using pymatgen
data_DyNiSn4
_symmetry_space_group_name_H-M   'P 1'
_cell_length_a   14.33938330
_cell_length_b   14.33938330
_cell_length_c   4.54930300
_cell_angle_alpha   90.00000000
_cell_angle_beta   90.00000000
_cell_angle_gamma   162.34354176
_symmetry_Int_Tables_number   1
_chemical_formula_structural   DyNiSn4
_chemical_formula_sum   'Dy2 Ni2 Sn8'
_cell_volume   283.72075663
_cell_formula_units_Z   2
loop_
 _symmetry_equiv_pos_site_id
 _symmetry_equiv_pos_as_xyz
  1  'x, y, z'
loop_
 _atom_site_type_symbol
 _atom_site_label
 _atom_site_symmetry_multiplicity
 _atom_site_fract_x
 _atom_site_fract_y
 _atom_site_fract_z
 _atom_site_occupancy
  Dy  Dy0  1  0.80608100  0.19391900  0.50000000  1
  Dy  Dy1  1  0.19391900  0.80608100  0.50000000  1
  Ni  Ni0  1  0.55104100  0.44895900  0.00000000  1
  Ni  Ni1  1  0.44895900  0.55104100  0.00000000  1
  Sn  Sn0  1  0.60839600  0.39160400  0.50000000  1
  Sn  Sn1  1  0.39160400  0.60839600  0.50000000  1
  Sn  Sn2  1  0.71436200  0.28563800  0.00000000  1
  Sn  Sn3  1  0.28563800  0.71436200  0.00000000  1
  Sn  Sn4  1  0.89052300  0.10947700  0.00000000  1
  Sn  Sn5  1  0.10947700  0.89052300  0.00000000  1
  Sn  Sn6  1  0.00000000  0.00000000  0.00000000  1
  Sn  Sn7  1  0.50000000  0.50000000  0.50000000  1
loop_
_geom_bond_atom_site_label_1
_geom_bond_atom_site_label_2
_geom_bond_distance
_geom_bond_site_symmetry_2
Dy0 Sn3 3.217571 1_656
Dy0 Sn3 3.217571 1_655
Dy0 Sn3 3.217571 1_545
Dy0 Sn3 3.217571 1_546
Dy0 Sn1 3.273700 1_655
Dy0 Sn1 3.273700 1_545
Dy0 Sn4 3.301590 1_556
Dy0 Sn4 3.301590 1_555
Dy0 Sn2 3.453985 1_555
Dy0 Sn2 3.453985 1_556
Dy1 Sn2 3.217571 1_565
Dy1 Sn2 3.217571 1_566
Dy1 Sn2 3.217571 1_456
Dy1 Sn2 3.217571 1_455
Dy1 Sn0 3.273700 1_565
Dy1 Sn0 3.273700 1_455
Dy1 Sn5 3.301590 1_555
Dy1 Sn5 3.301590 1_556
Dy1 Sn3 3.453985 1_555
Dy1 Sn3 3.453985 1_556
Ni0 Sn6 2.633499 1_665
Ni0 Sn6 2.633499 1_555
Ni0 Sn7 2.695600 1_555
Ni0 Sn7 2.695600 1_554
Ni0 Sn5 2.754178 1_545
Ni0 Sn5 2.754178 1_655
Ni0 Sn0 2.795695 1_554
Ni0 Sn0 2.795695 1_555
Ni1 Sn6 2.633499 1_665
Ni1 Sn6 2.633499 1_555
Ni1 Sn7 2.695600 1_555
Ni1 Sn7 2.695600 1_554
Ni1 Sn4 2.754178 1_455
Ni1 Sn4 2.754178 1_565
Ni1 Sn1 2.795695 1_554
Ni1 Sn1 2.795695 1_555
Sn0 Sn7 3.071835 1_555
Sn0 Sn5 3.165134 1_655
Sn0 Sn5 3.165134 1_656
Sn0 Sn5 3.165134 1_546
Sn0 Sn5 3.165134 1_545
Sn1 Sn7 3.071835 1_555
Sn1 Sn4 3.165134 1_566
Sn1 Sn4 3.165134 1_565
Sn1 Sn4 3.165134 1_455
Sn1 Sn4 3.165134 1_456
Sn2 Sn3 2.987149 1_545
Sn2 Sn3 2.987149 1_655
Sn4 Sn6 3.102469 1_655
Sn5 Sn6 3.102469 1_565
