# generated using pymatgen
data_NpMn2
_symmetry_space_group_name_H-M   'P 1'
_cell_length_a   4.91239243
_cell_length_b   4.91239243
_cell_length_c   4.91239243
_cell_angle_alpha   60.00000000
_cell_angle_beta   60.00000000
_cell_angle_gamma   60.00000000
_symmetry_Int_Tables_number   1
_chemical_formula_structural   NpMn2
_chemical_formula_sum   'Np2 Mn4'
_cell_volume   83.82318583
_cell_formula_units_Z   2
loop_
 _symmetry_equiv_pos_site_id
 _symmetry_equiv_pos_as_xyz
  1  'x, y, z'
loop_
 _atom_site_type_symbol
 _atom_site_label
 _atom_site_symmetry_multiplicity
 _atom_site_fract_x
 _atom_site_fract_y
 _atom_site_fract_z
 _atom_site_occupancy
  Np  Np0  1  0.00000000  0.00000000  0.00000000  1
  Np  Np1  1  0.25000000  0.25000000  0.25000000  1
  Mn  Mn0  1  0.62500000  0.62500000  0.62500000  1
  Mn  Mn1  1  0.12500000  0.62500000  0.62500000  1
  Mn  Mn2  1  0.62500000  0.12500000  0.62500000  1
  Mn  Mn3  1  0.62500000  0.62500000  0.12500000  1
loop_
_geom_bond_atom_site_label_1
_geom_bond_atom_site_label_2
_geom_bond_distance
_geom_bond_site_symmetry_2
Np0 Np1 3.008214 1_455
Np0 Np1 3.008214 1_555
Np0 Np1 3.008214 1_554
Np0 Np1 3.008214 1_545
Mn0 Mn1 2.456196 1_555
Mn0 Mn2 2.456196 1_555
Mn0 Mn1 2.456196 1_655
Mn0 Mn3 2.456196 1_555
Mn0 Mn3 2.456196 1_556
Mn0 Mn2 2.456196 1_565
Mn0 Np0 2.880145 1_656
Mn0 Np1 2.880145 1_565
Mn0 Np0 2.880145 1_665
Mn0 Np1 2.880145 1_556
Mn0 Np0 2.880145 1_566
Mn0 Np1 2.880145 1_655
Mn1 Mn3 2.456196 1_456
Mn1 Mn2 2.456196 1_555
Mn1 Mn2 2.456196 1_465
Mn1 Mn3 2.456196 1_555
Mn1 Np1 2.880145 1_555
Mn1 Np0 2.880145 1_565
Mn1 Np1 2.880145 1_556
Mn1 Np0 2.880145 1_556
Mn1 Np0 2.880145 1_566
Mn1 Np1 2.880145 1_565
Mn2 Mn3 2.456196 1_546
Mn2 Mn3 2.456196 1_555
Mn2 Np1 2.880145 1_555
Mn2 Np0 2.880145 1_656
Mn2 Np1 2.880145 1_556
Mn2 Np0 2.880145 1_556
Mn2 Np1 2.880145 1_655
Mn2 Np0 2.880145 1_655
Mn3 Np1 2.880145 1_555
Mn3 Np0 2.880145 1_665
Mn3 Np1 2.880145 1_565
Mn3 Np1 2.880145 1_655
Mn3 Np0 2.880145 1_565
Mn3 Np0 2.880145 1_655
