# generated using pymatgen
data_Hf4Fe4Ge7
_symmetry_space_group_name_H-M   'P 1'
_cell_length_a   5.14080666
_cell_length_b   9.79169070
_cell_length_c   9.79169070
_cell_angle_alpha   86.04856993
_cell_angle_beta   74.78102927
_cell_angle_gamma   74.78102927
_symmetry_Int_Tables_number   1
_chemical_formula_structural   Hf4Fe4Ge7
_chemical_formula_sum   'Hf8 Fe8 Ge14'
_cell_volume   458.92099790
_cell_formula_units_Z   2
loop_
 _symmetry_equiv_pos_site_id
 _symmetry_equiv_pos_as_xyz
  1  'x, y, z'
loop_
 _atom_site_type_symbol
 _atom_site_label
 _atom_site_symmetry_multiplicity
 _atom_site_fract_x
 _atom_site_fract_y
 _atom_site_fract_z
 _atom_site_occupancy
  Hf  Hf0  1  0.13873617  -0.00000000  0.72252766  1
  Hf  Hf1  1  0.86126383  0.00000000  0.27747234  1
  Hf  Hf2  1  0.86126383  0.27747234  -0.00000000  1
  Hf  Hf3  1  0.13873617  0.72252766  0.00000000  1
  Hf  Hf4  1  0.50000000  0.19236913  0.80763087  1
  Hf  Hf5  1  0.50000000  0.80763087  0.19236913  1
  Hf  Hf6  1  0.30763087  0.19236913  0.19236913  1
  Hf  Hf7  1  0.69236913  0.80763087  0.80763087  1
  Fe  Fe0  1  0.39815061  0.50000000  0.20369878  1
  Fe  Fe1  1  0.10184939  0.50000000  0.79630122  1
  Fe  Fe2  1  0.10184939  0.79630122  0.50000000  1
  Fe  Fe3  1  0.39815061  0.20369878  0.50000000  1
  Fe  Fe4  1  0.60184939  0.79630122  0.50000000  1
  Fe  Fe5  1  0.89815061  0.20369878  0.50000000  1
  Fe  Fe6  1  0.89815061  0.50000000  0.20369878  1
  Fe  Fe7  1  0.60184939  0.50000000  0.79630122  1
  Ge  Ge0  1  0.29527637  -0.00000000  0.40944726  1
  Ge  Ge1  1  0.70472363  0.00000000  0.59055274  1
  Ge  Ge2  1  0.70472363  0.59055274  0.00000000  1
  Ge  Ge3  1  0.29527637  0.40944726  -0.00000000  1
  Ge  Ge4  1  0.00000000  0.28532564  0.71467436  1
  Ge  Ge5  1  -0.00000000  0.71467436  0.28532564  1
  Ge  Ge6  1  0.71467436  0.28532564  0.28532564  1
  Ge  Ge7  1  0.28532564  0.71467436  0.71467436  1
  Ge  Ge8  1  0.50000000  0.40543757  0.59456243  1
  Ge  Ge9  1  0.50000000  0.59456243  0.40543757  1
  Ge  Ge10  1  0.09456243  0.40543757  0.40543757  1
  Ge  Ge11  1  0.90543757  0.59456243  0.59456243  1
  Ge  Ge12  1  0.75226592  1.00000000  1.00000000  1
  Ge  Ge13  1  0.24773408  0.00000000  0.00000000  1
loop_
_geom_bond_atom_site_label_1
_geom_bond_atom_site_label_2
_geom_bond_distance
_geom_bond_site_symmetry_2
Fe0 Ge10 2.466408 1_555
Fe0 Ge9 2.466408 1_555
Fe0 Ge2 2.467356 1_555
Fe0 Ge3 2.467357 1_555
Fe0 Ge5 2.522017 1_555
Fe0 Ge6 2.522017 1_555
Fe1 Ge8 2.466408 1_555
Fe1 Ge11 2.466408 1_455
Fe1 Ge2 2.467356 1_456
Fe1 Ge3 2.467357 1_556
Fe1 Ge7 2.522017 1_555
Fe1 Ge4 2.522017 1_555
Fe2 Ge9 2.466408 1_555
Fe2 Ge11 2.466408 1_455
Fe2 Ge1 2.467356 1_465
Fe2 Ge0 2.467357 1_565
Fe2 Ge7 2.522017 1_555
Fe2 Ge5 2.522017 1_555
Fe3 Ge10 2.466408 1_555
Fe3 Ge8 2.466408 1_555
Fe3 Ge1 2.467356 1_555
Fe3 Ge0 2.467357 1_555
Fe3 Ge4 2.522017 1_555
Fe3 Ge6 2.522017 1_555
Fe4 Ge11 2.466408 1_555
Fe4 Ge9 2.466408 1_555
Fe4 Ge0 2.467356 1_565
Fe4 Ge1 2.467357 1_565
Fe4 Ge5 2.522017 1_655
Fe4 Ge7 2.522017 1_555
Fe5 Ge8 2.466408 1_555
Fe5 Ge10 2.466408 1_655
Fe5 Ge0 2.467356 1_655
Fe5 Ge1 2.467357 1_555
Fe5 Ge6 2.522017 1_555
Fe5 Ge4 2.522017 1_655
Fe6 Ge9 2.466408 1_555
Fe6 Ge10 2.466408 1_655
Fe6 Ge3 2.467356 1_655
Fe6 Ge2 2.467357 1_555
Fe6 Ge6 2.522017 1_555
Fe6 Ge5 2.522017 1_655
Fe7 Ge11 2.466408 1_555
Fe7 Ge8 2.466408 1_555
Fe7 Ge3 2.467356 1_556
Fe7 Ge2 2.467357 1_556
Fe7 Ge4 2.522017 1_655
Fe7 Ge7 2.522017 1_555
Ge0 Hf6 2.740474 1_555
Ge0 Hf5 2.740474 1_545
Ge0 Hf1 2.856891 1_555
Ge0 Hf1 2.856891 1_455
Ge0 Hf0 2.958075 1_555
Ge1 Hf7 2.740474 1_545
Ge1 Hf4 2.740474 1_555
Ge1 Hf0 2.856891 1_555
Ge1 Hf0 2.856891 1_655
Ge1 Hf1 2.958075 1_555
Ge2 Hf7 2.740474 1_554
Ge2 Hf5 2.740474 1_555
Ge2 Hf3 2.856891 1_555
Ge2 Hf3 2.856891 1_655
Ge2 Hf2 2.958075 1_555
Ge3 Hf6 2.740474 1_555
Ge3 Hf4 2.740474 1_554
Ge3 Hf2 2.856891 1_555
Ge3 Hf2 2.856891 1_455
Ge3 Hf3 2.958075 1_555
Ge4 Hf0 2.696861 1_555
Ge4 Hf2 2.696861 1_456
Ge4 Hf4 2.854772 1_455
Ge4 Hf4 2.854772 1_555
Ge5 Hf3 2.696861 1_555
Ge5 Hf1 2.696861 1_465
Ge5 Hf5 2.854772 1_455
Ge5 Hf5 2.854772 1_555
Ge6 Hf2 2.696861 1_555
Ge6 Hf1 2.696861 1_555
Ge6 Hf6 2.854772 1_655
Ge6 Hf6 2.854773 1_555
Ge7 Hf0 2.696861 1_565
Ge7 Hf3 2.696861 1_556
Ge7 Hf7 2.854772 1_455
Ge7 Hf7 2.854773 1_555
Ge8 Ge9 2.527068 1_555
Ge8 Hf4 2.847000 1_555
Ge9 Hf5 2.847000 1_555
Ge10 Ge11 2.527068 1_455
Ge10 Hf6 2.847000 1_555
Ge11 Hf7 2.847000 1_555
Ge12 Ge13 2.547106 1_666
Ge12 Ge13 2.593701 1_566
Ge12 Hf6 2.879039 1_566
Ge12 Hf5 2.879039 1_556
Ge12 Hf4 2.879039 1_565
Ge12 Hf7 2.879040 1_555
Ge12 Hf0 2.914607 1_665
Ge12 Hf3 2.914607 1_656
Ge12 Hf1 2.914607 1_566
Ge12 Hf2 2.914607 1_566
Ge13 Hf7 2.879039 1_544
Ge13 Hf4 2.879039 1_554
Ge13 Hf5 2.879039 1_545
Ge13 Hf6 2.879040 1_555
Ge13 Hf1 2.914607 1_455
Ge13 Hf2 2.914607 1_455
Ge13 Hf3 2.914607 1_545
Ge13 Hf0 2.914607 1_554
