# generated using pymatgen
data_CaCuF5
_symmetry_space_group_name_H-M   'P 1'
_cell_length_a   10.03019959
_cell_length_b   5.39309844
_cell_length_c   7.42387617
_cell_angle_alpha   70.29378362
_cell_angle_beta   90.00000000
_cell_angle_gamma   90.00000000
_symmetry_Int_Tables_number   1
_chemical_formula_structural   CaCuF5
_chemical_formula_sum   'Ca4 Cu4 F20'
_cell_volume   378.06676842
_cell_formula_units_Z   4
loop_
 _symmetry_equiv_pos_site_id
 _symmetry_equiv_pos_as_xyz
  1  'x, y, z'
loop_
 _atom_site_type_symbol
 _atom_site_label
 _atom_site_symmetry_multiplicity
 _atom_site_fract_x
 _atom_site_fract_y
 _atom_site_fract_z
 _atom_site_occupancy
  Ca  Ca0  1  0.02116540  0.53195311  0.74387102  1
  Ca  Ca1  1  0.52116540  0.46804689  0.75612898  1
  Ca  Ca2  1  0.97883460  0.46804689  0.25612898  1
  Ca  Ca3  1  0.47883460  0.53195311  0.24387102  1
  Cu  Cu0  1  0.75387342  0.11152635  0.59912118  1
  Cu  Cu1  1  0.25387342  0.88847365  0.90087882  1
  Cu  Cu2  1  0.24612658  0.88847365  0.40087882  1
  Cu  Cu3  1  0.74612658  0.11152635  0.09912118  1
  F  F0  1  0.87543882  0.39987456  0.55504252  1
  F  F1  1  0.37543882  0.60012544  0.94495748  1
  F  F2  1  0.12456118  0.60012544  0.44495748  1
  F  F3  1  0.62456118  0.39987456  0.05504252  1
  F  F4  1  0.61364703  0.35586356  0.50303378  1
  F  F5  1  0.11364703  0.64413644  0.99696622  1
  F  F6  1  0.38635297  0.64413644  0.49696622  1
  F  F7  1  0.88635297  0.35586356  0.00303378  1
  F  F8  1  0.39661843  0.10821189  0.80491738  1
  F  F9  1  0.89661843  0.89178811  0.69508262  1
  F  F10  1  0.60338157  0.89178811  0.19508262  1
  F  F11  1  0.10338157  0.10821189  0.30491738  1
  F  F12  1  0.14048540  0.16776103  0.86659302  1
  F  F13  1  0.64048540  0.83223897  0.63340698  1
  F  F14  1  0.85951460  0.83223897  0.13340698  1
  F  F15  1  0.35951460  0.16776103  0.36659302  1
  F  F16  1  0.69721026  0.14009294  0.84123851  1
  F  F17  1  0.19721026  0.85990706  0.65876149  1
  F  F18  1  0.30278974  0.85990706  0.15876149  1
  F  F19  1  0.80278974  0.14009294  0.34123851  1
loop_
_geom_bond_atom_site_label_1
_geom_bond_atom_site_label_2
_geom_bond_distance
_geom_bond_site_symmetry_2
Ca0 F12 2.216613 1_555
Ca0 F9 2.232435 1_455
Ca0 F7 2.280313 1_456
Ca0 F0 2.298353 1_455
Ca0 F5 2.350233 1_555
Ca0 F2 2.363235 1_555
Ca0 F17 2.427293 1_555
Ca1 F13 2.216613 1_555
Ca1 F8 2.232435 1_555
Ca1 F6 2.280313 1_555
Ca1 F1 2.298353 1_555
Ca1 F4 2.350233 1_555
Ca1 F3 2.363235 1_556
Ca1 F16 2.427293 1_555
Ca2 F14 2.216613 1_555
Ca2 F11 2.232435 1_655
Ca2 F5 2.280313 1_654
Ca2 F2 2.298353 1_655
Ca2 F7 2.350233 1_555
Ca2 F0 2.363235 1_555
Ca2 F19 2.427293 1_555
Ca3 F15 2.216613 1_555
Ca3 F10 2.232435 1_555
Ca3 F4 2.280313 1_555
Ca3 F3 2.298353 1_555
Ca3 F6 2.350233 1_555
Ca3 F1 2.363235 1_554
Ca3 F18 2.427293 1_555
Cu0 F13 1.835322 1_545
Cu0 F9 1.841872 1_545
Cu0 F4 1.894622 1_555
Cu0 F0 1.915452 1_555
Cu0 F19 1.931533 1_555
Cu0 F16 1.940187 1_555
Cu1 F12 1.835322 1_565
Cu1 F8 1.841872 1_565
Cu1 F5 1.894622 1_555
Cu1 F1 1.915452 1_555
Cu1 F18 1.931533 1_556
Cu1 F17 1.940187 1_555
Cu2 F15 1.835322 1_565
Cu2 F11 1.841872 1_565
Cu2 F6 1.894622 1_555
Cu2 F2 1.915452 1_555
Cu2 F17 1.931533 1_555
Cu2 F18 1.940187 1_555
Cu3 F14 1.835322 1_545
Cu3 F10 1.841872 1_545
Cu3 F7 1.894622 1_555
Cu3 F3 1.915452 1_555
Cu3 F16 1.931533 1_554
Cu3 F19 1.940187 1_555
