# generated using pymatgen
data_K2C7N4O
_symmetry_space_group_name_H-M   'P 1'
_cell_length_a   4.19550691
_cell_length_b   8.08648166
_cell_length_c   14.92418322
_cell_angle_alpha   99.44457509
_cell_angle_beta   96.81555172
_cell_angle_gamma   91.46112508
_symmetry_Int_Tables_number   1
_chemical_formula_structural   K2C7N4O
_chemical_formula_sum   'K4 C14 N8 O2'
_cell_volume   495.41509117
_cell_formula_units_Z   2
loop_
 _symmetry_equiv_pos_site_id
 _symmetry_equiv_pos_as_xyz
  1  'x, y, z'
loop_
 _atom_site_type_symbol
 _atom_site_label
 _atom_site_symmetry_multiplicity
 _atom_site_fract_x
 _atom_site_fract_y
 _atom_site_fract_z
 _atom_site_occupancy
  K  K0  1  0.30748900  0.12231800  0.62573100  1
  K  K1  1  0.69251100  0.87768200  0.37426900  1
  K  K2  1  0.18641900  0.89710400  0.12159600  1
  K  K3  1  0.81358100  0.10289600  0.87840400  1
  C  C0  1  0.68522300  0.52665000  0.18079600  1
  C  C1  1  0.31477700  0.47335000  0.81920400  1
  C  C2  1  0.65847400  0.35197400  0.17366700  1
  C  C3  1  0.34152600  0.64802600  0.82633300  1
  C  C4  1  0.11887800  0.22139100  0.38224700  1
  C  C5  1  0.88112200  0.77860900  0.61775300  1
  C  C6  1  0.00326300  0.67122100  0.67678700  1
  C  C7  1  0.99673700  0.32877900  0.32321300  1
  C  C8  1  0.79219600  0.25223400  0.24063700  1
  C  C9  1  0.20780400  0.74776600  0.75936300  1
  C  C10  1  0.09870900  0.49820200  0.34639700  1
  C  C11  1  0.90129100  0.50179800  0.65360300  1
  C  C12  1  0.47980900  0.26484300  0.09368600  1
  C  C13  1  0.52019100  0.73515700  0.90631400  1
  N  N0  1  0.30478200  0.32709800  0.81770600  1
  N  N1  1  0.69521800  0.67290200  0.18229400  1
  N  N2  1  0.21866400  0.12635700  0.42948900  1
  N  N3  1  0.78133600  0.87364300  0.57051100  1
  N  N4  1  0.32962000  0.18958700  0.02708400  1
  N  N5  1  0.67038000  0.81041300  0.97291600  1
  N  N6  1  0.19147200  0.63910700  0.36814500  1
  N  N7  1  0.80852800  0.36089300  0.63185500  1
  O  O0  1  0.73188000  0.09384300  0.22581800  1
  O  O1  1  0.26812000  0.90615700  0.77418200  1
loop_
_geom_bond_atom_site_label_1
_geom_bond_atom_site_label_2
_geom_bond_distance
_geom_bond_site_symmetry_2
K0 N7 2.799801 1_555
K0 N7 2.882030 1_455
K0 N3 2.897210 1_445
K0 N2 2.913845 1_555
K0 N3 2.953645 1_545
K0 O1 3.055208 1_545
K0 N0 3.066358 1_555
K1 N6 2.799801 1_555
K1 N6 2.882030 1_655
K1 N2 2.897210 1_665
K1 N3 2.913845 1_555
K1 N2 2.953645 1_565
K1 O0 3.055208 1_565
K1 N1 3.066358 1_555
K2 O0 2.888758 1_565
K2 N5 2.893848 1_454
K2 O0 2.938326 1_465
K2 N1 2.990284 1_555
K2 N1 3.024265 1_455
K2 N4 3.027874 1_565
K2 N5 3.188933 1_554
K3 O1 2.888758 1_545
K3 N4 2.893848 1_656
K3 O1 2.938326 1_645
K3 N0 2.990284 1_555
K3 N0 3.024265 1_655
K3 N5 3.027874 1_545
K3 N4 3.188933 1_556
C0 N1 1.178781 1_555
C0 C2 1.399597 1_555
C1 N0 1.178781 1_555
C1 C3 1.399597 1_555
C2 C8 1.455597 1_555
C3 C9 1.455597 1_555
C4 N2 1.177756 1_555
C4 C7 1.399839 1_455
C5 N3 1.177756 1_555
C5 C6 1.399839 1_655
C6 C9 1.452541 1_555
C7 C8 1.452541 1_555
C8 O0 1.276983 1_555
C9 O1 1.276983 1_555
C10 N6 1.175218 1_555
C10 C7 1.399697 1_455
C11 N7 1.175218 1_555
C11 C6 1.399697 1_655
C12 N4 1.178413 1_555
C12 C2 1.402787 1_555
C13 N5 1.178413 1_555
C13 C3 1.402787 1_555
