# generated using pymatgen
data_Dy(Ni2B)6
_symmetry_space_group_name_H-M   'P 1'
_cell_length_a   5.97516295
_cell_length_b   5.97516295
_cell_length_c   10.90207869
_cell_angle_alpha   90.00000000
_cell_angle_beta   90.00000000
_cell_angle_gamma   104.74985869
_symmetry_Int_Tables_number   1
_chemical_formula_structural   Dy(Ni2B)6
_chemical_formula_sum   'Dy2 Ni24 B12'
_cell_volume   376.40571349
_cell_formula_units_Z   2
loop_
 _symmetry_equiv_pos_site_id
 _symmetry_equiv_pos_as_xyz
  1  'x, y, z'
loop_
 _atom_site_type_symbol
 _atom_site_label
 _atom_site_symmetry_multiplicity
 _atom_site_fract_x
 _atom_site_fract_y
 _atom_site_fract_z
 _atom_site_occupancy
  Dy  Dy0  1  0.83296677  0.83296677  0.49482950  1
  Dy  Dy1  1  0.16703323  0.16703323  0.99482950  1
  Ni  Ni0  1  0.56594003  0.56594003  0.91870747  1
  Ni  Ni1  1  0.43405997  0.43405997  0.41870747  1
  Ni  Ni2  1  0.78127117  0.78127117  0.09884261  1
  Ni  Ni3  1  0.21872883  0.21872883  0.59884261  1
  Ni  Ni4  1  0.54343593  0.80485459  0.73408815  1
  Ni  Ni5  1  0.80485459  0.54343593  0.73408815  1
  Ni  Ni6  1  0.45656407  0.19514541  0.23408815  1
  Ni  Ni7  1  0.19514541  0.45656407  0.23408815  1
  Ni  Ni8  1  0.14622573  0.88113159  0.75558407  1
  Ni  Ni9  1  0.88113159  0.14622573  0.75558407  1
  Ni  Ni10  1  0.85377427  0.11886841  0.25558407  1
  Ni  Ni11  1  0.11886841  0.85377427  0.25558407  1
  Ni  Ni12  1  0.65740063  0.27039424  0.56780608  1
  Ni  Ni13  1  0.27039424  0.65740063  0.56780608  1
  Ni  Ni14  1  0.34259937  0.72960576  0.06780608  1
  Ni  Ni15  1  0.72960576  0.34259937  0.06780608  1
  Ni  Ni16  1  0.63098415  0.99618964  0.93751399  1
  Ni  Ni17  1  0.99618964  0.63098415  0.93751399  1
  Ni  Ni18  1  0.36901585  0.00381036  0.43751399  1
  Ni  Ni19  1  0.00381036  0.36901585  0.43751399  1
  Ni  Ni20  1  0.47367759  0.21200499  0.77613532  1
  Ni  Ni21  1  0.21200499  0.47367759  0.77613532  1
  Ni  Ni22  1  0.52632241  0.78799501  0.27613532  1
  Ni  Ni23  1  0.78799501  0.52632241  0.27613532  1
  B  B0  1  0.83712624  0.83712624  0.83775186  1
  B  B1  1  0.16287376  0.16287376  0.33775186  1
  B  B2  1  0.48813713  0.48813713  0.65527694  1
  B  B3  1  0.51186287  0.51186287  0.15527694  1
  B  B4  1  0.32641577  0.75764379  0.88505719  1
  B  B5  1  0.75764379  0.32641577  0.88505719  1
  B  B6  1  0.67358423  0.24235621  0.38505719  1
  B  B7  1  0.24235621  0.67358423  0.38505719  1
  B  B8  1  0.40080961  0.98724296  0.62261000  1
  B  B9  1  0.98724296  0.40080961  0.62261000  1
  B  B10  1  0.59919039  0.01275704  0.12261000  1
  B  B11  1  0.01275704  0.59919039  0.12261000  1
loop_
_geom_bond_atom_site_label_1
_geom_bond_atom_site_label_2
_geom_bond_distance
_geom_bond_site_symmetry_2
Dy0 Ni22 2.977105 1_555
Dy0 Ni23 2.977105 1_555
Dy0 Ni1 3.026268 1_555
Dy0 Ni3 3.034216 1_665
Dy0 Ni10 3.103017 1_565
Dy0 Ni11 3.103017 1_655
Dy0 Ni4 3.110781 1_555
Dy0 Ni5 3.110781 1_555
Dy0 Ni13 3.156111 1_655
Dy0 Ni12 3.156111 1_565
Dy0 Ni19 3.166496 1_665
Dy0 Ni18 3.166496 1_665
Dy0 Ni18 3.249383 1_565
Dy0 Ni19 3.249383 1_655
Dy0 Ni12 3.352207 1_555
Dy0 Ni13 3.352207 1_555
Dy0 Ni8 3.375409 1_655
Dy0 Ni9 3.375409 1_565
Dy1 Ni21 2.977105 1_555
Dy1 Ni20 2.977105 1_555
Dy1 Ni0 3.026268 1_555
Dy1 Ni2 3.034216 1_446
Dy1 Ni8 3.103017 1_545
Dy1 Ni9 3.103017 1_455
Dy1 Ni6 3.110781 1_556
Dy1 Ni7 3.110781 1_556
Dy1 Ni14 3.156111 1_546
Dy1 Ni15 3.156111 1_456
Dy1 Ni17 3.166496 1_445
Dy1 Ni16 3.166496 1_445
Dy1 Ni16 3.249383 1_545
Dy1 Ni17 3.249383 1_455
Dy1 Ni15 3.352207 1_556
Dy1 Ni14 3.352207 1_556
Dy1 Ni11 3.375409 1_546
Dy1 Ni10 3.375409 1_456
B0 Ni9 2.008837 1_565
B0 Ni8 2.008837 1_655
B0 Ni16 2.049267 1_555
B0 Ni17 2.049267 1_555
B0 Ni4 2.054655 1_555
B0 Ni5 2.054655 1_555
B0 Ni0 2.166393 1_555
B0 Dy1 2.953903 1_665
B1 Ni11 2.008837 1_545
B1 Ni10 2.008837 1_455
B1 Ni19 2.049267 1_555
B1 Ni18 2.049267 1_555
B1 Ni7 2.054655 1_555
B1 Ni6 2.054655 1_555
B1 Ni1 2.166393 1_555
B1 Dy0 2.953903 1_445
B2 Ni4 2.027396 1_555
B2 Ni5 2.027396 1_555
B2 Ni3 2.059534 1_555
B2 Ni13 2.072444 1_555
B2 Ni12 2.072444 1_555
B2 Ni21 2.096008 1_555
B2 Ni20 2.096008 1_555
B2 Dy0 3.064089 1_555
B3 Ni6 2.027396 1_555
B3 Ni7 2.027396 1_555
B3 Ni2 2.059534 1_555
B3 Ni14 2.072444 1_555
B3 Ni15 2.072444 1_555
B3 Ni22 2.096008 1_555
B3 Ni23 2.096008 1_555
B3 Dy1 3.064089 1_554
B4 Ni14 2.003771 1_556
B4 Ni17 2.008176 1_455
B4 Ni8 2.024987 1_555
B4 Ni21 2.041015 1_555
B4 Ni4 2.069718 1_555
B4 Ni0 2.080808 1_555
B4 Ni16 2.085593 1_555
B4 Dy1 3.083684 1_565
B5 Ni15 2.003771 1_556
B5 Ni16 2.008176 1_545
B5 Ni9 2.024987 1_555
B5 Ni20 2.041015 1_555
B5 Ni5 2.069718 1_555
B5 Ni0 2.080808 1_555
B5 Ni17 2.085593 1_555
B5 Dy1 3.083684 1_655
B6 Ni12 2.003771 1_555
B6 Ni19 2.008176 1_655
B6 Ni10 2.024987 1_555
B6 Ni23 2.041015 1_555
B6 Ni6 2.069718 1_555
B6 Ni1 2.080808 1_555
B6 Ni18 2.085593 1_555
B6 Dy0 3.083684 1_545
B7 Ni13 2.003771 1_555
B7 Ni18 2.008176 1_565
B7 Ni11 2.024987 1_555
B7 Ni22 2.041015 1_555
B7 Ni7 2.069718 1_555
B7 Ni1 2.080808 1_555
B7 Ni19 2.085593 1_555
B7 Dy0 3.083684 1_455
B8 Ni4 1.965684 1_555
B8 Ni3 1.982475 1_565
B8 Ni13 2.016552 1_555
B8 Ni18 2.031628 1_565
B8 Ni12 2.061361 1_565
B8 Ni8 2.080021 1_555
B8 Ni20 2.120582 1_565
B8 Dy0 3.266541 1_555
B9 Ni5 1.965684 1_555
B9 Ni3 1.982475 1_655
B9 Ni12 2.016552 1_555
B9 Ni19 2.031628 1_655
B9 Ni13 2.061361 1_655
B9 Ni9 2.080021 1_555
B9 Ni21 2.120582 1_655
B9 Dy0 3.266541 1_555
B10 Ni6 1.965684 1_555
B10 Ni2 1.982475 1_545
B10 Ni15 2.016552 1_555
B10 Ni16 2.031628 1_544
B10 Ni14 2.061361 1_545
B10 Ni10 2.080021 1_555
B10 Ni22 2.120582 1_545
B10 Dy1 3.266541 1_554
B11 Ni7 1.965684 1_555
B11 Ni2 1.982475 1_455
B11 Ni14 2.016552 1_555
B11 Ni17 2.031628 1_454
B11 Ni15 2.061361 1_455
B11 Ni11 2.080021 1_555
B11 Ni23 2.120582 1_455
B11 Dy1 3.266541 1_554
