# generated using pymatgen
data_Ba3Fe2WO9
_symmetry_space_group_name_H-M   'P 1'
_cell_length_a   5.86010406
_cell_length_b   5.86010406
_cell_length_c   14.38421700
_cell_angle_alpha   90.00000000
_cell_angle_beta   90.00000000
_cell_angle_gamma   120.00000066
_symmetry_Int_Tables_number   1
_chemical_formula_structural   Ba3Fe2WO9
_chemical_formula_sum   'Ba6 Fe4 W2 O18'
_cell_volume   427.78692917
_cell_formula_units_Z   2
loop_
 _symmetry_equiv_pos_site_id
 _symmetry_equiv_pos_as_xyz
  1  'x, y, z'
loop_
 _atom_site_type_symbol
 _atom_site_label
 _atom_site_symmetry_multiplicity
 _atom_site_fract_x
 _atom_site_fract_y
 _atom_site_fract_z
 _atom_site_occupancy
  Ba  Ba0  1  0.00000000  0.00000000  0.74629100  1
  Ba  Ba1  1  0.00000000  0.00000000  0.24629100  1
  Ba  Ba2  1  0.33333300  0.66666700  0.91236900  1
  Ba  Ba3  1  0.66666700  0.33333300  0.10006500  1
  Ba  Ba4  1  0.66666700  0.33333300  0.41236900  1
  Ba  Ba5  1  0.33333300  0.66666700  0.60006500  1
  Fe  Fe0  1  0.00000000  0.00000000  0.00664100  1
  Fe  Fe1  1  0.00000000  0.00000000  0.50664100  1
  Fe  Fe2  1  0.33333300  0.66666700  0.14380300  1
  Fe  Fe3  1  0.66666700  0.33333300  0.64380300  1
  W  W0  1  0.66666700  0.33333300  0.84153600  1
  W  W1  1  0.33333300  0.66666700  0.34153600  1
  O  O0  1  0.51537600  0.48462400  0.75481500  1
  O  O1  1  0.51537600  0.03075300  0.75481500  1
  O  O2  1  0.96924700  0.48462400  0.75481500  1
  O  O3  1  0.48462400  0.51537600  0.25481500  1
  O  O4  1  0.03075300  0.51537600  0.25481500  1
  O  O5  1  0.48462400  0.96924700  0.25481500  1
  O  O6  1  0.82876500  0.17123500  0.91467900  1
  O  O7  1  0.82876500  0.65753000  0.91467900  1
  O  O8  1  0.34247000  0.17123500  0.91467900  1
  O  O9  1  0.16429600  0.83570400  0.08027000  1
  O  O10  1  0.67140800  0.83570400  0.08027000  1
  O  O11  1  0.16429600  0.32859200  0.08027000  1
  O  O12  1  0.17123500  0.82876500  0.41467900  1
  O  O13  1  0.17123500  0.34247000  0.41467900  1
  O  O14  1  0.65753000  0.82876500  0.41467900  1
  O  O15  1  0.83570400  0.16429600  0.58027000  1
  O  O16  1  0.32859200  0.16429600  0.58027000  1
  O  O17  1  0.83570400  0.67140800  0.58027000  1
loop_
_geom_bond_atom_site_label_1
_geom_bond_atom_site_label_2
_geom_bond_distance
_geom_bond_site_symmetry_2
Ba0 O16 2.912703 1_555
Ba0 O17 2.912703 1_445
Ba0 O15 2.912703 1_455
Ba0 O1 2.936763 1_555
Ba0 O2 2.936763 1_445
Ba0 O0 2.936766 1_555
Ba0 O0 2.936766 1_445
Ba0 O1 2.936769 1_455
Ba0 O2 2.936769 1_455
Ba0 O8 2.981187 1_555
Ba0 O7 2.981187 1_445
Ba0 O6 2.981187 1_455
Ba1 O11 2.912703 1_555
Ba1 O10 2.912703 1_445
Ba1 O9 2.912703 1_545
Ba1 O4 2.936763 1_555
Ba1 O5 2.936763 1_445
Ba1 O3 2.936766 1_555
Ba1 O3 2.936766 1_445
Ba1 O5 2.936769 1_545
Ba1 O4 2.936769 1_545
Ba1 O13 2.981187 1_555
Ba1 O14 2.981187 1_445
Ba1 O12 2.981187 1_545
Ba2 O2 2.924073 1_455
Ba2 O1 2.924073 1_565
Ba2 O0 2.924073 1_555
Ba2 O7 2.930604 1_455
Ba2 O8 2.930604 1_565
Ba2 O6 2.930607 1_565
Ba2 O6 2.930607 1_455
Ba2 O8 2.930610 1_555
Ba2 O7 2.930610 1_555
Ba2 O9 2.962522 1_556
Ba2 O11 2.962525 1_556
Ba2 O10 2.962525 1_556
Ba3 O5 2.892925 1_545
Ba3 O4 2.892925 1_655
Ba3 O3 2.892925 1_555
Ba3 O11 2.943950 1_655
Ba3 O10 2.943950 1_545
Ba3 O9 2.943953 1_655
Ba3 O9 2.943953 1_545
Ba3 O10 2.943956 1_555
Ba3 O11 2.943956 1_555
Ba3 O6 3.133356 1_554
Ba3 O7 3.133359 1_554
Ba3 O8 3.133359 1_554
Ba4 O5 2.924073 1_545
Ba4 O4 2.924073 1_655
Ba4 O3 2.924073 1_555
Ba4 O13 2.930604 1_655
Ba4 O14 2.930604 1_545
Ba4 O12 2.930607 1_655
Ba4 O12 2.930607 1_545
Ba4 O13 2.930610 1_555
Ba4 O14 2.930610 1_555
Ba4 O15 2.962522 1_555
Ba4 O17 2.962525 1_555
Ba4 O16 2.962525 1_555
Ba5 O2 2.892925 1_455
Ba5 O1 2.892925 1_565
Ba5 O0 2.892925 1_555
Ba5 O17 2.943950 1_455
Ba5 O16 2.943950 1_565
Ba5 O15 2.943953 1_565
Ba5 O15 2.943953 1_455
Ba5 O16 2.943956 1_555
Ba5 O17 2.943956 1_555
Ba5 O12 3.133356 1_555
Ba5 O14 3.133359 1_555
Ba5 O13 3.133359 1_555
Fe0 O11 1.975497 1_555
Fe0 O10 1.975497 1_445
Fe0 O9 1.975497 1_545
Fe0 O8 2.184163 1_554
Fe0 O7 2.184163 1_444
Fe0 O6 2.184163 1_454
Fe1 O16 1.975497 1_555
Fe1 O17 1.975497 1_445
Fe1 O15 1.975497 1_455
Fe1 O13 2.184163 1_555
Fe1 O14 2.184163 1_445
Fe1 O12 2.184163 1_545
Fe2 O9 1.943933 1_555
Fe2 O11 1.943938 1_555
Fe2 O10 1.943938 1_555
Fe2 O5 2.215374 1_555
Fe2 O4 2.215374 1_555
Fe2 O3 2.215381 1_555
Fe3 O15 1.943933 1_555
Fe3 O17 1.943938 1_555
Fe3 O16 1.943938 1_555
Fe3 O2 2.215374 1_555
Fe3 O1 2.215374 1_555
Fe3 O0 2.215381 1_555
O0 W0 1.978413 1_555
O1 W0 1.978405 1_555
O2 W0 1.978405 1_555
O3 W1 1.978413 1_555
O4 W1 1.978405 1_555
O5 W1 1.978405 1_555
O6 W0 1.952926 1_555
O7 W0 1.952930 1_555
O8 W0 1.952930 1_555
O12 W1 1.952926 1_555
O13 W1 1.952930 1_555
O14 W1 1.952930 1_555
