# generated using pymatgen
data_Sr3Ca5Mn8O21
_symmetry_space_group_name_H-M   'P 1'
_cell_length_a   7.84816011
_cell_length_b   7.77045772
_cell_length_c   7.74510811
_cell_angle_alpha   89.96844214
_cell_angle_beta   87.87332002
_cell_angle_gamma   89.64619637
_symmetry_Int_Tables_number   1
_chemical_formula_structural   Sr3Ca5Mn8O21
_chemical_formula_sum   'Sr3 Ca5 Mn8 O21'
_cell_volume   471.99174449
_cell_formula_units_Z   1
loop_
 _symmetry_equiv_pos_site_id
 _symmetry_equiv_pos_as_xyz
  1  'x, y, z'
loop_
 _atom_site_type_symbol
 _atom_site_label
 _atom_site_symmetry_multiplicity
 _atom_site_fract_x
 _atom_site_fract_y
 _atom_site_fract_z
 _atom_site_occupancy
  Sr  Sr0  1  0.25152000  0.24724900  0.24755200  1
  Sr  Sr1  1  0.25713100  0.26465400  0.74267500  1
  Sr  Sr2  1  0.76393200  0.25713400  0.26497300  1
  Ca  Ca0  1  0.23806100  0.73639200  0.23760700  1
  Ca  Ca1  1  0.26152900  0.74142800  0.69241400  1
  Ca  Ca2  1  0.75230900  0.24941000  0.74817900  1
  Ca  Ca3  1  0.74340700  0.73917300  0.25985800  1
  Ca  Ca4  1  0.74706800  0.74078900  0.73707500  1
  Mn  Mn0  1  0.01458700  0.99183500  0.97881000  1
  Mn  Mn1  1  0.99722900  0.99634600  0.51854300  1
  Mn  Mn2  1  0.99554100  0.50798700  0.00771900  1
  Mn  Mn3  1  0.00227100  0.50361900  0.49993600  1
  Mn  Mn4  1  0.48982900  0.99324400  0.99718400  1
  Mn  Mn5  1  0.50876100  0.99594900  0.48710200  1
  Mn  Mn6  1  0.50379800  0.50801500  0.98626300  1
  Mn  Mn7  1  0.50559900  0.50301000  0.50564300  1
  O  O0  1  0.90588700  0.98513400  0.76969100  1
  O  O1  1  0.01164300  0.47992300  0.25431800  1
  O  O2  1  0.99974900  0.53203900  0.75579000  1
  O  O3  1  0.52975100  0.03881300  0.23702700  1
  O  O4  1  0.51122400  0.95581700  0.74508400  1
  O  O5  1  0.49879200  0.54854200  0.74729100  1
  O  O6  1  0.23622800  0.98374900  0.05863100  1
  O  O7  1  0.24811900  0.01558300  0.51412900  1
  O  O8  1  0.25952900  0.51196000  0.01991500  1
  O  O9  1  0.25996800  0.48313300  0.49241300  1
  O  O10  1  0.76231800  0.97101500  0.45366700  1
  O  O11  1  0.74070800  0.48918000  0.03114700  1
  O  O12  1  0.74917400  0.52825700  0.48734200  1
  O  O13  1  0.98985500  0.23670100  0.00036300  1
  O  O14  1  0.97958500  0.24930000  0.51929900  1
  O  O15  1  0.96623000  0.76618500  0.05480100  1
  O  O16  1  0.03472500  0.75223600  0.47844700  1
  O  O17  1  0.50392600  0.25004000  0.96359400  1
  O  O18  1  0.52848300  0.25480000  0.51622300  1
  O  O19  1  0.52601100  0.74802800  0.04713200  1
  O  O20  1  0.47552000  0.74333300  0.44216600  1
loop_
_geom_bond_atom_site_label_1
_geom_bond_atom_site_label_2
_geom_bond_distance
_geom_bond_site_symmetry_2
Ca0 O6 2.369453 1_555
Ca0 O16 2.412082 1_555
Ca0 O8 2.427138 1_555
Ca0 O20 2.491295 1_555
Ca0 O15 2.612897 1_455
Ca0 O19 2.654529 1_555
Ca0 O1 2.678118 1_555
Ca0 O9 2.795312 1_555
Ca0 O7 3.052759 1_565
Ca1 O5 2.432692 1_555
Ca1 O16 2.477633 1_555
Ca1 O20 2.517146 1_555
Ca1 O9 2.536358 1_555
Ca1 O7 2.541807 1_565
Ca1 O4 2.623404 1_555
Ca1 O2 2.659834 1_455
Ca1 O8 3.099353 1_556
Ca2 O0 2.383596 1_545
Ca2 O14 2.467662 1_555
Ca2 O17 2.518352 1_555
Ca2 O18 2.558946 1_555
Ca2 O13 2.751016 1_556
Ca2 O2 2.942627 1_555
Ca2 O12 2.962255 1_555
Ca3 O15 2.328640 1_555
Ca3 O10 2.354470 1_555
Ca3 O12 2.407106 1_555
Ca3 O19 2.416052 1_555
Ca3 O20 2.488741 1_555
Ca3 O11 2.630380 1_555
Ca3 O3 2.870096 1_565
Ca3 O16 2.897255 1_655
Ca3 O1 2.903916 1_655
Ca4 O0 2.296846 1_555
Ca4 O5 2.461484 1_555
Ca4 O4 2.484959 1_555
Ca4 O12 2.543541 1_555
Ca4 O2 2.562445 1_555
Ca4 O10 2.830489 1_555
Ca4 O19 2.910256 1_556
Mn0 O0 1.859284 1_455
Mn0 O6 1.868244 1_556
Mn0 O15 1.885566 1_456
Mn0 O13 1.918143 1_466
Mn1 O10 1.939973 1_555
Mn1 O16 1.941143 1_655
Mn1 O14 1.969583 1_565
Mn1 O7 1.974641 1_665
Mn1 O0 2.049942 1_555
Mn2 O1 1.930931 1_655
Mn2 O2 1.959123 1_554
Mn2 O11 2.007687 1_555
Mn2 O15 2.049409 1_555
Mn2 O8 2.077891 1_655
Mn2 O13 2.109610 1_555
Mn3 O1 1.909984 1_555
Mn3 O16 1.956340 1_555
Mn3 O14 1.990350 1_455
Mn3 O2 1.993360 1_455
Mn3 O12 2.000350 1_455
Mn3 O9 2.026405 1_555
Mn4 O3 1.928614 1_566
Mn4 O19 1.965109 1_556
Mn4 O4 1.975065 1_555
Mn4 O17 2.015354 1_565
Mn4 O6 2.030938 1_556
Mn5 O3 1.966159 1_565
Mn5 O10 2.005385 1_555
Mn5 O20 2.013987 1_555
Mn5 O4 2.022900 1_555
Mn5 O18 2.031614 1_565
Mn5 O7 2.053244 1_565
Mn6 O5 1.879099 1_555
Mn6 O11 1.908886 1_556
Mn6 O8 1.925149 1_556
Mn6 O19 1.934423 1_556
Mn6 O17 2.012345 1_555
Mn7 O5 1.903669 1_555
Mn7 O12 1.922848 1_555
Mn7 O18 1.937915 1_555
Mn7 O9 1.941375 1_555
Mn7 O20 1.945982 1_555
O1 Sr0 2.601241 1_555
O1 Sr2 2.610115 1_455
O2 Sr1 2.888017 1_655
O3 Sr2 2.524100 1_555
O3 Sr0 2.709476 1_555
O4 Sr1 3.111223 1_565
O5 Sr1 2.919128 1_555
O6 Sr0 2.523308 1_565
O7 Sr1 2.626560 1_555
O7 Sr0 2.737977 1_555
O8 Sr0 2.707895 1_555
O8 Sr1 2.883037 1_554
O9 Sr1 2.575517 1_555
O9 Sr0 2.641078 1_555
O10 Sr2 2.659767 1_565
O11 Sr2 2.565345 1_555
O12 Sr2 2.721068 1_555
O13 Sr2 2.663904 1_555
O13 Sr1 2.850430 1_654
O13 Sr0 2.860651 1_655
O14 Sr2 2.644666 1_555
O14 Sr1 2.834638 1_655
O14 Sr0 2.941269 1_655
O17 Sr1 2.633462 1_555
O17 Sr0 2.904913 1_556
O17 Sr2 3.157618 1_556
O18 Sr2 2.633458 1_555
O18 Sr1 2.708909 1_555
O18 Sr0 3.065239 1_555
