# generated using pymatgen
data_Sr2GdMnCrO7
_symmetry_space_group_name_H-M   'P 1'
_cell_length_a   3.85840100
_cell_length_b   3.85840100
_cell_length_c   10.48183291
_cell_angle_alpha   79.39414033
_cell_angle_beta   79.39414033
_cell_angle_gamma   90.00000000
_symmetry_Int_Tables_number   1
_chemical_formula_structural   Sr2GdMnCrO7
_chemical_formula_sum   'Sr2 Gd1 Mn1 Cr1 O7'
_cell_volume   150.66698867
_cell_formula_units_Z   1
loop_
 _symmetry_equiv_pos_site_id
 _symmetry_equiv_pos_as_xyz
  1  'x, y, z'
loop_
 _atom_site_type_symbol
 _atom_site_label
 _atom_site_symmetry_multiplicity
 _atom_site_fract_x
 _atom_site_fract_y
 _atom_site_fract_z
 _atom_site_occupancy
  Sr  Sr0  1  0.31669600  0.31669600  0.36660800  1
  Sr  Sr1  1  0.68339400  0.68339400  0.63321100  1
  Gd  Gd0  1  0.49518300  0.49518300  0.00963500  1
  Mn  Mn0  1  0.09629900  0.09629900  0.80740300  1
  Cr  Cr0  1  0.90282000  0.90282000  0.19436000  1
  O  O0  1  0.19068300  0.19068300  0.61863400  1
  O  O1  1  0.80396900  0.80396900  0.39206100  1
  O  O2  1  0.58998400  0.08998400  0.82003200  1
  O  O3  1  0.08998400  0.58998400  0.82003200  1
  O  O4  1  0.41366800  0.91366800  0.17266400  1
  O  O5  1  0.91366800  0.41366800  0.17266400  1
  O  O6  1  0.00365100  0.00365100  0.99269700  1
loop_
_geom_bond_atom_site_label_1
_geom_bond_atom_site_label_2
_geom_bond_distance
_geom_bond_site_symmetry_2
Gd0 O5 2.538525 1_555
Gd0 O4 2.538525 1_555
Gd0 O5 2.538528 1_455
Gd0 O4 2.538528 1_545
Gd0 O3 2.721015 1_654
Gd0 O2 2.721015 1_564
Gd0 O2 2.721017 1_554
Gd0 O3 2.721017 1_554
Gd0 O6 2.733676 1_664
Gd0 O6 2.733681 1_564
Gd0 O6 2.733681 1_654
Gd0 O6 2.733687 1_554
Mn0 O6 1.875274 1_555
Mn0 O0 1.910443 1_555
Mn0 O2 1.933428 1_555
Mn0 O3 1.933428 1_555
Mn0 O3 1.933432 1_545
Mn0 O2 1.933432 1_455
Cr0 O5 1.941656 1_565
Cr0 O4 1.941656 1_655
Cr0 O5 1.941656 1_555
Cr0 O4 1.941656 1_555
Cr0 O1 2.000839 1_555
Cr0 O6 2.040937 1_664
O0 Sr0 2.550637 1_555
O0 Sr1 2.732284 1_555
O0 Sr1 2.732287 1_455
O0 Sr1 2.732287 1_545
O0 Sr1 2.732290 1_445
O1 Sr1 2.440567 1_555
O1 Sr0 2.740433 1_555
O1 Sr0 2.740435 1_565
O1 Sr0 2.740435 1_655
O1 Sr0 2.740438 1_665
O2 Sr1 2.701233 1_555
O2 Sr1 2.701236 1_545
O3 Sr1 2.701233 1_555
O3 Sr1 2.701236 1_455
O4 Sr0 2.752174 1_555
O4 Sr0 2.752174 1_565
O5 Sr0 2.752174 1_555
O5 Sr0 2.752174 1_655
