# generated using pymatgen
data_NaMg6Zn
_symmetry_space_group_name_H-M   'P 1'
_cell_length_a   5.16607100
_cell_length_b   6.39030200
_cell_length_c   10.95394000
_cell_angle_alpha   90.00000000
_cell_angle_beta   90.00000000
_cell_angle_gamma   90.00000000
_symmetry_Int_Tables_number   1
_chemical_formula_structural   NaMg6Zn
_chemical_formula_sum   'Na2 Mg12 Zn2'
_cell_volume   361.61972484
_cell_formula_units_Z   2
loop_
 _symmetry_equiv_pos_site_id
 _symmetry_equiv_pos_as_xyz
  1  'x, y, z'
loop_
 _atom_site_type_symbol
 _atom_site_label
 _atom_site_symmetry_multiplicity
 _atom_site_fract_x
 _atom_site_fract_y
 _atom_site_fract_z
 _atom_site_occupancy
  Na  Na0  1  0.50000000  0.50000000  0.16927300  1
  Na  Na1  1  0.50000000  0.00000000  0.66927300  1
  Mg  Mg0  1  0.00000000  0.24712100  0.08267200  1
  Mg  Mg1  1  0.00000000  0.75287900  0.08267200  1
  Mg  Mg2  1  0.00000000  0.50000000  0.83328600  1
  Mg  Mg3  1  0.50000000  0.24531700  0.91572900  1
  Mg  Mg4  1  0.50000000  0.75468300  0.91572900  1
  Mg  Mg5  1  0.50000000  0.50000000  0.66560200  1
  Mg  Mg6  1  0.00000000  0.74712100  0.58267200  1
  Mg  Mg7  1  0.00000000  0.25287900  0.58267200  1
  Mg  Mg8  1  0.00000000  0.00000000  0.33328600  1
  Mg  Mg9  1  0.50000000  0.74531700  0.41572900  1
  Mg  Mg10  1  0.50000000  0.25468300  0.41572900  1
  Mg  Mg11  1  0.50000000  0.00000000  0.16560200  1
  Zn  Zn0  1  0.00000000  0.50000000  0.33503800  1
  Zn  Zn1  1  0.00000000  0.00000000  0.83503800  1
loop_
_geom_bond_atom_site_label_1
_geom_bond_atom_site_label_2
_geom_bond_distance
_geom_bond_site_symmetry_2
Na0 Zn0 3.157393 1_655
Na0 Zn0 3.157393 1_555
Na1 Zn1 3.157393 1_555
Na1 Zn1 3.157393 1_655
Mg0 Zn1 3.138762 1_554
Mg0 Mg1 3.158356 1_545
Mg0 Mg11 3.160868 1_455
Mg0 Mg11 3.160868 1_555
Mg0 Mg3 3.164852 1_454
Mg0 Mg3 3.164852 1_554
Mg0 Mg8 3.167015 1_555
Mg0 Mg2 3.173937 1_554
Mg0 Na0 3.191132 1_455
Mg0 Na0 3.191132 1_555
Mg0 Zn0 3.202076 1_555
Mg0 Mg1 3.231946 1_555
Mg1 Zn1 3.138762 1_564
Mg1 Mg11 3.160868 1_465
Mg1 Mg11 3.160868 1_565
Mg1 Mg4 3.164852 1_554
Mg1 Mg4 3.164852 1_454
Mg1 Mg8 3.167015 1_565
Mg1 Mg2 3.173937 1_554
Mg1 Na0 3.191132 1_455
Mg1 Na0 3.191132 1_555
Mg1 Zn0 3.202076 1_555
Mg2 Mg6 3.167015 1_555
Mg2 Mg7 3.167015 1_555
Mg2 Mg5 3.169528 1_455
Mg2 Mg5 3.169528 1_555
Mg2 Mg4 3.183768 1_555
Mg2 Mg4 3.183768 1_455
Mg2 Mg3 3.183768 1_555
Mg2 Mg3 3.183768 1_455
Mg2 Zn1 3.195209 1_565
Mg2 Zn1 3.195209 1_555
Mg3 Na1 3.121812 1_555
Mg3 Mg4 3.135299 1_545
Mg3 Zn1 3.148150 1_555
Mg3 Zn1 3.148150 1_655
Mg3 Mg5 3.186798 1_555
Mg3 Na0 3.219035 1_556
Mg3 Mg4 3.255003 1_555
Mg4 Na1 3.121812 1_565
Mg4 Zn1 3.148150 1_565
Mg4 Zn1 3.148150 1_665
Mg4 Mg5 3.186798 1_555
Mg4 Na0 3.219035 1_556
Mg5 Mg9 3.154237 1_555
Mg5 Mg6 3.160868 1_655
Mg5 Mg6 3.160868 1_555
Mg5 Mg7 3.160868 1_655
Mg5 Mg7 3.160868 1_555
Mg5 Na1 3.195404 1_555
Mg5 Na1 3.195404 1_565
Mg6 Zn0 3.138762 1_555
Mg6 Mg7 3.158356 1_555
Mg6 Mg9 3.164852 1_555
Mg6 Mg9 3.164852 1_455
Mg6 Mg8 3.173937 1_565
Mg6 Na1 3.191132 1_465
Mg6 Na1 3.191132 1_565
Mg6 Zn1 3.202076 1_565
Mg6 Mg7 3.231946 1_565
Mg7 Zn0 3.138762 1_555
Mg7 Mg8 3.173937 1_555
Mg7 Na1 3.191132 1_555
Mg7 Na1 3.191132 1_455
Mg7 Zn1 3.202076 1_555
Mg8 Mg9 3.183768 1_445
Mg8 Mg9 3.183768 1_545
Mg8 Zn0 3.195209 1_555
Mg8 Zn0 3.195209 1_545
Mg9 Na0 3.121812 1_555
Mg9 Zn0 3.148150 1_655
Mg9 Zn0 3.148150 1_555
Mg9 Na1 3.219035 1_565
Mg10 Na0 3.121812 1_555
Mg10 Mg9 3.135299 1_555
Mg10 Zn0 3.148150 1_655
Mg10 Zn0 3.148150 1_555
Mg10 Mg5 3.154237 1_555
Mg10 Mg7 3.164852 1_555
Mg10 Mg7 3.164852 1_655
Mg10 Mg8 3.183768 1_655
Mg10 Mg8 3.183768 1_555
Mg10 Mg11 3.186798 1_555
Mg10 Na1 3.219035 1_555
Mg10 Mg9 3.255003 1_545
Mg11 Mg3 3.154237 1_554
Mg11 Mg4 3.154237 1_544
Mg11 Mg8 3.169528 1_555
Mg11 Mg8 3.169528 1_655
Mg11 Mg9 3.186798 1_545
Mg11 Na0 3.195404 1_555
Mg11 Na0 3.195404 1_545
