# generated using pymatgen
data_Nd(Al10Cr)2
_symmetry_space_group_name_H-M   'P 1'
_cell_length_a   10.43866951
_cell_length_b   10.43866951
_cell_length_c   10.43866951
_cell_angle_alpha   60.00000000
_cell_angle_beta   60.00000000
_cell_angle_gamma   60.00000000
_symmetry_Int_Tables_number   1
_chemical_formula_structural   Nd(Al10Cr)2
_chemical_formula_sum   'Nd2 Al40 Cr4'
_cell_volume   804.30440378
_cell_formula_units_Z   2
loop_
 _symmetry_equiv_pos_site_id
 _symmetry_equiv_pos_as_xyz
  1  'x, y, z'
loop_
 _atom_site_type_symbol
 _atom_site_label
 _atom_site_symmetry_multiplicity
 _atom_site_fract_x
 _atom_site_fract_y
 _atom_site_fract_z
 _atom_site_occupancy
  Nd  Nd0  1  0.50000000  0.50000000  0.50000000  1
  Nd  Nd1  1  0.75000000  0.75000000  0.75000000  1
  Al  Al0  1  0.86241000  0.86241000  0.13759000  1
  Al  Al1  1  0.13759000  0.13759000  0.86241000  1
  Al  Al2  1  0.86241000  0.13759000  0.86241000  1
  Al  Al3  1  0.13759000  0.86241000  0.13759000  1
  Al  Al4  1  0.13759000  0.86241000  0.86241000  1
  Al  Al5  1  0.86241000  0.13759000  0.13759000  1
  Al  Al6  1  0.38759000  0.38759000  0.11241000  1
  Al  Al7  1  0.11241000  0.11241000  0.38759000  1
  Al  Al8  1  0.38759000  0.11241000  0.38759000  1
  Al  Al9  1  0.11241000  0.38759000  0.11241000  1
  Al  Al10  1  0.11241000  0.38759000  0.38759000  1
  Al  Al11  1  0.38759000  0.11241000  0.11241000  1
  Al  Al12  1  0.57012300  0.30107000  0.30107000  1
  Al  Al13  1  0.30107000  0.57012300  0.82773700  1
  Al  Al14  1  0.30107000  0.82773700  0.57012300  1
  Al  Al15  1  0.82773700  0.30107000  0.30107000  1
  Al  Al16  1  0.30107000  0.30107000  0.57012300  1
  Al  Al17  1  0.57012300  0.82773700  0.30107000  1
  Al  Al18  1  0.82773700  0.57012300  0.30107000  1
  Al  Al19  1  0.30107000  0.30107000  0.82773700  1
  Al  Al20  1  0.30107000  0.57012300  0.30107000  1
  Al  Al21  1  0.82773700  0.30107000  0.57012300  1
  Al  Al22  1  0.57012300  0.30107000  0.82773700  1
  Al  Al23  1  0.30107000  0.82773700  0.30107000  1
  Al  Al24  1  0.67987700  0.94893000  0.94893000  1
  Al  Al25  1  0.94893000  0.67987700  0.42226300  1
  Al  Al26  1  0.94893000  0.42226300  0.67987700  1
  Al  Al27  1  0.42226300  0.94893000  0.94893000  1
  Al  Al28  1  0.94893000  0.94893000  0.67987700  1
  Al  Al29  1  0.67987700  0.42226300  0.94893000  1
  Al  Al30  1  0.42226300  0.67987700  0.94893000  1
  Al  Al31  1  0.94893000  0.94893000  0.42226300  1
  Al  Al32  1  0.94893000  0.67987700  0.94893000  1
  Al  Al33  1  0.42226300  0.94893000  0.67987700  1
  Al  Al34  1  0.67987700  0.94893000  0.42226300  1
  Al  Al35  1  0.94893000  0.42226300  0.94893000  1
  Al  Al36  1  0.62500000  0.12500000  0.12500000  1
  Al  Al37  1  0.12500000  0.62500000  0.12500000  1
  Al  Al38  1  0.12500000  0.12500000  0.62500000  1
  Al  Al39  1  0.12500000  0.12500000  0.12500000  1
  Cr  Cr0  1  0.12500000  0.62500000  0.62500000  1
  Cr  Cr1  1  0.62500000  0.12500000  0.62500000  1
  Cr  Cr2  1  0.62500000  0.62500000  0.12500000  1
  Cr  Cr3  1  0.62500000  0.62500000  0.62500000  1
loop_
_geom_bond_atom_site_label_1
_geom_bond_atom_site_label_2
_geom_bond_distance
_geom_bond_site_symmetry_2
Al0 Al36 2.616277 1_565
Al0 Al37 2.616277 1_655
Al0 Al18 2.762654 1_555
Al0 Al17 2.762654 1_555
Al0 Al5 2.872513 1_565
Al0 Al4 2.872513 1_654
Al0 Al3 2.872513 1_655
Al0 Al2 2.872513 1_564
Al0 Al25 2.928743 1_555
Al0 Al34 2.928743 1_555
Al0 Al24 2.928743 1_554
Al0 Al32 2.928743 1_554
Al1 Al39 2.616277 1_556
Al1 Al38 2.616277 1_555
Al1 Al19 2.762654 1_555
Al1 Al16 2.762654 1_555
Al1 Al4 2.872513 1_545
Al1 Al2 2.872513 1_455
Al1 Al3 2.872513 1_546
Al1 Al5 2.872513 1_456
Al1 Al35 2.928743 1_455
Al1 Al27 2.928743 1_545
Al1 Al33 2.928743 1_545
Al1 Al26 2.928743 1_455
Al2 Al36 2.616277 1_556
Al2 Al38 2.616277 1_655
Al2 Al22 2.762654 1_555
Al2 Al21 2.762654 1_555
Al2 Al4 2.872513 1_645
Al2 Al5 2.872513 1_556
Al2 Al26 2.928743 1_555
Al2 Al29 2.928743 1_555
Al2 Al28 2.928743 1_545
Al2 Al24 2.928743 1_545
Al3 Al39 2.616277 1_565
Al3 Al37 2.616277 1_555
Al3 Al4 2.872513 1_554
Al3 Al5 2.872513 1_465
Al3 Al31 2.928743 1_455
Al3 Al30 2.928743 1_554
Al6 Al8 2.872513 1_555
Al6 Al9 2.872513 1_555
Al7 Al8 2.872513 1_555
Al7 Al9 2.872513 1_555
Al10 Al38 2.616277 1_555
Al10 Al37 2.616277 1_555
Al10 Al25 2.762654 1_455
Al10 Al26 2.762654 1_455
Al10 Al7 2.872513 1_555
Al10 Al8 2.872513 1_555
Al10 Al6 2.872513 1_555
Al10 Al9 2.872513 1_555
Al10 Al20 2.928743 1_555
Al10 Al16 2.928743 1_555
Al10 Al21 2.928743 1_455
Al10 Al18 2.928743 1_455
Al11 Al36 2.616277 1_555
Al11 Al39 2.616277 1_555
Al11 Al24 2.762654 1_544
Al11 Al27 2.762654 1_544
Al11 Al7 2.872513 1_555
Al11 Al8 2.872513 1_555
Al11 Al6 2.872513 1_555
Al11 Al9 2.872513 1_555
Al11 Al22 2.928743 1_554
Al11 Al17 2.928743 1_545
Al11 Al23 2.928743 1_545
Al11 Al19 2.928743 1_554
Al12 Al15 2.689147 1_555
Al12 Al5 2.762654 1_555
Al12 Al16 2.808555 1_555
Al12 Al20 2.808555 1_555
Al12 Al36 2.890758 1_555
Al12 Al8 2.928743 1_555
Al12 Al6 2.928743 1_555
Al12 Al34 3.002129 1_545
Al12 Al29 3.002129 1_554
Al12 Cr1 3.131993 1_555
Al12 Cr2 3.131993 1_555
Al12 Nd0 3.229879 1_555
Al13 Al14 2.689147 1_555
Al13 Al4 2.762654 1_555
Al13 Al19 2.808555 1_555
Al13 Al22 2.808555 1_555
Al13 Al37 2.890758 1_556
Al13 Al9 2.928743 1_556
Al13 Al6 2.928743 1_556
Al13 Al32 3.002129 1_455
Al13 Al30 3.002129 1_555
Al13 Cr0 3.131993 1_555
Al13 Cr3 3.131993 1_555
Al13 Nd0 3.229879 1_555
Al14 Al4 2.762654 1_555
Al14 Al23 2.808555 1_555
Al14 Al17 2.808555 1_555
Al14 Al38 2.890758 1_565
Al14 Al7 2.928743 1_565
Al14 Al8 2.928743 1_565
Al14 Al28 3.002129 1_455
Al14 Al33 3.002129 1_555
Al14 Cr0 3.131993 1_555
Al14 Cr3 3.131993 1_555
Al14 Nd0 3.229879 1_555
Al15 Al5 2.762654 1_555
Al15 Al21 2.808555 1_555
Al15 Al18 2.808555 1_555
Al15 Al39 2.890758 1_655
Al15 Al7 2.928743 1_655
Al15 Al9 2.928743 1_655
Al15 Al35 3.002129 1_554
Al15 Al31 3.002129 1_545
Al15 Cr1 3.131993 1_555
Al15 Cr2 3.131993 1_555
Al15 Nd0 3.229879 1_555
Al16 Al19 2.689147 1_555
Al16 Al20 2.808555 1_555
Al16 Al38 2.890758 1_555
Al16 Al8 2.928743 1_555
Al16 Al26 3.002129 1_455
Al16 Al33 3.002129 1_545
Al16 Cr1 3.131993 1_555
Al16 Cr0 3.131993 1_555
Al16 Nd0 3.229879 1_555
Al17 Al18 2.689147 1_555
Al17 Al23 2.808555 1_555
Al17 Al36 2.890758 1_565
Al17 Al8 2.928743 1_565
Al17 Al24 3.002129 1_554
Al17 Al34 3.002129 1_555
Al17 Cr2 3.131993 1_555
Al17 Cr3 3.131993 1_555
Al17 Nd0 3.229879 1_555
Al18 Al21 2.808555 1_555
Al18 Al37 2.890758 1_655
Al18 Al9 2.928743 1_655
Al18 Al32 3.002129 1_554
Al18 Al25 3.002129 1_555
Al18 Cr2 3.131993 1_555
Al18 Cr3 3.131993 1_555
Al18 Nd0 3.229879 1_555
Al19 Al22 2.808555 1_555
Al19 Al39 2.890758 1_556
Al19 Al9 2.928743 1_556
Al19 Al35 3.002129 1_455
Al19 Al27 3.002129 1_545
Al19 Cr0 3.131993 1_555
Al19 Cr1 3.131993 1_555
Al19 Nd0 3.229879 1_555
Al20 Al23 2.689147 1_555
Al20 Al3 2.762654 1_555
Al20 Al37 2.890758 1_555
Al20 Al6 2.928743 1_555
Al20 Al25 3.002129 1_455
Al20 Al30 3.002129 1_554
Al20 Cr2 3.131993 1_555
Al20 Cr0 3.131993 1_555
Al20 Nd0 3.229879 1_555
Al21 Al22 2.689147 1_555
Al21 Al38 2.890758 1_655
Al21 Al7 2.928743 1_655
Al21 Al28 3.002129 1_545
Al21 Al26 3.002129 1_555
Al21 Cr1 3.131993 1_555
Al21 Cr3 3.131993 1_555
Al21 Nd0 3.229879 1_555
Al22 Al36 2.890758 1_556
Al22 Al6 2.928743 1_556
Al22 Al24 3.002129 1_545
Al22 Al29 3.002129 1_555
Al22 Cr1 3.131993 1_555
Al22 Cr3 3.131993 1_555
Al22 Nd0 3.229879 1_555
Al23 Al3 2.762654 1_555
Al23 Al39 2.890758 1_565
Al23 Al7 2.928743 1_565
Al23 Al31 3.002129 1_455
Al23 Al27 3.002129 1_554
Al23 Cr0 3.131993 1_555
Al23 Cr2 3.131993 1_555
Al23 Nd0 3.229879 1_555
Al24 Al27 2.689147 1_555
Al24 Al28 2.808555 1_555
Al24 Al32 2.808555 1_555
Al24 Al36 2.890758 1_566
Al24 Cr1 3.131993 1_565
Al24 Cr2 3.131993 1_556
Al24 Nd1 3.229879 1_555
Al25 Al26 2.689147 1_555
Al25 Al31 2.808555 1_555
Al25 Al34 2.808555 1_555
Al25 Al37 2.890758 1_655
Al25 Al3 2.928743 1_655
Al25 Cr0 3.131993 1_655
Al25 Cr3 3.131993 1_555
Al25 Nd1 3.229879 1_555
Al26 Al35 2.808555 1_555
Al26 Al29 2.808555 1_555
Al26 Al38 2.890758 1_655
Al26 Cr0 3.131993 1_655
Al26 Cr3 3.131993 1_555
Al26 Nd1 3.229879 1_555
Al27 Al30 2.808555 1_555
Al27 Al33 2.808555 1_555
Al27 Al39 2.890758 1_566
Al27 Al3 2.928743 1_556
Al27 Cr1 3.131993 1_565
Al27 Cr2 3.131993 1_556
Al27 Nd1 3.229879 1_555
Al28 Al31 2.689147 1_555
Al28 Al7 2.762654 1_665
Al28 Al32 2.808555 1_555
Al28 Al38 2.890758 1_665
Al28 Al4 2.928743 1_655
Al28 Cr1 3.131993 1_565
Al28 Cr0 3.131993 1_655
Al28 Nd1 3.229879 1_555
Al29 Al30 2.689147 1_555
Al29 Al6 2.762654 1_556
Al29 Al35 2.808555 1_555
Al29 Al36 2.890758 1_556
Al29 Al5 2.928743 1_556
Al29 Cr2 3.131993 1_556
Al29 Cr3 3.131993 1_555
Al29 Nd1 3.229879 1_555
Al30 Al6 2.762654 1_556
Al30 Al33 2.808555 1_555
Al30 Al37 2.890758 1_556
Al30 Al4 2.928743 1_555
Al30 Cr2 3.131993 1_556
Al30 Cr3 3.131993 1_555
Al30 Nd1 3.229879 1_555
Al31 Al7 2.762654 1_665
Al31 Al34 2.808555 1_555
Al31 Al39 2.890758 1_665
Al31 Al5 2.928743 1_565
Al31 Cr0 3.131993 1_655
Al31 Cr1 3.131993 1_565
Al31 Nd1 3.229879 1_555
Al32 Al35 2.689147 1_555
Al32 Al9 2.762654 1_656
Al32 Al37 2.890758 1_656
Al32 Al4 2.928743 1_655
Al32 Cr2 3.131993 1_556
Al32 Cr0 3.131993 1_655
Al32 Nd1 3.229879 1_555
Al33 Al34 2.689147 1_555
Al33 Al8 2.762654 1_565
Al33 Al38 2.890758 1_565
Al33 Al4 2.928743 1_555
Al33 Cr1 3.131993 1_565
Al33 Cr3 3.131993 1_555
Al33 Nd1 3.229879 1_555
Al34 Al8 2.762654 1_565
Al34 Al36 2.890758 1_565
Al34 Al5 2.928743 1_565
Al34 Cr1 3.131993 1_565
Al34 Cr3 3.131993 1_555
Al34 Nd1 3.229879 1_555
Al35 Al9 2.762654 1_656
Al35 Al39 2.890758 1_656
Al35 Al5 2.928743 1_556
Al35 Cr0 3.131993 1_655
Al35 Cr2 3.131993 1_556
Al35 Nd1 3.229879 1_555
Al36 Al6 2.616277 1_555
Al36 Al8 2.616277 1_555
Al36 Al5 2.616277 1_555
Al37 Al9 2.616277 1_555
Al37 Al4 2.616277 1_554
Al37 Al6 2.616277 1_555
Al38 Al7 2.616277 1_555
Al38 Al4 2.616277 1_545
Al38 Al8 2.616277 1_555
Al39 Al5 2.616277 1_455
Al39 Al7 2.616277 1_555
Al39 Al9 2.616277 1_555
Cr0 Nd1 3.196177 1_455
Cr0 Nd0 3.196177 1_555
Cr1 Nd0 3.196177 1_555
Cr1 Nd1 3.196177 1_545
Cr2 Nd1 3.196177 1_554
Cr2 Nd0 3.196177 1_555
Cr3 Nd1 3.196177 1_555
Cr3 Nd0 3.196177 1_555
