# generated using pymatgen
data_Na4Ge5O12
_symmetry_space_group_name_H-M   'P 1'
_cell_length_a   5.26575696
_cell_length_b   5.26575696
_cell_length_c   9.41694200
_cell_angle_alpha   90.00000000
_cell_angle_beta   90.00000000
_cell_angle_gamma   119.99998696
_symmetry_Int_Tables_number   1
_chemical_formula_structural   Na4Ge5O12
_chemical_formula_sum   'Na4 Ge5 O12'
_cell_volume   226.13209465
_cell_formula_units_Z   1
loop_
 _symmetry_equiv_pos_site_id
 _symmetry_equiv_pos_as_xyz
  1  'x, y, z'
loop_
 _atom_site_type_symbol
 _atom_site_label
 _atom_site_symmetry_multiplicity
 _atom_site_fract_x
 _atom_site_fract_y
 _atom_site_fract_z
 _atom_site_occupancy
  Na  Na0  1  0.00000000  0.00000000  0.31051900  1
  Na  Na1  1  0.33333300  0.66666700  0.09637200  1
  Na  Na2  1  0.66666700  0.33333300  0.90362800  1
  Na  Na3  1  0.00000000  0.00000000  0.68948100  1
  Ge  Ge0  1  0.66666700  0.33333300  0.21187500  1
  Ge  Ge1  1  0.66666700  0.33333300  0.52342600  1
  Ge  Ge2  1  0.33333300  0.66666700  0.47657400  1
  Ge  Ge3  1  0.00000000  0.00000000  0.00000000  1
  Ge  Ge4  1  0.33333300  0.66666700  0.78812500  1
  O  O0  1  0.91878600  0.67238100  0.12402200  1
  O  O1  1  0.32761900  0.24640600  0.12402200  1
  O  O2  1  0.75359400  0.08121400  0.12402200  1
  O  O3  1  0.60307400  0.57872400  0.38535800  1
  O  O4  1  0.42127600  0.02435000  0.38535800  1
  O  O5  1  0.97565000  0.39692600  0.38535800  1
  O  O6  1  0.67238100  0.75359400  0.87597800  1
  O  O7  1  0.24640600  0.91878600  0.87597800  1
  O  O8  1  0.08121400  0.32761900  0.87597800  1
  O  O9  1  0.39692600  0.42127600  0.61464200  1
  O  O10  1  0.57872400  0.97565000  0.61464200  1
  O  O11  1  0.02435000  0.60307400  0.61464200  1
loop_
_geom_bond_atom_site_label_1
_geom_bond_atom_site_label_2
_geom_bond_distance
_geom_bond_site_symmetry_2
Na0 O5 2.269295 1_455
Na0 O4 2.269295 1_555
Na0 O3 2.269296 1_445
Na0 O0 2.346412 1_445
Na0 O1 2.346413 1_555
Na0 O2 2.346415 1_455
Na1 O0 2.213470 1_455
Na1 O1 2.213470 1_555
Na1 O2 2.213471 1_565
Na1 O7 2.624341 1_554
Na1 O8 2.624346 1_554
Na1 O6 2.624348 1_554
Na2 O8 2.213470 1_655
Na2 O6 2.213470 1_555
Na2 O7 2.213471 1_545
Na2 O2 2.624341 1_556
Na2 O0 2.624346 1_556
Na2 O1 2.624348 1_556
Na3 O11 2.269295 1_545
Na3 O10 2.269295 1_445
Na3 O9 2.269296 1_555
Na3 O8 2.346412 1_555
Na3 O6 2.346413 1_445
Na3 O7 2.346415 1_545
Ge0 O2 1.806700 1_555
Ge0 O0 1.806706 1_555
Ge0 O1 1.806709 1_555
Ge0 O5 2.209849 1_555
Ge0 O4 2.209850 1_555
Ge0 O3 2.209852 1_555
Ge1 O10 1.904611 1_545
Ge1 O11 1.904613 1_655
Ge1 O9 1.904616 1_555
Ge1 O5 1.976104 1_555
Ge1 O4 1.976106 1_555
Ge1 O3 1.976108 1_555
Ge2 O4 1.904611 1_565
Ge2 O5 1.904613 1_455
Ge2 O3 1.904616 1_555
Ge2 O11 1.976104 1_555
Ge2 O10 1.976106 1_555
Ge2 O9 1.976108 1_555
Ge3 O8 1.945587 1_554
Ge3 O0 1.945587 1_445
Ge3 O1 1.945589 1_555
Ge3 O6 1.945589 1_444
Ge3 O7 1.945591 1_544
Ge3 O2 1.945591 1_455
Ge4 O7 1.806700 1_555
Ge4 O8 1.806706 1_555
Ge4 O6 1.806709 1_555
Ge4 O11 2.209849 1_555
Ge4 O10 2.209850 1_555
Ge4 O9 2.209852 1_555
