# generated using pymatgen
data_HoAgS2
_symmetry_space_group_name_H-M   'P 1'
_cell_length_a   7.59791194
_cell_length_b   7.59791194
_cell_length_c   12.40063488
_cell_angle_alpha   90.00000000
_cell_angle_beta   90.00000000
_cell_angle_gamma   90.00000000
_symmetry_Int_Tables_number   1
_chemical_formula_structural   HoAgS2
_chemical_formula_sum   'Ho8 Ag8 S16'
_cell_volume   715.86714704
_cell_formula_units_Z   8
loop_
 _symmetry_equiv_pos_site_id
 _symmetry_equiv_pos_as_xyz
  1  'x, y, z'
loop_
 _atom_site_type_symbol
 _atom_site_label
 _atom_site_symmetry_multiplicity
 _atom_site_fract_x
 _atom_site_fract_y
 _atom_site_fract_z
 _atom_site_occupancy
  Ho  Ho0  1  0.00085715  0.74993721  0.62224637  1
  Ho  Ho1  1  0.49914285  0.24993721  0.62775363  1
  Ho  Ho2  1  0.75006279  0.50085715  0.87224637  1
  Ho  Ho3  1  0.74993721  0.00085715  0.37775363  1
  Ho  Ho4  1  0.25006279  0.99914285  0.87775363  1
  Ho  Ho5  1  0.24993721  0.49914285  0.37224637  1
  Ho  Ho6  1  0.99914285  0.25006279  0.12224637  1
  Ho  Ho7  1  0.50085715  0.75006279  0.12775363  1
  Ag  Ag0  1  0.48433164  0.24030933  0.18609506  1
  Ag  Ag1  1  0.25969067  0.98433164  0.43609506  1
  Ag  Ag2  1  0.74030933  0.01566836  0.93609506  1
  Ag  Ag3  1  0.75969067  0.51566836  0.31390494  1
  Ag  Ag4  1  0.98433164  0.25969067  0.56390494  1
  Ag  Ag5  1  0.51566836  0.75969067  0.68609506  1
  Ag  Ag6  1  0.01566836  0.74030933  0.06390494  1
  Ag  Ag7  1  0.24030933  0.48433164  0.81390494  1
  S  S0  1  0.22683633  0.47668602  0.59223214  1
  S  S1  1  0.27316367  0.97668602  0.65776786  1
  S  S2  1  0.76921698  0.01900526  0.59847753  1
  S  S3  1  0.73078302  0.51900526  0.65152247  1
  S  S4  1  0.97668602  0.27316367  0.34223214  1
  S  S5  1  0.52331398  0.77316367  0.90776786  1
  S  S6  1  0.51900526  0.73078302  0.34847753  1
  S  S7  1  0.98099474  0.23078302  0.90152247  1
  S  S8  1  0.47668602  0.22683633  0.40776786  1
  S  S9  1  0.02331398  0.72683633  0.84223214  1
  S  S10  1  0.48099474  0.26921698  0.84847753  1
  S  S11  1  0.72683633  0.02331398  0.15776786  1
  S  S12  1  0.23078302  0.98099474  0.09847753  1
  S  S13  1  0.26921698  0.48099474  0.15152247  1
  S  S14  1  0.77316367  0.52331398  0.09223214  1
  S  S15  1  0.01900526  0.76921698  0.40152247  1
loop_
_geom_bond_atom_site_label_1
_geom_bond_atom_site_label_2
_geom_bond_distance
_geom_bond_site_symmetry_2
Ho0 S2 2.713632 1_465
Ho0 S0 2.719718 1_555
Ho0 S3 2.724174 1_455
Ho0 S1 2.728137 1_555
Ho0 S9 2.738924 1_555
Ho0 S15 2.744500 1_555
Ho1 S3 2.713632 1_555
Ho1 S1 2.719718 1_545
Ho1 S2 2.724174 1_555
Ho1 S0 2.728137 1_555
Ho1 S8 2.738924 1_555
Ho1 S10 2.744500 1_555
Ho2 S10 2.713632 1_555
Ho2 S9 2.719718 1_655
Ho2 S7 2.724174 1_555
Ho2 S5 2.728137 1_555
Ho2 S14 2.738924 1_556
Ho2 S3 2.744500 1_555
Ho3 S15 2.713632 1_645
Ho3 S8 2.719718 1_555
Ho3 S6 2.724174 1_545
Ho3 S4 2.728137 1_555
Ho3 S11 2.738924 1_555
Ho3 S2 2.744500 1_555
Ho4 S7 2.713632 1_465
Ho4 S5 2.719718 1_555
Ho4 S10 2.724174 1_565
Ho4 S9 2.728137 1_555
Ho4 S1 2.738924 1_555
Ho4 S12 2.744500 1_556
Ho5 S6 2.713632 1_555
Ho5 S4 2.719718 1_455
Ho5 S15 2.724174 1_555
Ho5 S8 2.728137 1_555
Ho5 S0 2.738924 1_555
Ho5 S13 2.744500 1_555
Ho6 S12 2.713632 1_645
Ho6 S14 2.719718 1_555
Ho6 S13 2.724174 1_655
Ho6 S11 2.728137 1_555
Ho6 S4 2.738924 1_555
Ho6 S7 2.744500 1_554
Ho7 S13 2.713632 1_555
Ho7 S11 2.719718 1_565
Ho7 S12 2.724174 1_555
Ho7 S14 2.728137 1_555
Ho7 S5 2.738924 1_554
Ho7 S6 2.744500 1_555
Ag0 S13 2.489841 1_555
Ag0 S11 2.497310 1_555
Ag0 S8 2.751402 1_555
Ag0 S12 2.962020 1_545
Ag1 S15 2.489841 1_555
Ag1 S8 2.497310 1_565
Ag1 S1 2.751402 1_555
Ag1 S6 2.962020 1_555
Ag2 S7 2.489841 1_555
Ag2 S5 2.497310 1_545
Ag2 S11 2.751402 1_556
Ag2 S10 2.962020 1_555
Ag3 S6 2.489841 1_555
Ag3 S4 2.497310 1_555
Ag3 S14 2.751402 1_555
Ag3 S15 2.962020 1_655
Ag4 S2 2.489841 1_555
Ag4 S0 2.497310 1_655
Ag4 S4 2.751402 1_555
Ag4 S3 2.962020 1_555
Ag5 S3 2.489841 1_555
Ag5 S1 2.497310 1_555
Ag5 S5 2.751402 1_555
Ag5 S2 2.962020 1_565
Ag6 S12 2.489841 1_555
Ag6 S14 2.497310 1_455
Ag6 S9 2.751402 1_554
Ag6 S13 2.962020 1_555
Ag7 S10 2.489841 1_555
Ag7 S9 2.497310 1_555
Ag7 S0 2.751402 1_555
Ag7 S7 2.962020 1_455
