# generated using pymatgen
data_KSr2Si4O10F
_symmetry_space_group_name_H-M   'P 1'
_cell_length_a   8.60988100
_cell_length_b   11.62004600
_cell_length_c   13.02413490
_cell_angle_alpha   56.55858490
_cell_angle_beta   90.00000000
_cell_angle_gamma   90.00000000
_symmetry_Int_Tables_number   1
_chemical_formula_structural   KSr2Si4O10F
_chemical_formula_sum   'K4 Sr8 Si16 O40 F4'
_cell_volume   1087.31171321
_cell_formula_units_Z   4
loop_
 _symmetry_equiv_pos_site_id
 _symmetry_equiv_pos_as_xyz
  1  'x, y, z'
loop_
 _atom_site_type_symbol
 _atom_site_label
 _atom_site_symmetry_multiplicity
 _atom_site_fract_x
 _atom_site_fract_y
 _atom_site_fract_z
 _atom_site_occupancy
  K  K0  1  0.21668900  0.89231200  0.07411000  1
  K  K1  1  0.78331100  0.10768800  0.92589000  1
  K  K2  1  0.71668900  0.10768800  0.42589000  1
  K  K3  1  0.28331100  0.89231200  0.57411000  1
  Sr  Sr0  1  0.78321900  0.41743800  0.04041300  1
  Sr  Sr1  1  0.21678100  0.58256200  0.95958700  1
  Sr  Sr2  1  0.28321900  0.58256200  0.45958700  1
  Sr  Sr3  1  0.71678100  0.41743800  0.54041300  1
  Sr  Sr4  1  0.98064000  0.43325700  0.27892600  1
  Sr  Sr5  1  0.01936000  0.56674300  0.72107400  1
  Sr  Sr6  1  0.48064000  0.56674300  0.22107400  1
  Sr  Sr7  1  0.51936000  0.43325700  0.77892600  1
  Si  Si0  1  0.53382200  0.87559500  0.24302100  1
  Si  Si1  1  0.46617800  0.12440500  0.75697900  1
  Si  Si2  1  0.03382200  0.12440500  0.25697900  1
  Si  Si3  1  0.96617800  0.87559500  0.74302100  1
  Si  Si4  1  0.97432000  0.80872500  0.41458300  1
  Si  Si5  1  0.02568000  0.19127500  0.58541700  1
  Si  Si6  1  0.47432000  0.19127500  0.08541700  1
  Si  Si7  1  0.52568000  0.80872500  0.91458300  1
  Si  Si8  1  0.84069600  0.75340500  0.23093300  1
  Si  Si9  1  0.15930400  0.24659500  0.76906700  1
  Si  Si10  1  0.34069600  0.24659500  0.26906700  1
  Si  Si11  1  0.65930400  0.75340500  0.73093300  1
  Si  Si12  1  0.87578200  0.74506000  0.00402300  1
  Si  Si13  1  0.12421800  0.25494000  0.99597700  1
  Si  Si14  1  0.37578200  0.25494000  0.49597700  1
  Si  Si15  1  0.62421800  0.74506000  0.50402300  1
  O  O0  1  0.95826200  0.97371800  0.36030900  1
  O  O1  1  0.04173800  0.02628200  0.63969100  1
  O  O2  1  0.45826200  0.02628200  0.13969100  1
  O  O3  1  0.54173800  0.97371800  0.86030900  1
  O  O4  1  0.37898400  0.73363300  0.00269000  1
  O  O5  1  0.62101600  0.26636700  0.99731000  1
  O  O6  1  0.87898400  0.26636700  0.49731000  1
  O  O7  1  0.12101600  0.73363300  0.50269000  1
  O  O8  1  0.81534100  0.73437800  0.49819000  1
  O  O9  1  0.18465900  0.26562200  0.50181000  1
  O  O10  1  0.31534100  0.26562200  0.00181000  1
  O  O11  1  0.68465900  0.73437800  0.99819000  1
  O  O12  1  0.91665300  0.79745700  0.09633200  1
  O  O13  1  0.08334700  0.20254300  0.90366800  1
  O  O14  1  0.41665300  0.20254300  0.40366800  1
  O  O15  1  0.58334700  0.79745700  0.59633200  1
  O  O16  1  0.78186800  0.59651700  0.31056500  1
  O  O17  1  0.21813200  0.40348300  0.68943500  1
  O  O18  1  0.28186800  0.40348300  0.18943500  1
  O  O19  1  0.71813200  0.59651700  0.81056500  1
  O  O20  1  0.95655200  0.60058600  0.04699700  1
  O  O21  1  0.04344800  0.39941400  0.95300300  1
  O  O22  1  0.45655200  0.39941400  0.45300300  1
  O  O23  1  0.54344800  0.60058600  0.54699700  1
  O  O24  1  0.70609500  0.87308800  0.18860900  1
  O  O25  1  0.29390500  0.12691200  0.81139100  1
  O  O26  1  0.20609500  0.12691200  0.31139100  1
  O  O27  1  0.79390500  0.87308800  0.68860900  1
  O  O28  1  0.97784300  0.78757000  0.29914600  1
  O  O29  1  0.02215700  0.21243000  0.70085400  1
  O  O30  1  0.47784300  0.21243000  0.20085400  1
  O  O31  1  0.52215700  0.78757000  0.79914600  1
  O  O32  1  0.56206400  0.87475900  0.36948100  1
  O  O33  1  0.43793600  0.12524100  0.63051900  1
  O  O34  1  0.06206400  0.12524100  0.13051900  1
  O  O35  1  0.93793600  0.87475900  0.86948100  1
  O  O36  1  0.42481800  0.75333600  0.26393400  1
  O  O37  1  0.57518200  0.24666400  0.73606600  1
  O  O38  1  0.92481800  0.24666400  0.23606600  1
  O  O39  1  0.07518200  0.75333600  0.76393400  1
  F  F0  1  0.68322600  0.42709600  0.21146500  1
  F  F1  1  0.31677400  0.57290400  0.78853500  1
  F  F2  1  0.18322600  0.57290400  0.28853500  1
  F  F3  1  0.81677400  0.42709600  0.71146500  1
loop_
_geom_bond_atom_site_label_1
_geom_bond_atom_site_label_2
_geom_bond_distance
_geom_bond_site_symmetry_2
K0 O36 2.744243 1_555
K0 O12 2.760500 1_455
K0 O4 2.847450 1_555
K0 O2 2.990742 1_565
K0 O25 3.049692 1_564
K0 O28 3.220058 1_455
K0 O13 3.228181 1_564
K1 O37 2.744243 1_555
K1 O13 2.760500 1_655
K1 O5 2.847450 1_555
K1 O3 2.990742 1_545
K1 O24 3.049692 1_546
K1 O29 3.220058 1_655
K1 O12 3.228181 1_546
K2 O38 2.744243 1_555
K2 O14 2.760500 1_555
K2 O6 2.847450 1_555
K2 O0 2.990742 1_545
K2 O27 3.049692 1_545
K2 O30 3.220058 1_555
K2 O15 3.228181 1_545
K3 O39 2.744243 1_555
K3 O15 2.760500 1_555
K3 O7 2.847450 1_555
K3 O1 2.990742 1_565
K3 O26 3.049692 1_565
K3 O31 3.220058 1_555
K3 O14 3.228181 1_565
O0 Si4 1.643425 1_555
O0 Si2 1.644118 1_665
O1 Si5 1.643425 1_555
O1 Si3 1.644118 1_445
O2 Si6 1.643425 1_555
O2 Si0 1.644118 1_545
O3 Si7 1.643425 1_555
O3 Si1 1.644118 1_565
O4 Si7 1.603073 1_554
O4 Sr1 2.536388 1_554
O4 Sr6 2.556819 1_555
O5 Si6 1.603073 1_556
O5 Sr0 2.536388 1_556
O5 Sr7 2.556819 1_555
O6 Si5 1.603073 1_655
O6 Sr3 2.536388 1_555
O6 Sr4 2.556819 1_555
O7 Si4 1.603073 1_455
O7 Sr2 2.536388 1_555
O7 Sr5 2.556819 1_555
O8 Si15 1.655112 1_555
O8 Si4 1.663978 1_555
O8 Sr5 3.012367 1_655
O9 Si14 1.655112 1_555
O9 Si5 1.663978 1_555
O9 Sr4 3.012367 1_455
O10 Si13 1.655112 1_554
O10 Si6 1.663978 1_555
O10 Sr7 3.012367 1_554
O11 Si12 1.655112 1_556
O11 Si7 1.663978 1_555
O11 Sr6 3.012367 1_556
O12 Si12 1.657319 1_555
O12 Si8 1.665501 1_555
O13 Si13 1.657319 1_555
O13 Si9 1.665501 1_555
O14 Si14 1.657319 1_555
O14 Si10 1.665501 1_555
O15 Si15 1.657319 1_555
O15 Si11 1.665501 1_555
O16 Si8 1.603674 1_555
O16 Sr3 2.596131 1_555
O16 Sr4 2.749409 1_555
O16 Sr6 2.940931 1_555
O17 Si9 1.603674 1_555
O17 Sr2 2.596131 1_555
O17 Sr5 2.749409 1_555
O17 Sr7 2.940931 1_555
O18 Si10 1.603674 1_555
O18 Sr1 2.596131 1_554
O18 Sr6 2.749409 1_555
O18 Sr4 2.940931 1_455
O19 Si11 1.603674 1_555
O19 Sr0 2.596131 1_556
O19 Sr7 2.749409 1_555
O19 Sr5 2.940931 1_655
O20 Si12 1.606115 1_555
O20 Sr4 2.544541 1_555
O20 Sr1 2.573466 1_654
O20 Sr0 2.639103 1_555
O21 Si13 1.606115 1_555
O21 Sr5 2.544541 1_555
O21 Sr0 2.573466 1_456
O21 Sr1 2.639103 1_555
O22 Si14 1.606115 1_555
O22 Sr6 2.544541 1_555
O22 Sr3 2.573466 1_555
O22 Sr2 2.639103 1_555
O23 Si15 1.606115 1_555
O23 Sr7 2.544541 1_555
O23 Sr2 2.573466 1_555
O23 Sr3 2.639103 1_555
O24 Si0 1.651013 1_555
O24 Si8 1.654109 1_555
O25 Si1 1.651013 1_555
O25 Si9 1.654109 1_555
O26 Si2 1.651013 1_555
O26 Si10 1.654109 1_555
O27 Si3 1.651013 1_555
O27 Si11 1.654109 1_555
O28 Si4 1.652001 1_555
O28 Si8 1.652259 1_555
O29 Si5 1.652001 1_555
O29 Si9 1.652259 1_555
O30 Si6 1.652001 1_555
O30 Si10 1.652259 1_555
O31 Si7 1.652001 1_555
O31 Si11 1.652259 1_555
O32 Si15 1.648505 1_555
O32 Si0 1.659609 1_555
O33 Si14 1.648505 1_555
O33 Si1 1.659609 1_555
O34 Si13 1.648505 1_554
O34 Si2 1.659609 1_555
O35 Si12 1.648505 1_556
O35 Si3 1.659609 1_555
O36 Si0 1.595860 1_555
O36 Sr2 2.518780 1_555
O36 Sr6 2.564715 1_555
O37 Si1 1.595860 1_555
O37 Sr3 2.518780 1_555
O37 Sr7 2.564715 1_555
O38 Si2 1.595860 1_655
O38 Sr0 2.518780 1_555
O38 Sr4 2.564715 1_555
O39 Si3 1.595860 1_455
O39 Sr1 2.518780 1_555
O39 Sr5 2.564715 1_555
F0 Sr6 2.432085 1_555
F0 Sr0 2.447951 1_555
F0 Sr4 2.720957 1_555
F0 K2 3.198981 1_555
F1 Sr7 2.432085 1_555
F1 Sr1 2.447951 1_555
F1 Sr5 2.720957 1_555
F1 K3 3.198981 1_555
F2 Sr4 2.432085 1_455
F2 Sr2 2.447951 1_555
F2 Sr6 2.720957 1_555
F2 K0 3.198981 1_555
F3 Sr5 2.432085 1_655
F3 Sr3 2.447951 1_555
F3 Sr7 2.720957 1_555
F3 K1 3.198981 1_555
