# generated using pymatgen
data_NbCrS5
_symmetry_space_group_name_H-M   'P 1'
_cell_length_a   3.40542300
_cell_length_b   8.89696300
_cell_length_c   9.97407221
_cell_angle_alpha   64.75249233
_cell_angle_beta   90.00000000
_cell_angle_gamma   90.00000000
_symmetry_Int_Tables_number   1
_chemical_formula_structural   NbCrS5
_chemical_formula_sum   'Nb2 Cr2 S10'
_cell_volume   273.32622345
_cell_formula_units_Z   2
loop_
 _symmetry_equiv_pos_site_id
 _symmetry_equiv_pos_as_xyz
  1  'x, y, z'
loop_
 _atom_site_type_symbol
 _atom_site_label
 _atom_site_symmetry_multiplicity
 _atom_site_fract_x
 _atom_site_fract_y
 _atom_site_fract_z
 _atom_site_occupancy
  Nb  Nb0  1  0.25000000  0.22425400  0.86224100  1
  Nb  Nb1  1  0.75000000  0.77574600  0.13775900  1
  Cr  Cr0  1  0.25000000  0.92868800  0.40002100  1
  Cr  Cr1  1  0.75000000  0.07131200  0.59997900  1
  S  S0  1  0.25000000  0.86474700  0.64805500  1
  S  S1  1  0.75000000  0.13525300  0.35194500  1
  S  S2  1  0.25000000  0.98723900  0.13465700  1
  S  S3  1  0.75000000  0.01276100  0.86534300  1
  S  S4  1  0.25000000  0.26301600  0.59012200  1
  S  S5  1  0.75000000  0.73698400  0.40987800  1
  S  S6  1  0.25000000  0.53946500  0.24481700  1
  S  S7  1  0.75000000  0.46053500  0.75518300  1
  S  S8  1  0.25000000  0.65896600  0.01745000  1
  S  S9  1  0.75000000  0.34103400  0.98255000  1
loop_
_geom_bond_atom_site_label_1
_geom_bond_atom_site_label_2
_geom_bond_distance
_geom_bond_site_symmetry_2
Nb0 S3 2.528065 1_455
Nb0 S3 2.528065 1_555
Nb0 S9 2.546018 1_455
Nb0 S9 2.546018 1_555
Nb0 S7 2.558071 1_455
Nb0 S7 2.558071 1_555
Nb0 S4 2.585921 1_555
Nb0 S2 2.634696 1_546
Nb1 S2 2.528065 1_655
Nb1 S2 2.528065 1_555
Nb1 S8 2.546018 1_555
Nb1 S8 2.546018 1_655
Nb1 S6 2.558071 1_655
Nb1 S6 2.558071 1_555
Nb1 S5 2.585921 1_555
Nb1 S3 2.634696 1_564
Cr0 S0 2.289823 1_555
Cr0 S5 2.382197 1_455
Cr0 S5 2.382197 1_555
Cr0 S1 2.398940 1_465
Cr0 S1 2.398940 1_565
Cr0 S2 2.469926 1_555
Cr1 S1 2.289823 1_555
Cr1 S4 2.382197 1_555
Cr1 S4 2.382197 1_655
Cr1 S0 2.398940 1_645
Cr1 S0 2.398940 1_545
Cr1 S3 2.469926 1_555
S6 S8 2.053384 1_555
S7 S9 2.053384 1_555
