# generated using pymatgen
data_Na2MgPO4F
_symmetry_space_group_name_H-M   'P 1'
_cell_length_a   5.17608343
_cell_length_b   11.61711945
_cell_length_c   13.65225850
_cell_angle_alpha   90.00000000
_cell_angle_beta   90.00000000
_cell_angle_gamma   90.00000000
_symmetry_Int_Tables_number   1
_chemical_formula_structural   Na2MgPO4F
_chemical_formula_sum   'Na16 Mg8 P8 O32 F8'
_cell_volume   820.92640630
_cell_formula_units_Z   8
loop_
 _symmetry_equiv_pos_site_id
 _symmetry_equiv_pos_as_xyz
  1  'x, y, z'
loop_
 _atom_site_type_symbol
 _atom_site_label
 _atom_site_symmetry_multiplicity
 _atom_site_fract_x
 _atom_site_fract_y
 _atom_site_fract_z
 _atom_site_occupancy
  Na  Na0  1  0.76046502  0.32864556  0.74505352  1
  Na  Na1  1  0.26046502  0.17135444  0.24505352  1
  Na  Na2  1  0.73953498  0.32864556  0.24505352  1
  Na  Na3  1  0.23953498  0.67135444  0.25494648  1
  Na  Na4  1  0.23953498  0.17135444  0.74505352  1
  Na  Na5  1  0.73953498  0.82864556  0.75494648  1
  Na  Na6  1  0.26046502  0.67135444  0.75494648  1
  Na  Na7  1  0.76046502  0.82864556  0.25494648  1
  Na  Na8  1  0.74495184  0.08235092  0.62281833  1
  Na  Na9  1  0.24495184  0.91764908  0.87718167  1
  Na  Na10  1  0.75504816  0.58235092  0.87718167  1
  Na  Na11  1  0.74495184  0.58235092  0.37718167  1
  Na  Na12  1  0.25504816  0.91764908  0.37718167  1
  Na  Na13  1  0.75504816  0.08235092  0.12281833  1
  Na  Na14  1  0.24495184  0.41764908  0.12281833  1
  Na  Na15  1  0.25504816  0.41764908  0.62281833  1
  Mg  Mg0  1  0.72076685  0.32402845  0.51311186  1
  Mg  Mg1  1  0.22076685  0.67597155  0.98688814  1
  Mg  Mg2  1  0.77923315  0.82402845  0.98688814  1
  Mg  Mg3  1  0.27923315  0.17597155  0.51311186  1
  Mg  Mg4  1  0.27923315  0.67597155  0.48688814  1
  Mg  Mg5  1  0.77923315  0.32402845  0.01311186  1
  Mg  Mg6  1  0.22076685  0.17597155  0.01311186  1
  Mg  Mg7  1  0.72076685  0.82402845  0.48688814  1
  P  P0  1  0.79327481  0.08757612  0.38174955  1
  P  P1  1  0.29327481  0.91242388  0.11825045  1
  P  P2  1  0.70672519  0.58757612  0.11825045  1
  P  P3  1  0.20672519  0.41242388  0.38174955  1
  P  P4  1  0.20672519  0.91242388  0.61825045  1
  P  P5  1  0.70672519  0.08757612  0.88174955  1
  P  P6  1  0.29327481  0.41242388  0.88174955  1
  P  P7  1  0.79327481  0.58757612  0.61825045  1
  O  O0  1  0.23523903  0.54190664  0.89068603  1
  O  O1  1  0.21035775  0.36810786  0.78168865  1
  O  O2  1  0.78964225  0.13189214  0.78168865  1
  O  O3  1  0.28964225  0.86810786  0.71831135  1
  O  O4  1  0.28964225  0.36810786  0.28168865  1
  O  O5  1  0.78964225  0.63189214  0.21831135  1
  O  O6  1  0.21035775  0.86810786  0.21831135  1
  O  O7  1  0.71035775  0.13189214  0.28168865  1
  O  O8  1  0.08715183  0.60716394  0.60241118  1
  O  O9  1  0.58715183  0.39283606  0.89758882  1
  O  O10  1  0.41284817  0.10716394  0.89758882  1
  O  O11  1  0.91284817  0.89283606  0.60241118  1
  O  O12  1  0.91284817  0.39283606  0.39758882  1
  O  O13  1  0.41284817  0.60716394  0.10241118  1
  O  O14  1  0.58715183  0.89283606  0.10241118  1
  O  O15  1  0.08715183  0.10716394  0.39758882  1
  O  O16  1  0.73523903  0.45809336  0.60931397  1
  O  O17  1  0.71035775  0.63189214  0.71831135  1
  O  O18  1  0.76476097  0.95809336  0.89068603  1
  O  O19  1  0.64800137  0.15246007  0.46370818  1
  O  O20  1  0.26476097  0.54190664  0.39068603  1
  O  O21  1  0.76476097  0.45809336  0.10931397  1
  O  O22  1  0.23523903  0.04190664  0.10931397  1
  O  O23  1  0.73523903  0.95809336  0.39068603  1
  O  O24  1  0.64800137  0.65246007  0.53629182  1
  O  O25  1  0.14800137  0.34753993  0.96370818  1
  O  O26  1  0.85199863  0.15246007  0.96370818  1
  O  O27  1  0.35199863  0.84753993  0.53629182  1
  O  O28  1  0.35199863  0.34753993  0.46370818  1
  O  O29  1  0.85199863  0.65246007  0.03629182  1
  O  O30  1  0.14800137  0.84753993  0.03629182  1
  O  O31  1  0.26476097  0.04190664  0.60931397  1
  F  F0  1  0.50000000  0.75000000  0.37652923  1
  F  F1  1  -0.00000000  0.25000000  0.12347077  1
  F  F2  1  0.50000000  0.25000000  0.62347077  1
  F  F3  1  -0.00000000  0.75000000  0.87652923  1
  F  F4  1  -0.00000000  0.75000000  0.41017118  1
  F  F5  1  0.50000000  0.25000000  0.08982882  1
  F  F6  1  -0.00000000  0.25000000  0.58982882  1
  F  F7  1  0.50000000  0.75000000  0.91017118  1
loop_
_geom_bond_atom_site_label_1
_geom_bond_atom_site_label_2
_geom_bond_distance
_geom_bond_site_symmetry_2
Na0 O2 2.344658 1_555
Na0 O9 2.386932 1_555
Na0 O16 2.390118 1_555
Na0 O1 2.425506 1_655
Na0 O1 2.927117 1_555
Na1 O4 2.344658 1_555
Na1 O15 2.386932 1_555
Na1 O22 2.390118 1_555
Na1 O7 2.425506 1_555
Na1 O7 2.927117 1_455
Na2 O7 2.344658 1_555
Na2 O12 2.386932 1_555
Na2 O21 2.390118 1_555
Na2 O4 2.425506 1_555
Na2 O4 2.927117 1_655
Na3 O6 2.344658 1_555
Na3 O13 2.386932 1_555
Na3 O20 2.390118 1_555
Na3 O5 2.425506 1_455
Na3 O5 2.927117 1_555
Na4 O1 2.344658 1_555
Na4 O10 2.386932 1_555
Na4 O31 2.390118 1_555
Na4 O2 2.425506 1_455
Na4 O2 2.927117 1_555
Na5 O17 2.344658 1_555
Na5 O11 2.386932 1_555
Na5 O18 2.390118 1_555
Na5 O3 2.425506 1_555
Na5 O3 2.927117 1_655
Na6 O3 2.344658 1_555
Na6 O8 2.386932 1_555
Na6 O0 2.390118 1_555
Na6 O17 2.425506 1_555
Na6 O17 2.927117 1_455
Na7 O5 2.344658 1_555
Na7 O14 2.386932 1_555
Na7 O23 2.390118 1_555
Na7 O6 2.425506 1_655
Na7 O6 2.927117 1_555
Na8 O2 2.255889 1_555
Na8 O19 2.373540 1_555
Na8 O11 2.383270 1_545
Na8 O31 2.536237 1_555
Na8 O31 2.737507 1_655
Na9 O3 2.255889 1_555
Na9 O30 2.373540 1_556
Na9 O10 2.383270 1_565
Na9 O18 2.536237 1_455
Na9 O18 2.737507 1_555
Na10 O17 2.255889 1_555
Na10 O29 2.373540 1_556
Na10 O9 2.383270 1_555
Na10 O0 2.536237 1_655
Na10 O0 2.737507 1_555
Na11 O5 2.255889 1_555
Na11 O24 2.373540 1_555
Na11 O12 2.383270 1_555
Na11 O20 2.536237 1_555
Na11 O20 2.737507 1_655
Na12 O6 2.255889 1_555
Na12 O27 2.373540 1_555
Na12 O15 2.383270 1_565
Na12 O23 2.536237 1_555
Na12 O23 2.737507 1_455
Na13 O7 2.255889 1_555
Na13 O26 2.373540 1_554
Na13 O14 2.383270 1_545
Na13 O22 2.536237 1_655
Na13 O22 2.737507 1_555
Na14 O4 2.255889 1_555
Na14 O25 2.373540 1_554
Na14 O13 2.383270 1_555
Na14 O21 2.536237 1_455
Na14 O21 2.737507 1_555
Na15 O1 2.255889 1_555
Na15 O28 2.373540 1_555
Na15 O8 2.383270 1_555
Na15 O16 2.536237 1_555
Na15 O16 2.737507 1_455
Mg0 O12 2.028509 1_555
Mg0 O16 2.038679 1_555
Mg0 O28 2.042777 1_555
Mg0 O19 2.137601 1_555
Mg1 O13 2.028509 1_556
Mg1 O0 2.038679 1_555
Mg1 O29 2.042777 1_456
Mg1 O30 2.137601 1_556
Mg2 O14 2.028509 1_556
Mg2 O18 2.038679 1_555
Mg2 O30 2.042777 1_656
Mg2 O29 2.137601 1_556
Mg3 O15 2.028509 1_555
Mg3 O31 2.038679 1_555
Mg3 O19 2.042777 1_555
Mg3 O28 2.137601 1_555
Mg4 O8 2.028509 1_555
Mg4 O20 2.038679 1_555
Mg4 O24 2.042777 1_555
Mg4 O27 2.137601 1_555
Mg5 O9 2.028509 1_554
Mg5 O21 2.038679 1_555
Mg5 O25 2.042777 1_654
Mg5 O26 2.137601 1_554
Mg6 O10 2.028509 1_554
Mg6 O22 2.038679 1_555
Mg6 O26 2.042777 1_454
Mg6 O25 2.137601 1_554
Mg7 O11 2.028509 1_555
Mg7 O23 2.038679 1_555
Mg7 O27 2.042777 1_555
Mg7 O24 2.137601 1_555
O0 P6 1.538763 1_555
O1 P6 1.521630 1_555
O2 P5 1.521630 1_555
O3 P4 1.521630 1_555
O4 P3 1.521630 1_555
O5 P2 1.521630 1_555
O6 P1 1.521630 1_555
O7 P0 1.521630 1_555
O8 P7 1.553185 1_455
O9 P6 1.553185 1_555
O10 P5 1.553185 1_555
O11 P4 1.553185 1_655
O12 P3 1.553185 1_655
O13 P2 1.553185 1_555
O14 P1 1.553185 1_555
O15 P0 1.553185 1_455
O16 P7 1.538763 1_555
O17 P7 1.521630 1_555
O18 P5 1.538763 1_565
O19 P0 1.544529 1_555
O20 P3 1.538763 1_555
O21 P2 1.538763 1_555
O22 P1 1.538763 1_545
O23 P0 1.538763 1_565
O24 P7 1.544529 1_555
O25 P6 1.544529 1_555
O26 P5 1.544529 1_555
O27 P4 1.544529 1_555
O28 P3 1.544529 1_555
O29 P2 1.544529 1_555
O30 P1 1.544529 1_555
O31 P4 1.538763 1_545
F0 Mg4 2.077346 1_555
F0 Mg7 2.077346 1_555
F0 Na12 2.323956 1_555
F0 Na11 2.323956 1_555
F0 Na3 2.325412 1_555
F0 Na7 2.325412 1_555
F1 Mg6 2.077346 1_555
F1 Mg5 2.077346 1_455
F1 Na14 2.323956 1_555
F1 Na13 2.323956 1_455
F1 Na1 2.325412 1_555
F1 Na2 2.325412 1_455
F2 Mg3 2.077346 1_555
F2 Mg0 2.077346 1_555
F2 Na15 2.323956 1_555
F2 Na8 2.323956 1_555
F2 Na0 2.325412 1_555
F2 Na4 2.325412 1_555
F3 Mg2 2.077346 1_455
F3 Mg1 2.077346 1_555
F3 Na9 2.323956 1_555
F3 Na10 2.323956 1_455
F3 Na6 2.325412 1_555
F3 Na5 2.325412 1_455
F4 Mg4 1.981300 1_555
F4 Mg7 1.981300 1_455
F4 Na11 2.395576 1_455
F4 Na12 2.395576 1_555
F4 Na3 2.619702 1_555
F4 Na7 2.619702 1_455
F5 Mg6 1.981300 1_555
F5 Mg5 1.981300 1_555
F5 Na13 2.395576 1_555
F5 Na14 2.395576 1_555
F5 Na1 2.619702 1_555
F5 Na2 2.619702 1_555
F6 Mg3 1.981300 1_555
F6 Mg0 1.981300 1_455
F6 Na8 2.395576 1_455
F6 Na15 2.395576 1_555
F6 Na4 2.619702 1_555
F6 Na0 2.619702 1_455
F7 Mg2 1.981300 1_555
F7 Mg1 1.981300 1_555
F7 Na10 2.395576 1_555
F7 Na9 2.395576 1_555
F7 Na5 2.619702 1_555
F7 Na6 2.619702 1_555
