# generated using pymatgen
data_GdDy
_symmetry_space_group_name_H-M   'P 1'
_cell_length_a   7.22032829
_cell_length_b   7.22032829
_cell_length_c   11.78384800
_cell_angle_alpha   90.00000000
_cell_angle_beta   90.00000000
_cell_angle_gamma   120.00001186
_symmetry_Int_Tables_number   1
_chemical_formula_structural   GdDy
_chemical_formula_sum   'Gd8 Dy8'
_cell_volume   532.02446146
_cell_formula_units_Z   8
loop_
 _symmetry_equiv_pos_site_id
 _symmetry_equiv_pos_as_xyz
  1  'x, y, z'
loop_
 _atom_site_type_symbol
 _atom_site_label
 _atom_site_symmetry_multiplicity
 _atom_site_fract_x
 _atom_site_fract_y
 _atom_site_fract_z
 _atom_site_occupancy
  Gd  Gd0_0  1  0.00000000  0.00000000  0.25000000  1
  Gd  Gd0_1  1  0.00000000  0.00000000  0.75000000  1
  Gd  Gd0_2  1  0.00000000  0.50000000  0.25000000  1
  Gd  Gd0_3  1  0.00000000  0.50000000  0.75000000  1
  Gd  Gd0_4  1  0.50000000  0.00000000  0.25000000  1
  Gd  Gd0_5  1  0.50000000  0.00000000  0.75000000  1
  Gd  Gd0_6  1  0.50000000  0.50000000  0.25000000  1
  Gd  Gd0_7  1  0.50000000  0.50000000  0.75000000  1
  Dy  Dy0_0  1  0.16666650  0.33333350  0.00000000  1
  Dy  Dy0_1  1  0.16666650  0.33333350  0.50000000  1
  Dy  Dy0_2  1  0.16666650  0.83333350  0.00000000  1
  Dy  Dy0_3  1  0.16666650  0.83333350  0.50000000  1
  Dy  Dy0_4  1  0.66666650  0.33333350  0.00000000  1
  Dy  Dy0_5  1  0.66666650  0.33333350  0.50000000  1
  Dy  Dy0_6  1  0.66666650  0.83333350  0.00000000  1
  Dy  Dy0_7  1  0.66666650  0.83333350  0.50000000  1
loop_
_geom_bond_atom_site_label_1
_geom_bond_atom_site_label_2
_geom_bond_distance
_geom_bond_site_symmetry_2
Gd0_0 Gd0_6 3.610163 1_445
Gd0_0 Gd0_6 3.610164 1_555
Gd0_0 Gd0_4 3.610164 1_555
Gd0_0 Gd0_2 3.610164 1_555
Gd0_0 Gd0_4 3.610164 1_455
Gd0_0 Gd0_2 3.610164 1_545
Gd0_1 Gd0_7 3.610163 1_445
Gd0_1 Gd0_7 3.610164 1_555
Gd0_1 Gd0_3 3.610164 1_555
Gd0_1 Gd0_5 3.610164 1_455
Gd0_1 Gd0_5 3.610164 1_555
Gd0_1 Gd0_3 3.610164 1_545
Gd0_2 Gd0_4 3.610163 1_565
Gd0_2 Gd0_4 3.610164 1_455
Gd0_2 Gd0_6 3.610164 1_455
Gd0_2 Gd0_6 3.610164 1_555
Gd0_3 Gd0_5 3.610163 1_565
Gd0_3 Gd0_5 3.610164 1_455
Gd0_3 Gd0_7 3.610164 1_455
Gd0_3 Gd0_7 3.610164 1_555
Gd0_4 Gd0_6 3.610164 1_555
Gd0_4 Gd0_6 3.610164 1_545
Gd0_5 Gd0_7 3.610164 1_555
Gd0_5 Gd0_7 3.610164 1_545
Dy0_0 Gd0_3 3.608755 1_554
Dy0_0 Gd0_2 3.608755 1_555
Dy0_0 Gd0_1 3.608757 1_554
Dy0_0 Gd0_7 3.608757 1_554
Dy0_0 Gd0_0 3.608757 1_555
Dy0_0 Gd0_6 3.608757 1_555
Dy0_0 Dy0_6 3.610163 1_445
Dy0_0 Dy0_6 3.610164 1_555
Dy0_0 Dy0_2 3.610164 1_555
Dy0_0 Dy0_4 3.610164 1_455
Dy0_0 Dy0_4 3.610164 1_555
Dy0_0 Dy0_2 3.610164 1_545
Dy0_1 Gd0_2 3.608755 1_555
Dy0_1 Gd0_3 3.608755 1_555
Dy0_1 Gd0_0 3.608757 1_555
Dy0_1 Gd0_6 3.608757 1_555
Dy0_1 Gd0_1 3.608757 1_555
Dy0_1 Gd0_7 3.608757 1_555
Dy0_1 Dy0_7 3.610163 1_445
Dy0_1 Dy0_7 3.610164 1_555
Dy0_1 Dy0_3 3.610164 1_555
Dy0_1 Dy0_5 3.610164 1_455
Dy0_1 Dy0_5 3.610164 1_555
Dy0_1 Dy0_3 3.610164 1_545
Dy0_2 Gd0_1 3.608755 1_564
Dy0_2 Gd0_0 3.608755 1_565
Dy0_2 Gd0_5 3.608757 1_564
Dy0_2 Gd0_3 3.608757 1_554
Dy0_2 Gd0_4 3.608757 1_565
Dy0_2 Gd0_2 3.608757 1_555
Dy0_2 Dy0_4 3.610163 1_565
Dy0_2 Dy0_4 3.610164 1_455
Dy0_2 Dy0_6 3.610164 1_555
Dy0_2 Dy0_6 3.610164 1_455
Dy0_3 Gd0_0 3.608755 1_565
Dy0_3 Gd0_1 3.608755 1_565
Dy0_3 Gd0_4 3.608757 1_565
Dy0_3 Gd0_2 3.608757 1_555
Dy0_3 Gd0_5 3.608757 1_565
Dy0_3 Gd0_3 3.608757 1_555
Dy0_3 Dy0_5 3.610163 1_565
Dy0_3 Dy0_5 3.610164 1_455
Dy0_3 Dy0_7 3.610164 1_555
Dy0_3 Dy0_7 3.610164 1_455
Dy0_4 Gd0_7 3.608755 1_554
Dy0_4 Gd0_6 3.608755 1_555
Dy0_4 Gd0_5 3.608757 1_554
Dy0_4 Gd0_3 3.608757 1_654
Dy0_4 Gd0_4 3.608757 1_555
Dy0_4 Gd0_2 3.608757 1_655
Dy0_4 Dy0_6 3.610164 1_555
Dy0_4 Dy0_6 3.610164 1_545
Dy0_5 Gd0_6 3.608755 1_555
Dy0_5 Gd0_7 3.608755 1_555
Dy0_5 Gd0_4 3.608757 1_555
Dy0_5 Gd0_2 3.608757 1_655
Dy0_5 Gd0_3 3.608757 1_655
Dy0_5 Gd0_5 3.608757 1_555
Dy0_5 Dy0_7 3.610164 1_555
Dy0_5 Dy0_7 3.610164 1_545
Dy0_6 Gd0_5 3.608755 1_564
Dy0_6 Gd0_4 3.608755 1_565
Dy0_6 Gd0_1 3.608757 1_664
Dy0_6 Gd0_7 3.608757 1_554
Dy0_6 Gd0_0 3.608757 1_665
Dy0_6 Gd0_6 3.608757 1_555
Dy0_7 Gd0_4 3.608755 1_565
Dy0_7 Gd0_5 3.608755 1_565
Dy0_7 Gd0_0 3.608757 1_665
Dy0_7 Gd0_6 3.608757 1_555
Dy0_7 Gd0_1 3.608757 1_665
Dy0_7 Gd0_7 3.608757 1_555
