# generated using pymatgen
data_CaMn2(PO5)2
_symmetry_space_group_name_H-M   'P 1'
_cell_length_a   9.95499955
_cell_length_b   8.88156858
_cell_length_c   6.86996562
_cell_angle_alpha   77.22858169
_cell_angle_beta   60.47016008
_cell_angle_gamma   42.30125823
_symmetry_Int_Tables_number   1
_chemical_formula_structural   CaMn2(PO5)2
_chemical_formula_sum   'Ca2 Mn4 P4 O20'
_cell_volume   344.86170154
_cell_formula_units_Z   2
loop_
 _symmetry_equiv_pos_site_id
 _symmetry_equiv_pos_as_xyz
  1  'x, y, z'
loop_
 _atom_site_type_symbol
 _atom_site_label
 _atom_site_symmetry_multiplicity
 _atom_site_fract_x
 _atom_site_fract_y
 _atom_site_fract_z
 _atom_site_occupancy
  Ca  Ca0  1  0.25000000  0.25000000  0.25000000  1
  Ca  Ca1  1  0.00000000  0.00000000  0.00000000  1
  Mn  Mn0  1  0.62500000  0.62500000  0.12500000  1
  Mn  Mn1  1  0.62500000  0.12500000  0.62500000  1
  Mn  Mn2  1  0.62500000  0.62500000  0.62500000  1
  Mn  Mn3  1  0.12500000  0.62500000  0.62500000  1
  P  P0  1  0.79184400  0.79184400  0.20815600  1
  P  P1  1  0.45815600  0.45815600  0.04184400  1
  P  P2  1  0.20815600  0.20815600  0.79184400  1
  P  P3  1  0.04184400  0.04184400  0.45815600  1
  O  O0  1  0.97484600  0.32689600  0.00695300  1
  O  O1  1  0.41699000  0.41699000  0.58301000  1
  O  O2  1  0.89597100  0.07434700  0.38892100  1
  O  O3  1  0.24304700  0.55869600  0.27515400  1
  O  O4  1  0.32689600  0.97484600  0.69130400  1
  O  O5  1  0.35402900  0.17565300  0.86107900  1
  O  O6  1  0.83301000  0.83301000  0.66699000  1
  O  O7  1  0.58301000  0.58301000  0.41699000  1
  O  O8  1  0.66699000  0.66699000  0.83301000  1
  O  O9  1  0.27515400  0.92310400  0.24304700  1
  O  O10  1  0.69130400  0.00695300  0.32689600  1
  O  O11  1  0.55869600  0.24304700  0.92310400  1
  O  O12  1  0.00695300  0.69130400  0.97484600  1
  O  O13  1  0.07434700  0.89597100  0.64076100  1
  O  O14  1  0.60923900  0.86107900  0.17565300  1
  O  O15  1  0.38892100  0.64076100  0.89597100  1
  O  O16  1  0.86107900  0.60923900  0.35402900  1
  O  O17  1  0.64076100  0.38892100  0.07434700  1
  O  O18  1  0.92310400  0.27515400  0.55869600  1
  O  O19  1  0.17565300  0.35402900  0.60923900  1
loop_
_geom_bond_atom_site_label_1
_geom_bond_atom_site_label_2
_geom_bond_distance
_geom_bond_site_symmetry_2
Ca0 O19 2.385017 1_555
Ca0 O14 2.385017 1_545
Ca0 O16 2.385017 1_455
Ca0 O5 2.385017 1_554
Ca0 O9 2.732858 1_545
Ca0 O18 2.732859 1_455
Ca0 O11 2.732865 1_554
Ca0 O3 2.732867 1_555
Ca1 O2 2.385017 1_455
Ca1 O15 2.385017 1_544
Ca1 O17 2.385017 1_455
Ca1 O13 2.385017 1_544
Ca1 O0 2.732858 1_455
Ca1 O4 2.732859 1_544
Ca1 O10 2.732865 1_455
Ca1 O12 2.732867 1_544
Mn0 O8 1.846883 1_554
Mn0 O7 1.846883 1_555
Mn0 O9 2.078983 1_555
Mn0 O0 2.078983 1_555
Mn0 O14 2.079473 1_555
Mn0 O17 2.079473 1_555
Mn1 O1 1.846883 1_555
Mn1 O6 1.846883 1_545
Mn1 O11 2.078988 1_555
Mn1 O10 2.078988 1_555
Mn1 O5 2.079473 1_555
Mn1 O2 2.079473 1_555
Mn2 O7 1.846883 1_555
Mn2 O8 1.846883 1_555
Mn2 O18 2.078984 1_555
Mn2 O4 2.078984 1_555
Mn2 O16 2.079473 1_555
Mn2 O15 2.079473 1_555
Mn3 O6 1.846883 1_455
Mn3 O1 1.846883 1_555
Mn3 O12 2.078982 1_555
Mn3 O3 2.078982 1_555
Mn3 O13 2.079473 1_555
Mn3 O19 2.079473 1_555
O0 P2 1.540419 1_654
O2 P3 1.555125 1_655
O3 P1 1.540417 1_555
O4 P2 1.540421 1_565
O5 P2 1.555125 1_555
O9 P3 1.540419 1_565
O10 P0 1.540414 1_545
O11 P1 1.540414 1_556
O12 P0 1.540417 1_456
O13 P3 1.555125 1_565
O14 P0 1.555125 1_555
O15 P1 1.555125 1_556
O16 P0 1.555125 1_555
O17 P1 1.555125 1_555
O18 P3 1.540421 1_655
O19 P2 1.555125 1_555
