# generated using pymatgen
data_TmAlCo
_symmetry_space_group_name_H-M   'P 1'
_cell_length_a   5.29558549
_cell_length_b   5.29558549
_cell_length_c   8.37798900
_cell_angle_alpha   90.00000000
_cell_angle_beta   90.00000000
_cell_angle_gamma   119.09497832
_symmetry_Int_Tables_number   1
_chemical_formula_structural   TmAlCo
_chemical_formula_sum   'Tm4 Al4 Co4'
_cell_volume   205.29915923
_cell_formula_units_Z   4
loop_
 _symmetry_equiv_pos_site_id
 _symmetry_equiv_pos_as_xyz
  1  'x, y, z'
loop_
 _atom_site_type_symbol
 _atom_site_label
 _atom_site_symmetry_multiplicity
 _atom_site_fract_x
 _atom_site_fract_y
 _atom_site_fract_z
 _atom_site_occupancy
  Tm  Tm0  1  0.33371100  0.66628900  0.20348200  1
  Tm  Tm1  1  0.67021300  0.32978700  0.32463200  1
  Tm  Tm2  1  0.67021300  0.32978700  0.67536800  1
  Tm  Tm3  1  0.33371100  0.66628900  0.79651800  1
  Al  Al0  1  0.99608500  0.00391500  0.27075400  1
  Al  Al1  1  0.99608500  0.00391500  0.72924600  1
  Al  Al2  1  0.83436900  0.66020800  0.00000000  1
  Al  Al3  1  0.33979200  0.16563100  0.00000000  1
  Co  Co0  1  0.83348300  0.16651700  0.00000000  1
  Co  Co1  1  0.17458100  0.35665800  0.50000000  1
  Co  Co2  1  0.64334200  0.82541900  0.50000000  1
  Co  Co3  1  0.17408600  0.82591400  0.50000000  1
loop_
_geom_bond_atom_site_label_1
_geom_bond_atom_site_label_2
_geom_bond_distance
_geom_bond_site_symmetry_2
Tm0 Tm1 3.234503 1_455
Tm0 Tm1 3.234503 1_565
Tm0 Tm1 3.235622 1_555
Tm0 Tm3 3.409540 1_554
Tm1 Tm2 2.938462 1_555
Tm2 Tm3 3.234503 1_545
Tm2 Tm3 3.234503 1_655
Tm2 Tm3 3.235622 1_555
Al0 Co3 2.515941 1_645
Al0 Co1 2.520803 1_655
Al0 Co2 2.520803 1_545
Al0 Co0 2.710993 1_555
Al0 Al2 2.770540 1_545
Al0 Al3 2.770540 1_655
Al0 Tm1 3.009295 1_555
Al0 Tm0 3.117518 1_545
Al0 Tm0 3.117518 1_655
Al0 Tm0 3.133664 1_645
Al0 Tm1 3.151940 1_655
Al0 Tm1 3.151940 1_545
Al1 Co3 2.515941 1_645
Al1 Co1 2.520803 1_655
Al1 Co2 2.520803 1_545
Al1 Co0 2.710993 1_556
Al1 Al2 2.770540 1_546
Al1 Al3 2.770540 1_656
Al1 Tm2 3.009295 1_555
Al1 Tm3 3.117518 1_655
Al1 Tm3 3.117518 1_545
Al1 Tm3 3.133664 1_645
Al1 Tm2 3.151940 1_545
Al1 Tm2 3.151940 1_655
Al2 Co0 2.612105 1_555
Al2 Al3 2.654820 1_555
Al2 Co0 2.683487 1_565
Al2 Al3 2.713040 1_665
Al2 Tm1 3.120132 1_555
Al2 Tm2 3.120132 1_554
Al2 Tm0 3.133182 1_655
Al2 Tm3 3.133182 1_654
Al2 Tm0 3.165372 1_555
Al2 Tm3 3.165372 1_554
Al3 Co0 2.612105 1_555
Al3 Co0 2.683487 1_455
Al3 Tm1 3.120132 1_555
Al3 Tm2 3.120132 1_554
Al3 Tm3 3.133182 1_544
Al3 Tm0 3.133182 1_545
Al3 Tm0 3.165372 1_555
Al3 Tm3 3.165372 1_554
Co0 Tm1 3.101487 1_555
Co0 Tm2 3.101487 1_554
Co0 Tm0 3.179579 1_545
Co0 Tm0 3.179579 1_655
Co0 Tm3 3.179579 1_544
Co0 Tm3 3.179579 1_654
Co1 Co3 2.486261 1_555
Co1 Co2 2.516243 1_555
Co1 Co3 2.809327 1_545
Co1 Co2 2.851617 1_445
Co1 Tm3 2.868148 1_555
Co1 Tm0 2.868148 1_555
Co1 Tm2 2.990502 1_455
Co1 Tm1 2.990502 1_455
Co1 Tm2 3.070986 1_555
Co1 Tm1 3.070986 1_555
Co2 Co3 2.486261 1_555
Co2 Co3 2.809327 1_655
Co2 Tm3 2.868148 1_555
Co2 Tm0 2.868148 1_555
Co2 Tm2 2.990502 1_565
Co2 Tm1 2.990502 1_565
Co2 Tm1 3.070986 1_555
Co2 Tm2 3.070986 1_555
Co3 Tm3 2.880168 1_555
Co3 Tm0 2.880168 1_555
Co3 Tm2 3.059963 1_455
Co3 Tm1 3.059963 1_455
Co3 Tm1 3.059963 1_565
Co3 Tm2 3.059963 1_565
