# generated using pymatgen
data_CuSn3
_symmetry_space_group_name_H-M   'P 1'
_cell_length_a   5.81017111
_cell_length_b   5.81017111
_cell_length_c   5.81017111
_cell_angle_alpha   134.64867774
_cell_angle_beta   134.64867774
_cell_angle_gamma   66.07656777
_symmetry_Int_Tables_number   1
_chemical_formula_structural   CuSn3
_chemical_formula_sum   'Cu1 Sn3'
_cell_volume   97.74851129
_cell_formula_units_Z   1
loop_
 _symmetry_equiv_pos_site_id
 _symmetry_equiv_pos_as_xyz
  1  'x, y, z'
loop_
 _atom_site_type_symbol
 _atom_site_label
 _atom_site_symmetry_multiplicity
 _atom_site_fract_x
 _atom_site_fract_y
 _atom_site_fract_z
 _atom_site_occupancy
  Cu  Cu0  1  0.00000000  0.00000000  0.00000000  1
  Sn  Sn0  1  0.75000000  0.25000000  0.50000000  1
  Sn  Sn1  1  0.25000000  0.75000000  0.50000000  1
  Sn  Sn2  1  0.50000000  0.50000000  0.00000000  1
loop_
_geom_bond_atom_site_label_1
_geom_bond_atom_site_label_2
_geom_bond_distance
_geom_bond_site_symmetry_2
Cu0 Sn2 3.167701 1_556
Cu0 Sn2 3.167701 1_455
Cu0 Sn2 3.167701 1_545
Cu0 Sn2 3.167701 1_444
Cu0 Sn0 3.308792 1_455
Cu0 Sn1 3.308792 1_545
Cu0 Sn0 3.308792 1_454
Cu0 Sn0 3.308792 1_444
Cu0 Sn0 3.308792 1_555
Cu0 Sn1 3.308792 1_444
Cu0 Sn1 3.308792 1_555
Cu0 Sn1 3.308792 1_544
Sn0 Sn1 3.167701 1_645
Sn0 Sn1 3.167701 1_656
Sn0 Sn1 3.167701 1_544
Sn0 Sn1 3.167701 1_555
Sn0 Sn2 3.308792 1_545
Sn0 Sn2 3.308792 1_555
Sn0 Sn2 3.308792 1_556
Sn0 Sn2 3.308792 1_656
Sn1 Sn2 3.308792 1_555
Sn1 Sn2 3.308792 1_566
Sn1 Sn2 3.308792 1_556
Sn1 Sn2 3.308792 1_455
