# generated using pymatgen
data_KHo(WO4)2
_symmetry_space_group_name_H-M   'P 1'
_cell_length_a   7.57916707
_cell_length_b   7.57916707
_cell_length_c   7.47388447
_cell_angle_alpha   62.28794718
_cell_angle_beta   62.28794718
_cell_angle_gamma   88.13874200
_symmetry_Int_Tables_number   1
_chemical_formula_structural   KHo(WO4)2
_chemical_formula_sum   'K2 Ho2 W4 O16'
_cell_volume   327.10461291
_cell_formula_units_Z   2
loop_
 _symmetry_equiv_pos_site_id
 _symmetry_equiv_pos_as_xyz
  1  'x, y, z'
loop_
 _atom_site_type_symbol
 _atom_site_label
 _atom_site_symmetry_multiplicity
 _atom_site_fract_x
 _atom_site_fract_y
 _atom_site_fract_z
 _atom_site_occupancy
  K  K0  1  0.79708000  0.20292000  0.25000000  1
  K  K1  1  0.20292000  0.79708000  0.75000000  1
  Ho  Ho0  1  0.77584100  0.22415900  0.75000000  1
  Ho  Ho1  1  0.22415900  0.77584100  0.25000000  1
  W  W0  1  0.70115700  0.69220300  0.77835100  1
  W  W1  1  0.30779700  0.29884300  0.72164900  1
  W  W2  1  0.29884300  0.30779700  0.22164900  1
  W  W3  1  0.69220300  0.70115700  0.27835100  1
  O  O0  1  0.40921200  0.63046700  0.03317000  1
  O  O1  1  0.36953300  0.59078800  0.46683000  1
  O  O2  1  0.59078800  0.36953300  0.96683000  1
  O  O3  1  0.63046700  0.40921200  0.53317000  1
  O  O4  1  0.62053300  0.75888200  0.55530800  1
  O  O5  1  0.24111800  0.37946700  0.94469200  1
  O  O6  1  0.37946700  0.24111800  0.44469200  1
  O  O7  1  0.75888200  0.62053300  0.05530800  1
  O  O8  1  0.78536600  0.95956200  0.68631800  1
  O  O9  1  0.04043800  0.21463400  0.81368200  1
  O  O10  1  0.21463400  0.04043800  0.31368200  1
  O  O11  1  0.95956200  0.78536600  0.18631800  1
  O  O12  1  0.94023100  0.62581800  0.62163400  1
  O  O13  1  0.37418200  0.05976900  0.87836600  1
  O  O14  1  0.05976900  0.37418200  0.37836600  1
  O  O15  1  0.62581800  0.94023100  0.12163400  1
loop_
_geom_bond_atom_site_label_1
_geom_bond_atom_site_label_2
_geom_bond_distance
_geom_bond_site_symmetry_2
K0 O8 2.862038 1_545
K0 O9 2.862038 1_654
K0 O7 2.875439 1_555
K0 O6 2.875439 1_555
K0 O5 2.938359 1_654
K0 O4 2.938359 1_545
K0 O3 2.996997 1_555
K0 O2 2.996997 1_554
K0 O15 3.109958 1_545
K0 O14 3.109958 1_655
K1 O10 2.862038 1_565
K1 O11 2.862038 1_456
K1 O4 2.875439 1_555
K1 O5 2.875439 1_555
K1 O6 2.938359 1_565
K1 O7 2.938359 1_456
K1 O0 2.996997 1_556
K1 O1 2.996997 1_555
K1 O12 3.109958 1_455
K1 O13 3.109958 1_565
Ho0 O9 2.258282 1_655
Ho0 O8 2.258282 1_545
Ho0 O2 2.292096 1_555
Ho0 O3 2.292096 1_555
Ho0 O15 2.302406 1_546
Ho0 O14 2.302406 1_655
Ho1 O11 2.258282 1_455
Ho1 O10 2.258282 1_565
Ho1 O0 2.292096 1_555
Ho1 O1 2.292096 1_555
Ho1 O12 2.302406 1_455
Ho1 O13 2.302406 1_564
O0 W0 2.015241 1_554
O0 W2 2.120803 1_555
O1 W1 2.015241 1_555
O1 W3 2.120803 1_555
O2 W2 2.015241 1_556
O2 W0 2.120803 1_555
O3 W3 2.015241 1_555
O3 W1 2.120803 1_555
O4 W0 1.884538 1_555
O4 W3 2.133597 1_555
O5 W1 1.884538 1_555
O5 W2 2.133597 1_556
O6 W2 1.884538 1_555
O6 W1 2.133597 1_555
O7 W3 1.884538 1_555
O7 W0 2.133597 1_554
O8 W0 1.834661 1_555
O9 W1 1.834661 1_555
O10 W2 1.834661 1_555
O11 W3 1.834661 1_555
O12 W0 1.850221 1_555
O13 W1 1.850221 1_555
O14 W2 1.850221 1_555
O15 W3 1.850221 1_555
