# generated using pymatgen
data_LuH9C5(NO4)2
_symmetry_space_group_name_H-M   'P 1'
_cell_length_a   6.69289600
_cell_length_b   8.51126200
_cell_length_c   9.69490810
_cell_angle_alpha   90.00000000
_cell_angle_beta   110.19252976
_cell_angle_gamma   90.00000000
_symmetry_Int_Tables_number   1
_chemical_formula_structural   LuH9C5(NO4)2
_chemical_formula_sum   'Lu2 H18 C10 N4 O16'
_cell_volume   518.32673530
_cell_formula_units_Z   2
loop_
 _symmetry_equiv_pos_site_id
 _symmetry_equiv_pos_as_xyz
  1  'x, y, z'
loop_
 _atom_site_type_symbol
 _atom_site_label
 _atom_site_symmetry_multiplicity
 _atom_site_fract_x
 _atom_site_fract_y
 _atom_site_fract_z
 _atom_site_occupancy
  Lu  Lu0  1  0.85798300  0.25000000  0.71596700  1
  Lu  Lu1  1  0.14201700  0.75000000  0.28403300  1
  H  H0  1  0.92611200  0.06145300  0.41951400  1
  H  H1  1  0.50659900  0.93854700  0.58048600  1
  H  H2  1  0.07388800  0.56145300  0.58048600  1
  H  H3  1  0.49340100  0.43854700  0.41951400  1
  H  H4  1  0.31277900  0.25000000  0.62555900  1
  H  H5  1  0.68722100  0.75000000  0.37444100  1
  H  H6  1  0.23474300  0.50000000  0.00000000  1
  H  H7  1  0.76525700  0.00000000  0.00000000  1
  H  H8  1  0.64704200  0.67022100  0.98940500  1
  H  H9  1  0.65763700  0.32977900  0.01059500  1
  H  H10  1  0.35295800  0.17022100  0.01059500  1
  H  H11  1  0.34236300  0.82977900  0.98940500  1
  H  H12  1  0.64356400  0.60127000  0.81476700  1
  H  H13  1  0.82879700  0.39873000  0.18523300  1
  H  H14  1  0.35643600  0.10127000  0.18523300  1
  H  H15  1  0.17120300  0.89873000  0.81476700  1
  H  H16  1  0.34465900  0.75000000  0.68931700  1
  H  H17  1  0.65534100  0.25000000  0.31068300  1
  C  C0  1  0.99437700  0.97645100  0.51035800  1
  C  C1  1  0.48401800  0.02354900  0.48964200  1
  C  C2  1  0.00562300  0.47645100  0.48964200  1
  C  C3  1  0.51598200  0.52354900  0.51035800  1
  C  C4  1  0.37360000  0.25000000  0.74719900  1
  C  C5  1  0.62640000  0.75000000  0.25280100  1
  C  C6  1  0.06952400  0.50000000  0.00000000  1
  C  C7  1  0.93047600  0.00000000  0.00000000  1
  C  C8  1  0.40490900  0.75000000  0.80981900  1
  C  C9  1  0.59509100  0.25000000  0.19018100  1
  N  N0  1  0.57544900  0.66565300  0.87678400  1
  N  N1  1  0.69866500  0.33434700  0.12321600  1
  N  N2  1  0.42455100  0.16565300  0.12321600  1
  N  N3  1  0.30133500  0.83434700  0.87678400  1
  O  O0  1  0.23912200  0.26429300  0.81214600  1
  O  O1  1  0.42697700  0.73570700  0.18785400  1
  O  O2  1  0.76087800  0.76429300  0.18785400  1
  O  O3  1  0.57302300  0.23570700  0.81214600  1
  O  O4  1  0.92966500  0.42513900  0.89980200  1
  O  O5  1  0.02986300  0.57486100  0.10019800  1
  O  O6  1  0.07033500  0.92513900  0.10019800  1
  O  O7  1  0.97013700  0.07486100  0.89980200  1
  O  O8  1  0.99429100  0.01605200  0.63637600  1
  O  O9  1  0.35791500  0.98394800  0.36362400  1
  O  O10  1  0.00570900  0.51605200  0.36362400  1
  O  O11  1  0.64208500  0.48394800  0.63637600  1
  O  O12  1  0.58621600  0.15202300  0.51868400  1
  O  O13  1  0.06753200  0.84797700  0.48131600  1
  O  O14  1  0.41378400  0.65202300  0.48131600  1
  O  O15  1  0.93246800  0.34797700  0.51868400  1
loop_
_geom_bond_atom_site_label_1
_geom_bond_atom_site_label_2
_geom_bond_distance
_geom_bond_site_symmetry_2
Lu0 O4 2.244636 1_555
Lu0 O7 2.244636 1_555
Lu0 O12 2.293545 1_555
Lu0 O15 2.293548 1_555
Lu0 O0 2.397790 1_655
Lu0 O3 2.397790 1_555
Lu0 O11 2.424562 1_555
Lu0 O8 2.424565 1_555
Lu1 O6 2.244636 1_555
Lu1 O5 2.244636 1_555
Lu1 O14 2.293545 1_555
Lu1 O13 2.293548 1_555
Lu1 O1 2.397790 1_555
Lu1 O2 2.397790 1_455
Lu1 O9 2.424562 1_555
Lu1 O10 2.424565 1_555
H8 N0 1.030569 1_555
H9 N1 1.030569 1_555
H10 N2 1.030569 1_555
H11 N3 1.030569 1_555
H12 N0 1.029001 1_555
H13 N1 1.029001 1_555
H14 N2 1.029001 1_555
H15 N3 1.029001 1_555
C0 H0 1.109074 1_565
C0 O8 1.267566 1_565
C0 O13 1.268803 1_655
C1 H1 1.109072 1_545
C1 O9 1.267563 1_545
C1 O12 1.268806 1_555
C2 H2 1.109074 1_555
C2 O10 1.267566 1_555
C2 O15 1.268803 1_455
C3 H3 1.109072 1_555
C3 O11 1.267563 1_555
C3 O14 1.268806 1_555
C4 H4 1.106807 1_555
C4 O3 1.269864 1_555
C4 O0 1.269876 1_555
C5 H5 1.106807 1_555
C5 O1 1.269864 1_555
C5 O2 1.269876 1_555
C6 H6 1.105794 1_555
C6 O5 1.264155 1_555
C6 O4 1.264155 1_454
C7 H7 1.105794 1_555
C7 O6 1.264155 1_645
C7 O7 1.264155 1_554
C8 H16 1.096453 1_555
C8 N3 1.314570 1_555
C8 N0 1.314575 1_555
C9 H17 1.096453 1_555
C9 N1 1.314570 1_555
C9 N2 1.314575 1_555
