# generated using pymatgen
data_Tm2Ga3Cu
_symmetry_space_group_name_H-M   'P 1'
_cell_length_a   4.30049706
_cell_length_b   4.30049706
_cell_length_c   7.05561217
_cell_angle_alpha   90.00000000
_cell_angle_beta   90.00000000
_cell_angle_gamma   119.99998767
_symmetry_Int_Tables_number   1
_chemical_formula_structural   Tm2Ga3Cu
_chemical_formula_sum   'Tm2 Ga3 Cu1'
_cell_volume   113.00631054
_cell_formula_units_Z   1
loop_
 _symmetry_equiv_pos_site_id
 _symmetry_equiv_pos_as_xyz
  1  'x, y, z'
loop_
 _atom_site_type_symbol
 _atom_site_label
 _atom_site_symmetry_multiplicity
 _atom_site_fract_x
 _atom_site_fract_y
 _atom_site_fract_z
 _atom_site_occupancy
  Tm  Tm0  1  0.33333300  0.66666700  0.73023569  1
  Tm  Tm1  1  0.33333300  0.66666700  0.26167002  1
  Ga  Ga0  1  0.66666700  0.33333300  0.47679750  1
  Ga  Ga1  1  0.66666700  0.33333300  0.04581230  1
  Ga  Ga2  1  -0.00000000  0.00000000  0.94789741  1
  Cu  Cu0  1  -0.00000000  -0.00000000  0.53758608  1
loop_
_geom_bond_atom_site_label_1
_geom_bond_atom_site_label_2
_geom_bond_distance
_geom_bond_site_symmetry_2
Tm0 Tm1 3.306018 1_555
Ga0 Tm1 2.910092 1_545
Ga0 Tm1 2.910092 1_655
Ga0 Tm1 2.910098 1_555
Ga0 Ga1 3.040864 1_555
Ga0 Tm0 3.059783 1_545
Ga0 Tm0 3.059783 1_655
Ga0 Tm0 3.059788 1_555
Ga1 Ga2 2.577211 1_654
Ga1 Ga2 2.577215 1_664
Ga1 Ga2 2.577215 1_554
Ga1 Tm1 2.912783 1_545
Ga1 Tm1 2.912783 1_655
Ga1 Tm1 2.912788 1_555
Ga1 Tm0 3.335031 1_544
Ga1 Tm0 3.335031 1_654
Ga1 Tm0 3.335036 1_554
Ga2 Tm0 2.919458 1_545
Ga2 Tm0 2.919461 1_445
Ga2 Tm0 2.919461 1_555
Cu0 Ga0 2.519663 1_455
Cu0 Ga0 2.519667 1_555
Cu0 Ga0 2.519667 1_445
Cu0 Tm0 2.830607 1_545
Cu0 Tm0 2.830611 1_555
Cu0 Tm0 2.830611 1_445
Cu0 Ga2 2.894998 1_555
Cu0 Tm1 3.155092 1_545
Cu0 Tm1 3.155096 1_555
Cu0 Tm1 3.155096 1_445
