# generated using pymatgen
data_YbMgAg
_symmetry_space_group_name_H-M   'P 1'
_cell_length_a   4.43808200
_cell_length_b   7.55458600
_cell_length_c   8.83313200
_cell_angle_alpha   90.00000000
_cell_angle_beta   90.00000000
_cell_angle_gamma   90.00000000
_symmetry_Int_Tables_number   1
_chemical_formula_structural   YbMgAg
_chemical_formula_sum   'Yb4 Mg4 Ag4'
_cell_volume   296.15612033
_cell_formula_units_Z   4
loop_
 _symmetry_equiv_pos_site_id
 _symmetry_equiv_pos_as_xyz
  1  'x, y, z'
loop_
 _atom_site_type_symbol
 _atom_site_label
 _atom_site_symmetry_multiplicity
 _atom_site_fract_x
 _atom_site_fract_y
 _atom_site_fract_z
 _atom_site_occupancy
  Yb  Yb0  1  0.25000000  0.53398400  0.17614100  1
  Yb  Yb1  1  0.75000000  0.46601600  0.82385900  1
  Yb  Yb2  1  0.75000000  0.96601600  0.67614100  1
  Yb  Yb3  1  0.25000000  0.03398400  0.32385900  1
  Mg  Mg0  1  0.25000000  0.63844900  0.56026900  1
  Mg  Mg1  1  0.75000000  0.36155100  0.43973100  1
  Mg  Mg2  1  0.75000000  0.86155100  0.06026900  1
  Mg  Mg3  1  0.25000000  0.13844900  0.93973100  1
  Ag  Ag0  1  0.25000000  0.76477700  0.87104800  1
  Ag  Ag1  1  0.75000000  0.23522300  0.12895200  1
  Ag  Ag2  1  0.75000000  0.73522300  0.37104800  1
  Ag  Ag3  1  0.25000000  0.26477700  0.62895200  1
loop_
_geom_bond_atom_site_label_1
_geom_bond_atom_site_label_2
_geom_bond_distance
_geom_bond_site_symmetry_2
Ag0 Mg2 2.872674 1_456
Ag0 Mg2 2.872674 1_556
Ag0 Mg3 2.887394 1_565
Ag0 Mg0 2.906313 1_555
Ag0 Yb1 3.192492 1_555
Ag0 Yb1 3.192492 1_455
Ag0 Yb2 3.193654 1_555
Ag0 Yb2 3.193654 1_455
Ag0 Yb0 3.209763 1_556
Ag1 Mg3 2.872674 1_554
Ag1 Mg3 2.872674 1_654
Ag1 Mg2 2.887394 1_545
Ag1 Mg1 2.906313 1_555
Ag1 Yb0 3.192492 1_655
Ag1 Yb0 3.192492 1_555
Ag1 Yb3 3.193654 1_555
Ag1 Yb3 3.193654 1_655
Ag1 Yb1 3.209763 1_554
Ag2 Mg0 2.872674 1_555
Ag2 Mg0 2.872674 1_655
Ag2 Mg1 2.887394 1_555
Ag2 Mg2 2.906313 1_555
Ag2 Yb3 3.192492 1_665
Ag2 Yb3 3.192492 1_565
Ag2 Yb0 3.193654 1_555
Ag2 Yb0 3.193654 1_655
Ag2 Yb2 3.209763 1_555
Ag3 Mg1 2.872674 1_455
Ag3 Mg1 2.872674 1_555
Ag3 Mg0 2.887394 1_555
Ag3 Mg3 2.906313 1_555
Ag3 Yb2 3.192492 1_445
Ag3 Yb2 3.192492 1_545
Ag3 Yb1 3.193654 1_455
Ag3 Yb1 3.193654 1_555
Ag3 Yb3 3.209763 1_555
