# generated using pymatgen
data_KMg3AlSi3(O5F)2
_symmetry_space_group_name_H-M   'P 1'
_cell_length_a   5.29521716
_cell_length_b   5.29450509
_cell_length_c   10.15701938
_cell_angle_alpha   85.20563295
_cell_angle_beta   100.02854177
_cell_angle_gamma   119.95806473
_symmetry_Int_Tables_number   1
_chemical_formula_structural   KMg3AlSi3(O5F)2
_chemical_formula_sum   'K1 Mg3 Al1 Si3 O10 F2'
_cell_volume   242.94013717
_cell_formula_units_Z   1
loop_
 _symmetry_equiv_pos_site_id
 _symmetry_equiv_pos_as_xyz
  1  'x, y, z'
loop_
 _atom_site_type_symbol
 _atom_site_label
 _atom_site_symmetry_multiplicity
 _atom_site_fract_x
 _atom_site_fract_y
 _atom_site_fract_z
 _atom_site_occupancy
  K  K0  1  0.49396042  0.00126118  0.98001378  1
  Mg  Mg0  1  0.33301738  0.66029778  0.50602546  1
  Mg  Mg1  1  0.67293131  0.33644043  0.50526629  1
  Mg  Mg2  1  0.99770708  0.00085506  0.50503725  1
  Al  Al0  1  0.09165011  0.33362367  0.77505972  1
  Si  Si0  1  0.76000498  0.66725745  0.77908788  1
  Si  Si1  1  0.90987838  0.66823775  0.22776278  1
  Si  Si2  1  0.24497346  0.33417337  0.22791612  1
  O  O0  1  0.00869314  0.98816855  0.83441123  1
  O  O1  1  0.05084050  0.00074557  0.16889430  1
  O  O2  1  0.03280955  0.33282229  0.60036212  1
  O  O3  1  0.70447748  0.66630965  0.61266143  1
  O  O4  1  0.96088180  0.66984085  0.38851791  1
  O  O5  1  0.30117358  0.33368955  0.38863367  1
  O  O6  1  0.86879647  0.43727990  0.83451839  1
  O  O7  1  0.45774018  0.57752725  0.83389153  1
  O  O8  1  0.06415294  0.50673414  0.17064779  1
  O  O9  1  0.55713700  0.49396090  0.16828426  1
  F  F0  1  0.36404276  0.00037771  0.59419263  1
  F  F1  1  0.62513249  0.99039596  0.39881546  1
loop_
_geom_bond_atom_site_label_1
_geom_bond_atom_site_label_2
_geom_bond_distance
_geom_bond_site_symmetry_2
K0 O7 2.701919 1_545
K0 O0 2.703788 1_545
K0 O6 2.706984 1_555
Mg0 O2 1.987804 1_555
Mg0 O3 2.060175 1_555
Mg0 O5 2.103280 1_555
Mg0 O4 2.140170 1_455
Mg1 O2 1.989237 1_655
Mg1 O3 2.057097 1_555
Mg1 O4 2.106819 1_555
Mg1 O5 2.107318 1_555
Mg2 O2 1.989136 1_655
Mg2 O3 2.064930 1_545
Mg2 O4 2.105980 1_545
Mg2 O5 2.137916 1_655
Al0 O0 1.734117 1_545
Al0 O7 1.734345 1_555
Al0 O6 1.734608 1_455
Al0 O2 1.747285 1_555
O0 Si0 1.613686 1_455
O1 Si1 1.637375 1_445
O1 Si2 1.637797 1_555
O3 Si0 1.664560 1_555
O4 Si1 1.607940 1_555
O5 Si2 1.607547 1_555
O6 Si0 1.613825 1_555
O7 Si0 1.613691 1_555
O8 Si1 1.637276 1_455
O8 Si2 1.637283 1_555
O9 Si2 1.637461 1_555
O9 Si1 1.638317 1_555
F0 Mg2 1.993912 1_455
F0 Mg0 1.998449 1_545
F0 Mg1 1.999071 1_555
F1 Mg0 2.049742 1_555
F1 Mg2 2.053981 1_565
F1 Mg1 2.088662 1_565
