# generated using pymatgen
data_Li9Mn2Co5O16
_symmetry_space_group_name_H-M   'P 1'
_cell_length_a   2.98331500
_cell_length_b   5.10664671
_cell_length_c   19.68697294
_cell_angle_alpha   91.59612363
_cell_angle_beta   93.21970930
_cell_angle_gamma   104.77258830
_symmetry_Int_Tables_number   1
_chemical_formula_structural   Li9Mn2Co5O16
_chemical_formula_sum   'Li9 Mn2 Co5 O16'
_cell_volume   289.27771359
_cell_formula_units_Z   1
loop_
 _symmetry_equiv_pos_site_id
 _symmetry_equiv_pos_as_xyz
  1  'x, y, z'
loop_
 _atom_site_type_symbol
 _atom_site_label
 _atom_site_symmetry_multiplicity
 _atom_site_fract_x
 _atom_site_fract_y
 _atom_site_fract_z
 _atom_site_occupancy
  Li  Li0  1  0.32905800  0.57352100  0.06395900  1
  Li  Li1  1  0.93663200  0.68699400  0.18718300  1
  Li  Li2  1  0.56217600  0.81209300  0.31395800  1
  Li  Li3  1  0.18978600  0.93604900  0.43884300  1
  Li  Li4  1  0.81287500  0.06567200  0.56333200  1
  Li  Li5  1  0.44282300  0.18344400  0.68869100  1
  Li  Li6  1  0.05966100  0.30197800  0.81281400  1
  Li  Li7  1  0.65643500  0.42738500  0.93036100  1
  Li  Li8  1  0.39376100  0.89173900  0.87355900  1
  Mn  Mn0  1  0.00103500  0.00183700  0.99498700  1
  Mn  Mn1  1  0.24965100  0.25268000  0.25071400  1
  Co  Co0  1  0.61311600  0.11580800  0.12514700  1
  Co  Co1  1  0.87781400  0.37729700  0.37781600  1
  Co  Co2  1  0.50246600  0.50160000  0.50149300  1
  Co  Co3  1  0.13037900  0.62206100  0.62650900  1
  Co  Co4  1  0.75740200  0.75341600  0.75426800  1
  O  O0  1  0.62464400  0.24490300  0.03064100  1
  O  O1  1  0.25478700  0.38492400  0.15710000  1
  O  O2  1  0.94003600  0.52024500  0.28511800  1
  O  O3  1  0.51780800  0.63702300  0.41094400  1
  O  O4  1  0.18303600  0.76106300  0.53446300  1
  O  O5  1  0.76878900  0.88217800  0.66147900  1
  O  O6  1  0.42285500  0.00512700  0.77738700  1
  O  O7  1  0.03716200  0.15879100  0.91246900  1
  O  O8  1  0.97576700  0.86174800  0.09051400  1
  O  O9  1  0.55502000  0.97997500  0.21566200  1
  O  O10  1  0.23158900  0.11252100  0.34232100  1
  O  O11  1  0.81655300  0.23898100  0.46788200  1
  O  O12  1  0.48481100  0.36083000  0.59052500  1
  O  O13  1  0.06937600  0.48824900  0.71552900  1
  O  O14  1  0.71685100  0.60012300  0.83230000  1
  O  O15  1  0.38584300  0.75974400  0.97203700  1
loop_
_geom_bond_atom_site_label_1
_geom_bond_atom_site_label_2
_geom_bond_distance
_geom_bond_site_symmetry_2
Li0 O15 2.063030 1_554
Li0 O8 2.088238 1_455
Li0 O1 2.091452 1_555
Li0 O8 2.134882 1_555
Li0 O0 2.186851 1_555
Li0 O0 2.376561 1_455
Li1 O9 2.094220 1_655
Li1 O1 2.095249 1_655
Li1 O8 2.120925 1_555
Li1 O2 2.129842 1_555
Li1 O9 2.177735 1_555
Li1 O1 2.254253 1_555
Li2 O2 2.100539 1_455
Li2 O10 2.103315 1_565
Li2 O3 2.127343 1_555
Li2 O9 2.139478 1_555
Li2 O2 2.166986 1_555
Li2 O10 2.217731 1_665
Li3 O3 2.089693 1_555
Li3 O4 2.105087 1_555
Li3 O10 2.122084 1_565
Li3 O11 2.138173 1_565
Li3 O11 2.204634 1_465
Li3 O3 2.218294 1_455
Li4 O12 2.069431 1_555
Li4 O11 2.098691 1_555
Li4 O4 2.147928 1_545
Li4 O5 2.166879 1_545
Li4 O4 2.204415 1_645
Li4 O12 2.206925 1_655
Li5 O6 1.988568 1_555
Li5 O5 2.091672 1_545
Li5 O13 2.134337 1_655
Li5 O12 2.153604 1_555
Li5 O13 2.201786 1_555
Li5 O5 2.225496 1_445
Li6 O14 2.077684 1_455
Li6 O7 2.111378 1_555
Li6 O13 2.160439 1_555
Li6 O14 2.160995 1_555
Li6 O6 2.171921 1_455
Li6 O6 2.195922 1_555
Li7 O7 2.006568 1_555
Li7 O7 2.026825 1_655
Li7 O14 2.142523 1_555
Li7 O0 2.203028 1_556
Li7 O15 2.213822 1_555
Li7 O15 2.475365 1_655
Li8 O6 1.995353 1_565
Li8 O15 2.069642 1_555
Li8 O7 2.086038 1_565
Li8 O14 2.135194 1_555
Li8 O7 2.138377 1_665
Li8 O14 2.273826 1_455
Mn0 O7 1.827917 1_555
Mn0 O15 1.949709 1_545
Mn0 O15 1.954365 1_445
Mn0 O0 2.011237 1_456
Mn0 O8 2.029194 1_446
Mn0 O0 2.030198 1_556
Mn1 O10 1.957251 1_555
Mn1 O2 1.959901 1_455
Mn1 O9 1.977261 1_545
Mn1 O1 1.979921 1_555
Mn1 O2 2.219095 1_555
Mn1 O9 2.241452 1_445
Co0 O9 1.931020 1_545
Co0 O0 1.990310 1_555
Co0 O8 2.016934 1_545
Co0 O1 2.050297 1_555
Co0 O8 2.076186 1_445
Co0 O1 2.103303 1_655
Co1 O11 1.927855 1_555
Co1 O2 1.985174 1_555
Co1 O3 2.023595 1_555
Co1 O10 2.046559 1_655
Co1 O3 2.085774 1_655
Co1 O10 2.121317 1_555
Co2 O12 1.911281 1_555
Co2 O3 1.928688 1_555
Co2 O4 1.936623 1_555
Co2 O11 1.943055 1_555
Co2 O4 2.175173 1_655
Co2 O11 2.196063 1_455
Co3 O13 1.900147 1_555
Co3 O4 1.964445 1_555
Co3 O12 2.037239 1_555
Co3 O5 2.040908 1_455
Co3 O5 2.092233 1_555
Co3 O12 2.115312 1_455
Co4 O14 1.739816 1_555
Co4 O6 1.878351 1_565
Co4 O5 1.957797 1_555
Co4 O13 1.986558 1_655
Co4 O6 2.089306 1_665
Co4 O13 2.231059 1_555
