# generated using pymatgen
data_Nd3Ti4O12
_symmetry_space_group_name_H-M   'P 1'
_cell_length_a   5.52245454
_cell_length_b   5.52245454
_cell_length_c   7.75256700
_cell_angle_alpha   90.00000000
_cell_angle_beta   90.00000000
_cell_angle_gamma   91.09583580
_symmetry_Int_Tables_number   1
_chemical_formula_structural   Nd3Ti4O12
_chemical_formula_sum   'Nd3 Ti4 O12'
_cell_volume   236.39070157
_cell_formula_units_Z   1
loop_
 _symmetry_equiv_pos_site_id
 _symmetry_equiv_pos_as_xyz
  1  'x, y, z'
loop_
 _atom_site_type_symbol
 _atom_site_label
 _atom_site_symmetry_multiplicity
 _atom_site_fract_x
 _atom_site_fract_y
 _atom_site_fract_z
 _atom_site_occupancy
  Nd  Nd0  1  0.25831700  0.74168300  0.00000000  1
  Nd  Nd1  1  0.75002700  0.24997300  0.00000000  1
  Nd  Nd2  1  0.25380300  0.74619700  0.50000000  1
  Ti  Ti0  1  0.25146900  0.24855800  0.74299300  1
  Ti  Ti1  1  0.75144200  0.74853100  0.74299300  1
  Ti  Ti2  1  0.75144200  0.74853100  0.25700700  1
  Ti  Ti3  1  0.25146900  0.24855800  0.25700700  1
  O  O0  1  0.49023600  0.99148100  0.76489200  1
  O  O1  1  0.00851900  0.50976400  0.23510800  1
  O  O2  1  0.49023600  0.99148100  0.23510800  1
  O  O3  1  0.00851900  0.50976400  0.76489200  1
  O  O4  1  0.48334700  0.51665300  0.70999800  1
  O  O5  1  0.48334700  0.51665300  0.29000200  1
  O  O6  1  0.21397000  0.19291900  0.50000000  1
  O  O7  1  0.80708100  0.78603000  0.50000000  1
  O  O8  1  0.99850300  0.00149700  0.80990400  1
  O  O9  1  0.99850300  0.00149700  0.19009600  1
  O  O10  1  0.30933500  0.30056500  0.00000000  1
  O  O11  1  0.69943500  0.69066500  0.00000000  1
loop_
_geom_bond_atom_site_label_1
_geom_bond_atom_site_label_2
_geom_bond_distance
_geom_bond_site_symmetry_2
Nd0 O11 2.457640 1_555
Nd0 O10 2.457640 1_555
Nd0 O9 2.523489 1_465
Nd0 O8 2.523489 1_464
Nd0 O1 2.607295 1_555
Nd0 O2 2.607295 1_555
Nd0 O3 2.607295 1_554
Nd0 O0 2.607295 1_554
Nd1 O9 2.451481 1_555
Nd1 O8 2.451481 1_554
Nd1 O11 2.454989 1_555
Nd1 O10 2.454989 1_555
Nd1 O1 2.709238 1_655
Nd1 O2 2.709238 1_545
Nd1 O3 2.709238 1_654
Nd1 O0 2.709238 1_544
Nd2 O5 2.434292 1_555
Nd2 O4 2.434292 1_555
Nd2 O6 2.480977 1_565
Nd2 O7 2.480977 1_455
Nd2 O0 2.772955 1_555
Nd2 O3 2.772955 1_555
Nd2 O2 2.772955 1_555
Nd2 O1 2.772955 1_555
Nd2 O7 3.059162 1_555
Nd2 O6 3.059162 1_555
Nd2 O8 3.134298 1_465
Nd2 O9 3.134298 1_465
O0 Ti0 1.963317 1_565
O0 Ti1 1.995935 1_555
O1 Ti2 1.963317 1_455
O1 Ti3 1.995935 1_555
O2 Ti3 1.963317 1_565
O2 Ti2 1.995935 1_555
O3 Ti1 1.963317 1_455
O3 Ti0 1.995935 1_555
O4 Ti0 1.955682 1_555
O4 Ti1 1.955682 1_555
O5 Ti3 1.955682 1_555
O5 Ti2 1.955682 1_555
O6 Ti3 1.919281 1_555
O6 Ti0 1.919281 1_555
O7 Ti1 1.919281 1_555
O7 Ti2 1.919281 1_555
O8 Ti1 2.002326 1_545
O8 Ti0 2.002326 1_655
O9 Ti2 2.002326 1_545
O9 Ti3 2.002326 1_655
O10 Ti0 2.037403 1_554
O10 Ti3 2.037403 1_555
O11 Ti2 2.037403 1_555
O11 Ti1 2.037403 1_554
