# generated using pymatgen
data_SrGd2BeO5
_symmetry_space_group_name_H-M   'P 1'
_cell_length_a   6.55237900
_cell_length_b   7.18635100
_cell_length_c   9.54433200
_cell_angle_alpha   90.00000000
_cell_angle_beta   90.00000000
_cell_angle_gamma   90.00000000
_symmetry_Int_Tables_number   1
_chemical_formula_structural   SrGd2BeO5
_chemical_formula_sum   'Sr4 Gd8 Be4 O20'
_cell_volume   449.42059781
_cell_formula_units_Z   4
loop_
 _symmetry_equiv_pos_site_id
 _symmetry_equiv_pos_as_xyz
  1  'x, y, z'
loop_
 _atom_site_type_symbol
 _atom_site_label
 _atom_site_symmetry_multiplicity
 _atom_site_fract_x
 _atom_site_fract_y
 _atom_site_fract_z
 _atom_site_occupancy
  Sr  Sr0  1  0.58362400  0.98204700  0.67569800  1
  Sr  Sr1  1  0.41637600  0.48204700  0.32430200  1
  Sr  Sr2  1  0.08362400  0.48204700  0.82430200  1
  Sr  Sr3  1  0.91637600  0.98204700  0.17569800  1
  Gd  Gd0  1  0.09376100  0.74683200  0.52098500  1
  Gd  Gd1  1  0.40623900  0.74683200  0.02098500  1
  Gd  Gd2  1  0.90623900  0.24683200  0.47901500  1
  Gd  Gd3  1  0.59376100  0.24683200  0.97901500  1
  Gd  Gd4  1  0.92873400  0.52565100  0.17487200  1
  Gd  Gd5  1  0.07126600  0.02565100  0.82512800  1
  Gd  Gd6  1  0.42873400  0.02565100  0.32512800  1
  Gd  Gd7  1  0.57126600  0.52565100  0.67487200  1
  Be  Be0  1  0.69288900  0.74888700  0.39945800  1
  Be  Be1  1  0.80711100  0.74888700  0.89945800  1
  Be  Be2  1  0.30711100  0.24888700  0.60054200  1
  Be  Be3  1  0.19288900  0.24888700  0.10054200  1
  O  O0  1  0.01912000  0.74784400  0.99162600  1
  O  O1  1  0.48088000  0.74784400  0.49162600  1
  O  O2  1  0.98088000  0.24784400  0.00837400  1
  O  O3  1  0.51912000  0.24784400  0.50837400  1
  O  O4  1  0.63270000  0.75055700  0.22472800  1
  O  O5  1  0.86730000  0.75055700  0.72472800  1
  O  O6  1  0.36730000  0.25055700  0.77527200  1
  O  O7  1  0.13270000  0.25055700  0.27527200  1
  O  O8  1  0.31945800  0.05650000  0.07219100  1
  O  O9  1  0.19467300  0.44387100  0.56642900  1
  O  O10  1  0.68054200  0.55650000  0.92780900  1
  O  O11  1  0.80532700  0.94387100  0.43357100  1
  O  O12  1  0.69467300  0.94387100  0.93357100  1
  O  O13  1  0.81945800  0.55650000  0.42780900  1
  O  O14  1  0.30532700  0.44387100  0.06642900  1
  O  O15  1  0.18054200  0.05650000  0.57219100  1
  O  O16  1  0.16173100  0.74781100  0.28117500  1
  O  O17  1  0.33826900  0.74781100  0.78117500  1
  O  O18  1  0.83826900  0.24781100  0.71882500  1
  O  O19  1  0.66173100  0.24781100  0.21882500  1
loop_
_geom_bond_atom_site_label_1
_geom_bond_atom_site_label_2
_geom_bond_distance
_geom_bond_site_symmetry_2
Gd0 O9 2.316346 1_555
Gd0 O16 2.331764 1_555
Gd0 O15 2.348300 1_565
Gd0 O13 2.427372 1_455
Gd0 O5 2.446219 1_455
Gd0 O11 2.504582 1_455
Gd0 O1 2.551991 1_555
Gd0 O17 2.955297 1_555
Gd1 O14 2.316346 1_555
Gd1 O17 2.331764 1_554
Gd1 O8 2.348300 1_565
Gd1 O10 2.427372 1_554
Gd1 O4 2.446219 1_555
Gd1 O12 2.504582 1_554
Gd1 O0 2.551991 1_554
Gd1 O16 2.955297 1_555
Gd2 O11 2.316346 1_545
Gd2 O18 2.331764 1_555
Gd2 O13 2.348300 1_555
Gd2 O15 2.427372 1_655
Gd2 O7 2.446219 1_655
Gd2 O9 2.504582 1_655
Gd2 O3 2.551991 1_555
Gd2 O19 2.955297 1_555
Gd3 O12 2.316346 1_545
Gd3 O19 2.331764 1_556
Gd3 O10 2.348300 1_555
Gd3 O8 2.427372 1_556
Gd3 O6 2.446219 1_555
Gd3 O14 2.504582 1_556
Gd3 O2 2.551991 1_556
Gd3 O18 2.955297 1_555
Gd4 O16 2.430851 1_655
Gd4 O0 2.441157 1_654
Gd4 O13 2.527801 1_555
Gd4 O4 2.569288 1_555
Gd4 O7 2.571497 1_655
Gd4 O2 2.574434 1_555
Gd4 O19 2.687635 1_555
Gd4 O14 2.739635 1_655
Gd4 O10 2.873019 1_554
Gd5 O18 2.430851 1_455
Gd5 O2 2.441157 1_456
Gd5 O15 2.527801 1_555
Gd5 O6 2.569288 1_555
Gd5 O5 2.571497 1_445
Gd5 O0 2.574434 1_545
Gd5 O17 2.687635 1_545
Gd5 O12 2.739635 1_445
Gd5 O8 2.873019 1_556
Gd6 O19 2.430851 1_555
Gd6 O3 2.441157 1_555
Gd6 O8 2.527801 1_555
Gd6 O7 2.569288 1_555
Gd6 O4 2.571497 1_545
Gd6 O1 2.574434 1_545
Gd6 O16 2.687635 1_545
Gd6 O11 2.739635 1_545
Gd6 O15 2.873019 1_555
Gd7 O17 2.430851 1_555
Gd7 O1 2.441157 1_555
Gd7 O10 2.527801 1_555
Gd7 O5 2.569288 1_555
Gd7 O6 2.571497 1_555
Gd7 O3 2.574434 1_555
Gd7 O18 2.687635 1_555
Gd7 O9 2.739635 1_555
Gd7 O13 2.873019 1_555
Be0 O11 1.616234 1_555
Be0 O13 1.634772 1_555
Be0 O1 1.644284 1_555
Be0 O4 1.713721 1_555
Be1 O12 1.616234 1_555
Be1 O10 1.634772 1_555
Be1 O0 1.644284 1_655
Be1 O5 1.713721 1_555
Be2 O9 1.616234 1_555
Be2 O15 1.634772 1_555
Be2 O3 1.644284 1_555
Be2 O6 1.713721 1_555
Be3 O14 1.616234 1_555
Be3 O8 1.634772 1_555
Be3 O2 1.644284 1_455
Be3 O7 1.713721 1_555
O0 Sr3 2.524368 1_456
O0 Sr2 2.525382 1_555
O1 Sr0 2.524368 1_555
O1 Sr1 2.525382 1_555
O2 Sr2 2.524368 1_654
O2 Sr3 2.525382 1_545
O3 Sr1 2.524368 1_555
O3 Sr0 2.525382 1_545
O4 Sr3 2.537993 1_555
O4 Sr1 2.575987 1_555
O5 Sr0 2.537993 1_555
O5 Sr2 2.575987 1_655
O6 Sr2 2.537993 1_555
O6 Sr0 2.575987 1_545
O7 Sr1 2.537993 1_555
O7 Sr3 2.575987 1_445
O8 Sr3 2.870171 1_445
O9 Sr2 2.581153 1_555
O9 Sr1 2.743355 1_555
O10 Sr2 2.870171 1_655
O11 Sr3 2.581153 1_555
O11 Sr0 2.743355 1_555
O12 Sr0 2.581153 1_555
O12 Sr3 2.743355 1_556
O13 Sr1 2.870171 1_555
O14 Sr1 2.581153 1_555
O14 Sr2 2.743355 1_554
O15 Sr0 2.870171 1_545
O16 Sr3 2.536047 1_455
O16 Sr1 2.569249 1_555
O17 Sr0 2.536047 1_555
O17 Sr2 2.569249 1_555
O18 Sr2 2.536047 1_655
O18 Sr0 2.569249 1_545
O19 Sr1 2.536047 1_555
O19 Sr3 2.569249 1_545
