# generated using pymatgen
data_VCrFe2
_symmetry_space_group_name_H-M   'P 1'
_cell_length_a   4.96031817
_cell_length_b   4.96031817
_cell_length_c   16.12239099
_cell_angle_alpha   90.00000000
_cell_angle_beta   90.00000000
_cell_angle_gamma   107.59375975
_symmetry_Int_Tables_number   1
_chemical_formula_structural   VCrFe2
_chemical_formula_sum   'V8 Cr8 Fe16'
_cell_volume   378.13188721
_cell_formula_units_Z   8
loop_
 _symmetry_equiv_pos_site_id
 _symmetry_equiv_pos_as_xyz
  1  'x, y, z'
loop_
 _atom_site_type_symbol
 _atom_site_label
 _atom_site_symmetry_multiplicity
 _atom_site_fract_x
 _atom_site_fract_y
 _atom_site_fract_z
 _atom_site_occupancy
  V  V0_0  1  0.25000000  0.25000000  0.12575700  1
  V  V0_1  1  0.25000000  0.25000000  0.62575700  1
  V  V0_2  1  0.25000000  0.75000000  0.12575700  1
  V  V0_3  1  0.25000000  0.75000000  0.62575700  1
  V  V0_4  1  0.75000000  0.25000000  0.12575700  1
  V  V0_5  1  0.75000000  0.25000000  0.62575700  1
  V  V0_6  1  0.75000000  0.75000000  0.12575700  1
  V  V0_7  1  0.75000000  0.75000000  0.62575700  1
  Cr  Cr0_0  1  0.00000000  0.00000000  0.49714200  1
  Cr  Cr0_1  1  1.00000000  0.00000000  0.99714200  1
  Cr  Cr0_2  1  0.00000000  0.50000000  0.49714200  1
  Cr  Cr0_3  1  1.00000000  0.50000000  0.99714200  1
  Cr  Cr0_4  1  0.50000000  0.00000000  0.49714200  1
  Cr  Cr0_5  1  0.50000000  0.00000000  0.99714200  1
  Cr  Cr0_6  1  0.50000000  0.50000000  0.49714200  1
  Cr  Cr0_7  1  0.50000000  0.50000000  0.99714200  1
  Fe  Fe0_0  1  0.00000000  0.00000000  0.25233950  1
  Fe  Fe0_1  1  1.00000000  0.00000000  0.75233950  1
  Fe  Fe0_2  1  0.00000000  0.50000000  0.25233950  1
  Fe  Fe0_3  1  1.00000000  0.50000000  0.75233950  1
  Fe  Fe0_4  1  0.50000000  0.00000000  0.25233950  1
  Fe  Fe0_5  1  0.50000000  0.00000000  0.75233950  1
  Fe  Fe0_6  1  0.50000000  0.50000000  0.25233950  1
  Fe  Fe0_7  1  0.50000000  0.50000000  0.75233950  1
  Fe  Fe1_0  1  0.25000000  0.25000000  0.37476150  1
  Fe  Fe1_1  1  0.25000000  0.25000000  0.87476150  1
  Fe  Fe1_2  1  0.25000000  0.75000000  0.37476150  1
  Fe  Fe1_3  1  0.25000000  0.75000000  0.87476150  1
  Fe  Fe1_4  1  0.75000000  0.25000000  0.37476150  1
  Fe  Fe1_5  1  0.75000000  0.25000000  0.87476150  1
  Fe  Fe1_6  1  0.75000000  0.75000000  0.37476150  1
  Fe  Fe1_7  1  0.75000000  0.75000000  0.87476150  1
loop_
_geom_bond_atom_site_label_1
_geom_bond_atom_site_label_2
_geom_bond_distance
_geom_bond_site_symmetry_2
V0_0 V0_2 2.480159 1_555
V0_0 V0_4 2.480159 1_555
V0_0 V0_4 2.480159 1_455
V0_0 V0_2 2.480159 1_545
V0_1 V0_5 2.480159 1_455
V0_1 V0_3 2.480159 1_545
V0_1 V0_3 2.480159 1_555
V0_1 V0_5 2.480159 1_555
V0_2 V0_6 2.480159 1_555
V0_2 V0_6 2.480159 1_455
V0_3 V0_7 2.480159 1_555
V0_3 V0_7 2.480159 1_455
V0_4 V0_6 2.480159 1_555
V0_4 V0_6 2.480159 1_545
V0_5 V0_7 2.480159 1_545
V0_5 V0_7 2.480159 1_555
Cr0_0 Fe1_0 2.457425 1_555
Cr0_0 Fe1_6 2.457425 1_445
Cr0_0 Cr0_4 2.480159 1_555
Cr0_0 Cr0_2 2.480159 1_555
Cr0_0 Cr0_2 2.480159 1_545
Cr0_0 Cr0_4 2.480159 1_455
Cr0_0 V0_7 2.538836 1_445
Cr0_0 V0_1 2.538836 1_555
Cr0_1 Fe1_1 2.457425 1_655
Cr0_1 Fe1_7 2.457425 1_545
Cr0_1 Cr0_5 2.480159 1_555
Cr0_1 Cr0_3 2.480159 1_555
Cr0_1 Cr0_3 2.480159 1_545
Cr0_1 Cr0_5 2.480159 1_655
Cr0_1 V0_6 2.538836 1_546
Cr0_1 V0_0 2.538836 1_656
Cr0_2 Fe1_4 2.457425 1_455
Cr0_2 Fe1_2 2.457425 1_555
Cr0_2 Cr0_6 2.480159 1_555
Cr0_2 Cr0_6 2.480159 1_455
Cr0_2 V0_3 2.538836 1_555
Cr0_2 V0_5 2.538836 1_455
Cr0_3 Fe1_5 2.457425 1_555
Cr0_3 Fe1_3 2.457425 1_655
Cr0_3 Cr0_7 2.480159 1_655
Cr0_3 Cr0_7 2.480159 1_555
Cr0_3 V0_4 2.538836 1_556
Cr0_3 V0_2 2.538836 1_656
Cr0_4 Fe1_2 2.457425 1_545
Cr0_4 Fe1_4 2.457425 1_555
Cr0_4 Cr0_6 2.480159 1_555
Cr0_4 Cr0_6 2.480159 1_545
Cr0_4 V0_3 2.538836 1_545
Cr0_4 V0_5 2.538836 1_555
Cr0_5 Fe1_5 2.457425 1_555
Cr0_5 Fe1_3 2.457425 1_545
Cr0_5 Cr0_7 2.480159 1_555
Cr0_5 Cr0_7 2.480159 1_545
Cr0_5 V0_4 2.538836 1_556
Cr0_5 V0_2 2.538836 1_546
Cr0_6 Fe1_0 2.457425 1_555
Cr0_6 Fe1_6 2.457425 1_555
Cr0_6 V0_7 2.538836 1_555
Cr0_6 V0_1 2.538836 1_555
Cr0_7 Fe1_7 2.457425 1_555
Cr0_7 Fe1_1 2.457425 1_555
Cr0_7 V0_0 2.538836 1_556
Cr0_7 V0_6 2.538836 1_556
Fe0_0 V0_0 2.512143 1_555
Fe0_0 V0_6 2.512143 1_445
Fe0_1 V0_1 2.512143 1_655
Fe0_1 V0_7 2.512143 1_545
Fe0_2 V0_2 2.512143 1_555
Fe0_2 V0_4 2.512143 1_455
Fe0_3 V0_5 2.512143 1_555
Fe0_3 V0_3 2.512143 1_655
Fe0_4 V0_2 2.512143 1_545
Fe0_4 V0_4 2.512143 1_555
Fe0_5 V0_3 2.512143 1_545
Fe0_5 V0_5 2.512143 1_555
Fe0_6 V0_6 2.512143 1_555
Fe0_6 V0_0 2.512143 1_555
Fe0_7 V0_1 2.512143 1_555
Fe0_7 V0_7 2.512143 1_555
