# generated using pymatgen
data_Yb2SnS5
_symmetry_space_group_name_H-M   'P 1'
_cell_length_a   3.87402600
_cell_length_b   11.45367500
_cell_length_c   15.12453700
_cell_angle_alpha   90.00000000
_cell_angle_beta   90.00000000
_cell_angle_gamma   90.00000000
_symmetry_Int_Tables_number   1
_chemical_formula_structural   Yb2SnS5
_chemical_formula_sum   'Yb8 Sn4 S20'
_cell_volume   671.10345637
_cell_formula_units_Z   4
loop_
 _symmetry_equiv_pos_site_id
 _symmetry_equiv_pos_as_xyz
  1  'x, y, z'
loop_
 _atom_site_type_symbol
 _atom_site_label
 _atom_site_symmetry_multiplicity
 _atom_site_fract_x
 _atom_site_fract_y
 _atom_site_fract_z
 _atom_site_occupancy
  Yb  Yb0  1  0.01979500  0.74205900  0.42494700  1
  Yb  Yb1  1  0.01979500  0.25794100  0.57505300  1
  Yb  Yb2  1  0.98020500  0.24205900  0.07505300  1
  Yb  Yb3  1  0.98020500  0.75794100  0.92494700  1
  Yb  Yb4  1  0.98949900  0.87741200  0.17663200  1
  Yb  Yb5  1  0.98949900  0.12258800  0.82336800  1
  Yb  Yb6  1  0.01050100  0.37741200  0.32336800  1
  Yb  Yb7  1  0.01050100  0.62258800  0.67663200  1
  Sn  Sn0  1  0.52910400  0.06328400  0.37101000  1
  Sn  Sn1  1  0.52910400  0.93671600  0.62899000  1
  Sn  Sn2  1  0.47089600  0.56328400  0.12899000  1
  Sn  Sn3  1  0.47089600  0.43671600  0.87101000  1
  S  S0  1  0.52822100  0.25909700  0.43688400  1
  S  S1  1  0.52822100  0.74090300  0.56311600  1
  S  S2  1  0.47177900  0.75909700  0.06311600  1
  S  S3  1  0.47177900  0.24090300  0.93688400  1
  S  S4  1  0.98186500  0.50000000  0.00000000  1
  S  S5  1  0.01813500  0.00000000  0.50000000  1
  S  S6  1  0.51081900  0.85782000  0.31840600  1
  S  S7  1  0.51081900  0.14218000  0.68159400  1
  S  S8  1  0.48918100  0.35782000  0.18159400  1
  S  S9  1  0.48918100  0.64218000  0.81840600  1
  S  S10  1  0.51107900  0.55046500  0.39093100  1
  S  S11  1  0.51107900  0.44953500  0.60906900  1
  S  S12  1  0.48892100  0.05046500  0.10906900  1
  S  S13  1  0.48892100  0.94953500  0.89093100  1
  S  S14  1  0.96634000  0.61997000  0.23170600  1
  S  S15  1  0.96634000  0.38003000  0.76829400  1
  S  S16  1  0.03366000  0.11997000  0.26829400  1
  S  S17  1  0.03366000  0.88003000  0.73170600  1
  S  S18  1  0.20781600  0.50000000  0.50000000  1
  S  S19  1  0.79218400  0.00000000  0.00000000  1
loop_
_geom_bond_atom_site_label_1
_geom_bond_atom_site_label_2
_geom_bond_distance
_geom_bond_site_symmetry_2
S0 Sn0 2.454121 1_555
S0 Yb1 2.827335 1_655
S0 Yb1 2.871714 1_555
S0 Yb6 2.876606 1_655
S0 Yb6 2.967617 1_555
S1 Sn1 2.454121 1_555
S1 Yb0 2.827335 1_655
S1 Yb0 2.871714 1_555
S1 Yb7 2.876606 1_655
S1 Yb7 2.967617 1_555
S2 Sn2 2.454121 1_555
S2 Yb3 2.827335 1_454
S2 Yb3 2.871714 1_554
S2 Yb4 2.876606 1_455
S2 Yb4 2.967617 1_555
S3 Sn3 2.454121 1_555
S3 Yb2 2.827335 1_456
S3 Yb2 2.871714 1_556
S3 Yb5 2.876606 1_455
S3 Yb5 2.967617 1_555
S4 Sn2 2.814365 1_655
S4 Sn3 2.814365 1_654
S4 Sn2 2.872264 1_555
S4 Sn3 2.872264 1_554
S4 Yb2 3.164949 1_555
S4 Yb3 3.164949 1_554
S5 Sn0 2.814365 1_455
S5 Sn1 2.814365 1_445
S5 Sn0 2.872264 1_555
S5 Sn1 2.872264 1_545
S5 Yb0 3.164949 1_545
S5 Yb1 3.164949 1_555
S6 Sn0 2.485180 1_565
S6 Yb0 2.823660 1_555
S6 Yb4 2.843783 1_555
S6 Yb0 2.870972 1_655
S6 Yb4 2.954157 1_455
S7 Sn1 2.485180 1_545
S7 Yb1 2.823660 1_555
S7 Yb5 2.843783 1_555
S7 Yb1 2.870972 1_655
S7 Yb5 2.954157 1_455
S8 Sn2 2.485180 1_555
S8 Yb2 2.823660 1_555
S8 Yb6 2.843783 1_555
S8 Yb2 2.870972 1_455
S8 Yb6 2.954157 1_655
S9 Sn3 2.485180 1_555
S9 Yb3 2.823660 1_555
S9 Yb7 2.843783 1_555
S9 Yb3 2.870972 1_455
S9 Yb7 2.954157 1_655
S10 S18 2.106088 1_555
S10 Yb0 2.950029 1_555
S10 Yb6 2.952327 1_655
S10 Yb6 2.955264 1_555
S10 Yb0 2.994042 1_655
S11 S18 2.106088 1_555
S11 Yb1 2.950029 1_555
S11 Yb7 2.952327 1_655
S11 Yb7 2.955264 1_555
S11 Yb1 2.994042 1_655
S12 S19 2.106088 1_555
S12 Yb2 2.950029 1_555
S12 Yb4 2.952327 1_445
S12 Yb4 2.955264 1_545
S12 Yb2 2.994042 1_455
S13 S19 2.106088 1_566
S13 Yb3 2.950029 1_555
S13 Yb5 2.952327 1_465
S13 Yb5 2.955264 1_565
S13 Yb3 2.994042 1_455
S14 Sn2 2.553225 1_555
S14 Sn2 2.579867 1_655
S14 Yb4 3.065365 1_555
S14 Yb6 3.109583 1_655
S14 Yb0 3.246595 1_655
S15 Sn3 2.553225 1_555
S15 Sn3 2.579867 1_655
S15 Yb5 3.065365 1_555
S15 Yb7 3.109583 1_655
S15 Yb1 3.246595 1_655
S16 Sn0 2.553225 1_555
S16 Sn0 2.579867 1_455
S16 Yb6 3.065365 1_555
S16 Yb4 3.109583 1_445
S16 Yb2 3.246595 1_455
S17 Sn1 2.553225 1_555
S17 Sn1 2.579867 1_455
S17 Yb7 3.065365 1_555
S17 Yb5 3.109583 1_465
S17 Yb3 3.246595 1_455
S18 Yb1 3.083127 1_555
S18 Yb0 3.083127 1_555
S18 Yb6 3.113286 1_555
S18 Yb7 3.113286 1_555
S19 Yb3 3.083127 1_544
S19 Yb2 3.083127 1_555
S19 Yb5 3.113286 1_554
S19 Yb4 3.113286 1_545
