# generated using pymatgen
data_La2Ta3(SeO4)2
_symmetry_space_group_name_H-M   'P 1'
_cell_length_a   7.72412300
_cell_length_b   10.02764700
_cell_length_c   12.08996200
_cell_angle_alpha   90.00000000
_cell_angle_beta   90.00000000
_cell_angle_gamma   90.00000000
_symmetry_Int_Tables_number   1
_chemical_formula_structural   La2Ta3(SeO4)2
_chemical_formula_sum   'La8 Ta12 Se8 O32'
_cell_volume   936.42533276
_cell_formula_units_Z   4
loop_
 _symmetry_equiv_pos_site_id
 _symmetry_equiv_pos_as_xyz
  1  'x, y, z'
loop_
 _atom_site_type_symbol
 _atom_site_label
 _atom_site_symmetry_multiplicity
 _atom_site_fract_x
 _atom_site_fract_y
 _atom_site_fract_z
 _atom_site_occupancy
  La  La0  1  0.00000000  0.22813900  0.34873100  1
  La  La1  1  0.00000000  0.77186100  0.65126900  1
  La  La2  1  0.50000000  0.27186100  0.84873100  1
  La  La3  1  0.50000000  0.72813900  0.15126900  1
  La  La4  1  0.00000000  0.70776500  0.15646400  1
  La  La5  1  0.00000000  0.29223500  0.84353600  1
  La  La6  1  0.50000000  0.79223500  0.65646400  1
  La  La7  1  0.50000000  0.20776500  0.34353600  1
  Ta  Ta0  1  0.25015200  0.36403800  0.08286400  1
  Ta  Ta1  1  0.74984800  0.63596200  0.91713600  1
  Ta  Ta2  1  0.25015200  0.63596200  0.91713600  1
  Ta  Ta3  1  0.24984800  0.13596200  0.58286400  1
  Ta  Ta4  1  0.74984800  0.36403800  0.08286400  1
  Ta  Ta5  1  0.75015200  0.86403800  0.41713600  1
  Ta  Ta6  1  0.24984800  0.86403800  0.41713600  1
  Ta  Ta7  1  0.75015200  0.13596200  0.58286400  1
  Ta  Ta8  1  0.21530500  0.00000000  0.00000000  1
  Ta  Ta9  1  0.78469500  0.00000000  0.00000000  1
  Ta  Ta10  1  0.28469500  0.50000000  0.50000000  1
  Ta  Ta11  1  0.71530500  0.50000000  0.50000000  1
  Se  Se0  1  0.00000000  0.01802700  0.16138000  1
  Se  Se1  1  0.00000000  0.98197300  0.83862000  1
  Se  Se2  1  0.50000000  0.48197300  0.66138000  1
  Se  Se3  1  0.50000000  0.51802700  0.33862000  1
  Se  Se4  1  0.00000000  0.52400000  0.36336600  1
  Se  Se5  1  0.00000000  0.47600000  0.63663400  1
  Se  Se6  1  0.50000000  0.97600000  0.86336600  1
  Se  Se7  1  0.50000000  0.02400000  0.13663400  1
  O  O0  1  0.00000000  0.36661100  0.05218400  1
  O  O1  1  0.00000000  0.63338900  0.94781600  1
  O  O2  1  0.50000000  0.13338900  0.55218400  1
  O  O3  1  0.50000000  0.86661100  0.44781600  1
  O  O4  1  0.24783400  0.28821800  0.22275300  1
  O  O5  1  0.75216600  0.71178200  0.77724700  1
  O  O6  1  0.24783400  0.71178200  0.77724700  1
  O  O7  1  0.25216600  0.21178200  0.72275300  1
  O  O8  1  0.75216600  0.28821800  0.22275300  1
  O  O9  1  0.74783400  0.78821800  0.27724700  1
  O  O10  1  0.25216600  0.78821800  0.27724700  1
  O  O11  1  0.74783400  0.21178200  0.72275300  1
  O  O12  1  0.00000000  0.14779100  0.55176200  1
  O  O13  1  0.00000000  0.85220900  0.44823800  1
  O  O14  1  0.50000000  0.35220900  0.05176200  1
  O  O15  1  0.50000000  0.64779100  0.94823800  1
  O  O16  1  0.26351000  0.30274600  0.47684800  1
  O  O17  1  0.73649000  0.69725400  0.52315200  1
  O  O18  1  0.26351000  0.69725400  0.52315200  1
  O  O19  1  0.23649000  0.19725400  0.97684800  1
  O  O20  1  0.73649000  0.30274600  0.47684800  1
  O  O21  1  0.76351000  0.80274600  0.02315200  1
  O  O22  1  0.23649000  0.80274600  0.02315200  1
  O  O23  1  0.76351000  0.19725400  0.97684800  1
  O  O24  1  0.24484600  0.05636700  0.39813500  1
  O  O25  1  0.75515400  0.94363300  0.60186500  1
  O  O26  1  0.24484600  0.94363300  0.60186500  1
  O  O27  1  0.25515400  0.44363300  0.89813500  1
  O  O28  1  0.75515400  0.05636700  0.39813500  1
  O  O29  1  0.74484600  0.55636700  0.10186500  1
  O  O30  1  0.25515400  0.55636700  0.10186500  1
  O  O31  1  0.74484600  0.44363300  0.89813500  1
loop_
_geom_bond_atom_site_label_1
_geom_bond_atom_site_label_2
_geom_bond_distance
_geom_bond_site_symmetry_2
La0 O8 2.519371 1_455
La0 O4 2.519371 1_555
La0 O12 2.583486 1_555
La0 O24 2.626856 1_555
La0 O28 2.626856 1_455
La0 O20 2.664896 1_455
La0 O16 2.664896 1_555
La0 Se4 2.972061 1_555
La0 Se0 3.093489 1_555
La1 O5 2.519371 1_455
La1 O6 2.519371 1_555
La1 O13 2.583486 1_555
La1 O26 2.626856 1_555
La1 O25 2.626856 1_455
La1 O17 2.664896 1_455
La1 O18 2.664896 1_555
La1 Se5 2.972061 1_555
La1 Se1 3.093489 1_555
La2 O7 2.519371 1_555
La2 O11 2.519371 1_555
La2 O14 2.583486 1_556
La2 O27 2.626856 1_555
La2 O31 2.626856 1_555
La2 O19 2.664896 1_555
La2 O23 2.664896 1_555
La2 Se6 2.972061 1_545
La2 Se2 3.093489 1_555
La3 O9 2.519371 1_555
La3 O10 2.519371 1_555
La3 O15 2.583486 1_554
La3 O29 2.626856 1_555
La3 O30 2.626856 1_555
La3 O21 2.664896 1_555
La3 O22 2.664896 1_555
La3 Se7 2.972061 1_565
La3 Se3 3.093489 1_555
La4 O10 2.564564 1_555
La4 O9 2.564564 1_455
La4 O30 2.573863 1_555
La4 O29 2.573863 1_455
La4 O21 2.615642 1_455
La4 O22 2.615642 1_555
La4 O1 2.630491 1_554
La4 Se4 3.106903 1_555
La4 Se0 3.111765 1_565
La5 O7 2.564564 1_555
La5 O11 2.564564 1_455
La5 O27 2.573863 1_555
La5 O31 2.573863 1_455
La5 O23 2.615642 1_455
La5 O19 2.615642 1_555
La5 O0 2.630491 1_556
La5 Se5 3.106903 1_555
La5 Se1 3.111765 1_545
La6 O5 2.564564 1_555
La6 O6 2.564564 1_555
La6 O25 2.573863 1_555
La6 O26 2.573863 1_555
La6 O18 2.615642 1_555
La6 O17 2.615642 1_555
La6 O3 2.630491 1_555
La6 Se6 3.106903 1_555
La6 Se2 3.111765 1_555
La7 O8 2.564564 1_555
La7 O4 2.564564 1_555
La7 O28 2.573863 1_555
La7 O24 2.573863 1_555
La7 O16 2.615642 1_555
La7 O20 2.615642 1_555
La7 O2 2.630491 1_555
La7 Se7 3.106903 1_555
La7 Se3 3.111765 1_555
Se0 Ta8 2.570037 1_555
Se0 Ta9 2.570037 1_455
Se1 Ta8 2.570037 1_566
Se1 Ta9 2.570037 1_466
Se2 Ta10 2.570037 1_555
Se2 Ta11 2.570037 1_555
Se3 Ta11 2.570037 1_555
Se3 Ta10 2.570037 1_555
Se4 Ta10 2.760865 1_555
Se4 Ta11 2.760865 1_455
Se5 Ta10 2.760865 1_555
Se5 Ta11 2.760865 1_455
Se6 Ta9 2.760865 1_566
Se6 Ta8 2.760865 1_566
Se7 Ta9 2.760865 1_555
Se7 Ta8 2.760865 1_555
O0 Ta0 1.967654 1_555
O0 Ta4 1.967654 1_455
O1 Ta2 1.967654 1_555
O1 Ta1 1.967654 1_455
O2 Ta7 1.967654 1_555
O2 Ta3 1.967654 1_555
O3 Ta5 1.967654 1_555
O3 Ta6 1.967654 1_555
O4 Ta0 1.854375 1_555
O5 Ta1 1.854375 1_555
O6 Ta2 1.854375 1_555
O7 Ta3 1.854375 1_555
O8 Ta4 1.854375 1_555
O9 Ta5 1.854375 1_555
O10 Ta6 1.854375 1_555
O11 Ta7 1.854375 1_555
O12 Ta3 1.969723 1_555
O12 Ta7 1.969723 1_455
O13 Ta6 1.969723 1_555
O13 Ta5 1.969723 1_455
O14 Ta4 1.969723 1_555
O14 Ta0 1.969723 1_555
O15 Ta1 1.969723 1_555
O15 Ta2 1.969723 1_555
O16 Ta10 2.004391 1_555
O16 Ta3 2.109753 1_555
O17 Ta11 2.004391 1_555
O17 Ta5 2.109753 1_555
O18 Ta10 2.004391 1_555
O18 Ta6 2.109753 1_555
O19 Ta8 2.004391 1_556
O19 Ta0 2.109753 1_556
O20 Ta11 2.004391 1_555
O20 Ta7 2.109753 1_555
O21 Ta9 2.004391 1_565
O21 Ta1 2.109753 1_554
O22 Ta8 2.004391 1_565
O22 Ta2 2.109753 1_554
O23 Ta9 2.004391 1_556
O23 Ta4 2.109753 1_556
O24 Ta6 1.942625 1_545
O24 Ta3 2.372017 1_555
O25 Ta7 1.942625 1_565
O25 Ta5 2.372017 1_555
O26 Ta3 1.942625 1_565
O26 Ta6 2.372017 1_555
O27 Ta2 1.942625 1_555
O27 Ta0 2.372017 1_556
O28 Ta5 1.942625 1_545
O28 Ta7 2.372017 1_555
O29 Ta4 1.942625 1_555
O29 Ta1 2.372017 1_554
O30 Ta0 1.942625 1_555
O30 Ta2 2.372017 1_554
O31 Ta1 1.942625 1_555
O31 Ta4 2.372017 1_556
