# generated using pymatgen
data_SrGdCoO4
_symmetry_space_group_name_H-M   'P 1'
_cell_length_a   6.63239029
_cell_length_b   6.63239029
_cell_length_c   6.63239029
_cell_angle_alpha   146.87504285
_cell_angle_beta   146.87504285
_cell_angle_gamma   47.54883736
_symmetry_Int_Tables_number   1
_chemical_formula_structural   SrGdCoO4
_chemical_formula_sum   'Sr1 Gd1 Co1 O4'
_cell_volume   86.78255134
_cell_formula_units_Z   1
loop_
 _symmetry_equiv_pos_site_id
 _symmetry_equiv_pos_as_xyz
  1  'x, y, z'
loop_
 _atom_site_type_symbol
 _atom_site_label
 _atom_site_symmetry_multiplicity
 _atom_site_fract_x
 _atom_site_fract_y
 _atom_site_fract_z
 _atom_site_occupancy
  Sr  Sr0  1  0.64304000  0.64304000  0.00000000  1
  Gd  Gd0  1  0.36273000  0.36273000  0.00000000  1
  Co  Co0  1  0.00496900  0.00496900  0.00000000  1
  O  O0  1  0.84111200  0.84111200  0.00000000  1
  O  O1  1  0.17169100  0.17169100  0.00000000  1
  O  O2  1  0.98822900  0.48822900  0.50000000  1
  O  O3  1  0.48822900  0.98822900  0.50000000  1
loop_
_geom_bond_atom_site_label_1
_geom_bond_atom_site_label_2
_geom_bond_distance
_geom_bond_site_symmetry_2
Gd0 O1 2.319047 1_555
Gd0 O2 2.428043 1_555
Gd0 O2 2.428043 1_454
Gd0 O3 2.428043 1_544
Gd0 O3 2.428043 1_555
Gd0 O0 2.686608 1_545
Gd0 O0 2.686608 1_444
Gd0 O0 2.686608 1_455
Gd0 O0 2.686608 1_556
Co0 O2 1.901523 1_444
Co0 O3 1.901523 1_444
Co0 O2 1.901523 1_455
Co0 O3 1.901523 1_545
Co0 O0 1.989081 1_445
Co0 O1 2.023860 1_555
O0 Sr0 2.404421 1_555
O1 Sr0 2.696286 1_455
O1 Sr0 2.696286 1_556
O1 Sr0 2.696286 1_444
O1 Sr0 2.696286 1_545
O2 Sr0 2.665737 1_555
O2 Sr0 2.665737 1_656
O3 Sr0 2.665737 1_555
O3 Sr0 2.665737 1_566
