# generated using pymatgen
data_MgAlO2F5
_symmetry_space_group_name_H-M   'P 1'
_cell_length_a   7.16949590
_cell_length_b   7.16949590
_cell_length_c   7.16949590
_cell_angle_alpha   121.15112882
_cell_angle_beta   120.77259372
_cell_angle_gamma   88.34224954
_symmetry_Int_Tables_number   1
_chemical_formula_structural   MgAlO2F5
_chemical_formula_sum   'Mg2 Al2 O4 F10'
_cell_volume   256.67709865
_cell_formula_units_Z   2
loop_
 _symmetry_equiv_pos_site_id
 _symmetry_equiv_pos_as_xyz
  1  'x, y, z'
loop_
 _atom_site_type_symbol
 _atom_site_label
 _atom_site_symmetry_multiplicity
 _atom_site_fract_x
 _atom_site_fract_y
 _atom_site_fract_z
 _atom_site_occupancy
  Mg  Mg0  1  0.00000000  0.50000000  0.50000000  1
  Mg  Mg1  1  0.50000000  0.00000000  0.50000000  1
  Al  Al0  1  0.00000000  0.00000000  0.50000000  1
  Al  Al1  1  0.00000000  0.50000000  0.00000000  1
  O  O0  1  0.64618900  0.88572000  0.76046900  1
  O  O1  1  0.35381100  0.11428000  0.23953100  1
  O  O2  1  0.62525100  0.38572000  0.23953100  1
  O  O3  1  0.37474900  0.61428000  0.76046900  1
  F  F0  1  0.95379200  0.17968800  0.37952000  1
  F  F1  1  0.04620800  0.42572800  0.22589700  1
  F  F2  1  0.30016800  0.67968800  0.22589700  1
  F  F3  1  0.69983200  0.92572800  0.37952000  1
  F  F4  1  0.04620800  0.82031200  0.62048000  1
  F  F5  1  0.95379200  0.57427200  0.77410300  1
  F  F6  1  0.69983200  0.32031200  0.77410300  1
  F  F7  1  0.30016800  0.07427200  0.62048000  1
  F  F8  1  0.07495500  0.25000000  0.82495500  1
  F  F9  1  0.92504500  0.75000000  0.17504500  1
loop_
_geom_bond_atom_site_label_1
_geom_bond_atom_site_label_2
_geom_bond_distance
_geom_bond_site_symmetry_2
Mg0 O2 2.188062 1_455
Mg0 O3 2.188062 1_555
Mg1 O0 2.188062 1_545
Mg1 O1 2.188062 1_555
Al0 F7 1.830105 1_555
Al0 F0 1.830105 1_455
Al0 F3 1.830105 1_445
Al0 F4 1.830105 1_545
Al0 F8 1.839439 1_555
Al0 F9 1.839439 1_445
Al1 F2 1.830105 1_555
Al1 F6 1.830105 1_454
Al1 F1 1.830112 1_555
Al1 F5 1.830112 1_454
Al1 F9 1.839439 1_455
Al1 F8 1.839439 1_554
F0 Mg0 1.956680 1_655
F1 Mg0 1.956673 1_555
F2 Mg1 1.956679 1_565
F3 Mg1 1.956680 1_565
F4 Mg0 1.956680 1_555
F5 Mg0 1.956673 1_655
F6 Mg1 1.956679 1_555
F7 Mg1 1.956680 1_555
