# generated using pymatgen
data_Tb3Si2Ni
_symmetry_space_group_name_H-M   'P 1'
_cell_length_a   4.14062400
_cell_length_b   11.24794700
_cell_length_c   11.33319200
_cell_angle_alpha   90.00000000
_cell_angle_beta   90.00000000
_cell_angle_gamma   90.00000000
_symmetry_Int_Tables_number   1
_chemical_formula_structural   Tb3Si2Ni
_chemical_formula_sum   'Tb12 Si8 Ni4'
_cell_volume   527.82663633
_cell_formula_units_Z   4
loop_
 _symmetry_equiv_pos_site_id
 _symmetry_equiv_pos_as_xyz
  1  'x, y, z'
loop_
 _atom_site_type_symbol
 _atom_site_label
 _atom_site_symmetry_multiplicity
 _atom_site_fract_x
 _atom_site_fract_y
 _atom_site_fract_z
 _atom_site_occupancy
  Tb  Tb0  1  0.25000000  0.06011400  0.88147200  1
  Tb  Tb1  1  0.25000000  0.43988600  0.38147200  1
  Tb  Tb2  1  0.75000000  0.93988600  0.11852800  1
  Tb  Tb3  1  0.75000000  0.56011400  0.61852800  1
  Tb  Tb4  1  0.25000000  0.12471600  0.55771900  1
  Tb  Tb5  1  0.25000000  0.37528400  0.05771900  1
  Tb  Tb6  1  0.75000000  0.87528400  0.44228100  1
  Tb  Tb7  1  0.75000000  0.62471600  0.94228100  1
  Tb  Tb8  1  0.25000000  0.80259100  0.71385100  1
  Tb  Tb9  1  0.25000000  0.69740900  0.21385100  1
  Tb  Tb10  1  0.75000000  0.19740900  0.28614900  1
  Tb  Tb11  1  0.75000000  0.30259100  0.78614900  1
  Si  Si0  1  0.25000000  0.81447800  0.97404300  1
  Si  Si1  1  0.25000000  0.68552200  0.47404300  1
  Si  Si2  1  0.75000000  0.18552200  0.02595700  1
  Si  Si3  1  0.75000000  0.31447800  0.52595700  1
  Si  Si4  1  0.25000000  0.49492100  0.80328500  1
  Si  Si5  1  0.25000000  0.00507900  0.30328500  1
  Si  Si6  1  0.75000000  0.50507900  0.19671500  1
  Si  Si7  1  0.75000000  0.99492100  0.69671500  1
  Ni  Ni0  1  0.25000000  0.36685200  0.62876600  1
  Ni  Ni1  1  0.25000000  0.13314800  0.12876600  1
  Ni  Ni2  1  0.75000000  0.63314800  0.37123400  1
  Ni  Ni3  1  0.75000000  0.86685200  0.87123400  1
loop_
_geom_bond_atom_site_label_1
_geom_bond_atom_site_label_2
_geom_bond_distance
_geom_bond_site_symmetry_2
Si0 Tb8 2.951836 1_555
Si0 Tb0 2.955382 1_565
Si0 Tb2 2.992869 1_556
Si0 Tb2 2.992869 1_456
Si0 Tb7 2.995258 1_455
Si0 Tb7 2.995258 1_555
Si0 Tb9 3.019985 1_556
Si1 Tb9 2.951836 1_555
Si1 Tb1 2.955382 1_555
Si1 Tb3 2.992869 1_455
Si1 Tb3 2.992869 1_555
Si1 Tb6 2.995258 1_455
Si1 Tb6 2.995258 1_555
Si1 Tb8 3.019985 1_555
Si2 Tb10 2.951836 1_555
Si2 Tb2 2.955382 1_545
Si2 Tb0 2.992869 1_654
Si2 Tb0 2.992869 1_554
Si2 Tb5 2.995258 1_555
Si2 Tb5 2.995258 1_655
Si2 Tb11 3.019985 1_554
Si3 Tb11 2.951836 1_555
Si3 Tb3 2.955382 1_555
Si3 Tb1 2.992869 1_555
Si3 Tb1 2.992869 1_655
Si3 Tb4 2.995258 1_555
Si3 Tb4 2.995258 1_655
Si3 Tb10 3.019985 1_555
Si4 Tb7 2.983128 1_455
Si4 Tb7 2.983128 1_555
Si4 Tb11 3.000642 1_555
Si4 Tb11 3.000642 1_455
Si4 Tb3 3.034512 1_455
Si4 Tb3 3.034512 1_555
Si4 Tb5 3.182088 1_556
Si4 Tb8 3.606032 1_555
Si5 Tb6 2.983128 1_445
Si5 Tb6 2.983128 1_545
Si5 Tb10 3.000642 1_455
Si5 Tb10 3.000642 1_555
Si5 Tb2 3.034512 1_545
Si5 Tb2 3.034512 1_445
Si5 Tb4 3.182088 1_555
Si5 Tb9 3.606032 1_545
Si6 Tb5 2.983128 1_655
Si6 Tb5 2.983128 1_555
Si6 Tb9 3.000642 1_555
Si6 Tb9 3.000642 1_655
Si6 Tb1 3.034512 1_555
Si6 Tb1 3.034512 1_655
Si6 Tb7 3.182088 1_554
Si6 Tb10 3.606032 1_555
Si7 Tb4 2.983128 1_565
Si7 Tb4 2.983128 1_665
Si7 Tb8 3.000642 1_555
Si7 Tb8 3.000642 1_655
Si7 Tb0 3.034512 1_565
Si7 Tb0 3.034512 1_665
Si7 Tb6 3.182088 1_555
Si7 Tb11 3.606032 1_565
Ni0 Si4 2.446834 1_555
Ni0 Si3 2.447614 1_455
Ni0 Si3 2.447614 1_555
Ni0 Tb11 2.826668 1_455
Ni0 Tb11 2.826668 1_555
Ni0 Tb4 2.840064 1_555
Ni0 Tb1 2.920543 1_555
Ni0 Tb3 3.004174 1_455
Ni0 Tb3 3.004174 1_555
Ni1 Si5 2.446834 1_555
Ni1 Si2 2.447614 1_455
Ni1 Si2 2.447614 1_555
Ni1 Tb10 2.826668 1_455
Ni1 Tb10 2.826668 1_555
Ni1 Tb5 2.840064 1_555
Ni1 Tb0 2.920543 1_554
Ni1 Tb2 3.004174 1_445
Ni1 Tb2 3.004174 1_545
Ni2 Si6 2.446834 1_555
Ni2 Si1 2.447614 1_655
Ni2 Si1 2.447614 1_555
Ni2 Tb9 2.826668 1_655
Ni2 Tb9 2.826668 1_555
Ni2 Tb6 2.840064 1_555
Ni2 Tb3 2.920543 1_555
Ni2 Tb1 3.004174 1_555
Ni2 Tb1 3.004174 1_655
Ni3 Si7 2.446834 1_555
Ni3 Si0 2.447614 1_655
Ni3 Si0 2.447614 1_555
Ni3 Tb8 2.826668 1_555
Ni3 Tb8 2.826668 1_655
Ni3 Tb7 2.840064 1_555
Ni3 Tb2 2.920543 1_556
Ni3 Tb0 3.004174 1_665
Ni3 Tb0 3.004174 1_565
