# generated using pymatgen
data_KCaNdWO6
_symmetry_space_group_name_H-M   'P 1'
_cell_length_a   8.47539079
_cell_length_b   8.43173505
_cell_length_c   8.42021395
_cell_angle_alpha   90.00000000
_cell_angle_beta   90.00000000
_cell_angle_gamma   90.00000000
_symmetry_Int_Tables_number   1
_chemical_formula_structural   KCaNdWO6
_chemical_formula_sum   'K4 Ca4 Nd4 W4 O24'
_cell_volume   601.72743087
_cell_formula_units_Z   4
loop_
 _symmetry_equiv_pos_site_id
 _symmetry_equiv_pos_as_xyz
  1  'x, y, z'
loop_
 _atom_site_type_symbol
 _atom_site_label
 _atom_site_symmetry_multiplicity
 _atom_site_fract_x
 _atom_site_fract_y
 _atom_site_fract_z
 _atom_site_occupancy
  K  K0  1  -0.00000000  0.50000000  0.50000000  1
  K  K1  1  0.50000000  0.00000000  0.50000000  1
  K  K2  1  0.50000000  0.00000000  -0.00000000  1
  K  K3  1  -0.00000000  0.50000000  0.00000000  1
  Ca  Ca0  1  0.50000000  0.50000000  0.00000000  1
  Ca  Ca1  1  -0.00000000  0.00000000  0.50000000  1
  Ca  Ca2  1  -0.00000000  0.00000000  0.00000000  1
  Ca  Ca3  1  0.50000000  0.50000000  0.50000000  1
  Nd  Nd0  1  0.75000000  0.75000000  0.75000000  1
  Nd  Nd1  1  0.25000000  0.25000000  0.75000000  1
  Nd  Nd2  1  0.25000000  0.75000000  0.25000000  1
  Nd  Nd3  1  0.75000000  0.25000000  0.25000000  1
  W  W0  1  0.25000000  0.25000000  0.25000000  1
  W  W1  1  0.75000000  0.75000000  0.25000000  1
  W  W2  1  0.75000000  0.25000000  0.75000000  1
  W  W3  1  0.25000000  0.75000000  0.75000000  1
  O  O0  1  0.02213747  0.20290027  0.28186384  1
  O  O1  1  0.97786253  0.79709973  0.28186384  1
  O  O2  1  0.97786253  0.20290027  0.71813616  1
  O  O3  1  0.02213747  0.79709973  0.71813616  1
  O  O4  1  0.27152415  0.02337510  0.21695511  1
  O  O5  1  0.27152415  0.97662490  0.78304489  1
  O  O6  1  0.72847585  0.97662490  0.21695511  1
  O  O7  1  0.72847585  0.02337510  0.78304489  1
  O  O8  1  0.21686238  0.27442893  0.02301216  1
  O  O9  1  0.78313762  0.27442893  0.97698784  1
  O  O10  1  0.21686238  0.72557107  0.97698784  1
  O  O11  1  0.78313762  0.72557107  0.02301216  1
  O  O12  1  0.47786253  0.29709973  0.21813616  1
  O  O13  1  0.52213747  0.70290027  0.21813616  1
  O  O14  1  0.52213747  0.29709973  0.78186384  1
  O  O15  1  0.47786253  0.70290027  0.78186384  1
  O  O16  1  0.22847585  0.47662490  0.28304489  1
  O  O17  1  0.22847585  0.52337510  0.71695511  1
  O  O18  1  0.77152415  0.52337510  0.28304489  1
  O  O19  1  0.77152415  0.47662490  0.71695511  1
  O  O20  1  0.28313762  0.22557107  0.47698784  1
  O  O21  1  0.71686238  0.22557107  0.52301216  1
  O  O22  1  0.28313762  0.77442893  0.52301216  1
  O  O23  1  0.71686238  0.77442893  0.47698784  1
loop_
_geom_bond_atom_site_label_1
_geom_bond_atom_site_label_2
_geom_bond_distance
_geom_bond_site_symmetry_2
K0 O17 2.669420 1_555
K0 O16 2.669420 1_555
K0 O19 2.669420 1_455
K0 O18 2.669420 1_455
K0 O1 3.111948 1_455
K0 O0 3.111948 1_555
K0 O2 3.111948 1_455
K0 O3 3.111948 1_555
K1 O20 2.652018 1_555
K1 O22 2.652018 1_545
K1 O21 2.652018 1_555
K1 O23 2.652018 1_545
K1 O7 3.077123 1_555
K1 O5 3.077123 1_545
K1 O4 3.077123 1_555
K1 O6 3.077123 1_545
K2 O5 2.669420 1_544
K2 O4 2.669420 1_555
K2 O7 2.669420 1_554
K2 O6 2.669420 1_545
K2 O13 3.111948 1_545
K2 O12 3.111948 1_555
K2 O15 3.111948 1_544
K2 O14 3.111948 1_554
K3 O8 2.652018 1_555
K3 O10 2.652018 1_554
K3 O11 2.652018 1_455
K3 O9 2.652018 1_454
K3 O18 3.077123 1_455
K3 O19 3.077123 1_454
K3 O16 3.077123 1_555
K3 O17 3.077123 1_554
Ca0 O12 2.517083 1_555
Ca0 O14 2.517083 1_554
Ca0 O13 2.517083 1_555
Ca0 O15 2.517083 1_554
Ca1 O0 2.517083 1_555
Ca1 O2 2.517083 1_455
Ca1 O3 2.517083 1_545
Ca1 O1 2.517083 1_445
Ca2 O0 2.931698 1_555
Ca2 O2 2.931698 1_454
Ca2 O3 2.931698 1_544
Ca2 O1 2.931698 1_445
Ca2 O5 2.944815 1_544
Ca2 O4 2.944815 1_555
Ca2 O7 2.944815 1_454
Ca2 O6 2.944815 1_445
Ca2 O8 2.961411 1_555
Ca2 O10 2.961411 1_544
Ca2 O9 2.961411 1_454
Ca2 O11 2.961411 1_445
Ca3 O15 2.931698 1_555
Ca3 O12 2.931698 1_555
Ca3 O13 2.931698 1_555
Ca3 O14 2.931698 1_555
Ca3 O18 2.944815 1_555
Ca3 O19 2.944815 1_555
Ca3 O16 2.944815 1_555
Ca3 O17 2.944815 1_555
Ca3 O20 2.961411 1_555
Ca3 O23 2.961411 1_555
Ca3 O21 2.961411 1_555
Ca3 O22 2.961411 1_555
Nd0 O11 2.325056 1_556
Nd0 O23 2.325056 1_555
Nd0 O7 2.328915 1_565
Nd0 O19 2.328915 1_555
Nd0 O15 2.355740 1_555
Nd0 O3 2.355740 1_655
Nd1 O8 2.325056 1_556
Nd1 O20 2.325056 1_555
Nd1 O17 2.328915 1_555
Nd1 O5 2.328915 1_545
Nd1 O2 2.355740 1_455
Nd1 O14 2.355740 1_555
Nd2 O22 2.325056 1_555
Nd2 O10 2.325056 1_554
Nd2 O16 2.328915 1_555
Nd2 O4 2.328915 1_565
Nd2 O13 2.355740 1_555
Nd2 O1 2.355740 1_455
Nd3 O21 2.325056 1_555
Nd3 O9 2.325056 1_554
Nd3 O6 2.328915 1_545
Nd3 O18 2.328915 1_555
Nd3 O12 2.355740 1_555
Nd3 O0 2.355740 1_655
O0 W0 1.989805 1_555
O1 W1 1.989805 1_555
O2 W2 1.989805 1_555
O3 W3 1.989805 1_555
O4 W0 1.939591 1_555
O5 W3 1.939591 1_555
O6 W1 1.939591 1_555
O7 W2 1.939591 1_555
O8 W0 1.942761 1_555
O9 W2 1.942761 1_555
O10 W3 1.942761 1_555
O11 W1 1.942761 1_555
O12 W0 1.989805 1_555
O13 W1 1.989805 1_555
O14 W2 1.989805 1_555
O15 W3 1.989805 1_555
O16 W0 1.939591 1_555
O17 W3 1.939591 1_555
O18 W1 1.939591 1_555
O19 W2 1.939591 1_555
O20 W0 1.942761 1_555
O21 W2 1.942761 1_555
O22 W3 1.942761 1_555
O23 W1 1.942761 1_555
