# generated using pymatgen
data_BaNb4O11
_symmetry_space_group_name_H-M   'P 1'
_cell_length_a   6.40320235
_cell_length_b   6.40320235
_cell_length_c   12.66412300
_cell_angle_alpha   90.00000000
_cell_angle_beta   90.00000000
_cell_angle_gamma   120.00000360
_symmetry_Int_Tables_number   1
_chemical_formula_structural   BaNb4O11
_chemical_formula_sum   'Ba2 Nb8 O22'
_cell_volume   449.67649622
_cell_formula_units_Z   2
loop_
 _symmetry_equiv_pos_site_id
 _symmetry_equiv_pos_as_xyz
  1  'x, y, z'
loop_
 _atom_site_type_symbol
 _atom_site_label
 _atom_site_symmetry_multiplicity
 _atom_site_fract_x
 _atom_site_fract_y
 _atom_site_fract_z
 _atom_site_occupancy
  Ba  Ba0  1  0.66666700  0.33333300  0.25000000  1
  Ba  Ba1  1  0.33333300  0.66666700  0.75000000  1
  Nb  Nb0  1  0.33333300  0.66666700  0.25000000  1
  Nb  Nb1  1  0.66666700  0.33333300  0.75000000  1
  Nb  Nb2  1  0.35443200  0.35443200  0.50000000  1
  Nb  Nb3  1  0.64556800  0.00000000  0.50000000  1
  Nb  Nb4  1  0.00000000  0.64556800  0.50000000  1
  Nb  Nb5  1  0.64556800  0.64556800  0.00000000  1
  Nb  Nb6  1  0.35443200  0.00000000  0.00000000  1
  Nb  Nb7  1  0.00000000  0.35443200  0.00000000  1
  O  O0  1  0.33333300  0.66666700  0.96648200  1
  O  O1  1  0.66666700  0.33333300  0.03351800  1
  O  O2  1  0.66666700  0.33333300  0.46648200  1
  O  O3  1  0.33333300  0.66666700  0.53351800  1
  O  O4  1  0.75652400  0.75652400  0.50000000  1
  O  O5  1  0.24347600  0.00000000  0.50000000  1
  O  O6  1  0.00000000  0.24347600  0.50000000  1
  O  O7  1  0.24347600  0.24347600  0.00000000  1
  O  O8  1  0.75652400  0.00000000  0.00000000  1
  O  O9  1  0.00000000  0.75652400  0.00000000  1
  O  O10  1  0.36413100  0.92900200  0.15218700  1
  O  O11  1  0.07099800  0.43512800  0.15218700  1
  O  O12  1  0.56487200  0.63586900  0.15218700  1
  O  O13  1  0.92900200  0.36413100  0.84781300  1
  O  O14  1  0.43512800  0.07099800  0.84781300  1
  O  O15  1  0.63586900  0.56487200  0.84781300  1
  O  O16  1  0.63586900  0.07099800  0.65218700  1
  O  O17  1  0.92900200  0.56487200  0.65218700  1
  O  O18  1  0.43512800  0.36413100  0.65218700  1
  O  O19  1  0.07099800  0.63586900  0.34781300  1
  O  O20  1  0.56487200  0.92900200  0.34781300  1
  O  O21  1  0.36413100  0.43512800  0.34781300  1
loop_
_geom_bond_atom_site_label_1
_geom_bond_atom_site_label_2
_geom_bond_distance
_geom_bond_site_symmetry_2
Ba0 O19 2.640968 1_655
Ba0 O10 2.640968 1_545
Ba0 O11 2.640968 1_655
Ba0 O20 2.640968 1_545
Ba0 O21 2.640968 1_555
Ba0 O12 2.640968 1_555
Ba0 O2 2.741555 1_555
Ba0 O1 2.741555 1_555
Ba1 O13 2.640968 1_455
Ba1 O16 2.640968 1_565
Ba1 O14 2.640968 1_565
Ba1 O17 2.640968 1_455
Ba1 O18 2.640968 1_555
Ba1 O15 2.640968 1_555
Ba1 O0 2.741555 1_555
Ba1 O3 2.741555 1_555
Nb0 O10 2.015867 1_555
Nb0 O19 2.015867 1_555
Nb0 O20 2.015871 1_555
Nb0 O11 2.015871 1_555
Nb0 O12 2.015877 1_555
Nb0 O21 2.015877 1_555
Nb1 O13 2.015867 1_555
Nb1 O16 2.015867 1_555
Nb1 O14 2.015871 1_555
Nb1 O17 2.015871 1_555
Nb1 O15 2.015877 1_555
Nb1 O18 2.015877 1_555
Nb2 O18 1.988291 1_555
Nb2 O21 1.988291 1_555
Nb2 O5 2.010717 1_555
Nb2 O6 2.010717 1_555
Nb2 O3 2.113234 1_555
Nb2 O2 2.113234 1_555
Nb3 O20 1.988292 1_545
Nb3 O16 1.988293 1_555
Nb3 O6 2.010717 1_655
Nb3 O4 2.010717 1_545
Nb3 O2 2.113227 1_555
Nb3 O3 2.113230 1_545
Nb4 O17 1.988292 1_455
Nb4 O19 1.988293 1_555
Nb4 O5 2.010717 1_565
Nb4 O4 2.010717 1_455
Nb4 O3 2.113227 1_555
Nb4 O2 2.113230 1_455
Nb5 O12 1.988291 1_555
Nb5 O15 1.988291 1_554
Nb5 O8 2.010717 1_565
Nb5 O9 2.010717 1_655
Nb5 O1 2.113234 1_555
Nb5 O0 2.113234 1_554
Nb6 O14 1.988292 1_554
Nb6 O10 1.988293 1_545
Nb6 O9 2.010717 1_545
Nb6 O7 2.010717 1_555
Nb6 O0 2.113227 1_544
Nb6 O1 2.113230 1_555
Nb7 O11 1.988292 1_555
Nb7 O13 1.988293 1_454
Nb7 O8 2.010717 1_455
Nb7 O7 2.010717 1_555
Nb7 O1 2.113227 1_455
Nb7 O0 2.113230 1_554
