# generated using pymatgen
data_K4Fe4(PO4)5
_symmetry_space_group_name_H-M   'P 1'
_cell_length_a   9.96906800
_cell_length_b   9.96906800
_cell_length_c   9.63810800
_cell_angle_alpha   90.00000000
_cell_angle_beta   90.00000000
_cell_angle_gamma   90.00000000
_symmetry_Int_Tables_number   1
_chemical_formula_structural   K4Fe4(PO4)5
_chemical_formula_sum   'K8 Fe8 P10 O40'
_cell_volume   957.85750250
_cell_formula_units_Z   2
loop_
 _symmetry_equiv_pos_site_id
 _symmetry_equiv_pos_as_xyz
  1  'x, y, z'
loop_
 _atom_site_type_symbol
 _atom_site_label
 _atom_site_symmetry_multiplicity
 _atom_site_fract_x
 _atom_site_fract_y
 _atom_site_fract_z
 _atom_site_occupancy
  K  K0  1  0.42849700  0.83209400  0.53146100  1
  K  K1  1  0.92849700  0.66790600  0.96853900  1
  K  K2  1  0.57150300  0.16790600  0.53146100  1
  K  K3  1  0.07150300  0.33209400  0.96853900  1
  K  K4  1  0.16790600  0.42849700  0.46853900  1
  K  K5  1  0.33209400  0.92849700  0.03146100  1
  K  K6  1  0.83209400  0.57150300  0.46853900  1
  K  K7  1  0.66790600  0.07150300  0.03146100  1
  Fe  Fe0  1  0.18626000  0.07572800  0.71096900  1
  Fe  Fe1  1  0.68626000  0.42427200  0.78903100  1
  Fe  Fe2  1  0.81374000  0.92427200  0.71096900  1
  Fe  Fe3  1  0.31374000  0.57572800  0.78903100  1
  Fe  Fe4  1  0.92427200  0.18626000  0.28903100  1
  Fe  Fe5  1  0.57572800  0.68626000  0.21096900  1
  Fe  Fe6  1  0.07572800  0.81374000  0.28903100  1
  Fe  Fe7  1  0.42427200  0.31374000  0.21096900  1
  P  P0  1  0.08692800  0.75707900  0.63625100  1
  P  P1  1  0.58692800  0.74292100  0.86374900  1
  P  P2  1  0.91307200  0.24292100  0.63625100  1
  P  P3  1  0.41307200  0.25707900  0.86374900  1
  P  P4  1  0.24292100  0.08692800  0.36374900  1
  P  P5  1  0.25707900  0.58692800  0.13625100  1
  P  P6  1  0.75707900  0.91307200  0.36374900  1
  P  P7  1  0.74292100  0.41307200  0.13625100  1
  P  P8  1  0.00000000  0.00000000  0.00000000  1
  P  P9  1  0.50000000  0.50000000  0.50000000  1
  O  O0  1  0.09832800  0.72803000  0.47998900  1
  O  O1  1  0.59832800  0.77197000  0.02001100  1
  O  O2  1  0.90167200  0.27197000  0.47998900  1
  O  O3  1  0.40167200  0.22803000  0.02001100  1
  O  O4  1  0.27197000  0.09832800  0.52001100  1
  O  O5  1  0.22803000  0.59832800  0.97998900  1
  O  O6  1  0.72803000  0.90167200  0.52001100  1
  O  O7  1  0.77197000  0.40167200  0.97998900  1
  O  O8  1  0.93733700  0.77378200  0.67839200  1
  O  O9  1  0.43733700  0.72621800  0.82160800  1
  O  O10  1  0.06266300  0.22621800  0.67839200  1
  O  O11  1  0.56266300  0.27378200  0.82160800  1
  O  O12  1  0.22621800  0.93733700  0.32160800  1
  O  O13  1  0.27378200  0.43733700  0.17839200  1
  O  O14  1  0.77378200  0.06266300  0.32160800  1
  O  O15  1  0.72621800  0.56266300  0.17839200  1
  O  O16  1  0.13970400  0.63139100  0.71500100  1
  O  O17  1  0.63970400  0.86860900  0.78499900  1
  O  O18  1  0.86029600  0.36860900  0.71500100  1
  O  O19  1  0.36029600  0.13139100  0.78499900  1
  O  O20  1  0.36860900  0.13970400  0.28499900  1
  O  O21  1  0.13139100  0.63970400  0.21500100  1
  O  O22  1  0.63139100  0.86029600  0.28499900  1
  O  O23  1  0.86860900  0.36029600  0.21500100  1
  O  O24  1  0.16929200  0.88272200  0.67744900  1
  O  O25  1  0.66929200  0.61727800  0.82255100  1
  O  O26  1  0.83070800  0.11727800  0.67744900  1
  O  O27  1  0.33070800  0.38272200  0.82255100  1
  O  O28  1  0.11727800  0.16929200  0.32255100  1
  O  O29  1  0.38272200  0.66929200  0.17744900  1
  O  O30  1  0.88272200  0.83070800  0.32255100  1
  O  O31  1  0.61727800  0.33070800  0.17744900  1
  O  O32  1  0.11447000  0.05881800  0.90908300  1
  O  O33  1  0.61447000  0.44118200  0.59091700  1
  O  O34  1  0.88553000  0.94118200  0.90908300  1
  O  O35  1  0.38553000  0.55881800  0.59091700  1
  O  O36  1  0.94118200  0.11447000  0.09091700  1
  O  O37  1  0.55881800  0.61447000  0.40908300  1
  O  O38  1  0.05881800  0.88553000  0.09091700  1
  O  O39  1  0.44118200  0.38553000  0.40908300  1
loop_
_geom_bond_atom_site_label_1
_geom_bond_atom_site_label_2
_geom_bond_distance
_geom_bond_site_symmetry_2
K0 O37 2.790311 1_555
K0 O35 2.816683 1_555
K0 O24 2.985254 1_555
K0 O9 2.990326 1_555
K0 O12 3.042701 1_555
K0 O6 3.067553 1_555
K0 O4 3.080810 1_565
K0 O22 3.132550 1_555
K0 O17 3.246091 1_555
K1 O38 2.790311 1_656
K1 O34 2.816683 1_555
K1 O25 2.985254 1_555
K1 O8 2.990326 1_555
K1 O15 3.042701 1_556
K1 O5 3.067553 1_655
K1 O7 3.080810 1_555
K1 O21 3.132550 1_656
K1 O16 3.246091 1_655
K2 O39 2.790311 1_555
K2 O33 2.816683 1_555
K2 O26 2.985254 1_555
K2 O11 2.990326 1_555
K2 O14 3.042701 1_555
K2 O4 3.067553 1_555
K2 O6 3.080810 1_545
K2 O20 3.132550 1_555
K2 O19 3.246091 1_555
K3 O36 2.790311 1_456
K3 O32 2.816683 1_555
K3 O27 2.985254 1_555
K3 O10 2.990326 1_555
K3 O13 3.042701 1_556
K3 O7 3.067553 1_455
K3 O5 3.080810 1_555
K3 O23 3.132550 1_456
K3 O18 3.246091 1_455
K4 O35 2.790311 1_555
K4 O39 2.816683 1_555
K4 O28 2.985254 1_555
K4 O13 2.990326 1_555
K4 O10 3.042701 1_555
K4 O0 3.067553 1_555
K4 O2 3.080810 1_455
K4 O16 3.132550 1_555
K4 O21 3.246091 1_555
K5 O32 2.790311 1_564
K5 O38 2.816683 1_555
K5 O29 2.985254 1_555
K5 O12 2.990326 1_555
K5 O9 3.042701 1_554
K5 O3 3.067553 1_565
K5 O1 3.080810 1_555
K5 O19 3.132550 1_564
K5 O20 3.246091 1_565
K6 O33 2.790311 1_555
K6 O37 2.816683 1_555
K6 O30 2.985254 1_555
K6 O15 2.990326 1_555
K6 O8 3.042701 1_555
K6 O2 3.067553 1_555
K6 O0 3.080810 1_655
K6 O18 3.132550 1_555
K6 O23 3.246091 1_555
K7 O34 2.790311 1_544
K7 O36 2.816683 1_555
K7 O31 2.985254 1_555
K7 O14 2.990326 1_555
K7 O11 3.042701 1_554
K7 O1 3.067553 1_545
K7 O3 3.080810 1_555
K7 O17 3.132550 1_544
K7 O22 3.246091 1_545
Fe0 O19 1.956314 1_555
Fe0 O24 1.958344 1_545
Fe0 O10 1.966597 1_555
Fe0 O4 2.041614 1_555
Fe0 O32 2.046116 1_555
Fe1 O18 1.956314 1_555
Fe1 O25 1.958344 1_555
Fe1 O11 1.966597 1_555
Fe1 O7 2.041614 1_555
Fe1 O33 2.046116 1_555
Fe2 O17 1.956314 1_555
Fe2 O26 1.958344 1_565
Fe2 O8 1.966597 1_555
Fe2 O6 2.041614 1_555
Fe2 O34 2.046116 1_555
Fe3 O16 1.956314 1_555
Fe3 O27 1.958344 1_555
Fe3 O9 1.966597 1_555
Fe3 O5 2.041614 1_555
Fe3 O35 2.046116 1_555
Fe4 O23 1.956314 1_555
Fe4 O28 1.958344 1_655
Fe4 O14 1.966597 1_555
Fe4 O2 2.041614 1_555
Fe4 O36 2.046116 1_555
Fe5 O22 1.956314 1_555
Fe5 O29 1.958344 1_555
Fe5 O15 1.966597 1_555
Fe5 O1 2.041614 1_555
Fe5 O37 2.046116 1_555
Fe6 O21 1.956314 1_555
Fe6 O30 1.958344 1_455
Fe6 O12 1.966597 1_555
Fe6 O0 2.041614 1_555
Fe6 O38 2.046116 1_555
Fe7 O20 1.956314 1_555
Fe7 O31 1.958344 1_555
Fe7 O13 1.966597 1_555
Fe7 O3 2.041614 1_555
Fe7 O39 2.046116 1_555
O0 P0 1.537864 1_555
O1 P1 1.537864 1_554
O2 P2 1.537864 1_555
O3 P3 1.537864 1_554
O4 P4 1.537864 1_555
O5 P5 1.537864 1_556
O6 P6 1.537864 1_555
O7 P7 1.537864 1_556
O8 P0 1.554547 1_655
O9 P1 1.554547 1_555
O10 P2 1.554547 1_455
O11 P3 1.554547 1_555
O12 P4 1.554547 1_565
O13 P5 1.554547 1_555
O14 P6 1.554547 1_545
O15 P7 1.554547 1_555
O16 P0 1.556561 1_555
O17 P1 1.556561 1_555
O18 P2 1.556561 1_555
O19 P3 1.556561 1_555
O20 P4 1.556561 1_555
O21 P5 1.556561 1_555
O22 P6 1.556561 1_555
O23 P7 1.556561 1_555
O24 P0 1.549427 1_555
O25 P1 1.549427 1_555
O26 P2 1.549427 1_555
O27 P3 1.549427 1_555
O28 P4 1.549427 1_555
O29 P5 1.549427 1_555
O30 P6 1.549427 1_555
O31 P7 1.549427 1_555
O32 P8 1.553676 1_556
O33 P9 1.553676 1_555
O34 P8 1.553676 1_666
O35 P9 1.553676 1_555
O36 P8 1.553676 1_655
O37 P9 1.553676 1_555
O38 P8 1.553676 1_565
O39 P9 1.553676 1_555
