# generated using pymatgen
data_TaAlCu
_symmetry_space_group_name_H-M   'P 1'
_cell_length_a   4.94666674
_cell_length_b   4.94666269
_cell_length_c   8.02905265
_cell_angle_alpha   90.00008850
_cell_angle_beta   90.00009811
_cell_angle_gamma   61.11798834
_symmetry_Int_Tables_number   1
_chemical_formula_structural   TaAlCu
_chemical_formula_sum   'Ta4 Al4 Cu4'
_cell_volume   172.02954878
_cell_formula_units_Z   4
loop_
 _symmetry_equiv_pos_site_id
 _symmetry_equiv_pos_as_xyz
  1  'x, y, z'
loop_
 _atom_site_type_symbol
 _atom_site_label
 _atom_site_symmetry_multiplicity
 _atom_site_fract_x
 _atom_site_fract_y
 _atom_site_fract_z
 _atom_site_occupancy
  Ta  Ta0  1  0.33530578  0.33530541  0.56124948  1
  Ta  Ta1  1  0.66264227  0.66264301  0.43350973  1
  Ta  Ta2  1  0.66264166  0.66264219  0.06648732  1
  Ta  Ta3  1  0.33530650  0.33530563  0.93875391  1
  Al  Al0  1  0.99453870  0.99453907  0.48740426  1
  Al  Al1  1  0.99453507  0.99453510  0.01259765  1
  Al  Al2  1  0.83465434  0.35074466  0.74999959  1
  Al  Al3  1  0.35074616  0.83465134  0.74999956  1
  Cu  Cu0  1  0.83751823  0.83751816  0.74999957  1
  Cu  Cu1  1  0.17113684  0.65070882  0.25000082  1
  Cu  Cu2  1  0.65070809  0.17113711  0.25000069  1
  Cu  Cu3  1  0.17026734  0.17026951  0.24999742  1
loop_
_geom_bond_atom_site_label_1
_geom_bond_atom_site_label_2
_geom_bond_distance
_geom_bond_site_symmetry_2
Ta0 Ta1 2.971280 1_555
Ta0 Ta3 3.031003 1_555
Ta0 Ta1 3.088828 1_545
Ta0 Ta1 3.088835 1_455
Ta1 Ta2 2.946842 1_555
Ta2 Ta3 2.971249 1_554
Ta2 Ta3 3.088817 1_564
Ta2 Ta3 3.088825 1_654
Al0 Cu1 2.419485 1_655
Al0 Cu2 2.419488 1_565
Al0 Cu3 2.423771 1_665
Al0 Cu0 2.496947 1_555
Al0 Al2 2.613303 1_565
Al0 Al3 2.613308 1_655
Al0 Ta1 2.860412 1_555
Al0 Ta0 2.918393 1_565
Al0 Ta0 2.918393 1_655
Al0 Ta1 2.926339 1_565
Al0 Ta1 2.926340 1_655
Al0 Ta0 2.962989 1_665
Al1 Cu1 2.419476 1_655
Al1 Cu2 2.419478 1_565
Al1 Cu3 2.423741 1_665
Al1 Cu0 2.496944 1_554
Al1 Al2 2.613334 1_564
Al1 Al3 2.613338 1_654
Al1 Ta2 2.860382 1_555
Al1 Ta3 2.918372 1_564
Al1 Ta3 2.918374 1_654
Al1 Ta2 2.926346 1_565
Al1 Ta2 2.926346 1_655
Al1 Ta3 2.963024 1_664
Al2 Cu0 2.414779 1_555
Al2 Al3 2.434063 1_555
Al2 Cu0 2.531946 1_545
Al2 Al3 2.595955 1_645
Al2 Ta0 2.872830 1_655
Al2 Ta3 2.872847 1_655
Al2 Ta2 2.879825 1_556
Al2 Ta1 2.879843 1_555
Al2 Ta0 2.930222 1_555
Al2 Ta3 2.930240 1_555
Al3 Cu0 2.414781 1_555
Al3 Cu0 2.531948 1_455
Al3 Ta0 2.872837 1_565
Al3 Ta3 2.872854 1_565
Al3 Ta2 2.879821 1_556
Al3 Ta1 2.879839 1_555
Al3 Ta0 2.930211 1_555
Al3 Ta3 2.930231 1_555
Cu0 Ta0 2.936378 1_565
Cu0 Ta0 2.936380 1_655
Cu0 Ta3 2.936395 1_565
Cu0 Ta3 2.936398 1_655
Cu0 Ta2 2.945626 1_556
Cu0 Ta1 2.945633 1_555
Cu1 Cu3 2.378652 1_555
Cu1 Cu2 2.412253 1_555
Cu1 Cu3 2.568017 1_565
Cu1 Cu2 2.617765 1_465
Cu1 Ta3 2.848652 1_554
Cu1 Ta0 2.848667 1_555
Cu1 Ta1 2.867809 1_555
Cu1 Ta2 2.867828 1_555
Cu1 Ta1 2.891015 1_455
Cu1 Ta2 2.891034 1_455
Cu2 Cu3 2.378656 1_555
Cu2 Cu3 2.568016 1_655
Cu2 Ta3 2.848648 1_554
Cu2 Ta0 2.848666 1_555
Cu2 Ta1 2.867810 1_555
Cu2 Ta2 2.867827 1_555
Cu2 Ta1 2.891012 1_545
Cu2 Ta2 2.891030 1_545
Cu3 Ta3 2.867364 1_554
Cu3 Ta0 2.867417 1_555
Cu3 Ta2 2.915547 1_455
Cu3 Ta2 2.915555 1_545
Cu3 Ta1 2.915557 1_455
Cu3 Ta1 2.915563 1_545
