# generated using pymatgen
data_Hf3(VGa3)2
_symmetry_space_group_name_H-M   'P 1'
_cell_length_a   5.38014000
_cell_length_b   7.79631600
_cell_length_c   8.83405700
_cell_angle_alpha   90.00000000
_cell_angle_beta   90.00000000
_cell_angle_gamma   90.00000000
_symmetry_Int_Tables_number   1
_chemical_formula_structural   Hf3(VGa3)2
_chemical_formula_sum   'Hf6 V4 Ga12'
_cell_volume   370.54691988
_cell_formula_units_Z   2
loop_
 _symmetry_equiv_pos_site_id
 _symmetry_equiv_pos_as_xyz
  1  'x, y, z'
loop_
 _atom_site_type_symbol
 _atom_site_label
 _atom_site_symmetry_multiplicity
 _atom_site_fract_x
 _atom_site_fract_y
 _atom_site_fract_z
 _atom_site_occupancy
  Hf  Hf0  1  0.50000000  0.15540200  0.78030400  1
  Hf  Hf1  1  0.50000000  0.15540200  0.21969600  1
  Hf  Hf2  1  0.00000000  0.84459800  0.71969600  1
  Hf  Hf3  1  0.00000000  0.84459800  0.28030400  1
  Hf  Hf4  1  0.50000000  0.71757500  0.50000000  1
  Hf  Hf5  1  0.00000000  0.28242500  0.00000000  1
  V  V0  1  0.25000000  0.50000000  0.25000000  1
  V  V1  1  0.25000000  0.50000000  0.75000000  1
  V  V2  1  0.75000000  0.50000000  0.25000000  1
  V  V3  1  0.75000000  0.50000000  0.75000000  1
  Ga  Ga0  1  0.50000000  0.77024000  0.18771200  1
  Ga  Ga1  1  0.50000000  0.77024000  0.81228800  1
  Ga  Ga2  1  0.00000000  0.22976000  0.31228800  1
  Ga  Ga3  1  0.00000000  0.22976000  0.68771200  1
  Ga  Ga4  1  0.50000000  0.36637400  0.50000000  1
  Ga  Ga5  1  0.00000000  0.63362600  0.00000000  1
  Ga  Ga6  1  0.00000000  0.56515300  0.50000000  1
  Ga  Ga7  1  0.50000000  0.43484700  0.00000000  1
  Ga  Ga8  1  0.26044600  0.03998100  0.50000000  1
  Ga  Ga9  1  0.73955400  0.03998100  0.50000000  1
  Ga  Ga10  1  0.23955400  0.96001900  0.00000000  1
  Ga  Ga11  1  0.76044600  0.96001900  0.00000000  1
loop_
_geom_bond_atom_site_label_1
_geom_bond_atom_site_label_2
_geom_bond_distance
_geom_bond_site_symmetry_2
Hf0 V1 3.016385 1_555
Hf0 V3 3.016385 1_555
Hf1 V2 3.016385 1_555
Hf1 V0 3.016385 1_555
Hf2 V3 3.016385 1_455
Hf2 V1 3.016385 1_555
Hf3 V0 3.016385 1_555
Hf3 V2 3.016385 1_455
Hf4 V0 3.092577 1_555
Hf4 V3 3.092577 1_555
Hf4 V2 3.092577 1_555
Hf4 V1 3.092577 1_555
Hf5 V2 3.092577 1_455
Hf5 V1 3.092577 1_554
Hf5 V0 3.092577 1_555
Hf5 V3 3.092577 1_454
V0 V2 2.690070 1_555
V0 V2 2.690070 1_455
V1 V3 2.690070 1_455
V1 V3 2.690070 1_555
Ga0 V0 2.559459 1_555
Ga0 V2 2.559459 1_555
Ga0 Ga10 2.627248 1_555
Ga0 Ga11 2.627248 1_555
Ga0 Hf4 2.789157 1_555
Ga0 Hf3 2.870821 1_555
Ga0 Hf3 2.870821 1_655
Ga0 Hf1 3.016108 1_565
Ga1 V1 2.559459 1_555
Ga1 V3 2.559459 1_555
Ga1 Ga10 2.627248 1_556
Ga1 Ga11 2.627248 1_556
Ga1 Hf4 2.789157 1_555
Ga1 Hf2 2.870821 1_555
Ga1 Hf2 2.870821 1_655
Ga1 Hf0 3.016108 1_565
Ga2 V0 2.559459 1_555
Ga2 V2 2.559459 1_455
Ga2 Ga8 2.627248 1_555
Ga2 Ga9 2.627248 1_455
Ga2 Hf5 2.789157 1_555
Ga2 Hf1 2.870821 1_555
Ga2 Hf1 2.870821 1_455
Ga2 Hf3 3.016108 1_545
Ga3 V1 2.559459 1_555
Ga3 V3 2.559459 1_455
Ga3 Ga8 2.627248 1_555
Ga3 Ga9 2.627248 1_455
Ga3 Hf5 2.789157 1_556
Ga3 Hf0 2.870821 1_455
Ga3 Hf0 2.870821 1_555
Ga3 Hf2 3.016108 1_545
Ga4 Hf4 2.738074 1_555
Ga4 V2 2.787827 1_555
Ga4 V3 2.787827 1_555
Ga4 V1 2.787827 1_555
Ga4 V0 2.787827 1_555
Ga4 Ga9 2.852438 1_555
Ga4 Ga8 2.852438 1_555
Ga4 Hf1 2.972718 1_555
Ga4 Hf0 2.972718 1_555
Ga5 Hf5 2.738074 1_555
Ga5 V1 2.787827 1_554
Ga5 V0 2.787827 1_555
Ga5 V3 2.787827 1_454
Ga5 V2 2.787827 1_455
Ga5 Hf2 2.972718 1_554
Ga5 Hf3 2.972718 1_555
Ga6 V2 2.635274 1_455
Ga6 V1 2.635274 1_555
Ga6 V0 2.635274 1_555
Ga6 V3 2.635274 1_455
Ga6 Hf3 2.917741 1_555
Ga6 Hf2 2.917741 1_555
Ga6 Hf4 2.940851 1_455
Ga6 Hf4 2.940851 1_555
Ga7 V1 2.635274 1_554
Ga7 V2 2.635274 1_555
Ga7 V0 2.635274 1_555
Ga7 V3 2.635274 1_554
Ga7 Hf1 2.917741 1_555
Ga7 Hf0 2.917741 1_554
Ga7 Hf5 2.940851 1_655
Ga7 Hf5 2.940851 1_555
Ga8 Ga9 2.577668 1_555
Ga8 Ga9 2.802472 1_455
Ga8 Hf4 2.824743 1_545
Ga8 Hf2 2.837347 1_545
Ga8 Hf3 2.837347 1_545
Ga8 Hf1 2.933004 1_555
Ga8 Hf0 2.933004 1_555
Ga9 Hf4 2.824743 1_545
Ga9 Hf3 2.837347 1_645
Ga9 Hf2 2.837347 1_645
Ga9 Hf1 2.933004 1_555
Ga9 Hf0 2.933004 1_555
Ga10 Ga11 2.577668 1_455
Ga10 Ga11 2.802472 1_555
Ga10 Hf5 2.824743 1_565
Ga10 Hf1 2.837347 1_565
Ga10 Hf0 2.837347 1_564
Ga10 Ga5 2.852438 1_555
Ga10 Hf2 2.933004 1_554
Ga10 Hf3 2.933004 1_555
Ga11 Hf5 2.824743 1_665
Ga11 Hf1 2.837347 1_565
Ga11 Hf0 2.837347 1_564
Ga11 Ga5 2.852438 1_655
Ga11 Hf2 2.933004 1_654
Ga11 Hf3 2.933004 1_655
