# generated using pymatgen
data_Ca2MnNb2O8
_symmetry_space_group_name_H-M   'P 1'
_cell_length_a   10.19729880
_cell_length_b   10.19729880
_cell_length_c   5.53661953
_cell_angle_alpha   88.18314973
_cell_angle_beta   88.18314973
_cell_angle_gamma   36.35449013
_symmetry_Int_Tables_number   1
_chemical_formula_structural   Ca2MnNb2O8
_chemical_formula_sum   'Ca4 Mn2 Nb4 O16'
_cell_volume   341.08774343
_cell_formula_units_Z   2
loop_
 _symmetry_equiv_pos_site_id
 _symmetry_equiv_pos_as_xyz
  1  'x, y, z'
loop_
 _atom_site_type_symbol
 _atom_site_label
 _atom_site_symmetry_multiplicity
 _atom_site_fract_x
 _atom_site_fract_y
 _atom_site_fract_z
 _atom_site_occupancy
  Ca  Ca0  1  0.89030500  0.52318200  0.75701700  1
  Ca  Ca1  1  0.47681800  0.10969500  0.74298300  1
  Ca  Ca2  1  0.10969500  0.47681800  0.24298300  1
  Ca  Ca3  1  0.52318200  0.89030500  0.25701700  1
  Mn  Mn0  1  0.65191000  0.34809000  0.75000000  1
  Mn  Mn1  1  0.34809000  0.65191000  0.25000000  1
  Nb  Nb0  1  0.03796700  0.73372200  0.75377600  1
  Nb  Nb1  1  0.26627800  0.96203300  0.74622400  1
  Nb  Nb2  1  0.96203300  0.26627800  0.24622400  1
  Nb  Nb3  1  0.73372200  0.03796700  0.25377600  1
  O  O0  1  0.05032500  0.80494200  0.08412500  1
  O  O1  1  0.19505800  0.94967500  0.41587500  1
  O  O2  1  0.94967500  0.19505800  0.91587500  1
  O  O3  1  0.80494200  0.05032500  0.58412500  1
  O  O4  1  0.29078400  0.59191100  0.59016500  1
  O  O5  1  0.40808900  0.70921600  0.90983500  1
  O  O6  1  0.70921600  0.40808900  0.40983500  1
  O  O7  1  0.59191100  0.29078400  0.09016500  1
  O  O8  1  0.87684500  0.75619800  0.50271600  1
  O  O9  1  0.24380200  0.12315500  0.99728400  1
  O  O10  1  0.46099600  0.17081100  0.34463000  1
  O  O11  1  0.82918900  0.53900400  0.15537000  1
  O  O12  1  0.53900400  0.82918900  0.65537000  1
  O  O13  1  0.17081100  0.46099600  0.84463000  1
  O  O14  1  0.75619800  0.87684500  0.00271600  1
  O  O15  1  0.12315500  0.24380200  0.49728400  1
loop_
_geom_bond_atom_site_label_1
_geom_bond_atom_site_label_2
_geom_bond_distance
_geom_bond_site_symmetry_2
Ca0 O12 2.213135 1_555
Ca0 O15 2.229264 1_655
Ca0 O11 2.247718 1_556
Ca0 O13 2.442573 1_655
Ca0 O8 2.630973 1_555
Ca0 O9 2.771043 1_655
Ca0 O2 2.986634 1_555
Ca0 O14 2.996007 1_556
Ca1 O13 2.213135 1_555
Ca1 O14 2.229264 1_546
Ca1 O10 2.247718 1_555
Ca1 O12 2.442573 1_545
Ca1 O9 2.630973 1_555
Ca1 O8 2.771043 1_545
Ca1 O3 2.986634 1_555
Ca1 O15 2.996007 1_555
Ca2 O10 2.213135 1_555
Ca2 O8 2.229264 1_455
Ca2 O13 2.247718 1_554
Ca2 O11 2.442573 1_455
Ca2 O15 2.630973 1_555
Ca2 O14 2.771043 1_455
Ca2 O0 2.986634 1_555
Ca2 O9 2.996007 1_554
Ca3 O11 2.213135 1_555
Ca3 O9 2.229264 1_564
Ca3 O12 2.247718 1_555
Ca3 O10 2.442573 1_565
Ca3 O14 2.630973 1_555
Ca3 O15 2.771043 1_565
Ca3 O1 2.986634 1_555
Ca3 O8 2.996007 1_555
Mn0 O6 2.167005 1_555
Mn0 O7 2.167005 1_556
Mn0 O3 2.225335 1_555
Mn0 O2 2.225335 1_555
Mn0 O5 2.417694 1_555
Mn0 O4 2.417694 1_555
Mn1 O5 2.167005 1_554
Mn1 O4 2.167005 1_555
Mn1 O0 2.225335 1_555
Mn1 O1 2.225335 1_555
Mn1 O6 2.417694 1_555
Mn1 O7 2.417694 1_555
Nb0 O4 1.867651 1_555
Nb0 O13 1.925807 1_555
Nb0 O0 2.033441 1_556
Nb0 O8 2.049936 1_455
Nb0 O3 2.131716 1_465
Nb0 O14 2.325376 1_456
Nb1 O5 1.867651 1_555
Nb1 O12 1.925807 1_555
Nb1 O1 2.033441 1_555
Nb1 O9 2.049936 1_565
Nb1 O2 2.131716 1_465
Nb1 O15 2.325376 1_565
Nb2 O6 1.867651 1_555
Nb2 O11 1.925807 1_555
Nb2 O2 2.033441 1_554
Nb2 O15 2.049936 1_655
Nb2 O1 2.131716 1_645
Nb2 O9 2.325376 1_654
Nb3 O7 1.867651 1_555
Nb3 O10 1.925807 1_555
Nb3 O3 2.033441 1_555
Nb3 O14 2.049936 1_545
Nb3 O0 2.131716 1_645
Nb3 O8 2.325376 1_545
