# generated using pymatgen
data_Ag7(SI)2
_symmetry_space_group_name_H-M   'P 1'
_cell_length_a   4.96845022
_cell_length_b   4.53711266
_cell_length_c   18.15133886
_cell_angle_alpha   99.29999969
_cell_angle_beta   113.08695313
_cell_angle_gamma   120.86841331
_symmetry_Int_Tables_number   1
_chemical_formula_structural   Ag7(SI)2
_chemical_formula_sum   'Ag7 S2 I2'
_cell_volume   286.96438440
_cell_formula_units_Z   1
loop_
 _symmetry_equiv_pos_site_id
 _symmetry_equiv_pos_as_xyz
  1  'x, y, z'
loop_
 _atom_site_type_symbol
 _atom_site_label
 _atom_site_symmetry_multiplicity
 _atom_site_fract_x
 _atom_site_fract_y
 _atom_site_fract_z
 _atom_site_occupancy
  Ag  Ag0  1  0.45012100  0.15953600  0.71625600  1
  Ag  Ag1  1  0.06995600  0.43092400  0.95223500  1
  Ag  Ag2  1  0.08701500  0.71353700  0.36376200  1
  Ag  Ag3  1  0.90575100  0.29932300  0.63266000  1
  Ag  Ag4  1  0.37020200  0.52936100  0.23010300  1
  Ag  Ag5  1  0.57798300  0.07426000  0.16077800  1
  Ag  Ag6  1  0.78731100  0.62362800  0.09212500  1
  S  S0  1  0.05043000  0.16260500  0.30061400  1
  S  S1  1  0.10791800  0.97943300  0.01980900  1
  I  I0  1  0.12636100  0.99772000  0.52596000  1
  I  I1  1  0.99895200  0.02967400  0.79469700  1
loop_
_geom_bond_atom_site_label_1
_geom_bond_atom_site_label_2
_geom_bond_distance
_geom_bond_site_symmetry_2
Ag0 I0 2.944239 1_545
Ag0 I1 2.947024 1_555
Ag0 I1 2.969532 1_455
Ag0 Ag3 2.978694 1_455
Ag0 Ag3 2.980872 1_445
Ag0 I1 3.023338 1_565
Ag0 Ag3 3.059584 1_555
Ag1 S1 2.466518 1_556
Ag1 S1 2.600643 1_546
Ag1 I1 2.912540 1_455
Ag2 S0 2.457518 1_555
Ag2 S0 2.543542 1_565
Ag2 I0 2.903714 1_555
Ag3 I0 2.905669 1_545
Ag3 I0 3.028583 1_645
Ag3 I1 3.322350 1_555
Ag4 S0 2.549790 1_555
Ag4 S0 2.601966 1_665
Ag5 S1 2.472521 1_545
Ag5 S0 2.479158 1_655
Ag6 S1 2.559774 1_655
Ag6 S1 2.611737 1_545
