# generated using pymatgen
data_V4Cu9(ClO9)2
_symmetry_space_group_name_H-M   'P 1'
_cell_length_a   6.50970332
_cell_length_b   8.38002516
_cell_length_c   9.29856257
_cell_angle_alpha   104.94121472
_cell_angle_beta   96.05738938
_cell_angle_gamma   107.78104117
_symmetry_Int_Tables_number   1
_chemical_formula_structural   V4Cu9(ClO9)2
_chemical_formula_sum   'V4 Cu9 Cl2 O18'
_cell_volume   457.23354469
_cell_formula_units_Z   1
loop_
 _symmetry_equiv_pos_site_id
 _symmetry_equiv_pos_as_xyz
  1  'x, y, z'
loop_
 _atom_site_type_symbol
 _atom_site_label
 _atom_site_symmetry_multiplicity
 _atom_site_fract_x
 _atom_site_fract_y
 _atom_site_fract_z
 _atom_site_occupancy
  V  V0  1  0.11026000  0.58348800  0.35002600  1
  V  V1  1  0.88974000  0.41651200  0.64997400  1
  V  V2  1  0.67553600  0.75022700  0.14879600  1
  V  V3  1  0.32446400  0.24977300  0.85120400  1
  Cu  Cu0  1  0.85908700  0.28228400  0.97003100  1
  Cu  Cu1  1  0.14091300  0.71771600  0.02996900  1
  Cu  Cu2  1  0.58232500  0.45436600  0.35757700  1
  Cu  Cu3  1  0.41767500  0.54563400  0.64242300  1
  Cu  Cu4  1  0.83069000  0.16849300  0.31224400  1
  Cu  Cu5  1  0.16931000  0.83150700  0.68775600  1
  Cu  Cu6  1  0.50000000  0.00000000  0.00000000  1
  Cu  Cu7  1  0.00000000  0.00000000  0.00000000  1
  Cu  Cu8  1  0.00000000  0.00000000  0.50000000  1
  Cl  Cl0  1  0.34822200  0.13047000  0.27665200  1
  Cl  Cl1  1  0.65177800  0.86953000  0.72334800  1
  O  O0  1  0.60866500  0.56099500  0.19316500  1
  O  O1  1  0.39133500  0.43900500  0.80683500  1
  O  O2  1  0.86060700  0.40823800  0.34058600  1
  O  O3  1  0.13939300  0.59176200  0.65941400  1
  O  O4  1  0.65978700  0.46372000  0.58088600  1
  O  O5  1  0.34021300  0.53628000  0.41911400  1
  O  O6  1  0.90976000  0.21943600  0.53551600  1
  O  O7  1  0.09024000  0.78056400  0.46448400  1
  O  O8  1  0.89165600  0.41555800  0.83355300  1
  O  O9  1  0.10834400  0.58444200  0.16644700  1
  O  O10  1  0.12207200  0.22561800  0.96772400  1
  O  O11  1  0.87792800  0.77438200  0.03227600  1
  O  O12  1  0.80913800  0.11032800  0.09416000  1
  O  O13  1  0.19086200  0.88967200  0.90584000  1
  O  O14  1  0.54936000  0.21827700  0.95048600  1
  O  O15  1  0.45064000  0.78172300  0.04951400  1
  O  O16  1  0.78653200  0.93143700  0.31651000  1
  O  O17  1  0.21346800  0.06856300  0.68349000  1
loop_
_geom_bond_atom_site_label_1
_geom_bond_atom_site_label_2
_geom_bond_distance
_geom_bond_site_symmetry_2
Cu0 O8 1.883025 1_555
Cu0 O14 1.896787 1_555
Cu0 O10 1.912002 1_655
Cu0 O12 2.040860 1_556
Cu0 O9 2.619257 1_656
Cu1 O9 1.883025 1_555
Cu1 O15 1.896787 1_555
Cu1 O11 1.912002 1_455
Cu1 O13 2.040860 1_554
Cu1 O8 2.619257 1_454
Cu2 O0 1.957350 1_555
Cu2 O2 1.978039 1_555
Cu2 O5 1.982726 1_555
Cu2 O4 2.059859 1_555
Cu3 O1 1.957350 1_555
Cu3 O3 1.978039 1_555
Cu3 O4 1.982726 1_555
Cu3 O5 2.059859 1_555
Cu4 O2 1.902870 1_555
Cu4 O16 1.929974 1_545
Cu4 O12 1.938559 1_555
Cu4 O6 1.985107 1_555
Cu5 O3 1.902870 1_555
Cu5 O17 1.929974 1_565
Cu5 O13 1.938559 1_555
Cu5 O7 1.985107 1_555
Cu6 O12 1.935327 1_555
Cu6 O13 1.935327 1_544
Cu6 O15 1.941028 1_545
Cu6 O14 1.941028 1_554
Cu7 O13 1.918030 1_544
Cu7 O12 1.918030 1_455
Cu7 O10 1.929129 1_554
Cu7 O11 1.929129 1_445
Cu8 O16 1.917996 1_445
Cu8 O17 1.917996 1_555
Cu8 O6 2.055036 1_455
Cu8 O7 2.055036 1_545
Cl0 Cu2 2.536587 1_555
Cl0 Cu6 2.921481 1_555
Cl0 Cu7 2.959176 1_555
Cl0 Cu4 3.031541 1_555
Cl1 Cu3 2.536587 1_555
Cl1 Cu6 2.921481 1_566
Cl1 Cu7 2.959176 1_666
Cl1 Cu5 3.031541 1_555
O0 V2 1.681674 1_555
O1 V3 1.681674 1_555
O2 V0 1.803153 1_655
O3 V1 1.803153 1_455
O4 V1 1.760617 1_555
O5 V0 1.760617 1_555
O6 V1 1.769614 1_555
O7 V0 1.769614 1_555
O8 V1 1.707848 1_555
O9 V0 1.707848 1_555
O10 V3 1.789467 1_555
O11 V2 1.789467 1_555
O14 V3 1.772468 1_555
O15 V2 1.772468 1_555
O16 V2 1.769457 1_555
O17 V3 1.769457 1_555
