# generated using pymatgen
data_YbNi5P3
_symmetry_space_group_name_H-M   'P 1'
_cell_length_a   6.07129522
_cell_length_b   6.07129522
_cell_length_c   11.44002000
_cell_angle_alpha   90.00000000
_cell_angle_beta   90.00000000
_cell_angle_gamma   146.03962792
_symmetry_Int_Tables_number   1
_chemical_formula_structural   YbNi5P3
_chemical_formula_sum   'Yb2 Ni10 P6'
_cell_volume   235.56213478
_cell_formula_units_Z   2
loop_
 _symmetry_equiv_pos_site_id
 _symmetry_equiv_pos_as_xyz
  1  'x, y, z'
loop_
 _atom_site_type_symbol
 _atom_site_label
 _atom_site_symmetry_multiplicity
 _atom_site_fract_x
 _atom_site_fract_y
 _atom_site_fract_z
 _atom_site_occupancy
  Yb  Yb0  1  0.16108400  0.83891600  0.25000000  1
  Yb  Yb1  1  0.83891600  0.16108400  0.75000000  1
  Ni  Ni0  1  0.80025200  0.19974800  0.07136000  1
  Ni  Ni1  1  0.19974800  0.80025200  0.92864000  1
  Ni  Ni2  1  0.19974800  0.80025200  0.57136000  1
  Ni  Ni3  1  0.80025200  0.19974800  0.42864000  1
  Ni  Ni4  1  0.45086600  0.54913400  0.14530200  1
  Ni  Ni5  1  0.54913400  0.45086600  0.85469800  1
  Ni  Ni6  1  0.54913400  0.45086600  0.64530200  1
  Ni  Ni7  1  0.45086600  0.54913400  0.35469800  1
  Ni  Ni8  1  0.00000000  0.00000000  0.00000000  1
  Ni  Ni9  1  0.00000000  0.00000000  0.50000000  1
  P  P0  1  0.88251400  0.11748600  0.25000000  1
  P  P1  1  0.11748600  0.88251400  0.75000000  1
  P  P2  1  0.61812900  0.38187100  0.04227300  1
  P  P3  1  0.38187100  0.61812900  0.95772700  1
  P  P4  1  0.38187100  0.61812900  0.54227300  1
  P  P5  1  0.61812900  0.38187100  0.45772700  1
loop_
_geom_bond_atom_site_label_1
_geom_bond_atom_site_label_2
_geom_bond_distance
_geom_bond_site_symmetry_2
Ni0 P2 2.141055 1_555
Ni0 P0 2.255912 1_555
Ni0 P3 2.394183 1_544
Ni0 P3 2.394183 1_654
Ni0 Yb0 3.151560 1_655
Ni0 Yb0 3.151560 1_545
Ni1 P3 2.141055 1_555
Ni1 P1 2.255912 1_555
Ni1 P2 2.394183 1_456
Ni1 P2 2.394183 1_566
Ni1 Yb1 3.151560 1_565
Ni1 Yb1 3.151560 1_455
Ni2 P4 2.141055 1_555
Ni2 P1 2.255912 1_555
Ni2 P5 2.394183 1_455
Ni2 P5 2.394183 1_565
Ni2 Yb1 3.151560 1_565
Ni2 Yb1 3.151560 1_455
Ni3 P5 2.141055 1_555
Ni3 P0 2.255912 1_555
Ni3 P4 2.394183 1_545
Ni3 P4 2.394183 1_655
Ni3 Yb0 3.151560 1_655
Ni3 Yb0 3.151560 1_545
Ni4 P2 2.272091 1_555
Ni4 P0 2.282206 1_565
Ni4 P0 2.282206 1_455
Ni4 P3 2.290575 1_554
Ni4 Yb0 3.246286 1_545
Ni4 Yb0 3.246286 1_655
Ni5 P3 2.272091 1_555
Ni5 P1 2.282206 1_655
Ni5 P1 2.282206 1_545
Ni5 P2 2.290575 1_556
Ni5 Yb1 3.246286 1_565
Ni5 Yb1 3.246286 1_455
Ni6 P4 2.272091 1_555
Ni6 P1 2.282206 1_655
Ni6 P1 2.282206 1_545
Ni6 P5 2.290575 1_555
Ni6 Yb1 3.246286 1_565
Ni6 Yb1 3.246286 1_455
Ni7 P5 2.272091 1_555
Ni7 P0 2.282206 1_565
Ni7 P0 2.282206 1_455
Ni7 P4 2.290575 1_555
Ni7 Yb0 3.246286 1_545
Ni7 Yb0 3.246286 1_655
Ni8 P3 2.293391 1_444
Ni8 P2 2.293391 1_445
Ni8 P2 2.293391 1_555
Ni8 P3 2.293391 1_554
Ni9 P4 2.293391 1_445
Ni9 P5 2.293391 1_445
Ni9 P5 2.293391 1_555
Ni9 P4 2.293391 1_555
P0 Yb0 3.123537 1_655
P0 Yb0 3.123537 1_545
P0 Yb0 3.235101 1_645
P1 Yb1 3.123537 1_565
P1 Yb1 3.123537 1_455
P1 Yb1 3.235101 1_465
P2 Yb0 3.006642 1_655
P2 Yb0 3.006642 1_545
P3 Yb1 3.006642 1_565
P3 Yb1 3.006642 1_455
P4 Yb1 3.006642 1_565
P4 Yb1 3.006642 1_455
P5 Yb0 3.006642 1_655
P5 Yb0 3.006642 1_545
