# generated using pymatgen
data_La(GeIr)2
_symmetry_space_group_name_H-M   'P 1'
_cell_length_a   4.29760629
_cell_length_b   4.29760629
_cell_length_c   10.13573412
_cell_angle_alpha   90.00000000
_cell_angle_beta   90.00000000
_cell_angle_gamma   90.00000000
_symmetry_Int_Tables_number   1
_chemical_formula_structural   La(GeIr)2
_chemical_formula_sum   'La2 Ge4 Ir4'
_cell_volume   187.20112869
_cell_formula_units_Z   2
loop_
 _symmetry_equiv_pos_site_id
 _symmetry_equiv_pos_as_xyz
  1  'x, y, z'
loop_
 _atom_site_type_symbol
 _atom_site_label
 _atom_site_symmetry_multiplicity
 _atom_site_fract_x
 _atom_site_fract_y
 _atom_site_fract_z
 _atom_site_occupancy
  La  La0  1  0.00000000  0.50000000  0.25650448  1
  La  La1  1  0.50000000  -0.00000000  0.74349552  1
  Ge  Ge0  1  -0.00000000  -0.00000000  0.50000000  1
  Ge  Ge1  1  0.50000000  0.50000000  0.50000000  1
  Ge  Ge2  1  -0.00000000  0.50000000  0.87032221  1
  Ge  Ge3  1  0.50000000  0.00000000  0.12967779  1
  Ir  Ir0  1  0.00000000  0.00000000  0.00000000  1
  Ir  Ir1  1  0.50000000  0.50000000  0.00000000  1
  Ir  Ir2  1  0.00000000  0.50000000  0.62688641  1
  Ir  Ir3  1  0.50000000  0.00000000  0.37311359  1
loop_
_geom_bond_atom_site_label_1
_geom_bond_atom_site_label_2
_geom_bond_distance
_geom_bond_site_symmetry_2
Ge0 Ir3 2.504271 1_555
Ge0 Ir3 2.504271 1_455
Ge0 Ir2 2.504271 1_555
Ge0 Ir2 2.504271 1_545
Ge0 La1 3.272370 1_555
Ge0 La1 3.272370 1_455
Ge0 La0 3.272370 1_545
Ge0 La0 3.272370 1_555
Ge1 Ir3 2.504271 1_565
Ge1 Ir2 2.504271 1_655
Ge1 Ir3 2.504271 1_555
Ge1 Ir2 2.504271 1_555
Ge1 La1 3.272370 1_555
Ge1 La1 3.272370 1_565
Ge1 La0 3.272370 1_655
Ge1 La0 3.272370 1_555
Ge2 Ir2 2.467401 1_555
Ge2 Ir0 2.518918 1_556
Ge2 Ir0 2.518918 1_566
Ge2 Ir1 2.518918 1_456
Ge2 Ir1 2.518918 1_556
Ge2 La1 3.299572 1_455
Ge2 La1 3.299572 1_465
Ge2 La1 3.299572 1_555
Ge2 La1 3.299572 1_565
Ge3 Ir3 2.467401 1_555
Ge3 Ir0 2.518918 1_555
Ge3 Ir1 2.518918 1_545
Ge3 Ir1 2.518918 1_555
Ge3 Ir0 2.518918 1_655
Ge3 La0 3.299572 1_645
Ge3 La0 3.299572 1_545
Ge3 La0 3.299572 1_555
Ge3 La0 3.299572 1_655
Ir0 La0 3.372927 1_545
Ir0 La0 3.372927 1_555
Ir0 La1 3.372927 1_554
Ir0 La1 3.372927 1_454
Ir1 La0 3.372927 1_555
Ir1 La0 3.372927 1_655
Ir1 La1 3.372927 1_564
Ir1 La1 3.372927 1_554
Ir2 La1 3.260620 1_555
Ir2 La1 3.260620 1_565
Ir2 La1 3.260620 1_465
Ir2 La1 3.260620 1_455
Ir3 La0 3.260620 1_655
Ir3 La0 3.260620 1_645
Ir3 La0 3.260620 1_545
Ir3 La0 3.260620 1_555
