# generated using pymatgen
data_TeMoWSe2S
_symmetry_space_group_name_H-M   'P 1'
_cell_length_a   3.34548165
_cell_length_b   3.34548165
_cell_length_c   39.19699600
_cell_angle_alpha   90.00000000
_cell_angle_beta   90.00000000
_cell_angle_gamma   119.99999315
_symmetry_Int_Tables_number   1
_chemical_formula_structural   TeMoWSe2S
_chemical_formula_sum   'Te2 Mo2 W2 Se4 S2'
_cell_volume   379.92751886
_cell_formula_units_Z   2
loop_
 _symmetry_equiv_pos_site_id
 _symmetry_equiv_pos_as_xyz
  1  'x, y, z'
loop_
 _atom_site_type_symbol
 _atom_site_label
 _atom_site_symmetry_multiplicity
 _atom_site_fract_x
 _atom_site_fract_y
 _atom_site_fract_z
 _atom_site_occupancy
  Te  Te0  1  0.66666700  0.33333300  0.42104100  1
  Te  Te1  1  0.66666700  0.33333300  0.51828400  1
  Mo  Mo0  1  0.33333300  0.66666700  0.09386300  1
  Mo  Mo1  1  0.66666700  0.33333300  0.65830800  1
  W  W0  1  0.33333300  0.66666700  0.46964000  1
  W  W1  1  0.66666700  0.33333300  0.28111100  1
  Se  Se0  1  0.33333300  0.66666700  0.32380900  1
  Se  Se1  1  0.33333300  0.66666700  0.70076500  1
  Se  Se2  1  0.33333300  0.66666700  0.23841700  1
  Se  Se3  1  0.33333300  0.66666700  0.61580800  1
  S  S0  1  0.66666700  0.33333300  0.05522300  1
  S  S1  1  0.66666700  0.33333300  0.13247900  1
loop_
_geom_bond_atom_site_label_1
_geom_bond_atom_site_label_2
_geom_bond_distance
_geom_bond_site_symmetry_2
Te0 W0 2.712843 1_545
Te0 W0 2.712843 1_655
Te0 W0 2.712847 1_555
Te1 W0 2.714082 1_545
Te1 W0 2.714082 1_655
Te1 W0 2.714086 1_555
Mo0 S1 2.453940 1_455
Mo0 S1 2.453940 1_565
Mo0 S1 2.453944 1_555
Mo0 S0 2.454520 1_565
Mo0 S0 2.454520 1_455
Mo0 S0 2.454525 1_555
Mo1 Se1 2.549561 1_545
Mo1 Se1 2.549561 1_655
Mo1 Se1 2.549565 1_555
Mo1 Se3 2.550661 1_545
Mo1 Se3 2.550661 1_655
Mo1 Se3 2.550665 1_555
Se0 W1 2.555737 1_455
Se0 W1 2.555737 1_565
Se0 W1 2.555741 1_555
Se2 W1 2.555634 1_455
Se2 W1 2.555634 1_565
Se2 W1 2.555638 1_555
