# generated using pymatgen
data_CeTm4S7
_symmetry_space_group_name_H-M   'P 1'
_cell_length_a   6.72294379
_cell_length_b   6.72294379
_cell_length_c   11.63200287
_cell_angle_alpha   75.91659767
_cell_angle_beta   75.91659767
_cell_angle_gamma   32.75553440
_symmetry_Int_Tables_number   1
_chemical_formula_structural   CeTm4S7
_chemical_formula_sum   'Ce1 Tm4 S7'
_cell_volume   275.15523214
_cell_formula_units_Z   1
loop_
 _symmetry_equiv_pos_site_id
 _symmetry_equiv_pos_as_xyz
  1  'x, y, z'
loop_
 _atom_site_type_symbol
 _atom_site_label
 _atom_site_symmetry_multiplicity
 _atom_site_fract_x
 _atom_site_fract_y
 _atom_site_fract_z
 _atom_site_occupancy
  Ce  Ce0  1  0.88710500  0.88710500  0.42113800  1
  Tm  Tm0  1  0.69903100  0.69903100  0.18635400  1
  Tm  Tm1  1  0.30164100  0.30164100  0.81282700  1
  Tm  Tm2  1  0.11418200  0.11418200  0.58129000  1
  Tm  Tm3  1  0.00026100  0.00026100  0.99774000  1
  S  S0  1  0.73693900  0.73693900  0.65486900  1
  S  S1  1  0.25064600  0.25064600  0.34859500  1
  S  S2  1  0.04500500  0.04500500  0.20800900  1
  S  S3  1  0.95811900  0.95811900  0.78544300  1
  S  S4  1  0.50552200  0.50552200  0.50476800  1
  S  S5  1  0.34207400  0.34207400  0.04987500  1
  S  S6  1  0.65947500  0.65947500  0.94909400  1
loop_
_geom_bond_atom_site_label_1
_geom_bond_atom_site_label_2
_geom_bond_distance
_geom_bond_site_symmetry_2
Ce0 S4 2.761748 1_565
Ce0 S4 2.761748 1_655
Ce0 S2 2.780949 1_665
Ce0 S1 2.856209 1_565
Ce0 S1 2.856209 1_655
Ce0 S0 2.910805 1_555
S0 Tm2 2.742509 1_565
S0 Tm2 2.742509 1_655
S0 Tm1 2.905867 1_565
S0 Tm1 2.905867 1_655
S1 Tm2 2.829902 1_555
S1 Tm0 2.869804 1_455
S1 Tm0 2.869804 1_545
S2 Tm3 2.651693 1_554
S2 Tm0 2.711310 1_545
S2 Tm0 2.711310 1_455
S3 Tm3 2.659824 1_665
S3 Tm2 2.695800 1_665
S3 Tm1 2.728304 1_565
S3 Tm1 2.728304 1_655
S4 Tm2 2.642653 1_655
S4 Tm2 2.642653 1_565
S5 Tm3 2.738222 1_654
S5 Tm3 2.738222 1_564
S5 Tm0 2.834242 1_455
S5 Tm0 2.834242 1_545
S5 Tm1 2.933350 1_554
S6 Tm3 2.746404 1_565
S6 Tm3 2.746404 1_655
S6 Tm1 2.827522 1_565
S6 Tm1 2.827522 1_655
S6 Tm0 2.931090 1_556
