# generated using pymatgen
data_CeAl3Cu
_symmetry_space_group_name_H-M   'P 1'
_cell_length_a   6.13048872
_cell_length_b   6.13048872
_cell_length_c   6.13048872
_cell_angle_alpha   139.71461618
_cell_angle_beta   139.71461618
_cell_angle_gamma   58.28687054
_symmetry_Int_Tables_number   1
_chemical_formula_structural   CeAl3Cu
_chemical_formula_sum   'Ce1 Al3 Cu1'
_cell_volume   95.45173342
_cell_formula_units_Z   1
loop_
 _symmetry_equiv_pos_site_id
 _symmetry_equiv_pos_as_xyz
  1  'x, y, z'
loop_
 _atom_site_type_symbol
 _atom_site_label
 _atom_site_symmetry_multiplicity
 _atom_site_fract_x
 _atom_site_fract_y
 _atom_site_fract_z
 _atom_site_occupancy
  Ce  Ce0  1  0.00000000  0.00000000  0.00000000  1
  Al  Al0  1  0.61763100  0.61763100  0.00000000  1
  Al  Al1  1  0.38236900  0.38236900  0.00000000  1
  Al  Al2  1  0.75000000  0.25000000  0.50000000  1
  Cu  Cu0  1  0.25000000  0.75000000  0.50000000  1
loop_
_geom_bond_atom_site_label_1
_geom_bond_atom_site_label_2
_geom_bond_distance
_geom_bond_site_symmetry_2
Ce0 Cu0 3.409410 1_544
Ce0 Cu0 3.409410 1_444
Ce0 Cu0 3.409410 1_545
Ce0 Cu0 3.409410 1_555
Al0 Al1 2.519369 1_555
Al0 Al2 2.542841 1_565
Al0 Cu0 2.542841 1_554
Al0 Al2 2.542841 1_554
Al0 Cu0 2.542841 1_655
Al0 Ce0 3.240404 1_554
Al0 Ce0 3.240404 1_655
Al0 Ce0 3.240404 1_666
Al0 Ce0 3.240404 1_565
Al1 Cu0 2.542841 1_544
Al1 Cu0 2.542841 1_555
Al1 Al2 2.542841 1_555
Al1 Al2 2.542841 1_454
Al1 Ce0 3.240404 1_666
Al1 Ce0 3.240404 1_554
Al1 Ce0 3.240404 1_565
Al1 Ce0 3.240404 1_655
Al2 Cu0 2.985534 1_656
Al2 Cu0 2.985534 1_645
Al2 Cu0 2.985534 1_544
Al2 Cu0 2.985534 1_555
Al2 Ce0 3.409410 1_666
Al2 Ce0 3.409410 1_656
Al2 Ce0 3.409410 1_555
Al2 Ce0 3.409410 1_655
