# generated using pymatgen
data_TaCo3
_symmetry_space_group_name_H-M   'P 1'
_cell_length_a   4.71013829
_cell_length_b   4.70858400
_cell_length_c   15.40815501
_cell_angle_alpha   90.00000000
_cell_angle_beta   89.99691313
_cell_angle_gamma   60.01091533
_symmetry_Int_Tables_number   1
_chemical_formula_structural   TaCo3
_chemical_formula_sum   'Ta6 Co18'
_cell_volume   295.97362262
_cell_formula_units_Z   6
loop_
 _symmetry_equiv_pos_site_id
 _symmetry_equiv_pos_as_xyz
  1  'x, y, z'
loop_
 _atom_site_type_symbol
 _atom_site_label
 _atom_site_symmetry_multiplicity
 _atom_site_fract_x
 _atom_site_fract_y
 _atom_site_fract_z
 _atom_site_occupancy
  Ta  Ta0  1  0.99989200  0.00005400  0.09127900  1
  Ta  Ta1  1  0.00010800  0.99994600  0.90872100  1
  Ta  Ta2  1  0.33335500  0.33332300  0.35248100  1
  Ta  Ta3  1  0.66664500  0.66667700  0.64751900  1
  Ta  Ta4  1  0.66669100  0.66665500  0.84055200  1
  Ta  Ta5  1  0.33330900  0.33334500  0.15944800  1
  Co  Co0  1  0.16236500  0.67528300  0.74775200  1
  Co  Co1  1  0.67525900  0.16237000  0.74777300  1
  Co  Co2  1  0.16236500  0.16235100  0.74775200  1
  Co  Co3  1  0.83763500  0.32471700  0.25224800  1
  Co  Co4  1  0.32474100  0.83763000  0.25222700  1
  Co  Co5  1  0.83763500  0.83764900  0.25224800  1
  Co  Co6  1  0.50000000  0.00000000  0.50000000  1
  Co  Co7  1  0.00000000  0.50000000  0.50000000  1
  Co  Co8  1  0.50000000  0.50000000  0.50000000  1
  Co  Co9  1  0.50000000  0.00000000  0.00000000  1
  Co  Co10  1  0.00000000  0.50000000  0.00000000  1
  Co  Co11  1  0.50000000  0.50000000  0.00000000  1
  Co  Co12  1  0.33328300  0.33335900  0.62556300  1
  Co  Co13  1  0.66671700  0.66664100  0.37443700  1
  Co  Co14  1  0.66675800  0.66662100  0.12833000  1
  Co  Co15  1  0.33324200  0.33337900  0.87167000  1
  Co  Co16  1  0.00005000  0.99997500  0.58634000  1
  Co  Co17  1  0.99995000  0.00002500  0.41366000  1
loop_
_geom_bond_atom_site_label_1
_geom_bond_atom_site_label_2
_geom_bond_distance
_geom_bond_site_symmetry_2
Ta0 Ta1 2.812882 1_644
Ta0 Ta5 2.914829 1_655
Ta0 Ta5 2.914833 1_645
Ta0 Ta5 2.915099 1_555
Ta1 Ta4 2.914829 1_455
Ta1 Ta4 2.914833 1_465
Ta1 Ta4 2.915099 1_555
Ta2 Ta5 2.974282 1_555
Ta3 Ta4 2.974282 1_555
Co0 Co2 2.293401 1_565
Co0 Co1 2.294292 1_465
Co0 Co12 2.342834 1_555
Co0 Co15 2.364317 1_555
Co0 Co2 2.415183 1_555
Co0 Co1 2.415846 1_555
Co0 Ta4 2.755258 1_455
Co0 Ta4 2.755509 1_555
Co0 Ta1 2.811485 1_555
Co0 Ta3 2.816368 1_555
Co0 Ta3 2.816666 1_455
Co0 Co16 2.817637 1_555
Co1 Co2 2.294292 1_655
Co1 Co12 2.343599 1_555
Co1 Co15 2.364494 1_555
Co1 Co2 2.415846 1_555
Co1 Ta4 2.754543 1_545
Co1 Ta4 2.754551 1_555
Co1 Ta1 2.811872 1_645
Co1 Ta3 2.816047 1_555
Co1 Ta3 2.816047 1_545
Co1 Co16 2.818208 1_645
Co2 Ta4 2.755262 1_455
Co2 Ta4 2.755505 1_545
Co2 Ta1 2.811483 1_545
Co2 Ta3 2.816368 1_545
Co2 Ta3 2.816666 1_455
Co3 Co5 2.293401 1_545
Co3 Co4 2.294292 1_645
Co3 Co5 2.415183 1_555
Co3 Co4 2.415846 1_555
Co3 Ta5 2.755258 1_655
Co3 Ta5 2.755509 1_555
Co3 Ta0 2.811485 1_555
Co3 Ta2 2.816368 1_555
Co3 Ta2 2.816666 1_655
Co4 Co5 2.294292 1_455
Co4 Co5 2.415846 1_555
Co4 Ta5 2.754543 1_565
Co4 Ta5 2.754551 1_555
Co4 Ta0 2.811872 1_465
Co4 Ta2 2.816047 1_565
Co4 Ta2 2.816047 1_555
Co5 Ta5 2.755262 1_655
Co5 Ta5 2.755505 1_565
Co5 Ta0 2.811483 1_565
Co5 Ta2 2.816368 1_565
Co5 Ta2 2.816666 1_655
Co6 Co8 2.354292 1_545
Co6 Co8 2.354292 1_555
Co6 Co7 2.355069 1_555
Co6 Co7 2.355069 1_645
Co6 Ta3 2.648501 1_545
Co6 Ta2 2.648501 1_555
Co7 Co8 2.355069 1_455
Co7 Co8 2.355069 1_555
Co7 Ta2 2.648689 1_555
Co7 Ta3 2.648689 1_455
Co8 Ta3 2.648499 1_555
Co8 Ta2 2.648499 1_555
Co9 Ta0 2.742806 1_555
Co9 Ta1 2.742806 1_544
Co9 Ta0 2.743331 1_455
Co9 Ta1 2.743331 1_644
Co9 Ta5 2.807803 1_555
Co9 Ta4 2.807803 1_544
Co10 Co11 2.355069 1_455
Co10 Co9 2.355069 1_555
Co10 Co11 2.355069 1_555
Co10 Co9 2.355069 1_465
Co10 Co15 2.399515 1_554
Co10 Co14 2.399515 1_455
Co10 Ta0 2.742402 1_455
Co10 Ta1 2.742402 1_554
Co10 Ta0 2.742402 1_465
Co10 Ta1 2.742402 1_544
Co10 Ta5 2.808060 1_555
Co10 Ta4 2.808060 1_454
Co11 Co9 2.354292 1_565
Co11 Co9 2.354292 1_555
Co11 Co15 2.399682 1_554
Co11 Co14 2.399682 1_555
Co11 Ta1 2.742806 1_554
Co11 Ta0 2.742806 1_555
Co11 Ta0 2.743331 1_465
Co11 Ta1 2.743331 1_644
Co11 Ta4 2.807805 1_554
Co11 Ta5 2.807805 1_555
Co12 Co2 2.342839 1_555
Co12 Co8 2.364555 1_555
Co12 Co6 2.364558 1_555
Co12 Co7 2.364741 1_555
Co12 Ta3 2.739832 1_555
Co12 Ta3 2.739841 1_545
Co12 Ta3 2.740522 1_455
Co12 Co16 2.784978 1_555
Co12 Co16 2.784982 1_545
Co12 Co16 2.786400 1_645
Co13 Co3 2.342834 1_555
Co13 Co5 2.342839 1_555
Co13 Co4 2.343599 1_555
Co13 Co8 2.364555 1_555
Co13 Co6 2.364558 1_565
Co13 Co7 2.364741 1_655
Co13 Ta2 2.739832 1_555
Co13 Ta2 2.739841 1_565
Co13 Ta2 2.740522 1_655
Co13 Co17 2.784978 1_555
Co13 Co17 2.784982 1_565
Co13 Co17 2.786400 1_465
Co14 Co3 2.364317 1_555
Co14 Co5 2.364320 1_555
Co14 Co4 2.364494 1_555
Co14 Co9 2.399682 1_565
Co14 Ta5 2.760972 1_565
Co14 Ta5 2.760976 1_555
Co14 Ta5 2.761204 1_655
Co14 Ta0 2.777676 1_565
Co14 Ta0 2.777676 1_555
Co14 Ta0 2.779800 1_465
Co15 Co2 2.364320 1_555
Co15 Co9 2.399682 1_556
Co15 Ta4 2.760972 1_545
Co15 Ta4 2.760976 1_555
Co15 Ta4 2.761204 1_455
Co15 Ta1 2.777676 1_555
Co15 Ta1 2.777676 1_545
Co15 Ta1 2.779800 1_645
Co16 Co17 2.660680 1_465
Co16 Co7 2.704163 1_555
Co16 Co7 2.704163 1_565
Co16 Co6 2.704623 1_565
Co16 Co8 2.704623 1_555
Co16 Co8 2.705056 1_465
Co16 Co6 2.705056 1_465
Co16 Co2 2.817635 1_565
Co16 Ta3 2.877691 1_465
Co16 Ta3 2.877695 1_455
Co16 Ta3 2.878209 1_555
Co17 Co7 2.704163 1_655
Co17 Co7 2.704163 1_645
Co17 Co8 2.704623 1_555
Co17 Co6 2.704623 1_555
Co17 Co6 2.705056 1_655
Co17 Co8 2.705056 1_645
Co17 Co5 2.817635 1_545
Co17 Co3 2.817637 1_555
Co17 Co4 2.818208 1_645
Co17 Ta2 2.877691 1_645
Co17 Ta2 2.877695 1_655
Co17 Ta2 2.878209 1_555
