# generated using pymatgen
data_Li32Mn11Cr5O48
_symmetry_space_group_name_H-M   'P 1'
_cell_length_a   5.01676096
_cell_length_b   5.01676096
_cell_length_c   38.47794373
_cell_angle_alpha   88.93666621
_cell_angle_beta   88.93666621
_cell_angle_gamma   119.78953102
_symmetry_Int_Tables_number   1
_chemical_formula_structural   Li32Mn11Cr5O48
_chemical_formula_sum   'Li32 Mn11 Cr5 O48'
_cell_volume   839.86411517
_cell_formula_units_Z   1
loop_
 _symmetry_equiv_pos_site_id
 _symmetry_equiv_pos_as_xyz
  1  'x, y, z'
loop_
 _atom_site_type_symbol
 _atom_site_label
 _atom_site_symmetry_multiplicity
 _atom_site_fract_x
 _atom_site_fract_y
 _atom_site_fract_z
 _atom_site_occupancy
  Li  Li0  1  0.91178500  0.46403100  0.93745600  1
  Li  Li1  1  0.00008700  0.87394200  0.68736300  1
  Li  Li2  1  0.93278500  0.80943900  0.87504600  1
  Li  Li3  1  0.87142400  0.74970500  0.06240400  1
  Li  Li4  1  0.81503700  0.68488800  0.24999200  1
  Li  Li5  1  0.74998100  0.62371100  0.43744900  1
  Li  Li6  1  0.68744500  0.56259200  0.62500200  1
  Li  Li7  1  0.96018600  0.16003600  0.81242000  1
  Li  Li8  1  0.62789600  0.50311700  0.81249200  1
  Li  Li9  1  0.83996400  0.03981400  0.18758000  1
  Li  Li10  1  0.71053100  0.90915500  0.56248700  1
  Li  Li11  1  0.56257800  0.43742200  0.00000000  1
  Li  Li12  1  0.49688300  0.37210400  0.18750800  1
  Li  Li13  1  0.58817200  0.78327400  0.93776400  1
  Li  Li14  1  0.46062400  0.65916600  0.31258100  1
  Li  Li15  1  0.78736300  0.34100900  0.31273700  1
  Li  Li16  1  0.65899100  0.21263700  0.68726300  1
  Li  Li17  1  0.34083400  0.53937600  0.68741900  1
  Li  Li18  1  0.21672600  0.41182800  0.06223600  1
  Li  Li19  1  0.53596900  0.08821500  0.06254400  1
  Li  Li20  1  0.40909100  0.96278000  0.43735400  1
  Li  Li21  1  0.43740800  0.31255500  0.37499800  1
  Li  Li22  1  0.28683900  0.83732300  0.81258700  1
  Li  Li23  1  0.16267700  0.71316100  0.18741300  1
  Li  Li24  1  0.37628900  0.25001900  0.56255100  1
  Li  Li25  1  0.03722000  0.59090900  0.56264600  1
  Li  Li26  1  0.31511200  0.18496300  0.75000800  1
  Li  Li27  1  0.25029500  0.12857600  0.93759600  1
  Li  Li28  1  0.19056100  0.06721500  0.12495400  1
  Li  Li29  1  0.12605800  0.99991300  0.31263700  1
  Li  Li30  1  0.06510100  0.93489900  0.50000000  1
  Li  Li31  1  0.09084500  0.28946900  0.43751300  1
  Mn  Mn0  1  0.89518200  0.10481800  0.00000000  1
  Mn  Mn1  1  0.77044000  0.97952500  0.37498300  1
  Mn  Mn2  1  0.64502700  0.85503200  0.75002500  1
  Mn  Mn3  1  0.52083300  0.72906300  0.12503100  1
  Mn  Mn4  1  0.39498900  0.60501100  0.50000000  1
  Mn  Mn5  1  0.27093700  0.47916700  0.87496900  1
  Mn  Mn6  1  0.35469300  0.89533300  0.62501700  1
  Mn  Mn7  1  0.22939300  0.77060700  0.00000000  1
  Mn  Mn8  1  0.10466700  0.64530700  0.37498300  1
  Mn  Mn9  1  0.14496800  0.35497300  0.24997500  1
  Mn  Mn10  1  0.02047500  0.22956000  0.62501700  1
  Cr  Cr0  1  0.98274900  0.51727500  0.75001300  1
  Cr  Cr1  1  0.85927700  0.40091100  0.12497300  1
  Cr  Cr2  1  0.73276100  0.26723900  0.50000000  1
  Cr  Cr3  1  0.59908900  0.14072300  0.87502700  1
  Cr  Cr4  1  0.48272500  0.01725100  0.24998700  1
  O  O0  1  0.91164300  0.42940000  0.02796800  1
  O  O1  1  0.94769400  0.46405700  0.84695100  1
  O  O2  1  0.92914900  0.80441200  0.97154200  1
  O  O3  1  0.80390300  0.67901400  0.34654500  1
  O  O4  1  0.94491600  0.82044900  0.77842200  1
  O  O5  1  0.81867400  0.69036300  0.15338200  1
  O  O6  1  0.69453700  0.57024000  0.52844700  1
  O  O7  1  0.67989200  0.55568100  0.72156000  1
  O  O8  1  0.54863500  0.43024600  0.09609100  1
  O  O9  1  0.92888800  0.16399700  0.90289100  1
  O  O10  1  0.56975400  0.45136500  0.90390900  1
  O  O11  1  0.80120500  0.03863800  0.27790700  1
  O  O12  1  0.67964900  0.91166600  0.65289200  1
  O  O13  1  0.96136200  0.19879500  0.72209300  1
  O  O14  1  0.83600300  0.07111200  0.09710900  1
  O  O15  1  0.71170800  0.94881500  0.47208800  1
  O  O16  1  0.78657900  0.30412800  0.40298200  1
  O  O17  1  0.82820100  0.34490700  0.22156400  1
  O  O18  1  0.69587200  0.21342100  0.59701800  1
  O  O19  1  0.55394100  0.78676700  0.02789700  1
  O  O20  1  0.42962400  0.66169200  0.40288900  1
  O  O21  1  0.58751500  0.81357000  0.84675400  1
  O  O22  1  0.46213400  0.69885600  0.22216100  1
  O  O23  1  0.33830800  0.57037600  0.59711100  1
  O  O24  1  0.65509300  0.17179900  0.77843600  1
  O  O25  1  0.53594300  0.05230600  0.15304900  1
  O  O26  1  0.40490300  0.92158800  0.52841700  1
  O  O27  1  0.57060000  0.08835700  0.97203200  1
  O  O28  1  0.44582400  0.96342200  0.34701700  1
  O  O29  1  0.30114400  0.53786600  0.77783900  1
  O  O30  1  0.18643000  0.41248500  0.15324600  1
  O  O31  1  0.21323300  0.44605900  0.97210300  1
  O  O32  1  0.28978000  0.80625400  0.90284500  1
  O  O33  1  0.15520800  0.67190700  0.27839300  1
  O  O34  1  0.03657800  0.55417600  0.65298300  1
  O  O35  1  0.32809300  0.84479200  0.72160700  1
  O  O36  1  0.19374600  0.71022000  0.09715500  1
  O  O37  1  0.42976000  0.30546300  0.47155300  1
  O  O38  1  0.07841200  0.59509700  0.47158300  1
  O  O39  1  0.44431900  0.32010800  0.27844000  1
  O  O40  1  0.32098600  0.19609700  0.65345500  1
  O  O41  1  0.30963700  0.18132600  0.84661800  1
  O  O42  1  0.17955100  0.05508400  0.22157800  1
  O  O43  1  0.05401100  0.92911100  0.59655500  1
  O  O44  1  0.19558800  0.07085100  0.02845800  1
  O  O45  1  0.07088900  0.94598900  0.40344500  1
  O  O46  1  0.05118500  0.28829200  0.52791200  1
  O  O47  1  0.08833400  0.32035100  0.34710800  1
loop_
_geom_bond_atom_site_label_1
_geom_bond_atom_site_label_2
_geom_bond_distance
_geom_bond_site_symmetry_2
Li0 O9 2.059187 1_555
Li0 O31 2.068401 1_655
Li0 O2 2.140857 1_555
Li0 O10 2.142764 1_555
Li0 O27 2.206531 1_555
Li0 O32 2.214411 1_655
Li1 O7 2.038667 1_455
Li1 O40 2.040710 1_565
Li1 O34 2.172212 1_555
Li1 O12 2.179783 1_455
Li1 O35 2.185806 1_555
Li1 O13 2.205740 1_465
Li2 O21 2.071385 1_555
Li2 O1 2.090879 1_555
Li2 O10 2.092217 1_555
Li2 O9 2.101599 1_565
Li2 O32 2.109701 1_655
Li2 O41 2.143429 1_665
Li3 O8 2.034014 1_555
Li3 O44 2.046005 1_665
Li3 O19 2.167465 1_555
Li3 O0 2.183981 1_555
Li3 O14 2.184153 1_565
Li3 O36 2.197867 1_655
Li4 O33 2.070705 1_655
Li4 O17 2.070855 1_555
Li4 O42 2.112914 1_665
Li4 O39 2.115259 1_555
Li4 O22 2.115885 1_555
Li4 O11 2.120935 1_565
Li5 O37 2.036489 1_555
Li5 O45 2.043222 1_655
Li5 O16 2.173803 1_555
Li5 O20 2.182157 1_555
Li5 O38 2.183749 1_655
Li5 O15 2.203572 1_555
Li6 O12 2.087152 1_555
Li6 O23 2.087418 1_555
Li6 O34 2.090587 1_655
Li6 O18 2.090836 1_555
Li6 O40 2.109719 1_555
Li6 O43 2.109888 1_655
Li7 O24 2.053589 1_555
Li7 O1 2.064621 1_555
Li7 O4 2.139226 1_545
Li7 O41 2.172810 1_655
Li7 O21 2.203637 1_545
Li7 O29 2.211228 1_655
Li8 O4 2.027748 1_555
Li8 O41 2.040094 1_555
Li8 O21 2.141155 1_555
Li8 O1 2.179923 1_555
Li8 O24 2.190443 1_555
Li8 O29 2.202685 1_555
Li9 O17 2.053589 1_555
Li9 O25 2.064621 1_555
Li9 O42 2.139226 1_655
Li9 O5 2.172810 1_545
Li9 O30 2.203637 1_655
Li9 O22 2.211228 1_545
Li10 O26 2.059114 1_555
Li10 O18 2.069778 1_565
Li10 O6 2.136318 1_555
Li10 O43 2.148245 1_655
Li10 O23 2.195589 1_555
Li10 O46 2.213621 1_665
Li11 O27 2.089187 1_554
Li11 O0 2.089187 1_555
Li11 O31 2.090262 1_554
Li11 O19 2.090262 1_555
Li11 O2 2.111119 1_554
Li11 O44 2.111119 1_555
Li12 O42 2.027748 1_555
Li12 O5 2.040094 1_555
Li12 O30 2.141155 1_555
Li12 O25 2.179923 1_555
Li12 O17 2.190443 1_555
Li12 O22 2.202685 1_555
Li13 O27 2.072087 1_565
Li13 O32 2.073609 1_555
Li13 O10 2.100041 1_555
Li13 O2 2.129326 1_555
Li13 O31 2.192898 1_555
Li13 O9 2.223984 1_565
Li14 O33 2.061848 1_555
Li14 O28 2.067623 1_555
Li14 O39 2.138788 1_555
Li14 O3 2.145130 1_555
Li14 O47 2.193654 1_555
Li14 O11 2.216456 1_565
Li15 O47 2.064975 1_655
Li15 O11 2.068489 1_555
Li15 O3 2.126162 1_555
Li15 O39 2.150444 1_555
Li15 O33 2.166028 1_655
Li15 O28 2.205052 1_545
Li16 O12 2.064975 1_545
Li16 O13 2.068489 1_555
Li16 O40 2.126162 1_555
Li16 O7 2.150444 1_555
Li16 O35 2.166028 1_545
Li16 O34 2.205052 1_655
Li17 O35 2.061848 1_555
Li17 O34 2.067623 1_555
Li17 O7 2.138788 1_555
Li17 O40 2.145130 1_555
Li17 O12 2.193654 1_555
Li17 O13 2.216456 1_455
Li18 O0 2.072087 1_455
Li18 O36 2.073609 1_555
Li18 O8 2.100041 1_555
Li18 O44 2.129326 1_555
Li18 O19 2.192898 1_555
Li18 O14 2.223984 1_455
Li19 O14 2.059187 1_555
Li19 O19 2.068401 1_545
Li19 O44 2.140857 1_555
Li19 O8 2.142764 1_555
Li19 O0 2.206531 1_555
Li19 O36 2.214411 1_545
Li20 O15 2.067229 1_555
Li20 O20 2.067538 1_555
Li20 O45 2.128947 1_555
Li20 O37 2.147038 1_565
Li20 O38 2.162725 1_555
Li20 O16 2.206510 1_565
Li21 O47 2.087152 1_555
Li21 O20 2.087418 1_555
Li21 O28 2.090587 1_545
Li21 O16 2.090836 1_555
Li21 O3 2.109719 1_555
Li21 O45 2.109888 1_545
Li22 O29 2.056170 1_555
Li22 O21 2.065017 1_555
Li22 O41 2.144609 1_565
Li22 O4 2.149718 1_455
Li22 O24 2.168699 1_565
Li22 O1 2.192851 1_455
Li23 O22 2.056170 1_555
Li23 O30 2.065017 1_555
Li23 O5 2.144609 1_455
Li23 O42 2.149718 1_565
Li23 O17 2.168699 1_455
Li23 O25 2.192851 1_565
Li24 O6 2.036489 1_555
Li24 O43 2.043222 1_545
Li24 O18 2.173803 1_555
Li24 O23 2.182157 1_555
Li24 O26 2.183749 1_545
Li24 O46 2.203572 1_555
Li25 O46 2.067229 1_555
Li25 O23 2.067538 1_555
Li25 O43 2.128947 1_555
Li25 O6 2.147038 1_455
Li25 O26 2.162725 1_555
Li25 O18 2.206510 1_455
Li26 O35 2.070705 1_545
Li26 O24 2.070855 1_555
Li26 O4 2.112914 1_445
Li26 O7 2.115259 1_555
Li26 O29 2.115885 1_555
Li26 O13 2.120935 1_455
Li27 O10 2.034014 1_555
Li27 O2 2.046005 1_445
Li27 O31 2.167465 1_555
Li27 O27 2.183981 1_555
Li27 O9 2.184153 1_455
Li27 O32 2.197867 1_545
Li28 O30 2.071385 1_555
Li28 O25 2.090879 1_555
Li28 O8 2.092217 1_555
Li28 O14 2.101599 1_455
Li28 O36 2.109701 1_545
Li28 O5 2.143429 1_445
Li29 O39 2.038667 1_565
Li29 O3 2.040710 1_455
Li29 O28 2.172212 1_555
Li29 O47 2.179783 1_565
Li29 O33 2.185806 1_555
Li29 O11 2.205740 1_465
Li30 O26 2.070181 1_555
Li30 O38 2.070181 1_555
Li30 O37 2.114646 1_565
Li30 O6 2.114646 1_455
Li30 O15 2.119515 1_455
Li30 O46 2.119515 1_565
Li31 O38 2.059114 1_555
Li31 O16 2.069778 1_455
Li31 O37 2.136318 1_555
Li31 O45 2.148245 1_545
Li31 O20 2.195589 1_555
Li31 O15 2.213621 1_445
Mn0 O27 1.936793 1_554
Mn0 O0 1.936793 1_555
Mn0 O31 1.944971 1_654
Mn0 O19 1.944971 1_545
Mn0 O2 1.951619 1_544
Mn0 O44 1.951619 1_655
Mn1 O28 1.937547 1_555
Mn1 O16 1.938153 1_565
Mn1 O47 1.943274 1_665
Mn1 O20 1.943758 1_555
Mn1 O3 1.950450 1_555
Mn1 O45 1.950891 1_655
Mn2 O24 1.926084 1_565
Mn2 O35 1.926604 1_555
Mn2 O29 1.947848 1_555
Mn2 O13 1.948397 1_565
Mn2 O7 1.949482 1_555
Mn2 O4 1.949556 1_555
Mn3 O30 1.932979 1_555
Mn3 O25 1.934803 1_565
Mn3 O36 1.940876 1_555
Mn3 O8 1.941824 1_555
Mn3 O14 1.942028 1_565
Mn3 O5 1.949677 1_555
Mn4 O26 1.925719 1_555
Mn4 O38 1.925719 1_555
Mn4 O15 1.948797 1_555
Mn4 O46 1.948797 1_555
Mn4 O37 1.949682 1_555
Mn4 O6 1.949682 1_555
Mn5 O21 1.932979 1_555
Mn5 O1 1.934803 1_455
Mn5 O32 1.940876 1_555
Mn5 O10 1.941824 1_555
Mn5 O9 1.942028 1_455
Mn5 O41 1.949677 1_555
Mn6 O12 1.936542 1_555
Mn6 O23 1.937132 1_555
Mn6 O34 1.946279 1_555
Mn6 O18 1.946941 1_565
Mn6 O40 1.952061 1_565
Mn6 O43 1.952415 1_555
Mn7 O31 1.935642 1_554
Mn7 O19 1.935642 1_555
Mn7 O27 1.945753 1_564
Mn7 O0 1.945753 1_455
Mn7 O44 1.950574 1_565
Mn7 O2 1.950574 1_454
Mn8 O47 1.936542 1_555
Mn8 O20 1.937132 1_555
Mn8 O28 1.946279 1_555
Mn8 O16 1.946941 1_455
Mn8 O3 1.952061 1_455
Mn8 O45 1.952415 1_555
Mn9 O17 1.926084 1_455
Mn9 O33 1.926604 1_555
Mn9 O22 1.947848 1_555
Mn9 O11 1.948397 1_455
Mn9 O39 1.949482 1_555
Mn9 O42 1.949556 1_555
Mn10 O34 1.937547 1_555
Mn10 O18 1.938153 1_455
Mn10 O12 1.943274 1_445
Mn10 O23 1.943758 1_555
Mn10 O40 1.950450 1_555
Mn10 O43 1.950891 1_545
Cr0 O29 1.900546 1_655
Cr0 O13 1.901594 1_555
Cr0 O4 1.971058 1_555
Cr0 O7 1.972050 1_555
Cr0 O35 1.982546 1_655
Cr0 O24 1.983454 1_555
Cr1 O36 1.911451 1_655
Cr1 O5 1.920829 1_555
Cr1 O14 1.943995 1_555
Cr1 O30 1.963285 1_655
Cr1 O25 1.975566 1_555
Cr1 O8 1.992849 1_555
Cr2 O15 1.901771 1_545
Cr2 O46 1.901771 1_655
Cr2 O6 1.972089 1_555
Cr2 O37 1.972089 1_555
Cr2 O38 1.984120 1_655
Cr2 O26 1.984120 1_545
Cr3 O32 1.911451 1_545
Cr3 O41 1.920829 1_555
Cr3 O9 1.943995 1_555
Cr3 O21 1.963285 1_545
Cr3 O1 1.975566 1_555
Cr3 O10 1.992849 1_555
Cr4 O22 1.900546 1_545
Cr4 O11 1.901594 1_555
Cr4 O42 1.971058 1_555
Cr4 O39 1.972050 1_555
Cr4 O33 1.982546 1_545
Cr4 O17 1.983454 1_555
