# generated using pymatgen
data_NaMoC2NO9
_symmetry_space_group_name_H-M   'P 1'
_cell_length_a   15.34798300
_cell_length_b   6.76100800
_cell_length_c   10.15762943
_cell_angle_alpha   89.14557124
_cell_angle_beta   90.00000000
_cell_angle_gamma   90.00000000
_symmetry_Int_Tables_number   1
_chemical_formula_structural   NaMoC2NO9
_chemical_formula_sum   'Na4 Mo4 C8 N4 O36'
_cell_volume   1053.91802478
_cell_formula_units_Z   4
loop_
 _symmetry_equiv_pos_site_id
 _symmetry_equiv_pos_as_xyz
  1  'x, y, z'
loop_
 _atom_site_type_symbol
 _atom_site_label
 _atom_site_symmetry_multiplicity
 _atom_site_fract_x
 _atom_site_fract_y
 _atom_site_fract_z
 _atom_site_occupancy
  Na  Na0  1  0.89043500  0.47901900  0.10635300  1
  Na  Na1  1  0.39043500  0.02098100  0.89364700  1
  Na  Na2  1  0.10956500  0.52098100  0.89364700  1
  Na  Na3  1  0.60956500  0.97901900  0.10635300  1
  Mo  Mo0  1  0.76870200  0.94190200  0.42500000  1
  Mo  Mo1  1  0.26870200  0.55809800  0.57500000  1
  Mo  Mo2  1  0.23129800  0.05809800  0.57500000  1
  Mo  Mo3  1  0.73129800  0.44190200  0.42500000  1
  C  C0  1  0.57726700  0.99176200  0.71497000  1
  C  C1  1  0.07726700  0.50823800  0.28503000  1
  C  C2  1  0.42273300  0.00823800  0.28503000  1
  C  C3  1  0.92273300  0.49176200  0.71497000  1
  C  C4  1  0.79581100  0.94469000  0.85939700  1
  C  C5  1  0.29581100  0.55531000  0.14060300  1
  C  C6  1  0.20418900  0.05531000  0.14060300  1
  C  C7  1  0.70418900  0.44469000  0.85939700  1
  N  N0  1  0.52108700  0.69981200  0.37025900  1
  N  N1  1  0.02108700  0.80018800  0.62974100  1
  N  N2  1  0.47891300  0.30018800  0.62974100  1
  N  N3  1  0.97891300  0.19981200  0.37025900  1
  O  O0  1  0.59796700  0.95476600  0.60725300  1
  O  O1  1  0.09796700  0.54523400  0.39274700  1
  O  O2  1  0.40203300  0.04523400  0.39274700  1
  O  O3  1  0.90203300  0.45476600  0.60725300  1
  O  O4  1  0.55805100  0.02526900  0.82493000  1
  O  O5  1  0.05805100  0.47473100  0.17507000  1
  O  O6  1  0.44194900  0.97473100  0.17507000  1
  O  O7  1  0.94194900  0.52526900  0.82493000  1
  O  O8  1  0.75253900  0.97863500  0.95242500  1
  O  O9  1  0.25253900  0.52136500  0.04757500  1
  O  O10  1  0.24746100  0.02136500  0.04757500  1
  O  O11  1  0.74746100  0.47863500  0.95242500  1
  O  O12  1  0.83641400  0.91101200  0.76471300  1
  O  O13  1  0.33641400  0.58898800  0.23528700  1
  O  O14  1  0.16358600  0.08898800  0.23528700  1
  O  O15  1  0.66358600  0.41101200  0.76471300  1
  O  O16  1  0.87707100  0.91703900  0.37962000  1
  O  O17  1  0.37707100  0.58296100  0.62038000  1
  O  O18  1  0.12292900  0.08296100  0.62038000  1
  O  O19  1  0.62292900  0.41703900  0.37962000  1
  O  O20  1  0.69920500  0.96754000  0.28604600  1
  O  O21  1  0.19920500  0.53246000  0.71395400  1
  O  O22  1  0.30079500  0.03246000  0.71395400  1
  O  O23  1  0.80079500  0.46754000  0.28604600  1
  O  O24  1  0.75900200  0.19336800  0.51473800  1
  O  O25  1  0.25900200  0.30663200  0.48526200  1
  O  O26  1  0.24099800  0.80663200  0.48526200  1
  O  O27  1  0.74099800  0.69336800  0.51473800  1
  O  O28  1  0.54261500  0.30971100  0.04023000  1
  O  O29  1  0.04261500  0.19028900  0.95977000  1
  O  O30  1  0.45738500  0.69028900  0.95977000  1
  O  O31  1  0.95738500  0.80971100  0.04023000  1
  O  O32  1  0.53637600  0.69699100  0.00215400  1
  O  O33  1  0.03637600  0.80300900  0.99784600  1
  O  O34  1  0.46362400  0.30300900  0.99784600  1
  O  O35  1  0.96362400  0.19699100  0.00215400  1
loop_
_geom_bond_atom_site_label_1
_geom_bond_atom_site_label_2
_geom_bond_distance
_geom_bond_site_symmetry_2
Na0 O23 2.286080 1_555
Na0 O35 2.465381 1_555
Na0 O31 2.541857 1_555
Na0 O5 2.665623 1_655
Na0 O11 2.694443 1_554
Na1 O22 2.286080 1_555
Na1 O34 2.465381 1_555
Na1 O30 2.541857 1_545
Na1 O4 2.665623 1_555
Na1 O10 2.694443 1_556
Na2 O21 2.286080 1_555
Na2 O33 2.465381 1_555
Na2 O29 2.541857 1_555
Na2 O7 2.665623 1_455
Na2 O9 2.694443 1_556
Na3 O20 2.286080 1_555
Na3 O32 2.465381 1_555
Na3 O28 2.541857 1_565
Na3 O6 2.665623 1_555
Na3 O8 2.694443 1_554
Mo0 O16 1.734771 1_555
Mo0 O20 1.775567 1_555
Mo0 O27 1.946673 1_555
Mo0 O24 1.946746 1_565
Mo1 O17 1.734771 1_555
Mo1 O21 1.775567 1_555
Mo1 O26 1.946673 1_555
Mo1 O25 1.946746 1_555
Mo2 O18 1.734771 1_555
Mo2 O22 1.775567 1_555
Mo2 O25 1.946673 1_555
Mo2 O26 1.946746 1_545
Mo3 O19 1.734771 1_555
Mo3 O23 1.775567 1_555
Mo3 O24 1.946673 1_555
Mo3 O27 1.946746 1_555
C0 O0 1.169968 1_555
C0 O4 1.180419 1_565
C1 O1 1.169968 1_555
C1 O5 1.180419 1_555
C2 O2 1.169968 1_555
C2 O6 1.180419 1_545
C3 O3 1.169968 1_555
C3 O7 1.180419 1_555
C4 O12 1.171202 1_555
C4 O8 1.180312 1_555
C5 O13 1.171202 1_555
C5 O9 1.180312 1_555
C6 O14 1.171202 1_555
C6 O10 1.180312 1_555
C7 O15 1.171202 1_555
C7 O11 1.180312 1_555
O28 O34 1.287549 1_554
O29 O35 1.287549 1_456
O30 O32 1.287549 1_556
O31 O33 1.287549 1_654
