# generated using pymatgen
data_WSeS
_symmetry_space_group_name_H-M   'P 1'
_cell_length_a   3.24811347
_cell_length_b   3.24951378
_cell_length_c   13.45876276
_cell_angle_alpha   90.00034910
_cell_angle_beta   90.00843204
_cell_angle_gamma   59.98571985
_symmetry_Int_Tables_number   1
_chemical_formula_structural   WSeS
_chemical_formula_sum   'W2 Se2 S2'
_cell_volume   123.00501777
_cell_formula_units_Z   2
loop_
 _symmetry_equiv_pos_site_id
 _symmetry_equiv_pos_as_xyz
  1  'x, y, z'
loop_
 _atom_site_type_symbol
 _atom_site_label
 _atom_site_symmetry_multiplicity
 _atom_site_fract_x
 _atom_site_fract_y
 _atom_site_fract_z
 _atom_site_occupancy
  W  W0  1  0.66649991  0.66675527  0.74315334  1
  W  W1  1  0.33350004  0.33324530  0.25684661  1
  Se  Se0  1  0.66655818  0.66670874  0.13072408  1
  Se  Se1  1  0.33344155  0.33329005  0.86927625  1
  S  S0  1  0.33322646  0.33339004  0.62976205  1
  S  S1  1  0.66677386  0.66661060  0.37023767  1
loop_
_geom_bond_atom_site_label_1
_geom_bond_atom_site_label_2
_geom_bond_distance
_geom_bond_site_symmetry_2
Se0 W1 2.529610 1_655
Se0 W1 2.529654 1_555
Se0 W1 2.529672 1_565
Se1 W0 2.529613 1_455
Se1 W0 2.529662 1_555
Se1 W0 2.529671 1_545
S0 W0 2.417916 1_455
S0 W0 2.418051 1_555
S0 W0 2.418054 1_545
S1 W1 2.417914 1_655
S1 W1 2.418050 1_555
S1 W1 2.418052 1_565
