# generated using pymatgen
data_CsGa2Au3
_symmetry_space_group_name_H-M   'P 1'
_cell_length_a   5.99131400
_cell_length_b   7.15974500
_cell_length_c   13.52621800
_cell_angle_alpha   90.00000000
_cell_angle_beta   90.00000000
_cell_angle_gamma   90.00000000
_symmetry_Int_Tables_number   1
_chemical_formula_structural   CsGa2Au3
_chemical_formula_sum   'Cs4 Ga8 Au12'
_cell_volume   580.22444082
_cell_formula_units_Z   4
loop_
 _symmetry_equiv_pos_site_id
 _symmetry_equiv_pos_as_xyz
  1  'x, y, z'
loop_
 _atom_site_type_symbol
 _atom_site_label
 _atom_site_symmetry_multiplicity
 _atom_site_fract_x
 _atom_site_fract_y
 _atom_site_fract_z
 _atom_site_occupancy
  Cs  Cs0  1  0.25000000  0.09545300  0.07053200  1
  Cs  Cs1  1  0.25000000  0.40454700  0.57053200  1
  Cs  Cs2  1  0.75000000  0.90454700  0.92946800  1
  Cs  Cs3  1  0.75000000  0.59545300  0.42946800  1
  Ga  Ga0  1  0.99725800  0.90624800  0.65585700  1
  Ga  Ga1  1  0.50274200  0.59375200  0.15585700  1
  Ga  Ga2  1  0.49725800  0.09375200  0.34414300  1
  Ga  Ga3  1  0.00274200  0.40624800  0.84414300  1
  Ga  Ga4  1  0.00274200  0.09375200  0.34414300  1
  Ga  Ga5  1  0.49725800  0.40624800  0.84414300  1
  Ga  Ga6  1  0.50274200  0.90624800  0.65585700  1
  Ga  Ga7  1  0.99725800  0.59375200  0.15585700  1
  Au  Au0  1  0.25000000  0.12392900  0.78349600  1
  Au  Au1  1  0.25000000  0.37607100  0.28349600  1
  Au  Au2  1  0.75000000  0.87607100  0.21650400  1
  Au  Au3  1  0.75000000  0.62392900  0.71650400  1
  Au  Au4  1  0.25000000  0.71093900  0.79064200  1
  Au  Au5  1  0.25000000  0.78906100  0.29064200  1
  Au  Au6  1  0.75000000  0.28906100  0.20935800  1
  Au  Au7  1  0.75000000  0.21093900  0.70935800  1
  Au  Au8  1  0.25000000  0.57821600  0.99604100  1
  Au  Au9  1  0.25000000  0.92178400  0.49604100  1
  Au  Au10  1  0.75000000  0.42178400  0.00395900  1
  Au  Au11  1  0.75000000  0.07821600  0.50395900  1
loop_
_geom_bond_atom_site_label_1
_geom_bond_atom_site_label_2
_geom_bond_distance
_geom_bond_site_symmetry_2
Au0 Ga5 2.636904 1_555
Au0 Ga3 2.636904 1_555
Au0 Ga0 2.775379 1_445
Au0 Ga6 2.775379 1_545
Au0 Cs1 3.512056 1_555
Au0 Cs0 3.887861 1_556
Au0 Cs2 3.916576 1_545
Au0 Cs2 3.916576 1_445
Au1 Ga2 2.636904 1_555
Au1 Ga4 2.636904 1_555
Au1 Ga1 2.775379 1_555
Au1 Ga7 2.775379 1_455
Au1 Cs0 3.512056 1_555
Au1 Cs1 3.887861 1_555
Au1 Cs3 3.916576 1_555
Au1 Cs3 3.916576 1_455
Au2 Ga7 2.636904 1_555
Au2 Ga1 2.636904 1_555
Au2 Ga4 2.775379 1_665
Au2 Ga2 2.775379 1_565
Au2 Cs3 3.512056 1_555
Au2 Cs2 3.887861 1_554
Au2 Cs0 3.916576 1_665
Au2 Cs0 3.916576 1_565
Au3 Ga6 2.636904 1_555
Au3 Ga0 2.636904 1_555
Au3 Ga3 2.775379 1_655
Au3 Ga5 2.775379 1_555
Au3 Cs2 3.512056 1_555
Au3 Cs3 3.887861 1_555
Au3 Cs1 3.916576 1_555
Au3 Cs1 3.916576 1_655
Au4 Ga5 2.734451 1_555
Au4 Ga3 2.734451 1_555
Au4 Ga0 2.751763 1_455
Au4 Ga6 2.751763 1_555
Au4 Cs1 3.698151 1_555
Au4 Cs2 3.797574 1_455
Au4 Cs2 3.797574 1_555
Au5 Ga4 2.734451 1_565
Au5 Ga2 2.734451 1_565
Au5 Ga1 2.751763 1_555
Au5 Ga7 2.751763 1_455
Au5 Cs0 3.698151 1_565
Au5 Cs3 3.797574 1_455
Au5 Cs3 3.797574 1_555
Au6 Ga7 2.734451 1_555
Au6 Ga1 2.734451 1_555
Au6 Ga2 2.751763 1_555
Au6 Ga4 2.751763 1_655
Au6 Cs3 3.698151 1_555
Au6 Cs0 3.797574 1_555
Au6 Cs0 3.797574 1_655
Au7 Ga0 2.734451 1_545
Au7 Ga6 2.734451 1_545
Au7 Ga3 2.751763 1_655
Au7 Ga5 2.751763 1_555
Au7 Cs2 3.698151 1_545
Au7 Cs1 3.797574 1_555
Au7 Cs1 3.797574 1_655
Au8 Ga1 2.641651 1_556
Au8 Ga7 2.641651 1_456
Au8 Ga3 2.816366 1_555
Au8 Ga5 2.816366 1_555
Au8 Cs0 3.600324 1_556
Au8 Cs0 3.837908 1_566
Au8 Cs2 3.904332 1_455
Au8 Cs2 3.904332 1_555
Au9 Ga0 2.641651 1_455
Au9 Ga6 2.641651 1_555
Au9 Ga4 2.816366 1_565
Au9 Ga2 2.816366 1_565
Au9 Cs1 3.600324 1_565
Au9 Cs1 3.837908 1_555
Au9 Cs3 3.904332 1_455
Au9 Cs3 3.904332 1_555
Au10 Ga3 2.641651 1_654
Au10 Ga5 2.641651 1_554
Au10 Ga1 2.816366 1_555
Au10 Ga7 2.816366 1_555
Au10 Cs2 3.600324 1_554
Au10 Cs2 3.837908 1_544
Au10 Cs0 3.904332 1_555
Au10 Cs0 3.904332 1_655
Au11 Ga2 2.641651 1_555
Au11 Ga4 2.641651 1_655
Au11 Ga6 2.816366 1_545
Au11 Ga0 2.816366 1_545
Au11 Cs3 3.600324 1_545
Au11 Cs3 3.837908 1_555
Au11 Cs1 3.904332 1_555
Au11 Cs1 3.904332 1_655
