# generated using pymatgen
data_SrCa3Mn2O8
_symmetry_space_group_name_H-M   'P 1'
_cell_length_a   5.33948705
_cell_length_b   5.33949766
_cell_length_c   12.67212423
_cell_angle_alpha   77.83749799
_cell_angle_beta   77.83770119
_cell_angle_gamma   89.99982548
_symmetry_Int_Tables_number   1
_chemical_formula_structural   SrCa3Mn2O8
_chemical_formula_sum   'Sr2 Ca6 Mn4 O16'
_cell_volume   344.87542785
_cell_formula_units_Z   2
loop_
 _symmetry_equiv_pos_site_id
 _symmetry_equiv_pos_as_xyz
  1  'x, y, z'
loop_
 _atom_site_type_symbol
 _atom_site_label
 _atom_site_symmetry_multiplicity
 _atom_site_fract_x
 _atom_site_fract_y
 _atom_site_fract_z
 _atom_site_occupancy
  Sr  Sr0  1  0.42700600  0.92700300  0.14599900  1
  Sr  Sr1  1  0.92700500  0.42700200  0.14600100  1
  Ca  Ca0  1  0.17677800  0.17678000  0.64643200  1
  Ca  Ca1  1  0.67678000  0.67677700  0.64643000  1
  Ca  Ca2  1  0.32024600  0.32024700  0.35949300  1
  Ca  Ca3  1  0.82024500  0.82024500  0.35949600  1
  Ca  Ca4  1  0.07349700  0.57349900  0.85298700  1
  Ca  Ca5  1  0.57350000  0.07349600  0.85298500  1
  Mn  Mn0  1  0.00252100  0.00251300  0.99500100  1
  Mn  Mn1  1  0.24797000  0.74798100  0.50401900  1
  Mn  Mn2  1  0.50251900  0.50251300  0.99500200  1
  Mn  Mn3  1  0.74797100  0.24797700  0.50402000  1
  O  O0  1  0.32790800  0.82791200  0.34421100  1
  O  O1  1  0.82790100  0.32790700  0.34421200  1
  O  O2  1  0.08281600  0.08281600  0.83445100  1
  O  O3  1  0.58281600  0.58281900  0.83445000  1
  O  O4  1  0.41924900  0.41924500  0.16145400  1
  O  O5  1  0.91924700  0.91924400  0.16145700  1
  O  O6  1  0.16759200  0.66759600  0.66471700  1
  O  O7  1  0.66759600  0.16759600  0.66471600  1
  O  O8  1  0.49855100  0.99854800  0.50289600  1
  O  O9  1  0.99855400  0.49855000  0.50289400  1
  O  O10  1  0.99855700  0.99855800  0.50289600  1
  O  O11  1  0.49855800  0.49856000  0.50289800  1
  O  O12  1  0.75365400  0.75365400  0.99272000  1
  O  O13  1  0.25365700  0.25365500  0.99272100  1
  O  O14  1  0.25365600  0.75365400  0.99272000  1
  O  O15  1  0.75365200  0.25365300  0.99272100  1
loop_
_geom_bond_atom_site_label_1
_geom_bond_atom_site_label_2
_geom_bond_distance
_geom_bond_site_symmetry_2
Ca0 O2 2.274385 1_555
Ca0 O10 2.564808 1_445
Ca0 O9 2.564851 1_455
Ca0 O8 2.564871 1_545
Ca0 O11 2.564907 1_555
Ca0 O6 2.678676 1_555
Ca0 O7 2.678677 1_555
Ca0 O7 2.679102 1_455
Ca0 O6 2.679115 1_545
Ca1 O3 2.274397 1_555
Ca1 O11 2.564753 1_555
Ca1 O8 2.564835 1_555
Ca1 O9 2.564860 1_555
Ca1 O10 2.564901 1_555
Ca1 O6 2.678656 1_655
Ca1 O7 2.678696 1_565
Ca1 O7 2.679098 1_555
Ca1 O6 2.679129 1_555
Ca2 O4 2.395593 1_555
Ca2 O10 2.563692 1_445
Ca2 O9 2.563738 1_455
Ca2 O8 2.563774 1_545
Ca2 O11 2.563877 1_555
Ca2 O0 2.676014 1_545
Ca2 O1 2.676058 1_455
Ca2 O1 2.676212 1_555
Ca2 O0 2.676268 1_555
Ca3 O5 2.395593 1_555
Ca3 O11 2.563670 1_555
Ca3 O9 2.563733 1_555
Ca3 O8 2.563735 1_555
Ca3 O10 2.563822 1_555
Ca3 O0 2.676030 1_555
Ca3 O1 2.676037 1_555
Ca3 O0 2.676247 1_655
Ca3 O1 2.676248 1_565
Ca4 O6 2.277422 1_555
Ca4 O15 2.533822 1_455
Ca4 O12 2.533935 1_455
Ca4 O13 2.533955 1_555
Ca4 O14 2.534082 1_555
Ca4 O3 2.678876 1_455
Ca4 O2 2.678889 1_555
Ca4 O2 2.679407 1_565
Ca4 O3 2.679412 1_555
Ca5 O7 2.277410 1_555
Ca5 O14 2.533813 1_545
Ca5 O12 2.533940 1_545
Ca5 O13 2.533971 1_555
Ca5 O15 2.534101 1_555
Ca5 O3 2.678853 1_545
Ca5 O2 2.678881 1_555
Ca5 O2 2.679401 1_655
Ca5 O3 2.679441 1_555
Mn0 O14 1.887972 1_545
Mn0 O13 1.887992 1_555
Mn0 O12 1.888027 1_445
Mn0 O15 1.888028 1_455
Mn0 O2 1.942105 1_555
Mn0 O5 2.013547 1_446
Mn1 O9 1.887742 1_455
Mn1 O10 1.887804 1_455
Mn1 O11 1.887875 1_555
Mn1 O8 1.887942 1_555
Mn1 O0 1.933129 1_555
Mn1 O6 1.943895 1_555
Mn2 O15 1.887968 1_555
Mn2 O12 1.887977 1_555
Mn2 O13 1.888004 1_555
Mn2 O14 1.888010 1_555
Mn2 O3 1.942129 1_555
Mn2 O4 2.013499 1_556
Mn3 O8 1.887746 1_545
Mn3 O11 1.887826 1_555
Mn3 O10 1.887861 1_545
Mn3 O9 1.887961 1_555
Mn3 O1 1.933129 1_555
Mn3 O7 1.943871 1_555
O0 Sr0 2.397686 1_555
O1 Sr1 2.397674 1_555
O4 Sr1 2.676123 1_455
O4 Sr0 2.676125 1_545
O4 Sr1 2.676436 1_555
O4 Sr0 2.676448 1_555
O5 Sr0 2.676125 1_555
O5 Sr1 2.676129 1_555
O5 Sr0 2.676443 1_655
O5 Sr1 2.676446 1_565
O12 Sr0 2.646055 1_556
O12 Sr1 2.646082 1_556
O13 Sr0 2.646052 1_546
O13 Sr1 2.646069 1_456
O14 Sr0 2.646013 1_556
O14 Sr1 2.646133 1_456
O15 Sr1 2.646032 1_556
O15 Sr0 2.646097 1_546
