# generated using pymatgen
data_Cs6MgNp2(H8O9)2
_symmetry_space_group_name_H-M   'P 1'
_cell_length_a   8.09689557
_cell_length_b   8.91404109
_cell_length_c   8.91404109
_cell_angle_alpha   85.82101182
_cell_angle_beta   87.17684386
_cell_angle_gamma   87.17684386
_symmetry_Int_Tables_number   1
_chemical_formula_structural   Cs6MgNp2(H8O9)2
_chemical_formula_sum   'Cs6 Mg1 Np2 H16 O18'
_cell_volume   640.21724645
_cell_formula_units_Z   1
loop_
 _symmetry_equiv_pos_site_id
 _symmetry_equiv_pos_as_xyz
  1  'x, y, z'
loop_
 _atom_site_type_symbol
 _atom_site_label
 _atom_site_symmetry_multiplicity
 _atom_site_fract_x
 _atom_site_fract_y
 _atom_site_fract_z
 _atom_site_occupancy
  Cs  Cs0  1  0.50371060  0.60174289  0.80408318  1
  Cs  Cs1  1  0.99628940  0.19591682  0.39825711  1
  Cs  Cs2  1  0.46238726  0.37726883  0.20345937  1
  Cs  Cs3  1  0.03761274  0.79654063  0.62273117  1
  Cs  Cs4  1  0.25000000  0.96774898  0.03225102  1
  Cs  Cs5  1  0.75000000  0.07307488  0.92692512  1
  Mg  Mg0  1  0.75000000  0.73015273  0.26984727  1
  Np  Np0  1  0.99710667  0.48883461  0.00488120  1
  Np  Np1  1  0.50289333  0.99511880  0.51116539  1
  H  H0  1  0.93431789  0.43717976  0.69981351  1
  H  H1  1  0.56568211  0.30018649  0.56282024  1
  H  H2  1  0.02009215  0.56525493  0.31461638  1
  H  H3  1  0.47990785  0.68538362  0.43474507  1
  H  H4  1  0.20398495  0.08331641  0.71406456  1
  H  H5  1  0.29601505  0.28593544  0.91668359  1
  H  H6  1  0.74649643  0.02093723  0.28784260  1
  H  H7  1  0.75350357  0.71215740  0.97906277  1
  H  H8  1  0.09014554  0.23529914  0.74506942  1
  H  H9  1  0.40985446  0.25493058  0.76470086  1
  H  H10  1  0.01822853  0.84842719  0.24988969  1
  H  H11  1  0.48177147  0.75011031  0.15157281  1
  H  H12  1  0.16969252  0.47358903  0.59961605  1
  H  H13  1  0.33030848  0.40038395  0.52641097  1
  H  H14  1  0.81903459  0.47657791  0.43856826  1
  H  H15  1  0.68096541  0.56143174  0.52342209  1
  O  O0  1  0.87007096  0.71039435  0.93975333  1
  O  O1  1  0.62992904  0.06024667  0.28960565  1
  O  O2  1  0.12370350  0.29919050  0.06602890  1
  O  O3  1  0.37629650  0.93397110  0.70080950  1
  O  O4  1  0.19161095  0.59811345  0.00515278  1
  O  O5  1  0.30838905  0.99484722  0.40188655  1
  O  O6  1  0.79270424  0.39716318  0.00580018  1
  O  O7  1  0.70729576  0.99419982  0.60283682  1
  O  O8  1  0.04141016  0.43512420  0.74704767  1
  O  O9  1  0.45858984  0.25295233  0.56487580  1
  O  O10  1  0.91520082  0.54598939  0.27159460  1
  O  O11  1  0.58479918  0.72840540  0.45401061  1
  O  O12  1  0.08975972  0.12348999  0.73818521  1
  O  O13  1  0.41024028  0.26181479  0.87650901  1
  O  O14  1  0.91101188  0.88391224  0.28948883  1
  O  O15  1  0.58898812  0.71051117  0.11608676  1
  O  O16  1  0.25000000  0.49034059  0.50965941  1
  O  O17  1  0.75000000  0.46495730  0.53504270  1
loop_
_geom_bond_atom_site_label_1
_geom_bond_atom_site_label_2
_geom_bond_distance
_geom_bond_site_symmetry_2
Cs0 H15 2.859126 1_555
Cs0 H7 2.867565 1_555
Cs0 O4 3.025375 1_556
Cs0 O15 3.130511 1_556
Cs0 O13 3.172372 1_555
Cs0 O3 3.174508 1_555
Cs0 O6 3.398592 1_556
Cs1 H14 2.859126 1_555
Cs1 H6 2.867565 1_555
Cs1 O5 3.025375 1_645
Cs1 O14 3.130519 1_545
Cs1 O12 3.172373 1_655
Cs1 O2 3.174508 1_655
Cs1 O7 3.398592 1_545
Cs2 H13 3.038934 1_555
Cs2 H5 3.124569 1_554
Cs2 O1 3.134431 1_555
Cs2 O6 3.134652 1_555
Cs2 O2 3.185676 1_555
Cs2 O13 3.214443 1_554
Cs2 O15 3.219561 1_555
Cs2 O9 3.328883 1_555
Cs2 H11 3.332352 1_555
Cs2 O16 3.345312 1_555
Cs2 O4 3.355073 1_555
Cs2 H1 3.364469 1_555
Cs3 H12 3.038936 1_555
Cs3 H4 3.124569 1_565
Cs3 O0 3.134431 1_455
Cs3 O7 3.134652 1_455
Cs3 O3 3.185676 1_555
Cs3 O12 3.214434 1_565
Cs3 O14 3.219560 1_455
Cs3 O8 3.328883 1_555
Cs3 H10 3.332352 1_555
Cs3 O16 3.345312 1_555
Cs3 O5 3.355073 1_555
Cs3 H0 3.364469 1_455
Cs4 H10 2.820295 1_555
Cs4 H11 2.820295 1_555
Cs4 H4 2.980815 1_564
Cs4 H5 2.980815 1_564
Cs4 O2 3.109191 1_565
Cs4 O3 3.109191 1_554
Cs4 O12 3.179496 1_564
Cs4 O13 3.179500 1_564
Cs4 O4 3.379235 1_555
Cs4 O5 3.379235 1_555
Cs5 O6 3.062391 1_556
Cs5 O7 3.062391 1_545
Cs5 O12 3.186881 1_655
Cs5 O13 3.186882 1_555
Cs5 H7 3.215864 1_545
Cs5 H6 3.215864 1_556
Cs5 O1 3.325307 1_556
Cs5 O0 3.325307 1_545
Mg0 O14 1.960192 1_555
Mg0 O15 1.960199 1_555
Mg0 O11 2.065539 1_555
Mg0 O10 2.065539 1_555
Np0 O6 1.880915 1_555
Np0 O4 1.892352 1_655
Np0 O2 1.988878 1_655
Np0 O0 2.233214 1_554
Np0 O8 2.387993 1_654
Np0 O10 2.517896 1_555
Np1 O7 1.880915 1_555
Np1 O5 1.892352 1_555
Np1 O3 1.988878 1_555
Np1 O1 2.233214 1_565
Np1 O9 2.387993 1_565
Np1 O11 2.517896 1_555
H0 O8 0.981213 1_655
H1 O9 0.981213 1_555
H2 O10 0.976685 1_455
H3 O11 0.976685 1_555
H4 O12 0.994416 1_555
H5 O13 0.994419 1_555
H6 O1 0.990261 1_555
H7 O0 0.990261 1_555
H8 O12 1.003179 1_555
H9 O13 1.003171 1_555
H10 O14 0.968158 1_455
H11 O15 0.968160 1_555
H12 O16 1.014332 1_555
H13 O16 1.014337 1_555
H14 O17 1.004043 1_555
H15 O17 1.004043 1_555
