# generated using pymatgen
data_ZnCrPO5
_symmetry_space_group_name_H-M   'P 1'
_cell_length_a   5.44053060
_cell_length_b   5.44425335
_cell_length_c   7.25496745
_cell_angle_alpha   71.54497164
_cell_angle_beta   108.44064741
_cell_angle_gamma   84.42991844
_symmetry_Int_Tables_number   1
_chemical_formula_structural   ZnCrPO5
_chemical_formula_sum   'Zn2 Cr2 P2 O10'
_cell_volume   188.67118527
_cell_formula_units_Z   2
loop_
 _symmetry_equiv_pos_site_id
 _symmetry_equiv_pos_as_xyz
  1  'x, y, z'
loop_
 _atom_site_type_symbol
 _atom_site_label
 _atom_site_symmetry_multiplicity
 _atom_site_fract_x
 _atom_site_fract_y
 _atom_site_fract_z
 _atom_site_occupancy
  Zn  Zn0  1  0.67484900  0.18450700  0.22259800  1
  Zn  Zn1  1  0.30277500  0.81903300  0.72160400  1
  Cr  Cr0  1  0.99566400  0.49533000  0.98655900  1
  Cr  Cr1  1  0.99563600  0.49490400  0.48657300  1
  P  P0  1  0.34683300  0.84390400  0.23728900  1
  P  P1  1  0.64827100  0.14236700  0.73787700  1
  O  O0  1  0.27044600  0.70335900  0.08047200  1
  O  O1  1  0.79061200  0.21756100  0.58218600  1
  O  O2  1  0.20915000  0.77110500  0.39780900  1
  O  O3  1  0.72194700  0.27834100  0.89930300  1
  O  O4  1  0.33802500  0.20147300  0.62306100  1
  O  O5  1  0.29036800  0.15405400  0.12383900  1
  O  O6  1  0.69774900  0.83292200  0.84660100  1
  O  O7  1  0.65672500  0.79152400  0.34739400  1
  O  O8  1  0.08353900  0.58087200  0.73701100  1
  O  O9  1  0.90942900  0.40748600  0.23695100  1
loop_
_geom_bond_atom_site_label_1
_geom_bond_atom_site_label_2
_geom_bond_distance
_geom_bond_site_symmetry_2
Cr0 O8 1.944280 1_655
Cr0 O9 1.944614 1_556
Cr0 O0 2.038299 1_656
Cr0 O3 2.057307 1_555
Cr0 O6 2.057924 1_555
Cr0 O5 2.062682 1_656
Cr1 O9 1.943672 1_555
Cr1 O8 1.944501 1_655
Cr1 O1 2.039263 1_555
Cr1 O2 2.055358 1_655
Cr1 O7 2.058867 1_555
Cr1 O4 2.063096 1_655
O0 P0 1.538281 1_555
O0 Zn1 2.545441 1_554
O1 P1 1.537959 1_555
O1 Zn0 2.552380 1_555
O2 P0 1.546510 1_555
O2 Zn1 2.345803 1_555
O3 P1 1.545886 1_555
O3 Zn0 2.339872 1_556
O4 P1 1.575369 1_555
O4 Zn1 2.026047 1_545
O5 P0 1.575567 1_545
O5 Zn0 2.027500 1_555
O6 P1 1.571354 1_565
O6 Zn1 2.070713 1_555
O7 P0 1.572371 1_555
O7 Zn0 2.068318 1_565
O8 Zn1 1.846396 1_555
O9 Zn0 1.846627 1_555
