# generated using pymatgen
data_Sr3DyRhO6
_symmetry_space_group_name_H-M   'P 1'
_cell_length_a   6.86007896
_cell_length_b   6.86007896
_cell_length_c   6.86007862
_cell_angle_alpha   92.14819622
_cell_angle_beta   92.14819622
_cell_angle_gamma   92.14820596
_symmetry_Int_Tables_number   1
_chemical_formula_structural   Sr3DyRhO6
_chemical_formula_sum   'Sr6 Dy2 Rh2 O12'
_cell_volume   322.14180572
_cell_formula_units_Z   2
loop_
 _symmetry_equiv_pos_site_id
 _symmetry_equiv_pos_as_xyz
  1  'x, y, z'
loop_
 _atom_site_type_symbol
 _atom_site_label
 _atom_site_symmetry_multiplicity
 _atom_site_fract_x
 _atom_site_fract_y
 _atom_site_fract_z
 _atom_site_occupancy
  Sr  Sr0  1  0.88125600  0.61874400  0.25000000  1
  Sr  Sr1  1  0.61874400  0.25000000  0.88125600  1
  Sr  Sr2  1  0.25000000  0.88125600  0.61874400  1
  Sr  Sr3  1  0.11874400  0.38125600  0.75000000  1
  Sr  Sr4  1  0.75000000  0.11874400  0.38125600  1
  Sr  Sr5  1  0.38125600  0.75000000  0.11874400  1
  Dy  Dy0  1  0.75000000  0.75000000  0.75000000  1
  Dy  Dy1  1  0.25000000  0.25000000  0.25000000  1
  Rh  Rh0  1  0.50000000  0.50000000  0.50000000  1
  Rh  Rh1  1  0.00000000  0.00000000  0.00000000  1
  O  O0  1  0.59046200  0.79214100  0.45636900  1
  O  O1  1  0.45636900  0.59046200  0.79214100  1
  O  O2  1  0.79214100  0.45636900  0.59046200  1
  O  O3  1  0.90953800  0.04363100  0.70785900  1
  O  O4  1  0.70785900  0.90953800  0.04363100  1
  O  O5  1  0.04363100  0.70785900  0.90953800  1
  O  O6  1  0.40953800  0.20785900  0.54363100  1
  O  O7  1  0.54363100  0.40953800  0.20785900  1
  O  O8  1  0.20785900  0.54363100  0.40953800  1
  O  O9  1  0.09046200  0.95636900  0.29214100  1
  O  O10  1  0.95636900  0.29214100  0.09046200  1
  O  O11  1  0.29214100  0.09046200  0.95636900  1
loop_
_geom_bond_atom_site_label_1
_geom_bond_atom_site_label_2
_geom_bond_distance
_geom_bond_site_symmetry_2
Dy0 O3 2.289326 1_565
Dy0 O1 2.289326 1_555
Dy0 O4 2.289326 1_556
Dy0 O0 2.289326 1_555
Dy0 O5 2.289326 1_655
Dy0 O2 2.289326 1_555
Dy1 O7 2.289326 1_555
Dy1 O9 2.289326 1_545
Dy1 O6 2.289326 1_555
Dy1 O11 2.289326 1_554
Dy1 O8 2.289326 1_555
Dy1 O10 2.289326 1_455
O0 Rh0 2.111118 1_555
O0 Sr4 2.535401 1_565
O0 Sr5 2.679041 1_555
O0 Sr2 2.705653 1_555
O0 Sr0 2.768042 1_555
O1 Rh0 2.111118 1_555
O1 Sr5 2.535401 1_556
O1 Sr3 2.679041 1_555
O1 Sr1 2.705653 1_555
O1 Sr2 2.768042 1_555
O2 Rh0 2.111118 1_555
O2 Sr3 2.535401 1_655
O2 Sr4 2.679041 1_555
O2 Sr0 2.705653 1_555
O2 Sr1 2.768042 1_555
O3 Rh1 2.111118 1_656
O3 Sr4 2.535401 1_555
O3 Sr3 2.679041 1_655
O3 Sr2 2.705653 1_645
O3 Sr1 2.768042 1_555
O4 Rh1 2.111118 1_665
O4 Sr5 2.535401 1_555
O4 Sr4 2.679041 1_565
O4 Sr1 2.705653 1_564
O4 Sr0 2.768042 1_555
O5 Rh1 2.111118 1_566
O5 Sr3 2.535401 1_555
O5 Sr5 2.679041 1_556
O5 Sr0 2.705653 1_456
O5 Sr2 2.768042 1_555
O6 Rh0 2.111118 1_555
O6 Sr2 2.535401 1_545
O6 Sr1 2.679041 1_555
O6 Sr4 2.705653 1_555
O6 Sr3 2.768042 1_555
O7 Rh0 2.111118 1_555
O7 Sr1 2.535401 1_554
O7 Sr0 2.679041 1_555
O7 Sr5 2.705653 1_555
O7 Sr4 2.768042 1_555
O8 Rh0 2.111118 1_555
O8 Sr0 2.535401 1_455
O8 Sr2 2.679041 1_555
O8 Sr3 2.705653 1_555
O8 Sr5 2.768042 1_555
O9 Rh1 2.111118 1_565
O9 Sr2 2.535401 1_555
O9 Sr0 2.679041 1_455
O9 Sr4 2.705653 1_465
O9 Sr5 2.768042 1_555
O10 Rh1 2.111118 1_655
O10 Sr0 2.535401 1_555
O10 Sr1 2.679041 1_554
O10 Sr3 2.705653 1_654
O10 Sr4 2.768042 1_555
O11 Rh1 2.111118 1_556
O11 Sr1 2.535401 1_555
O11 Sr2 2.679041 1_545
O11 Sr5 2.705653 1_546
O11 Sr3 2.768042 1_555
