# generated using pymatgen
data_Ba3TbIrRuO9
_symmetry_space_group_name_H-M   'P 1'
_cell_length_a   5.96101215
_cell_length_b   5.96101215
_cell_length_c   14.77572400
_cell_angle_alpha   90.00000000
_cell_angle_beta   90.00000000
_cell_angle_gamma   120.00000169
_symmetry_Int_Tables_number   1
_chemical_formula_structural   Ba3TbIrRuO9
_chemical_formula_sum   'Ba6 Tb2 Ir2 Ru2 O18'
_cell_volume   454.69419416
_cell_formula_units_Z   2
loop_
 _symmetry_equiv_pos_site_id
 _symmetry_equiv_pos_as_xyz
  1  'x, y, z'
loop_
 _atom_site_type_symbol
 _atom_site_label
 _atom_site_symmetry_multiplicity
 _atom_site_fract_x
 _atom_site_fract_y
 _atom_site_fract_z
 _atom_site_occupancy
  Ba  Ba0  1  0.33333300  0.66666700  0.59454700  1
  Ba  Ba1  1  0.66666700  0.33333300  0.40438000  1
  Ba  Ba2  1  0.66666700  0.33333300  0.09454700  1
  Ba  Ba3  1  0.33333300  0.66666700  0.90438000  1
  Ba  Ba4  1  0.00000000  0.00000000  0.25014400  1
  Ba  Ba5  1  0.00000000  0.00000000  0.75014400  1
  Tb  Tb0  1  0.00000000  0.00000000  0.49864000  1
  Tb  Tb1  1  0.00000000  0.00000000  0.99864000  1
  Ir  Ir0  1  0.33333300  0.66666700  0.33524400  1
  Ir  Ir1  1  0.66666700  0.33333300  0.83524400  1
  Ru  Ru0  1  0.66666700  0.33333300  0.66369600  1
  Ru  Ru1  1  0.33333300  0.66666700  0.16369600  1
  O  O0  1  0.49004200  0.50995800  0.24929800  1
  O  O1  1  0.49004200  0.98008400  0.24929800  1
  O  O2  1  0.01991600  0.50995800  0.24929800  1
  O  O3  1  0.50995800  0.49004200  0.74929800  1
  O  O4  1  0.50995800  0.01991600  0.74929800  1
  O  O5  1  0.98008400  0.49004200  0.74929800  1
  O  O6  1  0.17630900  0.82369100  0.08927400  1
  O  O7  1  0.17630900  0.35261800  0.08927400  1
  O  O8  1  0.64738200  0.82369100  0.08927400  1
  O  O9  1  0.82444100  0.17555900  0.91257100  1
  O  O10  1  0.82444100  0.64888300  0.91257100  1
  O  O11  1  0.35111700  0.17555900  0.91257100  1
  O  O12  1  0.82369100  0.17630900  0.58927400  1
  O  O13  1  0.82369100  0.64738200  0.58927400  1
  O  O14  1  0.35261800  0.17630900  0.58927400  1
  O  O15  1  0.17555900  0.82444100  0.41257100  1
  O  O16  1  0.17555900  0.35111700  0.41257100  1
  O  O17  1  0.64888300  0.82444100  0.41257100  1
loop_
_geom_bond_atom_site_label_1
_geom_bond_atom_site_label_2
_geom_bond_distance
_geom_bond_site_symmetry_2
Ba0 O5 2.924704 1_455
Ba0 O4 2.924704 1_565
Ba0 O3 2.924708 1_555
Ba0 O13 2.983183 1_455
Ba0 O14 2.983183 1_565
Ba0 O12 2.983186 1_565
Ba0 O12 2.983186 1_455
Ba0 O13 2.983189 1_555
Ba0 O14 2.983189 1_555
Ba0 O15 3.143783 1_555
Ba0 O16 3.143788 1_555
Ba0 O17 3.143788 1_555
Ba1 O2 2.928530 1_655
Ba1 O1 2.928530 1_545
Ba1 O0 2.928533 1_555
Ba1 O15 2.984375 1_655
Ba1 O15 2.984375 1_545
Ba1 O16 2.984375 1_655
Ba1 O17 2.984375 1_545
Ba1 O17 2.984375 1_555
Ba1 O16 2.984375 1_555
Ba1 O12 3.176779 1_555
Ba1 O13 3.176781 1_555
Ba1 O14 3.176781 1_555
Ba2 O1 2.924704 1_545
Ba2 O2 2.924704 1_655
Ba2 O0 2.924708 1_555
Ba2 O8 2.983183 1_545
Ba2 O7 2.983183 1_655
Ba2 O6 2.983186 1_545
Ba2 O6 2.983186 1_655
Ba2 O8 2.983189 1_555
Ba2 O7 2.983189 1_555
Ba2 O9 3.143783 1_554
Ba2 O10 3.143788 1_554
Ba2 O11 3.143788 1_554
Ba3 O4 2.928530 1_565
Ba3 O5 2.928530 1_455
Ba3 O3 2.928533 1_555
Ba3 O9 2.984375 1_455
Ba3 O9 2.984375 1_565
Ba3 O11 2.984375 1_565
Ba3 O10 2.984375 1_455
Ba3 O11 2.984375 1_555
Ba3 O10 2.984375 1_555
Ba3 O6 3.176779 1_556
Ba3 O8 3.176781 1_556
Ba3 O7 3.176781 1_556
Ba4 O0 2.982305 1_555
Ba4 O0 2.982305 1_445
Ba4 O2 2.982305 1_555
Ba4 O1 2.982305 1_445
Ba4 O1 2.982305 1_545
Ba4 O2 2.982305 1_545
Ba4 O8 2.993938 1_445
Ba4 O7 2.993938 1_555
Ba4 O6 2.993938 1_545
Ba4 O17 3.007559 1_445
Ba4 O16 3.007559 1_555
Ba4 O15 3.007563 1_545
Ba5 O3 2.982305 1_555
Ba5 O3 2.982305 1_445
Ba5 O5 2.982305 1_445
Ba5 O4 2.982305 1_555
Ba5 O4 2.982305 1_455
Ba5 O5 2.982305 1_455
Ba5 O14 2.993938 1_555
Ba5 O13 2.993938 1_445
Ba5 O12 2.993938 1_455
Ba5 O11 3.007559 1_555
Ba5 O10 3.007559 1_445
Ba5 O9 3.007563 1_455
Ir0 O15 1.989731 1_555
Ir0 O16 1.989739 1_555
Ir0 O17 1.989739 1_555
Ir0 O1 2.056828 1_555
Ir0 O2 2.056828 1_555
Ir0 O0 2.056832 1_555
Ir1 O9 1.989731 1_555
Ir1 O10 1.989739 1_555
Ir1 O11 1.989739 1_555
Ir1 O5 2.056828 1_555
Ir1 O4 2.056828 1_555
Ir1 O3 2.056832 1_555
O0 Ru1 2.053698 1_555
O1 Ru1 2.053694 1_555
O2 Ru1 2.053694 1_555
O3 Ru0 2.053698 1_555
O4 Ru0 2.053694 1_555
O5 Ru0 2.053694 1_555
O6 Ru1 1.958984 1_555
O6 Tb1 2.259887 1_564
O7 Ru1 1.958988 1_555
O7 Tb1 2.259887 1_554
O8 Ru1 1.958988 1_555
O8 Tb1 2.259887 1_664
O9 Tb1 2.214237 1_655
O10 Tb1 2.214233 1_665
O11 Tb1 2.214233 1_555
O12 Ru0 1.958984 1_555
O12 Tb0 2.259887 1_655
O13 Ru0 1.958988 1_555
O13 Tb0 2.259887 1_665
O14 Ru0 1.958988 1_555
O14 Tb0 2.259887 1_555
O15 Tb0 2.214237 1_565
O16 Tb0 2.214233 1_555
O17 Tb0 2.214233 1_665
