# generated using pymatgen
data_Yb2C
_symmetry_space_group_name_H-M   'P 1'
_cell_length_a   5.94189248
_cell_length_b   5.94189248
_cell_length_c   5.94189215
_cell_angle_alpha   38.37412565
_cell_angle_beta   38.37412565
_cell_angle_gamma   38.37412204
_symmetry_Int_Tables_number   1
_chemical_formula_structural   Yb2C
_chemical_formula_sum   'Yb2 C1'
_cell_volume   72.62291395
_cell_formula_units_Z   1
loop_
 _symmetry_equiv_pos_site_id
 _symmetry_equiv_pos_as_xyz
  1  'x, y, z'
loop_
 _atom_site_type_symbol
 _atom_site_label
 _atom_site_symmetry_multiplicity
 _atom_site_fract_x
 _atom_site_fract_y
 _atom_site_fract_z
 _atom_site_occupancy
  Yb  Yb0  1  0.26332600  0.26332600  0.26332600  1
  Yb  Yb1  1  0.73667400  0.73667400  0.73667400  1
  C  C0  1  0.00000000  0.00000000  0.00000000  1
loop_
_geom_bond_atom_site_label_1
_geom_bond_atom_site_label_2
_geom_bond_distance
_geom_bond_site_symmetry_2
C0 Yb1 2.533325 1_445
C0 Yb0 2.533325 1_554
C0 Yb1 2.533325 1_454
C0 Yb1 2.533325 1_544
C0 Yb0 2.533325 1_455
C0 Yb0 2.533325 1_545
