# generated using pymatgen
data_MnZn(Si2O5)2
_symmetry_space_group_name_H-M   'P 1'
_cell_length_a   7.37135700
_cell_length_b   7.37135700
_cell_length_c   14.96427900
_cell_angle_alpha   90.00000000
_cell_angle_beta   90.00000000
_cell_angle_gamma   90.00000000
_symmetry_Int_Tables_number   1
_chemical_formula_structural   MnZn(Si2O5)2
_chemical_formula_sum   'Mn4 Zn4 Si16 O40'
_cell_volume   813.11259177
_cell_formula_units_Z   4
loop_
 _symmetry_equiv_pos_site_id
 _symmetry_equiv_pos_as_xyz
  1  'x, y, z'
loop_
 _atom_site_type_symbol
 _atom_site_label
 _atom_site_symmetry_multiplicity
 _atom_site_fract_x
 _atom_site_fract_y
 _atom_site_fract_z
 _atom_site_occupancy
  Mn  Mn0  1  0.50000000  0.00000000  0.55730100  1
  Mn  Mn1  1  0.00000000  0.50000000  0.94269900  1
  Mn  Mn2  1  0.00000000  0.50000000  0.44269900  1
  Mn  Mn3  1  0.50000000  0.00000000  0.05730100  1
  Zn  Zn0  1  0.50000000  0.50000000  0.50000000  1
  Zn  Zn1  1  0.00000000  0.00000000  0.50000000  1
  Zn  Zn2  1  0.00000000  0.00000000  0.00000000  1
  Zn  Zn3  1  0.50000000  0.50000000  0.00000000  1
  Si  Si0  1  0.15162600  0.23638100  0.64580400  1
  Si  Si1  1  0.84837400  0.76361900  0.64580400  1
  Si  Si2  1  0.23638100  0.15162600  0.85419600  1
  Si  Si3  1  0.73638100  0.34837400  0.64580400  1
  Si  Si4  1  0.26361900  0.65162600  0.64580400  1
  Si  Si5  1  0.34837400  0.73638100  0.85419600  1
  Si  Si6  1  0.65162600  0.26361900  0.85419600  1
  Si  Si7  1  0.76361900  0.84837400  0.85419600  1
  Si  Si8  1  0.34837400  0.26361900  0.35419600  1
  Si  Si9  1  0.65162600  0.73638100  0.35419600  1
  Si  Si10  1  0.26361900  0.34837400  0.14580400  1
  Si  Si11  1  0.76361900  0.15162600  0.35419600  1
  Si  Si12  1  0.23638100  0.84837400  0.35419600  1
  Si  Si13  1  0.15162600  0.76361900  0.14580400  1
  Si  Si14  1  0.84837400  0.23638100  0.14580400  1
  Si  Si15  1  0.73638100  0.65162600  0.14580400  1
  O  O0  1  0.22259700  0.08559500  0.57517600  1
  O  O1  1  0.77740300  0.91440500  0.57517600  1
  O  O2  1  0.08559500  0.22259700  0.92482400  1
  O  O3  1  0.58559500  0.27740300  0.57517600  1
  O  O4  1  0.41440500  0.72259700  0.57517600  1
  O  O5  1  0.27740300  0.58559500  0.92482400  1
  O  O6  1  0.72259700  0.41440500  0.92482400  1
  O  O7  1  0.91440500  0.77740300  0.92482400  1
  O  O8  1  0.27740300  0.41440500  0.42482400  1
  O  O9  1  0.72259700  0.58559500  0.42482400  1
  O  O10  1  0.41440500  0.27740300  0.07517600  1
  O  O11  1  0.91440500  0.22259700  0.42482400  1
  O  O12  1  0.08559500  0.77740300  0.42482400  1
  O  O13  1  0.22259700  0.91440500  0.07517600  1
  O  O14  1  0.77740300  0.08559500  0.07517600  1
  O  O15  1  0.25791500  0.06547500  0.37270400  1
  O  O16  1  0.58559500  0.72259700  0.07517600  1
  O  O17  1  0.75791500  0.56547500  0.62729600  1
  O  O18  1  0.43452500  0.24208500  0.87270400  1
  O  O19  1  0.93452500  0.25791500  0.62729600  1
  O  O20  1  0.06547500  0.74208500  0.62729600  1
  O  O21  1  0.25791500  0.93452500  0.87270400  1
  O  O22  1  0.74208500  0.06547500  0.87270400  1
  O  O23  1  0.56547500  0.75791500  0.87270400  1
  O  O24  1  0.68340000  0.68340000  0.25000000  1
  O  O25  1  0.81660000  0.18340000  0.25000000  1
  O  O26  1  0.18340000  0.81660000  0.25000000  1
  O  O27  1  0.31660000  0.31660000  0.25000000  1
  O  O28  1  0.81660000  0.81660000  0.75000000  1
  O  O29  1  0.68340000  0.31660000  0.75000000  1
  O  O30  1  0.31660000  0.68340000  0.75000000  1
  O  O31  1  0.18340000  0.18340000  0.75000000  1
  O  O32  1  0.93452500  0.74208500  0.12729600  1
  O  O33  1  0.75791500  0.43452500  0.12729600  1
  O  O34  1  0.24208500  0.56547500  0.12729600  1
  O  O35  1  0.43452500  0.75791500  0.37270400  1
  O  O36  1  0.56547500  0.24208500  0.37270400  1
  O  O37  1  0.06547500  0.25791500  0.12729600  1
  O  O38  1  0.74208500  0.93452500  0.37270400  1
  O  O39  1  0.24208500  0.43452500  0.62729600  1
loop_
_geom_bond_atom_site_label_1
_geom_bond_atom_site_label_2
_geom_bond_distance
_geom_bond_site_symmetry_2
Mn0 O0 2.156619 1_555
Mn0 O3 2.156619 1_555
Mn0 O1 2.156619 1_545
Mn0 O4 2.156619 1_545
Mn1 O2 2.156619 1_555
Mn1 O5 2.156619 1_555
Mn1 O7 2.156619 1_455
Mn1 O6 2.156619 1_455
Mn2 O12 2.156619 1_555
Mn2 O8 2.156619 1_555
Mn2 O11 2.156619 1_455
Mn2 O9 2.156619 1_455
Mn3 O14 2.156619 1_555
Mn3 O10 2.156619 1_555
Mn3 O13 2.156619 1_545
Mn3 O16 2.156619 1_545
O0 Si0 1.620539 1_555
O0 Zn1 2.087100 1_555
O1 Si1 1.620539 1_555
O1 Zn1 2.087100 1_665
O2 Si2 1.620539 1_555
O2 Zn2 2.087100 1_556
O3 Si3 1.620539 1_555
O3 Zn0 2.087100 1_555
O4 Si4 1.620539 1_555
O4 Zn0 2.087100 1_555
O5 Si5 1.620539 1_555
O5 Zn3 2.087100 1_556
O6 Si6 1.620539 1_555
O6 Zn3 2.087100 1_556
O7 Si7 1.620539 1_555
O7 Zn2 2.087100 1_666
O8 Si8 1.620539 1_555
O8 Zn0 2.087100 1_555
O9 Si9 1.620539 1_555
O9 Zn0 2.087100 1_555
O10 Si10 1.620539 1_555
O10 Zn3 2.087100 1_555
O11 Si11 1.620539 1_555
O11 Zn1 2.087100 1_655
O12 Si12 1.620539 1_555
O12 Zn1 2.087100 1_565
O13 Si13 1.620539 1_555
O13 Zn2 2.087100 1_565
O14 Si14 1.620539 1_555
O14 Zn2 2.087100 1_655
O15 Si8 1.629313 1_555
O15 Si12 1.631857 1_545
O16 Si15 1.620539 1_555
O16 Zn3 2.087100 1_555
O17 Si1 1.629313 1_555
O17 Si3 1.631857 1_555
O18 Si2 1.629313 1_555
O18 Si6 1.631857 1_555
O19 Si3 1.629313 1_555
O19 Si0 1.631857 1_655
O20 Si4 1.629313 1_555
O20 Si1 1.631857 1_455
O21 Si5 1.629313 1_555
O21 Si2 1.631857 1_565
O22 Si6 1.629313 1_555
O22 Si7 1.631857 1_545
O23 Si7 1.629313 1_555
O23 Si5 1.631857 1_555
O24 Si15 1.624359 1_555
O24 Si9 1.624359 1_555
O25 Si14 1.624359 1_555
O25 Si11 1.624359 1_555
O26 Si12 1.624359 1_555
O26 Si13 1.624359 1_555
O27 Si8 1.624359 1_555
O27 Si10 1.624359 1_555
O28 Si7 1.624359 1_555
O28 Si1 1.624359 1_555
O29 Si6 1.624359 1_555
O29 Si3 1.624359 1_555
O30 Si5 1.624359 1_555
O30 Si4 1.624359 1_555
O31 Si2 1.624359 1_555
O31 Si0 1.624359 1_555
O32 Si15 1.629313 1_555
O32 Si13 1.631857 1_655
O33 Si14 1.629313 1_555
O33 Si15 1.631857 1_555
O34 Si13 1.629313 1_555
O34 Si10 1.631857 1_555
O35 Si12 1.629313 1_555
O35 Si9 1.631857 1_555
O36 Si11 1.629313 1_555
O36 Si8 1.631857 1_555
O37 Si10 1.629313 1_555
O37 Si14 1.631857 1_455
O38 Si9 1.629313 1_555
O38 Si11 1.631857 1_565
O39 Si0 1.629313 1_555
O39 Si4 1.631857 1_555
