# generated using pymatgen
data_LuIO9
_symmetry_space_group_name_H-M   'P 1'
_cell_length_a   10.78708000
_cell_length_b   7.25841400
_cell_length_c   10.48991812
_cell_angle_alpha   56.36035685
_cell_angle_beta   90.00000000
_cell_angle_gamma   90.00000000
_symmetry_Int_Tables_number   1
_chemical_formula_structural   LuIO9
_chemical_formula_sum   'Lu4 I4 O36'
_cell_volume   683.78863108
_cell_formula_units_Z   4
loop_
 _symmetry_equiv_pos_site_id
 _symmetry_equiv_pos_as_xyz
  1  'x, y, z'
loop_
 _atom_site_type_symbol
 _atom_site_label
 _atom_site_symmetry_multiplicity
 _atom_site_fract_x
 _atom_site_fract_y
 _atom_site_fract_z
 _atom_site_occupancy
  Lu  Lu0  1  0.59108300  0.82531000  0.18041200  1
  Lu  Lu1  1  0.40891700  0.17469000  0.81958800  1
  Lu  Lu2  1  0.09108300  0.17469000  0.31958800  1
  Lu  Lu3  1  0.90891700  0.82531000  0.68041200  1
  I  I0  1  0.81513700  0.02639100  0.26614200  1
  I  I1  1  0.18486300  0.97360900  0.73385800  1
  I  I2  1  0.31513700  0.97360900  0.23385800  1
  I  I3  1  0.68486300  0.02639100  0.76614200  1
  O  O0  1  0.92768900  0.92477800  0.43857400  1
  O  O1  1  0.07231100  0.07522200  0.56142600  1
  O  O2  1  0.42768900  0.07522200  0.06142600  1
  O  O3  1  0.57231100  0.92477800  0.93857400  1
  O  O4  1  0.22886100  0.91168000  0.40667100  1
  O  O5  1  0.77113900  0.08832000  0.59332900  1
  O  O6  1  0.72886100  0.08832000  0.09332900  1
  O  O7  1  0.27113900  0.91168000  0.90667100  1
  O  O8  1  0.72654900  0.52659800  0.19569900  1
  O  O9  1  0.27345100  0.47340200  0.80430100  1
  O  O10  1  0.22654900  0.47340200  0.30430100  1
  O  O11  1  0.77345100  0.52659800  0.69569900  1
  O  O12  1  0.72878200  0.75863100  0.37192000  1
  O  O13  1  0.27121800  0.24136900  0.62808000  1
  O  O14  1  0.22878200  0.24136900  0.12808000  1
  O  O15  1  0.77121800  0.75863100  0.87192000  1
  O  O16  1  0.53001300  0.46261400  0.29011900  1
  O  O17  1  0.46998700  0.53738600  0.70988100  1
  O  O18  1  0.03001300  0.53738600  0.20988100  1
  O  O19  1  0.96998700  0.46261400  0.79011900  1
  O  O20  1  0.45421200  0.38451300  0.23322600  1
  O  O21  1  0.54578800  0.61548700  0.76677400  1
  O  O22  1  0.95421200  0.61548700  0.26677400  1
  O  O23  1  0.04578800  0.38451300  0.73322600  1
  O  O24  1  0.21296700  0.80690200  0.19088000  1
  O  O25  1  0.78703300  0.19309800  0.80912000  1
  O  O26  1  0.71296700  0.19309800  0.30912000  1
  O  O27  1  0.28703300  0.80690200  0.69088000  1
  O  O28  1  0.44588900  0.78742500  0.34420200  1
  O  O29  1  0.55411100  0.21257500  0.65579800  1
  O  O30  1  0.94588900  0.21257500  0.15579800  1
  O  O31  1  0.05411100  0.78742500  0.84420200  1
  O  O32  1  0.94458700  0.83274200  0.17878500  1
  O  O33  1  0.05541300  0.16725800  0.82121500  1
  O  O34  1  0.44458700  0.16725800  0.32121500  1
  O  O35  1  0.55541300  0.83274200  0.67878500  1
loop_
_geom_bond_atom_site_label_1
_geom_bond_atom_site_label_2
_geom_bond_distance
_geom_bond_site_symmetry_2
Lu0 O6 2.180739 1_565
Lu0 O28 2.226481 1_555
Lu0 O3 2.229051 1_554
Lu0 O16 2.309173 1_555
Lu0 O12 2.323583 1_555
Lu0 O2 2.333759 1_565
Lu0 O8 2.544962 1_555
Lu1 O7 2.180739 1_545
Lu1 O29 2.226481 1_555
Lu1 O2 2.229051 1_556
Lu1 O17 2.309173 1_555
Lu1 O13 2.323583 1_555
Lu1 O3 2.333759 1_545
Lu1 O9 2.544962 1_555
Lu2 O4 2.180739 1_545
Lu2 O30 2.226481 1_455
Lu2 O1 2.229051 1_555
Lu2 O18 2.309173 1_555
Lu2 O14 2.323583 1_555
Lu2 O0 2.333759 1_445
Lu2 O10 2.544962 1_555
Lu3 O5 2.180739 1_565
Lu3 O31 2.226481 1_655
Lu3 O0 2.229051 1_555
Lu3 O19 2.309173 1_555
Lu3 O15 2.323583 1_555
Lu3 O1 2.333759 1_665
Lu3 O11 2.544962 1_555
I0 O30 1.849953 1_555
I0 O6 1.857849 1_555
I0 O26 1.867214 1_555
I0 O12 1.867323 1_545
I0 O0 1.952361 1_545
I0 O32 2.488444 1_545
I1 O31 1.849953 1_555
I1 O7 1.857849 1_555
I1 O27 1.867214 1_555
I1 O13 1.867323 1_565
I1 O1 1.952361 1_565
I1 O33 2.488444 1_565
I2 O28 1.849953 1_555
I2 O4 1.857849 1_555
I2 O24 1.867214 1_555
I2 O14 1.867323 1_565
I2 O2 1.952361 1_565
I2 O34 2.488444 1_565
I3 O29 1.849953 1_555
I3 O5 1.857849 1_555
I3 O25 1.867214 1_555
I3 O15 1.867323 1_545
I3 O3 1.952361 1_545
I3 O35 2.488444 1_545
O16 O20 1.311854 1_555
O17 O21 1.311854 1_555
O18 O22 1.311854 1_455
O19 O23 1.311854 1_655
O20 O34 1.317878 1_555
O21 O35 1.317878 1_555
O22 O32 1.317878 1_555
O23 O33 1.317878 1_555
