# generated using pymatgen
data_Sr2YTi2AlO7
_symmetry_space_group_name_H-M   'P 1'
_cell_length_a   12.12821326
_cell_length_b   12.12821326
_cell_length_c   12.12821326
_cell_angle_alpha   153.70986542
_cell_angle_beta   153.01247777
_cell_angle_gamma   38.03187923
_symmetry_Int_Tables_number   1
_chemical_formula_structural   Sr2YTi2AlO7
_chemical_formula_sum   'Sr4 Y2 Ti4 Al2 O14'
_cell_volume   358.00633871
_cell_formula_units_Z   2
loop_
 _symmetry_equiv_pos_site_id
 _symmetry_equiv_pos_as_xyz
  1  'x, y, z'
loop_
 _atom_site_type_symbol
 _atom_site_label
 _atom_site_symmetry_multiplicity
 _atom_site_fract_x
 _atom_site_fract_y
 _atom_site_fract_z
 _atom_site_occupancy
  Sr  Sr0  1  0.81923300  0.83107700  0.96405100  1
  Sr  Sr1  1  0.18076700  0.14481800  0.01184300  1
  Sr  Sr2  1  0.63297400  0.64481800  0.96405100  1
  Sr  Sr3  1  0.36702600  0.33107700  0.01184300  1
  Y  Y0  1  0.50000000  0.48188500  0.98188500  1
  Y  Y1  1  0.00000000  0.98188500  0.98188500  1
  Ti  Ti0  1  0.93863100  0.42006900  0.48274200  1
  Ti  Ti1  1  0.06136900  0.54411100  0.48143800  1
  Ti  Ti2  1  0.56267300  0.04411100  0.48274200  1
  Ti  Ti3  1  0.43732700  0.92006900  0.48143800  1
  Al  Al0  1  0.17704300  0.75538800  0.43243100  1
  Al  Al1  1  0.82295700  0.25538800  0.57834500  1
  O  O0  1  0.90925100  0.57323300  0.98248400  1
  O  O1  1  0.09074900  0.07323300  0.66398200  1
  O  O2  1  0.68799300  0.66977800  0.49289400  1
  O  O3  1  0.31200700  0.80490200  0.98178500  1
  O  O4  1  0.32311700  0.30490200  0.49289400  1
  O  O5  1  0.67688300  0.16977800  0.98178500  1
  O  O6  1  0.17639100  0.15805700  0.47359500  1
  O  O7  1  0.82360900  0.29720400  0.98166700  1
  O  O8  1  0.81553800  0.79720400  0.47359500  1
  O  O9  1  0.18446200  0.65805700  0.98166700  1
  O  O10  1  0.37829100  0.76795600  0.50981400  1
  O  O11  1  0.62170900  0.13152300  0.38966500  1
  O  O12  1  0.24185800  0.63152300  0.50981400  1
  O  O13  1  0.75814200  0.26795600  0.38966500  1
loop_
_geom_bond_atom_site_label_1
_geom_bond_atom_site_label_2
_geom_bond_distance
_geom_bond_site_symmetry_2
Al0 O12 1.763091 1_555
Al0 O10 1.763091 1_555
Al0 O0 1.818521 1_454
Al0 O1 1.820097 1_565
Al1 O13 1.763091 1_555
Al1 O11 1.763091 1_555
Al1 O1 1.818521 1_655
Al1 O0 1.820097 1_555
O0 Sr2 2.541932 1_555
O0 Sr0 2.541932 1_555
O1 Sr1 2.541920 1_556
O1 Sr3 2.541939 1_556
O2 Ti0 1.980702 1_555
O2 Ti3 1.985407 1_555
O2 Y1 2.476804 1_655
O2 Y0 2.545285 1_554
O2 Sr0 2.768410 1_555
O2 Sr3 2.794010 1_555
O3 Ti1 1.980702 1_555
O3 Ti2 1.985408 1_566
O3 Y1 2.476808 1_555
O3 Y0 2.545295 1_555
O3 Sr1 2.768407 1_566
O3 Sr2 2.794010 1_555
O4 Ti2 1.980703 1_555
O4 Ti1 1.985409 1_555
O4 Y0 2.476818 1_555
O4 Y1 2.545299 1_544
O4 Sr2 2.768393 1_555
O4 Sr1 2.794010 1_555
O5 Ti3 1.980702 1_545
O5 Ti0 1.985408 1_556
O5 Y0 2.476808 1_555
O5 Y1 2.545295 1_645
O5 Sr3 2.768390 1_556
O5 Sr0 2.794010 1_545
O6 Ti3 1.980252 1_545
O6 Ti0 1.981958 1_455
O6 Y1 2.514246 1_544
O6 Y0 2.565185 1_555
O6 Sr0 2.844106 1_444
O6 Sr3 2.923091 1_556
O7 Ti2 1.980255 1_555
O7 Ti1 1.981953 1_656
O7 Y1 2.514238 1_645
O7 Y0 2.565178 1_555
O7 Sr1 2.844122 1_656
O7 Sr2 2.923110 1_555
O8 Ti1 1.980252 1_655
O8 Ti2 1.981958 1_565
O8 Y0 2.514246 1_554
O8 Y1 2.565185 1_655
O8 Sr2 2.844106 1_554
O8 Sr1 2.923107 1_666
O9 Ti0 1.980257 1_455
O9 Ti3 1.981955 1_556
O9 Y0 2.514253 1_555
O9 Y1 2.565192 1_555
O9 Sr3 2.844090 1_556
O9 Sr0 2.923094 1_455
O10 Sr0 2.432185 1_555
O10 Sr3 2.618703 1_555
O10 Ti3 2.773648 1_555
O10 Sr3 3.030331 1_566
O11 Sr1 2.432185 1_555
O11 Sr2 2.618697 1_544
O11 Ti2 2.773648 1_555
O11 Sr2 3.030331 1_555
O12 Sr2 2.432185 1_555
O12 Sr1 2.618698 1_555
O12 Ti1 2.773648 1_555
O12 Sr1 3.030327 1_566
O13 Sr3 2.432190 1_555
O13 Sr0 2.618697 1_544
O13 Ti0 2.773648 1_555
O13 Sr0 3.030331 1_555
