# generated using pymatgen
data_SrLa3Mn2Cr2O12
_symmetry_space_group_name_H-M   'P 1'
_cell_length_a   5.52691829
_cell_length_b   5.55618733
_cell_length_c   9.60782097
_cell_angle_alpha   74.98271603
_cell_angle_beta   91.70670887
_cell_angle_gamma   59.99985898
_symmetry_Int_Tables_number   1
_chemical_formula_structural   SrLa3Mn2Cr2O12
_chemical_formula_sum   'Sr1 La3 Mn2 Cr2 O12'
_cell_volume   242.26855585
_cell_formula_units_Z   1
loop_
 _symmetry_equiv_pos_site_id
 _symmetry_equiv_pos_as_xyz
  1  'x, y, z'
loop_
 _atom_site_type_symbol
 _atom_site_label
 _atom_site_symmetry_multiplicity
 _atom_site_fract_x
 _atom_site_fract_y
 _atom_site_fract_z
 _atom_site_occupancy
  Sr  Sr0  1  0.87229200  0.25337100  0.62611200  1
  La  La0  1  0.37355200  0.24893400  0.12240400  1
  La  La1  1  0.12868200  0.74820500  0.37908600  1
  La  La2  1  0.62387400  0.74841500  0.87228900  1
  Mn  Mn0  1  0.50384000  0.00083900  0.49853600  1
  Mn  Mn1  1  0.25082300  0.49620100  0.74956600  1
  Cr  Cr0  1  0.99604900  0.99758900  0.00157600  1
  Cr  Cr1  1  0.74701400  0.50267400  0.25118000  1
  O  O0  1  0.80523100  0.81255500  0.12587600  1
  O  O1  1  0.33127200  0.82318200  0.61247000  1
  O  O2  1  0.16854600  0.24774200  0.34424400  1
  O  O3  1  0.14688800  0.68087400  0.90573400  1
  O  O4  1  0.64023000  0.26041100  0.84708100  1
  O  O5  1  0.65249000  0.70572600  0.40447300  1
  O  O6  1  0.33713900  0.74113700  0.16275200  1
  O  O7  1  0.84081200  0.31789000  0.09349200  1
  O  O8  1  0.84616900  0.75726300  0.65262500  1
  O  O9  1  0.35074900  0.31040700  0.58948100  1
  O  O10  1  0.68756800  0.18353600  0.37504800  1
  O  O11  1  0.19678200  0.16304800  0.88597400  1
loop_
_geom_bond_atom_site_label_1
_geom_bond_atom_site_label_2
_geom_bond_distance
_geom_bond_site_symmetry_2
La0 O0 2.395973 1_545
La0 O3 2.431411 1_554
La0 O2 2.443512 1_555
La0 O11 2.690366 1_554
La0 O7 2.767947 1_455
La0 O6 2.770094 1_555
La0 O10 2.774446 1_555
La0 O7 2.805410 1_555
La0 O6 2.856016 1_545
La0 O4 3.068005 1_554
La0 O5 3.112857 1_545
La0 O0 3.146115 1_455
La1 O6 2.405990 1_555
La1 O9 2.414152 1_555
La1 O10 2.417556 1_465
La1 O1 2.693735 1_555
La1 O5 2.769756 1_455
La1 O5 2.782317 1_555
La1 O2 2.786904 1_555
La1 O0 2.809478 1_455
La1 O2 2.828170 1_565
La2 O11 2.373609 1_565
La2 O7 2.453976 1_556
La2 O8 2.475309 1_555
La2 O3 2.719811 1_655
La2 O4 2.741396 1_555
La2 O1 2.751304 1_555
La2 O0 2.780204 1_556
La2 O4 2.839160 1_565
La2 O3 2.858540 1_555
Mn0 O1 1.877767 1_545
Mn0 O5 1.909287 1_545
Mn0 O2 1.937496 1_555
Mn0 O9 1.950747 1_555
Mn0 O8 1.958914 1_545
Mn0 O10 1.986870 1_555
Mn1 O4 1.910596 1_555
Mn1 O3 1.973289 1_555
Mn1 O8 1.976132 1_455
Mn1 O9 2.009877 1_555
Mn1 O11 2.133605 1_555
Mn1 O1 2.199071 1_555
Cr0 O11 1.968198 1_664
Cr0 O6 1.994662 1_655
Cr0 O7 2.003959 1_565
Cr0 O4 2.008544 1_564
Cr0 O3 2.014448 1_654
Cr0 O0 2.029400 1_555
Cr1 O6 1.977278 1_555
Cr1 O7 1.984643 1_555
Cr1 O0 2.005053 1_555
Cr1 O5 2.008095 1_555
Cr1 O2 2.037946 1_655
Cr1 O10 2.044697 1_555
O1 Sr0 2.506818 1_465
O1 Sr0 3.045731 1_555
O4 Sr0 2.511749 1_555
O5 Sr0 2.519217 1_555
O8 Sr0 2.778516 1_565
O8 Sr0 2.809218 1_555
O9 Sr0 2.738893 1_555
O9 Sr0 2.837739 1_455
O10 Sr0 2.783163 1_555
O11 Sr0 2.808152 1_455
