# generated using pymatgen
data_AsPHBr3OF6
_symmetry_space_group_name_H-M   'P 1'
_cell_length_a   8.85837900
_cell_length_b   9.09665300
_cell_length_c   13.38991600
_cell_angle_alpha   90.00000000
_cell_angle_beta   90.00000000
_cell_angle_gamma   90.00000000
_symmetry_Int_Tables_number   1
_chemical_formula_structural   AsPHBr3OF6
_chemical_formula_sum   'As4 P4 H4 Br12 O4 F24'
_cell_volume   1078.98085388
_cell_formula_units_Z   4
loop_
 _symmetry_equiv_pos_site_id
 _symmetry_equiv_pos_as_xyz
  1  'x, y, z'
loop_
 _atom_site_type_symbol
 _atom_site_label
 _atom_site_symmetry_multiplicity
 _atom_site_fract_x
 _atom_site_fract_y
 _atom_site_fract_z
 _atom_site_occupancy
  As  As0  1  0.68630000  0.75000000  0.56152200  1
  As  As1  1  0.81370000  0.75000000  0.06152200  1
  As  As2  1  0.31370000  0.25000000  0.43847800  1
  As  As3  1  0.18630000  0.25000000  0.93847800  1
  P  P0  1  0.27689700  0.75000000  0.27887200  1
  P  P1  1  0.22310300  0.75000000  0.77887200  1
  P  P2  1  0.72310300  0.25000000  0.72112800  1
  P  P3  1  0.77689700  0.25000000  0.22112800  1
  H  H0  1  0.45427000  0.75000000  0.40113600  1
  H  H1  1  0.04573000  0.75000000  0.90113600  1
  H  H2  1  0.54573000  0.25000000  0.59886400  1
  H  H3  1  0.95427000  0.25000000  0.09886400  1
  Br  Br0  1  0.10326700  0.75000000  0.39091200  1
  Br  Br1  1  0.39673300  0.75000000  0.89091200  1
  Br  Br2  1  0.89673300  0.25000000  0.60908800  1
  Br  Br3  1  0.60326700  0.25000000  0.10908800  1
  Br  Br4  1  0.25350700  0.94182500  0.18653500  1
  Br  Br5  1  0.24649300  0.55817500  0.68653500  1
  Br  Br6  1  0.74649300  0.44182500  0.81346500  1
  Br  Br7  1  0.75350700  0.05817500  0.31346500  1
  Br  Br8  1  0.74649300  0.05817500  0.81346500  1
  Br  Br9  1  0.75350700  0.44182500  0.31346500  1
  Br  Br10  1  0.25350700  0.55817500  0.18653500  1
  Br  Br11  1  0.24649300  0.94182500  0.68653500  1
  O  O0  1  0.43656000  0.75000000  0.32594300  1
  O  O1  1  0.06344000  0.75000000  0.82594300  1
  O  O2  1  0.56344000  0.25000000  0.67405700  1
  O  O3  1  0.93656000  0.25000000  0.17405700  1
  F  F0  1  0.49164000  0.75000000  0.51414700  1
  F  F1  1  0.00836000  0.75000000  0.01414700  1
  F  F2  1  0.50836000  0.25000000  0.48585300  1
  F  F3  1  0.99164000  0.25000000  0.98585300  1
  F  F4  1  0.61589300  0.75000000  0.68433500  1
  F  F5  1  0.88410700  0.75000000  0.18433500  1
  F  F6  1  0.38410700  0.25000000  0.31566500  1
  F  F7  1  0.11589300  0.25000000  0.81566500  1
  F  F8  1  0.74724000  0.75000000  0.43452000  1
  F  F9  1  0.75276000  0.75000000  0.93452000  1
  F  F10  1  0.25276000  0.25000000  0.56548000  1
  F  F11  1  0.24724000  0.25000000  0.06548000  1
  F  F12  1  0.87548900  0.75000000  0.60250200  1
  F  F13  1  0.62451100  0.75000000  0.10250200  1
  F  F14  1  0.12451100  0.25000000  0.39749800  1
  F  F15  1  0.37548900  0.25000000  0.89749800  1
  F  F16  1  0.68194500  0.55577100  0.55924400  1
  F  F17  1  0.81805500  0.94422900  0.05924400  1
  F  F18  1  0.31805500  0.05577100  0.44075600  1
  F  F19  1  0.18194500  0.44422900  0.94075600  1
  F  F20  1  0.31805500  0.44422900  0.44075600  1
  F  F21  1  0.18194500  0.05577100  0.94075600  1
  F  F22  1  0.68194500  0.94422900  0.55924400  1
  F  F23  1  0.81805500  0.55577100  0.05924400  1
loop_
_geom_bond_atom_site_label_1
_geom_bond_atom_site_label_2
_geom_bond_distance
_geom_bond_site_symmetry_2
As0 F4 1.758757 1_555
As0 F12 1.763451 1_555
As0 F16 1.767518 1_555
As0 F22 1.767518 1_555
As0 F8 1.784173 1_555
As0 F0 1.837350 1_555
As1 F5 1.758757 1_555
As1 F13 1.763451 1_555
As1 F23 1.767518 1_555
As1 F17 1.767518 1_555
As1 F9 1.784173 1_554
As1 F1 1.837350 1_655
As2 F6 1.758757 1_555
As2 F14 1.763451 1_555
As2 F20 1.767518 1_555
As2 F18 1.767518 1_555
As2 F10 1.784173 1_555
As2 F2 1.837350 1_555
As3 F7 1.758757 1_555
As3 F15 1.763451 1_555
As3 F21 1.767518 1_555
As3 F19 1.767518 1_555
As3 F11 1.784173 1_556
As3 F3 1.837350 1_455
H0 O0 1.018977 1_555
H1 O1 1.018977 1_555
H2 O2 1.018977 1_555
H3 O3 1.018977 1_555
Br0 P0 2.148560 1_555
Br1 P1 2.148560 1_555
Br2 P2 2.148560 1_555
Br3 P3 2.148560 1_555
Br4 P0 2.148600 1_555
Br5 P1 2.148600 1_555
Br6 P2 2.148600 1_555
Br7 P3 2.148600 1_555
Br8 P2 2.148600 1_555
Br9 P3 2.148600 1_555
Br10 P0 2.148600 1_555
Br11 P1 2.148600 1_555
O0 P0 1.548435 1_555
O1 P1 1.548435 1_555
O2 P2 1.548435 1_555
O3 P3 1.548435 1_555
F0 H0 1.548994 1_555
F1 H1 1.548994 1_554
F2 H2 1.548994 1_555
F3 H3 1.548994 1_556
