# generated using pymatgen
data_Zr(NiP)2
_symmetry_space_group_name_H-M   'P 1'
_cell_length_a   3.70263000
_cell_length_b   3.70263000
_cell_length_c   5.45336150
_cell_angle_alpha   109.84528360
_cell_angle_beta   109.84528360
_cell_angle_gamma   90.00000000
_symmetry_Int_Tables_number   1
_chemical_formula_structural   Zr(NiP)2
_chemical_formula_sum   'Zr1 Ni2 P2'
_cell_volume   65.58289128
_cell_formula_units_Z   1
loop_
 _symmetry_equiv_pos_site_id
 _symmetry_equiv_pos_as_xyz
  1  'x, y, z'
loop_
 _atom_site_type_symbol
 _atom_site_label
 _atom_site_symmetry_multiplicity
 _atom_site_fract_x
 _atom_site_fract_y
 _atom_site_fract_z
 _atom_site_occupancy
  Zr  Zr0  1  0.00000000  0.00000000  0.00000000  1
  Ni  Ni0  1  0.75000000  0.25000000  0.50000000  1
  Ni  Ni1  1  0.25000000  0.75000000  0.50000000  1
  P  P0  1  0.61774100  0.61774100  0.23548200  1
  P  P1  1  0.38225900  0.38225900  0.76451800  1
loop_
_geom_bond_atom_site_label_1
_geom_bond_atom_site_label_2
_geom_bond_distance
_geom_bond_site_symmetry_2
Ni0 P1 2.242451 1_655
Ni0 P0 2.242451 1_545
Ni0 P1 2.242451 1_555
Ni0 P0 2.242451 1_555
Ni0 Zr0 3.024644 1_666
Ni0 Zr0 3.024644 1_555
Ni0 Zr0 3.024644 1_655
Ni0 Zr0 3.024644 1_656
Ni1 P1 2.242451 1_565
Ni1 P1 2.242451 1_555
Ni1 P0 2.242451 1_555
Ni1 P0 2.242451 1_455
Ni1 Zr0 3.024644 1_666
Ni1 Zr0 3.024644 1_555
Ni1 Zr0 3.024644 1_566
Ni1 Zr0 3.024644 1_565
P0 P1 2.252982 1_554
P0 Zr0 2.850213 1_655
P0 Zr0 2.850213 1_565
P0 Zr0 2.850213 1_665
P0 Zr0 2.850213 1_555
P1 Zr0 2.850213 1_556
P1 Zr0 2.850213 1_566
P1 Zr0 2.850213 1_656
P1 Zr0 2.850213 1_666
