# generated using pymatgen
data_CsBrF4
_symmetry_space_group_name_H-M   'P 1'
_cell_length_a   7.55804264
_cell_length_b   7.55804264
_cell_length_c   7.55804264
_cell_angle_alpha   137.34733797
_cell_angle_beta   125.74831681
_cell_angle_gamma   71.35518870
_symmetry_Int_Tables_number   1
_chemical_formula_structural   CsBrF4
_chemical_formula_sum   'Cs2 Br2 F8'
_cell_volume   232.61788709
_cell_formula_units_Z   2
loop_
 _symmetry_equiv_pos_site_id
 _symmetry_equiv_pos_as_xyz
  1  'x, y, z'
loop_
 _atom_site_type_symbol
 _atom_site_label
 _atom_site_symmetry_multiplicity
 _atom_site_fract_x
 _atom_site_fract_y
 _atom_site_fract_z
 _atom_site_occupancy
  Cs  Cs0  1  0.71656424  0.71656424  -0.00000000  1
  Cs  Cs1  1  0.28343576  0.28343576  -0.00000000  1
  Br  Br0  1  0.50000000  -0.00000000  0.50000000  1
  Br  Br1  1  -0.00000000  0.50000000  0.50000000  1
  F  F0  1  0.27671960  0.50000000  0.77671960  1
  F  F1  1  0.72328040  0.50000000  0.22328040  1
  F  F2  1  0.80543764  0.11209628  0.69334135  1
  F  F3  1  0.19456236  0.88790372  0.30665865  1
  F  F4  1  0.58124407  0.88790372  0.69334135  1
  F  F5  1  0.41875593  0.11209628  0.30665865  1
  F  F6  1  0.84310652  0.34310652  0.50000000  1
  F  F7  1  0.15689348  0.65689348  0.50000000  1
loop_
_geom_bond_atom_site_label_1
_geom_bond_atom_site_label_2
_geom_bond_distance
_geom_bond_site_symmetry_2
Cs0 F4 2.982160 1_554
Cs0 F3 2.982161 1_655
Cs0 F1 3.072363 1_555
Cs0 F0 3.072363 1_554
Cs0 F6 3.157483 1_565
Cs0 F6 3.157483 1_554
Cs0 F5 3.313072 1_565
Cs0 F5 3.313077 1_554
Cs0 F2 3.313078 1_565
Cs0 F2 3.313078 1_554
Cs0 F7 3.523093 1_554
Cs0 F7 3.523093 1_655
Cs1 F5 2.982160 1_555
Cs1 F2 2.982161 1_454
Cs1 F0 3.072363 1_554
Cs1 F1 3.072363 1_555
Cs1 F7 3.157483 1_555
Cs1 F7 3.157483 1_544
Cs1 F4 3.313072 1_544
Cs1 F4 3.313077 1_555
Cs1 F3 3.313078 1_544
Cs1 F3 3.313078 1_555
Cs1 F6 3.523093 1_454
Cs1 F6 3.523093 1_555
Br0 F2 1.915775 1_555
Br0 F3 1.915775 1_545
Br0 F5 1.915777 1_555
Br0 F4 1.915777 1_545
Br1 F0 1.907186 1_555
Br1 F1 1.907186 1_455
Br1 F6 1.926491 1_455
Br1 F7 1.926491 1_555
