# generated using pymatgen
data_U24CrFe3
_symmetry_space_group_name_H-M   'P 1'
_cell_length_a   5.22910600
_cell_length_b   7.66287303
_cell_length_c   14.36956096
_cell_angle_alpha   90.00000000
_cell_angle_beta   90.00000000
_cell_angle_gamma   109.94984807
_symmetry_Int_Tables_number   1
_chemical_formula_structural   U24CrFe3
_chemical_formula_sum   'U24 Cr1 Fe3'
_cell_volume   541.23586099
_cell_formula_units_Z   1
loop_
 _symmetry_equiv_pos_site_id
 _symmetry_equiv_pos_as_xyz
  1  'x, y, z'
loop_
 _atom_site_type_symbol
 _atom_site_label
 _atom_site_symmetry_multiplicity
 _atom_site_fract_x
 _atom_site_fract_y
 _atom_site_fract_z
 _atom_site_occupancy
  U  U0  1  0.25000000  0.50000000  0.34313200  1
  U  U1  1  0.75000000  0.50000000  0.84208000  1
  U  U2  1  0.25000000  0.50000000  0.15792000  1
  U  U3  1  0.75000000  0.50000000  0.65686800  1
  U  U4  1  0.65675800  0.31226600  0.25268700  1
  U  U5  1  0.15550800  0.31226600  0.74731300  1
  U  U6  1  0.84324200  0.68773400  0.25268700  1
  U  U7  1  0.34449200  0.68773400  0.74731300  1
  U  U8  1  0.05714000  0.11433300  0.34155500  1
  U  U9  1  0.56236400  0.11927400  0.84036700  1
  U  U10  1  0.44309000  0.88072600  0.15963300  1
  U  U11  1  0.94280700  0.88566700  0.65844500  1
  U  U12  1  0.65898100  0.31743300  0.43929700  1
  U  U13  1  0.15517300  0.31807700  0.94098900  1
  U  U14  1  0.83709600  0.68192300  0.05901100  1
  U  U15  1  0.34154700  0.68256700  0.56070300  1
  U  U16  1  0.84101900  0.68256700  0.43929700  1
  U  U17  1  0.34482700  0.68192300  0.94098900  1
  U  U18  1  0.66290400  0.31807700  0.05901100  1
  U  U19  1  0.15845300  0.31743300  0.56070300  1
  U  U20  1  0.44286000  0.88566700  0.34155500  1
  U  U21  1  0.93763600  0.88072600  0.84036700  1
  U  U22  1  0.05691000  0.11927400  0.15963300  1
  U  U23  1  0.55719300  0.11433300  0.65844500  1
  Cr  Cr0  1  0.25000000  0.00000000  0.00000000  1
  Fe  Fe0  1  0.75000000  0.00000000  0.50000000  1
  Fe  Fe1  1  0.75000000  0.00000000  0.00000000  1
  Fe  Fe2  1  0.25000000  0.00000000  0.50000000  1
loop_
_geom_bond_atom_site_label_1
_geom_bond_atom_site_label_2
_geom_bond_distance
_geom_bond_site_symmetry_2
U0 U2 2.661415 1_555
U0 U20 2.778066 1_555
U0 U8 2.778066 1_555
U1 U3 2.661415 1_555
U1 U21 2.742531 1_555
U1 U9 2.742531 1_555
U1 U17 3.235394 1_555
U1 U13 3.235394 1_655
U1 U17 3.267900 1_655
U1 U13 3.267900 1_555
U1 U14 3.381495 1_556
U1 U18 3.381495 1_556
U2 U22 2.742531 1_555
U4 U6 2.704518 1_555
U4 U8 3.237510 1_655
U4 U8 3.243008 1_555
U5 U7 2.704518 1_555
U5 U9 3.234958 1_455
U5 U9 3.263168 1_555
U6 U8 3.327593 1_665
U7 U9 3.383817 1_565
U10 U20 2.614420 1_555
U10 U2 2.742531 1_555
U10 U22 3.104838 1_665
U10 U22 3.152504 1_565
U10 U6 3.234958 1_555
U10 U6 3.263168 1_455
U10 U14 3.286032 1_555
U10 U14 3.340438 1_455
U10 U4 3.383817 1_565
U10 U17 3.452773 1_554
U10 U18 3.466230 1_565
U11 U21 2.614420 1_555
U11 U3 2.778066 1_555
U11 U23 3.089877 1_565
U11 U23 3.090346 1_665
U11 U7 3.237510 1_555
U11 U7 3.243008 1_655
U11 U15 3.307687 1_555
U11 U15 3.310083 1_655
U11 U5 3.327593 1_665
U11 U19 3.412464 1_665
U11 U16 3.472286 1_555
U12 U16 2.630075 1_555
U12 U4 2.681763 1_555
U12 U8 3.307683 1_655
U12 U8 3.310087 1_555
U12 U20 3.412464 1_545
U12 U23 3.472286 1_555
U13 U17 2.621108 1_555
U13 U5 2.783405 1_555
U13 U18 3.082578 1_456
U13 U18 3.150409 1_556
U13 U9 3.286032 1_455
U13 U9 3.340438 1_555
U13 U2 3.381495 1_556
U13 U22 3.452773 1_556
U13 U21 3.466230 1_445
U14 U18 2.621108 1_555
U14 U6 2.783405 1_555
U14 U17 3.082578 1_554
U14 U17 3.150409 1_654
U14 U2 3.235394 1_555
U14 U2 3.267900 1_655
U14 U21 3.452773 1_554
U14 U22 3.466230 1_665
U15 U19 2.630075 1_555
U15 U7 2.681763 1_555
U15 U23 3.412464 1_565
U15 U20 3.472286 1_555
U16 U6 2.681763 1_555
U16 U20 3.307683 1_555
U16 U20 3.310087 1_655
U16 U8 3.412464 1_665
U17 U7 2.783405 1_555
U17 U21 3.286032 1_555
U17 U21 3.340438 1_455
U17 U2 3.381495 1_556
U17 U9 3.466230 1_565
U18 U4 2.783405 1_555
U18 U2 3.235394 1_655
U18 U2 3.267900 1_555
U18 U22 3.286032 1_655
U18 U22 3.340438 1_555
U18 U9 3.452773 1_554
U19 U5 2.681763 1_555
U19 U23 3.307687 1_455
U19 U23 3.310083 1_555
U19 U8 3.472286 1_555
U20 U8 3.089877 1_665
U20 U8 3.090346 1_565
U20 U6 3.237510 1_555
U20 U6 3.243008 1_455
U20 U4 3.327593 1_565
U21 U9 3.104838 1_565
U21 U9 3.152504 1_665
U21 U7 3.234958 1_555
U21 U7 3.263168 1_655
U21 U5 3.383817 1_665
U22 U8 2.614420 1_555
U22 U4 3.234958 1_455
U22 U4 3.263168 1_555
U22 U6 3.383817 1_445
U23 U9 2.614420 1_555
U23 U3 2.778066 1_555
U23 U5 3.237510 1_655
U23 U5 3.243008 1_555
U23 U7 3.327593 1_545
Cr0 Fe1 2.614553 1_555
Cr0 Fe1 2.614553 1_455
Cr0 U18 2.780378 1_555
Cr0 U14 2.780378 1_445
Cr0 U17 2.780378 1_544
Cr0 U13 2.780378 1_554
Cr0 U22 2.783226 1_555
Cr0 U9 2.783226 1_554
Cr0 U10 2.783226 1_545
Cr0 U21 2.783226 1_444
Fe0 Fe2 2.614553 1_655
Fe0 Fe2 2.614553 1_555
Fe0 U23 2.751470 1_555
Fe0 U8 2.751470 1_655
Fe0 U11 2.751470 1_545
Fe0 U20 2.751470 1_545
Fe0 U12 2.773846 1_555
Fe0 U16 2.773846 1_545
Fe0 U19 2.773848 1_655
Fe0 U15 2.773848 1_545
Fe1 U14 2.761305 1_545
Fe1 U18 2.761305 1_555
Fe1 U17 2.761305 1_544
Fe1 U13 2.761305 1_654
Fe1 U9 2.769798 1_554
Fe1 U21 2.769798 1_544
Fe1 U22 2.769798 1_655
Fe1 U10 2.769798 1_545
Fe2 U23 2.751601 1_555
Fe2 U8 2.751601 1_555
Fe2 U11 2.751601 1_445
Fe2 U20 2.751601 1_545
Fe2 U19 2.775147 1_555
Fe2 U15 2.775147 1_545
Fe2 U12 2.775149 1_555
Fe2 U16 2.775149 1_445
