# generated using pymatgen
data_UBr4O9
_symmetry_space_group_name_H-M   'P 1'
_cell_length_a   6.44232800
_cell_length_b   7.23749284
_cell_length_c   13.95380271
_cell_angle_alpha   96.96072804
_cell_angle_beta   89.29037300
_cell_angle_gamma   110.58683755
_symmetry_Int_Tables_number   1
_chemical_formula_structural   UBr4O9
_chemical_formula_sum   'U2 Br8 O18'
_cell_volume   604.25710502
_cell_formula_units_Z   2
loop_
 _symmetry_equiv_pos_site_id
 _symmetry_equiv_pos_as_xyz
  1  'x, y, z'
loop_
 _atom_site_type_symbol
 _atom_site_label
 _atom_site_symmetry_multiplicity
 _atom_site_fract_x
 _atom_site_fract_y
 _atom_site_fract_z
 _atom_site_occupancy
  U  U0  1  0.16443800  0.20904200  0.80622300  1
  U  U1  1  0.83556200  0.79095800  0.19377700  1
  Br  Br0  1  0.56898600  0.04433900  0.72965600  1
  Br  Br1  1  0.43101400  0.95566100  0.27034400  1
  Br  Br2  1  0.85187700  0.29939100  0.53203300  1
  Br  Br3  1  0.14812300  0.70060900  0.46796700  1
  Br  Br4  1  0.72567300  0.32272400  0.02389700  1
  Br  Br5  1  0.27432700  0.67727600  0.97610300  1
  Br  Br6  1  0.71964500  0.66893600  0.80806700  1
  Br  Br7  1  0.28035500  0.33106400  0.19193300  1
  O  O0  1  0.96208200  0.90556100  0.83774400  1
  O  O1  1  0.03791800  0.09443900  0.16225600  1
  O  O2  1  0.30566700  0.23583600  0.92240500  1
  O  O3  1  0.69433300  0.76416400  0.07759500  1
  O  O4  1  0.11572200  0.51219600  0.87874200  1
  O  O5  1  0.88427800  0.48780400  0.12125800  1
  O  O6  1  0.79173800  0.20010000  0.81055800  1
  O  O7  1  0.20826200  0.79990000  0.18944200  1
  O  O8  1  0.45704800  0.45702300  0.76936900  1
  O  O9  1  0.54295200  0.54297700  0.23063100  1
  O  O10  1  0.15144900  0.60525000  0.57535600  1
  O  O11  1  0.84855100  0.39475000  0.42464400  1
  O  O12  1  0.35940700  0.25343200  0.51733700  1
  O  O13  1  0.64059300  0.74656800  0.48266300  1
  O  O14  1  0.08492800  0.13331400  0.67796600  1
  O  O15  1  0.91507200  0.86668600  0.32203400  1
  O  O16  1  0.70854400  0.72876700  0.56193100  1
  O  O17  1  0.29145600  0.27123300  0.43806900  1
loop_
_geom_bond_atom_site_label_1
_geom_bond_atom_site_label_2
_geom_bond_distance
_geom_bond_site_symmetry_2
Br0 O6 1.788455 1_555
Br1 O7 1.788455 1_555
Br2 O11 1.727454 1_555
Br2 O10 2.385471 1_655
Br3 O10 1.727454 1_555
Br3 O11 2.385471 1_455
Br4 O5 1.760575 1_555
Br5 O4 1.760575 1_555
Br6 O8 1.871643 1_555
Br6 O0 1.872661 1_555
Br7 O9 1.871643 1_555
Br7 O1 1.872661 1_555
O0 U0 2.218913 1_665
O1 U1 2.218913 1_445
O2 U0 1.824802 1_555
O3 U1 1.824802 1_555
O4 U0 2.423777 1_555
O5 U1 2.423777 1_555
O6 U0 2.379283 1_655
O7 U1 2.379283 1_455
O8 U0 2.204444 1_555
O9 U1 2.204444 1_555
O12 O17 1.232017 1_555
O13 O16 1.232017 1_555
O14 U0 1.831182 1_555
O15 U1 1.831182 1_555
