# generated using pymatgen
data_Mn10CoN9
_symmetry_space_group_name_H-M   'P 1'
_cell_length_a   6.32491882
_cell_length_b   7.83538800
_cell_length_c   16.22496125
_cell_angle_alpha   90.00000000
_cell_angle_beta   95.60261023
_cell_angle_gamma   90.00000000
_symmetry_Int_Tables_number   1
_chemical_formula_structural   Mn10CoN9
_chemical_formula_sum   'Mn40 Co4 N36'
_cell_volume   800.23863503
_cell_formula_units_Z   4
loop_
 _symmetry_equiv_pos_site_id
 _symmetry_equiv_pos_as_xyz
  1  'x, y, z'
loop_
 _atom_site_type_symbol
 _atom_site_label
 _atom_site_symmetry_multiplicity
 _atom_site_fract_x
 _atom_site_fract_y
 _atom_site_fract_z
 _atom_site_occupancy
  Mn  Mn0  1  0.43756400  0.85511200  0.09282500  1
  Mn  Mn1  1  0.56243600  0.35511200  0.40717500  1
  Mn  Mn2  1  0.56243600  0.14488800  0.90717500  1
  Mn  Mn3  1  0.43756400  0.64488800  0.59282500  1
  Mn  Mn4  1  0.53027300  0.10753300  0.56992100  1
  Mn  Mn5  1  0.46972700  0.60753300  0.93007900  1
  Mn  Mn6  1  0.46972700  0.89246700  0.43007900  1
  Mn  Mn7  1  0.53027300  0.39246700  0.06992100  1
  Mn  Mn8  1  0.79796200  0.78874200  0.73069900  1
  Mn  Mn9  1  0.20203800  0.28874200  0.76930100  1
  Mn  Mn10  1  0.20203800  0.21125800  0.26930100  1
  Mn  Mn11  1  0.79796200  0.71125800  0.23069900  1
  Mn  Mn12  1  0.74650300  0.32444000  0.71722500  1
  Mn  Mn13  1  0.25349700  0.82444000  0.78277500  1
  Mn  Mn14  1  0.25349700  0.67556000  0.28277500  1
  Mn  Mn15  1  0.74650300  0.17556000  0.21722500  1
  Mn  Mn16  1  0.73162900  0.41418900  0.86760600  1
  Mn  Mn17  1  0.26837100  0.91418900  0.63239400  1
  Mn  Mn18  1  0.26837100  0.58581100  0.13239400  1
  Mn  Mn19  1  0.73162900  0.08581100  0.36760600  1
  Mn  Mn20  1  0.95850400  0.11270900  0.87029300  1
  Mn  Mn21  1  0.04149500  0.61270900  0.62970700  1
  Mn  Mn22  1  0.04149500  0.88729100  0.12970700  1
  Mn  Mn23  1  0.95850400  0.38729100  0.37029300  1
  Mn  Mn24  1  0.96893500  0.11722900  0.63712000  1
  Mn  Mn25  1  0.03106500  0.61722900  0.86288000  1
  Mn  Mn26  1  0.03106500  0.88277100  0.36288000  1
  Mn  Mn27  1  0.96893500  0.38277100  0.13712000  1
  Mn  Mn28  1  0.25083500  0.36827700  0.59745900  1
  Mn  Mn29  1  0.74916500  0.86827700  0.90254100  1
  Mn  Mn30  1  0.74916500  0.63172300  0.40254100  1
  Mn  Mn31  1  0.25083500  0.13172300  0.09745900  1
  Mn  Mn32  1  0.52047100  0.05502800  0.75726600  1
  Mn  Mn33  1  0.47952900  0.55502800  0.74273400  1
  Mn  Mn34  1  0.47952900  0.94497200  0.24273400  1
  Mn  Mn35  1  0.52047100  0.44497200  0.25726600  1
  Mn  Mn36  1  0.76603200  0.80276900  0.54261800  1
  Mn  Mn37  1  0.23396800  0.30276900  0.95738200  1
  Mn  Mn38  1  0.23396800  0.19723100  0.45738200  1
  Mn  Mn39  1  0.76603200  0.69723100  0.04261800  1
  Co  Co0  1  0.74529300  0.42613800  0.56835800  1
  Co  Co1  1  0.25470700  0.92613800  0.93164200  1
  Co  Co2  1  0.25470700  0.57386200  0.43164200  1
  Co  Co3  1  0.74529300  0.07386200  0.06835800  1
  N  N0  1  0.52421700  0.43059200  0.63829300  1
  N  N1  1  0.47578300  0.93059200  0.86170700  1
  N  N2  1  0.47578300  0.56940800  0.36170700  1
  N  N3  1  0.52421700  0.06940800  0.13829300  1
  N  N4  1  0.51836100  0.28257300  0.79797000  1
  N  N5  1  0.48163900  0.78257300  0.70203000  1
  N  N6  1  0.48163900  0.71742700  0.20203000  1
  N  N7  1  0.51836100  0.21742700  0.29797000  1
  N  N8  1  0.81137800  0.07168700  0.96200700  1
  N  N9  1  0.18862200  0.57168700  0.53799300  1
  N  N10  1  0.18862200  0.92831300  0.03799300  1
  N  N11  1  0.81137800  0.42831300  0.46200700  1
  N  N12  1  0.47837700  0.86592800  0.54808000  1
  N  N13  1  0.52162300  0.36592800  0.95192000  1
  N  N14  1  0.52162300  0.13407200  0.45192000  1
  N  N15  1  0.47837700  0.63407200  0.04808000  1
  N  N16  1  0.69475900  0.10066100  0.67312800  1
  N  N17  1  0.30524100  0.60066100  0.82687200  1
  N  N18  1  0.30524100  0.89933900  0.32687200  1
  N  N19  1  0.69475900  0.39933900  0.17312800  1
  N  N20  1  0.99674100  0.37401100  0.65560300  1
  N  N21  1  0.00325900  0.87401100  0.84439700  1
  N  N22  1  0.00325900  0.62598900  0.34439700  1
  N  N23  1  0.99674100  0.12598900  0.15560300  1
  N  N24  1  0.03518100  0.34663600  0.86734200  1
  N  N25  1  0.96481900  0.84663600  0.63265800  1
  N  N26  1  0.96481900  0.65336400  0.13265800  1
  N  N27  1  0.03518100  0.15336400  0.36734200  1
  N  N28  1  0.22160000  0.13487200  0.56875400  1
  N  N29  1  0.77840000  0.63487200  0.93124600  1
  N  N30  1  0.77840000  0.86512800  0.43124600  1
  N  N31  1  0.22160000  0.36512800  0.06875400  1
  N  N32  1  0.21936200  0.05550800  0.72853800  1
  N  N33  1  0.78063800  0.55550800  0.77146200  1
  N  N34  1  0.78063800  0.94449200  0.27146200  1
  N  N35  1  0.21936200  0.44449200  0.22853800  1
loop_
_geom_bond_atom_site_label_1
_geom_bond_atom_site_label_2
_geom_bond_distance
_geom_bond_site_symmetry_2
Mn0 N10 1.823760 1_555
Mn0 N3 1.893413 1_565
Mn0 N15 1.905224 1_555
Mn0 N6 2.069916 1_555
Mn1 N11 1.823760 1_555
Mn1 N2 1.893413 1_555
Mn1 N14 1.905224 1_555
Mn1 N7 2.069916 1_555
Mn2 N8 1.823760 1_555
Mn2 N1 1.893413 1_545
Mn2 N13 1.905224 1_555
Mn2 N4 2.069916 1_555
Mn3 N9 1.823760 1_555
Mn3 N0 1.893413 1_555
Mn3 N12 1.905224 1_555
Mn3 N5 2.069916 1_555
Mn4 N16 1.883916 1_555
Mn4 N14 1.921283 1_555
Mn4 N12 1.947900 1_545
Mn4 N28 1.962301 1_555
Mn5 N17 1.883916 1_555
Mn5 N15 1.921283 1_556
Mn5 N13 1.947900 1_555
Mn5 N29 1.962301 1_555
Mn6 N18 1.883916 1_555
Mn6 N12 1.921283 1_555
Mn6 N14 1.947900 1_565
Mn6 N30 1.962301 1_555
Mn7 N19 1.883916 1_555
Mn7 N13 1.921283 1_554
Mn7 N15 1.947900 1_555
Mn7 N31 1.962301 1_555
Mn8 N33 1.950194 1_555
Mn8 N5 2.009940 1_555
Mn8 N25 2.043943 1_555
Mn8 N21 2.251182 1_655
Mn9 N32 1.950194 1_555
Mn9 N4 2.009940 1_555
Mn9 N24 2.043943 1_555
Mn9 N20 2.251182 1_455
Mn10 N35 1.950194 1_555
Mn10 N7 2.009940 1_555
Mn10 N27 2.043943 1_555
Mn10 N23 2.251182 1_455
Mn11 N34 1.950194 1_555
Mn11 N6 2.009940 1_555
Mn11 N26 2.043943 1_555
Mn11 N22 2.251182 1_655
Mn12 N16 1.909891 1_555
Mn12 N0 1.989223 1_555
Mn12 N20 1.991111 1_555
Mn12 N33 2.015401 1_555
Mn12 N4 2.067666 1_555
Mn13 N17 1.909891 1_555
Mn13 N1 1.989223 1_555
Mn13 N21 1.991111 1_555
Mn13 N32 2.015401 1_565
Mn13 N5 2.067666 1_555
Mn14 N18 1.909891 1_555
Mn14 N2 1.989223 1_555
Mn14 N22 1.991111 1_555
Mn14 N35 2.015401 1_555
Mn14 N6 2.067666 1_555
Mn15 N19 1.909891 1_555
Mn15 N3 1.989223 1_555
Mn15 N23 1.991111 1_555
Mn15 N34 2.015401 1_545
Mn15 N7 2.067666 1_555
Mn16 N33 1.962137 1_555
Mn16 N4 1.965198 1_555
Mn16 N24 1.991975 1_655
Mn16 N29 2.020880 1_555
Mn16 N13 2.033099 1_555
Mn17 N32 1.962137 1_565
Mn17 N5 1.965198 1_555
Mn17 N25 1.991975 1_455
Mn17 N28 2.020880 1_565
Mn17 N12 2.033099 1_555
Mn18 N35 1.962137 1_555
Mn18 N6 1.965198 1_555
Mn18 N26 1.991975 1_455
Mn18 N31 2.020880 1_555
Mn18 N15 2.033099 1_555
Mn19 N34 1.962137 1_545
Mn19 N7 1.965198 1_555
Mn19 N27 1.991975 1_655
Mn19 N30 2.020880 1_545
Mn19 N14 2.033099 1_555
Mn20 N8 1.858479 1_555
Mn20 N24 1.897784 1_655
Mn20 N21 1.943677 1_645
Mn21 N9 1.858482 1_555
Mn21 N25 1.897782 1_455
Mn21 N20 1.943675 1_455
Mn22 N10 1.858482 1_555
Mn22 N26 1.897782 1_455
Mn22 N23 1.943675 1_465
Mn23 N11 1.858479 1_555
Mn23 N27 1.897784 1_655
Mn23 N22 1.943677 1_655
Mn24 N16 1.887655 1_555
Mn24 N28 2.037036 1_655
Mn24 N20 2.039278 1_555
Mn24 N32 2.117551 1_655
Mn24 N25 2.121510 1_545
Mn25 N17 1.887655 1_555
Mn25 N29 2.037036 1_455
Mn25 N21 2.039278 1_555
Mn25 N33 2.117551 1_455
Mn25 N24 2.121510 1_555
Mn26 N18 1.887655 1_555
Mn26 N30 2.037036 1_455
Mn26 N22 2.039278 1_555
Mn26 N34 2.117551 1_455
Mn26 N27 2.121510 1_565
Mn27 N19 1.887655 1_555
Mn27 N31 2.037036 1_655
Mn27 N23 2.039278 1_555
Mn27 N35 2.117551 1_655
Mn27 N26 2.121510 1_555
Mn28 N0 1.855671 1_555
Mn28 N9 1.884621 1_555
Mn28 N28 1.891789 1_555
Mn28 N20 1.941874 1_455
Mn29 N1 1.855671 1_555
Mn29 N8 1.884621 1_565
Mn29 N29 1.891789 1_555
Mn29 N21 1.941874 1_655
Mn30 N2 1.855671 1_555
Mn30 N11 1.884621 1_555
Mn30 N30 1.891789 1_555
Mn30 N22 1.941874 1_655
Mn31 N3 1.855671 1_555
Mn31 N10 1.884621 1_545
Mn31 N31 1.891789 1_555
Mn31 N23 1.941874 1_455
Mn32 N16 1.870953 1_555
Mn32 N4 1.901788 1_555
Mn32 N32 1.915992 1_555
Mn32 N1 1.998887 1_545
Mn32 N5 2.319020 1_545
Mn33 N17 1.870953 1_555
Mn33 N5 1.901788 1_555
Mn33 N33 1.915992 1_555
Mn33 N0 1.998887 1_555
Mn33 N4 2.319020 1_555
Mn34 N18 1.870953 1_555
Mn34 N6 1.901788 1_555
Mn34 N34 1.915992 1_555
Mn34 N3 1.998887 1_565
Mn34 N7 2.319020 1_565
Mn35 N19 1.870953 1_555
Mn35 N7 1.901788 1_555
Mn35 N35 1.915992 1_555
Mn35 N2 1.998887 1_555
Mn35 N6 2.319020 1_555
Mn36 N25 1.864012 1_555
Mn36 N30 1.880885 1_555
Mn36 N12 1.895899 1_555
Mn37 N24 1.864012 1_555
Mn37 N31 1.880885 1_556
Mn37 N13 1.895899 1_555
Mn38 N27 1.864012 1_555
Mn38 N28 1.880885 1_555
Mn38 N14 1.895899 1_555
Mn39 N26 1.864012 1_555
Mn39 N29 1.880885 1_554
Mn39 N15 1.895899 1_555
Co0 N11 1.814750 1_555
Co0 N0 1.885140 1_555
Co0 N20 2.064062 1_555
Co1 N10 1.814750 1_556
Co1 N1 1.885140 1_555
Co1 N21 2.064062 1_555
Co2 N9 1.814750 1_555
Co2 N2 1.885140 1_555
Co2 N22 2.064062 1_555
Co3 N8 1.814750 1_554
Co3 N3 1.885140 1_555
Co3 N23 2.064062 1_555
