# generated using pymatgen
data_NbP4Se3Cl5
_symmetry_space_group_name_H-M   'P 1'
_cell_length_a   12.21697753
_cell_length_b   13.21414676
_cell_length_c   18.86494649
_cell_angle_alpha   90.00000000
_cell_angle_beta   90.00000000
_cell_angle_gamma   90.00000000
_symmetry_Int_Tables_number   1
_chemical_formula_structural   NbP4Se3Cl5
_chemical_formula_sum   'Nb8 P32 Se24 Cl40'
_cell_volume   3045.49912227
_cell_formula_units_Z   8
loop_
 _symmetry_equiv_pos_site_id
 _symmetry_equiv_pos_as_xyz
  1  'x, y, z'
loop_
 _atom_site_type_symbol
 _atom_site_label
 _atom_site_symmetry_multiplicity
 _atom_site_fract_x
 _atom_site_fract_y
 _atom_site_fract_z
 _atom_site_occupancy
  Nb  Nb0  1  0.83600062  0.92691425  0.76140389  1
  Nb  Nb1  1  0.16399938  0.57308575  0.26140389  1
  Nb  Nb2  1  0.16399938  0.07308575  0.23859611  1
  Nb  Nb3  1  0.83600062  0.42691425  0.73859611  1
  Nb  Nb4  1  0.66399938  0.92691425  0.26140389  1
  Nb  Nb5  1  0.33600062  0.57308575  0.76140389  1
  Nb  Nb6  1  0.33600062  0.07308575  0.73859611  1
  Nb  Nb7  1  0.66399938  0.42691425  0.23859611  1
  P  P0  1  0.90767013  0.84394972  0.89082989  1
  P  P1  1  0.09232987  0.65605028  0.39082989  1
  P  P2  1  0.09232987  0.15605028  0.10917011  1
  P  P3  1  0.90767013  0.34394972  0.60917011  1
  P  P4  1  0.07812868  0.83148343  0.92831800  1
  P  P5  1  0.92187132  0.66851657  0.42831800  1
  P  P6  1  0.92187132  0.16851657  0.07168200  1
  P  P7  1  0.07812868  0.33148343  0.57168200  1
  P  P8  1  0.98274680  0.69227232  0.89985524  1
  P  P9  1  0.01725320  0.80772768  0.39985524  1
  P  P10  1  0.01725320  0.30772768  0.10014476  1
  P  P11  1  0.98274680  0.19227232  0.60014476  1
  P  P12  1  0.89460786  0.78009971  0.06348629  1
  P  P13  1  0.10539214  0.71990029  0.56348629  1
  P  P14  1  0.10539214  0.21990029  0.93651371  1
  P  P15  1  0.89460786  0.28009971  0.43651371  1
  P  P16  1  0.59232987  0.84394972  0.39082989  1
  P  P17  1  0.40767013  0.65605028  0.89082989  1
  P  P18  1  0.40767013  0.15605028  0.60917011  1
  P  P19  1  0.59232987  0.34394972  0.10917011  1
  P  P20  1  0.42187132  0.83148343  0.42831800  1
  P  P21  1  0.57812868  0.66851657  0.92831800  1
  P  P22  1  0.57812868  0.16851657  0.57168200  1
  P  P23  1  0.42187132  0.33148343  0.07168200  1
  P  P24  1  0.51725320  0.69227232  0.39985524  1
  P  P25  1  0.48274680  0.80772768  0.89985524  1
  P  P26  1  0.48274680  0.30772768  0.60014476  1
  P  P27  1  0.51725320  0.19227232  0.10014476  1
  P  P28  1  0.60539214  0.78009971  0.56348629  1
  P  P29  1  0.39460786  0.71990029  0.06348629  1
  P  P30  1  0.39460786  0.21990029  0.43651371  1
  P  P31  1  0.60539214  0.28009971  0.93651371  1
  Se  Se0  1  0.79711238  0.86927795  0.98350362  1
  Se  Se1  1  0.20288762  0.63072205  0.48350362  1
  Se  Se2  1  0.20288762  0.13072205  0.01649638  1
  Se  Se3  1  0.79711238  0.36927795  0.51649638  1
  Se  Se4  1  0.06214501  0.84931128  0.04584088  1
  Se  Se5  1  0.93785499  0.65068872  0.54584088  1
  Se  Se6  1  0.93785499  0.15068872  0.95415912  1
  Se  Se7  1  0.06214501  0.34931128  0.45415912  1
  Se  Se8  1  0.91564585  0.63372179  0.00281572  1
  Se  Se9  1  0.08435415  0.86627821  0.50281572  1
  Se  Se10  1  0.08435415  0.36627821  0.99718428  1
  Se  Se11  1  0.91564585  0.13372179  0.49718428  1
  Se  Se12  1  0.70288762  0.86927795  0.48350362  1
  Se  Se13  1  0.29711238  0.63072205  0.98350362  1
  Se  Se14  1  0.29711238  0.13072205  0.51649638  1
  Se  Se15  1  0.70288762  0.36927795  0.01649638  1
  Se  Se16  1  0.43785499  0.84931128  0.54584088  1
  Se  Se17  1  0.56214501  0.65068872  0.04584088  1
  Se  Se18  1  0.56214501  0.15068872  0.45415912  1
  Se  Se19  1  0.43785499  0.34931128  0.95415912  1
  Se  Se20  1  0.58435415  0.63372179  0.50281572  1
  Se  Se21  1  0.41564585  0.86627821  0.00281572  1
  Se  Se22  1  0.41564585  0.36627821  0.49718428  1
  Se  Se23  1  0.58435415  0.13372179  0.99718428  1
  Cl  Cl0  1  0.77541358  0.98891833  0.65490233  1
  Cl  Cl1  1  0.22458642  0.51108167  0.15490233  1
  Cl  Cl2  1  0.22458642  0.01108167  0.34509767  1
  Cl  Cl3  1  0.77541358  0.48891833  0.84509767  1
  Cl  Cl4  1  0.96709693  0.05170907  0.78535292  1
  Cl  Cl5  1  0.03290307  0.44829093  0.28535292  1
  Cl  Cl6  1  0.03290307  0.94829093  0.21464708  1
  Cl  Cl7  1  0.96709693  0.55170907  0.71464708  1
  Cl  Cl8  1  0.71271503  0.01155379  0.83658502  1
  Cl  Cl9  1  0.28728497  0.48844621  0.33658502  1
  Cl  Cl10  1  0.28728497  0.98844621  0.16341498  1
  Cl  Cl11  1  0.71271503  0.51155379  0.66341498  1
  Cl  Cl12  1  0.72490826  0.78257515  0.76648785  1
  Cl  Cl13  1  0.27509174  0.71742485  0.26648785  1
  Cl  Cl14  1  0.27509174  0.21742485  0.23351215  1
  Cl  Cl15  1  0.72490826  0.28257515  0.73351215  1
  Cl  Cl16  1  0.97858144  0.82487557  0.71892796  1
  Cl  Cl17  1  0.02141856  0.67512443  0.21892796  1
  Cl  Cl18  1  0.02141856  0.17512443  0.28107204  1
  Cl  Cl19  1  0.97858144  0.32487557  0.78107204  1
  Cl  Cl20  1  0.72458642  0.98891833  0.15490233  1
  Cl  Cl21  1  0.27541358  0.51108167  0.65490233  1
  Cl  Cl22  1  0.27541358  0.01108167  0.84509767  1
  Cl  Cl23  1  0.72458642  0.48891833  0.34509767  1
  Cl  Cl24  1  0.53290307  0.05170907  0.28535292  1
  Cl  Cl25  1  0.46709693  0.44829093  0.78535292  1
  Cl  Cl26  1  0.46709693  0.94829093  0.71464708  1
  Cl  Cl27  1  0.53290307  0.55170907  0.21464708  1
  Cl  Cl28  1  0.78728497  0.01155379  0.33658502  1
  Cl  Cl29  1  0.21271503  0.48844621  0.83658502  1
  Cl  Cl30  1  0.21271503  0.98844621  0.66341498  1
  Cl  Cl31  1  0.78728497  0.51155379  0.16341498  1
  Cl  Cl32  1  0.77509174  0.78257515  0.26648785  1
  Cl  Cl33  1  0.22490826  0.71742485  0.76648785  1
  Cl  Cl34  1  0.22490826  0.21742485  0.73351215  1
  Cl  Cl35  1  0.77509174  0.28257515  0.23351215  1
  Cl  Cl36  1  0.52141856  0.82487557  0.21892796  1
  Cl  Cl37  1  0.47858144  0.67512443  0.71892796  1
  Cl  Cl38  1  0.47858144  0.17512443  0.78107204  1
  Cl  Cl39  1  0.52141856  0.32487557  0.28107204  1
loop_
_geom_bond_atom_site_label_1
_geom_bond_atom_site_label_2
_geom_bond_distance
_geom_bond_site_symmetry_2
Nb0 P0 2.816028 1_555
Nb1 P1 2.816028 1_555
Nb2 P2 2.816028 1_555
Nb3 P3 2.816028 1_555
Nb4 P16 2.816028 1_555
Nb5 P17 2.816028 1_555
Nb6 P18 2.816028 1_555
Nb7 P19 2.816028 1_555
P0 P4 2.205457 1_655
P0 P8 2.210754 1_555
P0 Se0 2.234471 1_555
P1 P5 2.205457 1_455
P1 P9 2.210754 1_555
P1 Se1 2.234471 1_555
P2 P6 2.205457 1_455
P2 Se2 2.234471 1_555
P3 P7 2.205457 1_655
P3 Se3 2.234471 1_555
P4 Se4 2.238079 1_556
P4 P8 2.242800 1_455
P5 Se5 2.238079 1_555
P5 P9 2.242800 1_655
P6 Se6 2.238079 1_554
P7 Se7 2.238079 1_555
P8 Se8 2.245736 1_556
P9 Se9 2.245736 1_555
P10 P2 2.210754 1_555
P10 P6 2.242800 1_455
P10 Se10 2.245736 1_554
P11 P3 2.210754 1_555
P11 P7 2.242800 1_655
P11 Se11 2.245736 1_555
P12 Se0 2.254787 1_554
P12 Se8 2.262169 1_555
P12 Se4 2.266414 1_655
P13 Se1 2.254787 1_555
P13 Se9 2.262169 1_555
P13 Se5 2.266414 1_455
P14 Se2 2.254787 1_556
P14 Se10 2.262169 1_555
P14 Se6 2.266414 1_455
P15 Se3 2.254787 1_555
P15 Se11 2.262169 1_555
P15 Se7 2.266414 1_655
P16 P20 2.205457 1_555
P16 P24 2.210754 1_555
P16 Se12 2.234471 1_555
P17 P21 2.205457 1_555
P17 P25 2.210754 1_555
P17 Se13 2.234471 1_555
P18 P22 2.205457 1_555
P18 P26 2.210754 1_555
P18 Se14 2.234471 1_555
P19 P23 2.205457 1_555
P19 P27 2.210754 1_555
P19 Se15 2.234471 1_555
P20 Se16 2.238079 1_555
P20 P24 2.242800 1_555
P21 Se17 2.238079 1_556
P21 P25 2.242800 1_555
P22 Se18 2.238079 1_555
P22 P26 2.242800 1_555
P23 Se19 2.238079 1_554
P23 P27 2.242800 1_555
P24 Se20 2.245736 1_555
P25 Se21 2.245736 1_556
P26 Se22 2.245736 1_555
P27 Se23 2.245736 1_554
P28 Se12 2.254787 1_555
P28 Se20 2.262169 1_555
P28 Se16 2.266414 1_555
P29 Se13 2.254787 1_554
P29 Se21 2.262169 1_555
P29 Se17 2.266414 1_555
P30 Se14 2.254787 1_555
P30 Se22 2.262169 1_555
P30 Se18 2.266414 1_555
P31 Se15 2.254787 1_556
P31 Se23 2.262169 1_555
P31 Se19 2.266414 1_555
Cl0 Nb0 2.292565 1_555
Cl1 Nb1 2.292565 1_555
Cl2 Nb2 2.292565 1_555
Cl3 Nb3 2.292565 1_555
Cl4 Nb0 2.342784 1_545
Cl5 Nb1 2.342784 1_555
Cl6 Nb2 2.342784 1_565
Cl7 Nb3 2.342784 1_555
Cl8 Nb0 2.351811 1_545
Cl9 Nb1 2.351811 1_555
Cl10 Nb2 2.351811 1_565
Cl11 Nb3 2.351811 1_555
Cl12 Nb0 2.342880 1_555
Cl13 Nb1 2.342880 1_555
Cl14 Nb2 2.342880 1_555
Cl15 Nb3 2.342880 1_555
Cl16 Nb0 2.344011 1_555
Cl17 Nb1 2.344011 1_555
Cl18 Nb2 2.344011 1_555
Cl19 Nb3 2.344011 1_555
Cl20 Nb4 2.292565 1_555
Cl21 Nb5 2.292565 1_555
Cl22 Nb6 2.292565 1_555
Cl23 Nb7 2.292565 1_555
Cl24 Nb4 2.342784 1_545
Cl25 Nb5 2.342784 1_555
Cl26 Nb6 2.342784 1_565
Cl27 Nb7 2.342784 1_555
Cl28 Nb4 2.351811 1_545
Cl29 Nb5 2.351811 1_555
Cl30 Nb6 2.351811 1_565
Cl31 Nb7 2.351811 1_555
Cl32 Nb4 2.342880 1_555
Cl33 Nb5 2.342880 1_555
Cl34 Nb6 2.342880 1_555
Cl35 Nb7 2.342880 1_555
Cl36 Nb4 2.344011 1_555
Cl37 Nb5 2.344011 1_555
Cl38 Nb6 2.344011 1_555
Cl39 Nb7 2.344011 1_555
