# generated using pymatgen
data_Mg(BiO2)4
_symmetry_space_group_name_H-M   'P 1'
_cell_length_a   6.38156926
_cell_length_b   6.38156926
_cell_length_c   6.38156914
_cell_angle_alpha   67.82217552
_cell_angle_beta   67.82217552
_cell_angle_gamma   67.82217554
_symmetry_Int_Tables_number   1
_chemical_formula_structural   Mg(BiO2)4
_chemical_formula_sum   'Mg1 Bi4 O8'
_cell_volume   214.32275663
_cell_formula_units_Z   1
loop_
 _symmetry_equiv_pos_site_id
 _symmetry_equiv_pos_as_xyz
  1  'x, y, z'
loop_
 _atom_site_type_symbol
 _atom_site_label
 _atom_site_symmetry_multiplicity
 _atom_site_fract_x
 _atom_site_fract_y
 _atom_site_fract_z
 _atom_site_occupancy
  Mg  Mg0  1  0.50000000  0.50000000  0.50000000  1
  Bi  Bi0  1  0.00000000  0.50000000  0.50000000  1
  Bi  Bi1  1  0.50000000  0.00000000  0.50000000  1
  Bi  Bi2  1  0.50000000  0.50000000  0.00000000  1
  Bi  Bi3  1  0.00000000  0.00000000  0.00000000  1
  O  O0  1  0.27925600  0.73772400  0.73772400  1
  O  O1  1  0.26227600  0.26227600  0.72074400  1
  O  O2  1  0.72074400  0.26227600  0.26227600  1
  O  O3  1  0.26227600  0.72074400  0.26227600  1
  O  O4  1  0.26220400  0.26220400  0.26220400  1
  O  O5  1  0.73779600  0.73779600  0.73779600  1
  O  O6  1  0.73772400  0.27925600  0.73772400  1
  O  O7  1  0.73772400  0.73772400  0.27925600  1
loop_
_geom_bond_atom_site_label_1
_geom_bond_atom_site_label_2
_geom_bond_distance
_geom_bond_site_symmetry_2
Mg0 O6 2.257878 1_555
Mg0 O0 2.257878 1_555
Mg0 O2 2.257878 1_555
Mg0 O3 2.257878 1_555
Mg0 O7 2.257878 1_555
Mg0 O1 2.257878 1_555
Bi0 O4 2.304357 1_555
Bi0 O5 2.304357 1_455
Bi0 O1 2.310176 1_555
Bi0 O7 2.310176 1_455
Bi0 O3 2.310176 1_555
Bi0 O6 2.310176 1_455
Bi1 O4 2.304357 1_555
Bi1 O5 2.304357 1_545
Bi1 O1 2.310176 1_555
Bi1 O7 2.310176 1_545
Bi1 O2 2.310176 1_555
Bi1 O0 2.310176 1_545
Bi2 O4 2.304357 1_555
Bi2 O5 2.304357 1_554
Bi2 O2 2.310176 1_555
Bi2 O3 2.310176 1_555
Bi2 O6 2.310176 1_554
Bi2 O0 2.310176 1_554
Bi3 O3 2.527809 1_545
Bi3 O2 2.527809 1_455
Bi3 O6 2.527809 1_454
Bi3 O0 2.527809 1_544
Bi3 O1 2.527809 1_554
Bi3 O7 2.527809 1_445
