# generated using pymatgen
data_Ca2Cu2O5
_symmetry_space_group_name_H-M   'P 1'
_cell_length_a   3.79241600
_cell_length_b   5.39072900
_cell_length_c   10.36489100
_cell_angle_alpha   90.00000000
_cell_angle_beta   90.00000000
_cell_angle_gamma   90.00000000
_symmetry_Int_Tables_number   1
_chemical_formula_structural   Ca2Cu2O5
_chemical_formula_sum   'Ca4 Cu4 O10'
_cell_volume   211.89865945
_cell_formula_units_Z   2
loop_
 _symmetry_equiv_pos_site_id
 _symmetry_equiv_pos_as_xyz
  1  'x, y, z'
loop_
 _atom_site_type_symbol
 _atom_site_label
 _atom_site_symmetry_multiplicity
 _atom_site_fract_x
 _atom_site_fract_y
 _atom_site_fract_z
 _atom_site_occupancy
  Ca  Ca0  1  0.50000000  0.69226100  0.86951700  1
  Ca  Ca1  1  0.50000000  0.30773900  0.13048300  1
  Ca  Ca2  1  0.50000000  0.19226100  0.63048300  1
  Ca  Ca3  1  0.50000000  0.80773900  0.36951700  1
  Cu  Cu0  1  0.00000000  0.72067200  0.62004400  1
  Cu  Cu1  1  0.00000000  0.27932800  0.37995600  1
  Cu  Cu2  1  0.00000000  0.77932800  0.12004400  1
  Cu  Cu3  1  0.00000000  0.22067200  0.87995600  1
  O  O0  1  0.00000000  0.00000000  0.50000000  1
  O  O1  1  0.00000000  0.57788400  0.28921000  1
  O  O2  1  0.00000000  0.07788400  0.21079000  1
  O  O3  1  0.00000000  0.92211600  0.78921000  1
  O  O4  1  0.50000000  0.78652700  0.09959900  1
  O  O5  1  0.50000000  0.21347300  0.90040100  1
  O  O6  1  0.00000000  0.42211600  0.71079000  1
  O  O7  1  0.50000000  0.71347300  0.59959900  1
  O  O8  1  0.00000000  0.50000000  0.00000000  1
  O  O9  1  0.50000000  0.28652700  0.40040100  1
loop_
_geom_bond_atom_site_label_1
_geom_bond_atom_site_label_2
_geom_bond_distance
_geom_bond_site_symmetry_2
Ca0 O3 2.413252 1_655
Ca0 O3 2.413252 1_555
Ca0 O4 2.438315 1_556
Ca0 O8 2.549291 1_556
Ca0 O8 2.549291 1_656
Ca0 O5 2.600791 1_555
Ca0 O7 2.800007 1_555
Ca0 O5 2.827889 1_565
Ca0 O6 2.902240 1_655
Ca0 O6 2.902240 1_555
Ca1 O2 2.413252 1_655
Ca1 O2 2.413252 1_555
Ca1 O5 2.438315 1_554
Ca1 O8 2.549291 1_655
Ca1 O8 2.549291 1_555
Ca1 O4 2.600791 1_555
Ca1 O9 2.800007 1_555
Ca1 O4 2.827889 1_545
Ca1 O1 2.902240 1_555
Ca1 O1 2.902240 1_655
Ca2 O6 2.413252 1_655
Ca2 O6 2.413252 1_555
Ca2 O9 2.438315 1_555
Ca2 O0 2.549291 1_555
Ca2 O0 2.549291 1_655
Ca2 O7 2.600791 1_545
Ca2 O5 2.800007 1_555
Ca2 O7 2.827889 1_555
Ca2 O3 2.902240 1_645
Ca2 O3 2.902240 1_545
Ca3 O1 2.413252 1_555
Ca3 O1 2.413252 1_655
Ca3 O7 2.438315 1_555
Ca3 O0 2.549291 1_565
Ca3 O0 2.549291 1_665
Ca3 O9 2.600791 1_565
Ca3 O4 2.800007 1_555
Ca3 O9 2.827889 1_555
Ca3 O2 2.902240 1_565
Ca3 O2 2.902240 1_665
Cu0 O6 1.864123 1_555
Cu0 O7 1.908407 1_555
Cu0 O7 1.908407 1_455
Cu0 O0 1.953335 1_565
Cu0 O3 2.062428 1_555
Cu1 O1 1.864123 1_555
Cu1 O9 1.908407 1_455
Cu1 O9 1.908407 1_555
Cu1 O0 1.953335 1_555
Cu1 O2 2.062428 1_555
Cu2 O2 1.864123 1_565
Cu2 O4 1.908407 1_455
Cu2 O4 1.908407 1_555
Cu2 O8 1.953335 1_555
Cu2 O1 2.062428 1_555
Cu3 O3 1.864123 1_545
Cu3 O5 1.908407 1_555
Cu3 O5 1.908407 1_455
Cu3 O8 1.953335 1_556
Cu3 O6 2.062428 1_555
