# generated using pymatgen
data_Ni7Ge4
_symmetry_space_group_name_H-M   'P 1'
_cell_length_a   3.93584017
_cell_length_b   3.93584017
_cell_length_c   9.92155483
_cell_angle_alpha   90.00000000
_cell_angle_beta   90.00000000
_cell_angle_gamma   119.99999554
_symmetry_Int_Tables_number   1
_chemical_formula_structural   Ni7Ge4
_chemical_formula_sum   'Ni7 Ge4'
_cell_volume   133.10221932
_cell_formula_units_Z   1
loop_
 _symmetry_equiv_pos_site_id
 _symmetry_equiv_pos_as_xyz
  1  'x, y, z'
loop_
 _atom_site_type_symbol
 _atom_site_label
 _atom_site_symmetry_multiplicity
 _atom_site_fract_x
 _atom_site_fract_y
 _atom_site_fract_z
 _atom_site_occupancy
  Ni  Ni0  1  -0.00000000  0.00000000  0.37313423  1
  Ni  Ni1  1  -0.00000000  -0.00000000  0.87875668  1
  Ni  Ni2  1  -0.00000000  -0.00000000  0.12124332  1
  Ni  Ni3  1  -0.00000000  0.00000000  0.62686577  1
  Ni  Ni4  1  0.66666700  0.33333300  0.50000000  1
  Ni  Ni5  1  0.33333300  0.66666700  0.24493464  1
  Ni  Ni6  1  0.33333300  0.66666700  0.75506536  1
  Ge  Ge0  1  0.66666700  0.33333300  0.24358416  1
  Ge  Ge1  1  0.66666700  0.33333300  0.75641584  1
  Ge  Ge2  1  0.33333300  0.66666700  -0.00000000  1
  Ge  Ge3  1  0.33333300  0.66666700  0.50000000  1
loop_
_geom_bond_atom_site_label_1
_geom_bond_atom_site_label_2
_geom_bond_distance
_geom_bond_site_symmetry_2
Ni0 Ni2 2.499149 1_555
Ni0 Ni3 2.517411 1_555
Ni0 Ni4 2.597680 1_455
Ni0 Ni4 2.597683 1_555
Ni0 Ni4 2.597683 1_445
Ni0 Ni5 2.604118 1_545
Ni0 Ni5 2.604121 1_555
Ni0 Ni5 2.604121 1_445
Ni1 Ni2 2.405844 1_556
Ni1 Ni3 2.499149 1_555
Ni1 Ni6 2.582566 1_545
Ni1 Ni6 2.582569 1_445
Ni1 Ni6 2.582569 1_555
Ni2 Ni5 2.582566 1_545
Ni2 Ni5 2.582569 1_445
Ni2 Ni5 2.582569 1_555
Ni3 Ni4 2.597680 1_455
Ni3 Ni4 2.597683 1_555
Ni3 Ni4 2.597683 1_445
Ni3 Ni6 2.604118 1_545
Ni3 Ni6 2.604121 1_445
Ni3 Ni6 2.604121 1_555
Ge0 Ni5 2.272396 1_545
Ge0 Ni5 2.272396 1_655
Ge0 Ni5 2.272402 1_555
Ge0 Ni4 2.544044 1_555
Ge0 Ni2 2.576226 1_655
Ge0 Ni2 2.576229 1_665
Ge0 Ni2 2.576229 1_555
Ge0 Ni0 2.610689 1_655
Ge0 Ni0 2.610692 1_665
Ge0 Ni0 2.610692 1_555
Ge1 Ni6 2.272396 1_545
Ge1 Ni6 2.272396 1_655
Ge1 Ni6 2.272402 1_555
Ge1 Ni4 2.544044 1_555
Ge1 Ni1 2.576226 1_655
Ge1 Ni1 2.576229 1_665
Ge1 Ni1 2.576229 1_555
Ge1 Ni3 2.610689 1_655
Ge1 Ni3 2.610692 1_665
Ge1 Ni3 2.610692 1_555
Ge2 Ni6 2.430132 1_554
Ge2 Ni5 2.430132 1_555
Ge2 Ni2 2.571113 1_565
Ge2 Ni1 2.571113 1_564
Ge2 Ni1 2.571117 1_554
Ge2 Ni2 2.571117 1_555
Ge2 Ni1 2.571117 1_664
Ge2 Ni2 2.571117 1_665
Ge3 Ni4 2.272356 1_455
Ge3 Ni4 2.272356 1_565
Ge3 Ni4 2.272363 1_555
Ge3 Ni5 2.530645 1_555
Ge3 Ni6 2.530645 1_555
Ge3 Ni3 2.597680 1_565
Ge3 Ni0 2.597680 1_565
Ge3 Ni3 2.597683 1_555
Ge3 Ni0 2.597683 1_555
Ge3 Ni3 2.597683 1_665
Ge3 Ni0 2.597683 1_665
