# generated using pymatgen
data_Ca3Ni3N5
_symmetry_space_group_name_H-M   'P 1'
_cell_length_a   5.59379126
_cell_length_b   6.76006741
_cell_length_c   8.25061829
_cell_angle_alpha   107.99425309
_cell_angle_beta   106.54276777
_cell_angle_gamma   94.61176762
_symmetry_Int_Tables_number   1
_chemical_formula_structural   Ca3Ni3N5
_chemical_formula_sum   'Ca6 Ni6 N10'
_cell_volume   279.55730167
_cell_formula_units_Z   2
loop_
 _symmetry_equiv_pos_site_id
 _symmetry_equiv_pos_as_xyz
  1  'x, y, z'
loop_
 _atom_site_type_symbol
 _atom_site_label
 _atom_site_symmetry_multiplicity
 _atom_site_fract_x
 _atom_site_fract_y
 _atom_site_fract_z
 _atom_site_occupancy
  Ca  Ca0  1  0.80744900  0.40735900  0.60579800  1
  Ca  Ca1  1  0.19255100  0.59264100  0.39420200  1
  Ca  Ca2  1  0.66922200  0.87408700  0.87827400  1
  Ca  Ca3  1  0.33077800  0.12591300  0.12172600  1
  Ca  Ca4  1  0.65365500  0.67520900  0.19641200  1
  Ca  Ca5  1  0.34634500  0.32479100  0.80358800  1
  Ni  Ni0  1  0.90517900  0.32113200  0.97245100  1
  Ni  Ni1  1  0.09482100  0.67886800  0.02754900  1
  Ni  Ni2  1  0.69601300  0.94317900  0.56280500  1
  Ni  Ni3  1  0.30398700  0.05682100  0.43719500  1
  Ni  Ni4  1  0.11184900  0.87143600  0.71195300  1
  Ni  Ni5  1  0.88815100  0.12856400  0.28804700  1
  N  N0  1  0.95245200  0.10262200  0.78768600  1
  N  N1  1  0.04754800  0.89737800  0.21231400  1
  N  N2  1  0.82808200  0.69329000  0.50562800  1
  N  N3  1  0.17191800  0.30671000  0.49437200  1
  N  N4  1  0.74965900  0.53334800  0.89903600  1
  N  N5  1  0.25034100  0.46665200  0.10096400  1
  N  N6  1  0.38088500  0.94717200  0.62621700  1
  N  N7  1  0.61911500  0.05282800  0.37378300  1
  N  N8  1  0.26102400  0.76655400  0.89420000  1
  N  N9  1  0.73897600  0.23344600  0.10580000  1
loop_
_geom_bond_atom_site_label_1
_geom_bond_atom_site_label_2
_geom_bond_distance
_geom_bond_site_symmetry_2
Ca0 N2 2.331943 1_555
Ca0 N4 2.428969 1_555
Ca0 N7 2.475727 1_555
Ca0 N3 2.523611 1_655
Ca0 N0 2.939274 1_555
Ca1 N3 2.331943 1_555
Ca1 N5 2.428969 1_555
Ca1 N6 2.475727 1_555
Ca1 N2 2.523611 1_455
Ca1 N1 2.939274 1_555
Ca2 N8 2.392164 1_555
Ca2 N4 2.429833 1_555
Ca2 N6 2.454226 1_555
Ca2 N9 2.488087 1_566
Ca2 N0 2.539607 1_565
Ca2 N1 2.907931 1_656
Ca3 N9 2.392164 1_555
Ca3 N5 2.429833 1_555
Ca3 N7 2.454226 1_555
Ca3 N8 2.488087 1_544
Ca3 N1 2.539607 1_545
Ca3 N0 2.907931 1_454
Ca4 N5 2.342745 1_555
Ca4 N2 2.417915 1_555
Ca4 N1 2.511796 1_655
Ca4 N4 2.570469 1_554
Ca4 N7 2.574412 1_565
Ca5 N4 2.342745 1_555
Ca5 N3 2.417915 1_555
Ca5 N0 2.511796 1_455
Ca5 N5 2.570469 1_556
Ca5 N6 2.574412 1_545
N0 Ni0 1.864635 1_555
N0 Ni4 1.888357 1_645
N0 Ni2 1.913669 1_545
N1 Ni1 1.864635 1_555
N1 Ni5 1.888357 1_465
N1 Ni3 1.913669 1_565
N2 Ni2 1.878490 1_555
N2 Ni4 1.937782 1_655
N3 Ni3 1.878490 1_555
N3 Ni5 1.937782 1_455
N4 Ni0 1.902436 1_555
N4 Ni1 1.924615 1_656
N5 Ni1 1.902436 1_555
N5 Ni0 1.924615 1_454
N6 Ni3 1.884177 1_565
N6 Ni4 1.932201 1_555
N6 Ni2 1.976333 1_555
N7 Ni2 1.884177 1_545
N7 Ni5 1.932201 1_555
N7 Ni3 1.976333 1_555
N8 Ni1 1.822906 1_556
N8 Ni4 1.870635 1_555
N9 Ni0 1.822906 1_554
N9 Ni5 1.870635 1_555
