# generated using pymatgen
data_TaNbRe2
_symmetry_space_group_name_H-M   'P 1'
_cell_length_a   10.25119938
_cell_length_b   10.25119938
_cell_length_c   10.25119938
_cell_angle_alpha   126.71025445
_cell_angle_beta   116.61605007
_cell_angle_gamma   87.37618646
_symmetry_Int_Tables_number   1
_chemical_formula_structural   TaNbRe2
_chemical_formula_sum   'Ta1 Nb1 Re2'
_cell_volume   734.11242873
_cell_formula_units_Z   1
loop_
 _symmetry_equiv_pos_site_id
 _symmetry_equiv_pos_as_xyz
  1  'x, y, z'
loop_
 _atom_site_type_symbol
 _atom_site_label
 _atom_site_symmetry_multiplicity
 _atom_site_fract_x
 _atom_site_fract_y
 _atom_site_fract_z
 _atom_site_occupancy
  Ta  Ta0  1  0.00000000  0.50000000  0.50000000  1
  Nb  Nb0  1  0.00000000  0.00000000  0.00000000  1
  Re  Re0  1  0.00000000  0.24947600  0.24947600  1
  Re  Re1  1  0.00000000  0.75052400  0.75052400  1
loop_
_geom_bond_atom_site_label_1
_geom_bond_atom_site_label_2
_geom_bond_distance
_geom_bond_site_symmetry_2
Nb0 Re0 2.293805 1_555
Nb0 Re1 2.293805 1_544
Re0 Ta0 2.303440 1_555
Re1 Ta0 2.303440 1_555
