# generated using pymatgen
data_Tb3Ce
_symmetry_space_group_name_H-M   'P 1'
_cell_length_a   7.22966040
_cell_length_b   7.22966040
_cell_length_c   23.25319566
_cell_angle_alpha   90.00000000
_cell_angle_beta   90.00000000
_cell_angle_gamma   119.99998716
_symmetry_Int_Tables_number   1
_chemical_formula_structural   Tb3Ce
_chemical_formula_sum   'Tb24 Ce8'
_cell_volume   1052.56549427
_cell_formula_units_Z   8
loop_
 _symmetry_equiv_pos_site_id
 _symmetry_equiv_pos_as_xyz
  1  'x, y, z'
loop_
 _atom_site_type_symbol
 _atom_site_label
 _atom_site_symmetry_multiplicity
 _atom_site_fract_x
 _atom_site_fract_y
 _atom_site_fract_z
 _atom_site_occupancy
  Tb  Tb0_0  1  0.33333350  0.16666650  0.25000000  1
  Tb  Tb0_1  1  0.33333350  0.16666650  0.75000000  1
  Tb  Tb0_2  1  0.33333350  0.66666650  0.25000000  1
  Tb  Tb0_3  1  0.33333350  0.66666650  0.75000000  1
  Tb  Tb0_4  1  0.83333350  0.16666650  0.25000000  1
  Tb  Tb0_5  1  0.83333350  0.16666650  0.75000000  1
  Tb  Tb0_6  1  0.83333350  0.66666650  0.25000000  1
  Tb  Tb0_7  1  0.83333350  0.66666650  0.75000000  1
  Tb  Tb1_0  1  0.16666650  0.33333350  0.12679650  1
  Tb  Tb1_1  1  0.16666650  0.33333350  0.62679650  1
  Tb  Tb1_2  1  0.16666650  0.83333350  0.12679650  1
  Tb  Tb1_3  1  0.16666650  0.83333350  0.62679650  1
  Tb  Tb1_4  1  0.66666650  0.33333350  0.12679650  1
  Tb  Tb1_5  1  0.66666650  0.33333350  0.62679650  1
  Tb  Tb1_6  1  0.66666650  0.83333350  0.12679650  1
  Tb  Tb1_7  1  0.66666650  0.83333350  0.62679650  1
  Tb  Tb2_0  1  0.16666650  0.33333350  0.37320350  1
  Tb  Tb2_1  1  0.16666650  0.33333350  0.87320350  1
  Tb  Tb2_2  1  0.16666650  0.83333350  0.37320350  1
  Tb  Tb2_3  1  0.16666650  0.83333350  0.87320350  1
  Tb  Tb2_4  1  0.66666650  0.33333350  0.37320350  1
  Tb  Tb2_5  1  0.66666650  0.33333350  0.87320350  1
  Tb  Tb2_6  1  0.66666650  0.83333350  0.37320350  1
  Tb  Tb2_7  1  0.66666650  0.83333350  0.87320350  1
  Ce  Ce0_0  1  0.33333350  0.16666650  0.00000000  1
  Ce  Ce0_1  1  0.33333350  0.16666650  0.50000000  1
  Ce  Ce0_2  1  0.33333350  0.66666650  0.00000000  1
  Ce  Ce0_3  1  0.33333350  0.66666650  0.50000000  1
  Ce  Ce0_4  1  0.83333350  0.16666650  0.00000000  1
  Ce  Ce0_5  1  0.83333350  0.16666650  0.50000000  1
  Ce  Ce0_6  1  0.83333350  0.66666650  0.00000000  1
  Ce  Ce0_7  1  0.83333350  0.66666650  0.50000000  1
loop_
_geom_bond_atom_site_label_1
_geom_bond_atom_site_label_2
_geom_bond_distance
_geom_bond_site_symmetry_2
Tb0_0 Tb2_4 3.544456 1_555
Tb0_0 Tb2_2 3.544456 1_545
Tb0_0 Tb1_2 3.544456 1_545
Tb0_0 Tb1_4 3.544456 1_555
Tb0_0 Tb2_0 3.544459 1_555
Tb0_0 Tb1_0 3.544459 1_555
Tb0_0 Tb0_4 3.614830 1_455
Tb0_0 Tb0_2 3.614830 1_555
Tb0_0 Tb0_4 3.614830 1_555
Tb0_0 Tb0_2 3.614830 1_545
Tb0_0 Tb0_6 3.614831 1_555
Tb0_0 Tb0_6 3.614831 1_445
Tb0_1 Tb2_5 3.544456 1_555
Tb0_1 Tb2_3 3.544456 1_545
Tb0_1 Tb1_3 3.544456 1_545
Tb0_1 Tb1_5 3.544456 1_555
Tb0_1 Tb2_1 3.544459 1_555
Tb0_1 Tb1_1 3.544459 1_555
Tb0_1 Tb0_3 3.614830 1_555
Tb0_1 Tb0_5 3.614830 1_455
Tb0_1 Tb0_5 3.614830 1_555
Tb0_1 Tb0_3 3.614830 1_545
Tb0_1 Tb0_7 3.614831 1_555
Tb0_1 Tb0_7 3.614831 1_445
Tb0_2 Tb2_0 3.544456 1_555
Tb0_2 Tb2_6 3.544456 1_555
Tb0_2 Tb1_0 3.544456 1_555
Tb0_2 Tb1_6 3.544456 1_555
Tb0_2 Tb2_2 3.544459 1_555
Tb0_2 Tb1_2 3.544459 1_555
Tb0_2 Tb0_6 3.614830 1_455
Tb0_2 Tb0_6 3.614830 1_555
Tb0_2 Tb0_4 3.614831 1_455
Tb0_2 Tb0_4 3.614831 1_565
Tb0_3 Tb2_7 3.544456 1_555
Tb0_3 Tb2_1 3.544456 1_555
Tb0_3 Tb1_1 3.544456 1_555
Tb0_3 Tb1_7 3.544456 1_555
Tb0_3 Tb2_3 3.544459 1_555
Tb0_3 Tb1_3 3.544459 1_555
Tb0_3 Tb0_7 3.614830 1_455
Tb0_3 Tb0_7 3.614830 1_555
Tb0_3 Tb0_5 3.614831 1_455
Tb0_3 Tb0_5 3.614831 1_565
Tb0_4 Tb2_0 3.544456 1_655
Tb0_4 Tb2_6 3.544456 1_545
Tb0_4 Tb1_0 3.544456 1_655
Tb0_4 Tb1_6 3.544456 1_545
Tb0_4 Tb2_4 3.544459 1_555
Tb0_4 Tb1_4 3.544459 1_555
Tb0_4 Tb0_6 3.614830 1_555
Tb0_4 Tb0_6 3.614830 1_545
Tb0_5 Tb2_1 3.544456 1_655
Tb0_5 Tb2_7 3.544456 1_545
Tb0_5 Tb1_1 3.544456 1_655
Tb0_5 Tb1_7 3.544456 1_545
Tb0_5 Tb2_5 3.544459 1_555
Tb0_5 Tb1_5 3.544459 1_555
Tb0_5 Tb0_7 3.614830 1_555
Tb0_5 Tb0_7 3.614830 1_545
Tb0_6 Tb2_4 3.544456 1_555
Tb0_6 Tb2_2 3.544456 1_655
Tb0_6 Tb1_4 3.544456 1_555
Tb0_6 Tb1_2 3.544456 1_655
Tb0_6 Tb2_6 3.544459 1_555
Tb0_6 Tb1_6 3.544459 1_555
Tb0_7 Tb2_5 3.544456 1_555
Tb0_7 Tb2_3 3.544456 1_655
Tb0_7 Tb1_5 3.544456 1_555
Tb0_7 Tb1_3 3.544456 1_655
Tb0_7 Tb2_7 3.544459 1_555
Tb0_7 Tb1_7 3.544459 1_555
Tb1_0 Tb1_2 3.614830 1_555
Tb1_0 Tb1_4 3.614830 1_455
Tb1_0 Tb1_2 3.614830 1_545
Tb1_0 Tb1_4 3.614830 1_555
Tb1_0 Tb1_6 3.614831 1_555
Tb1_0 Tb1_6 3.614831 1_445
Tb1_1 Tb1_5 3.614830 1_455
Tb1_1 Tb1_3 3.614830 1_555
Tb1_1 Tb1_3 3.614830 1_545
Tb1_1 Tb1_5 3.614830 1_555
Tb1_1 Tb1_7 3.614831 1_555
Tb1_1 Tb1_7 3.614831 1_445
Tb1_2 Tb1_6 3.614830 1_555
Tb1_2 Tb1_6 3.614830 1_455
Tb1_2 Tb1_4 3.614831 1_565
Tb1_2 Tb1_4 3.614831 1_455
Tb1_3 Tb1_7 3.614830 1_555
Tb1_3 Tb1_7 3.614830 1_455
Tb1_3 Tb1_5 3.614831 1_565
Tb1_3 Tb1_5 3.614831 1_455
Tb1_4 Tb1_6 3.614830 1_555
Tb1_4 Tb1_6 3.614830 1_545
Tb1_5 Tb1_7 3.614830 1_555
Tb1_5 Tb1_7 3.614830 1_545
Tb2_0 Tb2_4 3.614830 1_455
Tb2_0 Tb2_2 3.614830 1_555
Tb2_0 Tb2_2 3.614830 1_545
Tb2_0 Tb2_4 3.614830 1_555
Tb2_0 Tb2_6 3.614831 1_555
Tb2_0 Tb2_6 3.614831 1_445
Tb2_1 Tb2_3 3.614830 1_555
Tb2_1 Tb2_5 3.614830 1_455
Tb2_1 Tb2_5 3.614830 1_555
Tb2_1 Tb2_3 3.614830 1_545
Tb2_1 Tb2_7 3.614831 1_555
Tb2_1 Tb2_7 3.614831 1_445
Tb2_2 Tb2_6 3.614830 1_555
Tb2_2 Tb2_6 3.614830 1_455
Tb2_2 Tb2_4 3.614831 1_455
Tb2_2 Tb2_4 3.614831 1_565
Tb2_3 Tb2_7 3.614830 1_555
Tb2_3 Tb2_7 3.614830 1_455
Tb2_3 Tb2_5 3.614831 1_565
Tb2_3 Tb2_5 3.614831 1_455
Tb2_4 Tb2_6 3.614830 1_555
Tb2_4 Tb2_6 3.614830 1_545
Tb2_5 Tb2_7 3.614830 1_555
Tb2_5 Tb2_7 3.614830 1_545
Ce0_0 Tb1_4 3.612321 1_555
Ce0_0 Tb1_2 3.612321 1_545
Ce0_0 Tb2_5 3.612321 1_554
Ce0_0 Tb2_3 3.612321 1_544
Ce0_0 Tb1_0 3.612324 1_555
Ce0_0 Tb2_1 3.612324 1_554
Ce0_0 Ce0_2 3.614830 1_555
Ce0_0 Ce0_4 3.614830 1_455
Ce0_0 Ce0_4 3.614830 1_555
Ce0_0 Ce0_2 3.614830 1_545
Ce0_0 Ce0_6 3.614831 1_555
Ce0_0 Ce0_6 3.614831 1_445
Ce0_1 Tb1_3 3.612321 1_545
Ce0_1 Tb1_5 3.612321 1_555
Ce0_1 Tb2_4 3.612321 1_555
Ce0_1 Tb2_2 3.612321 1_545
Ce0_1 Tb1_1 3.612324 1_555
Ce0_1 Tb2_0 3.612324 1_555
Ce0_1 Ce0_3 3.614830 1_555
Ce0_1 Ce0_5 3.614830 1_455
Ce0_1 Ce0_3 3.614830 1_545
Ce0_1 Ce0_5 3.614830 1_555
Ce0_1 Ce0_7 3.614831 1_555
Ce0_1 Ce0_7 3.614831 1_445
Ce0_2 Tb1_6 3.612321 1_555
Ce0_2 Tb1_0 3.612321 1_555
Ce0_2 Tb2_7 3.612321 1_554
Ce0_2 Tb2_1 3.612321 1_554
Ce0_2 Tb1_2 3.612324 1_555
Ce0_2 Tb2_3 3.612324 1_554
Ce0_2 Ce0_6 3.614830 1_455
Ce0_2 Ce0_6 3.614830 1_555
Ce0_2 Ce0_4 3.614831 1_455
Ce0_2 Ce0_4 3.614831 1_565
Ce0_3 Tb1_7 3.612321 1_555
Ce0_3 Tb1_1 3.612321 1_555
Ce0_3 Tb2_6 3.612321 1_555
Ce0_3 Tb2_0 3.612321 1_555
Ce0_3 Tb1_3 3.612324 1_555
Ce0_3 Tb2_2 3.612324 1_555
Ce0_3 Ce0_7 3.614830 1_455
Ce0_3 Ce0_7 3.614830 1_555
Ce0_3 Ce0_5 3.614831 1_455
Ce0_3 Ce0_5 3.614831 1_565
Ce0_4 Tb1_0 3.612321 1_655
Ce0_4 Tb1_6 3.612321 1_545
Ce0_4 Tb2_7 3.612321 1_544
Ce0_4 Tb2_1 3.612321 1_654
Ce0_4 Tb1_4 3.612324 1_555
Ce0_4 Tb2_5 3.612324 1_554
Ce0_4 Ce0_6 3.614830 1_555
Ce0_4 Ce0_6 3.614830 1_545
Ce0_5 Tb1_7 3.612321 1_545
Ce0_5 Tb1_1 3.612321 1_655
Ce0_5 Tb2_0 3.612321 1_655
Ce0_5 Tb2_6 3.612321 1_545
Ce0_5 Tb1_5 3.612324 1_555
Ce0_5 Tb2_4 3.612324 1_555
Ce0_5 Ce0_7 3.614830 1_555
Ce0_5 Ce0_7 3.614830 1_545
Ce0_6 Tb1_4 3.612321 1_555
Ce0_6 Tb1_2 3.612321 1_655
Ce0_6 Tb2_5 3.612321 1_554
Ce0_6 Tb2_3 3.612321 1_654
Ce0_6 Tb1_6 3.612324 1_555
Ce0_6 Tb2_7 3.612324 1_554
Ce0_7 Tb1_5 3.612321 1_555
Ce0_7 Tb1_3 3.612321 1_655
Ce0_7 Tb2_4 3.612321 1_555
Ce0_7 Tb2_2 3.612321 1_655
Ce0_7 Tb1_7 3.612324 1_555
Ce0_7 Tb2_6 3.612324 1_555
