# generated using pymatgen
data_VCoH14(O2F)4
_symmetry_space_group_name_H-M   'P 1'
_cell_length_a   6.58165099
_cell_length_b   11.50881683
_cell_length_c   14.13596514
_cell_angle_alpha   89.49657619
_cell_angle_beta   89.57869530
_cell_angle_gamma   78.02765005
_symmetry_Int_Tables_number   1
_chemical_formula_structural   VCoH14(O2F)4
_chemical_formula_sum   'V4 Co4 H56 O32 F16'
_cell_volume   1047.40869911
_cell_formula_units_Z   4
loop_
 _symmetry_equiv_pos_site_id
 _symmetry_equiv_pos_as_xyz
  1  'x, y, z'
loop_
 _atom_site_type_symbol
 _atom_site_label
 _atom_site_symmetry_multiplicity
 _atom_site_fract_x
 _atom_site_fract_y
 _atom_site_fract_z
 _atom_site_occupancy
  V  V0  1  0.49445800  0.23557700  0.26738000  1
  V  V1  1  0.50554200  0.76442300  0.73262000  1
  V  V2  1  0.48705600  0.73386600  0.24063800  1
  V  V3  1  0.51294400  0.26613400  0.75936200  1
  Co  Co0  1  0.00000000  0.00000000  0.00000000  1
  Co  Co1  1  0.00000000  0.50000000  0.00000000  1
  Co  Co2  1  0.00000000  0.50000000  0.50000000  1
  Co  Co3  1  0.00000000  0.00000000  0.50000000  1
  H  H0  1  0.60673300  0.09781600  0.06273900  1
  H  H1  1  0.39326700  0.90218400  0.93726100  1
  H  H2  1  0.59953700  0.11182900  0.95105500  1
  H  H3  1  0.40046300  0.88817100  0.04894500  1
  H  H4  1  0.04293800  0.84691400  0.85344500  1
  H  H5  1  0.95706300  0.15308600  0.14655500  1
  H  H6  1  0.80800400  0.85956100  0.88748700  1
  H  H7  1  0.19199600  0.14043900  0.11251300  1
  H  H8  1  0.82446000  0.86717600  0.12791800  1
  H  H9  1  0.17554000  0.13282400  0.87208200  1
  H  H10  1  0.05235000  0.87586600  0.16665600  1
  H  H11  1  0.94765000  0.12413400  0.83334400  1
  H  H12  1  0.67165300  0.68500500  0.04384800  1
  H  H13  1  0.32834700  0.31499500  0.95615200  1
  H  H14  1  0.61698600  0.62627700  0.94635900  1
  H  H15  1  0.38301400  0.37372300  0.05364100  1
  H  H16  1  0.77357400  0.35795700  0.91228000  1
  H  H17  1  0.22642600  0.64204300  0.08772000  1
  H  H18  1  0.92655300  0.28104100  0.98810500  1
  H  H19  1  0.07344700  0.71895900  0.01189500  1
  H  H20  1  0.06095300  0.41019400  0.18107800  1
  H  H21  1  0.93904700  0.58980600  0.81892200  1
  H  H22  1  0.89067000  0.53115800  0.18432600  1
  H  H23  1  0.10933000  0.46884200  0.81567400  1
  H  H24  1  0.80624000  0.36920800  0.38214000  1
  H  H25  1  0.19376000  0.63079200  0.61786000  1
  H  H26  1  0.04319300  0.35624300  0.34750500  1
  H  H27  1  0.95680700  0.64375700  0.65249500  1
  H  H28  1  0.60337200  0.61182100  0.45086400  1
  H  H29  1  0.39662800  0.38817900  0.54913600  1
  H  H30  1  0.60050100  0.59264000  0.56219800  1
  H  H31  1  0.39949900  0.40736000  0.43780200  1
  H  H32  1  0.82330400  0.35996700  0.62080200  1
  H  H33  1  0.17669600  0.64003300  0.37919800  1
  H  H34  1  0.05072100  0.36501100  0.66131700  1
  H  H35  1  0.94927900  0.63498900  0.33868300  1
  H  H36  1  0.90113300  0.03668600  0.68534300  1
  H  H37  1  0.09886700  0.96331400  0.31465700  1
  H  H38  1  0.07691800  0.91567700  0.68344900  1
  H  H39  1  0.92308200  0.08432300  0.31655100  1
  H  H40  1  0.74131500  0.86161400  0.54521800  1
  H  H41  1  0.25868500  0.13838600  0.45478200  1
  H  H42  1  0.92247500  0.77677400  0.49171800  1
  H  H43  1  0.07752500  0.22322600  0.50828200  1
  H  H44  1  0.62558500  0.13141100  0.45029900  1
  H  H45  1  0.37441500  0.86858900  0.54970100  1
  H  H46  1  0.66870700  0.18269000  0.55250800  1
  H  H47  1  0.33129300  0.81731000  0.44749200  1
  H  H48  1  0.54666600  0.95897000  0.30415700  1
  H  H49  1  0.45333400  0.04103000  0.69584300  1
  H  H50  1  0.70254200  0.86644100  0.36496900  1
  H  H51  1  0.29745800  0.13355900  0.63503100  1
  H  H52  1  0.67778000  0.38462000  0.13531400  1
  H  H53  1  0.32222000  0.61538000  0.86468600  1
  H  H54  1  0.47993800  0.46642700  0.17839800  1
  H  H55  1  0.52006200  0.53357300  0.82160200  1
  O  O0  1  0.68356500  0.07112000  0.00377800  1
  O  O1  1  0.31643500  0.92888000  0.99622200  1
  O  O2  1  0.94991400  0.86103600  0.90937200  1
  O  O3  1  0.05008600  0.13896400  0.09062800  1
  O  O4  1  0.95883800  0.88633500  0.11115700  1
  O  O5  1  0.04116200  0.11366600  0.88884300  1
  O  O6  1  0.71886600  0.62049700  0.99821500  1
  O  O7  1  0.28113400  0.37950300  0.00178500  1
  O  O8  1  0.84920900  0.36106300  0.97245400  1
  O  O9  1  0.15079100  0.63893700  0.02754600  1
  O  O10  1  0.94721500  0.46138900  0.14459800  1
  O  O11  1  0.05278500  0.53861100  0.85540200  1
  O  O12  1  0.94871200  0.37177500  0.40304000  1
  O  O13  1  0.05128800  0.62822500  0.59696000  1
  O  O14  1  0.68406700  0.57005200  0.50394500  1
  O  O15  1  0.31593300  0.42994800  0.49605500  1
  O  O16  1  0.96326100  0.37097900  0.60377100  1
  O  O17  1  0.03673900  0.62902100  0.39622900  1
  O  O18  1  0.99454400  0.97994400  0.64396100  1
  O  O19  1  0.00545600  0.02005600  0.35603900  1
  O  O20  1  0.82948800  0.85557800  0.48771100  1
  O  O21  1  0.17051200  0.14442200  0.51228900  1
  O  O22  1  0.71564300  0.11789800  0.50699500  1
  O  O23  1  0.28435700  0.88210200  0.49300500  1
  O  O24  1  0.62968900  0.87736900  0.30382800  1
  O  O25  1  0.37031100  0.12263100  0.69617200  1
  O  O26  1  0.53414000  0.38448700  0.15527000  1
  O  O27  1  0.46586000  0.61551300  0.84473000  1
  O  O28  1  0.38314000  0.62988600  0.18992800  1
  O  O29  1  0.61686000  0.37011400  0.81007200  1
  O  O30  1  0.46356400  0.13775700  0.35208800  1
  O  O31  1  0.53643600  0.86224300  0.64791200  1
  F  F0  1  0.43962600  0.15535700  0.15303900  1
  F  F1  1  0.56037400  0.84464300  0.84696100  1
  F  F2  1  0.79074100  0.18147300  0.24084700  1
  F  F3  1  0.20925900  0.81852700  0.75915300  1
  F  F4  1  0.56270400  0.35609600  0.35114000  1
  F  F5  1  0.43729600  0.64390400  0.64886000  1
  F  F6  1  0.21297200  0.33036500  0.26015500  1
  F  F7  1  0.78702800  0.66963500  0.73984500  1
  F  F8  1  0.77123700  0.64262700  0.25686500  1
  F  F9  1  0.22876300  0.35737300  0.74313500  1
  F  F10  1  0.42415800  0.70033900  0.37419300  1
  F  F11  1  0.57584200  0.29966100  0.62580700  1
  F  F12  1  0.24070300  0.86410300  0.24309500  1
  F  F13  1  0.75929700  0.13589700  0.75690500  1
  F  F14  1  0.57973200  0.80101300  0.12256700  1
  F  F15  1  0.42026800  0.19898700  0.87743300  1
loop_
_geom_bond_atom_site_label_1
_geom_bond_atom_site_label_2
_geom_bond_distance
_geom_bond_site_symmetry_2
Co0 O1 2.074174 1_544
Co0 O0 2.074174 1_455
Co0 O4 2.087659 1_445
Co0 O5 2.087666 1_554
Co0 O2 2.137443 1_444
Co0 O3 2.137443 1_555
Co1 O6 2.069539 1_454
Co1 O7 2.069539 1_555
Co1 O9 2.090072 1_555
Co1 O8 2.090072 1_454
Co1 O11 2.129288 1_554
Co1 O10 2.129288 1_455
Co2 O14 2.068915 1_455
Co2 O15 2.068915 1_555
Co2 O12 2.102217 1_455
Co2 O13 2.102217 1_555
Co2 O16 2.126172 1_455
Co2 O17 2.126172 1_555
Co3 O18 2.046953 1_445
Co3 O19 2.046953 1_555
Co3 O23 2.073548 1_545
Co3 O22 2.073548 1_455
Co3 O21 2.198661 1_555
Co3 O20 2.198661 1_445
H0 O0 0.989256 1_555
H1 O1 0.989256 1_555
H2 O0 0.986532 1_556
H3 O1 0.986532 1_554
H4 O2 0.990022 1_455
H5 O3 0.990018 1_655
H6 O2 0.989583 1_555
H7 O3 0.989583 1_555
H8 O4 0.981773 1_555
H9 O5 0.981769 1_555
H10 O4 0.991704 1_455
H11 O5 0.991704 1_655
H12 O6 0.986712 1_554
H13 O7 0.986712 1_556
H14 O6 0.989572 1_555
H15 O7 0.989572 1_555
H16 O8 0.993368 1_555
H17 O9 0.993368 1_555
H18 O8 0.979704 1_555
H19 O9 0.979704 1_555
H20 O10 0.995391 1_455
H21 O11 0.995391 1_655
H22 O10 0.989700 1_555
H23 O11 0.989700 1_555
H24 O12 0.991545 1_555
H25 O13 0.991545 1_555
H26 O12 0.992017 1_455
H27 O13 0.992017 1_655
H28 O14 0.984776 1_555
H29 O15 0.984776 1_555
H30 O14 0.992952 1_555
H31 O15 0.992952 1_555
H32 O16 0.983449 1_555
H33 O17 0.983449 1_555
H34 O16 0.993630 1_455
H35 O17 0.993630 1_655
H36 O18 0.990697 1_545
H37 O19 0.990697 1_565
H38 O18 0.991673 1_455
H39 O19 0.991673 1_655
H40 O20 0.989831 1_555
H41 O21 0.989831 1_555
H42 O20 0.984698 1_555
H43 O21 0.984698 1_555
H44 O22 0.992166 1_555
H45 O23 0.992166 1_555
H46 O22 0.987589 1_555
H47 O23 0.987589 1_555
H48 O24 0.983722 1_555
H49 O25 0.983722 1_555
H50 O24 0.985844 1_555
H51 O25 0.985844 1_555
H52 O26 0.984891 1_555
H53 O27 0.984891 1_555
H54 O26 0.993776 1_555
H55 O27 0.993776 1_555
O24 V2 2.255721 1_555
O25 V3 2.255721 1_555
O26 V0 2.376692 1_555
O27 V1 2.376692 1_555
O28 V2 1.665992 1_555
O29 V3 1.665992 1_555
O30 V0 1.676392 1_555
O31 V1 1.676392 1_555
F0 V0 1.941167 1_555
F1 V1 1.941167 1_555
F2 V0 1.954638 1_555
F3 V1 1.954638 1_555
F4 V0 1.955170 1_555
F5 V1 1.955170 1_555
F6 H26 1.646243 1_555
F6 H20 1.646732 1_555
F6 V0 1.948104 1_555
F7 H27 1.646243 1_555
F7 H21 1.646732 1_555
F7 V1 1.948104 1_555
F8 V2 1.959797 1_555
F9 V3 1.959797 1_555
F10 V2 1.981542 1_555
F11 V3 1.981542 1_555
F12 H10 1.634070 1_555
F12 H37 1.662133 1_555
F12 V2 1.966878 1_555
F13 H11 1.634070 1_555
F13 H36 1.662133 1_555
F13 V3 1.966878 1_555
F14 V2 1.978102 1_555
F15 V3 1.978102 1_555
