# generated using pymatgen
data_Ba3YbF6
_symmetry_space_group_name_H-M   'P 1'
_cell_length_a   7.73878981
_cell_length_b   8.19225364
_cell_length_c   7.83577969
_cell_angle_alpha   121.45405507
_cell_angle_beta   61.37879559
_cell_angle_gamma   149.26085271
_symmetry_Int_Tables_number   1
_chemical_formula_structural   Ba3YbF6
_chemical_formula_sum   'Ba3 Yb1 F6'
_cell_volume   216.07428905
_cell_formula_units_Z   1
loop_
 _symmetry_equiv_pos_site_id
 _symmetry_equiv_pos_as_xyz
  1  'x, y, z'
loop_
 _atom_site_type_symbol
 _atom_site_label
 _atom_site_symmetry_multiplicity
 _atom_site_fract_x
 _atom_site_fract_y
 _atom_site_fract_z
 _atom_site_occupancy
  Ba  Ba0  1  0.50000000  0.00000000  0.00000000  1
  Ba  Ba1  1  0.00000000  0.50000000  0.50000000  1
  Ba  Ba2  1  0.00000000  0.00000000  0.50000000  1
  Yb  Yb0  1  0.00000000  0.00000000  0.00000000  1
  F  F0  1  0.70083000  0.92248200  0.31276600  1
  F  F1  1  0.29917000  0.07751800  0.68723400  1
  F  F2  1  0.64443300  0.73686200  0.80153600  1
  F  F3  1  0.35556700  0.26313800  0.19846400  1
  F  F4  1  0.93847400  0.64021000  0.90680500  1
  F  F5  1  0.06152600  0.35979000  0.09319500  1
loop_
_geom_bond_atom_site_label_1
_geom_bond_atom_site_label_2
_geom_bond_distance
_geom_bond_site_symmetry_2
Ba0 F4 2.623112 1_444
Ba0 F5 2.623112 1_655
Ba0 F3 2.700518 1_555
Ba0 F2 2.700518 1_544
Ba0 F5 3.253506 1_545
Ba0 F4 3.253506 1_554
Ba1 F1 2.660325 1_565
Ba1 F0 2.660325 1_445
Ba1 F5 2.715141 1_555
Ba1 F4 2.715141 1_455
Ba1 F0 2.992447 1_555
Ba1 F1 2.992447 1_455
Ba2 F3 2.586808 1_555
Ba2 F2 2.586808 1_445
Ba2 F1 2.769543 1_555
Ba2 F0 2.769543 1_445
F0 Yb0 2.330381 1_665
F1 Yb0 2.330381 1_556
F2 Yb0 2.245285 1_666
F3 Yb0 2.245285 1_555
F4 Yb0 2.263182 1_666
F5 Yb0 2.263182 1_555
