# generated using pymatgen
data_ZnSi2SnO6
_symmetry_space_group_name_H-M   'P 1'
_cell_length_a   5.44799100
_cell_length_b   9.37547400
_cell_length_c   19.41478600
_cell_angle_alpha   90.00000000
_cell_angle_beta   90.00000000
_cell_angle_gamma   90.00000000
_symmetry_Int_Tables_number   1
_chemical_formula_structural   ZnSi2SnO6
_chemical_formula_sum   'Zn8 Si16 Sn8 O48'
_cell_volume   991.65869256
_cell_formula_units_Z   8
loop_
 _symmetry_equiv_pos_site_id
 _symmetry_equiv_pos_as_xyz
  1  'x, y, z'
loop_
 _atom_site_type_symbol
 _atom_site_label
 _atom_site_symmetry_multiplicity
 _atom_site_fract_x
 _atom_site_fract_y
 _atom_site_fract_z
 _atom_site_occupancy
  Zn  Zn0  1  0.61741900  0.14245700  0.37418300  1
  Zn  Zn1  1  0.38258100  0.85754300  0.62581700  1
  Zn  Zn2  1  0.61741900  0.64245700  0.12581700  1
  Zn  Zn3  1  0.11741900  0.85754300  0.12581700  1
  Zn  Zn4  1  0.88258100  0.14245700  0.87418300  1
  Zn  Zn5  1  0.38258100  0.35754300  0.87418300  1
  Zn  Zn6  1  0.11741900  0.35754300  0.37418300  1
  Zn  Zn7  1  0.88258100  0.64245700  0.62581700  1
  Si  Si0  1  0.53363000  0.66169400  0.76494700  1
  Si  Si1  1  0.69229100  0.83706800  0.48269800  1
  Si  Si2  1  0.80770900  0.83706800  0.98269800  1
  Si  Si3  1  0.96637000  0.16169400  0.23505300  1
  Si  Si4  1  0.03363000  0.33830600  0.73505300  1
  Si  Si5  1  0.46637000  0.83830600  0.26494700  1
  Si  Si6  1  0.19229100  0.66293200  0.48269800  1
  Si  Si7  1  0.69229100  0.33706800  0.01730200  1
  Si  Si8  1  0.80770900  0.33706800  0.51730200  1
  Si  Si9  1  0.96637000  0.66169400  0.26494700  1
  Si  Si10  1  0.46637000  0.33830600  0.23505300  1
  Si  Si11  1  0.53363000  0.16169400  0.73505300  1
  Si  Si12  1  0.30770900  0.16293200  0.51730200  1
  Si  Si13  1  0.03363000  0.83830600  0.76494700  1
  Si  Si14  1  0.30770900  0.66293200  0.98269800  1
  Si  Si15  1  0.19229100  0.16293200  0.01730200  1
  Sn  Sn0  1  0.38023200  0.97397400  0.88035900  1
  Sn  Sn1  1  0.61976800  0.02602600  0.11964100  1
  Sn  Sn2  1  0.88023200  0.02602600  0.61964100  1
  Sn  Sn3  1  0.11976800  0.97397400  0.38035900  1
  Sn  Sn4  1  0.38023200  0.47397400  0.61964100  1
  Sn  Sn5  1  0.61976800  0.52602600  0.38035900  1
  Sn  Sn6  1  0.88023200  0.52602600  0.88035900  1
  Sn  Sn7  1  0.11976800  0.47397400  0.11964100  1
  O  O0  1  0.95401600  0.50794300  0.30352200  1
  O  O1  1  0.22940200  0.00842900  0.05280700  1
  O  O2  1  0.04598400  0.49205700  0.69647800  1
  O  O3  1  0.70472800  0.33149000  0.93191000  1
  O  O4  1  0.20472800  0.16851000  0.93191000  1
  O  O5  1  0.92980500  0.23598700  0.04285000  1
  O  O6  1  0.95300400  0.66123600  0.17956100  1
  O  O7  1  0.04699600  0.83876400  0.67956100  1
  O  O8  1  0.70472800  0.83149000  0.56809000  1
  O  O9  1  0.95300400  0.16123600  0.32043900  1
  O  O10  1  0.45401600  0.49205700  0.19647800  1
  O  O11  1  0.79527200  0.33149000  0.43191000  1
  O  O12  1  0.77059800  0.99157100  0.94719300  1
  O  O13  1  0.45300400  0.83876400  0.17956100  1
  O  O14  1  0.54598400  0.00794300  0.69647800  1
  O  O15  1  0.22940200  0.50842900  0.44719300  1
  O  O16  1  0.45401600  0.99205700  0.30352200  1
  O  O17  1  0.21983500  0.74560800  0.28930600  1
  O  O18  1  0.28016500  0.74560800  0.78930600  1
  O  O19  1  0.57019500  0.73598700  0.95715000  1
  O  O20  1  0.79527200  0.83149000  0.06809000  1
  O  O21  1  0.54699600  0.66123600  0.67956100  1
  O  O22  1  0.72940200  0.49157100  0.05280700  1
  O  O23  1  0.21983500  0.24560800  0.21069400  1
  O  O24  1  0.29527200  0.16851000  0.43191000  1
  O  O25  1  0.54699600  0.16123600  0.82043900  1
  O  O26  1  0.77059800  0.49157100  0.55280700  1
  O  O27  1  0.20472800  0.66851000  0.56809000  1
  O  O28  1  0.27059800  0.50842900  0.94719300  1
  O  O29  1  0.71983500  0.75439200  0.28930600  1
  O  O30  1  0.04598400  0.99205700  0.80352200  1
  O  O31  1  0.78016500  0.75439200  0.78930600  1
  O  O32  1  0.78016500  0.25439200  0.71069400  1
  O  O33  1  0.72940200  0.99157100  0.44719300  1
  O  O34  1  0.29527200  0.66851000  0.06809000  1
  O  O35  1  0.27059800  0.00842900  0.55280700  1
  O  O36  1  0.28016500  0.24560800  0.71069400  1
  O  O37  1  0.07019500  0.76401300  0.95715000  1
  O  O38  1  0.42980500  0.76401300  0.45715000  1
  O  O39  1  0.71983500  0.25439200  0.21069400  1
  O  O40  1  0.42980500  0.26401300  0.04285000  1
  O  O41  1  0.57019500  0.23598700  0.54285000  1
  O  O42  1  0.07019500  0.26401300  0.54285000  1
  O  O43  1  0.45300400  0.33876400  0.32043900  1
  O  O44  1  0.54598400  0.50794300  0.80352200  1
  O  O45  1  0.92980500  0.73598700  0.45715000  1
  O  O46  1  0.04699600  0.33876400  0.82043900  1
  O  O47  1  0.95401600  0.00794300  0.19647800  1
loop_
_geom_bond_atom_site_label_1
_geom_bond_atom_site_label_2
_geom_bond_distance
_geom_bond_site_symmetry_2
O0 Si9 1.625825 1_555
O0 Zn6 2.159354 1_655
O0 Sn5 2.360106 1_555
O1 Si15 1.616882 1_555
O1 Zn3 2.093467 1_545
O1 Sn1 2.496758 1_555
O2 Si4 1.625825 1_555
O2 Zn7 2.159354 1_455
O2 Sn4 2.360106 1_555
O3 Si7 1.660075 1_556
O3 Zn5 2.096658 1_555
O3 Sn6 2.289630 1_555
O3 Zn4 2.309957 1_555
O4 Si15 1.660075 1_556
O4 Zn4 2.096658 1_455
O4 Sn0 2.289630 1_545
O4 Zn5 2.309957 1_555
O5 Si15 1.661357 1_655
O5 Si7 1.678838 1_555
O6 Si9 1.659355 1_555
O6 Zn2 2.112413 1_555
O6 Sn7 2.293719 1_655
O6 Zn3 2.297479 1_655
O7 Si13 1.659355 1_555
O7 Zn1 2.112413 1_555
O7 Sn2 2.293719 1_465
O7 Zn7 2.297479 1_455
O8 Si1 1.660075 1_555
O8 Zn1 2.096658 1_555
O8 Sn2 2.289630 1_565
O8 Zn7 2.309957 1_555
O9 Si3 1.659355 1_555
O9 Zn0 2.112413 1_555
O9 Sn3 2.293719 1_645
O9 Zn6 2.297479 1_655
O10 Si10 1.625825 1_555
O10 Zn2 2.159354 1_555
O10 Sn7 2.360106 1_555
O11 Si8 1.660075 1_555
O11 Zn6 2.096658 1_655
O11 Sn5 2.289630 1_555
O11 Zn0 2.309957 1_555
O12 Si2 1.616882 1_555
O12 Zn4 2.093467 1_565
O12 Sn0 2.496758 1_555
O13 Si5 1.659355 1_555
O13 Zn3 2.112413 1_555
O13 Sn1 2.293719 1_565
O13 Zn2 2.297479 1_555
O14 Si11 1.625825 1_555
O14 Zn1 2.159354 1_545
O14 Sn2 2.360106 1_555
O15 Si6 1.616882 1_555
O15 Zn6 2.093467 1_555
O15 Sn5 2.496758 1_555
O16 Si5 1.625825 1_555
O16 Zn0 2.159354 1_565
O16 Sn3 2.360106 1_555
O17 Si9 1.658139 1_455
O17 Si5 1.668216 1_555
O18 Si0 1.658139 1_555
O18 Si13 1.668216 1_555
O19 Si14 1.661357 1_555
O19 Si2 1.678838 1_555
O20 Si2 1.660075 1_554
O20 Zn3 2.096658 1_655
O20 Sn1 2.289630 1_565
O20 Zn2 2.309957 1_555
O21 Si0 1.659355 1_555
O21 Zn7 2.112413 1_555
O21 Sn4 2.293719 1_555
O21 Zn1 2.297479 1_555
O22 Si7 1.616882 1_555
O22 Zn2 2.093467 1_555
O22 Sn7 2.496758 1_655
O23 Si3 1.658139 1_455
O23 Si10 1.668216 1_555
O24 Si12 1.660075 1_555
O24 Zn0 2.096658 1_555
O24 Sn3 2.289630 1_545
O24 Zn6 2.309957 1_555
O25 Si11 1.659355 1_555
O25 Zn4 2.112413 1_555
O25 Sn0 2.293719 1_545
O25 Zn5 2.297479 1_555
O26 Si8 1.616882 1_555
O26 Zn7 2.093467 1_555
O26 Sn4 2.496758 1_555
O27 Si6 1.660075 1_555
O27 Zn7 2.096658 1_455
O27 Sn4 2.289630 1_555
O27 Zn1 2.309957 1_555
O28 Si14 1.616882 1_555
O28 Zn5 2.093467 1_555
O28 Sn6 2.496758 1_455
O29 Si5 1.658139 1_555
O29 Si9 1.668216 1_555
O30 Si13 1.625825 1_555
O30 Zn4 2.159354 1_465
O30 Sn0 2.360106 1_555
O31 Si13 1.658139 1_655
O31 Si0 1.668216 1_555
O32 Si4 1.658139 1_655
O32 Si11 1.668216 1_555
O33 Si1 1.616882 1_555
O33 Zn0 2.093467 1_565
O33 Sn3 2.496758 1_655
O34 Si14 1.660075 1_554
O34 Zn2 2.096658 1_555
O34 Sn7 2.289630 1_555
O34 Zn3 2.309957 1_555
O35 Si12 1.616882 1_555
O35 Zn1 2.093467 1_545
O35 Sn2 2.496758 1_455
O36 Si11 1.658139 1_555
O36 Si4 1.668216 1_555
O37 Si2 1.661357 1_455
O37 Si14 1.678838 1_555
O38 Si1 1.661357 1_555
O38 Si6 1.678838 1_555
O39 Si10 1.658139 1_555
O39 Si3 1.668216 1_555
O40 Si7 1.661357 1_555
O40 Si15 1.678838 1_555
O41 Si12 1.661357 1_555
O41 Si8 1.678838 1_555
O42 Si8 1.661357 1_455
O42 Si12 1.678838 1_555
O43 Si10 1.659355 1_555
O43 Zn6 2.112413 1_555
O43 Sn5 2.293719 1_555
O43 Zn0 2.297479 1_555
O44 Si0 1.625825 1_555
O44 Zn5 2.159354 1_555
O44 Sn6 2.360106 1_555
O45 Si6 1.661357 1_655
O45 Si1 1.678838 1_555
O46 Si4 1.659355 1_555
O46 Zn5 2.112413 1_555
O46 Sn6 2.293719 1_455
O46 Zn4 2.297479 1_455
O47 Si3 1.625825 1_555
O47 Zn3 2.159354 1_645
O47 Sn1 2.360106 1_555
