# generated using pymatgen
data_CaLa2WO6
_symmetry_space_group_name_H-M   'P 1'
_cell_length_a   5.85725149
_cell_length_b   5.85725149
_cell_length_c   5.85725232
_cell_angle_alpha   61.60214265
_cell_angle_beta   61.60214265
_cell_angle_gamma   61.60214480
_symmetry_Int_Tables_number   1
_chemical_formula_structural   CaLa2WO6
_chemical_formula_sum   'Ca1 La2 W1 O6'
_cell_volume   147.19752923
_cell_formula_units_Z   1
loop_
 _symmetry_equiv_pos_site_id
 _symmetry_equiv_pos_as_xyz
  1  'x, y, z'
loop_
 _atom_site_type_symbol
 _atom_site_label
 _atom_site_symmetry_multiplicity
 _atom_site_fract_x
 _atom_site_fract_y
 _atom_site_fract_z
 _atom_site_occupancy
  Ca  Ca0  1  0.50000000  0.50000000  0.50000000  1
  La  La0  1  0.76559600  0.76559600  0.76559600  1
  La  La1  1  0.23440400  0.23440400  0.23440400  1
  W  W0  1  0.00000000  0.00000000  0.00000000  1
  O  O0  1  0.78306400  0.34552600  0.12560100  1
  O  O1  1  0.12560100  0.78306400  0.34552600  1
  O  O2  1  0.34552600  0.12560100  0.78306400  1
  O  O3  1  0.21693600  0.65447400  0.87439900  1
  O  O4  1  0.65447400  0.87439900  0.21693600  1
  O  O5  1  0.87439900  0.21693600  0.65447400  1
loop_
_geom_bond_atom_site_label_1
_geom_bond_atom_site_label_2
_geom_bond_distance
_geom_bond_site_symmetry_2
Ca0 O4 2.319182 1_555
Ca0 O2 2.319182 1_555
Ca0 O5 2.319183 1_555
Ca0 O1 2.319183 1_555
Ca0 O3 2.319183 1_555
Ca0 O0 2.319183 1_555
La0 O2 2.354038 1_565
La0 O0 2.354038 1_556
La0 O1 2.354038 1_655
La0 O5 2.718410 1_565
La0 O3 2.718410 1_655
La0 O4 2.718410 1_556
La1 O4 2.354038 1_545
La1 O3 2.354038 1_554
La1 O5 2.354038 1_455
La1 O1 2.718410 1_545
La1 O0 2.718410 1_455
La1 O2 2.718410 1_554
O0 W0 2.081508 1_655
O1 W0 2.081508 1_565
O2 W0 2.081508 1_556
O3 W0 2.081508 1_566
O4 W0 2.081508 1_665
O5 W0 2.081508 1_656
