# generated using pymatgen
data_Ba2Bi3O7
_symmetry_space_group_name_H-M   'P 1'
_cell_length_a   4.37098700
_cell_length_b   4.39248700
_cell_length_c   12.35877000
_cell_angle_alpha   90.00000000
_cell_angle_beta   90.00000000
_cell_angle_gamma   90.00000000
_symmetry_Int_Tables_number   1
_chemical_formula_structural   Ba2Bi3O7
_chemical_formula_sum   'Ba2 Bi3 O7'
_cell_volume   237.28224879
_cell_formula_units_Z   1
loop_
 _symmetry_equiv_pos_site_id
 _symmetry_equiv_pos_as_xyz
  1  'x, y, z'
loop_
 _atom_site_type_symbol
 _atom_site_label
 _atom_site_symmetry_multiplicity
 _atom_site_fract_x
 _atom_site_fract_y
 _atom_site_fract_z
 _atom_site_occupancy
  Ba  Ba0  1  0.00000000  0.47597100  0.20713100  1
  Ba  Ba1  1  0.00000000  0.47597100  0.79286900  1
  Bi  Bi0  1  0.50000000  0.98298800  0.36408900  1
  Bi  Bi1  1  0.50000000  0.98298800  0.63591100  1
  Bi  Bi2  1  0.50000000  0.98341900  0.00000000  1
  O  O0  1  0.00000000  0.16140300  0.00000000  1
  O  O1  1  0.50000000  0.48352000  0.33594100  1
  O  O2  1  0.50000000  0.48352000  0.66405900  1
  O  O3  1  0.00000000  0.98597300  0.33834600  1
  O  O4  1  0.00000000  0.98597300  0.66165400  1
  O  O5  1  0.50000000  0.97672700  0.18160500  1
  O  O6  1  0.50000000  0.97672700  0.81839500  1
loop_
_geom_bond_atom_site_label_1
_geom_bond_atom_site_label_2
_geom_bond_distance
_geom_bond_site_symmetry_2
Ba0 O3 2.694848 1_545
Ba0 O1 2.704022 1_455
Ba0 O1 2.704022 1_555
Ba0 O3 2.765531 1_555
Ba0 O0 2.908986 1_555
Ba0 O5 3.112043 1_545
Ba0 O5 3.112043 1_445
Ba0 O5 3.116727 1_455
Ba0 O5 3.116727 1_555
Ba1 O4 2.694848 1_545
Ba1 O2 2.704022 1_455
Ba1 O2 2.704022 1_555
Ba1 O4 2.765531 1_555
Ba1 O0 2.908986 1_556
Ba1 O6 3.112043 1_445
Ba1 O6 3.112043 1_545
Ba1 O6 3.116727 1_455
Ba1 O6 3.116727 1_555
Bi0 O3 2.208568 1_555
Bi0 O3 2.208568 1_655
Bi0 O1 2.221316 1_555
Bi0 O1 2.225932 1_565
Bi0 O5 2.255445 1_555
Bi1 O4 2.208568 1_555
Bi1 O4 2.208568 1_655
Bi1 O2 2.221316 1_555
Bi1 O2 2.225932 1_565
Bi1 O6 2.255445 1_555
Bi2 O5 2.244607 1_555
Bi2 O6 2.244607 1_554
Bi2 O0 2.321116 1_565
Bi2 O0 2.321116 1_665
