# generated using pymatgen
data_LaMg14Zn
_symmetry_space_group_name_H-M   'P 1'
_cell_length_a   6.56554265
_cell_length_b   6.46358663
_cell_length_c   10.28623288
_cell_angle_alpha   90.00000000
_cell_angle_beta   90.00000000
_cell_angle_gamma   119.48762782
_symmetry_Int_Tables_number   1
_chemical_formula_structural   LaMg14Zn
_chemical_formula_sum   'La1 Mg14 Zn1'
_cell_volume   379.97093201
_cell_formula_units_Z   1
loop_
 _symmetry_equiv_pos_site_id
 _symmetry_equiv_pos_as_xyz
  1  'x, y, z'
loop_
 _atom_site_type_symbol
 _atom_site_label
 _atom_site_symmetry_multiplicity
 _atom_site_fract_x
 _atom_site_fract_y
 _atom_site_fract_z
 _atom_site_occupancy
  La  La0  1  0.15769889  0.82884895  0.12500000  1
  Mg  Mg0  1  0.16456830  0.33228365  0.62500000  1
  Mg  Mg1  1  0.16711075  0.83355488  0.62500000  1
  Mg  Mg2  1  0.65154908  0.33724185  0.12500000  1
  Mg  Mg3  1  0.66567931  0.33037583  0.62500000  1
  Mg  Mg4  1  0.65154908  0.81430624  0.12500000  1
  Mg  Mg5  1  0.66567931  0.83530249  0.62500000  1
  Mg  Mg6  1  0.33539341  0.17434994  0.38035120  1
  Mg  Mg7  1  0.33539341  0.17434994  0.86964880  1
  Mg  Mg8  1  0.33539341  0.66104447  0.38035120  1
  Mg  Mg9  1  0.33539341  0.66104447  0.86964880  1
  Mg  Mg10  1  0.84027202  0.17013651  0.36281699  1
  Mg  Mg11  1  0.84027202  0.17013651  0.88718301  1
  Mg  Mg12  1  0.82750316  0.66375208  0.38474015  1
  Mg  Mg13  1  0.82750316  0.66375208  0.86525985  1
  Zn  Zn0  1  0.19904125  0.34952013  0.12500000  1
loop_
_geom_bond_atom_site_label_1
_geom_bond_atom_site_label_2
_geom_bond_distance
_geom_bond_site_symmetry_2
La0 Zn0 3.240419 1_565
La0 Zn0 3.240419 1_555
La0 Mg9 3.268374 1_554
La0 Mg8 3.268374 1_555
La0 Mg6 3.268380 1_565
La0 Mg7 3.268380 1_564
La0 Mg13 3.270983 1_454
La0 Mg12 3.270983 1_455
La0 Mg2 3.277900 1_455
La0 Mg4 3.277900 1_455
La0 Mg2 3.289681 1_565
La0 Mg4 3.289681 1_555
Mg0 Mg6 3.124090 1_555
Mg0 Mg7 3.124090 1_555
Mg0 Mg9 3.124097 1_555
Mg0 Mg8 3.124097 1_555
Mg0 Mg1 3.231826 1_545
Mg0 Mg1 3.231826 1_555
Mg0 Mg5 3.269424 1_445
Mg0 Mg3 3.269425 1_455
Mg0 Mg10 3.272327 1_455
Mg0 Mg11 3.272327 1_455
Mg0 Mg5 3.296153 1_555
Mg0 Mg3 3.296153 1_555
Mg1 Mg12 3.142398 1_455
Mg1 Mg13 3.142398 1_455
Mg1 Mg8 3.163814 1_555
Mg1 Mg9 3.163814 1_555
Mg1 Mg6 3.163820 1_565
Mg1 Mg7 3.163820 1_565
Mg1 Mg3 3.267827 1_565
Mg1 Mg5 3.267828 1_555
Mg1 Mg3 3.297744 1_455
Mg1 Mg5 3.297744 1_455
Mg2 Zn0 3.010817 1_555
Mg2 Mg4 3.083547 1_555
Mg2 Mg6 3.188213 1_555
Mg2 Mg7 3.188213 1_554
Mg2 Mg4 3.380040 1_545
Mg3 Mg6 3.146325 1_555
Mg3 Mg7 3.146325 1_555
Mg3 Mg5 3.199949 1_545
Mg3 Mg5 3.263637 1_555
Mg4 Zn0 3.010816 1_555
Mg4 Mg9 3.188213 1_554
Mg4 Mg8 3.188213 1_555
Mg5 Mg8 3.146325 1_555
Mg5 Mg9 3.146325 1_555
Mg6 Mg8 3.145792 1_555
Mg6 Zn0 3.159156 1_555
Mg6 Mg8 3.317794 1_545
Mg7 Mg9 3.145792 1_555
Mg7 Zn0 3.159156 1_556
Mg7 Mg9 3.317794 1_545
Mg8 Zn0 3.159162 1_555
Mg9 Zn0 3.159162 1_556
Mg10 Mg2 3.162837 1_555
Mg10 Mg4 3.162844 1_545
Mg10 Zn0 3.191892 1_655
Mg10 Mg12 3.240473 1_545
Mg10 Mg12 3.240473 1_555
Mg10 Mg8 3.242442 1_655
Mg10 Mg6 3.242442 1_655
Mg10 Mg3 3.290692 1_555
Mg10 Mg5 3.290698 1_545
Mg10 Mg8 3.333175 1_545
Mg10 Mg6 3.333175 1_555
Mg11 Mg2 3.162837 1_556
Mg11 Mg4 3.162844 1_546
Mg11 Zn0 3.191892 1_656
Mg11 Mg13 3.240473 1_545
Mg11 Mg13 3.240473 1_555
Mg11 Mg9 3.242442 1_655
Mg11 Mg7 3.242442 1_655
Mg11 Mg3 3.290692 1_555
Mg11 Mg5 3.290698 1_545
Mg11 Mg9 3.333175 1_545
Mg11 Mg7 3.333175 1_555
Mg12 Mg5 3.102546 1_555
Mg12 Mg3 3.102552 1_555
Mg12 Mg6 3.222705 1_555
Mg12 Mg8 3.222705 1_555
Mg12 Mg4 3.244455 1_555
Mg12 Mg2 3.244461 1_555
Mg12 Mg6 3.343529 1_665
Mg12 Mg8 3.343529 1_655
Mg13 Mg5 3.102546 1_555
Mg13 Mg3 3.102552 1_555
Mg13 Mg7 3.222705 1_555
Mg13 Mg9 3.222705 1_555
Mg13 Mg4 3.244455 1_556
Mg13 Mg2 3.244461 1_556
Mg13 Mg7 3.343529 1_665
Mg13 Mg9 3.343529 1_655
