# generated using pymatgen
data_Li8Fe7Te(PO4)12
_symmetry_space_group_name_H-M   'P 1'
_cell_length_a   8.65254800
_cell_length_b   8.78329383
_cell_length_c   12.19854665
_cell_angle_alpha   90.34626346
_cell_angle_beta   90.02138984
_cell_angle_gamma   90.06600244
_symmetry_Int_Tables_number   1
_chemical_formula_structural   Li8Fe7Te(PO4)12
_chemical_formula_sum   'Li8 Fe7 Te1 P12 O48'
_cell_volume   927.04596807
_cell_formula_units_Z   1
loop_
 _symmetry_equiv_pos_site_id
 _symmetry_equiv_pos_as_xyz
  1  'x, y, z'
loop_
 _atom_site_type_symbol
 _atom_site_label
 _atom_site_symmetry_multiplicity
 _atom_site_fract_x
 _atom_site_fract_y
 _atom_site_fract_z
 _atom_site_occupancy
  Li  Li0  1  0.21773900  0.72258500  0.18056500  1
  Li  Li1  1  0.21961000  0.77912800  0.82067300  1
  Li  Li2  1  0.28138600  0.22176300  0.31743900  1
  Li  Li3  1  0.27980800  0.27680900  0.68322000  1
  Li  Li4  1  0.71549700  0.72495800  0.31551900  1
  Li  Li5  1  0.71830700  0.79065500  0.68376100  1
  Li  Li6  1  0.78558000  0.22199100  0.17914800  1
  Li  Li7  1  0.78699900  0.27235000  0.82852300  1
  Fe  Fe0  1  0.24702000  0.96109300  0.61308700  1
  Fe  Fe1  1  0.24872100  0.54167900  0.38317400  1
  Fe  Fe2  1  0.25137100  0.04146600  0.11233600  1
  Fe  Fe3  1  0.25270600  0.45681100  0.89098300  1
  Fe  Fe4  1  0.74904300  0.53993400  0.11141300  1
  Fe  Fe5  1  0.74665900  0.96202900  0.89202700  1
  Fe  Fe6  1  0.74955700  0.03633700  0.38331400  1
  Te  Te0  1  0.75286000  0.46106600  0.61282500  1
  P  P0  1  0.04282500  0.24575100  0.49683000  1
  P  P1  1  0.46089700  0.74955500  0.00006300  1
  P  P2  1  0.53980300  0.25035500  0.00094900  1
  P  P3  1  0.96285900  0.75053700  0.49641400  1
  P  P4  1  0.10462000  0.39351600  0.14734400  1
  P  P5  1  0.10642300  0.10584300  0.85239000  1
  P  P6  1  0.38908800  0.60212100  0.64509600  1
  P  P7  1  0.39332800  0.89433300  0.35414200  1
  P  P8  1  0.60257700  0.10388800  0.64321400  1
  P  P9  1  0.60433000  0.39198300  0.34848400  1
  P  P10  1  0.89758000  0.61217500  0.85182100  1
  P  P11  1  0.89503600  0.89233300  0.14727000  1
  O  O0  1  0.05364000  0.63580000  0.43075700  1
  O  O1  1  0.05283300  0.85316900  0.57354300  1
  O  O2  1  0.07336100  0.89509900  0.15602800  1
  O  O3  1  0.07268000  0.60414000  0.83841000  1
  O  O4  1  0.14347700  0.16398500  0.58137500  1
  O  O5  1  0.14569700  0.33955000  0.42129900  1
  O  O6  1  0.15439200  0.43425700  0.03057100  1
  O  O7  1  0.15674300  0.06561500  0.96883300  1
  O  O8  1  0.16232300  0.23343400  0.18038100  1
  O  O9  1  0.16279700  0.26692000  0.81959400  1
  O  O10  1  0.17496600  0.51471800  0.22620900  1
  O  O11  1  0.17515000  0.98501800  0.77238200  1
  O  O12  1  0.32536800  0.01446600  0.27527700  1
  O  O13  1  0.32897400  0.48239800  0.72461100  1
  O  O14  1  0.34704500  0.76497500  0.68033700  1
  O  O15  1  0.33605500  0.73326700  0.32057600  1
  O  O16  1  0.34882200  0.56496800  0.52756700  1
  O  O17  1  0.34238000  0.93384300  0.47160400  1
  O  O18  1  0.35130100  0.83687700  0.07914800  1
  O  O19  1  0.35107700  0.66176900  0.92107000  1
  O  O20  1  0.42720700  0.11103300  0.65604500  1
  O  O21  1  0.42797400  0.39364000  0.34673500  1
  O  O22  1  0.44346300  0.14220100  0.07050200  1
  O  O23  1  0.44510600  0.35770700  0.92915600  1
  O  O24  1  0.55760800  0.64241500  0.07058700  1
  O  O25  1  0.55688600  0.85674600  0.92886900  1
  O  O26  1  0.57991700  0.60156000  0.65601200  1
  O  O27  1  0.57210200  0.89507600  0.34545000  1
  O  O28  1  0.64835500  0.33829800  0.08048700  1
  O  O29  1  0.64863700  0.16286200  0.92113000  1
  O  O30  1  0.65675300  0.07358800  0.52783200  1
  O  O31  1  0.65363000  0.43537200  0.47353800  1
  O  O32  1  0.66565700  0.23367800  0.32063900  1
  O  O33  1  0.66480000  0.27464400  0.68070000  1
  O  O34  1  0.67650400  0.51625000  0.27810200  1
  O  O35  1  0.67633200  0.99430300  0.72481900  1
  O  O36  1  0.82573800  0.01338900  0.22646800  1
  O  O37  1  0.82229700  0.48124000  0.76838300  1
  O  O38  1  0.83673300  0.73187300  0.17941700  1
  O  O39  1  0.83439200  0.76694200  0.81650700  1
  O  O40  1  0.84053000  0.55883000  0.96239400  1
  O  O41  1  0.84438100  0.93234500  0.03077700  1
  O  O42  1  0.84903500  0.65958700  0.58384100  1
  O  O43  1  0.84749900  0.83333100  0.42301100  1
  O  O44  1  0.92752800  0.10334100  0.84396700  1
  O  O45  1  0.92596000  0.39665700  0.15603600  1
  O  O46  1  0.93785500  0.14336300  0.43123300  1
  O  O47  1  0.94580800  0.36241700  0.57577000  1
loop_
_geom_bond_atom_site_label_1
_geom_bond_atom_site_label_2
_geom_bond_distance
_geom_bond_site_symmetry_2
Li0 O10 1.947115 1_555
Li0 O18 1.971595 1_555
Li0 O2 1.988895 1_555
Li0 O15 1.992586 1_555
Li1 O11 1.944118 1_555
Li1 O19 1.968073 1_555
Li1 O3 2.006257 1_555
Li1 O14 2.039853 1_555
Li2 O12 1.927407 1_555
Li2 O8 1.966755 1_555
Li2 O21 2.001052 1_555
Li2 O5 2.010453 1_555
Li3 O13 1.919293 1_555
Li3 O9 1.950086 1_555
Li3 O20 1.963503 1_555
Li3 O4 1.974408 1_555
Li4 O34 1.915966 1_555
Li4 O38 1.965422 1_555
Li4 O27 1.975693 1_555
Li4 O43 1.977684 1_555
Li5 O35 1.890240 1_555
Li5 O39 1.917750 1_555
Li5 O42 2.019275 1_555
Li5 O26 2.072497 1_555
Li6 O36 1.955771 1_555
Li6 O45 1.977279 1_555
Li6 O28 1.979501 1_555
Li6 O32 2.016357 1_555
Li7 O29 1.909370 1_555
Li7 O44 1.930017 1_555
Li7 O37 2.003223 1_555
Li7 O33 2.090226 1_555
Fe0 O17 1.926992 1_555
Fe0 O1 1.986094 1_555
Fe0 O4 2.034648 1_565
Fe0 O11 2.050130 1_555
Fe0 O14 2.099815 1_555
Fe0 O20 2.103816 1_565
Fe1 O0 1.966634 1_555
Fe1 O16 1.971952 1_555
Fe1 O15 1.999719 1_555
Fe1 O10 2.030479 1_555
Fe1 O5 2.041926 1_555
Fe1 O21 2.071725 1_555
Fe2 O7 1.945134 1_554
Fe2 O22 1.951537 1_555
Fe2 O8 2.027848 1_555
Fe2 O18 2.033630 1_545
Fe2 O2 2.076888 1_545
Fe2 O12 2.102855 1_555
Fe3 O6 1.914961 1_556
Fe3 O23 1.937418 1_555
Fe3 O19 2.021922 1_555
Fe3 O9 2.030836 1_555
Fe3 O3 2.127467 1_555
Fe3 O13 2.147328 1_555
Fe4 O24 1.951958 1_555
Fe4 O40 1.990739 1_554
Fe4 O28 2.006486 1_555
Fe4 O38 2.021295 1_555
Fe4 O45 2.058003 1_555
Fe4 O34 2.139520 1_555
Fe5 O41 1.911129 1_556
Fe5 O25 1.937888 1_555
Fe5 O29 1.988237 1_565
Fe5 O44 2.082883 1_565
Fe5 O39 2.084579 1_555
Fe5 O35 2.148826 1_555
Fe6 O30 1.963259 1_555
Fe6 O46 1.966968 1_555
Fe6 O27 2.024473 1_545
Fe6 O36 2.032829 1_555
Fe6 O32 2.033316 1_555
Fe6 O43 2.036070 1_545
O0 P3 1.505523 1_455
O1 P3 1.513764 1_455
O2 P11 1.546773 1_455
O3 P10 1.525597 1_455
O4 P0 1.532185 1_555
O5 P0 1.525797 1_555
O6 P4 1.532601 1_555
O7 P5 1.529055 1_555
O8 P4 1.548217 1_555
O9 P5 1.550805 1_555
O10 P4 1.554015 1_555
O11 P5 1.556203 1_565
O12 P7 1.548528 1_545
O13 P6 1.525978 1_555
O14 P6 1.535269 1_555
O15 P7 1.551068 1_555
O16 P6 1.508983 1_555
O17 P7 1.537100 1_555
O18 P1 1.552932 1_555
O19 P1 1.553903 1_556
O20 P8 1.526830 1_555
O21 P9 1.526157 1_555
O22 P2 1.524983 1_555
O23 P2 1.529260 1_556
O24 P1 1.528709 1_555
O25 P1 1.529400 1_556
O26 P6 1.656484 1_555
O26 Te0 2.009101 1_555
O27 P7 1.550529 1_555
O28 P2 1.552034 1_555
O29 P2 1.555214 1_556
O30 P8 1.505939 1_555
O31 P9 1.626773 1_555
O31 Te0 1.915432 1_555
O32 P9 1.525253 1_555
O33 P8 1.654699 1_555
O33 Te0 1.990267 1_555
O34 P9 1.525968 1_555
O35 P8 1.528779 1_565
O36 P11 1.553353 1_545
O37 P10 1.663278 1_555
O37 Te0 1.997003 1_555
O38 P11 1.549121 1_555
O39 P10 1.530025 1_555
O40 P10 1.513323 1_555
O41 P11 1.530002 1_555
O42 P3 1.659748 1_555
O42 Te0 1.965249 1_555
O43 P3 1.528326 1_555
O44 P5 1.551387 1_655
O45 P4 1.549802 1_655
O46 P0 1.504280 1_655
O47 P0 1.634821 1_655
O47 Te0 1.934281 1_555
