# generated using pymatgen
data_LiYbPd2
_symmetry_space_group_name_H-M   'P 1'
_cell_length_a   4.59543368
_cell_length_b   4.59543368
_cell_length_c   4.59543368
_cell_angle_alpha   60.00000000
_cell_angle_beta   60.00000000
_cell_angle_gamma   60.00000000
_symmetry_Int_Tables_number   1
_chemical_formula_structural   LiYbPd2
_chemical_formula_sum   'Li1 Yb1 Pd2'
_cell_volume   68.62217979
_cell_formula_units_Z   1
loop_
 _symmetry_equiv_pos_site_id
 _symmetry_equiv_pos_as_xyz
  1  'x, y, z'
loop_
 _atom_site_type_symbol
 _atom_site_label
 _atom_site_symmetry_multiplicity
 _atom_site_fract_x
 _atom_site_fract_y
 _atom_site_fract_z
 _atom_site_occupancy
  Li  Li0  1  0.25000000  0.25000000  0.25000000  1
  Yb  Yb0  1  0.74999900  0.74999900  0.74999900  1
  Pd  Pd0  1  0.00000000  0.00000000  0.00000000  1
  Pd  Pd1  1  0.49999900  0.49999900  0.49999900  1
loop_
_geom_bond_atom_site_label_1
_geom_bond_atom_site_label_2
_geom_bond_distance
_geom_bond_site_symmetry_2
Li0 Pd1 2.814106 1_555
Li0 Pd0 2.814117 1_565
Li0 Pd0 2.814117 1_555
Li0 Pd0 2.814117 1_556
Li0 Pd0 2.814117 1_655
Li0 Pd1 2.814121 1_545
Li0 Pd1 2.814121 1_554
Li0 Pd1 2.814121 1_455
Pd0 Yb0 2.814113 1_445
Pd0 Yb0 2.814113 1_454
Pd0 Yb0 2.814113 1_544
Pd0 Yb0 2.814128 1_444
Pd1 Yb0 2.814117 1_545
Pd1 Yb0 2.814117 1_554
Pd1 Yb0 2.814117 1_455
Pd1 Yb0 2.814117 1_555
