# generated using pymatgen
data_Sm2Re3Si5
_symmetry_space_group_name_H-M   'P 1'
_cell_length_a   10.98693067
_cell_length_b   10.98693067
_cell_length_c   5.62671135
_cell_angle_alpha   90.00000000
_cell_angle_beta   90.00000000
_cell_angle_gamma   90.00000000
_symmetry_Int_Tables_number   1
_chemical_formula_structural   Sm2Re3Si5
_chemical_formula_sum   'Sm8 Re12 Si20'
_cell_volume   679.21521279
_cell_formula_units_Z   4
loop_
 _symmetry_equiv_pos_site_id
 _symmetry_equiv_pos_as_xyz
  1  'x, y, z'
loop_
 _atom_site_type_symbol
 _atom_site_label
 _atom_site_symmetry_multiplicity
 _atom_site_fract_x
 _atom_site_fract_y
 _atom_site_fract_z
 _atom_site_occupancy
  Sm  Sm0  1  0.57785522  0.73715630  0.50000000  1
  Sm  Sm1  1  0.42214478  0.26284370  0.50000000  1
  Sm  Sm2  1  0.07785522  0.76284370  -0.00000000  1
  Sm  Sm3  1  0.92214478  0.23715630  -0.00000000  1
  Sm  Sm4  1  0.26284370  0.57785522  0.50000000  1
  Sm  Sm5  1  0.73715630  0.42214478  0.50000000  1
  Sm  Sm6  1  0.23715630  0.07785522  -0.00000000  1
  Sm  Sm7  1  0.76284370  0.92214478  -0.00000000  1
  Re  Re0  1  0.87483667  0.85153948  0.50000000  1
  Re  Re1  1  0.12516333  0.14846052  0.50000000  1
  Re  Re2  1  0.37483667  0.64846052  -0.00000000  1
  Re  Re3  1  0.62516333  0.35153948  -0.00000000  1
  Re  Re4  1  0.14846052  0.87483667  0.50000000  1
  Re  Re5  1  0.85153948  0.12516333  0.50000000  1
  Re  Re6  1  0.35153948  0.37483667  -0.00000000  1
  Re  Re7  1  0.64846052  0.62516333  -0.00000000  1
  Re  Re8  1  0.50000000  -0.00000000  0.25000000  1
  Re  Re9  1  -0.00000000  0.50000000  0.75000000  1
  Re  Re10  1  -0.00000000  0.50000000  0.25000000  1
  Re  Re11  1  0.50000000  -0.00000000  0.75000000  1
  Si  Si0  1  0.67158044  0.17158044  0.25000000  1
  Si  Si1  1  0.32841956  0.82841956  0.25000000  1
  Si  Si2  1  0.17158044  0.32841956  0.75000000  1
  Si  Si3  1  0.82841956  0.67158044  0.75000000  1
  Si  Si4  1  0.82841956  0.67158044  0.25000000  1
  Si  Si5  1  0.17158044  0.32841956  0.25000000  1
  Si  Si6  1  0.67158044  0.17158044  0.75000000  1
  Si  Si7  1  0.32841956  0.82841956  0.75000000  1
  Si  Si8  1  0.50000000  0.50000000  0.24016148  1
  Si  Si9  1  -0.00000000  -0.00000000  0.74016148  1
  Si  Si10  1  0.50000000  0.50000000  0.75983852  1
  Si  Si11  1  -0.00000000  -0.00000000  0.25983852  1
  Si  Si12  1  0.68454415  0.97581856  0.50000000  1
  Si  Si13  1  0.31545585  0.02418144  0.50000000  1
  Si  Si14  1  0.18454415  0.52418144  -0.00000000  1
  Si  Si15  1  0.81545585  0.47581856  -0.00000000  1
  Si  Si16  1  0.02418144  0.68454415  0.50000000  1
  Si  Si17  1  0.97581856  0.31545585  0.50000000  1
  Si  Si18  1  0.47581856  0.18454415  -0.00000000  1
  Si  Si19  1  0.52418144  0.81545585  -0.00000000  1
loop_
_geom_bond_atom_site_label_1
_geom_bond_atom_site_label_2
_geom_bond_distance
_geom_bond_site_symmetry_2
Re0 Si16 2.461448 1_655
Re0 Si3 2.479543 1_555
Re0 Si4 2.479543 1_555
Re0 Si12 2.497118 1_555
Re0 Si11 2.525411 1_665
Re0 Si9 2.525411 1_665
Re0 Sm7 3.167138 1_556
Re0 Sm7 3.167138 1_555
Re1 Si17 2.461448 1_455
Re1 Si2 2.479543 1_555
Re1 Si5 2.479543 1_555
Re1 Si13 2.497118 1_555
Re1 Si11 2.525411 1_555
Re1 Si9 2.525411 1_555
Re1 Sm6 3.167138 1_555
Re1 Sm6 3.167138 1_556
Re2 Si19 2.461448 1_555
Re2 Si1 2.479543 1_555
Re2 Si7 2.479543 1_554
Re2 Si14 2.497118 1_555
Re2 Si8 2.525411 1_555
Re2 Si10 2.525411 1_554
Re2 Sm4 3.167138 1_555
Re2 Sm4 3.167138 1_554
Re3 Si18 2.461448 1_555
Re3 Si0 2.479543 1_555
Re3 Si6 2.479543 1_554
Re3 Si15 2.497118 1_555
Re3 Si8 2.525411 1_555
Re3 Si10 2.525411 1_554
Re3 Sm5 3.167138 1_554
Re3 Sm5 3.167138 1_555
Re4 Si13 2.461448 1_565
Re4 Si1 2.479543 1_555
Re4 Si7 2.479543 1_555
Re4 Si16 2.497118 1_555
Re4 Si11 2.525411 1_565
Re4 Si9 2.525411 1_565
Re4 Sm2 3.167138 1_555
Re4 Sm2 3.167138 1_556
Re5 Si12 2.461448 1_545
Re5 Si6 2.479543 1_555
Re5 Si0 2.479543 1_555
Re5 Si17 2.497118 1_555
Re5 Si11 2.525411 1_655
Re5 Si9 2.525411 1_655
Re5 Sm3 3.167138 1_556
Re5 Sm3 3.167138 1_555
Re6 Si14 2.461448 1_555
Re6 Si2 2.479543 1_554
Re6 Si5 2.479543 1_555
Re6 Si18 2.497118 1_555
Re6 Si8 2.525411 1_555
Re6 Si10 2.525411 1_554
Re6 Sm1 3.167138 1_554
Re6 Sm1 3.167138 1_555
Re7 Si15 2.461448 1_555
Re7 Si3 2.479543 1_554
Re7 Si4 2.479543 1_555
Re7 Si19 2.497118 1_555
Re7 Si8 2.525411 1_555
Re7 Si10 2.525411 1_554
Re7 Sm0 3.167138 1_554
Re7 Sm0 3.167138 1_555
Re8 Si18 2.482012 1_555
Re8 Si12 2.482012 1_545
Re8 Si13 2.482012 1_555
Re8 Si19 2.482012 1_545
Re8 Si1 2.665994 1_545
Re8 Si0 2.665994 1_555
Re8 Sm7 3.324167 1_545
Re8 Sm1 3.324167 1_555
Re8 Sm6 3.324167 1_555
Re8 Sm0 3.324167 1_545
Re9 Si15 2.482012 1_456
Re9 Si16 2.482012 1_555
Re9 Si17 2.482012 1_455
Re9 Si14 2.482012 1_556
Re9 Si2 2.665994 1_555
Re9 Si3 2.665994 1_455
Re9 Sm3 3.324167 1_456
Re9 Sm5 3.324167 1_455
Re9 Sm2 3.324167 1_556
Re9 Sm4 3.324167 1_555
Re10 Si14 2.482012 1_555
Re10 Si15 2.482012 1_455
Re10 Si16 2.482012 1_555
Re10 Si17 2.482012 1_455
Re10 Si4 2.665994 1_455
Re10 Si5 2.665994 1_555
Re10 Re9 2.813356 1_555
Re10 Re9 2.813356 1_554
Re10 Sm5 3.324167 1_455
Re10 Sm4 3.324167 1_555
Re10 Sm3 3.324167 1_455
Re10 Sm2 3.324167 1_555
Re11 Si18 2.482012 1_556
Re11 Si19 2.482012 1_546
Re11 Si12 2.482012 1_545
Re11 Si13 2.482012 1_555
Re11 Si7 2.665994 1_545
Re11 Si6 2.665994 1_555
Re11 Re8 2.813356 1_556
Re11 Re8 2.813356 1_555
Re11 Sm1 3.324167 1_555
Re11 Sm6 3.324167 1_556
Re11 Sm0 3.324167 1_545
Re11 Sm7 3.324167 1_546
Si0 Si12 2.573920 1_545
Si0 Si18 2.573920 1_555
Si0 Si6 2.813356 1_555
Si0 Si6 2.813356 1_554
Si0 Sm3 3.174346 1_555
Si0 Sm5 3.174346 1_555
Si0 Sm7 3.239548 1_545
Si0 Sm1 3.239548 1_555
Si1 Si13 2.573920 1_565
Si1 Si19 2.573920 1_555
Si1 Si7 2.813356 1_555
Si1 Si7 2.813356 1_554
Si1 Sm2 3.174346 1_555
Si1 Sm4 3.174346 1_555
Si1 Sm6 3.239548 1_565
Si1 Sm0 3.239548 1_555
Si2 Si5 2.813356 1_555
Si2 Si5 2.813356 1_556
Si2 Sm1 3.174346 1_555
Si2 Sm6 3.174346 1_556
Si2 Sm4 3.239548 1_555
Si2 Sm3 3.239548 1_456
Si3 Si4 2.813356 1_555
Si3 Si4 2.813356 1_556
Si3 Sm7 3.174346 1_556
Si3 Sm0 3.174346 1_555
Si3 Sm2 3.239548 1_656
Si3 Sm5 3.239548 1_555
Si4 Sm7 3.174346 1_555
Si4 Sm0 3.174346 1_555
Si4 Sm2 3.239548 1_655
Si4 Sm5 3.239548 1_555
Si5 Sm1 3.174346 1_555
Si5 Sm6 3.174346 1_555
Si5 Sm4 3.239548 1_555
Si5 Sm3 3.239548 1_455
Si6 Sm3 3.174346 1_556
Si6 Sm5 3.174346 1_555
Si6 Sm7 3.239548 1_546
Si6 Sm1 3.239548 1_555
Si7 Sm2 3.174346 1_556
Si7 Sm4 3.174346 1_555
Si7 Sm6 3.239548 1_566
Si7 Sm0 3.239548 1_555
Si8 Sm4 3.107812 1_555
Si8 Sm1 3.107812 1_555
Si8 Sm5 3.107812 1_555
Si8 Sm0 3.107812 1_555
Si9 Sm6 3.107812 1_556
Si9 Sm3 3.107812 1_456
Si9 Sm7 3.107812 1_446
Si9 Sm2 3.107812 1_546
Si10 Si8 2.702639 1_556
Si10 Si8 2.924073 1_555
Si10 Sm4 3.107812 1_555
Si10 Sm5 3.107812 1_555
Si10 Sm1 3.107812 1_555
Si10 Sm0 3.107812 1_555
Si11 Si9 2.702639 1_555
Si11 Si9 2.924073 1_554
Si11 Sm3 3.107812 1_455
Si11 Sm7 3.107812 1_445
Si11 Sm6 3.107812 1_555
Si11 Sm2 3.107812 1_545
Si12 Si6 2.573920 1_565
Si12 Sm0 2.872241 1_555
Si12 Sm7 3.000466 1_556
Si12 Sm7 3.000466 1_555
Si13 Si7 2.573920 1_545
Si13 Sm1 2.872241 1_555
Si13 Sm6 3.000466 1_556
Si13 Sm6 3.000466 1_555
Si14 Si5 2.573920 1_555
Si14 Si2 2.573920 1_554
Si14 Sm2 2.872241 1_555
Si14 Sm4 3.000466 1_555
Si14 Sm4 3.000466 1_554
Si15 Si4 2.573920 1_555
Si15 Si3 2.573920 1_554
Si15 Sm3 2.872241 1_555
Si15 Sm5 3.000466 1_554
Si15 Sm5 3.000466 1_555
Si16 Si3 2.573920 1_455
Si16 Si4 2.573920 1_455
Si16 Sm4 2.872241 1_555
Si16 Sm2 3.000466 1_555
Si16 Sm2 3.000466 1_556
Si17 Si2 2.573920 1_655
Si17 Si5 2.573920 1_655
Si17 Sm5 2.872241 1_555
Si17 Sm3 3.000466 1_555
Si17 Sm3 3.000466 1_556
Si18 Si6 2.573920 1_554
Si18 Sm6 2.872241 1_555
Si18 Sm1 3.000466 1_555
Si18 Sm1 3.000466 1_554
Si19 Si7 2.573920 1_554
Si19 Sm7 2.872241 1_555
Si19 Sm0 3.000466 1_554
Si19 Sm0 3.000466 1_555
