# generated using pymatgen
data_CaCo2(PO5)2
_symmetry_space_group_name_H-M   'P 1'
_cell_length_a   9.88528700
_cell_length_b   8.77516680
_cell_length_c   6.85831834
_cell_angle_alpha   77.36868219
_cell_angle_beta   60.02174349
_cell_angle_gamma   42.60957432
_symmetry_Int_Tables_number   1
_chemical_formula_structural   CaCo2(PO5)2
_chemical_formula_sum   'Ca2 Co4 P4 O20'
_cell_volume   337.41927128
_cell_formula_units_Z   2
loop_
 _symmetry_equiv_pos_site_id
 _symmetry_equiv_pos_as_xyz
  1  'x, y, z'
loop_
 _atom_site_type_symbol
 _atom_site_label
 _atom_site_symmetry_multiplicity
 _atom_site_fract_x
 _atom_site_fract_y
 _atom_site_fract_z
 _atom_site_occupancy
  Ca  Ca0  1  0.25000000  0.25000000  0.25000000  1
  Ca  Ca1  1  0.00000000  0.00000000  0.00000000  1
  Co  Co0  1  0.62500000  0.62500000  0.12500000  1
  Co  Co1  1  0.62500000  0.12500000  0.62500000  1
  Co  Co2  1  0.62500000  0.62500000  0.62500000  1
  Co  Co3  1  0.12500000  0.62500000  0.62500000  1
  P  P0  1  0.79191500  0.79191500  0.20808500  1
  P  P1  1  0.45808500  0.45808500  0.04191500  1
  P  P2  1  0.20808500  0.20808500  0.79191500  1
  P  P3  1  0.04191500  0.04191500  0.45808500  1
  O  O0  1  0.97322000  0.32730700  0.01336100  1
  O  O1  1  0.41284200  0.41284200  0.58715800  1
  O  O2  1  0.88985600  0.08139900  0.39259300  1
  O  O3  1  0.23663900  0.56388700  0.27678000  1
  O  O4  1  0.32730700  0.97322000  0.68611300  1
  O  O5  1  0.36014400  0.16860100  0.85740700  1
  O  O6  1  0.83715800  0.83715800  0.66284200  1
  O  O7  1  0.58715800  0.58715800  0.41284200  1
  O  O8  1  0.66284200  0.66284200  0.83715800  1
  O  O9  1  0.27678000  0.92269300  0.23663900  1
  O  O10  1  0.68611300  0.01336100  0.32730700  1
  O  O11  1  0.56388700  0.23663900  0.92269300  1
  O  O12  1  0.01336100  0.68611300  0.97322000  1
  O  O13  1  0.08139900  0.88985600  0.63615200  1
  O  O14  1  0.61384800  0.85740700  0.16860100  1
  O  O15  1  0.39259300  0.63615200  0.88985600  1
  O  O16  1  0.85740700  0.61384800  0.36014400  1
  O  O17  1  0.63615200  0.39259300  0.08139900  1
  O  O18  1  0.92269300  0.27678000  0.56388700  1
  O  O19  1  0.16860100  0.36014400  0.61384800  1
loop_
_geom_bond_atom_site_label_1
_geom_bond_atom_site_label_2
_geom_bond_distance
_geom_bond_site_symmetry_2
Ca0 O5 2.389991 1_554
Ca0 O16 2.389991 1_455
Ca0 O19 2.389991 1_555
Ca0 O14 2.389991 1_545
Ca0 O3 2.701754 1_555
Ca0 O11 2.701755 1_554
Ca0 O18 2.701761 1_455
Ca0 O9 2.701762 1_545
Ca1 O13 2.389991 1_544
Ca1 O17 2.389991 1_455
Ca1 O15 2.389991 1_544
Ca1 O2 2.389991 1_455
Ca1 O12 2.701754 1_544
Ca1 O10 2.701755 1_455
Ca1 O4 2.701761 1_544
Ca1 O0 2.701762 1_455
Co0 O7 1.818098 1_555
Co0 O8 1.818098 1_554
Co0 O17 2.040491 1_555
Co0 O14 2.040491 1_555
Co0 O0 2.064979 1_555
Co0 O9 2.064979 1_555
Co1 O1 1.818098 1_555
Co1 O6 1.818098 1_545
Co1 O5 2.040491 1_555
Co1 O2 2.040491 1_555
Co1 O11 2.064973 1_555
Co1 O10 2.064973 1_555
Co2 O8 1.818098 1_555
Co2 O7 1.818098 1_555
Co2 O15 2.040491 1_555
Co2 O16 2.040491 1_555
Co2 O18 2.064978 1_555
Co2 O4 2.064978 1_555
Co3 O1 1.818098 1_555
Co3 O6 1.818098 1_455
Co3 O13 2.040491 1_555
Co3 O19 2.040491 1_555
Co3 O12 2.064980 1_555
Co3 O3 2.064980 1_555
O0 P2 1.545069 1_654
O2 P3 1.556049 1_655
O3 P1 1.545071 1_555
O4 P2 1.545067 1_565
O5 P2 1.556049 1_555
O9 P3 1.545069 1_565
O10 P0 1.545075 1_545
O11 P1 1.545075 1_556
O12 P0 1.545071 1_456
O13 P3 1.556049 1_565
O14 P0 1.556049 1_555
O15 P1 1.556049 1_556
O16 P0 1.556049 1_555
O17 P1 1.556049 1_555
O18 P3 1.545067 1_655
O19 P2 1.556049 1_555
