# generated using pymatgen
data_Pr3Ge5
_symmetry_space_group_name_H-M   'P 1'
_cell_length_a   5.99868807
_cell_length_b   7.72286180
_cell_length_c   9.47428447
_cell_angle_alpha   82.93762683
_cell_angle_beta   71.54393898
_cell_angle_gamma   67.14675975
_symmetry_Int_Tables_number   1
_chemical_formula_structural   Pr3Ge5
_chemical_formula_sum   'Pr6 Ge10'
_cell_volume   383.65904316
_cell_formula_units_Z   2
loop_
 _symmetry_equiv_pos_site_id
 _symmetry_equiv_pos_as_xyz
  1  'x, y, z'
loop_
 _atom_site_type_symbol
 _atom_site_label
 _atom_site_symmetry_multiplicity
 _atom_site_fract_x
 _atom_site_fract_y
 _atom_site_fract_z
 _atom_site_occupancy
  Pr  Pr0  1  0.02474910  0.61457325  0.83643138  1
  Pr  Pr1  1  0.36067565  0.61457325  0.16356862  1
  Pr  Pr2  1  0.11118047  0.11457325  0.66356862  1
  Pr  Pr3  1  0.77424627  0.11457325  0.33643138  1
  Pr  Pr4  1  0.44837178  0.10325844  0.00000000  1
  Pr  Pr5  1  0.69837178  0.60325844  0.50000000  1
  Ge  Ge0  1  0.50905070  0.27599709  0.67462302  1
  Ge  Ge1  1  0.21495121  0.27599709  0.32537698  1
  Ge  Ge2  1  0.43367272  0.77599709  0.82537698  1
  Ge  Ge3  1  0.79032920  0.77599709  0.17462302  1
  Ge  Ge4  1  0.33055009  0.92553508  0.35236422  1
  Ge  Ge5  1  0.74391383  0.92553508  0.64763578  1
  Ge  Ge6  1  0.93291530  0.42553508  0.14763578  1
  Ge  Ge7  1  0.64154961  0.42553508  0.85236422  1
  Ge  Ge8  1  0.00923665  0.98152571  0.00000000  1
  Ge  Ge9  1  0.25923665  0.48152571  0.50000000  1
loop_
_geom_bond_atom_site_label_1
_geom_bond_atom_site_label_2
_geom_bond_distance
_geom_bond_site_symmetry_2
Ge0 Ge5 2.521114 1_545
Ge0 Ge9 2.564891 1_555
Ge0 Ge7 2.615309 1_555
Ge0 Pr2 3.124570 1_555
Ge0 Pr0 3.145252 1_555
Ge0 Pr4 3.173443 1_556
Ge0 Pr5 3.228975 1_555
Ge0 Pr3 3.250500 1_555
Ge0 Pr2 3.302509 1_655
Ge1 Ge4 2.521114 1_545
Ge1 Ge9 2.564891 1_555
Ge1 Ge6 2.615305 1_455
Ge1 Pr3 3.124576 1_555
Ge1 Pr1 3.145250 1_555
Ge1 Pr4 3.173442 1_555
Ge1 Pr5 3.228966 1_455
Ge1 Pr2 3.250499 1_555
Ge1 Pr3 3.302503 1_455
Ge2 Ge7 2.521115 1_555
Ge2 Ge8 2.564888 1_556
Ge2 Ge5 2.615313 1_555
Ge2 Pr0 3.124564 1_555
Ge2 Pr2 3.145250 1_565
Ge2 Pr5 3.173443 1_555
Ge2 Pr4 3.228977 1_566
Ge2 Pr1 3.250499 1_556
Ge2 Pr0 3.302514 1_655
Ge3 Ge6 2.521114 1_555
Ge3 Ge8 2.564888 1_655
Ge3 Ge4 2.615313 1_555
Ge3 Pr1 3.124559 1_655
Ge3 Pr3 3.145252 1_565
Ge3 Pr5 3.173442 1_555
Ge3 Pr4 3.228969 1_565
Ge3 Pr0 3.250500 1_654
Ge3 Pr1 3.302520 1_555
Ge4 Pr1 3.084464 1_555
Ge4 Pr2 3.109010 1_565
Ge4 Pr3 3.125842 1_465
Ge4 Pr5 3.138780 1_555
Ge4 Pr4 3.414840 1_565
Ge4 Pr3 3.456566 1_565
Ge5 Pr0 3.084462 1_655
Ge5 Pr3 3.109010 1_565
Ge5 Pr2 3.125847 1_665
Ge5 Pr5 3.138770 1_555
Ge5 Pr4 3.414839 1_566
Ge5 Pr2 3.456561 1_565
Ge6 Pr3 3.084461 1_555
Ge6 Pr0 3.109010 1_654
Ge6 Pr1 3.125858 1_555
Ge6 Pr4 3.138777 1_655
Ge6 Pr5 3.414839 1_555
Ge6 Pr1 3.456550 1_655
Ge7 Pr2 3.084462 1_655
Ge7 Pr1 3.109011 1_556
Ge7 Pr0 3.125847 1_655
Ge7 Pr4 3.138770 1_556
Ge7 Pr5 3.414839 1_555
Ge7 Pr0 3.456561 1_555
Ge8 Pr4 3.121944 1_465
Ge8 Pr4 3.121961 1_565
Ge8 Pr3 3.168299 1_465
Ge8 Pr2 3.168299 1_564
Ge8 Pr1 3.350388 1_555
Ge8 Pr0 3.350391 1_554
Ge9 Pr5 3.121944 1_455
Ge9 Pr5 3.121961 1_555
Ge9 Pr0 3.168299 1_555
Ge9 Pr1 3.168299 1_555
Ge9 Pr2 3.350391 1_555
Ge9 Pr3 3.350394 1_555
