# generated using pymatgen
data_Yb2Ni7
_symmetry_space_group_name_H-M   'P 1'
_cell_length_a   4.87913314
_cell_length_b   4.87913300
_cell_length_c   12.15204731
_cell_angle_alpha   78.41897021
_cell_angle_beta   78.41897229
_cell_angle_gamma   59.99999417
_symmetry_Int_Tables_number   1
_chemical_formula_structural   Yb2Ni7
_chemical_formula_sum   'Yb4 Ni14'
_cell_volume   243.70898755
_cell_formula_units_Z   2
loop_
 _symmetry_equiv_pos_site_id
 _symmetry_equiv_pos_as_xyz
  1  'x, y, z'
loop_
 _atom_site_type_symbol
 _atom_site_label
 _atom_site_symmetry_multiplicity
 _atom_site_fract_x
 _atom_site_fract_y
 _atom_site_fract_z
 _atom_site_occupancy
  Yb  Yb0  1  0.94845500  0.94845500  0.15463600  1
  Yb  Yb1  1  0.05154500  0.05154500  0.84536400  1
  Yb  Yb2  1  0.85270700  0.85270700  0.44187800  1
  Yb  Yb3  1  0.14729300  0.14729300  0.55812200  1
  Ni  Ni0  1  0.50000000  0.50000000  0.50000000  1
  Ni  Ni1  1  0.72248000  0.72248000  0.83255900  1
  Ni  Ni2  1  0.27752000  0.27752000  0.16744100  1
  Ni  Ni3  1  0.61137000  0.61137000  0.16589000  1
  Ni  Ni4  1  0.38863000  0.38863000  0.83411000  1
  Ni  Ni5  1  0.00000000  0.50000000  0.00000000  1
  Ni  Ni6  1  0.50000000  0.00000000  0.00000000  1
  Ni  Ni7  1  0.50000000  0.50000000  0.00000000  1
  Ni  Ni8  1  0.38845800  0.38845800  0.33172000  1
  Ni  Ni9  1  0.89136400  0.38845800  0.33172000  1
  Ni  Ni10  1  0.38845800  0.89136400  0.33172000  1
  Ni  Ni11  1  0.61154200  0.61154200  0.66828000  1
  Ni  Ni12  1  0.10863600  0.61154200  0.66828000  1
  Ni  Ni13  1  0.61154200  0.10863600  0.66828000  1
loop_
_geom_bond_atom_site_label_1
_geom_bond_atom_site_label_2
_geom_bond_distance
_geom_bond_site_symmetry_2
Ni0 Ni10 2.442140 1_555
Ni0 Ni13 2.442140 1_555
Ni0 Ni12 2.442140 1_555
Ni0 Ni9 2.442140 1_555
Ni0 Ni11 2.442140 1_555
Ni0 Ni8 2.442140 1_555
Ni0 Yb3 2.899543 1_555
Ni0 Yb2 2.899543 1_555
Ni0 Yb3 2.899547 1_565
Ni0 Yb2 2.899547 1_545
Ni0 Yb3 2.899547 1_655
Ni0 Yb2 2.899547 1_455
Ni1 Ni11 2.394158 1_555
Ni1 Ni13 2.394160 1_565
Ni1 Ni12 2.394160 1_655
Ni1 Ni7 2.429311 1_556
Ni1 Ni5 2.429314 1_656
Ni1 Ni6 2.429314 1_566
Ni1 Yb1 2.821033 1_655
Ni1 Yb1 2.821033 1_565
Ni1 Yb1 2.821033 1_665
Ni2 Ni8 2.394158 1_555
Ni2 Ni9 2.394160 1_455
Ni2 Ni7 2.429311 1_555
Ni2 Ni5 2.429314 1_555
Ni2 Ni6 2.429314 1_555
Ni2 Yb0 2.821033 1_455
Ni2 Yb0 2.821033 1_545
Ni2 Yb0 2.821033 1_445
Ni3 Ni6 2.414398 1_565
Ni3 Ni5 2.414398 1_655
Ni3 Ni7 2.414398 1_555
Ni3 Ni9 2.418608 1_555
Ni3 Ni8 2.418608 1_555
Ni3 Yb0 2.820107 1_545
Ni3 Yb0 2.820107 1_455
Ni3 Yb0 2.820111 1_555
Ni4 Ni6 2.414398 1_556
Ni4 Ni5 2.414398 1_556
Ni4 Ni7 2.414398 1_556
Ni4 Yb1 2.820107 1_565
Ni4 Yb1 2.820107 1_655
Ni4 Yb1 2.820111 1_555
Ni5 Ni6 2.439566 1_465
Ni5 Ni6 2.439566 1_555
Ni5 Ni7 2.439567 1_455
Ni5 Ni7 2.439567 1_555
Ni5 Yb0 3.048426 1_445
Ni5 Yb1 3.048426 1_564
Ni5 Yb0 3.048430 1_455
Ni5 Yb1 3.048430 1_554
Ni6 Ni7 2.439567 1_555
Ni6 Ni7 2.439567 1_545
Ni6 Yb1 3.048426 1_654
Ni6 Yb0 3.048426 1_445
Ni6 Yb1 3.048430 1_554
Ni6 Yb0 3.048430 1_545
Ni7 Yb1 3.048428 1_564
Ni7 Yb0 3.048428 1_545
Ni7 Yb1 3.048428 1_654
Ni7 Yb0 3.048428 1_455
Ni8 Ni9 2.425388 1_455
Ni8 Ni9 2.453745 1_555
Ni8 Yb2 2.765362 1_545
Ni8 Yb2 2.765362 1_455
Ni8 Yb3 3.020504 1_555
Ni8 Yb0 3.214580 1_455
Ni8 Yb0 3.214580 1_545
Ni9 Yb2 2.765360 1_555
Ni9 Yb2 2.765365 1_545
Ni9 Yb3 3.020506 1_655
Ni9 Yb0 3.214578 1_545
Ni9 Yb0 3.214582 1_555
Ni10 Ni2 2.394160 1_565
Ni10 Ni3 2.418608 1_555
Ni10 Ni9 2.425388 1_465
Ni10 Ni8 2.425388 1_565
Ni10 Ni9 2.453745 1_555
Ni10 Ni8 2.453745 1_555
Ni10 Yb2 2.765360 1_555
Ni10 Yb2 2.765365 1_455
Ni10 Yb3 3.020506 1_565
Ni10 Yb0 3.214578 1_455
Ni10 Yb0 3.214582 1_555
Ni11 Ni4 2.418608 1_555
Ni11 Ni13 2.425388 1_565
Ni11 Ni12 2.425388 1_655
Ni11 Ni13 2.453745 1_555
Ni11 Ni12 2.453745 1_555
Ni11 Yb3 2.765362 1_565
Ni11 Yb3 2.765362 1_655
Ni11 Yb2 3.020504 1_555
Ni11 Yb1 3.214580 1_655
Ni11 Yb1 3.214580 1_565
Ni12 Ni4 2.418608 1_555
Ni12 Ni13 2.425388 1_465
Ni12 Ni13 2.453745 1_555
Ni12 Yb3 2.765360 1_555
Ni12 Yb3 2.765365 1_565
Ni12 Yb2 3.020506 1_455
Ni12 Yb1 3.214578 1_565
Ni12 Yb1 3.214582 1_555
Ni13 Ni4 2.418608 1_555
Ni13 Yb3 2.765360 1_555
Ni13 Yb3 2.765365 1_655
Ni13 Yb2 3.020506 1_545
Ni13 Yb1 3.214578 1_655
Ni13 Yb1 3.214582 1_555
