# generated using pymatgen
data_UBiO5
_symmetry_space_group_name_H-M   'P 1'
_cell_length_a   7.99145800
_cell_length_b   7.50289300
_cell_length_c   10.42108930
_cell_angle_alpha   46.85362081
_cell_angle_beta   90.00000000
_cell_angle_gamma   90.00000000
_symmetry_Int_Tables_number   1
_chemical_formula_structural   UBiO5
_chemical_formula_sum   'U4 Bi4 O20'
_cell_volume   455.88787665
_cell_formula_units_Z   4
loop_
 _symmetry_equiv_pos_site_id
 _symmetry_equiv_pos_as_xyz
  1  'x, y, z'
loop_
 _atom_site_type_symbol
 _atom_site_label
 _atom_site_symmetry_multiplicity
 _atom_site_fract_x
 _atom_site_fract_y
 _atom_site_fract_z
 _atom_site_occupancy
  U  U0  1  0.50159900  0.15763700  0.18643000  1
  U  U1  1  0.99840100  0.15763700  0.68643000  1
  U  U2  1  0.49840100  0.84236300  0.81357000  1
  U  U3  1  0.00159900  0.84236300  0.31357000  1
  Bi  Bi0  1  0.11470900  0.57016200  0.82138400  1
  Bi  Bi1  1  0.38529100  0.57016200  0.32138400  1
  Bi  Bi2  1  0.88529100  0.42983800  0.17861600  1
  Bi  Bi3  1  0.61470900  0.42983800  0.67861600  1
  O  O0  1  0.09554300  0.86294000  0.46558600  1
  O  O1  1  0.40445700  0.86294000  0.96558600  1
  O  O2  1  0.90445700  0.13706000  0.53441400  1
  O  O3  1  0.59554300  0.13706000  0.03441400  1
  O  O4  1  0.39771200  0.21186000  0.31743000  1
  O  O5  1  0.10228800  0.21186000  0.81743000  1
  O  O6  1  0.60228800  0.78814000  0.68257000  1
  O  O7  1  0.89771200  0.78814000  0.18257000  1
  O  O8  1  0.35413100  0.47847700  0.94694900  1
  O  O9  1  0.14586900  0.47847700  0.44694900  1
  O  O10  1  0.64586900  0.52152300  0.05305100  1
  O  O11  1  0.85413100  0.52152300  0.55305100  1
  O  O12  1  0.00264800  0.73875800  0.91158600  1
  O  O13  1  0.49735200  0.73875800  0.41158600  1
  O  O14  1  0.99735200  0.26124200  0.08841400  1
  O  O15  1  0.50264800  0.26124200  0.58841400  1
  O  O16  1  0.23797900  0.94334900  0.69458100  1
  O  O17  1  0.26202100  0.94334900  0.19458100  1
  O  O18  1  0.76202100  0.05665100  0.30541900  1
  O  O19  1  0.73797900  0.05665100  0.80541900  1
loop_
_geom_bond_atom_site_label_1
_geom_bond_atom_site_label_2
_geom_bond_distance
_geom_bond_site_symmetry_2
Bi0 O8 2.148287 1_555
Bi0 O12 2.216307 1_555
Bi0 O14 2.274595 1_456
Bi0 O16 2.344344 1_555
Bi0 O5 2.718459 1_555
Bi0 O0 2.730697 1_555
Bi1 O9 2.148287 1_555
Bi1 O13 2.216307 1_555
Bi1 O15 2.274595 1_555
Bi1 O17 2.344344 1_555
Bi1 O4 2.718459 1_555
Bi1 O1 2.730697 1_554
Bi2 O10 2.148287 1_555
Bi2 O14 2.216307 1_555
Bi2 O12 2.274595 1_654
Bi2 O18 2.344344 1_555
Bi2 O7 2.718459 1_555
Bi2 O2 2.730697 1_555
Bi3 O11 2.148287 1_555
Bi3 O15 2.216307 1_555
Bi3 O13 2.274595 1_555
Bi3 O19 2.344344 1_555
Bi3 O6 2.718459 1_555
Bi3 O3 2.730697 1_556
O0 U3 1.852451 1_555
O1 U2 1.852451 1_555
O2 U1 1.852451 1_555
O3 U0 1.852451 1_555
O4 U0 1.864952 1_555
O5 U1 1.864952 1_455
O6 U2 1.864952 1_555
O7 U3 1.864952 1_655
O8 U0 2.279271 1_556
O8 U2 2.350504 1_555
O9 U1 2.279271 1_455
O9 U3 2.350504 1_555
O10 U2 2.279271 1_554
O10 U0 2.350504 1_555
O11 U3 2.279271 1_655
O11 U1 2.350504 1_555
O12 U1 2.301725 1_465
O13 U0 2.301725 1_565
O14 U3 2.301725 1_645
O15 U2 2.301725 1_545
O16 U2 2.271090 1_555
O16 U1 2.463938 1_465
O17 U3 2.271090 1_555
O17 U0 2.463938 1_565
O18 U0 2.271090 1_555
O18 U3 2.463938 1_645
O19 U1 2.271090 1_555
O19 U2 2.463938 1_545
