# generated using pymatgen
data_Er(Mo3Se4)2
_symmetry_space_group_name_H-M   'P 1'
_cell_length_a   6.77849604
_cell_length_b   6.77849604
_cell_length_c   6.77849538
_cell_angle_alpha   89.37402051
_cell_angle_beta   89.37402051
_cell_angle_gamma   89.37402665
_symmetry_Int_Tables_number   1
_chemical_formula_structural   Er(Mo3Se4)2
_chemical_formula_sum   'Er1 Mo6 Se8'
_cell_volume   311.40300190
_cell_formula_units_Z   1
loop_
 _symmetry_equiv_pos_site_id
 _symmetry_equiv_pos_as_xyz
  1  'x, y, z'
loop_
 _atom_site_type_symbol
 _atom_site_label
 _atom_site_symmetry_multiplicity
 _atom_site_fract_x
 _atom_site_fract_y
 _atom_site_fract_z
 _atom_site_occupancy
  Er  Er0  1  0.00000000  0.00000000  0.00000000  1
  Mo  Mo0  1  0.76713900  0.57676900  0.44185100  1
  Mo  Mo1  1  0.44185100  0.76713900  0.57676900  1
  Mo  Mo2  1  0.57676900  0.44185100  0.76713900  1
  Mo  Mo3  1  0.23286100  0.42323100  0.55814900  1
  Mo  Mo4  1  0.55814900  0.23286100  0.42323100  1
  Mo  Mo5  1  0.42323100  0.55814900  0.23286100  1
  Se  Se0  1  0.76434200  0.76434200  0.76434200  1
  Se  Se1  1  0.23565800  0.23565800  0.23565800  1
  Se  Se2  1  0.24377100  0.63161900  0.87692300  1
  Se  Se3  1  0.87692300  0.24377100  0.63161900  1
  Se  Se4  1  0.63161900  0.87692300  0.24377100  1
  Se  Se5  1  0.75622900  0.36838100  0.12307700  1
  Se  Se6  1  0.12307700  0.75622900  0.36838100  1
  Se  Se7  1  0.36838100  0.12307700  0.75622900  1
loop_
_geom_bond_atom_site_label_1
_geom_bond_atom_site_label_2
_geom_bond_distance
_geom_bond_site_symmetry_2
Er0 Se1 2.796854 1_555
Er0 Se0 2.796854 1_444
Er0 Se4 3.096294 1_445
Er0 Se7 3.096294 1_554
Er0 Se6 3.096294 1_545
Er0 Se3 3.096294 1_454
Er0 Se2 3.096295 1_544
Er0 Se5 3.096295 1_455
Mo0 Se0 2.540647 1_555
Mo0 Se4 2.590879 1_555
Mo0 Se5 2.596603 1_555
Mo0 Se3 2.687806 1_555
Mo0 Se6 2.752034 1_655
Mo1 Se0 2.540647 1_555
Mo1 Se2 2.590879 1_555
Mo1 Se6 2.596603 1_555
Mo1 Se4 2.687806 1_555
Mo1 Se7 2.752034 1_565
Mo2 Se0 2.540647 1_555
Mo2 Se3 2.590879 1_555
Mo2 Se7 2.596603 1_555
Mo2 Se2 2.687806 1_555
Mo2 Se5 2.752034 1_556
Mo3 Se1 2.540647 1_555
Mo3 Se7 2.590879 1_555
Mo3 Se2 2.596603 1_555
Mo3 Se6 2.687806 1_555
Mo3 Se3 2.752034 1_455
Mo4 Se1 2.540647 1_555
Mo4 Se5 2.590879 1_555
Mo4 Se3 2.596603 1_555
Mo4 Se7 2.687806 1_555
Mo4 Se4 2.752034 1_545
Mo5 Se1 2.540647 1_555
Mo5 Se6 2.590879 1_555
Mo5 Se4 2.596603 1_555
Mo5 Se5 2.687806 1_555
Mo5 Se2 2.752034 1_554
