# generated using pymatgen
data_Tb2MgSe4
_symmetry_space_group_name_H-M   'P 1'
_cell_length_a   14.11971455
_cell_length_b   8.21822563
_cell_length_c   6.81888864
_cell_angle_alpha   89.99982902
_cell_angle_beta   90.00000702
_cell_angle_gamma   90.00011708
_symmetry_Int_Tables_number   1
_chemical_formula_structural   Tb2MgSe4
_chemical_formula_sum   'Tb8 Mg4 Se16'
_cell_volume   791.25701892
_cell_formula_units_Z   4
loop_
 _symmetry_equiv_pos_site_id
 _symmetry_equiv_pos_as_xyz
  1  'x, y, z'
loop_
 _atom_site_type_symbol
 _atom_site_label
 _atom_site_symmetry_multiplicity
 _atom_site_fract_x
 _atom_site_fract_y
 _atom_site_fract_z
 _atom_site_occupancy
  Tb  Tb0  1  0.00000055  -0.00000605  0.50000684  1
  Tb  Tb1  1  0.49999772  -0.00000465  0.99998752  1
  Tb  Tb2  1  0.49999796  0.50000584  0.99998708  1
  Tb  Tb3  1  0.00000063  0.50000712  0.50000694  1
  Tb  Tb4  1  0.23406952  0.75000136  0.99515385  1
  Tb  Tb5  1  0.76593514  0.24999985  0.00482812  1
  Tb  Tb6  1  0.26592789  0.25000103  0.49515339  1
  Tb  Tb7  1  0.73406102  0.75000032  0.50484272  1
  Mg  Mg0  1  0.09451674  0.25000083  0.91377062  1
  Mg  Mg1  1  0.90550425  0.75000103  0.08624951  1
  Mg  Mg2  1  0.40548769  0.75000047  0.41375492  1
  Mg  Mg3  1  0.59448004  0.24999911  0.58619753  1
  Se  Se0  1  0.17040486  0.00636131  0.73530642  1
  Se  Se1  1  0.82960158  0.99363102  0.26476538  1
  Se  Se2  1  0.32960300  0.99362923  0.23526542  1
  Se  Se3  1  0.67039932  0.00637825  0.76469174  1
  Se  Se4  1  0.67040446  0.49361524  0.76470666  1
  Se  Se5  1  0.32960352  0.50637345  0.23526457  1
  Se  Se6  1  0.82960198  0.50637072  0.26476509  1
  Se  Se7  1  0.17040535  0.49364112  0.73530695  1
  Se  Se8  1  0.07221009  0.75000106  0.24622094  1
  Se  Se9  1  0.92779269  0.25000031  0.75383855  1
  Se  Se10  1  0.42778544  0.25000177  0.74619009  1
  Se  Se11  1  0.57221674  0.75000019  0.25381094  1
  Se  Se12  1  0.08999194  0.25000126  0.28274324  1
  Se  Se13  1  0.90999796  0.75000069  0.71725755  1
  Se  Se14  1  0.41000068  0.74998745  0.78271854  1
  Se  Se15  1  0.59000423  0.25000068  0.21721191  1
loop_
_geom_bond_atom_site_label_1
_geom_bond_atom_site_label_2
_geom_bond_distance
_geom_bond_site_symmetry_2
Mg0 Se12 2.516794 1_556
Mg0 Se7 2.576474 1_555
Mg0 Se0 2.576477 1_555
Mg0 Se9 2.594434 1_455
Mg1 Se13 2.516915 1_554
Mg1 Se6 2.576657 1_555
Mg1 Se1 2.576668 1_555
Mg1 Se8 2.594313 1_655
Mg2 Se14 2.516729 1_555
Mg2 Se5 2.576454 1_555
Mg2 Se2 2.576463 1_555
Mg2 Se11 2.594532 1_555
Mg3 Se15 2.516865 1_555
Mg3 Se3 2.576631 1_555
Mg3 Se4 2.576682 1_555
Mg3 Se10 2.594230 1_555
Se0 Tb0 2.892443 1_555
Se0 Tb4 2.895909 1_545
Se0 Tb6 2.917178 1_555
Se1 Tb0 2.892159 1_665
Se1 Tb5 2.896344 1_565
Se1 Tb7 2.916952 1_555
Se2 Tb1 2.892248 1_564
Se2 Tb6 2.896202 1_565
Se2 Tb4 2.917027 1_554
Se3 Tb1 2.892399 1_555
Se3 Tb7 2.896018 1_545
Se3 Tb5 2.917102 1_556
Se4 Tb2 2.892400 1_555
Se4 Tb7 2.896090 1_555
Se4 Tb5 2.916973 1_556
Se5 Tb2 2.892244 1_554
Se5 Tb6 2.896201 1_555
Se5 Tb4 2.917024 1_554
Se6 Tb3 2.892157 1_655
Se6 Tb5 2.896362 1_555
Se6 Tb7 2.916960 1_555
Se7 Tb3 2.892449 1_555
Se7 Tb4 2.895911 1_555
Se7 Tb6 2.917189 1_555
Se8 Tb4 2.855527 1_554
Se8 Tb3 2.873198 1_555
Se8 Tb0 2.873203 1_565
Se9 Tb5 2.855189 1_556
Se9 Tb3 2.873454 1_655
Se9 Tb0 2.873461 1_655
Se10 Tb6 2.855381 1_555
Se10 Tb2 2.873326 1_555
Se10 Tb1 2.873336 1_555
Se11 Tb7 2.855211 1_555
Se11 Tb1 2.873410 1_564
Se11 Tb2 2.873410 1_554
Se12 Tb0 2.833868 1_555
Se12 Tb3 2.833870 1_555
Se12 Tb6 2.875577 1_555
Se13 Tb0 2.833810 1_665
Se13 Tb3 2.833822 1_655
Se13 Tb7 2.875605 1_555
Se14 Tb2 2.833774 1_555
Se14 Tb1 2.833933 1_565
Se14 Tb4 2.875605 1_555
Se15 Tb2 2.833815 1_554
Se15 Tb1 2.833819 1_554
Se15 Tb5 2.875425 1_555
