# generated using pymatgen
data_Mg6NbAl
_symmetry_space_group_name_H-M   'P 1'
_cell_length_a   4.86088100
_cell_length_b   6.27387800
_cell_length_c   10.81716400
_cell_angle_alpha   90.00000000
_cell_angle_beta   90.00000000
_cell_angle_gamma   90.00000000
_symmetry_Int_Tables_number   1
_chemical_formula_structural   Mg6NbAl
_chemical_formula_sum   'Mg12 Nb2 Al2'
_cell_volume   329.88644636
_cell_formula_units_Z   2
loop_
 _symmetry_equiv_pos_site_id
 _symmetry_equiv_pos_as_xyz
  1  'x, y, z'
loop_
 _atom_site_type_symbol
 _atom_site_label
 _atom_site_symmetry_multiplicity
 _atom_site_fract_x
 _atom_site_fract_y
 _atom_site_fract_z
 _atom_site_occupancy
  Mg  Mg0  1  0.00000000  0.25755000  0.08596600  1
  Mg  Mg1  1  0.00000000  0.74245000  0.08596600  1
  Mg  Mg2  1  0.00000000  0.50000000  0.83336500  1
  Mg  Mg3  1  0.50000000  0.24614700  0.91789700  1
  Mg  Mg4  1  0.50000000  0.75385300  0.91789700  1
  Mg  Mg5  1  0.50000000  0.50000000  0.66606500  1
  Mg  Mg6  1  0.00000000  0.75755000  0.58596600  1
  Mg  Mg7  1  0.00000000  0.24245000  0.58596600  1
  Mg  Mg8  1  0.00000000  0.00000000  0.33336500  1
  Mg  Mg9  1  0.50000000  0.74614700  0.41789700  1
  Mg  Mg10  1  0.50000000  0.25385300  0.41789700  1
  Mg  Mg11  1  0.50000000  0.00000000  0.16606500  1
  Nb  Nb0  1  0.50000000  0.50000000  0.17478500  1
  Nb  Nb1  1  0.50000000  0.00000000  0.67478500  1
  Al  Al0  1  0.00000000  0.50000000  0.31806000  1
  Al  Al1  1  0.00000000  0.00000000  0.81806000  1
loop_
_geom_bond_atom_site_label_1
_geom_bond_atom_site_label_2
_geom_bond_distance
_geom_bond_site_symmetry_2
Mg0 Nb0 3.023883 1_455
Mg0 Nb0 3.023883 1_555
Mg0 Mg3 3.036016 1_554
Mg0 Mg3 3.036016 1_454
Mg0 Mg1 3.042203 1_555
Mg0 Mg11 3.044453 1_455
Mg0 Mg11 3.044453 1_555
Mg0 Mg8 3.126138 1_555
Mg0 Mg2 3.127284 1_554
Mg0 Mg1 3.231675 1_545
Mg1 Nb0 3.023883 1_455
Mg1 Nb0 3.023883 1_555
Mg1 Mg4 3.036016 1_554
Mg1 Mg4 3.036016 1_454
Mg1 Mg11 3.044453 1_565
Mg1 Mg11 3.044453 1_465
Mg1 Mg8 3.126138 1_565
Mg1 Mg2 3.127284 1_554
Mg2 Mg5 3.030197 1_555
Mg2 Mg5 3.030197 1_455
Mg2 Mg4 3.046256 1_455
Mg2 Mg4 3.046256 1_555
Mg2 Mg3 3.046256 1_455
Mg2 Mg3 3.046256 1_555
Mg2 Mg6 3.126138 1_555
Mg2 Mg7 3.126138 1_555
Mg3 Nb1 3.049690 1_555
Mg3 Mg4 3.088592 1_545
Mg3 Mg5 3.155515 1_555
Mg3 Mg4 3.185286 1_555
Mg3 Nb0 3.202848 1_556
Mg4 Nb1 3.049690 1_565
Mg4 Mg5 3.155515 1_555
Mg4 Nb0 3.202848 1_556
Mg5 Mg7 3.044453 1_555
Mg5 Mg7 3.044453 1_655
Mg5 Mg6 3.044453 1_555
Mg5 Mg6 3.044453 1_655
Mg5 Mg9 3.096975 1_555
Mg5 Nb1 3.138357 1_555
Mg5 Nb1 3.138357 1_565
Mg6 Nb1 3.023883 1_465
Mg6 Nb1 3.023883 1_565
Mg6 Mg9 3.036016 1_455
Mg6 Mg9 3.036016 1_555
Mg6 Mg7 3.042203 1_565
Mg6 Mg8 3.127284 1_565
Mg6 Mg7 3.231675 1_555
Mg7 Nb1 3.023883 1_555
Mg7 Nb1 3.023883 1_455
Mg7 Mg8 3.127284 1_555
Mg8 Mg9 3.046256 1_545
Mg8 Mg9 3.046256 1_445
Mg9 Nb0 3.049690 1_555
Mg9 Nb1 3.202848 1_565
Mg10 Mg7 3.036016 1_655
Mg10 Mg7 3.036016 1_555
Mg10 Mg8 3.046256 1_655
Mg10 Mg8 3.046256 1_555
Mg10 Nb0 3.049690 1_555
Mg10 Mg9 3.088592 1_555
Mg10 Mg5 3.096975 1_555
Mg10 Mg11 3.155515 1_555
Mg10 Mg9 3.185286 1_545
Mg10 Nb1 3.202848 1_555
Mg11 Mg8 3.030197 1_655
Mg11 Mg8 3.030197 1_555
Mg11 Mg3 3.096975 1_554
Mg11 Mg4 3.096975 1_544
Mg11 Nb0 3.138357 1_545
Mg11 Nb0 3.138357 1_555
Mg11 Mg9 3.155515 1_545
Al0 Nb0 2.882536 1_555
Al0 Nb0 2.882536 1_455
Al0 Mg1 2.935448 1_555
Al0 Mg0 2.935448 1_555
Al0 Mg9 3.075417 1_555
Al0 Mg9 3.075417 1_455
Al0 Mg10 3.075417 1_455
Al0 Mg10 3.075417 1_555
Al0 Mg8 3.141305 1_565
Al0 Mg8 3.141305 1_555
Al0 Mg7 3.318017 1_555
Al0 Mg6 3.318017 1_555
Al1 Nb1 2.882536 1_455
Al1 Nb1 2.882536 1_555
Al1 Mg7 2.935448 1_555
Al1 Mg6 2.935448 1_545
Al1 Mg3 3.075417 1_555
Al1 Mg3 3.075417 1_455
Al1 Mg4 3.075417 1_445
Al1 Mg4 3.075417 1_545
Al1 Mg2 3.141305 1_545
Al1 Mg2 3.141305 1_555
Al1 Mg1 3.318017 1_546
Al1 Mg0 3.318017 1_556
