# generated using pymatgen
data_SmCd(BO2)5
_symmetry_space_group_name_H-M   'P 1'
_cell_length_a   7.98028700
_cell_length_b   8.70857800
_cell_length_c   12.75591531
_cell_angle_alpha   49.02930143
_cell_angle_beta   90.00000000
_cell_angle_gamma   90.00000000
_symmetry_Int_Tables_number   1
_chemical_formula_structural   SmCd(BO2)5
_chemical_formula_sum   'Sm4 Cd4 B20 O40'
_cell_volume   669.34529692
_cell_formula_units_Z   4
loop_
 _symmetry_equiv_pos_site_id
 _symmetry_equiv_pos_as_xyz
  1  'x, y, z'
loop_
 _atom_site_type_symbol
 _atom_site_label
 _atom_site_symmetry_multiplicity
 _atom_site_fract_x
 _atom_site_fract_y
 _atom_site_fract_z
 _atom_site_occupancy
  Sm  Sm0  1  0.18309100  0.95203600  0.24030900  1
  Sm  Sm1  1  0.68309100  0.04796400  0.25969100  1
  Sm  Sm2  1  0.81690900  0.04796400  0.75969100  1
  Sm  Sm3  1  0.31690900  0.95203600  0.74030900  1
  Cd  Cd0  1  0.40504500  0.47308800  0.12874200  1
  Cd  Cd1  1  0.90504500  0.52691200  0.37125800  1
  Cd  Cd2  1  0.59495500  0.52691200  0.87125800  1
  Cd  Cd3  1  0.09495500  0.47308800  0.62874200  1
  B  B0  1  0.57379700  0.66834100  0.24781500  1
  B  B1  1  0.17461700  0.52918600  0.90554900  1
  B  B2  1  0.67461800  0.47081400  0.59445100  1
  B  B3  1  0.82538300  0.47081400  0.09445100  1
  B  B4  1  0.32538300  0.52918600  0.40554900  1
  B  B5  1  0.89446700  0.85472400  0.48895000  1
  B  B6  1  0.39446700  0.14527600  0.01105000  1
  B  B7  1  0.10553300  0.14527600  0.51105000  1
  B  B8  1  0.60553300  0.85472400  0.98895000  1
  B  B9  1  0.07379700  0.33165900  0.25218500  1
  B  B10  1  0.42620300  0.33165900  0.75218500  1
  B  B11  1  0.92620300  0.66834100  0.74781500  1
  B  B12  1  0.32381500  0.07762100  0.40519100  1
  B  B13  1  0.82381500  0.92237900  0.09480900  1
  B  B14  1  0.67618500  0.92237900  0.59480900  1
  B  B15  1  0.17618500  0.07762100  0.90519100  1
  B  B16  1  0.53034900  0.27905900  0.44178800  1
  B  B17  1  0.03034900  0.72094100  0.05821200  1
  B  B18  1  0.46965100  0.72094100  0.55821200  1
  B  B19  1  0.96965100  0.27905900  0.94178800  1
  O  O0  1  0.20536500  0.18492900  0.28231000  1
  O  O1  1  0.67087600  0.41350700  0.08056400  1
  O  O2  1  0.17087600  0.58649300  0.41943600  1
  O  O3  1  0.32912400  0.58649300  0.91943600  1
  O  O4  1  0.82912400  0.41350700  0.58056400  1
  O  O5  1  0.44007900  0.12286000  0.12334200  1
  O  O6  1  0.94007900  0.87714000  0.37665800  1
  O  O7  1  0.55992100  0.87714000  0.87665800  1
  O  O8  1  0.70536500  0.81507100  0.21769000  1
  O  O9  1  0.05992100  0.12286000  0.62334200  1
  O  O10  1  0.29463500  0.18492900  0.78231000  1
  O  O11  1  0.79463500  0.81507100  0.71769000  1
  O  O12  1  0.53211600  0.71258400  0.11654100  1
  O  O13  1  0.03211600  0.28741600  0.38345900  1
  O  O14  1  0.46788400  0.28741600  0.88345900  1
  O  O15  1  0.96788400  0.71258400  0.61654100  1
  O  O16  1  0.41862500  0.69308200  0.29760900  1
  O  O17  1  0.91862500  0.30691800  0.20239100  1
  O  O18  1  0.58137500  0.30691800  0.70239100  1
  O  O19  1  0.08137500  0.69308200  0.79760900  1
  O  O20  1  0.63773300  0.45892200  0.35049900  1
  O  O21  1  0.13773300  0.54107800  0.14950100  1
  O  O22  1  0.36226700  0.54107800  0.64950100  1
  O  O23  1  0.86226700  0.45892200  0.85049900  1
  O  O24  1  0.46612200  0.21840300  0.36278200  1
  O  O25  1  0.96612200  0.78159700  0.13721800  1
  O  O26  1  0.53387800  0.78159700  0.63721800  1
  O  O27  1  0.03387800  0.21840300  0.86278200  1
  O  O28  1  0.38391900  0.89700700  0.42698000  1
  O  O29  1  0.88391900  0.10299300  0.07302000  1
  O  O30  1  0.61608100  0.10299300  0.57302000  1
  O  O31  1  0.11708100  0.33236200  0.98786800  1
  O  O32  1  0.23420900  0.02272200  0.52707600  1
  O  O33  1  0.73420900  0.97727800  0.97292400  1
  O  O34  1  0.76579100  0.97727800  0.47292400  1
  O  O35  1  0.26579100  0.02272200  0.02707600  1
  O  O36  1  0.38291900  0.33236200  0.48786800  1
  O  O37  1  0.88291900  0.66763800  0.01213200  1
  O  O38  1  0.61708100  0.66763800  0.51213200  1
  O  O39  1  0.11608100  0.89700700  0.92698000  1
loop_
_geom_bond_atom_site_label_1
_geom_bond_atom_site_label_2
_geom_bond_distance
_geom_bond_site_symmetry_2
Cd0 O12 2.230896 1_555
Cd0 O3 2.238976 1_554
Cd0 O21 2.275292 1_555
Cd0 O24 2.320868 1_555
Cd0 O1 2.359114 1_555
Cd0 O0 2.495522 1_555
Cd1 O13 2.230896 1_655
Cd1 O4 2.238976 1_555
Cd1 O20 2.275292 1_555
Cd1 O25 2.320868 1_555
Cd1 O2 2.359114 1_655
Cd1 O8 2.495522 1_555
Cd2 O14 2.230896 1_555
Cd2 O1 2.238976 1_556
Cd2 O23 2.275292 1_555
Cd2 O26 2.320868 1_555
Cd2 O3 2.359114 1_555
Cd2 O11 2.495522 1_555
Cd3 O15 2.230896 1_455
Cd3 O2 2.238976 1_555
Cd3 O22 2.275292 1_555
Cd3 O27 2.320868 1_555
Cd3 O4 2.359114 1_455
Cd3 O10 2.495522 1_555
B0 O16 1.470630 1_555
B0 O20 1.472918 1_555
B0 O12 1.488977 1_555
B0 O8 1.496313 1_555
B1 O31 1.375208 1_555
B1 O19 1.381874 1_555
B1 O3 1.384444 1_555
B2 O38 1.375211 1_555
B2 O18 1.381879 1_555
B2 O4 1.384437 1_555
B3 O37 1.375208 1_555
B3 O17 1.381874 1_555
B3 O1 1.384444 1_555
B4 O36 1.375208 1_555
B4 O16 1.381874 1_555
B4 O2 1.384444 1_555
B5 O6 1.362225 1_555
B5 O15 1.372048 1_555
B5 O34 1.396143 1_555
B6 O5 1.362225 1_555
B6 O14 1.372048 1_554
B6 O35 1.396143 1_555
B7 O9 1.362225 1_555
B7 O13 1.372048 1_555
B7 O32 1.396143 1_555
B8 O7 1.362225 1_555
B8 O12 1.372048 1_556
B8 O33 1.396143 1_555
B9 O17 1.470630 1_455
B9 O21 1.472918 1_555
B9 O13 1.488977 1_555
B9 O0 1.496313 1_555
B10 O18 1.470630 1_555
B10 O22 1.472918 1_555
B10 O14 1.488977 1_555
B10 O10 1.496313 1_555
B11 O19 1.470630 1_655
B11 O23 1.472918 1_555
B11 O15 1.488977 1_555
B11 O11 1.496313 1_555
B12 O32 1.477305 1_555
B12 O28 1.485941 1_545
B12 O24 1.488531 1_555
B12 O0 1.517530 1_555
B13 O33 1.477305 1_554
B13 O29 1.485941 1_565
B13 O25 1.488531 1_555
B13 O8 1.517530 1_555
B14 O34 1.477305 1_555
B14 O30 1.485941 1_565
B14 O26 1.488531 1_555
B14 O11 1.517530 1_555
B15 O35 1.477305 1_556
B15 O39 1.485941 1_545
B15 O27 1.488531 1_555
B15 O10 1.517530 1_555
B16 O20 1.466958 1_555
B16 O30 1.501813 1_555
B16 O24 1.501822 1_555
B16 O36 1.517566 1_555
B17 O21 1.466958 1_555
B17 O39 1.501813 1_554
B17 O25 1.501822 1_455
B17 O37 1.517566 1_455
B18 O22 1.466958 1_555
B18 O28 1.501813 1_555
B18 O26 1.501822 1_555
B18 O38 1.517566 1_555
B19 O23 1.466958 1_555
B19 O29 1.501813 1_556
B19 O27 1.501822 1_655
B19 O31 1.517566 1_655
O0 Sm0 2.420129 1_545
O1 Sm1 2.413665 1_555
O2 Sm0 2.413665 1_555
O3 Sm3 2.413665 1_555
O4 Sm2 2.413665 1_555
O5 Sm1 2.392432 1_555
O5 Sm0 2.394677 1_545
O6 Sm0 2.392432 1_655
O6 Sm1 2.394677 1_565
O7 Sm3 2.392432 1_555
O7 Sm2 2.394677 1_565
O8 Sm1 2.420129 1_565
O9 Sm2 2.392432 1_455
O9 Sm3 2.394677 1_545
O10 Sm3 2.420129 1_545
O11 Sm2 2.420129 1_565
O16 Sm0 2.644111 1_555
O17 Sm1 2.644111 1_555
O18 Sm2 2.644111 1_555
O19 Sm3 2.644111 1_555
O24 Sm1 3.080574 1_555
O25 Sm0 3.080574 1_655
O26 Sm3 3.080574 1_555
O27 Sm2 3.080574 1_455
O28 Sm0 2.640402 1_555
O28 Sm1 2.881526 1_565
O29 Sm1 2.640402 1_555
O29 Sm0 2.881526 1_645
O30 Sm2 2.640402 1_555
O30 Sm3 2.881526 1_545
O31 Sm0 2.762370 1_546
O32 Sm3 2.452986 1_545
O33 Sm2 2.452986 1_565
O34 Sm1 2.452986 1_565
O35 Sm0 2.452986 1_545
O36 Sm3 2.762370 1_545
O37 Sm2 2.762370 1_564
O38 Sm1 2.762370 1_565
O39 Sm3 2.640402 1_555
O39 Sm2 2.881526 1_465
