# generated using pymatgen
data_Sr2YMo2O7
_symmetry_space_group_name_H-M   'P 1'
_cell_length_a   14.10344575
_cell_length_b   14.10344575
_cell_length_c   14.10344575
_cell_angle_alpha   157.59011549
_cell_angle_beta   156.35854558
_cell_angle_gamma   32.80142723
_symmetry_Int_Tables_number   1
_chemical_formula_structural   Sr2YMo2O7
_chemical_formula_sum   'Sr4 Y2 Mo4 O14'
_cell_volume   428.49558207
_cell_formula_units_Z   2
loop_
 _symmetry_equiv_pos_site_id
 _symmetry_equiv_pos_as_xyz
  1  'x, y, z'
loop_
 _atom_site_type_symbol
 _atom_site_label
 _atom_site_symmetry_multiplicity
 _atom_site_fract_x
 _atom_site_fract_y
 _atom_site_fract_z
 _atom_site_occupancy
  Sr  Sr0  1  0.78045900  0.72083400  0.87674500  1
  Sr  Sr1  1  0.15591100  0.27916600  0.05962500  1
  Sr  Sr2  1  0.65591100  0.59628600  0.87674500  1
  Sr  Sr3  1  0.28045900  0.40371400  0.05962500  1
  Y  Y0  1  0.51242100  0.50000000  0.01242100  1
  Y  Y1  1  0.01242100  0.00000000  0.01242100  1
  Mo  Mo0  1  0.43438100  0.92409500  0.51068500  1
  Mo  Mo1  1  0.58659100  0.07590500  0.51028700  1
  Mo  Mo2  1  0.08659100  0.57630400  0.51068500  1
  Mo  Mo3  1  0.93438100  0.42369600  0.51028700  1
  O  O0  1  0.99176900  0.55274400  0.04451300  1
  O  O1  1  0.49176900  0.44725600  0.43902600  1
  O  O2  1  0.20078000  0.19332700  0.49867100  1
  O  O3  1  0.30534400  0.80667300  0.00745300  1
  O  O4  1  0.80534400  0.79789100  0.49867100  1
  O  O5  1  0.70078000  0.20210900  0.00745300  1
  O  O6  1  0.72879100  0.69623100  0.52620300  1
  O  O7  1  0.82997200  0.30376900  0.03256000  1
  O  O8  1  0.32997200  0.29741200  0.52620300  1
  O  O9  1  0.22879100  0.70258800  0.03256000  1
  O  O10  1  0.92756200  0.37678400  0.59757200  1
  O  O11  1  0.22078700  0.62321600  0.55077800  1
  O  O12  1  0.72078700  0.17001000  0.59757200  1
  O  O13  1  0.42756200  0.82999000  0.55077800  1
loop_
_geom_bond_atom_site_label_1
_geom_bond_atom_site_label_2
_geom_bond_distance
_geom_bond_site_symmetry_2
Mo0 O13 1.947369 1_555
Mo0 O9 2.023122 1_555
Mo0 O5 2.078780 1_566
Mo0 O2 2.106506 1_565
Mo0 O6 2.195331 1_555
Mo1 O12 1.947354 1_555
Mo1 O8 2.023125 1_555
Mo1 O4 2.078776 1_545
Mo1 O3 2.106510 1_545
Mo1 O7 2.195327 1_556
Mo2 O11 1.947341 1_555
Mo2 O7 2.023126 1_455
Mo2 O3 2.078784 1_556
Mo2 O4 2.106513 1_455
Mo2 O8 2.195331 1_555
Mo3 O10 1.947355 1_555
Mo3 O6 2.023126 1_555
Mo3 O2 2.078784 1_655
Mo3 O5 2.106513 1_555
Mo3 O9 2.195331 1_656
O0 Sr2 2.382201 1_554
O0 Sr0 2.382201 1_554
O0 Sr3 2.427442 1_655
O0 Sr1 2.427442 1_655
O1 Sr1 2.382194 1_555
O1 Sr3 2.382213 1_555
O1 Sr2 2.427430 1_555
O1 Sr0 2.427449 1_555
O2 Y1 2.397310 1_555
O2 Y0 2.488270 1_556
O3 Y1 2.397310 1_565
O3 Y0 2.488270 1_555
O4 Y0 2.397310 1_555
O4 Y1 2.488270 1_666
O5 Y0 2.397310 1_555
O5 Y1 2.488270 1_655
O6 Y1 2.369156 1_666
O6 Y0 2.466511 1_555
O7 Y1 2.369156 1_655
O7 Y0 2.466511 1_555
O8 Y0 2.369156 1_556
O8 Y1 2.466511 1_555
O9 Y0 2.369156 1_555
O9 Y1 2.466511 1_565
O10 Sr0 2.463648 1_555
O10 Sr3 2.561232 1_656
O11 Sr1 2.463655 1_555
O11 Sr2 2.561241 1_555
O12 Sr2 2.463651 1_555
O12 Sr1 2.561240 1_656
O13 Sr3 2.463648 1_555
O13 Sr0 2.561232 1_555
