# generated using pymatgen
data_Mg16Al12Bi
_symmetry_space_group_name_H-M   'P 1'
_cell_length_a   9.13389136
_cell_length_b   9.13389136
_cell_length_c   9.13389104
_cell_angle_alpha   109.03036194
_cell_angle_beta   109.03036194
_cell_angle_gamma   109.03036635
_symmetry_Int_Tables_number   1
_chemical_formula_structural   Mg16Al12Bi
_chemical_formula_sum   'Mg16 Al12 Bi1'
_cell_volume   595.98724220
_cell_formula_units_Z   1
loop_
 _symmetry_equiv_pos_site_id
 _symmetry_equiv_pos_as_xyz
  1  'x, y, z'
loop_
 _atom_site_type_symbol
 _atom_site_label
 _atom_site_symmetry_multiplicity
 _atom_site_fract_x
 _atom_site_fract_y
 _atom_site_fract_z
 _atom_site_occupancy
  Mg  Mg0  1  0.68429700  0.68429800  0.28728300  1
  Mg  Mg1  1  0.39315700  0.39315700  0.70914300  1
  Mg  Mg2  1  0.00362800  0.00362800  0.00362800  1
  Mg  Mg3  1  0.99950800  0.99950800  0.34708300  1
  Mg  Mg4  1  0.59816000  0.31847800  0.00170100  1
  Mg  Mg5  1  0.70914300  0.39315700  0.39315700  1
  Mg  Mg6  1  0.31847800  0.00170100  0.59816000  1
  Mg  Mg7  1  0.34708300  0.99950800  0.99950800  1
  Mg  Mg8  1  0.68429700  0.28728300  0.68429800  1
  Mg  Mg9  1  0.00170100  0.59816000  0.31847800  1
  Mg  Mg10  1  0.59816000  0.00170100  0.31847800  1
  Mg  Mg11  1  0.28728300  0.68429800  0.68429700  1
  Mg  Mg12  1  0.99950800  0.34708300  0.99950800  1
  Mg  Mg13  1  0.00170100  0.31847800  0.59816000  1
  Mg  Mg14  1  0.39315700  0.70914300  0.39315700  1
  Mg  Mg15  1  0.31847800  0.59816000  0.00170100  1
  Al  Al0  1  0.18250600  0.18250600  0.81638900  1
  Al  Al1  1  0.36197500  0.36197500  0.17426700  1
  Al  Al2  1  0.81970900  0.63257000  0.00945900  1
  Al  Al3  1  0.36197500  0.17426700  0.36197500  1
  Al  Al4  1  0.00945900  0.81970900  0.63257000  1
  Al  Al5  1  0.18250600  0.81638900  0.18250600  1
  Al  Al6  1  0.00945900  0.63257000  0.81970900  1
  Al  Al7  1  0.63257000  0.00945900  0.81970900  1
  Al  Al8  1  0.81638900  0.18250600  0.18250600  1
  Al  Al9  1  0.81970900  0.00945900  0.63257000  1
  Al  Al10  1  0.17426700  0.36197500  0.36197500  1
  Al  Al11  1  0.63257000  0.81970900  0.00945900  1
  Bi  Bi0  1  0.65914200  0.65914200  0.65914200  1
loop_
_geom_bond_atom_site_label_1
_geom_bond_atom_site_label_2
_geom_bond_distance
_geom_bond_site_symmetry_2
Mg0 Mg3 3.069196 1_555
Mg0 Mg15 3.138643 1_555
Mg0 Mg4 3.138653 1_555
Mg0 Mg14 3.160015 1_555
Mg0 Mg5 3.160026 1_555
Mg0 Mg10 3.193757 1_565
Mg0 Mg9 3.193771 1_655
Mg1 Mg15 3.141752 1_556
Mg1 Mg4 3.141752 1_556
Mg1 Mg13 3.141986 1_555
Mg1 Mg6 3.141986 1_555
Mg1 Mg8 3.160015 1_555
Mg1 Mg11 3.160027 1_555
Mg2 Mg3 3.161828 1_445
Mg2 Mg7 3.161828 1_544
Mg3 Mg6 3.053288 1_665
Mg4 Mg7 3.053288 1_544
Mg4 Mg5 3.141986 1_555
Mg4 Mg8 3.193757 1_554
Mg4 Mg6 3.250828 1_554
Mg4 Mg9 3.250828 1_655
Mg5 Mg9 3.141752 1_655
Mg5 Mg8 3.160026 1_555
Mg6 Mg8 3.138643 1_555
Mg6 Mg9 3.250828 1_545
Mg10 Mg7 3.053288 1_544
Mg10 Mg8 3.138653 1_555
Mg10 Mg14 3.141752 1_545
Mg10 Mg5 3.141986 1_555
Mg10 Mg13 3.250828 1_655
Mg10 Mg15 3.250828 1_545
Mg11 Mg7 3.069196 1_555
Mg11 Mg9 3.138643 1_555
Mg11 Mg13 3.138653 1_555
Mg11 Mg14 3.160015 1_555
Mg11 Mg6 3.193757 1_565
Mg11 Mg15 3.193771 1_556
Mg12 Mg15 3.053288 1_656
Mg12 Mg9 3.053288 1_656
Mg12 Mg8 3.069196 1_555
Mg12 Mg2 3.161828 1_656
Mg13 Mg3 3.053288 1_445
Mg13 Mg5 3.141752 1_455
Mg13 Mg8 3.193771 1_455
Mg13 Mg15 3.250828 1_556
Mg14 Mg6 3.141752 1_565
Mg14 Mg15 3.141986 1_555
Mg14 Mg9 3.141986 1_555
Al0 Al1 2.705221 1_556
Al0 Al4 2.742906 1_545
Al0 Al9 2.742906 1_455
Al0 Mg1 2.899590 1_555
Al0 Mg6 3.008016 1_555
Al0 Mg13 3.008016 1_555
Al0 Mg7 3.110179 1_545
Al0 Mg12 3.110179 1_455
Al0 Mg2 3.188637 1_556
Al0 Mg4 3.191332 1_556
Al0 Mg15 3.191332 1_556
Al1 Al3 2.792137 1_555
Al1 Al10 2.792137 1_555
Al1 Mg0 2.963842 1_555
Al1 Mg14 3.006465 1_555
Al1 Mg5 3.006465 1_555
Al1 Mg7 3.105767 1_544
Al1 Mg12 3.105767 1_454
Al1 Mg15 3.108725 1_555
Al1 Mg4 3.108725 1_555
Al1 Mg2 3.196159 1_555
Al2 Al5 2.742906 1_655
Al2 Al6 2.822511 1_654
Al2 Mg4 2.884166 1_555
Al2 Mg9 2.947582 1_655
Al2 Mg8 3.041265 1_554
Al2 Mg3 3.131700 1_555
Al2 Mg0 3.136640 1_555
Al2 Bi0 3.182219 1_554
Al2 Mg2 3.282483 1_665
Al2 Mg1 3.323902 1_554
Al3 Al5 2.705221 1_545
Al3 Mg8 2.963842 1_555
Al3 Mg5 3.006465 1_555
Al3 Mg1 3.006465 1_555
Al3 Mg3 3.105767 1_445
Al3 Mg7 3.105767 1_544
Al3 Mg6 3.108725 1_555
Al3 Mg10 3.108725 1_555
Al3 Mg2 3.196159 1_555
Al4 Al6 2.783673 1_555
Al4 Al9 2.822512 1_465
Al4 Mg9 2.884167 1_555
Al4 Mg6 2.947582 1_565
Al4 Mg0 3.041272 1_455
Al4 Mg7 3.131700 1_555
Al4 Mg11 3.136633 1_555
Al4 Bi0 3.182219 1_455
Al4 Mg2 3.282483 1_566
Al4 Mg5 3.323902 1_455
Al5 Al6 2.742906 1_554
Al5 Mg14 2.899590 1_555
Al5 Mg9 3.008016 1_555
Al5 Mg15 3.008016 1_555
Al5 Mg7 3.110179 1_554
Al5 Mg3 3.110179 1_455
Al5 Mg2 3.188637 1_565
Al5 Mg6 3.191332 1_565
Al5 Mg10 3.191332 1_565
Al6 Mg13 2.884167 1_555
Al6 Mg15 2.947582 1_556
Al6 Mg8 3.041272 1_455
Al6 Mg7 3.131700 1_555
Al6 Mg11 3.136640 1_555
Al6 Bi0 3.182219 1_455
Al6 Mg2 3.282483 1_566
Al6 Mg5 3.323902 1_455
Al7 Al8 2.742906 1_556
Al7 Al9 2.783673 1_555
Al7 Mg6 2.884167 1_555
Al7 Mg4 2.947582 1_556
Al7 Mg11 3.041265 1_545
Al7 Mg12 3.131700 1_555
Al7 Mg8 3.136633 1_555
Al7 Bi0 3.182219 1_545
Al7 Mg2 3.282483 1_656
Al7 Mg14 3.323902 1_545
Al8 Mg5 2.899590 1_555
Al8 Mg10 3.008016 1_555
Al8 Mg4 3.008016 1_555
Al8 Mg12 3.110179 1_554
Al8 Mg3 3.110179 1_545
Al8 Mg2 3.188637 1_655
Al8 Mg13 3.191332 1_655
Al8 Mg9 3.191332 1_655
Al9 Mg10 2.884167 1_555
Al9 Mg13 2.947582 1_655
Al9 Mg0 3.041265 1_545
Al9 Mg12 3.131700 1_555
Al9 Mg8 3.136640 1_555
Al9 Bi0 3.182219 1_545
Al9 Mg2 3.282483 1_656
Al9 Mg14 3.323902 1_545
Al10 Al8 2.705221 1_455
Al10 Al3 2.792137 1_555
Al10 Mg11 2.963842 1_555
Al10 Mg14 3.006465 1_555
Al10 Mg1 3.006465 1_555
Al10 Mg3 3.105767 1_445
Al10 Mg12 3.105767 1_454
Al10 Mg13 3.108725 1_555
Al10 Mg9 3.108725 1_555
Al10 Mg2 3.196159 1_555
Al11 Al8 2.742906 1_565
Al11 Al2 2.783673 1_555
Al11 Al7 2.822511 1_564
Al11 Mg15 2.884166 1_555
Al11 Mg10 2.947582 1_565
Al11 Mg11 3.041272 1_554
Al11 Mg3 3.131700 1_555
Al11 Mg0 3.136633 1_555
Al11 Bi0 3.182219 1_554
Al11 Mg2 3.282483 1_665
Al11 Mg1 3.323902 1_554
Bi0 Mg1 3.100211 1_555
Bi0 Mg5 3.100211 1_555
Bi0 Mg14 3.100211 1_555
Bi0 Mg2 3.214336 1_666
Bi0 Mg0 3.553220 1_555
Bi0 Mg8 3.553220 1_555
Bi0 Mg11 3.553220 1_555
