# generated using pymatgen
data_Ce3(Sn3Pd2)2
_symmetry_space_group_name_H-M   'P 1'
_cell_length_a   4.65451181
_cell_length_b   16.85050217
_cell_length_c   15.69109701
_cell_angle_alpha   90.00000000
_cell_angle_beta   90.00000000
_cell_angle_gamma   90.00000000
_symmetry_Int_Tables_number   1
_chemical_formula_structural   Ce3(Sn3Pd2)2
_chemical_formula_sum   'Ce12 Sn24 Pd16'
_cell_volume   1230.66625409
_cell_formula_units_Z   4
loop_
 _symmetry_equiv_pos_site_id
 _symmetry_equiv_pos_as_xyz
  1  'x, y, z'
loop_
 _atom_site_type_symbol
 _atom_site_label
 _atom_site_symmetry_multiplicity
 _atom_site_fract_x
 _atom_site_fract_y
 _atom_site_fract_z
 _atom_site_occupancy
  Ce  Ce0  1  0.75000000  0.35717268  0.38236135  1
  Ce  Ce1  1  0.25000000  0.64282732  0.61763865  1
  Ce  Ce2  1  0.25000000  0.14282732  0.88236135  1
  Ce  Ce3  1  0.75000000  0.85717268  0.11763865  1
  Ce  Ce4  1  0.75000000  0.61563035  0.24780116  1
  Ce  Ce5  1  0.25000000  0.38436965  0.75219884  1
  Ce  Ce6  1  0.25000000  0.88436965  0.74780116  1
  Ce  Ce7  1  0.75000000  0.11563035  0.25219884  1
  Ce  Ce8  1  0.75000000  0.64923936  0.98256286  1
  Ce  Ce9  1  0.25000000  0.35076064  0.01743714  1
  Ce  Ce10  1  0.25000000  0.85076064  0.48256286  1
  Ce  Ce11  1  0.75000000  0.14923936  0.51743714  1
  Sn  Sn0  1  0.75000000  0.97430396  0.41978110  1
  Sn  Sn1  1  0.25000000  0.02569604  0.58021890  1
  Sn  Sn2  1  0.25000000  0.52569604  0.91978110  1
  Sn  Sn3  1  0.75000000  0.47430396  0.08021890  1
  Sn  Sn4  1  0.75000000  0.55081735  0.45883447  1
  Sn  Sn5  1  0.25000000  0.44918265  0.54116553  1
  Sn  Sn6  1  0.25000000  0.94918265  0.95883447  1
  Sn  Sn7  1  0.75000000  0.05081735  0.04116553  1
  Sn  Sn8  1  0.75000000  0.55549934  0.76854911  1
  Sn  Sn9  1  0.25000000  0.44450066  0.23145089  1
  Sn  Sn10  1  0.25000000  0.94450066  0.26854911  1
  Sn  Sn11  1  0.75000000  0.05549934  0.73145089  1
  Sn  Sn12  1  0.75000000  0.79367897  0.62029397  1
  Sn  Sn13  1  0.25000000  0.20632103  0.37970603  1
  Sn  Sn14  1  0.25000000  0.70632103  0.12029397  1
  Sn  Sn15  1  0.75000000  0.29367897  0.87970603  1
  Sn  Sn16  1  0.75000000  0.82840750  0.89358173  1
  Sn  Sn17  1  0.25000000  0.17159250  0.10641827  1
  Sn  Sn18  1  0.25000000  0.67159250  0.39358173  1
  Sn  Sn19  1  0.75000000  0.32840750  0.60641827  1
  Sn  Sn20  1  0.75000000  0.81098335  0.33642334  1
  Sn  Sn21  1  0.25000000  0.18901665  0.66357666  1
  Sn  Sn22  1  0.25000000  0.68901665  0.83642334  1
  Sn  Sn23  1  0.75000000  0.31098335  0.16357666  1
  Pd  Pd0  1  0.75000000  0.70942422  0.47470147  1
  Pd  Pd1  1  0.25000000  0.29057578  0.52529853  1
  Pd  Pd2  1  0.25000000  0.79057578  0.97470147  1
  Pd  Pd3  1  0.75000000  0.20942422  0.02529853  1
  Pd  Pd4  1  0.75000000  0.98977001  0.88039348  1
  Pd  Pd5  1  0.25000000  0.01022999  0.11960652  1
  Pd  Pd6  1  0.25000000  0.51022999  0.38039348  1
  Pd  Pd7  1  0.75000000  0.48977001  0.61960652  1
  Pd  Pd8  1  0.75000000  0.71667518  0.76624121  1
  Pd  Pd9  1  0.25000000  0.28332482  0.23375879  1
  Pd  Pd10  1  0.25000000  0.78332482  0.26624121  1
  Pd  Pd11  1  0.75000000  0.21667518  0.73375879  1
  Pd  Pd12  1  0.75000000  0.95227616  0.59926952  1
  Pd  Pd13  1  0.25000000  0.04772384  0.40073048  1
  Pd  Pd14  1  0.25000000  0.54772384  0.09926952  1
  Pd  Pd15  1  0.75000000  0.45227616  0.90073048  1
loop_
_geom_bond_atom_site_label_1
_geom_bond_atom_site_label_2
_geom_bond_distance
_geom_bond_site_symmetry_2
Ce0 Pd1 3.421370 1_655
Ce0 Pd1 3.421370 1_555
Ce0 Sn13 3.446628 1_655
Ce0 Sn13 3.446628 1_555
Ce0 Pd6 3.474017 1_555
Ce0 Pd6 3.474017 1_655
Ce0 Sn4 3.476652 1_555
Ce0 Sn23 3.520095 1_555
Ce0 Pd9 3.521588 1_555
Ce0 Pd9 3.521588 1_655
Ce0 Sn19 3.548955 1_555
Ce0 Sn9 3.631623 1_555
Ce0 Sn9 3.631623 1_655
Ce1 Pd0 3.421370 1_555
Ce1 Pd0 3.421370 1_455
Ce1 Sn12 3.446628 1_555
Ce1 Sn12 3.446628 1_455
Ce1 Pd7 3.474017 1_555
Ce1 Pd7 3.474017 1_455
Ce1 Sn5 3.476652 1_555
Ce1 Sn22 3.520095 1_555
Ce1 Pd8 3.521588 1_555
Ce1 Pd8 3.521588 1_455
Ce1 Sn18 3.548955 1_555
Ce1 Sn8 3.631623 1_555
Ce1 Sn8 3.631623 1_455
Ce2 Pd3 3.421370 1_556
Ce2 Pd3 3.421370 1_456
Ce2 Sn15 3.446628 1_555
Ce2 Sn15 3.446628 1_455
Ce2 Pd4 3.474017 1_545
Ce2 Pd4 3.474017 1_445
Ce2 Sn6 3.476652 1_545
Ce2 Sn21 3.520095 1_555
Ce2 Pd11 3.521588 1_455
Ce2 Pd11 3.521588 1_555
Ce2 Sn17 3.548955 1_556
Ce2 Sn11 3.631623 1_455
Ce2 Sn11 3.631623 1_555
Ce3 Pd2 3.421370 1_554
Ce3 Pd2 3.421370 1_654
Ce3 Sn14 3.446628 1_555
Ce3 Sn14 3.446628 1_655
Ce3 Pd5 3.474017 1_565
Ce3 Pd5 3.474017 1_665
Ce3 Sn7 3.476652 1_565
Ce3 Sn20 3.520095 1_555
Ce3 Pd10 3.521588 1_655
Ce3 Pd10 3.521588 1_555
Ce3 Sn16 3.548955 1_554
Ce3 Sn10 3.631623 1_655
Ce3 Sn10 3.631623 1_555
Ce4 Sn18 3.396735 1_655
Ce4 Sn18 3.396735 1_555
Ce4 Sn14 3.428466 1_555
Ce4 Sn14 3.428466 1_655
Ce4 Pd14 3.486726 1_655
Ce4 Pd14 3.486726 1_555
Ce4 Sn4 3.486797 1_555
Ce4 Sn3 3.547632 1_555
Ce4 Sn20 3.573462 1_555
Ce4 Pd6 3.591522 1_555
Ce4 Pd6 3.591522 1_655
Ce4 Pd10 3.672142 1_555
Ce4 Pd10 3.672142 1_655
Ce4 Sn9 3.714460 1_655
Ce4 Sn9 3.714460 1_555
Ce5 Sn19 3.396735 1_455
Ce5 Sn19 3.396735 1_555
Ce5 Sn15 3.428466 1_555
Ce5 Sn15 3.428466 1_455
Ce5 Pd15 3.486726 1_455
Ce5 Pd15 3.486726 1_555
Ce5 Sn5 3.486797 1_555
Ce5 Sn2 3.547632 1_555
Ce5 Sn21 3.573462 1_555
Ce5 Pd7 3.591522 1_555
Ce5 Pd7 3.591522 1_455
Ce5 Pd11 3.672142 1_555
Ce5 Pd11 3.672142 1_455
Ce5 Sn8 3.714460 1_555
Ce5 Sn8 3.714460 1_455
Ce6 Sn16 3.396735 1_455
Ce6 Sn16 3.396735 1_555
Ce6 Sn12 3.428466 1_455
Ce6 Sn12 3.428466 1_555
Ce6 Pd12 3.486726 1_555
Ce6 Pd12 3.486726 1_455
Ce6 Sn6 3.486797 1_555
Ce6 Sn1 3.547632 1_565
Ce6 Sn22 3.573462 1_555
Ce6 Pd4 3.591522 1_455
Ce6 Pd4 3.591522 1_555
Ce6 Pd8 3.672142 1_455
Ce6 Pd8 3.672142 1_555
Ce6 Sn11 3.714460 1_465
Ce6 Sn11 3.714460 1_565
Ce7 Sn17 3.396735 1_555
Ce7 Sn17 3.396735 1_655
Ce7 Sn13 3.428466 1_555
Ce7 Sn13 3.428466 1_655
Ce7 Pd13 3.486726 1_655
Ce7 Pd13 3.486726 1_555
Ce7 Sn7 3.486797 1_555
Ce7 Sn0 3.547632 1_545
Ce7 Sn23 3.573462 1_555
Ce7 Pd5 3.591522 1_555
Ce7 Pd5 3.591522 1_655
Ce7 Pd9 3.672142 1_655
Ce7 Pd9 3.672142 1_555
Ce7 Sn10 3.714460 1_645
Ce7 Sn10 3.714460 1_545
Ce8 Sn2 3.274191 1_555
Ce8 Sn2 3.274191 1_655
Ce8 Sn14 3.318413 1_656
Ce8 Sn14 3.318413 1_556
Ce8 Sn3 3.322238 1_556
Ce8 Sn16 3.326291 1_555
Ce8 Pd2 3.332162 1_655
Ce8 Pd2 3.332162 1_555
Ce8 Sn22 3.335212 1_655
Ce8 Sn22 3.335212 1_555
Ce8 Pd14 3.419902 1_656
Ce8 Pd14 3.419902 1_556
Ce9 Sn3 3.274191 1_555
Ce9 Sn3 3.274191 1_455
Ce9 Sn15 3.318413 1_454
Ce9 Sn15 3.318413 1_554
Ce9 Sn2 3.322238 1_554
Ce9 Sn17 3.326291 1_555
Ce9 Pd3 3.332162 1_555
Ce9 Pd3 3.332162 1_455
Ce9 Sn23 3.335212 1_555
Ce9 Sn23 3.335212 1_455
Ce9 Pd15 3.419902 1_454
Ce9 Pd15 3.419902 1_554
Ce10 Sn0 3.274191 1_455
Ce10 Sn0 3.274191 1_555
Ce10 Sn12 3.318413 1_555
Ce10 Sn12 3.318413 1_455
Ce10 Sn1 3.322238 1_565
Ce10 Sn18 3.326291 1_555
Ce10 Pd0 3.332162 1_555
Ce10 Pd0 3.332162 1_455
Ce10 Sn20 3.335212 1_555
Ce10 Sn20 3.335212 1_455
Ce10 Pd12 3.419902 1_455
Ce10 Pd12 3.419902 1_555
Ce11 Sn1 3.274191 1_555
Ce11 Sn1 3.274191 1_655
Ce11 Sn13 3.318413 1_655
Ce11 Sn13 3.318413 1_555
Ce11 Sn0 3.322238 1_545
Ce11 Sn19 3.326291 1_555
Ce11 Pd1 3.332162 1_555
Ce11 Pd1 3.332162 1_655
Ce11 Sn21 3.335212 1_555
Ce11 Sn21 3.335212 1_655
Ce11 Pd13 3.419902 1_655
Ce11 Pd13 3.419902 1_555
Sn0 Sn20 3.047046 1_555
Sn0 Sn10 3.361463 1_655
Sn0 Sn10 3.361463 1_555
Sn1 Sn21 3.047046 1_555
Sn1 Sn11 3.361463 1_455
Sn1 Sn11 3.361463 1_555
Sn2 Sn22 3.047046 1_555
Sn2 Sn8 3.361463 1_555
Sn2 Sn8 3.361463 1_455
Sn3 Sn9 3.361463 1_655
Sn3 Sn9 3.361463 1_555
Sn23 Sn3 3.047046 1_555
Pd0 Sn4 2.684177 1_555
Pd0 Sn12 2.689724 1_555
Pd0 Sn18 2.728126 1_555
Pd0 Sn18 2.728126 1_655
Pd0 Sn20 2.763399 1_555
Pd1 Sn5 2.684177 1_555
Pd1 Sn13 2.689724 1_555
Pd1 Sn19 2.728126 1_455
Pd1 Sn19 2.728126 1_555
Pd1 Sn21 2.763399 1_555
Pd2 Sn6 2.684177 1_555
Pd2 Sn14 2.689724 1_556
Pd2 Sn16 2.728126 1_555
Pd2 Sn16 2.728126 1_455
Pd2 Sn22 2.763399 1_555
Pd3 Sn7 2.684177 1_555
Pd3 Sn15 2.689724 1_554
Pd3 Sn17 2.728126 1_555
Pd3 Sn17 2.728126 1_655
Pd3 Sn23 2.763399 1_555
Pd4 Sn11 2.586238 1_565
Pd4 Sn6 2.720072 1_555
Pd4 Sn6 2.720072 1_655
Pd4 Sn7 2.724361 1_566
Pd4 Sn16 2.726903 1_555
Pd5 Sn10 2.586238 1_545
Pd5 Sn7 2.720072 1_455
Pd5 Sn7 2.720072 1_555
Pd5 Sn6 2.724361 1_544
Pd5 Sn17 2.726903 1_555
Pd6 Sn9 2.586238 1_555
Pd6 Sn4 2.720072 1_455
Pd6 Sn4 2.720072 1_555
Pd6 Sn5 2.724361 1_555
Pd6 Sn18 2.726903 1_555
Pd7 Sn8 2.586238 1_555
Pd7 Sn5 2.720072 1_555
Pd7 Sn5 2.720072 1_655
Pd7 Sn4 2.724361 1_555
Pd7 Sn19 2.726903 1_555
Pd8 Sn22 2.616496 1_655
Pd8 Sn22 2.616496 1_555
Pd8 Sn12 2.632123 1_555
Pd8 Sn8 2.716135 1_555
Pd8 Sn16 2.745393 1_555
Pd9 Sn23 2.616496 1_455
Pd9 Sn23 2.616496 1_555
Pd9 Sn13 2.632123 1_555
Pd9 Sn9 2.716135 1_555
Pd9 Sn17 2.745393 1_555
Pd10 Sn20 2.616496 1_555
Pd10 Sn20 2.616496 1_455
Pd10 Sn14 2.632123 1_555
Pd10 Sn10 2.716135 1_555
Pd10 Sn18 2.745393 1_555
Pd11 Sn21 2.616496 1_555
Pd11 Sn21 2.616496 1_655
Pd11 Sn15 2.632123 1_555
Pd11 Sn11 2.716135 1_555
Pd11 Sn19 2.745393 1_555
Pd12 Sn1 2.652555 1_565
Pd12 Sn1 2.652555 1_665
Pd12 Sn12 2.692727 1_555
Pd12 Sn11 2.706871 1_565
Pd12 Sn0 2.840724 1_555
Pd13 Sn0 2.652555 1_445
Pd13 Sn0 2.652555 1_545
Pd13 Sn13 2.692727 1_555
Pd13 Sn10 2.706871 1_545
Pd13 Sn1 2.840724 1_555
Pd14 Sn3 2.652555 1_455
Pd14 Sn3 2.652555 1_555
Pd14 Sn14 2.692727 1_555
Pd14 Sn9 2.706871 1_555
Pd14 Sn2 2.840724 1_554
Pd15 Sn2 2.652555 1_555
Pd15 Sn2 2.652555 1_655
Pd15 Sn15 2.692727 1_555
Pd15 Sn8 2.706871 1_555
Pd15 Sn3 2.840724 1_556
