# generated using pymatgen
data_YAlFe
_symmetry_space_group_name_H-M   'P 1'
_cell_length_a   5.34570324
_cell_length_b   5.34570324
_cell_length_c   5.34570324
_cell_angle_alpha   120.00318365
_cell_angle_beta   118.01434682
_cell_angle_gamma   91.73399156
_symmetry_Int_Tables_number   1
_chemical_formula_structural   YAlFe
_chemical_formula_sum   'Y2 Al2 Fe2'
_cell_volume   109.54316667
_cell_formula_units_Z   2
loop_
 _symmetry_equiv_pos_site_id
 _symmetry_equiv_pos_as_xyz
  1  'x, y, z'
loop_
 _atom_site_type_symbol
 _atom_site_label
 _atom_site_symmetry_multiplicity
 _atom_site_fract_x
 _atom_site_fract_y
 _atom_site_fract_z
 _atom_site_occupancy
  Y  Y0  1  0.13531200  0.88531200  0.25000000  1
  Y  Y1  1  0.86468800  0.11468800  0.75000000  1
  Al  Al0  1  0.50000000  0.50000000  0.00000000  1
  Al  Al1  1  0.00000000  0.50000000  0.50000000  1
  Fe  Fe0  1  0.50000000  0.50000000  0.50000000  1
  Fe  Fe1  1  0.50000000  0.00000000  0.00000000  1
loop_
_geom_bond_atom_site_label_1
_geom_bond_atom_site_label_2
_geom_bond_distance
_geom_bond_site_symmetry_2
Y0 Y1 3.239321 1_464
Y0 Y1 3.239321 1_565
Y0 Y1 3.347018 1_454
Y0 Y1 3.347018 1_465
Al0 Fe0 2.672852 1_554
Al0 Fe1 2.672852 1_555
Al0 Fe1 2.672852 1_565
Al0 Fe0 2.672852 1_555
Al0 Al1 2.752667 1_554
Al0 Al1 2.752667 1_655
Al0 Y1 3.125180 1_565
Al0 Y0 3.125180 1_544
Al0 Y1 3.125180 1_554
Al0 Y0 3.125180 1_555
Al0 Y1 3.181633 1_454
Al0 Y0 3.181633 1_655
Al1 Fe1 2.672852 1_566
Al1 Fe1 2.672852 1_455
Al1 Fe0 2.672852 1_555
Al1 Fe0 2.672852 1_455
Al1 Y1 3.125180 1_465
Al1 Y0 3.125180 1_556
Al1 Y1 3.125180 1_454
Al1 Y0 3.125180 1_545
Al1 Y1 3.181633 1_455
Al1 Y0 3.181633 1_555
Fe0 Fe1 2.672723 1_566
Fe0 Fe1 2.672723 1_555
Fe0 Y0 3.026064 1_545
Fe0 Y1 3.026064 1_565
Fe0 Y0 3.221461 1_656
Fe0 Y1 3.221461 1_555
Fe0 Y0 3.221461 1_555
Fe0 Y1 3.221461 1_454
Fe1 Y1 3.026064 1_554
Fe1 Y0 3.026064 1_545
Fe1 Y0 3.221461 1_645
Fe1 Y1 3.221461 1_555
Fe1 Y0 3.221461 1_544
Fe1 Y1 3.221461 1_454
