# generated using pymatgen
data_Mn3Ga
_symmetry_space_group_name_H-M   'P 1'
_cell_length_a   4.35304789
_cell_length_b   4.35304789
_cell_length_c   4.35304789
_cell_angle_alpha   128.65885289
_cell_angle_beta   128.65885289
_cell_angle_gamma   75.56011661
_symmetry_Int_Tables_number   1
_chemical_formula_structural   Mn3Ga
_chemical_formula_sum   'Mn3 Ga1'
_cell_volume   48.93720923
_cell_formula_units_Z   1
loop_
 _symmetry_equiv_pos_site_id
 _symmetry_equiv_pos_as_xyz
  1  'x, y, z'
loop_
 _atom_site_type_symbol
 _atom_site_label
 _atom_site_symmetry_multiplicity
 _atom_site_fract_x
 _atom_site_fract_y
 _atom_site_fract_z
 _atom_site_occupancy
  Mn  Mn0  1  0.75000000  0.25000000  0.50000000  1
  Mn  Mn1  1  0.25000000  0.75000000  0.50000000  1
  Mn  Mn2  1  0.50000000  0.50000000  0.00000000  1
  Ga  Ga0  1  0.00000000  0.00000000  0.00000000  1
loop_
_geom_bond_atom_site_label_1
_geom_bond_atom_site_label_2
_geom_bond_distance
_geom_bond_site_symmetry_2
Mn0 Mn2 2.552496 1_555
Mn0 Mn2 2.552496 1_556
Mn0 Mn2 2.552496 1_656
Mn0 Mn2 2.552496 1_545
Mn0 Mn1 2.666816 1_656
Mn0 Mn1 2.666816 1_645
Mn0 Mn1 2.666816 1_544
Mn0 Mn1 2.666816 1_555
Mn1 Mn2 2.552496 1_455
Mn1 Mn2 2.552496 1_555
Mn1 Mn2 2.552496 1_556
Mn1 Mn2 2.552496 1_566
Ga0 Mn1 2.552496 1_555
Ga0 Mn1 2.552496 1_545
Ga0 Mn1 2.552496 1_544
Ga0 Mn0 2.552496 1_455
Ga0 Mn0 2.552496 1_454
Ga0 Mn0 2.552496 1_555
Ga0 Mn0 2.552496 1_444
Ga0 Mn1 2.552496 1_444
Ga0 Mn2 2.666816 1_556
Ga0 Mn2 2.666816 1_545
Ga0 Mn2 2.666816 1_444
Ga0 Mn2 2.666816 1_455
