# generated using pymatgen
data_Li2CoP2O7
_symmetry_space_group_name_H-M   'P 1'
_cell_length_a   4.87879200
_cell_length_b   12.17467822
_cell_length_c   9.05300957
_cell_angle_alpha   97.81572566
_cell_angle_beta   89.97493432
_cell_angle_gamma   89.64242628
_symmetry_Int_Tables_number   1
_chemical_formula_structural   Li2CoP2O7
_chemical_formula_sum   'Li8 Co4 P8 O28'
_cell_volume   532.72213281
_cell_formula_units_Z   4
loop_
 _symmetry_equiv_pos_site_id
 _symmetry_equiv_pos_as_xyz
  1  'x, y, z'
loop_
 _atom_site_type_symbol
 _atom_site_label
 _atom_site_symmetry_multiplicity
 _atom_site_fract_x
 _atom_site_fract_y
 _atom_site_fract_z
 _atom_site_occupancy
  Li  Li0  1  0.72153700  0.11631000  0.64361300  1
  Li  Li1  1  0.22148800  0.11636200  0.14357600  1
  Li  Li2  1  0.24727300  0.29791300  0.84039800  1
  Li  Li3  1  0.74730700  0.29792000  0.34040400  1
  Li  Li4  1  0.78193400  0.61658300  0.13685900  1
  Li  Li5  1  0.28193500  0.61660100  0.63687300  1
  Li  Li6  1  0.25726100  0.79625200  0.34011800  1
  Li  Li7  1  0.75721100  0.79627400  0.84013100  1
  Co  Co0  1  0.25954700  0.99772200  0.75130200  1
  Co  Co1  1  0.74252500  0.49833100  0.74959100  1
  Co  Co2  1  0.75957200  0.99773300  0.25130900  1
  Co  Co3  1  0.24256900  0.49833300  0.24958400  1
  P  P0  1  0.30098300  0.87736400  0.05245100  1
  P  P1  1  0.80103900  0.87733300  0.55244800  1
  P  P2  1  0.27383500  0.64045200  0.94961700  1
  P  P3  1  0.77395400  0.64043100  0.44965100  1
  P  P4  1  0.70390400  0.37717100  0.05107800  1
  P  P5  1  0.20385400  0.37718100  0.55110500  1
  P  P6  1  0.72482800  0.13951400  0.95167900  1
  P  P7  1  0.22483400  0.13954200  0.45171700  1
  O  O0  1  0.12410600  0.76304000  0.00154800  1
  O  O1  1  0.62415800  0.76300900  0.50155000  1
  O  O2  1  0.87817600  0.26091300  0.00170500  1
  O  O3  1  0.37817600  0.26093100  0.50174800  1
  O  O4  1  0.10824800  0.10690000  0.59618400  1
  O  O5  1  0.60824100  0.10690200  0.09619300  1
  O  O6  1  0.56443700  0.40285600  0.90792400  1
  O  O7  1  0.06444800  0.40286300  0.40792500  1
  O  O8  1  0.39344500  0.60647700  0.09287400  1
  O  O9  1  0.89348800  0.60644200  0.59290600  1
  O  O10  1  0.94030300  0.90315100  0.40944200  1
  O  O11  1  0.44028000  0.90317100  0.90944100  1
  O  O12  1  0.49502400  0.65726600  0.83272200  1
  O  O13  1  0.99515600  0.65723600  0.33271500  1
  O  O14  1  0.50425300  0.85210600  0.17346800  1
  O  O15  1  0.00430700  0.85209000  0.67346600  1
  O  O16  1  0.50074900  0.15815800  0.83687900  1
  O  O17  1  0.00080700  0.15818100  0.33688200  1
  O  O18  1  0.50153200  0.35447900  0.17370500  1
  O  O19  1  0.00147100  0.35449000  0.67370800  1
  O  O20  1  0.03466800  0.57332600  0.88359800  1
  O  O21  1  0.53487200  0.57331700  0.38360100  1
  O  O22  1  0.08444500  0.96174400  0.11461100  1
  O  O23  1  0.58446900  0.96171000  0.61462600  1
  O  O24  1  0.95841300  0.06937300  0.88249600  1
  O  O25  1  0.45849200  0.06938600  0.38252500  1
  O  O26  1  0.92182700  0.46035300  0.11109200  1
  O  O27  1  0.42176900  0.46038300  0.61111800  1
loop_
_geom_bond_atom_site_label_1
_geom_bond_atom_site_label_2
_geom_bond_distance
_geom_bond_site_symmetry_2
Li0 O4 1.933979 1_655
Li0 O23 1.985015 1_545
Li0 O16 2.056741 1_555
Li1 O5 1.934104 1_555
Li1 O22 1.985177 1_545
Li1 O17 2.056719 1_555
Li2 O6 2.052692 1_555
Li2 O16 2.093873 1_555
Li2 O19 2.112764 1_555
Li2 O2 2.401012 1_456
Li3 O7 2.052597 1_655
Li3 O17 2.093781 1_655
Li3 O18 2.112659 1_555
Li3 O3 2.401312 1_555
Li4 O8 1.938124 1_555
Li4 O26 2.000253 1_555
Li4 O13 2.059202 1_555
Li5 O9 1.937918 1_455
Li5 O27 2.000022 1_555
Li5 O12 2.058839 1_555
Li6 O10 2.056897 1_455
Li6 O14 2.116193 1_555
Li6 O13 2.121419 1_455
Li6 O1 2.378632 1_555
Li7 O11 2.056756 1_555
Li7 O15 2.116390 1_655
Li7 O12 2.121580 1_555
Li7 O0 2.378510 1_656
Co0 O24 2.007671 1_465
Co0 O23 2.019460 1_555
Co0 O11 2.142153 1_555
Co0 O4 2.186323 1_565
Co0 O15 2.208925 1_555
Co0 O16 2.327689 1_565
Co1 O20 2.013307 1_655
Co1 O27 2.021656 1_555
Co1 O6 2.150651 1_555
Co1 O19 2.186129 1_655
Co1 O9 2.192239 1_555
Co1 O12 2.311405 1_555
Co2 O25 2.007593 1_565
Co2 O22 2.019353 1_655
Co2 O10 2.142345 1_555
Co2 O5 2.186286 1_565
Co2 O14 2.209108 1_555
Co2 O17 2.327880 1_665
Co3 O21 2.013861 1_555
Co3 O26 2.021763 1_455
Co3 O7 2.150732 1_555
Co3 O18 2.186289 1_555
Co3 O8 2.192537 1_555
Co3 O13 2.310876 1_455
O0 P0 1.653843 1_555
O0 P2 1.666545 1_554
O1 P1 1.653846 1_555
O1 P3 1.666536 1_555
O2 P4 1.654883 1_555
O2 P6 1.667739 1_554
O3 P5 1.654906 1_555
O3 P7 1.667629 1_555
O4 P7 1.528232 1_555
O5 P6 1.528475 1_554
O6 P4 1.532533 1_556
O7 P5 1.532595 1_555
O8 P2 1.528772 1_554
O9 P3 1.528680 1_555
O10 P1 1.532675 1_555
O11 P0 1.532734 1_556
O12 P2 1.544995 1_555
O13 P3 1.545275 1_555
O14 P0 1.538537 1_555
O15 P1 1.538484 1_455
O16 P6 1.545592 1_555
O17 P7 1.545618 1_555
O18 P4 1.539293 1_555
O19 P5 1.539162 1_555
O20 P2 1.505419 1_555
O21 P3 1.505115 1_555
O22 P0 1.522102 1_555
O23 P1 1.522232 1_555
O24 P6 1.503986 1_555
O25 P7 1.504375 1_555
O26 P4 1.521666 1_555
O27 P5 1.521788 1_555
