# generated using pymatgen
data_Sb2O5
_symmetry_space_group_name_H-M   'P 1'
_cell_length_a   5.40315847
_cell_length_b   5.40315847
_cell_length_c   9.68070177
_cell_angle_alpha   90.00000000
_cell_angle_beta   90.00000000
_cell_angle_gamma   137.34230022
_symmetry_Int_Tables_number   1
_chemical_formula_structural   Sb2O5
_chemical_formula_sum   'Sb4 O10'
_cell_volume   191.50780987
_cell_formula_units_Z   2
loop_
 _symmetry_equiv_pos_site_id
 _symmetry_equiv_pos_as_xyz
  1  'x, y, z'
loop_
 _atom_site_type_symbol
 _atom_site_label
 _atom_site_symmetry_multiplicity
 _atom_site_fract_x
 _atom_site_fract_y
 _atom_site_fract_z
 _atom_site_occupancy
  Sb  Sb0  1  0.63496749  0.36503251  0.56462255  1
  Sb  Sb1  1  0.36503251  0.63496749  0.43537745  1
  Sb  Sb2  1  0.36503251  0.63496749  0.06462255  1
  Sb  Sb3  1  0.63496749  0.36503251  0.93537745  1
  O  O0  1  0.70717086  0.29282914  0.75000000  1
  O  O1  1  0.44962793  0.55037207  0.61929597  1
  O  O2  1  0.18358013  0.81641987  0.53662384  1
  O  O3  1  0.81641987  0.18358013  0.46337616  1
  O  O4  1  0.55037207  0.44962793  0.38070403  1
  O  O5  1  0.29282914  0.70717086  0.25000000  1
  O  O6  1  0.55037207  0.44962793  0.11929597  1
  O  O7  1  0.44962793  0.55037207  0.88070403  1
  O  O8  1  0.81641987  0.18358013  0.03662384  1
  O  O9  1  0.18358013  0.81641987  0.96337616  1
loop_
_geom_bond_atom_site_label_1
_geom_bond_atom_site_label_2
_geom_bond_distance
_geom_bond_site_symmetry_2
O0 Sb3 1.936178 1_555
O0 Sb0 1.936178 1_555
O1 Sb0 1.939284 1_555
O1 Sb1 1.973621 1_555
O2 Sb0 2.043303 1_455
O2 Sb0 2.043303 1_565
O2 Sb1 2.072892 1_555
O3 Sb1 2.043303 1_545
O3 Sb1 2.043303 1_655
O3 Sb0 2.072892 1_555
O4 Sb1 1.939284 1_555
O4 Sb0 1.973621 1_555
O5 Sb1 1.936178 1_555
O5 Sb2 1.936178 1_555
O6 Sb2 1.939284 1_555
O6 Sb3 1.973621 1_554
O7 Sb3 1.939284 1_555
O7 Sb2 1.973621 1_556
O8 Sb2 2.043303 1_655
O8 Sb2 2.043303 1_545
O8 Sb3 2.072892 1_554
O9 Sb3 2.043303 1_565
O9 Sb3 2.043303 1_455
O9 Sb2 2.072892 1_556
