# generated using pymatgen
data_VAu
_symmetry_space_group_name_H-M   'P 1'
_cell_length_a   9.78047808
_cell_length_b   9.78047808
_cell_length_c   9.78047859
_cell_angle_alpha   33.52575299
_cell_angle_beta   33.52575299
_cell_angle_gamma   33.52575311
_symmetry_Int_Tables_number   1
_chemical_formula_structural   VAu
_chemical_formula_sum   'V8 Au8'
_cell_volume   254.19630222
_cell_formula_units_Z   8
loop_
 _symmetry_equiv_pos_site_id
 _symmetry_equiv_pos_as_xyz
  1  'x, y, z'
loop_
 _atom_site_type_symbol
 _atom_site_label
 _atom_site_symmetry_multiplicity
 _atom_site_fract_x
 _atom_site_fract_y
 _atom_site_fract_z
 _atom_site_occupancy
  V  V0_0  1  0.25000000  0.25000000  0.25000000  1
  V  V0_1  1  0.25000000  0.25000000  0.75000000  1
  V  V0_2  1  0.25000000  0.75000000  0.25000000  1
  V  V0_3  1  0.25000000  0.75000000  0.75000000  1
  V  V0_4  1  0.75000000  0.25000000  0.25000000  1
  V  V0_5  1  0.75000000  0.25000000  0.75000000  1
  V  V0_6  1  0.75000000  0.75000000  0.25000000  1
  V  V0_7  1  0.75000000  0.75000000  0.75000000  1
  Au  Au0_0  1  0.00000000  0.00000000  0.00000000  1
  Au  Au0_1  1  0.00000000  0.00000000  0.50000000  1
  Au  Au0_2  1  0.00000000  0.50000000  0.00000000  1
  Au  Au0_3  1  0.00000000  0.50000000  0.50000000  1
  Au  Au0_4  1  0.50000000  0.00000000  0.00000000  1
  Au  Au0_5  1  0.50000000  0.00000000  0.50000000  1
  Au  Au0_6  1  0.50000000  0.50000000  0.00000000  1
  Au  Au0_7  1  0.50000000  0.50000000  0.50000000  1
loop_
_geom_bond_atom_site_label_1
_geom_bond_atom_site_label_2
_geom_bond_distance
_geom_bond_site_symmetry_2
V0_0 V0_6 2.820802 1_545
V0_0 V0_6 2.820802 1_455
V0_0 V0_5 2.820802 1_455
V0_0 V0_3 2.820802 1_545
V0_0 V0_5 2.820802 1_554
V0_0 V0_3 2.820802 1_554
V0_1 V0_7 2.820802 1_455
V0_1 V0_7 2.820802 1_545
V0_1 V0_4 2.820802 1_555
V0_1 V0_2 2.820802 1_546
V0_1 V0_2 2.820802 1_555
V0_1 V0_4 2.820802 1_456
V0_2 V0_4 2.820802 1_555
V0_2 V0_4 2.820802 1_465
V0_2 V0_7 2.820802 1_455
V0_2 V0_7 2.820802 1_554
V0_3 V0_5 2.820802 1_465
V0_3 V0_5 2.820802 1_555
V0_3 V0_6 2.820802 1_555
V0_3 V0_6 2.820802 1_456
V0_4 V0_7 2.820802 1_545
V0_4 V0_7 2.820802 1_554
V0_5 V0_6 2.820802 1_546
V0_5 V0_6 2.820802 1_555
Au0_0 Au0_6 2.820802 1_545
Au0_0 Au0_6 2.820802 1_455
Au0_0 Au0_5 2.820802 1_455
Au0_0 Au0_3 2.820802 1_554
Au0_0 Au0_3 2.820802 1_545
Au0_0 Au0_5 2.820802 1_554
Au0_0 V0_1 2.822736 1_554
Au0_0 V0_6 2.822736 1_445
Au0_0 V0_2 2.822736 1_545
Au0_0 V0_4 2.822736 1_455
Au0_0 V0_5 2.822736 1_454
Au0_0 V0_3 2.822736 1_544
Au0_1 Au0_7 2.820802 1_545
Au0_1 Au0_7 2.820802 1_455
Au0_1 Au0_4 2.820802 1_555
Au0_1 Au0_2 2.820802 1_546
Au0_1 Au0_2 2.820802 1_555
Au0_1 Au0_4 2.820802 1_456
Au0_1 V0_0 2.822736 1_555
Au0_1 V0_7 2.822736 1_445
Au0_1 V0_5 2.822736 1_455
Au0_1 V0_3 2.822736 1_545
Au0_1 V0_2 2.822736 1_545
Au0_1 V0_4 2.822736 1_455
Au0_2 Au0_4 2.820802 1_465
Au0_2 Au0_4 2.820802 1_555
Au0_2 Au0_7 2.820802 1_455
Au0_2 Au0_7 2.820802 1_554
Au0_2 V0_3 2.822736 1_554
Au0_2 V0_4 2.822736 1_455
Au0_2 V0_0 2.822736 1_555
Au0_2 V0_6 2.822736 1_455
Au0_2 V0_7 2.822736 1_454
Au0_2 V0_1 2.822736 1_554
Au0_3 Au0_5 2.820802 1_465
Au0_3 Au0_5 2.820802 1_555
Au0_3 Au0_6 2.820802 1_555
Au0_3 Au0_6 2.820802 1_456
Au0_3 V0_2 2.822736 1_555
Au0_3 V0_5 2.822736 1_455
Au0_3 V0_1 2.822736 1_555
Au0_3 V0_0 2.822736 1_555
Au0_3 V0_7 2.822736 1_455
Au0_3 V0_6 2.822736 1_455
Au0_4 Au0_7 2.820802 1_545
Au0_4 Au0_7 2.820802 1_554
Au0_4 V0_5 2.822736 1_554
Au0_4 V0_2 2.822736 1_545
Au0_4 V0_0 2.822736 1_555
Au0_4 V0_6 2.822736 1_545
Au0_4 V0_7 2.822736 1_544
Au0_4 V0_1 2.822736 1_554
Au0_5 Au0_6 2.820802 1_546
Au0_5 Au0_6 2.820802 1_555
Au0_5 V0_4 2.822736 1_555
Au0_5 V0_3 2.822736 1_545
Au0_5 V0_1 2.822736 1_555
Au0_5 V0_7 2.822736 1_545
Au0_5 V0_6 2.822736 1_545
Au0_5 V0_0 2.822736 1_555
Au0_6 V0_7 2.822736 1_554
Au0_6 V0_0 2.822736 1_555
Au0_6 V0_4 2.822736 1_555
Au0_6 V0_2 2.822736 1_555
Au0_6 V0_3 2.822736 1_554
Au0_6 V0_5 2.822736 1_554
Au0_7 V0_1 2.822736 1_555
Au0_7 V0_6 2.822736 1_555
Au0_7 V0_2 2.822736 1_555
Au0_7 V0_4 2.822736 1_555
Au0_7 V0_3 2.822736 1_555
Au0_7 V0_5 2.822736 1_555
