# generated using pymatgen
data_Al2Cr3CuS8
_symmetry_space_group_name_H-M   'P 1'
_cell_length_a   7.05026809
_cell_length_b   7.05026809
_cell_length_c   7.05026754
_cell_angle_alpha   60.04553974
_cell_angle_beta   60.04553974
_cell_angle_gamma   60.04553538
_symmetry_Int_Tables_number   1
_chemical_formula_structural   Al2Cr3CuS8
_chemical_formula_sum   'Al2 Cr3 Cu1 S8'
_cell_volume   248.05609191
_cell_formula_units_Z   1
loop_
 _symmetry_equiv_pos_site_id
 _symmetry_equiv_pos_as_xyz
  1  'x, y, z'
loop_
 _atom_site_type_symbol
 _atom_site_label
 _atom_site_symmetry_multiplicity
 _atom_site_fract_x
 _atom_site_fract_y
 _atom_site_fract_z
 _atom_site_occupancy
  Al  Al0  1  0.00495500  0.00495500  0.00495500  1
  Al  Al1  1  0.62514600  0.62514600  0.62514600  1
  Cr  Cr0  1  0.48862600  0.00358800  0.00358800  1
  Cr  Cr1  1  0.00358800  0.00358800  0.48862600  1
  Cr  Cr2  1  0.00358800  0.48862600  0.00358800  1
  Cu  Cu0  1  0.37491400  0.37491400  0.37491400  1
  S  S0  1  0.22527000  0.75808900  0.75808900  1
  S  S1  1  0.75808900  0.75808900  0.22527000  1
  S  S2  1  0.75808900  0.22527000  0.75808900  1
  S  S3  1  0.75787500  0.75787500  0.75787500  1
  S  S4  1  0.77403300  0.24224500  0.24224500  1
  S  S5  1  0.24224500  0.24224500  0.77403300  1
  S  S6  1  0.24224500  0.77403300  0.24224500  1
  S  S7  1  0.24133700  0.24133700  0.24133700  1
loop_
_geom_bond_atom_site_label_1
_geom_bond_atom_site_label_2
_geom_bond_distance
_geom_bond_site_symmetry_2
Al0 S4 2.367116 1_455
Al0 S6 2.367116 1_545
Al0 S5 2.367117 1_554
Al0 S0 2.469169 1_544
Al0 S2 2.469169 1_454
Al0 S1 2.469169 1_445
Al1 S3 2.291382 1_555
Al1 S1 2.303215 1_555
Al1 S2 2.303216 1_555
Al1 S0 2.303216 1_555
Cr0 S7 2.372331 1_555
Cr0 S5 2.374248 1_554
Cr0 S6 2.374249 1_545
Cr0 S1 2.455136 1_545
Cr0 S2 2.455136 1_554
Cr0 S3 2.456518 1_544
Cr1 S7 2.372332 1_555
Cr1 S4 2.374248 1_455
Cr1 S6 2.374248 1_545
Cr1 S0 2.455136 1_545
Cr1 S2 2.455136 1_455
Cr1 S3 2.456518 1_445
Cr2 S7 2.372331 1_555
Cr2 S5 2.374248 1_554
Cr2 S4 2.374249 1_455
Cr2 S1 2.455136 1_455
Cr2 S0 2.455136 1_554
Cr2 S3 2.456518 1_454
Cu0 S5 2.298856 1_555
Cu0 S6 2.298856 1_555
Cu0 S4 2.298856 1_555
Cu0 S7 2.306022 1_555
