# generated using pymatgen
data_SrLaCrO4
_symmetry_space_group_name_H-M   'P 1'
_cell_length_a   5.54950978
_cell_length_b   13.07362324
_cell_length_c   5.54949493
_cell_angle_alpha   77.74806235
_cell_angle_beta   89.99920425
_cell_angle_gamma   102.25204932
_symmetry_Int_Tables_number   1
_chemical_formula_structural   SrLaCrO4
_chemical_formula_sum   'Sr4 La4 Cr4 O16'
_cell_volume   384.06816897
_cell_formula_units_Z   4
loop_
 _symmetry_equiv_pos_site_id
 _symmetry_equiv_pos_as_xyz
  1  'x, y, z'
loop_
 _atom_site_type_symbol
 _atom_site_label
 _atom_site_symmetry_multiplicity
 _atom_site_fract_x
 _atom_site_fract_y
 _atom_site_fract_z
 _atom_site_occupancy
  Sr  Sr0  1  0.32088300  0.64205900  0.67912300  1
  Sr  Sr1  1  0.07082700  0.14206800  0.42917400  1
  Sr  Sr2  1  0.82088800  0.64206600  0.17911500  1
  Sr  Sr3  1  0.57083000  0.14207300  0.92916900  1
  La  La0  1  0.92965100  0.85905900  0.57035000  1
  La  La1  1  0.67963700  0.35905100  0.32036200  1
  La  La2  1  0.42965700  0.85906600  0.07034400  1
  La  La3  1  0.17963200  0.35904600  0.82036500  1
  Cr  Cr0  1  0.50119000  0.00233900  0.49882100  1
  Cr  Cr1  1  0.25117500  0.50234800  0.24881300  1
  Cr  Cr2  1  0.75116500  0.50234800  0.74882600  1
  Cr  Cr3  1  0.00119700  0.00235100  0.99881600  1
  O  O0  1  0.41815900  0.83622900  0.58183700  1
  O  O1  1  0.16819300  0.33638600  0.33181200  1
  O  O2  1  0.91816200  0.83623200  0.08183600  1
  O  O3  1  0.66819600  0.33638800  0.83180700  1
  O  O4  1  0.83529900  0.67075600  0.66470100  1
  O  O5  1  0.58575000  0.17107300  0.41425200  1
  O  O6  1  0.33529900  0.67075700  0.16470200  1
  O  O7  1  0.08574700  0.17107100  0.91425400  1
  O  O8  1  0.24725900  0.99468500  0.75275000  1
  O  O9  1  0.99736800  0.49462900  0.50262300  1
  O  O10  1  0.74724900  0.99468400  0.25275700  1
  O  O11  1  0.49736200  0.49462700  0.00263100  1
  O  O12  1  0.24724400  0.99468100  0.25275800  1
  O  O13  1  0.99738100  0.49462100  0.00263200  1
  O  O14  1  0.74723400  0.99467900  0.75274900  1
  O  O15  1  0.49736800  0.49462100  0.50262300  1
loop_
_geom_bond_atom_site_label_1
_geom_bond_atom_site_label_2
_geom_bond_distance
_geom_bond_site_symmetry_2
La0 O4 2.348322 1_555
La0 O12 2.589154 1_655
La0 O10 2.590436 1_555
La0 O8 2.590480 1_655
La0 O14 2.591635 1_555
La0 O0 2.788891 1_655
La0 O2 2.788904 1_555
La0 O2 2.789720 1_556
La0 O0 2.789756 1_555
La1 O5 2.344268 1_555
La1 O13 2.589744 1_555
La1 O9 2.590041 1_555
La1 O11 2.590069 1_555
La1 O15 2.590229 1_555
La1 O3 2.788470 1_554
La1 O1 2.788491 1_655
La1 O1 2.789737 1_555
La1 O3 2.789739 1_555
La2 O6 2.348396 1_555
La2 O14 2.589069 1_554
La2 O8 2.590378 1_554
La2 O10 2.590406 1_555
La2 O12 2.591612 1_555
La2 O2 2.788891 1_555
La2 O0 2.788906 1_554
La2 O0 2.789744 1_555
La2 O2 2.789767 1_455
La3 O7 2.344231 1_555
La3 O15 2.589782 1_555
La3 O11 2.590078 1_556
La3 O9 2.590126 1_455
La3 O13 2.590249 1_456
La3 O1 2.788447 1_555
La3 O3 2.788507 1_555
La3 O3 2.789704 1_455
La3 O1 2.789754 1_556
Cr0 O10 1.963479 1_545
Cr0 O14 1.964274 1_545
Cr0 O12 1.964417 1_545
Cr0 O8 1.965163 1_545
Cr0 O0 2.071553 1_545
Cr0 O5 2.104277 1_555
Cr1 O9 1.963996 1_455
Cr1 O13 1.964326 1_455
Cr1 O15 1.964436 1_555
Cr1 O11 1.964742 1_555
Cr1 O1 2.069707 1_555
Cr1 O6 2.100224 1_555
Cr2 O11 1.963954 1_556
Cr2 O15 1.964424 1_555
Cr2 O13 1.964510 1_556
Cr2 O9 1.964878 1_555
Cr2 O3 2.069682 1_555
Cr2 O4 2.100211 1_555
Cr3 O8 1.963548 1_545
Cr3 O12 1.964346 1_546
Cr3 O14 1.964508 1_445
Cr3 O10 1.965234 1_446
Cr3 O2 2.071665 1_446
Cr3 O7 2.104103 1_555
O0 Sr0 2.421489 1_555
O1 Sr1 2.423335 1_555
O2 Sr2 2.421439 1_555
O3 Sr3 2.423297 1_555
O4 Sr2 2.797331 1_555
O4 Sr0 2.797358 1_655
O4 Sr2 2.798110 1_556
O4 Sr0 2.798120 1_555
O5 Sr1 2.795910 1_655
O5 Sr3 2.795914 1_554
O5 Sr3 2.800523 1_555
O5 Sr1 2.800557 1_555
O6 Sr0 2.797327 1_554
O6 Sr2 2.797359 1_555
O6 Sr2 2.798099 1_455
O6 Sr0 2.798139 1_555
O7 Sr1 2.795910 1_555
O7 Sr3 2.795913 1_555
O7 Sr3 2.800532 1_455
O7 Sr1 2.800536 1_556
O8 Sr3 2.688498 1_565
O8 Sr1 2.688510 1_565
O9 Sr2 2.688913 1_555
O9 Sr0 2.688928 1_655
O10 Sr1 2.688478 1_665
O10 Sr3 2.688558 1_564
O11 Sr0 2.688868 1_554
O11 Sr2 2.688990 1_555
O12 Sr3 2.687972 1_564
O12 Sr1 2.689078 1_565
O13 Sr0 2.687763 1_654
O13 Sr2 2.690148 1_555
O14 Sr1 2.687935 1_665
O14 Sr3 2.689132 1_565
O15 Sr2 2.687852 1_555
O15 Sr0 2.690094 1_555
