# generated using pymatgen
data_Mg6NbSn
_symmetry_space_group_name_H-M   'P 1'
_cell_length_a   5.13266800
_cell_length_b   6.03920400
_cell_length_c   11.05643800
_cell_angle_alpha   90.00000000
_cell_angle_beta   90.00000000
_cell_angle_gamma   90.00000000
_symmetry_Int_Tables_number   1
_chemical_formula_structural   Mg6NbSn
_chemical_formula_sum   'Mg12 Nb2 Sn2'
_cell_volume   342.71894190
_cell_formula_units_Z   2
loop_
 _symmetry_equiv_pos_site_id
 _symmetry_equiv_pos_as_xyz
  1  'x, y, z'
loop_
 _atom_site_type_symbol
 _atom_site_label
 _atom_site_symmetry_multiplicity
 _atom_site_fract_x
 _atom_site_fract_y
 _atom_site_fract_z
 _atom_site_occupancy
  Mg  Mg0  1  0.50000000  0.25153100  0.41778000  1
  Mg  Mg1  1  0.50000000  0.74846900  0.41778000  1
  Mg  Mg2  1  0.00000000  0.73907700  0.08305400  1
  Mg  Mg3  1  0.00000000  0.26092300  0.08305400  1
  Mg  Mg4  1  0.00000000  0.00000000  0.33482700  1
  Mg  Mg5  1  0.00000000  0.50000000  0.32691200  1
  Mg  Mg6  1  0.50000000  0.75153100  0.91778000  1
  Mg  Mg7  1  0.50000000  0.24846900  0.91778000  1
  Mg  Mg8  1  0.00000000  0.23907700  0.58305400  1
  Mg  Mg9  1  0.00000000  0.76092300  0.58305400  1
  Mg  Mg10  1  0.00000000  0.50000000  0.83482700  1
  Mg  Mg11  1  0.00000000  0.00000000  0.82691200  1
  Nb  Nb0  1  0.50000000  0.50000000  0.16935100  1
  Nb  Nb1  1  0.50000000  0.00000000  0.66935100  1
  Sn  Sn0  1  0.50000000  0.00000000  0.16723800  1
  Sn  Sn1  1  0.50000000  0.50000000  0.66723800  1
loop_
_geom_bond_atom_site_label_1
_geom_bond_atom_site_label_2
_geom_bond_distance
_geom_bond_site_symmetry_2
Mg0 Mg1 3.001110 1_555
Mg0 Mg1 3.038094 1_545
Mg0 Mg4 3.120059 1_555
Mg0 Mg4 3.120059 1_655
Mg0 Nb0 3.129895 1_555
Mg0 Mg5 3.138011 1_655
Mg0 Mg5 3.138011 1_555
Mg0 Sn1 3.139884 1_555
Mg0 Mg8 3.151334 1_555
Mg0 Mg8 3.151334 1_655
Mg0 Sn0 3.159267 1_555
Mg0 Nb1 3.169248 1_555
Mg1 Mg4 3.120059 1_565
Mg1 Mg4 3.120059 1_665
Mg1 Nb0 3.129895 1_555
Mg1 Mg5 3.138011 1_655
Mg1 Mg5 3.138011 1_555
Mg1 Sn1 3.139884 1_555
Mg1 Mg9 3.151334 1_655
Mg1 Mg9 3.151334 1_555
Mg1 Sn0 3.159267 1_565
Mg1 Nb1 3.169248 1_565
Mg2 Mg3 2.887670 1_555
Mg2 Mg5 3.058457 1_555
Mg2 Nb0 3.095336 1_455
Mg2 Nb0 3.095336 1_555
Mg2 Mg6 3.151334 1_454
Mg2 Mg6 3.151334 1_554
Mg2 Mg3 3.151534 1_565
Mg2 Sn0 3.152056 1_465
Mg2 Sn0 3.152056 1_565
Mg2 Mg4 3.198765 1_565
Mg3 Mg5 3.058457 1_555
Mg3 Nb0 3.095336 1_455
Mg3 Nb0 3.095336 1_555
Mg3 Mg7 3.151334 1_454
Mg3 Mg7 3.151334 1_554
Mg3 Sn0 3.152056 1_455
Mg3 Sn0 3.152056 1_555
Mg3 Mg4 3.198765 1_555
Mg4 Mg5 3.020870 1_545
Mg4 Mg5 3.020870 1_555
Mg4 Mg8 3.101125 1_555
Mg4 Mg9 3.101125 1_545
Mg4 Sn0 3.165351 1_555
Mg4 Sn0 3.165351 1_455
Mg5 Nb0 3.101750 1_455
Mg5 Nb0 3.101750 1_555
Mg5 Mg9 3.240890 1_555
Mg5 Mg8 3.240890 1_555
Mg6 Mg7 3.001110 1_565
Mg6 Mg7 3.038094 1_555
Mg6 Nb1 3.129895 1_565
Mg6 Sn0 3.139884 1_566
Mg6 Sn1 3.159267 1_555
Mg6 Nb0 3.169248 1_556
Mg7 Nb1 3.129895 1_555
Mg7 Sn0 3.139884 1_556
Mg7 Sn1 3.159267 1_555
Mg7 Nb0 3.169248 1_556
Mg8 Mg9 2.887670 1_545
Mg8 Nb1 3.095336 1_455
Mg8 Nb1 3.095336 1_555
Mg8 Mg9 3.151534 1_555
Mg8 Sn1 3.152056 1_555
Mg8 Sn1 3.152056 1_455
Mg9 Nb1 3.095336 1_465
Mg9 Nb1 3.095336 1_565
Mg9 Sn1 3.152056 1_455
Mg9 Sn1 3.152056 1_555
Mg10 Mg11 3.020870 1_565
Mg10 Mg11 3.020870 1_555
Mg10 Mg2 3.101125 1_556
Mg10 Mg3 3.101125 1_556
Mg10 Mg6 3.120059 1_555
Mg10 Mg6 3.120059 1_455
Mg10 Mg7 3.120059 1_555
Mg10 Mg7 3.120059 1_455
Mg10 Sn1 3.165351 1_455
Mg10 Sn1 3.165351 1_555
Mg10 Mg9 3.198765 1_555
Mg10 Mg8 3.198765 1_555
Mg11 Mg8 3.058457 1_555
Mg11 Mg9 3.058457 1_545
Mg11 Nb1 3.101750 1_455
Mg11 Nb1 3.101750 1_555
Mg11 Mg7 3.138011 1_455
Mg11 Mg6 3.138011 1_545
Mg11 Mg7 3.138011 1_555
Mg11 Mg6 3.138011 1_445
Mg11 Mg3 3.240890 1_556
Mg11 Mg2 3.240890 1_546
Nb0 Sn0 3.019692 1_555
Nb0 Sn0 3.019692 1_565
Nb1 Sn1 3.019692 1_545
Nb1 Sn1 3.019692 1_555
