# generated using pymatgen
data_Er3Ni7B2
_symmetry_space_group_name_H-M   'P 1'
_cell_length_a   5.00647881
_cell_length_b   5.00646796
_cell_length_c   14.11959210
_cell_angle_alpha   89.99999655
_cell_angle_beta   90.00021798
_cell_angle_gamma   119.99591320
_symmetry_Int_Tables_number   1
_chemical_formula_structural   Er3Ni7B2
_chemical_formula_sum   'Er6 Ni14 B4'
_cell_volume   306.50283003
_cell_formula_units_Z   2
loop_
 _symmetry_equiv_pos_site_id
 _symmetry_equiv_pos_as_xyz
  1  'x, y, z'
loop_
 _atom_site_type_symbol
 _atom_site_label
 _atom_site_symmetry_multiplicity
 _atom_site_fract_x
 _atom_site_fract_y
 _atom_site_fract_z
 _atom_site_occupancy
  Er  Er0  1  0.33332608  0.66667257  0.46766872  1
  Er  Er1  1  0.66667476  0.33332756  0.96773476  1
  Er  Er2  1  0.66667419  0.33332877  0.53225940  1
  Er  Er3  1  0.33332481  0.66667119  0.03233505  1
  Er  Er4  1  0.66666798  0.33333417  0.74995955  1
  Er  Er5  1  0.33333054  0.66666664  0.25004078  1
  Ni  Ni0  1  0.83460632  0.16539327  0.35161570  1
  Ni  Ni1  1  0.83458823  0.66918746  0.35161258  1
  Ni  Ni2  1  0.00000217  0.00001460  0.00008849  1
  Ni  Ni3  1  -0.00000416  0.99999211  0.49991494  1
  Ni  Ni4  1  0.83457335  0.66919325  0.14848495  1
  Ni  Ni5  1  0.16539917  0.83460528  0.64829125  1
  Ni  Ni6  1  0.66919602  0.83458870  0.64829564  1
  Ni  Ni7  1  0.33079486  0.16540641  0.14848528  1
  Ni  Ni8  1  0.83459451  0.16538542  0.14848278  1
  Ni  Ni9  1  0.16542145  0.33080663  0.85160592  1
  Ni  Ni10  1  0.16540368  0.83461359  0.85161020  1
  Ni  Ni11  1  0.16541539  0.33080862  0.64829617  1
  Ni  Ni12  1  0.66920590  0.83459516  0.85160739  1
  Ni  Ni13  1  0.33080715  0.16540839  0.35161154  1
  B  B0  1  0.66666713  0.33333134  0.25004584  1
  B  B1  1  0.33333055  0.66666870  0.74995128  1
  B  B2  1  -0.00000293  0.00000320  0.74995410  1
  B  B3  1  0.00000184  -0.00000401  0.25004670  1
loop_
_geom_bond_atom_site_label_1
_geom_bond_atom_site_label_2
_geom_bond_distance
_geom_bond_site_symmetry_2
Er0 Ni3 2.925998 1_555
Er0 Ni3 2.926260 1_655
Er0 Ni3 2.926303 1_545
Er0 Ni5 2.936759 1_555
Er0 Ni6 2.936872 1_555
Er0 Ni11 2.936873 1_555
Er0 Ni1 2.991889 1_455
Er0 Ni13 2.991897 1_565
Er0 Ni13 2.991938 1_555
Er0 Ni1 2.991940 1_555
Er0 Ni0 2.992011 1_455
Er0 Ni0 2.992025 1_565
Er0 Er5 3.072818 1_555
Er1 Ni2 2.926192 1_656
Er1 Ni2 2.926513 1_556
Er1 Ni2 2.926566 1_666
Er1 Ni8 2.938297 1_556
Er1 Ni4 2.938376 1_556
Er1 Ni7 2.938420 1_556
Er1 Ni9 2.992442 1_555
Er1 Ni12 2.992452 1_545
Er1 Ni12 2.992470 1_555
Er1 Ni9 2.992511 1_655
Er1 Ni10 2.992535 1_545
Er1 Ni10 2.992608 1_655
Er1 Er4 3.074897 1_555
Er2 Ni3 2.926251 1_645
Er2 Ni3 2.926446 1_655
Er2 Ni3 2.926513 1_545
Er2 Ni0 2.937036 1_555
Er2 Ni1 2.937099 1_555
Er2 Ni13 2.937123 1_555
Er2 Ni6 2.991752 1_555
Er2 Ni6 2.991759 1_545
Er2 Ni11 2.991764 1_655
Er2 Ni11 2.991765 1_555
Er2 Ni5 2.991852 1_655
Er2 Ni5 2.991856 1_545
Er2 Er4 3.073837 1_555
Er3 Ni2 2.926067 1_565
Er3 Ni2 2.926199 1_555
Er3 Ni2 2.926297 1_665
Er3 Ni10 2.938017 1_554
Er3 Ni9 2.938115 1_554
Er3 Ni12 2.938143 1_554
Er3 Ni4 2.992583 1_555
Er3 Ni7 2.992638 1_555
Er3 Ni7 2.992638 1_565
Er3 Ni4 2.992696 1_455
Er3 Ni8 2.992712 1_565
Er3 Ni8 2.992789 1_455
Er3 Er5 3.073916 1_555
Er4 Ni9 2.885436 1_555
Er4 Ni12 2.885477 1_555
Er4 Ni12 2.885545 1_545
Er4 Ni9 2.885575 1_655
Er4 Ni11 2.885577 1_555
Er4 Ni6 2.885583 1_555
Er4 Ni10 2.885639 1_545
Er4 Ni6 2.885665 1_545
Er4 Ni11 2.885673 1_655
Er4 Ni10 2.885696 1_655
Er4 Ni5 2.885782 1_545
Er4 Ni5 2.885801 1_655
Er5 Ni4 2.884786 1_555
Er5 Ni7 2.884831 1_555
Er5 Ni7 2.884895 1_565
Er5 Ni4 2.884953 1_455
Er5 Ni13 2.884955 1_555
Er5 Ni1 2.884966 1_555
Er5 Ni13 2.884984 1_565
Er5 Ni8 2.884984 1_565
Er5 Ni1 2.884998 1_455
Er5 Ni8 2.885050 1_455
Er5 Ni0 2.885135 1_455
Er5 Ni0 2.885137 1_565
Ni0 Ni3 2.537993 1_645
Ni1 Ni3 2.538113 1_655
Ni2 Ni8 2.539076 1_455
Ni2 Ni7 2.539183 1_555
Ni2 Ni4 2.539255 1_445
Ni2 Ni9 2.540187 1_554
Ni3 Ni5 2.538890 1_555
Ni3 Ni6 2.539023 1_455
Ni10 Ni2 2.540114 1_566
Ni11 Ni3 2.539061 1_545
Ni12 Ni2 2.540174 1_666
Ni13 Ni3 2.538151 1_545
B0 Ni8 2.043782 1_555
B0 Ni4 2.043788 1_555
B0 Ni7 2.043813 1_555
B0 Ni1 2.043824 1_555
B0 Ni13 2.043835 1_555
B0 Ni0 2.043857 1_555
B0 Er5 2.890452 1_555
B0 Er5 2.890596 1_545
B0 Er5 2.890597 1_655
B1 Ni11 2.044712 1_555
B1 Ni9 2.044718 1_555
B1 Ni5 2.044722 1_555
B1 Ni10 2.044727 1_555
B1 Ni6 2.044743 1_555
B1 Ni12 2.044769 1_555
B1 Er4 2.890452 1_555
B1 Er4 2.890593 1_455
B1 Er4 2.890599 1_565
B2 Ni10 2.029081 1_545
B2 Ni12 2.029108 1_445
B2 Ni9 2.029122 1_555
B2 Ni5 2.029165 1_545
B2 Ni6 2.029181 1_445
B2 Ni11 2.029194 1_555
B2 Er4 2.890401 1_455
B2 Er4 2.890615 1_445
B2 Er4 2.890629 1_555
B3 Ni8 2.028162 1_455
B3 Ni7 2.028196 1_555
B3 Ni0 2.028206 1_455
B3 Ni4 2.028221 1_445
B3 Ni13 2.028259 1_555
B3 Ni1 2.028284 1_445
B3 Er5 2.890392 1_545
B3 Er5 2.890622 1_555
B3 Er5 2.890631 1_445
