# generated using pymatgen
data_Cr46(BC3)3
_symmetry_space_group_name_H-M   'P 1'
_cell_length_a   7.48411600
_cell_length_b   7.48985682
_cell_length_c   12.95033497
_cell_angle_alpha   73.50145664
_cell_angle_beta   73.40631115
_cell_angle_gamma   60.13797973
_symmetry_Int_Tables_number   1
_chemical_formula_structural   Cr46(BC3)3
_chemical_formula_sum   'Cr46 B3 C9'
_cell_volume   594.48283578
_cell_formula_units_Z   1
loop_
 _symmetry_equiv_pos_site_id
 _symmetry_equiv_pos_as_xyz
  1  'x, y, z'
loop_
 _atom_site_type_symbol
 _atom_site_label
 _atom_site_symmetry_multiplicity
 _atom_site_fract_x
 _atom_site_fract_y
 _atom_site_fract_z
 _atom_site_occupancy
  Cr  Cr0  1  0.65935500  0.34003700  0.99990200  1
  Cr  Cr1  1  0.15672200  0.84673900  0.49755500  1
  Cr  Cr2  1  0.82738700  0.17661600  0.82819000  1
  Cr  Cr3  1  0.32773700  0.67713900  0.32720400  1
  Cr  Cr4  1  0.65306500  0.00231600  0.00249100  1
  Cr  Cr5  1  0.14967100  0.50081300  0.49973500  1
  Cr  Cr6  1  0.16987600  0.16946500  0.82977100  1
  Cr  Cr7  1  0.66917900  0.66894000  0.33024500  1
  Cr  Cr8  1  0.99945900  0.33722700  0.00062600  1
  Cr  Cr9  1  0.49940400  0.83847600  0.49994500  1
  Cr  Cr10  1  0.83551000  0.49976100  0.49990600  1
  Cr  Cr11  1  0.33719800  0.99991900  0.00011000  1
  Cr  Cr12  1  0.33124700  0.32315900  0.67225500  1
  Cr  Cr13  1  0.82945700  0.82971800  0.17014100  1
  Cr  Cr14  1  0.66804600  0.33136200  0.66942600  1
  Cr  Cr15  1  0.16847400  0.83153400  0.16869900  1
  Cr  Cr16  1  0.33356100  0.67110900  0.67125400  1
  Cr  Cr17  1  0.83135800  0.16843000  0.16870000  1
  Cr  Cr18  1  0.34007200  0.65953400  0.99970700  1
  Cr  Cr19  1  0.83876700  0.16085200  0.49957100  1
  Cr  Cr20  1  0.50180100  0.15279300  0.50189300  1
  Cr  Cr21  1  0.00211700  0.65316000  0.00268100  1
  Cr  Cr22  1  0.17684300  0.82821400  0.82771700  1
  Cr  Cr23  1  0.67609800  0.32898600  0.32842100  1
  Cr  Cr24  1  0.05173100  0.56693500  0.81167100  1
  Cr  Cr25  1  0.55102800  0.06866100  0.30915000  1
  Cr  Cr26  1  0.57400700  0.57260000  0.80968600  1
  Cr  Cr27  1  0.07281800  0.07378000  0.30848200  1
  Cr  Cr28  1  0.80830300  0.81065900  0.57085400  1
  Cr  Cr29  1  0.30897000  0.30937200  0.07293300  1
  Cr  Cr30  1  0.56996600  0.04922800  0.80999000  1
  Cr  Cr31  1  0.06881700  0.55030000  0.30881600  1
  Cr  Cr32  1  0.45639800  0.92645600  0.69103700  1
  Cr  Cr33  1  0.95355400  0.42784300  0.19075600  1
  Cr  Cr34  1  0.92951800  0.93296900  0.68946400  1
  Cr  Cr35  1  0.42996100  0.42995000  0.18867900  1
  Cr  Cr36  1  0.68930200  0.68882200  0.93014200  1
  Cr  Cr37  1  0.18947700  0.18963300  0.42864800  1
  Cr  Cr38  1  0.92764300  0.45090900  0.69120000  1
  Cr  Cr39  1  0.42769900  0.95437300  0.19039100  1
  Cr  Cr40  1  0.99457700  0.99457500  0.99530800  1
  Cr  Cr41  1  0.48157800  0.49870800  0.49996900  1
  Cr  Cr42  1  0.37660000  0.37499900  0.87565100  1
  Cr  Cr43  1  0.87655000  0.87599900  0.37422000  1
  Cr  Cr44  1  0.12720800  0.12500900  0.62539200  1
  Cr  Cr45  1  0.62520100  0.62557700  0.12575000  1
  B  B0  1  0.86460900  0.86359000  0.86449100  1
  B  B1  1  0.36501700  0.36365800  0.36273600  1
  B  B2  1  0.09083700  0.63713200  0.63740100  1
  C  C0  1  0.58441900  0.13942600  0.13952300  1
  C  C1  1  0.86294100  0.41621400  0.86227000  1
  C  C2  1  0.36308300  0.91786100  0.36062700  1
  C  C3  1  0.64087300  0.63844300  0.63822300  1
  C  C4  1  0.13869200  0.13848400  0.13840900  1
  C  C5  1  0.41753400  0.86193600  0.86189900  1
  C  C6  1  0.91776200  0.36196600  0.36152000  1
  C  C7  1  0.64153700  0.08298300  0.63915400  1
  C  C8  1  0.13938900  0.58465300  0.13941300  1
loop_
_geom_bond_atom_site_label_1
_geom_bond_atom_site_label_2
_geom_bond_distance
_geom_bond_site_symmetry_2
Cr0 Cr40 2.555489 1_545
Cr1 Cr41 2.528420 1_555
Cr2 Cr40 2.506070 1_545
Cr3 Cr41 2.521549 1_555
Cr4 Cr40 2.502881 1_544
Cr10 Cr41 2.652571 1_555
Cr11 Cr40 2.602954 1_454
Cr12 Cr41 2.519095 1_555
Cr13 Cr40 2.551791 1_554
Cr14 Cr41 2.603758 1_555
Cr15 Cr40 2.599278 1_454
Cr16 Cr41 2.571733 1_555
Cr17 Cr40 2.596159 1_544
Cr18 Cr40 2.554943 1_455
Cr19 Cr41 2.610135 1_555
Cr20 Cr41 2.512180 1_555
Cr21 Cr40 2.504399 1_454
Cr22 Cr40 2.505236 1_455
Cr23 Cr41 2.566066 1_555
Cr24 Cr42 2.378668 1_555
Cr25 Cr43 2.389298 1_545
Cr26 Cr42 2.416902 1_555
Cr27 Cr43 2.411044 1_445
Cr28 Cr43 2.404813 1_555
Cr29 Cr42 2.412679 1_554
Cr30 Cr42 2.393766 1_555
Cr31 Cr43 2.391801 1_455
Cr32 Cr44 2.415312 1_565
Cr33 Cr45 2.406294 1_555
Cr34 Cr44 2.384642 1_665
Cr35 Cr45 2.391608 1_555
Cr36 Cr45 2.392114 1_556
Cr37 Cr44 2.406081 1_555
Cr38 Cr44 2.395682 1_655
Cr39 Cr45 2.406133 1_555
Cr40 Cr6 2.557884 1_665
Cr40 Cr8 2.605334 1_566
Cr41 Cr5 2.477082 1_555
Cr41 Cr9 2.613713 1_555
Cr41 Cr7 2.618470 1_555
B0 Cr30 2.138310 1_565
B0 Cr22 2.139412 1_655
B0 Cr21 2.140215 1_656
B0 Cr4 2.140217 1_566
B0 Cr24 2.140898 1_655
B0 Cr2 2.143307 1_565
B0 Cr34 2.144113 1_555
B0 Cr36 2.144457 1_555
B0 Cr40 2.759378 1_555
B1 Cr35 2.131336 1_555
B1 Cr5 2.133959 1_555
B1 Cr25 2.134822 1_555
B1 Cr23 2.134904 1_555
B1 Cr37 2.141562 1_555
B1 Cr31 2.144690 1_555
B1 Cr3 2.147015 1_555
B1 Cr20 2.148739 1_555
B1 Cr41 2.779910 1_555
B2 Cr16 2.129673 1_555
B2 Cr34 2.131077 1_455
B2 Cr5 2.133685 1_555
B2 Cr24 2.134829 1_555
B2 Cr28 2.137988 1_455
B2 Cr38 2.140330 1_455
B2 Cr12 2.149099 1_555
B2 Cr1 2.152591 1_555
B2 Cr41 2.801865 1_555
C0 Cr25 2.079909 1_555
C0 Cr35 2.082787 1_555
C0 Cr39 2.095164 1_545
C0 Cr29 2.095827 1_555
C0 Cr17 2.109689 1_555
C0 Cr4 2.111100 1_555
C0 Cr13 2.134922 1_545
C0 Cr0 2.135042 1_554
C1 Cr24 2.083149 1_655
C1 Cr36 2.086843 1_555
C1 Cr26 2.092245 1_555
C1 Cr38 2.096582 1_555
C1 Cr8 2.108533 1_556
C1 Cr2 2.116239 1_555
C1 Cr6 2.128716 1_655
C1 Cr0 2.135630 1_555
C2 Cr25 2.077855 1_565
C2 Cr37 2.082916 1_565
C2 Cr39 2.085495 1_555
C2 Cr27 2.098254 1_565
C2 Cr9 2.118393 1_555
C2 Cr3 2.119351 1_555
C2 Cr7 2.127763 1_555
C2 Cr1 2.128850 1_555
C3 Cr28 2.083523 1_555
C3 Cr38 2.083635 1_555
C3 Cr32 2.088105 1_555
C3 Cr26 2.100803 1_555
C3 Cr10 2.114029 1_555
C3 Cr16 2.114189 1_555
C3 Cr14 2.132575 1_555
C3 Cr9 2.133506 1_555
C4 Cr27 2.083364 1_555
C4 Cr39 2.089815 1_545
C4 Cr29 2.090917 1_555
C4 Cr33 2.093804 1_455
C4 Cr11 2.119564 1_545
C4 Cr8 2.119958 1_455
C4 Cr17 2.125001 1_455
C4 Cr15 2.125190 1_545
C5 Cr30 2.083555 1_565
C5 Cr36 2.085374 1_555
C5 Cr26 2.092288 1_555
C5 Cr32 2.092676 1_555
C5 Cr11 2.109606 1_556
C5 Cr22 2.115815 1_555
C5 Cr6 2.135112 1_565
C5 Cr18 2.137013 1_555
C6 Cr37 2.077410 1_655
C6 Cr31 2.081867 1_655
C6 Cr27 2.090428 1_655
C6 Cr33 2.092663 1_555
C6 Cr10 2.107995 1_555
C6 Cr23 2.112765 1_555
C6 Cr7 2.133857 1_555
C6 Cr19 2.137362 1_555
C7 Cr34 2.075309 1_545
C7 Cr28 2.087924 1_545
C7 Cr32 2.093867 1_545
C7 Cr30 2.094225 1_555
C7 Cr14 2.116613 1_555
C7 Cr20 2.125140 1_555
C7 Cr19 2.126281 1_555
C7 Cr12 2.126490 1_555
C8 Cr31 2.076281 1_555
C8 Cr35 2.083785 1_555
C8 Cr29 2.093165 1_555
C8 Cr33 2.100189 1_455
C8 Cr21 2.110039 1_555
C8 Cr15 2.111092 1_555
C8 Cr18 2.134045 1_554
C8 Cr13 2.134401 1_455
