# generated using pymatgen
data_Ba8Co7O19
_symmetry_space_group_name_H-M   'P 1'
_cell_length_a   13.83841700
_cell_length_b   11.87223709
_cell_length_c   10.83800730
_cell_angle_alpha   74.92959043
_cell_angle_beta   55.93599296
_cell_angle_gamma   49.13441661
_symmetry_Int_Tables_number   1
_chemical_formula_structural   Ba8Co7O19
_chemical_formula_sum   'Ba16 Co14 O38'
_cell_volume   1099.29447333
_cell_formula_units_Z   2
loop_
 _symmetry_equiv_pos_site_id
 _symmetry_equiv_pos_as_xyz
  1  'x, y, z'
loop_
 _atom_site_type_symbol
 _atom_site_label
 _atom_site_symmetry_multiplicity
 _atom_site_fract_x
 _atom_site_fract_y
 _atom_site_fract_z
 _atom_site_occupancy
  Ba  Ba0  1  0.06855700  0.06855700  0.93144300  1
  Ba  Ba1  1  0.33241000  0.85308700  0.17501900  1
  Ba  Ba2  1  0.08356700  0.75194500  0.21015800  1
  Ba  Ba3  1  0.29021100  0.53817400  0.46744300  1
  Ba  Ba4  1  0.31855700  0.31855700  0.18144300  1
  Ba  Ba5  1  0.03984200  0.29567000  0.16643300  1
  Ba  Ba6  1  0.61051600  0.07498100  0.39691300  1
  Ba  Ba7  1  0.54582800  0.78255700  0.71182600  1
  Ba  Ba8  1  0.29567000  0.03984200  0.49805500  1
  Ba  Ba9  1  0.83189000  0.83189000  0.66811000  1
  Ba  Ba10  1  0.07498100  0.61051600  0.91759000  1
  Ba  Ba11  1  0.78255700  0.54582800  0.95978900  1
  Ba  Ba12  1  0.85308700  0.33241000  0.63948400  1
  Ba  Ba13  1  0.53817400  0.29021100  0.70417200  1
  Ba  Ba14  1  0.75194500  0.08356700  0.95433000  1
  Ba  Ba15  1  0.58189000  0.58189000  0.41811000  1
  Co  Co0  1  0.48716100  0.48716100  0.01283900  1
  Co  Co1  1  0.42197400  0.09460400  0.87213000  1
  Co  Co2  1  0.09460400  0.42197400  0.61129200  1
  Co  Co3  1  0.23716100  0.23716100  0.76283900  1
  Co  Co4  1  0.63870800  0.37787000  0.15539600  1
  Co  Co5  1  0.79210800  0.19974000  0.28351200  1
  Co  Co6  1  0.95500300  0.03513000  0.42047400  1
  Co  Co7  1  0.37787000  0.63870800  0.82802600  1
  Co  Co8  1  0.03513000  0.95500300  0.58939300  1
  Co  Co9  1  0.19974000  0.79210800  0.72464000  1
  Co  Co10  1  0.52536000  0.96648800  0.05026000  1
  Co  Co11  1  0.66060700  0.82952600  0.21487000  1
  Co  Co12  1  0.82952600  0.66060700  0.29499700  1
  Co  Co13  1  0.96648800  0.52536000  0.45789200  1
  O  O0  1  0.31279400  0.26778600  0.55640700  1
  O  O1  1  0.38698700  0.69359300  0.98221400  1
  O  O2  1  0.07550900  0.27876200  0.77163000  1
  O  O3  1  0.27876200  0.07550900  0.87409900  1
  O  O4  1  0.09665600  0.56051800  0.43598700  1
  O  O5  1  0.26778600  0.31279400  0.86301300  1
  O  O6  1  0.31705100  0.11147900  0.09979900  1
  O  O7  1  0.00426900  0.08136700  0.22880200  1
  O  O8  1  0.32610700  0.59171200  0.66252800  1
  O  O9  1  0.77832900  0.15020100  0.13852100  1
  O  O10  1  0.09905900  0.82994500  0.42838900  1
  O  O11  1  0.01030900  0.56621600  0.74900100  1
  O  O12  1  0.69359300  0.38698700  0.93720600  1
  O  O13  1  0.83034700  0.58747200  0.65828800  1
  O  O14  1  0.47837000  0.37590100  0.17449100  1
  O  O15  1  0.82610800  0.02812700  0.41975900  1
  O  O16  1  0.37590100  0.47837000  0.97123800  1
  O  O17  1  0.81401300  0.34316100  0.15334400  1
  O  O18  1  0.06816600  0.06816600  0.43183400  1
  O  O19  1  0.34316100  0.81401300  0.68948200  1
  O  O20  1  0.02812700  0.82610800  0.72600600  1
  O  O21  1  0.11147900  0.31705100  0.47167100  1
  O  O22  1  0.59171200  0.32610700  0.41965300  1
  O  O23  1  0.82994500  0.09905900  0.64260700  1
  O  O24  1  0.02119800  0.56443800  0.24573100  1
  O  O25  1  0.56621600  0.01030900  0.67447500  1
  O  O26  1  0.08136700  0.00426900  0.68556200  1
  O  O27  1  0.15020100  0.77832900  0.93294900  1
  O  O28  1  0.82161100  0.60739300  0.15094100  1
  O  O29  1  0.58747200  0.83034700  0.92389300  1
  O  O30  1  0.50099900  0.57552500  0.23969100  1
  O  O31  1  0.56051800  0.09665600  0.90683900  1
  O  O32  1  0.81816600  0.81816600  0.18183400  1
  O  O33  1  0.52399400  0.83024100  0.22187300  1
  O  O34  1  0.83024100  0.52399400  0.42389200  1
  O  O35  1  0.56443800  0.02119800  0.16863300  1
  O  O36  1  0.60739300  0.82161100  0.42005500  1
  O  O37  1  0.57552500  0.50099900  0.68378400  1
loop_
_geom_bond_atom_site_label_1
_geom_bond_atom_site_label_2
_geom_bond_distance
_geom_bond_site_symmetry_2
Ba0 O2 2.667780 1_555
Ba0 O3 2.667780 1_555
Ba0 O27 2.836630 1_545
Ba0 O9 2.836630 1_456
Ba0 O26 2.840222 1_555
Ba0 O7 2.840222 1_556
Ba0 O19 2.894837 1_545
Ba0 O17 2.894837 1_456
Ba1 O1 2.634515 1_554
Ba1 O30 2.713607 1_555
Ba1 O18 2.777487 1_565
Ba1 O33 2.802848 1_555
Ba1 O6 2.856731 1_565
Ba1 O29 2.883124 1_554
Ba1 O10 2.979748 1_555
Ba1 O7 3.171286 1_565
Ba2 O27 2.599979 1_554
Ba2 O24 2.746699 1_555
Ba2 O15 2.850447 1_465
Ba2 O4 2.872922 1_555
Ba2 O10 2.909363 1_555
Ba2 O16 3.010744 1_554
Ba2 O1 3.110737 1_554
Ba2 O7 3.329752 1_565
Ba2 O32 3.400045 1_455
Ba3 O4 2.721593 1_555
Ba3 O8 2.722084 1_555
Ba3 O10 2.770720 1_555
Ba3 O30 2.802817 1_555
Ba3 O14 2.815581 1_555
Ba3 O22 2.919993 1_555
Ba3 O0 2.957602 1_555
Ba3 O11 3.166347 1_555
Ba3 O20 3.172476 1_555
Ba4 O14 2.667780 1_555
Ba4 O16 2.667780 1_554
Ba4 O21 2.836630 1_555
Ba4 O6 2.836630 1_555
Ba4 O35 2.840222 1_555
Ba4 O24 2.840222 1_555
Ba4 O4 2.894837 1_555
Ba4 O31 2.894837 1_554
Ba5 O6 2.599979 1_555
Ba5 O7 2.746699 1_555
Ba5 O34 2.850447 1_455
Ba5 O17 2.872922 1_455
Ba5 O28 2.909363 1_455
Ba5 O3 3.010744 1_554
Ba5 O5 3.110737 1_554
Ba5 O24 3.329752 1_555
Ba5 O18 3.400045 1_555
Ba6 O0 2.634515 1_555
Ba6 O25 2.713610 1_555
Ba6 O32 2.777487 1_545
Ba6 O15 2.802848 1_555
Ba6 O9 2.856731 1_555
Ba6 O22 2.883124 1_555
Ba6 O36 2.979748 1_545
Ba6 O35 3.171286 1_555
Ba7 O19 2.721593 1_555
Ba7 O13 2.722084 1_555
Ba7 O36 2.770720 1_555
Ba7 O25 2.802826 1_565
Ba7 O3 2.815581 1_565
Ba7 O29 2.919993 1_555
Ba7 O1 2.957602 1_555
Ba7 O37 3.166356 1_555
Ba7 O34 3.172476 1_555
Ba8 O21 2.599979 1_555
Ba8 O26 2.746699 1_555
Ba8 O33 2.850447 1_545
Ba8 O19 2.872922 1_545
Ba8 O36 2.909363 1_545
Ba8 O2 3.010744 1_555
Ba8 O0 3.110737 1_555
Ba8 O35 3.329752 1_555
Ba8 O18 3.400045 1_555
Ba9 O25 2.758527 1_565
Ba9 O11 2.758533 1_655
Ba9 O31 2.928373 1_565
Ba9 O4 2.928373 1_655
Ba9 O29 2.945577 1_555
Ba9 O13 2.945577 1_555
Ba9 O20 3.068470 1_655
Ba9 O15 3.068470 1_565
Ba9 O23 3.094955 1_565
Ba9 O10 3.094955 1_655
Ba10 O5 2.634515 1_555
Ba10 O11 2.713600 1_555
Ba10 O32 2.777487 1_456
Ba10 O20 2.802848 1_555
Ba10 O27 2.856731 1_555
Ba10 O8 2.883124 1_555
Ba10 O28 2.979748 1_456
Ba10 O24 3.171286 1_556
Ba11 O17 2.721593 1_556
Ba11 O29 2.722084 1_555
Ba11 O28 2.770720 1_556
Ba11 O11 2.802824 1_655
Ba11 O2 2.815581 1_655
Ba11 O13 2.919993 1_555
Ba11 O12 2.957602 1_555
Ba11 O30 3.166353 1_556
Ba11 O33 3.172476 1_556
Ba12 O12 2.634515 1_555
Ba12 O37 2.713612 1_555
Ba12 O18 2.777487 1_655
Ba12 O34 2.802848 1_555
Ba12 O21 2.856731 1_655
Ba12 O13 2.883124 1_555
Ba12 O23 2.979748 1_555
Ba12 O26 3.171286 1_655
Ba13 O31 2.721593 1_555
Ba13 O22 2.722084 1_555
Ba13 O23 2.770720 1_555
Ba13 O37 2.802814 1_555
Ba13 O16 2.815581 1_555
Ba13 O8 2.919993 1_555
Ba13 O5 2.957602 1_555
Ba13 O25 3.166344 1_555
Ba13 O15 3.172476 1_555
Ba14 O9 2.599979 1_556
Ba14 O35 2.746699 1_556
Ba14 O20 2.850447 1_645
Ba14 O31 2.872922 1_555
Ba14 O23 2.909363 1_555
Ba14 O14 3.010744 1_556
Ba14 O12 3.110737 1_555
Ba14 O26 3.329752 1_655
Ba14 O32 3.400045 1_546
Ba15 O37 2.758529 1_555
Ba15 O30 2.758539 1_555
Ba15 O19 2.928373 1_555
Ba15 O17 2.928373 1_555
Ba15 O8 2.945577 1_555
Ba15 O22 2.945577 1_555
Ba15 O34 3.068470 1_555
Ba15 O33 3.068470 1_555
Ba15 O36 3.094955 1_555
Ba15 O28 3.094955 1_555
Co0 O16 1.896614 1_554
Co0 O14 1.896614 1_555
Co0 O12 1.919626 1_554
Co0 O1 1.919626 1_554
Co1 O25 1.812601 1_555
Co1 O6 2.024780 1_556
Co1 O5 2.035449 1_555
Co1 O3 2.125444 1_555
Co1 O31 2.166031 1_555
Co1 O29 2.554290 1_545
Co2 O11 1.812609 1_555
Co2 O21 2.024780 1_555
Co2 O0 2.035449 1_555
Co2 O2 2.125444 1_555
Co2 O4 2.166031 1_555
Co2 O13 2.554290 1_455
Co3 O2 1.896614 1_555
Co3 O3 1.896614 1_555
Co3 O0 1.919626 1_555
Co3 O5 1.919626 1_555
Co4 O30 1.812600 1_555
Co4 O9 2.024780 1_555
Co4 O12 2.035449 1_554
Co4 O14 2.125444 1_555
Co4 O17 2.166031 1_555
Co4 O22 2.554290 1_555
Co5 O22 1.800379 1_555
Co5 O9 1.953106 1_555
Co5 O17 1.982078 1_555
Co5 O7 2.007584 1_655
Co5 O15 2.124235 1_555
Co6 O7 1.841653 1_655
Co6 O15 1.843488 1_555
Co6 O10 1.908866 1_645
Co6 O18 1.914722 1_655
Co6 O23 1.982681 1_555
Co7 O37 1.812603 1_555
Co7 O27 2.024780 1_555
Co7 O1 2.035449 1_555
Co7 O16 2.125444 1_555
Co7 O19 2.166031 1_555
Co7 O8 2.554290 1_555
Co8 O26 1.841653 1_565
Co8 O20 1.843488 1_555
Co8 O23 1.908866 1_465
Co8 O18 1.914722 1_565
Co8 O10 1.982681 1_555
Co9 O8 1.800379 1_555
Co9 O27 1.953106 1_555
Co9 O19 1.982078 1_555
Co9 O26 2.007584 1_565
Co9 O20 2.124235 1_555
Co10 O29 1.800379 1_554
Co10 O6 1.953106 1_565
Co10 O31 1.982078 1_564
Co10 O35 2.007584 1_565
Co10 O33 2.124235 1_555
Co11 O35 1.841653 1_565
Co11 O33 1.843488 1_555
Co11 O36 1.908866 1_555
Co11 O32 1.914722 1_555
Co11 O28 1.982681 1_555
Co12 O24 1.841653 1_655
Co12 O34 1.843488 1_555
Co12 O28 1.908866 1_555
Co12 O32 1.914722 1_555
Co12 O36 1.982681 1_555
Co13 O13 1.800379 1_555
Co13 O21 1.953106 1_655
Co13 O4 1.982078 1_655
Co13 O24 2.007584 1_655
Co13 O34 2.124235 1_555
