# generated using pymatgen
data_K(Zr3Te4)4
_symmetry_space_group_name_H-M   'P 1'
_cell_length_a   7.97509732
_cell_length_b   11.12828804
_cell_length_c   11.82663468
_cell_angle_alpha   118.09891555
_cell_angle_beta   109.69897508
_cell_angle_gamma   89.98752657
_symmetry_Int_Tables_number   1
_chemical_formula_structural   K(Zr3Te4)4
_chemical_formula_sum   'K1 Zr12 Te16'
_cell_volume   855.67572996
_cell_formula_units_Z   1
loop_
 _symmetry_equiv_pos_site_id
 _symmetry_equiv_pos_as_xyz
  1  'x, y, z'
loop_
 _atom_site_type_symbol
 _atom_site_label
 _atom_site_symmetry_multiplicity
 _atom_site_fract_x
 _atom_site_fract_y
 _atom_site_fract_z
 _atom_site_occupancy
  K  K0  1  0.50000000  -0.00000000  0.00000000  1
  Zr  Zr0  1  0.12261739  0.12714499  0.49195048  1
  Zr  Zr1  1  0.62006055  0.12644177  0.49228663  1
  Zr  Zr2  1  0.31170083  0.36617523  0.87394724  1
  Zr  Zr3  1  0.81246931  0.36515621  0.87281987  1
  Zr  Zr4  1  0.19127294  0.50782784  0.63437280  1
  Zr  Zr5  1  0.69438496  0.50777338  0.63537924  1
  Zr  Zr6  1  0.37993945  0.87355823  0.50771337  1
  Zr  Zr7  1  0.87738261  0.87285501  0.50804952  1
  Zr  Zr8  1  0.18753069  0.63484379  0.12718013  1
  Zr  Zr9  1  0.68829917  0.63382477  0.12605276  1
  Zr  Zr10  1  0.30561504  0.49222662  0.36462076  1
  Zr  Zr11  1  0.80872706  0.49217216  0.36562720  1
  Te  Te0  1  0.72968237  0.05327910  0.70838837  1
  Te  Te1  1  0.22798388  0.05314780  0.70722071  1
  Te  Te2  1  0.84890680  0.65511626  0.94703813  1
  Te  Te3  1  0.34773026  0.65514584  0.94724766  1
  Te  Te4  1  0.54687984  0.29291398  0.34579205  1
  Te  Te5  1  0.04747661  0.29189463  0.34489063  1
  Te  Te6  1  0.77201612  0.94685220  0.29277929  1
  Te  Te7  1  0.27031763  0.94672090  0.29161163  1
  Te  Te8  1  0.65226974  0.34485416  0.05275234  1
  Te  Te9  1  0.15109320  0.34488374  0.05296187  1
  Te  Te10  1  0.95252339  0.70810537  0.65510937  1
  Te  Te11  1  0.45312016  0.70708602  0.65420795  1
  Te  Te12  1  0.95885001  0.33262717  0.66628459  1
  Te  Te13  1  0.45884825  0.33409629  0.66723227  1
  Te  Te14  1  0.54115175  0.66590371  0.33276773  1
  Te  Te15  1  0.04114999  0.66737283  0.33371541  1
loop_
_geom_bond_atom_site_label_1
_geom_bond_atom_site_label_2
_geom_bond_distance
_geom_bond_site_symmetry_2
K0 Te8 3.718507 1_555
K0 Te3 3.718507 1_544
K0 Te11 3.728547 1_544
K0 Te4 3.728547 1_555
K0 Te1 3.729617 1_554
K0 Te6 3.729617 1_545
Te0 Zr1 2.900446 1_555
Te0 Zr7 2.903758 1_545
Te0 Zr6 2.912187 1_545
Te0 Zr3 3.006789 1_555
Te1 Zr0 2.897968 1_555
Te1 Zr7 2.915893 1_445
Te1 Zr6 2.917978 1_545
Te1 Zr2 3.018528 1_555
Te2 Zr3 2.902985 1_555
Te2 Zr8 2.908019 1_656
Te2 Zr9 2.912018 1_556
Te2 Zr5 3.006413 1_555
Te3 Zr2 2.895095 1_555
Te3 Zr8 2.915057 1_556
Te3 Zr9 2.916405 1_556
Te3 Zr4 3.018347 1_555
Te4 Zr5 2.898561 1_555
Te4 Zr10 2.914290 1_555
Te4 Zr11 2.917961 1_555
Te4 Zr1 3.019194 1_555
Te5 Zr4 2.900898 1_555
Te5 Zr10 2.907017 1_555
Te5 Zr11 2.907050 1_455
Te5 Zr0 3.007635 1_555
Te6 Zr7 2.897968 1_555
Te6 Zr0 2.915893 1_665
Te6 Zr1 2.917978 1_565
Te6 Zr9 3.018528 1_555
Te7 Zr6 2.900446 1_555
Te7 Zr0 2.903758 1_565
Te7 Zr1 2.912187 1_565
Te7 Zr8 3.006789 1_555
Te8 Zr9 2.895095 1_555
Te8 Zr3 2.915057 1_554
Te8 Zr2 2.916405 1_554
Te8 Zr11 3.018347 1_555
Te9 Zr8 2.902985 1_555
Te9 Zr3 2.908019 1_454
Te9 Zr2 2.912018 1_554
Te9 Zr10 3.006413 1_555
Te10 Zr11 2.900898 1_555
Te10 Zr5 2.907017 1_555
Te10 Zr4 2.907050 1_655
Te10 Zr7 3.007635 1_555
Te11 Zr10 2.898561 1_555
Te11 Zr5 2.914290 1_555
Te11 Zr4 2.917961 1_555
Te11 Zr6 3.019194 1_555
Te12 Zr5 2.920706 1_555
Te12 Zr4 2.923329 1_655
Te12 Zr3 2.923954 1_555
Te12 Zr0 2.925500 1_655
Te12 Zr2 2.927008 1_655
Te12 Zr1 2.933617 1_555
Te13 Zr0 2.923963 1_555
Te13 Zr1 2.926092 1_555
Te13 Zr5 2.927513 1_555
Te13 Zr3 2.927565 1_555
Te13 Zr4 2.930765 1_555
Te13 Zr2 2.931411 1_555
Te14 Zr7 2.923963 1_555
Te14 Zr6 2.926092 1_555
Te14 Zr10 2.927513 1_555
Te14 Zr8 2.927565 1_555
Te14 Zr11 2.930765 1_555
Te14 Zr9 2.931411 1_555
Te15 Zr10 2.920706 1_555
Te15 Zr11 2.923329 1_455
Te15 Zr8 2.923954 1_555
Te15 Zr7 2.925500 1_455
Te15 Zr9 2.927008 1_455
Te15 Zr6 2.933617 1_555
