# generated using pymatgen
data_Ba2DyGaSe5
_symmetry_space_group_name_H-M   'P 1'
_cell_length_a   7.40440800
_cell_length_b   8.78616514
_cell_length_c   9.54309750
_cell_angle_alpha   103.52042065
_cell_angle_beta   103.10161182
_cell_angle_gamma   107.39066667
_symmetry_Int_Tables_number   1
_chemical_formula_structural   Ba2DyGaSe5
_chemical_formula_sum   'Ba4 Dy2 Ga2 Se10'
_cell_volume   545.82541918
_cell_formula_units_Z   2
loop_
 _symmetry_equiv_pos_site_id
 _symmetry_equiv_pos_as_xyz
  1  'x, y, z'
loop_
 _atom_site_type_symbol
 _atom_site_label
 _atom_site_symmetry_multiplicity
 _atom_site_fract_x
 _atom_site_fract_y
 _atom_site_fract_z
 _atom_site_occupancy
  Ba  Ba0  1  0.63358100  0.97801200  0.28935100  1
  Ba  Ba1  1  0.36641900  0.02198800  0.71064900  1
  Ba  Ba2  1  0.34350400  0.51096300  0.70731900  1
  Ba  Ba3  1  0.65649600  0.48903700  0.29268100  1
  Dy  Dy0  1  0.99784400  0.72997200  0.99832300  1
  Dy  Dy1  1  0.00215600  0.27002800  0.00167700  1
  Ga  Ga0  1  0.80536600  0.87176400  0.68764200  1
  Ga  Ga1  1  0.19463400  0.12823600  0.31235800  1
  Se  Se0  1  0.98755300  0.68263100  0.68523400  1
  Se  Se1  1  0.01244700  0.31736900  0.31476600  1
  Se  Se2  1  0.98353000  0.15365300  0.68768200  1
  Se  Se3  1  0.01647000  0.84634700  0.31231800  1
  Se  Se4  1  0.71293500  0.90884300  0.92749600  1
  Se  Se5  1  0.28706500  0.09115700  0.07250400  1
  Se  Se6  1  0.70648200  0.41141800  0.94506500  1
  Se  Se7  1  0.29351800  0.58858200  0.05493500  1
  Se  Se8  1  0.48836200  0.74149400  0.49247700  1
  Se  Se9  1  0.51163800  0.25850600  0.50752300  1
loop_
_geom_bond_atom_site_label_1
_geom_bond_atom_site_label_2
_geom_bond_distance
_geom_bond_site_symmetry_2
Ba0 Se8 3.274907 1_555
Ba0 Se9 3.317670 1_565
Ba0 Se1 3.342464 1_665
Ba0 Se3 3.349813 1_655
Ba0 Se7 3.430613 1_555
Ba0 Se5 3.454444 1_565
Ba0 Se4 3.576496 1_554
Ba0 Se2 3.734548 1_565
Ba1 Se9 3.274907 1_555
Ba1 Se8 3.317670 1_545
Ba1 Se0 3.342464 1_445
Ba1 Se2 3.349813 1_455
Ba1 Se6 3.430613 1_555
Ba1 Se4 3.454444 1_545
Ba1 Se5 3.576496 1_556
Ba1 Se3 3.734548 1_545
Ba2 Se9 3.294639 1_555
Ba2 Se8 3.331165 1_555
Ba2 Se7 3.355065 1_556
Ba2 Se2 3.389939 1_455
Ba2 Se0 3.396902 1_455
Ba2 Se4 3.515937 1_555
Ba2 Se6 3.564335 1_555
Ba2 Se1 3.647025 1_555
Ba3 Se8 3.294639 1_555
Ba3 Se9 3.331165 1_555
Ba3 Se6 3.355065 1_554
Ba3 Se3 3.389939 1_655
Ba3 Se1 3.396902 1_655
Ba3 Se5 3.515937 1_555
Ba3 Se7 3.564335 1_555
Ba3 Se0 3.647025 1_555
Dy0 Se6 2.823918 1_555
Dy0 Se7 2.833986 1_656
Dy0 Se3 2.887760 1_656
Dy0 Se0 2.898747 1_555
Dy0 Se4 3.034665 1_555
Dy0 Se5 3.059041 1_666
Dy1 Se7 2.823918 1_555
Dy1 Se6 2.833986 1_454
Dy1 Se2 2.887760 1_454
Dy1 Se1 2.898747 1_555
Dy1 Se5 3.034665 1_555
Dy1 Se4 3.059041 1_444
Ga0 Se8 2.388242 1_555
Ga0 Se0 2.432680 1_555
Ga0 Se2 2.433245 1_565
Ga0 Se4 2.511700 1_555
Ga1 Se9 2.388242 1_555
Ga1 Se1 2.432680 1_555
Ga1 Se3 2.433245 1_545
Ga1 Se5 2.511700 1_555
