# generated using pymatgen
data_Ta2(Ni7B2)3
_symmetry_space_group_name_H-M   'P 1'
_cell_length_a   7.37044391
_cell_length_b   7.37044327
_cell_length_c   7.37044366
_cell_angle_alpha   60.00141714
_cell_angle_beta   60.00140946
_cell_angle_gamma   60.00141384
_symmetry_Int_Tables_number   1
_chemical_formula_structural   Ta2(Ni7B2)3
_chemical_formula_sum   'Ta2 Ni21 B6'
_cell_volume   283.12603285
_cell_formula_units_Z   1
loop_
 _symmetry_equiv_pos_site_id
 _symmetry_equiv_pos_as_xyz
  1  'x, y, z'
loop_
 _atom_site_type_symbol
 _atom_site_label
 _atom_site_symmetry_multiplicity
 _atom_site_fract_x
 _atom_site_fract_y
 _atom_site_fract_z
 _atom_site_occupancy
  Ta  Ta0  1  0.75000020  0.74999995  0.75000026  1
  Ta  Ta1  1  0.24999969  0.25000014  0.24999979  1
  Ni  Ni0  1  0.00000050  0.00000017  -0.00000060  1
  Ni  Ni1  1  0.61575218  0.61575265  0.15274502  1
  Ni  Ni2  1  0.61575222  0.15274534  0.61575329  1
  Ni  Ni3  1  0.15274510  0.61575193  0.61575250  1
  Ni  Ni4  1  0.61575256  0.61575113  0.61575231  1
  Ni  Ni5  1  0.38424758  0.38424720  0.84725515  1
  Ni  Ni6  1  0.38424714  0.84725500  0.38424733  1
  Ni  Ni7  1  0.84725540  0.38424735  0.38424784  1
  Ni  Ni8  1  0.38424699  0.38424837  0.38424808  1
  Ni  Ni9  1  -0.00000005  -0.00000069  0.34065867  1
  Ni  Ni10  1  0.65934475  0.00000012  0.34065495  1
  Ni  Ni11  1  0.00000047  0.65934390  0.34065563  1
  Ni  Ni12  1  0.65934481  0.34065536  -0.00000065  1
  Ni  Ni13  1  -0.00000007  0.34065867  -0.00000106  1
  Ni  Ni14  1  0.00000020  0.34065519  0.65934424  1
  Ni  Ni15  1  0.34065506  0.65934494  0.00000023  1
  Ni  Ni16  1  0.34065435  0.00000032  0.65934542  1
  Ni  Ni17  1  0.34065885  -0.00000057  -0.00000071  1
  Ni  Ni18  1  0.00000060  0.00000118  0.65934133  1
  Ni  Ni19  1  0.00000077  0.65934113  0.00000079  1
  Ni  Ni20  1  0.65934090  0.00000111  0.00000009  1
  B  B0  1  0.73199242  0.73199241  0.26800781  1
  B  B1  1  0.26800756  0.73199217  0.26800764  1
  B  B2  1  0.73199218  0.26800762  0.26800757  1
  B  B3  1  0.26800756  0.26800768  0.73199220  1
  B  B4  1  0.73199232  0.26800787  0.73199243  1
  B  B5  1  0.26800777  0.73199237  0.73199246  1
loop_
_geom_bond_atom_site_label_1
_geom_bond_atom_site_label_2
_geom_bond_distance
_geom_bond_site_symmetry_2
Ni0 Ni18 2.510797 1_554
Ni0 Ni17 2.510800 1_555
Ni0 Ni13 2.510800 1_555
Ni0 Ni19 2.510802 1_545
Ni0 Ni9 2.510805 1_555
Ni0 Ni20 2.510806 1_455
Ni0 Ni16 2.510824 1_554
Ni0 Ni15 2.510831 1_545
Ni0 Ni14 2.510833 1_554
Ni0 Ni12 2.510835 1_455
Ni0 Ni10 2.510837 1_455
Ni0 Ni11 2.510841 1_545
Ni1 Ta0 2.423738 1_554
Ni2 Ta0 2.423742 1_545
Ni3 Ta0 2.423739 1_455
Ni4 Ta0 2.423667 1_555
Ni5 Ta1 2.423737 1_556
Ni6 Ta1 2.423740 1_565
Ni7 Ta1 2.423735 1_655
Ni8 Ta1 2.423663 1_555
B0 Ni10 2.046620 1_565
B0 Ni11 2.046624 1_655
B0 Ni19 2.046666 1_655
B0 Ni20 2.046671 1_565
B0 Ni1 2.092678 1_555
B0 Ni4 2.092748 1_555
B0 Ni7 2.092751 1_555
B0 Ni6 2.092752 1_555
B1 Ni15 2.046619 1_555
B1 Ni11 2.046620 1_555
B1 Ni9 2.046664 1_565
B1 Ni17 2.046667 1_565
B1 Ni6 2.092674 1_555
B1 Ni8 2.092743 1_555
B1 Ni1 2.092748 1_555
B1 Ni3 2.092750 1_555
B2 Ni10 2.046621 1_555
B2 Ni12 2.046625 1_555
B2 Ni9 2.046669 1_655
B2 Ni13 2.046670 1_655
B2 Ni7 2.092680 1_555
B2 Ni1 2.092751 1_555
B2 Ni8 2.092752 1_555
B2 Ni2 2.092755 1_555
B3 Ni16 2.046619 1_555
B3 Ni14 2.046622 1_555
B3 Ni13 2.046662 1_556
B3 Ni17 2.046666 1_556
B3 Ni5 2.092676 1_555
B3 Ni8 2.092745 1_555
B3 Ni3 2.092746 1_555
B3 Ni2 2.092749 1_555
B4 Ni12 2.046617 1_556
B4 Ni14 2.046621 1_655
B4 Ni20 2.046663 1_556
B4 Ni18 2.046664 1_655
B4 Ni2 2.092672 1_555
B4 Ni4 2.092740 1_555
B4 Ni7 2.092748 1_555
B4 Ni5 2.092749 1_555
B5 Ni16 2.046621 1_565
B5 Ni15 2.046622 1_556
B5 Ni19 2.046666 1_556
B5 Ni18 2.046668 1_565
B5 Ni3 2.092679 1_555
B5 Ni4 2.092749 1_555
B5 Ni6 2.092751 1_555
B5 Ni5 2.092752 1_555
