# generated using pymatgen
data_Ca(FeO2)2
_symmetry_space_group_name_H-M   'P 1'
_cell_length_a   5.14021735
_cell_length_b   5.95977201
_cell_length_c   11.08419331
_cell_angle_alpha   89.99982359
_cell_angle_beta   90.00028630
_cell_angle_gamma   90.00014638
_symmetry_Int_Tables_number   1
_chemical_formula_structural   Ca(FeO2)2
_chemical_formula_sum   'Ca4 Fe8 O16'
_cell_volume   339.55898013
_cell_formula_units_Z   4
loop_
 _symmetry_equiv_pos_site_id
 _symmetry_equiv_pos_as_xyz
  1  'x, y, z'
loop_
 _atom_site_type_symbol
 _atom_site_label
 _atom_site_symmetry_multiplicity
 _atom_site_fract_x
 _atom_site_fract_y
 _atom_site_fract_z
 _atom_site_occupancy
  Ca  Ca0  1  0.85625702  0.24768376  0.74999964  1
  Ca  Ca1  1  0.14374109  0.74774019  0.25000101  1
  Ca  Ca2  1  0.53018122  0.24854759  0.25000012  1
  Ca  Ca3  1  0.46981248  0.74846678  0.75000015  1
  Fe  Fe0  1  0.49705269  0.25557503  0.51769458  1
  Fe  Fe1  1  0.49705391  0.25559981  0.98230267  1
  Fe  Fe2  1  0.99916676  0.50199308  0.49947862  1
  Fe  Fe3  1  0.99917077  0.50200813  0.00051691  1
  Fe  Fe4  1  0.50295582  0.75559919  0.48226152  1
  Fe  Fe5  1  0.50295579  0.75562508  0.01773835  1
  Fe  Fe6  1  0.00083555  0.00201291  0.99950911  1
  Fe  Fe7  1  0.00083615  0.00199335  0.50049373  1
  O  O0  1  0.83919379  0.74688155  0.40297035  1
  O  O1  1  0.83919548  0.74689219  0.09703002  1
  O  O2  1  0.16078538  0.24688191  0.59704795  1
  O  O3  1  0.16078689  0.24689789  0.90295421  1
  O  O4  1  0.18055368  0.74887182  0.58822978  1
  O  O5  1  0.18055528  0.74888988  0.91177101  1
  O  O6  1  0.81945074  0.24886586  0.41178398  1
  O  O7  1  0.81945256  0.24888051  0.08821650  1
  O  O8  1  0.66715801  0.50095214  0.60591600  1
  O  O9  1  0.66468580  0.99754077  0.89717201  1
  O  O10  1  0.33285137  0.00096489  0.39409614  1
  O  O11  1  0.33530571  0.49758742  0.10281674  1
  O  O12  1  0.33529952  0.49757589  0.39718164  1
  O  O13  1  0.33285248  0.00097581  0.10590847  1
  O  O14  1  0.66469059  0.99752963  0.60283068  1
  O  O15  1  0.66716145  0.50096394  0.89407813  1
loop_
_geom_bond_atom_site_label_1
_geom_bond_atom_site_label_2
_geom_bond_distance
_geom_bond_site_symmetry_2
Ca0 O2 2.307497 1_655
Ca0 O3 2.307514 1_655
Ca0 O8 2.402854 1_555
Ca0 O15 2.402866 1_555
Ca0 O9 2.419345 1_545
Ca0 O14 2.419350 1_545
Ca1 O1 2.307704 1_455
Ca1 O0 2.307708 1_455
Ca1 O10 2.402801 1_565
Ca1 O13 2.402826 1_565
Ca1 O12 2.419455 1_555
Ca1 O11 2.419465 1_555
Ca2 O6 2.329505 1_555
Ca2 O7 2.329521 1_555
Ca2 O13 2.399311 1_555
Ca2 O10 2.399386 1_555
Ca2 O12 2.422322 1_555
Ca2 O11 2.422352 1_555
Ca3 O4 2.329356 1_555
Ca3 O5 2.329366 1_555
Ca3 O15 2.398998 1_555
Ca3 O8 2.399092 1_555
Ca3 O14 2.422342 1_555
Ca3 O9 2.422389 1_555
Fe0 O2 1.940105 1_555
Fe0 O8 1.964520 1_555
Fe0 O14 1.999531 1_545
Fe0 O6 2.031265 1_555
Fe0 O12 2.134423 1_555
Fe0 O10 2.211744 1_555
Fe1 O3 1.940072 1_555
Fe1 O15 1.964484 1_555
Fe1 O9 1.999560 1_545
Fe1 O7 2.031280 1_556
Fe1 O11 2.134378 1_556
Fe1 O13 2.211851 1_556
Fe2 O0 1.987594 1_555
Fe2 O4 2.000470 1_655
Fe2 O6 2.018417 1_555
Fe2 O2 2.042392 1_655
Fe2 O12 2.066803 1_655
Fe2 O8 2.074704 1_555
Fe3 O1 1.987618 1_555
Fe3 O5 2.000449 1_654
Fe3 O7 2.018450 1_555
Fe3 O3 2.042353 1_654
Fe3 O11 2.066820 1_655
Fe3 O15 2.074705 1_554
Fe4 O0 1.939662 1_555
Fe4 O10 1.964157 1_565
Fe4 O12 1.999177 1_555
Fe4 O4 2.031653 1_555
Fe4 O14 2.134495 1_555
Fe4 O8 2.212278 1_555
Fe5 O1 1.939667 1_555
Fe5 O13 1.964123 1_565
Fe5 O11 1.999221 1_555
Fe5 O5 2.031632 1_554
Fe5 O9 2.134406 1_554
Fe5 O15 2.212393 1_554
Fe6 O3 1.987813 1_555
Fe6 O7 2.000182 1_456
Fe6 O5 2.018647 1_545
Fe6 O1 2.042196 1_446
Fe6 O9 2.067114 1_445
Fe6 O13 2.074489 1_556
Fe7 O2 1.987820 1_555
Fe7 O6 2.000213 1_455
Fe7 O4 2.018616 1_545
Fe7 O0 2.042176 1_445
Fe7 O14 2.067104 1_445
Fe7 O10 2.074480 1_555
