# generated using pymatgen
data_In4Bi
_symmetry_space_group_name_H-M   'P 1'
_cell_length_a   6.50973771
_cell_length_b   6.50973771
_cell_length_c   29.78739566
_cell_angle_alpha   89.74221384
_cell_angle_beta   89.74221384
_cell_angle_gamma   66.20931895
_symmetry_Int_Tables_number   1
_chemical_formula_structural   In4Bi
_chemical_formula_sum   'In32 Bi8'
_cell_volume   1155.01160665
_cell_formula_units_Z   8
loop_
 _symmetry_equiv_pos_site_id
 _symmetry_equiv_pos_as_xyz
  1  'x, y, z'
loop_
 _atom_site_type_symbol
 _atom_site_label
 _atom_site_symmetry_multiplicity
 _atom_site_fract_x
 _atom_site_fract_y
 _atom_site_fract_z
 _atom_site_occupancy
  In  In0_0  1  0.20094850  0.20094850  0.39817900  1
  In  In0_1  1  0.20094850  0.20094850  0.89817900  1
  In  In0_2  1  0.20094850  0.70094850  0.39817900  1
  In  In0_3  1  0.20094850  0.70094850  0.89817900  1
  In  In0_4  1  0.70094850  0.20094850  0.39817900  1
  In  In0_5  1  0.70094850  0.20094850  0.89817900  1
  In  In0_6  1  0.70094850  0.70094850  0.39817900  1
  In  In0_7  1  0.70094850  0.70094850  0.89817900  1
  In  In1_0  1  0.39971950  0.39971950  0.29962700  1
  In  In1_1  1  0.39971950  0.39971950  0.79962700  1
  In  In1_2  1  0.39971950  0.89971950  0.29962700  1
  In  In1_3  1  0.39971950  0.89971950  0.79962700  1
  In  In1_4  1  0.89971950  0.39971950  0.29962700  1
  In  In1_5  1  0.89971950  0.39971950  0.79962700  1
  In  In1_6  1  0.89971950  0.89971950  0.29962700  1
  In  In1_7  1  0.89971950  0.89971950  0.79962700  1
  In  In2_0  1  0.10028050  0.10028050  0.20037300  1
  In  In2_1  1  0.10028050  0.10028050  0.70037300  1
  In  In2_2  1  0.10028050  0.60028050  0.20037300  1
  In  In2_3  1  0.10028050  0.60028050  0.70037300  1
  In  In2_4  1  0.60028050  0.10028050  0.20037300  1
  In  In2_5  1  0.60028050  0.10028050  0.70037300  1
  In  In2_6  1  0.60028050  0.60028050  0.20037300  1
  In  In2_7  1  0.60028050  0.60028050  0.70037300  1
  In  In3_0  1  0.29905150  0.29905150  0.10182100  1
  In  In3_1  1  0.29905150  0.29905150  0.60182100  1
  In  In3_2  1  0.29905150  0.79905150  0.10182100  1
  In  In3_3  1  0.29905150  0.79905150  0.60182100  1
  In  In3_4  1  0.79905150  0.29905150  0.10182100  1
  In  In3_5  1  0.79905150  0.29905150  0.60182100  1
  In  In3_6  1  0.79905150  0.79905150  0.10182100  1
  In  In3_7  1  0.79905150  0.79905150  0.60182100  1
  Bi  Bi0_0  1  0.00000000  0.00000000  0.00000000  1
  Bi  Bi0_1  1  0.00000000  0.00000000  0.50000000  1
  Bi  Bi0_2  1  0.00000000  0.50000000  0.00000000  1
  Bi  Bi0_3  1  0.00000000  0.50000000  0.50000000  1
  Bi  Bi0_4  1  0.50000000  0.00000000  0.00000000  1
  Bi  Bi0_5  1  0.50000000  0.00000000  0.50000000  1
  Bi  Bi0_6  1  0.50000000  0.50000000  0.00000000  1
  Bi  Bi0_7  1  0.50000000  0.50000000  0.50000000  1
loop_
_geom_bond_atom_site_label_1
_geom_bond_atom_site_label_2
_geom_bond_distance
_geom_bond_site_symmetry_2
In0_0 In0_2 3.254869 1_555
In0_0 In0_4 3.254869 1_455
In0_0 In0_4 3.254869 1_555
In0_0 In0_2 3.254869 1_545
In0_1 In0_5 3.254869 1_555
In0_1 In0_3 3.254869 1_555
In0_1 In0_3 3.254869 1_545
In0_1 In0_5 3.254869 1_455
In0_2 In0_6 3.254869 1_455
In0_2 In0_6 3.254869 1_555
In0_3 In0_7 3.254869 1_455
In0_3 In0_7 3.254869 1_555
In0_4 In0_6 3.254869 1_545
In0_4 In0_6 3.254869 1_555
In0_5 In0_7 3.254869 1_545
In0_5 In0_7 3.254869 1_555
In1_0 In1_4 3.254869 1_555
In1_0 In1_4 3.254869 1_455
In1_0 In1_2 3.254869 1_555
In1_0 In1_2 3.254869 1_545
In1_1 In1_5 3.254869 1_455
In1_1 In1_5 3.254869 1_555
In1_1 In1_3 3.254869 1_545
In1_1 In1_3 3.254869 1_555
In1_2 In1_6 3.254869 1_455
In1_2 In1_6 3.254869 1_555
In1_3 In1_7 3.254869 1_455
In1_3 In1_7 3.254869 1_555
In1_4 In1_6 3.254869 1_545
In1_4 In1_6 3.254869 1_555
In1_5 In1_7 3.254869 1_545
In1_5 In1_7 3.254869 1_555
In2_0 In2_4 3.254869 1_555
In2_0 In2_2 3.254869 1_555
In2_0 In2_2 3.254869 1_545
In2_0 In2_4 3.254869 1_455
In2_1 In2_5 3.254869 1_555
In2_1 In2_3 3.254869 1_555
In2_1 In2_3 3.254869 1_545
In2_1 In2_5 3.254869 1_455
In2_2 In2_6 3.254869 1_455
In2_2 In2_6 3.254869 1_555
In2_3 In2_7 3.254869 1_455
In2_3 In2_7 3.254869 1_555
In2_4 In2_6 3.254869 1_545
In2_4 In2_6 3.254869 1_555
In2_5 In2_7 3.254869 1_545
In2_5 In2_7 3.254869 1_555
In3_0 In3_4 3.254869 1_555
In3_0 In3_2 3.254869 1_555
In3_0 In3_2 3.254869 1_545
In3_0 In3_4 3.254869 1_455
In3_1 In3_3 3.254869 1_555
In3_1 In3_5 3.254869 1_555
In3_1 In3_5 3.254869 1_455
In3_1 In3_3 3.254869 1_545
In3_2 In3_6 3.254869 1_555
In3_2 In3_6 3.254869 1_455
In3_3 In3_7 3.254869 1_455
In3_3 In3_7 3.254869 1_555
In3_4 In3_6 3.254869 1_545
In3_4 In3_6 3.254869 1_555
In3_5 In3_7 3.254869 1_545
In3_5 In3_7 3.254869 1_555
Bi0_0 Bi0_4 3.254869 1_555
Bi0_0 Bi0_4 3.254869 1_455
Bi0_0 Bi0_2 3.254869 1_545
Bi0_0 Bi0_2 3.254869 1_555
Bi0_0 In0_3 3.558490 1_544
Bi0_0 In0_5 3.558490 1_454
Bi0_0 In3_2 3.558490 1_545
Bi0_0 In3_4 3.558490 1_455
Bi0_1 Bi0_5 3.254869 1_555
Bi0_1 Bi0_3 3.254869 1_545
Bi0_1 Bi0_3 3.254869 1_555
Bi0_1 Bi0_5 3.254869 1_455
Bi0_1 In0_2 3.558490 1_545
Bi0_1 In0_4 3.558490 1_455
Bi0_1 In3_3 3.558490 1_545
Bi0_1 In3_5 3.558490 1_455
Bi0_2 Bi0_6 3.254869 1_555
Bi0_2 Bi0_6 3.254869 1_455
Bi0_2 In0_1 3.558490 1_554
Bi0_2 In0_7 3.558490 1_454
Bi0_2 In3_0 3.558490 1_555
Bi0_2 In3_6 3.558490 1_455
Bi0_3 Bi0_7 3.254869 1_455
Bi0_3 Bi0_7 3.254869 1_555
Bi0_3 In0_0 3.558490 1_555
Bi0_3 In0_6 3.558490 1_455
Bi0_3 In3_1 3.558490 1_555
Bi0_3 In3_7 3.558490 1_455
Bi0_4 Bi0_6 3.254869 1_555
Bi0_4 Bi0_6 3.254869 1_545
Bi0_4 In0_1 3.558490 1_554
Bi0_4 In0_7 3.558490 1_544
Bi0_4 In3_6 3.558490 1_545
Bi0_4 In3_0 3.558490 1_555
Bi0_5 Bi0_7 3.254869 1_545
Bi0_5 Bi0_7 3.254869 1_555
Bi0_5 In0_0 3.558490 1_555
Bi0_5 In0_6 3.558490 1_545
Bi0_5 In3_1 3.558490 1_555
Bi0_5 In3_7 3.558490 1_545
Bi0_6 In0_5 3.558490 1_554
Bi0_6 In0_3 3.558490 1_554
Bi0_6 In3_2 3.558490 1_555
Bi0_6 In3_4 3.558490 1_555
Bi0_7 In0_2 3.558490 1_555
Bi0_7 In0_4 3.558490 1_555
Bi0_7 In3_3 3.558490 1_555
Bi0_7 In3_5 3.558490 1_555
