# generated using pymatgen
data_CeCuGeH
_symmetry_space_group_name_H-M   'P 1'
_cell_length_a   4.15620771
_cell_length_b   4.15620700
_cell_length_c   8.26664000
_cell_angle_alpha   90.00000693
_cell_angle_beta   89.99967584
_cell_angle_gamma   60.00024914
_symmetry_Int_Tables_number   1
_chemical_formula_structural   CeCuGeH
_chemical_formula_sum   'Ce2 Cu2 Ge2 H2'
_cell_volume   123.66738022
_cell_formula_units_Z   2
loop_
 _symmetry_equiv_pos_site_id
 _symmetry_equiv_pos_as_xyz
  1  'x, y, z'
loop_
 _atom_site_type_symbol
 _atom_site_label
 _atom_site_symmetry_multiplicity
 _atom_site_fract_x
 _atom_site_fract_y
 _atom_site_fract_z
 _atom_site_occupancy
  Ce  Ce0  1  0.00000000  0.00000000  0.50000000  1
  Ce  Ce1  1  0.00000000  0.00000000  0.00000000  1
  Cu  Cu0  1  0.33332000  0.33334000  0.75580300  1
  Cu  Cu1  1  0.66668000  0.66666000  0.24419700  1
  Ge  Ge0  1  0.33333000  0.33333500  0.28219400  1
  Ge  Ge1  1  0.66667000  0.66666500  0.71780600  1
  H  H0  1  0.33334500  0.33332800  0.95795200  1
  H  H1  1  0.66665500  0.66667200  0.04204800  1
loop_
_geom_bond_atom_site_label_1
_geom_bond_atom_site_label_2
_geom_bond_distance
_geom_bond_site_symmetry_2
Ce0 Ge1 2.999972 1_445
Ce0 Ge0 2.999972 1_555
Ce0 Ge1 2.999979 1_455
Ce0 Ge0 2.999979 1_545
Ce0 Ge1 3.000008 1_545
Ce0 Ge0 3.000008 1_455
Ce0 Cu1 3.198373 1_445
Ce0 Cu0 3.198373 1_555
Ce0 Cu1 3.198380 1_455
Ce0 Cu0 3.198380 1_545
Ce0 Cu0 3.198418 1_455
Ce0 Cu1 3.198418 1_545
Ce1 H1 2.424599 1_545
Ce1 H0 2.424599 1_454
Ce1 H0 2.424651 1_554
Ce1 H1 2.424651 1_445
Ce1 H1 2.424656 1_455
Ce1 H0 2.424656 1_544
Cu0 H0 1.671093 1_555
Cu0 Ge1 2.420007 1_455
Cu0 Ge1 2.420084 1_555
Cu0 Ge1 2.420093 1_545
Cu1 H1 1.671093 1_555
Cu1 Ge0 2.420007 1_655
Cu1 Ge0 2.420084 1_555
Cu1 Ge0 2.420093 1_565
