# generated using pymatgen
data_MgCd5
_symmetry_space_group_name_H-M   'P 1'
_cell_length_a   12.40698061
_cell_length_b   12.40698061
_cell_length_c   15.11774846
_cell_angle_alpha   69.95664742
_cell_angle_beta   69.95664742
_cell_angle_gamma   28.36485283
_symmetry_Int_Tables_number   1
_chemical_formula_structural   MgCd5
_chemical_formula_sum   'Mg8 Cd40'
_cell_volume   1034.19536387
_cell_formula_units_Z   8
loop_
 _symmetry_equiv_pos_site_id
 _symmetry_equiv_pos_as_xyz
  1  'x, y, z'
loop_
 _atom_site_type_symbol
 _atom_site_label
 _atom_site_symmetry_multiplicity
 _atom_site_fract_x
 _atom_site_fract_y
 _atom_site_fract_z
 _atom_site_occupancy
  Mg  Mg0_0  1  0.30609757  0.30609757  0.13897804  1
  Mg  Mg0_1  1  0.30609757  0.30609757  0.63897804  1
  Mg  Mg0_2  1  0.30609757  0.80609757  0.13897803  1
  Mg  Mg0_3  1  0.30609757  0.80609757  0.63897804  1
  Mg  Mg0_4  1  0.80609757  0.30609757  0.13897803  1
  Mg  Mg0_5  1  0.80609757  0.30609757  0.63897804  1
  Mg  Mg0_6  1  0.80609757  0.80609757  0.13897804  1
  Mg  Mg0_7  1  0.80609757  0.80609757  0.63897804  1
  Cd  Cd0_0  1  0.00275452  0.00275452  0.00164691  1
  Cd  Cd0_1  1  0.00275452  0.00275452  0.50164691  1
  Cd  Cd0_2  1  0.00275453  0.50275453  0.00164691  1
  Cd  Cd0_3  1  0.00275453  0.50275453  0.50164691  1
  Cd  Cd0_4  1  0.50275453  0.00275453  0.00164691  1
  Cd  Cd0_5  1  0.50275453  0.00275453  0.50164691  1
  Cd  Cd0_6  1  0.50275453  0.50275453  0.00164691  1
  Cd  Cd0_7  1  0.50275453  0.50275453  0.50164691  1
  Cd  Cd1_0  1  0.16653361  0.16653361  0.16535703  1
  Cd  Cd1_1  1  0.16653361  0.16653361  0.66535703  1
  Cd  Cd1_2  1  0.16653361  0.66653361  0.16535703  1
  Cd  Cd1_3  1  0.16653361  0.66653361  0.66535703  1
  Cd  Cd1_4  1  0.66653360  0.16653361  0.16535703  1
  Cd  Cd1_5  1  0.66653361  0.16653361  0.66535703  1
  Cd  Cd1_6  1  0.66653361  0.66653361  0.16535703  1
  Cd  Cd1_7  1  0.66653361  0.66653361  0.66535703  1
  Cd  Cd2_0  1  0.47072887  0.47072887  0.30635344  1
  Cd  Cd2_1  1  0.47072886  0.47072887  0.80635344  1
  Cd  Cd2_2  1  0.47072887  0.97072886  0.30635344  1
  Cd  Cd2_3  1  0.47072887  0.97072887  0.80635344  1
  Cd  Cd2_4  1  0.97072886  0.47072887  0.30635344  1
  Cd  Cd2_5  1  0.97072887  0.47072887  0.80635344  1
  Cd  Cd2_6  1  0.97072887  0.97072887  0.30635344  1
  Cd  Cd2_7  1  0.97072887  0.97072887  0.80635344  1
  Cd  Cd3_0  1  0.33163787  0.33163787  0.33102933  1
  Cd  Cd3_1  1  0.33163787  0.33163787  0.83102933  1
  Cd  Cd3_2  1  0.33163787  0.83163787  0.33102933  1
  Cd  Cd3_3  1  0.33163787  0.83163787  0.83102933  1
  Cd  Cd3_4  1  0.83163787  0.33163787  0.33102933  1
  Cd  Cd3_5  1  0.83163787  0.33163787  0.83102933  1
  Cd  Cd3_6  1  0.83163787  0.83163787  0.33102933  1
  Cd  Cd3_7  1  0.83163787  0.83163787  0.83102933  1
  Cd  Cd4_0  1  0.13891457  0.13891457  0.47330176  1
  Cd  Cd4_1  1  0.13891456  0.13891456  0.97330176  1
  Cd  Cd4_2  1  0.13891457  0.63891457  0.47330176  1
  Cd  Cd4_3  1  0.13891457  0.63891457  0.97330176  1
  Cd  Cd4_4  1  0.63891456  0.13891457  0.47330176  1
  Cd  Cd4_5  1  0.63891457  0.13891457  0.97330176  1
  Cd  Cd4_6  1  0.63891457  0.63891457  0.47330175  1
  Cd  Cd4_7  1  0.63891457  0.63891457  0.97330176  1
loop_
_geom_bond_atom_site_label_1
_geom_bond_atom_site_label_2
_geom_bond_distance
_geom_bond_site_symmetry_2
Mg0_0 Mg0_6 3.039835 1_545
Mg0_0 Mg0_6 3.039835 1_455
Mg0_1 Mg0_7 3.039835 1_455
Mg0_1 Mg0_7 3.039835 1_545
Mg0_2 Mg0_4 3.039835 1_555
Mg0_2 Mg0_4 3.039835 1_465
Mg0_3 Mg0_5 3.039835 1_465
Mg0_3 Mg0_5 3.039835 1_555
Cd0_0 Cd3_5 3.017261 1_454
Cd0_0 Cd3_3 3.017261 1_544
Cd0_0 Cd1_2 3.018022 1_545
Cd0_0 Cd1_4 3.018022 1_455
Cd0_0 Cd0_6 3.039835 1_455
Cd0_0 Cd0_6 3.039835 1_545
Cd0_0 Cd4_1 3.149818 1_554
Cd0_0 Mg0_4 3.186076 1_455
Cd0_0 Mg0_2 3.186076 1_545
Cd0_0 Cd4_5 3.290001 1_454
Cd0_0 Cd4_3 3.290001 1_544
Cd0_0 Cd2_7 3.304317 1_444
Cd0_1 Cd3_2 3.017261 1_545
Cd0_1 Cd3_4 3.017261 1_455
Cd0_1 Cd1_3 3.018022 1_545
Cd0_1 Cd1_5 3.018022 1_455
Cd0_1 Cd0_7 3.039835 1_455
Cd0_1 Cd0_7 3.039835 1_545
Cd0_1 Cd4_0 3.149818 1_555
Cd0_1 Mg0_5 3.186076 1_455
Cd0_1 Mg0_3 3.186076 1_545
Cd0_1 Cd4_2 3.290001 1_545
Cd0_1 Cd4_4 3.290001 1_455
Cd0_1 Cd2_6 3.304317 1_445
Cd0_2 Cd3_1 3.017261 1_554
Cd0_2 Cd3_7 3.017261 1_454
Cd0_2 Cd1_6 3.018022 1_455
Cd0_2 Cd1_0 3.018022 1_555
Cd0_2 Cd0_4 3.039835 1_555
Cd0_2 Cd0_4 3.039835 1_465
Cd0_2 Cd4_3 3.149818 1_554
Cd0_2 Mg0_0 3.186076 1_555
Cd0_2 Mg0_6 3.186076 1_455
Cd0_2 Cd4_7 3.290001 1_454
Cd0_2 Cd4_1 3.290001 1_554
Cd0_2 Cd2_5 3.304317 1_454
Cd0_3 Cd3_6 3.017261 1_455
Cd0_3 Cd3_0 3.017261 1_555
Cd0_3 Cd1_7 3.018022 1_455
Cd0_3 Cd1_1 3.018022 1_555
Cd0_3 Cd0_5 3.039835 1_555
Cd0_3 Cd0_5 3.039835 1_465
Cd0_3 Cd4_2 3.149818 1_555
Cd0_3 Mg0_1 3.186076 1_555
Cd0_3 Mg0_7 3.186076 1_455
Cd0_3 Cd4_6 3.290001 1_455
Cd0_3 Cd4_0 3.290001 1_555
Cd0_3 Cd2_4 3.304317 1_455
Cd0_4 Cd3_1 3.017261 1_554
Cd0_4 Cd3_7 3.017261 1_544
Cd0_4 Cd1_6 3.018022 1_545
Cd0_4 Cd1_0 3.018022 1_555
Cd0_4 Cd4_5 3.149818 1_554
Cd0_4 Mg0_0 3.186076 1_555
Cd0_4 Mg0_6 3.186076 1_545
Cd0_4 Cd4_7 3.290001 1_544
Cd0_4 Cd4_1 3.290001 1_554
Cd0_4 Cd2_3 3.304317 1_544
Cd0_5 Cd3_0 3.017261 1_555
Cd0_5 Cd3_6 3.017261 1_545
Cd0_5 Cd1_1 3.018022 1_555
Cd0_5 Cd1_7 3.018022 1_545
Cd0_5 Cd4_4 3.149818 1_555
Cd0_5 Mg0_1 3.186076 1_555
Cd0_5 Mg0_7 3.186076 1_545
Cd0_5 Cd4_6 3.290001 1_545
Cd0_5 Cd4_0 3.290001 1_555
Cd0_5 Cd2_2 3.304317 1_545
Cd0_6 Cd3_5 3.017261 1_554
Cd0_6 Cd3_3 3.017261 1_554
Cd0_6 Cd1_2 3.018022 1_555
Cd0_6 Cd1_4 3.018022 1_555
Cd0_6 Cd4_7 3.149818 1_554
Cd0_6 Mg0_4 3.186076 1_555
Cd0_6 Mg0_2 3.186076 1_555
Cd0_6 Cd4_5 3.290001 1_554
Cd0_6 Cd4_3 3.290001 1_554
Cd0_6 Cd2_1 3.304317 1_554
Cd0_7 Cd3_2 3.017261 1_555
Cd0_7 Cd3_4 3.017261 1_555
Cd0_7 Cd1_3 3.018022 1_555
Cd0_7 Cd1_5 3.018022 1_555
Cd0_7 Cd4_6 3.149818 1_555
Cd0_7 Mg0_3 3.186076 1_555
Cd0_7 Mg0_5 3.186076 1_555
Cd0_7 Cd4_2 3.290001 1_555
Cd0_7 Cd4_4 3.290001 1_555
Cd0_7 Cd2_0 3.304317 1_555
Cd1_0 Cd3_2 3.022892 1_545
Cd1_0 Cd3_4 3.022892 1_455
Cd1_0 Cd1_6 3.039835 1_545
Cd1_0 Cd1_6 3.039835 1_455
Cd1_0 Cd4_1 3.199287 1_554
Cd1_0 Mg0_2 3.205780 1_545
Cd1_0 Mg0_4 3.205780 1_455
Cd1_0 Mg0_0 3.238165 1_555
Cd1_0 Cd2_4 3.243216 1_455
Cd1_0 Cd2_2 3.243216 1_545
Cd1_1 Cd3_5 3.022892 1_455
Cd1_1 Cd3_3 3.022892 1_545
Cd1_1 Cd1_7 3.039835 1_455
Cd1_1 Cd1_7 3.039835 1_545
Cd1_1 Cd4_0 3.199287 1_555
Cd1_1 Mg0_3 3.205780 1_545
Cd1_1 Mg0_5 3.205780 1_455
Cd1_1 Mg0_1 3.238165 1_555
Cd1_1 Cd2_5 3.243216 1_455
Cd1_1 Cd2_3 3.243216 1_545
Cd1_2 Cd3_6 3.022892 1_455
Cd1_2 Cd3_0 3.022892 1_555
Cd1_2 Cd1_4 3.039835 1_555
Cd1_2 Cd1_4 3.039835 1_465
Cd1_2 Cd4_3 3.199287 1_554
Cd1_2 Mg0_6 3.205780 1_455
Cd1_2 Mg0_0 3.205780 1_555
Cd1_2 Mg0_2 3.238165 1_555
Cd1_2 Cd2_0 3.243216 1_555
Cd1_2 Cd2_6 3.243216 1_455
Cd1_3 Cd3_7 3.022892 1_455
Cd1_3 Cd3_1 3.022892 1_555
Cd1_3 Cd1_5 3.039835 1_555
Cd1_3 Cd1_5 3.039835 1_465
Cd1_3 Cd4_2 3.199287 1_555
Cd1_3 Mg0_7 3.205780 1_455
Cd1_3 Mg0_1 3.205780 1_555
Cd1_3 Mg0_3 3.238165 1_555
Cd1_3 Cd2_1 3.243216 1_555
Cd1_3 Cd2_7 3.243216 1_455
Cd1_4 Cd3_0 3.022892 1_555
Cd1_4 Cd3_6 3.022892 1_545
Cd1_4 Cd4_5 3.199287 1_554
Cd1_4 Mg0_6 3.205780 1_545
Cd1_4 Mg0_0 3.205780 1_555
Cd1_4 Mg0_4 3.238165 1_555
Cd1_4 Cd2_0 3.243216 1_555
Cd1_4 Cd2_6 3.243216 1_545
Cd1_5 Cd3_7 3.022892 1_545
Cd1_5 Cd3_1 3.022892 1_555
Cd1_5 Cd4_4 3.199287 1_555
Cd1_5 Mg0_7 3.205780 1_545
Cd1_5 Mg0_1 3.205780 1_555
Cd1_5 Mg0_5 3.238165 1_555
Cd1_5 Cd2_1 3.243216 1_555
Cd1_5 Cd2_7 3.243216 1_545
Cd1_6 Cd3_2 3.022892 1_555
Cd1_6 Cd3_4 3.022892 1_555
Cd1_6 Cd4_7 3.199287 1_554
Cd1_6 Mg0_2 3.205780 1_555
Cd1_6 Mg0_4 3.205780 1_555
Cd1_6 Mg0_6 3.238165 1_555
Cd1_6 Cd2_4 3.243216 1_555
Cd1_6 Cd2_2 3.243216 1_555
Cd1_7 Cd3_3 3.022892 1_555
Cd1_7 Cd3_5 3.022892 1_555
Cd1_7 Cd4_6 3.199287 1_555
Cd1_7 Mg0_3 3.205780 1_555
Cd1_7 Mg0_5 3.205780 1_555
Cd1_7 Mg0_7 3.238165 1_555
Cd1_7 Cd2_3 3.243216 1_555
Cd1_7 Cd2_5 3.243216 1_555
Cd2_0 Cd4_2 3.006990 1_555
Cd2_0 Cd4_4 3.006990 1_555
Cd2_0 Cd2_6 3.039835 1_545
Cd2_0 Cd2_6 3.039835 1_455
Cd2_0 Mg0_4 3.042464 1_555
Cd2_0 Mg0_2 3.042464 1_555
Cd2_0 Cd3_2 3.205056 1_555
Cd2_0 Cd3_4 3.205056 1_555
Cd2_0 Cd3_0 3.233215 1_555
Cd2_1 Cd4_3 3.006990 1_555
Cd2_1 Cd4_5 3.006990 1_555
Cd2_1 Cd2_7 3.039835 1_455
Cd2_1 Cd2_7 3.039835 1_545
Cd2_1 Mg0_3 3.042464 1_555
Cd2_1 Mg0_5 3.042464 1_555
Cd2_1 Cd3_5 3.205056 1_555
Cd2_1 Cd3_3 3.205056 1_555
Cd2_1 Cd3_1 3.233215 1_555
Cd2_2 Cd4_6 3.006990 1_555
Cd2_2 Cd4_0 3.006990 1_565
Cd2_2 Cd2_4 3.039835 1_555
Cd2_2 Cd2_4 3.039835 1_465
Cd2_2 Mg0_0 3.042464 1_565
Cd2_2 Mg0_6 3.042464 1_555
Cd2_2 Cd3_6 3.205056 1_555
Cd2_2 Cd3_0 3.205056 1_565
Cd2_2 Cd3_2 3.233215 1_555
Cd2_3 Cd4_7 3.006990 1_555
Cd2_3 Cd4_1 3.006990 1_565
Cd2_3 Cd2_5 3.039835 1_555
Cd2_3 Cd2_5 3.039835 1_465
Cd2_3 Mg0_1 3.042464 1_565
Cd2_3 Mg0_7 3.042464 1_555
Cd2_3 Cd3_1 3.205056 1_565
Cd2_3 Cd3_7 3.205056 1_555
Cd2_3 Cd3_3 3.233215 1_555
Cd2_4 Cd4_6 3.006990 1_555
Cd2_4 Cd4_0 3.006990 1_655
Cd2_4 Mg0_0 3.042464 1_655
Cd2_4 Mg0_6 3.042464 1_555
Cd2_4 Cd3_6 3.205056 1_555
Cd2_4 Cd3_0 3.205056 1_655
Cd2_4 Cd3_4 3.233215 1_555
Cd2_5 Cd4_7 3.006990 1_555
Cd2_5 Cd4_1 3.006990 1_655
Cd2_5 Mg0_1 3.042464 1_655
Cd2_5 Mg0_7 3.042464 1_555
Cd2_5 Cd3_1 3.205056 1_655
Cd2_5 Cd3_7 3.205056 1_555
Cd2_5 Cd3_5 3.233215 1_555
Cd2_6 Cd4_2 3.006990 1_655
Cd2_6 Cd4_4 3.006990 1_565
Cd2_6 Mg0_4 3.042464 1_565
Cd2_6 Mg0_2 3.042464 1_655
Cd2_6 Cd3_2 3.205056 1_655
Cd2_6 Cd3_4 3.205056 1_565
Cd2_6 Cd3_6 3.233215 1_555
Cd2_7 Cd4_3 3.006990 1_655
Cd2_7 Cd4_5 3.006990 1_565
Cd2_7 Mg0_3 3.042464 1_655
Cd2_7 Mg0_5 3.042464 1_565
Cd2_7 Cd3_5 3.205056 1_565
Cd2_7 Cd3_3 3.205056 1_655
Cd2_7 Cd3_7 3.233215 1_555
Cd3_0 Cd3_6 3.039835 1_455
Cd3_0 Cd3_6 3.039835 1_545
Cd3_0 Mg0_0 3.173081 1_555
Cd3_0 Cd4_4 3.306112 1_555
Cd3_0 Cd4_2 3.306112 1_555
Cd3_1 Cd3_7 3.039835 1_545
Cd3_1 Cd3_7 3.039835 1_455
Cd3_1 Mg0_1 3.173081 1_555
Cd3_1 Cd4_5 3.306112 1_555
Cd3_1 Cd4_3 3.306112 1_555
Cd3_2 Cd3_4 3.039835 1_555
Cd3_2 Cd3_4 3.039835 1_465
Cd3_2 Mg0_2 3.173081 1_555
Cd3_2 Cd4_6 3.306112 1_555
Cd3_2 Cd4_0 3.306112 1_565
Cd3_3 Cd3_5 3.039835 1_465
Cd3_3 Cd3_5 3.039835 1_555
Cd3_3 Mg0_3 3.173081 1_555
Cd3_3 Cd4_1 3.306112 1_565
Cd3_3 Cd4_7 3.306112 1_555
Cd3_4 Mg0_4 3.173081 1_555
Cd3_4 Cd4_0 3.306112 1_655
Cd3_4 Cd4_6 3.306112 1_555
Cd3_5 Mg0_5 3.173081 1_555
Cd3_5 Cd4_1 3.306112 1_655
Cd3_5 Cd4_7 3.306112 1_555
Cd3_6 Mg0_6 3.173081 1_555
Cd3_6 Cd4_4 3.306112 1_565
Cd3_6 Cd4_2 3.306112 1_655
Cd3_7 Mg0_7 3.173081 1_555
Cd3_7 Cd4_3 3.306112 1_655
Cd3_7 Cd4_5 3.306112 1_565
Cd4_0 Mg0_3 3.004142 1_545
Cd4_0 Mg0_5 3.004142 1_455
Cd4_0 Cd4_6 3.039835 1_455
Cd4_0 Cd4_6 3.039835 1_545
Cd4_1 Mg0_2 3.004142 1_546
Cd4_1 Mg0_4 3.004142 1_456
Cd4_1 Cd4_7 3.039835 1_455
Cd4_1 Cd4_7 3.039835 1_545
Cd4_2 Mg0_7 3.004142 1_455
Cd4_2 Mg0_1 3.004142 1_555
Cd4_2 Cd4_4 3.039835 1_555
Cd4_2 Cd4_4 3.039835 1_465
Cd4_3 Mg0_6 3.004142 1_456
Cd4_3 Mg0_0 3.004142 1_556
Cd4_3 Cd4_5 3.039835 1_465
Cd4_3 Cd4_5 3.039835 1_555
Cd4_4 Mg0_7 3.004142 1_545
Cd4_4 Mg0_1 3.004142 1_555
Cd4_5 Mg0_6 3.004142 1_546
Cd4_5 Mg0_0 3.004142 1_556
Cd4_6 Mg0_5 3.004142 1_555
Cd4_6 Mg0_3 3.004142 1_555
Cd4_7 Mg0_2 3.004142 1_556
Cd4_7 Mg0_4 3.004142 1_556
