# generated using pymatgen
data_Sr2Y2Cu2O7
_symmetry_space_group_name_H-M   'P 1'
_cell_length_a   12.98177627
_cell_length_b   12.98177627
_cell_length_c   12.98177627
_cell_angle_alpha   155.93320742
_cell_angle_beta   155.81228008
_cell_angle_gamma   34.38324901
_symmetry_Int_Tables_number   1
_chemical_formula_structural   Sr2Y2Cu2O7
_chemical_formula_sum   'Sr4 Y4 Cu4 O14'
_cell_volume   365.16795851
_cell_formula_units_Z   2
loop_
 _symmetry_equiv_pos_site_id
 _symmetry_equiv_pos_as_xyz
  1  'x, y, z'
loop_
 _atom_site_type_symbol
 _atom_site_label
 _atom_site_symmetry_multiplicity
 _atom_site_fract_x
 _atom_site_fract_y
 _atom_site_fract_z
 _atom_site_occupancy
  Sr  Sr0  1  0.84739300  0.83357800  0.96458800  1
  Sr  Sr1  1  0.15260700  0.11719500  0.98618500  1
  Sr  Sr2  1  0.63101100  0.61719500  0.96458800  1
  Sr  Sr3  1  0.36898900  0.33357800  0.98618500  1
  Y  Y0  1  0.50000000  0.47786800  0.97786800  1
  Y  Y1  1  0.00000000  0.97786800  0.97786800  1
  Y  Y2  1  0.21284100  0.75699200  0.46983300  1
  Y  Y3  1  0.78715900  0.25699200  0.54415000  1
  Cu  Cu0  1  0.93239600  0.40735000  0.47461800  1
  Cu  Cu1  1  0.06760400  0.54222200  0.47495400  1
  Cu  Cu2  1  0.56726800  0.04222200  0.47461800  1
  Cu  Cu3  1  0.43273200  0.90735000  0.47495400  1
  O  O0  1  0.81493000  0.66900100  0.98393100  1
  O  O1  1  0.18507000  0.16900100  0.85407100  1
  O  O2  1  0.69804400  0.67243500  0.48537500  1
  O  O3  1  0.30195600  0.78733200  0.97439100  1
  O  O4  1  0.31294000  0.28733200  0.48537500  1
  O  O5  1  0.68706000  0.17243500  0.97439100  1
  O  O6  1  0.18451300  0.15942300  0.46683300  1
  O  O7  1  0.81548700  0.28232000  0.97491100  1
  O  O8  1  0.80740900  0.78232000  0.46683300  1
  O  O9  1  0.19259100  0.65942300  0.97491100  1
  O  O10  1  0.37071900  0.77156300  0.47343400  1
  O  O11  1  0.62928100  0.10271500  0.40084400  1
  O  O12  1  0.20187100  0.60271500  0.47343400  1
  O  O13  1  0.79812900  0.27156300  0.40084400  1
loop_
_geom_bond_atom_site_label_1
_geom_bond_atom_site_label_2
_geom_bond_distance
_geom_bond_site_symmetry_2
Cu0 O6 1.924494 1_655
Cu0 O9 1.925767 1_655
Cu0 O2 1.932527 1_555
Cu0 O5 1.935903 1_554
Cu0 O13 2.450627 1_555
Cu1 O7 1.924491 1_454
Cu1 O8 1.925768 1_455
Cu1 O3 1.932525 1_555
Cu1 O4 1.935898 1_555
Cu1 O12 2.450627 1_555
Cu2 O8 1.924491 1_545
Cu2 O7 1.925768 1_555
Cu2 O4 1.932529 1_555
Cu2 O3 1.935902 1_544
Cu2 O11 2.450627 1_555
Cu3 O9 1.924490 1_554
Cu3 O6 1.925764 1_565
Cu3 O5 1.932527 1_565
Cu3 O2 1.935903 1_555
Cu3 O10 2.450627 1_555
O0 Y2 2.216308 1_656
O0 Y3 2.235289 1_555
O0 Sr2 2.732055 1_555
O0 Sr0 2.732068 1_555
O1 Y3 2.216310 1_455
O1 Y2 2.235286 1_545
O1 Sr3 2.732056 1_555
O1 Sr1 2.732068 1_555
O2 Y1 2.366699 1_655
O2 Y0 2.413051 1_554
O2 Sr0 2.785767 1_555
O2 Sr3 2.836863 1_554
O3 Y1 2.366703 1_555
O3 Y0 2.413061 1_555
O3 Sr1 2.785755 1_565
O3 Sr2 2.836859 1_555
O4 Y0 2.366706 1_555
O4 Y1 2.413058 1_544
O4 Sr2 2.785767 1_555
O4 Sr1 2.836844 1_554
O5 Y0 2.366699 1_555
O5 Y1 2.413051 1_645
O5 Sr3 2.785779 1_555
O5 Sr0 2.836853 1_545
O6 Y1 2.417296 1_544
O6 Y0 2.483509 1_555
O6 Sr0 2.772971 1_444
O6 Sr3 2.818930 1_555
O7 Y1 2.417288 1_645
O7 Y0 2.483502 1_555
O7 Sr1 2.772979 1_655
O7 Sr2 2.818936 1_555
O8 Y0 2.417288 1_554
O8 Y1 2.483502 1_655
O8 Sr2 2.772988 1_554
O8 Sr1 2.818930 1_665
O9 Y0 2.417293 1_555
O9 Y1 2.483512 1_555
O9 Sr3 2.772974 1_555
O9 Sr0 2.818924 1_455
O10 Y2 2.165068 1_555
O10 Sr0 2.541680 1_555
O10 Sr3 2.571752 1_554
O10 Sr3 2.975773 1_565
O10 Sr0 3.040919 1_454
O11 Y3 2.165079 1_555
O11 Sr1 2.541680 1_554
O11 Sr2 2.571757 1_544
O11 Sr2 2.975767 1_555
O11 Sr1 3.040919 1_655
O12 Y2 2.165068 1_555
O12 Sr2 2.541680 1_555
O12 Sr1 2.571757 1_554
O12 Sr1 2.975772 1_565
O12 Sr2 3.040914 1_454
O13 Y3 2.165055 1_555
O13 Sr3 2.541680 1_554
O13 Sr0 2.571757 1_544
O13 Sr0 2.975772 1_555
O13 Sr3 3.040914 1_655
