# generated using pymatgen
data_Sr6Ce2Y4Fe3(CuO8)3
_symmetry_space_group_name_H-M   'P 1'
_cell_length_a   3.86414402
_cell_length_b   3.86414402
_cell_length_c   38.19711416
_cell_angle_alpha   90.00000000
_cell_angle_beta   90.00000000
_cell_angle_gamma   90.00000000
_symmetry_Int_Tables_number   1
_chemical_formula_structural   Sr6Ce2Y4Fe3(CuO8)3
_chemical_formula_sum   'Sr6 Ce2 Y4 Fe3 Cu3 O24'
_cell_volume   570.34437384
_cell_formula_units_Z   1
loop_
 _symmetry_equiv_pos_site_id
 _symmetry_equiv_pos_as_xyz
  1  'x, y, z'
loop_
 _atom_site_type_symbol
 _atom_site_label
 _atom_site_symmetry_multiplicity
 _atom_site_fract_x
 _atom_site_fract_y
 _atom_site_fract_z
 _atom_site_occupancy
  Sr  Sr0  1  0.50000000  0.50000000  0.20646349  1
  Sr  Sr1  1  0.50000000  0.50000000  0.53557219  1
  Sr  Sr2  1  0.50000000  0.50000000  0.87019978  1
  Sr  Sr3  1  0.00000000  -0.00000000  0.13311667  1
  Sr  Sr4  1  0.00000000  -0.00000000  0.46405152  1
  Sr  Sr5  1  -0.00000000  -0.00000000  0.79866477  1
  Ce  Ce0  1  0.50000000  0.50000000  0.63313022  1
  Ce  Ce1  1  0.50000000  0.50000000  0.96661671  1
  Y  Y0  1  0.00000000  0.00000000  0.03320980  1
  Y  Y1  1  0.00000000  0.00000000  0.36342303  1
  Y  Y2  1  0.00000000  0.00000000  0.69942524  1
  Y  Y3  1  0.50000000  0.50000000  0.30225044  1
  Fe  Fe0  1  0.50000000  0.50000000  0.08617966  1
  Fe  Fe1  1  0.50000000  0.50000000  0.41903458  1
  Fe  Fe2  1  0.50000000  0.50000000  0.75252731  1
  Cu  Cu0  1  -0.00000000  -0.00000000  0.24914825  1
  Cu  Cu1  1  -0.00000000  -0.00000000  0.58246714  1
  Cu  Cu2  1  -0.00000000  0.00000000  0.91643280  1
  O  O0  1  -0.00000000  0.50000000  0.07359624  1
  O  O1  1  -0.00000000  0.50000000  0.40936232  1
  O  O2  1  0.00000000  0.50000000  0.74059762  1
  O  O3  1  0.50000000  0.00000000  0.07359624  1
  O  O4  1  0.50000000  0.00000000  0.40936232  1
  O  O5  1  0.50000000  -0.00000000  0.74059762  1
  O  O6  1  0.00000000  0.50000000  0.25680778  1
  O  O7  1  0.00000000  0.50000000  0.59298299  1
  O  O8  1  0.00000000  0.50000000  0.92600101  1
  O  O9  1  0.50000000  0.00000000  0.25680778  1
  O  O10  1  0.50000000  0.00000000  0.59298299  1
  O  O11  1  0.50000000  0.00000000  0.92600101  1
  O  O12  1  0.00000000  0.50000000  0.99962437  1
  O  O13  1  -0.00000000  0.50000000  0.33333666  1
  O  O14  1  0.00000000  0.50000000  0.66647868  1
  O  O15  1  0.50000000  0.00000000  0.99962437  1
  O  O16  1  0.50000000  0.00000000  0.33333666  1
  O  O17  1  0.50000000  -0.00000000  0.66647868  1
  O  O18  1  0.50000000  0.50000000  0.13579435  1
  O  O19  1  0.50000000  0.50000000  0.46930768  1
  O  O20  1  0.50000000  0.50000000  0.80241787  1
  O  O21  1  0.00000000  0.00000000  0.19395575  1
  O  O22  1  0.00000000  0.00000000  0.52703257  1
  O  O23  1  0.00000000  0.00000000  0.86000283  1
loop_
_geom_bond_atom_site_label_1
_geom_bond_atom_site_label_2
_geom_bond_distance
_geom_bond_site_symmetry_2
Ce0 O17 2.314197 1_555
Ce0 O14 2.314197 1_555
Ce0 O17 2.314197 1_565
Ce0 O14 2.314197 1_655
Ce0 O10 2.466688 1_555
Ce0 O7 2.466688 1_555
Ce0 O10 2.466688 1_565
Ce0 O7 2.466688 1_655
Ce1 O12 2.307057 1_555
Ce1 O12 2.307057 1_655
Ce1 O15 2.307057 1_555
Ce1 O15 2.307057 1_565
Ce1 O11 2.477852 1_555
Ce1 O8 2.477852 1_555
Ce1 O8 2.477852 1_655
Ce1 O11 2.477852 1_565
Fe0 O18 1.895138 1_555
Fe0 O0 1.990961 1_555
Fe0 O3 1.990961 1_555
Fe0 O0 1.990961 1_655
Fe0 O3 1.990961 1_565
Fe1 O19 1.920287 1_555
Fe1 O4 1.967078 1_555
Fe1 O1 1.967078 1_555
Fe1 O4 1.967078 1_565
Fe1 O1 1.967078 1_655
Fe2 O20 1.905675 1_555
Fe2 O2 1.985081 1_655
Fe2 O5 1.985081 1_555
Fe2 O2 1.985081 1_555
Fe2 O5 1.985081 1_565
Cu0 O9 1.954098 1_555
Cu0 O6 1.954098 1_555
Cu0 O9 1.954098 1_455
Cu0 O6 1.954098 1_545
Cu0 O21 2.108194 1_555
Cu1 O10 1.973384 1_555
Cu1 O7 1.973384 1_555
Cu1 O7 1.973384 1_545
Cu1 O10 1.973384 1_455
Cu1 O22 2.117441 1_555
Cu2 O8 1.966336 1_545
Cu2 O11 1.966336 1_455
Cu2 O11 1.966336 1_555
Cu2 O8 1.966336 1_555
Cu2 O23 2.155462 1_555
O0 Y0 2.472379 1_555
O0 Y0 2.472379 1_565
O0 Sr3 2.983579 1_555
O0 Sr3 2.983579 1_565
O1 Y1 2.609989 1_565
O1 Y1 2.609989 1_555
O1 Sr4 2.845469 1_555
O1 Sr4 2.845469 1_565
O2 Y2 2.491221 1_555
O2 Y2 2.491221 1_565
O2 Sr5 2.941499 1_565
O2 Sr5 2.941499 1_555
O3 Y0 2.472379 1_555
O3 Y0 2.472379 1_655
O3 Sr3 2.983579 1_555
O3 Sr3 2.983579 1_655
O4 Y1 2.609989 1_655
O4 Y1 2.609989 1_555
O4 Sr4 2.845469 1_555
O4 Sr4 2.845469 1_655
O5 Y2 2.491221 1_555
O5 Y2 2.491221 1_655
O5 Sr5 2.941499 1_655
O5 Sr5 2.941499 1_555
O6 Y3 2.597273 1_455
O6 Y3 2.597273 1_555
O6 Sr0 2.725960 1_555
O6 Sr0 2.725960 1_455
O7 Sr1 2.922641 1_455
O7 Sr1 2.922641 1_555
O8 Sr2 2.876798 1_555
O8 Sr2 2.876798 1_455
O9 Y3 2.597273 1_555
O9 Y3 2.597273 1_545
O9 Sr0 2.725960 1_545
O9 Sr0 2.725960 1_555
O10 Sr1 2.922641 1_545
O10 Sr1 2.922641 1_555
O11 Sr2 2.876798 1_555
O11 Sr2 2.876798 1_545
O12 Y0 2.319191 1_556
O12 Y0 2.319191 1_566
O13 Y1 2.248019 1_555
O13 Y1 2.248019 1_565
O13 Y3 2.267781 1_555
O13 Y3 2.267781 1_455
O14 Y2 2.305782 1_555
O14 Y2 2.305782 1_565
O15 Y0 2.319191 1_556
O15 Y0 2.319191 1_656
O16 Y1 2.248019 1_655
O16 Y1 2.248019 1_555
O16 Y3 2.267781 1_545
O16 Y3 2.267781 1_555
O17 Y2 2.305782 1_555
O17 Y2 2.305782 1_655
O18 Sr0 2.699357 1_555
O18 Sr3 2.734276 1_565
O18 Sr3 2.734276 1_555
O18 Sr3 2.734276 1_655
O18 Sr3 2.734276 1_665
O19 Sr1 2.531113 1_555
O19 Sr4 2.739729 1_555
O19 Sr4 2.739729 1_565
O19 Sr4 2.739729 1_655
O19 Sr4 2.739729 1_665
O20 Sr2 2.589073 1_555
O20 Sr5 2.736121 1_555
O20 Sr5 2.736121 1_565
O20 Sr5 2.736121 1_665
O20 Sr5 2.736121 1_655
O21 Sr3 2.323877 1_555
O21 Sr0 2.773817 1_445
O21 Sr0 2.773817 1_545
O21 Sr0 2.773817 1_455
O21 Sr0 2.773817 1_555
O22 Sr4 2.405694 1_555
O22 Sr1 2.751764 1_445
O22 Sr1 2.751764 1_545
O22 Sr1 2.751764 1_455
O22 Sr1 2.751764 1_555
O23 Sr5 2.342937 1_555
O23 Sr2 2.759984 1_445
O23 Sr2 2.759984 1_455
O23 Sr2 2.759984 1_555
O23 Sr2 2.759984 1_545
