# generated using pymatgen
data_InSn4
_symmetry_space_group_name_H-M   'P 1'
_cell_length_a   29.15018036
_cell_length_b   29.15018036
_cell_length_c   6.10815800
_cell_angle_alpha   90.00000000
_cell_angle_beta   90.00000000
_cell_angle_gamma   167.44812663
_symmetry_Int_Tables_number   1
_chemical_formula_structural   InSn4
_chemical_formula_sum   'In8 Sn32'
_cell_volume   1127.97453897
_cell_formula_units_Z   8
loop_
 _symmetry_equiv_pos_site_id
 _symmetry_equiv_pos_as_xyz
  1  'x, y, z'
loop_
 _atom_site_type_symbol
 _atom_site_label
 _atom_site_symmetry_multiplicity
 _atom_site_fract_x
 _atom_site_fract_y
 _atom_site_fract_z
 _atom_site_occupancy
  In  In0_0  1  0.00000000  0.00000000  0.00000000  1
  In  In0_1  1  0.00000000  0.00000000  0.50000000  1
  In  In0_2  1  0.00000000  0.50000000  0.00000000  1
  In  In0_3  1  0.00000000  0.50000000  0.50000000  1
  In  In0_4  1  0.50000000  0.00000000  0.00000000  1
  In  In0_5  1  0.50000000  0.00000000  0.50000000  1
  In  In0_6  1  0.50000000  0.50000000  0.00000000  1
  In  In0_7  1  0.50000000  0.50000000  0.50000000  1
  Sn  Sn0_0  1  0.19976300  0.30023700  0.00000000  1
  Sn  Sn0_1  1  0.19976300  0.30023700  0.50000000  1
  Sn  Sn0_2  1  0.19976300  0.80023700  0.00000000  1
  Sn  Sn0_3  1  0.19976300  0.80023700  0.50000000  1
  Sn  Sn0_4  1  0.69976300  0.30023700  0.00000000  1
  Sn  Sn0_5  1  0.69976300  0.30023700  0.50000000  1
  Sn  Sn0_6  1  0.69976300  0.80023700  0.00000000  1
  Sn  Sn0_7  1  0.69976300  0.80023700  0.50000000  1
  Sn  Sn1_0  1  0.39999300  0.10000700  0.00000000  1
  Sn  Sn1_1  1  0.39999300  0.10000700  0.50000000  1
  Sn  Sn1_2  1  0.39999300  0.60000700  0.00000000  1
  Sn  Sn1_3  1  0.39999300  0.60000700  0.50000000  1
  Sn  Sn1_4  1  0.89999300  0.10000700  0.00000000  1
  Sn  Sn1_5  1  0.89999300  0.10000700  0.50000000  1
  Sn  Sn1_6  1  0.89999300  0.60000700  0.00000000  1
  Sn  Sn1_7  1  0.89999300  0.60000700  0.50000000  1
  Sn  Sn2_0  1  0.10000700  0.39999300  0.00000000  1
  Sn  Sn2_1  1  0.10000700  0.39999300  0.50000000  1
  Sn  Sn2_2  1  0.10000700  0.89999300  0.00000000  1
  Sn  Sn2_3  1  0.10000700  0.89999300  0.50000000  1
  Sn  Sn2_4  1  0.60000700  0.39999300  0.00000000  1
  Sn  Sn2_5  1  0.60000700  0.39999300  0.50000000  1
  Sn  Sn2_6  1  0.60000700  0.89999300  0.00000000  1
  Sn  Sn2_7  1  0.60000700  0.89999300  0.50000000  1
  Sn  Sn3_0  1  0.30023700  0.19976300  0.00000000  1
  Sn  Sn3_1  1  0.30023700  0.19976300  0.50000000  1
  Sn  Sn3_2  1  0.30023700  0.69976300  0.00000000  1
  Sn  Sn3_3  1  0.30023700  0.69976300  0.50000000  1
  Sn  Sn3_4  1  0.80023700  0.19976300  0.00000000  1
  Sn  Sn3_5  1  0.80023700  0.19976300  0.50000000  1
  Sn  Sn3_6  1  0.80023700  0.69976300  0.00000000  1
  Sn  Sn3_7  1  0.80023700  0.69976300  0.50000000  1
loop_
_geom_bond_atom_site_label_1
_geom_bond_atom_site_label_2
_geom_bond_distance
_geom_bond_site_symmetry_2
In0_0 In0_1 3.054079 1_554
In0_0 In0_1 3.054079 1_555
In0_0 In0_6 3.186606 1_555
In0_0 In0_6 3.186606 1_445
In0_0 Sn3_0 3.318762 1_555
In0_0 Sn3_6 3.318762 1_445
In0_0 Sn0_6 3.318762 1_445
In0_0 Sn0_0 3.318762 1_555
In0_1 In0_7 3.186606 1_445
In0_1 In0_7 3.186606 1_555
In0_1 Sn3_1 3.318762 1_555
In0_1 Sn0_7 3.318762 1_445
In0_1 Sn3_7 3.318762 1_445
In0_1 Sn0_1 3.318762 1_555
In0_2 In0_3 3.054079 1_555
In0_2 In0_3 3.054079 1_554
In0_2 In0_4 3.186606 1_565
In0_2 In0_4 3.186606 1_455
In0_2 Sn3_2 3.318762 1_555
In0_2 Sn3_4 3.318762 1_455
In0_2 Sn0_4 3.318762 1_455
In0_2 Sn0_2 3.318762 1_555
In0_3 In0_5 3.186606 1_565
In0_3 In0_5 3.186606 1_455
In0_3 Sn3_3 3.318762 1_555
In0_3 Sn3_5 3.318762 1_455
In0_3 Sn0_5 3.318762 1_455
In0_3 Sn0_3 3.318762 1_555
In0_4 In0_5 3.054079 1_555
In0_4 In0_5 3.054079 1_554
In0_4 Sn3_4 3.318762 1_555
In0_4 Sn0_2 3.318762 1_545
In0_4 Sn3_2 3.318762 1_545
In0_4 Sn0_4 3.318762 1_555
In0_5 Sn3_5 3.318762 1_555
In0_5 Sn0_3 3.318762 1_545
In0_5 Sn3_3 3.318762 1_545
In0_5 Sn0_5 3.318762 1_555
In0_6 In0_7 3.054079 1_554
In0_6 In0_7 3.054079 1_555
In0_6 Sn0_0 3.318762 1_555
In0_6 Sn3_6 3.318762 1_555
In0_6 Sn3_0 3.318762 1_555
In0_6 Sn0_6 3.318762 1_555
In0_7 Sn0_1 3.318762 1_555
In0_7 Sn3_1 3.318762 1_555
In0_7 Sn0_7 3.318762 1_555
In0_7 Sn3_7 3.318762 1_555
Sn0_0 Sn0_1 3.054079 1_555
Sn0_0 Sn0_1 3.054079 1_554
Sn0_0 Sn0_6 3.186606 1_445
Sn0_0 Sn0_6 3.186606 1_555
Sn0_0 Sn1_2 3.295047 1_555
Sn0_0 Sn1_4 3.295047 1_455
Sn0_1 Sn0_7 3.186606 1_445
Sn0_1 Sn0_7 3.186606 1_555
Sn0_1 Sn1_3 3.295047 1_555
Sn0_1 Sn1_5 3.295047 1_455
Sn0_2 Sn0_3 3.054079 1_554
Sn0_2 Sn0_3 3.054079 1_555
Sn0_2 Sn0_4 3.186606 1_455
Sn0_2 Sn0_4 3.186606 1_565
Sn0_2 Sn1_0 3.295047 1_565
Sn0_2 Sn1_6 3.295047 1_455
Sn0_3 Sn0_5 3.186606 1_455
Sn0_3 Sn0_5 3.186606 1_565
Sn0_3 Sn1_1 3.295047 1_565
Sn0_3 Sn1_7 3.295047 1_455
Sn0_4 Sn0_5 3.054079 1_555
Sn0_4 Sn0_5 3.054079 1_554
Sn0_4 Sn1_0 3.295047 1_555
Sn0_4 Sn1_6 3.295047 1_555
Sn0_5 Sn1_1 3.295047 1_555
Sn0_5 Sn1_7 3.295047 1_555
Sn0_6 Sn0_7 3.054079 1_554
Sn0_6 Sn0_7 3.054079 1_555
Sn0_6 Sn1_4 3.295047 1_565
Sn0_6 Sn1_2 3.295047 1_555
Sn0_7 Sn1_5 3.295047 1_565
Sn0_7 Sn1_3 3.295047 1_555
Sn1_0 Sn1_1 3.054079 1_554
Sn1_0 Sn1_1 3.054079 1_555
Sn1_0 Sn1_6 3.186606 1_445
Sn1_0 Sn1_6 3.186606 1_555
Sn1_0 Sn2_4 3.306010 1_555
Sn1_0 Sn2_2 3.306010 1_545
Sn1_1 Sn1_7 3.186606 1_445
Sn1_1 Sn1_7 3.186606 1_555
Sn1_1 Sn2_5 3.306010 1_555
Sn1_1 Sn2_3 3.306010 1_545
Sn1_2 Sn1_3 3.054079 1_555
Sn1_2 Sn1_3 3.054079 1_554
Sn1_2 Sn1_4 3.186606 1_455
Sn1_2 Sn1_4 3.186606 1_565
Sn1_2 Sn2_6 3.306010 1_555
Sn1_2 Sn2_0 3.306010 1_555
Sn1_3 Sn1_5 3.186606 1_455
Sn1_3 Sn1_5 3.186606 1_565
Sn1_3 Sn2_7 3.306010 1_555
Sn1_3 Sn2_1 3.306010 1_555
Sn1_4 Sn1_5 3.054079 1_554
Sn1_4 Sn1_5 3.054079 1_555
Sn1_4 Sn2_6 3.306010 1_545
Sn1_4 Sn2_0 3.306010 1_655
Sn1_5 Sn2_7 3.306010 1_545
Sn1_5 Sn2_1 3.306010 1_655
Sn1_6 Sn1_7 3.054079 1_554
Sn1_6 Sn1_7 3.054079 1_555
Sn1_6 Sn2_4 3.306010 1_555
Sn1_6 Sn2_2 3.306010 1_655
Sn1_7 Sn2_5 3.306010 1_555
Sn1_7 Sn2_3 3.306010 1_655
Sn2_0 Sn2_1 3.054079 1_555
Sn2_0 Sn2_1 3.054079 1_554
Sn2_0 Sn2_6 3.186606 1_445
Sn2_0 Sn2_6 3.186606 1_555
Sn2_0 Sn3_2 3.295047 1_555
Sn2_0 Sn3_4 3.295047 1_455
Sn2_1 Sn2_7 3.186606 1_445
Sn2_1 Sn2_7 3.186606 1_555
Sn2_1 Sn3_3 3.295047 1_555
Sn2_1 Sn3_5 3.295047 1_455
Sn2_2 Sn2_3 3.054079 1_554
Sn2_2 Sn2_3 3.054079 1_555
Sn2_2 Sn2_4 3.186606 1_455
Sn2_2 Sn2_4 3.186606 1_565
Sn2_2 Sn3_0 3.295047 1_565
Sn2_2 Sn3_6 3.295047 1_455
Sn2_3 Sn2_5 3.186606 1_455
Sn2_3 Sn2_5 3.186606 1_565
Sn2_3 Sn3_1 3.295047 1_565
Sn2_3 Sn3_7 3.295047 1_455
Sn2_4 Sn2_5 3.054079 1_554
Sn2_4 Sn2_5 3.054079 1_555
Sn2_4 Sn3_0 3.295047 1_555
Sn2_4 Sn3_6 3.295047 1_555
Sn2_5 Sn3_7 3.295047 1_555
Sn2_5 Sn3_1 3.295047 1_555
Sn2_6 Sn2_7 3.054079 1_554
Sn2_6 Sn2_7 3.054079 1_555
Sn2_6 Sn3_2 3.295047 1_555
Sn2_6 Sn3_4 3.295047 1_565
Sn2_7 Sn3_3 3.295047 1_555
Sn2_7 Sn3_5 3.295047 1_565
Sn3_0 Sn3_1 3.054079 1_554
Sn3_0 Sn3_1 3.054079 1_555
Sn3_0 Sn3_6 3.186606 1_445
Sn3_0 Sn3_6 3.186606 1_555
Sn3_1 Sn3_7 3.186606 1_445
Sn3_1 Sn3_7 3.186606 1_555
Sn3_2 Sn3_3 3.054079 1_555
Sn3_2 Sn3_3 3.054079 1_554
Sn3_2 Sn3_4 3.186606 1_455
Sn3_2 Sn3_4 3.186606 1_565
Sn3_3 Sn3_5 3.186606 1_455
Sn3_3 Sn3_5 3.186606 1_565
Sn3_4 Sn3_5 3.054079 1_555
Sn3_4 Sn3_5 3.054079 1_554
Sn3_6 Sn3_7 3.054079 1_555
Sn3_6 Sn3_7 3.054079 1_554
