# generated using pymatgen
data_CaMg2Al4SiO12
_symmetry_space_group_name_H-M   'P 1'
_cell_length_a   5.28551351
_cell_length_b   5.29428265
_cell_length_c   9.74066389
_cell_angle_alpha   84.81105370
_cell_angle_beta   80.28992278
_cell_angle_gamma   60.19114454
_symmetry_Int_Tables_number   1
_chemical_formula_structural   CaMg2Al4SiO12
_chemical_formula_sum   'Ca1 Mg2 Al4 Si1 O12'
_cell_volume   233.11331429
_cell_formula_units_Z   1
loop_
 _symmetry_equiv_pos_site_id
 _symmetry_equiv_pos_as_xyz
  1  'x, y, z'
loop_
 _atom_site_type_symbol
 _atom_site_label
 _atom_site_symmetry_multiplicity
 _atom_site_fract_x
 _atom_site_fract_y
 _atom_site_fract_z
 _atom_site_occupancy
  Ca  Ca0  1  0.00243300  0.99983100  0.98675900  1
  Mg  Mg0  1  0.82510000  0.34588300  0.50200400  1
  Mg  Mg1  1  0.17128700  0.65333000  0.50153000  1
  Al  Al0  1  0.49931300  0.00559700  0.50293600  1
  Al  Al1  1  0.27242300  0.32748000  0.20873400  1
  Al  Al2  1  0.39935400  0.32940200  0.79534800  1
  Al  Al3  1  0.72561900  0.67276100  0.79559200  1
  Si  Si0  1  0.60257400  0.67019000  0.20740300  1
  O  O0  1  0.54517200  0.68384800  0.37961300  1
  O  O1  1  0.22765800  0.30718800  0.39226100  1
  O  O2  1  0.46229400  0.31276000  0.60925800  1
  O  O3  1  0.76399400  0.69242300  0.60825000  1
  O  O4  1  0.35525600  0.61236700  0.15326700  1
  O  O5  1  0.93672900  0.40453200  0.15222600  1
  O  O6  1  0.67635300  0.37106900  0.85238200  1
  O  O7  1  0.04802800  0.63012900  0.84975100  1
  O  O8  1  0.84469100  0.99888400  0.40930300  1
  O  O9  1  0.15987500  0.99715100  0.58924700  1
  O  O10  1  0.56909600  0.98486000  0.14470300  1
  O  O11  1  0.41275300  0.00031500  0.85943400  1
loop_
_geom_bond_atom_site_label_1
_geom_bond_atom_site_label_2
_geom_bond_distance
_geom_bond_site_symmetry_2
Ca0 O11 2.310690 1_565
Ca0 O6 2.339761 1_465
Ca0 O7 2.359062 1_555
Ca0 O10 2.566896 1_456
Ca0 O4 2.632752 1_556
Ca0 O5 2.646727 1_466
Mg0 O3 2.045228 1_555
Mg0 O9 2.058477 1_645
Mg0 O8 2.068922 1_545
Mg0 O0 2.095000 1_555
Mg0 O2 2.103534 1_555
Mg0 O1 2.133280 1_655
Mg1 O2 2.040324 1_555
Mg1 O9 2.049851 1_555
Mg1 O8 2.054229 1_455
Mg1 O1 2.069523 1_555
Mg1 O3 2.144493 1_455
Mg1 O0 2.198352 1_555
Al0 O9 1.868632 1_545
Al0 O8 1.882890 1_545
Al0 O3 1.904952 1_545
Al0 O2 1.917115 1_555
Al0 O1 1.924767 1_555
Al0 O0 2.065146 1_545
Al1 O1 1.763848 1_555
Al1 O10 1.784657 1_545
Al1 O5 1.785156 1_455
Al1 O4 1.785443 1_555
Al2 O6 1.765920 1_555
Al2 O11 1.767976 1_555
Al2 O7 1.773472 1_555
Al2 O2 1.788975 1_555
Al3 O11 1.767956 1_565
Al3 O6 1.769207 1_555
Al3 O7 1.769889 1_655
Al3 O3 1.801049 1_555
O0 Si0 1.655154 1_555
O4 Si0 1.655339 1_555
O5 Si0 1.653247 1_555
O10 Si0 1.655005 1_555
