# generated using pymatgen
data_RbMg14CoO16
_symmetry_space_group_name_H-M   'P 1'
_cell_length_a   8.74670151
_cell_length_b   8.74670151
_cell_length_c   4.31103577
_cell_angle_alpha   90.00000000
_cell_angle_beta   90.00000000
_cell_angle_gamma   90.00000000
_symmetry_Int_Tables_number   1
_chemical_formula_structural   RbMg14CoO16
_chemical_formula_sum   'Rb1 Mg14 Co1 O16'
_cell_volume   329.81487465
_cell_formula_units_Z   1
loop_
 _symmetry_equiv_pos_site_id
 _symmetry_equiv_pos_as_xyz
  1  'x, y, z'
loop_
 _atom_site_type_symbol
 _atom_site_label
 _atom_site_symmetry_multiplicity
 _atom_site_fract_x
 _atom_site_fract_y
 _atom_site_fract_z
 _atom_site_occupancy
  Rb  Rb0  1  0.50000000  0.50000000  0.00000000  1
  Mg  Mg0  1  0.00000000  0.50000000  0.00000000  1
  Mg  Mg1  1  0.50000000  0.00000000  0.00000000  1
  Mg  Mg2  1  0.00000000  0.24778315  0.50000000  1
  Mg  Mg3  1  0.00000000  0.75221685  0.50000000  1
  Mg  Mg4  1  0.50000000  0.23626669  0.50000000  1
  Mg  Mg5  1  0.50000000  0.76373331  0.50000000  1
  Mg  Mg6  1  0.24778315  0.00000000  0.50000000  1
  Mg  Mg7  1  0.23626669  0.50000000  0.50000000  1
  Mg  Mg8  1  0.75221685  0.00000000  0.50000000  1
  Mg  Mg9  1  0.76373331  0.50000000  0.50000000  1
  Mg  Mg10  1  0.24731659  0.24731659  0.00000000  1
  Mg  Mg11  1  0.24731659  0.75268341  0.00000000  1
  Mg  Mg12  1  0.75268341  0.24731659  0.00000000  1
  Mg  Mg13  1  0.75268341  0.75268341  0.00000000  1
  Co  Co0  1  0.00000000  0.00000000  0.00000000  1
  O  O0  1  0.24088558  0.00000000  0.00000000  1
  O  O1  1  0.22068101  0.50000000  0.00000000  1
  O  O2  1  0.75911442  0.00000000  0.00000000  1
  O  O3  1  0.77931899  0.50000000  0.00000000  1
  O  O4  1  0.25034511  0.25034511  0.50000000  1
  O  O5  1  0.25034511  0.74965489  0.50000000  1
  O  O6  1  0.74965489  0.25034511  0.50000000  1
  O  O7  1  0.74965489  0.74965489  0.50000000  1
  O  O8  1  0.00000000  0.00000000  0.50000000  1
  O  O9  1  0.00000000  0.50000000  0.50000000  1
  O  O10  1  0.50000000  0.00000000  0.50000000  1
  O  O11  1  0.50000000  0.50000000  0.50000000  1
  O  O12  1  0.00000000  0.24088558  0.00000000  1
  O  O13  1  0.00000000  0.75911442  0.00000000  1
  O  O14  1  0.50000000  0.22068101  0.00000000  1
  O  O15  1  0.50000000  0.77931899  0.00000000  1
loop_
_geom_bond_atom_site_label_1
_geom_bond_atom_site_label_2
_geom_bond_distance
_geom_bond_site_symmetry_2
Mg0 O3 1.930231 1_455
Mg0 O1 1.930231 1_555
Mg0 O9 2.155518 1_555
Mg0 O9 2.155518 1_554
Mg0 O12 2.266396 1_555
Mg0 O13 2.266396 1_555
Mg1 O15 1.930231 1_545
Mg1 O14 1.930231 1_555
Mg1 O10 2.155518 1_555
Mg1 O10 2.155518 1_554
Mg1 O0 2.266396 1_555
Mg1 O2 2.266396 1_555
Mg2 O12 2.156362 1_556
Mg2 O12 2.156362 1_555
Mg2 O8 2.167285 1_555
Mg2 O4 2.189809 1_555
Mg2 O6 2.189809 1_455
Mg2 O9 2.206066 1_555
Mg3 O13 2.156362 1_555
Mg3 O13 2.156362 1_556
Mg3 O8 2.167285 1_565
Mg3 O5 2.189809 1_555
Mg3 O7 2.189809 1_455
Mg3 O9 2.206066 1_555
Mg4 O10 2.066554 1_555
Mg4 O14 2.159824 1_556
Mg4 O14 2.159824 1_555
Mg4 O6 2.187126 1_555
Mg4 O4 2.187126 1_555
Mg4 O11 2.306797 1_555
Mg5 O10 2.066554 1_565
Mg5 O15 2.159824 1_556
Mg5 O15 2.159824 1_555
Mg5 O7 2.187126 1_555
Mg5 O5 2.187126 1_555
Mg5 O11 2.306797 1_555
Mg6 O0 2.156362 1_555
Mg6 O0 2.156362 1_556
Mg6 O8 2.167285 1_555
Mg6 O4 2.189809 1_555
Mg6 O5 2.189809 1_545
Mg6 O10 2.206066 1_555
Mg7 O9 2.066554 1_555
Mg7 O1 2.159824 1_556
Mg7 O1 2.159824 1_555
Mg7 O5 2.187126 1_555
Mg7 O4 2.187126 1_555
Mg7 O11 2.306797 1_555
Mg8 O2 2.156362 1_556
Mg8 O2 2.156362 1_555
Mg8 O8 2.167285 1_655
Mg8 O6 2.189809 1_555
Mg8 O7 2.189809 1_545
Mg8 O10 2.206066 1_555
Mg9 O9 2.066554 1_655
Mg9 O3 2.159824 1_556
Mg9 O3 2.159824 1_555
Mg9 O7 2.187126 1_555
Mg9 O6 2.187126 1_555
Mg9 O11 2.306797 1_555
Mg10 O4 2.155843 1_554
Mg10 O4 2.155843 1_555
Mg10 O12 2.163936 1_555
Mg10 O0 2.163936 1_555
Mg10 O1 2.222391 1_555
Mg10 O14 2.222391 1_555
Mg11 O5 2.155843 1_555
Mg11 O5 2.155843 1_554
Mg11 O0 2.163936 1_565
Mg11 O13 2.163936 1_555
Mg11 O15 2.222391 1_555
Mg11 O1 2.222391 1_555
Mg12 O6 2.155843 1_555
Mg12 O6 2.155843 1_554
Mg12 O12 2.163936 1_655
Mg12 O2 2.163936 1_555
Mg12 O3 2.222391 1_555
Mg12 O14 2.222391 1_555
Mg13 O7 2.155843 1_555
Mg13 O7 2.155843 1_554
Mg13 O13 2.163936 1_655
Mg13 O2 2.163936 1_565
Mg13 O15 2.222391 1_555
Mg13 O3 2.222391 1_555
Co0 O13 2.106954 1_545
Co0 O2 2.106954 1_455
Co0 O12 2.106954 1_555
Co0 O0 2.106954 1_555
Co0 O8 2.155518 1_554
Co0 O8 2.155518 1_555
O1 Rb0 2.443120 1_555
O3 Rb0 2.443120 1_555
O11 Rb0 2.155518 1_555
O11 Rb0 2.155518 1_556
O14 Rb0 2.443120 1_555
O15 Rb0 2.443120 1_555
