# generated using pymatgen
data_Ba4NaB10Cl(O9F)2
_symmetry_space_group_name_H-M   'P 1'
_cell_length_a   11.57749600
_cell_length_b   6.82359400
_cell_length_c   13.24535197
_cell_angle_alpha   60.94472072
_cell_angle_beta   90.00000000
_cell_angle_gamma   90.00000000
_symmetry_Int_Tables_number   1
_chemical_formula_structural   Ba4NaB10Cl(O9F)2
_chemical_formula_sum   'Ba8 Na2 B20 Cl2 O36 F4'
_cell_volume   914.69868614
_cell_formula_units_Z   2
loop_
 _symmetry_equiv_pos_site_id
 _symmetry_equiv_pos_as_xyz
  1  'x, y, z'
loop_
 _atom_site_type_symbol
 _atom_site_label
 _atom_site_symmetry_multiplicity
 _atom_site_fract_x
 _atom_site_fract_y
 _atom_site_fract_z
 _atom_site_occupancy
  Ba  Ba0  1  0.29575500  0.64433100  0.03170200  1
  Ba  Ba1  1  0.20424500  0.64433100  0.53170200  1
  Ba  Ba2  1  0.70424500  0.35566900  0.96829800  1
  Ba  Ba3  1  0.79575500  0.35566900  0.46829800  1
  Ba  Ba4  1  0.03031000  0.69771400  0.80382200  1
  Ba  Ba5  1  0.46969000  0.69771400  0.30382200  1
  Ba  Ba6  1  0.96969000  0.30228600  0.19617800  1
  Ba  Ba7  1  0.53031000  0.30228600  0.69617800  1
  Na  Na0  1  0.00000000  0.00000000  0.00000000  1
  Na  Na1  1  0.50000000  0.00000000  0.50000000  1
  B  B0  1  0.21819700  0.16371500  0.80249800  1
  B  B1  1  0.28180300  0.16371500  0.30249800  1
  B  B2  1  0.78180300  0.83628500  0.19750200  1
  B  B3  1  0.71819700  0.83628500  0.69750200  1
  B  B4  1  0.77281300  0.78161800  0.02411400  1
  B  B5  1  0.72718700  0.78161800  0.52411400  1
  B  B6  1  0.22718700  0.21838200  0.97588600  1
  B  B7  1  0.27281300  0.21838200  0.47588600  1
  B  B8  1  0.29866600  0.94828100  0.69730500  1
  B  B9  1  0.20133400  0.94828100  0.19730500  1
  B  B10  1  0.70133400  0.05171900  0.30269500  1
  B  B11  1  0.79866600  0.05171900  0.80269500  1
  B  B12  1  0.99071600  0.25645500  0.74282300  1
  B  B13  1  0.50928400  0.25645500  0.24282300  1
  B  B14  1  0.00928400  0.74354500  0.25717700  1
  B  B15  1  0.49071600  0.74354500  0.75717700  1
  B  B16  1  0.19179000  0.51954300  0.28954900  1
  B  B17  1  0.30821000  0.51954300  0.78954900  1
  B  B18  1  0.80821000  0.48045700  0.71045100  1
  B  B19  1  0.69179000  0.48045700  0.21045100  1
  Cl  Cl0  1  0.50000000  0.00000000  0.00000000  1
  Cl  Cl1  1  0.00000000  0.00000000  0.50000000  1
  O  O0  1  0.24116100  0.73778800  0.20176500  1
  O  O1  1  0.25883900  0.73778800  0.70176500  1
  O  O2  1  0.75883900  0.26221200  0.79823500  1
  O  O3  1  0.74116100  0.26221200  0.29823500  1
  O  O4  1  0.80329200  0.65287700  0.74636400  1
  O  O5  1  0.69670800  0.65287700  0.24636400  1
  O  O6  1  0.19670800  0.34712300  0.25363600  1
  O  O7  1  0.30329200  0.34712300  0.75363600  1
  O  O8  1  0.79987400  0.92003600  0.06903300  1
  O  O9  1  0.70012600  0.92003600  0.56903300  1
  O  O10  1  0.20012600  0.07996400  0.93096700  1
  O  O11  1  0.29987400  0.07996400  0.43096700  1
  O  O12  1  0.24383100  0.44602200  0.90032700  1
  O  O13  1  0.25616900  0.44602200  0.40032700  1
  O  O14  1  0.75616900  0.55397800  0.09967300  1
  O  O15  1  0.74383100  0.55397800  0.59967300  1
  O  O16  1  0.93174300  0.05636200  0.80032200  1
  O  O17  1  0.56825700  0.05636200  0.30032200  1
  O  O18  1  0.06825700  0.94363800  0.19967800  1
  O  O19  1  0.43174300  0.94363800  0.69967800  1
  O  O20  1  0.25070900  0.96346300  0.79587400  1
  O  O21  1  0.24929100  0.96346300  0.29587400  1
  O  O22  1  0.74929100  0.03653700  0.20412600  1
  O  O23  1  0.75070900  0.03653700  0.70412600  1
  O  O24  1  0.39184700  0.27245200  0.23868100  1
  O  O25  1  0.10815300  0.27245200  0.73868100  1
  O  O26  1  0.60815300  0.72754800  0.76131900  1
  O  O27  1  0.89184700  0.72754800  0.26131900  1
  O  O28  1  0.93201800  0.45680100  0.68787900  1
  O  O29  1  0.56798200  0.45680100  0.18787900  1
  O  O30  1  0.06798200  0.54319900  0.31212100  1
  O  O31  1  0.43201800  0.54319900  0.81212100  1
  O  O32  1  0.23080500  0.15435300  0.09045000  1
  O  O33  1  0.26919500  0.15435300  0.59045000  1
  O  O34  1  0.76919500  0.84564700  0.90955000  1
  O  O35  1  0.73080500  0.84564700  0.40955000  1
  F  F0  1  0.93986800  0.33815500  0.97823700  1
  F  F1  1  0.56013200  0.33815500  0.47823700  1
  F  F2  1  0.06013200  0.66184500  0.02176300  1
  F  F3  1  0.43986800  0.66184500  0.52176300  1
loop_
_geom_bond_atom_site_label_1
_geom_bond_atom_site_label_2
_geom_bond_distance
_geom_bond_site_symmetry_2
Ba0 O0 2.697294 1_555
Ba0 F2 2.730916 1_555
Ba0 O12 2.739994 1_554
Ba0 O10 2.826636 1_564
Ba0 O20 2.857300 1_554
Ba0 O6 2.877246 1_555
Ba0 O24 2.904410 1_555
Ba0 O32 3.134063 1_555
Ba0 Cl0 3.266201 1_565
Ba1 O1 2.697294 1_555
Ba1 F3 2.730916 1_555
Ba1 O13 2.739994 1_555
Ba1 O11 2.826636 1_565
Ba1 O21 2.857300 1_555
Ba1 O7 2.877246 1_555
Ba1 O25 2.904410 1_555
Ba1 O33 3.134063 1_555
Ba1 Cl1 3.266201 1_565
Ba2 O2 2.697294 1_555
Ba2 F0 2.730916 1_555
Ba2 O14 2.739994 1_556
Ba2 O8 2.826636 1_546
Ba2 O22 2.857300 1_556
Ba2 O4 2.877246 1_555
Ba2 O26 2.904410 1_555
Ba2 O34 3.134063 1_555
Ba2 Cl0 3.266201 1_556
Ba3 O3 2.697294 1_555
Ba3 F1 2.730916 1_555
Ba3 O15 2.739994 1_555
Ba3 O9 2.826636 1_545
Ba3 O23 2.857300 1_555
Ba3 O5 2.877246 1_555
Ba3 O27 2.904410 1_555
Ba3 O35 3.134063 1_555
Ba3 Cl1 3.266201 1_655
Ba4 F0 2.635827 1_455
Ba4 O16 2.680171 1_465
Ba4 O4 2.794088 1_455
Ba4 F2 2.797484 1_556
Ba4 O1 2.922888 1_555
Ba4 O12 2.926119 1_555
Ba4 O28 2.967804 1_455
Ba4 O20 3.102412 1_555
Ba4 Cl1 3.536904 1_565
Ba5 F1 2.635827 1_555
Ba5 O17 2.680171 1_565
Ba5 O5 2.794088 1_555
Ba5 F3 2.797484 1_555
Ba5 O0 2.922888 1_555
Ba5 O13 2.926119 1_555
Ba5 O29 2.967804 1_555
Ba5 O21 3.102412 1_555
Ba5 Cl0 3.536904 1_565
Ba6 F2 2.635827 1_655
Ba6 O18 2.680171 1_645
Ba6 O6 2.794088 1_655
Ba6 F0 2.797484 1_554
Ba6 O3 2.922888 1_555
Ba6 O14 2.926119 1_555
Ba6 O30 2.967804 1_655
Ba6 O22 3.102412 1_555
Ba6 Cl1 3.536904 1_655
Ba7 F3 2.635827 1_555
Ba7 O19 2.680171 1_545
Ba7 O7 2.794088 1_555
Ba7 F1 2.797484 1_555
Ba7 O2 2.922888 1_555
Ba7 O15 2.926119 1_555
Ba7 O31 2.967804 1_555
Ba7 O23 3.102412 1_555
Ba7 Cl0 3.536904 1_556
Na0 O10 2.453056 1_554
Na0 O8 2.453056 1_445
Na0 O18 2.603730 1_545
Na0 O16 2.603730 1_454
Na1 O9 2.453056 1_545
Na1 O11 2.453056 1_555
Na1 O19 2.603730 1_545
Na1 O17 2.603730 1_555
B0 O20 1.460473 1_545
B0 O7 1.472748 1_555
B0 O25 1.509638 1_555
B0 O10 1.523589 1_555
B1 O21 1.460473 1_545
B1 O6 1.472748 1_555
B1 O24 1.509638 1_555
B1 O11 1.523589 1_555
B2 O22 1.460473 1_565
B2 O5 1.472748 1_555
B2 O27 1.509638 1_555
B2 O8 1.523589 1_555
B3 O23 1.460473 1_565
B3 O4 1.472748 1_555
B3 O26 1.509638 1_555
B3 O9 1.523589 1_555
B4 O34 1.360629 1_554
B4 O8 1.374797 1_555
B4 O14 1.393409 1_555
B5 O35 1.360629 1_555
B5 O9 1.374797 1_555
B5 O15 1.393409 1_555
B6 O32 1.360629 1_556
B6 O10 1.374797 1_555
B6 O12 1.393409 1_555
B7 O33 1.360629 1_555
B7 O11 1.374797 1_555
B7 O13 1.393409 1_555
B8 O20 1.467964 1_555
B8 O33 1.470979 1_565
B8 O1 1.482126 1_555
B8 O19 1.541031 1_555
B9 O21 1.467964 1_555
B9 O32 1.470979 1_565
B9 O0 1.482126 1_555
B9 O18 1.541031 1_555
B10 O22 1.467964 1_555
B10 O35 1.470979 1_545
B10 O3 1.482126 1_555
B10 O17 1.541031 1_555
B11 O23 1.467964 1_555
B11 O34 1.470979 1_545
B11 O2 1.482126 1_555
B11 O16 1.541031 1_555
B12 O25 1.362972 1_655
B12 O28 1.376229 1_555
B12 O16 1.378538 1_555
B13 O24 1.362972 1_555
B13 O29 1.376229 1_555
B13 O17 1.378538 1_555
B14 O27 1.362972 1_455
B14 O30 1.376229 1_555
B14 O18 1.378538 1_555
B15 O26 1.362972 1_555
B15 O31 1.376229 1_555
B15 O19 1.378538 1_555
B16 O6 1.468780 1_555
B16 O0 1.488137 1_555
B16 O30 1.488931 1_555
B16 O13 1.498395 1_555
B17 O7 1.468780 1_555
B17 O1 1.488137 1_555
B17 O31 1.488931 1_555
B17 O12 1.498395 1_555
B18 O4 1.468780 1_555
B18 O2 1.488137 1_555
B18 O28 1.488931 1_555
B18 O15 1.498395 1_555
B19 O5 1.468780 1_555
B19 O3 1.488137 1_555
B19 O29 1.488931 1_555
B19 O14 1.498395 1_555
F0 Na0 2.290404 1_656
F1 Na1 2.290404 1_555
F2 Na0 2.290404 1_565
F3 Na1 2.290404 1_565
