# generated using pymatgen
data_Eu2CuS3
_symmetry_space_group_name_H-M   'P 1'
_cell_length_a   3.93997100
_cell_length_b   10.65925100
_cell_length_c   12.62328500
_cell_angle_alpha   90.00000000
_cell_angle_beta   90.00000000
_cell_angle_gamma   90.00000000
_symmetry_Int_Tables_number   1
_chemical_formula_structural   Eu2CuS3
_chemical_formula_sum   'Eu8 Cu4 S12'
_cell_volume   530.14186515
_cell_formula_units_Z   4
loop_
 _symmetry_equiv_pos_site_id
 _symmetry_equiv_pos_as_xyz
  1  'x, y, z'
loop_
 _atom_site_type_symbol
 _atom_site_label
 _atom_site_symmetry_multiplicity
 _atom_site_fract_x
 _atom_site_fract_y
 _atom_site_fract_z
 _atom_site_occupancy
  Eu  Eu0  1  0.25000000  0.28322300  0.50133600  1
  Eu  Eu1  1  0.25000000  0.78322300  0.99866400  1
  Eu  Eu2  1  0.75000000  0.71677700  0.49866400  1
  Eu  Eu3  1  0.75000000  0.21677700  0.00133600  1
  Eu  Eu4  1  0.25000000  0.51675100  0.23683500  1
  Eu  Eu5  1  0.25000000  0.01675100  0.26316500  1
  Eu  Eu6  1  0.75000000  0.48324900  0.76316500  1
  Eu  Eu7  1  0.75000000  0.98324900  0.73683500  1
  Cu  Cu0  1  0.25000000  0.73261700  0.72390100  1
  Cu  Cu1  1  0.25000000  0.23261700  0.77609900  1
  Cu  Cu2  1  0.75000000  0.26738300  0.27609900  1
  Cu  Cu3  1  0.75000000  0.76738300  0.22390100  1
  S  S0  1  0.25000000  0.55751200  0.61202000  1
  S  S1  1  0.25000000  0.05751200  0.88798000  1
  S  S2  1  0.75000000  0.44248800  0.38798000  1
  S  S3  1  0.75000000  0.94248800  0.11202000  1
  S  S4  1  0.25000000  0.89036800  0.59914600  1
  S  S5  1  0.25000000  0.39036800  0.90085400  1
  S  S6  1  0.75000000  0.10963200  0.40085400  1
  S  S7  1  0.75000000  0.60963200  0.09914600  1
  S  S8  1  0.25000000  0.76047900  0.32900500  1
  S  S9  1  0.25000000  0.26047900  0.17099500  1
  S  S10  1  0.75000000  0.23952100  0.67099500  1
  S  S11  1  0.75000000  0.73952100  0.82900500  1
loop_
_geom_bond_atom_site_label_1
_geom_bond_atom_site_label_2
_geom_bond_distance
_geom_bond_site_symmetry_2
Eu0 S10 2.946951 1_555
Eu0 S10 2.946951 1_455
Eu0 S2 2.968230 1_555
Eu0 S2 2.968230 1_455
Eu0 S6 2.985550 1_555
Eu0 S6 2.985550 1_455
Eu0 S0 3.240412 1_555
Eu1 S11 2.946951 1_555
Eu1 S11 2.946951 1_455
Eu1 S3 2.968230 1_556
Eu1 S3 2.968230 1_456
Eu1 S7 2.985550 1_456
Eu1 S7 2.985550 1_556
Eu1 S1 3.240412 1_565
Eu2 S8 2.946951 1_555
Eu2 S8 2.946951 1_655
Eu2 S0 2.968230 1_555
Eu2 S0 2.968230 1_655
Eu2 S4 2.985550 1_555
Eu2 S4 2.985550 1_655
Eu2 S2 3.240412 1_555
Eu3 S9 2.946951 1_555
Eu3 S9 2.946951 1_655
Eu3 S1 2.968230 1_654
Eu3 S1 2.968230 1_554
Eu3 S5 2.985550 1_554
Eu3 S5 2.985550 1_654
Eu3 S3 3.240412 1_545
Eu4 S7 2.807485 1_455
Eu4 S7 2.807485 1_555
Eu4 S8 2.846593 1_555
Eu4 S2 2.854420 1_455
Eu4 S2 2.854420 1_555
Eu4 S9 2.855304 1_555
Eu5 S6 2.807485 1_455
Eu5 S6 2.807485 1_555
Eu5 S9 2.846593 1_555
Eu5 S3 2.854420 1_445
Eu5 S3 2.854420 1_545
Eu5 S8 2.855304 1_545
Eu6 S5 2.807485 1_555
Eu6 S5 2.807485 1_655
Eu6 S10 2.846593 1_555
Eu6 S0 2.854420 1_555
Eu6 S0 2.854420 1_655
Eu6 S11 2.855304 1_555
Eu7 S4 2.807485 1_555
Eu7 S4 2.807485 1_655
Eu7 S11 2.846593 1_555
Eu7 S1 2.854420 1_665
Eu7 S1 2.854420 1_565
Eu7 S10 2.855304 1_565
Cu0 S4 2.303805 1_555
Cu0 S0 2.340595 1_555
Cu0 S11 2.376246 1_455
Cu0 S11 2.376246 1_555
Cu1 S5 2.303805 1_555
Cu1 S1 2.340595 1_555
Cu1 S10 2.376246 1_455
Cu1 S10 2.376246 1_555
Cu2 S6 2.303805 1_555
Cu2 S2 2.340595 1_555
Cu2 S9 2.376246 1_655
Cu2 S9 2.376246 1_555
Cu3 S7 2.303805 1_555
Cu3 S3 2.340595 1_555
Cu3 S8 2.376246 1_555
Cu3 S8 2.376246 1_655
