# generated using pymatgen
data_Mn9Al4V3
_symmetry_space_group_name_H-M   'P 1'
_cell_length_a   13.62111717
_cell_length_b   13.62111717
_cell_length_c   13.62111763
_cell_angle_alpha   17.34981738
_cell_angle_beta   17.34981738
_cell_angle_gamma   17.34981949
_symmetry_Int_Tables_number   1
_chemical_formula_structural   Mn9Al4V3
_chemical_formula_sum   'Mn9 Al4 V3'
_cell_volume   196.11185514
_cell_formula_units_Z   1
loop_
 _symmetry_equiv_pos_site_id
 _symmetry_equiv_pos_as_xyz
  1  'x, y, z'
loop_
 _atom_site_type_symbol
 _atom_site_label
 _atom_site_symmetry_multiplicity
 _atom_site_fract_x
 _atom_site_fract_y
 _atom_site_fract_z
 _atom_site_occupancy
  Mn  Mn0  1  0.56247000  0.56247000  0.56247000  1
  Mn  Mn1  1  0.81245100  0.81245100  0.81245100  1
  Mn  Mn2  1  0.06225000  0.06225000  0.06225000  1
  Mn  Mn3  1  0.31271200  0.31271200  0.31271200  1
  Mn  Mn4  1  0.18754900  0.18754900  0.18754900  1
  Mn  Mn5  1  0.43753000  0.43753000  0.43753000  1
  Mn  Mn6  1  0.68728800  0.68728800  0.68728800  1
  Mn  Mn7  1  0.93775000  0.93775000  0.93775000  1
  Mn  Mn8  1  0.00000000  0.00000000  0.00000000  1
  Al  Al0  1  0.87504300  0.87504300  0.87504300  1
  Al  Al1  1  0.12495700  0.12495700  0.12495700  1
  Al  Al2  1  0.37448900  0.37448900  0.37448900  1
  Al  Al3  1  0.62551100  0.62551100  0.62551100  1
  V  V0  1  0.25036800  0.25036800  0.25036800  1
  V  V1  1  0.50000000  0.50000000  0.50000000  1
  V  V2  1  0.74963200  0.74963200  0.74963200  1
loop_
_geom_bond_atom_site_label_1
_geom_bond_atom_site_label_2
_geom_bond_distance
_geom_bond_site_symmetry_2
Mn0 V1 2.513721 1_555
Mn0 V0 2.521414 1_556
Mn0 V0 2.521414 1_565
Mn0 V0 2.521414 1_655
Mn1 V1 2.516690 1_556
Mn1 V1 2.516690 1_565
Mn1 V1 2.516690 1_655
Mn1 V2 2.527764 1_555
Mn2 Mn8 2.504868 1_555
Mn2 V2 2.514455 1_445
Mn2 V2 2.514455 1_544
Mn2 V2 2.514455 1_454
Mn3 V0 2.508651 1_555
Mn3 Mn8 2.513203 1_556
Mn3 Mn8 2.513203 1_565
Mn3 Mn8 2.513203 1_655
Mn4 V1 2.516690 1_554
Mn4 V1 2.516690 1_545
Mn4 V1 2.516690 1_455
Mn4 V0 2.527764 1_555
Mn5 V1 2.513721 1_555
Mn5 V2 2.521414 1_554
Mn5 V2 2.521414 1_455
Mn5 V2 2.521414 1_545
Mn6 V2 2.508651 1_555
Mn6 Mn8 2.513203 1_665
Mn6 Mn8 2.513203 1_656
Mn6 Mn8 2.513203 1_566
Mn7 Mn8 2.504868 1_666
Mn7 V0 2.514455 1_665
Mn7 V0 2.514455 1_566
Mn7 V0 2.514455 1_656
Al0 Mn0 2.515055 1_556
Al0 Mn0 2.515056 1_655
Al0 Mn0 2.515056 1_565
Al0 Mn4 2.515952 1_665
Al0 Mn4 2.515952 1_566
Al0 Mn4 2.515952 1_656
Al0 Mn1 2.518630 1_555
Al0 Mn7 2.523257 1_555
Al1 Mn5 2.515055 1_554
Al1 Mn5 2.515056 1_455
Al1 Mn5 2.515056 1_545
Al1 Mn1 2.515952 1_445
Al1 Mn1 2.515952 1_454
Al1 Mn1 2.515952 1_544
Al1 Mn4 2.518630 1_555
Al1 Mn2 2.523257 1_555
Al2 Mn3 2.485835 1_555
Al2 Mn6 2.512050 1_554
Al2 Mn6 2.512050 1_545
Al2 Mn6 2.512050 1_455
Al2 Mn2 2.519551 1_556
Al2 Mn2 2.519551 1_655
Al2 Mn2 2.519551 1_565
Al2 Mn5 2.536697 1_555
Al2 Mn8 2.893126 1_556
Al2 Mn8 2.893127 1_565
Al2 Mn8 2.893127 1_655
Al3 Mn6 2.485835 1_555
Al3 Mn3 2.512050 1_556
Al3 Mn3 2.512050 1_655
Al3 Mn3 2.512050 1_565
Al3 Mn7 2.519551 1_554
Al3 Mn7 2.519551 1_455
Al3 Mn7 2.519551 1_545
Al3 Mn0 2.536697 1_555
Al3 Mn8 2.893126 1_665
Al3 Mn8 2.893127 1_656
Al3 Mn8 2.893127 1_566
