# generated using pymatgen
data_BaNdZr2O6
_symmetry_space_group_name_H-M   'P 1'
_cell_length_a   8.41902284
_cell_length_b   8.41902284
_cell_length_c   8.41982070
_cell_angle_alpha   90.00000000
_cell_angle_beta   90.00000000
_cell_angle_gamma   90.00000000
_symmetry_Int_Tables_number   1
_chemical_formula_structural   BaNdZr2O6
_chemical_formula_sum   'Ba4 Nd4 Zr8 O24'
_cell_volume   596.79643301
_cell_formula_units_Z   4
loop_
 _symmetry_equiv_pos_site_id
 _symmetry_equiv_pos_as_xyz
  1  'x, y, z'
loop_
 _atom_site_type_symbol
 _atom_site_label
 _atom_site_symmetry_multiplicity
 _atom_site_fract_x
 _atom_site_fract_y
 _atom_site_fract_z
 _atom_site_occupancy
  Ba  Ba0  1  -0.00000000  0.00000000  -0.00000000  1
  Ba  Ba1  1  -0.00000000  0.00000000  0.50000000  1
  Ba  Ba2  1  0.50000000  0.00000000  -0.00000000  1
  Ba  Ba3  1  -0.00000000  0.50000000  -0.00000000  1
  Nd  Nd0  1  0.50000000  0.00000000  0.50000000  1
  Nd  Nd1  1  -0.00000000  0.50000000  0.50000000  1
  Nd  Nd2  1  0.50000000  0.50000000  -0.00000000  1
  Nd  Nd3  1  0.50000000  0.50000000  0.50000000  1
  Zr  Zr0  1  0.25221523  0.25221523  0.25229200  1
  Zr  Zr1  1  0.25221523  0.25221523  0.74770800  1
  Zr  Zr2  1  0.74778477  0.25221523  0.25229200  1
  Zr  Zr3  1  0.74778477  0.25221523  0.74770800  1
  Zr  Zr4  1  0.25221523  0.74778477  0.25229200  1
  Zr  Zr5  1  0.25221523  0.74778477  0.74770800  1
  Zr  Zr6  1  0.74778477  0.74778477  0.25229200  1
  Zr  Zr7  1  0.74778477  0.74778477  0.74770800  1
  O  O0  1  0.26077183  0.26077183  -0.00000000  1
  O  O1  1  0.26011342  0.26011342  0.50000000  1
  O  O2  1  0.73922817  0.26077183  -0.00000000  1
  O  O3  1  0.73988658  0.26011342  0.50000000  1
  O  O4  1  0.26077183  0.73922817  -0.00000000  1
  O  O5  1  0.26011342  0.73988658  0.50000000  1
  O  O6  1  0.73922817  0.73922817  -0.00000000  1
  O  O7  1  0.73988658  0.73988658  0.50000000  1
  O  O8  1  -0.00000000  0.26070482  0.26083998  1
  O  O9  1  -0.00000000  0.26070482  0.73916002  1
  O  O10  1  0.50000000  0.26020735  0.26020631  1
  O  O11  1  0.50000000  0.26020735  0.73979369  1
  O  O12  1  -0.00000000  0.73929518  0.26083998  1
  O  O13  1  -0.00000000  0.73929518  0.73916002  1
  O  O14  1  0.50000000  0.73979265  0.26020631  1
  O  O15  1  0.50000000  0.73979265  0.73979369  1
  O  O16  1  0.26070482  0.00000000  0.26083998  1
  O  O17  1  0.26070482  0.00000000  0.73916002  1
  O  O18  1  0.73929518  0.00000000  0.26083998  1
  O  O19  1  0.73929518  0.00000000  0.73916002  1
  O  O20  1  0.26020735  0.50000000  0.26020631  1
  O  O21  1  0.26020735  0.50000000  0.73979369  1
  O  O22  1  0.73979265  0.50000000  0.26020631  1
  O  O23  1  0.73979265  0.50000000  0.73979369  1
loop_
_geom_bond_atom_site_label_1
_geom_bond_atom_site_label_2
_geom_bond_distance
_geom_bond_site_symmetry_2
Ba0 O2 3.104827 1_455
Ba0 O4 3.104827 1_545
Ba0 O0 3.104827 1_555
Ba0 O6 3.104827 1_445
Ba0 O19 3.104981 1_454
Ba0 O17 3.104981 1_554
Ba0 O12 3.104981 1_545
Ba0 O13 3.104981 1_544
Ba0 O18 3.104981 1_455
Ba0 O9 3.104981 1_554
Ba0 O8 3.104981 1_555
Ba0 O16 3.104981 1_555
Ba1 O12 2.978661 1_545
Ba1 O18 2.978661 1_455
Ba1 O8 2.978661 1_555
Ba1 O19 2.978661 1_455
Ba1 O13 2.978661 1_545
Ba1 O16 2.978661 1_555
Ba1 O9 2.978661 1_555
Ba1 O17 2.978661 1_555
Ba1 O5 3.096987 1_545
Ba1 O3 3.096987 1_455
Ba1 O1 3.096987 1_555
Ba1 O7 3.096987 1_445
Ba2 O2 2.979336 1_555
Ba2 O4 2.979336 1_545
Ba2 O0 2.979336 1_555
Ba2 O6 2.979336 1_545
Ba2 O17 2.980293 1_554
Ba2 O16 2.980293 1_555
Ba2 O19 2.980293 1_554
Ba2 O18 2.980293 1_555
Ba2 O14 3.098246 1_545
Ba2 O15 3.098246 1_544
Ba2 O10 3.098246 1_555
Ba2 O11 3.098246 1_554
Ba3 O4 2.979336 1_555
Ba3 O6 2.979336 1_455
Ba3 O0 2.979336 1_555
Ba3 O2 2.979336 1_455
Ba3 O9 2.980293 1_554
Ba3 O8 2.980293 1_555
Ba3 O13 2.980293 1_554
Ba3 O12 2.980293 1_555
Ba3 O22 3.098246 1_455
Ba3 O23 3.098246 1_454
Ba3 O20 3.098246 1_555
Ba3 O21 3.098246 1_554
Nd0 O16 2.848450 1_555
Nd0 O19 2.848450 1_555
Nd0 O17 2.848450 1_555
Nd0 O18 2.848450 1_555
Nd0 O3 2.979009 1_555
Nd0 O1 2.979009 1_555
Nd0 O7 2.979009 1_545
Nd0 O5 2.979009 1_545
Nd0 O15 2.979190 1_545
Nd0 O11 2.979190 1_555
Nd0 O14 2.979190 1_545
Nd0 O10 2.979190 1_555
Nd1 O8 2.848450 1_555
Nd1 O12 2.848450 1_555
Nd1 O9 2.848450 1_555
Nd1 O13 2.848450 1_555
Nd1 O5 2.979009 1_555
Nd1 O1 2.979009 1_555
Nd1 O3 2.979009 1_455
Nd1 O7 2.979009 1_455
Nd1 O23 2.979190 1_455
Nd1 O21 2.979190 1_555
Nd1 O22 2.979190 1_455
Nd1 O20 2.979190 1_555
Nd2 O6 2.848321 1_555
Nd2 O4 2.848321 1_555
Nd2 O2 2.848321 1_555
Nd2 O0 2.848321 1_555
Nd2 O10 2.979200 1_555
Nd2 O20 2.979200 1_555
Nd2 O22 2.979200 1_555
Nd2 O11 2.979200 1_554
Nd2 O21 2.979200 1_554
Nd2 O14 2.979200 1_555
Nd2 O23 2.979200 1_554
Nd2 O15 2.979200 1_554
Nd3 O23 2.855184 1_555
Nd3 O11 2.855184 1_555
Nd3 O21 2.855184 1_555
Nd3 O15 2.855184 1_555
Nd3 O10 2.855184 1_555
Nd3 O20 2.855184 1_555
Nd3 O22 2.855184 1_555
Nd3 O14 2.855184 1_555
Nd3 O7 2.856161 1_555
Nd3 O5 2.856161 1_555
Nd3 O3 2.856161 1_555
Nd3 O1 2.856161 1_555
O0 Zr1 2.126695 1_554
O0 Zr0 2.126695 1_555
O1 Zr0 2.087776 1_555
O1 Zr1 2.087776 1_555
O2 Zr3 2.126695 1_554
O2 Zr2 2.126695 1_555
O3 Zr2 2.087776 1_555
O3 Zr3 2.087776 1_555
O4 Zr5 2.126695 1_554
O4 Zr4 2.126695 1_555
O5 Zr4 2.087776 1_555
O5 Zr5 2.087776 1_555
O6 Zr7 2.126695 1_554
O6 Zr6 2.126695 1_555
O7 Zr6 2.087776 1_555
O7 Zr7 2.087776 1_555
O8 Zr2 2.125827 1_455
O8 Zr0 2.125827 1_555
O9 Zr3 2.125827 1_455
O9 Zr1 2.125827 1_555
O10 Zr0 2.088254 1_555
O10 Zr2 2.088254 1_555
O11 Zr1 2.088254 1_555
O11 Zr3 2.088254 1_555
O12 Zr6 2.125827 1_455
O12 Zr4 2.125827 1_555
O13 Zr5 2.125827 1_555
O13 Zr7 2.125827 1_455
O14 Zr4 2.088254 1_555
O14 Zr6 2.088254 1_555
O15 Zr7 2.088254 1_555
O15 Zr5 2.088254 1_555
O16 Zr4 2.125827 1_545
O16 Zr0 2.125827 1_555
O17 Zr5 2.125827 1_545
O17 Zr1 2.125827 1_555
O18 Zr2 2.125827 1_555
O18 Zr6 2.125827 1_545
O19 Zr3 2.125827 1_555
O19 Zr7 2.125827 1_545
O20 Zr0 2.088254 1_555
O20 Zr4 2.088254 1_555
O21 Zr1 2.088254 1_555
O21 Zr5 2.088254 1_555
O22 Zr2 2.088254 1_555
O22 Zr6 2.088254 1_555
O23 Zr3 2.088254 1_555
O23 Zr7 2.088254 1_555
