# generated using pymatgen
data_Gd3MnAlS7
_symmetry_space_group_name_H-M   'P 1'
_cell_length_a   9.84185349
_cell_length_b   9.84185349
_cell_length_c   6.10313700
_cell_angle_alpha   90.00000000
_cell_angle_beta   90.00000000
_cell_angle_gamma   119.99999660
_symmetry_Int_Tables_number   1
_chemical_formula_structural   Gd3MnAlS7
_chemical_formula_sum   'Gd6 Mn2 Al2 S14'
_cell_volume   511.96179976
_cell_formula_units_Z   2
loop_
 _symmetry_equiv_pos_site_id
 _symmetry_equiv_pos_as_xyz
  1  'x, y, z'
loop_
 _atom_site_type_symbol
 _atom_site_label
 _atom_site_symmetry_multiplicity
 _atom_site_fract_x
 _atom_site_fract_y
 _atom_site_fract_z
 _atom_site_occupancy
  Gd  Gd0  1  0.76512100  0.14263700  0.23774200  1
  Gd  Gd1  1  0.37751600  0.23487900  0.23774200  1
  Gd  Gd2  1  0.85736300  0.62248400  0.23774200  1
  Gd  Gd3  1  0.23487900  0.85736300  0.73774200  1
  Gd  Gd4  1  0.62248400  0.76512100  0.73774200  1
  Gd  Gd5  1  0.14263700  0.37751600  0.73774200  1
  Mn  Mn0  1  0.00000000  0.00000000  0.03362300  1
  Mn  Mn1  1  0.00000000  0.00000000  0.53362300  1
  Al  Al0  1  0.66666700  0.33333300  0.66138000  1
  Al  Al1  1  0.33333300  0.66666700  0.16138000  1
  S  S0  1  0.85385500  0.09566100  0.80523100  1
  S  S1  1  0.24180600  0.14614500  0.80523100  1
  S  S2  1  0.90433900  0.75819400  0.80523100  1
  S  S3  1  0.14614500  0.90433900  0.30523100  1
  S  S4  1  0.75819400  0.85385500  0.30523100  1
  S  S5  1  0.09566100  0.24180600  0.30523100  1
  S  S6  1  0.90327900  0.42085300  0.50428900  1
  S  S7  1  0.51757400  0.09672100  0.50428900  1
  S  S8  1  0.57914700  0.48242600  0.50428900  1
  S  S9  1  0.09672100  0.57914700  0.00428900  1
  S  S10  1  0.48242600  0.90327900  0.00428900  1
  S  S11  1  0.42085300  0.51757400  0.00428900  1
  S  S12  1  0.66666700  0.33333300  0.02826900  1
  S  S13  1  0.33333300  0.66666700  0.52826900  1
loop_
_geom_bond_atom_site_label_1
_geom_bond_atom_site_label_2
_geom_bond_distance
_geom_bond_site_symmetry_2
Gd0 S7 2.772236 1_555
Gd0 S12 2.813231 1_555
Gd0 S4 2.838725 1_545
Gd0 S6 2.875695 1_555
Gd0 S0 2.889299 1_554
Gd0 S5 2.920617 1_655
Gd0 S10 2.960771 1_545
Gd1 S8 2.772236 1_555
Gd1 S12 2.813239 1_555
Gd1 S5 2.838725 1_555
Gd1 S7 2.875695 1_555
Gd1 S1 2.889299 1_554
Gd1 S3 2.920617 1_545
Gd1 S11 2.960770 1_555
Gd2 S6 2.772236 1_555
Gd2 S12 2.813238 1_555
Gd2 S3 2.838725 1_655
Gd2 S8 2.875695 1_555
Gd2 S2 2.889299 1_554
Gd2 S4 2.920617 1_555
Gd2 S9 2.960770 1_655
Gd3 S10 2.772236 1_556
Gd3 S13 2.813231 1_555
Gd3 S1 2.838725 1_565
Gd3 S9 2.875695 1_556
Gd3 S3 2.889299 1_555
Gd3 S2 2.920617 1_455
Gd3 S7 2.960771 1_565
Gd4 S11 2.772236 1_556
Gd4 S13 2.813239 1_555
Gd4 S2 2.838725 1_555
Gd4 S10 2.875695 1_556
Gd4 S4 2.889299 1_555
Gd4 S0 2.920617 1_565
Gd4 S8 2.960770 1_555
Gd5 S9 2.772236 1_556
Gd5 S13 2.813238 1_555
Gd5 S0 2.838725 1_455
Gd5 S11 2.875695 1_556
Gd5 S5 2.889299 1_555
Gd5 S1 2.920617 1_555
Gd5 S6 2.960770 1_455
Mn0 S0 2.500470 1_454
Mn0 S2 2.500470 1_444
Mn0 S1 2.500470 1_554
Mn0 S3 2.656541 1_545
Mn0 S5 2.656541 1_555
Mn0 S4 2.656541 1_445
Mn1 S3 2.500470 1_545
Mn1 S5 2.500470 1_555
Mn1 S4 2.500470 1_445
Mn1 S0 2.656541 1_455
Mn1 S2 2.656541 1_445
Mn1 S1 2.656541 1_555
Al0 S12 2.239174 1_556
Al0 S6 2.253472 1_555
Al0 S7 2.253473 1_555
Al0 S8 2.253480 1_555
Al1 S13 2.239174 1_555
Al1 S9 2.253472 1_555
Al1 S10 2.253473 1_555
Al1 S11 2.253480 1_555
