# generated using pymatgen
data_Tm4MgGe4
_symmetry_space_group_name_H-M   'P 1'
_cell_length_a   7.14513100
_cell_length_b   7.68420600
_cell_length_c   14.38097600
_cell_angle_alpha   90.00000000
_cell_angle_beta   90.00000000
_cell_angle_gamma   90.00000000
_symmetry_Int_Tables_number   1
_chemical_formula_structural   Tm4MgGe4
_chemical_formula_sum   'Tm16 Mg4 Ge16'
_cell_volume   789.58257619
_cell_formula_units_Z   4
loop_
 _symmetry_equiv_pos_site_id
 _symmetry_equiv_pos_as_xyz
  1  'x, y, z'
loop_
 _atom_site_type_symbol
 _atom_site_label
 _atom_site_symmetry_multiplicity
 _atom_site_fract_x
 _atom_site_fract_y
 _atom_site_fract_z
 _atom_site_occupancy
  Tm  Tm0  1  0.00850900  0.18256600  0.09418500  1
  Tm  Tm1  1  0.99149100  0.81743400  0.90581500  1
  Tm  Tm2  1  0.49149100  0.68256600  0.90581500  1
  Tm  Tm3  1  0.99149100  0.81743400  0.59418500  1
  Tm  Tm4  1  0.50850900  0.31743400  0.09418500  1
  Tm  Tm5  1  0.00850900  0.18256600  0.40581500  1
  Tm  Tm6  1  0.50850900  0.31743400  0.40581500  1
  Tm  Tm7  1  0.49149100  0.68256600  0.59418500  1
  Tm  Tm8  1  0.33142700  0.17679200  0.62650900  1
  Tm  Tm9  1  0.66857300  0.82320800  0.37349100  1
  Tm  Tm10  1  0.16857300  0.67679200  0.37349100  1
  Tm  Tm11  1  0.66857300  0.82320800  0.12650900  1
  Tm  Tm12  1  0.83142700  0.32320800  0.62650900  1
  Tm  Tm13  1  0.33142700  0.17679200  0.87349100  1
  Tm  Tm14  1  0.83142700  0.32320800  0.87349100  1
  Tm  Tm15  1  0.16857300  0.67679200  0.12650900  1
  Mg  Mg0  1  0.16167100  0.51535800  0.75000000  1
  Mg  Mg1  1  0.83832900  0.48464200  0.25000000  1
  Mg  Mg2  1  0.33832900  0.01535800  0.25000000  1
  Mg  Mg3  1  0.66167100  0.98464200  0.75000000  1
  Ge  Ge0  1  0.17294800  0.46564500  0.53636500  1
  Ge  Ge1  1  0.82705200  0.53435500  0.46363500  1
  Ge  Ge2  1  0.32705200  0.96564500  0.46363500  1
  Ge  Ge3  1  0.82705200  0.53435500  0.03636500  1
  Ge  Ge4  1  0.67294800  0.03435500  0.53636500  1
  Ge  Ge5  1  0.17294800  0.46564500  0.96363500  1
  Ge  Ge6  1  0.67294800  0.03435500  0.96363500  1
  Ge  Ge7  1  0.32705200  0.96564500  0.03636500  1
  Ge  Ge8  1  0.02532800  0.09175200  0.75000000  1
  Ge  Ge9  1  0.97467200  0.90824800  0.25000000  1
  Ge  Ge10  1  0.47467200  0.59175200  0.25000000  1
  Ge  Ge11  1  0.52532800  0.40824800  0.75000000  1
  Ge  Ge12  1  0.28963400  0.86075400  0.75000000  1
  Ge  Ge13  1  0.71036600  0.13924600  0.25000000  1
  Ge  Ge14  1  0.21036600  0.36075400  0.25000000  1
  Ge  Ge15  1  0.78963400  0.63924600  0.75000000  1
loop_
_geom_bond_atom_site_label_1
_geom_bond_atom_site_label_2
_geom_bond_distance
_geom_bond_site_symmetry_2
Ge0 Ge1 2.735124 1_455
Ge0 Tm8 2.808811 1_555
Ge0 Tm10 2.849523 1_555
Ge0 Tm7 2.941116 1_555
Ge0 Tm12 2.972061 1_455
Ge0 Mg0 3.096986 1_555
Ge0 Tm5 3.104336 1_555
Ge0 Tm3 3.111238 1_455
Ge0 Tm6 3.251221 1_555
Ge1 Tm9 2.808811 1_555
Ge1 Tm12 2.849523 1_555
Ge1 Tm6 2.941116 1_555
Ge1 Tm10 2.972061 1_655
Ge1 Mg1 3.096986 1_555
Ge1 Tm3 3.104336 1_555
Ge1 Tm5 3.111238 1_655
Ge1 Tm7 3.251221 1_555
Ge2 Ge4 2.735124 1_565
Ge2 Tm10 2.808811 1_555
Ge2 Tm8 2.849523 1_565
Ge2 Tm5 2.941116 1_565
Ge2 Tm9 2.972061 1_555
Ge2 Mg2 3.096986 1_565
Ge2 Tm7 3.104336 1_555
Ge2 Tm6 3.111238 1_565
Ge2 Tm3 3.251221 1_455
Ge3 Ge5 2.735124 1_654
Ge3 Tm11 2.808811 1_555
Ge3 Tm14 2.849523 1_554
Ge3 Tm4 2.941116 1_555
Ge3 Tm15 2.972061 1_655
Ge3 Mg1 3.096986 1_555
Ge3 Tm1 3.104336 1_554
Ge3 Tm0 3.111238 1_655
Ge3 Tm2 3.251221 1_554
Ge4 Tm12 2.808811 1_555
Ge4 Tm9 2.849523 1_545
Ge4 Tm3 2.941116 1_545
Ge4 Tm8 2.972061 1_555
Ge4 Mg3 3.096986 1_545
Ge4 Tm6 3.104336 1_555
Ge4 Tm7 3.111238 1_545
Ge4 Tm5 3.251221 1_655
Ge5 Tm13 2.808811 1_555
Ge5 Tm15 2.849523 1_556
Ge5 Tm2 2.941116 1_555
Ge5 Tm14 2.972061 1_455
Ge5 Mg0 3.096986 1_555
Ge5 Tm0 3.104336 1_556
Ge5 Tm1 3.111238 1_455
Ge5 Tm4 3.251221 1_556
Ge6 Ge7 2.735124 1_546
Ge6 Tm14 2.808811 1_555
Ge6 Tm11 2.849523 1_546
Ge6 Tm1 2.941116 1_545
Ge6 Tm13 2.972061 1_555
Ge6 Mg3 3.096986 1_545
Ge6 Tm4 3.104336 1_556
Ge6 Tm2 3.111238 1_545
Ge6 Tm0 3.251221 1_656
Ge7 Tm15 2.808811 1_555
Ge7 Tm13 2.849523 1_564
Ge7 Tm0 2.941116 1_565
Ge7 Tm11 2.972061 1_555
Ge7 Mg2 3.096986 1_565
Ge7 Tm2 3.104336 1_554
Ge7 Tm4 3.111238 1_565
Ge7 Tm1 3.251221 1_454
Ge8 Mg3 2.725616 1_445
Ge8 Tm14 2.869952 1_455
Ge8 Tm12 2.869952 1_455
Ge8 Tm13 2.892126 1_555
Ge8 Tm8 2.892126 1_555
Ge8 Tm3 3.085907 1_445
Ge8 Tm1 3.085907 1_445
Ge9 Mg2 2.725616 1_665
Ge9 Tm15 2.869952 1_655
Ge9 Tm10 2.869952 1_655
Ge9 Tm9 2.892126 1_555
Ge9 Tm11 2.892126 1_555
Ge9 Tm0 3.085907 1_665
Ge9 Tm5 3.085907 1_665
Ge10 Ge14 2.591754 1_555
Ge10 Mg1 2.725616 1_555
Ge10 Tm11 2.869952 1_555
Ge10 Tm9 2.869952 1_555
Ge10 Tm15 2.892126 1_555
Ge10 Tm10 2.892126 1_555
Ge10 Tm4 3.085907 1_555
Ge10 Tm6 3.085907 1_555
Ge11 Ge15 2.591754 1_555
Ge11 Mg0 2.725616 1_555
Ge11 Tm13 2.869952 1_555
Ge11 Tm8 2.869952 1_555
Ge11 Tm12 2.892126 1_555
Ge11 Tm14 2.892126 1_555
Ge11 Tm2 3.085907 1_555
Ge11 Tm7 3.085907 1_555
Ge12 Ge8 2.591754 1_565
Ge12 Mg0 2.807166 1_555
Ge12 Mg3 2.823575 1_555
Ge12 Tm7 2.996009 1_555
Ge12 Tm2 2.996009 1_555
Ge12 Tm8 3.023357 1_565
Ge12 Tm13 3.023357 1_565
Ge12 Tm1 3.109650 1_455
Ge12 Tm3 3.109650 1_455
Ge13 Ge9 2.591754 1_545
Ge13 Mg1 2.807166 1_555
Ge13 Mg2 2.823575 1_555
Ge13 Tm6 2.996009 1_555
Ge13 Tm4 2.996009 1_555
Ge13 Tm11 3.023357 1_545
Ge13 Tm9 3.023357 1_545
Ge13 Tm5 3.109650 1_655
Ge13 Tm0 3.109650 1_655
Ge14 Mg2 2.807166 1_555
Ge14 Mg1 2.823575 1_455
Ge14 Tm0 2.996009 1_555
Ge14 Tm5 2.996009 1_555
Ge14 Tm15 3.023357 1_555
Ge14 Tm10 3.023357 1_555
Ge14 Tm6 3.109650 1_555
Ge14 Tm4 3.109650 1_555
Ge15 Mg3 2.807166 1_555
Ge15 Mg0 2.823575 1_655
Ge15 Tm3 2.996009 1_555
Ge15 Tm1 2.996009 1_555
Ge15 Tm12 3.023357 1_555
Ge15 Tm14 3.023357 1_555
Ge15 Tm7 3.109650 1_555
Ge15 Tm2 3.109650 1_555
