# generated using pymatgen
data_Li2TiCoO4
_symmetry_space_group_name_H-M   'P 1'
_cell_length_a   2.97364457
_cell_length_b   9.89331749
_cell_length_c   5.16098718
_cell_angle_alpha   80.06222246
_cell_angle_beta   90.00069961
_cell_angle_gamma   90.00080733
_symmetry_Int_Tables_number   1
_chemical_formula_structural   Li2TiCoO4
_chemical_formula_sum   'Li4 Ti2 Co2 O8'
_cell_volume   149.55403742
_cell_formula_units_Z   2
loop_
 _symmetry_equiv_pos_site_id
 _symmetry_equiv_pos_as_xyz
  1  'x, y, z'
loop_
 _atom_site_type_symbol
 _atom_site_label
 _atom_site_symmetry_multiplicity
 _atom_site_fract_x
 _atom_site_fract_y
 _atom_site_fract_z
 _atom_site_occupancy
  Li  Li0  1  0.00000000  0.50000000  0.50000000  1
  Li  Li1  1  0.00000000  0.00000000  0.00000000  1
  Li  Li2  1  0.50000000  0.74999600  0.25001300  1
  Li  Li3  1  0.50000000  0.25000400  0.74998700  1
  Ti  Ti0  1  0.99999600  0.74999600  0.75003000  1
  Ti  Ti1  1  0.00000400  0.25000400  0.24997000  1
  Co  Co0  1  0.50000000  0.00000000  0.50000000  1
  Co  Co1  1  0.50000000  0.50000000  0.00000000  1
  O  O0  1  0.99999900  0.63045100  0.09549900  1
  O  O1  1  0.99999100  0.13045200  0.59539100  1
  O  O2  1  0.00000100  0.36954900  0.90450100  1
  O  O3  1  0.00000900  0.86954800  0.40460900  1
  O  O4  1  0.50000100  0.86155800  0.87009700  1
  O  O5  1  0.50000000  0.36156600  0.37002800  1
  O  O6  1  0.49999900  0.13844200  0.12990300  1
  O  O7  1  0.50000000  0.63843400  0.62997200  1
loop_
_geom_bond_atom_site_label_1
_geom_bond_atom_site_label_2
_geom_bond_distance
_geom_bond_site_symmetry_2
Li0 O7 2.203027 1_555
Li0 O5 2.203027 1_455
Li0 O7 2.203064 1_455
Li0 O5 2.203064 1_555
Li0 O2 2.256958 1_555
Li0 O0 2.256958 1_455
Li1 O4 2.202932 1_444
Li1 O6 2.202932 1_555
Li1 O4 2.202973 1_544
Li1 O6 2.202973 1_455
Li1 O3 2.257423 1_545
Li1 O1 2.257423 1_454
Li2 O4 2.077437 1_554
Li2 O7 2.077626 1_555
Li2 O0 2.137941 1_455
Li2 O0 2.137973 1_555
Li2 O3 2.138198 1_555
Li2 O3 2.138198 1_655
Li3 O6 2.077437 1_556
Li3 O5 2.077626 1_555
Li3 O2 2.137941 1_655
Li3 O2 2.137973 1_555
Li3 O1 2.138198 1_555
Li3 O1 2.138198 1_455
Co0 O1 2.082744 1_555
Co0 O3 2.082744 1_545
Co0 O3 2.082817 1_645
Co0 O1 2.082817 1_455
Co0 O4 2.149726 1_545
Co0 O6 2.149726 1_555
Co1 O0 2.082946 1_555
Co1 O2 2.082946 1_554
Co1 O0 2.082984 1_455
Co1 O2 2.082984 1_654
Co1 O5 2.149410 1_555
Co1 O7 2.149410 1_554
O0 Ti0 1.962113 1_554
O1 Ti1 1.961945 1_655
O2 Ti1 1.962113 1_556
O3 Ti0 1.961945 1_455
O4 Ti0 2.012178 1_455
O4 Ti0 2.012190 1_555
O5 Ti1 2.012139 1_555
O5 Ti1 2.012191 1_655
O6 Ti1 2.012178 1_655
O6 Ti1 2.012190 1_555
O7 Ti0 2.012139 1_555
O7 Ti0 2.012191 1_455
