# generated using pymatgen
data_Mg6CoBi
_symmetry_space_group_name_H-M   'P 1'
_cell_length_a   4.86614800
_cell_length_b   6.38280100
_cell_length_c   10.86451100
_cell_angle_alpha   90.00000000
_cell_angle_beta   90.00000000
_cell_angle_gamma   90.00000000
_symmetry_Int_Tables_number   1
_chemical_formula_structural   Mg6CoBi
_chemical_formula_sum   'Mg12 Co2 Bi2'
_cell_volume   337.44795602
_cell_formula_units_Z   2
loop_
 _symmetry_equiv_pos_site_id
 _symmetry_equiv_pos_as_xyz
  1  'x, y, z'
loop_
 _atom_site_type_symbol
 _atom_site_label
 _atom_site_symmetry_multiplicity
 _atom_site_fract_x
 _atom_site_fract_y
 _atom_site_fract_z
 _atom_site_occupancy
  Mg  Mg0  1  0.50000000  0.24707700  0.58427500  1
  Mg  Mg1  1  0.50000000  0.75292300  0.58427500  1
  Mg  Mg2  1  0.00000000  0.27311600  0.41421100  1
  Mg  Mg3  1  0.00000000  0.72688400  0.41421100  1
  Mg  Mg4  1  0.00000000  0.00000000  0.67513100  1
  Mg  Mg5  1  0.00000000  0.00000000  0.15968900  1
  Mg  Mg6  1  0.50000000  0.74707700  0.08427500  1
  Mg  Mg7  1  0.50000000  0.25292300  0.08427500  1
  Mg  Mg8  1  0.00000000  0.77311600  0.91421100  1
  Mg  Mg9  1  0.00000000  0.22688400  0.91421100  1
  Mg  Mg10  1  0.00000000  0.50000000  0.17513100  1
  Mg  Mg11  1  0.00000000  0.50000000  0.65968900  1
  Co  Co0  1  0.50000000  0.00000000  0.83512300  1
  Co  Co1  1  0.50000000  0.50000000  0.33512300  1
  Bi  Bi0  1  0.50000000  0.00000000  0.33308700  1
  Bi  Bi1  1  0.50000000  0.50000000  0.83308700  1
loop_
_geom_bond_atom_site_label_1
_geom_bond_atom_site_label_2
_geom_bond_distance
_geom_bond_site_symmetry_2
Mg0 Mg11 3.032707 1_655
Mg0 Mg11 3.032707 1_555
Mg0 Mg2 3.059629 1_655
Mg0 Mg2 3.059629 1_555
Mg0 Mg4 3.062890 1_655
Mg0 Mg4 3.062890 1_555
Mg0 Mg1 3.154087 1_545
Mg0 Mg1 3.228714 1_555
Mg1 Mg11 3.032707 1_655
Mg1 Mg11 3.032707 1_555
Mg1 Mg3 3.059629 1_655
Mg1 Mg3 3.059629 1_555
Mg1 Mg4 3.062890 1_565
Mg1 Mg4 3.062890 1_665
Mg5 Mg7 3.032707 1_455
Mg5 Mg6 3.032707 1_545
Mg5 Mg7 3.032707 1_555
Mg5 Mg6 3.032707 1_445
Mg6 Mg8 3.059629 1_554
Mg6 Mg8 3.059629 1_654
Mg6 Mg7 3.154087 1_555
Mg6 Mg7 3.228714 1_565
Mg7 Mg9 3.059629 1_654
Mg7 Mg9 3.059629 1_554
Mg10 Mg6 3.062890 1_455
Mg10 Mg6 3.062890 1_555
Mg10 Mg7 3.062890 1_455
Mg10 Mg7 3.062890 1_555
Co0 Mg9 2.958939 1_655
Co0 Mg9 2.958939 1_555
Co0 Mg8 2.958939 1_645
Co0 Mg8 2.958939 1_545
Co0 Mg4 2.990202 1_555
Co0 Mg4 2.990202 1_655
Co0 Mg1 3.148738 1_545
Co0 Mg0 3.148738 1_555
Co0 Mg7 3.151751 1_556
Co0 Mg6 3.151751 1_546
Co1 Mg3 2.958939 1_555
Co1 Mg3 2.958939 1_655
Co1 Mg2 2.958939 1_655
Co1 Mg2 2.958939 1_555
Co1 Mg10 2.990202 1_555
Co1 Mg10 2.990202 1_655
Co1 Mg7 3.148738 1_555
Co1 Mg6 3.148738 1_555
Co1 Mg1 3.151751 1_555
Co1 Mg0 3.151751 1_555
Bi0 Mg5 3.077153 1_655
Bi0 Mg5 3.077153 1_555
Bi0 Mg2 3.120188 1_555
Bi0 Mg2 3.120188 1_655
Bi0 Mg3 3.120188 1_645
Bi0 Mg3 3.120188 1_545
Bi0 Mg6 3.148579 1_545
Bi0 Mg7 3.148579 1_555
Bi0 Mg0 3.151935 1_555
Bi0 Mg1 3.151935 1_545
Bi0 Co1 3.191477 1_555
Bi0 Co1 3.191477 1_545
Bi1 Mg11 3.077153 1_555
Bi1 Mg11 3.077153 1_655
Bi1 Mg8 3.120188 1_655
Bi1 Mg8 3.120188 1_555
Bi1 Mg9 3.120188 1_655
Bi1 Mg9 3.120188 1_555
Bi1 Mg0 3.148579 1_555
Bi1 Mg1 3.148579 1_555
Bi1 Mg7 3.151935 1_556
Bi1 Mg6 3.151935 1_556
Bi1 Co0 3.191477 1_565
Bi1 Co0 3.191477 1_555
