# generated using pymatgen
data_Li7Mn5O12
_symmetry_space_group_name_H-M   'P 1'
_cell_length_a   2.87124600
_cell_length_b   5.34715656
_cell_length_c   14.60335776
_cell_angle_alpha   87.44967198
_cell_angle_beta   90.00000000
_cell_angle_gamma   90.00000000
_symmetry_Int_Tables_number   1
_chemical_formula_structural   Li7Mn5O12
_chemical_formula_sum   'Li7 Mn5 O12'
_cell_volume   223.98330838
_cell_formula_units_Z   1
loop_
 _symmetry_equiv_pos_site_id
 _symmetry_equiv_pos_as_xyz
  1  'x, y, z'
loop_
 _atom_site_type_symbol
 _atom_site_label
 _atom_site_symmetry_multiplicity
 _atom_site_fract_x
 _atom_site_fract_y
 _atom_site_fract_z
 _atom_site_occupancy
  Li  Li0  1  0.50000000  0.17762900  0.17553300  1
  Li  Li1  1  0.50000000  0.48903800  0.49113400  1
  Li  Li2  1  0.50000000  0.83333300  0.83333300  1
  Li  Li3  1  0.00000000  0.67636600  0.17784700  1
  Li  Li4  1  0.00000000  0.99030100  0.48882000  1
  Li  Li5  1  0.00000000  0.33333300  0.83333300  1
  Li  Li6  1  0.50000000  0.83333300  0.33333300  1
  Mn  Mn0  1  0.00000000  0.00257700  0.00254100  1
  Mn  Mn1  1  0.00000000  0.33333300  0.33333300  1
  Mn  Mn2  1  0.00000000  0.66409000  0.66412600  1
  Mn  Mn3  1  0.50000000  0.50325600  0.00061900  1
  Mn  Mn4  1  0.50000000  0.16341100  0.66604800  1
  O  O0  1  0.50000000  0.85383500  0.07820000  1
  O  O1  1  0.50000000  0.18221000  0.40886300  1
  O  O2  1  0.50000000  0.52240100  0.74365700  1
  O  O3  1  0.00000000  0.35571700  0.07544600  1
  O  O4  1  0.00000000  0.62215500  0.40748200  1
  O  O5  1  0.00000000  0.01948300  0.74441600  1
  O  O6  1  0.50000000  0.48445700  0.25780400  1
  O  O7  1  0.50000000  0.81283200  0.58846700  1
  O  O8  1  0.50000000  0.14426500  0.92300900  1
  O  O9  1  0.00000000  0.04451200  0.25918500  1
  O  O10  1  0.00000000  0.31095000  0.59122100  1
  O  O11  1  0.00000000  0.64718300  0.92225000  1
loop_
_geom_bond_atom_site_label_1
_geom_bond_atom_site_label_2
_geom_bond_distance
_geom_bond_site_symmetry_2
Li0 O9 1.995643 1_555
Li0 O9 1.995643 1_655
Li0 O6 2.076202 1_555
Li0 O3 2.231647 1_555
Li0 O3 2.231647 1_655
Li0 O0 2.288454 1_545
Li1 O4 1.995643 1_555
Li1 O4 1.995643 1_655
Li1 O1 2.076202 1_555
Li1 O10 2.231647 1_555
Li1 O10 2.231647 1_655
Li1 O7 2.288454 1_555
Li2 O5 2.150076 1_565
Li2 O5 2.150076 1_665
Li2 O11 2.150076 1_655
Li2 O11 2.150076 1_555
Li2 O2 2.161709 1_555
Li2 O8 2.161709 1_565
Li3 O6 2.090642 1_555
Li3 O6 2.090642 1_455
Li3 O0 2.226250 1_455
Li3 O0 2.226250 1_555
Li3 O3 2.324674 1_555
Li3 O9 2.343951 1_565
Li4 O1 2.090642 1_465
Li4 O1 2.090642 1_565
Li4 O7 2.226250 1_455
Li4 O7 2.226250 1_555
Li4 O10 2.324674 1_565
Li4 O4 2.343951 1_555
Li5 O2 2.163386 1_455
Li5 O8 2.163386 1_555
Li5 O2 2.163386 1_555
Li5 O8 2.163386 1_455
Li5 O5 2.167111 1_555
Li5 O11 2.167111 1_555
Li6 O9 2.097566 1_565
Li6 O9 2.097566 1_665
Li6 O4 2.097571 1_555
Li6 O4 2.097571 1_655
Li6 O6 2.209014 1_555
Li6 O1 2.209026 1_565
Mn0 O0 1.958605 1_445
Mn0 O0 1.958605 1_545
Mn0 O8 1.976268 1_454
Mn0 O8 1.976268 1_554
Mn0 O3 2.208634 1_555
Mn0 O11 2.276931 1_544
Mn1 O9 1.925196 1_555
Mn1 O4 1.925209 1_555
Mn1 O6 1.962460 1_455
Mn1 O6 1.962460 1_555
Mn1 O1 1.962466 1_455
Mn1 O1 1.962466 1_555
Mn2 O7 1.958605 1_555
Mn2 O7 1.958605 1_455
Mn2 O2 1.976261 1_555
Mn2 O2 1.976261 1_455
Mn2 O10 2.208634 1_555
Mn2 O5 2.276918 1_565
Mn3 O3 1.949546 1_655
Mn3 O3 1.949546 1_555
Mn3 O11 1.970960 1_654
Mn3 O11 1.970960 1_554
Mn3 O0 2.233091 1_555
Mn3 O8 2.272207 1_554
Mn4 O10 1.949546 1_655
Mn4 O10 1.949546 1_555
Mn4 O5 1.970953 1_655
Mn4 O5 1.970953 1_555
Mn4 O7 2.233091 1_545
Mn4 O2 2.272195 1_555
