# generated using pymatgen
data_Mg(CuO2)2
_symmetry_space_group_name_H-M   'P 1'
_cell_length_a   2.91695339
_cell_length_b   8.73283679
_cell_length_c   10.29312545
_cell_angle_alpha   90.00637512
_cell_angle_beta   89.96673217
_cell_angle_gamma   89.95146070
_symmetry_Int_Tables_number   1
_chemical_formula_structural   Mg(CuO2)2
_chemical_formula_sum   'Mg4 Cu8 O16'
_cell_volume   262.19950463
_cell_formula_units_Z   4
loop_
 _symmetry_equiv_pos_site_id
 _symmetry_equiv_pos_as_xyz
  1  'x, y, z'
loop_
 _atom_site_type_symbol
 _atom_site_label
 _atom_site_symmetry_multiplicity
 _atom_site_fract_x
 _atom_site_fract_y
 _atom_site_fract_z
 _atom_site_occupancy
  Mg  Mg0  1  0.74976700  0.23977500  0.33832500  1
  Mg  Mg1  1  0.25009500  0.75987100  0.66092700  1
  Mg  Mg2  1  0.74384200  0.74190700  0.15907100  1
  Mg  Mg3  1  0.25465300  0.25852500  0.83611200  1
  Cu  Cu0  1  0.24757200  0.41326300  0.10061400  1
  Cu  Cu1  1  0.75444600  0.08672800  0.59983500  1
  Cu  Cu2  1  0.25509300  0.91349400  0.39810300  1
  Cu  Cu3  1  0.74764100  0.58656800  0.89831000  1
  Cu  Cu4  1  0.74936300  0.55981700  0.38395900  1
  Cu  Cu5  1  0.24718900  0.44157700  0.61468200  1
  Cu  Cu6  1  0.75547200  0.06056900  0.11403100  1
  Cu  Cu7  1  0.25687900  0.94037600  0.88359300  1
  O  O0  1  0.25491300  0.90364900  0.07233700  1
  O  O1  1  0.75698600  0.09853600  0.92575600  1
  O  O2  1  0.24745800  0.40326300  0.42628000  1
  O  O3  1  0.74218000  0.59851900  0.57325400  1
  O  O4  1  0.25398200  0.02962900  0.71528000  1
  O  O5  1  0.75600500  0.97500800  0.28309900  1
  O  O6  1  0.24995100  0.52592900  0.78412200  1
  O  O7  1  0.74837500  0.47195900  0.21648000  1
  O  O8  1  0.24423500  0.62412300  0.03568200  1
  O  O9  1  0.74412100  0.37701800  0.96421300  1
  O  O10  1  0.25380700  0.12333600  0.46390000  1
  O  O11  1  0.75584800  0.87631600  0.53573600  1
  O  O12  1  0.75753600  0.78919000  0.82137400  1
  O  O13  1  0.25383100  0.20970900  0.17602700  1
  O  O14  1  0.24928900  0.71018600  0.32133300  1
  O  O15  1  0.74986900  0.29082300  0.67458600  1
loop_
_geom_bond_atom_site_label_1
_geom_bond_atom_site_label_2
_geom_bond_distance
_geom_bond_site_symmetry_2
Mg0 O10 2.190482 1_555
Mg0 O10 2.205972 1_655
Mg0 O13 2.226153 1_555
Mg0 O2 2.229416 1_655
Mg0 O2 2.235949 1_555
Mg0 O13 2.240080 1_655
Mg0 O5 2.381009 1_545
Mg0 O7 2.384275 1_555
Mg1 O11 2.184727 1_455
Mg1 O12 2.203146 1_455
Mg1 O3 2.203397 1_555
Mg1 O11 2.207169 1_555
Mg1 O12 2.233234 1_555
Mg1 O3 2.235994 1_455
Mg1 O6 2.404644 1_555
Mg1 O4 2.421251 1_565
Mg2 O8 2.190104 1_655
Mg2 O8 2.190720 1_555
Mg2 O0 2.196459 1_555
Mg2 O14 2.223801 1_555
Mg2 O0 2.239819 1_655
Mg2 O14 2.245500 1_655
Mg2 O5 2.403010 1_555
Mg2 O7 2.430435 1_555
Mg3 O9 2.202780 1_555
Mg3 O1 2.216523 1_455
Mg3 O15 2.220015 1_555
Mg3 O1 2.224611 1_555
Mg3 O15 2.239222 1_455
Mg3 O9 2.240956 1_455
Mg3 O4 2.354144 1_555
Mg3 O6 2.395816 1_555
Cu0 O13 1.939850 1_555
Cu0 O7 1.949872 1_455
Cu0 O7 1.955055 1_555
Cu0 O8 1.959035 1_555
Cu0 O9 2.041087 1_554
Cu0 O9 2.056960 1_454
Cu1 O15 1.941269 1_555
Cu1 O4 1.945454 1_655
Cu1 O4 1.947081 1_555
Cu1 O11 1.952286 1_545
Cu1 O10 2.044552 1_655
Cu1 O10 2.047982 1_555
Cu2 O14 1.943375 1_555
Cu2 O5 1.951937 1_455
Cu2 O10 1.953590 1_565
Cu2 O5 1.955562 1_555
Cu2 O11 2.057090 1_455
Cu2 O11 2.060985 1_555
Cu3 O12 1.938901 1_555
Cu3 O6 1.942309 1_555
Cu3 O6 1.950712 1_655
Cu3 O9 1.951752 1_555
Cu3 O8 2.051407 1_656
Cu3 O8 2.063934 1_556
Cu4 O7 1.886840 1_555
Cu4 O3 1.977592 1_555
Cu4 O2 2.041413 1_655
Cu4 O2 2.050626 1_555
Cu4 O14 2.065359 1_555
Cu4 O14 2.066097 1_655
Cu5 O6 1.893199 1_555
Cu5 O2 1.967861 1_555
Cu5 O3 2.036604 1_555
Cu5 O15 2.054309 1_455
Cu5 O3 2.056129 1_455
Cu5 O15 2.064309 1_555
Cu6 O5 1.893942 1_545
Cu6 O1 1.966136 1_554
Cu6 O0 2.044558 1_645
Cu6 O0 2.048892 1_545
Cu6 O13 2.054462 1_655
Cu6 O13 2.059160 1_555
Cu7 O4 1.899824 1_565
Cu7 O0 1.969103 1_556
Cu7 O1 2.053773 1_465
Cu7 O1 2.056234 1_565
Cu7 O12 2.068578 1_455
Cu7 O12 2.069179 1_555
