# generated using pymatgen
data_Sr3Ca5Mn4(FeO5)4
_symmetry_space_group_name_H-M   'P 1'
_cell_length_a   10.99544809
_cell_length_b   11.15952401
_cell_length_c   17.50603734
_cell_angle_alpha   108.58865530
_cell_angle_beta   108.31545180
_cell_angle_gamma   90.00312899
_symmetry_Int_Tables_number   1
_chemical_formula_structural   Sr3Ca5Mn4(FeO5)4
_chemical_formula_sum   'Sr12 Ca20 Mn16 Fe16 O80'
_cell_volume   1920.82901584
_cell_formula_units_Z   4
loop_
 _symmetry_equiv_pos_site_id
 _symmetry_equiv_pos_as_xyz
  1  'x, y, z'
loop_
 _atom_site_type_symbol
 _atom_site_label
 _atom_site_symmetry_multiplicity
 _atom_site_fract_x
 _atom_site_fract_y
 _atom_site_fract_z
 _atom_site_occupancy
  Sr  Sr0  1  0.30934100  0.56030500  0.61081500  1
  Sr  Sr1  1  0.80630500  0.05756700  0.60860500  1
  Sr  Sr2  1  0.80849900  0.55996500  0.61083100  1
  Sr  Sr3  1  0.19661100  0.43875400  0.38661900  1
  Sr  Sr4  1  0.19912100  0.44264000  0.89264400  1
  Sr  Sr5  1  0.69481700  0.93659300  0.38574500  1
  Sr  Sr6  1  0.05892600  0.29934200  0.60956200  1
  Sr  Sr7  1  0.05916000  0.80254500  0.61085500  1
  Sr  Sr8  1  0.55883300  0.30049500  0.61118100  1
  Sr  Sr9  1  0.44882700  0.19973900  0.89048800  1
  Sr  Sr10  1  0.94617400  0.19795700  0.38609400  1
  Sr  Sr11  1  0.94860500  0.20008400  0.89147500  1
  Ca  Ca0  1  0.30689200  0.06327600  0.10758100  1
  Ca  Ca1  1  0.30630300  0.05939900  0.60433600  1
  Ca  Ca2  1  0.30662300  0.56513300  0.10918200  1
  Ca  Ca3  1  0.80501100  0.06242800  0.10538900  1
  Ca  Ca4  1  0.80692900  0.56343700  0.10789400  1
  Ca  Ca5  1  0.20071900  0.93581300  0.39131300  1
  Ca  Ca6  1  0.20151200  0.93908600  0.89675800  1
  Ca  Ca7  1  0.69898100  0.43776600  0.39153500  1
  Ca  Ca8  1  0.70083200  0.43957300  0.89603200  1
  Ca  Ca9  1  0.70011200  0.93780600  0.89437300  1
  Ca  Ca10  1  0.05535600  0.29355500  0.10702600  1
  Ca  Ca11  1  0.05554200  0.79415400  0.10690200  1
  Ca  Ca12  1  0.55570200  0.29359100  0.10764100  1
  Ca  Ca13  1  0.55627600  0.79346700  0.10597900  1
  Ca  Ca14  1  0.55650100  0.79607900  0.60616000  1
  Ca  Ca15  1  0.44966100  0.20560700  0.39167900  1
  Ca  Ca16  1  0.44813600  0.70486400  0.39160400  1
  Ca  Ca17  1  0.45114700  0.70693200  0.89561600  1
  Ca  Ca18  1  0.94886300  0.70419000  0.39170100  1
  Ca  Ca19  1  0.95040700  0.70793400  0.89674600  1
  Mn  Mn0  1  0.11062200  0.09227800  0.24655200  1
  Mn  Mn1  1  0.11636900  0.09475800  0.75291900  1
  Mn  Mn2  1  0.10928500  0.60047400  0.24761700  1
  Mn  Mn3  1  0.11428200  0.60397300  0.75345700  1
  Mn  Mn4  1  0.60557400  0.09758500  0.24680100  1
  Mn  Mn5  1  0.60788700  0.09496800  0.74969100  1
  Mn  Mn6  1  0.60743400  0.59409600  0.24814800  1
  Mn  Mn7  1  0.61393700  0.60581600  0.75435200  1
  Mn  Mn8  1  0.36085400  0.40161800  0.24730100  1
  Mn  Mn9  1  0.36747400  0.40326100  0.75271600  1
  Mn  Mn10  1  0.35619000  0.90113300  0.24903300  1
  Mn  Mn11  1  0.36543000  0.90071200  0.75150600  1
  Mn  Mn12  1  0.85545000  0.40572300  0.24796100  1
  Mn  Mn13  1  0.86038700  0.40914800  0.75512200  1
  Mn  Mn14  1  0.86109700  0.89709200  0.24515200  1
  Mn  Mn15  1  0.85847400  0.89840500  0.75139100  1
  Fe  Fe0  1  0.00625300  0.00034200  0.00240200  1
  Fe  Fe1  1  0.00401400  0.99784900  0.49723000  1
  Fe  Fe2  1  0.00546100  0.50195400  0.00304800  1
  Fe  Fe3  1  0.00176400  0.49945900  0.49681300  1
  Fe  Fe4  1  0.50639200  0.00065800  0.00215700  1
  Fe  Fe5  1  0.50198000  0.99821700  0.49776500  1
  Fe  Fe6  1  0.50691000  0.50169900  0.00301900  1
  Fe  Fe7  1  0.50255200  0.49913100  0.49646600  1
  Fe  Fe8  1  0.25676800  0.25175500  0.00372100  1
  Fe  Fe9  1  0.25330100  0.24724900  0.49677800  1
  Fe  Fe10  1  0.25682000  0.75259200  0.00319000  1
  Fe  Fe11  1  0.25416600  0.75029400  0.49860000  1
  Fe  Fe12  1  0.75555100  0.25161100  0.00297100  1
  Fe  Fe13  1  0.75146800  0.24926800  0.49685100  1
  Fe  Fe14  1  0.75587000  0.75009600  0.00103500  1
  Fe  Fe15  1  0.75153900  0.74656000  0.49613600  1
  O  O0  1  0.12675200  0.11805000  0.49083600  1
  O  O1  1  0.12729300  0.12040900  0.99342800  1
  O  O2  1  0.12094700  0.62451900  0.48989100  1
  O  O3  1  0.12352900  0.62620000  0.99334200  1
  O  O4  1  0.61973900  0.12238400  0.48877800  1
  O  O5  1  0.62735900  0.12030300  0.99279100  1
  O  O6  1  0.62159000  0.61868400  0.48688600  1
  O  O7  1  0.62447500  0.62053900  0.98919300  1
  O  O8  1  0.13644500  0.38190800  0.01651800  1
  O  O9  1  0.13061900  0.37645300  0.50471000  1
  O  O10  1  0.13588000  0.88031800  0.01237000  1
  O  O11  1  0.13402600  0.87907200  0.50450800  1
  O  O12  1  0.63673300  0.38156100  0.01458800  1
  O  O13  1  0.62958400  0.37688600  0.50320500  1
  O  O14  1  0.63523900  0.87902000  0.01258600  1
  O  O15  1  0.62703200  0.87232200  0.50524200  1
  O  O16  1  0.37114400  0.11580000  0.48784300  1
  O  O17  1  0.37317300  0.11700300  0.99161900  1
  O  O18  1  0.37757700  0.62376200  0.49081400  1
  O  O19  1  0.37858700  0.62408400  0.99388900  1
  O  O20  1  0.87435700  0.12018200  0.49309300  1
  O  O21  1  0.87276800  0.11738200  0.99224600  1
  O  O22  1  0.87127000  0.61759600  0.48771100  1
  O  O23  1  0.87275400  0.61788200  0.98863500  1
  O  O24  1  0.38629700  0.38478000  0.01533100  1
  O  O25  1  0.38149900  0.37702000  0.50429100  1
  O  O26  1  0.38589400  0.88306700  0.01259600  1
  O  O27  1  0.38282300  0.88147100  0.50990400  1
  O  O28  1  0.88421600  0.38374100  0.01396000  1
  O  O29  1  0.87794400  0.37867300  0.50299100  1
  O  O30  1  0.88665200  0.88191700  0.01312700  1
  O  O31  1  0.88128600  0.87504700  0.50267700  1
  O  O32  1  0.08376100  0.09401400  0.13517400  1
  O  O33  1  0.08176200  0.07912600  0.63604400  1
  O  O34  1  0.07651300  0.59857100  0.13484000  1
  O  O35  1  0.07093500  0.58468300  0.63546400  1
  O  O36  1  0.57723400  0.09584900  0.13454200  1
  O  O37  1  0.57742700  0.08406400  0.63470900  1
  O  O38  1  0.58148100  0.59615000  0.13634800  1
  O  O39  1  0.57456000  0.58956700  0.63630100  1
  O  O40  1  0.43883900  0.40780400  0.36245200  1
  O  O41  1  0.44526000  0.41226200  0.86753900  1
  O  O42  1  0.43656300  0.90530600  0.36338100  1
  O  O43  1  0.45140000  0.90952300  0.86624800  1
  O  O44  1  0.93799100  0.41496200  0.36234800  1
  O  O45  1  0.94278100  0.41181900  0.86764500  1
  O  O46  1  0.94148500  0.91038700  0.36211500  1
  O  O47  1  0.94357000  0.90749000  0.86639800  1
  O  O48  1  0.33465900  0.28913700  0.13551600  1
  O  O49  1  0.32816500  0.29607200  0.63573000  1
  O  O50  1  0.33024000  0.79249100  0.13620200  1
  O  O51  1  0.32540400  0.79832400  0.63526300  1
  O  O52  1  0.82986700  0.29163200  0.13622200  1
  O  O53  1  0.82287000  0.30742100  0.63766100  1
  O  O54  1  0.83054300  0.78596800  0.13297600  1
  O  O55  1  0.82050300  0.80023600  0.63403900  1
  O  O56  1  0.19012200  0.19665600  0.36197700  1
  O  O57  1  0.19055700  0.20507900  0.86713600  1
  O  O58  1  0.19470800  0.70381000  0.36383200  1
  O  O59  1  0.19935200  0.71055900  0.86774000  1
  O  O60  1  0.68765000  0.20176900  0.36257100  1
  O  O61  1  0.68728800  0.20748500  0.86455600  1
  O  O62  1  0.69161900  0.69813000  0.36226800  1
  O  O63  1  0.69844900  0.71455100  0.86735300  1
  O  O64  1  0.42802800  0.06965300  0.24932900  1
  O  O65  1  0.42839800  0.06616000  0.74336800  1
  O  O66  1  0.42955400  0.57357300  0.24898000  1
  O  O67  1  0.44104100  0.57516100  0.75860200  1
  O  O68  1  0.93134200  0.06146500  0.23988200  1
  O  O69  1  0.93930000  0.05847700  0.75029200  1
  O  O70  1  0.92928700  0.57236600  0.24900800  1
  O  O71  1  0.94048300  0.57513100  0.76022200  1
  O  O72  1  0.18013400  0.43121200  0.24067800  1
  O  O73  1  0.19227600  0.44123000  0.75150000  1
  O  O74  1  0.17778200  0.92246200  0.24770400  1
  O  O75  1  0.19325000  0.93245100  0.75997000  1
  O  O76  1  0.67567300  0.42458700  0.24785300  1
  O  O77  1  0.68647100  0.43862100  0.75926200  1
  O  O78  1  0.68157500  0.93153900  0.24089800  1
  O  O79  1  0.68008500  0.92713100  0.75200400  1
loop_
_geom_bond_atom_site_label_1
_geom_bond_atom_site_label_2
_geom_bond_distance
_geom_bond_site_symmetry_2
Ca0 O64 2.397258 1_555
Ca0 O48 2.409467 1_555
Ca0 O26 2.517914 1_545
Ca0 O10 2.518466 1_545
Ca0 O1 2.575245 1_554
Ca0 O17 2.591801 1_554
Ca0 O32 2.647562 1_555
Ca0 O36 2.863490 1_555
Ca1 O65 2.358208 1_555
Ca1 O27 2.482937 1_545
Ca1 O49 2.515357 1_555
Ca1 O11 2.523652 1_545
Ca1 O0 2.576392 1_555
Ca1 O16 2.606803 1_555
Ca1 O33 2.689920 1_555
Ca1 O37 2.855869 1_555
Ca2 O66 2.366265 1_555
Ca2 O50 2.426147 1_555
Ca2 O8 2.508147 1_555
Ca2 O24 2.512804 1_555
Ca2 O3 2.635356 1_554
Ca2 O19 2.642488 1_554
Ca2 O34 2.711131 1_555
Ca2 O38 2.910535 1_555
Ca3 O68 2.331020 1_555
Ca3 O52 2.436273 1_555
Ca3 O14 2.507345 1_545
Ca3 O30 2.511879 1_545
Ca3 O5 2.551472 1_554
Ca3 O21 2.560479 1_554
Ca3 O36 2.711866 1_555
Ca3 O32 2.944234 1_655
Ca4 O54 2.379136 1_555
Ca4 O70 2.382603 1_555
Ca4 O28 2.494733 1_555
Ca4 O12 2.500880 1_555
Ca4 O7 2.640655 1_554
Ca4 O23 2.647655 1_554
Ca4 O38 2.680777 1_555
Ca4 O34 2.857597 1_655
Ca5 O74 2.401837 1_555
Ca5 O58 2.474846 1_555
Ca5 O16 2.499379 1_565
Ca5 O0 2.542551 1_565
Ca5 O11 2.564884 1_555
Ca5 O27 2.622445 1_555
Ca5 O46 2.730985 1_455
Ca5 O42 2.787590 1_555
Ca6 O75 2.344815 1_555
Ca6 O59 2.434929 1_555
Ca6 O17 2.487963 1_565
Ca6 O1 2.511839 1_565
Ca6 O10 2.609832 1_556
Ca6 O26 2.614902 1_556
Ca6 O47 2.717313 1_455
Ca6 O43 2.958663 1_555
Ca7 O76 2.402720 1_555
Ca7 O22 2.508309 1_555
Ca7 O60 2.513454 1_555
Ca7 O6 2.516136 1_555
Ca7 O29 2.553705 1_555
Ca7 O13 2.578694 1_555
Ca7 O40 2.743876 1_555
Ca7 O44 2.827267 1_555
Ca8 O77 2.346037 1_555
Ca8 O61 2.464220 1_555
Ca8 O23 2.485548 1_555
Ca8 O7 2.490782 1_555
Ca8 O28 2.630573 1_556
Ca8 O12 2.645606 1_556
Ca8 O41 2.694539 1_555
Ca8 O45 2.855370 1_555
Ca9 O63 2.382116 1_555
Ca9 O79 2.395851 1_555
Ca9 O21 2.514326 1_565
Ca9 O5 2.526926 1_565
Ca9 O43 2.622062 1_555
Ca9 O14 2.648584 1_556
Ca9 O30 2.657949 1_556
Ca9 O47 2.870306 1_555
Ca10 O72 2.325353 1_555
Ca10 O32 2.429367 1_555
Ca10 O8 2.482201 1_555
Ca10 O28 2.515357 1_455
Ca10 O1 2.617802 1_554
Ca10 O21 2.622766 1_454
Ca10 O52 2.685574 1_455
Ca10 O48 2.955611 1_555
Ca11 O74 2.366407 1_555
Ca11 O34 2.380318 1_555
Ca11 O30 2.492374 1_455
Ca11 O10 2.525209 1_555
Ca11 O3 2.565641 1_554
Ca11 O23 2.642587 1_454
Ca11 O54 2.659602 1_455
Ca11 O50 2.901515 1_555
Ca12 O76 2.362018 1_555
Ca12 O36 2.395809 1_555
Ca12 O24 2.504668 1_555
Ca12 O12 2.518496 1_555
Ca12 O48 2.628426 1_555
Ca12 O5 2.630547 1_554
Ca12 O17 2.631068 1_554
Ca12 O52 2.897835 1_555
Ca13 O78 2.342056 1_555
Ca13 O38 2.421136 1_555
Ca13 O14 2.495115 1_555
Ca13 O26 2.509872 1_555
Ca13 O19 2.542830 1_554
Ca13 O7 2.629561 1_554
Ca13 O50 2.699486 1_555
Ca13 O54 2.907614 1_555
Ca14 O79 2.437760 1_555
Ca14 O15 2.503166 1_555
Ca14 O39 2.517612 1_555
Ca14 O27 2.528999 1_555
Ca14 O18 2.583205 1_555
Ca14 O6 2.663653 1_555
Ca14 O51 2.742712 1_555
Ca14 O55 2.786011 1_555
Ca15 O64 2.405287 1_555
Ca15 O40 2.462761 1_555
Ca15 O4 2.501585 1_555
Ca15 O13 2.563570 1_555
Ca15 O16 2.563735 1_555
Ca15 O25 2.575224 1_555
Ca15 O56 2.731022 1_555
Ca15 O60 2.816605 1_555
Ca16 O66 2.401964 1_555
Ca16 O42 2.434922 1_555
Ca16 O18 2.507260 1_555
Ca16 O6 2.523517 1_555
Ca16 O15 2.547366 1_555
Ca16 O27 2.649829 1_555
Ca16 O58 2.673253 1_555
Ca16 O62 2.876864 1_555
Ca17 O67 2.347692 1_555
Ca17 O43 2.473370 1_555
Ca17 O7 2.508015 1_555
Ca17 O19 2.515474 1_555
Ca17 O14 2.620258 1_556
Ca17 O26 2.632369 1_556
Ca17 O59 2.658643 1_555
Ca17 O63 2.918634 1_555
Ca18 O70 2.401999 1_555
Ca18 O2 2.501147 1_655
Ca18 O46 2.510607 1_555
Ca18 O22 2.534425 1_555
Ca18 O31 2.551009 1_555
Ca18 O11 2.620917 1_655
Ca18 O62 2.707829 1_555
Ca18 O58 2.893571 1_655
Ca19 O71 2.344833 1_555
Ca19 O47 2.444671 1_555
Ca19 O23 2.494056 1_555
Ca19 O3 2.505082 1_655
Ca19 O30 2.605349 1_556
Ca19 O10 2.622871 1_656
Ca19 O63 2.659624 1_555
Ca19 O59 2.938425 1_655
Mn0 O32 1.884524 1_555
Mn0 O56 1.895540 1_555
Mn0 O68 1.961484 1_455
Mn0 O74 2.037683 1_545
Mn1 O57 1.893261 1_555
Mn1 O33 1.909068 1_555
Mn1 O69 1.971912 1_455
Mn1 O75 2.021796 1_545
Mn2 O34 1.885264 1_555
Mn2 O58 1.911604 1_555
Mn2 O70 2.012745 1_455
Mn2 O72 2.025550 1_555
Mn3 O59 1.897075 1_555
Mn3 O35 1.907332 1_555
Mn3 O71 1.983937 1_455
Mn3 O73 2.003479 1_555
Mn4 O36 1.884244 1_555
Mn4 O60 1.903079 1_555
Mn4 O64 1.993295 1_555
Mn4 O78 2.018655 1_545
Mn5 O37 1.897049 1_555
Mn5 O61 1.915485 1_555
Mn5 O65 1.962268 1_555
Mn5 O79 2.041618 1_545
Mn6 O62 1.885411 1_555
Mn6 O38 1.894749 1_555
Mn6 O66 1.974355 1_555
Mn6 O76 2.034126 1_555
Mn7 O63 1.887690 1_555
Mn7 O39 1.920915 1_555
Mn7 O67 1.960020 1_555
Mn7 O77 2.045497 1_555
Mn8 O48 1.888847 1_555
Mn8 O40 1.904870 1_555
Mn8 O72 1.987650 1_555
Mn8 O66 2.050297 1_555
Mn9 O41 1.890196 1_555
Mn9 O49 1.921877 1_555
Mn9 O73 1.967485 1_555
Mn9 O67 2.041158 1_555
Mn10 O50 1.889923 1_555
Mn10 O42 1.902369 1_555
Mn10 O74 1.969839 1_555
Mn10 O64 2.037566 1_565
Mn11 O51 1.896038 1_555
Mn11 O43 1.902291 1_555
Mn11 O75 1.968379 1_555
Mn11 O65 2.034235 1_565
Mn12 O44 1.889530 1_555
Mn12 O52 1.895480 1_555
Mn12 O76 1.987392 1_555
Mn12 O70 2.021520 1_555
Mn13 O45 1.882244 1_555
Mn13 O53 1.914619 1_555
Mn13 O77 1.960163 1_555
Mn13 O71 2.014831 1_555
Mn14 O54 1.881430 1_555
Mn14 O46 1.914320 1_555
Mn14 O78 1.993901 1_555
Mn14 O68 2.030355 1_565
Mn15 O55 1.902874 1_555
Mn15 O47 1.903968 1_555
Mn15 O79 1.990311 1_555
Mn15 O69 2.003407 1_565
Fe0 O30 1.955600 1_445
Fe0 O10 1.961855 1_545
Fe0 O1 1.963839 1_554
Fe0 O21 1.968758 1_454
Fe0 O32 2.104130 1_555
Fe0 O47 2.147809 1_444
Fe1 O11 1.951963 1_555
Fe1 O0 1.955409 1_565
Fe1 O31 1.967770 1_455
Fe1 O20 1.974779 1_465
Fe1 O46 2.127464 1_455
Fe1 O33 2.178952 1_565
Fe2 O23 1.960467 1_454
Fe2 O28 1.968395 1_455
Fe2 O8 1.978055 1_555
Fe2 O3 1.981241 1_554
Fe2 O34 2.092119 1_555
Fe2 O45 2.135067 1_454
Fe3 O22 1.952601 1_455
Fe3 O29 1.966575 1_455
Fe3 O2 1.971590 1_555
Fe3 O9 1.977082 1_555
Fe3 O44 2.114077 1_455
Fe3 O35 2.177696 1_555
Fe4 O26 1.953390 1_545
Fe4 O17 1.961754 1_554
Fe4 O5 1.963457 1_554
Fe4 O14 1.969441 1_545
Fe4 O36 2.098082 1_555
Fe4 O43 2.147965 1_544
Fe5 O16 1.951922 1_565
Fe5 O27 1.952029 1_555
Fe5 O15 1.971275 1_555
Fe5 O4 1.971832 1_565
Fe5 O42 2.123236 1_555
Fe5 O37 2.153831 1_565
Fe6 O24 1.966315 1_555
Fe6 O12 1.966651 1_555
Fe6 O19 1.969599 1_554
Fe6 O7 1.972183 1_554
Fe6 O38 2.111813 1_555
Fe6 O41 2.135656 1_554
Fe7 O6 1.949787 1_555
Fe7 O13 1.955805 1_555
Fe7 O18 1.958309 1_555
Fe7 O25 1.969967 1_555
Fe7 O40 2.115663 1_555
Fe7 O39 2.201045 1_555
Fe8 O1 1.969218 1_554
Fe8 O8 1.972098 1_555
Fe8 O24 1.974575 1_555
Fe8 O17 1.977861 1_554
Fe8 O48 2.091688 1_555
Fe8 O57 2.151832 1_554
Fe9 O16 1.958705 1_555
Fe9 O0 1.959329 1_555
Fe9 O25 1.965531 1_555
Fe9 O9 1.976909 1_555
Fe9 O56 2.119049 1_555
Fe9 O49 2.188157 1_555
Fe10 O10 1.953024 1_555
Fe10 O3 1.962924 1_554
Fe10 O26 1.965048 1_555
Fe10 O19 1.965727 1_554
Fe10 O50 2.104631 1_555
Fe10 O59 2.142668 1_554
Fe11 O11 1.952510 1_555
Fe11 O27 1.955106 1_555
Fe11 O18 1.961508 1_555
Fe11 O2 1.965182 1_555
Fe11 O58 2.124358 1_555
Fe11 O51 2.151552 1_555
Fe12 O12 1.957136 1_555
Fe12 O5 1.959885 1_554
Fe12 O28 1.964820 1_555
Fe12 O21 1.978178 1_554
Fe12 O52 2.108651 1_555
Fe12 O61 2.184820 1_554
Fe13 O13 1.956924 1_555
Fe13 O29 1.959026 1_555
Fe13 O4 1.966314 1_555
Fe13 O20 1.975079 1_555
Fe13 O60 2.113777 1_555
Fe13 O53 2.208533 1_555
Fe14 O7 1.959857 1_554
Fe14 O23 1.961411 1_554
Fe14 O14 1.963021 1_555
Fe14 O30 1.971449 1_555
Fe14 O54 2.094745 1_555
Fe14 O63 2.124196 1_554
Fe15 O6 1.952253 1_555
Fe15 O22 1.952706 1_555
Fe15 O15 1.965704 1_555
Fe15 O31 1.974017 1_555
Fe15 O62 2.107185 1_555
Fe15 O55 2.165488 1_555
O0 Sr10 2.618039 1_455
O0 Sr6 2.694926 1_555
O1 Sr11 2.577652 1_455
O2 Sr3 2.610408 1_555
O2 Sr7 2.667374 1_555
O2 Sr0 2.738076 1_555
O3 Sr4 2.571647 1_555
O4 Sr5 2.604869 1_545
O4 Sr8 2.679070 1_555
O4 Sr1 2.719314 1_555
O5 Sr9 2.578666 1_555
O6 Sr2 2.732213 1_555
O8 Sr11 2.738789 1_454
O8 Sr4 2.740994 1_554
O9 Sr6 2.578270 1_555
O9 Sr0 2.607142 1_555
O9 Sr10 2.666159 1_455
O9 Sr3 2.672583 1_555
O11 Sr7 2.617192 1_555
O12 Sr9 2.733806 1_554
O13 Sr2 2.609593 1_555
O13 Sr8 2.618465 1_555
O15 Sr1 2.608888 1_565
O15 Sr5 2.717075 1_555
O16 Sr8 2.744243 1_555
O17 Sr9 2.578064 1_555
O18 Sr3 2.620404 1_555
O18 Sr0 2.723327 1_555
O19 Sr4 2.578500 1_555
O20 Sr5 2.615234 1_545
O20 Sr10 2.617541 1_555
O20 Sr1 2.643679 1_555
O20 Sr6 2.659528 1_655
O21 Sr11 2.573245 1_555
O22 Sr2 2.711854 1_555
O22 Sr7 2.745726 1_655
O24 Sr4 2.715081 1_554
O24 Sr9 2.753285 1_554
O25 Sr8 2.599721 1_555
O25 Sr0 2.605554 1_555
O25 Sr3 2.669047 1_555
O28 Sr11 2.729835 1_554
O29 Sr2 2.590607 1_555
O29 Sr6 2.635185 1_655
O29 Sr10 2.674252 1_555
O31 Sr7 2.591396 1_655
O31 Sr1 2.611543 1_565
O31 Sr5 2.669169 1_555
O33 Sr6 2.640181 1_555
O33 Sr1 2.911004 1_455
O33 Sr7 2.974238 1_545
O35 Sr7 2.597307 1_555
O35 Sr2 2.780422 1_455
O35 Sr0 2.787113 1_555
O35 Sr6 3.066660 1_555
O37 Sr8 2.574164 1_555
O37 Sr1 2.695616 1_555
O39 Sr2 2.747999 1_555
O39 Sr0 2.810552 1_555
O39 Sr8 3.110865 1_555
O40 Sr3 2.829689 1_555
O41 Sr9 2.526905 1_555
O41 Sr4 2.878436 1_555
O42 Sr5 2.748207 1_555
O43 Sr9 3.130693 1_565
O44 Sr10 2.581418 1_555
O44 Sr3 2.739700 1_655
O45 Sr11 2.524462 1_555
O45 Sr4 2.717141 1_655
O46 Sr5 2.870700 1_555
O46 Sr10 3.099195 1_565
O47 Sr11 3.150907 1_565
O49 Sr8 2.705272 1_555
O49 Sr6 2.851930 1_555
O49 Sr0 3.113082 1_555
O51 Sr0 2.548985 1_555
O51 Sr7 2.825166 1_555
O53 Sr1 2.665289 1_555
O53 Sr6 2.785878 1_655
O53 Sr8 2.789401 1_555
O53 Sr2 2.997590 1_555
O55 Sr2 2.577528 1_555
O55 Sr7 2.779844 1_655
O55 Sr1 3.039863 1_565
O56 Sr3 2.593830 1_555
O56 Sr10 2.842732 1_455
O57 Sr4 2.540716 1_555
O57 Sr9 2.742448 1_555
O57 Sr11 2.826618 1_455
O58 Sr3 3.107371 1_555
O59 Sr4 3.156104 1_555
O60 Sr10 2.743569 1_555
O60 Sr5 3.110176 1_545
O61 Sr11 2.767412 1_555
O61 Sr9 2.803829 1_555
O62 Sr5 2.558400 1_555
O65 Sr9 2.468686 1_555
O67 Sr0 2.487926 1_555
O68 Sr10 2.479962 1_555
O69 Sr11 2.442803 1_555
O69 Sr1 2.448489 1_555
O71 Sr2 2.511303 1_555
O72 Sr3 2.477732 1_555
O73 Sr4 2.443247 1_555
O73 Sr6 2.456162 1_555
O75 Sr7 2.501569 1_555
O77 Sr8 2.496271 1_555
O78 Sr5 2.476069 1_555
