# generated using pymatgen
data_BC6BrNF5
_symmetry_space_group_name_H-M   'P 1'
_cell_length_a   11.70398002
_cell_length_b   11.70398002
_cell_length_c   12.02303755
_cell_angle_alpha   62.55753126
_cell_angle_beta   62.55753126
_cell_angle_gamma   85.42300686
_symmetry_Int_Tables_number   1
_chemical_formula_structural   BC6BrNF5
_chemical_formula_sum   'B6 C36 Br6 N6 F30'
_cell_volume   1278.64421892
_cell_formula_units_Z   6
loop_
 _symmetry_equiv_pos_site_id
 _symmetry_equiv_pos_as_xyz
  1  'x, y, z'
loop_
 _atom_site_type_symbol
 _atom_site_label
 _atom_site_symmetry_multiplicity
 _atom_site_fract_x
 _atom_site_fract_y
 _atom_site_fract_z
 _atom_site_occupancy
  B  B0  1  0.51441800  0.32539200  0.87572100  1
  B  B1  1  0.48558200  0.67460800  0.12427900  1
  B  B2  1  0.67460800  0.48558200  0.62427900  1
  B  B3  1  0.32539200  0.51441800  0.37572100  1
  B  B4  1  0.45839700  0.54160300  0.75000000  1
  B  B5  1  0.54160300  0.45839700  0.25000000  1
  C  C0  1  0.30764700  0.03598300  0.72651700  1
  C  C1  1  0.69235300  0.96401700  0.27348300  1
  C  C2  1  0.96401700  0.69235300  0.77348300  1
  C  C3  1  0.03598300  0.30764700  0.22651700  1
  C  C4  1  0.66708800  0.81654100  0.50750600  1
  C  C5  1  0.33291200  0.18345900  0.49249400  1
  C  C6  1  0.18345900  0.33291200  0.99249400  1
  C  C7  1  0.81654100  0.66708800  0.00750600  1
  C  C8  1  0.73967600  0.18536500  0.69338000  1
  C  C9  1  0.26032400  0.81463500  0.30662000  1
  C  C10  1  0.81463500  0.26032400  0.80662000  1
  C  C11  1  0.18536500  0.73967600  0.19338000  1
  C  C12  1  0.38687900  0.26600700  0.61348900  1
  C  C13  1  0.61312100  0.73399300  0.38651100  1
  C  C14  1  0.73399300  0.61312100  0.88651100  1
  C  C15  1  0.26600700  0.38687900  0.11348900  1
  C  C16  1  0.82746000  0.09768000  0.69225200  1
  C  C17  1  0.17254000  0.90232000  0.30774800  1
  C  C18  1  0.90232000  0.17254000  0.80774800  1
  C  C19  1  0.09768000  0.82746000  0.19225200  1
  C  C20  1  0.90890400  0.09109600  0.75000000  1
  C  C21  1  0.09109600  0.90890400  0.25000000  1
  C  C22  1  0.62290900  0.70833600  0.50764500  1
  C  C23  1  0.37709100  0.29166400  0.49235500  1
  C  C24  1  0.29166400  0.37709100  0.99235500  1
  C  C25  1  0.70833600  0.62290900  0.00764500  1
  C  C26  1  0.73067000  0.26933000  0.75000000  1
  C  C27  1  0.26933000  0.73067000  0.25000000  1
  C  C28  1  0.29913600  0.05745400  0.60653300  1
  C  C29  1  0.70086400  0.94254600  0.39346700  1
  C  C30  1  0.94254600  0.70086400  0.89346700  1
  C  C31  1  0.05745400  0.29913600  0.10653300  1
  C  C32  1  0.35198200  0.14114100  0.72949300  1
  C  C33  1  0.64801800  0.85885900  0.27050700  1
  C  C34  1  0.85885900  0.64801800  0.77050700  1
  C  C35  1  0.14114100  0.35198200  0.22949300  1
  Br  Br0  1  0.33768100  0.66231900  0.75000000  1
  Br  Br1  1  0.66231900  0.33768100  0.25000000  1
  Br  Br2  1  0.52717800  0.83728900  0.95385900  1
  Br  Br3  1  0.47282200  0.16271100  0.04614100  1
  Br  Br4  1  0.16271100  0.47282200  0.54614100  1
  Br  Br5  1  0.83728900  0.52717800  0.45385900  1
  N  N0  1  0.64020400  0.35979600  0.75000000  1
  N  N1  1  0.35979600  0.64020400  0.25000000  1
  N  N2  1  0.42075400  0.41364200  0.87323500  1
  N  N3  1  0.57924600  0.58635800  0.12676500  1
  N  N4  1  0.58635800  0.57924600  0.62676500  1
  N  N5  1  0.41364200  0.42075400  0.37323500  1
  F  F0  1  0.66195000  0.18745800  0.63740400  1
  F  F1  1  0.33805000  0.81254200  0.36259600  1
  F  F2  1  0.81254200  0.33805000  0.86259600  1
  F  F3  1  0.18745800  0.66195000  0.13740400  1
  F  F4  1  0.67636200  0.80204800  0.62100000  1
  F  F5  1  0.32363800  0.19795200  0.37900000  1
  F  F6  1  0.19795200  0.32363800  0.87900000  1
  F  F7  1  0.80204800  0.67636200  0.12100000  1
  F  F8  1  0.43263900  0.36427700  0.61934600  1
  F  F9  1  0.56736100  0.63572300  0.38065400  1
  F  F10  1  0.63572300  0.56736100  0.88065400  1
  F  F11  1  0.36427700  0.43263900  0.11934600  1
  F  F12  1  0.99359300  0.00640700  0.75000000  1
  F  F13  1  0.00640700  0.99359300  0.25000000  1
  F  F14  1  0.27383200  0.91542700  0.83799900  1
  F  F15  1  0.72616800  0.08457300  0.16200100  1
  F  F16  1  0.08457300  0.72616800  0.66200100  1
  F  F17  1  0.91542700  0.27383200  0.33799900  1
  F  F18  1  0.83402800  0.01882300  0.63649600  1
  F  F19  1  0.16597200  0.98117700  0.36350400  1
  F  F20  1  0.98117700  0.16597200  0.86350400  1
  F  F21  1  0.01882300  0.83402800  0.13649600  1
  F  F22  1  0.36128700  0.12047600  0.84496500  1
  F  F23  1  0.63871300  0.87952500  0.15503500  1
  F  F24  1  0.87952400  0.63871300  0.65503500  1
  F  F25  1  0.12047600  0.36128700  0.34496500  1
  F  F26  1  0.25856700  0.95666300  0.60093000  1
  F  F27  1  0.74143300  0.04333700  0.39907000  1
  F  F28  1  0.04333700  0.74143300  0.89907000  1
  F  F29  1  0.95666300  0.25856700  0.10093000  1
loop_
_geom_bond_atom_site_label_1
_geom_bond_atom_site_label_2
_geom_bond_distance
_geom_bond_site_symmetry_2
B0 N2 1.445859 1_555
B0 N0 1.448033 1_555
B0 Br3 1.921772 1_556
B1 N3 1.445859 1_555
B1 N1 1.448033 1_555
B1 Br2 1.921772 1_554
B2 N4 1.445859 1_555
B2 N0 1.448033 1_555
B2 Br5 1.921772 1_555
B3 N5 1.445859 1_555
B3 N1 1.448033 1_555
B3 Br4 1.921772 1_555
B4 N2 1.445931 1_555
B4 N4 1.445931 1_555
B4 Br0 1.916703 1_555
B5 N5 1.445931 1_555
B5 N3 1.445931 1_555
B5 Br1 1.916703 1_555
C0 F14 1.342040 1_545
C1 F15 1.342040 1_565
C2 F16 1.342040 1_655
C3 F17 1.342040 1_455
C4 F4 1.350099 1_555
C5 F5 1.350099 1_555
C6 F6 1.350099 1_555
C7 F7 1.350099 1_555
C8 F0 1.351534 1_555
C9 F1 1.351534 1_555
C10 F2 1.351534 1_555
C11 F3 1.351534 1_555
C12 F8 1.349951 1_555
C13 F9 1.349951 1_555
C14 F10 1.349951 1_555
C15 F11 1.349951 1_555
C16 F18 1.348537 1_555
C17 F19 1.348537 1_555
C18 F20 1.348537 1_555
C19 F21 1.348537 1_555
C20 F12 1.344674 1_555
C21 F13 1.344674 1_555
C22 N4 1.435574 1_555
C23 N5 1.435574 1_555
C24 N2 1.435574 1_555
C25 N3 1.435574 1_555
C26 N0 1.436400 1_555
C27 N1 1.436400 1_555
C28 F26 1.346737 1_545
C29 F27 1.346737 1_565
C30 F28 1.346737 1_655
C31 F29 1.346737 1_455
C32 F22 1.350356 1_555
C33 F23 1.350352 1_555
C34 F24 1.350356 1_555
C35 F25 1.350356 1_555
