# generated using pymatgen
data_Te4Mo3W(SeS)2
_symmetry_space_group_name_H-M   'P 1'
_cell_length_a   3.39888546
_cell_length_b   3.39888546
_cell_length_c   40.01600900
_cell_angle_alpha   90.00000000
_cell_angle_beta   90.00000000
_cell_angle_gamma   119.99998954
_symmetry_Int_Tables_number   1
_chemical_formula_structural   Te4Mo3W(SeS)2
_chemical_formula_sum   'Te4 Mo3 W1 Se2 S2'
_cell_volume   400.34785782
_cell_formula_units_Z   1
loop_
 _symmetry_equiv_pos_site_id
 _symmetry_equiv_pos_as_xyz
  1  'x, y, z'
loop_
 _atom_site_type_symbol
 _atom_site_label
 _atom_site_symmetry_multiplicity
 _atom_site_fract_x
 _atom_site_fract_y
 _atom_site_fract_z
 _atom_site_occupancy
  Te  Te0  1  0.00000000  0.00000000  0.70549400  1
  Te  Te1  1  0.33333300  0.66666700  0.42191500  1
  Te  Te2  1  0.33333300  0.66666700  0.51570300  1
  Te  Te3  1  0.00000000  0.00000000  0.61172000  1
  Mo  Mo0  1  0.00000000  0.00000000  0.09404100  1
  Mo  Mo1  1  0.00000000  0.00000000  0.46881600  1
  Mo  Mo2  1  0.33333300  0.66666700  0.65863600  1
  W  W0  1  0.33333300  0.66666700  0.28143300  1
  Se  Se0  1  0.00000000  0.00000000  0.32280400  1
  Se  Se1  1  0.00000000  0.00000000  0.24010000  1
  S  S0  1  0.33333300  0.66666700  0.05647700  1
  S  S1  1  0.33333300  0.66666700  0.13160800  1
loop_
_geom_bond_atom_site_label_1
_geom_bond_atom_site_label_2
_geom_bond_distance
_geom_bond_site_symmetry_2
Mo0 S0 2.471901 1_545
Mo0 S0 2.471903 1_445
Mo0 S0 2.471903 1_555
Mo0 S1 2.471974 1_545
Mo0 S1 2.471976 1_555
Mo0 S1 2.471976 1_445
Mo1 Te2 2.714966 1_545
Mo1 Te2 2.714968 1_555
Mo1 Te2 2.714968 1_445
Mo1 Te1 2.715353 1_545
Mo1 Te1 2.715356 1_555
Mo1 Te1 2.715356 1_445
Mo2 Te0 2.714164 1_565
Mo2 Te0 2.714167 1_665
Mo2 Te0 2.714167 1_555
Mo2 Te3 2.715768 1_565
Mo2 Te3 2.715770 1_665
Mo2 Te3 2.715770 1_555
Se0 W0 2.567389 1_545
Se0 W0 2.567392 1_445
Se0 W0 2.567392 1_555
Se1 W0 2.566409 1_545
Se1 W0 2.566411 1_555
Se1 W0 2.566411 1_445
