# generated using pymatgen
data_Fe3Sb
_symmetry_space_group_name_H-M   'P 1'
_cell_length_a   5.49379609
_cell_length_b   5.49379609
_cell_length_c   4.35953300
_cell_angle_alpha   90.00000000
_cell_angle_beta   90.00000000
_cell_angle_gamma   120.00000105
_symmetry_Int_Tables_number   1
_chemical_formula_structural   Fe3Sb
_chemical_formula_sum   'Fe6 Sb2'
_cell_volume   113.95035119
_cell_formula_units_Z   2
loop_
 _symmetry_equiv_pos_site_id
 _symmetry_equiv_pos_as_xyz
  1  'x, y, z'
loop_
 _atom_site_type_symbol
 _atom_site_label
 _atom_site_symmetry_multiplicity
 _atom_site_fract_x
 _atom_site_fract_y
 _atom_site_fract_z
 _atom_site_occupancy
  Fe  Fe0  1  0.15222900  0.30445800  0.25000000  1
  Fe  Fe1  1  0.69554200  0.84777100  0.25000000  1
  Fe  Fe2  1  0.15222900  0.84777100  0.25000000  1
  Fe  Fe3  1  0.84777100  0.69554200  0.75000000  1
  Fe  Fe4  1  0.30445800  0.15222900  0.75000000  1
  Fe  Fe5  1  0.84777100  0.15222900  0.75000000  1
  Sb  Sb0  1  0.33333300  0.66666700  0.75000000  1
  Sb  Sb1  1  0.66666700  0.33333300  0.25000000  1
loop_
_geom_bond_atom_site_label_1
_geom_bond_atom_site_label_2
_geom_bond_distance
_geom_bond_site_symmetry_2
Fe0 Fe1 2.508945 1_445
Fe0 Fe2 2.508945 1_545
Fe0 Fe5 2.617184 1_454
Fe0 Fe5 2.617184 1_455
Fe0 Fe4 2.617184 1_554
Fe0 Fe4 2.617184 1_555
Fe0 Sb1 2.750329 1_455
Fe0 Sb1 2.750334 1_555
Fe0 Sb0 2.778699 1_555
Fe0 Sb0 2.778699 1_554
Fe0 Fe1 2.984851 1_555
Fe0 Fe2 2.984851 1_555
Fe1 Fe2 2.508945 1_655
Fe1 Fe5 2.617184 1_564
Fe1 Fe5 2.617184 1_565
Fe1 Fe3 2.617184 1_555
Fe1 Fe3 2.617184 1_554
Fe1 Sb1 2.750329 1_565
Fe1 Sb1 2.750334 1_555
Fe1 Sb0 2.778699 1_555
Fe1 Sb0 2.778699 1_554
Fe1 Fe2 2.984851 1_555
Fe2 Fe4 2.617184 1_564
Fe2 Fe4 2.617184 1_565
Fe2 Fe3 2.617184 1_455
Fe2 Fe3 2.617184 1_454
Fe2 Sb1 2.750331 1_455
Fe2 Sb1 2.750331 1_565
Fe2 Sb0 2.778696 1_555
Fe2 Sb0 2.778696 1_554
Fe3 Fe4 2.508945 1_665
Fe3 Fe5 2.508945 1_565
Fe3 Sb0 2.750329 1_655
Fe3 Sb0 2.750334 1_555
Fe3 Sb1 2.778699 1_556
Fe3 Sb1 2.778699 1_555
Fe3 Fe4 2.984851 1_555
Fe3 Fe5 2.984851 1_555
Fe4 Fe5 2.508945 1_455
Fe4 Sb0 2.750329 1_545
Fe4 Sb0 2.750334 1_555
Fe4 Sb1 2.778699 1_556
Fe4 Sb1 2.778699 1_555
Fe4 Fe5 2.984851 1_555
Fe5 Sb0 2.750331 1_545
Fe5 Sb0 2.750331 1_655
Fe5 Sb1 2.778696 1_555
Fe5 Sb1 2.778696 1_556
