# generated using pymatgen
data_Co2Si3
_symmetry_space_group_name_H-M   'P 1'
_cell_length_a   5.39141000
_cell_length_b   5.39141000
_cell_length_c   8.43188700
_cell_angle_alpha   90.00000000
_cell_angle_beta   90.00000000
_cell_angle_gamma   90.00000000
_symmetry_Int_Tables_number   1
_chemical_formula_structural   Co2Si3
_chemical_formula_sum   'Co8 Si12'
_cell_volume   245.09220407
_cell_formula_units_Z   4
loop_
 _symmetry_equiv_pos_site_id
 _symmetry_equiv_pos_as_xyz
  1  'x, y, z'
loop_
 _atom_site_type_symbol
 _atom_site_label
 _atom_site_symmetry_multiplicity
 _atom_site_fract_x
 _atom_site_fract_y
 _atom_site_fract_z
 _atom_site_occupancy
  Co  Co0  1  0.50000000  0.00000000  0.13034100  1
  Co  Co1  1  0.50000000  0.00000000  0.63034100  1
  Co  Co2  1  0.00000000  0.50000000  0.86965900  1
  Co  Co3  1  0.00000000  0.50000000  0.36965900  1
  Co  Co4  1  0.50000000  0.50000000  0.25000000  1
  Co  Co5  1  0.50000000  0.50000000  0.75000000  1
  Co  Co6  1  0.00000000  0.00000000  0.50000000  1
  Co  Co7  1  0.00000000  0.00000000  0.00000000  1
  Si  Si0  1  0.34604500  0.20488200  0.40880400  1
  Si  Si1  1  0.65395500  0.79511800  0.40880400  1
  Si  Si2  1  0.34604500  0.79511800  0.90880400  1
  Si  Si3  1  0.65395500  0.20488200  0.90880400  1
  Si  Si4  1  0.20488200  0.65395500  0.59119600  1
  Si  Si5  1  0.79511800  0.34604500  0.59119600  1
  Si  Si6  1  0.79511800  0.65395500  0.09119600  1
  Si  Si7  1  0.20488200  0.34604500  0.09119600  1
  Si  Si8  1  0.17241900  0.17241900  0.75000000  1
  Si  Si9  1  0.82758100  0.82758100  0.75000000  1
  Si  Si10  1  0.17241900  0.82758100  0.25000000  1
  Si  Si11  1  0.82758100  0.17241900  0.25000000  1
loop_
_geom_bond_atom_site_label_1
_geom_bond_atom_site_label_2
_geom_bond_distance
_geom_bond_site_symmetry_2
Co0 Si11 2.236358 1_555
Co0 Si10 2.236358 1_545
Co0 Si3 2.323453 1_554
Co0 Si2 2.323453 1_544
Co0 Si6 2.474121 1_545
Co0 Si7 2.474121 1_555
Co1 Si9 2.236358 1_545
Co1 Si8 2.236358 1_555
Co1 Si0 2.323453 1_555
Co1 Si1 2.323453 1_545
Co1 Si5 2.474121 1_555
Co1 Si4 2.474121 1_545
Co2 Si8 2.236358 1_555
Co2 Si9 2.236358 1_455
Co2 Si7 2.323453 1_556
Co2 Si6 2.323453 1_456
Co2 Si2 2.474121 1_555
Co2 Si3 2.474121 1_455
Co3 Si11 2.236358 1_455
Co3 Si10 2.236358 1_555
Co3 Si4 2.323453 1_555
Co3 Si5 2.323453 1_455
Co3 Si1 2.474121 1_455
Co3 Si0 2.474121 1_555
Co4 Si6 2.239092 1_555
Co4 Si1 2.239092 1_555
Co4 Si7 2.239092 1_555
Co4 Si0 2.239092 1_555
Co4 Si11 2.497676 1_555
Co4 Si10 2.497676 1_555
Co5 Si2 2.239092 1_555
Co5 Si3 2.239092 1_555
Co5 Si5 2.239092 1_555
Co5 Si4 2.239092 1_555
Co5 Si8 2.497676 1_555
Co5 Si9 2.497676 1_555
Co6 Si4 2.300471 1_545
Co6 Si5 2.300471 1_455
Co6 Si0 2.300471 1_555
Co6 Si1 2.300471 1_445
Co6 Si8 2.484308 1_555
Co6 Si9 2.484308 1_445
Co6 Si10 2.484308 1_545
Co6 Si11 2.484308 1_455
Co7 Si7 2.300471 1_555
Co7 Si3 2.300471 1_454
Co7 Si2 2.300471 1_544
Co7 Si6 2.300471 1_445
Co7 Si9 2.484308 1_444
Co7 Si10 2.484308 1_545
Co7 Si8 2.484308 1_554
Co7 Si11 2.484308 1_455
Si0 Si10 2.609049 1_545
Si1 Si11 2.609049 1_565
Si2 Si8 2.609049 1_565
Si3 Si9 2.609049 1_545
Si4 Si9 2.609049 1_455
Si5 Si8 2.609049 1_655
Si8 Si9 2.629254 1_445
Si10 Si6 2.609049 1_455
Si10 Si11 2.629254 1_465
Si11 Si7 2.609049 1_655
