# generated using pymatgen
data_Te2W3(SeS)2
_symmetry_space_group_name_H-M   'P 1'
_cell_length_a   3.34809807
_cell_length_b   3.34809807
_cell_length_c   31.02272900
_cell_angle_alpha   90.00000000
_cell_angle_beta   90.00000000
_cell_angle_gamma   120.00000133
_symmetry_Int_Tables_number   1
_chemical_formula_structural   Te2W3(SeS)2
_chemical_formula_sum   'Te2 W3 Se2 S2'
_cell_volume   301.16671045
_cell_formula_units_Z   1
loop_
 _symmetry_equiv_pos_site_id
 _symmetry_equiv_pos_as_xyz
  1  'x, y, z'
loop_
 _atom_site_type_symbol
 _atom_site_label
 _atom_site_symmetry_multiplicity
 _atom_site_fract_x
 _atom_site_fract_y
 _atom_site_fract_z
 _atom_site_occupancy
  Te  Te0  1  0.33333300  0.66666700  0.51697400  1
  Te  Te1  1  0.33333300  0.66666700  0.63971000  1
  W  W0  1  0.00000000  0.00000000  0.11565900  1
  W  W1  1  0.00000000  0.00000000  0.57837100  1
  W  W2  1  0.33333300  0.66666700  0.34694900  1
  Se  Se0  1  0.00000000  0.00000000  0.40079600  1
  Se  Se1  1  0.00000000  0.00000000  0.29307100  1
  S  S0  1  0.33333300  0.66666700  0.06662300  1
  S  S1  1  0.33333300  0.66666700  0.16468900  1
loop_
_geom_bond_atom_site_label_1
_geom_bond_atom_site_label_2
_geom_bond_distance
_geom_bond_site_symmetry_2
Te0 W1 2.713756 1_565
Te0 W1 2.713758 1_555
Te0 W1 2.713758 1_665
Te1 W1 2.712493 1_565
Te1 W1 2.712495 1_555
Te1 W1 2.712495 1_665
Se0 W2 2.554816 1_545
Se0 W2 2.554818 1_555
Se0 W2 2.554818 1_445
Se1 W2 2.555445 1_545
Se1 W2 2.555447 1_445
Se1 W2 2.555447 1_555
S0 W0 2.459822 1_565
S0 W0 2.459824 1_665
S0 W0 2.459824 1_555
S1 W0 2.459706 1_565
S1 W0 2.459709 1_665
S1 W0 2.459709 1_555
