# generated using pymatgen
data_K3VO4
_symmetry_space_group_name_H-M   'P 1'
_cell_length_a   6.07800042
_cell_length_b   6.07800085
_cell_length_c   6.07800098
_cell_angle_alpha   88.54428594
_cell_angle_beta   120.84399020
_cell_angle_gamma   120.84397968
_symmetry_Int_Tables_number   1
_chemical_formula_structural   K3VO4
_chemical_formula_sum   'K3 V1 O4'
_cell_volume   156.68929500
_cell_formula_units_Z   1
loop_
 _symmetry_equiv_pos_site_id
 _symmetry_equiv_pos_as_xyz
  1  'x, y, z'
loop_
 _atom_site_type_symbol
 _atom_site_label
 _atom_site_symmetry_multiplicity
 _atom_site_fract_x
 _atom_site_fract_y
 _atom_site_fract_z
 _atom_site_occupancy
  K  K0  1  0.99999900  0.50000000  0.50000000  1
  K  K1  1  0.50000100  0.25000100  0.75000000  1
  K  K2  1  0.50000100  0.75000000  0.25000000  1
  V  V0  1  0.00000000  0.00000000  0.00000000  1
  O  O0  1  0.65923221  0.93815306  0.93815206  1
  O  O1  1  0.99999900  0.06184694  0.72107914  1
  O  O2  1  0.99999900  0.72107814  0.06184794  1
  O  O3  1  0.34076779  0.27892086  0.27892086  1
loop_
_geom_bond_atom_site_label_1
_geom_bond_atom_site_label_2
_geom_bond_distance
_geom_bond_site_symmetry_2
K0 O2 2.952252 1_555
K0 O3 2.952254 1_555
K0 O1 2.952260 1_555
K0 O0 2.952261 1_655
K1 O2 2.544201 1_556
K1 O3 2.544207 1_555
K1 O0 2.544210 1_545
K1 O1 2.544220 1_455
K2 O1 2.544206 1_565
K2 O3 2.544209 1_555
K2 O0 2.544212 1_554
K2 O2 2.544218 1_455
O0 V0 1.727106 1_666
O1 V0 1.727107 1_656
O2 V0 1.727114 1_665
O3 V0 1.727109 1_555
