# generated using pymatgen
data_Zr(AlC)4
_symmetry_space_group_name_H-M   'P 1'
_cell_length_a   3.35569155
_cell_length_b   3.35569155
_cell_length_c   22.10806800
_cell_angle_alpha   90.00000000
_cell_angle_beta   90.00000000
_cell_angle_gamma   119.99999113
_symmetry_Int_Tables_number   1
_chemical_formula_structural   Zr(AlC)4
_chemical_formula_sum   'Zr2 Al8 C8'
_cell_volume   215.59839870
_cell_formula_units_Z   2
loop_
 _symmetry_equiv_pos_site_id
 _symmetry_equiv_pos_as_xyz
  1  'x, y, z'
loop_
 _atom_site_type_symbol
 _atom_site_label
 _atom_site_symmetry_multiplicity
 _atom_site_fract_x
 _atom_site_fract_y
 _atom_site_fract_z
 _atom_site_occupancy
  Zr  Zr0  1  0.33333300  0.66666700  0.06138300  1
  Zr  Zr1  1  0.66666700  0.33333300  0.93861700  1
  Al  Al0  1  0.33333300  0.66666700  0.54501500  1
  Al  Al1  1  0.66666700  0.33333300  0.45498500  1
  Al  Al2  1  0.00000000  0.00000000  0.83472900  1
  Al  Al3  1  0.00000000  0.00000000  0.16527100  1
  Al  Al4  1  0.00000000  0.00000000  0.64845500  1
  Al  Al5  1  0.00000000  0.00000000  0.35154500  1
  Al  Al6  1  0.33333300  0.66666700  0.73242000  1
  Al  Al7  1  0.66666700  0.33333300  0.26758000  1
  C  C0  1  0.00000000  0.00000000  0.50000000  1
  C  C1  1  0.00000000  0.00000000  0.74653200  1
  C  C2  1  0.00000000  0.00000000  0.00000000  1
  C  C3  1  0.66666700  0.33333300  0.36663600  1
  C  C4  1  0.00000000  0.00000000  0.25346800  1
  C  C5  1  0.66666700  0.33333300  0.12505700  1
  C  C6  1  0.33333300  0.66666700  0.87494300  1
  C  C7  1  0.33333300  0.66666700  0.63336400  1
loop_
_geom_bond_atom_site_label_1
_geom_bond_atom_site_label_2
_geom_bond_distance
_geom_bond_site_symmetry_2
Al0 C7 1.953226 1_555
Al0 C0 2.178063 1_565
Al0 C0 2.178066 1_555
Al0 C0 2.178066 1_665
Al1 C3 1.953226 1_555
Al1 C0 2.178063 1_655
Al1 C0 2.178066 1_665
Al1 C0 2.178066 1_555
Al2 C1 1.949865 1_555
Al2 C6 2.131658 1_545
Al2 C6 2.131660 1_445
Al2 C6 2.131660 1_555
Al3 C4 1.949865 1_555
Al3 C5 2.131658 1_455
Al3 C5 2.131660 1_555
Al3 C5 2.131660 1_445
Al4 C7 1.965924 1_545
Al4 C7 1.965927 1_555
Al4 C7 1.965927 1_445
Al4 C1 2.168293 1_555
Al5 C3 1.965924 1_455
Al5 C3 1.965927 1_445
Al5 C3 1.965927 1_555
Al5 C4 2.168293 1_555
Al6 C1 1.962367 1_565
Al6 C1 1.962370 1_555
Al6 C1 1.962370 1_665
Al6 C7 2.189937 1_555
Al7 C4 1.962367 1_655
Al7 C4 1.962370 1_665
Al7 C4 1.962370 1_555
Al7 C3 2.189937 1_555
C2 Zr1 2.365409 1_454
C2 Zr0 2.365409 1_545
C2 Zr1 2.365411 1_444
C2 Zr1 2.365411 1_554
C2 Zr0 2.365411 1_445
C2 Zr0 2.365411 1_555
C5 Zr0 2.394826 1_545
C5 Zr0 2.394826 1_655
C5 Zr0 2.394831 1_555
C6 Zr1 2.394826 1_565
C6 Zr1 2.394826 1_455
C6 Zr1 2.394831 1_555
