# generated using pymatgen
data_SmCO4
_symmetry_space_group_name_H-M   'P 1'
_cell_length_a   9.82761065
_cell_length_b   12.42125861
_cell_length_c   12.42125862
_cell_angle_alpha   120.00000125
_cell_angle_beta   90.00000000
_cell_angle_gamma   90.00000000
_symmetry_Int_Tables_number   1
_chemical_formula_structural   SmCO4
_chemical_formula_sum   'Sm18 C18 O72'
_cell_volume   1313.13620791
_cell_formula_units_Z   18
loop_
 _symmetry_equiv_pos_site_id
 _symmetry_equiv_pos_as_xyz
  1  'x, y, z'
loop_
 _atom_site_type_symbol
 _atom_site_label
 _atom_site_symmetry_multiplicity
 _atom_site_fract_x
 _atom_site_fract_y
 _atom_site_fract_z
 _atom_site_occupancy
  Sm  Sm0  1  0.75192078  0.44308797  0.54607524  1
  Sm  Sm1  1  0.75192078  0.10298728  0.55691203  1
  Sm  Sm2  1  0.24807922  0.44308797  0.54607524  1
  Sm  Sm3  1  0.75192078  0.45392476  0.89701272  1
  Sm  Sm4  1  0.24807922  0.10298728  0.55691203  1
  Sm  Sm5  1  0.24807922  0.45392476  0.89701272  1
  Sm  Sm6  1  0.74245406  0.77049358  0.88388417  1
  Sm  Sm7  1  0.74245406  0.11339059  0.22950642  1
  Sm  Sm8  1  0.25754594  0.77049358  0.88388417  1
  Sm  Sm9  1  0.74245406  0.11611583  0.88660941  1
  Sm  Sm10  1  0.25754594  0.11339059  0.22950642  1
  Sm  Sm11  1  0.25754594  0.11611583  0.88660941  1
  Sm  Sm12  1  0.75329319  0.78602552  0.21973879  1
  Sm  Sm13  1  0.75329319  0.43371327  0.21397448  1
  Sm  Sm14  1  0.24670681  0.78602552  0.21973879  1
  Sm  Sm15  1  0.75329319  0.78026121  0.56628673  1
  Sm  Sm16  1  0.24670681  0.43371327  0.21397448  1
  Sm  Sm17  1  0.24670681  0.78026121  0.56628673  1
  C  C0  1  0.50000000  0.64636533  0.13738223  1
  C  C1  1  0.50000000  0.49101690  0.35363467  1
  C  C2  1  0.50000000  0.86261777  0.50898310  1
  C  C3  1  0.00000000  0.52488931  0.69411595  1
  C  C4  1  0.00000000  0.16922664  0.47511069  1
  C  C5  1  0.00000000  0.30588405  0.83077336  1
  C  C6  1  0.50000000  0.91002165  0.11273079  1
  C  C7  1  0.50000000  0.20270914  0.08997835  1
  C  C8  1  0.50000000  0.88726921  0.79729086  1
  C  C9  1  0.00000000  0.86287292  0.36725640  1
  C  C10  1  0.00000000  0.50438348  0.13712708  1
  C  C11  1  0.00000000  0.63274360  0.49561652  1
  C  C12  1  0.00000000  0.97955212  0.17341018  1
  C  C13  1  0.00000000  0.19385806  0.02044788  1
  C  C14  1  0.00000000  0.82658982  0.80614194  1
  C  C15  1  0.50000000  0.53281793  0.83429988  1
  C  C16  1  0.50000000  0.30148195  0.46718207  1
  C  C17  1  0.50000000  0.16570012  0.69851805  1
  O  O0  1  0.00000000  0.42521963  0.58457866  1
  O  O1  1  0.00000000  0.15935903  0.57478037  1
  O  O2  1  0.00000000  0.41542134  0.84064097  1
  O  O3  1  0.50000000  0.75482051  0.23853118  1
  O  O4  1  0.50000000  0.48371067  0.24517949  1
  O  O5  1  0.50000000  0.76146882  0.51628933  1
  O  O6  1  0.61531416  0.58204847  0.83359077  1
  O  O7  1  0.61531416  0.25154231  0.41795153  1
  O  O8  1  0.38468584  0.58204847  0.83359077  1
  O  O9  1  0.61531416  0.16640923  0.74845769  1
  O  O10  1  0.38468584  0.25154231  0.41795153  1
  O  O11  1  0.38468584  0.16640923  0.74845769  1
  O  O12  1  0.61508579  0.85107844  0.08354539  1
  O  O13  1  0.61508579  0.23246695  0.14892156  1
  O  O14  1  0.38491421  0.85107844  0.08354539  1
  O  O15  1  0.61508579  0.91645461  0.76753305  1
  O  O16  1  0.38491421  0.23246695  0.14892156  1
  O  O17  1  0.38491421  0.91645461  0.76753305  1
  O  O18  1  0.75272815  0.00000000  0.00000000  1
  O  O19  1  0.24727185  0.00000000  0.00000000  1
  O  O20  1  0.69085502  0.00199008  0.34043350  1
  O  O21  1  0.69085502  0.33844342  0.99800992  1
  O  O22  1  0.30914498  0.00199008  0.34043350  1
  O  O23  1  0.69085502  0.65956650  0.66155658  1
  O  O24  1  0.30914498  0.33844342  0.99800992  1
  O  O25  1  0.30914498  0.65956650  0.66155658  1
  O  O26  1  0.88409646  0.91005326  0.41738837  1
  O  O27  1  0.88409646  0.50733512  0.08994674  1
  O  O28  1  0.11590354  0.91005326  0.41738837  1
  O  O29  1  0.88409646  0.58261163  0.49266488  1
  O  O30  1  0.11590354  0.50733512  0.08994674  1
  O  O31  1  0.11590354  0.58261163  0.49266488  1
  O  O32  1  0.88457098  0.92982829  0.17378537  1
  O  O33  1  0.88457098  0.24395709  0.07017171  1
  O  O34  1  0.11542902  0.92982829  0.17378537  1
  O  O35  1  0.88457098  0.82621463  0.75604291  1
  O  O36  1  0.11542902  0.24395709  0.07017171  1
  O  O37  1  0.11542902  0.82621463  0.75604291  1
  O  O38  1  0.88369595  0.57237530  0.74389899  1
  O  O39  1  0.88369595  0.17152369  0.42762470  1
  O  O40  1  0.11630405  0.57237530  0.74389899  1
  O  O41  1  0.88369595  0.25610101  0.82847631  1
  O  O42  1  0.11630405  0.17152369  0.42762470  1
  O  O43  1  0.11630405  0.25610101  0.82847631  1
  O  O44  1  0.50000000  0.40869927  0.56829790  1
  O  O45  1  0.50000000  0.15959863  0.59130073  1
  O  O46  1  0.50000000  0.43170210  0.84040137  1
  O  O47  1  0.00000000  0.76410094  0.25716269  1
  O  O48  1  0.00000000  0.49306175  0.23589906  1
  O  O49  1  0.00000000  0.74283731  0.50693825  1
  O  O50  1  0.50000000  0.82731077  0.85764221  1
  O  O51  1  0.50000000  0.03033144  0.17268923  1
  O  O52  1  0.50000000  0.14235779  0.96966856  1
  O  O53  1  0.80747724  0.67417284  0.00233134  1
  O  O54  1  0.80747724  0.32815850  0.32582716  1
  O  O55  1  0.19252276  0.67417284  0.00233134  1
  O  O56  1  0.80747724  0.99766866  0.67184150  1
  O  O57  1  0.19252276  0.32815850  0.32582716  1
  O  O58  1  0.19252276  0.99766866  0.67184150  1
  O  O59  1  0.00000000  0.82254253  0.90829484  1
  O  O60  1  0.00000000  0.08575231  0.17745747  1
  O  O61  1  0.00000000  0.09170516  0.91424769  1
  O  O62  1  0.74934662  0.66666700  0.33333300  1
  O  O63  1  0.25065338  0.66666700  0.33333300  1
  O  O64  1  0.61575523  0.91062426  0.50704167  1
  O  O65  1  0.61575523  0.59641741  0.08937574  1
  O  O66  1  0.38424477  0.91062426  0.50704167  1
  O  O67  1  0.61575523  0.49295833  0.40358259  1
  O  O68  1  0.38424477  0.59641741  0.08937574  1
  O  O69  1  0.38424477  0.49295833  0.40358259  1
  O  O70  1  0.74584326  0.33333300  0.66666700  1
  O  O71  1  0.25415674  0.33333300  0.66666700  1
loop_
_geom_bond_atom_site_label_1
_geom_bond_atom_site_label_2
_geom_bond_distance
_geom_bond_site_symmetry_2
C0 O68 1.290219 1_555
C0 O65 1.290219 1_555
C0 O3 1.304144 1_555
C1 O67 1.290219 1_555
C1 O69 1.290219 1_555
C1 O4 1.304144 1_555
C2 O64 1.290219 1_555
C2 O66 1.290219 1_555
C2 O5 1.304144 1_555
C3 O40 1.293050 1_555
C3 O38 1.293050 1_455
C3 O0 1.303636 1_555
C4 O42 1.293050 1_555
C4 O39 1.293050 1_455
C4 O1 1.303636 1_555
C5 O43 1.293050 1_555
C5 O41 1.293050 1_455
C5 O2 1.303636 1_555
C6 O51 1.294190 1_565
C6 O12 1.296629 1_555
C6 O14 1.296629 1_555
C7 O52 1.294190 1_554
C7 O13 1.296629 1_555
C7 O16 1.296629 1_555
C8 O50 1.294190 1_555
C8 O15 1.296629 1_555
C8 O17 1.296629 1_555
C9 O28 1.289852 1_555
C9 O26 1.289852 1_455
C9 O47 1.302892 1_555
C10 O30 1.289852 1_555
C10 O27 1.289852 1_455
C10 O48 1.302892 1_555
C11 O31 1.289852 1_555
C11 O29 1.289852 1_455
C11 O49 1.302892 1_555
C12 O34 1.292754 1_555
C12 O32 1.292754 1_455
C12 O60 1.294736 1_565
C13 O33 1.292754 1_455
C13 O36 1.292754 1_555
C13 O61 1.294736 1_554
C14 O35 1.292755 1_455
C14 O37 1.292755 1_555
C14 O59 1.294736 1_555
C15 O8 1.289840 1_555
C15 O6 1.289840 1_555
C15 O46 1.295544 1_555
C16 O10 1.289840 1_555
C16 O7 1.289840 1_555
C16 O44 1.295544 1_555
C17 O11 1.289840 1_555
C17 O9 1.289840 1_555
C17 O45 1.295544 1_555
O0 Sm0 2.515574 1_455
O0 Sm2 2.515574 1_555
O1 Sm1 2.515574 1_455
O1 Sm4 2.515574 1_555
O2 Sm3 2.515574 1_455
O2 Sm5 2.515574 1_555
O3 Sm14 2.547872 1_555
O3 Sm12 2.547872 1_555
O4 Sm16 2.547872 1_555
O4 Sm13 2.547872 1_555
O5 Sm17 2.547872 1_555
O5 Sm15 2.547872 1_555
O6 Sm6 2.442988 1_555
O6 Sm3 2.491868 1_555
O7 Sm7 2.442988 1_555
O7 Sm0 2.491868 1_555
O8 Sm8 2.442988 1_555
O8 Sm5 2.491868 1_555
O9 Sm9 2.442988 1_555
O9 Sm1 2.491868 1_555
O10 Sm10 2.442988 1_555
O10 Sm2 2.491868 1_555
O11 Sm11 2.442988 1_555
O11 Sm4 2.491868 1_555
O12 Sm6 2.497384 1_554
O12 Sm12 2.593559 1_555
O13 Sm7 2.497384 1_555
O13 Sm13 2.593559 1_555
O14 Sm8 2.497384 1_554
O14 Sm14 2.593559 1_555
O15 Sm9 2.497384 1_565
O15 Sm15 2.593559 1_555
O16 Sm10 2.497384 1_555
O16 Sm16 2.593559 1_555
O17 Sm11 2.497384 1_565
O17 Sm17 2.593559 1_555
O18 Sm6 2.470951 1_544
O18 Sm7 2.470951 1_555
O18 Sm9 2.470951 1_554
O19 Sm8 2.470951 1_544
O19 Sm10 2.470951 1_555
O19 Sm11 2.470951 1_554
O20 Sm1 2.406456 1_555
O20 Sm12 2.408012 1_545
O20 Sm7 2.444777 1_555
O21 Sm3 2.406456 1_555
O21 Sm13 2.408012 1_556
O21 Sm9 2.444777 1_555
O22 Sm4 2.406456 1_555
O22 Sm14 2.408012 1_545
O22 Sm10 2.444777 1_555
O23 Sm0 2.406456 1_555
O23 Sm15 2.408012 1_555
O23 Sm6 2.444777 1_555
O24 Sm5 2.406456 1_555
O24 Sm16 2.408012 1_556
O24 Sm11 2.444777 1_555
O25 Sm2 2.406456 1_555
O25 Sm17 2.408012 1_555
O25 Sm8 2.444777 1_555
O26 Sm12 2.504186 1_555
O26 Sm1 2.506134 1_565
O27 Sm13 2.504186 1_555
O27 Sm3 2.506134 1_554
O28 Sm14 2.504186 1_555
O28 Sm4 2.506134 1_565
O29 Sm15 2.504186 1_555
O29 Sm0 2.506134 1_555
O30 Sm16 2.504186 1_555
O30 Sm5 2.506134 1_554
O31 Sm17 2.504186 1_555
O31 Sm2 2.506134 1_555
O32 Sm7 2.459749 1_565
O32 Sm12 2.490062 1_555
O33 Sm9 2.459749 1_554
O33 Sm13 2.490062 1_555
O34 Sm10 2.459749 1_565
O34 Sm14 2.490062 1_555
O35 Sm6 2.459750 1_555
O35 Sm15 2.490062 1_555
O36 Sm11 2.459749 1_554
O36 Sm16 2.490062 1_555
O37 Sm8 2.459750 1_555
O37 Sm17 2.490062 1_555
O38 Sm0 2.519508 1_555
O38 Sm6 2.593666 1_555
O39 Sm1 2.519508 1_555
O39 Sm7 2.593666 1_555
O40 Sm2 2.519508 1_555
O40 Sm8 2.593666 1_555
O41 Sm3 2.519508 1_555
O41 Sm9 2.593666 1_555
O42 Sm4 2.519508 1_555
O42 Sm10 2.593666 1_555
O43 Sm5 2.519508 1_555
O43 Sm11 2.593666 1_555
O44 Sm2 2.550695 1_555
O44 Sm0 2.550695 1_555
O45 Sm4 2.550695 1_555
O45 Sm1 2.550695 1_555
O46 Sm5 2.550695 1_555
O46 Sm3 2.550695 1_555
O47 Sm14 2.509030 1_555
O47 Sm12 2.509030 1_455
O48 Sm13 2.509030 1_455
O48 Sm16 2.509030 1_555
O49 Sm15 2.509030 1_455
O49 Sm17 2.509030 1_555
O50 Sm8 2.551829 1_555
O50 Sm6 2.551829 1_555
O51 Sm10 2.551829 1_555
O51 Sm7 2.551829 1_555
O52 Sm9 2.551829 1_555
O52 Sm11 2.551829 1_555
O53 Sm12 2.398855 1_555
O53 Sm6 2.400969 1_554
O53 Sm3 2.432066 1_554
O54 Sm13 2.398855 1_555
O54 Sm7 2.400969 1_555
O54 Sm0 2.432066 1_555
O55 Sm14 2.398855 1_555
O55 Sm8 2.400969 1_554
O55 Sm5 2.432066 1_554
O56 Sm15 2.398855 1_555
O56 Sm9 2.400969 1_565
O56 Sm1 2.432066 1_565
O57 Sm16 2.398855 1_555
O57 Sm10 2.400969 1_555
O57 Sm2 2.432066 1_555
O58 Sm17 2.398855 1_555
O58 Sm11 2.400969 1_565
O58 Sm4 2.432066 1_565
O59 Sm6 2.592327 1_455
O59 Sm8 2.592327 1_555
O60 Sm7 2.592327 1_455
O60 Sm10 2.592327 1_555
O61 Sm11 2.592327 1_555
O61 Sm9 2.592327 1_455
O62 Sm12 2.506458 1_555
O62 Sm13 2.506468 1_555
O62 Sm15 2.506468 1_555
O63 Sm14 2.506458 1_555
O63 Sm16 2.506468 1_555
O63 Sm17 2.506468 1_555
O64 Sm15 2.486408 1_555
O64 Sm1 2.530519 1_565
O65 Sm12 2.486408 1_555
O65 Sm3 2.530519 1_554
O66 Sm17 2.486408 1_555
O66 Sm4 2.530519 1_565
O67 Sm13 2.486408 1_555
O67 Sm0 2.530519 1_555
O68 Sm14 2.486408 1_555
O68 Sm5 2.530519 1_554
O69 Sm16 2.486408 1_555
O69 Sm2 2.530519 1_555
O70 Sm1 2.479491 1_555
O70 Sm3 2.479491 1_555
O70 Sm0 2.479502 1_555
O71 Sm4 2.479491 1_555
O71 Sm5 2.479491 1_555
O71 Sm2 2.479502 1_555
