# generated using pymatgen
data_ZnMoRu2
_symmetry_space_group_name_H-M   'P 1'
_cell_length_a   9.96822147
_cell_length_b   9.96822147
_cell_length_c   9.96822147
_cell_angle_alpha   123.39053752
_cell_angle_beta   118.79912617
_cell_angle_gamma   88.16145452
_symmetry_Int_Tables_number   1
_chemical_formula_structural   ZnMoRu2
_chemical_formula_sum   'Zn1 Mo1 Ru2'
_cell_volume   686.97327977
_cell_formula_units_Z   1
loop_
 _symmetry_equiv_pos_site_id
 _symmetry_equiv_pos_as_xyz
  1  'x, y, z'
loop_
 _atom_site_type_symbol
 _atom_site_label
 _atom_site_symmetry_multiplicity
 _atom_site_fract_x
 _atom_site_fract_y
 _atom_site_fract_z
 _atom_site_occupancy
  Zn  Zn0  1  0.00000000  0.00000000  0.00000000  1
  Mo  Mo0  1  0.00000000  0.50000000  0.50000000  1
  Ru  Ru0  1  0.00000000  0.27781200  0.27781200  1
  Ru  Ru1  1  0.00000000  0.72218800  0.72218800  1
loop_
_geom_bond_atom_site_label_1
_geom_bond_atom_site_label_2
_geom_bond_distance
_geom_bond_site_symmetry_2
Mo0 Ru0 2.100361 1_555
Mo0 Ru1 2.100361 1_555
Ru0 Zn0 2.626180 1_555
Ru1 Zn0 2.626180 1_566
