# generated using pymatgen
data_BaMg(SnO2)4
_symmetry_space_group_name_H-M   'P 1'
_cell_length_a   5.98835204
_cell_length_b   5.98835204
_cell_length_c   6.93578300
_cell_angle_alpha   90.00000000
_cell_angle_beta   90.00000000
_cell_angle_gamma   120.00000039
_symmetry_Int_Tables_number   1
_chemical_formula_structural   BaMg(SnO2)4
_chemical_formula_sum   'Ba1 Mg1 Sn4 O8'
_cell_volume   215.39755696
_cell_formula_units_Z   1
loop_
 _symmetry_equiv_pos_site_id
 _symmetry_equiv_pos_as_xyz
  1  'x, y, z'
loop_
 _atom_site_type_symbol
 _atom_site_label
 _atom_site_symmetry_multiplicity
 _atom_site_fract_x
 _atom_site_fract_y
 _atom_site_fract_z
 _atom_site_occupancy
  Ba  Ba0  1  0.00000000  0.00000000  0.00000000  1
  Mg  Mg0  1  0.00000000  0.00000000  0.50000000  1
  Sn  Sn0  1  0.33333300  0.66666700  0.70837100  1
  Sn  Sn1  1  0.66666700  0.33333300  0.70837100  1
  Sn  Sn2  1  0.33333300  0.66666700  0.29162900  1
  Sn  Sn3  1  0.66666700  0.33333300  0.29162900  1
  O  O0  1  0.29015300  0.29015300  0.69512700  1
  O  O1  1  0.70984700  0.00000000  0.69512700  1
  O  O2  1  0.00000000  0.70984700  0.69512700  1
  O  O3  1  0.70984700  0.70984700  0.30487300  1
  O  O4  1  0.00000000  0.29015300  0.30487300  1
  O  O5  1  0.29015300  0.00000000  0.30487300  1
  O  O6  1  0.33333300  0.66666700  0.00000000  1
  O  O7  1  0.66666700  0.33333300  0.00000000  1
loop_
_geom_bond_atom_site_label_1
_geom_bond_atom_site_label_2
_geom_bond_distance
_geom_bond_site_symmetry_2
Ba0 O3 2.736839 1_445
Ba0 O0 2.736839 1_554
Ba0 O1 2.736839 1_454
Ba0 O2 2.736839 1_544
Ba0 O4 2.736839 1_555
Ba0 O5 2.736839 1_555
Mg0 O0 2.202412 1_555
Mg0 O3 2.202412 1_445
Mg0 O5 2.202412 1_555
Mg0 O2 2.202412 1_545
Mg0 O1 2.202412 1_455
Mg0 O4 2.202412 1_555
O0 Sn1 2.139147 1_555
O0 Sn0 2.139147 1_555
O1 Sn1 2.139141 1_555
O1 Sn0 2.139145 1_545
O2 Sn0 2.139141 1_555
O2 Sn1 2.139145 1_455
O3 Sn3 2.139147 1_555
O3 Sn2 2.139147 1_555
O4 Sn3 2.139141 1_455
O4 Sn2 2.139145 1_555
O5 Sn2 2.139141 1_545
O5 Sn3 2.139145 1_555
O6 Sn0 2.022675 1_554
O6 Sn2 2.022675 1_555
O7 Sn1 2.022675 1_554
O7 Sn3 2.022675 1_555
