# generated using pymatgen
data_Ba2Ge5Ir4
_symmetry_space_group_name_H-M   'P 1'
_cell_length_a   6.68056481
_cell_length_b   6.68056481
_cell_length_c   11.73884300
_cell_angle_alpha   90.00000000
_cell_angle_beta   90.00000000
_cell_angle_gamma   118.01423223
_symmetry_Int_Tables_number   1
_chemical_formula_structural   Ba2Ge5Ir4
_chemical_formula_sum   'Ba4 Ge10 Ir8'
_cell_volume   462.51860488
_cell_formula_units_Z   2
loop_
 _symmetry_equiv_pos_site_id
 _symmetry_equiv_pos_as_xyz
  1  'x, y, z'
loop_
 _atom_site_type_symbol
 _atom_site_label
 _atom_site_symmetry_multiplicity
 _atom_site_fract_x
 _atom_site_fract_y
 _atom_site_fract_z
 _atom_site_occupancy
  Ba  Ba0  1  0.20204800  0.79795200  0.50000000  1
  Ba  Ba1  1  0.20204800  0.79795200  0.00000000  1
  Ba  Ba2  1  0.79795200  0.20204800  0.50000000  1
  Ba  Ba3  1  0.79795200  0.20204800  0.00000000  1
  Ge  Ge0  1  0.50687300  0.88955800  0.25000000  1
  Ge  Ge1  1  0.11044200  0.49312700  0.75000000  1
  Ge  Ge2  1  0.49312700  0.11044200  0.75000000  1
  Ge  Ge3  1  0.88955800  0.50687300  0.25000000  1
  Ge  Ge4  1  0.34089500  0.34089500  0.42857700  1
  Ge  Ge5  1  0.65910500  0.65910500  0.57142300  1
  Ge  Ge6  1  0.34089500  0.34089500  0.07142300  1
  Ge  Ge7  1  0.65910500  0.65910500  0.92857700  1
  Ge  Ge8  1  0.02189900  0.02189900  0.25000000  1
  Ge  Ge9  1  0.97810100  0.97810000  0.75000000  1
  Ir  Ir0  1  0.47475000  0.23148300  0.25000000  1
  Ir  Ir1  1  0.76851700  0.52525000  0.75000000  1
  Ir  Ir2  1  0.52525000  0.76851700  0.75000000  1
  Ir  Ir3  1  0.23148300  0.47475000  0.25000000  1
  Ir  Ir4  1  0.69431500  0.69431500  0.36503900  1
  Ir  Ir5  1  0.30568500  0.30568500  0.63496100  1
  Ir  Ir6  1  0.69431500  0.69431500  0.13496100  1
  Ir  Ir7  1  0.30568500  0.30568500  0.86503900  1
loop_
_geom_bond_atom_site_label_1
_geom_bond_atom_site_label_2
_geom_bond_distance
_geom_bond_site_symmetry_2
Ba0 Ge5 3.399876 1_455
Ba0 Ge4 3.399876 1_565
Ba0 Ge0 3.458799 1_555
Ba0 Ge1 3.458799 1_555
Ba0 Ir4 3.505500 1_455
Ba0 Ir5 3.505500 1_565
Ba0 Ge2 3.597023 1_565
Ba0 Ge3 3.597023 1_455
Ba0 Ba2 3.611151 1_565
Ba0 Ba2 3.611151 1_455
Ba0 Ge4 3.680648 1_555
Ba0 Ge5 3.680648 1_555
Ba0 Ir3 3.702981 1_555
Ba0 Ir2 3.702981 1_555
Ba0 Ge9 3.740401 1_455
Ba0 Ge8 3.740404 1_565
Ba0 Ir0 3.919583 1_565
Ba0 Ir1 3.919583 1_455
Ba0 Ir4 3.992896 1_555
Ba0 Ir5 3.992896 1_555
Ba1 Ge7 3.399876 1_454
Ba1 Ge6 3.399876 1_565
Ba1 Ge1 3.458799 1_554
Ba1 Ge0 3.458799 1_555
Ba1 Ir6 3.505500 1_455
Ba1 Ir7 3.505500 1_564
Ba1 Ge2 3.597023 1_564
Ba1 Ge3 3.597023 1_455
Ba1 Ba3 3.611151 1_565
Ba1 Ba3 3.611151 1_455
Ba1 Ge6 3.680648 1_555
Ba1 Ge7 3.680648 1_554
Ba1 Ir2 3.702981 1_554
Ba1 Ir3 3.702981 1_555
Ba1 Ge9 3.740401 1_454
Ba1 Ge8 3.740404 1_565
Ba1 Ir0 3.919583 1_565
Ba1 Ir1 3.919583 1_454
Ba1 Ir6 3.992896 1_555
Ba1 Ir7 3.992896 1_554
Ba2 Ge5 3.399876 1_545
Ba2 Ge4 3.399876 1_655
Ba2 Ge3 3.458799 1_555
Ba2 Ge2 3.458799 1_555
Ba2 Ir5 3.505500 1_655
Ba2 Ir4 3.505500 1_545
Ba2 Ge1 3.597023 1_655
Ba2 Ge0 3.597023 1_545
Ba2 Ge5 3.680648 1_555
Ba2 Ge4 3.680648 1_555
Ba2 Ir1 3.702981 1_555
Ba2 Ir0 3.702981 1_555
Ba2 Ge8 3.740404 1_655
Ba2 Ge9 3.740408 1_545
Ba2 Ir3 3.919583 1_655
Ba2 Ir2 3.919583 1_545
Ba2 Ir4 3.992896 1_555
Ba2 Ir5 3.992896 1_555
Ba3 Ge7 3.399876 1_544
Ba3 Ge6 3.399876 1_655
Ba3 Ge2 3.458799 1_554
Ba3 Ge3 3.458799 1_555
Ba3 Ir7 3.505500 1_654
Ba3 Ir6 3.505500 1_545
Ba3 Ge1 3.597023 1_654
Ba3 Ge0 3.597023 1_545
Ba3 Ge7 3.680648 1_554
Ba3 Ge6 3.680648 1_555
Ba3 Ir1 3.702981 1_554
Ba3 Ir0 3.702981 1_555
Ba3 Ge8 3.740404 1_655
Ba3 Ge9 3.740408 1_544
Ba3 Ir3 3.919583 1_655
Ba3 Ir2 3.919583 1_544
Ba3 Ir6 3.992896 1_555
Ba3 Ir7 3.992896 1_554
Ge0 Ir0 2.392561 1_565
Ge0 Ir3 2.504954 1_555
Ge0 Ir6 2.574352 1_555
Ge0 Ir4 2.574352 1_555
Ge1 Ir1 2.392561 1_455
Ge1 Ir2 2.504954 1_555
Ge1 Ir5 2.574352 1_555
Ge1 Ir7 2.574352 1_555
Ge2 Ir2 2.392561 1_545
Ge2 Ir1 2.504954 1_555
Ge2 Ir5 2.574352 1_555
Ge2 Ir7 2.574352 1_555
Ge3 Ir3 2.392561 1_655
Ge3 Ir0 2.504954 1_555
Ge3 Ir4 2.574352 1_555
Ge3 Ir6 2.574352 1_555
Ge4 Ir5 2.434790 1_555
Ge4 Ir3 2.518398 1_555
Ge4 Ir0 2.518398 1_555
Ge4 Ir4 2.543377 1_555
Ge5 Ir4 2.434790 1_555
Ge5 Ir2 2.518398 1_555
Ge5 Ir1 2.518398 1_555
Ge5 Ir5 2.543377 1_555
Ge6 Ir7 2.434790 1_554
Ge6 Ir3 2.518398 1_555
Ge6 Ir0 2.518398 1_555
Ge6 Ir6 2.543377 1_555
Ge7 Ir6 2.434790 1_556
Ge7 Ir2 2.518398 1_555
Ge7 Ir1 2.518398 1_555
Ge7 Ir7 2.543377 1_555
Ge8 Ir6 2.627406 1_445
Ge8 Ir4 2.627406 1_445
Ge8 Ir0 2.670910 1_555
Ge8 Ir3 2.670910 1_555
Ge9 Ir7 2.627409 1_665
Ge9 Ir5 2.627409 1_665
Ge9 Ir1 2.670904 1_555
Ge9 Ir2 2.670910 1_555
