# generated using pymatgen
data_Ta4AgS8
_symmetry_space_group_name_H-M   'P 1'
_cell_length_a   3.35320717
_cell_length_b   5.81167997
_cell_length_c   13.56378716
_cell_angle_alpha   81.89451565
_cell_angle_beta   90.00000000
_cell_angle_gamma   90.00000000
_symmetry_Int_Tables_number   1
_chemical_formula_structural   Ta4AgS8
_chemical_formula_sum   'Ta4 Ag1 S8'
_cell_volume   261.68733104
_cell_formula_units_Z   1
loop_
 _symmetry_equiv_pos_site_id
 _symmetry_equiv_pos_as_xyz
  1  'x, y, z'
loop_
 _atom_site_type_symbol
 _atom_site_label
 _atom_site_symmetry_multiplicity
 _atom_site_fract_x
 _atom_site_fract_y
 _atom_site_fract_z
 _atom_site_occupancy
  Ta  Ta0  1  0.50000000  0.43502409  0.23079458  1
  Ta  Ta1  1  0.00000000  0.91240986  0.23065077  1
  Ta  Ta2  1  0.50000000  0.58915768  0.76954829  1
  Ta  Ta3  1  -0.00000000  0.06072995  0.77004369  1
  Ag  Ag0  1  0.50000000  0.34484671  0.47807241  1
  S  S0  1  0.50000000  0.28107580  0.65678340  1
  S  S1  1  -0.00000000  0.77970375  0.65076727  1
  S  S2  1  0.50000000  0.72533932  0.34970058  1
  S  S3  1  -0.00000000  0.21306073  0.34516711  1
  S  S4  1  0.50000000  0.21033547  0.87952329  1
  S  S5  1  -0.00000000  0.70134642  0.88642284  1
  S  S6  1  0.50000000  0.79592508  0.11475250  1
  S  S7  1  -0.00000000  0.29034412  0.11987527  1
loop_
_geom_bond_atom_site_label_1
_geom_bond_atom_site_label_2
_geom_bond_distance
_geom_bond_site_symmetry_2
Ag0 S0 2.399956 1_555
Ag0 S2 2.614555 1_555
Ag0 S3 2.652671 1_655
Ag0 S3 2.652671 1_555
S0 Ta3 2.501231 1_555
S0 Ta3 2.501231 1_655
S0 Ta2 2.513459 1_555
S1 Ta3 2.455600 1_565
S1 Ta2 2.475866 1_555
S1 Ta2 2.475866 1_455
S2 Ta1 2.470912 1_555
S2 Ta1 2.470912 1_655
S2 Ta0 2.493037 1_555
S3 Ta1 2.496198 1_545
S3 Ta0 2.513432 1_455
S3 Ta0 2.513432 1_555
S4 Ta3 2.477124 1_655
S4 Ta3 2.477124 1_555
S4 Ta2 2.479120 1_555
S5 Ta3 2.434012 1_565
S5 Ta2 2.457769 1_555
S5 Ta2 2.457769 1_455
S6 Ta0 2.438380 1_555
S6 Ta1 2.457771 1_655
S6 Ta1 2.457771 1_555
S7 Ta0 2.477540 1_455
S7 Ta0 2.477540 1_555
S7 Ta1 2.480180 1_545
