# generated using pymatgen
data_Y5Ge4
_symmetry_space_group_name_H-M   'P 1'
_cell_length_a   7.66600837
_cell_length_b   7.72589184
_cell_length_c   14.71929418
_cell_angle_alpha   90.00000000
_cell_angle_beta   90.00000000
_cell_angle_gamma   90.00000000
_symmetry_Int_Tables_number   1
_chemical_formula_structural   Y5Ge4
_chemical_formula_sum   'Y20 Ge16'
_cell_volume   871.77597882
_cell_formula_units_Z   4
loop_
 _symmetry_equiv_pos_site_id
 _symmetry_equiv_pos_as_xyz
  1  'x, y, z'
loop_
 _atom_site_type_symbol
 _atom_site_label
 _atom_site_symmetry_multiplicity
 _atom_site_fract_x
 _atom_site_fract_y
 _atom_site_fract_z
 _atom_site_occupancy
  Y  Y0  1  0.78149172  0.50280421  0.25000000  1
  Y  Y1  1  0.28149172  0.99719579  0.25000000  1
  Y  Y2  1  0.71850828  0.00280421  0.75000000  1
  Y  Y3  1  0.21850828  0.49719579  0.75000000  1
  Y  Y4  1  0.38310580  0.15913199  0.88432119  1
  Y  Y5  1  0.88310580  0.34086801  0.61567881  1
  Y  Y6  1  0.11689420  0.65913199  0.11567881  1
  Y  Y7  1  0.61689420  0.84086801  0.38432119  1
  Y  Y8  1  0.61689420  0.84086801  0.11567881  1
  Y  Y9  1  0.11689420  0.65913199  0.38432119  1
  Y  Y10  1  0.88310580  0.34086801  0.88432119  1
  Y  Y11  1  0.38310580  0.15913199  0.61567881  1
  Y  Y12  1  0.03561794  0.82553625  0.89704767  1
  Y  Y13  1  0.53561794  0.67446375  0.60295233  1
  Y  Y14  1  0.46438206  0.32553625  0.10295233  1
  Y  Y15  1  0.96438206  0.17446375  0.39704767  1
  Y  Y16  1  0.96438206  0.17446375  0.10295233  1
  Y  Y17  1  0.46438206  0.32553625  0.39704767  1
  Y  Y18  1  0.53561794  0.67446375  0.89704767  1
  Y  Y19  1  0.03561794  0.82553625  0.60295233  1
  Ge  Ge0  1  0.33957420  0.86315826  0.75000000  1
  Ge  Ge1  1  0.83957420  0.63684174  0.75000000  1
  Ge  Ge2  1  0.16042580  0.36315826  0.25000000  1
  Ge  Ge3  1  0.66042580  0.13684174  0.25000000  1
  Ge  Ge4  1  0.08762747  0.11773543  0.75000000  1
  Ge  Ge5  1  0.58762747  0.38226457  0.75000000  1
  Ge  Ge6  1  0.41237253  0.61773543  0.25000000  1
  Ge  Ge7  1  0.91237253  0.88226357  0.25000000  1
  Ge  Ge8  1  0.22542431  0.47108748  0.95434510  1
  Ge  Ge9  1  0.72542431  0.02891252  0.54565490  1
  Ge  Ge10  1  0.27457569  0.97108748  0.04565490  1
  Ge  Ge11  1  0.77457569  0.52891252  0.45434510  1
  Ge  Ge12  1  0.77457569  0.52891252  0.04565490  1
  Ge  Ge13  1  0.27457569  0.97108748  0.45434510  1
  Ge  Ge14  1  0.72542431  0.02891252  0.95434510  1
  Ge  Ge15  1  0.22542431  0.47108748  0.54565490  1
loop_
_geom_bond_atom_site_label_1
_geom_bond_atom_site_label_2
_geom_bond_distance
_geom_bond_site_symmetry_2
Ge0 Ge4 2.756601 1_565
Ge0 Y3 2.975814 1_555
Ge0 Y18 3.011428 1_555
Ge0 Y13 3.011428 1_555
Ge0 Y4 3.041243 1_565
Ge0 Y11 3.041243 1_565
Ge0 Y2 3.098793 1_565
Ge0 Y19 3.193554 1_555
Ge0 Y12 3.193554 1_555
Ge1 Ge5 2.756601 1_555
Ge1 Y2 2.975814 1_565
Ge1 Y12 3.011428 1_655
Ge1 Y19 3.011428 1_655
Ge1 Y10 3.041243 1_555
Ge1 Y5 3.041243 1_555
Ge1 Y3 3.098793 1_655
Ge1 Y18 3.193554 1_555
Ge1 Y13 3.193554 1_555
Ge2 Ge6 2.756601 1_555
Ge2 Y1 2.975814 1_545
Ge2 Y15 3.011428 1_455
Ge2 Y16 3.011428 1_455
Ge2 Y6 3.041243 1_555
Ge2 Y9 3.041243 1_555
Ge2 Y0 3.098793 1_455
Ge2 Y17 3.193554 1_555
Ge2 Y14 3.193554 1_555
Ge3 Ge7 2.756606 1_545
Ge3 Y0 2.975814 1_555
Ge3 Y17 3.011428 1_555
Ge3 Y14 3.011428 1_555
Ge3 Y7 3.041243 1_545
Ge3 Y8 3.041243 1_545
Ge3 Y1 3.098793 1_545
Ge3 Y15 3.193554 1_555
Ge3 Y16 3.193554 1_555
Ge4 Y2 2.965718 1_455
Ge4 Y11 3.023594 1_555
Ge4 Y4 3.023594 1_555
Ge4 Y10 3.055978 1_455
Ge4 Y5 3.055978 1_455
Ge4 Y3 3.098607 1_555
Ge4 Y12 3.152786 1_545
Ge4 Y19 3.152786 1_545
Ge5 Y3 2.965718 1_555
Ge5 Y5 3.023594 1_555
Ge5 Y10 3.023594 1_555
Ge5 Y11 3.055978 1_555
Ge5 Y4 3.055978 1_555
Ge5 Y2 3.098607 1_555
Ge5 Y18 3.152786 1_555
Ge5 Y13 3.152786 1_555
Ge6 Y0 2.965718 1_555
Ge6 Y9 3.023594 1_555
Ge6 Y6 3.023594 1_555
Ge6 Y7 3.055978 1_555
Ge6 Y8 3.055978 1_555
Ge6 Y1 3.098607 1_555
Ge6 Y17 3.152786 1_555
Ge6 Y14 3.152786 1_555
Ge7 Y1 2.965721 1_655
Ge7 Y7 3.023593 1_555
Ge7 Y8 3.023593 1_555
Ge7 Y9 3.055974 1_655
Ge7 Y6 3.055974 1_655
Ge7 Y0 3.098600 1_555
Ge7 Y15 3.152792 1_565
Ge7 Y16 3.152792 1_565
Ge8 Y4 2.886566 1_555
Ge8 Y6 2.905540 1_556
Ge8 Y18 2.972337 1_555
Ge8 Y10 2.993496 1_455
Ge8 Y3 3.015038 1_555
Ge8 Y14 3.066741 1_556
Ge8 Y12 3.213642 1_555
Ge9 Y5 2.886566 1_555
Ge9 Y7 2.905540 1_545
Ge9 Y19 2.972337 1_645
Ge9 Y11 2.993496 1_555
Ge9 Y2 3.015038 1_555
Ge9 Y15 3.066741 1_555
Ge9 Y13 3.213642 1_545
Ge10 Y6 2.886566 1_555
Ge10 Y4 2.905540 1_564
Ge10 Y16 2.972337 1_465
Ge10 Y8 2.993496 1_555
Ge10 Y1 3.015038 1_555
Ge10 Y12 3.066741 1_554
Ge10 Y14 3.213642 1_565
Ge11 Y7 2.886566 1_555
Ge11 Y5 2.905540 1_555
Ge11 Y17 2.972337 1_555
Ge11 Y9 2.993496 1_655
Ge11 Y0 3.015038 1_555
Ge11 Y13 3.066741 1_555
Ge11 Y15 3.213642 1_555
Ge12 Y8 2.886566 1_555
Ge12 Y10 2.905540 1_554
Ge12 Y14 2.972337 1_555
Ge12 Y6 2.993496 1_655
Ge12 Y0 3.015038 1_555
Ge12 Y18 3.066741 1_554
Ge12 Y16 3.213642 1_555
Ge13 Y9 2.886566 1_555
Ge13 Y11 2.905540 1_565
Ge13 Y15 2.972337 1_465
Ge13 Y7 2.993496 1_555
Ge13 Y1 3.015038 1_555
Ge13 Y19 3.066741 1_555
Ge13 Y17 3.213642 1_565
Ge14 Y10 2.886566 1_555
Ge14 Y8 2.905540 1_546
Ge14 Y12 2.972337 1_645
Ge14 Y4 2.993496 1_555
Ge14 Y2 3.015038 1_555
Ge14 Y16 3.066741 1_556
Ge14 Y18 3.213642 1_545
Ge15 Y11 2.886566 1_555
Ge15 Y9 2.905540 1_555
Ge15 Y13 2.972337 1_555
Ge15 Y5 2.993496 1_455
Ge15 Y3 3.015038 1_555
Ge15 Y17 3.066741 1_555
Ge15 Y19 3.213642 1_555
