# generated using pymatgen
data_RbMgN
_symmetry_space_group_name_H-M   'P 1'
_cell_length_a   10.74472800
_cell_length_b   3.92303900
_cell_length_c   6.99187000
_cell_angle_alpha   90.00000000
_cell_angle_beta   90.00000000
_cell_angle_gamma   90.00000000
_symmetry_Int_Tables_number   1
_chemical_formula_structural   RbMgN
_chemical_formula_sum   'Rb4 Mg4 N4'
_cell_volume   294.72121326
_cell_formula_units_Z   4
loop_
 _symmetry_equiv_pos_site_id
 _symmetry_equiv_pos_as_xyz
  1  'x, y, z'
loop_
 _atom_site_type_symbol
 _atom_site_label
 _atom_site_symmetry_multiplicity
 _atom_site_fract_x
 _atom_site_fract_y
 _atom_site_fract_z
 _atom_site_occupancy
  Rb  Rb0  1  0.66268300  0.25000000  0.04504000  1
  Rb  Rb1  1  0.16268300  0.25000000  0.45496000  1
  Rb  Rb2  1  0.33731700  0.75000000  0.95496000  1
  Rb  Rb3  1  0.83731700  0.75000000  0.54504000  1
  Mg  Mg0  1  0.53859800  0.25000000  0.60491900  1
  Mg  Mg1  1  0.03859800  0.25000000  0.89508100  1
  Mg  Mg2  1  0.46140200  0.75000000  0.39508100  1
  Mg  Mg3  1  0.96140200  0.75000000  0.10491900  1
  N  N0  1  0.94194200  0.25000000  0.17090900  1
  N  N1  1  0.44194200  0.25000000  0.32909100  1
  N  N2  1  0.05805800  0.75000000  0.82909100  1
  N  N3  1  0.55805800  0.75000000  0.67090900  1
loop_
_geom_bond_atom_site_label_1
_geom_bond_atom_site_label_2
_geom_bond_distance
_geom_bond_site_symmetry_2
Mg0 N3 2.025873 1_545
Mg0 N3 2.025873 1_555
Mg0 N1 2.190408 1_555
Mg1 N2 2.025873 1_555
Mg1 N2 2.025873 1_545
Mg1 N0 2.190408 1_456
Mg2 N1 2.025873 1_565
Mg2 N1 2.025873 1_555
Mg2 N3 2.190408 1_555
Mg3 N0 2.025873 1_565
Mg3 N0 2.025873 1_555
Mg3 N2 2.190408 1_654
N0 Rb1 3.093514 1_655
N0 Rb0 3.126960 1_555
N0 Rb3 3.457472 1_545
N0 Rb3 3.457472 1_555
N1 Rb0 3.093514 1_555
N1 Rb1 3.126960 1_555
N1 Rb2 3.457472 1_544
N1 Rb2 3.457472 1_554
N2 Rb3 3.093514 1_455
N2 Rb2 3.126960 1_555
N2 Rb1 3.457472 1_555
N2 Rb1 3.457472 1_565
N3 Rb2 3.093514 1_555
N3 Rb3 3.126960 1_555
N3 Rb0 3.457472 1_566
N3 Rb0 3.457472 1_556
