# generated using pymatgen
data_Lu3Mg2WS8
_symmetry_space_group_name_H-M   'P 1'
_cell_length_a   7.73540599
_cell_length_b   7.61200203
_cell_length_c   7.73557700
_cell_angle_alpha   59.46022149
_cell_angle_beta   59.99595456
_cell_angle_gamma   59.45793888
_symmetry_Int_Tables_number   1
_chemical_formula_structural   Lu3Mg2WS8
_chemical_formula_sum   'Lu3 Mg2 W1 S8'
_cell_volume   319.40893491
_cell_formula_units_Z   1
loop_
 _symmetry_equiv_pos_site_id
 _symmetry_equiv_pos_as_xyz
  1  'x, y, z'
loop_
 _atom_site_type_symbol
 _atom_site_label
 _atom_site_symmetry_multiplicity
 _atom_site_fract_x
 _atom_site_fract_y
 _atom_site_fract_z
 _atom_site_occupancy
  Lu  Lu0  1  0.50000400  0.50001200  0.49997600  1
  Lu  Lu1  1  0.49999900  0.49998200  0.00000000  1
  Lu  Lu2  1  0.00000900  0.49998100  0.50001700  1
  Mg  Mg0  1  0.87481700  0.87553100  0.87482600  1
  Mg  Mg1  1  0.12519600  0.12445100  0.12516600  1
  W  W0  1  0.49996300  0.00000800  0.50000400  1
  S  S0  1  0.73453600  0.76013700  0.73457700  1
  S  S1  1  0.26541600  0.23990800  0.72925800  1
  S  S2  1  0.25644800  0.73068300  0.25644300  1
  S  S3  1  0.72926600  0.23987700  0.26541000  1
  S  S4  1  0.74354900  0.26930500  0.74355500  1
  S  S5  1  0.27073500  0.76013300  0.73456400  1
  S  S6  1  0.26544100  0.23988300  0.26544200  1
  S  S7  1  0.73462600  0.76010400  0.27076300  1
loop_
_geom_bond_atom_site_label_1
_geom_bond_atom_site_label_2
_geom_bond_distance
_geom_bond_site_symmetry_2
Lu0 S2 2.647146 1_555
Lu0 S4 2.647327 1_555
Lu0 S1 2.687486 1_555
Lu0 S3 2.687487 1_555
Lu0 S5 2.687527 1_555
Lu0 S7 2.687635 1_555
Lu1 S4 2.647241 1_554
Lu1 S2 2.647355 1_555
Lu1 S6 2.687304 1_555
Lu1 S3 2.687421 1_555
Lu1 S0 2.687483 1_554
Lu1 S5 2.687555 1_554
Lu2 S4 2.647377 1_455
Lu2 S2 2.647393 1_555
Lu2 S7 2.687192 1_455
Lu2 S1 2.687254 1_555
Lu2 S6 2.687309 1_555
Lu2 S0 2.687553 1_455
Mg0 S4 2.427199 1_565
Mg0 S5 2.497873 1_655
Mg0 S7 2.498090 1_556
Mg0 S0 2.498137 1_555
Mg1 S2 2.427162 1_545
Mg1 S1 2.497892 1_554
Mg1 S3 2.497939 1_455
Mg1 S6 2.498309 1_555
S0 W0 2.545107 1_565
S1 W0 2.545070 1_555
S3 W0 2.545231 1_555
S5 W0 2.544854 1_565
S6 W0 2.544768 1_555
S7 W0 2.545021 1_565
