# generated using pymatgen
data_ErCd6
_symmetry_space_group_name_H-M   'P 1'
_cell_length_a   13.44746208
_cell_length_b   13.44746208
_cell_length_c   13.44746208
_cell_angle_alpha   110.07244509
_cell_angle_beta   109.71361747
_cell_angle_gamma   108.63105536
_symmetry_Int_Tables_number   1
_chemical_formula_structural   ErCd6
_chemical_formula_sum   'Er12 Cd72'
_cell_volume   1871.65090915
_cell_formula_units_Z   12
loop_
 _symmetry_equiv_pos_site_id
 _symmetry_equiv_pos_as_xyz
  1  'x, y, z'
loop_
 _atom_site_type_symbol
 _atom_site_label
 _atom_site_symmetry_multiplicity
 _atom_site_fract_x
 _atom_site_fract_y
 _atom_site_fract_z
 _atom_site_occupancy
  Er  Er0  1  0.80702640  0.50882492  0.70179851  1
  Er  Er1  1  0.19297360  0.49117508  0.29820149  1
  Er  Er2  1  0.19297360  0.89477211  0.70179851  1
  Er  Er3  1  0.80702640  0.10522789  0.29820149  1
  Er  Er4  1  0.11114982  0.30314260  0.80800722  1
  Er  Er5  1  0.88885018  0.69685740  0.19199278  1
  Er  Er6  1  0.49513538  0.30314260  0.19199278  1
  Er  Er7  1  0.50486462  0.69685740  0.80800722  1
  Er  Er8  1  0.29830160  0.18648653  0.48478812  1
  Er  Er9  1  0.70169840  0.81351347  0.51521188  1
  Er  Er10  1  0.29830160  0.81351347  0.11181607  1
  Er  Er11  1  0.70169840  0.18648653  0.88818393  1
  Cd  Cd0  1  0.99699978  0.67615769  0.00104276  1
  Cd  Cd1  1  0.32488507  0.32384231  0.32084208  1
  Cd  Cd2  1  0.00300022  0.00404298  0.67915792  1
  Cd  Cd3  1  0.67511493  0.99595702  0.99895724  1
  Cd  Cd4  1  0.00300022  0.32384231  0.99895724  1
  Cd  Cd5  1  0.67511493  0.67615769  0.67915792  1
  Cd  Cd6  1  0.99699978  0.99595702  0.32084208  1
  Cd  Cd7  1  0.32488507  0.00404298  0.00104276  1
  Cd  Cd8  1  0.59458200  0.24676160  0.65217859  1
  Cd  Cd9  1  0.40541800  0.75323840  0.34782141  1
  Cd  Cd10  1  0.40541800  0.05759659  0.65217859  1
  Cd  Cd11  1  0.59458200  0.94240341  0.34782141  1
  Cd  Cd12  1  0.94140492  0.34684979  0.59455513  1
  Cd  Cd13  1  0.05859508  0.65315021  0.40544487  1
  Cd  Cd14  1  0.75229566  0.34684979  0.40544487  1
  Cd  Cd15  1  0.24770434  0.65315021  0.59455513  1
  Cd  Cd16  1  0.34305202  0.40234412  0.74539614  1
  Cd  Cd17  1  0.65694798  0.59765588  0.25460386  1
  Cd  Cd18  1  0.34305202  0.59765588  0.94070790  1
  Cd  Cd19  1  0.65694798  0.40234412  0.05929210  1
  Cd  Cd20  1  0.73906793  0.64336170  0.90429378  1
  Cd  Cd21  1  0.26093207  0.35663830  0.09570622  1
  Cd  Cd22  1  0.26093207  0.16522485  0.90429378  1
  Cd  Cd23  1  0.73906793  0.83477515  0.09570622  1
  Cd  Cd24  1  0.86318469  0.09023049  0.77295520  1
  Cd  Cd25  1  0.13681531  0.90976951  0.22704480  1
  Cd  Cd26  1  0.31727530  0.09023049  0.22704480  1
  Cd  Cd27  1  0.68272470  0.90976951  0.77295520  1
  Cd  Cd28  1  0.09462011  0.23845864  0.33307976  1
  Cd  Cd29  1  0.90537989  0.76154136  0.66692024  1
  Cd  Cd30  1  0.09462011  0.76154136  0.85616147  1
  Cd  Cd31  1  0.90537989  0.23845864  0.14383853  1
  Cd  Cd32  1  0.58778413  0.58778413  -0.00000000  1
  Cd  Cd33  1  0.41221587  0.41221587  0.00000000  1
  Cd  Cd34  1  0.59802148  -0.00000000  0.59802148  1
  Cd  Cd35  1  0.40197852  0.00000000  0.40197852  1
  Cd  Cd36  1  0.00000000  0.40370000  0.40370000  1
  Cd  Cd37  1  -0.00000000  0.59630000  0.59630000  1
  Cd  Cd38  1  0.50000000  0.30959318  0.80959318  1
  Cd  Cd39  1  0.50000000  0.69040682  0.19040682  1
  Cd  Cd40  1  0.69159626  0.19159626  0.50000000  1
  Cd  Cd41  1  0.30840374  0.80840374  0.50000000  1
  Cd  Cd42  1  0.18783865  0.50000000  0.68783865  1
  Cd  Cd43  1  0.81216135  0.50000000  0.31216135  1
  Cd  Cd44  1  0.78102125  0.45165376  0.91857628  1
  Cd  Cd45  1  0.46692252  0.54834624  0.32936749  1
  Cd  Cd46  1  0.21897875  0.13755503  0.67063251  1
  Cd  Cd47  1  0.53307748  0.86244497  0.08142372  1
  Cd  Cd48  1  0.86001959  0.08599810  0.54649691  1
  Cd  Cd49  1  0.13998041  0.68647732  0.22597851  1
  Cd  Cd50  1  0.53950119  0.31352268  0.45350309  1
  Cd  Cd51  1  0.46049881  0.91400190  0.77402149  1
  Cd  Cd52  1  0.31674135  0.45908431  0.53773383  1
  Cd  Cd53  1  0.92134948  0.77900752  0.46226617  1
  Cd  Cd54  1  0.07865052  0.54091569  0.85765704  1
  Cd  Cd55  1  0.68325865  0.22099248  0.14234296  1
  Cd  Cd56  1  0.21897875  0.54834624  0.08142372  1
  Cd  Cd57  1  0.53307748  0.45165376  0.67063251  1
  Cd  Cd58  1  0.78102125  0.86244497  0.32936749  1
  Cd  Cd59  1  0.46692252  0.13755503  0.91857628  1
  Cd  Cd60  1  0.13998041  0.91400190  0.45350309  1
  Cd  Cd61  1  0.86001959  0.31352268  0.77402149  1
  Cd  Cd62  1  0.46049881  0.68647732  0.54649691  1
  Cd  Cd63  1  0.53950119  0.08599810  0.22597851  1
  Cd  Cd64  1  0.68325865  0.54091569  0.46226617  1
  Cd  Cd65  1  0.07865052  0.22099248  0.53773383  1
  Cd  Cd66  1  0.92134948  0.45908431  0.14234296  1
  Cd  Cd67  1  0.31674135  0.77900752  0.85765704  1
  Cd  Cd68  1  0.91368449  0.82392415  0.91023966  1
  Cd  Cd69  1  0.08631551  0.17607585  0.08976034  1
  Cd  Cd70  1  0.08631551  0.99655516  0.91023966  1
  Cd  Cd71  1  0.91368449  0.00344484  0.08976034  1
loop_
_geom_bond_atom_site_label_1
_geom_bond_atom_site_label_2
_geom_bond_distance
_geom_bond_site_symmetry_2
Cd0 Cd25 2.908261 1_655
Cd0 Cd49 2.912628 1_655
Cd0 Cd54 2.920294 1_654
Cd0 Cd44 2.950605 1_554
Cd0 Cd68 2.976541 1_554
Cd0 Cd30 3.022477 1_654
Cd0 Cd20 3.082565 1_554
Cd0 Er0 3.310444 1_554
Cd0 Er5 3.327698 1_555
Cd0 Er10 3.362298 1_655
Cd1 Cd26 2.908262 1_555
Cd1 Cd50 2.912628 1_555
Cd1 Cd52 2.920284 1_555
Cd1 Cd45 2.950605 1_555
Cd1 Cd69 2.976541 1_555
Cd1 Cd28 3.022484 1_555
Cd1 Cd21 3.082565 1_555
Cd1 Er1 3.310444 1_555
Cd1 Er6 3.327698 1_555
Cd1 Er8 3.362300 1_555
Cd2 Cd24 2.908274 1_455
Cd2 Cd48 2.912628 1_455
Cd2 Cd53 2.920280 1_445
Cd2 Cd46 2.950605 1_555
Cd2 Cd70 2.976541 1_545
Cd2 Cd29 3.022471 1_445
Cd2 Cd22 3.082565 1_555
Cd2 Er2 3.310444 1_545
Cd2 Er4 3.327698 1_555
Cd2 Er9 3.362300 1_445
Cd3 Cd51 2.912628 1_555
Cd3 Cd55 2.920284 1_566
Cd3 Cd47 2.950605 1_556
Cd3 Cd71 2.976541 1_566
Cd3 Cd31 3.022477 1_566
Cd3 Er3 3.310444 1_566
Cd3 Er7 3.327698 1_555
Cd3 Er11 3.362310 1_565
Cd4 Cd61 2.912628 1_455
Cd4 Cd66 2.920294 1_456
Cd4 Cd56 2.950605 1_556
Cd4 Cd69 2.976541 1_556
Cd4 Er1 3.310444 1_556
Cd4 Er4 3.327698 1_555
Cd4 Er11 3.362298 1_455
Cd5 Cd62 2.912628 1_555
Cd5 Cd64 2.920284 1_555
Cd5 Cd57 2.950605 1_555
Cd5 Cd68 2.976541 1_555
Cd5 Er0 3.310444 1_555
Cd5 Er7 3.327698 1_555
Cd5 Er9 3.362300 1_555
Cd6 Cd60 2.912628 1_655
Cd6 Cd65 2.920280 1_665
Cd6 Cd71 2.976541 1_565
Cd6 Er3 3.310444 1_565
Cd6 Er5 3.327698 1_555
Cd6 Er8 3.362300 1_665
Cd7 Cd70 2.976541 1_544
Cd7 Er2 3.310444 1_544
Cd7 Er6 3.327698 1_555
Cd7 Er10 3.362310 1_545
Cd8 Er0 3.419513 1_555
Cd8 Er8 3.497382 1_555
Cd8 Er11 3.497385 1_555
Cd9 Er1 3.419513 1_555
Cd9 Er9 3.497382 1_555
Cd9 Er10 3.497385 1_555
Cd10 Cd41 2.795983 1_545
Cd10 Cd38 2.843921 1_555
Cd10 Cd8 2.967684 1_555
Cd10 Cd60 3.037893 1_545
Cd10 Cd51 3.037893 1_545
Cd10 Cd46 3.076114 1_555
Cd10 Cd59 3.076114 1_555
Cd10 Cd35 3.163168 1_555
Cd10 Cd34 3.163168 1_555
Cd10 Er2 3.419522 1_545
Cd10 Er11 3.497382 1_555
Cd10 Er8 3.497387 1_555
Cd11 Cd40 2.795983 1_565
Cd11 Cd39 2.843921 1_555
Cd11 Cd9 2.967684 1_555
Cd11 Cd63 3.037893 1_565
Cd11 Cd48 3.037893 1_565
Cd11 Cd47 3.076114 1_555
Cd11 Cd58 3.076114 1_555
Cd11 Cd35 3.163168 1_565
Cd11 Cd34 3.163168 1_565
Cd11 Er3 3.419522 1_565
Cd11 Er10 3.497382 1_555
Cd11 Er9 3.497387 1_555
Cd12 Cd42 2.803290 1_655
Cd12 Cd40 2.841713 1_555
Cd12 Cd14 2.927666 1_555
Cd12 Cd54 2.985631 1_655
Cd12 Cd65 2.985644 1_655
Cd12 Cd61 3.071462 1_555
Cd12 Cd48 3.071462 1_555
Cd12 Cd37 3.180969 1_655
Cd12 Cd36 3.180969 1_655
Cd12 Er4 3.374909 1_655
Cd12 Er3 3.493772 1_555
Cd12 Er0 3.493772 1_555
Cd13 Cd43 2.803290 1_455
Cd13 Cd41 2.841713 1_555
Cd13 Cd15 2.927666 1_555
Cd13 Cd66 2.985631 1_455
Cd13 Cd53 2.985644 1_455
Cd13 Cd60 3.071462 1_555
Cd13 Cd49 3.071462 1_555
Cd13 Cd37 3.180969 1_555
Cd13 Cd36 3.180969 1_555
Cd13 Er5 3.374909 1_455
Cd13 Er2 3.493772 1_555
Cd13 Er1 3.493772 1_555
Cd14 Cd43 2.803287 1_555
Cd14 Cd40 2.841716 1_555
Cd14 Cd55 2.985628 1_555
Cd14 Cd64 2.985641 1_555
Cd14 Cd63 3.071466 1_555
Cd14 Cd50 3.071474 1_555
Cd14 Cd36 3.180956 1_655
Cd14 Cd37 3.180963 1_655
Cd14 Er6 3.374918 1_555
Cd14 Er3 3.493763 1_555
Cd14 Er0 3.493777 1_555
Cd15 Cd42 2.803287 1_555
Cd15 Cd41 2.841716 1_555
Cd15 Cd67 2.985628 1_555
Cd15 Cd52 2.985641 1_555
Cd15 Cd51 3.071466 1_555
Cd15 Cd62 3.071474 1_555
Cd15 Cd37 3.180956 1_555
Cd15 Cd36 3.180963 1_555
Cd15 Er7 3.374918 1_555
Cd15 Er2 3.493763 1_555
Cd15 Er1 3.493777 1_555
Cd16 Cd38 2.819084 1_555
Cd16 Cd42 2.835367 1_555
Cd16 Cd18 3.010216 1_555
Cd16 Cd57 3.014717 1_555
Cd16 Cd46 3.014717 1_555
Cd16 Cd65 3.077994 1_555
Cd16 Cd52 3.078002 1_555
Cd16 Cd32 3.172654 1_556
Cd16 Cd33 3.172654 1_556
Cd16 Er8 3.398245 1_555
Cd16 Er7 3.478182 1_555
Cd16 Er4 3.478182 1_555
Cd17 Cd39 2.819084 1_555
Cd17 Cd43 2.835367 1_555
Cd17 Cd19 3.010216 1_555
Cd17 Cd45 3.014717 1_555
Cd17 Cd58 3.014717 1_555
Cd17 Cd53 3.077994 1_555
Cd17 Cd64 3.078002 1_555
Cd17 Cd32 3.172654 1_555
Cd17 Cd33 3.172654 1_555
Cd17 Er9 3.398245 1_555
Cd17 Er5 3.478182 1_555
Cd17 Er6 3.478182 1_555
Cd18 Cd39 2.819084 1_556
Cd18 Cd42 2.835367 1_555
Cd18 Cd47 3.014717 1_556
Cd18 Cd56 3.014717 1_556
Cd18 Cd54 3.077989 1_555
Cd18 Cd67 3.078002 1_555
Cd18 Cd32 3.172654 1_556
Cd18 Cd33 3.172654 1_556
Cd18 Er10 3.398251 1_556
Cd18 Er7 3.478182 1_555
Cd18 Er4 3.478182 1_555
Cd19 Cd38 2.819084 1_554
Cd19 Cd43 2.835367 1_555
Cd19 Cd44 3.014717 1_554
Cd19 Cd59 3.014717 1_554
Cd19 Cd66 3.077989 1_555
Cd19 Cd55 3.078002 1_555
Cd19 Cd32 3.172654 1_555
Cd19 Cd33 3.172654 1_555
Cd19 Er11 3.398251 1_554
Cd19 Er5 3.478182 1_555
Cd19 Er6 3.478182 1_555
Cd20 Cd68 2.740983 1_555
Cd20 Cd32 2.794425 1_556
Cd20 Cd44 2.863082 1_555
Cd20 Cd57 2.863082 1_555
Cd20 Cd23 2.950126 1_556
Cd20 Cd5 3.082565 1_555
Cd20 Er0 3.298015 1_555
Cd20 Er5 3.383621 1_556
Cd20 Er7 3.383621 1_555
Cd21 Cd69 2.740983 1_555
Cd21 Cd33 2.794425 1_555
Cd21 Cd56 2.863082 1_555
Cd21 Cd45 2.863082 1_555
Cd21 Cd22 2.950126 1_554
Cd21 Cd4 3.082565 1_554
Cd21 Er1 3.298015 1_555
Cd21 Er4 3.383621 1_554
Cd21 Er6 3.383621 1_555
Cd22 Cd70 2.740975 1_545
Cd22 Cd33 2.794436 1_556
Cd22 Cd59 2.863076 1_555
Cd22 Cd46 2.863086 1_555
Cd22 Cd7 3.082553 1_556
Cd22 Er2 3.298005 1_545
Cd22 Er6 3.383619 1_556
Cd22 Er4 3.383632 1_555
Cd23 Cd71 2.740975 1_565
Cd23 Cd32 2.794436 1_555
Cd23 Cd47 2.863076 1_555
Cd23 Cd58 2.863086 1_555
Cd23 Cd3 3.082553 1_554
Cd23 Cd6 3.082565 1_555
Cd23 Er3 3.298005 1_565
Cd23 Er7 3.383619 1_554
Cd23 Er5 3.383632 1_555
Cd24 Cd27 2.831132 1_545
Cd24 Cd4 2.908261 1_655
Cd24 Cd61 3.011780 1_555
Cd24 Cd48 3.011789 1_555
Cd24 Cd34 3.055836 1_555
Cd24 Er4 3.384046 1_655
Cd24 Er11 3.388459 1_555
Cd24 Er9 3.388480 1_545
Cd25 Cd26 2.831132 1_565
Cd25 Cd6 2.908274 1_455
Cd25 Cd49 3.011780 1_555
Cd25 Cd60 3.011789 1_555
Cd25 Cd35 3.055836 1_565
Cd25 Er5 3.384046 1_455
Cd25 Er10 3.388459 1_555
Cd25 Er8 3.388480 1_565
Cd26 Cd7 2.908262 1_555
Cd26 Cd63 3.011785 1_555
Cd26 Cd50 3.011785 1_555
Cd26 Cd35 3.055847 1_555
Cd26 Er6 3.384037 1_555
Cd26 Er10 3.388478 1_545
Cd26 Er8 3.388479 1_555
Cd27 Cd3 2.908262 1_555
Cd27 Cd5 2.908262 1_555
Cd27 Cd51 3.011785 1_555
Cd27 Cd62 3.011785 1_555
Cd27 Cd34 3.055847 1_565
Cd27 Er7 3.384037 1_555
Cd27 Er11 3.388478 1_565
Cd27 Er9 3.388479 1_555
Cd28 Cd65 2.912971 1_555
Cd28 Cd52 2.912987 1_555
Cd28 Cd31 2.929693 1_455
Cd28 Cd36 2.937981 1_555
Cd28 Cd6 3.022471 1_445
Cd28 Cd71 3.038394 1_455
Cd28 Cd69 3.038401 1_555
Cd28 Er8 3.253399 1_555
Cd28 Er3 3.486971 1_455
Cd28 Er1 3.486985 1_555
Cd29 Cd53 2.912971 1_555
Cd29 Cd64 2.912987 1_555
Cd29 Cd30 2.929693 1_655
Cd29 Cd37 2.937981 1_655
Cd29 Cd5 3.022484 1_555
Cd29 Cd70 3.038394 1_655
Cd29 Cd68 3.038401 1_555
Cd29 Er9 3.253399 1_555
Cd29 Er2 3.486971 1_655
Cd29 Er0 3.486985 1_555
Cd30 Cd67 2.912990 1_555
Cd30 Cd54 2.912993 1_555
Cd30 Cd37 2.937984 1_555
Cd30 Cd7 3.022477 1_566
Cd30 Cd70 3.038387 1_555
Cd30 Cd68 3.038388 1_455
Cd30 Er10 3.253414 1_556
Cd30 Er0 3.486977 1_455
Cd30 Er2 3.486977 1_555
Cd31 Cd55 2.912990 1_555
Cd31 Cd66 2.912993 1_555
Cd31 Cd36 2.937984 1_655
Cd31 Cd4 3.022477 1_654
Cd31 Cd71 3.038387 1_555
Cd31 Cd69 3.038388 1_655
Cd31 Er11 3.253414 1_554
Cd31 Er1 3.486977 1_655
Cd31 Er3 3.486977 1_555
Cd32 Cd33 2.754381 1_555
Cd32 Cd38 3.241704 1_554
Cd32 Cd39 3.241704 1_555
Cd32 Er7 3.429680 1_554
Cd32 Er5 3.429680 1_555
Cd33 Cd39 3.241704 1_555
Cd33 Cd38 3.241704 1_554
Cd33 Er4 3.429680 1_554
Cd33 Er6 3.429680 1_555
Cd34 Cd35 3.035001 1_555
Cd34 Cd9 3.163174 1_545
Cd34 Cd8 3.163181 1_555
Cd34 Er11 3.291982 1_555
Cd34 Er9 3.291992 1_545
Cd34 Cd40 3.367172 1_555
Cd34 Cd41 3.367172 1_545
Cd35 Cd8 3.163174 1_555
Cd35 Cd9 3.163181 1_545
Cd35 Er10 3.291982 1_545
Cd35 Er8 3.291992 1_555
Cd35 Cd40 3.367172 1_555
Cd35 Cd41 3.367172 1_545
Cd36 Cd37 2.968421 1_555
Cd36 Cd43 3.264854 1_455
Cd36 Cd42 3.264854 1_555
Cd36 Er1 3.436455 1_555
Cd36 Er3 3.436455 1_455
Cd37 Cd43 3.264854 1_455
Cd37 Cd42 3.264854 1_555
Cd37 Er0 3.436455 1_455
Cd37 Er2 3.436455 1_555
Cd38 Cd8 2.843918 1_555
Cd38 Cd44 3.131682 1_555
Cd38 Cd57 3.131682 1_555
Cd38 Cd46 3.131682 1_555
Cd38 Cd59 3.131682 1_555
Cd38 Er11 3.653809 1_555
Cd38 Er8 3.653812 1_555
Cd39 Cd9 2.843918 1_555
Cd39 Cd45 3.131682 1_555
Cd39 Cd58 3.131682 1_555
Cd39 Cd56 3.131682 1_555
Cd39 Cd47 3.131682 1_555
Cd39 Er10 3.653809 1_555
Cd39 Er9 3.653812 1_555
Cd40 Cd8 2.795986 1_555
Cd40 Cd50 3.040739 1_555
Cd40 Cd63 3.040739 1_555
Cd40 Cd61 3.040739 1_555
Cd40 Cd48 3.040739 1_555
Cd40 Er3 3.598985 1_555
Cd40 Er0 3.598985 1_555
Cd41 Cd9 2.795986 1_555
Cd41 Cd60 3.040739 1_555
Cd41 Cd49 3.040739 1_555
Cd41 Cd62 3.040739 1_555
Cd41 Cd51 3.040739 1_555
Cd41 Er2 3.598985 1_555
Cd41 Er1 3.598985 1_555
Cd42 Cd54 3.096679 1_555
Cd42 Cd52 3.096689 1_555
Cd42 Cd67 3.096689 1_555
Cd42 Cd65 3.096691 1_555
Cd42 Er7 3.605414 1_555
Cd42 Er4 3.605414 1_555
Cd43 Cd66 3.096679 1_555
Cd43 Cd55 3.096689 1_555
Cd43 Cd64 3.096689 1_555
Cd43 Cd53 3.096691 1_555
Cd43 Er5 3.605414 1_555
Cd43 Er6 3.605414 1_555
Cd44 Cd66 2.909971 1_556
Cd44 Cd61 2.921145 1_555
Cd44 Cd8 3.076110 1_555
Cd44 Er11 3.208614 1_555
Cd44 Er0 3.356420 1_555
Cd44 Er5 3.394138 1_556
Cd45 Cd64 2.909975 1_555
Cd45 Cd62 2.921145 1_555
Cd45 Cd9 3.076101 1_555
Cd45 Er9 3.208619 1_555
Cd45 Er1 3.356420 1_555
Cd45 Er6 3.394138 1_555
Cd46 Cd65 2.909967 1_555
Cd46 Cd60 2.921145 1_545
Cd46 Er8 3.208619 1_555
Cd46 Er2 3.356420 1_545
Cd46 Er4 3.394138 1_555
Cd47 Cd67 2.909975 1_554
Cd47 Cd63 2.921145 1_565
Cd47 Er10 3.208626 1_555
Cd47 Er3 3.356420 1_565
Cd47 Er7 3.394138 1_554
Cd48 Cd58 2.921145 1_545
Cd48 Cd65 2.987228 1_655
Cd48 Er3 3.290656 1_555
Cd48 Er4 3.307063 1_655
Cd48 Er9 3.389588 1_545
Cd49 Cd56 2.921145 1_555
Cd49 Cd66 2.987224 1_455
Cd49 Cd9 3.037896 1_555
Cd49 Er1 3.290656 1_555
Cd49 Er5 3.307063 1_455
Cd49 Er10 3.389577 1_555
Cd50 Cd57 2.921145 1_555
Cd50 Cd64 2.987217 1_555
Cd50 Cd8 3.037884 1_555
Cd50 Er0 3.290656 1_555
Cd50 Er6 3.307063 1_555
Cd50 Er8 3.389588 1_555
Cd51 Cd59 2.921145 1_565
Cd51 Cd67 2.987217 1_555
Cd51 Er2 3.290656 1_555
Cd51 Er7 3.307063 1_555
Cd51 Er11 3.389591 1_565
Cd52 Cd57 2.909975 1_555
Cd52 Cd62 2.987217 1_555
Cd52 Er7 3.238025 1_555
Cd52 Er1 3.335880 1_555
Cd52 Er8 3.393332 1_555
Cd53 Cd58 2.909967 1_555
Cd53 Cd60 2.987228 1_655
Cd53 Er5 3.238030 1_555
Cd53 Er2 3.335888 1_655
Cd53 Er9 3.393319 1_555
Cd54 Cd56 2.909971 1_556
Cd54 Cd61 2.987224 1_455
Cd54 Er4 3.238018 1_555
Cd54 Er0 3.335891 1_455
Cd54 Er10 3.393334 1_556
Cd55 Cd59 2.909975 1_554
Cd55 Cd63 2.987217 1_555
Cd55 Er6 3.238025 1_555
Cd55 Er3 3.335880 1_555
Cd55 Er11 3.393345 1_554
Cd56 Cd9 3.076110 1_555
Cd56 Er10 3.208614 1_555
Cd56 Er1 3.356420 1_555
Cd56 Er4 3.394138 1_554
Cd57 Cd8 3.076101 1_555
Cd57 Er8 3.208619 1_555
Cd57 Er0 3.356420 1_555
Cd57 Er7 3.394138 1_555
Cd58 Cd6 2.950605 1_555
Cd58 Er9 3.208619 1_555
Cd58 Er3 3.356420 1_565
Cd58 Er5 3.394138 1_555
Cd59 Cd7 2.950605 1_556
Cd59 Er11 3.208626 1_555
Cd59 Er2 3.356420 1_545
Cd59 Er6 3.394138 1_556
Cd60 Er2 3.290656 1_555
Cd60 Er5 3.307063 1_455
Cd60 Er8 3.389588 1_565
Cd61 Cd8 3.037896 1_555
Cd61 Er0 3.290656 1_555
Cd61 Er4 3.307063 1_655
Cd61 Er11 3.389577 1_555
Cd62 Cd9 3.037884 1_555
Cd62 Er1 3.290656 1_555
Cd62 Er7 3.307063 1_555
Cd62 Er9 3.389588 1_555
Cd63 Cd7 2.912628 1_555
Cd63 Er3 3.290656 1_555
Cd63 Er6 3.307063 1_555
Cd63 Er10 3.389591 1_545
Cd64 Er6 3.238025 1_555
Cd64 Er0 3.335880 1_555
Cd64 Er9 3.393332 1_555
Cd65 Er4 3.238030 1_555
Cd65 Er3 3.335888 1_455
Cd65 Er8 3.393319 1_555
Cd66 Er5 3.238018 1_555
Cd66 Er1 3.335891 1_655
Cd66 Er11 3.393334 1_554
Cd67 Cd7 2.920284 1_566
Cd67 Er7 3.238025 1_555
Cd67 Er2 3.335880 1_555
Cd67 Er10 3.393345 1_556
Cd68 Cd70 2.708300 1_655
Cd68 Cd71 2.766838 1_566
Cd68 Er0 3.622225 1_555
Cd69 Cd71 2.708300 1_455
Cd69 Cd70 2.766838 1_544
Cd69 Er1 3.622225 1_555
Cd70 Er2 3.622226 1_555
Cd71 Er3 3.622226 1_555
