# generated using pymatgen
data_B2H26C8N20Cl2O
_symmetry_space_group_name_H-M   'P 1'
_cell_length_a   9.49200760
_cell_length_b   15.74745520
_cell_length_c   16.07980640
_cell_angle_alpha   90.00000000
_cell_angle_beta   90.00000000
_cell_angle_gamma   90.00000000
_symmetry_Int_Tables_number   1
_chemical_formula_structural   B2H26C8N20Cl2O
_chemical_formula_sum   'B8 H104 C32 N80 Cl8 O4'
_cell_volume   2403.52848983
_cell_formula_units_Z   4
loop_
 _symmetry_equiv_pos_site_id
 _symmetry_equiv_pos_as_xyz
  1  'x, y, z'
loop_
 _atom_site_type_symbol
 _atom_site_label
 _atom_site_symmetry_multiplicity
 _atom_site_fract_x
 _atom_site_fract_y
 _atom_site_fract_z
 _atom_site_occupancy
  B  B0  1  0.79591673  0.58103896  0.41576131  1
  B  B1  1  0.70408327  0.08103896  0.08423869  1
  B  B2  1  0.70408327  0.41896104  0.91576131  1
  B  B3  1  0.79591673  0.91896104  0.58423869  1
  B  B4  1  0.20408327  0.41896104  0.58423869  1
  B  B5  1  0.29591673  0.91896104  0.91576131  1
  B  B6  1  0.29591673  0.58103896  0.08423869  1
  B  B7  1  0.20408327  0.08103896  0.41576131  1
  H  H0  1  0.74998472  0.45198161  0.46105314  1
  H  H1  1  0.75001528  0.95198161  0.03894686  1
  H  H2  1  0.75001528  0.54801839  0.96105314  1
  H  H3  1  0.74998472  0.04801839  0.53894686  1
  H  H4  1  0.25001528  0.54801839  0.53894686  1
  H  H5  1  0.24998472  0.04801839  0.96105314  1
  H  H6  1  0.24998472  0.45198161  0.03894686  1
  H  H7  1  0.25001528  0.95198161  0.46105314  1
  H  H8  1  0.56854722  0.36254890  0.42898392  1
  H  H9  1  0.93145278  0.86254890  0.07101608  1
  H  H10  1  0.93145278  0.63745110  0.92898392  1
  H  H11  1  0.56854722  0.13745110  0.57101608  1
  H  H12  1  0.43145278  0.63745110  0.57101608  1
  H  H13  1  0.06854722  0.13745110  0.92898392  1
  H  H14  1  0.06854722  0.36254890  0.07101608  1
  H  H15  1  0.43145278  0.86254890  0.42898392  1
  H  H16  1  0.42808416  0.39941015  0.36982580  1
  H  H17  1  0.07191584  0.89941015  0.13017420  1
  H  H18  1  0.07191584  0.60058985  0.86982580  1
  H  H19  1  0.42808416  0.10058985  0.63017420  1
  H  H20  1  0.57191584  0.60058985  0.63017420  1
  H  H21  1  0.92808416  0.10058985  0.86982580  1
  H  H22  1  0.92808416  0.39941015  0.13017420  1
  H  H23  1  0.57191584  0.89941015  0.36982580  1
  H  H24  1  0.53986437  0.74414967  0.29544557  1
  H  H25  1  0.96013563  0.24414967  0.20455443  1
  H  H26  1  0.96013563  0.25585033  0.79544557  1
  H  H27  1  0.53986437  0.75585033  0.70455443  1
  H  H28  1  0.46013563  0.25585033  0.70455443  1
  H  H29  1  0.03986437  0.75585033  0.79544557  1
  H  H30  1  0.03986437  0.74414967  0.20455443  1
  H  H31  1  0.46013563  0.24414967  0.29544557  1
  H  H32  1  0.39197705  0.67745935  0.28935917  1
  H  H33  1  0.10802295  0.17745935  0.21064083  1
  H  H34  1  0.10802295  0.32254065  0.78935917  1
  H  H35  1  0.39197705  0.82254065  0.71064083  1
  H  H36  1  0.60802295  0.32254065  0.71064083  1
  H  H37  1  0.89197705  0.82254065  0.78935917  1
  H  H38  1  0.89197705  0.67745935  0.21064083  1
  H  H39  1  0.60802295  0.17745935  0.28935917  1
  H  H40  1  0.73281146  0.70252330  0.35402269  1
  H  H41  1  0.76718854  0.20252330  0.14597731  1
  H  H42  1  0.76718854  0.29747670  0.85402269  1
  H  H43  1  0.73281146  0.79747670  0.64597731  1
  H  H44  1  0.26718854  0.29747670  0.64597731  1
  H  H45  1  0.23281146  0.79747670  0.85402269  1
  H  H46  1  0.23281146  0.70252330  0.14597731  1
  H  H47  1  0.26718854  0.20252330  0.35402269  1
  H  H48  1  0.78006191  0.63255001  0.54426308  1
  H  H49  1  0.71993809  0.13255001  0.95573692  1
  H  H50  1  0.71993809  0.36744999  0.04426308  1
  H  H51  1  0.78006191  0.86744999  0.45573692  1
  H  H52  1  0.21993809  0.36744999  0.45573692  1
  H  H53  1  0.28006191  0.86744999  0.04426308  1
  H  H54  1  0.28006191  0.63255001  0.95573692  1
  H  H55  1  0.21993809  0.13255001  0.54426308  1
  H  H56  1  0.11623792  0.66898053  0.61274430  1
  H  H57  1  0.38376208  0.16898053  0.88725570  1
  H  H58  1  0.38376208  0.33101947  0.11274430  1
  H  H59  1  0.11623792  0.83101947  0.38725570  1
  H  H60  1  0.88376208  0.33101947  0.38725570  1
  H  H61  1  0.61623792  0.83101947  0.11274430  1
  H  H62  1  0.61623792  0.66898053  0.88725570  1
  H  H63  1  0.88376208  0.16898053  0.61274430  1
  H  H64  1  0.93656031  0.67109745  0.63624721  1
  H  H65  1  0.56343969  0.17109745  0.86375279  1
  H  H66  1  0.56343969  0.32890255  0.13624721  1
  H  H67  1  0.93656031  0.82890255  0.36375279  1
  H  H68  1  0.06343969  0.32890255  0.36375279  1
  H  H69  1  0.43656031  0.82890255  0.13624721  1
  H  H70  1  0.43656031  0.67109745  0.86375279  1
  H  H71  1  0.06343969  0.17109745  0.63624721  1
  H  H72  1  0.15648174  0.51027028  0.29898996  1
  H  H73  1  0.34351826  0.01027028  0.20101004  1
  H  H74  1  0.34351826  0.48972972  0.79898996  1
  H  H75  1  0.15648174  0.98972972  0.70101004  1
  H  H76  1  0.84351826  0.48972972  0.70101004  1
  H  H77  1  0.65648174  0.98972972  0.79898996  1
  H  H78  1  0.65648174  0.51027028  0.20101004  1
  H  H79  1  0.84351826  0.01027028  0.29898996  1
  H  H80  1  0.27500230  0.55465135  0.36726576  1
  H  H81  1  0.22499770  0.05465135  0.13273424  1
  H  H82  1  0.22499770  0.44534865  0.86726576  1
  H  H83  1  0.27500230  0.94534865  0.63273424  1
  H  H84  1  0.72499770  0.44534865  0.63273424  1
  H  H85  1  0.77500230  0.94534865  0.86726576  1
  H  H86  1  0.77500230  0.55465135  0.13273424  1
  H  H87  1  0.72499770  0.05465135  0.36726576  1
  H  H88  1  0.92534141  0.53211435  0.31078759  1
  H  H89  1  0.57465859  0.03211435  0.18921241  1
  H  H90  1  0.57465859  0.46788565  0.81078759  1
  H  H91  1  0.92534141  0.96788565  0.68921241  1
  H  H92  1  0.07465859  0.46788565  0.68921241  1
  H  H93  1  0.42534141  0.96788565  0.81078759  1
  H  H94  1  0.42534141  0.53211435  0.18921241  1
  H  H95  1  0.07465859  0.03211435  0.31078759  1
  H  H96  1  0.75312900  0.70752838  0.02412616  1
  H  H97  1  0.74687100  0.20752838  0.47587384  1
  H  H98  1  0.74687100  0.29247162  0.52412616  1
  H  H99  1  0.75312900  0.79247162  0.97587384  1
  H  H100  1  0.24687100  0.29247162  0.97587384  1
  H  H101  1  0.25312900  0.79247162  0.52412616  1
  H  H102  1  0.25312900  0.70752838  0.47587384  1
  H  H103  1  0.24687100  0.20752838  0.02412616  1
  C  C0  1  0.57657883  0.48914981  0.39739036  1
  C  C1  1  0.92342117  0.98914981  0.10260964  1
  C  C2  1  0.92342117  0.51085019  0.89739036  1
  C  C3  1  0.57657883  0.01085019  0.60260964  1
  C  C4  1  0.42342117  0.51085019  0.60260964  1
  C  C5  1  0.07657883  0.01085019  0.89739036  1
  C  C6  1  0.07657883  0.48914981  0.10260964  1
  C  C7  1  0.42342117  0.98914981  0.39739036  1
  C  C8  1  0.56640337  0.62548919  0.34581119  1
  C  C9  1  0.93359663  0.12548919  0.15418881  1
  C  C10  1  0.93359663  0.37451081  0.84581119  1
  C  C11  1  0.56640337  0.87451081  0.65418881  1
  C  C12  1  0.43359663  0.37451081  0.65418881  1
  C  C13  1  0.06640337  0.87451081  0.84581119  1
  C  C14  1  0.06640337  0.62548919  0.15418881  1
  C  C15  1  0.43359663  0.12548919  0.34581119  1
  C  C16  1  0.98534861  0.63258119  0.51781553  1
  C  C17  1  0.51465139  0.13258119  0.98218447  1
  C  C18  1  0.51465139  0.36741881  0.01781553  1
  C  C19  1  0.98534861  0.86741881  0.48218447  1
  C  C20  1  0.01465139  0.36741881  0.48218447  1
  C  C21  1  0.48534861  0.86741881  0.01781553  1
  C  C22  1  0.48534861  0.63258119  0.98218447  1
  C  C23  1  0.01465139  0.13258119  0.51781553  1
  C  C24  1  0.06409496  0.57578171  0.39404396  1
  C  C25  1  0.43590504  0.07578171  0.10595604  1
  C  C26  1  0.43590504  0.42421829  0.89404396  1
  C  C27  1  0.06409496  0.92421829  0.60595604  1
  C  C28  1  0.93590504  0.42421829  0.60595604  1
  C  C29  1  0.56409496  0.92421829  0.89404396  1
  C  C30  1  0.56409496  0.57578171  0.10595604  1
  C  C31  1  0.93590504  0.07578171  0.39404396  1
  N  N0  1  0.70589669  0.50144693  0.42866819  1
  N  N1  1  0.79410331  0.00144693  0.07133181  1
  N  N2  1  0.79410331  0.49855307  0.92866819  1
  N  N3  1  0.70589669  0.99855307  0.57133181  1
  N  N4  1  0.29410331  0.49855307  0.57133181  1
  N  N5  1  0.20589669  0.99855307  0.92866819  1
  N  N6  1  0.20589669  0.50144693  0.07133181  1
  N  N7  1  0.29410331  0.00144693  0.42866819  1
  N  N8  1  0.50232519  0.54980368  0.35675864  1
  N  N9  1  0.99767481  0.04980368  0.14324136  1
  N  N10  1  0.99767481  0.45019632  0.85675864  1
  N  N11  1  0.50232519  0.95019632  0.64324136  1
  N  N12  1  0.49767481  0.45019632  0.64324136  1
  N  N13  1  0.00232519  0.95019632  0.85675864  1
  N  N14  1  0.00232519  0.54980368  0.14324136  1
  N  N15  1  0.49767481  0.04980368  0.35675864  1
  N  N16  1  0.69975187  0.64231901  0.36866661  1
  N  N17  1  0.80024813  0.14231901  0.13133339  1
  N  N18  1  0.80024813  0.35768099  0.86866661  1
  N  N19  1  0.69975187  0.85768099  0.63133339  1
  N  N20  1  0.30024813  0.35768099  0.63133339  1
  N  N21  1  0.19975187  0.85768099  0.86866661  1
  N  N22  1  0.19975187  0.64231901  0.13133339  1
  N  N23  1  0.30024813  0.14231901  0.36866661  1
  N  N24  1  0.51266995  0.41307848  0.40722955  1
  N  N25  1  0.98733005  0.91307848  0.09277045  1
  N  N26  1  0.98733005  0.58692152  0.90722955  1
  N  N27  1  0.51266995  0.08692152  0.59277045  1
  N  N28  1  0.48733005  0.58692152  0.59277045  1
  N  N29  1  0.01266995  0.08692152  0.90722955  1
  N  N30  1  0.01266995  0.41307848  0.09277045  1
  N  N31  1  0.48733005  0.91307848  0.40722955  1
  N  N32  1  0.49207055  0.68781773  0.30872496  1
  N  N33  1  0.00792945  0.18781773  0.19127504  1
  N  N34  1  0.00792945  0.31218227  0.80872496  1
  N  N35  1  0.49207055  0.81218227  0.69127504  1
  N  N36  1  0.50792945  0.31218227  0.69127504  1
  N  N37  1  0.99207055  0.81218227  0.80872496  1
  N  N38  1  0.99207055  0.68781773  0.19127504  1
  N  N39  1  0.50792945  0.18781773  0.30872496  1
  N  N40  1  0.85004286  0.61846618  0.49804867  1
  N  N41  1  0.64995714  0.11846618  0.00195133  1
  N  N42  1  0.64995714  0.38153382  0.99804867  1
  N  N43  1  0.85004286  0.88153382  0.50195133  1
  N  N44  1  0.14995714  0.38153382  0.50195133  1
  N  N45  1  0.35004286  0.88153382  0.99804867  1
  N  N46  1  0.35004286  0.61846618  0.00195133  1
  N  N47  1  0.14995714  0.11846618  0.49804867  1
  N  N48  1  0.09495787  0.61401043  0.46707617  1
  N  N49  1  0.40504213  0.11401043  0.03292383  1
  N  N50  1  0.40504213  0.38598957  0.96707617  1
  N  N51  1  0.09495787  0.88598957  0.53292383  1
  N  N52  1  0.90504213  0.38598957  0.53292383  1
  N  N53  1  0.59495787  0.88598957  0.96707617  1
  N  N54  1  0.59495787  0.61401043  0.03292383  1
  N  N55  1  0.90504213  0.11401043  0.46707617  1
  N  N56  1  0.93254349  0.56057044  0.36767769  1
  N  N57  1  0.56745651  0.06057044  0.13232231  1
  N  N58  1  0.56745651  0.43942956  0.86767769  1
  N  N59  1  0.93254349  0.93942956  0.63232231  1
  N  N60  1  0.06745651  0.43942956  0.63232231  1
  N  N61  1  0.43254349  0.93942956  0.86767769  1
  N  N62  1  0.43254349  0.56057044  0.13232231  1
  N  N63  1  0.06745651  0.06057044  0.36767769  1
  N  N64  1  0.01523195  0.66729130  0.59251068  1
  N  N65  1  0.48476805  0.16729130  0.90748932  1
  N  N66  1  0.48476805  0.33270870  0.09251068  1
  N  N67  1  0.01523195  0.83270870  0.40748932  1
  N  N68  1  0.98476805  0.33270870  0.40748932  1
  N  N69  1  0.51523195  0.83270870  0.09251068  1
  N  N70  1  0.51523195  0.66729130  0.90748932  1
  N  N71  1  0.98476805  0.16729130  0.59251068  1
  N  N72  1  0.17379554  0.55282375  0.34534534  1
  N  N73  1  0.32620446  0.05282375  0.15465466  1
  N  N74  1  0.32620446  0.44717625  0.84534534  1
  N  N75  1  0.17379554  0.94717625  0.65465466  1
  N  N76  1  0.82620446  0.44717625  0.65465466  1
  N  N77  1  0.67379554  0.94717625  0.84534534  1
  N  N78  1  0.67379554  0.55282375  0.15465466  1
  N  N79  1  0.82620446  0.05282375  0.34534534  1
  Cl  Cl0  1  0.73824601  0.83684549  0.29001407  1
  Cl  Cl1  1  0.76175399  0.33684549  0.20998593  1
  Cl  Cl2  1  0.76175399  0.16315451  0.79001407  1
  Cl  Cl3  1  0.73824601  0.66315451  0.70998593  1
  Cl  Cl4  1  0.26175399  0.16315451  0.70998593  1
  Cl  Cl5  1  0.23824601  0.66315451  0.79001407  1
  Cl  Cl6  1  0.23824601  0.83684549  0.20998593  1
  Cl  Cl7  1  0.26175399  0.33684549  0.29001407  1
  O  O0  1  0.81764977  0.75000000  0.00000000  1
  O  O1  1  0.68235023  0.25000000  0.50000000  1
  O  O2  1  0.18235023  0.25000000  0.00000000  1
  O  O3  1  0.31764977  0.75000000  0.50000000  1
loop_
_geom_bond_atom_site_label_1
_geom_bond_atom_site_label_2
_geom_bond_distance
_geom_bond_site_symmetry_2
B0 N16 1.529018 1_555
B0 N0 1.531057 1_555
B0 N40 1.536910 1_555
B0 N56 1.543874 1_555
B1 N17 1.529018 1_555
B1 N1 1.531057 1_555
B1 N41 1.536910 1_555
B1 N57 1.543874 1_555
B2 N18 1.529018 1_555
B2 N2 1.531057 1_555
B2 N42 1.536910 1_555
B2 N58 1.543874 1_555
B3 N19 1.529018 1_555
B3 N3 1.531057 1_555
B3 N43 1.536910 1_555
B3 N59 1.543874 1_555
B4 N20 1.529018 1_555
B4 N4 1.531057 1_555
B4 N44 1.536910 1_555
B4 N60 1.543874 1_555
B5 N21 1.529018 1_555
B5 N5 1.531057 1_555
B5 N45 1.536910 1_555
B5 N61 1.543874 1_555
B6 N22 1.529018 1_555
B6 N6 1.531057 1_555
B6 N46 1.536910 1_555
B6 N62 1.543874 1_555
B7 N23 1.529018 1_555
B7 N7 1.531057 1_555
B7 N47 1.536910 1_555
B7 N63 1.543874 1_555
H0 N0 1.026192 1_555
H1 N1 1.026192 1_565
H2 N2 1.026192 1_555
H3 N3 1.026192 1_545
H4 N4 1.026192 1_555
H5 N5 1.026192 1_545
H6 N6 1.026192 1_555
H7 N7 1.026192 1_565
H8 N24 1.018250 1_555
H9 N25 1.018250 1_555
H10 N26 1.018250 1_555
H11 N27 1.018250 1_555
H12 N28 1.018250 1_555
H13 N29 1.018250 1_555
H14 N30 1.018250 1_555
H15 N31 1.018250 1_555
H16 N24 1.026010 1_555
H17 N25 1.026010 1_455
H18 N26 1.026010 1_455
H19 N27 1.026010 1_555
H20 N28 1.026010 1_555
H21 N29 1.026010 1_655
H22 N30 1.026010 1_655
H23 N31 1.026010 1_555
H24 N32 1.018980 1_555
H25 N33 1.018980 1_655
H26 N34 1.018980 1_655
H27 N35 1.018980 1_555
H28 N36 1.018980 1_555
H29 N37 1.018980 1_455
H30 N38 1.018980 1_455
H31 N39 1.018980 1_555
H32 N32 1.013037 1_555
H33 N33 1.013037 1_555
H34 N34 1.013037 1_555
H35 N35 1.013037 1_555
H36 N36 1.013037 1_555
H37 N37 1.013037 1_555
H38 N38 1.013037 1_555
H39 N39 1.013037 1_555
H40 N16 1.026033 1_555
H41 N17 1.026033 1_555
H42 N18 1.026033 1_555
H43 N19 1.026033 1_555
H44 N20 1.026033 1_555
H45 N21 1.026033 1_555
H46 N22 1.026033 1_555
H47 N23 1.026033 1_555
H48 N40 1.021105 1_555
H49 N41 1.021105 1_556
H50 N42 1.021105 1_554
H51 N43 1.021105 1_555
H52 N44 1.021105 1_555
H53 N45 1.021105 1_554
H54 N46 1.021105 1_556
H55 N47 1.021105 1_555
H56 N64 1.012799 1_555
H57 N65 1.012799 1_555
H58 N66 1.012799 1_555
H59 N67 1.012799 1_555
H60 N68 1.012799 1_555
H61 N69 1.012799 1_555
H62 N70 1.012799 1_555
H63 N71 1.012799 1_555
H64 N64 1.027534 1_655
H65 N65 1.027534 1_555
H66 N66 1.027534 1_555
H67 N67 1.027534 1_655
H68 N68 1.027534 1_455
H69 N69 1.027534 1_555
H70 N70 1.027534 1_555
H71 N71 1.027534 1_455
H72 N72 1.015704 1_555
H73 N73 1.015704 1_555
H74 N74 1.015704 1_555
H75 N75 1.015704 1_555
H76 N76 1.015704 1_555
H77 N77 1.015704 1_555
H78 N78 1.015704 1_555
H79 N79 1.015704 1_555
H80 N72 1.023683 1_555
H81 N73 1.023683 1_555
H82 N74 1.023683 1_555
H83 N75 1.023683 1_555
H84 N76 1.023683 1_555
H85 N77 1.023683 1_555
H86 N78 1.023683 1_555
H87 N79 1.023683 1_555
H88 N56 1.020932 1_555
H89 N57 1.020932 1_555
H90 N58 1.020932 1_555
H91 N59 1.020932 1_555
H92 N60 1.020932 1_555
H93 N61 1.020932 1_555
H94 N62 1.020932 1_555
H95 N63 1.020932 1_555
H96 O0 0.986353 1_555
H97 O1 0.986353 1_555
H98 O1 0.986353 1_555
H99 O0 0.986353 1_556
H100 O2 0.986353 1_556
H101 O3 0.986353 1_555
H102 O3 0.986353 1_555
H103 O2 0.986353 1_555
C0 N0 1.340586 1_555
C0 N24 1.352057 1_555
C0 N8 1.354966 1_555
C1 N1 1.340586 1_565
C1 N25 1.352057 1_555
C1 N9 1.354966 1_565
C2 N2 1.340586 1_555
C2 N26 1.352057 1_555
C2 N10 1.354966 1_555
C3 N3 1.340586 1_545
C3 N27 1.352057 1_555
C3 N11 1.354966 1_545
C4 N4 1.340586 1_555
C4 N28 1.352057 1_555
C4 N12 1.354966 1_555
C5 N5 1.340586 1_545
C5 N29 1.352057 1_555
C5 N13 1.354966 1_545
C6 N6 1.340586 1_555
C6 N30 1.352057 1_555
C6 N14 1.354966 1_555
C7 N7 1.340586 1_565
C7 N31 1.352057 1_555
C7 N15 1.354966 1_565
C8 N16 1.344401 1_555
C8 N32 1.347895 1_555
C8 N8 1.349610 1_555
C9 N17 1.344401 1_555
C9 N33 1.347895 1_655
C9 N9 1.349610 1_555
C10 N18 1.344401 1_555
C10 N34 1.347895 1_655
C10 N10 1.349610 1_555
C11 N19 1.344401 1_555
C11 N35 1.347895 1_555
C11 N11 1.349610 1_555
C12 N20 1.344401 1_555
C12 N36 1.347895 1_555
C12 N12 1.349610 1_555
C13 N21 1.344401 1_555
C13 N37 1.347895 1_455
C13 N13 1.349610 1_555
C14 N22 1.344401 1_555
C14 N38 1.347895 1_455
C14 N14 1.349610 1_555
C15 N23 1.344401 1_555
C15 N39 1.347895 1_555
C15 N15 1.349610 1_555
C16 N40 1.341611 1_555
C16 N64 1.349751 1_655
C16 N48 1.354119 1_655
C17 N41 1.341611 1_556
C17 N65 1.349751 1_555
C17 N49 1.354119 1_556
C18 N42 1.341611 1_554
C18 N66 1.349751 1_555
C18 N50 1.354119 1_554
C19 N43 1.341611 1_555
C19 N67 1.349751 1_655
C19 N51 1.354119 1_655
C20 N44 1.341611 1_555
C20 N68 1.349751 1_455
C20 N52 1.354119 1_455
C21 N45 1.341611 1_554
C21 N69 1.349751 1_555
C21 N53 1.354119 1_554
C22 N46 1.341611 1_556
C22 N70 1.349751 1_555
C22 N54 1.354119 1_556
C23 N47 1.341611 1_555
C23 N71 1.349751 1_455
C23 N55 1.354119 1_455
C24 N56 1.340278 1_455
C24 N48 1.351782 1_555
C24 N72 1.352093 1_555
C25 N57 1.340278 1_555
C25 N49 1.351782 1_555
C25 N73 1.352093 1_555
C26 N58 1.340278 1_555
C26 N50 1.351782 1_555
C26 N74 1.352093 1_555
C27 N59 1.340278 1_455
C27 N51 1.351782 1_555
C27 N75 1.352093 1_555
C28 N60 1.340278 1_655
C28 N52 1.351782 1_555
C28 N76 1.352093 1_555
C29 N61 1.340278 1_555
C29 N53 1.351782 1_555
C29 N77 1.352093 1_555
C30 N62 1.340278 1_555
C30 N54 1.351782 1_555
C30 N78 1.352093 1_555
C31 N63 1.340278 1_655
C31 N55 1.351782 1_555
C31 N79 1.352093 1_555
