# generated using pymatgen
data_MgSc2O4
_symmetry_space_group_name_H-M   'P 1'
_cell_length_a   3.07576600
_cell_length_b   9.32858500
_cell_length_c   10.89993200
_cell_angle_alpha   90.00000000
_cell_angle_beta   90.00000000
_cell_angle_gamma   90.00000000
_symmetry_Int_Tables_number   1
_chemical_formula_structural   MgSc2O4
_chemical_formula_sum   'Mg4 Sc8 O16'
_cell_volume   312.74678473
_cell_formula_units_Z   4
loop_
 _symmetry_equiv_pos_site_id
 _symmetry_equiv_pos_as_xyz
  1  'x, y, z'
loop_
 _atom_site_type_symbol
 _atom_site_label
 _atom_site_symmetry_multiplicity
 _atom_site_fract_x
 _atom_site_fract_y
 _atom_site_fract_z
 _atom_site_occupancy
  Mg  Mg0  1  0.75000000  0.74308500  0.14584500  1
  Mg  Mg1  1  0.75000000  0.24308500  0.35415500  1
  Mg  Mg2  1  0.25000000  0.25691500  0.85415500  1
  Mg  Mg3  1  0.25000000  0.75691500  0.64584500  1
  Sc  Sc0  1  0.75000000  0.08469900  0.60748200  1
  Sc  Sc1  1  0.75000000  0.58469900  0.89251800  1
  Sc  Sc2  1  0.25000000  0.91530100  0.39251800  1
  Sc  Sc3  1  0.25000000  0.41530100  0.10748200  1
  Sc  Sc4  1  0.75000000  0.06950200  0.11719500  1
  Sc  Sc5  1  0.75000000  0.56950200  0.38280500  1
  Sc  Sc6  1  0.25000000  0.93049800  0.88280500  1
  Sc  Sc7  1  0.25000000  0.43049800  0.61719500  1
  O  O0  1  0.75000000  0.29211900  0.68710100  1
  O  O1  1  0.75000000  0.79211900  0.81289900  1
  O  O2  1  0.25000000  0.70788100  0.31289900  1
  O  O3  1  0.25000000  0.20788100  0.18710100  1
  O  O4  1  0.75000000  0.36773400  0.96945500  1
  O  O5  1  0.75000000  0.86773400  0.53054500  1
  O  O6  1  0.25000000  0.63226600  0.03054500  1
  O  O7  1  0.25000000  0.13226600  0.46945500  1
  O  O8  1  0.75000000  0.97655000  0.28641700  1
  O  O9  1  0.75000000  0.47655000  0.21358300  1
  O  O10  1  0.25000000  0.02345000  0.71358300  1
  O  O11  1  0.25000000  0.52345000  0.78641700  1
  O  O12  1  0.75000000  0.08667600  0.92226500  1
  O  O13  1  0.75000000  0.58667600  0.57773500  1
  O  O14  1  0.25000000  0.91332400  0.07773500  1
  O  O15  1  0.25000000  0.41332400  0.42226500  1
loop_
_geom_bond_atom_site_label_1
_geom_bond_atom_site_label_2
_geom_bond_distance
_geom_bond_site_symmetry_2
Mg0 O6 2.239028 1_555
Mg0 O6 2.239028 1_655
Mg0 O14 2.332008 1_655
Mg0 O14 2.332008 1_555
Mg0 O2 2.405936 1_555
Mg0 O2 2.405936 1_655
Mg0 O9 2.593704 1_555
Mg0 O8 2.662885 1_555
Mg1 O7 2.239028 1_555
Mg1 O7 2.239028 1_655
Mg1 O15 2.332008 1_555
Mg1 O15 2.332008 1_655
Mg1 O3 2.405936 1_555
Mg1 O3 2.405936 1_655
Mg1 O8 2.593704 1_545
Mg1 O9 2.662885 1_555
Mg2 O4 2.239028 1_555
Mg2 O4 2.239028 1_455
Mg2 O12 2.332008 1_555
Mg2 O12 2.332008 1_455
Mg2 O0 2.405936 1_555
Mg2 O0 2.405936 1_455
Mg2 O11 2.593704 1_555
Mg2 O10 2.662885 1_555
Mg3 O5 2.239028 1_455
Mg3 O5 2.239028 1_555
Mg3 O13 2.332008 1_455
Mg3 O13 2.332008 1_555
Mg3 O1 2.405936 1_455
Mg3 O1 2.405936 1_555
Mg3 O10 2.593704 1_565
Mg3 O11 2.662885 1_555
O0 Sc0 2.120642 1_555
O0 Sc7 2.147570 1_555
O0 Sc7 2.147570 1_655
O1 Sc1 2.120642 1_555
O1 Sc6 2.147570 1_655
O1 Sc6 2.147570 1_555
O2 Sc2 2.120642 1_555
O2 Sc5 2.147570 1_455
O2 Sc5 2.147570 1_555
O3 Sc3 2.120642 1_555
O3 Sc4 2.147570 1_555
O3 Sc4 2.147570 1_455
O4 Sc1 2.190832 1_555
O4 Sc3 2.196692 1_556
O4 Sc3 2.196692 1_656
O5 Sc0 2.190832 1_565
O5 Sc2 2.196692 1_655
O5 Sc2 2.196692 1_555
O6 Sc3 2.190832 1_555
O6 Sc1 2.196692 1_554
O6 Sc1 2.196692 1_454
O7 Sc2 2.190832 1_545
O7 Sc0 2.196692 1_555
O7 Sc0 2.196692 1_455
O8 Sc2 2.007242 1_655
O8 Sc2 2.007242 1_555
O8 Sc4 2.038159 1_565
O9 Sc3 2.007242 1_655
O9 Sc3 2.007242 1_555
O9 Sc5 2.038159 1_555
O10 Sc0 2.007242 1_555
O10 Sc0 2.007242 1_455
O10 Sc6 2.038159 1_545
O11 Sc1 2.007242 1_555
O11 Sc1 2.007242 1_455
O11 Sc7 2.038159 1_555
O12 Sc4 2.130755 1_556
O12 Sc6 2.161642 1_545
O12 Sc6 2.161642 1_645
O13 Sc5 2.130755 1_555
O13 Sc7 2.161642 1_555
O13 Sc7 2.161642 1_655
O14 Sc6 2.130755 1_554
O14 Sc4 2.161642 1_565
O14 Sc4 2.161642 1_465
O15 Sc7 2.130755 1_555
O15 Sc5 2.161642 1_455
O15 Sc5 2.161642 1_555
