# generated using pymatgen
data_Ba7SiB3NO13
_symmetry_space_group_name_H-M   'P 1'
_cell_length_a   11.47317024
_cell_length_b   11.44914843
_cell_length_c   7.45233700
_cell_angle_alpha   90.00000000
_cell_angle_beta   90.00000000
_cell_angle_gamma   121.19765297
_symmetry_Int_Tables_number   1
_chemical_formula_structural   Ba7SiB3NO13
_chemical_formula_sum   'Ba14 Si2 B6 N2 O26'
_cell_volume   837.35763208
_cell_formula_units_Z   2
loop_
 _symmetry_equiv_pos_site_id
 _symmetry_equiv_pos_as_xyz
  1  'x, y, z'
loop_
 _atom_site_type_symbol
 _atom_site_label
 _atom_site_symmetry_multiplicity
 _atom_site_fract_x
 _atom_site_fract_y
 _atom_site_fract_z
 _atom_site_occupancy
  Ba  Ba0  1  0.13174300  0.85722800  0.18837500  1
  Ba  Ba1  1  0.04714300  0.53187200  0.85410400  1
  Ba  Ba2  1  0.46417500  0.95210500  0.85369800  1
  Ba  Ba3  1  0.13434800  0.26193100  0.17425700  1
  Ba  Ba4  1  0.33720700  0.66458400  0.49254100  1
  Ba  Ba5  1  0.47960000  0.52501600  0.85452500  1
  Ba  Ba6  1  0.26047000  0.12236300  0.67604900  1
  Ba  Ba7  1  0.73953000  0.87763700  0.17604900  1
  Ba  Ba8  1  0.52040000  0.47498400  0.35452500  1
  Ba  Ba9  1  0.86565200  0.73806900  0.67425700  1
  Ba  Ba10  1  0.53582500  0.04789500  0.35369800  1
  Ba  Ba11  1  0.66279300  0.33541600  0.99254100  1
  Ba  Ba12  1  0.95285700  0.46812800  0.35410400  1
  Ba  Ba13  1  0.86825700  0.14277200  0.68837500  1
  Si  Si0  1  0.33532000  0.66440300  0.08306900  1
  Si  Si1  1  0.66468000  0.33559700  0.58306900  1
  B  B0  1  0.18091000  0.81096600  0.63295500  1
  B  B1  1  0.18403700  0.35719600  0.64455200  1
  B  B2  1  0.64082100  0.82437500  0.64561900  1
  B  B3  1  0.35917900  0.17562500  0.14561900  1
  B  B4  1  0.81596300  0.64280400  0.14455200  1
  B  B5  1  0.81909000  0.18903400  0.13295500  1
  N  N0  1  0.00060300  0.00052400  0.49698900  1
  N  N1  1  0.99939700  0.99947600  0.99698900  1
  O  O0  1  0.16835500  0.85133300  0.80385200  1
  O  O1  1  0.07700100  0.68789500  0.56126900  1
  O  O2  1  0.29858400  0.89078000  0.53163800  1
  O  O3  1  0.19206900  0.64611500  0.16227900  1
  O  O4  1  0.10468700  0.40158500  0.56021800  1
  O  O5  1  0.13821900  0.27591300  0.79695200  1
  O  O6  1  0.33358200  0.66289400  0.86042400  1
  O  O7  1  0.46421500  0.81016600  0.15904600  1
  O  O8  1  0.35115600  0.53797100  0.16114500  1
  O  O9  1  0.31128400  0.39518000  0.57240500  1
  O  O10  1  0.60275200  0.91532300  0.58518400  1
  O  O11  1  0.27939600  0.14727400  0.29807900  1
  O  O12  1  0.40289300  0.29657000  0.04930200  1
  O  O13  1  0.59710700  0.70343000  0.54930200  1
  O  O14  1  0.72060400  0.85272600  0.79807900  1
  O  O15  1  0.39724800  0.08467700  0.08518400  1
  O  O16  1  0.68871600  0.60482000  0.07240500  1
  O  O17  1  0.64884400  0.46202900  0.66114600  1
  O  O18  1  0.53578500  0.18983400  0.65904700  1
  O  O19  1  0.86178100  0.72408700  0.29695200  1
  O  O20  1  0.66641800  0.33710600  0.36042400  1
  O  O21  1  0.89531300  0.59841500  0.06021800  1
  O  O22  1  0.80793100  0.35388500  0.66228000  1
  O  O23  1  0.70141600  0.10922000  0.03163800  1
  O  O24  1  0.92299900  0.31210500  0.06126900  1
  O  O25  1  0.83164500  0.14866700  0.30385200  1
loop_
_geom_bond_atom_site_label_1
_geom_bond_atom_site_label_2
_geom_bond_distance
_geom_bond_site_symmetry_2
Ba0 O19 2.771366 1_455
Ba0 O3 2.844677 1_555
Ba0 O0 2.902070 1_554
Ba0 O15 2.904124 1_565
Ba0 O21 2.953585 1_455
Ba0 O11 2.955973 1_565
Ba0 N1 3.090987 1_454
Ba0 O2 3.097396 1_555
Ba0 O1 3.257929 1_555
Ba1 O24 2.651497 1_456
Ba1 O21 2.710938 1_456
Ba1 O1 2.727055 1_555
Ba1 O3 2.738056 1_556
Ba1 O22 2.816835 1_455
Ba1 O6 2.818765 1_555
Ba1 O4 2.911690 1_555
Ba2 O15 2.660242 1_566
Ba2 O23 2.707507 1_566
Ba2 O10 2.720855 1_555
Ba2 O7 2.796393 1_556
Ba2 O18 2.805487 1_565
Ba2 O6 2.841102 1_555
Ba2 O2 2.912211 1_555
Ba2 O0 2.988576 1_555
Ba3 O11 2.758145 1_555
Ba3 O5 2.815400 1_554
Ba3 O8 2.835665 1_555
Ba3 N1 2.889965 1_444
Ba3 O24 2.891701 1_455
Ba4 O6 2.741820 1_555
Ba4 O13 2.809698 1_555
Ba4 O4 2.848876 1_555
Ba4 O2 2.859538 1_555
Ba4 O8 2.909746 1_555
Ba4 O3 2.917262 1_555
Ba4 O7 2.926116 1_555
Ba4 O10 2.989820 1_555
Ba4 O9 3.001019 1_555
Ba4 O1 3.173570 1_555
Ba5 O16 2.637523 1_556
Ba5 O12 2.708827 1_556
Ba5 O9 2.717594 1_555
Ba5 O8 2.764327 1_556
Ba5 O17 2.796075 1_555
Ba5 O6 2.835526 1_555
Ba5 O13 2.882893 1_555
Ba6 O11 2.828157 1_555
Ba6 O18 2.839458 1_555
Ba6 O0 2.873251 1_545
Ba6 N0 2.882218 1_555
Ba6 O5 2.902461 1_555
Ba6 O9 2.967546 1_555
Ba6 O2 3.095264 1_545
Ba6 O12 3.318003 1_556
Ba7 O14 2.828157 1_554
Ba7 O7 2.839458 1_555
Ba7 O25 2.873251 1_565
Ba7 N1 2.882218 1_554
Ba7 O19 2.902461 1_555
Ba7 O16 2.967546 1_555
Ba7 O23 3.095264 1_565
Ba7 O13 3.318003 1_555
Ba8 O9 2.637523 1_555
Ba8 O13 2.708827 1_555
Ba8 O16 2.717594 1_555
Ba8 O17 2.764333 1_555
Ba8 O8 2.796079 1_555
Ba8 O20 2.835526 1_555
Ba8 O12 2.882893 1_555
Ba9 O14 2.758145 1_555
Ba9 O19 2.815400 1_555
Ba9 O17 2.835664 1_555
Ba9 N0 2.889965 1_665
Ba9 O1 2.891701 1_655
Ba10 O10 2.660242 1_545
Ba10 O2 2.707507 1_545
Ba10 O15 2.720855 1_555
Ba10 O18 2.796399 1_555
Ba10 O7 2.805491 1_545
Ba10 O20 2.841102 1_555
Ba10 O23 2.912211 1_555
Ba10 O25 2.988576 1_555
Ba11 O20 2.741820 1_556
Ba11 O12 2.809698 1_556
Ba11 O21 2.848876 1_556
Ba11 O23 2.859538 1_556
Ba11 O17 2.909739 1_555
Ba11 O22 2.917256 1_555
Ba11 O18 2.926110 1_555
Ba11 O15 2.989820 1_556
Ba11 O16 3.001019 1_556
Ba11 O24 3.173570 1_556
Ba12 O1 2.651497 1_655
Ba12 O4 2.710938 1_655
Ba12 O24 2.727055 1_555
Ba12 O22 2.738063 1_555
Ba12 O3 2.816839 1_655
Ba12 O20 2.818765 1_555
Ba12 O21 2.911690 1_555
Ba13 O5 2.771366 1_655
Ba13 O22 2.844676 1_555
Ba13 O25 2.902070 1_555
Ba13 O10 2.904124 1_545
Ba13 O4 2.953585 1_655
Ba13 O14 2.955973 1_545
Ba13 N0 3.090987 1_655
Ba13 O23 3.097396 1_556
Ba13 O24 3.257929 1_556
B0 O0 1.387562 1_555
B0 O2 1.396343 1_555
B0 O1 1.397078 1_555
B1 O5 1.387616 1_555
B1 O9 1.397085 1_555
B1 O4 1.400509 1_555
B2 O14 1.387931 1_555
B2 O10 1.396080 1_555
B2 O13 1.401685 1_555
B3 O11 1.387931 1_555
B3 O15 1.396080 1_555
B3 O12 1.401685 1_555
B4 O19 1.387616 1_555
B4 O16 1.397085 1_555
B4 O21 1.400509 1_555
B5 O25 1.387562 1_555
B5 O23 1.396343 1_555
B5 O24 1.397078 1_555
O3 Si0 1.654393 1_555
O6 Si0 1.659328 1_556
O7 Si0 1.654045 1_555
O8 Si0 1.655111 1_555
O17 Si1 1.655114 1_555
O18 Si1 1.654047 1_555
O20 Si1 1.659328 1_555
O22 Si1 1.654396 1_555
