# generated using pymatgen
data_SmVO3
_symmetry_space_group_name_H-M   'P 1'
_cell_length_a   5.36908064
_cell_length_b   5.69279481
_cell_length_c   7.64646575
_cell_angle_alpha   90.00000000
_cell_angle_beta   90.00000000
_cell_angle_gamma   90.00000000
_symmetry_Int_Tables_number   1
_chemical_formula_structural   SmVO3
_chemical_formula_sum   'Sm4 V4 O12'
_cell_volume   233.71479456
_cell_formula_units_Z   4
loop_
 _symmetry_equiv_pos_site_id
 _symmetry_equiv_pos_as_xyz
  1  'x, y, z'
loop_
 _atom_site_type_symbol
 _atom_site_label
 _atom_site_symmetry_multiplicity
 _atom_site_fract_x
 _atom_site_fract_y
 _atom_site_fract_z
 _atom_site_occupancy
  Sm  Sm0  1  0.98424243  0.43687414  0.75000000  1
  Sm  Sm1  1  0.01575757  0.56312586  0.25000000  1
  Sm  Sm2  1  0.48424243  0.06312586  0.25000000  1
  Sm  Sm3  1  0.51575757  0.93687414  0.75000000  1
  V  V0  1  -0.00000000  -0.00000000  0.50000000  1
  V  V1  1  0.50000000  0.50000000  0.50000000  1
  V  V2  1  -0.00000000  -0.00000000  0.00000000  1
  V  V3  1  0.50000000  0.50000000  0.00000000  1
  O  O0  1  0.29819887  0.80461245  0.45009041  1
  O  O1  1  0.70180113  0.19538755  0.54990959  1
  O  O2  1  0.79819887  0.69538755  0.54990959  1
  O  O3  1  0.20180113  0.30461245  0.45009041  1
  O  O4  1  0.79819887  0.69538755  0.95009041  1
  O  O5  1  0.20180113  0.30461245  0.04990959  1
  O  O6  1  0.29819887  0.80461245  0.04990959  1
  O  O7  1  0.70180113  0.19538755  0.95009041  1
  O  O8  1  0.90121101  0.96641070  0.25000000  1
  O  O9  1  0.09878899  0.03358930  0.75000000  1
  O  O10  1  0.40121101  0.53358930  0.75000000  1
  O  O11  1  0.59878899  0.46641070  0.25000000  1
loop_
_geom_bond_atom_site_label_1
_geom_bond_atom_site_label_2
_geom_bond_distance
_geom_bond_site_symmetry_2
O0 V0 1.986512 1_565
O0 V1 2.080066 1_555
O0 Sm2 2.346149 1_565
O0 Sm1 2.555458 1_555
O0 Sm3 2.681481 1_555
O1 V0 1.986512 1_655
O1 V1 2.080066 1_555
O1 Sm3 2.346149 1_545
O1 Sm0 2.555458 1_555
O1 Sm2 2.681481 1_555
O2 V1 1.986512 1_555
O2 V0 2.080066 1_665
O2 Sm0 2.346149 1_555
O2 Sm3 2.555458 1_555
O2 Sm1 2.681481 1_655
O3 V1 1.986512 1_555
O3 V0 2.080066 1_555
O3 Sm1 2.346149 1_555
O3 Sm2 2.555458 1_555
O3 Sm0 2.681481 1_455
O4 V3 1.986512 1_556
O4 V2 2.080066 1_666
O4 Sm0 2.346149 1_555
O4 Sm3 2.555458 1_555
O4 Sm1 2.681481 1_656
O5 V3 1.986512 1_555
O5 V2 2.080066 1_555
O5 Sm1 2.346149 1_555
O5 Sm2 2.555458 1_555
O5 Sm0 2.681481 1_454
O6 V2 1.986512 1_565
O6 V3 2.080066 1_555
O6 Sm2 2.346149 1_565
O6 Sm1 2.555458 1_555
O6 Sm3 2.681481 1_554
O7 V2 1.986512 1_656
O7 V3 2.080066 1_556
O7 Sm3 2.346149 1_545
O7 Sm0 2.555458 1_555
O7 Sm2 2.681481 1_556
O8 V2 1.993031 1_665
O8 V0 1.993031 1_665
O8 Sm2 2.305447 1_565
O8 Sm1 2.376766 1_655
O9 V2 1.993031 1_556
O9 V0 1.993031 1_555
O9 Sm3 2.305447 1_545
O9 Sm0 2.376766 1_455
O10 V1 1.993031 1_555
O10 V3 1.993031 1_556
O10 Sm0 2.305447 1_455
O10 Sm3 2.376766 1_555
O11 V3 1.993031 1_555
O11 V1 1.993031 1_555
O11 Sm1 2.305447 1_655
O11 Sm2 2.376766 1_555
