# generated using pymatgen
data_La2(Al3Rh)3
_symmetry_space_group_name_H-M   'P 1'
_cell_length_a   7.62334114
_cell_length_b   7.62334114
_cell_length_c   9.63439158
_cell_angle_alpha   90.00000000
_cell_angle_beta   90.00000000
_cell_angle_gamma   119.07190382
_symmetry_Int_Tables_number   1
_chemical_formula_structural   La2(Al3Rh)3
_chemical_formula_sum   'La4 Al18 Rh6'
_cell_volume   489.36364753
_cell_formula_units_Z   2
loop_
 _symmetry_equiv_pos_site_id
 _symmetry_equiv_pos_as_xyz
  1  'x, y, z'
loop_
 _atom_site_type_symbol
 _atom_site_label
 _atom_site_symmetry_multiplicity
 _atom_site_fract_x
 _atom_site_fract_y
 _atom_site_fract_z
 _atom_site_occupancy
  La  La0  1  0.99544556  0.67183243  0.25000000  1
  La  La1  1  0.00455444  0.32816757  0.75000000  1
  La  La2  1  0.67183243  0.99544556  0.25000000  1
  La  La3  1  0.32816757  0.00455444  0.75000000  1
  Al  Al0  1  0.13422179  0.13422179  0.25000000  1
  Al  Al1  1  0.86577821  0.86577821  0.75000000  1
  Al  Al2  1  0.00541982  0.33631750  0.07282028  1
  Al  Al3  1  0.99458018  0.66368250  0.92717972  1
  Al  Al4  1  0.99458018  0.66368250  0.57282028  1
  Al  Al5  1  0.33631750  0.00541982  0.42717972  1
  Al  Al6  1  0.00541982  0.33631750  0.42717972  1
  Al  Al7  1  0.66368250  0.99458018  0.57282028  1
  Al  Al8  1  0.66368250  0.99458018  0.92717972  1
  Al  Al9  1  0.33631750  0.00541982  0.07282028  1
  Al  Al10  1  0.33514118  0.33514118  0.53915724  1
  Al  Al11  1  0.66485882  0.66485882  0.46084276  1
  Al  Al12  1  0.66485882  0.66485882  0.03915724  1
  Al  Al13  1  0.33514118  0.33514118  0.96084276  1
  Al  Al14  1  0.34037985  0.54554921  0.25000000  1
  Al  Al15  1  0.65962015  0.45445079  0.75000000  1
  Al  Al16  1  0.54554921  0.34037985  0.25000000  1
  Al  Al17  1  0.45445079  0.65962015  0.75000000  1
  Rh  Rh0  1  0.67087452  0.32912548  0.00000000  1
  Rh  Rh1  1  0.32912548  0.67087452  0.00000000  1
  Rh  Rh2  1  0.32912548  0.67087452  0.50000000  1
  Rh  Rh3  1  0.67087452  0.32912548  0.50000000  1
  Rh  Rh4  1  0.00000000  0.00000000  0.00000000  1
  Rh  Rh5  1  0.00000000  0.00000000  0.50000000  1
loop_
_geom_bond_atom_site_label_1
_geom_bond_atom_site_label_2
_geom_bond_distance
_geom_bond_site_symmetry_2
La0 Rh4 3.460752 1_665
La0 Rh5 3.460752 1_665
La0 Rh1 3.505730 1_655
La0 Rh2 3.505730 1_655
La0 Rh0 3.530863 1_555
La0 Rh3 3.530863 1_555
La1 Rh5 3.460752 1_555
La1 Rh4 3.460752 1_556
La1 Rh3 3.505730 1_455
La1 Rh0 3.505730 1_456
La1 Rh1 3.530863 1_556
La1 Rh2 3.530863 1_555
La2 Rh4 3.460752 1_665
La2 Rh5 3.460752 1_665
La2 Rh0 3.505730 1_565
La2 Rh3 3.505730 1_565
La2 Rh2 3.530863 1_555
La2 Rh1 3.530863 1_555
La3 Rh4 3.460752 1_556
La3 Rh5 3.460752 1_555
La3 Rh1 3.505730 1_546
La3 Rh2 3.505730 1_545
La3 Rh0 3.530863 1_556
La3 Rh3 3.530863 1_555
Al0 Rh5 2.622562 1_555
Al0 Rh4 2.622562 1_555
Al0 La2 3.149674 1_445
Al0 La0 3.149674 1_445
Al1 Rh5 2.622562 1_665
Al1 Rh4 2.622562 1_666
Al1 La3 3.149674 1_665
Al1 La1 3.149674 1_665
Al2 Rh0 2.619853 1_455
Al2 Rh4 2.639009 1_555
Al2 Rh1 2.640119 1_555
Al2 La0 3.106566 1_455
Al2 La1 3.110740 1_554
Al2 La2 3.116342 1_445
Al3 Rh1 2.619853 1_656
Al3 Rh4 2.639009 1_666
Al3 Rh0 2.640119 1_556
Al3 La1 3.106566 1_655
Al3 La0 3.110740 1_556
Al3 La3 3.116342 1_665
Al4 Rh2 2.619853 1_655
Al4 Rh5 2.639009 1_665
Al4 Rh3 2.640119 1_555
Al4 La1 3.106566 1_655
Al4 La0 3.110740 1_555
Al4 La3 3.116342 1_665
Al5 Rh2 2.619853 1_545
Al5 Rh5 2.639009 1_555
Al5 Rh3 2.640119 1_555
Al5 La2 3.106566 1_545
Al5 La3 3.110740 1_555
Al5 La0 3.116342 1_445
Al6 Rh3 2.619853 1_455
Al6 Rh5 2.639009 1_555
Al6 Rh2 2.640119 1_555
Al6 La0 3.106566 1_455
Al6 La1 3.110740 1_555
Al6 La2 3.116342 1_445
Al7 Rh3 2.619853 1_565
Al7 Rh5 2.639009 1_665
Al7 Rh2 2.640119 1_555
Al7 La3 3.106566 1_565
Al7 La2 3.110740 1_555
Al7 La1 3.116342 1_665
Al8 Rh0 2.619853 1_566
Al8 Rh4 2.639009 1_666
Al8 Rh1 2.640119 1_556
Al8 La3 3.106566 1_565
Al8 La2 3.110740 1_556
Al8 La1 3.116342 1_665
Al9 Rh1 2.619853 1_545
Al9 Rh4 2.639009 1_555
Al9 Rh0 2.640119 1_555
Al9 La2 3.106566 1_545
Al9 La3 3.110740 1_554
Al9 La0 3.116342 1_445
Al10 Rh2 2.609419 1_555
Al10 Rh3 2.609419 1_555
Al10 Rh5 2.617976 1_555
Al10 La1 3.217182 1_555
Al10 La3 3.217182 1_555
Al11 Rh2 2.609419 1_555
Al11 Rh3 2.609419 1_555
Al11 Rh5 2.617976 1_665
Al11 La2 3.217182 1_555
Al11 La0 3.217182 1_555
Al12 Rh1 2.609419 1_555
Al12 Rh0 2.609419 1_555
Al12 Rh4 2.617976 1_665
Al12 La2 3.217182 1_555
Al12 La0 3.217182 1_555
Al13 Rh1 2.609419 1_556
Al13 Rh0 2.609419 1_556
Al13 Rh4 2.617976 1_556
Al13 La1 3.217182 1_555
Al13 La3 3.217182 1_555
Al14 Rh1 2.607901 1_555
Al14 Rh2 2.607901 1_555
Al14 La2 3.118602 1_555
Al14 La0 3.209587 1_455
Al15 Rh0 2.607901 1_556
Al15 Rh3 2.607901 1_555
Al15 La3 3.118602 1_555
Al15 La1 3.209587 1_655
Al16 Rh0 2.607901 1_555
Al16 Rh3 2.607901 1_555
Al16 La0 3.118602 1_555
Al16 La2 3.209587 1_545
Al17 Rh2 2.607901 1_555
Al17 Rh1 2.607901 1_556
Al17 La1 3.118602 1_555
Al17 La3 3.209587 1_565
