# generated using pymatgen
data_Cs3DyCl6
_symmetry_space_group_name_H-M   'P 1'
_cell_length_a   8.39246795
_cell_length_b   8.39246795
_cell_length_c   8.39246795
_cell_angle_alpha   60.00000000
_cell_angle_beta   60.00000000
_cell_angle_gamma   60.00000000
_symmetry_Int_Tables_number   1
_chemical_formula_structural   Cs3DyCl6
_chemical_formula_sum   'Cs3 Dy1 Cl6'
_cell_volume   417.97862861
_cell_formula_units_Z   1
loop_
 _symmetry_equiv_pos_site_id
 _symmetry_equiv_pos_as_xyz
  1  'x, y, z'
loop_
 _atom_site_type_symbol
 _atom_site_label
 _atom_site_symmetry_multiplicity
 _atom_site_fract_x
 _atom_site_fract_y
 _atom_site_fract_z
 _atom_site_occupancy
  Cs  Cs0  1  0.25000000  0.25000000  0.25000000  1
  Cs  Cs1  1  0.75000000  0.75000000  0.75000000  1
  Cs  Cs2  1  0.50000000  0.50000000  0.50000000  1
  Dy  Dy0  1  0.00000000  0.00000000  0.00000000  1
  Cl  Cl0  1  0.77758200  0.22241800  0.22241800  1
  Cl  Cl1  1  0.22241800  0.77758200  0.77758200  1
  Cl  Cl2  1  0.22241800  0.77758200  0.22241800  1
  Cl  Cl3  1  0.77758200  0.22241800  0.77758200  1
  Cl  Cl4  1  0.22241800  0.22241800  0.77758200  1
  Cl  Cl5  1  0.77758200  0.77758200  0.22241800  1
loop_
_geom_bond_atom_site_label_1
_geom_bond_atom_site_label_2
_geom_bond_distance
_geom_bond_site_symmetry_2
Cl0 Dy0 2.639822 1_655
Cl0 Cs2 3.294549 1_555
Cl0 Cs0 4.208984 1_555
Cl0 Cs1 4.208984 1_554
Cl0 Cs1 4.208984 1_545
Cl0 Cs0 4.208984 1_655
Cl1 Dy0 2.639822 1_566
Cl1 Cs2 3.294549 1_555
Cl1 Cs1 4.208984 1_455
Cl1 Cs0 4.208984 1_556
Cl1 Cs0 4.208984 1_565
Cl1 Cs1 4.208984 1_555
Cl2 Dy0 2.639822 1_565
Cl2 Cs2 3.294549 1_555
Cl2 Cs0 4.208984 1_555
Cl2 Cs1 4.208984 1_455
Cl2 Cs1 4.208984 1_554
Cl2 Cs0 4.208984 1_565
Cl3 Dy0 2.639822 1_656
Cl3 Cs2 3.294549 1_555
Cl3 Cs1 4.208984 1_545
Cl3 Cs0 4.208984 1_655
Cl3 Cs0 4.208984 1_556
Cl3 Cs1 4.208984 1_555
Cl4 Dy0 2.639822 1_556
Cl4 Cs2 3.294549 1_555
Cl4 Cs0 4.208984 1_555
Cl4 Cs1 4.208984 1_455
Cl4 Cs1 4.208984 1_545
Cl4 Cs0 4.208984 1_556
Cl5 Dy0 2.639822 1_665
Cl5 Cs2 3.294549 1_555
Cl5 Cs1 4.208984 1_554
Cl5 Cs0 4.208984 1_655
Cl5 Cs0 4.208984 1_565
Cl5 Cs1 4.208984 1_555
