# generated using pymatgen
data_Zn3Si3(SnO6)2
_symmetry_space_group_name_H-M   'P 1'
_cell_length_a   10.70327725
_cell_length_b   10.70327725
_cell_length_c   10.70327725
_cell_angle_alpha   109.47122063
_cell_angle_beta   109.47122063
_cell_angle_gamma   109.47122063
_symmetry_Int_Tables_number   1
_chemical_formula_structural   Zn3Si3(SnO6)2
_chemical_formula_sum   'Zn12 Si12 Sn8 O48'
_cell_volume   943.90532164
_cell_formula_units_Z   4
loop_
 _symmetry_equiv_pos_site_id
 _symmetry_equiv_pos_as_xyz
  1  'x, y, z'
loop_
 _atom_site_type_symbol
 _atom_site_label
 _atom_site_symmetry_multiplicity
 _atom_site_fract_x
 _atom_site_fract_y
 _atom_site_fract_z
 _atom_site_occupancy
  Zn  Zn0  1  0.25000000  0.37500000  0.12500000  1
  Zn  Zn1  1  0.75000000  0.12500000  0.37500000  1
  Zn  Zn2  1  0.37500000  0.12500000  0.25000000  1
  Zn  Zn3  1  0.12500000  0.37500000  0.75000000  1
  Zn  Zn4  1  0.25000000  0.87500000  0.62500000  1
  Zn  Zn5  1  0.12500000  0.25000000  0.37500000  1
  Zn  Zn6  1  0.62500000  0.25000000  0.87500000  1
  Zn  Zn7  1  0.75000000  0.62500000  0.87500000  1
  Zn  Zn8  1  0.87500000  0.75000000  0.62500000  1
  Zn  Zn9  1  0.87500000  0.62500000  0.25000000  1
  Zn  Zn10  1  0.62500000  0.87500000  0.75000000  1
  Zn  Zn11  1  0.37500000  0.75000000  0.12500000  1
  Si  Si0  1  0.12500000  0.75000000  0.87500000  1
  Si  Si1  1  0.87500000  0.25000000  0.12500000  1
  Si  Si2  1  0.75000000  0.37500000  0.62500000  1
  Si  Si3  1  0.12500000  0.87500000  0.25000000  1
  Si  Si4  1  0.25000000  0.12500000  0.87500000  1
  Si  Si5  1  0.37500000  0.62500000  0.75000000  1
  Si  Si6  1  0.37500000  0.25000000  0.62500000  1
  Si  Si7  1  0.87500000  0.12500000  0.75000000  1
  Si  Si8  1  0.62500000  0.37500000  0.25000000  1
  Si  Si9  1  0.75000000  0.87500000  0.12500000  1
  Si  Si10  1  0.25000000  0.62500000  0.37500000  1
  Si  Si11  1  0.62500000  0.75000000  0.37500000  1
  Sn  Sn0  1  0.50000000  0.00000000  0.00000000  1
  Sn  Sn1  1  0.50000000  0.50000000  0.00000000  1
  Sn  Sn2  1  0.00000000  0.50000000  0.50000000  1
  Sn  Sn3  1  0.00000000  0.00000000  0.50000000  1
  Sn  Sn4  1  0.50000000  0.50000000  0.50000000  1
  Sn  Sn5  1  0.00000000  0.50000000  0.00000000  1
  Sn  Sn6  1  0.50000000  0.00000000  0.50000000  1
  Sn  Sn7  1  0.00000000  0.00000000  0.00000000  1
  O  O0  1  0.58653800  0.88973400  0.37623400  1
  O  O1  1  0.37623400  0.58653800  0.88973400  1
  O  O2  1  0.28969600  0.30319600  0.91346200  1
  O  O3  1  0.48650000  0.61026600  0.19680400  1
  O  O4  1  0.30319600  0.88973400  0.01350000  1
  O  O5  1  0.12376600  0.01350000  0.21030400  1
  O  O6  1  0.37623400  0.28969600  0.48650000  1
  O  O7  1  0.88973400  0.37623400  0.58653800  1
  O  O8  1  0.19680400  0.21030400  0.58653800  1
  O  O9  1  0.48650000  0.37623400  0.28969600  1
  O  O10  1  0.88973400  0.01350000  0.30319600  1
  O  O11  1  0.61026600  0.91346200  0.12376600  1
  O  O12  1  0.91346200  0.12376600  0.61026600  1
  O  O13  1  0.28969600  0.48650000  0.37623400  1
  O  O14  1  0.58653800  0.19680400  0.21030400  1
  O  O15  1  0.21030400  0.58653800  0.19680400  1
  O  O16  1  0.01350000  0.30319600  0.88973400  1
  O  O17  1  0.91346200  0.28969600  0.30319600  1
  O  O18  1  0.01350000  0.21030400  0.12376600  1
  O  O19  1  0.80319600  0.78969600  0.41346200  1
  O  O20  1  0.19680400  0.48650000  0.61026600  1
  O  O21  1  0.61026600  0.19680400  0.48650000  1
  O  O22  1  0.21030400  0.12376600  0.01350000  1
  O  O23  1  0.12376600  0.61026600  0.91346200  1
  O  O24  1  0.41346200  0.11026600  0.62376600  1
  O  O25  1  0.62376600  0.41346200  0.11026600  1
  O  O26  1  0.71030400  0.69680400  0.08653800  1
  O  O27  1  0.51350000  0.38973400  0.80319600  1
  O  O28  1  0.69680400  0.11026600  0.98650000  1
  O  O29  1  0.87623400  0.98650000  0.78969600  1
  O  O30  1  0.62376600  0.71030400  0.51350000  1
  O  O31  1  0.11026600  0.62376600  0.41346200  1
  O  O32  1  0.87623400  0.38973400  0.08653800  1
  O  O33  1  0.78969600  0.87623400  0.98650000  1
  O  O34  1  0.38973400  0.80319600  0.51350000  1
  O  O35  1  0.69680400  0.08653800  0.71030400  1
  O  O36  1  0.80319600  0.51350000  0.38973400  1
  O  O37  1  0.98650000  0.78969600  0.87623400  1
  O  O38  1  0.08653800  0.71030400  0.69680400  1
  O  O39  1  0.98650000  0.69680400  0.11026600  1
  O  O40  1  0.78969600  0.41346200  0.80319600  1
  O  O41  1  0.41346200  0.80319600  0.78969600  1
  O  O42  1  0.71030400  0.51350000  0.62376600  1
  O  O43  1  0.08653800  0.87623400  0.38973400  1
  O  O44  1  0.38973400  0.08653800  0.87623400  1
  O  O45  1  0.11026600  0.98650000  0.69680400  1
  O  O46  1  0.51350000  0.62376600  0.71030400  1
  O  O47  1  0.30319600  0.91346200  0.28969600  1
loop_
_geom_bond_atom_site_label_1
_geom_bond_atom_site_label_2
_geom_bond_distance
_geom_bond_site_symmetry_2
O0 Si11 1.675536 1_555
O0 Sn6 2.123706 1_565
O0 Zn11 2.365693 1_555
O0 Zn1 2.550019 1_565
O1 Si5 1.675536 1_555
O1 Sn1 2.123706 1_556
O1 Zn3 2.365693 1_555
O1 Zn11 2.550019 1_556
O2 Si4 1.675536 1_555
O2 Sn1 2.123706 1_556
O2 Zn0 2.365693 1_556
O2 Zn3 2.550019 1_555
O3 Si11 1.675536 1_555
O3 Sn1 2.123706 1_555
O3 Zn11 2.365693 1_555
O3 Zn0 2.550019 1_555
O4 Si0 1.675536 1_554
O4 Sn0 2.123706 1_565
O4 Zn11 2.365693 1_555
O4 Zn2 2.550019 1_565
O5 Si3 1.675536 1_545
O5 Sn7 2.123706 1_555
O5 Zn2 2.365693 1_555
O5 Zn5 2.550019 1_555
O6 Si6 1.675536 1_555
O6 Sn4 2.123706 1_555
O6 Zn5 2.365693 1_555
O6 Zn2 2.550019 1_555
O7 Si2 1.675536 1_555
O7 Sn2 2.123706 1_655
O7 Zn1 2.365693 1_555
O7 Zn3 2.550019 1_655
O8 Si6 1.675536 1_555
O8 Sn3 2.123706 1_555
O8 Zn5 2.365693 1_555
O8 Zn3 2.550019 1_555
O9 Si8 1.675536 1_555
O9 Sn4 2.123706 1_555
O9 Zn2 2.365693 1_555
O9 Zn0 2.550019 1_555
O10 Si9 1.675536 1_545
O10 Sn3 2.123706 1_655
O10 Zn1 2.365693 1_555
O10 Zn5 2.550019 1_655
O11 Si9 1.675536 1_555
O11 Sn0 2.123706 1_565
O11 Zn1 2.365693 1_565
O11 Zn11 2.550019 1_555
O12 Si7 1.675536 1_555
O12 Sn3 2.123706 1_655
O12 Zn3 2.365693 1_655
O12 Zn1 2.550019 1_555
O13 Si10 1.675536 1_555
O13 Sn4 2.123706 1_555
O13 Zn0 2.365693 1_555
O13 Zn5 2.550019 1_555
O14 Si8 1.675536 1_555
O14 Sn0 2.123706 1_555
O14 Zn2 2.365693 1_555
O14 Zn1 2.550019 1_555
O15 Si10 1.675536 1_555
O15 Sn5 2.123706 1_555
O15 Zn0 2.365693 1_555
O15 Zn11 2.550019 1_555
O16 Si7 1.675536 1_455
O16 Sn5 2.123706 1_556
O16 Zn3 2.365693 1_555
O16 Zn0 2.550019 1_556
O17 Si1 1.675536 1_555
O17 Sn2 2.123706 1_655
O17 Zn5 2.365693 1_655
O17 Zn1 2.550019 1_555
O18 Si1 1.675536 1_455
O18 Sn7 2.123706 1_555
O18 Zn5 2.365693 1_555
O18 Zn0 2.550019 1_555
O19 Si11 1.675536 1_555
O19 Sn3 2.123706 1_665
O19 Zn8 2.365693 1_555
O19 Zn9 2.550019 1_555
O20 Si5 1.675536 1_555
O20 Sn2 2.123706 1_555
O20 Zn3 2.365693 1_555
O20 Zn5 2.550019 1_555
O21 Si2 1.675536 1_555
O21 Sn6 2.123706 1_555
O21 Zn1 2.365693 1_555
O21 Zn2 2.550019 1_555
O22 Si4 1.675536 1_554
O22 Sn7 2.123706 1_555
O22 Zn0 2.365693 1_555
O22 Zn2 2.550019 1_555
O23 Si0 1.675536 1_555
O23 Sn5 2.123706 1_556
O23 Zn11 2.365693 1_556
O23 Zn3 2.550019 1_555
O24 Si6 1.675536 1_555
O24 Sn6 2.123706 1_555
O24 Zn6 2.365693 1_555
O24 Zn4 2.550019 1_545
O25 Si8 1.675536 1_555
O25 Sn1 2.123706 1_555
O25 Zn9 2.365693 1_555
O25 Zn6 2.550019 1_554
O26 Si9 1.675536 1_555
O26 Sn1 2.123706 1_555
O26 Zn7 2.365693 1_554
O26 Zn9 2.550019 1_555
O27 Si6 1.675536 1_555
O27 Sn1 2.123706 1_556
O27 Zn6 2.365693 1_555
O27 Zn7 2.550019 1_555
O28 Si1 1.675536 1_556
O28 Sn0 2.123706 1_556
O28 Zn6 2.365693 1_555
O28 Zn10 2.550019 1_545
O29 Si7 1.675536 1_565
O29 Sn7 2.123706 1_666
O29 Zn10 2.365693 1_555
O29 Zn8 2.550019 1_555
O30 Si11 1.675536 1_555
O30 Sn4 2.123706 1_555
O30 Zn8 2.365693 1_555
O30 Zn10 2.550019 1_555
O31 Si10 1.675536 1_555
O31 Sn2 2.123706 1_555
O31 Zn4 2.365693 1_555
O31 Zn9 2.550019 1_455
O32 Si1 1.675536 1_555
O32 Sn5 2.123706 1_655
O32 Zn6 2.365693 1_554
O32 Zn9 2.550019 1_555
O33 Si9 1.675536 1_556
O33 Sn7 2.123706 1_666
O33 Zn7 2.365693 1_555
O33 Zn10 2.550019 1_555
O34 Si10 1.675536 1_555
O34 Sn6 2.123706 1_565
O34 Zn4 2.365693 1_555
O34 Zn10 2.550019 1_555
O35 Si7 1.675536 1_555
O35 Sn6 2.123706 1_555
O35 Zn10 2.365693 1_545
O35 Zn6 2.550019 1_555
O36 Si8 1.675536 1_555
O36 Sn2 2.123706 1_655
O36 Zn9 2.365693 1_555
O36 Zn8 2.550019 1_555
O37 Si0 1.675536 1_655
O37 Sn7 2.123706 1_666
O37 Zn8 2.365693 1_555
O37 Zn7 2.550019 1_555
O38 Si0 1.675536 1_555
O38 Sn2 2.123706 1_555
O38 Zn8 2.365693 1_455
O38 Zn4 2.550019 1_555
O39 Si3 1.675536 1_655
O39 Sn5 2.123706 1_655
O39 Zn9 2.365693 1_555
O39 Zn7 2.550019 1_554
O40 Si2 1.675536 1_555
O40 Sn5 2.123706 1_656
O40 Zn7 2.365693 1_555
O40 Zn6 2.550019 1_555
O41 Si5 1.675536 1_555
O41 Sn0 2.123706 1_566
O41 Zn10 2.365693 1_555
O41 Zn4 2.550019 1_555
O42 Si2 1.675536 1_555
O42 Sn4 2.123706 1_555
O42 Zn7 2.365693 1_555
O42 Zn8 2.550019 1_555
O43 Si3 1.675536 1_555
O43 Sn3 2.123706 1_565
O43 Zn9 2.365693 1_455
O43 Zn4 2.550019 1_555
O44 Si4 1.675536 1_555
O44 Sn0 2.123706 1_556
O44 Zn4 2.365693 1_545
O44 Zn6 2.550019 1_555
O45 Si4 1.675536 1_565
O45 Sn3 2.123706 1_565
O45 Zn4 2.365693 1_555
O45 Zn8 2.550019 1_455
O46 Si5 1.675536 1_555
O46 Sn4 2.123706 1_555
O46 Zn10 2.365693 1_555
O46 Zn7 2.550019 1_555
O47 Si3 1.675536 1_555
O47 Sn6 2.123706 1_565
O47 Zn2 2.365693 1_565
O47 Zn11 2.550019 1_555
