# generated using pymatgen
data_Zn5(SiN3)2
_symmetry_space_group_name_H-M   'P 1'
_cell_length_a   11.26263300
_cell_length_b   11.26263300
_cell_length_c   5.65845900
_cell_angle_alpha   90.00000000
_cell_angle_beta   90.00000000
_cell_angle_gamma   90.00000000
_symmetry_Int_Tables_number   1
_chemical_formula_structural   Zn5(SiN3)2
_chemical_formula_sum   'Zn20 Si8 N24'
_cell_volume   717.75799477
_cell_formula_units_Z   4
loop_
 _symmetry_equiv_pos_site_id
 _symmetry_equiv_pos_as_xyz
  1  'x, y, z'
loop_
 _atom_site_type_symbol
 _atom_site_label
 _atom_site_symmetry_multiplicity
 _atom_site_fract_x
 _atom_site_fract_y
 _atom_site_fract_z
 _atom_site_occupancy
  Zn  Zn0  1  0.22940400  0.09776300  0.91518600  1
  Zn  Zn1  1  0.27059600  0.59776300  0.91518600  1
  Zn  Zn2  1  0.77059600  0.90223700  0.91518600  1
  Zn  Zn3  1  0.72940400  0.40223700  0.91518600  1
  Zn  Zn4  1  0.90223700  0.22940400  0.08481400  1
  Zn  Zn5  1  0.59776300  0.72940400  0.08481400  1
  Zn  Zn6  1  0.09776300  0.77059600  0.08481400  1
  Zn  Zn7  1  0.40223700  0.27059600  0.08481400  1
  Zn  Zn8  1  0.50000000  0.00000000  0.00000000  1
  Zn  Zn9  1  0.00000000  0.50000000  0.00000000  1
  Zn  Zn10  1  0.43980900  0.31347700  0.59838900  1
  Zn  Zn11  1  0.06019100  0.81347700  0.59838900  1
  Zn  Zn12  1  0.56019100  0.68652300  0.59838900  1
  Zn  Zn13  1  0.93980900  0.18652300  0.59838900  1
  Zn  Zn14  1  0.68652300  0.43980900  0.40161100  1
  Zn  Zn15  1  0.81347700  0.93980900  0.40161100  1
  Zn  Zn16  1  0.31347700  0.56019100  0.40161100  1
  Zn  Zn17  1  0.18652300  0.06019100  0.40161100  1
  Zn  Zn18  1  0.50000000  0.00000000  0.50000000  1
  Zn  Zn19  1  0.00000000  0.50000000  0.50000000  1
  Si  Si0  1  0.61940500  0.20965700  0.75348600  1
  Si  Si1  1  0.88059500  0.70965700  0.75348600  1
  Si  Si2  1  0.38059500  0.79034300  0.75348600  1
  Si  Si3  1  0.11940500  0.29034300  0.75348600  1
  Si  Si4  1  0.79034300  0.61940500  0.24651400  1
  Si  Si5  1  0.70965700  0.11940500  0.24651400  1
  Si  Si6  1  0.20965700  0.38059500  0.24651400  1
  Si  Si7  1  0.29034300  0.88059500  0.24651400  1
  N  N0  1  0.47422000  0.17766800  0.84453400  1
  N  N1  1  0.02578000  0.67766800  0.84453400  1
  N  N2  1  0.52578000  0.82233200  0.84453400  1
  N  N3  1  0.97422000  0.32233200  0.84453400  1
  N  N4  1  0.82233200  0.47422000  0.15546600  1
  N  N5  1  0.67766800  0.97422000  0.15546600  1
  N  N6  1  0.17766800  0.52578000  0.15546600  1
  N  N7  1  0.32233200  0.02578000  0.15546600  1
  N  N8  1  0.62129600  0.35932400  0.66137500  1
  N  N9  1  0.87870400  0.85932400  0.66137500  1
  N  N10  1  0.37870400  0.64067600  0.66137500  1
  N  N11  1  0.12129600  0.14067600  0.66137500  1
  N  N12  1  0.64067600  0.62129600  0.33862500  1
  N  N13  1  0.85932400  0.12129600  0.33862500  1
  N  N14  1  0.35932400  0.37870400  0.33862500  1
  N  N15  1  0.14067600  0.87870400  0.33862500  1
  N  N16  1  0.21245200  0.28754800  0.00000000  1
  N  N17  1  0.28754800  0.78754800  0.00000000  1
  N  N18  1  0.78754800  0.71245200  0.00000000  1
  N  N19  1  0.71245200  0.21245200  0.00000000  1
  N  N20  1  0.62140100  0.12140100  0.50000000  1
  N  N21  1  0.87859900  0.62140100  0.50000000  1
  N  N22  1  0.37859900  0.87859900  0.50000000  1
  N  N23  1  0.12140100  0.37859900  0.50000000  1
loop_
_geom_bond_atom_site_label_1
_geom_bond_atom_site_label_2
_geom_bond_distance
_geom_bond_site_symmetry_2
N0 Si0 1.751853 1_555
N0 Zn7 1.897687 1_556
N0 Zn10 2.104679 1_555
N0 Zn8 2.205042 1_556
N1 Si1 1.751853 1_455
N1 Zn6 1.897687 1_556
N1 Zn11 2.104679 1_555
N1 Zn9 2.205042 1_556
N2 Si2 1.751853 1_555
N2 Zn5 1.897687 1_556
N2 Zn12 2.104679 1_555
N2 Zn8 2.205042 1_566
N3 Si3 1.751853 1_655
N3 Zn4 1.897687 1_556
N3 Zn13 2.104679 1_555
N3 Zn9 2.205042 1_656
N4 Si4 1.751853 1_555
N4 Zn3 1.897687 1_554
N4 Zn14 2.104679 1_555
N4 Zn9 2.205042 1_655
N5 Si5 1.751853 1_565
N5 Zn2 1.897687 1_554
N5 Zn15 2.104679 1_555
N5 Zn8 2.205042 1_565
N6 Si6 1.751853 1_555
N6 Zn1 1.897687 1_554
N6 Zn16 2.104679 1_555
N6 Zn9 2.205042 1_555
N7 Si7 1.751853 1_545
N7 Zn0 1.897687 1_554
N7 Zn17 2.104679 1_555
N7 Zn8 2.205042 1_555
N8 Si0 1.764513 1_555
N8 Zn14 1.876665 1_555
N8 Zn3 1.943889 1_555
N8 Zn10 2.138147 1_555
N9 Si1 1.764513 1_555
N9 Zn15 1.876665 1_555
N9 Zn2 1.943889 1_555
N9 Zn11 2.138147 1_655
N10 Si2 1.764513 1_555
N10 Zn16 1.876665 1_555
N10 Zn1 1.943889 1_555
N10 Zn12 2.138147 1_555
N11 Si3 1.764513 1_555
N11 Zn17 1.876665 1_555
N11 Zn0 1.943889 1_555
N11 Zn13 2.138147 1_455
N12 Si4 1.764513 1_555
N12 Zn12 1.876665 1_555
N12 Zn5 1.943889 1_555
N12 Zn14 2.138147 1_555
N13 Si5 1.764513 1_555
N13 Zn13 1.876665 1_555
N13 Zn4 1.943889 1_555
N13 Zn15 2.138147 1_545
N14 Si6 1.764513 1_555
N14 Zn10 1.876665 1_555
N14 Zn7 1.943889 1_555
N14 Zn16 2.138147 1_555
N15 Si7 1.764513 1_555
N15 Zn11 1.876665 1_555
N15 Zn6 1.943889 1_555
N15 Zn17 2.138147 1_565
N16 Si6 1.744969 1_555
N16 Si3 1.744969 1_554
N16 Zn7 2.198997 1_555
N16 Zn0 2.198997 1_554
N17 Si7 1.744969 1_555
N17 Si2 1.744969 1_554
N17 Zn6 2.198997 1_555
N17 Zn1 2.198997 1_554
N18 Si4 1.744969 1_555
N18 Si1 1.744969 1_554
N18 Zn5 2.198997 1_555
N18 Zn2 2.198997 1_554
N19 Si5 1.744969 1_555
N19 Si0 1.744969 1_554
N19 Zn3 2.198997 1_554
N19 Zn4 2.198997 1_555
N20 Si0 1.745240 1_555
N20 Si5 1.745240 1_555
N20 Zn18 1.933647 1_555
N21 Si4 1.745240 1_555
N21 Si1 1.745240 1_555
N21 Zn19 1.933647 1_655
N22 Si2 1.745240 1_555
N22 Si7 1.745240 1_555
N22 Zn18 1.933647 1_565
N23 Si6 1.745240 1_555
N23 Si3 1.745240 1_555
N23 Zn19 1.933647 1_555
