# generated using pymatgen
data_ThP2
_symmetry_space_group_name_H-M   'P 1'
_cell_length_a   3.86502366
_cell_length_b   7.24627270
_cell_length_c   9.42745141
_cell_angle_alpha   90.00000000
_cell_angle_beta   90.00000000
_cell_angle_gamma   90.00000000
_symmetry_Int_Tables_number   1
_chemical_formula_structural   ThP2
_chemical_formula_sum   'Th4 P8'
_cell_volume   264.03477713
_cell_formula_units_Z   4
loop_
 _symmetry_equiv_pos_site_id
 _symmetry_equiv_pos_as_xyz
  1  'x, y, z'
loop_
 _atom_site_type_symbol
 _atom_site_label
 _atom_site_symmetry_multiplicity
 _atom_site_fract_x
 _atom_site_fract_y
 _atom_site_fract_z
 _atom_site_occupancy
  Th  Th0  1  0.25000000  0.29974149  0.84665325  1
  Th  Th1  1  0.25000000  0.79974149  0.65334675  1
  Th  Th2  1  0.75000000  0.70025851  0.15334675  1
  Th  Th3  1  0.75000000  0.20025851  0.34665325  1
  P  P0  1  0.25000000  0.91803687  0.96118319  1
  P  P1  1  0.25000000  0.41803687  0.53881681  1
  P  P2  1  0.75000000  0.08196313  0.03881681  1
  P  P3  1  0.75000000  0.58196313  0.46118319  1
  P  P4  1  0.25000000  0.89594461  0.33970213  1
  P  P5  1  0.25000000  0.39594461  0.16029787  1
  P  P6  1  0.75000000  0.10405539  0.66029787  1
  P  P7  1  0.75000000  0.60405539  0.83970213  1
loop_
_geom_bond_atom_site_label_1
_geom_bond_atom_site_label_2
_geom_bond_distance
_geom_bond_site_symmetry_2
P0 P2 2.383539 1_566
P0 P2 2.383539 1_466
P0 Th0 2.969210 1_565
P0 Th1 3.026062 1_555
P0 Th2 3.083323 1_556
P0 Th2 3.083323 1_456
P1 P3 2.383539 1_555
P1 P3 2.383539 1_455
P1 Th1 2.969210 1_555
P1 Th0 3.026062 1_555
P1 Th3 3.083323 1_555
P1 Th3 3.083323 1_455
P2 Th2 2.969210 1_545
P2 Th3 3.026062 1_555
P2 Th0 3.083323 1_554
P2 Th0 3.083323 1_654
P3 Th3 2.969210 1_555
P3 Th2 3.026062 1_555
P3 Th1 3.083323 1_655
P3 Th1 3.083323 1_555
P4 Th3 2.932839 1_565
P4 Th3 2.932839 1_465
P4 Th2 2.971844 1_455
P4 Th2 2.971844 1_555
P4 Th1 3.037934 1_555
P5 Th2 2.932839 1_455
P5 Th2 2.932839 1_555
P5 Th3 2.971844 1_455
P5 Th3 2.971844 1_555
P5 Th0 3.037934 1_554
P6 Th1 2.932839 1_545
P6 Th1 2.932839 1_645
P6 Th0 2.971844 1_555
P6 Th0 2.971844 1_655
P6 Th3 3.037934 1_555
P7 Th0 2.932839 1_555
P7 Th0 2.932839 1_655
P7 Th1 2.971844 1_655
P7 Th1 2.971844 1_555
P7 Th2 3.037934 1_556
