# generated using pymatgen
data_SrCr(Si2O5)2
_symmetry_space_group_name_H-M   'P 1'
_cell_length_a   7.46077479
_cell_length_b   7.46077608
_cell_length_c   15.62882320
_cell_angle_alpha   90.00000000
_cell_angle_beta   90.00000000
_cell_angle_gamma   90.00000576
_symmetry_Int_Tables_number   1
_chemical_formula_structural   SrCr(Si2O5)2
_chemical_formula_sum   'Sr4 Cr4 Si16 O40'
_cell_volume   869.94984411
_cell_formula_units_Z   4
loop_
 _symmetry_equiv_pos_site_id
 _symmetry_equiv_pos_as_xyz
  1  'x, y, z'
loop_
 _atom_site_type_symbol
 _atom_site_label
 _atom_site_symmetry_multiplicity
 _atom_site_fract_x
 _atom_site_fract_y
 _atom_site_fract_z
 _atom_site_occupancy
  Sr  Sr0  1  0.50000000  0.50000000  0.49999997  1
  Sr  Sr1  1  -0.00000000  0.00000000  0.50000003  1
  Sr  Sr2  1  -0.00000000  0.00000000  0.99999999  1
  Sr  Sr3  1  0.50000000  0.50000000  0.00000001  1
  Cr  Cr0  1  0.50000000  0.00000000  0.58584637  1
  Cr  Cr1  1  -0.00000000  0.50000000  0.91421716  1
  Cr  Cr2  1  -0.00000000  0.50000000  0.41415363  1
  Cr  Cr3  1  0.50000000  0.00000000  0.08578284  1
  Si  Si0  1  0.17694096  0.25858064  0.65077633  1
  Si  Si1  1  0.82305904  0.74141936  0.65077633  1
  Si  Si2  1  0.25858054  0.17694257  0.84924045  1
  Si  Si3  1  0.75858062  0.32305904  0.65077637  1
  Si  Si4  1  0.24141938  0.67694096  0.65077637  1
  Si  Si5  1  0.32305727  0.75858041  0.84924050  1
  Si  Si6  1  0.67694273  0.24141959  0.84924050  1
  Si  Si7  1  0.74141946  0.82305743  0.84924045  1
  Si  Si8  1  0.32305904  0.24141936  0.34922367  1
  Si  Si9  1  0.67694096  0.75858064  0.34922367  1
  Si  Si10  1  0.24141946  0.32305743  0.15075955  1
  Si  Si11  1  0.74141938  0.17694096  0.34922363  1
  Si  Si12  1  0.25858062  0.82305904  0.34922363  1
  Si  Si13  1  0.17694273  0.74141959  0.15075950  1
  Si  Si14  1  0.82305727  0.25858041  0.15075950  1
  Si  Si15  1  0.75858054  0.67694257  0.15075955  1
  O  O0  1  0.26081606  0.11770478  0.58585962  1
  O  O1  1  0.73918394  0.88229522  0.58585962  1
  O  O2  1  0.11770494  0.26082737  0.91415992  1
  O  O3  1  0.61770461  0.23918395  0.58585956  1
  O  O4  1  0.38229539  0.76081605  0.58585956  1
  O  O5  1  0.23917258  0.61770510  0.91415986  1
  O  O6  1  0.76082742  0.38229490  0.91415986  1
  O  O7  1  0.88229506  0.73917263  0.91415992  1
  O  O8  1  0.23918394  0.38229522  0.41414038  1
  O  O9  1  0.76081606  0.61770478  0.41414038  1
  O  O10  1  0.38229506  0.23917263  0.08584008  1
  O  O11  1  0.88229539  0.26081605  0.41414044  1
  O  O12  1  0.11770461  0.73918395  0.41414044  1
  O  O13  1  0.26082742  0.88229490  0.08584014  1
  O  O14  1  0.73917258  0.11770510  0.08584014  1
  O  O15  1  0.25143958  0.03880662  0.36826720  1
  O  O16  1  0.61770494  0.76082737  0.08584008  1
  O  O17  1  0.75143958  0.53880662  0.63173280  1
  O  O18  1  0.46119414  0.24855581  0.86828848  1
  O  O19  1  0.96119353  0.25143941  0.63173283  1
  O  O20  1  0.03880647  0.74856059  0.63173283  1
  O  O21  1  0.25144394  0.96119436  0.86828845  1
  O  O22  1  0.74855606  0.03880564  0.86828845  1
  O  O23  1  0.53880586  0.75144419  0.86828848  1
  O  O24  1  0.71291862  0.71290916  0.24998735  1
  O  O25  1  0.78709110  0.21291830  0.24998739  1
  O  O26  1  0.21290890  0.78708170  0.24998739  1
  O  O27  1  0.28708138  0.28709084  0.24998735  1
  O  O28  1  0.78708138  0.78709084  0.75001265  1
  O  O29  1  0.71290890  0.28708170  0.75001261  1
  O  O30  1  0.28709110  0.71291830  0.75001261  1
  O  O31  1  0.21291862  0.21290916  0.75001265  1
  O  O32  1  0.96119414  0.74855581  0.13171152  1
  O  O33  1  0.75144394  0.46119436  0.13171155  1
  O  O34  1  0.24855606  0.53880564  0.13171155  1
  O  O35  1  0.46119353  0.75143941  0.36826717  1
  O  O36  1  0.53880647  0.24856059  0.36826717  1
  O  O37  1  0.03880586  0.25144419  0.13171152  1
  O  O38  1  0.74856042  0.96119338  0.36826720  1
  O  O39  1  0.24856042  0.46119338  0.63173280  1
loop_
_geom_bond_atom_site_label_1
_geom_bond_atom_site_label_2
_geom_bond_distance
_geom_bond_site_symmetry_2
Cr0 O3 1.988872 1_555
Cr0 O4 1.988872 1_545
Cr0 O1 1.988872 1_545
Cr0 O0 1.988872 1_555
Cr1 O6 1.988797 1_455
Cr1 O5 1.988797 1_555
Cr1 O7 1.988797 1_455
Cr1 O2 1.988797 1_555
Cr2 O11 1.988872 1_455
Cr2 O12 1.988872 1_555
Cr2 O9 1.988872 1_455
Cr2 O8 1.988872 1_555
Cr3 O14 1.988797 1_555
Cr3 O13 1.988797 1_545
Cr3 O10 1.988797 1_555
Cr3 O16 1.988797 1_545
O0 Si0 1.589226 1_555
O0 Sr1 2.521571 1_555
O1 Si1 1.589226 1_555
O1 Sr1 2.521571 1_665
O2 Si2 1.589281 1_555
O2 Sr2 2.521475 1_555
O3 Si3 1.589228 1_555
O3 Sr0 2.521571 1_555
O4 Si4 1.589228 1_555
O4 Sr0 2.521571 1_555
O5 Si5 1.589278 1_555
O5 Sr3 2.521476 1_556
O6 Si6 1.589278 1_555
O6 Sr3 2.521476 1_556
O7 Si7 1.589281 1_555
O7 Sr2 2.521475 1_665
O8 Si8 1.589226 1_555
O8 Sr0 2.521571 1_555
O9 Si9 1.589226 1_555
O9 Sr0 2.521571 1_555
O10 Si10 1.589281 1_555
O10 Sr3 2.521475 1_555
O11 Si11 1.589228 1_555
O11 Sr1 2.521571 1_655
O12 Si12 1.589228 1_555
O12 Sr1 2.521571 1_565
O13 Si13 1.589278 1_555
O13 Sr2 2.521476 1_564
O14 Si14 1.589278 1_555
O14 Sr2 2.521476 1_654
O15 Si8 1.630699 1_555
O15 Si12 1.637796 1_545
O15 Sr1 2.800309 1_555
O16 Si15 1.589281 1_555
O16 Sr3 2.521475 1_555
O17 Si1 1.630699 1_555
O17 Si3 1.637796 1_555
O17 Sr0 2.800309 1_555
O18 Si2 1.630702 1_555
O18 Si6 1.637815 1_555
O18 Sr3 2.800087 1_556
O19 Si3 1.630700 1_555
O19 Si0 1.637795 1_655
O19 Sr1 2.800308 1_655
O20 Si4 1.630700 1_555
O20 Si1 1.637795 1_455
O20 Sr1 2.800308 1_565
O21 Si5 1.630705 1_555
O21 Si2 1.637812 1_565
O21 Sr2 2.800086 1_565
O22 Si6 1.630705 1_555
O22 Si7 1.637812 1_545
O22 Sr2 2.800086 1_655
O23 Si7 1.630702 1_555
O23 Si5 1.637815 1_555
O23 Sr3 2.800087 1_556
O24 Si15 1.610307 1_555
O24 Si9 1.610464 1_555
O25 Si14 1.610308 1_555
O25 Si11 1.610462 1_555
O26 Si13 1.610308 1_555
O26 Si12 1.610462 1_555
O27 Si10 1.610307 1_555
O27 Si8 1.610464 1_555
O28 Si7 1.610307 1_555
O28 Si1 1.610464 1_555
O29 Si6 1.610308 1_555
O29 Si3 1.610462 1_555
O30 Si5 1.610308 1_555
O30 Si4 1.610462 1_555
O31 Si2 1.610307 1_555
O31 Si0 1.610464 1_555
O32 Si15 1.630702 1_555
O32 Si13 1.637815 1_655
O32 Sr2 2.800087 1_664
O33 Si14 1.630705 1_555
O33 Si15 1.637812 1_555
O33 Sr3 2.800086 1_555
O34 Si13 1.630705 1_555
O34 Si10 1.637812 1_555
O34 Sr3 2.800086 1_555
O35 Si12 1.630700 1_555
O35 Si9 1.637795 1_555
O35 Sr0 2.800308 1_555
O36 Si11 1.630700 1_555
O36 Si8 1.637795 1_555
O36 Sr0 2.800308 1_555
O37 Si10 1.630702 1_555
O37 Si14 1.637815 1_455
O37 Sr2 2.800087 1_554
O38 Si9 1.630699 1_555
O38 Si11 1.637796 1_565
O38 Sr1 2.800309 1_665
O39 Si0 1.630699 1_555
O39 Si4 1.637796 1_555
O39 Sr0 2.800309 1_555
