# generated using pymatgen
data_Nb6CdSe8
_symmetry_space_group_name_H-M   'P 1'
_cell_length_a   6.93924600
_cell_length_b   20.44912809
_cell_length_c   20.44749975
_cell_angle_alpha   59.98614110
_cell_angle_beta   90.00143167
_cell_angle_gamma   90.00053851
_symmetry_Int_Tables_number   1
_chemical_formula_structural   Nb6CdSe8
_chemical_formula_sum   'Nb48 Cd8 Se64'
_cell_volume   2512.44900336
_cell_formula_units_Z   8
loop_
 _symmetry_equiv_pos_site_id
 _symmetry_equiv_pos_as_xyz
  1  'x, y, z'
loop_
 _atom_site_type_symbol
 _atom_site_label
 _atom_site_symmetry_multiplicity
 _atom_site_fract_x
 _atom_site_fract_y
 _atom_site_fract_z
 _atom_site_occupancy
  Nb  Nb0_0  1  0.37490500  0.18994300  0.25649750  1
  Nb  Nb0_1  1  0.37490500  0.18994300  0.75649750  1
  Nb  Nb0_2  1  0.37490500  0.68994300  0.25649750  1
  Nb  Nb0_3  1  0.37490500  0.68994300  0.75649750  1
  Nb  Nb0_4  1  0.87490500  0.18994300  0.25649750  1
  Nb  Nb0_5  1  0.87490500  0.18994300  0.75649750  1
  Nb  Nb0_6  1  0.87490500  0.68994300  0.25649750  1
  Nb  Nb0_7  1  0.87490500  0.68994300  0.75649750  1
  Nb  Nb1_0  1  0.37492100  0.05354550  0.18995200  1
  Nb  Nb1_1  1  0.37492100  0.05354550  0.68995200  1
  Nb  Nb1_2  1  0.37492100  0.55354550  0.18995200  1
  Nb  Nb1_3  1  0.37492100  0.55354550  0.68995200  1
  Nb  Nb1_4  1  0.87492100  0.05354550  0.18995200  1
  Nb  Nb1_5  1  0.87492100  0.05354550  0.68995200  1
  Nb  Nb1_6  1  0.87492100  0.55354550  0.18995200  1
  Nb  Nb1_7  1  0.87492100  0.55354550  0.68995200  1
  Nb  Nb2_0  1  0.37490900  0.25651500  0.05355450  1
  Nb  Nb2_1  1  0.37490900  0.25651500  0.55355450  1
  Nb  Nb2_2  1  0.37490900  0.75651500  0.05355450  1
  Nb  Nb2_3  1  0.37490900  0.75651500  0.55355450  1
  Nb  Nb2_4  1  0.87490900  0.25651500  0.05355450  1
  Nb  Nb2_5  1  0.87490900  0.25651500  0.55355450  1
  Nb  Nb2_6  1  0.87490900  0.75651500  0.05355450  1
  Nb  Nb2_7  1  0.87490900  0.75651500  0.55355450  1
  Nb  Nb3_0  1  0.12509500  0.31005700  0.24350250  1
  Nb  Nb3_1  1  0.12509500  0.31005700  0.74350250  1
  Nb  Nb3_2  1  0.12509500  0.81005700  0.24350250  1
  Nb  Nb3_3  1  0.12509500  0.81005700  0.74350250  1
  Nb  Nb3_4  1  0.62509500  0.31005700  0.24350250  1
  Nb  Nb3_5  1  0.62509500  0.31005700  0.74350250  1
  Nb  Nb3_6  1  0.62509500  0.81005700  0.24350250  1
  Nb  Nb3_7  1  0.62509500  0.81005700  0.74350250  1
  Nb  Nb4_0  1  0.12507900  0.44645450  0.31004800  1
  Nb  Nb4_1  1  0.12507900  0.44645450  0.81004800  1
  Nb  Nb4_2  1  0.12507900  0.94645450  0.31004800  1
  Nb  Nb4_3  1  0.12507900  0.94645450  0.81004800  1
  Nb  Nb4_4  1  0.62507900  0.44645450  0.31004800  1
  Nb  Nb4_5  1  0.62507900  0.44645450  0.81004800  1
  Nb  Nb4_6  1  0.62507900  0.94645450  0.31004800  1
  Nb  Nb4_7  1  0.62507900  0.94645450  0.81004800  1
  Nb  Nb5_0  1  0.12509100  0.24348500  0.44644550  1
  Nb  Nb5_1  1  0.12509100  0.24348500  0.94644550  1
  Nb  Nb5_2  1  0.12509100  0.74348500  0.44644550  1
  Nb  Nb5_3  1  0.12509100  0.74348500  0.94644550  1
  Nb  Nb5_4  1  0.62509100  0.24348500  0.44644550  1
  Nb  Nb5_5  1  0.62509100  0.24348500  0.94644550  1
  Nb  Nb5_6  1  0.62509100  0.74348500  0.44644550  1
  Nb  Nb5_7  1  0.62509100  0.74348500  0.94644550  1
  Cd  Cd0_0  1  0.25000000  0.00000000  0.00000000  1
  Cd  Cd0_1  1  0.25000000  0.00000000  0.50000000  1
  Cd  Cd0_2  1  0.25000000  0.50000000  0.00000000  1
  Cd  Cd0_3  1  0.25000000  0.50000000  0.50000000  1
  Cd  Cd0_4  1  0.75000000  0.00000000  0.00000000  1
  Cd  Cd0_5  1  0.75000000  0.00000000  0.50000000  1
  Cd  Cd0_6  1  0.75000000  0.50000000  0.00000000  1
  Cd  Cd0_7  1  0.75000000  0.50000000  0.50000000  1
  Se  Se0_0  1  0.37513100  0.03120100  0.32858350  1
  Se  Se0_1  1  0.37513100  0.03120100  0.82858350  1
  Se  Se0_2  1  0.37513100  0.53120100  0.32858350  1
  Se  Se0_3  1  0.37513100  0.53120100  0.82858350  1
  Se  Se0_4  1  0.87513100  0.03120100  0.32858350  1
  Se  Se0_5  1  0.87513100  0.03120100  0.82858350  1
  Se  Se0_6  1  0.87513100  0.53120100  0.32858350  1
  Se  Se0_7  1  0.87513100  0.53120100  0.82858350  1
  Se  Se1_0  1  0.37513700  0.14027950  0.03118000  1
  Se  Se1_1  1  0.37513700  0.14027950  0.53118000  1
  Se  Se1_2  1  0.37513700  0.64027950  0.03118000  1
  Se  Se1_3  1  0.37513700  0.64027950  0.53118000  1
  Se  Se1_4  1  0.87513700  0.14027950  0.03118000  1
  Se  Se1_5  1  0.87513700  0.14027950  0.53118000  1
  Se  Se1_6  1  0.87513700  0.64027950  0.03118000  1
  Se  Se1_7  1  0.87513700  0.64027950  0.53118000  1
  Se  Se2_0  1  0.37512050  0.32860200  0.14024500  1
  Se  Se2_1  1  0.37512050  0.32860200  0.64024500  1
  Se  Se2_2  1  0.37512050  0.82860200  0.14024500  1
  Se  Se2_3  1  0.37512050  0.82860200  0.64024500  1
  Se  Se2_4  1  0.87512050  0.32860200  0.14024500  1
  Se  Se2_5  1  0.87512050  0.32860200  0.64024500  1
  Se  Se2_6  1  0.87512050  0.82860200  0.14024500  1
  Se  Se2_7  1  0.87512050  0.82860200  0.64024500  1
  Se  Se3_0  1  0.12486900  0.46879900  0.17141650  1
  Se  Se3_1  1  0.12486900  0.46879900  0.67141650  1
  Se  Se3_2  1  0.12486900  0.96879900  0.17141650  1
  Se  Se3_3  1  0.12486900  0.96879900  0.67141650  1
  Se  Se3_4  1  0.62486900  0.46879900  0.17141650  1
  Se  Se3_5  1  0.62486900  0.46879900  0.67141650  1
  Se  Se3_6  1  0.62486900  0.96879900  0.17141650  1
  Se  Se3_7  1  0.62486900  0.96879900  0.67141650  1
  Se  Se4_0  1  0.12486300  0.35972050  0.46882000  1
  Se  Se4_1  1  0.12486300  0.35972050  0.96882000  1
  Se  Se4_2  1  0.12486300  0.85972050  0.46882000  1
  Se  Se4_3  1  0.12486300  0.85972050  0.96882000  1
  Se  Se4_4  1  0.62486300  0.35972050  0.46882000  1
  Se  Se4_5  1  0.62486300  0.35972050  0.96882000  1
  Se  Se4_6  1  0.62486300  0.85972050  0.46882000  1
  Se  Se4_7  1  0.62486300  0.85972050  0.96882000  1
  Se  Se5_0  1  0.12487950  0.17139800  0.35975500  1
  Se  Se5_1  1  0.12487950  0.17139800  0.85975500  1
  Se  Se5_2  1  0.12487950  0.67139800  0.35975500  1
  Se  Se5_3  1  0.12487950  0.67139800  0.85975500  1
  Se  Se5_4  1  0.62487950  0.17139800  0.35975500  1
  Se  Se5_5  1  0.62487950  0.17139800  0.85975500  1
  Se  Se5_6  1  0.62487950  0.67139800  0.35975500  1
  Se  Se5_7  1  0.62487950  0.67139800  0.85975500  1
  Se  Se6_0  1  0.37520700  0.33333900  0.33336250  1
  Se  Se6_1  1  0.37520700  0.33333900  0.83336250  1
  Se  Se6_2  1  0.37520700  0.83333900  0.33336250  1
  Se  Se6_3  1  0.37520700  0.83333900  0.83336250  1
  Se  Se6_4  1  0.87520700  0.33333900  0.33336250  1
  Se  Se6_5  1  0.87520700  0.33333900  0.83336250  1
  Se  Se6_6  1  0.87520700  0.83333900  0.33336250  1
  Se  Se6_7  1  0.87520700  0.83333900  0.83336250  1
  Se  Se7_0  1  0.12479300  0.16666100  0.16663750  1
  Se  Se7_1  1  0.12479300  0.16666100  0.66663750  1
  Se  Se7_2  1  0.12479300  0.66666100  0.16663750  1
  Se  Se7_3  1  0.12479300  0.66666100  0.66663750  1
  Se  Se7_4  1  0.62479300  0.16666100  0.16663750  1
  Se  Se7_5  1  0.62479300  0.16666100  0.66663750  1
  Se  Se7_6  1  0.62479300  0.66666100  0.16663750  1
  Se  Se7_7  1  0.62479300  0.66666100  0.66663750  1
loop_
_geom_bond_atom_site_label_1
_geom_bond_atom_site_label_2
_geom_bond_distance
_geom_bond_site_symmetry_2
Nb0_0 Se5_4 2.609484 1_555
Nb0_0 Se5_0 2.609785 1_555
Nb0_0 Se2_0 2.635788 1_555
Nb0_0 Se7_4 2.735864 1_555
Nb0_0 Se7_0 2.736786 1_555
Nb0_0 Se0_0 2.814831 1_555
Nb0_1 Se5_5 2.609484 1_555
Nb0_1 Se5_1 2.609785 1_555
Nb0_1 Se2_1 2.635788 1_555
Nb0_1 Se7_5 2.735864 1_555
Nb0_1 Se7_1 2.736786 1_555
Nb0_1 Se0_1 2.814831 1_555
Nb0_2 Se5_6 2.609484 1_555
Nb0_2 Se5_2 2.609785 1_555
Nb0_2 Se2_2 2.635788 1_555
Nb0_2 Se7_6 2.735864 1_555
Nb0_2 Se7_2 2.736786 1_555
Nb0_2 Se0_2 2.814831 1_555
Nb0_3 Se5_7 2.609484 1_555
Nb0_3 Se5_3 2.609785 1_555
Nb0_3 Se2_3 2.635788 1_555
Nb0_3 Se7_7 2.735864 1_555
Nb0_3 Se7_3 2.736786 1_555
Nb0_3 Se0_3 2.814831 1_555
Nb0_4 Se5_0 2.609484 1_655
Nb0_4 Se5_4 2.609785 1_555
Nb0_4 Se2_4 2.635788 1_555
Nb0_4 Se7_0 2.735864 1_655
Nb0_4 Se7_4 2.736786 1_555
Nb0_4 Se0_4 2.814831 1_555
Nb0_5 Se5_1 2.609484 1_655
Nb0_5 Se5_5 2.609785 1_555
Nb0_5 Se2_5 2.635788 1_555
Nb0_5 Se7_1 2.735864 1_655
Nb0_5 Se7_5 2.736786 1_555
Nb0_5 Se0_5 2.814831 1_555
Nb0_6 Se5_2 2.609484 1_655
Nb0_6 Se5_6 2.609785 1_555
Nb0_6 Se2_6 2.635788 1_555
Nb0_6 Se7_2 2.735864 1_655
Nb0_6 Se7_6 2.736786 1_555
Nb0_6 Se0_6 2.814831 1_555
Nb0_7 Se5_3 2.609484 1_655
Nb0_7 Se5_7 2.609785 1_555
Nb0_7 Se2_7 2.635788 1_555
Nb0_7 Se7_3 2.735864 1_655
Nb0_7 Se7_7 2.736786 1_555
Nb0_7 Se0_7 2.814831 1_555
Nb1_0 Se3_6 2.610058 1_545
Nb1_0 Se3_2 2.610503 1_545
Nb1_0 Se0_0 2.635972 1_555
Nb1_0 Se7_4 2.735149 1_555
Nb1_0 Se7_0 2.736287 1_555
Nb1_0 Se1_0 2.815135 1_555
Nb1_1 Se3_7 2.610058 1_545
Nb1_1 Se3_3 2.610503 1_545
Nb1_1 Se0_1 2.635972 1_555
Nb1_1 Se7_5 2.735149 1_555
Nb1_1 Se7_1 2.736287 1_555
Nb1_1 Se1_1 2.815135 1_555
Nb1_2 Se3_4 2.610058 1_555
Nb1_2 Se3_0 2.610503 1_555
Nb1_2 Se0_2 2.635972 1_555
Nb1_2 Se7_6 2.735149 1_555
Nb1_2 Se7_2 2.736287 1_555
Nb1_2 Se1_2 2.815135 1_555
Nb1_3 Se3_5 2.610058 1_555
Nb1_3 Se3_1 2.610503 1_555
Nb1_3 Se0_3 2.635972 1_555
Nb1_3 Se7_7 2.735149 1_555
Nb1_3 Se7_3 2.736287 1_555
Nb1_3 Se1_3 2.815135 1_555
Nb1_4 Se3_2 2.610058 1_645
Nb1_4 Se3_6 2.610503 1_545
Nb1_4 Se0_4 2.635972 1_555
Nb1_4 Se7_0 2.735149 1_655
Nb1_4 Se7_4 2.736287 1_555
Nb1_4 Se1_4 2.815135 1_555
Nb1_5 Se3_3 2.610058 1_645
Nb1_5 Se3_7 2.610503 1_545
Nb1_5 Se0_5 2.635972 1_555
Nb1_5 Se7_1 2.735149 1_655
Nb1_5 Se7_5 2.736287 1_555
Nb1_5 Se1_5 2.815135 1_555
Nb1_6 Se3_0 2.610058 1_655
Nb1_6 Se3_4 2.610503 1_555
Nb1_6 Se0_6 2.635972 1_555
Nb1_6 Se7_2 2.735149 1_655
Nb1_6 Se7_6 2.736287 1_555
Nb1_6 Se1_6 2.815135 1_555
Nb1_7 Se3_1 2.610058 1_655
Nb1_7 Se3_5 2.610503 1_555
Nb1_7 Se0_7 2.635972 1_555
Nb1_7 Se7_3 2.735149 1_655
Nb1_7 Se7_7 2.736287 1_555
Nb1_7 Se1_7 2.815135 1_555
Nb2_0 Se4_5 2.608906 1_554
Nb2_0 Se4_1 2.609300 1_554
Nb2_0 Se1_0 2.635704 1_555
Nb2_0 Se7_4 2.734769 1_555
Nb2_0 Se7_0 2.735841 1_555
Nb2_0 Se2_0 2.815895 1_555
Nb2_1 Se4_4 2.608906 1_555
Nb2_1 Se4_0 2.609300 1_555
Nb2_1 Se1_1 2.635704 1_555
Nb2_1 Se7_5 2.734769 1_555
Nb2_1 Se7_1 2.735841 1_555
Nb2_1 Se2_1 2.815895 1_555
Nb2_2 Se4_7 2.608906 1_554
Nb2_2 Se4_3 2.609300 1_554
Nb2_2 Se1_2 2.635704 1_555
Nb2_2 Se7_6 2.734769 1_555
Nb2_2 Se7_2 2.735841 1_555
Nb2_2 Se2_2 2.815895 1_555
Nb2_3 Se4_6 2.608906 1_555
Nb2_3 Se4_2 2.609300 1_555
Nb2_3 Se1_3 2.635704 1_555
Nb2_3 Se7_7 2.734769 1_555
Nb2_3 Se7_3 2.735841 1_555
Nb2_3 Se2_3 2.815895 1_555
Nb2_4 Se4_1 2.608906 1_654
Nb2_4 Se4_5 2.609300 1_554
Nb2_4 Se1_4 2.635704 1_555
Nb2_4 Se7_0 2.734769 1_655
Nb2_4 Se7_4 2.735841 1_555
Nb2_4 Se2_4 2.815895 1_555
Nb2_5 Se4_0 2.608906 1_655
Nb2_5 Se4_4 2.609300 1_555
Nb2_5 Se1_5 2.635704 1_555
Nb2_5 Se7_1 2.734769 1_655
Nb2_5 Se7_5 2.735841 1_555
Nb2_5 Se2_5 2.815895 1_555
Nb2_6 Se4_3 2.608906 1_654
Nb2_6 Se4_7 2.609300 1_554
Nb2_6 Se1_6 2.635704 1_555
Nb2_6 Se7_2 2.734769 1_655
Nb2_6 Se7_6 2.735841 1_555
Nb2_6 Se2_6 2.815895 1_555
Nb2_7 Se4_2 2.608906 1_655
Nb2_7 Se4_6 2.609300 1_555
Nb2_7 Se1_7 2.635704 1_555
Nb2_7 Se7_3 2.734769 1_655
Nb2_7 Se7_7 2.735841 1_555
Nb2_7 Se2_7 2.815895 1_555
Nb3_0 Se2_4 2.609484 1_455
Nb3_0 Se2_0 2.609785 1_555
Nb3_0 Se5_0 2.635788 1_555
Nb3_0 Se6_4 2.735864 1_455
Nb3_0 Se6_0 2.736786 1_555
Nb3_0 Se3_0 2.814831 1_555
Nb3_1 Se2_5 2.609484 1_455
Nb3_1 Se2_1 2.609785 1_555
Nb3_1 Se5_1 2.635788 1_555
Nb3_1 Se6_5 2.735864 1_455
Nb3_1 Se6_1 2.736786 1_555
Nb3_1 Se3_1 2.814831 1_555
Nb3_2 Se2_6 2.609484 1_455
Nb3_2 Se2_2 2.609785 1_555
Nb3_2 Se5_2 2.635788 1_555
Nb3_2 Se6_6 2.735864 1_455
Nb3_2 Se6_2 2.736786 1_555
Nb3_2 Se3_2 2.814831 1_555
Nb3_3 Se2_7 2.609484 1_455
Nb3_3 Se2_3 2.609785 1_555
Nb3_3 Se5_3 2.635788 1_555
Nb3_3 Se6_7 2.735864 1_455
Nb3_3 Se6_3 2.736786 1_555
Nb3_3 Se3_3 2.814831 1_555
Nb3_4 Se2_0 2.609484 1_555
Nb3_4 Se2_4 2.609785 1_555
Nb3_4 Se5_4 2.635788 1_555
Nb3_4 Se6_0 2.735864 1_555
Nb3_4 Se6_4 2.736786 1_555
Nb3_4 Se3_4 2.814831 1_555
Nb3_5 Se2_1 2.609484 1_555
Nb3_5 Se2_5 2.609785 1_555
Nb3_5 Se5_5 2.635788 1_555
Nb3_5 Se6_1 2.735864 1_555
Nb3_5 Se6_5 2.736786 1_555
Nb3_5 Se3_5 2.814831 1_555
Nb3_6 Se2_2 2.609484 1_555
Nb3_6 Se2_6 2.609785 1_555
Nb3_6 Se5_6 2.635788 1_555
Nb3_6 Se6_2 2.735864 1_555
Nb3_6 Se6_6 2.736786 1_555
Nb3_6 Se3_6 2.814831 1_555
Nb3_7 Se2_3 2.609484 1_555
Nb3_7 Se2_7 2.609785 1_555
Nb3_7 Se5_7 2.635788 1_555
Nb3_7 Se6_3 2.735864 1_555
Nb3_7 Se6_7 2.736786 1_555
Nb3_7 Se3_7 2.814831 1_555
Nb4_0 Se0_6 2.610058 1_455
Nb4_0 Se0_2 2.610503 1_555
Nb4_0 Se3_0 2.635972 1_555
Nb4_0 Se6_4 2.735149 1_455
Nb4_0 Se6_0 2.736287 1_555
Nb4_0 Se4_0 2.815135 1_555
Nb4_1 Se0_7 2.610058 1_455
Nb4_1 Se0_3 2.610503 1_555
Nb4_1 Se3_1 2.635972 1_555
Nb4_1 Se6_5 2.735149 1_455
Nb4_1 Se6_1 2.736287 1_555
Nb4_1 Se4_1 2.815135 1_555
Nb4_2 Se0_4 2.610058 1_465
Nb4_2 Se0_0 2.610503 1_565
Nb4_2 Se3_2 2.635972 1_555
Nb4_2 Se6_6 2.735149 1_455
Nb4_2 Se6_2 2.736287 1_555
Nb4_2 Se4_2 2.815135 1_555
Nb4_3 Se0_5 2.610058 1_465
Nb4_3 Se0_1 2.610503 1_565
Nb4_3 Se3_3 2.635972 1_555
Nb4_3 Se6_7 2.735149 1_455
Nb4_3 Se6_3 2.736287 1_555
Nb4_3 Se4_3 2.815135 1_555
Nb4_4 Se0_2 2.610058 1_555
Nb4_4 Se0_6 2.610503 1_555
Nb4_4 Se3_4 2.635972 1_555
Nb4_4 Se6_0 2.735149 1_555
Nb4_4 Se6_4 2.736287 1_555
Nb4_4 Se4_4 2.815135 1_555
Nb4_5 Se0_3 2.610058 1_555
Nb4_5 Se0_7 2.610503 1_555
Nb4_5 Se3_5 2.635972 1_555
Nb4_5 Se6_1 2.735149 1_555
Nb4_5 Se6_5 2.736287 1_555
Nb4_5 Se4_5 2.815135 1_555
Nb4_6 Se0_0 2.610058 1_565
Nb4_6 Se0_4 2.610503 1_565
Nb4_6 Se3_6 2.635972 1_555
Nb4_6 Se6_2 2.735149 1_555
Nb4_6 Se6_6 2.736287 1_555
Nb4_6 Se4_6 2.815135 1_555
Nb4_7 Se0_1 2.610058 1_565
Nb4_7 Se0_5 2.610503 1_565
Nb4_7 Se3_7 2.635972 1_555
Nb4_7 Se6_3 2.735149 1_555
Nb4_7 Se6_7 2.736287 1_555
Nb4_7 Se4_7 2.815135 1_555
Nb5_0 Se1_5 2.608906 1_455
Nb5_0 Se1_1 2.609300 1_555
Nb5_0 Se4_0 2.635704 1_555
Nb5_0 Se6_4 2.734769 1_455
Nb5_0 Se6_0 2.735841 1_555
Nb5_0 Se5_0 2.815895 1_555
Nb5_1 Se1_4 2.608906 1_456
Nb5_1 Se1_0 2.609300 1_556
Nb5_1 Se4_1 2.635704 1_555
Nb5_1 Se6_5 2.734769 1_455
Nb5_1 Se6_1 2.735841 1_555
Nb5_1 Se5_1 2.815895 1_555
Nb5_2 Se1_7 2.608906 1_455
Nb5_2 Se1_3 2.609300 1_555
Nb5_2 Se4_2 2.635704 1_555
Nb5_2 Se6_6 2.734769 1_455
Nb5_2 Se6_2 2.735841 1_555
Nb5_2 Se5_2 2.815895 1_555
Nb5_3 Se1_6 2.608906 1_456
Nb5_3 Se1_2 2.609300 1_556
Nb5_3 Se4_3 2.635704 1_555
Nb5_3 Se6_7 2.734769 1_455
Nb5_3 Se6_3 2.735841 1_555
Nb5_3 Se5_3 2.815895 1_555
Nb5_4 Se1_1 2.608906 1_555
Nb5_4 Se1_5 2.609300 1_555
Nb5_4 Se4_4 2.635704 1_555
Nb5_4 Se6_0 2.734769 1_555
Nb5_4 Se6_4 2.735841 1_555
Nb5_4 Se5_4 2.815895 1_555
Nb5_5 Se1_0 2.608906 1_556
Nb5_5 Se1_4 2.609300 1_556
Nb5_5 Se4_5 2.635704 1_555
Nb5_5 Se6_1 2.734769 1_555
Nb5_5 Se6_5 2.735841 1_555
Nb5_5 Se5_5 2.815895 1_555
Nb5_6 Se1_3 2.608906 1_555
Nb5_6 Se1_7 2.609300 1_555
Nb5_6 Se4_6 2.635704 1_555
Nb5_6 Se6_2 2.734769 1_555
Nb5_6 Se6_6 2.735841 1_555
Nb5_6 Se5_6 2.815895 1_555
Nb5_7 Se1_2 2.608906 1_556
Nb5_7 Se1_6 2.609300 1_556
Nb5_7 Se4_7 2.635704 1_555
Nb5_7 Se6_3 2.734769 1_555
Nb5_7 Se6_7 2.735841 1_555
Nb5_7 Se5_7 2.815895 1_555
Cd0_0 Se2_2 3.347636 1_545
Cd0_0 Se5_1 3.347636 1_554
Cd0_0 Se3_2 3.348018 1_545
Cd0_0 Se0_1 3.348018 1_554
Cd0_0 Se1_0 3.349465 1_555
Cd0_0 Se4_3 3.349465 1_544
Cd0_0 Cd0_4 3.469623 1_455
Cd0_0 Cd0_4 3.469623 1_555
Cd0_1 Se5_0 3.347636 1_555
Cd0_1 Se2_3 3.347636 1_545
Cd0_1 Se0_0 3.348018 1_555
Cd0_1 Se3_3 3.348018 1_545
Cd0_1 Se1_1 3.349465 1_555
Cd0_1 Se4_2 3.349465 1_545
Cd0_1 Cd0_5 3.469623 1_455
Cd0_1 Cd0_5 3.469623 1_555
Cd0_2 Se2_0 3.347636 1_555
Cd0_2 Se5_3 3.347636 1_554
Cd0_2 Se3_0 3.348018 1_555
Cd0_2 Se0_3 3.348018 1_554
Cd0_2 Se1_2 3.349465 1_555
Cd0_2 Se4_1 3.349465 1_554
Cd0_2 Cd0_6 3.469623 1_455
Cd0_2 Cd0_6 3.469623 1_555
Cd0_3 Se2_1 3.347636 1_555
Cd0_3 Se5_2 3.347636 1_555
Cd0_3 Se3_1 3.348018 1_555
Cd0_3 Se0_2 3.348018 1_555
Cd0_3 Se1_3 3.349465 1_555
Cd0_3 Se4_0 3.349465 1_555
Cd0_3 Cd0_7 3.469623 1_455
Cd0_3 Cd0_7 3.469623 1_555
Cd0_4 Se2_6 3.347636 1_545
Cd0_4 Se5_5 3.347636 1_554
Cd0_4 Se3_6 3.348018 1_545
Cd0_4 Se0_5 3.348018 1_554
Cd0_4 Se1_4 3.349465 1_555
Cd0_4 Se4_7 3.349465 1_544
Cd0_5 Se5_4 3.347636 1_555
Cd0_5 Se2_7 3.347636 1_545
Cd0_5 Se0_4 3.348018 1_555
Cd0_5 Se3_7 3.348018 1_545
Cd0_5 Se4_6 3.349465 1_545
Cd0_5 Se1_5 3.349465 1_555
Cd0_6 Se2_4 3.347636 1_555
Cd0_6 Se5_7 3.347636 1_554
Cd0_6 Se3_4 3.348018 1_555
Cd0_6 Se0_7 3.348018 1_554
Cd0_6 Se1_6 3.349465 1_555
Cd0_6 Se4_5 3.349465 1_554
Cd0_7 Se2_5 3.347636 1_555
Cd0_7 Se5_6 3.347636 1_555
Cd0_7 Se0_6 3.348018 1_555
Cd0_7 Se3_5 3.348018 1_555
Cd0_7 Se4_4 3.349465 1_555
Cd0_7 Se1_7 3.349465 1_555
