# generated using pymatgen
data_KSb2Te2(HO2)2
_symmetry_space_group_name_H-M   'P 1'
_cell_length_a   5.83109800
_cell_length_b   16.16044363
_cell_length_c   16.16044312
_cell_angle_alpha   118.57448545
_cell_angle_beta   96.90797996
_cell_angle_gamma   96.90797974
_symmetry_Int_Tables_number   1
_chemical_formula_structural   KSb2Te2(HO2)2
_chemical_formula_sum   'K6 Sb12 Te12 H12 O24'
_cell_volume   1299.74779044
_cell_formula_units_Z   6
loop_
 _symmetry_equiv_pos_site_id
 _symmetry_equiv_pos_as_xyz
  1  'x, y, z'
loop_
 _atom_site_type_symbol
 _atom_site_label
 _atom_site_symmetry_multiplicity
 _atom_site_fract_x
 _atom_site_fract_y
 _atom_site_fract_z
 _atom_site_occupancy
  K  K0  1  0.58339400  0.82009300  0.74914800  1
  K  K1  1  0.83424600  0.25085200  0.07094500  1
  K  K2  1  0.76330100  0.92905500  0.17990700  1
  K  K3  1  0.41660600  0.17990700  0.25085200  1
  K  K4  1  0.16575400  0.74914800  0.92905500  1
  K  K5  1  0.23669900  0.07094500  0.82009300  1
  Sb  Sb0  1  0.61371600  0.97573300  0.62976100  1
  Sb  Sb1  1  0.98395500  0.37023900  0.34597200  1
  Sb  Sb2  1  0.63798300  0.65402800  0.02426700  1
  Sb  Sb3  1  0.38628400  0.02426700  0.37023900  1
  Sb  Sb4  1  0.01604500  0.62976100  0.65402800  1
  Sb  Sb5  1  0.36201700  0.34597200  0.97573300  1
  Sb  Sb6  1  0.04168000  0.81933200  0.58523600  1
  Sb  Sb7  1  0.45644300  0.41476400  0.23409600  1
  Sb  Sb8  1  0.22234700  0.76590400  0.18066800  1
  Sb  Sb9  1  0.95832000  0.18066800  0.41476400  1
  Sb  Sb10  1  0.54355700  0.58523600  0.76590400  1
  Sb  Sb11  1  0.77765300  0.23409600  0.81933200  1
  Te  Te0  1  0.96170700  0.90278500  0.42467700  1
  Te  Te1  1  0.53703000  0.57532300  0.47810700  1
  Te  Te2  1  0.05892300  0.52189300  0.09721500  1
  Te  Te3  1  0.03829300  0.09721500  0.57532300  1
  Te  Te4  1  0.46297000  0.42467700  0.52189300  1
  Te  Te5  1  0.94107700  0.47810700  0.90278500  1
  Te  Te6  1  0.50502100  0.75456400  0.39692300  1
  Te  Te7  1  0.10809800  0.60307700  0.35764100  1
  Te  Te8  1  0.75045800  0.64235900  0.24543600  1
  Te  Te9  1  0.49497900  0.24543600  0.60307700  1
  Te  Te10  1  0.89190200  0.39692300  0.64235900  1
  Te  Te11  1  0.24954200  0.35764100  0.75456400  1
  H  H0  1  0.10271900  0.84734900  0.80022600  1
  H  H1  1  0.30249300  0.19977400  0.04712300  1
  H  H2  1  0.25537000  0.95287700  0.15265100  1
  H  H3  1  0.89728100  0.15265100  0.19977400  1
  H  H4  1  0.69750700  0.80022600  0.95287700  1
  H  H5  1  0.74463000  0.04712300  0.84734900  1
  H  H6  1  0.08560700  0.94911500  0.88547900  1
  H  H7  1  0.20012800  0.11452100  0.06363600  1
  H  H8  1  0.13649300  0.93636400  0.05088500  1
  H  H9  1  0.91439300  0.05088500  0.11452100  1
  H  H10  1  0.79987200  0.88547900  0.93636400  1
  H  H11  1  0.86350700  0.06363600  0.94911500  1
  O  O0  1  0.85221500  0.91260600  0.66762200  1
  O  O1  1  0.18459300  0.33237800  0.24498400  1
  O  O2  1  0.93960900  0.75501600  0.08739400  1
  O  O3  1  0.14778500  0.08739400  0.33237800  1
  O  O4  1  0.81540700  0.66762200  0.75501600  1
  O  O5  1  0.06039100  0.24498400  0.91260600  1
  O  O6  1  0.07331000  0.76769900  0.68116200  1
  O  O7  1  0.39214800  0.31883800  0.08653700  1
  O  O8  1  0.30561000  0.91346300  0.23230100  1
  O  O9  1  0.92669000  0.23230100  0.31883800  1
  O  O10  1  0.60785200  0.68116200  0.91346300  1
  O  O11  1  0.69439000  0.08653700  0.76769900  1
  O  O12  1  0.35056200  0.91218700  0.66556600  1
  O  O13  1  0.68499600  0.33443400  0.24662100  1
  O  O14  1  0.43837500  0.75337900  0.08781300  1
  O  O15  1  0.64943800  0.08781300  0.33443400  1
  O  O16  1  0.31500400  0.66556600  0.75337900  1
  O  O17  1  0.56162500  0.24662100  0.91218700  1
  O  O18  1  0.12706500  0.88771200  0.87207500  1
  O  O19  1  0.25498900  0.12792500  0.01563600  1
  O  O20  1  0.23935300  0.98436400  0.11228800  1
  O  O21  1  0.87293500  0.11228800  0.12792500  1
  O  O22  1  0.74501100  0.87207500  0.98436400  1
  O  O23  1  0.76064700  0.01563600  0.88771200  1
loop_
_geom_bond_atom_site_label_1
_geom_bond_atom_site_label_2
_geom_bond_distance
_geom_bond_site_symmetry_2
K0 O12 2.801896 1_555
K0 O16 2.817627 1_555
K0 O23 2.820821 1_565
K0 O0 2.871479 1_555
K0 O6 2.913588 1_555
K0 O4 2.984147 1_555
K0 O6 3.245304 1_655
K1 O13 2.801896 1_555
K1 O17 2.817627 1_554
K1 O21 2.820832 1_555
K1 O1 2.871479 1_655
K1 O7 2.913588 1_555
K1 O5 2.984147 1_654
K1 O7 3.245304 1_655
K2 O14 2.801896 1_555
K2 O15 2.817627 1_565
K2 O22 2.820817 1_554
K2 O2 2.871479 1_555
K2 O8 2.913593 1_555
K2 O3 2.984147 1_665
K2 O8 3.245298 1_655
K3 O15 2.801896 1_555
K3 O13 2.817627 1_555
K3 O20 2.820821 1_545
K3 O3 2.871479 1_555
K3 O9 2.913588 1_555
K3 O1 2.984147 1_555
K3 O9 3.245304 1_455
K4 O16 2.801896 1_555
K4 O14 2.817627 1_556
K4 O18 2.820832 1_555
K4 O4 2.871479 1_455
K4 O10 2.913588 1_555
K4 O2 2.984147 1_456
K4 O10 3.245304 1_455
K5 O17 2.801896 1_555
K5 O12 2.817627 1_545
K5 O19 2.820817 1_556
K5 O5 2.871479 1_555
K5 O11 2.913593 1_555
K5 O0 2.984147 1_445
K5 O11 3.245298 1_455
Sb0 Te3 3.429922 1_665
Sb1 Te4 3.429932 1_655
Sb2 Te5 3.429928 1_554
Sb3 Te0 3.429922 1_445
Sb4 Te1 3.429932 1_455
Sb5 Te2 3.429928 1_556
Sb6 Te0 3.460701 1_455
Sb7 Te1 3.460688 1_555
Sb8 Te2 3.460685 1_555
Sb9 Te3 3.460701 1_655
Sb10 Te4 3.460688 1_555
Sb11 Te5 3.460685 1_555
Te0 Te3 2.842955 1_665
Te0 Te6 3.190730 1_555
Te1 Te4 2.842977 1_555
Te1 Te7 3.190720 1_555
Te2 Te5 2.842946 1_454
Te2 Te8 3.190725 1_455
Te3 Te9 3.190730 1_555
Te6 Te7 2.924039 1_555
Te6 Te8 2.924043 1_555
Te7 Te8 2.924035 1_455
Te10 Te11 2.924035 1_655
Te10 Te9 2.924039 1_555
Te10 Te4 3.190720 1_555
Te11 Te9 2.924043 1_555
Te11 Te5 3.190725 1_455
H0 O18 1.003681 1_555
H0 O6 1.699065 1_555
H0 K0 2.962369 1_455
H0 K0 3.039263 1_555
H1 O19 1.003681 1_555
H1 O7 1.699065 1_555
H1 K1 2.962369 1_455
H1 K1 3.039263 1_555
H2 O20 1.003695 1_555
H2 O8 1.699064 1_555
H2 K2 2.962369 1_455
H2 K2 3.039263 1_555
H3 O21 1.003681 1_555
H3 O9 1.699065 1_555
H3 K3 2.962369 1_655
H3 K3 3.039263 1_555
H4 O22 1.003681 1_555
H4 O10 1.699065 1_555
H4 K4 2.962369 1_655
H4 K4 3.039263 1_555
H5 O23 1.003695 1_555
H5 O11 1.699064 1_555
H5 K5 2.962369 1_655
H5 K5 3.039263 1_555
H6 O18 0.977090 1_555
H6 K5 2.750606 1_565
H7 O19 0.977102 1_555
H7 K3 2.750606 1_555
H8 O20 0.977091 1_555
H8 K4 2.750604 1_554
H9 O21 0.977090 1_555
H9 K2 2.750606 1_545
H10 O22 0.977102 1_555
H10 K0 2.750606 1_555
H11 O23 0.977091 1_555
H11 K1 2.750604 1_556
O0 Sb0 2.020608 1_555
O0 Sb6 2.024823 1_655
O1 Sb1 2.020608 1_455
O1 Sb7 2.024818 1_555
O2 Sb2 2.020608 1_555
O2 Sb8 2.024818 1_655
O3 Sb3 2.020608 1_555
O3 Sb9 2.024823 1_455
O4 Sb4 2.020608 1_655
O4 Sb10 2.024818 1_555
O5 Sb5 2.020608 1_555
O5 Sb11 2.024818 1_455
O6 Sb4 2.030644 1_555
O6 Sb6 2.083031 1_555
O7 Sb5 2.030644 1_554
O7 Sb7 2.083032 1_555
O8 Sb3 2.030644 1_565
O8 Sb8 2.083031 1_555
O9 Sb1 2.030644 1_555
O9 Sb9 2.083031 1_555
O10 Sb2 2.030644 1_556
O10 Sb10 2.083032 1_555
O11 Sb0 2.030644 1_545
O11 Sb11 2.083031 1_555
O12 Sb6 2.026071 1_555
O12 Sb0 2.036408 1_555
O13 Sb7 2.026076 1_555
O13 Sb1 2.036408 1_555
O14 Sb8 2.026075 1_555
O14 Sb2 2.036408 1_555
O15 Sb9 2.026071 1_555
O15 Sb3 2.036408 1_555
O16 Sb10 2.026076 1_555
O16 Sb4 2.036408 1_555
O17 Sb11 2.026075 1_555
O17 Sb5 2.036408 1_555
