# generated using pymatgen
data_Li3Co2O5
_symmetry_space_group_name_H-M   'P 1'
_cell_length_a   2.92670556
_cell_length_b   2.92670636
_cell_length_c   24.21879102
_cell_angle_alpha   93.46404330
_cell_angle_beta   90.00000000
_cell_angle_gamma   120.00000677
_symmetry_Int_Tables_number   1
_chemical_formula_structural   Li3Co2O5
_chemical_formula_sum   'Li6 Co4 O10'
_cell_volume   179.21800542
_cell_formula_units_Z   2
loop_
 _symmetry_equiv_pos_site_id
 _symmetry_equiv_pos_as_xyz
  1  'x, y, z'
loop_
 _atom_site_type_symbol
 _atom_site_label
 _atom_site_symmetry_multiplicity
 _atom_site_fract_x
 _atom_site_fract_y
 _atom_site_fract_z
 _atom_site_occupancy
  Li  Li0  1  0.09854330  0.19708659  0.29562989  1
  Li  Li1  1  0.49944248  0.99888497  0.49832745  1
  Li  Li2  1  0.90000000  0.80000000  0.70000000  1
  Li  Li3  1  0.30055752  0.60111503  0.90167255  1
  Li  Li4  1  0.70145670  0.40291341  0.10437011  1
  Li  Li5  1  0.40000000  0.80000000  0.20000000  1
  Co  Co0  1  0.99984594  0.99969188  0.99953782  1
  Co  Co1  1  0.80015406  0.60030812  0.40046218  1
  Co  Co2  1  0.20003780  0.40007560  0.60011341  1
  Co  Co3  1  0.59996220  0.19992440  0.79988659  1
  O  O0  1  0.14929089  0.29858179  0.44787268  1
  O  O1  1  0.54837685  0.09675369  0.64513053  1
  O  O2  1  0.94779798  0.89559595  0.84339393  1
  O  O3  1  0.34788807  0.69577614  0.04366421  1
  O  O4  1  0.75015855  0.50031711  0.25047566  1
  O  O5  1  0.04984145  0.09968289  0.14952434  1
  O  O6  1  0.45211193  0.90422386  0.35633579  1
  O  O7  1  0.85220202  0.70440405  0.55660607  1
  O  O8  1  0.25162315  0.50324631  0.75486947  1
  O  O9  1  0.65070911  0.30141821  0.95212732  1
loop_
_geom_bond_atom_site_label_1
_geom_bond_atom_site_label_2
_geom_bond_distance
_geom_bond_site_symmetry_2
Li0 O4 2.011293 1_555
Li0 O4 2.011293 1_455
Li0 O4 2.011293 1_445
Li0 O6 2.237462 1_445
Li0 O6 2.237462 1_545
Li0 O6 2.237463 1_555
Li1 O0 2.083531 1_665
Li1 O0 2.083532 1_565
Li1 O0 2.083532 1_555
Li1 O7 2.199468 1_455
Li1 O7 2.199468 1_555
Li1 O7 2.199469 1_565
Li2 O1 2.147675 1_665
Li2 O8 2.147675 1_555
Li2 O1 2.147675 1_565
Li2 O8 2.147675 1_655
Li2 O1 2.147675 1_555
Li2 O8 2.147675 1_665
Li3 O9 2.083531 1_455
Li3 O9 2.083532 1_555
Li3 O9 2.083532 1_565
Li3 O2 2.199468 1_555
Li3 O2 2.199468 1_455
Li3 O2 2.199469 1_445
Li4 O5 2.011293 1_555
Li4 O5 2.011293 1_655
Li4 O5 2.011293 1_665
Li4 O3 2.237462 1_655
Li4 O3 2.237462 1_555
Li4 O3 2.237463 1_545
Li5 O5 2.083827 1_665
Li5 O4 2.083827 1_455
Li5 O4 2.083827 1_555
Li5 O5 2.083827 1_565
Li5 O4 2.083827 1_565
Li5 O5 2.083827 1_555
Co0 O3 1.997933 1_556
Co0 O3 1.997933 1_656
Co0 O3 1.997933 1_666
Co0 O9 2.041373 1_665
Co0 O9 2.041373 1_565
Co0 O9 2.041374 1_555
Co1 O6 1.997933 1_655
Co1 O6 1.997933 1_555
Co1 O6 1.997933 1_545
Co1 O0 2.041373 1_555
Co1 O0 2.041373 1_655
Co1 O0 2.041374 1_665
Co2 O7 1.989993 1_555
Co2 O7 1.989993 1_455
Co2 O7 1.989993 1_445
Co2 O1 2.009498 1_455
Co2 O1 2.009498 1_555
Co2 O1 2.009499 1_565
Co3 O2 1.989993 1_445
Co3 O2 1.989993 1_545
Co3 O2 1.989993 1_555
Co3 O8 2.009498 1_655
Co3 O8 2.009498 1_555
Co3 O8 2.009499 1_545
