# generated using pymatgen
data_DyAlAu
_symmetry_space_group_name_H-M   'P 1'
_cell_length_a   4.45014710
_cell_length_b   7.16028483
_cell_length_c   7.74354917
_cell_angle_alpha   90.00003897
_cell_angle_beta   90.00000000
_cell_angle_gamma   90.00000000
_symmetry_Int_Tables_number   1
_chemical_formula_structural   DyAlAu
_chemical_formula_sum   'Dy4 Al4 Au4'
_cell_volume   246.74293466
_cell_formula_units_Z   4
loop_
 _symmetry_equiv_pos_site_id
 _symmetry_equiv_pos_as_xyz
  1  'x, y, z'
loop_
 _atom_site_type_symbol
 _atom_site_label
 _atom_site_symmetry_multiplicity
 _atom_site_fract_x
 _atom_site_fract_y
 _atom_site_fract_z
 _atom_site_occupancy
  Dy  Dy0  1  0.25000000  0.00772584  0.30086586  1
  Dy  Dy1  1  0.25000000  0.50772684  0.19913214  1
  Dy  Dy2  1  0.75000000  0.99227938  0.69911614  1
  Dy  Dy3  1  0.75000000  0.49227838  0.80088586  1
  Al  Al0  1  0.25000000  0.17517193  0.92207844  1
  Al  Al1  1  0.25000000  0.67517193  0.57792056  1
  Al  Al2  1  0.75000000  0.82478499  0.07792070  1
  Al  Al3  1  0.75000000  0.32478499  0.42207930  1
  Au  Au0  1  0.25000000  0.28661607  0.59383865  1
  Au  Au1  1  0.25000000  0.78661807  0.90616135  1
  Au  Au2  1  0.75000000  0.71342179  0.40608802  1
  Au  Au3  1  0.75000000  0.21342079  0.09391198  1
loop_
_geom_bond_atom_site_label_1
_geom_bond_atom_site_label_2
_geom_bond_distance
_geom_bond_site_symmetry_2
Al0 Au3 2.607002 1_556
Al0 Au3 2.607002 1_456
Al0 Au0 2.664059 1_555
Al0 Au1 2.784885 1_545
Al0 Dy2 3.105926 1_445
Al0 Dy2 3.105926 1_545
Al0 Dy0 3.168744 1_556
Al0 Dy1 3.205105 1_556
Al0 Dy3 3.314689 1_555
Al0 Dy3 3.314689 1_455
Al1 Au2 2.606999 1_455
Al1 Au2 2.606999 1_555
Al1 Au1 2.664069 1_555
Al1 Au0 2.784900 1_555
Al1 Dy3 3.105942 1_455
Al1 Dy3 3.105942 1_555
Al1 Dy1 3.168747 1_555
Al1 Dy0 3.205107 1_565
Al1 Dy2 3.314700 1_455
Al1 Dy2 3.314700 1_555
Al2 Au1 2.606647 1_554
Al2 Au1 2.606647 1_654
Al2 Au2 2.663350 1_555
Al2 Au3 2.785497 1_565
Al2 Dy0 3.105998 1_665
Al2 Dy0 3.105998 1_565
Al2 Dy2 3.168997 1_554
Al2 Dy3 3.204751 1_554
Al2 Dy1 3.314493 1_555
Al2 Dy1 3.314493 1_655
Al3 Au0 2.606649 1_655
Al3 Au0 2.606649 1_555
Al3 Au3 2.663351 1_555
Al3 Au2 2.785504 1_555
Al3 Dy1 3.106010 1_555
Al3 Dy1 3.106010 1_655
Al3 Dy3 3.169007 1_555
Al3 Dy2 3.204758 1_545
Al3 Dy0 3.314502 1_655
Al3 Dy0 3.314502 1_555
Au0 Dy0 3.022335 1_555
Au0 Dy3 3.112878 1_555
Au0 Dy3 3.112878 1_455
Au0 Dy2 3.171316 1_445
Au0 Dy2 3.171316 1_545
Au0 Dy1 3.442142 1_555
Au1 Dy1 3.022330 1_556
Au1 Dy2 3.112868 1_555
Au1 Dy2 3.112868 1_455
Au1 Dy3 3.171325 1_455
Au1 Dy3 3.171325 1_555
Au1 Dy0 3.442116 1_566
Au2 Dy2 3.022502 1_555
Au2 Dy1 3.112624 1_555
Au2 Dy1 3.112624 1_655
Au2 Dy0 3.171050 1_665
Au2 Dy0 3.171050 1_565
Au2 Dy3 3.442877 1_555
Au3 Dy3 3.022492 1_554
Au3 Dy0 3.112617 1_555
Au3 Dy0 3.112617 1_655
Au3 Dy1 3.171055 1_555
Au3 Dy1 3.171055 1_655
Au3 Dy2 3.442855 1_544
