# generated using pymatgen
data_RbLi2Ga2(BO3)3
_symmetry_space_group_name_H-M   'P 1'
_cell_length_a   5.01098500
_cell_length_b   6.50329600
_cell_length_c   12.96151231
_cell_angle_alpha   87.08490246
_cell_angle_beta   90.00000000
_cell_angle_gamma   90.00000000
_symmetry_Int_Tables_number   1
_chemical_formula_structural   RbLi2Ga2(BO3)3
_chemical_formula_sum   'Rb2 Li4 Ga4 B6 O18'
_cell_volume   421.84213480
_cell_formula_units_Z   2
loop_
 _symmetry_equiv_pos_site_id
 _symmetry_equiv_pos_as_xyz
  1  'x, y, z'
loop_
 _atom_site_type_symbol
 _atom_site_label
 _atom_site_symmetry_multiplicity
 _atom_site_fract_x
 _atom_site_fract_y
 _atom_site_fract_z
 _atom_site_occupancy
  Rb  Rb0  1  0.21164200  0.00000000  0.75000000  1
  Rb  Rb1  1  0.78835800  0.00000000  0.25000000  1
  Li  Li0  1  0.17019300  0.50316800  0.86684300  1
  Li  Li1  1  0.17019300  0.49683200  0.63315700  1
  Li  Li2  1  0.82980700  0.49683200  0.13315700  1
  Li  Li3  1  0.82980700  0.50316800  0.36684300  1
  Ga  Ga0  1  0.68573900  0.23424400  0.93612800  1
  Ga  Ga1  1  0.68573900  0.76575600  0.56387200  1
  Ga  Ga2  1  0.31426100  0.76575600  0.06387200  1
  Ga  Ga3  1  0.31426100  0.23424400  0.43612800  1
  B  B0  1  0.33637600  0.50000000  0.25000000  1
  B  B1  1  0.66362400  0.50000000  0.75000000  1
  B  B2  1  0.81731600  0.80921100  0.95917100  1
  B  B3  1  0.81731600  0.19078900  0.54082900  1
  B  B4  1  0.18268400  0.19078900  0.04082900  1
  B  B5  1  0.18268400  0.80921100  0.45917100  1
  O  O0  1  0.08642500  0.75485500  0.94942900  1
  O  O1  1  0.91357500  0.24514500  0.05057100  1
  O  O2  1  0.18058200  0.40140000  0.32877200  1
  O  O3  1  0.91357500  0.75485500  0.44942900  1
  O  O4  1  0.81941800  0.59860000  0.67122800  1
  O  O5  1  0.81941800  0.40140000  0.82877200  1
  O  O6  1  0.29061600  0.96367800  0.39536200  1
  O  O7  1  0.29061600  0.03632200  0.10463800  1
  O  O8  1  0.70938400  0.03632200  0.60463800  1
  O  O9  1  0.70938400  0.96367800  0.89536200  1
  O  O10  1  0.66658600  0.29752300  0.46602700  1
  O  O11  1  0.66658600  0.70247700  0.03397300  1
  O  O12  1  0.33341400  0.70247700  0.53397300  1
  O  O13  1  0.33341400  0.29752300  0.96602700  1
  O  O14  1  0.39620500  0.50000000  0.75000000  1
  O  O15  1  0.60379500  0.50000000  0.25000000  1
  O  O16  1  0.18058200  0.59860000  0.17122800  1
  O  O17  1  0.08642500  0.24514500  0.55057100  1
loop_
_geom_bond_atom_site_label_1
_geom_bond_atom_site_label_2
_geom_bond_distance
_geom_bond_site_symmetry_2
Li0 O14 1.892048 1_555
Li0 O5 1.950472 1_455
Li0 O13 1.983771 1_555
Li0 O0 2.044345 1_555
Li1 O14 1.892048 1_555
Li1 O4 1.950472 1_455
Li1 O12 1.983771 1_555
Li1 O17 2.044345 1_555
Li2 O15 1.892048 1_555
Li2 O16 1.950472 1_655
Li2 O11 1.983771 1_555
Li2 O1 2.044345 1_555
Li3 O15 1.892048 1_555
Li3 O2 1.950472 1_655
Li3 O10 1.983771 1_555
Li3 O3 2.044345 1_555
Ga0 O5 1.847386 1_555
Ga0 O13 1.858152 1_555
Ga0 O9 1.866518 1_545
Ga0 O1 1.876033 1_556
Ga1 O4 1.847386 1_555
Ga1 O12 1.858152 1_555
Ga1 O8 1.866518 1_565
Ga1 O3 1.876033 1_555
Ga2 O16 1.847386 1_555
Ga2 O11 1.858152 1_555
Ga2 O7 1.866518 1_565
Ga2 O0 1.876033 1_554
Ga3 O2 1.847386 1_555
Ga3 O10 1.858152 1_555
Ga3 O6 1.866518 1_545
Ga3 O17 1.876033 1_555
B0 O15 1.340033 1_555
B0 O2 1.412973 1_555
B0 O16 1.412973 1_555
B1 O14 1.340033 1_555
B1 O5 1.412973 1_555
B1 O4 1.412973 1_555
B2 O9 1.378822 1_555
B2 O11 1.387034 1_556
B2 O0 1.401391 1_655
B3 O8 1.378822 1_555
B3 O10 1.387034 1_555
B3 O17 1.401391 1_655
B4 O7 1.378822 1_555
B4 O13 1.387034 1_554
B4 O1 1.401391 1_455
B5 O6 1.378822 1_555
B5 O12 1.387034 1_555
B5 O3 1.401391 1_455
O0 Rb0 3.032804 1_565
O1 Rb1 3.032804 1_555
O2 Rb1 3.462767 1_455
O3 Rb1 3.032804 1_565
O4 Rb0 3.462767 1_665
O5 Rb0 3.462767 1_655
O6 Rb1 3.127511 1_565
O6 Rb1 3.145588 1_465
O7 Rb1 3.127511 1_555
O7 Rb1 3.145588 1_455
O8 Rb0 3.127511 1_555
O8 Rb0 3.145588 1_655
O9 Rb0 3.127511 1_565
O9 Rb0 3.145588 1_665
O10 Rb1 3.536574 1_555
O11 Rb1 3.536574 1_565
O12 Rb0 3.536574 1_565
O13 Rb0 3.536574 1_555
O14 Rb0 3.380614 1_565
O14 Rb0 3.380614 1_555
O15 Rb1 3.380614 1_565
O15 Rb1 3.380614 1_555
O16 Rb1 3.462767 1_465
O17 Rb0 3.032804 1_555
