# generated using pymatgen
data_Li(ErGe)4
_symmetry_space_group_name_H-M   'P 1'
_cell_length_a   7.05214431
_cell_length_b   7.60886003
_cell_length_c   14.50196731
_cell_angle_alpha   90.00000000
_cell_angle_beta   90.00000000
_cell_angle_gamma   90.00000000
_symmetry_Int_Tables_number   1
_chemical_formula_structural   Li(ErGe)4
_chemical_formula_sum   'Li4 Er16 Ge16'
_cell_volume   778.15785846
_cell_formula_units_Z   4
loop_
 _symmetry_equiv_pos_site_id
 _symmetry_equiv_pos_as_xyz
  1  'x, y, z'
loop_
 _atom_site_type_symbol
 _atom_site_label
 _atom_site_symmetry_multiplicity
 _atom_site_fract_x
 _atom_site_fract_y
 _atom_site_fract_z
 _atom_site_occupancy
  Li  Li0  1  0.16263739  0.52763726  0.75000000  1
  Li  Li1  1  0.83736261  0.47236274  0.25000000  1
  Li  Li2  1  0.33736261  0.02763726  0.25000000  1
  Li  Li3  1  0.66263739  0.97236274  0.75000000  1
  Er  Er0  1  0.32923643  0.17655514  0.62747035  1
  Er  Er1  1  0.67076357  0.82344486  0.37252965  1
  Er  Er2  1  0.17076357  0.67655514  0.37252965  1
  Er  Er3  1  0.67076357  0.82344486  0.12747035  1
  Er  Er4  1  0.82923643  0.32344486  0.62747035  1
  Er  Er5  1  0.32923643  0.17655514  0.87252965  1
  Er  Er6  1  0.82923643  0.32344486  0.87252965  1
  Er  Er7  1  0.17076357  0.67655514  0.12747035  1
  Er  Er8  1  0.01662974  0.18676167  0.09832014  1
  Er  Er9  1  0.98337026  0.81323833  0.90167986  1
  Er  Er10  1  0.48337026  0.68676167  0.90167986  1
  Er  Er11  1  0.98337026  0.81323833  0.59832014  1
  Er  Er12  1  0.51662974  0.31323833  0.09832014  1
  Er  Er13  1  0.01662974  0.18676167  0.40167986  1
  Er  Er14  1  0.51662974  0.31323833  0.40167986  1
  Er  Er15  1  0.48337026  0.68676167  0.59832014  1
  Ge  Ge0  1  0.01850362  0.08770340  0.75000000  1
  Ge  Ge1  1  0.98149638  0.91229660  0.25000000  1
  Ge  Ge2  1  0.48149638  0.58770340  0.25000000  1
  Ge  Ge3  1  0.51850362  0.41229660  0.75000000  1
  Ge  Ge4  1  0.28304814  0.86471068  0.75000000  1
  Ge  Ge5  1  0.71695186  0.13528932  0.25000000  1
  Ge  Ge6  1  0.21695186  0.36471068  0.25000000  1
  Ge  Ge7  1  0.78304814  0.63528932  0.75000000  1
  Ge  Ge8  1  0.16748232  0.46607880  0.53630889  1
  Ge  Ge9  1  0.83251768  0.53392120  0.46369111  1
  Ge  Ge10  1  0.33251768  0.96607880  0.46369111  1
  Ge  Ge11  1  0.83251768  0.53392120  0.03630889  1
  Ge  Ge12  1  0.66748232  0.03392120  0.53630889  1
  Ge  Ge13  1  0.16748232  0.46607880  0.96369111  1
  Ge  Ge14  1  0.66748232  0.03392120  0.96369111  1
  Ge  Ge15  1  0.33251768  0.96607880  0.03630889  1
loop_
_geom_bond_atom_site_label_1
_geom_bond_atom_site_label_2
_geom_bond_distance
_geom_bond_site_symmetry_2
Er0 Ge8 2.811037 1_555
Er0 Ge3 2.855945 1_555
Er0 Ge10 2.864697 1_545
Er0 Ge0 2.901111 1_555
Er0 Ge12 2.935219 1_555
Er0 Ge4 2.982220 1_545
Er1 Ge9 2.811037 1_555
Er1 Ge2 2.855945 1_555
Er1 Ge12 2.864697 1_565
Er1 Ge1 2.901111 1_555
Er1 Ge10 2.935219 1_555
Er1 Ge5 2.982220 1_565
Er2 Ge10 2.811037 1_555
Er2 Ge1 2.855945 1_455
Er2 Ge8 2.864697 1_555
Er2 Ge2 2.901111 1_555
Er2 Ge9 2.935219 1_455
Er2 Ge6 2.982220 1_555
Er3 Ge11 2.811037 1_555
Er3 Ge2 2.855945 1_555
Er3 Ge14 2.864697 1_564
Er3 Ge1 2.901111 1_555
Er3 Ge15 2.935219 1_555
Er3 Ge5 2.982220 1_565
Er4 Ge12 2.811037 1_555
Er4 Ge0 2.855945 1_655
Er4 Ge9 2.864697 1_555
Er4 Ge3 2.901111 1_555
Er4 Ge8 2.935219 1_655
Er4 Ge7 2.982220 1_555
Er5 Ge13 2.811037 1_555
Er5 Ge3 2.855945 1_555
Er5 Ge15 2.864697 1_546
Er5 Ge0 2.901111 1_555
Er5 Ge14 2.935219 1_555
Er5 Ge4 2.982220 1_545
Er6 Ge14 2.811037 1_555
Er6 Ge0 2.855945 1_655
Er6 Ge11 2.864697 1_556
Er6 Ge3 2.901111 1_555
Er6 Ge13 2.935219 1_655
Er6 Ge7 2.982220 1_555
Er7 Ge15 2.811037 1_555
Er7 Ge1 2.855945 1_455
Er7 Ge13 2.864697 1_554
Er7 Ge2 2.901111 1_555
Er7 Ge11 2.935219 1_455
Er7 Ge6 2.982220 1_555
Er8 Ge15 2.931012 1_545
Er8 Ge6 2.944061 1_555
Er8 Ge1 3.043214 1_445
Er8 Ge5 3.075421 1_455
Er8 Ge13 3.075775 1_554
Er8 Ge11 3.077658 1_455
Er8 Ge14 3.350651 1_454
Er9 Ge14 2.931012 1_565
Er9 Ge7 2.944061 1_555
Er9 Ge0 3.043214 1_665
Er9 Ge4 3.075421 1_655
Er9 Ge11 3.075775 1_556
Er9 Ge13 3.077658 1_655
Er9 Ge15 3.350651 1_656
Er10 Ge13 2.931012 1_555
Er10 Ge4 2.944061 1_555
Er10 Ge3 3.043214 1_555
Er10 Ge7 3.075421 1_555
Er10 Ge15 3.075775 1_556
Er10 Ge14 3.077658 1_565
Er10 Ge11 3.350651 1_556
Er11 Ge12 2.931012 1_565
Er11 Ge7 2.944061 1_555
Er11 Ge0 3.043214 1_665
Er11 Ge4 3.075421 1_655
Er11 Ge9 3.075775 1_555
Er11 Ge8 3.077658 1_655
Er11 Ge10 3.350651 1_655
Er12 Ge11 2.931012 1_555
Er12 Ge5 2.944061 1_555
Er12 Ge2 3.043214 1_555
Er12 Ge6 3.075421 1_555
Er12 Ge14 3.075775 1_554
Er12 Ge15 3.077658 1_545
Er12 Ge13 3.350651 1_554
Er13 Ge10 2.931012 1_545
Er13 Ge6 2.944061 1_555
Er13 Ge1 3.043214 1_445
Er13 Ge5 3.075421 1_455
Er13 Ge8 3.075775 1_555
Er13 Ge9 3.077658 1_455
Er13 Ge12 3.350651 1_455
Er14 Ge9 2.931012 1_555
Er14 Ge5 2.944061 1_555
Er14 Ge2 3.043214 1_555
Er14 Ge6 3.075421 1_555
Er14 Ge12 3.075775 1_555
Er14 Ge10 3.077658 1_545
Er14 Ge8 3.350651 1_555
Er15 Ge8 2.931012 1_555
Er15 Ge4 2.944061 1_555
Er15 Ge3 3.043214 1_555
Er15 Ge7 3.075421 1_555
Er15 Ge10 3.075775 1_555
Er15 Ge12 3.077658 1_565
Er15 Ge9 3.350651 1_555
Ge0 Ge4 2.521774 1_545
Ge0 Li3 2.658645 1_445
Ge1 Ge5 2.521774 1_565
Ge1 Li2 2.658645 1_665
Ge2 Ge6 2.521774 1_555
Ge2 Li1 2.658645 1_555
Ge3 Ge7 2.521774 1_555
Ge3 Li0 2.658645 1_555
Ge4 Li0 2.701662 1_555
Ge4 Li3 2.799434 1_555
Ge5 Li1 2.701662 1_555
Ge5 Li2 2.799434 1_555
Ge6 Li2 2.701662 1_555
Ge6 Li1 2.799434 1_455
Ge7 Li3 2.701662 1_555
Ge7 Li0 2.799434 1_655
Ge8 Ge9 2.637341 1_455
Ge8 Li0 3.134325 1_555
Ge9 Li1 3.134325 1_555
Ge10 Ge12 2.637341 1_565
Ge10 Li2 3.134325 1_565
Ge11 Ge13 2.637341 1_654
Ge11 Li1 3.134325 1_555
Ge12 Li3 3.134325 1_545
Ge13 Li0 3.134325 1_555
Ge14 Ge15 2.637341 1_546
Ge14 Li3 3.134325 1_545
Ge15 Li2 3.134325 1_565
