# generated using pymatgen
data_Tl4PbSe3
_symmetry_space_group_name_H-M   'P 1'
_cell_length_a   8.54865400
_cell_length_b   8.54865400
_cell_length_c   8.90910936
_cell_angle_alpha   118.67041518
_cell_angle_beta   118.67041518
_cell_angle_gamma   90.00000000
_symmetry_Int_Tables_number   1
_chemical_formula_structural   Tl4PbSe3
_chemical_formula_sum   'Tl8 Pb2 Se6'
_cell_volume   478.27979905
_cell_formula_units_Z   2
loop_
 _symmetry_equiv_pos_site_id
 _symmetry_equiv_pos_as_xyz
  1  'x, y, z'
loop_
 _atom_site_type_symbol
 _atom_site_label
 _atom_site_symmetry_multiplicity
 _atom_site_fract_x
 _atom_site_fract_y
 _atom_site_fract_z
 _atom_site_occupancy
  Tl  Tl0  1  0.00422300  0.80656700  0.31079000  1
  Tl  Tl1  1  0.30656700  0.50422300  0.31079000  1
  Tl  Tl2  1  0.80656700  0.30656700  0.31079000  1
  Tl  Tl3  1  0.50422300  0.00422300  0.31079000  1
  Tl  Tl4  1  0.99577700  0.19343300  0.68921000  1
  Tl  Tl5  1  0.69343300  0.49577700  0.68921000  1
  Tl  Tl6  1  0.19343300  0.69343300  0.68921000  1
  Tl  Tl7  1  0.49577700  0.99577700  0.68921000  1
  Pb  Pb0  1  0.50000000  0.50000000  0.00000000  1
  Pb  Pb1  1  0.00000000  0.00000000  0.00000000  1
  Se  Se0  1  0.75000000  0.75000000  0.50000000  1
  Se  Se1  1  0.25000000  0.25000000  0.50000000  1
  Se  Se2  1  0.66307400  0.83692600  0.00000000  1
  Se  Se3  1  0.33692600  0.16307400  0.00000000  1
  Se  Se4  1  0.83692600  0.33692600  0.00000000  1
  Se  Se5  1  0.16307400  0.66307400  0.00000000  1
loop_
_geom_bond_atom_site_label_1
_geom_bond_atom_site_label_2
_geom_bond_distance
_geom_bond_site_symmetry_2
Pb0 Se4 3.199896 1_555
Pb0 Se3 3.199896 1_555
Pb0 Se2 3.199896 1_555
Pb0 Se5 3.199896 1_555
Pb0 Se0 3.272326 1_555
Pb0 Se1 3.272326 1_554
Pb1 Se5 3.199896 1_545
Pb1 Se3 3.199896 1_555
Pb1 Se2 3.199896 1_445
Pb1 Se4 3.199896 1_455
Pb1 Se1 3.272326 1_555
Pb1 Se0 3.272326 1_444
Se2 Tl5 3.029910 1_554
Se2 Tl0 3.029910 1_655
Se2 Tl2 3.371082 1_565
Se2 Tl6 3.371082 1_554
Se2 Tl7 3.371083 1_554
Se2 Tl3 3.371083 1_565
Se3 Tl4 3.029910 1_454
Se3 Tl1 3.029910 1_555
Se3 Tl6 3.371082 1_544
Se3 Tl2 3.371082 1_555
Se3 Tl3 3.371083 1_555
Se3 Tl7 3.371083 1_544
Se4 Tl7 3.029910 1_544
Se4 Tl2 3.029911 1_555
Se4 Tl0 3.371082 1_655
Se4 Tl1 3.371082 1_655
Se4 Tl5 3.371083 1_554
Se4 Tl4 3.371083 1_554
Se5 Tl3 3.029910 1_565
Se5 Tl6 3.029911 1_554
Se5 Tl5 3.371082 1_454
Se5 Tl4 3.371082 1_454
Se5 Tl0 3.371083 1_555
Se5 Tl1 3.371083 1_555
