# generated using pymatgen
data_YCrFe11
_symmetry_space_group_name_H-M   'P 1'
_cell_length_a   6.41916641
_cell_length_b   6.41916641
_cell_length_c   6.41916641
_cell_angle_alpha   137.36836650
_cell_angle_beta   98.26548107
_cell_angle_gamma   96.92192477
_symmetry_Int_Tables_number   1
_chemical_formula_structural   YCrFe11
_chemical_formula_sum   'Y1 Cr1 Fe11'
_cell_volume   166.87524347
_cell_formula_units_Z   1
loop_
 _symmetry_equiv_pos_site_id
 _symmetry_equiv_pos_as_xyz
  1  'x, y, z'
loop_
 _atom_site_type_symbol
 _atom_site_label
 _atom_site_symmetry_multiplicity
 _atom_site_fract_x
 _atom_site_fract_y
 _atom_site_fract_z
 _atom_site_occupancy
  Y  Y0  1  0.99397400  0.99397400  0.00000000  1
  Cr  Cr0  1  0.36629600  0.36629600  0.00000000  1
  Fe  Fe0  1  0.22523800  0.50069500  0.72454400  1
  Fe  Fe1  1  0.77615100  0.50069500  0.27545600  1
  Fe  Fe2  1  0.23042800  0.73042800  0.50000000  1
  Fe  Fe3  1  0.77109500  0.27109500  0.50000000  1
  Fe  Fe4  1  0.49802200  0.99992900  0.99861100  1
  Fe  Fe5  1  0.49802200  0.49941100  0.49809300  1
  Fe  Fe6  1  0.00131700  0.99992900  0.50190700  1
  Fe  Fe7  1  0.00131700  0.49941100  0.00138900  1
  Fe  Fe8  1  0.63393700  0.63393700  0.00000000  1
  Fe  Fe9  1  0.64329900  0.00210100  0.64119700  1
  Fe  Fe10  1  0.36090400  0.00210100  0.35880300  1
loop_
_geom_bond_atom_site_label_1
_geom_bond_atom_site_label_2
_geom_bond_distance
_geom_bond_site_symmetry_2
Cr0 Fe8 2.278558 1_555
Cr0 Fe1 2.581339 1_555
Cr0 Fe0 2.581341 1_554
Cr0 Fe5 2.587765 1_555
Cr0 Fe4 2.587765 1_544
Cr0 Fe6 2.587768 1_544
Cr0 Fe7 2.587771 1_555
Cr0 Fe2 2.604387 1_555
Cr0 Fe2 2.604387 1_544
Cr0 Fe10 2.861537 1_565
Cr0 Fe10 2.861537 1_554
Cr0 Fe9 2.861539 1_565
Cr0 Fe9 2.861543 1_554
Cr0 Y0 3.169758 1_445
Fe0 Fe4 2.428362 1_555
Fe0 Fe5 2.428364 1_555
Fe0 Fe6 2.444876 1_545
Fe0 Fe7 2.444876 1_556
Fe0 Fe8 2.576994 1_556
Fe0 Fe10 2.591707 1_566
Fe0 Fe10 2.591711 1_555
Fe0 Fe3 2.716365 1_455
Fe0 Fe2 2.717186 1_555
Fe0 Y0 3.000989 1_456
Fe0 Y0 3.000993 1_445
Fe1 Fe7 2.428355 1_655
Fe1 Fe6 2.428357 1_655
Fe1 Fe4 2.444876 1_544
Fe1 Fe5 2.444876 1_555
Fe1 Fe8 2.576988 1_555
Fe1 Fe9 2.591703 1_565
Fe1 Fe9 2.591707 1_554
Fe1 Fe3 2.716371 1_555
Fe1 Fe2 2.717186 1_655
Fe1 Y0 3.000993 1_545
Fe1 Y0 3.000993 1_556
Fe2 Fe4 2.396490 1_555
Fe2 Fe5 2.396490 1_555
Fe2 Fe7 2.396492 1_555
Fe2 Fe6 2.396494 1_555
Fe2 Fe9 2.599282 1_565
Fe2 Y0 3.081755 1_445
Fe2 Y0 3.081755 1_456
Fe3 Fe6 2.420790 1_645
Fe3 Fe7 2.420792 1_656
Fe3 Fe4 2.420795 1_544
Fe3 Fe5 2.420795 1_555
Fe3 Fe9 2.579001 1_555
Fe3 Fe8 2.609283 1_556
Fe3 Fe8 2.609283 1_545
Fe3 Y0 3.007536 1_545
Fe3 Y0 3.007536 1_556
Fe4 Fe5 2.331004 1_566
Fe4 Fe5 2.335838 1_555
Fe4 Fe9 2.606295 1_565
Fe4 Fe8 2.608336 1_556
Fe4 Y0 3.187242 1_556
Fe4 Y0 3.232557 1_456
Fe5 Fe9 2.606293 1_565
Fe5 Fe8 2.608336 1_556
Fe5 Y0 3.187242 1_556
Fe5 Y0 3.232557 1_445
Fe6 Fe7 2.331004 1_566
Fe6 Fe7 2.335838 1_555
Fe6 Fe9 2.580982 1_465
Fe6 Fe8 2.608332 1_455
Fe6 Y0 3.187243 1_455
Fe6 Y0 3.232556 1_456
Fe7 Fe9 2.580986 1_454
Fe7 Fe8 2.608330 1_455
Fe7 Y0 3.187241 1_455
Fe7 Y0 3.232558 1_445
Fe8 Fe9 2.848051 1_565
Fe8 Fe9 2.848055 1_554
Fe8 Y0 3.065170 1_555
Fe9 Y0 3.014819 1_546
Fe10 Fe9 2.372180 1_555
Fe10 Fe3 2.579003 1_555
Fe10 Fe4 2.580994 1_544
Fe10 Fe5 2.580994 1_555
Fe10 Fe2 2.599276 1_545
Fe10 Fe7 2.606296 1_545
Fe10 Fe6 2.606298 1_545
Fe10 Fe8 2.848053 1_545
Fe10 Fe8 2.848053 1_556
Fe10 Y0 3.014823 1_445
