# generated using pymatgen
data_CoP2WO8
_symmetry_space_group_name_H-M   'P 1'
_cell_length_a   4.95730970
_cell_length_b   10.13843950
_cell_length_c   5.98647715
_cell_angle_alpha   90.01532627
_cell_angle_beta   89.97756703
_cell_angle_gamma   92.09093496
_symmetry_Int_Tables_number   1
_chemical_formula_structural   CoP2WO8
_chemical_formula_sum   'Co2 P4 W2 O16'
_cell_volume   300.67629436
_cell_formula_units_Z   2
loop_
 _symmetry_equiv_pos_site_id
 _symmetry_equiv_pos_as_xyz
  1  'x, y, z'
loop_
 _atom_site_type_symbol
 _atom_site_label
 _atom_site_symmetry_multiplicity
 _atom_site_fract_x
 _atom_site_fract_y
 _atom_site_fract_z
 _atom_site_occupancy
  Co  Co0  1  0.06939900  0.71802600  0.75006900  1
  Co  Co1  1  0.94255100  0.27722000  0.25035400  1
  P  P0  1  0.40360000  0.09214000  0.24990800  1
  P  P1  1  0.59757000  0.90806400  0.74998800  1
  P  P2  1  0.88406800  0.40913900  0.74994600  1
  P  P3  1  0.11210900  0.59078000  0.25006900  1
  W  W0  1  0.44193300  0.22263000  0.75014900  1
  W  W1  1  0.55745600  0.77814900  0.24999900  1
  O  O0  1  0.68325500  0.05455500  0.74991100  1
  O  O1  1  0.31604900  0.94605000  0.25016500  1
  O  O2  1  0.70784700  0.11305400  0.24940300  1
  O  O3  1  0.29455400  0.88572400  0.75009000  1
  O  O4  1  0.18384600  0.37979900  0.75011800  1
  O  O5  1  0.81245800  0.61948800  0.24998200  1
  O  O6  1  0.16137400  0.44479800  0.25022500  1
  O  O7  1  0.83991200  0.55537200  0.74977800  1
  O  O8  1  0.26529800  0.16581700  0.04637000  1
  O  O9  1  0.26602400  0.16608300  0.45368400  1
  O  O10  1  0.73468000  0.83501500  0.54512100  1
  O  O11  1  0.73464700  0.83503600  0.95476400  1
  O  O12  1  0.72803500  0.33340100  0.55205700  1
  O  O13  1  0.72771800  0.33368900  0.94782200  1
  O  O14  1  0.26786000  0.66792500  0.05276100  1
  O  O15  1  0.26775600  0.66804400  0.44726600  1
loop_
_geom_bond_atom_site_label_1
_geom_bond_atom_site_label_2
_geom_bond_distance
_geom_bond_site_symmetry_2
Co0 O7 1.968938 1_455
Co0 O3 1.999502 1_555
Co0 O15 2.131698 1_555
Co0 O14 2.132568 1_556
Co0 O11 2.409157 1_455
Co0 O10 2.410686 1_455
Co1 O6 1.982115 1_655
Co1 O2 1.995655 1_555
Co1 O12 2.181645 1_555
Co1 O13 2.188292 1_554
Co1 O8 2.335876 1_655
Co1 O9 2.335964 1_655
O0 P1 1.529766 1_545
O0 W0 2.117448 1_555
O1 P0 1.528135 1_565
O1 W1 2.116242 1_555
O2 P0 1.515400 1_555
O3 P1 1.510930 1_555
O4 P2 1.526176 1_455
O4 W0 2.079604 1_555
O5 P3 1.524094 1_655
O5 W1 2.081803 1_555
O6 P3 1.508811 1_555
O7 P2 1.506528 1_555
O8 P0 1.597252 1_555
O8 W0 2.050780 1_554
O9 P0 1.597328 1_555
O9 W0 2.050159 1_555
O10 P1 1.596937 1_555
O10 W1 2.046786 1_555
O11 P1 1.597057 1_555
O11 W1 2.047030 1_556
O12 P2 1.596318 1_555
O12 W0 2.135944 1_555
O13 P2 1.595498 1_555
O13 W0 2.135288 1_555
O14 P3 1.599617 1_555
O14 W1 2.141857 1_555
O15 P3 1.599593 1_555
O15 W1 2.141398 1_555
