# generated using pymatgen
data_KZnAs3F18
_symmetry_space_group_name_H-M   'P 1'
_cell_length_a   9.72328500
_cell_length_b   10.67050100
_cell_length_c   14.30829300
_cell_angle_alpha   90.00000000
_cell_angle_beta   90.00000000
_cell_angle_gamma   90.00000000
_symmetry_Int_Tables_number   1
_chemical_formula_structural   KZnAs3F18
_chemical_formula_sum   'K4 Zn4 As12 F72'
_cell_volume   1484.51862712
_cell_formula_units_Z   4
loop_
 _symmetry_equiv_pos_site_id
 _symmetry_equiv_pos_as_xyz
  1  'x, y, z'
loop_
 _atom_site_type_symbol
 _atom_site_label
 _atom_site_symmetry_multiplicity
 _atom_site_fract_x
 _atom_site_fract_y
 _atom_site_fract_z
 _atom_site_occupancy
  K  K0  1  0.52483200  0.92272800  0.75000000  1
  K  K1  1  0.97516800  0.42272800  0.75000000  1
  K  K2  1  0.47516800  0.07727200  0.25000000  1
  K  K3  1  0.02483200  0.57727200  0.25000000  1
  Zn  Zn0  1  0.00000000  0.00000000  0.50000000  1
  Zn  Zn1  1  0.50000000  0.50000000  0.00000000  1
  Zn  Zn2  1  0.00000000  0.00000000  0.00000000  1
  Zn  Zn3  1  0.50000000  0.50000000  0.50000000  1
  As  As0  1  0.10668600  0.02284900  0.75000000  1
  As  As1  1  0.39331400  0.52284900  0.75000000  1
  As  As2  1  0.89331400  0.97715100  0.25000000  1
  As  As3  1  0.60668600  0.47715100  0.25000000  1
  As  As4  1  0.69437200  0.20356200  0.54920300  1
  As  As5  1  0.80562800  0.70356200  0.95079700  1
  As  As6  1  0.30562800  0.79643800  0.04920300  1
  As  As7  1  0.19437200  0.29643800  0.45079700  1
  As  As8  1  0.30562800  0.79643800  0.45079700  1
  As  As9  1  0.19437200  0.29643800  0.04920300  1
  As  As10  1  0.69437200  0.20356200  0.95079700  1
  As  As11  1  0.80562800  0.70356200  0.54920300  1
  F  F0  1  0.10662500  0.02467200  0.62208500  1
  F  F1  1  0.39337500  0.52467200  0.87791500  1
  F  F2  1  0.89337500  0.97532800  0.12208500  1
  F  F3  1  0.60662500  0.47532800  0.37791500  1
  F  F4  1  0.89337500  0.97532800  0.37791500  1
  F  F5  1  0.60662500  0.47532800  0.12208500  1
  F  F6  1  0.10662500  0.02467200  0.87791500  1
  F  F7  1  0.39337500  0.52467200  0.62208500  1
  F  F8  1  0.15618700  0.86601900  0.75000000  1
  F  F9  1  0.34381300  0.36601900  0.75000000  1
  F  F10  1  0.84381300  0.13398100  0.25000000  1
  F  F11  1  0.65618700  0.63398100  0.25000000  1
  F  F12  1  0.28100200  0.06641700  0.75000000  1
  F  F13  1  0.21899800  0.56641700  0.75000000  1
  F  F14  1  0.71899800  0.93358300  0.25000000  1
  F  F15  1  0.78100200  0.43358300  0.25000000  1
  F  F16  1  0.06134900  0.18271800  0.75000000  1
  F  F17  1  0.43865100  0.68271800  0.75000000  1
  F  F18  1  0.93865100  0.81728200  0.25000000  1
  F  F19  1  0.56134900  0.31728200  0.25000000  1
  F  F20  1  0.93326200  0.98138700  0.75000000  1
  F  F21  1  0.56673800  0.48138700  0.75000000  1
  F  F22  1  0.06673800  0.01861300  0.25000000  1
  F  F23  1  0.43326200  0.51861300  0.25000000  1
  F  F24  1  0.82421700  0.07865400  0.55466800  1
  F  F25  1  0.67578300  0.57865400  0.94533200  1
  F  F26  1  0.17578300  0.92134600  0.05466800  1
  F  F27  1  0.32421700  0.42134600  0.44533200  1
  F  F28  1  0.17578300  0.92134600  0.44533200  1
  F  F29  1  0.32421700  0.42134600  0.05466800  1
  F  F30  1  0.82421700  0.07865400  0.94533200  1
  F  F31  1  0.67578300  0.57865400  0.55466800  1
  F  F32  1  0.79158700  0.28387700  0.46672500  1
  F  F33  1  0.70841300  0.78387700  0.03327500  1
  F  F34  1  0.20841300  0.71612300  0.96672500  1
  F  F35  1  0.29158700  0.21612300  0.53327500  1
  F  F36  1  0.20841300  0.71612300  0.53327500  1
  F  F37  1  0.29158700  0.21612300  0.96672500  1
  F  F38  1  0.79158700  0.28387700  0.03327500  1
  F  F39  1  0.70841300  0.78387700  0.46672500  1
  F  F40  1  0.60701300  0.12384500  0.46010300  1
  F  F41  1  0.89298700  0.62384500  0.03989700  1
  F  F42  1  0.39298700  0.87615500  0.96010300  1
  F  F43  1  0.10701300  0.37615500  0.53989700  1
  F  F44  1  0.39298700  0.87615500  0.53989700  1
  F  F45  1  0.10701300  0.37615500  0.96010300  1
  F  F46  1  0.60701300  0.12384500  0.03989700  1
  F  F47  1  0.89298700  0.62384500  0.46010300  1
  F  F48  1  0.56493500  0.32770100  0.54800400  1
  F  F49  1  0.93506500  0.82770100  0.95199600  1
  F  F50  1  0.43506500  0.67229900  0.04800400  1
  F  F51  1  0.06493500  0.17229900  0.45199600  1
  F  F52  1  0.43506500  0.67229900  0.45199600  1
  F  F53  1  0.06493500  0.17229900  0.04800400  1
  F  F54  1  0.56493500  0.32770100  0.95199600  1
  F  F55  1  0.93506500  0.82770100  0.54800400  1
  F  F56  1  0.59753400  0.12177200  0.63288500  1
  F  F57  1  0.90246600  0.62177200  0.86711500  1
  F  F58  1  0.40246600  0.87822800  0.13288500  1
  F  F59  1  0.09753400  0.37822800  0.36711500  1
  F  F60  1  0.40246600  0.87822800  0.36711500  1
  F  F61  1  0.09753400  0.37822800  0.13288500  1
  F  F62  1  0.59753400  0.12177200  0.86711500  1
  F  F63  1  0.90246600  0.62177200  0.63288500  1
  F  F64  1  0.78080200  0.28210500  0.63999800  1
  F  F65  1  0.71919800  0.78210500  0.86000200  1
  F  F66  1  0.21919800  0.71789500  0.13999800  1
  F  F67  1  0.28080200  0.21789500  0.36000200  1
  F  F68  1  0.21919800  0.71789500  0.36000200  1
  F  F69  1  0.28080200  0.21789500  0.13999800  1
  F  F70  1  0.78080200  0.28210500  0.86000200  1
  F  F71  1  0.71919800  0.78210500  0.63999800  1
loop_
_geom_bond_atom_site_label_1
_geom_bond_atom_site_label_2
_geom_bond_distance
_geom_bond_site_symmetry_2
As0 F8 1.741296 1_545
As0 F20 1.743324 1_445
As0 F12 1.757525 1_555
As0 F16 1.761920 1_555
As0 F6 1.830349 1_555
As0 F0 1.830349 1_555
As1 F9 1.741296 1_555
As1 F21 1.743324 1_555
As1 F13 1.757525 1_555
As1 F17 1.761920 1_555
As1 F7 1.830349 1_555
As1 F1 1.830349 1_555
As2 F10 1.741296 1_565
As2 F22 1.743324 1_665
As2 F14 1.757525 1_555
As2 F18 1.761920 1_555
As2 F2 1.830349 1_555
As2 F4 1.830349 1_555
As3 F11 1.741296 1_555
As3 F23 1.743324 1_555
As3 F15 1.757525 1_555
As3 F19 1.761920 1_555
As3 F5 1.830349 1_555
As3 F3 1.830349 1_555
As4 F32 1.737996 1_555
As4 F40 1.752243 1_555
As4 F56 1.755532 1_555
As4 F64 1.759648 1_555
As4 F48 1.827261 1_555
As4 F24 1.837528 1_555
As5 F33 1.737996 1_556
As5 F41 1.752243 1_556
As5 F57 1.755532 1_555
As5 F65 1.759648 1_555
As5 F49 1.827261 1_555
As5 F25 1.837528 1_555
As6 F34 1.737996 1_554
As6 F42 1.752243 1_554
As6 F58 1.755532 1_555
As6 F66 1.759648 1_555
As6 F50 1.827261 1_555
As6 F26 1.837528 1_555
As7 F35 1.737996 1_555
As7 F43 1.752243 1_555
As7 F59 1.755532 1_555
As7 F67 1.759648 1_555
As7 F51 1.827261 1_555
As7 F27 1.837528 1_555
As8 F36 1.737996 1_555
As8 F44 1.752243 1_555
As8 F60 1.755532 1_555
As8 F68 1.759648 1_555
As8 F52 1.827261 1_555
As8 F28 1.837528 1_555
As9 F37 1.737996 1_554
As9 F45 1.752243 1_554
As9 F61 1.755532 1_555
As9 F69 1.759648 1_555
As9 F53 1.827261 1_555
As9 F29 1.837528 1_555
As10 F38 1.737996 1_556
As10 F46 1.752243 1_556
As10 F62 1.755532 1_555
As10 F70 1.759648 1_555
As10 F54 1.827261 1_555
As10 F30 1.837528 1_555
As11 F39 1.737996 1_555
As11 F47 1.752243 1_555
As11 F63 1.755532 1_555
As11 F71 1.759648 1_555
As11 F55 1.827261 1_555
As11 F31 1.837528 1_555
F0 Zn0 2.048306 1_555
F1 Zn1 2.048306 1_556
F2 Zn2 2.048306 1_665
F3 Zn3 2.048306 1_555
F4 Zn0 2.048306 1_665
F5 Zn1 2.048306 1_555
F6 Zn2 2.048306 1_556
F7 Zn3 2.048306 1_555
F12 K0 2.823408 1_545
F13 K1 2.823408 1_455
F14 K2 2.823408 1_565
F15 K3 2.823408 1_655
F16 K1 2.694632 1_455
F17 K0 2.694632 1_555
F18 K3 2.694632 1_655
F19 K2 2.694632 1_555
F24 Zn0 2.058533 1_655
F25 Zn1 2.058533 1_556
F26 Zn2 2.058533 1_565
F27 Zn3 2.058533 1_555
F28 Zn0 2.058533 1_565
F29 Zn1 2.058533 1_555
F30 Zn2 2.058533 1_656
F31 Zn3 2.058533 1_555
F48 Zn3 2.061688 1_555
F49 Zn2 2.061688 1_666
F50 Zn1 2.061688 1_555
F51 Zn0 2.061688 1_555
F52 Zn3 2.061688 1_555
F53 Zn2 2.061688 1_555
F54 Zn1 2.061688 1_556
F55 Zn0 2.061688 1_665
F56 K0 2.796191 1_545
F57 K1 2.796191 1_555
F58 K2 2.796191 1_565
F59 K3 2.796191 1_555
F60 K2 2.796191 1_565
F61 K3 2.796191 1_555
F62 K0 2.796191 1_545
F63 K1 2.796191 1_555
F64 K1 2.881054 1_555
F65 K0 2.881054 1_555
F66 K3 2.881054 1_555
F67 K2 2.881054 1_555
F68 K3 2.881054 1_555
F69 K2 2.881054 1_555
F70 K1 2.881054 1_555
F71 K0 2.881054 1_555
