# generated using pymatgen
data_AlPO4
_symmetry_space_group_name_H-M   'P 1'
_cell_length_a   8.10360700
_cell_length_b   9.53277632
_cell_length_c   13.55543257
_cell_angle_alpha   90.65064270
_cell_angle_beta   93.79003513
_cell_angle_gamma   108.05736772
_symmetry_Int_Tables_number   1
_chemical_formula_structural   AlPO4
_chemical_formula_sum   'Al8 P8 O32'
_cell_volume   992.84232093
_cell_formula_units_Z   8
loop_
 _symmetry_equiv_pos_site_id
 _symmetry_equiv_pos_as_xyz
  1  'x, y, z'
loop_
 _atom_site_type_symbol
 _atom_site_label
 _atom_site_symmetry_multiplicity
 _atom_site_fract_x
 _atom_site_fract_y
 _atom_site_fract_z
 _atom_site_occupancy
  Al  Al0  1  0.37052000  0.12605700  0.76211500  1
  Al  Al1  1  0.63172500  0.41516700  0.38764600  1
  Al  Al2  1  0.62948000  0.87394300  0.23788500  1
  Al  Al3  1  0.58994300  0.60706000  0.19383900  1
  Al  Al4  1  0.41005700  0.39294000  0.80616100  1
  Al  Al5  1  0.36827500  0.58483300  0.61235400  1
  Al  Al6  1  0.63193200  0.38871600  0.66694700  1
  Al  Al7  1  0.36806800  0.61128400  0.33305300  1
  P  P0  1  0.50395700  0.69344600  0.94199100  1
  P  P1  1  0.96075900  0.50170700  0.26871500  1
  P  P2  1  0.56728500  0.74249400  0.49808400  1
  P  P3  1  0.88821400  0.16715900  0.22967400  1
  P  P4  1  0.03924100  0.49829300  0.73128500  1
  P  P5  1  0.49604300  0.30655400  0.05800900  1
  P  P6  1  0.43271500  0.25750600  0.50191600  1
  P  P7  1  0.11178600  0.83284100  0.77032600  1
  O  O0  1  0.00661200  0.12481300  0.30050700  1
  O  O1  1  0.61815300  0.79768300  0.87586000  1
  O  O2  1  0.75743600  0.77188900  0.19757900  1
  O  O3  1  0.42958400  0.52998300  0.89649500  1
  O  O4  1  0.71265900  0.06172300  0.19065400  1
  O  O5  1  0.97898200  0.05495000  0.00985400  1
  O  O6  1  0.47135600  0.48467700  0.68852100  1
  O  O7  1  0.60153500  0.40935400  0.52443400  1
  O  O8  1  0.91830700  0.32220500  0.19089200  1
  O  O9  1  0.47886000  0.22772400  0.39675700  1
  O  O10  1  0.28734100  0.93827700  0.80934600  1
  O  O11  1  0.14522700  0.51796700  0.31790600  1
  O  O12  1  0.24256400  0.22811100  0.80242100  1
  O  O13  1  0.85477300  0.48203300  0.68209400  1
  O  O14  1  0.56633400  0.29012700  0.77802100  1
  O  O15  1  0.40074800  0.05956300  0.64136600  1
  O  O16  1  0.99338800  0.87518700  0.69949300  1
  O  O17  1  0.52864400  0.51532300  0.31147900  1
  O  O18  1  0.38184700  0.20231700  0.12414000  1
  O  O19  1  0.52114000  0.77227600  0.60324300  1
  O  O20  1  0.57041600  0.47001700  0.10350500  1
  O  O21  1  0.83749000  0.42641800  0.35297100  1
  O  O22  1  0.26101200  0.26512200  0.52470900  1
  O  O23  1  0.59925200  0.94043700  0.35863400  1
  O  O24  1  0.52438100  0.18147700  0.59243400  1
  O  O25  1  0.16251000  0.57358200  0.64702900  1
  O  O26  1  0.43366600  0.70987300  0.22197900  1
  O  O27  1  0.39846500  0.59064600  0.47556600  1
  O  O28  1  0.47561900  0.81852300  0.40756600  1
  O  O29  1  0.08169300  0.67779500  0.80910800  1
  O  O30  1  0.02101800  0.94505000  0.99014600  1
  O  O31  1  0.73898800  0.73487800  0.47529100  1
loop_
_geom_bond_atom_site_label_1
_geom_bond_atom_site_label_2
_geom_bond_distance
_geom_bond_site_symmetry_2
Al0 O12 1.734455 1_555
Al0 O15 1.807382 1_555
Al0 O10 1.844897 1_545
Al0 O14 1.849104 1_555
Al1 O21 1.733977 1_555
Al1 O17 1.754467 1_555
Al1 O9 1.842724 1_555
Al1 O7 1.885459 1_555
Al2 O2 1.734455 1_555
Al2 O23 1.807382 1_555
Al2 O4 1.844897 1_565
Al2 O26 1.849104 1_555
Al3 O2 1.726470 1_555
Al3 O20 1.743863 1_555
Al3 O17 1.849743 1_555
Al3 O26 1.880083 1_555
Al4 O12 1.726470 1_555
Al4 O3 1.743863 1_555
Al4 O6 1.849743 1_555
Al4 O14 1.880083 1_555
Al5 O25 1.733977 1_555
Al5 O6 1.754467 1_555
Al5 O19 1.842724 1_555
Al5 O27 1.885459 1_555
Al6 O13 1.745116 1_555
Al6 O14 1.805847 1_555
Al6 O6 1.843298 1_555
Al6 O7 1.951178 1_555
Al6 O24 2.110345 1_555
Al7 O11 1.745116 1_555
Al7 O26 1.805847 1_555
Al7 O17 1.843298 1_555
Al7 O27 1.951178 1_555
Al7 O28 2.110345 1_555
O0 P3 1.460325 1_455
O1 P0 1.485657 1_555
O3 P0 1.586998 1_555
O4 P3 1.521800 1_555
O7 P6 1.663486 1_555
O8 P3 1.526933 1_555
O8 P1 1.924928 1_555
O9 P6 1.542565 1_555
O10 P7 1.521800 1_555
O11 P1 1.557397 1_455
O13 P4 1.557397 1_655
O15 O24 1.475771 1_555
O16 P7 1.460325 1_655
O18 P5 1.485657 1_555
O19 P2 1.542565 1_555
O20 P5 1.586998 1_555
O21 P1 1.594490 1_555
O22 P6 1.468235 1_555
O23 O28 1.475771 1_555
O24 P6 1.678122 1_555
O25 P4 1.594490 1_555
O27 P2 1.663486 1_555
O28 P2 1.678122 1_555
O29 P7 1.526933 1_555
O29 P4 1.924928 1_555
O30 O5 1.229592 1_466
O31 P2 1.468235 1_555
