# generated using pymatgen
data_RbCdGeAs2
_symmetry_space_group_name_H-M   'P 1'
_cell_length_a   8.53809320
_cell_length_b   8.70034650
_cell_length_c   8.92521443
_cell_angle_alpha   70.70216220
_cell_angle_beta   75.41339112
_cell_angle_gamma   73.14244819
_symmetry_Int_Tables_number   1
_chemical_formula_structural   RbCdGeAs2
_chemical_formula_sum   'Rb4 Cd4 Ge4 As8'
_cell_volume   589.86274770
_cell_formula_units_Z   4
loop_
 _symmetry_equiv_pos_site_id
 _symmetry_equiv_pos_as_xyz
  1  'x, y, z'
loop_
 _atom_site_type_symbol
 _atom_site_label
 _atom_site_symmetry_multiplicity
 _atom_site_fract_x
 _atom_site_fract_y
 _atom_site_fract_z
 _atom_site_occupancy
  Rb  Rb0  1  0.45384000  0.76562900  0.32099400  1
  Rb  Rb1  1  0.54616000  0.23437100  0.67900600  1
  Rb  Rb2  1  0.44003800  0.80040500  0.81329400  1
  Rb  Rb3  1  0.55996200  0.19959500  0.18670600  1
  Cd  Cd0  1  0.99485200  0.89718600  0.68782500  1
  Cd  Cd1  1  0.00514800  0.10281400  0.31217500  1
  Cd  Cd2  1  0.96854700  0.81928900  0.16948500  1
  Cd  Cd3  1  0.03145300  0.18071100  0.83051500  1
  Ge  Ge0  1  0.95919900  0.58671300  0.59733600  1
  Ge  Ge1  1  0.04080100  0.41328700  0.40266400  1
  Ge  Ge2  1  0.15230900  0.44876200  0.97520400  1
  Ge  Ge3  1  0.84769100  0.55123800  0.02479600  1
  As  As0  1  0.80821900  0.87185400  0.46246700  1
  As  As1  1  0.19178100  0.12814600  0.53753300  1
  As  As2  1  0.78248700  0.40691900  0.31663200  1
  As  As3  1  0.21751300  0.59308100  0.68336800  1
  As  As4  1  0.76843100  0.86401900  0.96256600  1
  As  As5  1  0.23156900  0.13598100  0.03743400  1
  As  As6  1  0.76657900  0.44830200  0.82982200  1
  As  As7  1  0.23342100  0.55169800  0.17017800  1
loop_
_geom_bond_atom_site_label_1
_geom_bond_atom_site_label_2
_geom_bond_distance
_geom_bond_site_symmetry_2
Cd0 Ge0 3.175567 1_555
Cd1 Ge1 3.175567 1_555
Ge0 Ge1 2.508846 1_655
Ge2 Ge3 2.468069 1_456
As0 Ge0 2.493632 1_555
As0 Cd2 2.746859 1_555
As0 Cd1 2.776010 1_665
As0 Cd0 2.957101 1_555
As0 Rb3 3.628345 1_565
As0 Rb2 3.868056 1_555
As0 Rb0 3.990109 1_555
As0 Rb1 4.055519 1_565
As1 Ge1 2.493632 1_555
As1 Cd3 2.746859 1_555
As1 Cd0 2.776010 1_445
As1 Cd1 2.957101 1_555
As1 Rb2 3.628345 1_545
As1 Rb3 3.868056 1_555
As1 Rb1 3.990109 1_555
As1 Rb0 4.055519 1_545
As2 Ge3 2.486835 1_555
As2 Ge1 2.531586 1_655
As2 Cd1 2.780339 1_655
As2 Rb1 3.470763 1_555
As2 Rb0 3.544213 1_555
As2 Rb3 3.562031 1_555
As3 Ge2 2.486835 1_555
As3 Ge0 2.531586 1_455
As3 Cd0 2.780339 1_455
As3 Rb0 3.470763 1_555
As3 Rb1 3.544213 1_555
As3 Rb2 3.562031 1_555
As4 Ge3 2.508816 1_556
As4 Cd2 2.685167 1_556
As4 Cd0 2.702148 1_555
As4 Rb2 3.634807 1_555
As4 Rb0 3.657439 1_556
As4 Rb1 3.724479 1_565
As4 Rb3 3.840220 1_566
As5 Ge2 2.508816 1_554
As5 Cd3 2.685167 1_554
As5 Cd1 2.702148 1_555
As5 Rb3 3.634807 1_555
As5 Rb1 3.657439 1_554
As5 Rb0 3.724479 1_545
As5 Rb2 3.840220 1_544
As6 Ge0 2.497738 1_555
As6 Ge3 2.511323 1_556
As6 Cd3 2.734693 1_655
As6 Rb2 3.483431 1_555
As6 Rb3 3.573274 1_556
As6 Rb1 3.712346 1_555
As7 Ge1 2.497738 1_555
As7 Ge2 2.511323 1_554
As7 Cd2 2.734693 1_455
As7 Rb3 3.483431 1_555
As7 Rb2 3.573274 1_554
As7 Rb0 3.712346 1_555
