# generated using pymatgen
data_VAgOF4
_symmetry_space_group_name_H-M   'P 1'
_cell_length_a   5.18452500
_cell_length_b   5.73497800
_cell_length_c   14.09550305
_cell_angle_alpha   80.38265751
_cell_angle_beta   90.00000000
_cell_angle_gamma   90.00000000
_symmetry_Int_Tables_number   1
_chemical_formula_structural   VAgOF4
_chemical_formula_sum   'V4 Ag4 O4 F16'
_cell_volume   413.21323611
_cell_formula_units_Z   4
loop_
 _symmetry_equiv_pos_site_id
 _symmetry_equiv_pos_as_xyz
  1  'x, y, z'
loop_
 _atom_site_type_symbol
 _atom_site_label
 _atom_site_symmetry_multiplicity
 _atom_site_fract_x
 _atom_site_fract_y
 _atom_site_fract_z
 _atom_site_occupancy
  V  V0  1  0.94435200  0.17688200  0.14251500  1
  V  V1  1  0.44435200  0.82311800  0.35748500  1
  V  V2  1  0.05564800  0.82311800  0.85748500  1
  V  V3  1  0.55564800  0.17688200  0.64251500  1
  Ag  Ag0  1  0.43435100  0.65379100  0.11237000  1
  Ag  Ag1  1  0.93435100  0.34620900  0.38763000  1
  Ag  Ag2  1  0.56564900  0.34620900  0.88763000  1
  Ag  Ag3  1  0.06564900  0.65379100  0.61237000  1
  O  O0  1  0.15418300  0.35102000  0.08189600  1
  O  O1  1  0.65418300  0.64898000  0.41810400  1
  O  O2  1  0.84581700  0.64898000  0.91810400  1
  O  O3  1  0.34581700  0.35102000  0.58189600  1
  F  F0  1  0.03367200  0.88626200  0.11611100  1
  F  F1  1  0.53367200  0.11373800  0.38388900  1
  F  F2  1  0.96632800  0.11373800  0.88388900  1
  F  F3  1  0.46632800  0.88626200  0.61611100  1
  F  F4  1  0.75400400  0.39151600  0.19939700  1
  F  F5  1  0.25400400  0.60848400  0.30060300  1
  F  F6  1  0.24599600  0.60848400  0.80060300  1
  F  F7  1  0.74599600  0.39151600  0.69939700  1
  F  F8  1  0.67298900  0.17964000  0.05785600  1
  F  F9  1  0.17298900  0.82036000  0.44214400  1
  F  F10  1  0.32701100  0.82036000  0.94214400  1
  F  F11  1  0.82701100  0.17964000  0.55785600  1
  F  F12  1  0.10556700  0.09873800  0.26191800  1
  F  F13  1  0.60556700  0.90126200  0.23808200  1
  F  F14  1  0.89443300  0.90126200  0.73808200  1
  F  F15  1  0.39443300  0.09873800  0.76191800  1
loop_
_geom_bond_atom_site_label_1
_geom_bond_atom_site_label_2
_geom_bond_distance
_geom_bond_site_symmetry_2
Ag0 O0 2.357674 1_555
Ag0 F4 2.428408 1_555
Ag0 F0 2.473669 1_555
Ag0 F10 2.492708 1_554
Ag0 F13 2.604304 1_555
Ag1 O1 2.357674 1_555
Ag1 F5 2.428408 1_655
Ag1 F1 2.473669 1_555
Ag1 F11 2.492708 1_555
Ag1 F12 2.604304 1_655
Ag2 O2 2.357674 1_555
Ag2 F6 2.428408 1_555
Ag2 F2 2.473669 1_555
Ag2 F8 2.492708 1_556
Ag2 F15 2.604304 1_555
Ag3 O3 2.357674 1_555
Ag3 F7 2.428408 1_455
Ag3 F3 2.473669 1_555
Ag3 F9 2.492708 1_555
Ag3 F14 2.604304 1_455
O0 V0 1.620431 1_455
O1 V1 1.620431 1_555
O2 V2 1.620431 1_655
O3 V3 1.620431 1_555
F0 V0 1.827051 1_465
F1 V1 1.827051 1_545
F2 V2 1.827051 1_645
F3 V3 1.827051 1_565
F4 V0 1.860561 1_555
F5 V1 1.860561 1_555
F6 V2 1.860561 1_555
F7 V3 1.860561 1_555
F8 V0 1.843168 1_555
F9 V1 1.843168 1_555
F10 V2 1.843168 1_555
F11 V3 1.843168 1_555
F12 V0 1.865492 1_455
F13 V1 1.865492 1_555
F14 V2 1.865492 1_655
F15 V3 1.865492 1_555
