# generated using pymatgen
data_NbCr3(AgS4)2
_symmetry_space_group_name_H-M   'P 1'
_cell_length_a   11.85070700
_cell_length_b   3.46963500
_cell_length_c   12.20349000
_cell_angle_alpha   90.00000000
_cell_angle_beta   90.00000000
_cell_angle_gamma   90.00000000
_symmetry_Int_Tables_number   1
_chemical_formula_structural   NbCr3(AgS4)2
_chemical_formula_sum   'Nb2 Cr6 Ag4 S16'
_cell_volume   501.77855946
_cell_formula_units_Z   2
loop_
 _symmetry_equiv_pos_site_id
 _symmetry_equiv_pos_as_xyz
  1  'x, y, z'
loop_
 _atom_site_type_symbol
 _atom_site_label
 _atom_site_symmetry_multiplicity
 _atom_site_fract_x
 _atom_site_fract_y
 _atom_site_fract_z
 _atom_site_occupancy
  Nb  Nb0  1  0.15073200  0.25000000  0.71897600  1
  Nb  Nb1  1  0.65073200  0.25000000  0.78102400  1
  Cr  Cr0  1  0.10472600  0.25000000  0.08653100  1
  Cr  Cr1  1  0.89538300  0.75000000  0.93301700  1
  Cr  Cr2  1  0.39538300  0.75000000  0.56698300  1
  Cr  Cr3  1  0.60472600  0.25000000  0.41346900  1
  Cr  Cr4  1  0.84653000  0.75000000  0.29372700  1
  Cr  Cr5  1  0.34653000  0.75000000  0.20627300  1
  Ag  Ag0  1  0.13182100  0.75000000  0.40473600  1
  Ag  Ag1  1  0.86296700  0.25000000  0.57886800  1
  Ag  Ag2  1  0.36296700  0.25000000  0.92113200  1
  Ag  Ag3  1  0.63182100  0.75000000  0.09526400  1
  S  S0  1  0.04854700  0.75000000  0.61730500  1
  S  S1  1  0.94969000  0.25000000  0.37721800  1
  S  S2  1  0.44969000  0.25000000  0.12278200  1
  S  S3  1  0.54854700  0.75000000  0.88269500  1
  S  S4  1  0.03382700  0.25000000  0.88590500  1
  S  S5  1  0.96626500  0.75000000  0.11991100  1
  S  S6  1  0.46626500  0.75000000  0.38008900  1
  S  S7  1  0.53382700  0.25000000  0.61409500  1
  S  S8  1  0.21104700  0.25000000  0.25107100  1
  S  S9  1  0.79982900  0.75000000  0.74958700  1
  S  S10  1  0.29982900  0.75000000  0.75041300  1
  S  S11  1  0.71104700  0.25000000  0.24892900  1
  S  S12  1  0.23267500  0.75000000  0.04171900  1
  S  S13  1  0.76596300  0.25000000  0.96603300  1
  S  S14  1  0.26596300  0.25000000  0.53396700  1
  S  S15  1  0.73267500  0.75000000  0.45828100  1
loop_
_geom_bond_atom_site_label_1
_geom_bond_atom_site_label_2
_geom_bond_distance
_geom_bond_site_symmetry_2
Nb0 S0 2.452645 1_555
Nb0 S0 2.452645 1_545
Nb0 S4 2.463574 1_555
Nb0 S10 2.505738 1_545
Nb0 S10 2.505738 1_555
Nb0 S14 2.638605 1_555
Nb1 S3 2.452645 1_545
Nb1 S3 2.452645 1_555
Nb1 S7 2.463574 1_555
Nb1 S9 2.505738 1_555
Nb1 S9 2.505738 1_545
Nb1 S13 2.638605 1_555
Cr0 S12 2.368074 1_545
Cr0 S12 2.368074 1_555
Cr0 S8 2.370540 1_555
Cr0 S5 2.422386 1_455
Cr0 S5 2.422386 1_445
Cr0 S4 2.588493 1_554
Cr1 S13 2.350366 1_555
Cr1 S13 2.350366 1_565
Cr1 S5 2.430528 1_556
Cr1 S4 2.455993 1_655
Cr1 S4 2.455993 1_665
Cr1 S9 2.508607 1_555
Cr2 S14 2.350366 1_565
Cr2 S14 2.350366 1_555
Cr2 S6 2.430528 1_555
Cr2 S7 2.455993 1_555
Cr2 S7 2.455993 1_565
Cr2 S10 2.508607 1_555
Cr3 S15 2.368074 1_555
Cr3 S15 2.368074 1_545
Cr3 S11 2.370540 1_555
Cr3 S6 2.422386 1_545
Cr3 S6 2.422386 1_555
Cr3 S7 2.588493 1_555
Cr4 S1 2.354201 1_565
Cr4 S1 2.354201 1_555
Cr4 S15 2.419320 1_555
Cr4 S11 2.426173 1_565
Cr4 S11 2.426173 1_555
Cr4 S5 2.552005 1_555
Cr5 S2 2.354201 1_555
Cr5 S2 2.354201 1_565
Cr5 S12 2.419320 1_555
Cr5 S8 2.426173 1_555
Cr5 S8 2.426173 1_565
Cr5 S6 2.552005 1_555
Ag0 S8 2.721701 1_565
Ag0 S8 2.721701 1_555
Ag0 S0 2.775456 1_555
Ag0 S1 2.789440 1_465
Ag0 S1 2.789440 1_455
Ag0 S14 2.832634 1_565
Ag0 S14 2.832634 1_555
Ag1 S1 2.666820 1_555
Ag1 S15 2.749408 1_555
Ag1 S15 2.749408 1_545
Ag1 S9 2.812447 1_545
Ag1 S9 2.812447 1_555
Ag1 S0 2.840129 1_655
Ag1 S0 2.840129 1_645
Ag2 S2 2.666820 1_556
Ag2 S12 2.749408 1_546
Ag2 S12 2.749408 1_556
Ag2 S10 2.812447 1_555
Ag2 S10 2.812447 1_545
Ag2 S3 2.840129 1_555
Ag2 S3 2.840129 1_545
Ag3 S11 2.721701 1_565
Ag3 S11 2.721701 1_555
Ag3 S3 2.775456 1_554
Ag3 S2 2.789440 1_555
Ag3 S2 2.789440 1_565
Ag3 S13 2.832634 1_554
Ag3 S13 2.832634 1_564
