# generated using pymatgen
data_KThN5O17
_symmetry_space_group_name_H-M   'P 1'
_cell_length_a   13.18861600
_cell_length_b   10.07443600
_cell_length_c   13.35947390
_cell_angle_alpha   52.63662464
_cell_angle_beta   90.00000000
_cell_angle_gamma   90.00000000
_symmetry_Int_Tables_number   1
_chemical_formula_structural   KThN5O17
_chemical_formula_sum   'K4 Th4 N20 O68'
_cell_volume   1410.81041923
_cell_formula_units_Z   4
loop_
 _symmetry_equiv_pos_site_id
 _symmetry_equiv_pos_as_xyz
  1  'x, y, z'
loop_
 _atom_site_type_symbol
 _atom_site_label
 _atom_site_symmetry_multiplicity
 _atom_site_fract_x
 _atom_site_fract_y
 _atom_site_fract_z
 _atom_site_occupancy
  K  K0  1  0.40442200  0.92762100  0.19783300  1
  K  K1  1  0.59557800  0.07237900  0.80216700  1
  K  K2  1  0.90442200  0.07237900  0.30216700  1
  K  K3  1  0.09557800  0.92762100  0.69783300  1
  Th  Th0  1  0.83636400  0.64764300  0.24730400  1
  Th  Th1  1  0.16363600  0.35235700  0.75269600  1
  Th  Th2  1  0.33636400  0.35235700  0.25269600  1
  Th  Th3  1  0.66363600  0.64764300  0.74730400  1
  N  N0  1  0.44990500  0.68819500  0.10060800  1
  N  N1  1  0.55009500  0.31180500  0.89939200  1
  N  N2  1  0.94990500  0.31180500  0.39939200  1
  N  N3  1  0.05009500  0.68819500  0.60060800  1
  N  N4  1  0.73745200  0.42829700  0.01936700  1
  N  N5  1  0.26254800  0.57170300  0.98063300  1
  N  N6  1  0.23745200  0.57170300  0.48063300  1
  N  N7  1  0.76254800  0.42829700  0.51936700  1
  N  N8  1  0.68209800  0.99356500  0.48780200  1
  N  N9  1  0.31790200  0.00643500  0.51219800  1
  N  N10  1  0.18209800  0.00643500  0.01219800  1
  N  N11  1  0.81790200  0.99356500  0.98780200  1
  N  N12  1  0.67819000  0.86184600  0.25999300  1
  N  N13  1  0.32181000  0.13815400  0.74000700  1
  N  N14  1  0.17819000  0.13815400  0.24000700  1
  N  N15  1  0.82181000  0.86184600  0.75999300  1
  N  N16  1  0.97623100  0.66727800  0.05557300  1
  N  N17  1  0.02376900  0.33272200  0.94442700  1
  N  N18  1  0.47623100  0.33272200  0.44442700  1
  N  N19  1  0.52376900  0.66727800  0.55557300  1
  O  O0  1  0.65313300  0.72716000  0.27573100  1
  O  O1  1  0.34686700  0.27284000  0.72426900  1
  O  O2  1  0.15313300  0.27284000  0.22426900  1
  O  O3  1  0.84686700  0.72716000  0.77573100  1
  O  O4  1  0.74133100  0.89334400  0.03994400  1
  O  O5  1  0.25866900  0.10665600  0.96005600  1
  O  O6  1  0.24133100  0.10665600  0.46005600  1
  O  O7  1  0.75866900  0.89334400  0.53994400  1
  O  O8  1  0.74953900  0.38902600  0.44455900  1
  O  O9  1  0.25046100  0.61097400  0.55544100  1
  O  O10  1  0.24953900  0.61097400  0.05544100  1
  O  O11  1  0.75046100  0.38902600  0.94455900  1
  O  O12  1  0.48844700  0.82895400  0.03820200  1
  O  O13  1  0.51155300  0.17104600  0.96179800  1
  O  O14  1  0.98844700  0.17104600  0.46179800  1
  O  O15  1  0.01155300  0.82895400  0.53820200  1
  O  O16  1  0.77444900  0.89155400  0.25240700  1
  O  O17  1  0.22555100  0.10844600  0.74759300  1
  O  O18  1  0.27444900  0.10844600  0.24759300  1
  O  O19  1  0.72555100  0.89155400  0.75240700  1
  O  O20  1  0.69070300  0.54388300  0.18813900  1
  O  O21  1  0.30929700  0.45611700  0.81186100  1
  O  O22  1  0.19070300  0.45611700  0.31186100  1
  O  O23  1  0.80929700  0.54388300  0.68813900  1
  O  O24  1  0.97230700  0.32131900  0.02589200  1
  O  O25  1  0.02769300  0.67868100  0.97410800  1
  O  O26  1  0.47230700  0.67868100  0.47410800  1
  O  O27  1  0.52769300  0.32131900  0.52589200  1
  O  O28  1  0.89306500  0.36236200  0.30345400  1
  O  O29  1  0.10693500  0.63763800  0.69654600  1
  O  O30  1  0.39306500  0.63763800  0.19654600  1
  O  O31  1  0.60693500  0.36236200  0.80345400  1
  O  O32  1  0.61520400  0.95872300  0.25070300  1
  O  O33  1  0.38479600  0.04127700  0.74929700  1
  O  O34  1  0.11520400  0.04127700  0.24929700  1
  O  O35  1  0.88479600  0.95872300  0.75070300  1
  O  O36  1  0.80767500  0.56738300  0.47230300  1
  O  O37  1  0.19232500  0.43261700  0.52769700  1
  O  O38  1  0.30767500  0.43261700  0.02769700  1
  O  O39  1  0.69232500  0.56738300  0.97230300  1
  O  O40  1  0.46271600  0.58673100  0.07472800  1
  O  O41  1  0.53728400  0.41326900  0.92527200  1
  O  O42  1  0.96271600  0.41326900  0.42527200  1
  O  O43  1  0.03728400  0.58673100  0.57472800  1
  O  O44  1  0.96675000  0.75676300  0.29737100  1
  O  O45  1  0.03325000  0.24323700  0.70262900  1
  O  O46  1  0.46675000  0.24323700  0.20262900  1
  O  O47  1  0.53325000  0.75676300  0.79737100  1
  O  O48  1  0.87822000  0.67397000  0.04946700  1
  O  O49  1  0.12178000  0.32603000  0.95053300  1
  O  O50  1  0.37822000  0.32603000  0.45053300  1
  O  O51  1  0.62178000  0.67397000  0.54946700  1
  O  O52  1  0.89824000  0.95028100  0.05572900  1
  O  O53  1  0.10176000  0.04971900  0.94427100  1
  O  O54  1  0.39824000  0.04971900  0.44427100  1
  O  O55  1  0.60176000  0.95028100  0.55572900  1
  O  O56  1  0.51523000  0.35157100  0.34872800  1
  O  O57  1  0.48477000  0.64842900  0.65127200  1
  O  O58  1  0.01523000  0.64842900  0.15127200  1
  O  O59  1  0.98477000  0.35157100  0.84872800  1
  O  O60  1  0.76640300  0.33723300  0.12971600  1
  O  O61  1  0.23359700  0.66276700  0.87028400  1
  O  O62  1  0.26640300  0.66276700  0.37028400  1
  O  O63  1  0.73359700  0.33723300  0.62971600  1
  O  O64  1  0.18602100  0.87863100  0.12090900  1
  O  O65  1  0.81397900  0.12136900  0.87909100  1
  O  O66  1  0.68602100  0.12136900  0.37909100  1
  O  O67  1  0.31397900  0.87863100  0.62090900  1
loop_
_geom_bond_atom_site_label_1
_geom_bond_atom_site_label_2
_geom_bond_distance
_geom_bond_site_symmetry_2
K0 O18 2.858103 1_565
K0 O62 2.877427 1_555
K0 O13 2.927090 1_564
K0 O32 2.931492 1_555
K0 O30 2.935705 1_555
K0 O12 3.055641 1_555
K0 O26 3.078801 1_555
K0 O5 3.175677 1_564
K0 O64 3.195627 1_555
K0 O46 3.322241 1_565
K1 O19 2.858103 1_545
K1 O63 2.877427 1_555
K1 O12 2.927090 1_546
K1 O33 2.931492 1_555
K1 O31 2.935705 1_555
K1 O13 3.055641 1_555
K1 O27 3.078801 1_555
K1 O4 3.175677 1_546
K1 O65 3.195627 1_555
K1 O47 3.322241 1_545
K2 O16 2.858103 1_545
K2 O60 2.877427 1_555
K2 O15 2.927090 1_645
K2 O34 2.931492 1_655
K2 O28 2.935705 1_555
K2 O14 3.055641 1_555
K2 O24 3.078801 1_555
K2 O7 3.175677 1_545
K2 O66 3.195627 1_555
K2 O44 3.322241 1_545
K3 O17 2.858103 1_565
K3 O61 2.877427 1_555
K3 O14 2.927090 1_465
K3 O35 2.931492 1_455
K3 O29 2.935705 1_555
K3 O15 3.055641 1_555
K3 O25 3.078801 1_555
K3 O6 3.175677 1_565
K3 O67 3.195627 1_555
K3 O45 3.322241 1_565
N0 O12 1.236699 1_555
N0 O40 1.273545 1_555
N0 O30 1.292965 1_555
N1 O13 1.236699 1_555
N1 O41 1.273545 1_555
N1 O31 1.292965 1_555
N2 O14 1.236699 1_555
N2 O42 1.273545 1_555
N2 O28 1.292965 1_555
N3 O15 1.236699 1_555
N3 O43 1.273545 1_555
N3 O29 1.292965 1_555
N4 O60 1.232555 1_555
N4 O39 1.282040 1_554
N4 O11 1.290216 1_554
N5 O61 1.232555 1_555
N5 O38 1.282040 1_556
N5 O10 1.290216 1_556
N6 O62 1.232555 1_555
N6 O37 1.282040 1_555
N6 O9 1.290216 1_555
N7 O63 1.232555 1_555
N7 O36 1.282040 1_555
N7 O8 1.290216 1_555
N8 O66 1.224783 1_565
N8 O55 1.286856 1_555
N8 O7 1.292613 1_555
N9 O67 1.224783 1_545
N9 O54 1.286856 1_555
N9 O6 1.292613 1_555
N10 O64 1.224783 1_545
N10 O53 1.286856 1_554
N10 O5 1.292613 1_554
N11 O65 1.224783 1_565
N11 O52 1.286856 1_556
N11 O4 1.292613 1_556
N12 O32 1.229221 1_555
N12 O0 1.283857 1_555
N12 O16 1.294110 1_555
N13 O33 1.229221 1_555
N13 O1 1.283857 1_555
N13 O17 1.294110 1_555
N14 O34 1.229221 1_555
N14 O2 1.283857 1_555
N14 O18 1.294110 1_555
N15 O35 1.229221 1_555
N15 O3 1.283857 1_555
N15 O19 1.294110 1_555
N16 O25 1.227420 1_654
N16 O58 1.280810 1_655
N16 O48 1.294378 1_555
N17 O24 1.227420 1_456
N17 O59 1.280810 1_455
N17 O49 1.294378 1_555
N18 O27 1.227420 1_555
N18 O56 1.280810 1_555
N18 O50 1.294378 1_555
N19 O26 1.227420 1_555
N19 O57 1.280810 1_555
N19 O51 1.294378 1_555
O0 Th0 2.644806 1_555
O1 Th1 2.644806 1_555
O2 Th2 2.644806 1_555
O3 Th3 2.644806 1_555
O4 Th0 2.655068 1_555
O5 Th1 2.655068 1_555
O6 Th2 2.655068 1_555
O7 Th3 2.655068 1_555
O8 Th0 2.590469 1_555
O9 Th1 2.590469 1_555
O10 Th2 2.590469 1_555
O11 Th3 2.590469 1_555
O16 Th0 2.629243 1_555
O17 Th1 2.629243 1_555
O18 Th2 2.629243 1_555
O19 Th3 2.629243 1_555
O20 Th0 2.531953 1_555
O21 Th1 2.531953 1_555
O22 Th2 2.531953 1_555
O23 Th3 2.531953 1_555
O28 Th0 2.601026 1_555
O29 Th1 2.601026 1_555
O30 Th2 2.601026 1_555
O31 Th3 2.601026 1_555
O36 Th0 2.623405 1_555
O37 Th1 2.623405 1_555
O38 Th2 2.623405 1_555
O39 Th3 2.623405 1_555
O40 Th2 2.681634 1_555
O41 Th3 2.681634 1_555
O42 Th0 2.681634 1_555
O43 Th1 2.681634 1_555
O44 Th0 2.346363 1_555
O45 Th1 2.346363 1_555
O46 Th2 2.346363 1_555
O47 Th3 2.346363 1_555
O48 Th0 2.551408 1_555
O49 Th1 2.551408 1_555
O50 Th2 2.551408 1_555
O51 Th3 2.551408 1_555
O52 Th0 2.653488 1_555
O53 Th1 2.653488 1_555
O54 Th2 2.653488 1_555
O55 Th3 2.653488 1_555
O56 Th2 2.683005 1_555
O57 Th3 2.683005 1_555
O58 Th0 2.683005 1_455
O59 Th1 2.683005 1_655
