# generated using pymatgen
data_Rb2Sr(PO3)4
_symmetry_space_group_name_H-M   'P 1'
_cell_length_a   7.41675819
_cell_length_b   7.41675819
_cell_length_c   7.41675819
_cell_angle_alpha   118.63345387
_cell_angle_beta   118.63345387
_cell_angle_gamma   92.38368629
_symmetry_Int_Tables_number   1
_chemical_formula_structural   Rb2Sr(PO3)4
_chemical_formula_sum   'Rb2 Sr1 P4 O12'
_cell_volume   294.17113378
_cell_formula_units_Z   1
loop_
 _symmetry_equiv_pos_site_id
 _symmetry_equiv_pos_as_xyz
  1  'x, y, z'
loop_
 _atom_site_type_symbol
 _atom_site_label
 _atom_site_symmetry_multiplicity
 _atom_site_fract_x
 _atom_site_fract_y
 _atom_site_fract_z
 _atom_site_occupancy
  Rb  Rb0  1  0.42239353  0.92239353  0.50000000  1
  Rb  Rb1  1  0.07760647  0.57760647  0.50000000  1
  Sr  Sr0  1  0.00000000  -0.00000000  0.00000000  1
  P  P0  1  0.56208356  0.00373678  0.12840636  1
  P  P1  1  0.87533142  0.43367820  0.87159364  1
  P  P2  1  0.56632180  0.43791644  0.44165322  1
  P  P3  1  0.99626322  0.12466858  0.55834678  1
  O  O0  1  0.62466714  0.26487671  0.25886290  1
  O  O1  1  0.00601380  0.36580424  0.74113710  1
  O  O2  1  0.63419576  0.37533286  0.64020956  1
  O  O3  1  0.73512329  0.99398620  0.35979044  1
  O  O4  1  0.61031836  0.91710665  0.93699425  1
  O  O5  1  0.98011241  0.67332311  0.06300575  1
  O  O6  1  0.32667689  0.38968164  0.30678830  1
  O  O7  1  0.08289335  0.01988759  0.69321170  1
  O  O8  1  0.34282220  0.90597201  0.06245063  1
  O  O9  1  0.84352138  0.28037157  0.93754937  1
  O  O10  1  0.71962843  0.65717780  0.56314881  1
  O  O11  1  0.09402799  0.15647862  0.43685119  1
loop_
_geom_bond_atom_site_label_1
_geom_bond_atom_site_label_2
_geom_bond_distance
_geom_bond_site_symmetry_2
O0 P0 1.612950 1_555
O0 P2 1.616547 1_555
O0 Rb1 3.079217 1_655
O1 P1 1.612944 1_455
O1 P3 1.616547 1_455
O1 Rb1 3.079217 1_555
O2 P2 1.612950 1_555
O2 P1 1.616544 1_555
O2 Rb0 3.079217 1_545
O3 P3 1.612950 1_565
O3 P0 1.616541 1_565
O3 Rb0 3.079217 1_555
O4 P0 1.479153 1_566
O4 Sr0 2.689220 1_666
O4 Rb0 2.871522 1_555
O4 Rb1 3.396059 1_555
O5 P1 1.479142 1_554
O5 Sr0 2.689227 1_665
O5 Rb0 2.871522 1_655
O5 Rb1 3.396054 1_655
O6 P2 1.479140 1_555
O6 Sr0 2.689223 1_555
O6 Rb1 2.871528 1_555
O6 Rb0 3.396059 1_555
O7 P3 1.479147 1_455
O7 Sr0 2.689220 1_556
O7 Rb1 2.871522 1_545
O7 Rb0 3.396059 1_545
O8 P0 1.486325 1_565
O8 Sr0 2.548373 1_565
O8 Rb0 2.945184 1_555
O8 Rb1 3.033584 1_554
O9 P1 1.486334 1_555
O9 Sr0 2.548373 1_656
O9 Rb0 2.945184 1_545
O9 Rb1 3.033584 1_656
O10 P2 1.486330 1_555
O10 Sr0 2.548376 1_666
O10 Rb1 2.945181 1_655
O10 Rb0 3.033583 1_555
O11 P3 1.486321 1_455
O11 Sr0 2.548380 1_555
O11 Rb1 2.945187 1_555
O11 Rb0 3.033584 1_545
