# generated using pymatgen
data_VP2H13CN3O11
_symmetry_space_group_name_H-M   'P 1'
_cell_length_a   9.40459941
_cell_length_b   9.40459933
_cell_length_c   13.68930965
_cell_angle_alpha   86.00371959
_cell_angle_beta   86.00371938
_cell_angle_gamma   80.75489663
_symmetry_Int_Tables_number   1
_chemical_formula_structural   VP2H13CN3O11
_chemical_formula_sum   'V4 P8 H52 C4 N12 O44'
_cell_volume   1190.03224939
_cell_formula_units_Z   4
loop_
 _symmetry_equiv_pos_site_id
 _symmetry_equiv_pos_as_xyz
  1  'x, y, z'
loop_
 _atom_site_type_symbol
 _atom_site_label
 _atom_site_symmetry_multiplicity
 _atom_site_fract_x
 _atom_site_fract_y
 _atom_site_fract_z
 _atom_site_occupancy
  V  V0  1  0.26345700  0.44740100  0.99533000  1
  V  V1  1  0.44740100  0.26345700  0.49533000  1
  V  V2  1  0.55259900  0.73654300  0.50467000  1
  V  V3  1  0.73654300  0.55259900  0.00467000  1
  P  P0  1  0.00656800  0.65798600  0.87466200  1
  P  P1  1  0.33822400  0.53364500  0.62610000  1
  P  P2  1  0.34201400  0.99343200  0.62533800  1
  P  P3  1  0.53364500  0.33822400  0.12610000  1
  P  P4  1  0.46635500  0.66177600  0.87390000  1
  P  P5  1  0.65798600  0.00656800  0.37466200  1
  P  P6  1  0.66177600  0.46635500  0.37390000  1
  P  P7  1  0.99343200  0.34201400  0.12533800  1
  H  H0  1  0.02571600  0.29176000  0.77051200  1
  H  H1  1  0.06419000  0.31568900  0.50962700  1
  H  H2  1  0.98828300  0.95891700  0.11519200  1
  H  H3  1  0.04143900  0.83621200  0.04258600  1
  H  H4  1  0.07628600  0.64886000  0.71490600  1
  H  H5  1  0.14612300  0.26861300  0.66726400  1
  H  H6  1  0.04108300  0.01171700  0.38480800  1
  H  H7  1  0.11843400  0.62867500  0.50615000  1
  H  H8  1  0.20367800  0.17733100  0.39965300  1
  H  H9  1  0.17733100  0.20367800  0.89965300  1
  H  H10  1  0.21228700  0.32418100  0.33943700  1
  H  H11  1  0.26861300  0.14612300  0.16726400  1
  H  H12  1  0.31568900  0.06419000  0.00962700  1
  H  H13  1  0.29176000  0.02571600  0.27051200  1
  H  H14  1  0.16378800  0.95856100  0.45741400  1
  H  H15  1  0.21296100  0.59771900  0.24978700  1
  H  H16  1  0.18929600  0.78546500  0.88158700  1
  H  H17  1  0.21453500  0.81070400  0.61841300  1
  H  H18  1  0.32418100  0.21228700  0.83943700  1
  H  H19  1  0.27901400  0.58142400  0.36752100  1
  H  H20  1  0.36260400  0.46865100  0.78438100  1
  H  H21  1  0.37132500  0.88156600  0.99385000  1
  H  H22  1  0.46865100  0.36260400  0.28438100  1
  H  H23  1  0.40228100  0.78703900  0.25021300  1
  H  H24  1  0.41857600  0.72098600  0.13247900  1
  H  H25  1  0.35114000  0.92371400  0.78509400  1
  H  H26  1  0.64886000  0.07628600  0.21490600  1
  H  H27  1  0.58142400  0.27901400  0.86752100  1
  H  H28  1  0.59771900  0.21296100  0.74978700  1
  H  H29  1  0.53134900  0.63739600  0.71561900  1
  H  H30  1  0.62867500  0.11843400  0.00615000  1
  H  H31  1  0.63739600  0.53134900  0.21561900  1
  H  H32  1  0.72098600  0.41857600  0.63247900  1
  H  H33  1  0.67581900  0.78771300  0.16056300  1
  H  H34  1  0.78546500  0.18929600  0.38158700  1
  H  H35  1  0.81070400  0.21453500  0.11841300  1
  H  H36  1  0.78703900  0.40228100  0.75021300  1
  H  H37  1  0.83621200  0.04143900  0.54258600  1
  H  H38  1  0.70824000  0.97428400  0.72948800  1
  H  H39  1  0.68431100  0.93581000  0.99037300  1
  H  H40  1  0.73138700  0.85387700  0.83273600  1
  H  H41  1  0.78771300  0.67581900  0.66056300  1
  H  H42  1  0.82266900  0.79632200  0.10034700  1
  H  H43  1  0.79632200  0.82266900  0.60034700  1
  H  H44  1  0.88156600  0.37132500  0.49385000  1
  H  H45  1  0.95891700  0.98828300  0.61519200  1
  H  H46  1  0.85387700  0.73138700  0.33273600  1
  H  H47  1  0.92371400  0.35114000  0.28509400  1
  H  H48  1  0.95856100  0.16378800  0.95741400  1
  H  H49  1  0.01171700  0.04108300  0.88480800  1
  H  H50  1  0.93581000  0.68431100  0.49037300  1
  H  H51  1  0.97428400  0.70824000  0.22948800  1
  C  C0  1  0.06235300  0.65389600  0.36217000  1
  C  C1  1  0.34610400  0.93764700  0.13783000  1
  C  C2  1  0.65389600  0.06235300  0.86217000  1
  C  C3  1  0.93764700  0.34610400  0.63783000  1
  N  N0  1  0.04610400  0.30706800  0.69677000  1
  N  N1  1  0.03843400  0.66245600  0.45931300  1
  N  N2  1  0.30706800  0.04610400  0.19677000  1
  N  N3  1  0.19467600  0.60519400  0.32357500  1
  N  N4  1  0.33754400  0.96156600  0.04068700  1
  N  N5  1  0.39480600  0.80532400  0.17642500  1
  N  N6  1  0.60519400  0.19467600  0.82357500  1
  N  N7  1  0.66245600  0.03843400  0.95931300  1
  N  N8  1  0.80532400  0.39480600  0.67642500  1
  N  N9  1  0.69293200  0.95389600  0.80323000  1
  N  N10  1  0.96156600  0.33754400  0.54068700  1
  N  N11  1  0.95389600  0.69293200  0.30323000  1
  O  O0  1  0.01067800  0.14342800  0.89390900  1
  O  O1  1  0.01535900  0.33693200  0.23902900  1
  O  O2  1  0.14342800  0.01067800  0.39390900  1
  O  O3  1  0.14518900  0.31341500  0.07633900  1
  O  O4  1  0.10048100  0.51770400  0.90643200  1
  O  O5  1  0.07852900  0.79417700  0.89726500  1
  O  O6  1  0.23231000  0.27418500  0.40322000  1
  O  O7  1  0.24892300  0.57751700  0.07067600  1
  O  O8  1  0.20522200  0.65230700  0.63869400  1
  O  O9  1  0.31341500  0.14518900  0.57633900  1
  O  O10  1  0.27418500  0.23231000  0.90322000  1
  O  O11  1  0.33693200  0.01535900  0.73902900  1
  O  O12  1  0.20582300  0.92147100  0.60273500  1
  O  O13  1  0.32029400  0.44481300  0.53965000  1
  O  O14  1  0.35075800  0.42516000  0.71975500  1
  O  O15  1  0.42516000  0.35075800  0.21975500  1
  O  O16  1  0.44481300  0.32029400  0.03965000  1
  O  O17  1  0.34769300  0.79477800  0.86130600  1
  O  O18  1  0.39578900  0.52187000  0.88407600  1
  O  O19  1  0.51770400  0.10048100  0.40643200  1
  O  O20  1  0.42248300  0.75107700  0.42932400  1
  O  O21  1  0.52187000  0.39578900  0.38407600  1
  O  O22  1  0.47813000  0.60421100  0.61592400  1
  O  O23  1  0.57751700  0.24892300  0.57067600  1
  O  O24  1  0.48229600  0.89951900  0.59356800  1
  O  O25  1  0.60421100  0.47813000  0.11592400  1
  O  O26  1  0.65230700  0.20522200  0.13869400  1
  O  O27  1  0.55518700  0.67970600  0.96035000  1
  O  O28  1  0.57484000  0.64924200  0.78024500  1
  O  O29  1  0.64924200  0.57484000  0.28024500  1
  O  O30  1  0.67970600  0.55518700  0.46035000  1
  O  O31  1  0.79417700  0.07852900  0.39726500  1
  O  O32  1  0.66306800  0.98464100  0.26097100  1
  O  O33  1  0.72581500  0.76769000  0.09678000  1
  O  O34  1  0.68658500  0.85481100  0.42366100  1
  O  O35  1  0.79477800  0.34769300  0.36130600  1
  O  O36  1  0.75107700  0.42248300  0.92932400  1
  O  O37  1  0.76769000  0.72581500  0.59678000  1
  O  O38  1  0.92147100  0.20582300  0.10273500  1
  O  O39  1  0.89951900  0.48229600  0.09356800  1
  O  O40  1  0.85481100  0.68658500  0.92366100  1
  O  O41  1  0.85657200  0.98932200  0.60609100  1
  O  O42  1  0.98464100  0.66306800  0.76097100  1
  O  O43  1  0.98932200  0.85657200  0.10609100  1
loop_
_geom_bond_atom_site_label_1
_geom_bond_atom_site_label_2
_geom_bond_distance
_geom_bond_site_symmetry_2
H0 N0 1.018906 1_555
H1 N10 1.022627 1_455
H2 O43 0.977534 1_555
H3 O43 0.983009 1_455
H4 O42 1.028269 1_455
H4 O8 1.546437 1_555
H5 N0 1.018253 1_555
H6 O2 0.977534 1_555
H7 N1 1.019866 1_555
H8 O6 0.995703 1_555
H9 O10 0.995703 1_555
H10 O6 0.977838 1_555
H11 N2 1.018253 1_555
H12 N4 1.022627 1_545
H13 N2 1.018906 1_555
H14 O2 0.983009 1_565
H15 N3 1.018151 1_555
H16 O5 1.040105 1_555
H16 O17 1.511531 1_555
H17 O12 1.040105 1_555
H17 O8 1.511531 1_555
H18 O10 0.977838 1_555
H19 N3 1.015769 1_555
H20 O14 1.020386 1_555
H20 O18 1.554101 1_555
H21 N4 1.019866 1_556
H22 O15 1.020386 1_555
H22 O21 1.554101 1_555
H23 N5 1.018151 1_555
H24 N5 1.015769 1_555
H25 O11 1.028269 1_565
H25 O17 1.546437 1_555
H26 O32 1.028269 1_545
H26 O26 1.546437 1_555
H27 N6 1.015769 1_555
H28 N6 1.018151 1_555
H29 O28 1.020386 1_555
H29 O22 1.554101 1_555
H30 N7 1.019866 1_554
H31 O29 1.020386 1_555
H31 O25 1.554101 1_555
H32 N8 1.015769 1_555
H33 O33 0.977838 1_555
H34 O31 1.040105 1_555
H34 O35 1.511531 1_555
H35 O38 1.040105 1_555
H35 O26 1.511531 1_555
H36 N8 1.018151 1_555
H37 O41 0.983009 1_545
H38 N9 1.018906 1_555
H39 N7 1.022627 1_565
H40 N9 1.018253 1_555
H41 O37 0.977838 1_555
H42 O33 0.995703 1_555
H43 O37 0.995703 1_555
H44 N10 1.019866 1_555
H45 O41 0.977534 1_555
H46 N11 1.018253 1_555
H47 O1 1.028269 1_655
H47 O35 1.546437 1_555
H48 O0 0.983009 1_655
H49 O0 0.977534 1_555
H50 N1 1.022627 1_655
H51 N11 1.018906 1_555
C0 N11 1.333894 1_455
C0 N1 1.338997 1_555
C0 N3 1.340340 1_555
C1 N2 1.333894 1_565
C1 N4 1.338997 1_555
C1 N5 1.340340 1_555
C2 N9 1.333894 1_545
C2 N7 1.338997 1_555
C2 N6 1.340340 1_555
C3 N0 1.333894 1_655
C3 N10 1.338997 1_555
C3 N8 1.340340 1_555
O1 P7 1.580581 1_455
O3 P7 1.525638 1_455
O3 V0 2.034299 1_554
O4 P0 1.519512 1_555
O4 V0 2.022271 1_555
O5 P0 1.599126 1_555
O6 V1 2.442174 1_555
O7 V0 1.637829 1_554
O8 P1 1.545291 1_555
O9 P2 1.525638 1_545
O9 V1 2.034299 1_555
O10 V0 2.442174 1_555
O11 P2 1.580581 1_545
O12 P2 1.599126 1_555
O13 P1 1.528985 1_555
O13 V1 2.023387 1_555
O14 P1 1.580706 1_555
O15 P3 1.580706 1_555
O16 P3 1.528985 1_555
O16 V0 2.023387 1_554
O17 P4 1.545291 1_555
O18 P4 1.559870 1_555
O18 V0 2.055736 1_555
O19 P5 1.519512 1_555
O19 V1 2.022271 1_555
O20 V2 1.637829 1_555
O21 P6 1.559870 1_555
O21 V1 2.055735 1_555
O22 P1 1.559870 1_555
O22 V2 2.055735 1_555
O23 V1 1.637829 1_555
O24 P2 1.519512 1_555
O24 V2 2.022271 1_555
O25 P3 1.559870 1_555
O25 V3 2.055736 1_555
O26 P3 1.545291 1_555
O27 P4 1.528985 1_555
O27 V3 2.023387 1_556
O28 P4 1.580706 1_555
O29 P6 1.580706 1_555
O30 P6 1.528985 1_555
O30 V2 2.023387 1_555
O31 P5 1.599126 1_555
O32 P5 1.580581 1_565
O33 V3 2.442174 1_555
O34 P5 1.525638 1_565
O34 V2 2.034299 1_555
O35 P6 1.545291 1_555
O36 V3 1.637829 1_556
O37 V2 2.442174 1_555
O38 P7 1.599126 1_555
O39 P7 1.519512 1_555
O39 V3 2.022271 1_555
O40 P0 1.525638 1_655
O40 V3 2.034299 1_556
O42 P0 1.580581 1_655
