# generated using pymatgen
data_Fe4Co(BiO3)5
_symmetry_space_group_name_H-M   'P 1'
_cell_length_a   5.60818200
_cell_length_b   5.66845141
_cell_length_c   23.18592534
_cell_angle_alpha   96.81063274
_cell_angle_beta   89.75411786
_cell_angle_gamma   119.56141871
_symmetry_Int_Tables_number   1
_chemical_formula_structural   Fe4Co(BiO3)5
_chemical_formula_sum   'Fe8 Co2 Bi10 O30'
_cell_volume   635.34740472
_cell_formula_units_Z   2
loop_
 _symmetry_equiv_pos_site_id
 _symmetry_equiv_pos_as_xyz
  1  'x, y, z'
loop_
 _atom_site_type_symbol
 _atom_site_label
 _atom_site_symmetry_multiplicity
 _atom_site_fract_x
 _atom_site_fract_y
 _atom_site_fract_z
 _atom_site_occupancy
  Fe  Fe0  1  0.81438300  0.08303800  0.54317300  1
  Fe  Fe1  1  0.21000100  0.67502300  0.74421900  1
  Fe  Fe2  1  0.61391300  0.27987600  0.94541700  1
  Fe  Fe3  1  0.11310200  0.78081000  0.44211000  1
  Fe  Fe4  1  0.51232800  0.38031200  0.64340700  1
  Fe  Fe5  1  0.91117100  0.97770600  0.84507900  1
  Fe  Fe6  1  0.31014400  0.57571400  0.04593100  1
  Fe  Fe7  1  0.70951900  0.17650700  0.24566800  1
  Co  Co0  1  0.00645900  0.86614100  0.14527500  1
  Co  Co1  1  0.39953000  0.45900600  0.34201100  1
  Bi  Bi0  1  0.09228700  0.88905000  0.29936400  1
  Bi  Bi1  1  0.50093100  0.50361600  0.49615200  1
  Bi  Bi2  1  0.89658400  0.09528500  0.69915900  1
  Bi  Bi3  1  0.30032900  0.69911900  0.90089200  1
  Bi  Bi4  1  0.69563600  0.29353600  0.10151000  1
  Bi  Bi5  1  0.00042800  0.99579000  0.00230600  1
  Bi  Bi6  1  0.39933000  0.59853000  0.20131700  1
  Bi  Bi7  1  0.79845900  0.20255500  0.39694200  1
  Bi  Bi8  1  0.20108500  0.79928100  0.59872800  1
  Bi  Bi9  1  0.59784300  0.39666200  0.79964700  1
  O  O0  1  0.61047000  0.78493100  0.28987300  1
  O  O1  1  0.01317900  0.39666400  0.48513300  1
  O  O2  1  0.41464800  0.98683700  0.68657600  1
  O  O3  1  0.81667400  0.59166900  0.88847700  1
  O  O4  1  0.21368500  0.19199200  0.08917400  1
  O  O5  1  0.31580300  0.95466200  0.20883400  1
  O  O6  1  0.69960500  0.55360000  0.40440000  1
  O  O7  1  0.10414300  0.15232500  0.60751600  1
  O  O8  1  0.50000100  0.74783200  0.80899500  1
  O  O9  1  0.90472200  0.35059800  0.00977100  1
  O  O10  1  0.19570300  0.60778500  0.37507700  1
  O  O11  1  0.59102300  0.21216300  0.57634500  1
  O  O12  1  0.98940600  0.80580300  0.77769500  1
  O  O13  1  0.39392500  0.41073600  0.97955600  1
  O  O14  1  0.79902600  0.01033700  0.18008400  1
  O  O15  1  0.09866700  0.31573900  0.27944100  1
  O  O16  1  0.49438800  0.91146000  0.47599500  1
  O  O17  1  0.89732000  0.50750100  0.67712400  1
  O  O18  1  0.29562000  0.10971900  0.87888900  1
  O  O19  1  0.68963900  0.70787000  0.07948000  1
  O  O20  1  0.55337000  0.26205900  0.30768400  1
  O  O21  1  0.95486000  0.85357800  0.50578000  1
  O  O22  1  0.35593900  0.44712500  0.70866200  1
  O  O23  1  0.75491500  0.05033300  0.90962200  1
  O  O24  1  0.15315700  0.65758600  0.10869300  1
  O  O25  1  0.17341700  0.10071500  0.38558900  1
  O  O26  1  0.56347300  0.69477700  0.58671800  1
  O  O27  1  0.96045000  0.28737200  0.78715500  1
  O  O28  1  0.36387400  0.89139300  0.98935100  1
  O  O29  1  0.77183700  0.49488200  0.18920100  1
loop_
_geom_bond_atom_site_label_1
_geom_bond_atom_site_label_2
_geom_bond_distance
_geom_bond_site_symmetry_2
Fe0 O11 1.859916 1_555
Fe0 O21 1.949841 1_545
Fe0 O7 2.067046 1_655
Fe0 O16 2.129564 1_545
Fe0 O1 2.193911 1_655
Fe0 O26 2.302646 1_545
Fe1 O12 1.855458 1_455
Fe1 O22 1.950181 1_555
Fe1 O8 2.069479 1_555
Fe1 O17 2.103999 1_455
Fe1 O2 2.184727 1_555
Fe1 O27 2.291427 1_455
Fe2 O13 1.858553 1_555
Fe2 O23 1.939224 1_555
Fe2 O9 2.069023 1_556
Fe2 O18 2.113755 1_555
Fe2 O3 2.171896 1_555
Fe2 O28 2.307835 1_545
Fe3 O21 1.828262 1_455
Fe3 O10 1.916434 1_555
Fe3 O16 2.012956 1_555
Fe3 O6 2.145735 1_455
Fe3 O25 2.252707 1_565
Fe3 O1 2.314520 1_555
Fe4 O22 1.839098 1_555
Fe4 O11 1.891727 1_555
Fe4 O17 2.034092 1_555
Fe4 O7 2.108356 1_555
Fe4 O26 2.243938 1_555
Fe4 O2 2.365536 1_545
Fe5 O23 1.837248 1_565
Fe5 O12 1.907320 1_555
Fe5 O18 2.026450 1_665
Fe5 O8 2.123287 1_555
Fe5 O27 2.244668 1_565
Fe5 O3 2.335613 1_555
Fe6 O24 1.827589 1_555
Fe6 O13 1.884074 1_554
Fe6 O19 1.999668 1_555
Fe6 O9 2.097782 1_455
Fe6 O28 2.243903 1_554
Fe6 O4 2.319607 1_555
Fe7 O20 1.820010 1_555
Fe7 O14 1.889915 1_555
Fe7 O15 2.041456 1_655
Fe7 O5 2.051303 1_545
Fe7 O29 2.242163 1_555
Fe7 O0 2.367257 1_545
Co0 O14 1.856473 1_465
Co0 O24 1.873417 1_555
Co0 O19 2.101153 1_455
Co0 O5 2.102580 1_555
Co0 O4 2.212021 1_565
Co0 O29 2.227544 1_455
Co1 O20 1.832452 1_555
Co1 O10 1.842833 1_555
Co1 O15 2.000165 1_555
Co1 O6 2.039274 1_555
Co1 O0 2.152894 1_555
Co1 O25 2.165230 1_555
Bi0 O25 2.131582 1_565
Bi0 O20 2.388959 1_565
Bi0 O5 2.412071 1_555
Bi0 O0 2.469597 1_455
Bi0 O15 2.498812 1_565
Bi0 O10 2.746802 1_555
Bi1 O26 2.190484 1_555
Bi1 O21 2.320052 1_555
Bi1 O6 2.378756 1_555
Bi1 O16 2.429919 1_555
Bi1 O1 2.499639 1_555
Bi2 O27 2.138017 1_555
Bi2 O22 2.343874 1_655
Bi2 O7 2.396821 1_655
Bi2 O17 2.448359 1_555
Bi2 O2 2.468376 1_545
Bi2 O12 2.799828 1_545
Bi3 O28 2.148101 1_555
Bi3 O23 2.324802 1_565
Bi3 O8 2.384138 1_555
Bi3 O18 2.453659 1_565
Bi3 O3 2.479129 1_455
Bi3 O13 2.799345 1_555
Bi4 O29 2.143583 1_555
Bi4 O24 2.359539 1_655
Bi4 O9 2.402391 1_555
Bi4 O19 2.478048 1_555
Bi4 O4 2.480145 1_555
Bi4 O14 2.802377 1_555
Bi5 O4 2.213793 1_565
Bi5 O9 2.311883 1_465
Bi5 O28 2.395352 1_554
Bi5 O13 2.417273 1_564
Bi5 O19 2.600453 1_455
Bi5 O23 2.685602 1_464
Bi6 O0 2.237451 1_555
Bi6 O5 2.274632 1_555
Bi6 O14 2.411658 1_565
Bi6 O29 2.440345 1_555
Bi6 O15 2.586366 1_555
Bi6 O24 2.698540 1_555
Bi7 O1 2.240992 1_655
Bi7 O6 2.302816 1_555
Bi7 O10 2.390324 1_655
Bi7 O25 2.445697 1_655
Bi7 O16 2.627611 1_545
Bi7 O20 2.633137 1_555
Bi8 O2 2.228095 1_555
Bi8 O7 2.306040 1_565
Bi8 O26 2.388049 1_555
Bi8 O11 2.399446 1_565
Bi8 O17 2.616856 1_455
Bi8 O21 2.692239 1_455
Bi9 O3 2.261229 1_555
Bi9 O8 2.298895 1_555
Bi9 O12 2.388545 1_555
Bi9 O27 2.408012 1_555
Bi9 O18 2.618369 1_555
Bi9 O22 2.631194 1_555
