# generated using pymatgen
data_KAlBP2O9
_symmetry_space_group_name_H-M   'P 1'
_cell_length_a   8.28986400
_cell_length_b   9.38822884
_cell_length_c   9.42808035
_cell_angle_alpha   103.03806347
_cell_angle_beta   90.00000000
_cell_angle_gamma   90.00000000
_symmetry_Int_Tables_number   1
_chemical_formula_structural   KAlBP2O9
_chemical_formula_sum   'K4 Al4 B4 P8 O36'
_cell_volume   714.84448426
_cell_formula_units_Z   4
loop_
 _symmetry_equiv_pos_site_id
 _symmetry_equiv_pos_as_xyz
  1  'x, y, z'
loop_
 _atom_site_type_symbol
 _atom_site_label
 _atom_site_symmetry_multiplicity
 _atom_site_fract_x
 _atom_site_fract_y
 _atom_site_fract_z
 _atom_site_occupancy
  K  K0  1  0.09627700  0.80025200  0.93015500  1
  K  K1  1  0.59627700  0.19974800  0.56984500  1
  K  K2  1  0.90372300  0.19974800  0.06984500  1
  K  K3  1  0.40372300  0.80025200  0.43015500  1
  Al  Al0  1  0.65207000  0.79322500  0.06534400  1
  Al  Al1  1  0.15207000  0.20677500  0.43465600  1
  Al  Al2  1  0.34793000  0.20677500  0.93465600  1
  Al  Al3  1  0.84793000  0.79322500  0.56534400  1
  B  B0  1  0.05740900  0.66562300  0.30728900  1
  B  B1  1  0.55740900  0.33437700  0.19271100  1
  B  B2  1  0.94259100  0.33437700  0.69271100  1
  B  B3  1  0.44259100  0.66562300  0.80728900  1
  P  P0  1  0.93385600  0.93089100  0.29532200  1
  P  P1  1  0.43385600  0.06910900  0.20467800  1
  P  P2  1  0.06614400  0.06910900  0.70467800  1
  P  P3  1  0.56614400  0.93089100  0.79532200  1
  P  P4  1  0.74098500  0.58181800  0.27606700  1
  P  P5  1  0.24098500  0.41818200  0.22393300  1
  P  P6  1  0.25901500  0.41818200  0.72393300  1
  P  P7  1  0.75901500  0.58181800  0.77606700  1
  O  O0  1  0.51138500  0.91968900  0.19378700  1
  O  O1  1  0.01138500  0.08031100  0.30621300  1
  O  O2  1  0.48861500  0.08031100  0.80621300  1
  O  O3  1  0.98861500  0.91968900  0.69378700  1
  O  O4  1  0.83535900  0.91955300  0.42963600  1
  O  O5  1  0.33535900  0.08044700  0.07036400  1
  O  O6  1  0.16464100  0.08044700  0.57036400  1
  O  O7  1  0.66464100  0.91955300  0.92963600  1
  O  O8  1  0.83993000  0.89104200  0.15161900  1
  O  O9  1  0.33993000  0.10895800  0.34838100  1
  O  O10  1  0.16007000  0.10895800  0.84838100  1
  O  O11  1  0.66007000  0.89104200  0.65161900  1
  O  O12  1  0.08087100  0.81429800  0.27644900  1
  O  O13  1  0.58087100  0.18570200  0.22355100  1
  O  O14  1  0.91912900  0.18570200  0.72355100  1
  O  O15  1  0.41912900  0.81429800  0.77644900  1
  O  O16  1  0.04150800  0.70529300  0.46418500  1
  O  O17  1  0.54150800  0.29470700  0.03581500  1
  O  O18  1  0.95849200  0.29470700  0.53581500  1
  O  O19  1  0.45849200  0.70529300  0.96418500  1
  O  O20  1  0.63196300  0.66046300  0.18773200  1
  O  O21  1  0.13196300  0.33953700  0.31226800  1
  O  O22  1  0.36803700  0.33953700  0.81226800  1
  O  O23  1  0.86803700  0.66046300  0.68773200  1
  O  O24  1  0.72075700  0.64848200  0.43813600  1
  O  O25  1  0.22075700  0.35151800  0.06186400  1
  O  O26  1  0.27924300  0.35151800  0.56186400  1
  O  O27  1  0.77924300  0.64848200  0.93813600  1
  O  O28  1  0.92230500  0.58480200  0.22836600  1
  O  O29  1  0.42230500  0.41519800  0.27163400  1
  O  O30  1  0.07769500  0.41519800  0.77163400  1
  O  O31  1  0.57769500  0.58480200  0.72836600  1
  O  O32  1  0.70724600  0.41368900  0.24070000  1
  O  O33  1  0.20724600  0.58631100  0.25930000  1
  O  O34  1  0.29275400  0.58631100  0.75930000  1
  O  O35  1  0.79275400  0.41368900  0.74070000  1
loop_
_geom_bond_atom_site_label_1
_geom_bond_atom_site_label_2
_geom_bond_distance
_geom_bond_site_symmetry_2
K0 O34 2.796793 1_555
K0 O3 2.854389 1_455
K0 O8 2.966336 1_456
K0 O27 2.998585 1_455
K0 O23 3.028662 1_455
K0 O15 3.060517 1_555
K0 O19 3.169076 1_555
K0 O10 3.206526 1_565
K0 O12 3.240206 1_556
K0 O5 3.320594 1_566
K1 O35 2.796793 1_555
K1 O2 2.854389 1_555
K1 O9 2.966336 1_555
K1 O26 2.998585 1_555
K1 O22 3.028662 1_555
K1 O14 3.060517 1_555
K1 O18 3.169076 1_555
K1 O11 3.206526 1_545
K1 O13 3.240206 1_555
K1 O4 3.320594 1_545
K2 O32 2.796793 1_555
K2 O1 2.854389 1_655
K2 O10 2.966336 1_654
K2 O25 2.998585 1_655
K2 O21 3.028662 1_655
K2 O13 3.060517 1_555
K2 O17 3.169076 1_555
K2 O8 3.206526 1_545
K2 O14 3.240206 1_554
K2 O7 3.320594 1_544
K3 O33 2.796793 1_555
K3 O0 2.854389 1_555
K3 O11 2.966336 1_555
K3 O24 2.998585 1_555
K3 O20 3.028662 1_555
K3 O12 3.060517 1_555
K3 O16 3.169076 1_555
K3 O9 3.206526 1_565
K3 O15 3.240206 1_555
K3 O6 3.320594 1_565
Al0 O20 1.887235 1_555
Al0 O0 1.894075 1_555
Al0 O8 1.895578 1_555
Al0 O27 1.913385 1_554
Al0 O7 1.933687 1_554
Al0 O19 1.952188 1_554
Al1 O21 1.887235 1_555
Al1 O1 1.894075 1_555
Al1 O9 1.895578 1_555
Al1 O26 1.913385 1_555
Al1 O6 1.933687 1_555
Al1 O18 1.952188 1_455
Al2 O22 1.887235 1_555
Al2 O2 1.894075 1_555
Al2 O10 1.895578 1_555
Al2 O25 1.913385 1_556
Al2 O5 1.933687 1_556
Al2 O17 1.952188 1_556
Al3 O23 1.887235 1_555
Al3 O3 1.894075 1_555
Al3 O11 1.895578 1_555
Al3 O24 1.913385 1_555
Al3 O4 1.933687 1_555
Al3 O16 1.952188 1_655
B0 O16 1.447628 1_555
B0 O28 1.459124 1_455
B0 O33 1.466292 1_555
B0 O12 1.501243 1_555
B1 O17 1.447628 1_555
B1 O29 1.459124 1_555
B1 O32 1.466292 1_555
B1 O13 1.501243 1_555
B2 O18 1.447628 1_555
B2 O30 1.459124 1_655
B2 O35 1.466292 1_555
B2 O14 1.501243 1_555
B3 O19 1.447628 1_555
B3 O31 1.459124 1_555
B3 O34 1.466292 1_555
B3 O15 1.501243 1_555
O0 P1 1.525267 1_565
O1 P0 1.525267 1_445
O2 P3 1.525267 1_545
O3 P2 1.525267 1_665
O4 P0 1.530503 1_555
O5 P1 1.530503 1_555
O6 P2 1.530503 1_555
O7 P3 1.530503 1_555
O8 P0 1.533993 1_555
O9 P1 1.533993 1_555
O10 P2 1.533993 1_555
O11 P3 1.533993 1_555
O12 P0 1.620879 1_455
O13 P1 1.620879 1_555
O14 P2 1.620879 1_655
O15 P3 1.620879 1_555
O20 P4 1.527418 1_555
O21 P5 1.527418 1_555
O22 P6 1.527418 1_555
O23 P7 1.527418 1_555
O24 P4 1.524177 1_555
O25 P5 1.524177 1_555
O26 P6 1.524177 1_555
O27 P7 1.524177 1_555
O28 P4 1.571015 1_555
O29 P5 1.571015 1_555
O30 P6 1.571015 1_555
O31 P7 1.571015 1_555
O32 P4 1.563135 1_555
O33 P5 1.563135 1_555
O34 P6 1.563135 1_555
O35 P7 1.563135 1_555
