# generated using pymatgen
data_Dy(Fe5Re)2
_symmetry_space_group_name_H-M   'P 1'
_cell_length_a   4.69802100
_cell_length_b   6.49407083
_cell_length_c   6.49407083
_cell_angle_alpha   96.62242706
_cell_angle_beta   111.20563478
_cell_angle_gamma   68.79436522
_symmetry_Int_Tables_number   1
_chemical_formula_structural   Dy(Fe5Re)2
_chemical_formula_sum   'Dy1 Fe10 Re2'
_cell_volume   172.17901479
_cell_formula_units_Z   1
loop_
 _symmetry_equiv_pos_site_id
 _symmetry_equiv_pos_as_xyz
  1  'x, y, z'
loop_
 _atom_site_type_symbol
 _atom_site_label
 _atom_site_symmetry_multiplicity
 _atom_site_fract_x
 _atom_site_fract_y
 _atom_site_fract_z
 _atom_site_occupancy
  Dy  Dy0  1  0.00000000  0.00000000  0.00000000  1
  Fe  Fe0  1  0.72168200  0.77831800  0.22168200  1
  Fe  Fe1  1  0.27831800  0.22168200  0.77831800  1
  Fe  Fe2  1  0.50000000  0.77209300  0.77209300  1
  Fe  Fe3  1  0.50000000  0.22790700  0.22790700  1
  Fe  Fe4  1  0.50000000  0.00000000  0.50000000  1
  Fe  Fe5  1  0.00000000  0.00000000  0.50000000  1
  Fe  Fe6  1  0.50000000  0.50000000  0.00000000  1
  Fe  Fe7  1  0.00000000  0.50000000  0.00000000  1
  Fe  Fe8  1  0.64072000  0.35928000  0.64072000  1
  Fe  Fe9  1  0.35928000  0.64072000  0.35928000  1
  Re  Re0  1  0.00000000  0.35780500  0.35780500  1
  Re  Re1  1  0.00000000  0.64219500  0.64219500  1
loop_
_geom_bond_atom_site_label_1
_geom_bond_atom_site_label_2
_geom_bond_distance
_geom_bond_site_symmetry_2
Dy0 Fe1 3.009356 1_454
Dy0 Fe0 3.009356 1_545
Dy0 Fe0 3.009357 1_445
Dy0 Fe1 3.009357 1_554
Dy0 Fe9 3.048629 1_545
Dy0 Fe8 3.048629 1_454
Dy0 Fe3 3.064908 1_555
Dy0 Fe2 3.064908 1_544
Dy0 Fe2 3.064908 1_444
Dy0 Fe3 3.064908 1_455
Dy0 Re0 3.090794 1_555
Dy0 Re1 3.090794 1_544
Dy0 Fe6 3.247035 1_545
Dy0 Fe4 3.247035 1_555
Dy0 Fe6 3.247035 1_455
Dy0 Fe4 3.247035 1_454
Dy0 Fe7 3.247035 1_555
Dy0 Fe5 3.247035 1_554
Dy0 Fe5 3.247035 1_555
Dy0 Fe7 3.247035 1_545
Fe0 Fe7 2.469993 1_655
Fe0 Fe5 2.469993 1_665
Fe0 Fe6 2.469993 1_555
Fe0 Fe4 2.469993 1_565
Fe0 Fe9 2.623180 1_655
Fe0 Fe9 2.623180 1_555
Fe0 Re0 2.661967 1_655
Fe0 Re1 2.661967 1_655
Fe0 Fe2 2.722901 1_554
Fe0 Fe3 2.722901 1_565
Fe1 Fe5 2.469993 1_555
Fe1 Fe7 2.469993 1_556
Fe1 Fe4 2.469993 1_555
Fe1 Fe6 2.469993 1_556
Fe1 Fe8 2.623180 1_455
Fe1 Fe8 2.623180 1_555
Fe1 Re1 2.661967 1_555
Fe1 Re0 2.661967 1_555
Fe1 Fe2 2.722901 1_545
Fe1 Fe3 2.722901 1_556
Fe2 Fe7 2.432282 1_656
Fe2 Fe5 2.432282 1_565
Fe2 Fe4 2.432282 1_565
Fe2 Fe6 2.432282 1_556
Fe2 Re1 2.603253 1_655
Fe2 Re1 2.603253 1_555
Fe2 Fe8 2.636313 1_555
Fe2 Fe9 2.636313 1_555
Fe3 Fe7 2.432282 1_555
Fe3 Fe5 2.432282 1_655
Fe3 Fe6 2.432282 1_555
Fe3 Fe4 2.432282 1_555
Fe3 Re0 2.603253 1_555
Fe3 Re0 2.603253 1_655
Fe3 Fe9 2.636313 1_555
Fe3 Fe8 2.636313 1_555
Fe4 Fe5 2.349010 1_555
Fe4 Fe5 2.349010 1_655
Fe4 Re0 2.597457 1_555
Fe4 Re1 2.597457 1_645
Fe4 Fe8 2.627353 1_555
Fe4 Fe9 2.627353 1_545
Fe5 Re1 2.597458 1_545
Fe5 Re0 2.597458 1_555
Fe5 Fe8 2.627352 1_455
Fe5 Fe9 2.627352 1_545
Fe6 Fe7 2.349010 1_555
Fe6 Fe7 2.349010 1_655
Fe6 Re0 2.597457 1_655
Fe6 Re1 2.597457 1_554
Fe6 Fe9 2.627353 1_555
Fe6 Fe8 2.627353 1_554
Fe7 Re0 2.597458 1_555
Fe7 Re1 2.597458 1_554
Fe7 Fe9 2.627352 1_555
Fe7 Fe8 2.627352 1_454
Fe8 Fe9 2.388127 1_555
Fe8 Re1 2.907298 1_555
Fe8 Re0 2.907298 1_555
Fe8 Re1 2.907298 1_655
Fe8 Re0 2.907298 1_655
Fe9 Re1 2.907298 1_655
Fe9 Re0 2.907298 1_655
Fe9 Re0 2.907298 1_555
Fe9 Re1 2.907298 1_555
Re0 Re1 2.456620 1_555
