# generated using pymatgen
data_Gd6MgIn2O12
_symmetry_space_group_name_H-M   'P 1'
_cell_length_a   6.99250114
_cell_length_b   6.95933463
_cell_length_c   6.83801893
_cell_angle_alpha   94.14595942
_cell_angle_beta   91.72693156
_cell_angle_gamma   91.75106101
_symmetry_Int_Tables_number   1
_chemical_formula_structural   Gd6MgIn2O12
_chemical_formula_sum   'Gd6 Mg1 In2 O12'
_cell_volume   331.55914499
_cell_formula_units_Z   1
loop_
 _symmetry_equiv_pos_site_id
 _symmetry_equiv_pos_as_xyz
  1  'x, y, z'
loop_
 _atom_site_type_symbol
 _atom_site_label
 _atom_site_symmetry_multiplicity
 _atom_site_fract_x
 _atom_site_fract_y
 _atom_site_fract_z
 _atom_site_occupancy
  Gd  Gd0  1  0.07216700  0.54898200  0.25719100  1
  Gd  Gd1  1  0.24652400  0.06101500  0.53733200  1
  Gd  Gd2  1  0.42655900  0.79190400  0.93530600  1
  Gd  Gd3  1  0.59310800  0.25713100  0.11301500  1
  Gd  Gd4  1  0.74659700  0.92532800  0.44923000  1
  Gd  Gd5  1  0.89456100  0.43874200  0.73978000  1
  Mg  Mg0  1  0.30115000  0.38858400  0.85451500  1
  In  In0  1  0.96801900  0.97385000  0.97484200  1
  In  In1  1  0.49294900  0.51244500  0.50015100  1
  O  O0  1  0.13538300  0.60315700  0.92676500  1
  O  O1  1  0.06453900  0.87253500  0.32183400  1
  O  O2  1  0.20182400  0.40379200  0.56108800  1
  O  O3  1  0.35590300  0.11747900  0.88893000  1
  O  O4  1  0.39597300  0.51490500  0.19449800  1
  O  O5  1  0.46165300  0.81734900  0.60192500  1
  O  O6  1  0.53134400  0.19448500  0.42557300  1
  O  O7  1  0.56934100  0.49320100  0.82272300  1
  O  O8  1  0.65600800  0.93615600  0.12656200  1
  O  O9  1  0.79734300  0.58695700  0.46160200  1
  O  O10  1  0.93003600  0.13464300  0.63425900  1
  O  O11  1  0.89901800  0.31735900  0.06287900  1
loop_
_geom_bond_atom_site_label_1
_geom_bond_atom_site_label_2
_geom_bond_distance
_geom_bond_site_symmetry_2
Gd0 O1 2.265677 1_555
Gd0 O11 2.302998 1_455
Gd0 O4 2.333089 1_555
Gd0 O0 2.369786 1_554
Gd0 O9 2.419933 1_455
Gd0 O2 2.531260 1_555
Gd1 O1 2.239821 1_545
Gd1 O6 2.344058 1_555
Gd1 O5 2.357479 1_545
Gd1 O10 2.389143 1_455
Gd1 O2 2.409832 1_555
Gd1 O3 2.500783 1_555
Gd2 O8 2.208532 1_556
Gd2 O5 2.319026 1_555
Gd2 O3 2.375144 1_565
Gd2 O0 2.385921 1_555
Gd2 O7 2.419202 1_555
Gd2 O4 2.719341 1_556
Gd3 O11 2.208857 1_555
Gd3 O6 2.263496 1_555
Gd3 O8 2.297668 1_545
Gd3 O4 2.341307 1_555
Gd3 O3 2.361483 1_554
Gd3 O7 2.671212 1_554
Gd4 O10 2.211238 1_565
Gd4 O8 2.284271 1_555
Gd4 O9 2.399248 1_555
Gd4 O5 2.402537 1_555
Gd4 O1 2.440675 1_655
Gd4 O6 2.449860 1_565
Gd5 O10 2.209769 1_555
Gd5 O0 2.306661 1_655
Gd5 O9 2.322284 1_555
Gd5 O7 2.395033 1_555
Gd5 O11 2.421394 1_556
Gd5 O2 2.513087 1_655
Mg0 O0 1.962442 1_555
Mg0 O3 1.965847 1_555
Mg0 O7 2.014498 1_555
Mg0 O2 2.114395 1_555
Mg0 O4 2.488607 1_556
In0 O8 2.458846 1_556
In0 O11 2.487980 1_566
In0 O1 2.599425 1_656
In0 O10 2.665384 1_565
In1 O4 2.179205 1_555
In1 O9 2.203388 1_555
In1 O5 2.204275 1_555
In1 O2 2.211798 1_555
In1 O6 2.260526 1_555
In1 O7 2.268192 1_555
