# generated using pymatgen
data_Yb2MgSe4
_symmetry_space_group_name_H-M   'P 1'
_cell_length_a   14.64105300
_cell_length_b   4.07669700
_cell_length_c   12.29522400
_cell_angle_alpha   90.00000000
_cell_angle_beta   90.00000000
_cell_angle_gamma   90.00000000
_symmetry_Int_Tables_number   1
_chemical_formula_structural   Yb2MgSe4
_chemical_formula_sum   'Yb8 Mg4 Se16'
_cell_volume   733.86671739
_cell_formula_units_Z   4
loop_
 _symmetry_equiv_pos_site_id
 _symmetry_equiv_pos_as_xyz
  1  'x, y, z'
loop_
 _atom_site_type_symbol
 _atom_site_label
 _atom_site_symmetry_multiplicity
 _atom_site_fract_x
 _atom_site_fract_y
 _atom_site_fract_z
 _atom_site_occupancy
  Yb  Yb0  1  0.11752000  0.25000000  0.07276900  1
  Yb  Yb1  1  0.88248000  0.75000000  0.92723100  1
  Yb  Yb2  1  0.38248000  0.75000000  0.57276900  1
  Yb  Yb3  1  0.61752000  0.25000000  0.42723100  1
  Yb  Yb4  1  0.13107300  0.25000000  0.70726300  1
  Yb  Yb5  1  0.86892700  0.75000000  0.29273700  1
  Yb  Yb6  1  0.36892700  0.75000000  0.20726300  1
  Yb  Yb7  1  0.63107300  0.25000000  0.79273700  1
  Mg  Mg0  1  0.10084600  0.75000000  0.43831700  1
  Mg  Mg1  1  0.89915400  0.25000000  0.56168300  1
  Mg  Mg2  1  0.39915500  0.25000000  0.93831700  1
  Mg  Mg3  1  0.60084600  0.75000000  0.06168300  1
  Se  Se0  1  0.00693800  0.75000000  0.62592400  1
  Se  Se1  1  0.99306200  0.25000000  0.37407600  1
  Se  Se2  1  0.49306200  0.25000000  0.12592400  1
  Se  Se3  1  0.50693800  0.75000000  0.87407600  1
  Se  Se4  1  0.00964500  0.25000000  0.88047600  1
  Se  Se5  1  0.99035500  0.75000000  0.11952400  1
  Se  Se6  1  0.49035500  0.75000000  0.38047600  1
  Se  Se7  1  0.50964500  0.25000000  0.61952400  1
  Se  Se8  1  0.23559400  0.25000000  0.27267400  1
  Se  Se9  1  0.76440600  0.75000000  0.72732600  1
  Se  Se10  1  0.26440600  0.75000000  0.77267400  1
  Se  Se11  1  0.73559400  0.25000000  0.22732600  1
  Se  Se12  1  0.26417100  0.75000000  0.98828100  1
  Se  Se13  1  0.73582900  0.25000000  0.01171900  1
  Se  Se14  1  0.23582900  0.25000000  0.48828100  1
  Se  Se15  1  0.76417100  0.75000000  0.51171900  1
loop_
_geom_bond_atom_site_label_1
_geom_bond_atom_site_label_2
_geom_bond_distance
_geom_bond_site_symmetry_2
Mg0 Se0 2.685351 1_555
Mg0 Se1 2.696117 1_455
Mg0 Se1 2.696117 1_465
Mg0 Se14 2.904821 1_555
Mg0 Se14 2.904821 1_565
Mg1 Se1 2.685351 1_555
Mg1 Se0 2.696117 1_645
Mg1 Se0 2.696117 1_655
Mg1 Se15 2.904821 1_545
Mg1 Se15 2.904821 1_555
Mg2 Se2 2.685343 1_556
Mg2 Se3 2.696109 1_545
Mg2 Se3 2.696109 1_555
Mg2 Se12 2.904831 1_555
Mg2 Se12 2.904831 1_545
Mg3 Se3 2.685351 1_554
Mg3 Se2 2.696117 1_565
Mg3 Se2 2.696117 1_555
Mg3 Se13 2.904821 1_565
Mg3 Se13 2.904821 1_555
Se0 Yb4 2.908301 1_555
Se0 Yb4 2.908301 1_565
Se1 Yb5 2.908301 1_545
Se1 Yb5 2.908301 1_555
Se2 Yb6 2.908301 1_555
Se2 Yb6 2.908301 1_545
Se3 Yb7 2.908301 1_555
Se3 Yb7 2.908301 1_565
Se4 Yb4 2.774218 1_555
Se4 Yb1 2.819883 1_455
Se4 Yb1 2.819883 1_445
Se4 Yb0 2.843301 1_556
Se5 Yb5 2.774218 1_555
Se5 Yb0 2.819883 1_665
Se5 Yb0 2.819883 1_655
Se5 Yb1 2.843301 1_554
Se6 Yb6 2.774218 1_555
Se6 Yb3 2.819883 1_555
Se6 Yb3 2.819883 1_565
Se6 Yb2 2.843301 1_555
Se7 Yb7 2.774218 1_555
Se7 Yb2 2.819883 1_555
Se7 Yb2 2.819883 1_545
Se7 Yb3 2.843301 1_555
Se8 Yb6 2.934707 1_555
Se8 Yb6 2.934707 1_545
Se8 Yb0 3.004939 1_555
Se9 Yb7 2.934707 1_555
Se9 Yb7 2.934707 1_565
Se9 Yb1 3.004939 1_555
Se10 Se12 2.650939 1_555
Se10 Yb4 2.934707 1_555
Se10 Yb4 2.934707 1_565
Se10 Yb2 3.004939 1_555
Se11 Se13 2.650939 1_555
Se11 Yb5 2.934707 1_545
Se11 Yb5 2.934707 1_555
Se11 Yb3 3.004939 1_555
Se12 Yb6 3.098636 1_556
Se12 Yb0 3.137533 1_556
Se12 Yb0 3.137533 1_566
Se13 Yb7 3.098636 1_554
Se13 Yb1 3.137533 1_554
Se13 Yb1 3.137533 1_544
Se14 Se8 2.650939 1_555
Se14 Yb4 3.098636 1_555
Se14 Yb2 3.137533 1_555
Se14 Yb2 3.137533 1_545
Se15 Se9 2.650939 1_555
Se15 Yb5 3.098636 1_555
Se15 Yb3 3.137533 1_555
Se15 Yb3 3.137533 1_565
