# generated using pymatgen
data_BaSr3Co2(CuO6)2
_symmetry_space_group_name_H-M   'P 1'
_cell_length_a   7.84025723
_cell_length_b   7.84025723
_cell_length_c   7.85059900
_cell_angle_alpha   90.00000000
_cell_angle_beta   90.00000000
_cell_angle_gamma   90.09861586
_symmetry_Int_Tables_number   1
_chemical_formula_structural   BaSr3Co2(CuO6)2
_chemical_formula_sum   'Ba2 Sr6 Co4 Cu4 O24'
_cell_volume   482.57272785
_cell_formula_units_Z   2
loop_
 _symmetry_equiv_pos_site_id
 _symmetry_equiv_pos_as_xyz
  1  'x, y, z'
loop_
 _atom_site_type_symbol
 _atom_site_label
 _atom_site_symmetry_multiplicity
 _atom_site_fract_x
 _atom_site_fract_y
 _atom_site_fract_z
 _atom_site_occupancy
  Ba  Ba0  1  0.75168200  0.75168200  0.75294200  1
  Ba  Ba1  1  0.24831800  0.24831800  0.75294200  1
  Sr  Sr0  1  0.75370600  0.75370600  0.24534200  1
  Sr  Sr1  1  0.24657700  0.75342300  0.24573700  1
  Sr  Sr2  1  0.24649200  0.75350800  0.75490400  1
  Sr  Sr3  1  0.75342300  0.24657700  0.24573700  1
  Sr  Sr4  1  0.24629400  0.24629400  0.24534200  1
  Sr  Sr5  1  0.75350800  0.24649200  0.75490400  1
  Co  Co0  1  0.50000000  0.00000000  0.49658100  1
  Co  Co1  1  0.50000000  0.50000000  0.00194600  1
  Co  Co2  1  0.00000000  0.50000000  0.49658100  1
  Co  Co3  1  0.50000000  0.50000000  0.49678100  1
  Cu  Cu0  1  0.00000000  0.00000000  0.00096200  1
  Cu  Cu1  1  0.50000000  0.00000000  0.00086000  1
  Cu  Cu2  1  0.00000000  0.00000000  0.49878700  1
  Cu  Cu3  1  0.00000000  0.50000000  0.00086000  1
  O  O0  1  0.00560400  0.74871900  0.00733900  1
  O  O1  1  0.49668600  0.74672300  0.00549500  1
  O  O2  1  0.00393800  0.74354200  0.49443100  1
  O  O3  1  0.49645700  0.74578400  0.49533200  1
  O  O4  1  0.99439600  0.25128100  0.00733900  1
  O  O5  1  0.50331400  0.25327700  0.00549500  1
  O  O6  1  0.99606200  0.25645800  0.49443100  1
  O  O7  1  0.50354300  0.25421600  0.49533200  1
  O  O8  1  0.00000000  0.00000000  0.25191300  1
  O  O9  1  0.50000000  0.00000000  0.25421000  1
  O  O10  1  0.00000000  0.00000000  0.74832900  1
  O  O11  1  0.50000000  0.00000000  0.74360800  1
  O  O12  1  0.00000000  0.50000000  0.25421000  1
  O  O13  1  0.50000000  0.50000000  0.24618300  1
  O  O14  1  0.00000000  0.50000000  0.74360800  1
  O  O15  1  0.50000000  0.50000000  0.75634400  1
  O  O16  1  0.74871900  0.00560400  0.00733900  1
  O  O17  1  0.25128100  0.99439600  0.00733900  1
  O  O18  1  0.74354200  0.00393800  0.49443100  1
  O  O19  1  0.25645800  0.99606200  0.49443100  1
  O  O20  1  0.74672300  0.49668600  0.00549500  1
  O  O21  1  0.25327700  0.50331400  0.00549500  1
  O  O22  1  0.74578400  0.49645700  0.49533200  1
  O  O23  1  0.25421600  0.50354300  0.49533200  1
loop_
_geom_bond_atom_site_label_1
_geom_bond_atom_site_label_2
_geom_bond_distance
_geom_bond_site_symmetry_2
Ba0 O10 2.751168 1_665
Ba0 O14 2.775364 1_655
Ba0 O11 2.775364 1_565
Ba0 O15 2.788325 1_555
Ba0 O20 2.815892 1_556
Ba0 O1 2.815892 1_556
Ba0 O16 2.820057 1_566
Ba0 O0 2.820057 1_656
Ba0 O18 2.834562 1_565
Ba0 O2 2.834562 1_655
Ba0 O22 2.845349 1_555
Ba0 O3 2.845349 1_555
Ba1 O10 2.751168 1_555
Ba1 O14 2.775364 1_555
Ba1 O11 2.775364 1_555
Ba1 O15 2.788325 1_555
Ba1 O21 2.815892 1_556
Ba1 O5 2.815892 1_556
Ba1 O4 2.820057 1_456
Ba1 O17 2.820057 1_546
Ba1 O6 2.834562 1_455
Ba1 O19 2.834562 1_545
Ba1 O7 2.845349 1_555
Ba1 O23 2.845349 1_555
Co0 O9 1.902758 1_555
Co0 O18 1.909703 1_555
Co0 O19 1.909703 1_545
Co0 O11 1.939310 1_555
Co0 O7 1.993289 1_555
Co0 O3 1.993289 1_545
Co1 O13 1.917407 1_555
Co1 O15 1.928123 1_554
Co1 O20 1.934792 1_555
Co1 O1 1.934792 1_555
Co1 O21 1.934792 1_555
Co1 O5 1.934792 1_555
Co2 O12 1.902758 1_555
Co2 O2 1.909703 1_555
Co2 O6 1.909703 1_455
Co2 O14 1.939310 1_555
Co2 O22 1.993289 1_455
Co2 O23 1.993289 1_555
Co3 O7 1.927291 1_555
Co3 O22 1.927291 1_555
Co3 O3 1.927291 1_555
Co3 O23 1.927291 1_555
Co3 O13 1.967344 1_555
Co3 O15 2.037725 1_555
Cu0 O8 1.970116 1_555
Cu0 O17 1.971309 1_545
Cu0 O4 1.971309 1_455
Cu0 O0 1.971309 1_545
Cu0 O16 1.971309 1_455
Cu0 O10 1.983320 1_554
Cu1 O16 1.951103 1_555
Cu1 O17 1.951103 1_545
Cu1 O5 1.986215 1_555
Cu1 O1 1.986215 1_545
Cu1 O9 1.988949 1_555
Cu1 O11 2.019582 1_554
Cu2 O8 1.938109 1_555
Cu2 O10 1.959054 1_555
Cu2 O6 2.011278 1_455
Cu2 O19 2.011278 1_545
Cu2 O18 2.011278 1_455
Cu2 O2 2.011278 1_545
Cu3 O0 1.951103 1_555
Cu3 O4 1.951103 1_455
Cu3 O21 1.986215 1_555
Cu3 O20 1.986215 1_455
Cu3 O12 1.988949 1_555
Cu3 O14 2.019582 1_554
O0 Sr1 2.659568 1_555
O0 Sr0 2.719075 1_455
O0 Sr2 2.737784 1_554
O1 Sr1 2.721301 1_555
O1 Sr0 2.758393 1_555
O1 Sr2 2.778711 1_554
O2 Sr1 2.726956 1_555
O2 Sr0 2.771254 1_455
O2 Sr2 2.793473 1_555
O3 Sr1 2.771584 1_555
O3 Sr0 2.814781 1_555
O3 Sr2 2.827979 1_555
O4 Sr3 2.659568 1_555
O4 Sr4 2.719075 1_655
O4 Sr5 2.737784 1_554
O5 Sr3 2.721301 1_555
O5 Sr4 2.758393 1_555
O5 Sr5 2.778711 1_554
O6 Sr3 2.726956 1_555
O6 Sr4 2.771254 1_655
O6 Sr5 2.793473 1_555
O7 Sr3 2.771584 1_555
O7 Sr4 2.814781 1_555
O7 Sr5 2.827979 1_555
O8 Sr4 2.728995 1_555
O8 Sr0 2.728995 1_445
O8 Sr1 2.736777 1_545
O8 Sr3 2.736777 1_455
O9 Sr3 2.770622 1_555
O9 Sr1 2.770622 1_545
O9 Sr0 2.775511 1_545
O9 Sr4 2.775511 1_555
O10 Sr2 2.735892 1_545
O10 Sr5 2.735892 1_455
O11 Sr5 2.771256 1_555
O11 Sr2 2.771256 1_545
O12 Sr1 2.770622 1_555
O12 Sr3 2.770622 1_455
O12 Sr0 2.775511 1_455
O12 Sr4 2.775511 1_555
O13 Sr0 2.810627 1_555
O13 Sr4 2.810627 1_555
O13 Sr3 2.812322 1_555
O13 Sr1 2.812322 1_555
O14 Sr2 2.771256 1_555
O14 Sr5 2.771256 1_455
O15 Sr5 2.813286 1_555
O15 Sr2 2.813286 1_555
O16 Sr3 2.659568 1_555
O16 Sr0 2.719075 1_545
O16 Sr5 2.737784 1_554
O17 Sr1 2.659568 1_555
O17 Sr4 2.719075 1_565
O17 Sr2 2.737784 1_554
O18 Sr3 2.726956 1_555
O18 Sr0 2.771254 1_545
O18 Sr5 2.793473 1_555
O19 Sr1 2.726956 1_555
O19 Sr4 2.771254 1_565
O19 Sr2 2.793473 1_555
O20 Sr3 2.721301 1_555
O20 Sr0 2.758393 1_555
O20 Sr5 2.778711 1_554
O21 Sr1 2.721301 1_555
O21 Sr4 2.758393 1_555
O21 Sr2 2.778711 1_554
O22 Sr3 2.771584 1_555
O22 Sr0 2.814781 1_555
O22 Sr5 2.827979 1_555
O23 Sr1 2.771584 1_555
O23 Sr4 2.814781 1_555
O23 Sr2 2.827979 1_555
