# generated using pymatgen
data_Ba2TlCo2O7
_symmetry_space_group_name_H-M   'P 1'
_cell_length_a   3.70359900
_cell_length_b   3.70974100
_cell_length_c   13.69363300
_cell_angle_alpha   90.00000000
_cell_angle_beta   90.00000000
_cell_angle_gamma   90.00000000
_symmetry_Int_Tables_number   1
_chemical_formula_structural   Ba2TlCo2O7
_chemical_formula_sum   'Ba2 Tl1 Co2 O7'
_cell_volume   188.14220618
_cell_formula_units_Z   1
loop_
 _symmetry_equiv_pos_site_id
 _symmetry_equiv_pos_as_xyz
  1  'x, y, z'
loop_
 _atom_site_type_symbol
 _atom_site_label
 _atom_site_symmetry_multiplicity
 _atom_site_fract_x
 _atom_site_fract_y
 _atom_site_fract_z
 _atom_site_occupancy
  Ba  Ba0  1  0.00000000  0.50000000  0.29464200  1
  Ba  Ba1  1  0.00000000  0.50000000  0.70373000  1
  Tl  Tl0  1  0.50000000  0.00000000  0.49925100  1
  Co  Co0  1  0.50000000  0.00000000  0.12443400  1
  Co  Co1  1  0.50000000  0.00000000  0.87845600  1
  O  O0  1  0.00000000  0.50000000  0.49936000  1
  O  O1  1  0.00000000  0.00000000  0.13244100  1
  O  O2  1  0.50000000  0.50000000  0.13233500  1
  O  O3  1  0.00000000  0.00000000  0.87436400  1
  O  O4  1  0.50000000  0.50000000  0.86296500  1
  O  O5  1  0.50000000  0.00000000  0.34340600  1
  O  O6  1  0.50000000  0.00000000  0.65465100  1
loop_
_geom_bond_atom_site_label_1
_geom_bond_atom_site_label_2
_geom_bond_distance
_geom_bond_site_symmetry_2
Ba0 O5 2.704737 1_555
Ba0 O5 2.704737 1_565
Ba0 O5 2.704737 1_465
Ba0 O5 2.704737 1_455
Ba0 O0 2.803333 1_555
Ba0 O2 2.892921 1_455
Ba0 O2 2.892921 1_555
Ba0 O1 2.893773 1_555
Ba0 O1 2.893773 1_565
Ba1 O6 2.705806 1_465
Ba1 O6 2.705806 1_455
Ba1 O6 2.705806 1_555
Ba1 O6 2.705806 1_565
Ba1 O0 2.798568 1_555
Ba1 O4 2.860728 1_455
Ba1 O4 2.860728 1_555
Ba1 O3 2.983327 1_555
Ba1 O3 2.983327 1_565
Co0 O1 1.855043 1_555
Co0 O1 1.855043 1_655
Co0 O2 1.858023 1_545
Co0 O2 1.858023 1_555
Co1 O3 1.852647 1_555
Co1 O3 1.852647 1_655
Co1 O4 1.866961 1_545
Co1 O4 1.866961 1_555
O0 Tl0 2.621013 1_455
O0 Tl0 2.621013 1_555
O0 Tl0 2.621013 1_565
O0 Tl0 2.621013 1_465
O5 Tl0 2.134084 1_555
O6 Tl0 2.127991 1_555
