# generated using pymatgen
data_K2PuO4
_symmetry_space_group_name_H-M   'P 1'
_cell_length_a   7.21557154
_cell_length_b   7.21557154
_cell_length_c   7.21557154
_cell_angle_alpha   145.39940866
_cell_angle_beta   145.39940866
_cell_angle_gamma   49.73971193
_symmetry_Int_Tables_number   1
_chemical_formula_structural   K2PuO4
_chemical_formula_sum   'K2 Pu1 O4'
_cell_volume   120.56728603
_cell_formula_units_Z   1
loop_
 _symmetry_equiv_pos_site_id
 _symmetry_equiv_pos_as_xyz
  1  'x, y, z'
loop_
 _atom_site_type_symbol
 _atom_site_label
 _atom_site_symmetry_multiplicity
 _atom_site_fract_x
 _atom_site_fract_y
 _atom_site_fract_z
 _atom_site_occupancy
  K  K0  1  0.35129624  0.35129624  -0.00000000  1
  K  K1  1  0.64870376  0.64870376  0.00000000  1
  Pu  Pu0  1  0.00000000  0.00000000  0.00000000  1
  O  O0  1  0.14496386  0.14496386  0.00000000  1
  O  O1  1  0.85503614  0.85503614  0.00000000  1
  O  O2  1  0.50000000  0.00000000  0.50000000  1
  O  O3  1  0.00000000  0.50000000  0.50000000  1
loop_
_geom_bond_atom_site_label_1
_geom_bond_atom_site_label_2
_geom_bond_distance
_geom_bond_site_symmetry_2
K0 O0 2.701484 1_555
K0 O2 2.897406 1_554
K0 O3 2.897406 1_655
K0 O2 2.897406 1_565
K0 O3 2.897406 1_554
K0 O1 3.034965 1_556
K0 O1 3.034965 1_444
K0 O1 3.034965 1_545
K0 O1 3.034965 1_455
K1 O1 2.701484 1_555
K1 O3 2.897406 1_554
K1 O3 2.897406 1_655
K1 O2 2.897406 1_565
K1 O2 2.897406 1_554
K1 O0 3.034965 1_666
K1 O0 3.034965 1_554
K1 O0 3.034965 1_655
K1 O0 3.034965 1_565
O0 Pu0 1.897994 1_555
O1 Pu0 1.897994 1_665
O2 Pu0 2.145765 1_656
O2 Pu0 2.145765 1_555
O3 Pu0 2.145765 1_566
O3 Pu0 2.145765 1_555
