# generated using pymatgen
data_Yb5Si3
_symmetry_space_group_name_H-M   'P 1'
_cell_length_a   6.46869600
_cell_length_b   8.80917669
_cell_length_c   8.80500240
_cell_angle_alpha   120.01569177
_cell_angle_beta   90.00000000
_cell_angle_gamma   90.00000000
_symmetry_Int_Tables_number   1
_chemical_formula_structural   Yb5Si3
_chemical_formula_sum   'Yb10 Si6'
_cell_volume   434.45368013
_cell_formula_units_Z   2
loop_
 _symmetry_equiv_pos_site_id
 _symmetry_equiv_pos_as_xyz
  1  'x, y, z'
loop_
 _atom_site_type_symbol
 _atom_site_label
 _atom_site_symmetry_multiplicity
 _atom_site_fract_x
 _atom_site_fract_y
 _atom_site_fract_z
 _atom_site_occupancy
  Yb  Yb0  1  0.50000000  0.33331800  0.66663600  1
  Yb  Yb1  1  0.50000000  0.66668200  0.33336400  1
  Yb  Yb2  1  0.00000000  0.66668200  0.33336400  1
  Yb  Yb3  1  0.00000000  0.33331800  0.66663600  1
  Yb  Yb4  1  0.75000600  0.27308500  0.00000000  1
  Yb  Yb5  1  0.74999600  0.72551900  0.72625600  1
  Yb  Yb6  1  0.74999600  0.99926300  0.27374400  1
  Yb  Yb7  1  0.25000600  0.72691500  0.00000000  1
  Yb  Yb8  1  0.24999600  0.27448100  0.27374400  1
  Yb  Yb9  1  0.24999600  0.00073700  0.72625600  1
  Si  Si0  1  0.75000000  0.61224600  0.00000000  1
  Si  Si1  1  0.75000100  0.38653100  0.38665300  1
  Si  Si2  1  0.75000100  0.99987900  0.61334700  1
  Si  Si3  1  0.25000000  0.38775400  0.00000000  1
  Si  Si4  1  0.25000100  0.61346900  0.61334700  1
  Si  Si5  1  0.25000100  0.00012100  0.38665300  1
loop_
_geom_bond_atom_site_label_1
_geom_bond_atom_site_label_2
_geom_bond_distance
_geom_bond_site_symmetry_2
Si0 Yb4 2.987729 1_555
Si0 Yb6 3.035056 1_555
Si0 Yb5 3.035057 1_554
Si0 Yb3 3.170612 1_654
Si0 Yb0 3.170612 1_554
Si0 Yb2 3.170613 1_655
Si0 Yb1 3.170613 1_555
Si0 Yb7 3.388383 1_555
Si0 Yb7 3.388457 1_655
Si1 Yb5 2.987498 1_555
Si1 Yb4 3.030723 1_555
Si1 Yb6 3.038678 1_545
Si1 Yb3 3.173105 1_655
Si1 Yb0 3.173112 1_555
Si1 Yb2 3.175599 1_655
Si1 Yb1 3.175606 1_555
Si1 Yb8 3.382557 1_655
Si1 Yb8 3.382619 1_555
Si2 Yb6 2.987494 1_555
Si2 Yb4 3.030721 1_566
Si2 Yb5 3.038687 1_555
Si2 Yb2 3.173110 1_655
Si2 Yb1 3.173116 1_555
Si2 Yb3 3.175591 1_665
Si2 Yb0 3.175598 1_565
Si2 Yb9 3.382558 1_665
Si2 Yb9 3.382620 1_565
Si3 Yb7 2.987729 1_555
Si3 Yb9 3.035056 1_554
Si3 Yb8 3.035057 1_555
Si3 Yb1 3.170612 1_555
Si3 Yb2 3.170612 1_555
Si3 Yb3 3.170613 1_554
Si3 Yb0 3.170613 1_554
Si3 Yb4 3.388383 1_455
Si3 Yb4 3.388457 1_555
Si4 Yb8 2.987498 1_555
Si4 Yb7 3.030723 1_556
Si4 Yb9 3.038678 1_565
Si4 Yb1 3.173105 1_555
Si4 Yb2 3.173112 1_555
Si4 Yb0 3.175599 1_555
Si4 Yb3 3.175606 1_555
Si4 Yb5 3.382557 1_555
Si4 Yb5 3.382619 1_455
Si5 Yb9 2.987494 1_555
Si5 Yb7 3.030721 1_545
Si5 Yb8 3.038687 1_555
Si5 Yb0 3.173110 1_555
Si5 Yb3 3.173116 1_555
Si5 Yb1 3.175591 1_545
Si5 Yb2 3.175598 1_545
Si5 Yb6 3.382558 1_545
Si5 Yb6 3.382620 1_445
