# generated using pymatgen
data_Nd(PPt)2
_symmetry_space_group_name_H-M   'P 1'
_cell_length_a   10.05001325
_cell_length_b   10.05001325
_cell_length_c   10.05001325
_cell_angle_alpha   155.35606892
_cell_angle_beta   155.35606892
_cell_angle_gamma   35.13151438
_symmetry_Int_Tables_number   1
_chemical_formula_structural   Nd(PPt)2
_chemical_formula_sum   'Nd2 P4 Pt4'
_cell_volume   176.29129574
_cell_formula_units_Z   2
loop_
 _symmetry_equiv_pos_site_id
 _symmetry_equiv_pos_as_xyz
  1  'x, y, z'
loop_
 _atom_site_type_symbol
 _atom_site_label
 _atom_site_symmetry_multiplicity
 _atom_site_fract_x
 _atom_site_fract_y
 _atom_site_fract_z
 _atom_site_occupancy
  Nd  Nd0  1  0.37469191  0.37469191  -0.00000000  1
  Nd  Nd1  1  0.62530809  0.62530809  0.00000000  1
  P  P0  1  0.06985302  0.06985302  0.00000000  1
  P  P1  1  0.93014698  0.93014698  -0.00000000  1
  P  P2  1  0.75000000  0.25000000  0.50000000  1
  P  P3  1  0.25000000  0.75000000  0.50000000  1
  Pt  Pt0  1  0.19383871  0.19383871  -0.00000000  1
  Pt  Pt1  1  0.80616129  0.80616129  0.00000000  1
  Pt  Pt2  1  0.50000000  -0.00000000  0.50000000  1
  Pt  Pt3  1  0.00000000  0.50000000  0.50000000  1
loop_
_geom_bond_atom_site_label_1
_geom_bond_atom_site_label_2
_geom_bond_distance
_geom_bond_site_symmetry_2
Nd0 P2 3.210807 1_555
Nd0 P3 3.210807 1_544
Nd0 P3 3.210807 1_555
Nd0 P2 3.210807 1_454
Nd0 P1 3.213868 1_455
Nd0 P1 3.213868 1_556
Nd0 P1 3.213868 1_444
Nd0 P1 3.213868 1_545
Nd0 Pt2 3.219603 1_554
Nd0 Pt3 3.219603 1_655
Nd0 Pt2 3.219603 1_565
Nd0 Pt3 3.219603 1_554
Nd0 Pt1 3.305187 1_545
Nd0 Pt1 3.305187 1_444
Nd0 Pt1 3.305187 1_455
Nd0 Pt1 3.305187 1_556
Nd0 Pt0 3.465651 1_555
Nd1 P2 3.210807 1_565
Nd1 P3 3.210807 1_554
Nd1 P2 3.210807 1_554
Nd1 P3 3.210807 1_655
Nd1 P0 3.213868 1_554
Nd1 P0 3.213868 1_565
Nd1 P0 3.213868 1_666
Nd1 P0 3.213868 1_655
Nd1 Pt3 3.219603 1_554
Nd1 Pt2 3.219603 1_565
Nd1 Pt3 3.219603 1_655
Nd1 Pt2 3.219603 1_554
Nd1 Pt0 3.305187 1_554
Nd1 Pt0 3.305187 1_655
Nd1 Pt0 3.305187 1_666
Nd1 Pt0 3.305187 1_565
Nd1 Pt1 3.465651 1_555
P0 Pt0 2.375911 1_555
P0 Pt2 2.528167 1_555
P0 Pt3 2.528167 1_555
P0 Pt3 2.528167 1_544
P0 Pt2 2.528167 1_454
P0 P1 2.677157 1_445
P1 Pt1 2.375911 1_555
P1 Pt2 2.528167 1_665
P1 Pt2 2.528167 1_564
P1 Pt3 2.528167 1_654
P1 Pt3 2.528167 1_665
P2 Pt0 2.399595 1_555
P2 Pt0 2.399595 1_656
P2 Pt1 2.399595 1_545
P2 Pt1 2.399595 1_556
P3 Pt0 2.399595 1_566
P3 Pt1 2.399595 1_455
P3 Pt1 2.399595 1_556
P3 Pt0 2.399595 1_555
