# generated using pymatgen
data_ZnCuAu2
_symmetry_space_group_name_H-M   'P 1'
_cell_length_a   5.92815200
_cell_length_b   9.24244200
_cell_length_c   18.26138759
_cell_angle_alpha   88.26130547
_cell_angle_beta   90.00000000
_cell_angle_gamma   90.00000000
_symmetry_Int_Tables_number   1
_chemical_formula_structural   ZnCuAu2
_chemical_formula_sum   'Zn16 Cu16 Au32'
_cell_volume   1000.09174474
_cell_formula_units_Z   16
loop_
 _symmetry_equiv_pos_site_id
 _symmetry_equiv_pos_as_xyz
  1  'x, y, z'
loop_
 _atom_site_type_symbol
 _atom_site_label
 _atom_site_symmetry_multiplicity
 _atom_site_fract_x
 _atom_site_fract_y
 _atom_site_fract_z
 _atom_site_occupancy
  Zn  Zn0_0  1  0.00000000  0.15432150  0.44172050  1
  Zn  Zn0_1  1  0.00000000  0.15432150  0.94172050  1
  Zn  Zn0_2  1  0.00000000  0.65432150  0.44172050  1
  Zn  Zn0_3  1  0.00000000  0.65432150  0.94172050  1
  Zn  Zn0_4  1  0.50000000  0.15432150  0.44172050  1
  Zn  Zn0_5  1  0.50000000  0.15432150  0.94172050  1
  Zn  Zn0_6  1  0.50000000  0.65432150  0.44172050  1
  Zn  Zn0_7  1  0.50000000  0.65432150  0.94172050  1
  Zn  Zn1_0  1  0.00000000  0.34567850  0.05827950  1
  Zn  Zn1_1  1  0.00000000  0.34567850  0.55827950  1
  Zn  Zn1_2  1  0.00000000  0.84567850  0.05827950  1
  Zn  Zn1_3  1  0.00000000  0.84567850  0.55827950  1
  Zn  Zn1_4  1  0.50000000  0.34567850  0.05827950  1
  Zn  Zn1_5  1  0.50000000  0.34567850  0.55827950  1
  Zn  Zn1_6  1  0.50000000  0.84567850  0.05827950  1
  Zn  Zn1_7  1  0.50000000  0.84567850  0.55827950  1
  Cu  Cu0_0  1  0.00000000  0.40729850  0.30495700  1
  Cu  Cu0_1  1  0.00000000  0.40729850  0.80495700  1
  Cu  Cu0_2  1  0.00000000  0.90729850  0.30495700  1
  Cu  Cu0_3  1  0.00000000  0.90729850  0.80495700  1
  Cu  Cu0_4  1  0.50000000  0.40729850  0.30495700  1
  Cu  Cu0_5  1  0.50000000  0.40729850  0.80495700  1
  Cu  Cu0_6  1  0.50000000  0.90729850  0.30495700  1
  Cu  Cu0_7  1  0.50000000  0.90729850  0.80495700  1
  Cu  Cu1_0  1  0.00000000  0.09270150  0.19504300  1
  Cu  Cu1_1  1  0.00000000  0.09270150  0.69504300  1
  Cu  Cu1_2  1  0.00000000  0.59270150  0.19504300  1
  Cu  Cu1_3  1  0.00000000  0.59270150  0.69504300  1
  Cu  Cu1_4  1  0.50000000  0.09270150  0.19504300  1
  Cu  Cu1_5  1  0.50000000  0.09270150  0.69504300  1
  Cu  Cu1_6  1  0.50000000  0.59270150  0.19504300  1
  Cu  Cu1_7  1  0.50000000  0.59270150  0.69504300  1
  Au  Au0_0  1  0.25000000  0.15687850  0.31616300  1
  Au  Au0_1  1  0.25000000  0.15687850  0.81616300  1
  Au  Au0_2  1  0.25000000  0.65687850  0.31616300  1
  Au  Au0_3  1  0.25000000  0.65687850  0.81616300  1
  Au  Au0_4  1  0.75000000  0.15687850  0.31616300  1
  Au  Au0_5  1  0.75000000  0.15687850  0.81616300  1
  Au  Au0_6  1  0.75000000  0.65687850  0.31616300  1
  Au  Au0_7  1  0.75000000  0.65687850  0.81616300  1
  Au  Au1_0  1  0.25000000  0.34312150  0.18383700  1
  Au  Au1_1  1  0.25000000  0.34312150  0.68383700  1
  Au  Au1_2  1  0.25000000  0.84312150  0.18383700  1
  Au  Au1_3  1  0.25000000  0.84312150  0.68383700  1
  Au  Au1_4  1  0.75000000  0.34312150  0.18383700  1
  Au  Au1_5  1  0.75000000  0.34312150  0.68383700  1
  Au  Au1_6  1  0.75000000  0.84312150  0.18383700  1
  Au  Au1_7  1  0.75000000  0.84312150  0.68383700  1
  Au  Au2_0  1  0.25000000  0.40562450  0.43059100  1
  Au  Au2_1  1  0.25000000  0.40562450  0.93059100  1
  Au  Au2_2  1  0.25000000  0.90562450  0.43059100  1
  Au  Au2_3  1  0.25000000  0.90562450  0.93059100  1
  Au  Au2_4  1  0.75000000  0.40562450  0.43059100  1
  Au  Au2_5  1  0.75000000  0.40562450  0.93059100  1
  Au  Au2_6  1  0.75000000  0.90562450  0.43059100  1
  Au  Au2_7  1  0.75000000  0.90562450  0.93059100  1
  Au  Au3_0  1  0.25000000  0.09437550  0.06940900  1
  Au  Au3_1  1  0.25000000  0.09437550  0.56940900  1
  Au  Au3_2  1  0.25000000  0.59437550  0.06940900  1
  Au  Au3_3  1  0.25000000  0.59437550  0.56940900  1
  Au  Au3_4  1  0.75000000  0.09437550  0.06940900  1
  Au  Au3_5  1  0.75000000  0.09437550  0.56940900  1
  Au  Au3_6  1  0.75000000  0.59437550  0.06940900  1
  Au  Au3_7  1  0.75000000  0.59437550  0.56940900  1
loop_
_geom_bond_atom_site_label_1
_geom_bond_atom_site_label_2
_geom_bond_distance
_geom_bond_site_symmetry_2
Zn0_0 Zn1_1 2.808388 1_555
Zn0_0 Zn0_4 2.964076 1_455
Zn0_0 Zn0_4 2.964076 1_555
Zn0_1 Zn1_0 2.808388 1_556
Zn0_1 Zn0_5 2.964076 1_455
Zn0_1 Zn0_5 2.964076 1_555
Zn0_2 Zn1_3 2.808388 1_555
Zn0_2 Zn0_6 2.964076 1_455
Zn0_2 Zn0_6 2.964076 1_555
Zn0_3 Zn1_2 2.808388 1_556
Zn0_3 Zn0_7 2.964076 1_455
Zn0_3 Zn0_7 2.964076 1_555
Zn0_4 Zn1_5 2.808388 1_555
Zn0_5 Zn1_4 2.808388 1_556
Zn0_6 Zn1_7 2.808388 1_555
Zn0_7 Zn1_6 2.808388 1_556
Zn1_0 Zn1_4 2.964076 1_555
Zn1_0 Zn1_4 2.964076 1_455
Zn1_1 Zn1_5 2.964076 1_455
Zn1_1 Zn1_5 2.964076 1_555
Zn1_2 Zn1_6 2.964076 1_455
Zn1_2 Zn1_6 2.964076 1_555
Zn1_3 Zn1_7 2.964076 1_555
Zn1_3 Zn1_7 2.964076 1_455
Cu0_0 Cu1_2 2.599309 1_555
Cu0_0 Cu0_4 2.964076 1_455
Cu0_0 Cu0_4 2.964076 1_555
Cu0_1 Cu1_3 2.599309 1_555
Cu0_1 Cu0_5 2.964076 1_555
Cu0_1 Cu0_5 2.964076 1_455
Cu0_2 Cu1_0 2.599309 1_565
Cu0_2 Cu0_6 2.964076 1_455
Cu0_2 Cu0_6 2.964076 1_555
Cu0_3 Cu1_1 2.599309 1_565
Cu0_3 Cu0_7 2.964076 1_555
Cu0_3 Cu0_7 2.964076 1_455
Cu0_4 Cu1_6 2.599309 1_555
Cu0_5 Cu1_7 2.599309 1_555
Cu0_6 Cu1_4 2.599309 1_565
Cu0_7 Cu1_5 2.599309 1_565
Cu1_0 Cu1_4 2.964076 1_555
Cu1_0 Cu1_4 2.964076 1_455
Cu1_1 Cu1_5 2.964076 1_455
Cu1_1 Cu1_5 2.964076 1_555
Cu1_2 Cu1_6 2.964076 1_555
Cu1_2 Cu1_6 2.964076 1_455
Cu1_3 Cu1_7 2.964076 1_455
Cu1_3 Cu1_7 2.964076 1_555
Au0_0 Zn0_0 2.729631 1_555
Au0_0 Zn0_4 2.729631 1_555
Au0_0 Cu1_0 2.742266 1_555
Au0_0 Cu1_4 2.742266 1_555
Au0_0 Cu0_4 2.750717 1_555
Au0_0 Cu0_0 2.750717 1_555
Au0_0 Cu0_2 2.754624 1_545
Au0_0 Cu0_6 2.754624 1_545
Au0_0 Au1_0 2.924015 1_555
Au0_0 Au0_4 2.964076 1_555
Au0_0 Au0_4 2.964076 1_455
Au0_0 Au2_2 3.076465 1_545
Au0_0 Au2_0 3.153332 1_555
Au0_1 Zn0_1 2.729631 1_555
Au0_1 Zn0_5 2.729631 1_555
Au0_1 Cu1_5 2.742266 1_555
Au0_1 Cu1_1 2.742266 1_555
Au0_1 Cu0_1 2.750717 1_555
Au0_1 Cu0_5 2.750717 1_555
Au0_1 Cu0_7 2.754624 1_545
Au0_1 Cu0_3 2.754624 1_545
Au0_1 Au1_1 2.924015 1_555
Au0_1 Au0_5 2.964076 1_455
Au0_1 Au0_5 2.964076 1_555
Au0_1 Au2_3 3.076465 1_545
Au0_1 Au2_1 3.153332 1_555
Au0_2 Zn0_2 2.729631 1_555
Au0_2 Zn0_6 2.729631 1_555
Au0_2 Cu1_2 2.742266 1_555
Au0_2 Cu1_6 2.742266 1_555
Au0_2 Cu0_2 2.750717 1_555
Au0_2 Cu0_6 2.750717 1_555
Au0_2 Cu0_0 2.754624 1_555
Au0_2 Cu0_4 2.754624 1_555
Au0_2 Au1_2 2.924015 1_555
Au0_2 Au0_6 2.964076 1_455
Au0_2 Au0_6 2.964076 1_555
Au0_2 Au2_0 3.076465 1_555
Au0_2 Au2_2 3.153332 1_555
Au0_3 Zn0_3 2.729631 1_555
Au0_3 Zn0_7 2.729631 1_555
Au0_3 Cu1_3 2.742266 1_555
Au0_3 Cu1_7 2.742266 1_555
Au0_3 Cu0_3 2.750717 1_555
Au0_3 Cu0_7 2.750717 1_555
Au0_3 Cu0_5 2.754624 1_555
Au0_3 Cu0_1 2.754624 1_555
Au0_3 Au1_3 2.924015 1_555
Au0_3 Au0_7 2.964076 1_555
Au0_3 Au0_7 2.964076 1_455
Au0_3 Au2_1 3.076465 1_555
Au0_3 Au2_3 3.153332 1_555
Au0_4 Zn0_4 2.729631 1_555
Au0_4 Zn0_0 2.729631 1_655
Au0_4 Cu1_0 2.742266 1_655
Au0_4 Cu1_4 2.742266 1_555
Au0_4 Cu0_4 2.750717 1_555
Au0_4 Cu0_0 2.750717 1_655
Au0_4 Cu0_6 2.754624 1_545
Au0_4 Cu0_2 2.754624 1_645
Au0_4 Au1_4 2.924015 1_555
Au0_4 Au2_6 3.076465 1_545
Au0_4 Au2_4 3.153332 1_555
Au0_5 Zn0_5 2.729631 1_555
Au0_5 Zn0_1 2.729631 1_655
Au0_5 Cu1_1 2.742266 1_655
Au0_5 Cu1_5 2.742266 1_555
Au0_5 Cu0_1 2.750717 1_655
Au0_5 Cu0_5 2.750717 1_555
Au0_5 Cu0_3 2.754624 1_645
Au0_5 Cu0_7 2.754624 1_545
Au0_5 Au1_5 2.924015 1_555
Au0_5 Au2_7 3.076465 1_545
Au0_5 Au2_5 3.153332 1_555
Au0_6 Zn0_6 2.729631 1_555
Au0_6 Zn0_2 2.729631 1_655
Au0_6 Cu1_2 2.742266 1_655
Au0_6 Cu1_6 2.742266 1_555
Au0_6 Cu0_6 2.750717 1_555
Au0_6 Cu0_2 2.750717 1_655
Au0_6 Cu0_0 2.754624 1_655
Au0_6 Cu0_4 2.754624 1_555
Au0_6 Au1_6 2.924015 1_555
Au0_6 Au2_4 3.076465 1_555
Au0_6 Au2_6 3.153332 1_555
Au0_7 Zn0_7 2.729631 1_555
Au0_7 Zn0_3 2.729631 1_655
Au0_7 Cu1_3 2.742266 1_655
Au0_7 Cu1_7 2.742266 1_555
Au0_7 Cu0_3 2.750717 1_655
Au0_7 Cu0_7 2.750717 1_555
Au0_7 Cu0_1 2.754624 1_655
Au0_7 Cu0_5 2.754624 1_555
Au0_7 Au1_7 2.924015 1_555
Au0_7 Au2_5 3.076465 1_555
Au0_7 Au2_7 3.153332 1_555
Au1_0 Zn1_0 2.729631 1_555
Au1_0 Zn1_4 2.729631 1_555
Au1_0 Cu0_0 2.742266 1_555
Au1_0 Cu0_4 2.742266 1_555
Au1_0 Cu1_0 2.750717 1_555
Au1_0 Cu1_4 2.750717 1_555
Au1_0 Cu1_2 2.754624 1_555
Au1_0 Cu1_6 2.754624 1_555
Au1_0 Au1_4 2.964076 1_455
Au1_0 Au1_4 2.964076 1_555
Au1_0 Au3_2 3.076465 1_555
Au1_0 Au3_0 3.153332 1_555
Au1_1 Zn1_5 2.729631 1_555
Au1_1 Zn1_1 2.729631 1_555
Au1_1 Cu0_1 2.742266 1_555
Au1_1 Cu0_5 2.742266 1_555
Au1_1 Cu1_1 2.750717 1_555
Au1_1 Cu1_5 2.750717 1_555
Au1_1 Cu1_7 2.754624 1_555
Au1_1 Cu1_3 2.754624 1_555
Au1_1 Au1_5 2.964076 1_555
Au1_1 Au1_5 2.964076 1_455
Au1_1 Au3_3 3.076465 1_555
Au1_1 Au3_1 3.153332 1_555
Au1_2 Zn1_2 2.729631 1_555
Au1_2 Zn1_6 2.729631 1_555
Au1_2 Cu0_6 2.742266 1_555
Au1_2 Cu0_2 2.742266 1_555
Au1_2 Cu1_2 2.750717 1_555
Au1_2 Cu1_6 2.750717 1_555
Au1_2 Cu1_0 2.754624 1_565
Au1_2 Cu1_4 2.754624 1_565
Au1_2 Au1_6 2.964076 1_555
Au1_2 Au1_6 2.964076 1_455
Au1_2 Au3_0 3.076465 1_565
Au1_2 Au3_2 3.153332 1_555
Au1_3 Zn1_7 2.729631 1_555
Au1_3 Zn1_3 2.729631 1_555
Au1_3 Cu0_3 2.742266 1_555
Au1_3 Cu0_7 2.742266 1_555
Au1_3 Cu1_3 2.750717 1_555
Au1_3 Cu1_7 2.750717 1_555
Au1_3 Cu1_1 2.754624 1_565
Au1_3 Cu1_5 2.754624 1_565
Au1_3 Au1_7 2.964076 1_455
Au1_3 Au1_7 2.964076 1_555
Au1_3 Au3_1 3.076465 1_565
Au1_3 Au3_3 3.153332 1_555
Au1_4 Zn1_4 2.729631 1_555
Au1_4 Zn1_0 2.729631 1_655
Au1_4 Cu0_0 2.742266 1_655
Au1_4 Cu0_4 2.742266 1_555
Au1_4 Cu1_4 2.750717 1_555
Au1_4 Cu1_0 2.750717 1_655
Au1_4 Cu1_2 2.754624 1_655
Au1_4 Cu1_6 2.754624 1_555
Au1_4 Au3_6 3.076465 1_555
Au1_4 Au3_4 3.153332 1_555
Au1_5 Zn1_5 2.729631 1_555
Au1_5 Zn1_1 2.729631 1_655
Au1_5 Cu0_1 2.742266 1_655
Au1_5 Cu0_5 2.742266 1_555
Au1_5 Cu1_1 2.750717 1_655
Au1_5 Cu1_5 2.750717 1_555
Au1_5 Cu1_3 2.754624 1_655
Au1_5 Cu1_7 2.754624 1_555
Au1_5 Au3_7 3.076465 1_555
Au1_5 Au3_5 3.153332 1_555
Au1_6 Zn1_6 2.729631 1_555
Au1_6 Zn1_2 2.729631 1_655
Au1_6 Cu0_6 2.742266 1_555
Au1_6 Cu0_2 2.742266 1_655
Au1_6 Cu1_2 2.750717 1_655
Au1_6 Cu1_6 2.750717 1_555
Au1_6 Cu1_0 2.754624 1_665
Au1_6 Cu1_4 2.754624 1_565
Au1_6 Au3_4 3.076465 1_565
Au1_6 Au3_6 3.153332 1_555
Au1_7 Zn1_7 2.729631 1_555
Au1_7 Zn1_3 2.729631 1_655
Au1_7 Cu0_3 2.742266 1_655
Au1_7 Cu0_7 2.742266 1_555
Au1_7 Cu1_3 2.750717 1_655
Au1_7 Cu1_7 2.750717 1_555
Au1_7 Cu1_5 2.754624 1_565
Au1_7 Cu1_1 2.754624 1_665
Au1_7 Au3_5 3.076465 1_565
Au1_7 Au3_7 3.153332 1_555
Au2_0 Cu0_4 2.730954 1_555
Au2_0 Cu0_0 2.730954 1_555
Au2_0 Zn0_2 2.747636 1_555
Au2_0 Zn0_6 2.747636 1_555
Au2_0 Zn0_0 2.757502 1_555
Au2_0 Zn0_4 2.757502 1_555
Au2_0 Zn1_1 2.803954 1_555
Au2_0 Zn1_5 2.803954 1_555
Au2_0 Au2_4 2.964076 1_555
Au2_0 Au2_4 2.964076 1_455
Au2_0 Au3_3 3.120574 1_555
Au2_1 Cu0_1 2.730954 1_555
Au2_1 Cu0_5 2.730954 1_555
Au2_1 Zn0_7 2.747636 1_555
Au2_1 Zn0_3 2.747636 1_555
Au2_1 Zn0_1 2.757502 1_555
Au2_1 Zn0_5 2.757502 1_555
Au2_1 Zn1_0 2.803954 1_556
Au2_1 Zn1_4 2.803954 1_556
Au2_1 Au2_5 2.964076 1_455
Au2_1 Au2_5 2.964076 1_555
Au2_1 Au3_2 3.120574 1_556
Au2_2 Cu0_6 2.730954 1_555
Au2_2 Cu0_2 2.730954 1_555
Au2_2 Zn0_0 2.747636 1_565
Au2_2 Zn0_4 2.747636 1_565
Au2_2 Zn0_2 2.757502 1_555
Au2_2 Zn0_6 2.757502 1_555
Au2_2 Zn1_3 2.803954 1_555
Au2_2 Zn1_7 2.803954 1_555
Au2_2 Au2_6 2.964076 1_555
Au2_2 Au2_6 2.964076 1_455
Au2_2 Au3_1 3.120574 1_565
Au2_3 Cu0_3 2.730954 1_555
Au2_3 Cu0_7 2.730954 1_555
Au2_3 Zn0_1 2.747636 1_565
Au2_3 Zn0_5 2.747636 1_565
Au2_3 Zn0_7 2.757502 1_555
Au2_3 Zn0_3 2.757502 1_555
Au2_3 Zn1_6 2.803954 1_556
Au2_3 Zn1_2 2.803954 1_556
Au2_3 Au2_7 2.964076 1_555
Au2_3 Au2_7 2.964076 1_455
Au2_3 Au3_0 3.120574 1_566
Au2_4 Cu0_0 2.730954 1_655
Au2_4 Cu0_4 2.730954 1_555
Au2_4 Zn0_6 2.747636 1_555
Au2_4 Zn0_2 2.747636 1_655
Au2_4 Zn0_0 2.757502 1_655
Au2_4 Zn0_4 2.757502 1_555
Au2_4 Zn1_5 2.803954 1_555
Au2_4 Zn1_1 2.803954 1_655
Au2_4 Au3_7 3.120574 1_555
Au2_5 Cu0_1 2.730954 1_655
Au2_5 Cu0_5 2.730954 1_555
Au2_5 Zn0_3 2.747636 1_655
Au2_5 Zn0_7 2.747636 1_555
Au2_5 Zn0_5 2.757502 1_555
Au2_5 Zn0_1 2.757502 1_655
Au2_5 Zn1_4 2.803954 1_556
Au2_5 Zn1_0 2.803954 1_656
Au2_5 Au3_6 3.120574 1_556
Au2_6 Cu0_6 2.730954 1_555
Au2_6 Cu0_2 2.730954 1_655
Au2_6 Zn0_0 2.747636 1_665
Au2_6 Zn0_4 2.747636 1_565
Au2_6 Zn0_6 2.757502 1_555
Au2_6 Zn0_2 2.757502 1_655
Au2_6 Zn1_3 2.803954 1_655
Au2_6 Zn1_7 2.803954 1_555
Au2_6 Au3_5 3.120574 1_565
Au2_7 Cu0_3 2.730954 1_655
Au2_7 Cu0_7 2.730954 1_555
Au2_7 Zn0_1 2.747636 1_665
Au2_7 Zn0_5 2.747636 1_565
Au2_7 Zn0_7 2.757502 1_555
Au2_7 Zn0_3 2.757502 1_655
Au2_7 Zn1_2 2.803954 1_656
Au2_7 Zn1_6 2.803954 1_556
Au2_7 Au3_4 3.120574 1_566
Au3_0 Cu1_0 2.730954 1_555
Au3_0 Cu1_4 2.730954 1_555
Au3_0 Zn1_6 2.747636 1_545
Au3_0 Zn1_2 2.747636 1_545
Au3_0 Zn1_0 2.757502 1_555
Au3_0 Zn1_4 2.757502 1_555
Au3_0 Zn0_5 2.803954 1_554
Au3_0 Zn0_1 2.803954 1_554
Au3_0 Au3_4 2.964076 1_455
Au3_0 Au3_4 2.964076 1_555
Au3_1 Cu1_1 2.730954 1_555
Au3_1 Cu1_5 2.730954 1_555
Au3_1 Zn1_3 2.747636 1_545
Au3_1 Zn1_7 2.747636 1_545
Au3_1 Zn1_1 2.757502 1_555
Au3_1 Zn1_5 2.757502 1_555
Au3_1 Zn0_4 2.803954 1_555
Au3_1 Zn0_0 2.803954 1_555
Au3_1 Au3_5 2.964076 1_555
Au3_1 Au3_5 2.964076 1_455
Au3_2 Cu1_2 2.730954 1_555
Au3_2 Cu1_6 2.730954 1_555
Au3_2 Zn1_4 2.747636 1_555
Au3_2 Zn1_0 2.747636 1_555
Au3_2 Zn1_6 2.757502 1_555
Au3_2 Zn1_2 2.757502 1_555
Au3_2 Zn0_3 2.803954 1_554
Au3_2 Zn0_7 2.803954 1_554
Au3_2 Au3_6 2.964076 1_555
Au3_2 Au3_6 2.964076 1_455
Au3_3 Cu1_7 2.730954 1_555
Au3_3 Cu1_3 2.730954 1_555
Au3_3 Zn1_1 2.747636 1_555
Au3_3 Zn1_5 2.747636 1_555
Au3_3 Zn1_3 2.757502 1_555
Au3_3 Zn1_7 2.757502 1_555
Au3_3 Zn0_2 2.803954 1_555
Au3_3 Zn0_6 2.803954 1_555
Au3_3 Au3_7 2.964076 1_555
Au3_3 Au3_7 2.964076 1_455
Au3_4 Cu1_0 2.730954 1_655
Au3_4 Cu1_4 2.730954 1_555
Au3_4 Zn1_6 2.747636 1_545
Au3_4 Zn1_2 2.747636 1_645
Au3_4 Zn1_4 2.757502 1_555
Au3_4 Zn1_0 2.757502 1_655
Au3_4 Zn0_5 2.803954 1_554
Au3_4 Zn0_1 2.803954 1_654
Au3_5 Cu1_1 2.730954 1_655
Au3_5 Cu1_5 2.730954 1_555
Au3_5 Zn1_7 2.747636 1_545
Au3_5 Zn1_3 2.747636 1_645
Au3_5 Zn1_5 2.757502 1_555
Au3_5 Zn1_1 2.757502 1_655
Au3_5 Zn0_4 2.803954 1_555
Au3_5 Zn0_0 2.803954 1_655
Au3_6 Cu1_2 2.730954 1_655
Au3_6 Cu1_6 2.730954 1_555
Au3_6 Zn1_4 2.747636 1_555
Au3_6 Zn1_0 2.747636 1_655
Au3_6 Zn1_2 2.757502 1_655
Au3_6 Zn1_6 2.757502 1_555
Au3_6 Zn0_7 2.803954 1_554
Au3_6 Zn0_3 2.803954 1_654
Au3_7 Cu1_7 2.730954 1_555
Au3_7 Cu1_3 2.730954 1_655
Au3_7 Zn1_5 2.747636 1_555
Au3_7 Zn1_1 2.747636 1_655
Au3_7 Zn1_7 2.757502 1_555
Au3_7 Zn1_3 2.757502 1_655
Au3_7 Zn0_6 2.803954 1_555
Au3_7 Zn0_2 2.803954 1_655
