# generated using pymatgen
data_Cs3TiF7
_symmetry_space_group_name_H-M   'P 1'
_cell_length_a   8.39109239
_cell_length_b   8.39109239
_cell_length_c   6.30555499
_cell_angle_alpha   90.00000000
_cell_angle_beta   90.00000000
_cell_angle_gamma   90.00000000
_symmetry_Int_Tables_number   1
_chemical_formula_structural   Cs3TiF7
_chemical_formula_sum   'Cs6 Ti2 F14'
_cell_volume   443.97684768
_cell_formula_units_Z   2
loop_
 _symmetry_equiv_pos_site_id
 _symmetry_equiv_pos_as_xyz
  1  'x, y, z'
loop_
 _atom_site_type_symbol
 _atom_site_label
 _atom_site_symmetry_multiplicity
 _atom_site_fract_x
 _atom_site_fract_y
 _atom_site_fract_z
 _atom_site_occupancy
  Cs  Cs0  1  0.19049559  0.69049559  0.50000000  1
  Cs  Cs1  1  0.69049559  0.80950441  0.50000000  1
  Cs  Cs2  1  0.30950441  0.19049559  0.50000000  1
  Cs  Cs3  1  0.80950441  0.30950441  0.50000000  1
  Cs  Cs4  1  0.50000000  0.50000000  -0.00000000  1
  Cs  Cs5  1  0.00000000  0.00000000  -0.00000000  1
  Ti  Ti0  1  0.00000000  0.50000000  -0.00000000  1
  Ti  Ti1  1  0.50000000  0.00000000  -0.00000000  1
  F  F0  1  0.38914429  0.88914429  0.78721108  1
  F  F1  1  0.61085571  0.11085571  0.78721108  1
  F  F2  1  0.11085571  0.38914429  0.78721108  1
  F  F3  1  0.88914429  0.61085571  0.78721108  1
  F  F4  1  0.38914429  0.88914429  0.21278892  1
  F  F5  1  0.88914429  0.61085571  0.21278892  1
  F  F6  1  0.11085571  0.38914429  0.21278892  1
  F  F7  1  0.61085571  0.11085571  0.21278892  1
  F  F8  1  0.00000000  0.00000000  0.50000000  1
  F  F9  1  0.50000000  0.50000000  0.50000000  1
  F  F10  1  0.84182013  0.34182013  -0.00000000  1
  F  F11  1  0.34182013  0.15817987  -0.00000000  1
  F  F12  1  0.65817987  0.84182013  -0.00000000  1
  F  F13  1  0.15817987  0.65817987  -0.00000000  1
loop_
_geom_bond_atom_site_label_1
_geom_bond_atom_site_label_2
_geom_bond_distance
_geom_bond_site_symmetry_2
Cs0 F4 2.972673 1_555
Cs0 F0 2.972673 1_555
Cs0 F8 3.049577 1_565
Cs0 F9 3.049577 1_555
Cs0 F13 3.176014 1_556
Cs0 F13 3.176014 1_555
Cs0 F5 3.181281 1_455
Cs0 F3 3.181281 1_455
Cs0 F6 3.181281 1_555
Cs0 F2 3.181281 1_555
Cs1 F5 2.972673 1_555
Cs1 F3 2.972673 1_555
Cs1 F8 3.049577 1_665
Cs1 F9 3.049577 1_555
Cs1 F12 3.176014 1_555
Cs1 F12 3.176014 1_556
Cs1 F7 3.181281 1_565
Cs1 F0 3.181281 1_555
Cs1 F4 3.181281 1_555
Cs1 F1 3.181281 1_565
Cs2 F2 2.972673 1_555
Cs2 F6 2.972673 1_555
Cs2 F8 3.049577 1_555
Cs2 F9 3.049577 1_555
Cs2 F11 3.176014 1_555
Cs2 F11 3.176014 1_556
Cs2 F4 3.181281 1_545
Cs2 F0 3.181281 1_545
Cs2 F7 3.181281 1_555
Cs2 F1 3.181281 1_555
Cs3 F7 2.972673 1_555
Cs3 F1 2.972673 1_555
Cs3 F8 3.049577 1_655
Cs3 F9 3.049577 1_555
Cs3 F10 3.176014 1_555
Cs3 F10 3.176014 1_556
Cs3 F6 3.181281 1_655
Cs3 F5 3.181281 1_555
Cs3 F2 3.181281 1_655
Cs3 F3 3.181281 1_555
Cs4 F9 3.152777 1_555
Cs4 F9 3.152777 1_554
Cs4 F10 3.160468 1_555
Cs4 F11 3.160468 1_555
Cs4 F12 3.160468 1_555
Cs4 F13 3.160468 1_555
Cs5 F8 3.152777 1_554
Cs5 F8 3.152777 1_555
Cs5 F12 3.160468 1_445
Cs5 F13 3.160468 1_545
Cs5 F11 3.160468 1_555
Cs5 F10 3.160468 1_455
F0 Ti1 1.879054 1_566
F1 Ti1 1.879054 1_556
F2 Ti0 1.879054 1_556
F3 Ti0 1.879054 1_656
F4 Ti1 1.879054 1_565
F5 Ti0 1.879054 1_655
F6 Ti0 1.879054 1_555
F7 Ti1 1.879054 1_555
F10 Ti0 1.877088 1_655
F11 Ti1 1.877088 1_555
F12 Ti1 1.877088 1_565
F13 Ti0 1.877088 1_555
