# generated using pymatgen
data_K3W2(O2F3)2
_symmetry_space_group_name_H-M   'P 1'
_cell_length_a   8.12556964
_cell_length_b   8.12556964
_cell_length_c   8.34497398
_cell_angle_alpha   73.22581617
_cell_angle_beta   73.22581617
_cell_angle_gamma   91.74190398
_symmetry_Int_Tables_number   1
_chemical_formula_structural   K3W2(O2F3)2
_chemical_formula_sum   'K6 W4 O8 F12'
_cell_volume   501.18582469
_cell_formula_units_Z   2
loop_
 _symmetry_equiv_pos_site_id
 _symmetry_equiv_pos_as_xyz
  1  'x, y, z'
loop_
 _atom_site_type_symbol
 _atom_site_label
 _atom_site_symmetry_multiplicity
 _atom_site_fract_x
 _atom_site_fract_y
 _atom_site_fract_z
 _atom_site_occupancy
  K  K0  1  0.95572482  0.74807567  0.00155835  1
  K  K1  1  0.25192433  0.04427518  0.49844165  1
  K  K2  1  0.04427518  0.25192433  0.99844165  1
  K  K3  1  0.74807567  0.95572482  0.50155835  1
  K  K4  1  0.50000000  0.50000000  -0.00000000  1
  K  K5  1  0.50000000  0.50000000  0.50000000  1
  W  W0  1  0.02068300  0.43078016  0.36388052  1
  W  W1  1  0.56921984  0.97931700  0.13611948  1
  W  W2  1  0.97931700  0.56921984  0.63611948  1
  W  W3  1  0.43078016  0.02068300  0.86388052  1
  O  O0  1  0.94113221  0.33931780  0.61865686  1
  O  O1  1  0.66068220  0.05886779  0.88134314  1
  O  O2  1  0.05886779  0.66068220  0.38134314  1
  O  O3  1  0.33931780  0.94113221  0.11865686  1
  O  O4  1  0.82615156  0.44577868  0.31708385  1
  O  O5  1  0.55422132  0.17384844  0.18291615  1
  O  O6  1  0.17384844  0.55422132  0.68291615  1
  O  O7  1  0.44577868  0.82615156  0.81708385  1
  F  F0  1  0.15247403  0.50586846  0.10689542  1
  F  F1  1  0.49413154  0.84752597  0.39310458  1
  F  F2  1  0.84752597  0.49413154  0.89310458  1
  F  F3  1  0.50586846  0.15247403  0.60689542  1
  F  F4  1  0.02878437  0.19043507  0.34174940  1
  F  F5  1  0.80956493  0.97121563  0.15825060  1
  F  F6  1  0.97121563  0.80956493  0.65825060  1
  F  F7  1  0.19043507  0.02878437  0.84174940  1
  F  F8  1  0.73471762  0.60980548  0.62920382  1
  F  F9  1  0.39019452  0.26528238  0.87079618  1
  F  F10  1  0.26528238  0.39019452  0.37079618  1
  F  F11  1  0.60980548  0.73471762  0.12920382  1
loop_
_geom_bond_atom_site_label_1
_geom_bond_atom_site_label_2
_geom_bond_distance
_geom_bond_site_symmetry_2
K0 O4 2.929942 1_555
K1 O5 2.929942 1_555
K2 O6 2.929942 1_555
K3 O7 2.929942 1_555
K4 O7 2.769783 1_554
K4 O5 2.769783 1_555
K5 O6 2.769783 1_555
K5 O4 2.769783 1_555
O0 W2 1.937843 1_555
O0 W0 1.938035 1_655
O1 W3 1.937843 1_555
O1 W1 1.938035 1_546
O2 W0 1.937843 1_555
O2 W2 1.938035 1_455
O3 W1 1.937843 1_555
O3 W3 1.938035 1_564
O4 W0 1.733908 1_655
O5 W1 1.733908 1_545
O6 W2 1.733908 1_455
O7 W3 1.733908 1_565
F0 W0 1.999386 1_555
F0 K0 2.684347 1_455
F0 K2 2.697546 1_554
F0 K4 2.711254 1_555
F1 W1 1.999386 1_555
F1 K1 2.684347 1_565
F1 K3 2.697546 1_555
F1 K5 2.711254 1_555
F2 W2 1.999386 1_555
F2 K2 2.684347 1_655
F2 K0 2.697546 1_556
F2 K4 2.711254 1_556
F3 W3 1.999386 1_555
F3 K3 2.684347 1_545
F3 K1 2.697546 1_555
F3 K5 2.711254 1_555
F4 W0 2.015292 1_555
F4 K1 2.647783 1_555
F4 K3 2.670218 1_445
F4 K2 2.726706 1_554
F5 W1 2.015292 1_555
F5 K0 2.647783 1_555
F5 K2 2.670218 1_664
F5 K3 2.726706 1_555
F6 W2 2.015292 1_555
F6 K3 2.647783 1_555
F6 K1 2.670218 1_665
F6 K0 2.726706 1_556
F7 W3 2.015292 1_555
F7 K2 2.647783 1_555
F7 K0 2.670218 1_446
F7 K1 2.726706 1_555
F8 W2 2.038957 1_555
F8 K3 2.689522 1_555
F8 K5 2.689762 1_555
F8 K4 2.984093 1_556
F9 W3 2.038957 1_555
F9 K2 2.689522 1_555
F9 K4 2.689762 1_556
F9 K5 2.984093 1_555
F10 W0 2.038957 1_555
F10 K1 2.689522 1_555
F10 K5 2.689762 1_555
F10 K4 2.984093 1_555
F11 W1 2.038957 1_555
F11 K0 2.689522 1_555
F11 K4 2.689762 1_555
F11 K5 2.984093 1_555
