# generated using pymatgen
data_Sm4Fe31Si3
_symmetry_space_group_name_H-M   'P 1'
_cell_length_a   6.38263578
_cell_length_b   6.40077022
_cell_length_c   12.77283878
_cell_angle_alpha   82.82685390
_cell_angle_beta   82.86783750
_cell_angle_gamma   82.87751882
_symmetry_Int_Tables_number   1
_chemical_formula_structural   Sm4Fe31Si3
_chemical_formula_sum   'Sm4 Fe31 Si3'
_cell_volume   510.60002295
_cell_formula_units_Z   1
loop_
 _symmetry_equiv_pos_site_id
 _symmetry_equiv_pos_as_xyz
  1  'x, y, z'
loop_
 _atom_site_type_symbol
 _atom_site_label
 _atom_site_symmetry_multiplicity
 _atom_site_fract_x
 _atom_site_fract_y
 _atom_site_fract_z
 _atom_site_occupancy
  Sm  Sm0  1  0.66001700  0.66150300  0.33015200  1
  Sm  Sm1  1  0.65850000  0.65999600  0.83009600  1
  Sm  Sm2  1  0.34244300  0.34182900  0.17125200  1
  Sm  Sm3  1  0.34292700  0.34270100  0.67137200  1
  Fe  Fe0  1  0.29403900  0.70608100  0.49975800  1
  Fe  Fe1  1  0.29266400  0.70715700  0.00083700  1
  Fe  Fe2  1  0.70740000  0.00070200  0.14667500  1
  Fe  Fe3  1  0.70687300  0.00012200  0.64553100  1
  Fe  Fe4  1  0.99924900  0.29251300  0.35290600  1
  Fe  Fe5  1  0.99888100  0.29306600  0.85291700  1
  Fe  Fe6  1  0.29287700  0.00124800  0.35357000  1
  Fe  Fe7  1  0.29258500  0.00137100  0.85345200  1
  Fe  Fe8  1  0.99870000  0.70562900  0.14747900  1
  Fe  Fe9  1  0.99960700  0.70644900  0.64617600  1
  Fe  Fe10  1  0.70761500  0.29172800  0.00020900  1
  Fe  Fe11  1  0.70544700  0.29290500  0.49915500  1
  Fe  Fe12  1  0.00055300  0.00207700  0.24916900  1
  Fe  Fe13  1  0.00069700  0.00189000  0.74782200  1
  Fe  Fe14  1  0.00177400  0.49617900  0.50053300  1
  Fe  Fe15  1  0.00050500  0.49771500  0.00112500  1
  Fe  Fe16  1  0.49899300  0.99987600  0.00026300  1
  Fe  Fe17  1  0.49626800  0.00258000  0.50011700  1
  Fe  Fe18  1  0.90379600  0.90409100  0.45195000  1
  Fe  Fe19  1  0.90417800  0.90386000  0.95175900  1
  Fe  Fe20  1  0.09405700  0.09615600  0.04844400  1
  Fe  Fe21  1  0.09415100  0.09685100  0.54656400  1
  Fe  Fe22  1  0.34127600  0.34248100  0.92227700  1
  Fe  Fe23  1  0.34013500  0.84469700  0.17202000  1
  Fe  Fe24  1  0.34192000  0.84366400  0.66983100  1
  Fe  Fe25  1  0.15781600  0.65845300  0.33010500  1
  Fe  Fe26  1  0.15743500  0.65900600  0.82934500  1
  Fe  Fe27  1  0.65774500  0.65754900  0.07847900  1
  Fe  Fe28  1  0.66077500  0.65870500  0.57833600  1
  Fe  Fe29  1  0.65970000  0.15493000  0.33000800  1
  Fe  Fe30  1  0.65767100  0.15602100  0.82844200  1
  Si  Si0  1  0.84530400  0.33943700  0.17050000  1
  Si  Si1  1  0.84647200  0.33940200  0.66850500  1
  Si  Si2  1  0.33895600  0.33938200  0.42286900  1
loop_
_geom_bond_atom_site_label_1
_geom_bond_atom_site_label_2
_geom_bond_distance
_geom_bond_site_symmetry_2
Fe0 Fe17 2.424644 1_565
Fe0 Fe14 2.428699 1_555
Fe0 Fe9 2.481215 1_455
Fe0 Fe6 2.484958 1_565
Fe0 Fe25 2.498626 1_555
Fe0 Fe24 2.509425 1_555
Fe0 Si2 2.625781 1_555
Fe0 Fe28 2.628635 1_555
Fe0 Fe18 2.754047 1_455
Fe0 Fe21 2.762964 1_565
Fe0 Sm0 2.993901 1_555
Fe0 Sm3 3.004779 1_555
Fe1 Fe16 2.418856 1_555
Fe1 Fe15 2.427231 1_555
Fe1 Fe8 2.481136 1_455
Fe1 Fe7 2.490978 1_564
Fe1 Fe26 2.518337 1_554
Fe1 Fe23 2.521699 1_555
Fe1 Fe27 2.612613 1_555
Fe1 Fe22 2.622919 1_554
Fe1 Fe19 2.746107 1_454
Fe1 Fe20 2.753222 1_565
Fe1 Sm2 3.003877 1_555
Fe1 Sm1 3.004089 1_554
Fe2 Fe8 2.480568 1_545
Fe2 Si0 2.504560 1_555
Fe2 Fe27 2.530321 1_545
Fe2 Fe29 2.622295 1_555
Fe2 Fe23 2.628324 1_545
Fe2 Fe20 2.729761 1_655
Fe2 Sm0 3.002255 1_545
Fe2 Sm2 3.003412 1_555
Fe3 Fe9 2.480615 1_545
Fe3 Si1 2.509979 1_555
Fe3 Fe30 2.622014 1_555
Fe3 Sm3 3.006731 1_555
Fe3 Sm1 3.016059 1_545
Fe4 Fe6 2.474197 1_655
Fe4 Si2 2.509813 1_655
Fe4 Si0 2.608514 1_555
Fe4 Sm2 3.001309 1_655
Fe4 Sm0 3.011218 1_555
Fe5 Fe7 2.476329 1_655
Fe5 Si1 2.627818 1_555
Fe5 Sm3 3.004103 1_655
Fe5 Sm1 3.006973 1_555
Fe6 Si2 2.501035 1_555
Fe6 Sm2 2.999269 1_555
Fe6 Sm0 3.005720 1_545
Fe7 Sm3 3.000809 1_555
Fe7 Sm1 3.007049 1_545
Fe8 Si0 2.620006 1_555
Fe8 Sm0 2.988498 1_555
Fe8 Sm2 3.008336 1_655
Fe9 Si1 2.624718 1_555
Fe9 Sm3 3.008147 1_655
Fe9 Sm1 3.010507 1_555
Fe10 Fe15 2.419444 1_655
Fe10 Fe16 2.424676 1_545
Fe10 Fe2 2.469722 1_555
Fe10 Fe5 2.475275 1_554
Fe10 Si0 2.510722 1_555
Fe10 Fe30 2.527414 1_554
Fe10 Fe22 2.621532 1_554
Fe10 Fe27 2.627610 1_555
Fe10 Fe20 2.729357 1_655
Fe10 Fe19 2.745731 1_544
Fe10 Sm2 3.005560 1_555
Fe10 Sm1 3.013740 1_554
Fe11 Fe17 2.416909 1_555
Fe11 Fe14 2.427885 1_655
Fe11 Fe3 2.476412 1_555
Fe11 Fe4 2.477123 1_555
Fe11 Fe29 2.495998 1_555
Fe11 Si1 2.507663 1_555
Fe11 Si2 2.613564 1_555
Fe11 Fe28 2.634491 1_555
Fe11 Fe21 2.740041 1_655
Fe11 Fe18 2.750241 1_545
Fe11 Sm3 3.003737 1_555
Fe11 Sm0 3.004011 1_555
Fe12 Fe4 2.412520 1_455
Fe12 Si0 2.414367 1_455
Fe12 Fe2 2.414563 1_455
Fe12 Fe23 2.420672 1_545
Fe12 Fe6 2.423436 1_555
Fe12 Fe8 2.431578 1_445
Fe12 Fe29 2.433721 1_455
Fe12 Fe25 2.460934 1_545
Fe12 Fe20 2.572083 1_555
Fe12 Fe18 2.603167 1_445
Fe12 Sm2 3.252462 1_555
Fe12 Sm0 3.255735 1_445
Fe13 Si1 2.415804 1_455
Fe13 Fe3 2.416942 1_455
Fe13 Fe9 2.424948 1_445
Fe13 Fe5 2.427182 1_455
Fe13 Fe7 2.431598 1_555
Fe13 Fe24 2.434656 1_545
Fe13 Fe30 2.446512 1_455
Fe13 Fe26 2.458728 1_545
Fe13 Fe21 2.579215 1_555
Fe13 Fe19 2.616809 1_445
Fe13 Sm3 3.256311 1_555
Fe13 Sm1 3.271811 1_445
Fe14 Si1 2.402817 1_455
Fe14 Si2 2.409516 1_555
Fe14 Fe4 2.425257 1_455
Fe14 Fe9 2.426211 1_455
Fe14 Fe25 2.441918 1_555
Fe14 Fe28 2.442628 1_455
Fe14 Fe21 2.561942 1_555
Fe14 Fe18 2.622985 1_455
Fe14 Sm3 3.252997 1_555
Fe14 Sm0 3.262701 1_455
Fe15 Si0 2.420185 1_455
Fe15 Fe8 2.424420 1_455
Fe15 Fe22 2.429465 1_554
Fe15 Fe5 2.434559 1_454
Fe15 Fe27 2.443279 1_455
Fe15 Fe26 2.455248 1_554
Fe15 Fe20 2.578619 1_555
Fe15 Fe19 2.612330 1_454
Fe15 Sm2 3.252206 1_555
Fe15 Sm1 3.266693 1_454
Fe16 Fe7 2.420309 1_564
Fe16 Fe2 2.426645 1_565
Fe16 Fe22 2.443477 1_564
Fe16 Fe27 2.445414 1_555
Fe16 Fe23 2.445547 1_555
Fe16 Fe30 2.447934 1_564
Fe16 Fe20 2.596773 1_565
Fe16 Fe19 2.598612 1_554
Fe16 Sm1 3.252012 1_554
Fe16 Sm2 3.266280 1_565
Fe17 Fe6 2.408145 1_555
Fe17 Si2 2.409802 1_555
Fe17 Fe3 2.421639 1_555
Fe17 Fe24 2.423174 1_545
Fe17 Fe29 2.433167 1_555
Fe17 Fe28 2.466480 1_545
Fe17 Fe21 2.574991 1_555
Fe17 Fe18 2.614289 1_545
Fe17 Sm3 3.257519 1_555
Fe17 Sm0 3.259731 1_545
Fe18 Fe21 2.359573 1_665
Fe18 Fe29 2.605534 1_565
Fe18 Fe28 2.613059 1_555
Fe18 Fe25 2.622056 1_655
Fe18 Fe3 2.736329 1_565
Fe18 Fe9 2.744067 1_555
Fe18 Fe6 2.746956 1_665
Fe18 Fe4 2.748004 1_565
Fe18 Sm0 3.009271 1_555
Fe19 Fe20 2.372760 1_666
Fe19 Fe26 2.621087 1_655
Fe19 Fe30 2.629119 1_565
Fe19 Fe27 2.631513 1_556
Fe19 Fe7 2.743535 1_665
Fe19 Fe5 2.750252 1_565
Fe19 Fe2 2.752420 1_566
Fe19 Fe8 2.759698 1_556
Fe19 Sm1 3.021258 1_555
Fe20 Si0 2.598969 1_455
Fe20 Fe23 2.627377 1_545
Fe20 Fe22 2.631279 1_554
Fe20 Fe7 2.753153 1_554
Fe20 Fe5 2.755997 1_454
Fe20 Fe8 2.759592 1_445
Fe20 Sm2 3.049322 1_555
Fe21 Si1 2.592129 1_455
Fe21 Si2 2.592968 1_555
Fe21 Fe24 2.636605 1_545
Fe21 Fe4 2.732064 1_455
Fe21 Fe6 2.732717 1_555
Fe21 Fe3 2.738518 1_455
Fe21 Fe9 2.759819 1_445
Fe21 Sm3 3.068153 1_555
Fe22 Fe26 2.458916 1_555
Fe22 Fe30 2.469324 1_555
Fe22 Fe7 2.520301 1_555
Fe22 Fe5 2.526451 1_455
Fe22 Sm1 3.073611 1_555
Fe22 Sm2 3.180531 1_556
Fe22 Sm3 3.203303 1_555
Fe23 Fe25 2.451897 1_555
Fe23 Fe27 2.475026 1_555
Fe23 Fe8 2.521927 1_455
Fe23 Fe6 2.608463 1_565
Fe23 Sm0 3.076016 1_555
Fe23 Sm2 3.182673 1_565
Fe23 Sm2 3.218184 1_555
Fe24 Fe28 2.463037 1_555
Fe24 Fe26 2.466312 1_555
Fe24 Fe9 2.518398 1_455
Fe24 Fe3 2.616580 1_565
Fe24 Fe7 2.635887 1_565
Fe24 Sm1 3.080968 1_555
Fe24 Sm3 3.197546 1_565
Fe24 Sm3 3.203365 1_555
Fe25 Si2 2.462087 1_555
Fe25 Fe6 2.518867 1_565
Fe25 Fe8 2.626815 1_455
Fe25 Fe4 2.634347 1_455
Fe25 Sm2 3.074692 1_555
Fe25 Sm0 3.174834 1_455
Fe25 Sm0 3.207920 1_555
Fe26 Fe7 2.518806 1_565
Fe26 Fe9 2.629184 1_455
Fe26 Fe5 2.633851 1_455
Fe26 Sm3 3.066700 1_555
Fe26 Sm1 3.182566 1_455
Fe26 Sm1 3.200114 1_555
Fe27 Si0 2.471396 1_555
Fe27 Fe8 2.513429 1_555
Fe27 Sm2 3.058808 1_555
Fe27 Sm1 3.170046 1_554
Fe27 Sm0 3.219682 1_555
Fe28 Si1 2.461444 1_555
Fe28 Fe9 2.493311 1_555
Fe28 Fe3 2.507875 1_565
Fe28 Sm3 3.072075 1_555
Fe28 Sm0 3.168429 1_555
Fe28 Sm1 3.214958 1_555
Fe29 Si0 2.468948 1_555
Fe29 Si2 2.477724 1_555
Fe29 Fe4 2.500579 1_555
Fe29 Fe6 2.619562 1_555
Fe29 Sm2 3.075127 1_555
Fe29 Sm0 3.157834 1_545
Fe29 Sm0 3.242939 1_555
Fe30 Si1 2.478663 1_555
Fe30 Fe5 2.514234 1_555
Fe30 Fe7 2.611509 1_555
Fe30 Sm3 3.048812 1_555
Fe30 Sm1 3.171725 1_545
Fe30 Sm1 3.229198 1_555
Si0 Sm0 3.106936 1_555
Si0 Sm2 3.176204 1_655
Si0 Sm2 3.206543 1_555
Si1 Sm1 3.121318 1_555
Si1 Sm3 3.176160 1_655
Si1 Sm3 3.207080 1_555
Si2 Sm0 3.112589 1_555
Si2 Sm3 3.180076 1_555
Si2 Sm2 3.209270 1_555
