# generated using pymatgen
data_Sm2SeOF2
_symmetry_space_group_name_H-M   'P 1'
_cell_length_a   13.73023088
_cell_length_b   13.73023088
_cell_length_c   3.84978300
_cell_angle_alpha   90.00000000
_cell_angle_beta   90.00000000
_cell_angle_gamma   120.00000426
_symmetry_Int_Tables_number   1
_chemical_formula_structural   Sm2SeOF2
_chemical_formula_sum   'Sm12 Se6 O6 F12'
_cell_volume   628.52498159
_cell_formula_units_Z   6
loop_
 _symmetry_equiv_pos_site_id
 _symmetry_equiv_pos_as_xyz
  1  'x, y, z'
loop_
 _atom_site_type_symbol
 _atom_site_label
 _atom_site_symmetry_multiplicity
 _atom_site_fract_x
 _atom_site_fract_y
 _atom_site_fract_z
 _atom_site_occupancy
  Sm  Sm0  1  0.39697100  0.88158400  0.75000000  1
  Sm  Sm1  1  0.48461400  0.60302900  0.75000000  1
  Sm  Sm2  1  0.11841600  0.51538600  0.75000000  1
  Sm  Sm3  1  0.60302900  0.11841600  0.25000000  1
  Sm  Sm4  1  0.51538600  0.39697100  0.25000000  1
  Sm  Sm5  1  0.88158400  0.48461400  0.25000000  1
  Sm  Sm6  1  0.05443700  0.76598700  0.75000000  1
  Sm  Sm7  1  0.71154900  0.94556300  0.75000000  1
  Sm  Sm8  1  0.23401300  0.28845100  0.75000000  1
  Sm  Sm9  1  0.94556300  0.23401300  0.25000000  1
  Sm  Sm10  1  0.28845100  0.05443700  0.25000000  1
  Sm  Sm11  1  0.76598700  0.71154900  0.25000000  1
  Se  Se0  1  0.71852000  0.51312400  0.75000000  1
  Se  Se1  1  0.79460300  0.28148000  0.75000000  1
  Se  Se2  1  0.48687600  0.20539700  0.75000000  1
  Se  Se3  1  0.28148000  0.48687600  0.25000000  1
  Se  Se4  1  0.20539700  0.71852000  0.25000000  1
  Se  Se5  1  0.51312400  0.79460300  0.25000000  1
  O  O0  1  0.98520600  0.57300300  0.75000000  1
  O  O1  1  0.58779700  0.01479400  0.75000000  1
  O  O2  1  0.42699700  0.41220300  0.75000000  1
  O  O3  1  0.01479400  0.42699700  0.25000000  1
  O  O4  1  0.41220300  0.98520600  0.25000000  1
  O  O5  1  0.57300300  0.58779700  0.25000000  1
  F  F0  1  0.89223800  0.79183200  0.75000000  1
  F  F1  1  0.89959300  0.10776200  0.75000000  1
  F  F2  1  0.20816800  0.10040700  0.75000000  1
  F  F3  1  0.10776200  0.20816800  0.25000000  1
  F  F4  1  0.10040700  0.89223800  0.25000000  1
  F  F5  1  0.79183200  0.89959300  0.25000000  1
  F  F6  1  0.24690500  0.93179800  0.75000000  1
  F  F7  1  0.68489300  0.75309500  0.75000000  1
  F  F8  1  0.06820200  0.31510700  0.75000000  1
  F  F9  1  0.75309500  0.06820200  0.25000000  1
  F  F10  1  0.31510700  0.24690500  0.25000000  1
  F  F11  1  0.93179800  0.68489300  0.25000000  1
loop_
_geom_bond_atom_site_label_1
_geom_bond_atom_site_label_2
_geom_bond_distance
_geom_bond_site_symmetry_2
Se0 Sm4 3.095081 1_556
Se0 Sm4 3.095081 1_555
Se0 Sm5 3.122108 1_556
Se0 Sm5 3.122108 1_555
Se0 Sm11 3.126794 1_555
Se0 Sm11 3.126794 1_556
Se1 Sm5 3.095081 1_556
Se1 Sm5 3.095081 1_555
Se1 Sm3 3.122108 1_556
Se1 Sm3 3.122108 1_555
Se1 Sm9 3.126815 1_556
Se1 Sm9 3.126815 1_555
Se2 Sm3 3.095081 1_555
Se2 Sm3 3.095081 1_556
Se2 Sm4 3.122108 1_556
Se2 Sm4 3.122108 1_555
Se2 Sm10 3.126800 1_556
Se2 Sm10 3.126800 1_555
Se3 Sm1 3.095081 1_555
Se3 Sm1 3.095081 1_554
Se3 Sm2 3.122108 1_555
Se3 Sm2 3.122108 1_554
Se3 Sm8 3.126794 1_554
Se3 Sm8 3.126794 1_555
Se4 Sm2 3.095081 1_555
Se4 Sm2 3.095081 1_554
Se4 Sm0 3.122108 1_555
Se4 Sm0 3.122108 1_554
Se4 Sm6 3.126815 1_555
Se4 Sm6 3.126815 1_554
Se5 Sm0 3.095081 1_555
Se5 Sm0 3.095081 1_554
Se5 Sm1 3.122108 1_554
Se5 Sm1 3.122108 1_555
Se5 Sm7 3.126800 1_554
Se5 Sm7 3.126800 1_555
O0 Sm6 2.325047 1_655
O0 Sm2 2.327660 1_655
O0 Sm5 2.340002 1_556
O0 Sm5 2.340002 1_555
O1 Sm7 2.325034 1_545
O1 Sm0 2.327650 1_545
O1 Sm3 2.340005 1_556
O1 Sm3 2.340005 1_555
O2 Sm8 2.325044 1_555
O2 Sm1 2.327647 1_555
O2 Sm4 2.339997 1_555
O2 Sm4 2.339997 1_556
O3 Sm9 2.325047 1_455
O3 Sm5 2.327660 1_455
O3 Sm2 2.340002 1_555
O3 Sm2 2.340002 1_554
O4 Sm10 2.325034 1_565
O4 Sm3 2.327650 1_565
O4 Sm0 2.340005 1_555
O4 Sm0 2.340005 1_554
O5 Sm11 2.325044 1_555
O5 Sm4 2.327647 1_555
O5 Sm1 2.339997 1_555
O5 Sm1 2.339997 1_554
F0 Sm6 2.424018 1_655
F0 Sm11 2.452418 1_555
F0 Sm11 2.452418 1_556
F1 Sm7 2.424018 1_545
F1 Sm9 2.452415 1_556
F1 Sm9 2.452415 1_555
F2 Sm8 2.424018 1_555
F2 Sm10 2.452431 1_556
F2 Sm10 2.452431 1_555
F3 Sm9 2.424018 1_455
F3 Sm8 2.452418 1_555
F3 Sm8 2.452418 1_554
F4 Sm10 2.424018 1_565
F4 Sm6 2.452415 1_555
F4 Sm6 2.452415 1_554
F5 Sm11 2.424018 1_555
F5 Sm7 2.452431 1_554
F5 Sm7 2.452431 1_555
F6 Sm10 2.430115 1_565
F6 Sm10 2.430115 1_566
F6 Sm0 2.478170 1_555
F6 Sm6 2.479966 1_555
F7 Sm11 2.430123 1_555
F7 Sm11 2.430123 1_556
F7 Sm1 2.478161 1_555
F7 Sm7 2.479972 1_555
F8 Sm9 2.430117 1_455
F8 Sm9 2.430117 1_456
F8 Sm2 2.478157 1_555
F8 Sm8 2.479958 1_555
F9 Sm7 2.430115 1_544
F9 Sm7 2.430115 1_545
F9 Sm3 2.478170 1_555
F9 Sm9 2.479966 1_555
F10 Sm8 2.430123 1_554
F10 Sm8 2.430123 1_555
F10 Sm4 2.478161 1_555
F10 Sm10 2.479972 1_555
F11 Sm6 2.430117 1_655
F11 Sm6 2.430117 1_654
F11 Sm5 2.478157 1_555
F11 Sm11 2.479958 1_555
