# generated using pymatgen
data_BaZn2Si2O7
_symmetry_space_group_name_H-M   'P 1'
_cell_length_a   7.63947604
_cell_length_b   7.63947604
_cell_length_c   6.82476300
_cell_angle_alpha   90.00000000
_cell_angle_beta   90.00000000
_cell_angle_gamma   119.03067470
_symmetry_Int_Tables_number   1
_chemical_formula_structural   BaZn2Si2O7
_chemical_formula_sum   'Ba2 Zn4 Si4 O14'
_cell_volume   348.26113844
_cell_formula_units_Z   2
loop_
 _symmetry_equiv_pos_site_id
 _symmetry_equiv_pos_as_xyz
  1  'x, y, z'
loop_
 _atom_site_type_symbol
 _atom_site_label
 _atom_site_symmetry_multiplicity
 _atom_site_fract_x
 _atom_site_fract_y
 _atom_site_fract_z
 _atom_site_occupancy
  Ba  Ba0  1  0.26021800  0.26021800  0.62284000  1
  Ba  Ba1  1  0.73978200  0.73978200  0.12284000  1
  Zn  Zn0  1  0.72538400  0.27307700  0.37635400  1
  Zn  Zn1  1  0.27307700  0.72538400  0.37635400  1
  Zn  Zn2  1  0.27461600  0.72692300  0.87635400  1
  Zn  Zn3  1  0.72692300  0.27461600  0.87635400  1
  Si  Si0  1  0.31704400  0.08422000  0.12156300  1
  Si  Si1  1  0.08422000  0.31704400  0.12156300  1
  Si  Si2  1  0.68295600  0.91578000  0.62156300  1
  Si  Si3  1  0.91578000  0.68295600  0.62156300  1
  O  O0  1  0.10675800  0.10675800  0.11985800  1
  O  O1  1  0.89324200  0.89324200  0.61985800  1
  O  O2  1  0.44159400  0.19106400  0.31873100  1
  O  O3  1  0.19106400  0.44159400  0.31873100  1
  O  O4  1  0.55840600  0.80893600  0.81873100  1
  O  O5  1  0.80893600  0.55840600  0.81873100  1
  O  O6  1  0.43758000  0.17631500  0.91807000  1
  O  O7  1  0.17631500  0.43758000  0.91807000  1
  O  O8  1  0.56242000  0.82368500  0.41807000  1
  O  O9  1  0.82368500  0.56242000  0.41807000  1
  O  O10  1  0.22845600  0.83780000  0.12593300  1
  O  O11  1  0.83780000  0.22845600  0.12593300  1
  O  O12  1  0.77154400  0.16220000  0.62593300  1
  O  O13  1  0.16220000  0.77154400  0.62593300  1
loop_
_geom_bond_atom_site_label_1
_geom_bond_atom_site_label_2
_geom_bond_distance
_geom_bond_site_symmetry_2
Ba0 O6 2.673833 1_555
Ba0 O7 2.673833 1_555
Ba0 O2 2.686464 1_555
Ba0 O3 2.686464 1_555
Ba0 O1 2.844551 1_445
Ba1 O8 2.673833 1_555
Ba1 O9 2.673833 1_555
Ba1 O4 2.686464 1_554
Ba1 O5 2.686464 1_554
Ba1 O0 2.844551 1_665
O0 Si1 1.696761 1_555
O0 Si0 1.696761 1_555
O1 Si3 1.696761 1_555
O1 Si2 1.696761 1_555
O2 Si0 1.621269 1_555
O2 Zn0 1.982200 1_555
O3 Si1 1.621269 1_555
O3 Zn1 1.982200 1_555
O4 Si2 1.621269 1_555
O4 Zn2 1.982200 1_555
O5 Si3 1.621269 1_555
O5 Zn3 1.982200 1_555
O6 Si0 1.625695 1_556
O6 Zn3 1.979879 1_555
O7 Si1 1.625695 1_556
O7 Zn2 1.979879 1_555
O8 Si2 1.625695 1_555
O8 Zn1 1.979879 1_555
O9 Si3 1.625695 1_555
O9 Zn0 1.979879 1_555
O10 Si0 1.663211 1_565
O10 Zn2 2.008240 1_554
O10 Zn1 2.014638 1_555
O11 Si1 1.663211 1_655
O11 Zn3 2.008240 1_554
O11 Zn0 2.014638 1_555
O12 Si2 1.663211 1_545
O12 Zn0 2.008240 1_555
O12 Zn3 2.014638 1_555
O13 Si3 1.663211 1_455
O13 Zn1 2.008240 1_555
O13 Zn2 2.014638 1_555
