# generated using pymatgen
data_CaSnP2O7
_symmetry_space_group_name_H-M   'P 1'
_cell_length_a   6.56147200
_cell_length_b   7.03048657
_cell_length_c   7.05787531
_cell_angle_alpha   86.48412765
_cell_angle_beta   88.30216563
_cell_angle_gamma   67.35559154
_symmetry_Int_Tables_number   1
_chemical_formula_structural   CaSnP2O7
_chemical_formula_sum   'Ca2 Sn2 P4 O14'
_cell_volume   299.91178423
_cell_formula_units_Z   2
loop_
 _symmetry_equiv_pos_site_id
 _symmetry_equiv_pos_as_xyz
  1  'x, y, z'
loop_
 _atom_site_type_symbol
 _atom_site_label
 _atom_site_symmetry_multiplicity
 _atom_site_fract_x
 _atom_site_fract_y
 _atom_site_fract_z
 _atom_site_occupancy
  Ca  Ca0  1  0.31210400  0.70460000  0.63335800  1
  Ca  Ca1  1  0.68789600  0.29540000  0.36664200  1
  Sn  Sn0  1  0.26233900  0.11646300  0.14971000  1
  Sn  Sn1  1  0.73766100  0.88353700  0.85029000  1
  P  P0  1  0.18335200  0.66003300  0.14657200  1
  P  P1  1  0.81664800  0.33996700  0.85342800  1
  P  P2  1  0.22239700  0.23292800  0.60350800  1
  P  P3  1  0.77760300  0.76707200  0.39649200  1
  O  O0  1  0.12460500  0.73849600  0.93805200  1
  O  O1  1  0.87539500  0.26150400  0.06194800  1
  O  O2  1  0.22903600  0.81547700  0.26633300  1
  O  O3  1  0.77096400  0.18452300  0.73366700  1
  O  O4  1  0.35758000  0.44173900  0.16686700  1
  O  O5  1  0.64242000  0.55826100  0.83313300  1
  O  O6  1  0.64685300  0.63116000  0.43563400  1
  O  O7  1  0.35314700  0.36884000  0.56436600  1
  O  O8  1  0.09124700  0.21749400  0.42828200  1
  O  O9  1  0.90875300  0.78250600  0.57171800  1
  O  O10  1  0.04428800  0.35267500  0.76267200  1
  O  O11  1  0.64066300  0.98648900  0.31514700  1
  O  O12  1  0.35933700  0.01351100  0.68485300  1
  O  O13  1  0.95571200  0.64732500  0.23732800  1
loop_
_geom_bond_atom_site_label_1
_geom_bond_atom_site_label_2
_geom_bond_distance
_geom_bond_site_symmetry_2
Ca0 O7 2.350651 1_555
Ca0 O12 2.359365 1_565
Ca0 O0 2.423901 1_555
Ca0 O5 2.455634 1_555
Ca0 O6 2.464122 1_555
Ca0 O9 2.533066 1_455
Ca0 O2 2.669049 1_555
Ca1 O6 2.350651 1_555
Ca1 O11 2.359365 1_545
Ca1 O1 2.423901 1_555
Ca1 O4 2.455634 1_555
Ca1 O7 2.464122 1_555
Ca1 O8 2.533066 1_655
Ca1 O3 2.669049 1_555
O0 P0 1.545677 1_556
O0 Sn1 2.427297 1_455
O1 P1 1.545677 1_554
O1 Sn0 2.427297 1_655
O2 P0 1.542461 1_555
O2 Sn0 2.309722 1_565
O3 P1 1.542461 1_555
O3 Sn1 2.309722 1_545
O4 P0 1.521351 1_555
O4 Sn0 2.602643 1_555
O5 P1 1.521351 1_555
O5 Sn1 2.602643 1_555
O6 P3 1.519927 1_555
O7 P2 1.519927 1_555
O8 P2 1.559874 1_555
O8 Sn0 2.248761 1_555
O9 P3 1.559874 1_555
O9 Sn1 2.248761 1_555
O10 P2 1.617732 1_555
O10 P1 1.639611 1_455
O11 P3 1.539885 1_555
O11 Sn0 2.579673 1_565
O12 P2 1.539885 1_555
O12 Sn1 2.579673 1_545
O13 P3 1.617732 1_555
O13 P0 1.639611 1_655
