# generated using pymatgen
data_LiSm3Bi(Ru2O7)2
_symmetry_space_group_name_H-M   'P 1'
_cell_length_a   7.41080081
_cell_length_b   7.41119678
_cell_length_c   7.36414571
_cell_angle_alpha   90.00334253
_cell_angle_beta   59.78649734
_cell_angle_gamma   120.00269552
_symmetry_Int_Tables_number   1
_chemical_formula_structural   LiSm3Bi(Ru2O7)2
_chemical_formula_sum   'Li1 Sm3 Bi1 Ru4 O14'
_cell_volume   285.06691147
_cell_formula_units_Z   1
loop_
 _symmetry_equiv_pos_site_id
 _symmetry_equiv_pos_as_xyz
  1  'x, y, z'
loop_
 _atom_site_type_symbol
 _atom_site_label
 _atom_site_symmetry_multiplicity
 _atom_site_fract_x
 _atom_site_fract_y
 _atom_site_fract_z
 _atom_site_occupancy
  Li  Li0  1  0.99994100  0.99995500  0.00027400  1
  Sm  Sm0  1  0.25021000  0.37627100  0.37353400  1
  Sm  Sm1  1  0.25022300  0.87394100  0.37344700  1
  Sm  Sm2  1  0.75245700  0.37626000  0.37352800  1
  Bi  Bi0  1  0.75110400  0.37546500  0.87337300  1
  Ru  Ru0  1  0.73862400  0.86933800  0.39205700  1
  Ru  Ru1  1  0.26077000  0.86997300  0.86923500  1
  Ru  Ru2  1  0.26072100  0.39073200  0.86931600  1
  Ru  Ru3  1  0.73998200  0.86997000  0.86927500  1
  O  O0  1  0.49547800  0.24774300  0.25668200  1
  O  O1  1  0.00377500  0.50189500  0.49426300  1
  O  O2  1  0.90998200  0.95503200  0.54470500  1
  O  O3  1  0.50024100  0.54532500  0.54471900  1
  O  O4  1  0.50032800  0.95503600  0.54460600  1
  O  O5  1  0.09542500  0.54771300  0.95268600  1
  O  O6  1  0.49960700  0.95192100  0.95279200  1
  O  O7  1  0.49961700  0.54778000  0.95268700  1
  O  O8  1  0.58246800  0.79117600  0.20898800  1
  O  O9  1  0.99978000  0.20855800  0.20901300  1
  O  O10  1  0.99972400  0.79114500  0.20902900  1
  O  O11  1  0.41213900  0.20604500  0.79525500  1
  O  O12  1  0.99872500  0.79269900  0.79526700  1
  O  O13  1  0.99867800  0.20602800  0.79526800  1
loop_
_geom_bond_atom_site_label_1
_geom_bond_atom_site_label_2
_geom_bond_distance
_geom_bond_site_symmetry_2
Li0 O11 2.153163 1_664
Li0 O12 2.153648 1_554
Li0 O13 2.154190 1_564
Li0 O9 2.180084 1_565
Li0 O10 2.180242 1_555
Li0 O8 2.180632 1_555
Li0 Ru0 2.348119 1_555
Li0 Ru2 2.362108 1_664
Li0 Ru1 2.362264 1_654
Li0 Ru3 2.363137 1_554
Bi0 O1 2.272165 1_655
Bi0 O0 2.297331 1_556
Bi0 O13 2.552610 1_555
Bi0 O11 2.552962 1_555
Bi0 O12 2.554030 1_555
Bi0 O6 2.592523 1_545
Bi0 O5 2.593093 1_655
Bi0 O7 2.594243 1_555
O0 Sm0 2.260278 1_555
O0 Sm1 2.260371 1_545
O0 Sm2 2.260430 1_555
O1 Sm2 2.249107 1_455
O1 Sm1 2.249121 1_555
O1 Sm0 2.249166 1_555
O2 Ru3 1.967947 1_555
O2 Ru0 1.977299 1_555
O2 Sm0 2.573333 1_665
O2 Sm1 2.573786 1_655
O3 Ru2 1.968105 1_555
O3 Ru0 1.977383 1_555
O3 Sm0 2.573190 1_555
O3 Sm2 2.573574 1_555
O4 Ru1 1.968159 1_555
O4 Ru0 1.977114 1_555
O4 Sm2 2.573274 1_565
O4 Sm1 2.573407 1_555
O5 Ru1 1.974535 1_555
O5 Ru2 1.974666 1_555
O5 Sm2 2.553852 1_456
O6 Ru3 1.974774 1_555
O6 Ru1 1.975177 1_555
O6 Sm1 2.552604 1_556
O7 Ru3 1.974126 1_555
O7 Ru2 1.974613 1_555
O7 Sm0 2.553929 1_556
O8 Ru3 2.083622 1_554
O8 Ru0 2.095698 1_555
O8 Sm0 2.532190 1_555
O8 Sm1 2.532700 1_555
O9 Ru2 2.083479 1_654
O9 Ru0 2.095660 1_545
O9 Sm0 2.532387 1_655
O9 Sm2 2.532795 1_555
O10 Ru1 2.084019 1_654
O10 Ru0 2.095962 1_555
O10 Sm2 2.532025 1_555
O10 Sm1 2.532131 1_655
O11 Ru1 2.085571 1_545
O11 Ru2 2.085693 1_555
O11 Sm2 2.555920 1_555
O12 Ru3 2.085216 1_555
O12 Ru1 2.085249 1_655
O12 Sm1 2.556687 1_655
O13 Ru3 2.085397 1_545
O13 Ru2 2.085551 1_655
O13 Sm0 2.556145 1_655
