# generated using pymatgen
data_CaYP7O20
_symmetry_space_group_name_H-M   'P 1'
_cell_length_a   12.88698847
_cell_length_b   12.88698847
_cell_length_c   10.70599312
_cell_angle_alpha   73.23604323
_cell_angle_beta   73.23604323
_cell_angle_gamma   30.99720180
_symmetry_Int_Tables_number   1
_chemical_formula_structural   CaYP7O20
_chemical_formula_sum   'Ca2 Y2 P14 O40'
_cell_volume   873.68067859
_cell_formula_units_Z   2
loop_
 _symmetry_equiv_pos_site_id
 _symmetry_equiv_pos_as_xyz
  1  'x, y, z'
loop_
 _atom_site_type_symbol
 _atom_site_label
 _atom_site_symmetry_multiplicity
 _atom_site_fract_x
 _atom_site_fract_y
 _atom_site_fract_z
 _atom_site_occupancy
  Ca  Ca0  1  -0.00000000  -0.00000000  0.00000000  1
  Ca  Ca1  1  -0.00000000  -0.00000000  0.50000000  1
  Y  Y0  1  0.50000000  -0.00000000  0.00000000  1
  Y  Y1  1  -0.00000000  0.50000000  0.50000000  1
  P  P0  1  0.25039002  0.39364042  0.17072165  1
  P  P1  1  0.60635958  0.74960998  0.32927835  1
  P  P2  1  0.74960998  0.60635958  0.82927835  1
  P  P3  1  0.39364042  0.25039002  0.67072165  1
  P  P4  1  0.35761516  0.64238484  0.25000000  1
  P  P5  1  0.64238484  0.35761516  0.75000000  1
  P  P6  1  0.54649737  0.27938005  0.24304999  1
  P  P7  1  0.72061995  0.45350263  0.25695001  1
  P  P8  1  0.45350263  0.72061995  0.75695001  1
  P  P9  1  0.27938005  0.54649737  0.74304999  1
  P  P10  1  0.97995215  0.73953819  0.96296166  1
  P  P11  1  0.26046181  0.02004785  0.53703834  1
  P  P12  1  0.02004785  0.26046181  0.03703834  1
  P  P13  1  0.73953819  0.97995215  0.46296166  1
  O  O0  1  0.15633705  0.56718089  0.85963264  1
  O  O1  1  0.43281911  0.84366295  0.64036736  1
  O  O2  1  0.84366295  0.43281911  0.14036736  1
  O  O3  1  0.56718089  0.15633705  0.35963264  1
  O  O4  1  0.79567086  0.83912353  0.94690268  1
  O  O5  1  0.16087647  0.20432914  0.55309732  1
  O  O6  1  0.20432914  0.16087647  0.05309732  1
  O  O7  1  0.83912353  0.79567086  0.44690268  1
  O  O8  1  0.37795783  0.22993622  0.08975254  1
  O  O9  1  0.77006378  0.62204217  0.41024746  1
  O  O10  1  0.62204217  0.77006378  0.91024746  1
  O  O11  1  0.22993622  0.37795783  0.58975254  1
  O  O12  1  0.60918251  0.81847342  0.19328634  1
  O  O13  1  0.18152658  0.39081749  0.30671366  1
  O  O14  1  0.39081749  0.18152658  0.80671366  1
  O  O15  1  0.81847342  0.60918251  0.69328634  1
  O  O16  1  0.24737943  0.72951503  0.13947509  1
  O  O17  1  0.27048497  0.75262057  0.36052491  1
  O  O18  1  0.75262057  0.27048497  0.86052491  1
  O  O19  1  0.72951503  0.24737943  0.63947509  1
  O  O20  1  0.36841942  0.40063145  0.17217506  1
  O  O21  1  0.59936855  0.63158058  0.32782494  1
  O  O22  1  0.63158058  0.59936855  0.82782494  1
  O  O23  1  0.40063145  0.36841942  0.67217506  1
  O  O24  1  0.45605332  0.44012878  0.31233102  1
  O  O25  1  0.55987122  0.54394668  0.18766898  1
  O  O26  1  0.54394668  0.55987122  0.68766898  1
  O  O27  1  0.44012878  0.45605332  0.81233102  1
  O  O28  1  0.72969539  0.15991467  0.15764636  1
  O  O29  1  0.84008533  0.27030461  0.34235364  1
  O  O30  1  0.27030461  0.84008533  0.84235364  1
  O  O31  1  0.15991467  0.72969539  0.65764636  1
  O  O32  1  0.05804730  0.60596254  0.09960927  1
  O  O33  1  0.39403746  0.94195270  0.40039073  1
  O  O34  1  0.94195270  0.39403746  0.90039073  1
  O  O35  1  0.60596254  0.05804730  0.59960927  1
  O  O36  1  0.97804798  0.85715931  0.95157070  1
  O  O37  1  0.14284069  0.02195202  0.54842930  1
  O  O38  1  0.02195202  0.14284069  0.04842930  1
  O  O39  1  0.85715931  0.97804798  0.45157070  1
loop_
_geom_bond_atom_site_label_1
_geom_bond_atom_site_label_2
_geom_bond_distance
_geom_bond_site_symmetry_2
Ca0 O16 2.288179 1_545
Ca0 O18 2.288179 1_454
Ca0 O36 2.294622 1_444
Ca0 O38 2.294622 1_555
Ca0 O28 2.353213 1_455
Ca0 O30 2.353213 1_544
Ca1 O17 2.288179 1_545
Ca1 O19 2.288179 1_455
Ca1 O39 2.294622 1_445
Ca1 O37 2.294622 1_555
Ca1 O31 2.353213 1_545
Ca1 O29 2.353213 1_455
O0 P9 1.571254 1_555
O0 P10 1.623383 1_455
O1 P8 1.571254 1_555
O1 P11 1.623383 1_565
O2 P7 1.571254 1_555
O2 P12 1.623383 1_655
O3 P6 1.571254 1_555
O3 P13 1.623383 1_545
O4 P10 1.483109 1_555
O4 Y0 2.242153 1_566
O5 P11 1.483109 1_555
O5 Y1 2.242153 1_555
O6 P12 1.483109 1_555
O6 Y0 2.242153 1_555
O7 P13 1.483109 1_555
O7 Y1 2.242153 1_655
O8 P0 1.480453 1_555
O8 Y0 2.226744 1_555
O9 P1 1.480453 1_555
O9 Y1 2.226744 1_655
O10 P2 1.480453 1_555
O10 Y0 2.226744 1_566
O11 P3 1.480453 1_555
O11 Y1 2.226744 1_555
O12 P1 1.479212 1_555
O12 Y0 2.231253 1_565
O13 P0 1.479212 1_555
O13 Y1 2.231253 1_555
O14 P3 1.479212 1_555
O14 Y0 2.231253 1_556
O15 P2 1.479212 1_555
O15 Y1 2.231253 1_655
O16 P4 1.465486 1_555
O17 P4 1.465486 1_555
O18 P5 1.465486 1_555
O19 P5 1.465486 1_555
O20 P6 1.567416 1_555
O20 P0 1.603536 1_555
O21 P7 1.567416 1_555
O21 P1 1.603536 1_555
O22 P8 1.567416 1_555
O22 P2 1.603536 1_555
O23 P9 1.567416 1_555
O23 P3 1.603536 1_555
O24 P6 1.564703 1_555
O24 P4 1.632376 1_555
O25 P7 1.564703 1_555
O25 P4 1.632376 1_555
O26 P8 1.564703 1_555
O26 P5 1.632376 1_555
O27 P9 1.564703 1_555
O27 P5 1.632376 1_555
O28 P6 1.454473 1_555
O29 P7 1.454473 1_555
O30 P8 1.454473 1_555
O31 P9 1.454473 1_555
O32 P0 1.571608 1_555
O32 P10 1.594627 1_454
O33 P1 1.571608 1_555
O33 P11 1.594627 1_565
O34 P2 1.571608 1_555
O34 P12 1.594627 1_656
O35 P3 1.571608 1_555
O35 P13 1.594627 1_545
O36 P10 1.464375 1_555
O37 P11 1.464375 1_555
O38 P12 1.464375 1_555
O39 P13 1.464375 1_555
