# generated using pymatgen
data_YCu6ClO8
_symmetry_space_group_name_H-M   'P 1'
_cell_length_a   6.57084492
_cell_length_b   6.57084492
_cell_length_c   6.57084492
_cell_angle_alpha   60.00000000
_cell_angle_beta   60.00000000
_cell_angle_gamma   60.00000000
_symmetry_Int_Tables_number   1
_chemical_formula_structural   YCu6ClO8
_chemical_formula_sum   'Y1 Cu6 Cl1 O8'
_cell_volume   200.60818754
_cell_formula_units_Z   1
loop_
 _symmetry_equiv_pos_site_id
 _symmetry_equiv_pos_as_xyz
  1  'x, y, z'
loop_
 _atom_site_type_symbol
 _atom_site_label
 _atom_site_symmetry_multiplicity
 _atom_site_fract_x
 _atom_site_fract_y
 _atom_site_fract_z
 _atom_site_occupancy
  Y  Y0  1  0.00000000  0.00000000  0.00000000  1
  Cu  Cu0  1  0.00000000  0.00000000  0.50000000  1
  Cu  Cu1  1  0.50000000  0.00000000  0.50000000  1
  Cu  Cu2  1  0.00000000  0.50000000  0.50000000  1
  Cu  Cu3  1  0.50000000  0.50000000  0.00000000  1
  Cu  Cu4  1  0.00000000  0.50000000  0.00000000  1
  Cu  Cu5  1  0.50000000  0.00000000  0.00000000  1
  Cl  Cl0  1  0.50000000  0.50000000  0.50000000  1
  O  O0  1  0.85550300  0.85550300  0.43349100  1
  O  O1  1  0.85550300  0.43349100  0.85550300  1
  O  O2  1  0.43349100  0.85550300  0.85550300  1
  O  O3  1  0.85550300  0.85550300  0.85550300  1
  O  O4  1  0.14449700  0.14449700  0.56650900  1
  O  O5  1  0.14449700  0.56650900  0.14449700  1
  O  O6  1  0.56650900  0.14449700  0.14449700  1
  O  O7  1  0.14449700  0.14449700  0.14449700  1
loop_
_geom_bond_atom_site_label_1
_geom_bond_atom_site_label_2
_geom_bond_distance
_geom_bond_site_symmetry_2
Cu0 O4 1.930110 1_555
Cu0 O7 1.930110 1_555
Cu0 O3 1.930110 1_445
Cu0 O0 1.930110 1_445
Cu1 O2 1.930110 1_545
Cu1 O0 1.930110 1_545
Cu1 O6 1.930110 1_555
Cu1 O4 1.930110 1_555
Cu2 O1 1.930110 1_455
Cu2 O0 1.930110 1_455
Cu2 O5 1.930110 1_555
Cu2 O4 1.930110 1_555
Cu3 O1 1.930110 1_554
Cu3 O2 1.930110 1_554
Cu3 O5 1.930110 1_555
Cu3 O6 1.930110 1_555
Cu4 O5 1.930110 1_555
Cu4 O7 1.930110 1_555
Cu4 O3 1.930110 1_454
Cu4 O1 1.930110 1_454
Cu5 O6 1.930110 1_555
Cu5 O3 1.930110 1_544
Cu5 O7 1.930110 1_555
Cu5 O2 1.930110 1_544
O0 Y0 2.325711 1_665
O1 Y0 2.325711 1_656
O2 Y0 2.325711 1_566
O3 Y0 2.325711 1_666
O4 Y0 2.325711 1_556
O5 Y0 2.325711 1_565
O6 Y0 2.325711 1_655
O7 Y0 2.325711 1_555
