# generated using pymatgen
data_Ba2Sm(CuO2)4
_symmetry_space_group_name_H-M   'P 1'
_cell_length_a   13.95306247
_cell_length_b   13.95306247
_cell_length_c   3.92856600
_cell_angle_alpha   90.00000000
_cell_angle_beta   90.00000000
_cell_angle_gamma   163.90848573
_symmetry_Int_Tables_number   1
_chemical_formula_structural   Ba2Sm(CuO2)4
_chemical_formula_sum   'Ba2 Sm1 Cu4 O8'
_cell_volume   211.99374302
_cell_formula_units_Z   1
loop_
 _symmetry_equiv_pos_site_id
 _symmetry_equiv_pos_as_xyz
  1  'x, y, z'
loop_
 _atom_site_type_symbol
 _atom_site_label
 _atom_site_symmetry_multiplicity
 _atom_site_fract_x
 _atom_site_fract_y
 _atom_site_fract_z
 _atom_site_occupancy
  Ba  Ba0  1  0.63564800  0.36435200  0.50000000  1
  Ba  Ba1  1  0.36435200  0.63564800  0.50000000  1
  Sm  Sm0  1  0.50000000  0.50000000  0.50000000  1
  Cu  Cu0  1  0.93792700  0.06207300  0.00000000  1
  Cu  Cu1  1  0.06207300  0.93792700  0.00000000  1
  Cu  Cu2  1  0.78746800  0.21253200  0.00000000  1
  Cu  Cu3  1  0.21253200  0.78746800  0.00000000  1
  O  O0  1  0.85425500  0.14574500  0.00000000  1
  O  O1  1  0.14574500  0.85425500  0.00000000  1
  O  O2  1  0.55382000  0.44618000  0.00000000  1
  O  O3  1  0.44618000  0.55382000  0.00000000  1
  O  O4  1  0.71909300  0.28090700  0.00000000  1
  O  O5  1  0.28090700  0.71909300  0.00000000  1
  O  O6  1  0.94600500  0.05399500  0.50000000  1
  O  O7  1  0.05399500  0.94600500  0.50000000  1
loop_
_geom_bond_atom_site_label_1
_geom_bond_atom_site_label_2
_geom_bond_distance
_geom_bond_site_symmetry_2
Ba0 O1 2.783911 1_656
Ba0 O1 2.783911 1_655
Ba0 O1 2.783911 1_546
Ba0 O1 2.783911 1_545
Ba0 O7 2.984009 1_655
Ba0 O7 2.984009 1_545
Ba0 O2 2.995103 1_555
Ba0 O2 2.995103 1_556
Ba0 O4 3.028974 1_555
Ba0 O4 3.028974 1_556
Ba1 O0 2.783911 1_566
Ba1 O0 2.783911 1_565
Ba1 O0 2.783911 1_455
Ba1 O0 2.783911 1_456
Ba1 O6 2.984009 1_565
Ba1 O6 2.984009 1_455
Ba1 O3 2.995103 1_556
Ba1 O3 2.995103 1_555
Ba1 O5 3.028974 1_555
Ba1 O5 3.028974 1_556
Cu0 O3 1.966194 1_545
Cu0 O3 1.966194 1_655
Cu0 O6 1.976924 1_555
Cu0 O6 1.976924 1_554
Cu0 O0 2.311977 1_555
Cu1 O2 1.966194 1_455
Cu1 O2 1.966194 1_565
Cu1 O7 1.976924 1_555
Cu1 O7 1.976924 1_554
Cu1 O1 2.311977 1_555
Cu2 O0 1.845421 1_555
Cu2 O4 1.889299 1_555
Cu2 O5 1.961322 1_655
Cu2 O5 1.961322 1_545
Cu3 O1 1.845421 1_555
Cu3 O5 1.889299 1_555
Cu3 O4 1.961322 1_565
Cu3 O4 1.961322 1_455
O2 Sm0 2.463726 1_555
O2 Sm0 2.463726 1_554
O3 Sm0 2.463726 1_555
O3 Sm0 2.463726 1_554
O6 Sm0 2.457612 1_545
O6 Sm0 2.457612 1_655
O7 Sm0 2.457612 1_455
O7 Sm0 2.457612 1_565
