# generated using pymatgen
data_HgNO3
_symmetry_space_group_name_H-M   'P 1'
_cell_length_a   9.83096500
_cell_length_b   9.83096500
_cell_length_c   9.83096500
_cell_angle_alpha   90.00000000
_cell_angle_beta   90.00000000
_cell_angle_gamma   90.00000000
_symmetry_Int_Tables_number   1
_chemical_formula_structural   HgNO3
_chemical_formula_sum   'Hg12 N12 O36'
_cell_volume   950.14185513
_cell_formula_units_Z   12
loop_
 _symmetry_equiv_pos_site_id
 _symmetry_equiv_pos_as_xyz
  1  'x, y, z'
loop_
 _atom_site_type_symbol
 _atom_site_label
 _atom_site_symmetry_multiplicity
 _atom_site_fract_x
 _atom_site_fract_y
 _atom_site_fract_z
 _atom_site_occupancy
  Hg  Hg0  1  0.90618100  0.84381900  0.37500000  1
  Hg  Hg1  1  0.59381900  0.15618100  0.87500000  1
  Hg  Hg2  1  0.09381900  0.34381900  0.12500000  1
  Hg  Hg3  1  0.40618100  0.65618100  0.62500000  1
  Hg  Hg4  1  0.84381900  0.37500000  0.90618100  1
  Hg  Hg5  1  0.15618100  0.87500000  0.59381900  1
  Hg  Hg6  1  0.34381900  0.12500000  0.09381900  1
  Hg  Hg7  1  0.65618100  0.62500000  0.40618100  1
  Hg  Hg8  1  0.37500000  0.90618100  0.84381900  1
  Hg  Hg9  1  0.87500000  0.59381900  0.15618100  1
  Hg  Hg10  1  0.12500000  0.09381900  0.34381900  1
  Hg  Hg11  1  0.62500000  0.40618100  0.65618100  1
  N  N0  1  0.16414800  0.58585200  0.37500000  1
  N  N1  1  0.33585200  0.41414800  0.87500000  1
  N  N2  1  0.83585200  0.08585200  0.12500000  1
  N  N3  1  0.66414800  0.91414800  0.62500000  1
  N  N4  1  0.58585200  0.37500000  0.16414800  1
  N  N5  1  0.41414800  0.87500000  0.33585200  1
  N  N6  1  0.08585200  0.12500000  0.83585200  1
  N  N7  1  0.91414800  0.62500000  0.66414800  1
  N  N8  1  0.37500000  0.16414800  0.58585200  1
  N  N9  1  0.87500000  0.33585200  0.41414800  1
  N  N10  1  0.12500000  0.83585200  0.08585200  1
  N  N11  1  0.62500000  0.66414800  0.91414800  1
  O  O0  1  0.25312100  0.49687900  0.37500000  1
  O  O1  1  0.24687900  0.50312100  0.87500000  1
  O  O2  1  0.74687900  0.99687900  0.12500000  1
  O  O3  1  0.75312100  0.00312100  0.62500000  1
  O  O4  1  0.49687900  0.37500000  0.25312100  1
  O  O5  1  0.50312100  0.87500000  0.24687900  1
  O  O6  1  0.99687900  0.12500000  0.74687900  1
  O  O7  1  0.00312100  0.62500000  0.75312100  1
  O  O8  1  0.37500000  0.25312100  0.49687900  1
  O  O9  1  0.87500000  0.24687900  0.50312100  1
  O  O10  1  0.12500000  0.74687900  0.99687900  1
  O  O11  1  0.62500000  0.75312100  0.00312100  1
  O  O12  1  0.11336900  0.62817700  0.26271200  1
  O  O13  1  0.38663100  0.37182300  0.76271200  1
  O  O14  1  0.88663100  0.12817700  0.23728800  1
  O  O15  1  0.61336900  0.87182300  0.73728800  1
  O  O16  1  0.62817700  0.26271200  0.11336900  1
  O  O17  1  0.37182300  0.76271200  0.38663100  1
  O  O18  1  0.12817700  0.23728800  0.88663100  1
  O  O19  1  0.87182300  0.73728800  0.61336900  1
  O  O20  1  0.26271200  0.11336900  0.62817700  1
  O  O21  1  0.76271200  0.38663100  0.37182300  1
  O  O22  1  0.23728800  0.88663100  0.12817700  1
  O  O23  1  0.73728800  0.61336900  0.87182300  1
  O  O24  1  0.63663100  0.48728800  0.12182300  1
  O  O25  1  0.36336900  0.98728800  0.37817700  1
  O  O26  1  0.86336900  0.51271200  0.62182300  1
  O  O27  1  0.13663100  0.01271200  0.87817700  1
  O  O28  1  0.12182300  0.63663100  0.48728800  1
  O  O29  1  0.37817700  0.36336900  0.98728800  1
  O  O30  1  0.62182300  0.86336900  0.51271200  1
  O  O31  1  0.87817700  0.13663100  0.01271200  1
  O  O32  1  0.48728800  0.12182300  0.63663100  1
  O  O33  1  0.98728800  0.37817700  0.36336900  1
  O  O34  1  0.51271200  0.62182300  0.86336900  1
  O  O35  1  0.01271200  0.87817700  0.13663100  1
loop_
_geom_bond_atom_site_label_1
_geom_bond_atom_site_label_2
_geom_bond_distance
_geom_bond_site_symmetry_2
Hg0 O19 2.588908 1_555
Hg0 O35 2.588908 1_655
Hg1 O32 2.588908 1_555
Hg1 O16 2.588908 1_556
Hg2 O33 2.588908 1_455
Hg2 O18 2.588908 1_554
Hg3 O17 2.588908 1_555
Hg3 O34 2.588908 1_555
Hg4 O31 2.588908 1_556
Hg4 O23 2.588908 1_555
Hg5 O20 2.588908 1_565
Hg5 O28 2.588908 1_555
Hg6 O29 2.588908 1_554
Hg6 O22 2.588908 1_545
Hg7 O21 2.588908 1_555
Hg7 O30 2.588908 1_555
Hg8 O27 2.588908 1_565
Hg8 O15 2.588908 1_555
Hg9 O24 2.588908 1_555
Hg9 O12 2.588908 1_655
Hg10 O25 2.588908 1_545
Hg10 O14 2.588908 1_455
Hg11 O13 2.588908 1_555
Hg11 O26 2.588908 1_555
N0 O0 1.236999 1_555
N0 O28 1.280990 1_555
N0 O12 1.280990 1_555
N1 O1 1.236999 1_555
N1 O13 1.280990 1_555
N1 O29 1.280990 1_555
N2 O2 1.236999 1_545
N2 O14 1.280990 1_555
N2 O31 1.280990 1_555
N3 O3 1.236999 1_565
N3 O30 1.280990 1_555
N3 O15 1.280990 1_555
N4 O4 1.236999 1_555
N4 O24 1.280990 1_555
N4 O16 1.280990 1_555
N5 O5 1.236999 1_555
N5 O17 1.280990 1_555
N5 O25 1.280990 1_555
N6 O6 1.236999 1_455
N6 O18 1.280990 1_555
N6 O27 1.280990 1_555
N7 O7 1.236999 1_655
N7 O19 1.280990 1_555
N7 O26 1.280990 1_555
N8 O8 1.236999 1_555
N8 O32 1.280990 1_555
N8 O20 1.280990 1_555
N9 O9 1.236999 1_555
N9 O21 1.280990 1_555
N9 O33 1.280990 1_555
N10 O10 1.236999 1_554
N10 O22 1.280990 1_555
N10 O35 1.280990 1_555
N11 O11 1.236999 1_556
N11 O34 1.280990 1_555
N11 O23 1.280990 1_555
