# generated using pymatgen
data_AlSb(WO4)2
_symmetry_space_group_name_H-M   'P 1'
_cell_length_a   5.07966684
_cell_length_b   5.39012264
_cell_length_c   6.84197158
_cell_angle_alpha   117.28612622
_cell_angle_beta   119.55156812
_cell_angle_gamma   82.10908728
_symmetry_Int_Tables_number   1
_chemical_formula_structural   AlSb(WO4)2
_chemical_formula_sum   'Al1 Sb1 W2 O8'
_cell_volume   143.87146686
_cell_formula_units_Z   1
loop_
 _symmetry_equiv_pos_site_id
 _symmetry_equiv_pos_as_xyz
  1  'x, y, z'
loop_
 _atom_site_type_symbol
 _atom_site_label
 _atom_site_symmetry_multiplicity
 _atom_site_fract_x
 _atom_site_fract_y
 _atom_site_fract_z
 _atom_site_occupancy
  Al  Al0  1  0.62897600  0.77043800  0.05592400  1
  Sb  Sb0  1  0.14946800  0.30123000  0.15204900  1
  W  W0  1  0.89643000  0.40012600  0.63157100  1
  W  W1  1  0.40480300  0.98801200  0.57493400  1
  O  O0  1  0.21684800  0.67374000  0.89588000  1
  O  O1  1  0.55976900  0.59765100  0.43873200  1
  O  O2  1  0.14144100  0.11841400  0.73363300  1
  O  O3  1  0.57255400  0.04958100  0.34409100  1
  O  O4  1  0.65253600  0.92892400  0.88157900  1
  O  O5  1  0.01202700  0.71327200  0.26862400  1
  O  O6  1  0.10063500  0.25572200  0.41713600  1
  O  O7  1  0.66051200  0.38139100  0.80194400  1
loop_
_geom_bond_atom_site_label_1
_geom_bond_atom_site_label_2
_geom_bond_distance
_geom_bond_site_symmetry_2
Al0 O4 1.808369 1_554
Al0 O0 1.835326 1_554
Al0 O5 1.858001 1_655
Al0 O3 1.988064 1_565
Al0 O7 2.069797 1_554
O0 W0 1.845233 1_455
O1 W0 2.088360 1_555
O1 W1 2.094352 1_555
O1 Sb0 2.180003 1_555
O2 W1 1.984348 1_545
O2 W0 1.984525 1_455
O2 Sb0 2.545123 1_556
O3 W0 2.097520 1_555
O3 W1 2.283990 1_545
O3 Sb0 2.496659 1_555
O4 W1 1.996282 1_555
O4 Sb0 2.683599 1_666
O5 W1 2.099295 1_555
O5 Sb0 2.134384 1_555
O6 W0 2.016641 1_455
O6 Sb0 2.068738 1_555
O6 W1 2.192231 1_545
O7 W0 2.079488 1_555
O7 W1 2.083780 1_545
O7 Sb0 2.622819 1_656
