# generated using pymatgen
data_Mn4Be3Si3TeO12
_symmetry_space_group_name_H-M   'P 1'
_cell_length_a   8.52584200
_cell_length_b   8.52584200
_cell_length_c   8.52584200
_cell_angle_alpha   90.00000000
_cell_angle_beta   90.00000000
_cell_angle_gamma   90.00000000
_symmetry_Int_Tables_number   1
_chemical_formula_structural   Mn4Be3Si3TeO12
_chemical_formula_sum   'Mn8 Be6 Si6 Te2 O24'
_cell_volume   619.74329989
_cell_formula_units_Z   2
loop_
 _symmetry_equiv_pos_site_id
 _symmetry_equiv_pos_as_xyz
  1  'x, y, z'
loop_
 _atom_site_type_symbol
 _atom_site_label
 _atom_site_symmetry_multiplicity
 _atom_site_fract_x
 _atom_site_fract_y
 _atom_site_fract_z
 _atom_site_occupancy
  Mn  Mn0  1  0.68797400  0.68797400  0.68797400  1
  Mn  Mn1  1  0.18797400  0.18797400  0.18797400  1
  Mn  Mn2  1  0.81202600  0.81202600  0.18797400  1
  Mn  Mn3  1  0.31202600  0.31202600  0.68797400  1
  Mn  Mn4  1  0.68797400  0.31202600  0.31202600  1
  Mn  Mn5  1  0.81202600  0.18797400  0.81202600  1
  Mn  Mn6  1  0.18797400  0.81202600  0.81202600  1
  Mn  Mn7  1  0.31202600  0.68797400  0.31202600  1
  Be  Be0  1  0.25000000  0.50000000  0.00000000  1
  Be  Be1  1  0.50000000  0.00000000  0.75000000  1
  Be  Be2  1  0.50000000  0.00000000  0.25000000  1
  Be  Be3  1  0.00000000  0.25000000  0.50000000  1
  Be  Be4  1  0.00000000  0.75000000  0.50000000  1
  Be  Be5  1  0.75000000  0.50000000  0.00000000  1
  Si  Si0  1  0.75000000  0.00000000  0.50000000  1
  Si  Si1  1  0.25000000  0.00000000  0.50000000  1
  Si  Si2  1  0.00000000  0.50000000  0.75000000  1
  Si  Si3  1  0.00000000  0.50000000  0.25000000  1
  Si  Si4  1  0.50000000  0.25000000  0.00000000  1
  Si  Si5  1  0.50000000  0.75000000  0.00000000  1
  Te  Te0  1  0.00000000  0.00000000  0.00000000  1
  Te  Te1  1  0.50000000  0.50000000  0.50000000  1
  O  O0  1  0.64460200  0.92727600  0.64455500  1
  O  O1  1  0.64460200  0.07272400  0.35544500  1
  O  O2  1  0.92727600  0.64455500  0.64460200  1
  O  O3  1  0.07272400  0.64455500  0.35539800  1
  O  O4  1  0.64455500  0.64460200  0.92727600  1
  O  O5  1  0.35544500  0.35539800  0.92727600  1
  O  O6  1  0.85539800  0.85544500  0.42727600  1
  O  O7  1  0.85539800  0.14455500  0.57272400  1
  O  O8  1  0.14460200  0.85544500  0.57272400  1
  O  O9  1  0.14455500  0.57272400  0.85539800  1
  O  O10  1  0.57272400  0.14460200  0.85544500  1
  O  O11  1  0.57272400  0.85539800  0.14455500  1
  O  O12  1  0.85544500  0.42727600  0.85539800  1
  O  O13  1  0.42727600  0.85539800  0.85544500  1
  O  O14  1  0.14460200  0.14455500  0.42727600  1
  O  O15  1  0.35539800  0.92727600  0.35544500  1
  O  O16  1  0.35539800  0.07272400  0.64455500  1
  O  O17  1  0.07272400  0.35544500  0.64460200  1
  O  O18  1  0.92727600  0.35544500  0.35539800  1
  O  O19  1  0.64455500  0.35539800  0.07272400  1
  O  O20  1  0.35544500  0.64460200  0.07272400  1
  O  O21  1  0.42727600  0.14460200  0.14455500  1
  O  O22  1  0.14455500  0.42727600  0.14460200  1
  O  O23  1  0.85544500  0.57272400  0.14460200  1
loop_
_geom_bond_atom_site_label_1
_geom_bond_atom_site_label_2
_geom_bond_distance
_geom_bond_site_symmetry_2
Mn0 O0 2.106276 1_555
Mn0 O2 2.106276 1_555
Mn0 O4 2.106276 1_555
Mn0 Te1 2.775848 1_555
Mn1 O22 2.106276 1_555
Mn1 O14 2.106276 1_555
Mn1 O21 2.106276 1_555
Mn1 Te0 2.775848 1_555
Mn2 O6 2.106276 1_555
Mn2 O23 2.106276 1_555
Mn2 O11 2.106276 1_555
Mn2 Te0 2.775848 1_665
Mn3 O16 2.106276 1_555
Mn3 O5 2.106276 1_555
Mn3 O17 2.106276 1_555
Mn3 Te1 2.775848 1_555
Mn4 O18 2.106276 1_555
Mn4 O19 2.106276 1_555
Mn4 O1 2.106276 1_555
Mn4 Te1 2.775848 1_555
Mn5 O12 2.106276 1_555
Mn5 O10 2.106276 1_555
Mn5 O7 2.106276 1_555
Mn5 Te0 2.775848 1_656
Mn6 O13 2.106276 1_555
Mn6 O8 2.106276 1_555
Mn6 O9 2.106276 1_555
Mn6 Te0 2.775848 1_566
Mn7 O20 2.106276 1_555
Mn7 O3 2.106276 1_555
Mn7 O15 2.106276 1_555
Mn7 Te1 2.775848 1_555
Be0 O9 1.646992 1_554
Be0 O5 1.646992 1_554
Be0 O20 1.646992 1_555
Be0 O22 1.646992 1_555
Be1 O13 1.646992 1_545
Be1 O16 1.646992 1_555
Be1 O0 1.646992 1_545
Be1 O10 1.646992 1_555
Be2 O21 1.646992 1_555
Be2 O1 1.646992 1_555
Be2 O15 1.646992 1_545
Be2 O11 1.646992 1_545
Be3 O7 1.646992 1_455
Be3 O14 1.646992 1_555
Be3 O17 1.646992 1_555
Be3 O18 1.646992 1_455
Be4 O2 1.646992 1_455
Be4 O8 1.646992 1_555
Be4 O6 1.646992 1_455
Be4 O3 1.646992 1_555
Be5 O19 1.646992 1_555
Be5 O23 1.646992 1_555
Be5 O4 1.646992 1_554
Be5 O12 1.646992 1_554
O0 Si0 1.646474 1_565
O1 Si0 1.646474 1_555
O2 Si2 1.646474 1_655
O3 Si3 1.646474 1_555
O4 Si5 1.646474 1_556
O5 Si4 1.646474 1_556
O6 Si0 1.646474 1_565
O7 Si0 1.646474 1_555
O8 Si1 1.646474 1_565
O9 Si2 1.646474 1_555
O10 Si4 1.646474 1_556
O11 Si5 1.646474 1_555
O12 Si2 1.646474 1_655
O13 Si5 1.646474 1_556
O14 Si1 1.646474 1_555
O15 Si1 1.646474 1_565
O16 Si1 1.646474 1_555
O17 Si2 1.646474 1_555
O18 Si3 1.646474 1_655
O19 Si4 1.646474 1_555
O20 Si5 1.646474 1_555
O21 Si4 1.646474 1_555
O22 Si3 1.646474 1_555
O23 Si3 1.646474 1_655
