# generated using pymatgen
data_ZrCo3
_symmetry_space_group_name_H-M   'P 1'
_cell_length_a   5.36556200
_cell_length_b   5.36556200
_cell_length_c   4.21575900
_cell_angle_alpha   90.00000000
_cell_angle_beta   90.00000000
_cell_angle_gamma   120.00000003
_symmetry_Int_Tables_number   1
_chemical_formula_structural   ZrCo3
_chemical_formula_sum   'Zr2 Co6'
_cell_volume   105.10825909
_cell_formula_units_Z   2
loop_
 _symmetry_equiv_pos_site_id
 _symmetry_equiv_pos_as_xyz
  1  'x, y, z'
loop_
 _atom_site_type_symbol
 _atom_site_label
 _atom_site_symmetry_multiplicity
 _atom_site_fract_x
 _atom_site_fract_y
 _atom_site_fract_z
 _atom_site_occupancy
  Zr  Zr0  1  0.33333300  0.66666700  0.75000000  1
  Zr  Zr1  1  0.66666700  0.33333300  0.25000000  1
  Co  Co0  1  0.15142100  0.30284200  0.25000000  1
  Co  Co1  1  0.69715800  0.84857900  0.25000000  1
  Co  Co2  1  0.15142100  0.84857900  0.25000000  1
  Co  Co3  1  0.84857900  0.69715800  0.75000000  1
  Co  Co4  1  0.30284200  0.15142100  0.75000000  1
  Co  Co5  1  0.84857900  0.15142100  0.75000000  1
loop_
_geom_bond_atom_site_label_1
_geom_bond_atom_site_label_2
_geom_bond_distance
_geom_bond_site_symmetry_2
Co0 Co1 2.437376 1_445
Co0 Co2 2.437376 1_545
Co0 Co5 2.534447 1_455
Co0 Co5 2.534447 1_454
Co0 Co4 2.534447 1_555
Co0 Co4 2.534447 1_554
Co0 Zr1 2.686517 1_455
Co0 Zr1 2.686522 1_555
Co0 Zr0 2.702083 1_555
Co0 Zr0 2.702083 1_554
Co0 Co1 2.928186 1_555
Co0 Co2 2.928186 1_555
Co1 Co2 2.437376 1_655
Co1 Co5 2.534447 1_564
Co1 Co5 2.534447 1_565
Co1 Co3 2.534447 1_554
Co1 Co3 2.534447 1_555
Co1 Zr1 2.686517 1_565
Co1 Zr1 2.686522 1_555
Co1 Zr0 2.702083 1_555
Co1 Zr0 2.702083 1_554
Co1 Co2 2.928186 1_555
Co2 Co4 2.534447 1_565
Co2 Co3 2.534447 1_454
Co2 Co3 2.534447 1_455
Co2 Co4 2.534447 1_564
Co2 Zr1 2.686520 1_455
Co2 Zr1 2.686520 1_565
Co2 Zr0 2.702080 1_554
Co2 Zr0 2.702080 1_555
Co3 Co4 2.437376 1_665
Co3 Co5 2.437376 1_565
Co3 Zr0 2.686517 1_655
Co3 Zr0 2.686522 1_555
Co3 Zr1 2.702083 1_556
Co3 Zr1 2.702083 1_555
Co3 Co4 2.928186 1_555
Co3 Co5 2.928186 1_555
Co4 Co5 2.437376 1_455
Co4 Zr0 2.686517 1_545
Co4 Zr0 2.686522 1_555
Co4 Zr1 2.702083 1_556
Co4 Zr1 2.702083 1_555
Co4 Co5 2.928186 1_555
Co5 Zr0 2.686520 1_545
Co5 Zr0 2.686520 1_655
Co5 Zr1 2.702080 1_555
Co5 Zr1 2.702080 1_556
