# generated using pymatgen
data_Rb2HfF6
_symmetry_space_group_name_H-M   'P 1'
_cell_length_a   6.07005356
_cell_length_b   6.07005416
_cell_length_c   4.76819267
_cell_angle_alpha   90.00000000
_cell_angle_beta   90.00000000
_cell_angle_gamma   120.00000218
_symmetry_Int_Tables_number   1
_chemical_formula_structural   Rb2HfF6
_chemical_formula_sum   'Rb2 Hf1 F6'
_cell_volume   152.14914185
_cell_formula_units_Z   1
loop_
 _symmetry_equiv_pos_site_id
 _symmetry_equiv_pos_as_xyz
  1  'x, y, z'
loop_
 _atom_site_type_symbol
 _atom_site_label
 _atom_site_symmetry_multiplicity
 _atom_site_fract_x
 _atom_site_fract_y
 _atom_site_fract_z
 _atom_site_occupancy
  Rb  Rb0  1  0.33333300  0.66666700  0.69402086  1
  Rb  Rb1  1  0.66666700  0.33333300  0.30597914  1
  Hf  Hf0  1  0.00000000  0.00000000  0.00000000  1
  F  F0  1  0.84161163  0.15838837  0.77037719  1
  F  F1  1  0.84161163  0.68322226  0.77037719  1
  F  F2  1  0.31677774  0.15838837  0.77037719  1
  F  F3  1  0.15838837  0.84161163  0.22962181  1
  F  F4  1  0.15838837  0.31677774  0.22962181  1
  F  F5  1  0.68322226  0.84161163  0.22962181  1
loop_
_geom_bond_atom_site_label_1
_geom_bond_atom_site_label_2
_geom_bond_distance
_geom_bond_site_symmetry_2
F0 Hf0 1.992936 1_656
F0 Rb1 2.878601 1_555
F0 Rb0 3.058025 1_545
F0 Rb0 3.058025 1_655
F0 Rb1 3.147254 1_556
F1 Hf0 1.992941 1_666
F1 Rb1 2.878601 1_555
F1 Rb0 3.058019 1_655
F1 Rb0 3.058031 1_555
F1 Rb1 3.147254 1_556
F2 Hf0 1.992940 1_556
F2 Rb1 2.878601 1_555
F2 Rb0 3.058019 1_545
F2 Rb0 3.058031 1_555
F2 Rb1 3.147254 1_556
F3 Hf0 1.992934 1_565
F3 Rb0 2.878604 1_555
F3 Rb1 3.058026 1_565
F3 Rb1 3.058026 1_455
F3 Rb0 3.147251 1_554
F4 Hf0 1.992938 1_555
F4 Rb0 2.878604 1_555
F4 Rb1 3.058020 1_455
F4 Rb1 3.058032 1_555
F4 Rb0 3.147251 1_554
F5 Hf0 1.992938 1_665
F5 Rb0 2.878604 1_555
F5 Rb1 3.058020 1_565
F5 Rb1 3.058032 1_555
F5 Rb0 3.147250 1_554
