# generated using pymatgen
data_MgHg2
_symmetry_space_group_name_H-M   'P 1'
_cell_length_a   7.77639259
_cell_length_b   7.77639259
_cell_length_c   5.00775784
_cell_angle_alpha   90.00000000
_cell_angle_beta   90.00000000
_cell_angle_gamma   154.29001416
_symmetry_Int_Tables_number   1
_chemical_formula_structural   MgHg2
_chemical_formula_sum   'Mg2 Hg4'
_cell_volume   131.37277209
_cell_formula_units_Z   2
loop_
 _symmetry_equiv_pos_site_id
 _symmetry_equiv_pos_as_xyz
  1  'x, y, z'
loop_
 _atom_site_type_symbol
 _atom_site_label
 _atom_site_symmetry_multiplicity
 _atom_site_fract_x
 _atom_site_fract_y
 _atom_site_fract_z
 _atom_site_occupancy
  Mg  Mg0  1  0.60735922  0.39264078  0.25000000  1
  Mg  Mg1  1  0.39264078  0.60735922  0.75000000  1
  Hg  Hg0  1  0.27126415  0.72873585  0.25000000  1
  Hg  Hg1  1  0.94339758  0.05660242  0.25000000  1
  Hg  Hg2  1  0.72873585  0.27126415  0.75000000  1
  Hg  Hg3  1  0.05660242  0.94339758  0.75000000  1
loop_
_geom_bond_atom_site_label_1
_geom_bond_atom_site_label_2
_geom_bond_distance
_geom_bond_site_symmetry_2
Hg0 Mg0 3.028198 1_455
Hg0 Mg0 3.028198 1_565
Hg0 Mg1 3.107506 1_555
Hg0 Mg1 3.107506 1_554
Hg0 Hg2 3.111042 1_565
Hg0 Hg2 3.111042 1_564
Hg0 Hg2 3.111042 1_454
Hg0 Hg2 3.111042 1_455
Hg0 Hg1 3.131409 1_455
Hg0 Hg1 3.131409 1_565
Hg1 Mg0 3.028904 1_655
Hg1 Mg0 3.028904 1_545
Hg1 Hg3 3.035763 1_644
Hg1 Hg3 3.035763 1_645
Hg1 Mg1 3.139278 1_544
Hg1 Mg1 3.139278 1_545
Hg1 Mg1 3.139278 1_655
Hg1 Mg1 3.139278 1_654
Hg2 Mg1 3.028198 1_545
Hg2 Mg1 3.028198 1_655
Hg2 Mg0 3.107506 1_555
Hg2 Mg0 3.107506 1_556
Hg2 Hg3 3.131409 1_545
Hg2 Hg3 3.131409 1_655
Hg3 Mg1 3.028904 1_565
Hg3 Mg1 3.028904 1_455
Hg3 Mg0 3.139278 1_565
Hg3 Mg0 3.139278 1_566
Hg3 Mg0 3.139278 1_456
Hg3 Mg0 3.139278 1_455
