# generated using pymatgen
data_Sr2LiMgSi3
_symmetry_space_group_name_H-M   'P 1'
_cell_length_a   10.03804842
_cell_length_b   10.03804842
_cell_length_c   7.15835383
_cell_angle_alpha   90.00000000
_cell_angle_beta   90.00000000
_cell_angle_gamma   153.47494349
_symmetry_Int_Tables_number   1
_chemical_formula_structural   Sr2LiMgSi3
_chemical_formula_sum   'Sr4 Li2 Mg2 Si6'
_cell_volume   322.12163412
_cell_formula_units_Z   2
loop_
 _symmetry_equiv_pos_site_id
 _symmetry_equiv_pos_as_xyz
  1  'x, y, z'
loop_
 _atom_site_type_symbol
 _atom_site_label
 _atom_site_symmetry_multiplicity
 _atom_site_fract_x
 _atom_site_fract_y
 _atom_site_fract_z
 _atom_site_occupancy
  Sr  Sr0  1  0.44362681  0.55637319  0.75169038  1
  Sr  Sr1  1  0.55637319  0.44362681  0.25169038  1
  Sr  Sr2  1  0.65391081  0.34608919  0.73482033  1
  Sr  Sr3  1  0.34608919  0.65391081  0.23482033  1
  Li  Li0  1  0.80646854  0.19353146  0.95128400  1
  Li  Li1  1  0.19353146  0.80646854  0.45128400  1
  Mg  Mg0  1  0.19069644  0.80930356  0.05670573  1
  Mg  Mg1  1  0.80930356  0.19069644  0.55670573  1
  Si  Si0  1  0.27893054  0.72106946  0.75363454  1
  Si  Si1  1  0.72106946  0.27893054  0.25363454  1
  Si  Si2  1  0.94668009  0.05331991  0.41706733  1
  Si  Si3  1  0.05131880  0.94868120  0.58479769  1
  Si  Si4  1  0.94868120  0.05131880  0.08479769  1
  Si  Si5  1  0.05331991  0.94668009  0.91706733  1
loop_
_geom_bond_atom_site_label_1
_geom_bond_atom_site_label_2
_geom_bond_distance
_geom_bond_site_symmetry_2
Li0 Si1 2.732960 1_556
Li0 Si0 2.755815 1_655
Li0 Si0 2.755815 1_545
Li0 Mg1 2.825074 1_555
Li0 Si4 2.938686 1_556
Li0 Sr3 3.165765 1_656
Li0 Sr3 3.165765 1_546
Li1 Si0 2.732960 1_555
Li1 Si1 2.755815 1_565
Li1 Si1 2.755815 1_455
Li1 Mg0 2.825074 1_555
Li1 Si3 2.938686 1_555
Li1 Sr2 3.165765 1_455
Li1 Sr2 3.165765 1_565
Mg0 Si1 2.764532 1_565
Mg0 Si1 2.764532 1_455
Mg0 Si0 2.771171 1_554
Mg0 Si5 2.864491 1_554
Mg0 Sr3 3.293300 1_555
Mg0 Sr2 3.336025 1_454
Mg0 Sr2 3.336025 1_564
Mg1 Si0 2.764532 1_545
Mg1 Si0 2.764532 1_655
Mg1 Si1 2.771171 1_555
Mg1 Si2 2.864491 1_555
Mg1 Sr2 3.293300 1_555
Mg1 Sr3 3.336025 1_655
Mg1 Sr3 3.336025 1_545
Si0 Sr0 3.218302 1_555
Si0 Sr2 3.359969 1_455
Si0 Sr2 3.359969 1_565
Si1 Sr1 3.218302 1_555
Si1 Sr3 3.359969 1_545
Si1 Sr3 3.359969 1_655
Si2 Si3 2.371170 1_645
Si2 Si4 2.378825 1_555
Si2 Sr3 3.296779 1_655
Si2 Sr3 3.296779 1_545
Si2 Sr0 3.323316 1_655
Si2 Sr0 3.323316 1_545
Si2 Sr1 3.361413 1_545
Si2 Sr1 3.361413 1_655
Si3 Si5 2.378825 1_555
Si3 Sr2 3.236563 1_455
Si3 Sr2 3.236563 1_565
Si3 Sr1 3.316438 1_565
Si3 Sr1 3.316438 1_455
Si3 Sr0 3.340479 1_455
Si3 Sr0 3.340479 1_565
Si4 Si5 2.371170 1_644
Si4 Sr3 3.236563 1_655
Si4 Sr3 3.236563 1_545
Si4 Sr0 3.316438 1_544
Si4 Sr0 3.316438 1_654
Si4 Sr1 3.340479 1_655
Si4 Sr1 3.340479 1_545
Si5 Sr2 3.296779 1_565
Si5 Sr2 3.296779 1_455
Si5 Sr1 3.323316 1_456
Si5 Sr1 3.323316 1_566
Si5 Sr0 3.361413 1_565
Si5 Sr0 3.361413 1_455
