# generated using pymatgen
data_RbSNO4
_symmetry_space_group_name_H-M   'P 1'
_cell_length_a   6.06522700
_cell_length_b   7.91603100
_cell_length_c   10.91210100
_cell_angle_alpha   90.00000000
_cell_angle_beta   90.00000000
_cell_angle_gamma   90.00000000
_symmetry_Int_Tables_number   1
_chemical_formula_structural   RbSNO4
_chemical_formula_sum   'Rb4 S4 N4 O16'
_cell_volume   523.91752156
_cell_formula_units_Z   4
loop_
 _symmetry_equiv_pos_site_id
 _symmetry_equiv_pos_as_xyz
  1  'x, y, z'
loop_
 _atom_site_type_symbol
 _atom_site_label
 _atom_site_symmetry_multiplicity
 _atom_site_fract_x
 _atom_site_fract_y
 _atom_site_fract_z
 _atom_site_occupancy
  Rb  Rb0  1  0.25000000  0.18311400  0.59333200  1
  Rb  Rb1  1  0.25000000  0.68311400  0.90666800  1
  Rb  Rb2  1  0.75000000  0.81688600  0.40666800  1
  Rb  Rb3  1  0.75000000  0.31688600  0.09333200  1
  S  S0  1  0.25000000  0.23013300  0.92076200  1
  S  S1  1  0.25000000  0.73013300  0.57923800  1
  S  S2  1  0.75000000  0.76986700  0.07923800  1
  S  S3  1  0.75000000  0.26986700  0.42076200  1
  N  N0  1  0.25000000  0.48482600  0.30463400  1
  N  N1  1  0.25000000  0.98482600  0.19536600  1
  N  N2  1  0.75000000  0.51517400  0.69536600  1
  N  N3  1  0.75000000  0.01517400  0.80463400  1
  O  O0  1  0.05116200  0.29638800  0.85527900  1
  O  O1  1  0.44883800  0.79638800  0.64472100  1
  O  O2  1  0.55116200  0.70361200  0.14472100  1
  O  O3  1  0.94883800  0.20361200  0.35527900  1
  O  O4  1  0.94883800  0.70361200  0.14472100  1
  O  O5  1  0.55116200  0.20361200  0.35527900  1
  O  O6  1  0.44883800  0.29638800  0.85527900  1
  O  O7  1  0.05116200  0.79638800  0.64472100  1
  O  O8  1  0.25000000  0.04332600  0.91256800  1
  O  O9  1  0.25000000  0.54332600  0.58743200  1
  O  O10  1  0.75000000  0.95667400  0.08743200  1
  O  O11  1  0.75000000  0.45667400  0.41256800  1
  O  O12  1  0.25000000  0.78633900  0.44953400  1
  O  O13  1  0.25000000  0.28633900  0.05046600  1
  O  O14  1  0.75000000  0.21366100  0.55046600  1
  O  O15  1  0.75000000  0.71366100  0.94953400  1
loop_
_geom_bond_atom_site_label_1
_geom_bond_atom_site_label_2
_geom_bond_distance
_geom_bond_site_symmetry_2
O0 S0 1.496696 1_555
O0 Rb3 3.179730 1_456
O0 Rb0 3.229376 1_555
O0 Rb1 3.337762 1_555
O1 S1 1.496696 1_555
O1 Rb2 3.179730 1_555
O1 Rb1 3.229376 1_555
O1 Rb0 3.337762 1_565
O2 S2 1.496696 1_555
O2 Rb1 3.179730 1_554
O2 Rb2 3.229376 1_555
O2 Rb3 3.337762 1_555
O3 S3 1.496696 1_555
O3 Rb0 3.179730 1_655
O3 Rb3 3.229376 1_555
O3 Rb2 3.337762 1_545
O4 S2 1.496696 1_555
O4 Rb1 3.179730 1_654
O4 Rb2 3.229376 1_555
O4 Rb3 3.337762 1_555
O5 S3 1.496696 1_555
O5 Rb0 3.179730 1_555
O5 Rb3 3.229376 1_555
O5 Rb2 3.337762 1_545
O6 S0 1.496696 1_555
O6 Rb3 3.179730 1_556
O6 Rb0 3.229376 1_555
O6 Rb1 3.337762 1_555
O7 S1 1.496696 1_555
O7 Rb2 3.179730 1_455
O7 Rb1 3.229376 1_555
O7 Rb0 3.337762 1_565
O8 S0 1.481471 1_555
O8 Rb1 2.852176 1_545
O9 S1 1.481471 1_555
O9 Rb0 2.852176 1_555
O10 S2 1.481471 1_555
O10 Rb3 2.852176 1_565
O11 S3 1.481471 1_555
O11 Rb2 2.852176 1_555
O12 S1 1.483630 1_555
O12 Rb2 3.077989 1_555
O12 Rb2 3.077989 1_455
O13 S0 1.483630 1_554
O13 Rb3 3.077989 1_555
O13 Rb3 3.077989 1_455
O14 S3 1.483630 1_555
O14 Rb0 3.077989 1_655
O14 Rb0 3.077989 1_555
O15 S2 1.483630 1_556
O15 Rb1 3.077989 1_655
O15 Rb1 3.077989 1_555
