# generated using pymatgen
data_Li3V4O7F5
_symmetry_space_group_name_H-M   'P 1'
_cell_length_a   5.06156000
_cell_length_b   5.38341483
_cell_length_c   8.93655220
_cell_angle_alpha   106.74377809
_cell_angle_beta   89.06744044
_cell_angle_gamma   117.40142244
_symmetry_Int_Tables_number   1
_chemical_formula_structural   Li3V4O7F5
_chemical_formula_sum   'Li3 V4 O7 F5'
_cell_volume   205.07456266
_cell_formula_units_Z   1
loop_
 _symmetry_equiv_pos_site_id
 _symmetry_equiv_pos_as_xyz
  1  'x, y, z'
loop_
 _atom_site_type_symbol
 _atom_site_label
 _atom_site_symmetry_multiplicity
 _atom_site_fract_x
 _atom_site_fract_y
 _atom_site_fract_z
 _atom_site_occupancy
  Li  Li0  1  0.79625600  0.01096900  0.60073900  1
  Li  Li1  1  0.55597500  0.28051400  0.85475400  1
  Li  Li2  1  0.43730800  0.72944400  0.13808700  1
  V  V0  1  0.80136100  0.24897900  0.26080300  1
  V  V1  1  0.52805500  0.50287100  0.48123800  1
  V  V2  1  0.19875800  0.71091300  0.76104800  1
  V  V3  1  0.01547500  0.02420500  0.99792300  1
  O  O0  1  0.81746000  0.58019300  0.68068000  1
  O  O1  1  0.79824800  0.14073400  0.07018000  1
  O  O2  1  0.72418200  0.87429500  0.37654200  1
  O  O3  1  0.68279100  0.30716700  0.43750100  1
  O  O4  1  0.24670000  0.38552700  0.87893900  1
  O  O5  1  0.18118100  0.83438900  0.93302400  1
  O  O6  1  0.18842300  0.44064500  0.30820100  1
  F  F0  1  0.74276700  0.60599200  0.12291700  1
  F  F1  1  0.67754800  0.95938800  0.80770900  1
  F  F2  1  0.32372300  0.06305700  0.18097600  1
  F  F3  1  0.34307600  0.69204000  0.58016400  1
  F  F4  1  0.25009000  0.13856800  0.63131600  1
loop_
_geom_bond_atom_site_label_1
_geom_bond_atom_site_label_2
_geom_bond_distance
_geom_bond_site_symmetry_2
Li0 O2 1.901577 1_545
Li1 O4 1.884140 1_555
Li1 O0 2.487579 1_555
Li2 O2 2.314854 1_555
Li2 O1 2.371329 1_565
Li2 O4 2.383289 1_554
Li2 O6 2.410808 1_555
O0 V2 1.799891 1_655
O0 V1 2.142890 1_555
O1 V3 1.548476 1_654
O1 V0 1.631633 1_555
O2 V1 2.253805 1_555
O2 V0 2.398887 1_565
O3 V1 1.545456 1_555
O3 V0 1.675994 1_555
O4 V3 2.310791 1_555
O4 V2 2.387497 1_555
O5 V2 1.507682 1_555
O5 V3 1.586065 1_565
O6 V0 1.731133 1_455
O6 V1 2.171780 1_555
F0 Li2 1.933269 1_555
F0 Li1 2.415893 1_554
F0 V3 2.600053 1_664
F0 V0 2.683532 1_555
F1 Li0 1.991311 1_565
F1 Li1 2.023848 1_565
F1 V2 2.136324 1_555
F1 V3 2.267245 1_665
F2 Li2 2.061447 1_545
F2 V3 2.177071 1_554
F2 V0 2.184706 1_555
F3 V1 1.739890 1_555
F3 V2 1.758456 1_555
F3 Li0 2.109507 1_565
F4 Li0 2.069570 1_455
F4 Li1 2.258447 1_555
F4 V1 2.557124 1_555
