# generated using pymatgen
data_Sm4Tm4MgO12
_symmetry_space_group_name_H-M   'P 1'
_cell_length_a   6.14673579
_cell_length_b   8.44890600
_cell_length_c   5.76550674
_cell_angle_alpha   90.00000000
_cell_angle_beta   88.43876468
_cell_angle_gamma   90.00000000
_symmetry_Int_Tables_number   1
_chemical_formula_structural   Sm4Tm4MgO12
_chemical_formula_sum   'Sm4 Tm4 Mg1 O12'
_cell_volume   299.31002161
_cell_formula_units_Z   1
loop_
 _symmetry_equiv_pos_site_id
 _symmetry_equiv_pos_as_xyz
  1  'x, y, z'
loop_
 _atom_site_type_symbol
 _atom_site_label
 _atom_site_symmetry_multiplicity
 _atom_site_fract_x
 _atom_site_fract_y
 _atom_site_fract_z
 _atom_site_occupancy
  Sm  Sm0  1  0.15520900  0.25000000  0.93684200  1
  Sm  Sm1  1  0.42621800  0.75000000  0.47719800  1
  Sm  Sm2  1  0.55825200  0.25000000  0.56238200  1
  Sm  Sm3  1  0.93834800  0.75000000  0.02861800  1
  Tm  Tm0  1  0.98944500  0.99987300  0.49985700  1
  Tm  Tm1  1  0.98944500  0.50012700  0.49985700  1
  Tm  Tm2  1  0.48743900  0.97712100  0.99295000  1
  Tm  Tm3  1  0.48743900  0.52287900  0.99295000  1
  Mg  Mg0  1  0.73556100  0.25000000  0.06981000  1
  O  O0  1  0.05007100  0.75000000  0.63765600  1
  O  O1  1  0.18954700  0.57856000  0.19027300  1
  O  O2  1  0.18954700  0.92144000  0.19027300  1
  O  O3  1  0.30524600  0.45473700  0.67235300  1
  O  O4  1  0.30524600  0.04526300  0.67235300  1
  O  O5  1  0.43694600  0.25000000  0.19765800  1
  O  O6  1  0.56982700  0.75000000  0.84408600  1
  O  O7  1  0.69413100  0.92078700  0.29481600  1
  O  O8  1  0.69413100  0.57921300  0.29481600  1
  O  O9  1  0.80770900  0.07836700  0.82993700  1
  O  O10  1  0.80770900  0.42163300  0.82993700  1
  O  O11  1  0.92211600  0.25000000  0.34787700  1
loop_
_geom_bond_atom_site_label_1
_geom_bond_atom_site_label_2
_geom_bond_distance
_geom_bond_site_symmetry_2
Mg0 O5 1.959258 1_555
Mg0 O11 1.996333 1_555
Mg0 O10 2.044195 1_554
Mg0 O9 2.044195 1_554
O0 Tm0 2.289797 1_455
O0 Tm1 2.289797 1_455
O0 Sm3 2.338416 1_456
O0 Sm1 2.466778 1_555
O1 Tm3 2.180570 1_554
O1 Tm1 2.240143 1_455
O1 Sm3 2.330082 1_455
O1 Sm1 2.661229 1_555
O2 Tm2 2.180570 1_554
O2 Tm0 2.240143 1_455
O2 Sm3 2.330082 1_455
O2 Sm1 2.661229 1_555
O3 Tm1 2.238167 1_455
O3 Tm3 2.261639 1_555
O3 Sm2 2.399796 1_555
O3 Sm0 2.468091 1_555
O3 Sm1 2.827827 1_555
O4 Tm0 2.238167 1_445
O4 Tm2 2.261639 1_545
O4 Sm2 2.399796 1_555
O4 Sm0 2.468091 1_555
O4 Sm1 2.827827 1_545
O5 Sm2 2.250168 1_555
O5 Sm0 2.324247 1_554
O5 Tm3 2.604767 1_554
O5 Tm2 2.604767 1_544
O6 Tm2 2.156776 1_555
O6 Tm3 2.156776 1_555
O6 Sm1 2.314179 1_555
O6 Sm3 2.528712 1_556
O7 Tm2 2.233870 1_554
O7 Tm0 2.292583 1_555
O7 Sm1 2.409441 1_555
O7 Sm3 2.562328 1_555
O8 Tm3 2.233870 1_554
O8 Tm1 2.292583 1_555
O8 Sm1 2.409441 1_555
O8 Sm3 2.562328 1_555
O9 Tm0 2.278938 1_545
O9 Tm2 2.321570 1_545
O9 Sm2 2.638645 1_555
O9 Sm0 2.667755 1_655
O9 Sm3 3.115136 1_546
O10 Tm1 2.278938 1_555
O10 Tm3 2.321570 1_555
O10 Sm2 2.638645 1_555
O10 Sm0 2.667755 1_655
O10 Sm3 3.115136 1_556
O11 Tm1 2.329135 1_555
O11 Tm0 2.329135 1_545
O11 Sm2 2.526074 1_555
O11 Sm0 2.735664 1_654
