# generated using pymatgen
data_Mg6TiSb
_symmetry_space_group_name_H-M   'P 1'
_cell_length_a   5.26407600
_cell_length_b   6.00289000
_cell_length_c   11.04459400
_cell_angle_alpha   90.00000000
_cell_angle_beta   90.00000000
_cell_angle_gamma   90.00000000
_symmetry_Int_Tables_number   1
_chemical_formula_structural   Mg6TiSb
_chemical_formula_sum   'Mg12 Ti2 Sb2'
_cell_volume   349.00551662
_cell_formula_units_Z   2
loop_
 _symmetry_equiv_pos_site_id
 _symmetry_equiv_pos_as_xyz
  1  'x, y, z'
loop_
 _atom_site_type_symbol
 _atom_site_label
 _atom_site_symmetry_multiplicity
 _atom_site_fract_x
 _atom_site_fract_y
 _atom_site_fract_z
 _atom_site_occupancy
  Mg  Mg0  1  0.00000000  0.24810700  0.41671300  1
  Mg  Mg1  1  0.00000000  0.75189300  0.41671300  1
  Mg  Mg2  1  0.50000000  0.75814500  0.08283700  1
  Mg  Mg3  1  0.50000000  0.24185500  0.08283700  1
  Mg  Mg4  1  0.50000000  0.00000000  0.32976600  1
  Mg  Mg5  1  0.50000000  0.50000000  0.33557200  1
  Mg  Mg6  1  0.00000000  0.74810700  0.91671300  1
  Mg  Mg7  1  0.00000000  0.25189300  0.91671300  1
  Mg  Mg8  1  0.50000000  0.25814500  0.58283700  1
  Mg  Mg9  1  0.50000000  0.74185500  0.58283700  1
  Mg  Mg10  1  0.50000000  0.50000000  0.82976600  1
  Mg  Mg11  1  0.50000000  0.00000000  0.83557200  1
  Ti  Ti0  1  0.00000000  0.00000000  0.16819500  1
  Ti  Ti1  1  0.00000000  0.50000000  0.66819500  1
  Sb  Sb0  1  0.00000000  0.50000000  0.16736200  1
  Sb  Sb1  1  0.00000000  0.00000000  0.66736200  1
loop_
_geom_bond_atom_site_label_1
_geom_bond_atom_site_label_2
_geom_bond_distance
_geom_bond_site_symmetry_2
Mg0 Mg1 2.978718 1_545
Mg0 Mg1 3.024172 1_555
Mg0 Ti0 3.122821 1_555
Mg0 Sb0 3.141785 1_555
Mg0 Sb1 3.143528 1_555
Mg0 Ti1 3.162436 1_555
Mg0 Mg5 3.164988 1_455
Mg0 Mg5 3.164988 1_555
Mg0 Mg4 3.173008 1_455
Mg0 Mg4 3.173008 1_555
Mg0 Mg8 3.208994 1_455
Mg0 Mg8 3.208994 1_555
Mg1 Ti0 3.122821 1_565
Mg1 Sb0 3.141785 1_555
Mg1 Sb1 3.143528 1_565
Mg1 Ti1 3.162436 1_555
Mg1 Mg5 3.164988 1_455
Mg1 Mg5 3.164988 1_555
Mg1 Mg4 3.173008 1_565
Mg1 Mg4 3.173008 1_465
Mg1 Mg9 3.208994 1_555
Mg1 Mg9 3.208994 1_455
Mg2 Mg3 2.903658 1_565
Mg2 Mg4 3.089594 1_565
Mg2 Mg3 3.099232 1_555
Mg2 Ti0 3.150270 1_565
Mg2 Ti0 3.150270 1_665
Mg2 Mg5 3.192644 1_555
Mg2 Sb0 3.193813 1_555
Mg2 Sb0 3.193813 1_655
Mg2 Mg6 3.208994 1_554
Mg2 Mg6 3.208994 1_654
Mg3 Mg4 3.089594 1_555
Mg3 Ti0 3.150270 1_555
Mg3 Ti0 3.150270 1_655
Mg3 Mg5 3.192644 1_555
Mg3 Sb0 3.193813 1_555
Mg3 Sb0 3.193813 1_655
Mg3 Mg7 3.208994 1_654
Mg3 Mg7 3.208994 1_554
Mg4 Mg5 3.002130 1_555
Mg4 Mg5 3.002130 1_545
Mg4 Ti0 3.179939 1_555
Mg4 Ti0 3.179939 1_655
Mg4 Mg8 3.195889 1_555
Mg4 Mg9 3.195889 1_545
Mg5 Mg8 3.092871 1_555
Mg5 Mg9 3.092871 1_555
Mg5 Sb0 3.221659 1_555
Mg5 Sb0 3.221659 1_655
Mg6 Mg7 2.978718 1_555
Mg6 Mg7 3.024172 1_565
Mg6 Ti1 3.122821 1_555
Mg6 Sb1 3.141785 1_565
Mg6 Sb0 3.143528 1_556
Mg6 Ti0 3.162436 1_566
Mg7 Ti1 3.122821 1_555
Mg7 Sb1 3.141785 1_555
Mg7 Sb0 3.143528 1_556
Mg7 Ti0 3.162436 1_556
Mg8 Mg9 2.903658 1_555
Mg8 Mg9 3.099232 1_545
Mg8 Ti1 3.150270 1_555
Mg8 Ti1 3.150270 1_655
Mg8 Sb1 3.193813 1_555
Mg8 Sb1 3.193813 1_655
Mg9 Ti1 3.150270 1_555
Mg9 Ti1 3.150270 1_655
Mg9 Sb1 3.193813 1_665
Mg9 Sb1 3.193813 1_565
Mg10 Mg11 3.002130 1_555
Mg10 Mg11 3.002130 1_565
Mg10 Mg9 3.089594 1_555
Mg10 Mg8 3.089594 1_555
Mg10 Mg7 3.173008 1_655
Mg10 Mg6 3.173008 1_555
Mg10 Mg7 3.173008 1_555
Mg10 Mg6 3.173008 1_655
Mg10 Ti1 3.179939 1_655
Mg10 Ti1 3.179939 1_555
Mg10 Mg2 3.195889 1_556
Mg10 Mg3 3.195889 1_556
Mg11 Mg3 3.092871 1_556
Mg11 Mg2 3.092871 1_546
Mg11 Mg6 3.164988 1_545
Mg11 Mg7 3.164988 1_555
Mg11 Mg7 3.164988 1_655
Mg11 Mg6 3.164988 1_645
Mg11 Mg8 3.192644 1_555
Mg11 Mg9 3.192644 1_545
Mg11 Sb1 3.221659 1_555
Mg11 Sb1 3.221659 1_655
Sb0 Ti0 3.001459 1_565
Sb0 Ti0 3.001459 1_555
Sb1 Ti1 3.001459 1_545
Sb1 Ti1 3.001459 1_555
