# generated using pymatgen
data_Ca(CuO2)2
_symmetry_space_group_name_H-M   'P 1'
_cell_length_a   5.14361900
_cell_length_b   5.91367500
_cell_length_c   10.97926100
_cell_angle_alpha   90.00000000
_cell_angle_beta   90.00000000
_cell_angle_gamma   90.00000000
_symmetry_Int_Tables_number   1
_chemical_formula_structural   Ca(CuO2)2
_chemical_formula_sum   'Ca4 Cu8 O16'
_cell_volume   333.96376949
_cell_formula_units_Z   4
loop_
 _symmetry_equiv_pos_site_id
 _symmetry_equiv_pos_as_xyz
  1  'x, y, z'
loop_
 _atom_site_type_symbol
 _atom_site_label
 _atom_site_symmetry_multiplicity
 _atom_site_fract_x
 _atom_site_fract_y
 _atom_site_fract_z
 _atom_site_occupancy
  Ca  Ca0  1  0.85518000  0.00000000  0.50000000  1
  Ca  Ca1  1  0.14482000  0.50000000  0.00000000  1
  Ca  Ca2  1  0.53369300  0.00000000  0.00000000  1
  Ca  Ca3  1  0.46630700  0.50000000  0.50000000  1
  Cu  Cu0  1  0.50535800  0.50000000  0.23990900  1
  Cu  Cu1  1  0.50535800  0.50000000  0.76009100  1
  Cu  Cu2  1  0.49464200  0.00000000  0.26009100  1
  Cu  Cu3  1  0.49464200  0.00000000  0.73990900  1
  Cu  Cu4  1  0.00000000  0.25000000  0.25000000  1
  Cu  Cu5  1  0.00000000  0.75000000  0.75000000  1
  Cu  Cu6  1  0.00000000  0.75000000  0.25000000  1
  Cu  Cu7  1  0.00000000  0.25000000  0.75000000  1
  O  O0  1  0.83952500  0.50000000  0.15214200  1
  O  O1  1  0.83952500  0.50000000  0.84785800  1
  O  O2  1  0.16047500  0.00000000  0.34785800  1
  O  O3  1  0.16047500  0.00000000  0.65214200  1
  O  O4  1  0.17573800  0.50000000  0.33911900  1
  O  O5  1  0.17573800  0.50000000  0.66088100  1
  O  O6  1  0.82426200  0.00000000  0.16088100  1
  O  O7  1  0.82426200  0.00000000  0.83911900  1
  O  O8  1  0.66498800  0.25378700  0.35352900  1
  O  O9  1  0.66498800  0.74621300  0.64647100  1
  O  O10  1  0.33501200  0.75378700  0.14647100  1
  O  O11  1  0.33501200  0.24621300  0.85352900  1
  O  O12  1  0.33501200  0.24621300  0.14647100  1
  O  O13  1  0.33501200  0.75378700  0.85352900  1
  O  O14  1  0.66498800  0.74621300  0.35352900  1
  O  O15  1  0.66498800  0.25378700  0.64647100  1
loop_
_geom_bond_atom_site_label_1
_geom_bond_atom_site_label_2
_geom_bond_distance
_geom_bond_site_symmetry_2
Ca0 O2 2.292633 1_655
Ca0 O3 2.292633 1_655
Ca0 O15 2.407403 1_555
Ca0 O8 2.407403 1_555
Ca0 O14 2.407403 1_545
Ca0 O9 2.407403 1_545
Ca1 O0 2.292633 1_455
Ca1 O1 2.292633 1_454
Ca1 O12 2.407403 1_555
Ca1 O13 2.407403 1_554
Ca1 O10 2.407403 1_555
Ca1 O11 2.407403 1_554
Ca2 O6 2.313821 1_555
Ca2 O7 2.313821 1_554
Ca2 O11 2.398018 1_554
Ca2 O10 2.398018 1_545
Ca2 O12 2.398018 1_555
Ca2 O13 2.398018 1_544
Ca3 O4 2.313821 1_555
Ca3 O5 2.313821 1_555
Ca3 O9 2.398018 1_555
Ca3 O8 2.398018 1_555
Ca3 O14 2.398018 1_555
Ca3 O15 2.398018 1_555
Cu0 O0 1.970514 1_555
Cu0 O4 2.015189 1_555
Cu0 O10 2.018066 1_555
Cu0 O12 2.018066 1_555
Cu0 O14 2.085746 1_555
Cu0 O8 2.085746 1_555
Cu1 O1 1.970514 1_555
Cu1 O5 2.015189 1_555
Cu1 O11 2.018066 1_555
Cu1 O13 2.018066 1_555
Cu1 O15 2.085746 1_555
Cu1 O9 2.085746 1_555
Cu2 O2 1.970514 1_555
Cu2 O6 2.015189 1_555
Cu2 O8 2.018066 1_555
Cu2 O14 2.018066 1_545
Cu2 O10 2.085746 1_545
Cu2 O12 2.085746 1_555
Cu3 O3 1.970514 1_555
Cu3 O7 2.015189 1_555
Cu3 O15 2.018066 1_555
Cu3 O9 2.018066 1_545
Cu3 O11 2.085746 1_555
Cu3 O13 2.085746 1_545
Cu4 O6 1.990024 1_455
Cu4 O4 1.990024 1_555
Cu4 O0 2.005342 1_455
Cu4 O2 2.005342 1_555
Cu4 O8 2.064426 1_455
Cu4 O12 2.064426 1_555
Cu5 O7 1.990024 1_465
Cu5 O5 1.990024 1_555
Cu5 O1 2.005342 1_455
Cu5 O3 2.005342 1_565
Cu5 O13 2.064426 1_555
Cu5 O9 2.064426 1_455
Cu6 O6 1.990024 1_465
Cu6 O4 1.990024 1_555
Cu6 O0 2.005342 1_455
Cu6 O2 2.005342 1_565
Cu6 O14 2.064426 1_455
Cu6 O10 2.064426 1_555
Cu7 O7 1.990024 1_455
Cu7 O5 1.990024 1_555
Cu7 O1 2.005342 1_455
Cu7 O3 2.005342 1_555
Cu7 O15 2.064426 1_455
Cu7 O11 2.064426 1_555
