# generated using pymatgen
data_Ba5Mn3O12F
_symmetry_space_group_name_H-M   'P 1'
_cell_length_a   10.57936762
_cell_length_b   10.57936762
_cell_length_c   7.93673800
_cell_angle_alpha   90.00000000
_cell_angle_beta   90.00000000
_cell_angle_gamma   119.99999760
_symmetry_Int_Tables_number   1
_chemical_formula_structural   Ba5Mn3O12F
_chemical_formula_sum   'Ba10 Mn6 O24 F2'
_cell_volume   769.29357103
_cell_formula_units_Z   2
loop_
 _symmetry_equiv_pos_site_id
 _symmetry_equiv_pos_as_xyz
  1  'x, y, z'
loop_
 _atom_site_type_symbol
 _atom_site_label
 _atom_site_symmetry_multiplicity
 _atom_site_fract_x
 _atom_site_fract_y
 _atom_site_fract_z
 _atom_site_occupancy
  Ba  Ba0  1  0.33333300  0.66666700  0.99780800  1
  Ba  Ba1  1  0.66666700  0.33333300  0.00219200  1
  Ba  Ba2  1  0.66666700  0.33333300  0.49780800  1
  Ba  Ba3  1  0.33333300  0.66666700  0.50219200  1
  Ba  Ba4  1  0.24329200  0.25151600  0.25000000  1
  Ba  Ba5  1  0.75670800  0.74848400  0.75000000  1
  Ba  Ba6  1  0.74848400  0.99177600  0.25000000  1
  Ba  Ba7  1  0.25151600  0.00822400  0.75000000  1
  Ba  Ba8  1  0.00822400  0.75670800  0.25000000  1
  Ba  Ba9  1  0.99177600  0.24329200  0.75000000  1
  Mn  Mn0  1  0.39848800  0.02829900  0.25000000  1
  Mn  Mn1  1  0.60151200  0.97170100  0.75000000  1
  Mn  Mn2  1  0.97170100  0.37018900  0.25000000  1
  Mn  Mn3  1  0.02829900  0.62981100  0.75000000  1
  Mn  Mn4  1  0.62981100  0.60151200  0.25000000  1
  Mn  Mn5  1  0.37018900  0.39848800  0.75000000  1
  O  O0  1  0.15766900  0.48323500  0.25000000  1
  O  O1  1  0.84233100  0.51676500  0.75000000  1
  O  O2  1  0.51676500  0.67443400  0.25000000  1
  O  O3  1  0.48323500  0.32556600  0.75000000  1
  O  O4  1  0.32556600  0.84233100  0.25000000  1
  O  O5  1  0.67443400  0.15766900  0.75000000  1
  O  O6  1  0.58682200  0.12309900  0.25000000  1
  O  O7  1  0.41317800  0.87690100  0.75000000  1
  O  O8  1  0.87690100  0.46372300  0.25000000  1
  O  O9  1  0.12309900  0.53627700  0.75000000  1
  O  O10  1  0.53627700  0.41317800  0.25000000  1
  O  O11  1  0.46372300  0.58682200  0.75000000  1
  O  O12  1  0.34329500  0.08608900  0.07728100  1
  O  O13  1  0.65670500  0.91391100  0.92271900  1
  O  O14  1  0.91391100  0.25720700  0.07728100  1
  O  O15  1  0.65670500  0.91391100  0.57728100  1
  O  O16  1  0.08608900  0.74279300  0.92271900  1
  O  O17  1  0.34329500  0.08608900  0.42271900  1
  O  O18  1  0.74279300  0.65670500  0.07728100  1
  O  O19  1  0.08608900  0.74279300  0.57728100  1
  O  O20  1  0.25720700  0.34329500  0.92271900  1
  O  O21  1  0.91391100  0.25720700  0.42271900  1
  O  O22  1  0.25720700  0.34329500  0.57728100  1
  O  O23  1  0.74279300  0.65670500  0.42271900  1
  F  F0  1  0.00000000  0.00000000  0.25000000  1
  F  F1  1  0.00000000  0.00000000  0.75000000  1
loop_
_geom_bond_atom_site_label_1
_geom_bond_atom_site_label_2
_geom_bond_distance
_geom_bond_site_symmetry_2
Ba0 O4 2.760342 1_556
Ba0 O0 2.760346 1_556
Ba0 O2 2.760350 1_556
Ba0 O7 2.765835 1_555
Ba0 O9 2.765836 1_555
Ba0 O11 2.765842 1_555
Ba0 O16 3.154706 1_555
Ba0 O13 3.154721 1_555
Ba0 O20 3.154727 1_555
Ba1 O5 2.760342 1_554
Ba1 O1 2.760346 1_554
Ba1 O3 2.760350 1_554
Ba1 O6 2.765835 1_555
Ba1 O8 2.765836 1_555
Ba1 O10 2.765842 1_555
Ba1 O14 3.154706 1_555
Ba1 O12 3.154721 1_555
Ba1 O18 3.154727 1_555
Ba2 O5 2.760342 1_555
Ba2 O1 2.760346 1_555
Ba2 O3 2.760350 1_555
Ba2 O6 2.765835 1_555
Ba2 O8 2.765836 1_555
Ba2 O10 2.765842 1_555
Ba2 O21 3.154706 1_555
Ba2 O17 3.154721 1_555
Ba2 O23 3.154727 1_555
Ba3 O4 2.760342 1_555
Ba3 O0 2.760346 1_555
Ba3 O2 2.760350 1_555
Ba3 O7 2.765835 1_555
Ba3 O9 2.765836 1_555
Ba3 O11 2.765842 1_555
Ba3 O19 3.154706 1_555
Ba3 O15 3.154721 1_555
Ba3 O22 3.154727 1_555
Ba4 F0 2.618462 1_555
Ba4 O10 2.689122 1_555
Ba4 O22 2.751134 1_555
Ba4 O20 2.751134 1_554
Ba4 O12 2.812991 1_555
Ba4 O17 2.812991 1_555
Ba4 O0 3.008439 1_555
Ba5 F1 2.618462 1_665
Ba5 O11 2.689122 1_555
Ba5 O18 2.751134 1_556
Ba5 O23 2.751134 1_555
Ba5 O13 2.812991 1_555
Ba5 O15 2.812991 1_555
Ba5 O1 3.008439 1_555
Ba6 F0 2.618462 1_665
Ba6 O6 2.689122 1_565
Ba6 O13 2.751135 1_554
Ba6 O15 2.751135 1_555
Ba6 O14 2.812999 1_565
Ba6 O21 2.812999 1_565
Ba6 O2 3.008439 1_555
Ba7 F1 2.618462 1_555
Ba7 O7 2.689122 1_545
Ba7 O12 2.751135 1_556
Ba7 O17 2.751135 1_555
Ba7 O19 2.812999 1_545
Ba7 O16 2.812999 1_545
Ba7 O3 3.008439 1_555
Ba8 F0 2.618462 1_565
Ba8 O8 2.689122 1_455
Ba8 O16 2.751137 1_554
Ba8 O19 2.751137 1_555
Ba8 O18 2.813000 1_455
Ba8 O23 2.813000 1_455
Ba8 O4 3.008439 1_555
Ba9 F1 2.618462 1_655
Ba9 O9 2.689122 1_655
Ba9 O14 2.751137 1_556
Ba9 O21 2.751137 1_555
Ba9 O22 2.813000 1_655
Ba9 O20 2.813000 1_655
Ba9 O5 3.008439 1_555
Mn0 O4 1.717007 1_545
Mn0 O17 1.717815 1_555
Mn0 O12 1.717815 1_555
Mn0 O6 1.725529 1_555
Mn1 O5 1.717007 1_565
Mn1 O13 1.717815 1_555
Mn1 O15 1.717815 1_555
Mn1 O7 1.725529 1_555
Mn2 O0 1.717008 1_655
Mn2 O14 1.717809 1_555
Mn2 O21 1.717809 1_555
Mn2 O8 1.725529 1_555
Mn3 O1 1.717008 1_455
Mn3 O19 1.717809 1_555
Mn3 O16 1.717809 1_555
Mn3 O9 1.725529 1_555
Mn4 O2 1.717007 1_555
Mn4 O23 1.717809 1_555
Mn4 O18 1.717809 1_555
Mn4 O10 1.725529 1_555
Mn5 O3 1.717007 1_555
Mn5 O22 1.717809 1_555
Mn5 O20 1.717809 1_555
Mn5 O11 1.725529 1_555
