# generated using pymatgen
data_H4CSIN2
_symmetry_space_group_name_H-M   'P 1'
_cell_length_a   9.50306810
_cell_length_b   9.50306810
_cell_length_c   12.73078010
_cell_angle_alpha   73.84658447
_cell_angle_beta   106.15341553
_cell_angle_gamma   140.71270608
_symmetry_Int_Tables_number   1
_chemical_formula_structural   H4CSIN2
_chemical_formula_sum   'H16 C4 S4 I4 N8'
_cell_volume   695.50924841
_cell_formula_units_Z   4
loop_
 _symmetry_equiv_pos_site_id
 _symmetry_equiv_pos_as_xyz
  1  'x, y, z'
loop_
 _atom_site_type_symbol
 _atom_site_label
 _atom_site_symmetry_multiplicity
 _atom_site_fract_x
 _atom_site_fract_y
 _atom_site_fract_z
 _atom_site_occupancy
  H  H0  1  0.73186900  0.34814300  0.76723100  1
  H  H1  1  0.34814300  0.73186900  0.73276900  1
  H  H2  1  0.26813100  0.65185700  0.23276900  1
  H  H3  1  0.65185700  0.26813100  0.26723100  1
  H  H4  1  0.98980700  0.21549800  0.98585800  1
  H  H5  1  0.21549800  0.98980700  0.51414200  1
  H  H6  1  0.01019300  0.78450200  0.01414200  1
  H  H7  1  0.78450200  0.01019300  0.48585800  1
  H  H8  1  0.59197600  0.55268100  0.27122600  1
  H  H9  1  0.55268100  0.59197600  0.22877400  1
  H  H10  1  0.40802400  0.44731900  0.72877400  1
  H  H11  1  0.44731900  0.40802400  0.77122600  1
  H  H12  1  0.62882800  0.83125100  0.84856000  1
  H  H13  1  0.83125100  0.62882800  0.65144000  1
  H  H14  1  0.37117200  0.16874900  0.15144000  1
  H  H15  1  0.16874900  0.37117200  0.34856000  1
  C  C0  1  0.29085300  0.50517200  0.90256000  1
  C  C1  1  0.50517200  0.29085300  0.59744000  1
  C  C2  1  0.70914700  0.49482800  0.09744000  1
  C  C3  1  0.49482800  0.70914700  0.40256000  1
  S  S0  1  0.54348700  0.92400800  0.68745700  1
  S  S1  1  0.92400800  0.54348700  0.81254300  1
  S  S2  1  0.45651300  0.07599200  0.31254300  1
  S  S3  1  0.07599200  0.45651300  0.18745700  1
  I  I0  1  0.00000000  0.50000000  0.50000000  1
  I  I1  1  0.50000000  0.00000000  0.00000000  1
  I  I2  1  0.09494100  0.09494100  0.25000000  1
  I  I3  1  0.90505800  0.90505800  0.75000000  1
  N  N0  1  0.13133700  0.34396400  0.94791200  1
  N  N1  1  0.34396400  0.13133700  0.55208800  1
  N  N2  1  0.86866300  0.65603600  0.05208800  1
  N  N3  1  0.65603600  0.86866300  0.44791200  1
  N  N4  1  0.71790500  0.94800800  0.78218200  1
  N  N5  1  0.94800800  0.71790500  0.71781800  1
  N  N6  1  0.28209500  0.05199200  0.21781800  1
  N  N7  1  0.05199200  0.28209500  0.28218200  1
loop_
_geom_bond_atom_site_label_1
_geom_bond_atom_site_label_2
_geom_bond_distance
_geom_bond_site_symmetry_2
H0 S1 1.369555 1_555
H1 S0 1.369555 1_555
H2 S3 1.369555 1_555
H3 S2 1.369555 1_555
H4 N0 1.012119 1_655
H5 N1 1.012119 1_565
H6 N2 1.012119 1_455
H7 N3 1.012119 1_545
H8 H9 0.749826 1_555
H10 H11 0.749826 1_555
H12 N4 1.041240 1_555
H13 N5 1.041240 1_555
H14 N6 1.041240 1_555
H15 N7 1.041240 1_555
C0 N0 1.173974 1_555
C1 N1 1.173974 1_555
C2 N2 1.173974 1_555
C3 N3 1.173974 1_555
I2 N7 2.262697 1_555
I2 N6 2.262697 1_555
I3 N4 2.262696 1_555
I3 N5 2.262696 1_555
N4 S0 1.645984 1_555
N5 S1 1.645984 1_555
N6 S2 1.645984 1_555
N7 S3 1.645984 1_555
