# generated using pymatgen
data_Li9Mn2Co5O16
_symmetry_space_group_name_H-M   'P 1'
_cell_length_a   6.56838600
_cell_length_b   6.65212283
_cell_length_c   7.73194861
_cell_angle_alpha   74.94713201
_cell_angle_beta   65.45957603
_cell_angle_gamma   71.61321744
_symmetry_Int_Tables_number   1
_chemical_formula_structural   Li9Mn2Co5O16
_chemical_formula_sum   'Li9 Mn2 Co5 O16'
_cell_volume   288.37159139
_cell_formula_units_Z   1
loop_
 _symmetry_equiv_pos_site_id
 _symmetry_equiv_pos_as_xyz
  1  'x, y, z'
loop_
 _atom_site_type_symbol
 _atom_site_label
 _atom_site_symmetry_multiplicity
 _atom_site_fract_x
 _atom_site_fract_y
 _atom_site_fract_z
 _atom_site_occupancy
  Li  Li0  1  0.06733000  0.43884900  0.80901500  1
  Li  Li1  1  0.68725100  0.80793900  0.93559800  1
  Li  Li2  1  0.31385500  0.18957200  0.06123500  1
  Li  Li3  1  0.94642400  0.56137600  0.18005200  1
  Li  Li4  1  0.19153200  0.31130300  0.43748500  1
  Li  Li5  1  0.80241600  0.68848600  0.57461200  1
  Li  Li6  1  0.43887600  0.05743600  0.68710700  1
  Li  Li7  1  0.55565800  0.93980700  0.31437800  1
  Li  Li8  1  0.37628200  0.62718300  0.87343800  1
  Mn  Mn0  1  0.99794400  0.99778600  0.00096800  1
  Mn  Mn1  1  0.87650400  0.12429400  0.37422700  1
  Co  Co0  1  0.74115800  0.26397700  0.75152000  1
  Co  Co1  1  0.13447500  0.86913800  0.63018900  1
  Co  Co2  1  0.49963500  0.50049100  0.50134300  1
  Co  Co3  1  0.25631100  0.74730000  0.24680000  1
  Co  Co4  1  0.60855500  0.38437700  0.12081200  1
  O  O0  1  0.07835400  0.14435200  0.73926000  1
  O  O1  1  0.72532100  0.51601800  0.84656700  1
  O  O2  1  0.31552600  0.90535700  0.98920300  1
  O  O3  1  0.95430500  0.25955000  0.10574200  1
  O  O4  1  0.19634900  0.02925500  0.34980000  1
  O  O5  1  0.84270400  0.38548600  0.46425900  1
  O  O6  1  0.45236900  0.77993700  0.58950900  1
  O  O7  1  0.58732200  0.64472200  0.22695300  1
  O  O8  1  0.02580100  0.74652500  0.91132700  1
  O  O9  1  0.67450600  0.10023800  0.02467700  1
  O  O10  1  0.29411800  0.46579200  0.15969600  1
  O  O11  1  0.91147400  0.86714700  0.27269200  1
  O  O12  1  0.16451200  0.60454600  0.51906300  1
  O  O13  1  0.80210700  0.97880600  0.63683700  1
  O  O14  1  0.42632600  0.34357400  0.76362200  1
  O  O15  1  0.55470100  0.21938000  0.40201100  1
loop_
_geom_bond_atom_site_label_1
_geom_bond_atom_site_label_2
_geom_bond_distance
_geom_bond_site_symmetry_2
Li0 O1 2.049988 1_455
Li0 O0 2.135607 1_555
Li0 O14 2.137851 1_555
Li0 O12 2.149433 1_555
Li0 O3 2.227070 1_456
Li0 O8 2.280067 1_555
Li1 O8 2.065705 1_655
Li1 O1 2.133629 1_555
Li1 O7 2.152993 1_556
Li1 O9 2.192522 1_566
Li1 O2 2.203181 1_555
Li1 O13 2.219625 1_555
Li2 O2 2.100852 1_544
Li2 O10 2.113510 1_555
Li2 O4 2.136356 1_555
Li2 O3 2.151079 1_455
Li2 O9 2.165099 1_555
Li2 O14 2.175153 1_554
Li3 O8 2.069273 1_654
Li3 O10 2.117089 1_655
Li3 O7 2.138076 1_555
Li3 O5 2.141451 1_555
Li3 O3 2.207470 1_555
Li3 O11 2.242462 1_555
Li4 O10 2.052208 1_555
Li4 O5 2.117051 1_455
Li4 O12 2.135941 1_555
Li4 O4 2.141564 1_555
Li4 O15 2.182397 1_555
Li4 O0 2.228081 1_555
Li5 O1 2.055029 1_555
Li5 O13 2.107256 1_555
Li5 O12 2.142707 1_655
Li5 O6 2.145664 1_555
Li5 O11 2.254349 1_555
Li5 O5 2.286901 1_555
Li6 O14 2.103626 1_555
Li6 O15 2.118719 1_555
Li6 O6 2.132993 1_545
Li6 O0 2.137450 1_555
Li6 O13 2.159843 1_545
Li6 O2 2.203056 1_545
Li7 O6 2.048870 1_555
Li7 O11 2.131256 1_555
Li7 O15 2.135755 1_565
Li7 O9 2.144088 1_565
Li7 O4 2.158898 1_565
Li7 O7 2.160602 1_555
Li8 O6 2.086158 1_555
Li8 O8 2.103175 1_555
Li8 O1 2.112042 1_555
Li8 O10 2.117009 1_556
Li8 O2 2.117154 1_555
Li8 O14 2.144123 1_555
Mn0 O8 1.900251 1_654
Mn0 O0 1.932995 1_664
Mn0 O2 1.949363 1_654
Mn0 O9 1.959443 1_565
Mn0 O11 1.965610 1_555
Mn0 O3 1.998865 1_565
Mn1 O4 1.934817 1_655
Mn1 O13 1.936940 1_545
Mn1 O15 1.940107 1_555
Mn1 O5 1.951725 1_555
Mn1 O3 1.954169 1_555
Mn1 O11 1.973579 1_545
Co0 O14 1.933836 1_555
Co0 O1 1.956624 1_555
Co0 O9 2.043672 1_556
Co0 O5 2.051451 1_555
Co0 O0 2.073792 1_655
Co0 O13 2.155197 1_545
Co1 O6 1.892283 1_555
Co1 O8 2.014304 1_555
Co1 O13 2.054847 1_455
Co1 O12 2.073830 1_555
Co1 O0 2.077676 1_565
Co1 O4 2.083616 1_565
Co2 O14 1.959685 1_555
Co2 O7 2.007389 1_555
Co2 O6 2.033462 1_555
Co2 O12 2.044695 1_555
Co2 O5 2.057913 1_555
Co2 O15 2.075111 1_555
Co3 O2 1.936616 1_554
Co3 O12 1.991324 1_555
Co3 O7 2.014360 1_555
Co3 O10 2.060282 1_555
Co3 O4 2.087228 1_565
Co3 O11 2.091183 1_455
Co4 O10 1.874159 1_555
Co4 O1 1.989888 1_554
Co4 O7 2.045251 1_555
Co4 O9 2.063612 1_555
Co4 O15 2.103227 1_555
Co4 O3 2.121649 1_555
