# generated using pymatgen
data_Mg14TiFe
_symmetry_space_group_name_H-M   'P 1'
_cell_length_a   6.29007290
_cell_length_b   6.11577672
_cell_length_c   9.98691788
_cell_angle_alpha   90.00000000
_cell_angle_beta   90.00000000
_cell_angle_gamma   119.08753114
_symmetry_Int_Tables_number   1
_chemical_formula_structural   Mg14TiFe
_chemical_formula_sum   'Mg14 Ti1 Fe1'
_cell_volume   335.72957784
_cell_formula_units_Z   1
loop_
 _symmetry_equiv_pos_site_id
 _symmetry_equiv_pos_as_xyz
  1  'x, y, z'
loop_
 _atom_site_type_symbol
 _atom_site_label
 _atom_site_symmetry_multiplicity
 _atom_site_fract_x
 _atom_site_fract_y
 _atom_site_fract_z
 _atom_site_occupancy
  Mg  Mg0  1  0.16497812  0.33248856  0.62500000  1
  Mg  Mg1  1  0.16890513  0.83445206  0.62500000  1
  Mg  Mg2  1  0.66129558  0.33595772  0.12500000  1
  Mg  Mg3  1  0.66274548  0.32929648  0.62500000  1
  Mg  Mg4  1  0.66129558  0.82533686  0.12500000  1
  Mg  Mg5  1  0.66274548  0.83344800  0.62500000  1
  Mg  Mg6  1  0.32714562  0.16760745  0.35885470  1
  Mg  Mg7  1  0.32714562  0.16760745  0.89114530  1
  Mg  Mg8  1  0.32714562  0.65953916  0.35885470  1
  Mg  Mg9  1  0.32714562  0.65953916  0.89114530  1
  Mg  Mg10  1  0.85387854  0.17693977  0.35748215  1
  Mg  Mg11  1  0.85387854  0.17693977  0.89251785  1
  Mg  Mg12  1  0.84406817  0.67203459  0.37526671  1
  Mg  Mg13  1  0.84406817  0.67203459  0.87473329  1
  Ti  Ti0  1  0.15184786  0.82592343  0.12500000  1
  Fe  Fe0  1  0.16171088  0.33085494  0.12500000  1
loop_
_geom_bond_atom_site_label_1
_geom_bond_atom_site_label_2
_geom_bond_distance
_geom_bond_site_symmetry_2
Mg0 Mg1 3.057965 1_555
Mg0 Mg1 3.057965 1_545
Mg0 Mg5 3.140530 1_555
Mg0 Mg3 3.140530 1_555
Mg0 Mg5 3.149635 1_445
Mg0 Mg3 3.149636 1_455
Mg0 Mg10 3.172081 1_455
Mg0 Mg11 3.172081 1_455
Mg0 Mg7 3.181543 1_555
Mg0 Mg6 3.181543 1_555
Mg0 Mg9 3.181548 1_555
Mg0 Mg8 3.181548 1_555
Mg1 Mg12 3.067336 1_455
Mg1 Mg13 3.067336 1_455
Mg1 Mg3 3.109281 1_565
Mg1 Mg5 3.109282 1_555
Mg1 Mg3 3.180800 1_455
Mg1 Mg5 3.180800 1_455
Mg1 Mg9 3.199232 1_555
Mg1 Mg8 3.199232 1_555
Mg1 Mg7 3.199238 1_565
Mg1 Mg6 3.199238 1_565
Mg2 Mg6 2.971226 1_555
Mg2 Mg7 2.971226 1_554
Mg2 Mg4 2.992934 1_555
Mg2 Ti0 3.083867 1_655
Mg2 Mg4 3.122843 1_545
Mg2 Ti0 3.206209 1_545
Mg3 Mg5 3.032499 1_545
Mg3 Mg5 3.083278 1_555
Mg3 Mg7 3.235609 1_555
Mg3 Mg6 3.235609 1_555
Mg4 Mg8 2.971226 1_555
Mg4 Mg9 2.971226 1_554
Mg4 Ti0 3.083867 1_655
Mg4 Ti0 3.206209 1_555
Mg5 Mg9 3.235609 1_555
Mg5 Mg8 3.235609 1_555
Mg6 Ti0 2.965925 1_545
Mg6 Mg8 3.008544 1_555
Mg6 Mg8 3.107232 1_545
Mg7 Ti0 2.965925 1_546
Mg7 Mg9 3.008544 1_555
Mg7 Mg9 3.107232 1_545
Mg8 Ti0 2.965918 1_555
Mg9 Ti0 2.965918 1_556
Mg10 Mg2 2.991534 1_555
Mg10 Mg4 2.991540 1_545
Mg10 Mg8 3.005076 1_655
Mg10 Mg6 3.005076 1_655
Mg10 Mg12 3.063517 1_545
Mg10 Mg12 3.063517 1_555
Mg10 Mg3 3.246636 1_555
Mg10 Mg5 3.246642 1_545
Mg10 Mg8 3.285849 1_545
Mg10 Mg6 3.285849 1_555
Mg11 Mg2 2.991534 1_556
Mg11 Mg4 2.991540 1_546
Mg11 Mg9 3.005076 1_655
Mg11 Mg7 3.005076 1_655
Mg11 Mg13 3.063517 1_545
Mg11 Mg13 3.063517 1_555
Mg11 Mg3 3.246636 1_555
Mg11 Mg5 3.246642 1_545
Mg11 Mg9 3.285849 1_545
Mg11 Mg7 3.285849 1_555
Mg12 Ti0 3.018132 1_655
Mg12 Mg6 3.080831 1_665
Mg12 Mg8 3.080831 1_655
Mg12 Mg4 3.081509 1_555
Mg12 Mg2 3.081514 1_555
Mg12 Mg5 3.096834 1_555
Mg12 Mg3 3.096840 1_555
Mg12 Mg6 3.219198 1_555
Mg12 Mg8 3.219199 1_555
Mg13 Ti0 3.018132 1_656
Mg13 Mg7 3.080831 1_665
Mg13 Mg9 3.080831 1_655
Mg13 Mg4 3.081509 1_556
Mg13 Mg2 3.081514 1_556
Mg13 Mg5 3.096834 1_555
Mg13 Mg3 3.096840 1_555
Mg13 Mg7 3.219198 1_555
Mg13 Mg9 3.219199 1_555
Fe0 Mg11 2.872942 1_454
Fe0 Mg10 2.872942 1_455
Fe0 Mg6 2.923054 1_555
Fe0 Mg7 2.923054 1_554
Fe0 Mg8 2.923060 1_555
Fe0 Mg9 2.923060 1_554
Fe0 Ti0 3.058369 1_545
Fe0 Ti0 3.058369 1_555
Fe0 Mg4 3.127371 1_555
Fe0 Mg2 3.127372 1_555
Fe0 Mg4 3.162937 1_445
Fe0 Mg2 3.162938 1_455
