# generated using pymatgen
data_SrCaCo(PO4)2
_symmetry_space_group_name_H-M   'P 1'
_cell_length_a   5.72088000
_cell_length_b   6.94597020
_cell_length_c   9.50959854
_cell_angle_alpha   109.49885114
_cell_angle_beta   101.68869880
_cell_angle_gamma   98.64513572
_symmetry_Int_Tables_number   1
_chemical_formula_structural   SrCaCo(PO4)2
_chemical_formula_sum   'Sr2 Ca2 Co2 P4 O16'
_cell_volume   338.96325592
_cell_formula_units_Z   2
loop_
 _symmetry_equiv_pos_site_id
 _symmetry_equiv_pos_as_xyz
  1  'x, y, z'
loop_
 _atom_site_type_symbol
 _atom_site_label
 _atom_site_symmetry_multiplicity
 _atom_site_fract_x
 _atom_site_fract_y
 _atom_site_fract_z
 _atom_site_occupancy
  Sr  Sr0  1  0.20615100  0.74936500  0.05887500  1
  Sr  Sr1  1  0.79384900  0.25063500  0.94112500  1
  Ca  Ca0  1  0.33819600  0.75611800  0.65967000  1
  Ca  Ca1  1  0.66180400  0.24388200  0.34033000  1
  Co  Co0  1  0.08310600  0.28914200  0.56176600  1
  Co  Co1  1  0.91689400  0.71085800  0.43823400  1
  P  P0  1  0.16822700  0.19199300  0.22572600  1
  P  P1  1  0.83177300  0.80800700  0.77427400  1
  P  P2  1  0.54052600  0.73537700  0.29897100  1
  P  P3  1  0.45947400  0.26462300  0.70102900  1
  O  O0  1  0.96146600  0.68020300  0.87886500  1
  O  O1  1  0.45532500  0.28583500  0.16630300  1
  O  O2  1  0.89150100  0.03950200  0.76094400  1
  O  O3  1  0.26736700  0.40600400  0.69075000  1
  O  O4  1  0.54467500  0.71416500  0.83369700  1
  O  O5  1  0.41969000  0.13392700  0.59830900  1
  O  O6  1  0.58031000  0.86607300  0.40169100  1
  O  O7  1  0.40077500  0.13047600  0.87027300  1
  O  O8  1  0.10849900  0.96049800  0.23905600  1
  O  O9  1  0.59922500  0.86952400  0.12972700  1
  O  O10  1  0.03853400  0.31979700  0.12113500  1
  O  O11  1  0.03777600  0.20146600  0.38908800  1
  O  O12  1  0.96222400  0.79853400  0.61091200  1
  O  O13  1  0.26209400  0.59393300  0.37350300  1
  O  O14  1  0.73263300  0.59399600  0.30925000  1
  O  O15  1  0.73790600  0.40606700  0.62649700  1
loop_
_geom_bond_atom_site_label_1
_geom_bond_atom_site_label_2
_geom_bond_distance
_geom_bond_site_symmetry_2
Ca0 O4 1.962744 1_555
Ca0 O12 2.192197 1_455
Ca0 O13 2.488012 1_555
Ca0 O7 2.617959 1_565
Ca1 O1 1.962744 1_555
Ca1 O11 2.192197 1_655
Ca1 O15 2.488012 1_555
Ca1 O9 2.617959 1_545
Co0 O3 1.352330 1_555
Co0 O11 1.498997 1_555
Co0 O15 2.362105 1_455
Co1 O14 1.352330 1_555
Co1 O12 1.498997 1_555
Co1 O13 2.362105 1_655
O0 P1 1.678168 1_555
O0 Sr0 1.843509 1_656
O1 P0 1.934416 1_555
O2 P1 1.645235 1_545
O2 Sr1 2.086949 1_555
O3 P3 1.589589 1_555
O4 P1 1.934416 1_555
O5 P3 1.042077 1_555
O6 P2 1.042077 1_555
O7 Sr1 2.157265 1_555
O7 P3 2.167335 1_555
O8 P0 1.645235 1_565
O8 Sr0 2.086949 1_555
O9 Sr0 2.157265 1_555
O9 P2 2.167335 1_555
O10 P0 1.678168 1_555
O10 Sr1 1.843509 1_454
O11 P0 1.841455 1_555
O12 P1 1.841455 1_555
O13 P2 2.111088 1_555
O14 P2 1.589589 1_555
O15 P3 2.111088 1_555
