# generated using pymatgen
data_NdCO4
_symmetry_space_group_name_H-M   'P 1'
_cell_length_a   12.54171902
_cell_length_b   12.54171902
_cell_length_c   9.89108900
_cell_angle_alpha   90.00000000
_cell_angle_beta   90.00000000
_cell_angle_gamma   119.99999485
_symmetry_Int_Tables_number   1
_chemical_formula_structural   NdCO4
_chemical_formula_sum   'Nd18 C18 O72'
_cell_volume   1347.37628063
_cell_formula_units_Z   18
loop_
 _symmetry_equiv_pos_site_id
 _symmetry_equiv_pos_as_xyz
  1  'x, y, z'
loop_
 _atom_site_type_symbol
 _atom_site_label
 _atom_site_symmetry_multiplicity
 _atom_site_fract_x
 _atom_site_fract_y
 _atom_site_fract_z
 _atom_site_occupancy
  Nd  Nd0  1  0.56287000  0.78435200  0.75976700  1
  Nd  Nd1  1  0.22148200  0.43713000  0.75976700  1
  Nd  Nd2  1  0.21564800  0.77851800  0.75976700  1
  Nd  Nd3  1  0.56287000  0.78435200  0.24023300  1
  Nd  Nd4  1  0.22148200  0.43713000  0.24023300  1
  Nd  Nd5  1  0.21564800  0.77851800  0.24023300  1
  Nd  Nd6  1  0.89534900  0.45165300  0.74372300  1
  Nd  Nd7  1  0.55630500  0.10465100  0.74372300  1
  Nd  Nd8  1  0.54834700  0.44369500  0.74372300  1
  Nd  Nd9  1  0.89534900  0.45165300  0.25627700  1
  Nd  Nd10  1  0.55630500  0.10465100  0.25627700  1
  Nd  Nd11  1  0.54834700  0.44369500  0.25627700  1
  Nd  Nd12  1  0.87865100  0.76999900  0.74334500  1
  Nd  Nd13  1  0.89134800  0.12134900  0.74334500  1
  Nd  Nd14  1  0.23000100  0.10865200  0.74334500  1
  Nd  Nd15  1  0.87865100  0.76999900  0.25665500  1
  Nd  Nd16  1  0.89134800  0.12134900  0.25665500  1
  Nd  Nd17  1  0.23000100  0.10865200  0.25665500  1
  C  C0  1  0.84191100  0.31237400  0.00000000  1
  C  C1  1  0.47046300  0.15808900  0.00000000  1
  C  C2  1  0.68762600  0.52953700  0.00000000  1
  C  C3  1  0.44633100  0.86897300  0.00000000  1
  C  C4  1  0.42264100  0.55366900  0.00000000  1
  C  C5  1  0.13102700  0.57735900  0.00000000  1
  C  C6  1  0.80027200  0.82887300  0.00000000  1
  C  C7  1  0.02860000  0.19972800  0.00000000  1
  C  C8  1  0.17112700  0.97140000  0.00000000  1
  C  C9  1  0.75524600  0.53667000  0.50000000  1
  C  C10  1  0.78142400  0.24475400  0.50000000  1
  C  C11  1  0.46333000  0.21857600  0.50000000  1
  C  C12  1  0.10905500  0.90517200  0.50000000  1
  C  C13  1  0.79611600  0.89094500  0.50000000  1
  C  C14  1  0.09482800  0.20388400  0.50000000  1
  C  C15  1  0.51429700  0.86925800  0.50000000  1
  C  C16  1  0.35496000  0.48570300  0.50000000  1
  C  C17  1  0.13074200  0.64504000  0.50000000  1
  O  O0  1  0.84672600  0.41896700  0.00000000  1
  O  O1  1  0.57224100  0.15327400  0.00000000  1
  O  O2  1  0.58103300  0.42775900  0.00000000  1
  O  O3  1  0.84105600  0.26339100  0.88511600  1
  O  O4  1  0.42233400  0.15894400  0.88511600  1
  O  O5  1  0.73660900  0.57766600  0.88511600  1
  O  O6  1  0.84105600  0.26339100  0.11488400  1
  O  O7  1  0.42233400  0.15894400  0.11488400  1
  O  O8  1  0.73660900  0.57766600  0.11488400  1
  O  O9  1  0.50319300  0.80618200  0.00000000  1
  O  O10  1  0.30298900  0.49680700  0.00000000  1
  O  O11  1  0.19381800  0.69701100  0.00000000  1
  O  O12  1  0.48019100  0.58104800  0.88540600  1
  O  O13  1  0.10085700  0.51980900  0.88540600  1
  O  O14  1  0.41895200  0.89914300  0.88540600  1
  O  O15  1  0.48019100  0.58104800  0.11459400  1
  O  O16  1  0.10085700  0.51980900  0.11459400  1
  O  O17  1  0.41895200  0.89914300  0.11459400  1
  O  O18  1  0.90209600  0.82579800  0.00000000  1
  O  O19  1  0.92370300  0.09790400  0.00000000  1
  O  O20  1  0.17420200  0.07629700  0.00000000  1
  O  O21  1  0.75036600  0.82833900  0.88575200  1
  O  O22  1  0.07797300  0.24963400  0.88575200  1
  O  O23  1  0.17166100  0.92202700  0.88575200  1
  O  O24  1  0.75036600  0.82833900  0.11424800  1
  O  O25  1  0.07797300  0.24963400  0.11424800  1
  O  O26  1  0.17166100  0.92202700  0.11424800  1
  O  O27  1  0.83396300  0.36367700  0.50000000  1
  O  O28  1  0.52971400  0.16603700  0.50000000  1
  O  O29  1  0.63632300  0.47028600  0.50000000  1
  O  O30  1  0.81403800  0.56978200  0.61386100  1
  O  O31  1  0.75574400  0.18596200  0.61386100  1
  O  O32  1  0.43021800  0.24425600  0.61386100  1
  O  O33  1  0.81403800  0.56978200  0.38613900  1
  O  O34  1  0.75574400  0.18596200  0.38613900  1
  O  O35  1  0.43021800  0.24425600  0.38613900  1
  O  O36  1  0.85252500  0.82745500  0.50000000  1
  O  O37  1  0.97493000  0.14747500  0.50000000  1
  O  O38  1  0.17254500  0.02507000  0.50000000  1
  O  O39  1  0.07847100  0.84745800  0.61448200  1
  O  O40  1  0.76898700  0.92152900  0.61448200  1
  O  O41  1  0.15254200  0.23101300  0.61448200  1
  O  O42  1  0.07847100  0.84745800  0.38551800  1
  O  O43  1  0.76898700  0.92152900  0.38551800  1
  O  O44  1  0.15254200  0.23101300  0.38551800  1
  O  O45  1  0.51604400  0.76629200  0.50000000  1
  O  O46  1  0.25024800  0.48395600  0.50000000  1
  O  O47  1  0.23370800  0.74975200  0.50000000  1
  O  O48  1  0.51454000  0.91880900  0.61405500  1
  O  O49  1  0.40426900  0.48546000  0.61405500  1
  O  O50  1  0.08119100  0.59573100  0.61405500  1
  O  O51  1  0.51454000  0.91880900  0.38594500  1
  O  O52  1  0.40426900  0.48546000  0.38594500  1
  O  O53  1  0.08119100  0.59573100  0.38594500  1
  O  O54  1  0.33333300  0.66666700  0.73949700  1
  O  O55  1  0.33333300  0.66666700  0.26050300  1
  O  O56  1  0.66666700  0.33333300  0.75385400  1
  O  O57  1  0.66666700  0.33333300  0.24614600  1
  O  O58  1  0.00000000  0.00000000  0.75821700  1
  O  O59  1  0.00000000  0.00000000  0.24178300  1
  O  O60  1  0.00758400  0.34478100  0.69166300  1
  O  O61  1  0.33719800  0.99241600  0.69166300  1
  O  O62  1  0.65521900  0.66280200  0.69166300  1
  O  O63  1  0.00758400  0.34478100  0.30833700  1
  O  O64  1  0.33719800  0.99241600  0.30833700  1
  O  O65  1  0.65521900  0.66280200  0.30833700  1
  O  O66  1  0.99299000  0.66927800  0.80633000  1
  O  O67  1  0.67628800  0.00701000  0.80633000  1
  O  O68  1  0.33072200  0.32371200  0.80633000  1
  O  O69  1  0.99299000  0.66927800  0.19367000  1
  O  O70  1  0.67628800  0.00701000  0.19367000  1
  O  O71  1  0.33072200  0.32371200  0.19367000  1
loop_
_geom_bond_atom_site_label_1
_geom_bond_atom_site_label_2
_geom_bond_distance
_geom_bond_site_symmetry_2
Nd0 O62 2.425861 1_555
Nd0 O67 2.461992 1_565
Nd0 O21 2.467705 1_555
Nd0 O54 2.501420 1_555
Nd0 O48 2.512059 1_555
Nd0 O12 2.544992 1_555
Nd0 O9 2.546806 1_556
Nd0 O45 2.620093 1_555
Nd0 O40 2.694449 1_555
Nd1 O60 2.425850 1_555
Nd1 O68 2.461991 1_555
Nd1 O22 2.467705 1_555
Nd1 O54 2.501420 1_555
Nd1 O49 2.512059 1_555
Nd1 O13 2.544991 1_555
Nd1 O10 2.546806 1_556
Nd1 O46 2.620093 1_555
Nd1 O41 2.694449 1_555
Nd2 O61 2.425851 1_555
Nd2 O66 2.461992 1_455
Nd2 O23 2.467705 1_555
Nd2 O54 2.501409 1_555
Nd2 O50 2.512059 1_555
Nd2 O14 2.544992 1_555
Nd2 O11 2.546806 1_556
Nd2 O47 2.620093 1_555
Nd2 O39 2.694449 1_555
Nd3 O65 2.425861 1_555
Nd3 O70 2.461992 1_565
Nd3 O24 2.467705 1_555
Nd3 O55 2.501420 1_555
Nd3 O51 2.512059 1_555
Nd3 O15 2.544992 1_555
Nd3 O9 2.546806 1_555
Nd3 O45 2.620093 1_555
Nd3 O43 2.694449 1_555
Nd4 O63 2.425850 1_555
Nd4 O71 2.461991 1_555
Nd4 O25 2.467705 1_555
Nd4 O55 2.501420 1_555
Nd4 O52 2.512059 1_555
Nd4 O16 2.544991 1_555
Nd4 O10 2.546806 1_555
Nd4 O46 2.620093 1_555
Nd4 O44 2.694449 1_555
Nd5 O64 2.425851 1_555
Nd5 O69 2.461992 1_455
Nd5 O26 2.467705 1_555
Nd5 O55 2.501409 1_555
Nd5 O53 2.512059 1_555
Nd5 O17 2.544992 1_555
Nd5 O11 2.546806 1_555
Nd5 O47 2.620093 1_555
Nd5 O42 2.694449 1_555
Nd6 O60 2.435123 1_655
Nd6 O66 2.447506 1_555
Nd6 O50 2.476085 1_655
Nd6 O56 2.486339 1_555
Nd6 O3 2.527197 1_555
Nd6 O30 2.528960 1_555
Nd6 O0 2.591418 1_556
Nd6 O27 2.602324 1_555
Nd6 O13 2.671056 1_655
Nd7 O61 2.435123 1_545
Nd7 O67 2.447495 1_555
Nd7 O48 2.476082 1_545
Nd7 O56 2.486339 1_555
Nd7 O4 2.527217 1_555
Nd7 O31 2.528950 1_555
Nd7 O1 2.591418 1_556
Nd7 O28 2.602327 1_555
Nd7 O14 2.671058 1_545
Nd8 O62 2.435123 1_555
Nd8 O68 2.447506 1_555
Nd8 O49 2.476092 1_555
Nd8 O56 2.486339 1_555
Nd8 O5 2.527202 1_555
Nd8 O32 2.528951 1_555
Nd8 O2 2.591416 1_556
Nd8 O29 2.602322 1_555
Nd8 O12 2.671066 1_555
Nd9 O63 2.435123 1_655
Nd9 O69 2.447506 1_555
Nd9 O53 2.476085 1_655
Nd9 O57 2.486339 1_555
Nd9 O6 2.527197 1_555
Nd9 O33 2.528960 1_555
Nd9 O0 2.591418 1_555
Nd9 O27 2.602324 1_555
Nd9 O16 2.671056 1_655
Nd10 O64 2.435123 1_545
Nd10 O70 2.447495 1_555
Nd10 O51 2.476082 1_545
Nd10 O57 2.486339 1_555
Nd10 O7 2.527217 1_555
Nd10 O34 2.528950 1_555
Nd10 O1 2.591418 1_555
Nd10 O28 2.602327 1_555
Nd10 O17 2.671058 1_545
Nd11 O65 2.435123 1_555
Nd11 O71 2.447506 1_555
Nd11 O52 2.476092 1_555
Nd11 O57 2.486339 1_555
Nd11 O8 2.527202 1_555
Nd11 O35 2.528951 1_555
Nd11 O2 2.591416 1_555
Nd11 O29 2.602322 1_555
Nd11 O15 2.671066 1_555
Nd12 O66 2.419021 1_555
Nd12 O62 2.480698 1_555
Nd12 O58 2.503737 1_665
Nd12 O21 2.507035 1_555
Nd12 O39 2.532633 1_655
Nd12 O30 2.562725 1_555
Nd12 O36 2.579948 1_555
Nd12 O5 2.580965 1_555
Nd12 O18 2.610537 1_556
Nd13 O67 2.419022 1_555
Nd13 O60 2.480698 1_655
Nd13 O58 2.503737 1_655
Nd13 O22 2.507035 1_655
Nd13 O40 2.532633 1_545
Nd13 O31 2.562724 1_555
Nd13 O37 2.579948 1_555
Nd13 O3 2.580972 1_555
Nd13 O19 2.610540 1_556
Nd14 O68 2.419022 1_555
Nd14 O61 2.480709 1_545
Nd14 O58 2.503737 1_555
Nd14 O23 2.507035 1_545
Nd14 O41 2.532633 1_555
Nd14 O32 2.562725 1_555
Nd14 O38 2.579948 1_555
Nd14 O4 2.580962 1_555
Nd14 O20 2.610537 1_556
Nd15 O69 2.419021 1_555
Nd15 O65 2.480698 1_555
Nd15 O59 2.503737 1_665
Nd15 O24 2.507035 1_555
Nd15 O42 2.532633 1_655
Nd15 O33 2.562725 1_555
Nd15 O36 2.579948 1_555
Nd15 O8 2.580965 1_555
Nd15 O18 2.610537 1_555
Nd16 O70 2.419022 1_555
Nd16 O63 2.480698 1_655
Nd16 O59 2.503737 1_655
Nd16 O25 2.507035 1_655
Nd16 O43 2.532633 1_545
Nd16 O34 2.562724 1_555
Nd16 O37 2.579948 1_555
Nd16 O6 2.580972 1_555
Nd16 O19 2.610540 1_555
Nd17 O71 2.419022 1_555
Nd17 O64 2.480709 1_545
Nd17 O59 2.503737 1_555
Nd17 O26 2.507035 1_545
Nd17 O44 2.532633 1_555
Nd17 O35 2.562725 1_555
Nd17 O38 2.579948 1_555
Nd17 O7 2.580962 1_555
Nd17 O20 2.610537 1_555
C0 O3 1.289252 1_554
C0 O6 1.289252 1_555
C0 O0 1.307711 1_555
C1 O4 1.289258 1_554
C1 O7 1.289258 1_555
C1 O1 1.307711 1_555
C2 O5 1.289255 1_554
C2 O8 1.289255 1_555
C2 O2 1.307712 1_555
C3 O14 1.294505 1_554
C3 O17 1.294505 1_555
C3 O9 1.300136 1_555
C4 O12 1.294510 1_554
C4 O15 1.294510 1_555
C4 O10 1.300126 1_555
C5 O13 1.294510 1_554
C5 O16 1.294510 1_555
C5 O11 1.300126 1_555
C6 O24 1.290192 1_555
C6 O21 1.290192 1_554
C6 O18 1.296761 1_555
C7 O25 1.290195 1_555
C7 O22 1.290195 1_554
C7 O19 1.296748 1_455
C8 O23 1.290198 1_554
C8 O26 1.290198 1_555
C8 O20 1.296736 1_565
C9 O29 1.294590 1_555
C9 O30 1.295487 1_555
C9 O33 1.295487 1_555
C10 O27 1.294590 1_555
C10 O31 1.295487 1_555
C10 O34 1.295487 1_555
C11 O28 1.294590 1_555
C11 O32 1.295487 1_555
C11 O35 1.295487 1_555
C12 O42 1.294465 1_555
C12 O39 1.294465 1_555
C12 O38 1.303023 1_565
C13 O40 1.294460 1_555
C13 O43 1.294460 1_555
C13 O36 1.303033 1_555
C14 O44 1.294465 1_555
C14 O41 1.294465 1_555
C14 O37 1.303022 1_455
C15 O48 1.287243 1_555
C15 O51 1.287243 1_555
C15 O45 1.302464 1_555
C16 O52 1.287249 1_555
C16 O49 1.287249 1_555
C16 O46 1.302452 1_555
C17 O53 1.287246 1_555
C17 O50 1.287246 1_555
C17 O47 1.302458 1_555
