# generated using pymatgen
data_Ca(SbO2)2
_symmetry_space_group_name_H-M   'P 1'
_cell_length_a   6.75265500
_cell_length_b   6.76072150
_cell_length_c   18.04787143
_cell_angle_alpha   89.98004680
_cell_angle_beta   92.44597071
_cell_angle_gamma   114.66567757
_symmetry_Int_Tables_number   1
_chemical_formula_structural   Ca(SbO2)2
_chemical_formula_sum   'Ca6 Sb12 O24'
_cell_volume   747.93835314
_cell_formula_units_Z   6
loop_
 _symmetry_equiv_pos_site_id
 _symmetry_equiv_pos_as_xyz
  1  'x, y, z'
loop_
 _atom_site_type_symbol
 _atom_site_label
 _atom_site_symmetry_multiplicity
 _atom_site_fract_x
 _atom_site_fract_y
 _atom_site_fract_z
 _atom_site_occupancy
  Ca  Ca0  1  0.82563100  0.18829800  0.02927100  1
  Ca  Ca1  1  0.48670700  0.47069600  0.36269200  1
  Ca  Ca2  1  0.52217400  0.47298300  0.00651300  1
  Ca  Ca3  1  0.21207200  0.79815300  0.71881500  1
  Ca  Ca4  1  0.83083100  0.18015100  0.30615200  1
  Ca  Ca5  1  0.47324300  0.54710000  0.60282900  1
  Sb  Sb0  1  0.38373000  0.22237600  0.18182400  1
  Sb  Sb1  1  0.33466000  0.71460500  0.12029400  1
  Sb  Sb2  1  0.99340400  0.51181900  0.52765000  1
  Sb  Sb3  1  0.83041600  0.66097500  0.17365100  1
  Sb  Sb4  1  0.11156900  0.83081300  0.32498200  1
  Sb  Sb5  1  0.97022500  0.00167900  0.46630500  1
  Sb  Sb6  1  0.69340600  0.79581100  0.79525200  1
  Sb  Sb7  1  0.45679400  0.93308200  0.49874600  1
  Sb  Sb8  1  0.18452200  0.34529900  0.83345400  1
  Sb  Sb9  1  0.82554600  0.17143700  0.66083000  1
  Sb  Sb10  1  0.67784800  0.28942800  0.86130400  1
  Sb  Sb11  1  0.15449800  0.77775900  0.93200500  1
  O  O0  1  0.65179100  0.32314700  0.11990600  1
  O  O1  1  0.52707800  0.54569900  0.22180400  1
  O  O2  1  0.21504000  0.41109600  0.07933700  1
  O  O3  1  0.63268100  0.80366600  0.07916800  1
  O  O4  1  0.94895000  0.53752200  0.26638600  1
  O  O5  1  0.42639200  0.63872000  0.47123700  1
  O  O6  1  0.48937800  0.15832000  0.28109400  1
  O  O7  1  0.21517600  0.84042700  0.03899500  1
  O  O8  1  0.84647400  0.74191400  0.39187800  1
  O  O9  1  0.21423900  0.74915100  0.59228200  1
  O  O10  1  0.94443400  0.93494900  0.25152700  1
  O  O11  1  0.14550100  0.17827000  0.38306100  1
  O  O12  1  0.66593300  0.93218400  0.58267500  1
  O  O13  1  0.92902800  0.94964600  0.71776100  1
  O  O14  1  0.08303600  0.29980400  0.59035800  1
  O  O15  1  0.73461500  0.09608500  0.43447300  1
  O  O16  1  0.90839400  0.17211500  0.89008100  1
  O  O17  1  0.53949100  0.99683100  0.79012200  1
  O  O18  1  0.72985200  0.41799400  0.58599100  1
  O  O19  1  0.02522600  0.49677900  0.78368900  1
  O  O20  1  0.51546000  0.14715000  0.95015500  1
  O  O21  1  0.45703100  0.60850800  0.72476500  1
  O  O22  1  0.86639100  0.52718900  0.95561000  1
  O  O23  1  0.32113400  0.58038000  0.91507100  1
loop_
_geom_bond_atom_site_label_1
_geom_bond_atom_site_label_2
_geom_bond_distance
_geom_bond_site_symmetry_2
Ca0 O20 2.400364 1_554
Ca0 O0 2.437840 1_555
Ca0 O2 2.547960 1_655
Ca0 O3 2.557586 1_545
Ca0 O22 2.568123 1_554
Ca0 O16 2.608817 1_554
Ca1 O11 2.371122 1_555
Ca1 O8 2.390607 1_555
Ca1 O5 2.397877 1_555
Ca1 O6 2.581739 1_555
Ca1 O1 2.596113 1_555
Ca2 O2 2.389950 1_555
Ca2 O23 2.392569 1_554
Ca2 O3 2.408426 1_555
Ca2 O20 2.409049 1_554
Ca2 O22 2.419110 1_554
Ca2 O0 2.562443 1_555
Ca3 O19 2.256761 1_555
Ca3 O9 2.309211 1_555
Ca3 O17 2.372414 1_555
Ca3 O21 2.479194 1_555
Ca3 O13 2.516577 1_455
Ca4 O6 2.273683 1_555
Ca4 O4 2.329795 1_555
Ca4 O10 2.331441 1_545
Ca4 O15 2.434738 1_555
Ca4 O11 2.492518 1_655
Ca5 O21 2.255326 1_555
Ca5 O18 2.272507 1_555
Ca5 O12 2.411562 1_555
Ca5 O14 2.462016 1_555
Ca5 O5 2.494511 1_555
Ca5 O9 2.631835 1_555
O0 Sb0 2.032808 1_555
O0 Sb3 2.283542 1_555
O1 Sb3 2.092224 1_555
O1 Sb0 2.100291 1_555
O1 Sb1 2.717055 1_555
O2 Sb1 1.993996 1_555
O2 Sb0 2.716301 1_555
O3 Sb1 2.019696 1_555
O3 Sb3 2.549681 1_555
O4 Sb4 2.083491 1_655
O4 Sb3 2.140262 1_555
O5 Sb7 1.974873 1_555
O6 Sb0 2.013602 1_555
O6 Sb4 2.737731 1_545
O7 Sb11 1.965724 1_554
O7 Sb1 1.999601 1_555
O8 Sb5 2.065865 1_565
O8 Sb4 2.075885 1_655
O9 Sb2 2.003669 1_455
O9 Sb7 2.369252 1_555
O10 Sb4 2.015377 1_655
O10 Sb3 2.172150 1_555
O11 Sb5 2.013573 1_455
O11 Sb4 2.490238 1_545
O12 Sb7 2.028168 1_555
O12 Sb9 2.045574 1_565
O13 Sb6 2.092103 1_555
O13 Sb9 2.145832 1_565
O14 Sb9 2.079080 1_455
O14 Sb2 2.089557 1_455
O15 Sb5 2.009465 1_555
O15 Sb7 2.130447 1_545
O16 Sb8 2.057119 1_655
O16 Sb10 2.069700 1_555
O17 Sb6 2.026429 1_555
O17 Sb10 2.189337 1_565
O18 Sb2 1.973710 1_555
O18 Sb9 2.417320 1_555
O19 Sb8 1.961863 1_555
O19 Sb10 2.638993 1_455
O20 Sb10 1.991926 1_555
O20 Sb11 2.671520 1_545
O21 Sb6 1.977471 1_555
O22 Sb11 2.038540 1_655
O22 Sb10 2.282652 1_555
O23 Sb8 2.051496 1_555
O23 Sb11 2.103126 1_555
