# generated using pymatgen
data_SmAl3Ni
_symmetry_space_group_name_H-M   'P 1'
_cell_length_a   4.07345316
_cell_length_b   8.15999999
_cell_length_c   10.70423674
_cell_angle_alpha   90.00000000
_cell_angle_beta   90.00000000
_cell_angle_gamma   90.00000000
_symmetry_Int_Tables_number   1
_chemical_formula_structural   SmAl3Ni
_chemical_formula_sum   'Sm4 Al12 Ni4'
_cell_volume   355.80216847
_cell_formula_units_Z   4
loop_
 _symmetry_equiv_pos_site_id
 _symmetry_equiv_pos_as_xyz
  1  'x, y, z'
loop_
 _atom_site_type_symbol
 _atom_site_label
 _atom_site_symmetry_multiplicity
 _atom_site_fract_x
 _atom_site_fract_y
 _atom_site_fract_z
 _atom_site_occupancy
  Sm  Sm0  1  0.25000000  0.68484889  0.51072981  1
  Sm  Sm1  1  0.75000000  0.31515111  0.48927019  1
  Sm  Sm2  1  0.75000000  0.81515111  0.01072981  1
  Sm  Sm3  1  0.25000000  0.18484889  0.98927019  1
  Al  Al0  1  0.25000000  0.85799311  0.22484834  1
  Al  Al1  1  0.75000000  0.14200689  0.77515166  1
  Al  Al2  1  0.75000000  0.64200689  0.72484834  1
  Al  Al3  1  0.25000000  0.35799311  0.27515166  1
  Al  Al4  1  0.25000000  0.55343387  0.08232671  1
  Al  Al5  1  0.75000000  0.44656613  0.91767329  1
  Al  Al6  1  0.75000000  0.94656613  0.58232671  1
  Al  Al7  1  0.25000000  0.05343387  0.41767329  1
  Al  Al8  1  0.25000000  0.88213552  0.78252185  1
  Al  Al9  1  0.75000000  0.11786448  0.21747815  1
  Al  Al10  1  0.75000000  0.61786448  0.28252185  1
  Al  Al11  1  0.25000000  0.38213552  0.71747815  1
  Ni  Ni0  1  0.25000000  0.60390713  0.85641857  1
  Ni  Ni1  1  0.75000000  0.39609287  0.14358143  1
  Ni  Ni2  1  0.75000000  0.89609287  0.35641857  1
  Ni  Ni3  1  0.25000000  0.10390713  0.64358143  1
loop_
_geom_bond_atom_site_label_1
_geom_bond_atom_site_label_2
_geom_bond_distance
_geom_bond_site_symmetry_2
Sm0 Sm1 3.647150 1_555
Sm0 Sm1 3.647150 1_455
Sm2 Sm3 3.647150 1_564
Sm2 Sm3 3.647150 1_664
Al0 Ni2 2.495673 1_455
Al0 Ni2 2.495673 1_555
Al0 Al7 2.608381 1_565
Al0 Al10 2.892891 1_455
Al0 Al10 2.892891 1_555
Al0 Al4 2.916101 1_555
Al0 Al9 2.941294 1_465
Al0 Al9 2.941294 1_565
Al0 Sm2 3.086036 1_555
Al0 Sm2 3.086036 1_455
Al0 Sm0 3.370555 1_555
Al0 Sm3 3.670496 1_564
Al1 Ni3 2.495673 1_655
Al1 Ni3 2.495673 1_555
Al1 Al6 2.608381 1_545
Al1 Al11 2.892891 1_655
Al1 Al11 2.892891 1_555
Al1 Al5 2.916101 1_555
Al1 Al8 2.941294 1_645
Al1 Al8 2.941294 1_545
Al1 Sm3 3.086036 1_555
Al1 Sm3 3.086036 1_655
Al1 Sm1 3.370555 1_555
Al1 Sm2 3.670496 1_546
Al2 Ni0 2.495673 1_555
Al2 Ni0 2.495673 1_655
Al2 Al5 2.608381 1_555
Al2 Al8 2.892891 1_555
Al2 Al8 2.892891 1_655
Al2 Al6 2.916101 1_555
Al2 Sm0 3.086036 1_655
Al2 Sm0 3.086036 1_555
Al2 Sm2 3.370555 1_556
Al2 Sm1 3.670496 1_555
Al3 Ni1 2.495673 1_555
Al3 Ni1 2.495673 1_455
Al3 Al4 2.608381 1_555
Al3 Al9 2.892891 1_555
Al3 Al9 2.892891 1_455
Al3 Al7 2.916101 1_555
Al3 Sm1 3.086036 1_555
Al3 Sm1 3.086036 1_455
Al3 Sm3 3.370555 1_554
Al3 Sm0 3.670496 1_555
Al4 Ni0 2.452997 1_554
Al4 Ni1 2.495312 1_455
Al4 Ni1 2.495312 1_555
Al4 Sm2 3.049008 1_455
Al4 Sm2 3.049008 1_555
Al4 Sm3 3.168311 1_554
Al5 Ni1 2.452997 1_556
Al5 Ni0 2.495312 1_555
Al5 Ni0 2.495312 1_655
Al5 Sm3 3.049008 1_555
Al5 Sm3 3.049008 1_655
Al5 Sm2 3.168311 1_556
Al6 Ni2 2.452997 1_555
Al6 Ni3 2.495312 1_565
Al6 Ni3 2.495312 1_665
Al6 Sm0 3.049008 1_655
Al6 Sm0 3.049008 1_555
Al6 Sm1 3.168311 1_565
Al7 Ni3 2.452997 1_555
Al7 Ni2 2.495312 1_545
Al7 Ni2 2.495312 1_445
Al7 Sm1 3.049008 1_555
Al7 Sm1 3.049008 1_455
Al7 Sm0 3.168311 1_545
Al8 Ni3 2.342386 1_565
Al8 Ni0 2.404195 1_555
Al8 Sm2 3.227112 1_556
Al8 Sm2 3.227112 1_456
Al8 Sm3 3.316524 1_565
Al8 Sm0 3.325030 1_555
Al9 Ni2 2.342386 1_545
Al9 Ni1 2.404195 1_555
Al9 Sm3 3.227112 1_654
Al9 Sm3 3.227112 1_554
Al9 Sm2 3.316524 1_545
Al9 Sm1 3.325030 1_555
Al10 Ni1 2.342386 1_555
Al10 Ni2 2.404195 1_555
Al10 Al3 2.941294 1_555
Al10 Al3 2.941294 1_655
Al10 Sm0 3.227112 1_655
Al10 Sm0 3.227112 1_555
Al10 Sm1 3.316524 1_555
Al10 Sm2 3.325030 1_555
Al11 Ni0 2.342386 1_555
Al11 Ni3 2.404195 1_555
Al11 Al2 2.941294 1_555
Al11 Al2 2.941294 1_455
Al11 Sm1 3.227112 1_555
Al11 Sm1 3.227112 1_455
Al11 Sm0 3.316524 1_555
Al11 Sm3 3.325030 1_555
Ni0 Sm2 3.138146 1_556
Ni0 Sm2 3.138146 1_456
Ni1 Sm3 3.138146 1_654
Ni1 Sm3 3.138146 1_554
Ni2 Sm0 3.138146 1_655
Ni2 Sm0 3.138146 1_555
Ni3 Sm1 3.138146 1_555
Ni3 Sm1 3.138146 1_455
