# generated using pymatgen
data_Ca(BH)2
_symmetry_space_group_name_H-M   'P 1'
_cell_length_a   3.47671927
_cell_length_b   3.47671927
_cell_length_c   3.97929400
_cell_angle_alpha   90.00000000
_cell_angle_beta   90.00000000
_cell_angle_gamma   119.99998613
_symmetry_Int_Tables_number   1
_chemical_formula_structural   Ca(BH)2
_chemical_formula_sum   'Ca1 B2 H2'
_cell_volume   41.65584696
_cell_formula_units_Z   1
loop_
 _symmetry_equiv_pos_site_id
 _symmetry_equiv_pos_as_xyz
  1  'x, y, z'
loop_
 _atom_site_type_symbol
 _atom_site_label
 _atom_site_symmetry_multiplicity
 _atom_site_fract_x
 _atom_site_fract_y
 _atom_site_fract_z
 _atom_site_occupancy
  Ca  Ca0  1  0.00000000  0.00000000  0.00000000  1
  B  B0  1  0.66666700  0.33333300  0.53716400  1
  B  B1  1  0.33333300  0.66666700  0.46283600  1
  H  H0  1  0.66666700  0.33333300  0.84883100  1
  H  H1  1  0.33333300  0.66666700  0.15116900  1
loop_
_geom_bond_atom_site_label_1
_geom_bond_atom_site_label_2
_geom_bond_distance
_geom_bond_site_symmetry_2
Ca0 H1 2.095481 1_545
Ca0 H0 2.095481 1_454
Ca0 H1 2.095484 1_555
Ca0 H0 2.095484 1_554
Ca0 H0 2.095484 1_444
Ca0 H1 2.095484 1_445
B0 H0 1.240215 1_555
B1 H1 1.240215 1_555
