# generated using pymatgen
data_Bi2Mo2Se2O13
_symmetry_space_group_name_H-M   'P 1'
_cell_length_a   6.71349400
_cell_length_b   7.06878286
_cell_length_c   11.84808636
_cell_angle_alpha   89.46706064
_cell_angle_beta   82.38984303
_cell_angle_gamma   86.71008047
_symmetry_Int_Tables_number   1
_chemical_formula_structural   Bi2Mo2Se2O13
_chemical_formula_sum   'Bi4 Mo4 Se4 O26'
_cell_volume   556.39382263
_cell_formula_units_Z   2
loop_
 _symmetry_equiv_pos_site_id
 _symmetry_equiv_pos_as_xyz
  1  'x, y, z'
loop_
 _atom_site_type_symbol
 _atom_site_label
 _atom_site_symmetry_multiplicity
 _atom_site_fract_x
 _atom_site_fract_y
 _atom_site_fract_z
 _atom_site_occupancy
  Bi  Bi0  1  0.19263800  0.87463800  0.88784900  1
  Bi  Bi1  1  0.80736200  0.12536200  0.11215100  1
  Bi  Bi2  1  0.63263900  0.59878100  0.64843500  1
  Bi  Bi3  1  0.36736100  0.40121900  0.35156500  1
  Mo  Mo0  1  0.74963700  0.11366200  0.81164700  1
  Mo  Mo1  1  0.25036300  0.88633800  0.18835300  1
  Mo  Mo2  1  0.12267100  0.36032300  0.69965000  1
  Mo  Mo3  1  0.87732900  0.63967700  0.30035000  1
  Se  Se0  1  0.18032700  0.78805700  0.56613900  1
  Se  Se1  1  0.81967300  0.21194300  0.43386100  1
  Se  Se2  1  0.23771200  0.41666400  0.06017100  1
  Se  Se3  1  0.76228800  0.58333600  0.93982900  1
  O  O0  1  0.37310700  0.65322700  0.49089200  1
  O  O1  1  0.62689300  0.34677300  0.50910800  1
  O  O2  1  0.02113000  0.60273400  0.62176400  1
  O  O3  1  0.97887000  0.39726600  0.37823600  1
  O  O4  1  0.30537000  0.83702700  0.67894800  1
  O  O5  1  0.69463000  0.16297300  0.32105200  1
  O  O6  1  0.39969000  0.34465100  0.15598900  1
  O  O7  1  0.60031000  0.65534900  0.84401100  1
  O  O8  1  0.26328300  0.66392500  0.04990200  1
  O  O9  1  0.73671700  0.33607500  0.95009800  1
  O  O10  1  0.00280300  0.58470700  0.86047300  1
  O  O11  1  0.99719700  0.41529300  0.13952700  1
  O  O12  1  0.48954600  0.09970800  0.85066900  1
  O  O13  1  0.51045400  0.90029200  0.14933100  1
  O  O14  1  0.84866400  0.96355000  0.93520000  1
  O  O15  1  0.15133600  0.03645000  0.06480000  1
  O  O16  1  0.08386900  0.16668300  0.80604600  1
  O  O17  1  0.91613100  0.83331700  0.19395400  1
  O  O18  1  0.80274900  0.94849900  0.70000700  1
  O  O19  1  0.19725100  0.05150100  0.29999300  1
  O  O20  1  0.18603700  0.23728200  0.57206500  1
  O  O21  1  0.81396300  0.76271800  0.42793500  1
  O  O22  1  0.80491300  0.34063700  0.71629400  1
  O  O23  1  0.19508700  0.65936300  0.28370600  1
  O  O24  1  0.35828900  0.44790400  0.72376500  1
  O  O25  1  0.64171100  0.55209600  0.27623500  1
loop_
_geom_bond_atom_site_label_1
_geom_bond_atom_site_label_2
_geom_bond_distance
_geom_bond_site_symmetry_2
Bi0 O14 2.353572 1_455
Bi0 O15 2.373788 1_566
Bi0 O16 2.389886 1_565
Bi0 O8 2.497374 1_556
Bi0 O4 2.502494 1_555
Bi0 O10 2.520193 1_555
Bi0 O12 2.610905 1_565
Bi1 O15 2.353572 1_655
Bi1 O14 2.373788 1_544
Bi1 O17 2.389886 1_545
Bi1 O9 2.497374 1_554
Bi1 O5 2.502494 1_555
Bi1 O11 2.520193 1_555
Bi1 O13 2.610905 1_545
Bi2 O24 2.258051 1_555
Bi2 O22 2.300126 1_555
Bi2 O7 2.334629 1_555
Bi2 O1 2.445260 1_555
Bi2 O2 2.587063 1_655
Bi2 O4 2.677779 1_555
Bi2 O0 2.727485 1_555
Bi3 O25 2.258051 1_555
Bi3 O23 2.300126 1_555
Bi3 O6 2.334629 1_555
Bi3 O0 2.445260 1_555
Bi3 O3 2.587063 1_455
Bi3 O5 2.677779 1_555
Bi3 O1 2.727485 1_555
Mo0 O12 1.754284 1_555
Mo0 O18 1.759493 1_545
Mo0 O14 1.964368 1_545
Mo0 O22 1.977838 1_555
Mo0 O9 2.272616 1_555
Mo0 O16 2.288324 1_655
Mo1 O13 1.754284 1_555
Mo1 O19 1.759493 1_565
Mo1 O15 1.964368 1_565
Mo1 O23 1.977838 1_555
Mo1 O8 2.272616 1_555
Mo1 O17 2.288324 1_455
Mo2 O20 1.741882 1_555
Mo2 O24 1.789541 1_555
Mo2 O16 1.858065 1_555
Mo2 O2 2.062923 1_555
Mo2 O22 2.128665 1_455
Mo2 O10 2.509518 1_555
Mo3 O21 1.741882 1_555
Mo3 O25 1.789541 1_555
Mo3 O17 1.858065 1_555
Mo3 O3 2.062923 1_555
Mo3 O23 2.128665 1_655
Mo3 O11 2.509518 1_555
O0 Se0 1.716637 1_555
O1 Se1 1.716637 1_555
O2 Se0 1.803000 1_555
O3 Se1 1.803000 1_555
O4 Se0 1.717588 1_555
O5 Se1 1.717588 1_555
O6 Se2 1.727182 1_555
O7 Se3 1.727182 1_555
O8 Se2 1.767526 1_555
O9 Se3 1.767526 1_555
O10 Se3 1.758085 1_455
O11 Se2 1.758085 1_655
