# generated using pymatgen
data_Li6P8W3O29
_symmetry_space_group_name_H-M   'P 1'
_cell_length_a   9.96685200
_cell_length_b   9.98227690
_cell_length_c   14.12011724
_cell_angle_alpha   89.62781603
_cell_angle_beta   89.54836063
_cell_angle_gamma   60.25053246
_symmetry_Int_Tables_number   1
_chemical_formula_structural   Li6P8W3O29
_chemical_formula_sum   'Li12 P16 W6 O58'
_cell_volume   1219.64096474
_cell_formula_units_Z   2
loop_
 _symmetry_equiv_pos_site_id
 _symmetry_equiv_pos_as_xyz
  1  'x, y, z'
loop_
 _atom_site_type_symbol
 _atom_site_label
 _atom_site_symmetry_multiplicity
 _atom_site_fract_x
 _atom_site_fract_y
 _atom_site_fract_z
 _atom_site_occupancy
  Li  Li0  1  0.95145100  0.98747900  0.48955500  1
  Li  Li1  1  0.99503800  0.99174300  0.99419300  1
  Li  Li2  1  0.31683800  0.91242900  0.93917300  1
  Li  Li3  1  0.68413500  0.66725100  0.11035900  1
  Li  Li4  1  0.32230300  0.76799800  0.44078200  1
  Li  Li5  1  0.90465000  0.32581500  0.43812500  1
  Li  Li6  1  0.23515100  0.66687600  0.05600400  1
  Li  Li7  1  0.77113300  0.31659700  0.93908900  1
  Li  Li8  1  0.09464900  0.67022200  0.56275100  1
  Li  Li9  1  0.66786000  0.23393200  0.55958000  1
  Li  Li10  1  0.67260300  0.09948100  0.06216500  1
  Li  Li11  1  0.22929900  0.09621400  0.55578400  1
  P  P0  1  0.78359600  0.92075100  0.66226800  1
  P  P1  1  0.91986900  0.78260300  0.15917600  1
  P  P2  1  0.31305800  0.91210900  0.15323800  1
  P  P3  1  0.66161600  0.66574000  0.87607100  1
  P  P4  1  0.66742200  0.66391600  0.37447500  1
  P  P5  1  0.31165000  0.77637000  0.65680000  1
  P  P6  1  0.22315200  0.69207000  0.84313500  1
  P  P7  1  0.91838900  0.30864100  0.65226500  1
  P  P8  1  0.07895500  0.69444500  0.34995400  1
  P  P9  1  0.77678200  0.31658000  0.15682200  1
  P  P10  1  0.68900400  0.22586700  0.34351900  1
  P  P11  1  0.33844600  0.33039500  0.12380100  1
  P  P12  1  0.32856900  0.33807800  0.62253600  1
  P  P13  1  0.69459700  0.08262900  0.84955600  1
  P  P14  1  0.07826500  0.21608100  0.84094900  1
  P  P15  1  0.22542900  0.08085200  0.34246800  1
  W  W0  1  0.56766000  0.99792800  0.25084600  1
  W  W1  1  0.43482600  0.00165900  0.75039100  1
  W  W2  1  0.99559200  0.56581600  0.75358000  1
  W  W3  1  0.00547400  0.43420400  0.24988300  1
  W  W4  1  0.43518600  0.56437800  0.25163300  1
  W  W5  1  0.56422600  0.43560200  0.74830200  1
  O  O0  1  0.80508700  0.98666700  0.76248000  1
  O  O1  1  0.77667000  0.01422400  0.94099900  1
  O  O2  1  0.75426600  0.92228600  0.15385400  1
  O  O3  1  0.98524500  0.79971000  0.26076100  1
  O  O4  1  0.00419700  0.77962800  0.43984800  1
  O  O5  1  0.91974300  0.75420900  0.65731000  1
  O  O6  1  0.62748900  0.92480400  0.66763500  1
  O  O7  1  0.67885700  0.79807500  0.32436000  1
  O  O8  1  0.47747600  0.89439400  0.16376000  1
  O  O9  1  0.22011800  0.99156700  0.42825800  1
  O  O10  1  0.21343200  0.99725700  0.24681600  1
  O  O11  1  0.33318500  0.92113600  0.65562600  1
  O  O12  1  0.79593500  0.67817300  0.82819100  1
  O  O13  1  0.90509200  0.63481200  0.16211900  1
  O  O14  1  0.50671300  0.80728600  0.84212800  1
  O  O15  1  0.66762900  0.65664500  0.98224000  1
  O  O16  1  0.66537000  0.66235700  0.47946500  1
  O  O17  1  0.51123400  0.67724000  0.33486600  1
  O  O18  1  0.90903400  0.46573100  0.66648200  1
  O  O19  1  0.80791900  0.50947300  0.33285200  1
  O  O20  1  0.33469700  0.74707800  0.15650500  1
  O  O21  1  0.21096400  0.79653500  0.75068300  1
  O  O22  1  0.21644500  0.78361100  0.93002100  1
  O  O23  1  0.22170400  0.77801400  0.57077100  1
  O  O24  1  0.46975200  0.62980100  0.66510300  1
  O  O25  1  0.67417200  0.51149800  0.83659100  1
  O  O26  1  0.24436700  0.67116500  0.34339300  1
  O  O27  1  0.63208200  0.47962300  0.16487000  1
  O  O28  1  0.91855900  0.33766000  0.15840900  1
  O  O29  1  0.02060000  0.79183100  0.08309500  1
  O  O30  1  0.98939200  0.18836900  0.91739200  1
  O  O31  1  0.01090700  0.19775000  0.73957500  1
  O  O32  1  0.08389400  0.66754800  0.83879800  1
  O  O33  1  0.37337600  0.53732100  0.83519900  1
  O  O34  1  0.75413000  0.32896200  0.65385500  1
  O  O35  1  0.33237500  0.48108300  0.16509000  1
  O  O36  1  0.53338100  0.37678700  0.33861400  1
  O  O37  1  0.78252800  0.21660100  0.43023400  1
  O  O38  1  0.77370100  0.22844000  0.07122100  1
  O  O39  1  0.78803800  0.21705300  0.25007100  1
  O  O40  1  0.66845100  0.24882400  0.84019100  1
  O  O41  1  0.18812300  0.48891500  0.66675200  1
  O  O42  1  0.08369900  0.53839100  0.33974200  1
  O  O43  1  0.48304200  0.32546900  0.66429800  1
  O  O44  1  0.33870500  0.33340900  0.01883300  1
  O  O45  1  0.32858700  0.34737800  0.51715500  1
  O  O46  1  0.49178300  0.18642100  0.16344800  1
  O  O47  1  0.07609900  0.36957100  0.84072700  1
  O  O48  1  0.20310100  0.32337000  0.17554800  1
  O  O49  1  0.66591400  0.08614400  0.33939400  1
  O  O50  1  0.79533200  0.01784600  0.58429200  1
  O  O51  1  0.54041900  0.08502100  0.83548500  1
  O  O52  1  0.31791300  0.19588900  0.66038500  1
  O  O53  1  0.37329400  0.09078800  0.33649900  1
  O  O54  1  0.08024200  0.24284500  0.34287200  1
  O  O55  1  0.00235600  0.22805800  0.56235500  1
  O  O56  1  0.24913100  0.07868300  0.84027700  1
  O  O57  1  0.22938600  0.99324600  0.06524600  1
loop_
_geom_bond_atom_site_label_1
_geom_bond_atom_site_label_2
_geom_bond_distance
_geom_bond_site_symmetry_2
Li0 O50 1.951117 1_565
Li0 O4 2.001127 1_655
Li0 O37 2.223315 1_565
Li1 O1 2.211399 1_565
Li1 O30 2.212545 1_565
Li1 O29 2.256317 1_656
Li1 O22 2.334564 1_655
Li1 O38 2.540666 1_566
Li1 O57 2.556219 1_656
Li2 O57 1.968730 1_556
Li2 O22 1.988101 1_555
Li2 O56 2.008219 1_565
Li2 O14 2.137118 1_555
Li3 O15 1.826313 1_554
Li3 O13 2.191685 1_555
Li3 O27 2.304097 1_555
Li3 O8 2.305447 1_555
Li4 O9 1.947091 1_555
Li4 O26 2.051342 1_555
Li4 O23 2.063519 1_555
Li4 O17 2.209856 1_555
Li5 O37 2.000772 1_555
Li5 O55 2.009778 1_655
Li5 O54 2.024022 1_655
Li5 O19 2.175600 1_555
Li6 O29 1.902932 1_555
Li6 O22 2.078412 1_554
Li6 O20 2.112913 1_555
Li6 O35 2.225778 1_555
Li7 O30 1.922415 1_555
Li7 O40 2.043789 1_555
Li7 O38 2.052571 1_556
Li7 O25 2.221101 1_555
Li8 O4 2.009984 1_555
Li8 O5 2.012952 1_455
Li8 O23 2.032323 1_555
Li8 O41 2.147961 1_555
Li9 O50 1.914730 1_555
Li9 O34 2.062800 1_555
Li9 O37 2.108731 1_555
Li9 O43 2.172245 1_555
Li10 O1 1.960135 1_554
Li10 O38 1.995063 1_555
Li10 O2 2.006341 1_545
Li10 O46 2.114163 1_555
Li11 O55 1.975072 1_555
Li11 O11 2.075836 1_545
Li11 O9 2.112806 1_545
Li11 O52 2.205282 1_555
O0 P13 1.609074 1_565
O0 P0 1.624136 1_555
O1 P13 1.501144 1_555
O2 P1 1.546209 1_555
O2 W0 2.117661 1_555
O3 P8 1.609344 1_655
O3 P1 1.624672 1_555
O4 P8 1.503237 1_555
O5 P0 1.539889 1_555
O5 W2 2.127916 1_555
O6 P0 1.537498 1_555
O6 W1 2.038533 1_565
O7 P4 1.563685 1_555
O7 W0 2.020583 1_555
O8 P2 1.566744 1_555
O8 W0 2.084226 1_555
O9 P15 1.515371 1_565
O10 P2 1.615752 1_555
O10 P15 1.628193 1_565
O11 P5 1.562719 1_555
O11 W1 2.075162 1_565
O12 P3 1.553778 1_555
O12 W2 2.023631 1_555
O13 P1 1.553912 1_555
O13 W3 2.132086 1_655
O14 P3 1.564517 1_555
O14 W1 2.135015 1_565
O15 P3 1.501146 1_555
O16 P4 1.482538 1_555
O17 P4 1.600342 1_555
O17 W4 2.025762 1_555
O18 P7 1.538399 1_555
O18 W2 2.035432 1_555
O19 P4 1.593557 1_555
O19 W3 2.078667 1_655
O20 P2 1.552124 1_555
O20 W4 2.076076 1_555
O21 P5 1.608390 1_555
O21 P6 1.632618 1_555
O22 P6 1.515673 1_555
O23 P5 1.510577 1_555
O24 P5 1.533010 1_555
O24 W5 2.049645 1_555
O25 P3 1.586155 1_555
O25 W5 2.046130 1_555
O26 P8 1.548627 1_555
O26 W4 2.097442 1_555
O27 P9 1.553102 1_555
O27 W4 2.096583 1_555
O28 P9 1.528791 1_555
O28 W3 2.051784 1_655
O29 P1 1.497998 1_455
O30 P14 1.500143 1_655
O31 P7 1.607074 1_455
O31 P14 1.635115 1_555
O32 P6 1.526049 1_555
O32 W2 2.042862 1_455
O33 P6 1.531288 1_555
O33 W5 2.053628 1_555
O34 P7 1.546544 1_555
O34 W5 2.115005 1_555
O35 P11 1.589563 1_555
O35 W4 2.028086 1_555
O36 P10 1.536739 1_555
O36 W4 2.035468 1_555
O37 P10 1.519084 1_555
O38 P9 1.509045 1_555
O39 P9 1.614938 1_555
O39 P10 1.617988 1_555
O40 P13 1.551237 1_555
O40 W5 2.075214 1_555
O41 P12 1.588429 1_555
O41 W2 2.070735 1_455
O42 P8 1.542531 1_555
O42 W3 2.033929 1_555
O43 P12 1.598437 1_555
O43 W5 2.045772 1_555
O44 P11 1.482278 1_555
O45 P12 1.490287 1_555
O46 P11 1.593055 1_555
O46 W0 2.051245 1_545
O47 P14 1.521566 1_555
O47 W2 2.102356 1_455
O48 P11 1.560826 1_555
O48 W3 2.006322 1_555
O49 P10 1.523649 1_555
O49 W0 2.046249 1_545
O50 P0 1.503986 1_545
O51 P13 1.539395 1_555
O51 W1 2.036128 1_555
O52 P12 1.565363 1_555
O52 W1 2.116924 1_555
O53 P15 1.527047 1_555
O53 W0 2.066473 1_545
O54 P15 1.544877 1_555
O54 W3 2.120931 1_555
O55 P7 1.512482 1_455
O56 P14 1.569494 1_555
O56 W1 2.047166 1_555
O57 P2 1.492682 1_555
