# generated using pymatgen
data_Ba7BrClF12
_symmetry_space_group_name_H-M   'P 1'
_cell_length_a   10.80578807
_cell_length_b   10.80578807
_cell_length_c   4.24946100
_cell_angle_alpha   90.00000000
_cell_angle_beta   90.00000000
_cell_angle_gamma   120.00000045
_symmetry_Int_Tables_number   1
_chemical_formula_structural   Ba7BrClF12
_chemical_formula_sum   'Ba7 Br1 Cl1 F12'
_cell_volume   429.71188839
_cell_formula_units_Z   1
loop_
 _symmetry_equiv_pos_site_id
 _symmetry_equiv_pos_as_xyz
  1  'x, y, z'
loop_
 _atom_site_type_symbol
 _atom_site_label
 _atom_site_symmetry_multiplicity
 _atom_site_fract_x
 _atom_site_fract_y
 _atom_site_fract_z
 _atom_site_occupancy
  Ba  Ba0  1  0.28831800  0.39657500  0.50000000  1
  Ba  Ba1  1  0.60342500  0.89174300  0.50000000  1
  Ba  Ba2  1  0.10825700  0.71168200  0.50000000  1
  Ba  Ba3  1  0.00000000  0.00000000  0.00000000  1
  Ba  Ba4  1  0.41014100  0.10725800  0.00000000  1
  Ba  Ba5  1  0.89274200  0.30288300  0.00000000  1
  Ba  Ba6  1  0.69711700  0.58985900  0.00000000  1
  Br  Br0  1  0.33333300  0.66666700  0.00000000  1
  Cl  Cl0  1  0.66666700  0.33333300  0.50000000  1
  F  F0  1  0.04881100  0.43678900  0.50000000  1
  F  F1  1  0.56321100  0.61202200  0.50000000  1
  F  F2  1  0.38797800  0.95118900  0.50000000  1
  F  F3  1  0.21814700  0.11732100  0.50000000  1
  F  F4  1  0.88267900  0.10082500  0.50000000  1
  F  F5  1  0.89917500  0.78185300  0.50000000  1
  F  F6  1  0.43134800  0.36766800  0.00000000  1
  F  F7  1  0.63233200  0.06368000  0.00000000  1
  F  F8  1  0.93632000  0.56865200  0.00000000  1
  F  F9  1  0.12160300  0.27449500  0.00000000  1
  F  F10  1  0.72550500  0.84710900  0.00000000  1
  F  F11  1  0.15289100  0.87839700  0.00000000  1
loop_
_geom_bond_atom_site_label_1
_geom_bond_atom_site_label_2
_geom_bond_distance
_geom_bond_site_symmetry_2
Ba0 F9 2.669003 1_555
Ba0 F9 2.669003 1_556
Ba0 F1 2.707032 1_555
Ba0 F3 2.718923 1_555
Ba0 F6 2.735609 1_555
Ba0 F6 2.735609 1_556
Ba0 F0 2.830463 1_555
Ba0 Br0 3.442297 1_556
Ba0 Br0 3.442297 1_555
Ba1 F10 2.668998 1_555
Ba1 F10 2.668998 1_556
Ba1 F2 2.707032 1_555
Ba1 F4 2.718920 1_565
Ba1 F7 2.735609 1_566
Ba1 F7 2.735609 1_565
Ba1 F1 2.830463 1_555
Ba1 Br0 3.442294 1_556
Ba1 Br0 3.442294 1_555
Ba2 F11 2.669005 1_556
Ba2 F11 2.669005 1_555
Ba2 F0 2.707032 1_555
Ba2 F5 2.718912 1_455
Ba2 F8 2.735609 1_455
Ba2 F8 2.735609 1_456
Ba2 F2 2.830463 1_555
Ba2 Br0 3.442289 1_556
Ba2 Br0 3.442289 1_555
Ba3 F11 2.574295 1_545
Ba3 F10 2.574304 1_445
Ba3 F9 2.574305 1_555
Ba3 F4 2.947856 1_455
Ba3 F4 2.947856 1_454
Ba3 F3 2.947863 1_554
Ba3 F3 2.947863 1_555
Ba3 F5 2.947863 1_444
Ba3 F5 2.947863 1_445
Ba4 F11 2.639808 1_545
Ba4 F2 2.648029 1_544
Ba4 F2 2.648029 1_545
Ba4 F7 2.667750 1_555
Ba4 F6 2.706642 1_555
Ba4 F3 3.009328 1_554
Ba4 F3 3.009328 1_555
Ba4 Cl0 3.375565 1_555
Ba4 Cl0 3.375565 1_554
Ba5 F9 2.639802 1_655
Ba5 F0 2.648029 1_655
Ba5 F0 2.648029 1_654
Ba5 F8 2.667750 1_555
Ba5 F7 2.706642 1_555
Ba5 F4 3.009336 1_554
Ba5 F4 3.009336 1_555
Ba5 Cl0 3.375560 1_554
Ba5 Cl0 3.375560 1_555
Ba6 F10 2.639813 1_555
Ba6 F1 2.648029 1_554
Ba6 F1 2.648029 1_555
Ba6 F6 2.667750 1_555
Ba6 F8 2.706642 1_555
Ba6 F5 3.009332 1_554
Ba6 F5 3.009332 1_555
Ba6 Cl0 3.375568 1_554
Ba6 Cl0 3.375568 1_555
