# generated using pymatgen
data_LiTb5Sn3
_symmetry_space_group_name_H-M   'P 1'
_cell_length_a   9.24900003
_cell_length_b   9.24900003
_cell_length_c   6.63488700
_cell_angle_alpha   90.00000000
_cell_angle_beta   90.00000000
_cell_angle_gamma   120.00000025
_symmetry_Int_Tables_number   1
_chemical_formula_structural   LiTb5Sn3
_chemical_formula_sum   'Li2 Tb10 Sn6'
_cell_volume   491.53418065
_cell_formula_units_Z   2
loop_
 _symmetry_equiv_pos_site_id
 _symmetry_equiv_pos_as_xyz
  1  'x, y, z'
loop_
 _atom_site_type_symbol
 _atom_site_label
 _atom_site_symmetry_multiplicity
 _atom_site_fract_x
 _atom_site_fract_y
 _atom_site_fract_z
 _atom_site_occupancy
  Li  Li0  1  0.00000000  0.00000000  0.50000000  1
  Li  Li1  1  0.00000000  0.00000000  0.00000000  1
  Tb  Tb0  1  0.72342800  0.72342800  0.25000000  1
  Tb  Tb1  1  0.27657200  0.00000000  0.25000000  1
  Tb  Tb2  1  0.00000000  0.27657200  0.25000000  1
  Tb  Tb3  1  0.27657200  0.27657200  0.75000000  1
  Tb  Tb4  1  0.72342800  0.00000000  0.75000000  1
  Tb  Tb5  1  0.00000000  0.72342800  0.75000000  1
  Tb  Tb6  1  0.66666700  0.33333300  0.50000000  1
  Tb  Tb7  1  0.33333300  0.66666700  0.50000000  1
  Tb  Tb8  1  0.33333300  0.66666700  0.00000000  1
  Tb  Tb9  1  0.66666700  0.33333300  0.00000000  1
  Sn  Sn0  1  0.37777700  0.37777700  0.25000000  1
  Sn  Sn1  1  0.62222300  0.00000000  0.25000000  1
  Sn  Sn2  1  0.00000000  0.62222300  0.25000000  1
  Sn  Sn3  1  0.62222300  0.62222300  0.75000000  1
  Sn  Sn4  1  0.37777700  0.00000000  0.75000000  1
  Sn  Sn5  1  0.00000000  0.37777700  0.75000000  1
loop_
_geom_bond_atom_site_label_1
_geom_bond_atom_site_label_2
_geom_bond_distance
_geom_bond_site_symmetry_2
Li0 Tb3 3.048737 1_555
Li0 Tb0 3.048737 1_445
Li0 Tb1 3.048737 1_555
Li0 Tb2 3.048737 1_555
Li0 Tb5 3.048737 1_545
Li0 Tb4 3.048737 1_455
Li1 Tb3 3.048737 1_554
Li1 Tb0 3.048737 1_445
Li1 Tb1 3.048737 1_555
Li1 Tb2 3.048737 1_555
Li1 Tb5 3.048737 1_544
Li1 Tb4 3.048737 1_454
Sn0 Tb1 3.132736 1_555
Sn0 Tb2 3.132736 1_555
Sn0 Tb0 3.196926 1_555
Sn0 Tb8 3.340352 1_555
Sn0 Tb6 3.340352 1_555
Sn0 Tb9 3.340352 1_555
Sn0 Tb7 3.340352 1_555
Sn0 Tb3 3.446971 1_554
Sn0 Tb3 3.446971 1_555
Sn1 Tb2 3.132736 1_655
Sn1 Tb0 3.132736 1_545
Sn1 Tb1 3.196926 1_555
Sn1 Tb9 3.340344 1_555
Sn1 Tb6 3.340344 1_555
Sn1 Tb8 3.340347 1_545
Sn1 Tb7 3.340347 1_545
Sn1 Tb4 3.446971 1_554
Sn1 Tb4 3.446971 1_555
Sn2 Tb1 3.132736 1_565
Sn2 Tb0 3.132736 1_455
Sn2 Tb2 3.196926 1_555
Sn2 Tb8 3.340344 1_555
Sn2 Tb7 3.340344 1_555
Sn2 Tb9 3.340347 1_455
Sn2 Tb6 3.340347 1_455
Sn2 Tb5 3.446971 1_555
Sn2 Tb5 3.446971 1_554
Sn3 Tb5 3.132736 1_655
Sn3 Tb4 3.132736 1_565
Sn3 Tb3 3.196926 1_555
Sn3 Tb6 3.340352 1_555
Sn3 Tb7 3.340352 1_555
Sn3 Tb8 3.340352 1_556
Sn3 Tb9 3.340352 1_556
Sn3 Tb0 3.446971 1_555
Sn3 Tb0 3.446971 1_556
Sn4 Tb5 3.132736 1_545
Sn4 Tb3 3.132736 1_555
Sn4 Tb4 3.196926 1_555
Sn4 Tb8 3.340344 1_546
Sn4 Tb7 3.340344 1_545
Sn4 Tb9 3.340347 1_556
Sn4 Tb6 3.340347 1_555
Sn4 Tb1 3.446971 1_556
Sn4 Tb1 3.446971 1_555
Sn5 Tb4 3.132736 1_455
Sn5 Tb3 3.132736 1_555
Sn5 Tb5 3.196926 1_555
Sn5 Tb9 3.340344 1_456
Sn5 Tb6 3.340344 1_455
Sn5 Tb7 3.340347 1_555
Sn5 Tb8 3.340347 1_556
Sn5 Tb2 3.446971 1_556
Sn5 Tb2 3.446971 1_555
