# generated using pymatgen
data_Li2Co(Si2O5)2
_symmetry_space_group_name_H-M   'P 1'
_cell_length_a   9.57034800
_cell_length_b   14.53410800
_cell_length_c   6.97047700
_cell_angle_alpha   90.00000000
_cell_angle_beta   90.00000000
_cell_angle_gamma   90.00000000
_symmetry_Int_Tables_number   1
_chemical_formula_structural   Li2Co(Si2O5)2
_chemical_formula_sum   'Li8 Co4 Si16 O40'
_cell_volume   969.56875488
_cell_formula_units_Z   4
loop_
 _symmetry_equiv_pos_site_id
 _symmetry_equiv_pos_as_xyz
  1  'x, y, z'
loop_
 _atom_site_type_symbol
 _atom_site_label
 _atom_site_symmetry_multiplicity
 _atom_site_fract_x
 _atom_site_fract_y
 _atom_site_fract_z
 _atom_site_occupancy
  Li  Li0  1  0.08592500  0.81933000  0.66095300  1
  Li  Li1  1  0.10629300  0.51156000  0.92653600  1
  Li  Li2  1  0.39370700  0.48844000  0.42653600  1
  Li  Li3  1  0.41407500  0.18067000  0.16095300  1
  Li  Li4  1  0.58592500  0.68067000  0.33904700  1
  Li  Li5  1  0.60629300  0.98844000  0.07346400  1
  Li  Li6  1  0.89370700  0.01156000  0.57346400  1
  Li  Li7  1  0.91407500  0.31933000  0.83904700  1
  Co  Co0  1  0.18733900  0.33186700  0.98512100  1
  Co  Co1  1  0.31266100  0.66813300  0.48512100  1
  Co  Co2  1  0.68733900  0.16813300  0.01487900  1
  Co  Co3  1  0.81266100  0.83186700  0.51487900  1
  Si  Si0  1  0.04838200  0.56283800  0.47847200  1
  Si  Si1  1  0.06348700  0.89307300  0.25358300  1
  Si  Si2  1  0.09249800  0.21217900  0.29235500  1
  Si  Si3  1  0.11978000  0.15789700  0.71572300  1
  Si  Si4  1  0.38022000  0.84210300  0.21572300  1
  Si  Si5  1  0.40750200  0.78782100  0.79235500  1
  Si  Si6  1  0.43651300  0.10692700  0.75358300  1
  Si  Si7  1  0.45161800  0.43716200  0.97847200  1
  Si  Si8  1  0.54838200  0.93716200  0.52152800  1
  Si  Si9  1  0.56348700  0.60692700  0.74641700  1
  Si  Si10  1  0.59249800  0.28782100  0.70764500  1
  Si  Si11  1  0.61978000  0.34210300  0.28427700  1
  Si  Si12  1  0.88022000  0.65789700  0.78427700  1
  Si  Si13  1  0.90750200  0.71217900  0.20764500  1
  Si  Si14  1  0.93651300  0.39307300  0.24641700  1
  Si  Si15  1  0.95161800  0.06283800  0.02152800  1
  O  O0  1  0.00022300  0.80207700  0.14383300  1
  O  O1  1  0.99082100  0.15463100  0.14520000  1
  O  O2  1  0.00810500  0.40739000  0.03739400  1
  O  O3  1  0.99809800  0.08287200  0.79301200  1
  O  O4  1  0.04406900  0.97666800  0.09892400  1
  O  O5  1  0.11358000  0.14676700  0.48164200  1
  O  O6  1  0.08997100  0.26130800  0.78720100  1
  O  O7  1  0.21503000  0.54786100  0.46740200  1
  O  O8  1  0.23044600  0.88012200  0.29225700  1
  O  O9  1  0.23758000  0.24152700  0.18916300  1
  O  O10  1  0.26242000  0.75847300  0.68916300  1
  O  O11  1  0.26955400  0.11987800  0.79225700  1
  O  O12  1  0.28497000  0.45213900  0.96740200  1
  O  O13  1  0.41002900  0.73869200  0.28720100  1
  O  O14  1  0.38642000  0.85323300  0.98164200  1
  O  O15  1  0.45593100  0.02333200  0.59892400  1
  O  O16  1  0.50190200  0.91712800  0.29301200  1
  O  O17  1  0.49189500  0.59261000  0.53739400  1
  O  O18  1  0.50917900  0.84536900  0.64520000  1
  O  O19  1  0.49977700  0.19792300  0.64383300  1
  O  O20  1  0.50022300  0.69792300  0.85616700  1
  O  O21  1  0.49082100  0.34536900  0.85480000  1
  O  O22  1  0.50810500  0.09261000  0.96260600  1
  O  O23  1  0.49809800  0.41712800  0.20698800  1
  O  O24  1  0.54406900  0.52333200  0.90107600  1
  O  O25  1  0.61358000  0.35323300  0.51835800  1
  O  O26  1  0.58997100  0.23869200  0.21279900  1
  O  O27  1  0.71503000  0.95213900  0.53259800  1
  O  O28  1  0.73044600  0.61987800  0.70774300  1
  O  O29  1  0.73758000  0.25847300  0.81083700  1
  O  O30  1  0.76242000  0.74152700  0.31083700  1
  O  O31  1  0.76955400  0.38012200  0.20774300  1
  O  O32  1  0.78497000  0.04786100  0.03259800  1
  O  O33  1  0.91002900  0.76130800  0.71279900  1
  O  O34  1  0.88642000  0.64676700  0.01835800  1
  O  O35  1  0.95593100  0.47666900  0.40107600  1
  O  O36  1  0.00190200  0.58287200  0.70698800  1
  O  O37  1  0.99189500  0.90739000  0.46260600  1
  O  O38  1  0.00917900  0.65463100  0.35480000  1
  O  O39  1  0.99977700  0.30207700  0.35616700  1
loop_
_geom_bond_atom_site_label_1
_geom_bond_atom_site_label_2
_geom_bond_distance
_geom_bond_site_symmetry_2
Li0 O10 1.916803 1_555
Li0 O33 1.917171 1_455
Li0 O37 2.087919 1_455
Li1 O12 1.936777 1_555
Li1 O2 1.942264 1_556
Li1 O36 2.101034 1_555
Li2 O7 1.936777 1_555
Li2 O17 1.942264 1_555
Li2 O23 2.101034 1_555
Li3 O9 1.916803 1_555
Li3 O26 1.917171 1_555
Li3 O22 2.087919 1_554
Li4 O30 1.916803 1_555
Li4 O13 1.917171 1_555
Li4 O17 2.087919 1_555
Li5 O32 1.936777 1_565
Li5 O22 1.942264 1_564
Li5 O16 2.101034 1_555
Li6 O27 1.936777 1_545
Li6 O37 1.942264 1_545
Li6 O3 2.101034 1_555
Li7 O29 1.916803 1_555
Li7 O6 1.917171 1_655
Li7 O2 2.087919 1_656
Co0 O6 1.955326 1_555
Co0 O12 1.985939 1_555
Co0 O9 1.994503 1_556
Co0 O2 2.068812 1_556
Co1 O13 1.955326 1_555
Co1 O7 1.985939 1_555
Co1 O10 1.994503 1_555
Co1 O17 2.068812 1_555
Co2 O26 1.955326 1_555
Co2 O32 1.985939 1_555
Co2 O29 1.994503 1_554
Co2 O22 2.068812 1_554
Co3 O33 1.955326 1_555
Co3 O27 1.985939 1_555
Co3 O30 1.994503 1_555
Co3 O37 2.068812 1_555
O0 Si13 1.640868 1_455
O0 Si1 1.643456 1_555
O1 Si15 1.632116 1_555
O1 Si2 1.642747 1_655
O2 Si14 1.623442 1_455
O3 Si15 1.679249 1_556
O3 Si3 1.683868 1_655
O4 Si15 1.625550 1_465
O4 Si1 1.634899 1_555
O5 Si2 1.638725 1_555
O5 Si3 1.640729 1_555
O6 Si3 1.608911 1_555
O7 Si0 1.611514 1_555
O8 Si4 1.626204 1_555
O8 Si1 1.631332 1_555
O9 Si2 1.620871 1_555
O10 Si5 1.620871 1_555
O11 Si3 1.626204 1_555
O11 Si6 1.631332 1_555
O12 Si7 1.611514 1_555
O13 Si4 1.608911 1_555
O14 Si5 1.638725 1_555
O14 Si4 1.640729 1_556
O15 Si8 1.625550 1_545
O15 Si6 1.634899 1_555
O16 Si8 1.679249 1_555
O16 Si4 1.683868 1_555
O17 Si9 1.623442 1_555
O18 Si8 1.632116 1_555
O18 Si5 1.642747 1_555
O19 Si10 1.640868 1_555
O19 Si6 1.643456 1_555
O20 Si5 1.640868 1_555
O20 Si9 1.643456 1_555
O21 Si7 1.632116 1_555
O21 Si10 1.642747 1_555
O22 Si6 1.623442 1_555
O23 Si7 1.679249 1_554
O23 Si11 1.683868 1_555
O24 Si7 1.625550 1_555
O24 Si9 1.634899 1_555
O25 Si10 1.638725 1_555
O25 Si11 1.640729 1_555
O26 Si11 1.608911 1_555
O27 Si8 1.611514 1_555
O28 Si12 1.626204 1_555
O28 Si9 1.631332 1_555
O29 Si10 1.620871 1_555
O30 Si13 1.620871 1_555
O31 Si11 1.626204 1_555
O31 Si14 1.631332 1_555
O32 Si15 1.611514 1_555
O33 Si12 1.608911 1_555
O34 Si13 1.638725 1_555
O34 Si12 1.640729 1_554
O35 Si0 1.625539 1_655
O35 Si14 1.634910 1_555
O36 Si0 1.679249 1_555
O36 Si12 1.683868 1_455
O37 Si1 1.623442 1_655
O38 Si0 1.632116 1_555
O38 Si13 1.642747 1_455
O39 Si2 1.640868 1_655
O39 Si14 1.643456 1_555
