# generated using pymatgen
data_MgIn2
_symmetry_space_group_name_H-M   'P 1'
_cell_length_a   13.35939269
_cell_length_b   13.35939269
_cell_length_c   14.32330745
_cell_angle_alpha   73.07845043
_cell_angle_beta   73.07845043
_cell_angle_gamma   28.47973291
_symmetry_Int_Tables_number   1
_chemical_formula_structural   MgIn2
_chemical_formula_sum   'Mg16 In32'
_cell_volume   1162.72215225
_cell_formula_units_Z   16
loop_
 _symmetry_equiv_pos_site_id
 _symmetry_equiv_pos_as_xyz
  1  'x, y, z'
loop_
 _atom_site_type_symbol
 _atom_site_label
 _atom_site_symmetry_multiplicity
 _atom_site_fract_x
 _atom_site_fract_y
 _atom_site_fract_z
 _atom_site_occupancy
  Mg  Mg0_0  1  0.17965212  0.17965212  0.01610627  1
  Mg  Mg0_1  1  0.17965212  0.17965212  0.51610627  1
  Mg  Mg0_2  1  0.17965212  0.67965212  0.01610627  1
  Mg  Mg0_3  1  0.17965212  0.67965212  0.51610627  1
  Mg  Mg0_4  1  0.67965212  0.17965212  0.01610627  1
  Mg  Mg0_5  1  0.67965212  0.17965212  0.51610627  1
  Mg  Mg0_6  1  0.67965212  0.67965212  0.01610627  1
  Mg  Mg0_7  1  0.67965212  0.67965212  0.51610627  1
  Mg  Mg1_0  1  0.32034787  0.32034787  0.48389373  1
  Mg  Mg1_1  1  0.32034787  0.32034787  0.98389373  1
  Mg  Mg1_2  1  0.32034788  0.82034788  0.48389373  1
  Mg  Mg1_3  1  0.32034787  0.82034787  0.98389373  1
  Mg  Mg1_4  1  0.82034788  0.32034788  0.48389373  1
  Mg  Mg1_5  1  0.82034787  0.32034787  0.98389373  1
  Mg  Mg1_6  1  0.82034787  0.82034787  0.48389373  1
  Mg  Mg1_7  1  0.82034787  0.82034787  0.98389373  1
  In  In0_0  1  0.01216139  0.01216139  0.35246037  1
  In  In0_1  1  0.01216139  0.01216139  0.85246037  1
  In  In0_2  1  0.01216138  0.51216138  0.35246037  1
  In  In0_3  1  0.01216138  0.51216138  0.85246037  1
  In  In0_4  1  0.51216138  0.01216139  0.35246037  1
  In  In0_5  1  0.51216138  0.01216139  0.85246037  1
  In  In0_6  1  0.51216138  0.51216138  0.35246037  1
  In  In0_7  1  0.51216138  0.51216138  0.85246037  1
  In  In1_0  1  0.15255670  0.15255670  0.32081412  1
  In  In1_1  1  0.15255670  0.15255670  0.82081412  1
  In  In1_2  1  0.15255670  0.65255670  0.32081412  1
  In  In1_3  1  0.15255670  0.65255670  0.82081412  1
  In  In1_4  1  0.65255670  0.15255670  0.32081412  1
  In  In1_5  1  0.65255670  0.15255670  0.82081412  1
  In  In1_6  1  0.65255670  0.65255670  0.32081412  1
  In  In1_7  1  0.65255670  0.65255670  0.82081412  1
  In  In2_0  1  0.34744330  0.34744330  0.17918588  1
  In  In2_1  1  0.34744330  0.34744330  0.67918588  1
  In  In2_2  1  0.34744330  0.84744330  0.17918588  1
  In  In2_3  1  0.34744330  0.84744330  0.67918588  1
  In  In2_4  1  0.84744330  0.34744330  0.17918588  1
  In  In2_5  1  0.84744330  0.34744330  0.67918588  1
  In  In2_6  1  0.84744330  0.84744330  0.17918588  1
  In  In2_7  1  0.84744330  0.84744330  0.67918588  1
  In  In3_0  1  0.48783861  0.48783861  0.14753963  1
  In  In3_1  1  0.48783861  0.48783861  0.64753963  1
  In  In3_2  1  0.48783861  0.98783861  0.14753963  1
  In  In3_3  1  0.48783861  0.98783862  0.64753963  1
  In  In3_4  1  0.98783861  0.48783861  0.14753963  1
  In  In3_5  1  0.98783862  0.48783861  0.64753963  1
  In  In3_6  1  0.98783861  0.98783861  0.14753963  1
  In  In3_7  1  0.98783861  0.98783861  0.64753963  1
loop_
_geom_bond_atom_site_label_1
_geom_bond_atom_site_label_2
_geom_bond_distance
_geom_bond_site_symmetry_2
Mg0_0 Mg0_6 3.286168 1_455
Mg0_0 Mg0_6 3.286168 1_545
Mg0_0 Mg1_5 3.422005 1_454
Mg0_0 Mg1_3 3.422005 1_544
Mg0_0 Mg1_1 3.532686 1_554
Mg0_1 Mg0_7 3.286168 1_455
Mg0_1 Mg0_7 3.286168 1_545
Mg0_1 Mg1_2 3.422005 1_545
Mg0_1 Mg1_4 3.422005 1_455
Mg0_1 Mg1_0 3.532686 1_555
Mg0_2 Mg0_4 3.286168 1_555
Mg0_2 Mg0_4 3.286168 1_465
Mg0_2 Mg1_1 3.422005 1_554
Mg0_2 Mg1_7 3.422005 1_454
Mg0_2 Mg1_3 3.532686 1_554
Mg0_3 Mg0_5 3.286168 1_555
Mg0_3 Mg0_5 3.286168 1_465
Mg0_3 Mg1_0 3.422005 1_555
Mg0_3 Mg1_6 3.422005 1_455
Mg0_3 Mg1_2 3.532686 1_555
Mg0_4 Mg1_1 3.422005 1_554
Mg0_4 Mg1_7 3.422005 1_544
Mg0_4 Mg1_5 3.532686 1_554
Mg0_5 Mg1_0 3.422005 1_555
Mg0_5 Mg1_6 3.422005 1_545
Mg0_5 Mg1_4 3.532686 1_555
Mg0_6 Mg1_5 3.422005 1_554
Mg0_6 Mg1_3 3.422005 1_554
Mg0_6 Mg1_7 3.532686 1_554
Mg0_7 Mg1_4 3.422005 1_555
Mg0_7 Mg1_2 3.422005 1_555
Mg0_7 Mg1_6 3.532686 1_555
Mg1_0 Mg1_6 3.286168 1_455
Mg1_0 Mg1_6 3.286168 1_545
Mg1_1 Mg1_7 3.286168 1_545
Mg1_1 Mg1_7 3.286168 1_455
Mg1_2 Mg1_4 3.286168 1_465
Mg1_2 Mg1_4 3.286168 1_555
Mg1_3 Mg1_5 3.286168 1_555
Mg1_3 Mg1_5 3.286168 1_465
In0_0 Mg0_5 3.122780 1_455
In0_0 Mg0_3 3.122780 1_545
In0_0 In3_6 3.181546 1_445
In0_0 Mg1_4 3.196601 1_455
In0_0 Mg1_2 3.196601 1_545
In0_0 In2_2 3.231920 1_545
In0_0 In2_4 3.231920 1_455
In0_0 In0_6 3.286168 1_545
In0_0 In0_6 3.286168 1_455
In0_0 In1_4 3.425658 1_455
In0_0 In1_2 3.425658 1_545
In0_0 In1_0 3.526425 1_555
In0_1 Mg0_4 3.122780 1_456
In0_1 Mg0_2 3.122780 1_546
In0_1 In3_7 3.181546 1_445
In0_1 Mg1_3 3.196601 1_545
In0_1 Mg1_5 3.196601 1_455
In0_1 In2_3 3.231920 1_545
In0_1 In2_5 3.231920 1_455
In0_1 In0_7 3.286168 1_545
In0_1 In0_7 3.286168 1_455
In0_1 In1_5 3.425658 1_455
In0_1 In1_3 3.425658 1_545
In0_1 In1_1 3.526425 1_555
In0_2 Mg0_1 3.122780 1_555
In0_2 Mg0_7 3.122780 1_455
In0_2 In3_4 3.181546 1_455
In0_2 Mg1_6 3.196601 1_455
In0_2 Mg1_0 3.196601 1_555
In0_2 In2_6 3.231920 1_455
In0_2 In2_0 3.231920 1_555
In0_2 In0_4 3.286168 1_555
In0_2 In0_4 3.286168 1_465
In0_2 In1_6 3.425658 1_455
In0_2 In1_0 3.425658 1_555
In0_2 In1_2 3.526425 1_555
In0_3 Mg0_0 3.122780 1_556
In0_3 Mg0_6 3.122780 1_456
In0_3 In3_5 3.181546 1_455
In0_3 Mg1_7 3.196601 1_455
In0_3 Mg1_1 3.196601 1_555
In0_3 In2_7 3.231920 1_455
In0_3 In2_1 3.231920 1_555
In0_3 In0_5 3.286168 1_555
In0_3 In0_5 3.286168 1_465
In0_3 In1_7 3.425658 1_455
In0_3 In1_1 3.425658 1_555
In0_3 In1_3 3.526425 1_555
In0_4 Mg0_7 3.122780 1_545
In0_4 Mg0_1 3.122780 1_555
In0_4 In3_2 3.181546 1_545
In0_4 Mg1_6 3.196601 1_545
In0_4 Mg1_0 3.196601 1_555
In0_4 In2_6 3.231920 1_545
In0_4 In2_0 3.231920 1_555
In0_4 In1_6 3.425658 1_545
In0_4 In1_0 3.425658 1_555
In0_4 In1_4 3.526425 1_555
In0_5 Mg0_0 3.122780 1_556
In0_5 Mg0_6 3.122780 1_546
In0_5 In3_3 3.181546 1_545
In0_5 Mg1_1 3.196601 1_555
In0_5 Mg1_7 3.196601 1_545
In0_5 In2_7 3.231920 1_545
In0_5 In2_1 3.231920 1_555
In0_5 In1_7 3.425658 1_545
In0_5 In1_1 3.425658 1_555
In0_5 In1_5 3.526425 1_555
In0_6 Mg0_5 3.122780 1_555
In0_6 Mg0_3 3.122780 1_555
In0_6 In3_0 3.181546 1_555
In0_6 Mg1_2 3.196601 1_555
In0_6 Mg1_4 3.196601 1_555
In0_6 In2_2 3.231920 1_555
In0_6 In2_4 3.231920 1_555
In0_6 In1_2 3.425658 1_555
In0_6 In1_4 3.425658 1_555
In0_6 In1_6 3.526425 1_555
In0_7 Mg0_2 3.122780 1_556
In0_7 Mg0_4 3.122780 1_556
In0_7 In3_1 3.181546 1_555
In0_7 Mg1_5 3.196601 1_555
In0_7 Mg1_3 3.196601 1_555
In0_7 In2_5 3.231920 1_555
In0_7 In2_3 3.231920 1_555
In0_7 In1_5 3.425658 1_555
In0_7 In1_3 3.425658 1_555
In0_7 In1_7 3.526425 1_555
In1_0 Mg0_1 3.081516 1_555
In1_0 Mg1_2 3.114792 1_545
In1_0 Mg1_4 3.114792 1_455
In1_0 In3_2 3.231920 1_545
In1_0 In3_4 3.231920 1_455
In1_0 In2_4 3.254389 1_455
In1_0 In2_2 3.254389 1_545
In1_0 In1_6 3.286168 1_455
In1_0 In1_6 3.286168 1_545
In1_1 Mg0_0 3.081516 1_556
In1_1 Mg1_3 3.114792 1_545
In1_1 Mg1_5 3.114792 1_455
In1_1 In3_3 3.231920 1_545
In1_1 In3_5 3.231920 1_455
In1_1 In2_3 3.254389 1_545
In1_1 In2_5 3.254389 1_455
In1_1 In1_7 3.286168 1_455
In1_1 In1_7 3.286168 1_545
In1_2 Mg0_3 3.081516 1_555
In1_2 Mg1_0 3.114792 1_555
In1_2 Mg1_6 3.114792 1_455
In1_2 In3_0 3.231920 1_555
In1_2 In3_6 3.231920 1_455
In1_2 In2_0 3.254389 1_555
In1_2 In2_6 3.254389 1_455
In1_2 In1_4 3.286168 1_555
In1_2 In1_4 3.286168 1_465
In1_3 Mg0_2 3.081516 1_556
In1_3 Mg1_7 3.114792 1_455
In1_3 Mg1_1 3.114792 1_555
In1_3 In3_7 3.231920 1_455
In1_3 In3_1 3.231920 1_555
In1_3 In2_7 3.254389 1_455
In1_3 In2_1 3.254389 1_555
In1_3 In1_5 3.286168 1_555
In1_3 In1_5 3.286168 1_465
In1_4 Mg0_5 3.081516 1_555
In1_4 Mg1_0 3.114792 1_555
In1_4 Mg1_6 3.114792 1_545
In1_4 In3_0 3.231920 1_555
In1_4 In3_6 3.231920 1_545
In1_4 In2_0 3.254389 1_555
In1_4 In2_6 3.254389 1_545
In1_5 Mg0_4 3.081516 1_556
In1_5 Mg1_7 3.114792 1_545
In1_5 Mg1_1 3.114792 1_555
In1_5 In3_7 3.231920 1_545
In1_5 In3_1 3.231920 1_555
In1_5 In2_7 3.254389 1_545
In1_5 In2_1 3.254389 1_555
In1_6 Mg0_7 3.081516 1_555
In1_6 Mg1_4 3.114792 1_555
In1_6 Mg1_2 3.114792 1_555
In1_6 In3_2 3.231920 1_555
In1_6 In3_4 3.231920 1_555
In1_6 In2_4 3.254389 1_555
In1_6 In2_2 3.254389 1_555
In1_7 Mg0_6 3.081516 1_556
In1_7 Mg1_3 3.114792 1_555
In1_7 Mg1_5 3.114792 1_555
In1_7 In3_5 3.231920 1_555
In1_7 In3_3 3.231920 1_555
In1_7 In2_5 3.254389 1_555
In1_7 In2_3 3.254389 1_555
In2_0 Mg1_1 3.081516 1_554
In2_0 Mg0_2 3.114792 1_555
In2_0 Mg0_4 3.114792 1_555
In2_0 In2_6 3.286168 1_455
In2_0 In2_6 3.286168 1_545
In2_0 In3_4 3.425658 1_455
In2_0 In3_2 3.425658 1_545
In2_0 In3_0 3.526425 1_555
In2_1 Mg1_0 3.081516 1_555
In2_1 Mg0_3 3.114792 1_555
In2_1 Mg0_5 3.114792 1_555
In2_1 In2_7 3.286168 1_545
In2_1 In2_7 3.286168 1_455
In2_1 In3_3 3.425658 1_545
In2_1 In3_5 3.425658 1_455
In2_1 In3_1 3.526425 1_555
In2_2 Mg1_3 3.081516 1_554
In2_2 Mg0_6 3.114792 1_555
In2_2 Mg0_0 3.114792 1_565
In2_2 In2_4 3.286168 1_555
In2_2 In2_4 3.286168 1_465
In2_2 In3_0 3.425658 1_555
In2_2 In3_6 3.425658 1_455
In2_2 In3_2 3.526425 1_555
In2_3 Mg1_2 3.081516 1_555
In2_3 Mg0_7 3.114792 1_555
In2_3 Mg0_1 3.114792 1_565
In2_3 In2_5 3.286168 1_555
In2_3 In2_5 3.286168 1_465
In2_3 In3_1 3.425658 1_555
In2_3 In3_7 3.425658 1_455
In2_3 In3_3 3.526425 1_555
In2_4 Mg1_5 3.081516 1_554
In2_4 Mg0_6 3.114792 1_555
In2_4 Mg0_0 3.114792 1_655
In2_4 In3_0 3.425658 1_555
In2_4 In3_6 3.425658 1_545
In2_4 In3_4 3.526425 1_555
In2_5 Mg1_4 3.081516 1_555
In2_5 Mg0_7 3.114792 1_555
In2_5 Mg0_1 3.114792 1_655
In2_5 In3_1 3.425658 1_555
In2_5 In3_7 3.425658 1_545
In2_5 In3_5 3.526425 1_555
In2_6 Mg1_7 3.081516 1_554
In2_6 Mg0_2 3.114792 1_655
In2_6 Mg0_4 3.114792 1_565
In2_6 In3_4 3.425658 1_555
In2_6 In3_2 3.425658 1_555
In2_6 In3_6 3.526425 1_555
In2_7 Mg1_6 3.081516 1_555
In2_7 Mg0_3 3.114792 1_655
In2_7 Mg0_5 3.114792 1_565
In2_7 In3_3 3.425658 1_555
In2_7 In3_5 3.425658 1_555
In2_7 In3_7 3.526425 1_555
In3_0 Mg1_3 3.122780 1_554
In3_0 Mg1_5 3.122780 1_554
In3_0 Mg0_2 3.196601 1_555
In3_0 Mg0_4 3.196601 1_555
In3_0 In3_6 3.286168 1_455
In3_0 In3_6 3.286168 1_545
In3_1 Mg1_2 3.122780 1_555
In3_1 Mg1_4 3.122780 1_555
In3_1 Mg0_5 3.196601 1_555
In3_1 Mg0_3 3.196601 1_555
In3_1 In3_7 3.286168 1_455
In3_1 In3_7 3.286168 1_545
In3_2 Mg1_1 3.122780 1_564
In3_2 Mg1_7 3.122780 1_554
In3_2 Mg0_0 3.196601 1_565
In3_2 Mg0_6 3.196601 1_555
In3_2 In3_4 3.286168 1_465
In3_2 In3_4 3.286168 1_555
In3_3 Mg1_6 3.122780 1_555
In3_3 Mg1_0 3.122780 1_565
In3_3 Mg0_1 3.196601 1_565
In3_3 Mg0_7 3.196601 1_555
In3_3 In3_5 3.286168 1_465
In3_3 In3_5 3.286168 1_555
In3_4 Mg1_7 3.122780 1_554
In3_4 Mg1_1 3.122780 1_654
In3_4 Mg0_0 3.196601 1_655
In3_4 Mg0_6 3.196601 1_555
In3_5 Mg1_6 3.122780 1_555
In3_5 Mg1_0 3.122780 1_655
In3_5 Mg0_1 3.196601 1_655
In3_5 Mg0_7 3.196601 1_555
In3_6 Mg1_3 3.122780 1_654
In3_6 Mg1_5 3.122780 1_564
In3_6 Mg0_4 3.196601 1_565
In3_6 Mg0_2 3.196601 1_655
In3_7 Mg1_2 3.122780 1_655
In3_7 Mg1_4 3.122780 1_565
In3_7 Mg0_5 3.196601 1_565
In3_7 Mg0_3 3.196601 1_655
