# generated using pymatgen
data_NaNi2Mo2H3O10
_symmetry_space_group_name_H-M   'P 1'
_cell_length_a   5.67881553
_cell_length_b   5.67884905
_cell_length_c   7.69028159
_cell_angle_alpha   68.75605695
_cell_angle_beta   68.75607218
_cell_angle_gamma   68.36386538
_symmetry_Int_Tables_number   1
_chemical_formula_structural   NaNi2Mo2H3O10
_chemical_formula_sum   'Na1 Ni2 Mo2 H3 O10'
_cell_volume   207.24201603
_cell_formula_units_Z   1
loop_
 _symmetry_equiv_pos_site_id
 _symmetry_equiv_pos_as_xyz
  1  'x, y, z'
loop_
 _atom_site_type_symbol
 _atom_site_label
 _atom_site_symmetry_multiplicity
 _atom_site_fract_x
 _atom_site_fract_y
 _atom_site_fract_z
 _atom_site_occupancy
  Na  Na0  1  0.50080600  0.49919500  0.49999900  1
  Ni  Ni0  1  0.00306100  0.49749700  0.99999900  1
  Ni  Ni1  1  0.50249600  0.99694600  0.00000500  1
  Mo  Mo0  1  0.08034900  0.07747300  0.71700300  1
  Mo  Mo1  1  0.92252600  0.91965300  0.28299800  1
  H  H0  1  0.50284100  0.49716000  0.99999800  1
  H  H1  1  0.68324100  0.67776200  0.78000200  1
  H  H2  1  0.32224000  0.31675200  0.21999800  1
  O  O0  1  0.35741500  0.35149900  0.07851900  1
  O  O1  1  0.64850100  0.64258400  0.92148100  1
  O  O2  1  0.83258300  0.82900100  0.11151700  1
  O  O3  1  0.17100000  0.16742000  0.88848300  1
  O  O4  1  0.76327900  0.76309900  0.51685700  1
  O  O5  1  0.23689900  0.23672100  0.48314200  1
  O  O6  1  0.81524900  0.26821400  0.25604200  1
  O  O7  1  0.27112100  0.81139500  0.25630000  1
  O  O8  1  0.18860500  0.72888000  0.74370100  1
  O  O9  1  0.73178600  0.18474900  0.74395700  1
loop_
_geom_bond_atom_site_label_1
_geom_bond_atom_site_label_2
_geom_bond_distance
_geom_bond_site_symmetry_2
Na0 O7 2.452589 1_555
Na0 O8 2.452609 1_555
Na0 O6 2.461158 1_555
Na0 O9 2.461162 1_555
Na0 O4 2.532316 1_555
Na0 O5 2.532331 1_555
Ni0 O6 2.086688 1_456
Ni0 O8 2.088248 1_555
Ni0 O0 2.094963 1_556
Ni0 O1 2.096363 1_455
Ni0 O3 2.100609 1_555
Ni0 O2 2.107394 1_456
Ni1 O9 2.086706 1_564
Ni1 O7 2.088229 1_555
Ni1 O1 2.095028 1_554
Ni1 O0 2.096324 1_565
Ni1 O2 2.100630 1_555
Ni1 O3 2.107362 1_564
Mo0 O5 1.760175 1_555
Mo0 O9 1.799210 1_455
Mo0 O8 1.799563 1_545
Mo0 O3 1.854449 1_555
Mo1 O4 1.760171 1_555
Mo1 O6 1.799207 1_565
Mo1 O7 1.799562 1_655
Mo1 O2 1.854445 1_555
H0 O1 1.229332 1_555
H0 O0 1.229345 1_556
H1 O1 0.989244 1_555
H2 O0 0.989241 1_555
