# generated using pymatgen
data_Na3LiY3P3CO15F2
_symmetry_space_group_name_H-M   'P 1'
_cell_length_a   11.09600032
_cell_length_b   11.09600032
_cell_length_c   11.09600032
_cell_angle_alpha   90.00000000
_cell_angle_beta   90.00000000
_cell_angle_gamma   90.00000000
_symmetry_Int_Tables_number   1
_chemical_formula_structural   Na3LiY3P3CO15F2
_chemical_formula_sum   'Na12 Li4 Y12 P12 C4 O60 F8'
_cell_volume   1366.15313093
_cell_formula_units_Z   4
loop_
 _symmetry_equiv_pos_site_id
 _symmetry_equiv_pos_as_xyz
  1  'x, y, z'
loop_
 _atom_site_type_symbol
 _atom_site_label
 _atom_site_symmetry_multiplicity
 _atom_site_fract_x
 _atom_site_fract_y
 _atom_site_fract_z
 _atom_site_occupancy
  Na  Na0  1  0.33412226  0.33412226  0.00975382  1
  Na  Na1  1  0.33412226  0.66587774  0.99024618  1
  Na  Na2  1  0.66587774  0.66587774  0.00975382  1
  Na  Na3  1  0.66587774  0.33412226  0.99024618  1
  Na  Na4  1  0.99024618  0.66587774  0.33412226  1
  Na  Na5  1  0.99024618  0.33412226  0.66587774  1
  Na  Na6  1  0.00975382  0.33412226  0.33412226  1
  Na  Na7  1  0.00975382  0.66587774  0.66587774  1
  Na  Na8  1  0.66587774  0.99024618  0.33412226  1
  Na  Na9  1  0.66587774  0.00975382  0.66587774  1
  Na  Na10  1  0.33412226  0.00975382  0.33412226  1
  Na  Na11  1  0.33412226  0.99024618  0.66587774  1
  Li  Li0  1  0.80169666  0.80169666  0.80169666  1
  Li  Li1  1  0.80169666  0.19830334  0.19830334  1
  Li  Li2  1  0.19830334  0.19830334  0.80169666  1
  Li  Li3  1  0.19830334  0.80169666  0.19830334  1
  Y  Y0  1  0.68567071  0.00000000  -0.00000000  1
  Y  Y1  1  0.31432929  0.00000000  -0.00000000  1
  Y  Y2  1  -0.00000000  0.68567071  -0.00000000  1
  Y  Y3  1  -0.00000000  0.31432929  -0.00000000  1
  Y  Y4  1  -0.00000000  0.00000000  0.68567071  1
  Y  Y5  1  -0.00000000  0.00000000  0.31432929  1
  Y  Y6  1  0.50000000  0.50000000  0.74649577  1
  Y  Y7  1  0.50000000  0.50000000  0.25350423  1
  Y  Y8  1  0.50000000  0.74649577  0.50000000  1
  Y  Y9  1  0.50000000  0.25350423  0.50000000  1
  Y  Y10  1  0.74649577  0.50000000  0.50000000  1
  Y  Y11  1  0.25350423  0.50000000  0.50000000  1
  P  P0  1  0.48405904  0.18534782  0.81465218  1
  P  P1  1  0.48405904  0.81465218  0.18534782  1
  P  P2  1  0.51594096  0.81465218  0.81465218  1
  P  P3  1  0.51594096  0.18534782  0.18534782  1
  P  P4  1  0.81465218  0.51594096  0.81465218  1
  P  P5  1  0.81465218  0.48405904  0.18534782  1
  P  P6  1  0.18534782  0.48405904  0.81465218  1
  P  P7  1  0.18534782  0.51594096  0.18534782  1
  P  P8  1  0.81465218  0.18534782  0.48405904  1
  P  P9  1  0.81465218  0.81465218  0.51594096  1
  P  P10  1  0.18534782  0.81465218  0.48405904  1
  P  P11  1  0.18534782  0.18534782  0.51594096  1
  C  C0  1  0.88130838  0.11869162  0.88130838  1
  C  C1  1  0.88130838  0.88130838  0.11869162  1
  C  C2  1  0.11869162  0.88130838  0.88130838  1
  C  C3  1  0.11869162  0.11869162  0.11869162  1
  O  O0  1  0.14562710  0.35591298  0.85437290  1
  O  O1  1  0.14562710  0.64408702  0.14562710  1
  O  O2  1  0.85437290  0.64408702  0.85437290  1
  O  O3  1  0.85437290  0.35591298  0.14562710  1
  O  O4  1  0.50023759  0.68125485  0.84581350  1
  O  O5  1  0.50023759  0.31874515  0.15418650  1
  O  O6  1  0.49976241  0.31874515  0.84581350  1
  O  O7  1  0.49976241  0.68125485  0.15418650  1
  O  O8  1  0.49976241  0.15418650  0.68125485  1
  O  O9  1  0.49976241  0.84581350  0.31874515  1
  O  O10  1  0.50023759  0.84581350  0.68125485  1
  O  O11  1  0.50023759  0.15418650  0.31874515  1
  O  O12  1  0.84581350  0.50023759  0.68125485  1
  O  O13  1  0.84581350  0.49976241  0.31874515  1
  O  O14  1  0.15418650  0.49976241  0.68125485  1
  O  O15  1  0.15418650  0.50023759  0.31874515  1
  O  O16  1  0.68125485  0.50023759  0.84581350  1
  O  O17  1  0.68125485  0.49976241  0.15418650  1
  O  O18  1  0.31874515  0.49976241  0.84581350  1
  O  O19  1  0.31874515  0.50023759  0.15418650  1
  O  O20  1  0.35591298  0.14562710  0.85437290  1
  O  O21  1  0.35591298  0.85437290  0.14562710  1
  O  O22  1  0.64408702  0.85437290  0.85437290  1
  O  O23  1  0.64408702  0.14562710  0.14562710  1
  O  O24  1  0.88537001  0.42070466  0.88537001  1
  O  O25  1  0.88537001  0.57929534  0.11462999  1
  O  O26  1  0.11462999  0.57929534  0.88537001  1
  O  O27  1  0.11462999  0.42070466  0.11462999  1
  O  O28  1  0.57929534  0.11462999  0.88537001  1
  O  O29  1  0.57929534  0.88537001  0.11462999  1
  O  O30  1  0.42070466  0.88537001  0.88537001  1
  O  O31  1  0.42070466  0.11462999  0.11462999  1
  O  O32  1  0.15418650  0.68125485  0.49976241  1
  O  O33  1  0.15418650  0.31874515  0.50023759  1
  O  O34  1  0.84581350  0.31874515  0.49976241  1
  O  O35  1  0.84581350  0.68125485  0.50023759  1
  O  O36  1  0.68125485  0.15418650  0.49976241  1
  O  O37  1  0.68125485  0.84581350  0.50023759  1
  O  O38  1  0.31874515  0.84581350  0.49976241  1
  O  O39  1  0.31874515  0.15418650  0.50023759  1
  O  O40  1  0.85437290  0.14562710  0.35591298  1
  O  O41  1  0.85437290  0.85437290  0.64408702  1
  O  O42  1  0.14562710  0.85437290  0.35591298  1
  O  O43  1  0.14562710  0.14562710  0.64408702  1
  O  O44  1  0.88537001  0.11462999  0.57929534  1
  O  O45  1  0.88537001  0.88537001  0.42070466  1
  O  O46  1  0.11462999  0.88537001  0.57929534  1
  O  O47  1  0.11462999  0.11462999  0.42070466  1
  O  O48  1  0.83469294  0.83469294  0.02313756  1
  O  O49  1  0.83469294  0.16530706  0.97686244  1
  O  O50  1  0.16530706  0.16530706  0.02313756  1
  O  O51  1  0.16530706  0.83469294  0.97686244  1
  O  O52  1  0.97686244  0.83469294  0.16530706  1
  O  O53  1  0.97686244  0.16530706  0.83469294  1
  O  O54  1  0.02313756  0.16530706  0.16530706  1
  O  O55  1  0.02313756  0.83469294  0.83469294  1
  O  O56  1  0.83469294  0.02313756  0.83469294  1
  O  O57  1  0.83469294  0.97686244  0.16530706  1
  O  O58  1  0.16530706  0.97686244  0.83469294  1
  O  O59  1  0.16530706  0.02313756  0.16530706  1
  F  F0  1  0.61777459  0.61777459  0.61777459  1
  F  F1  1  0.61777459  0.38222541  0.38222541  1
  F  F2  1  0.38222541  0.38222541  0.61777459  1
  F  F3  1  0.38222541  0.61777459  0.38222541  1
  F  F4  1  0.61239406  0.61239406  0.38760594  1
  F  F5  1  0.61239406  0.38760594  0.61239406  1
  F  F6  1  0.38760594  0.38760594  0.38760594  1
  F  F7  1  0.38760594  0.61239406  0.61239406  1
loop_
_geom_bond_atom_site_label_1
_geom_bond_atom_site_label_2
_geom_bond_distance
_geom_bond_site_symmetry_2
Na0 O19 2.448462 1_555
Na0 O5 2.448462 1_555
Na0 O6 2.591564 1_554
Na0 O18 2.591564 1_554
Na0 O50 2.653227 1_555
Na0 O0 2.721315 1_554
Na0 O20 2.721315 1_554
Na0 O27 2.865098 1_555
Na0 O31 2.865098 1_555
Na1 O18 2.448462 1_555
Na1 O4 2.448462 1_555
Na1 O19 2.591564 1_556
Na1 O7 2.591564 1_556
Na1 O51 2.653227 1_555
Na1 O21 2.721315 1_556
Na1 O1 2.721315 1_556
Na1 O26 2.865098 1_555
Na1 O30 2.865098 1_555
Na2 O7 2.448462 1_555
Na2 O17 2.448462 1_555
Na2 O4 2.591564 1_554
Na2 O16 2.591564 1_554
Na2 O48 2.653227 1_555
Na2 O2 2.721315 1_554
Na2 O22 2.721315 1_554
Na2 O25 2.865098 1_555
Na2 O29 2.865098 1_555
Na3 O16 2.448462 1_555
Na3 O6 2.448462 1_555
Na3 O5 2.591564 1_556
Na3 O17 2.591564 1_556
Na3 O49 2.653227 1_555
Na3 O3 2.721315 1_556
Na3 O23 2.721315 1_556
Na3 O28 2.865098 1_555
Na3 O24 2.865098 1_555
Na4 O35 2.448462 1_555
Na4 O13 2.448462 1_555
Na4 O15 2.591564 1_655
Na4 O32 2.591564 1_655
Na4 O52 2.653227 1_555
Na4 O42 2.721315 1_655
Na4 O1 2.721315 1_655
Na4 O25 2.865098 1_555
Na4 O45 2.865098 1_555
Na5 O34 2.448462 1_555
Na5 O12 2.448462 1_555
Na5 O33 2.591564 1_655
Na5 O14 2.591564 1_655
Na5 O53 2.653227 1_555
Na5 O0 2.721315 1_655
Na5 O43 2.721315 1_655
Na5 O44 2.865098 1_555
Na5 O24 2.865098 1_555
Na6 O33 2.448462 1_555
Na6 O15 2.448462 1_555
Na6 O34 2.591564 1_455
Na6 O13 2.591564 1_455
Na6 O54 2.653227 1_555
Na6 O3 2.721315 1_455
Na6 O40 2.721315 1_455
Na6 O27 2.865098 1_555
Na6 O47 2.865098 1_555
Na7 O32 2.448462 1_555
Na7 O14 2.448462 1_555
Na7 O12 2.591564 1_455
Na7 O35 2.591564 1_455
Na7 O55 2.653227 1_555
Na7 O41 2.721315 1_455
Na7 O2 2.721315 1_455
Na7 O26 2.865098 1_555
Na7 O46 2.865098 1_555
Na8 O37 2.448462 1_555
Na8 O9 2.448462 1_555
Na8 O36 2.591564 1_565
Na8 O11 2.591564 1_565
Na8 O57 2.653227 1_555
Na8 O40 2.721315 1_565
Na8 O23 2.721315 1_565
Na8 O29 2.865098 1_555
Na8 O45 2.865098 1_555
Na9 O36 2.448462 1_555
Na9 O8 2.448462 1_555
Na9 O10 2.591564 1_545
Na9 O37 2.591564 1_545
Na9 O56 2.653227 1_555
Na9 O41 2.721315 1_545
Na9 O22 2.721315 1_545
Na9 O44 2.865098 1_555
Na9 O28 2.865098 1_555
Na10 O11 2.448462 1_555
Na10 O39 2.448462 1_555
Na10 O38 2.591564 1_545
Na10 O9 2.591564 1_545
Na10 O59 2.653227 1_555
Na10 O42 2.721315 1_545
Na10 O21 2.721315 1_545
Na10 O47 2.865098 1_555
Na10 O31 2.865098 1_555
Na11 O38 2.448462 1_555
Na11 O10 2.448462 1_555
Na11 O39 2.591564 1_565
Na11 O8 2.591564 1_565
Na11 O58 2.653227 1_555
Na11 O20 2.721315 1_565
Na11 O43 2.721315 1_565
Na11 O46 2.865098 1_555
Na11 O30 2.865098 1_555
Li0 O2 1.934347 1_555
Li0 O41 1.934347 1_555
Li0 O22 1.934347 1_555
Li0 O48 2.511071 1_556
Li0 O56 2.511071 1_565
Li0 O55 2.511071 1_655
Li1 O40 1.934347 1_555
Li1 O3 1.934347 1_555
Li1 O23 1.934347 1_555
Li1 O54 2.511071 1_655
Li1 O57 2.511071 1_545
Li1 O49 2.511071 1_554
Li2 O0 1.934347 1_555
Li2 O20 1.934347 1_555
Li2 O43 1.934347 1_555
Li2 O50 2.511071 1_556
Li2 O58 2.511071 1_545
Li2 O53 2.511071 1_455
Li3 O42 1.934347 1_555
Li3 O21 1.934347 1_555
Li3 O1 1.934347 1_555
Li3 O59 2.511071 1_565
Li3 O52 2.511071 1_455
Li3 O51 2.511071 1_554
C0 O53 1.288120 1_555
C0 O49 1.288120 1_555
C0 O56 1.288120 1_555
C1 O52 1.288120 1_555
C1 O48 1.288120 1_555
C1 O57 1.288120 1_555
C2 O55 1.288120 1_555
C2 O58 1.288120 1_555
C2 O51 1.288120 1_555
C3 O54 1.288120 1_555
C3 O50 1.288120 1_555
C3 O59 1.288120 1_555
O0 P6 1.552524 1_555
O0 Y3 2.331314 1_556
O1 P7 1.552524 1_555
O1 Y2 2.331314 1_555
O2 P4 1.552524 1_555
O2 Y2 2.331314 1_656
O3 P5 1.552524 1_555
O3 Y3 2.331314 1_655
O4 P2 1.529980 1_555
O4 Y6 2.293342 1_555
O5 P3 1.529980 1_555
O5 Y7 2.293342 1_555
O6 P0 1.529980 1_555
O6 Y6 2.293342 1_555
O7 P1 1.529980 1_555
O7 Y7 2.293342 1_555
O8 P0 1.529980 1_555
O8 Y9 2.293342 1_555
O9 P1 1.529980 1_555
O9 Y8 2.293342 1_555
O10 P2 1.529980 1_555
O10 Y8 2.293342 1_555
O11 P3 1.529980 1_555
O11 Y9 2.293342 1_555
O12 P4 1.529980 1_555
O12 Y10 2.293342 1_555
O13 P5 1.529980 1_555
O13 Y10 2.293342 1_555
O14 P6 1.529980 1_555
O14 Y11 2.293342 1_555
O15 P7 1.529980 1_555
O15 Y11 2.293342 1_555
O16 P4 1.529980 1_555
O16 Y6 2.293342 1_555
O17 P5 1.529980 1_555
O17 Y7 2.293342 1_555
O18 P6 1.529980 1_555
O18 Y6 2.293342 1_555
O19 P7 1.529980 1_555
O19 Y7 2.293342 1_555
O20 P0 1.552524 1_555
O20 Y1 2.331314 1_556
O21 P1 1.552524 1_555
O21 Y1 2.331314 1_565
O22 P2 1.552524 1_555
O22 Y0 2.331314 1_566
O23 P3 1.552524 1_555
O23 Y0 2.331314 1_555
O24 P4 1.532372 1_555
O24 Y3 2.151474 1_656
O25 P5 1.532372 1_555
O25 Y2 2.151474 1_655
O26 P6 1.532372 1_555
O26 Y2 2.151474 1_556
O27 P7 1.532372 1_555
O27 Y3 2.151474 1_555
O28 P0 1.532372 1_555
O28 Y0 2.151474 1_556
O29 P1 1.532372 1_555
O29 Y0 2.151474 1_565
O30 P2 1.532372 1_555
O30 Y1 2.151474 1_566
O31 P3 1.532372 1_555
O31 Y1 2.151474 1_555
O32 P10 1.529980 1_555
O32 Y11 2.293342 1_555
O33 P11 1.529980 1_555
O33 Y11 2.293342 1_555
O34 P8 1.529980 1_555
O34 Y10 2.293342 1_555
O35 P9 1.529980 1_555
O35 Y10 2.293342 1_555
O36 P8 1.529980 1_555
O36 Y9 2.293342 1_555
O37 P9 1.529980 1_555
O37 Y8 2.293342 1_555
O38 P10 1.529980 1_555
O38 Y8 2.293342 1_555
O39 P11 1.529980 1_555
O39 Y9 2.293342 1_555
O40 P8 1.552524 1_555
O40 Y5 2.331314 1_655
O41 P9 1.552524 1_555
O41 Y4 2.331314 1_665
O42 P10 1.552524 1_555
O42 Y5 2.331314 1_565
O43 P11 1.552524 1_555
O43 Y4 2.331314 1_555
O44 P8 1.532372 1_555
O44 Y4 2.151474 1_655
O45 P9 1.532372 1_555
O45 Y5 2.151474 1_665
O46 P10 1.532372 1_555
O46 Y4 2.151474 1_565
O47 P11 1.532372 1_555
O47 Y5 2.151474 1_555
O48 Y2 2.482862 1_655
O48 Y0 2.482862 1_565
O49 Y3 2.482862 1_656
O49 Y0 2.482862 1_556
O50 Y1 2.482862 1_555
O50 Y3 2.482862 1_555
O51 Y1 2.482862 1_566
O51 Y2 2.482862 1_556
O52 Y5 2.482862 1_665
O52 Y2 2.482862 1_655
O53 Y3 2.482862 1_656
O53 Y4 2.482862 1_655
O54 Y5 2.482862 1_555
O54 Y3 2.482862 1_555
O55 Y4 2.482862 1_565
O55 Y2 2.482862 1_556
O56 Y4 2.482862 1_655
O56 Y0 2.482862 1_556
O57 Y5 2.482862 1_665
O57 Y0 2.482862 1_565
O58 Y1 2.482862 1_566
O58 Y4 2.482862 1_565
O59 Y5 2.482862 1_555
O59 Y1 2.482862 1_555
F0 Y8 2.335724 1_555
F0 Y6 2.335724 1_555
F0 Y10 2.335724 1_555
F1 Y9 2.335724 1_555
F1 Y10 2.335724 1_555
F1 Y7 2.335724 1_555
F2 Y11 2.335724 1_555
F2 Y9 2.335724 1_555
F2 Y6 2.335724 1_555
F3 Y11 2.335724 1_555
F3 Y8 2.335724 1_555
F3 Y7 2.335724 1_555
F4 Y7 2.307544 1_555
F4 Y10 2.307544 1_555
F4 Y8 2.307544 1_555
F5 Y9 2.307544 1_555
F5 Y6 2.307544 1_555
F5 Y10 2.307544 1_555
F6 Y9 2.307544 1_555
F6 Y11 2.307544 1_555
F6 Y7 2.307544 1_555
F7 Y11 2.307544 1_555
F7 Y8 2.307544 1_555
F7 Y6 2.307544 1_555
