# generated using pymatgen
data_Mn2Sb2H8S5N4
_symmetry_space_group_name_H-M   'P 1'
_cell_length_a   8.93081900
_cell_length_b   9.02584410
_cell_length_c   9.06493729
_cell_angle_alpha   110.66875209
_cell_angle_beta   115.21751664
_cell_angle_gamma   86.11517116
_symmetry_Int_Tables_number   1
_chemical_formula_structural   Mn2Sb2H8S5N4
_chemical_formula_sum   'Mn4 Sb4 H16 S10 N8'
_cell_volume   615.56652573
_cell_formula_units_Z   2
loop_
 _symmetry_equiv_pos_site_id
 _symmetry_equiv_pos_as_xyz
  1  'x, y, z'
loop_
 _atom_site_type_symbol
 _atom_site_label
 _atom_site_symmetry_multiplicity
 _atom_site_fract_x
 _atom_site_fract_y
 _atom_site_fract_z
 _atom_site_occupancy
  Mn  Mn0  1  0.11729900  0.95606700  0.18953100  1
  Mn  Mn1  1  0.88270100  0.04393300  0.81046900  1
  Mn  Mn2  1  0.45635400  0.59819300  0.17933900  1
  Mn  Mn3  1  0.54364600  0.40180700  0.82066100  1
  Sb  Sb0  1  0.18085400  0.69846200  0.76959600  1
  Sb  Sb1  1  0.81914600  0.30153800  0.23040400  1
  Sb  Sb2  1  0.65876800  0.84363500  0.00196300  1
  Sb  Sb3  1  0.34123200  0.15636500  0.99803700  1
  H  H0  1  0.39260100  0.03567000  0.55123000  1
  H  H1  1  0.60739900  0.96433000  0.44877000  1
  H  H2  1  0.22740500  0.12394500  0.53955500  1
  H  H3  1  0.77259500  0.87605500  0.46044500  1
  H  H4  1  0.18699100  0.51086400  0.24689900  1
  H  H5  1  0.81300900  0.48913600  0.75310100  1
  H  H6  1  0.13405300  0.57121900  0.08208000  1
  H  H7  1  0.86594700  0.42878100  0.91792000  1
  H  H8  1  0.53627000  0.76734000  0.54150600  1
  H  H9  1  0.46373000  0.23266000  0.45849400  1
  H  H10  1  0.68915400  0.67957900  0.51366600  1
  H  H11  1  0.31084600  0.32042100  0.48633400  1
  H  H12  1  0.02278100  0.71815500  0.27429600  1
  H  H13  1  0.97721900  0.28184500  0.72570400  1
  H  H14  1  0.21174800  0.77896300  0.42895100  1
  H  H15  1  0.78825200  0.22103700  0.57104900  1
  S  S0  1  0.10721400  0.93874200  0.68971000  1
  S  S1  1  0.89278600  0.06125800  0.31029000  1
  S  S2  1  0.41986800  0.63556700  0.69040800  1
  S  S3  1  0.58013200  0.36443300  0.30959200  1
  S  S4  1  0.34135300  0.83657000  0.08919000  1
  S  S5  1  0.65864700  0.16343000  0.91081000  1
  S  S6  1  0.87802700  0.79781400  0.89264700  1
  S  S7  1  0.12197300  0.20218600  0.10735300  1
  S  S8  1  0.71185000  0.62243300  0.11959200  1
  S  S9  1  0.28815000  0.37756700  0.88040800  1
  N  N0  1  0.30852000  0.09716600  0.48194000  1
  N  N1  1  0.69148000  0.90283400  0.51806000  1
  N  N2  1  0.20595300  0.60400500  0.21412200  1
  N  N3  1  0.79404700  0.39599500  0.78587800  1
  N  N4  1  0.60053000  0.75027900  0.46621000  1
  N  N5  1  0.39947000  0.24972100  0.53379000  1
  N  N6  1  0.14261100  0.74641800  0.29619000  1
  N  N7  1  0.85738900  0.25358200  0.70381000  1
loop_
_geom_bond_atom_site_label_1
_geom_bond_atom_site_label_2
_geom_bond_distance
_geom_bond_site_symmetry_2
Mn0 N6 2.369364 1_555
Mn0 N0 2.370403 1_565
Mn0 S4 2.561347 1_555
Mn0 S6 2.578536 1_454
Mn0 S7 2.588183 1_565
Mn0 S1 2.645519 1_465
Mn1 N7 2.369364 1_555
Mn1 N1 2.370403 1_545
Mn1 S5 2.561347 1_555
Mn1 S7 2.578536 1_656
Mn1 S6 2.588183 1_545
Mn1 S0 2.645519 1_645
Mn2 N4 2.273995 1_555
Mn2 N2 2.382521 1_555
Mn2 S4 2.564842 1_555
Mn2 S9 2.586970 1_554
Mn2 S8 2.598483 1_555
Mn2 S3 2.719946 1_555
Mn3 N5 2.273995 1_555
Mn3 N3 2.382521 1_555
Mn3 S5 2.564842 1_555
Mn3 S8 2.586970 1_556
Mn3 S9 2.598483 1_555
Mn3 S2 2.719946 1_555
H0 N0 1.026745 1_555
H1 N1 1.026745 1_555
H2 N0 1.032249 1_555
H3 N1 1.032249 1_555
H4 N2 1.030626 1_555
H5 N3 1.030626 1_555
H6 N2 1.026337 1_555
H7 N3 1.026337 1_555
H8 N4 1.032743 1_555
H9 N5 1.032743 1_555
H10 N4 1.026612 1_555
H11 N5 1.026612 1_555
H12 N6 1.034416 1_555
H13 N7 1.034416 1_555
H14 N6 1.028447 1_555
H15 N7 1.028447 1_555
S0 Sb0 2.483929 1_555
S0 Sb3 2.782307 1_565
S1 Sb1 2.483929 1_555
S1 Sb2 2.782307 1_545
S2 Sb0 2.499567 1_555
S2 Sb2 2.778389 1_556
S3 Sb1 2.499567 1_555
S3 Sb3 2.778389 1_554
S4 Sb0 2.481102 1_554
S5 Sb1 2.481102 1_556
S6 Sb2 2.498365 1_556
S7 Sb3 2.498365 1_554
S8 Sb2 2.508336 1_555
S9 Sb3 2.508336 1_555
