# generated using pymatgen
data_Ho2Sc3Si4
_symmetry_space_group_name_H-M   'P 1'
_cell_length_a   7.06538318
_cell_length_b   7.38023919
_cell_length_c   13.94117507
_cell_angle_alpha   90.00000148
_cell_angle_beta   89.99974469
_cell_angle_gamma   90.00001460
_symmetry_Int_Tables_number   1
_chemical_formula_structural   Ho2Sc3Si4
_chemical_formula_sum   'Ho8 Sc12 Si16'
_cell_volume   726.95166976
_cell_formula_units_Z   4
loop_
 _symmetry_equiv_pos_site_id
 _symmetry_equiv_pos_as_xyz
  1  'x, y, z'
loop_
 _atom_site_type_symbol
 _atom_site_label
 _atom_site_symmetry_multiplicity
 _atom_site_fract_x
 _atom_site_fract_y
 _atom_site_fract_z
 _atom_site_occupancy
  Ho  Ho0  1  0.01168317  0.17642271  0.09716093  1
  Ho  Ho1  1  0.98831561  0.82357247  0.90283874  1
  Ho  Ho2  1  0.48831573  0.67642680  0.90283870  1
  Ho  Ho3  1  0.98831813  0.82357169  0.59718911  1
  Ho  Ho4  1  0.51168327  0.32357772  0.09716091  1
  Ho  Ho5  1  0.01167943  0.17642316  0.40281145  1
  Ho  Ho6  1  0.51167970  0.32357688  0.40281159  1
  Ho  Ho7  1  0.48831780  0.67642752  0.59718909  1
  Sc  Sc0  1  0.16263173  0.50328788  0.75003547  1
  Sc  Sc1  1  0.83737021  0.49671576  0.24996494  1
  Sc  Sc2  1  0.33737077  0.00328397  0.24996488  1
  Sc  Sc3  1  0.66263190  0.99671142  0.75003554  1
  Sc  Sc4  1  0.32994963  0.17684921  0.62560274  1
  Sc  Sc5  1  0.67005226  0.82314249  0.37439383  1
  Sc  Sc6  1  0.17005044  0.67685730  0.37439331  1
  Sc  Sc7  1  0.67005298  0.82314237  0.12555518  1
  Sc  Sc8  1  0.82994979  0.32315077  0.62560329  1
  Sc  Sc9  1  0.32994919  0.17684989  0.87444821  1
  Sc  Sc10  1  0.82994858  0.32315000  0.87444828  1
  Sc  Sc11  1  0.17005331  0.67685821  0.12555485  1
  Si  Si0  1  0.03340609  0.11411170  0.75001029  1
  Si  Si1  1  0.96659560  0.88585879  0.24999014  1
  Si  Si2  1  0.46659526  0.61414115  0.24999017  1
  Si  Si3  1  0.53340590  0.38588801  0.75001039  1
  Si  Si4  1  0.28549972  0.87142709  0.75000683  1
  Si  Si5  1  0.71449546  0.12856216  0.24999187  1
  Si  Si6  1  0.21449529  0.37143816  0.24999182  1
  Si  Si7  1  0.78549951  0.62857210  0.75000675  1
  Si  Si8  1  0.15845861  0.46539317  0.53870493  1
  Si  Si9  1  0.84154218  0.53460347  0.46130488  1
  Si  Si10  1  0.34154246  0.96539622  0.46130488  1
  Si  Si11  1  0.84154606  0.53460526  0.03868972  1
  Si  Si12  1  0.65845876  0.03460629  0.53870496  1
  Si  Si13  1  0.15845485  0.46539173  0.96130076  1
  Si  Si14  1  0.65845531  0.03460786  0.96130089  1
  Si  Si15  1  0.34154630  0.96539460  0.03868968  1
loop_
_geom_bond_atom_site_label_1
_geom_bond_atom_site_label_2
_geom_bond_distance
_geom_bond_site_symmetry_2
Ho0 Si15 2.919216 1_545
Ho0 Si6 2.943546 1_555
Ho0 Si5 3.012191 1_455
Ho0 Si11 3.016197 1_455
Ho0 Si13 3.034965 1_554
Ho0 Si1 3.039670 1_445
Ho0 Si14 3.303235 1_454
Ho1 Si14 2.919193 1_565
Ho1 Si7 2.943517 1_555
Ho1 Si4 3.012178 1_655
Ho1 Si13 3.016157 1_655
Ho1 Si11 3.034871 1_556
Ho1 Si0 3.039537 1_665
Ho1 Si15 3.303194 1_656
Ho2 Si13 2.919194 1_555
Ho2 Si4 2.943515 1_555
Ho2 Si7 3.012177 1_555
Ho2 Si14 3.016160 1_565
Ho2 Si15 3.034874 1_556
Ho2 Si3 3.039533 1_555
Ho2 Si11 3.303192 1_556
Ho3 Si12 2.919276 1_565
Ho3 Si7 2.943369 1_555
Ho3 Si4 3.012039 1_655
Ho3 Si8 3.016227 1_655
Ho3 Si9 3.035187 1_555
Ho3 Si0 3.039470 1_665
Ho3 Si10 3.303419 1_655
Ho4 Si11 2.919211 1_555
Ho4 Si5 2.943548 1_555
Ho4 Si6 3.012192 1_555
Ho4 Si15 3.016200 1_545
Ho4 Si14 3.034970 1_554
Ho4 Si2 3.039669 1_555
Ho4 Si13 3.303237 1_554
Ho5 Si10 2.919303 1_545
Ho5 Si6 2.943435 1_555
Ho5 Si5 3.012074 1_455
Ho5 Si9 3.016264 1_455
Ho5 Si8 3.035284 1_555
Ho5 Si1 3.039595 1_445
Ho5 Si12 3.303456 1_455
Ho6 Si9 2.919297 1_555
Ho6 Si5 2.943435 1_555
Ho6 Si6 3.012079 1_555
Ho6 Si10 3.016265 1_545
Ho6 Si12 3.035286 1_555
Ho6 Si2 3.039596 1_555
Ho6 Si8 3.303456 1_555
Ho7 Si8 2.919273 1_555
Ho7 Si4 2.943368 1_555
Ho7 Si7 3.012039 1_555
Ho7 Si12 3.016229 1_565
Ho7 Si10 3.035188 1_555
Ho7 Si3 3.039469 1_555
Ho7 Si9 3.303419 1_555
Sc0 Si3 2.759229 1_555
Sc0 Si7 2.820451 1_455
Sc0 Si4 2.852273 1_555
Sc0 Si13 2.958683 1_555
Sc0 Si8 2.959587 1_555
Sc0 Si0 3.013840 1_555
Sc1 Si2 2.759293 1_555
Sc1 Si6 2.820387 1_655
Sc1 Si5 2.852388 1_555
Sc1 Si11 2.958816 1_555
Sc1 Si9 2.959713 1_555
Sc1 Si1 3.013606 1_555
Sc2 Si1 2.759294 1_445
Sc2 Si5 2.820386 1_555
Sc2 Si6 2.852395 1_555
Sc2 Si15 2.958816 1_545
Sc2 Si10 2.959714 1_545
Sc2 Si2 3.013603 1_545
Sc3 Si0 2.759230 1_665
Sc3 Si4 2.820450 1_555
Sc3 Si7 2.852273 1_555
Sc3 Si14 2.958684 1_565
Sc3 Si12 2.959588 1_565
Sc3 Si3 3.013844 1_565
Sc4 Si3 2.730315 1_555
Sc4 Si8 2.733242 1_555
Sc4 Si0 2.759038 1_555
Sc4 Si10 2.772817 1_545
Sc4 Si12 2.820797 1_555
Sc4 Si4 2.861376 1_545
Sc5 Si2 2.730126 1_555
Sc5 Si9 2.733291 1_555
Sc5 Si1 2.758977 1_555
Sc5 Si12 2.773014 1_565
Sc5 Si10 2.820910 1_555
Sc5 Si5 2.861339 1_565
Sc6 Si1 2.730115 1_455
Sc6 Si10 2.733300 1_555
Sc6 Si2 2.758980 1_555
Sc6 Si8 2.773021 1_555
Sc6 Si9 2.820904 1_455
Sc6 Si6 2.861333 1_555
Sc7 Si2 2.730398 1_555
Sc7 Si11 2.733004 1_555
Sc7 Si1 2.759259 1_555
Sc7 Si14 2.772368 1_564
Sc7 Si15 2.820624 1_555
Sc7 Si5 2.861634 1_565
Sc8 Si0 2.730311 1_655
Sc8 Si12 2.733247 1_555
Sc8 Si3 2.759036 1_555
Sc8 Si9 2.772822 1_555
Sc8 Si8 2.820797 1_655
Sc8 Si7 2.861366 1_555
Sc9 Si3 2.730573 1_555
Sc9 Si13 2.732955 1_555
Sc9 Si0 2.759314 1_555
Sc9 Si15 2.772178 1_546
Sc9 Si14 2.820516 1_555
Sc9 Si4 2.861696 1_545
Sc10 Si0 2.730578 1_655
Sc10 Si14 2.732954 1_555
Sc10 Si3 2.759312 1_555
Sc10 Si11 2.772178 1_556
Sc10 Si13 2.820515 1_655
Sc10 Si7 2.861693 1_555
Sc11 Si1 2.730398 1_455
Sc11 Si15 2.732997 1_555
Sc11 Si2 2.759259 1_555
Sc11 Si13 2.772370 1_554
Sc11 Si11 2.820627 1_455
Sc11 Si6 2.861637 1_555
Si0 Si4 2.525943 1_545
Si1 Si5 2.526074 1_565
Si2 Si6 2.526070 1_555
Si3 Si7 2.525940 1_555
Si8 Si9 2.537519 1_455
Si10 Si12 2.537517 1_565
Si11 Si13 2.537402 1_654
Si14 Si15 2.537401 1_546
