# generated using pymatgen
data_Yb(NO4)3
_symmetry_space_group_name_H-M   'P 1'
_cell_length_a   7.70748818
_cell_length_b   7.70748818
_cell_length_c   7.70748794
_cell_angle_alpha   98.68874363
_cell_angle_beta   98.68874363
_cell_angle_gamma   98.68874312
_symmetry_Int_Tables_number   1
_chemical_formula_structural   Yb(NO4)3
_chemical_formula_sum   'Yb2 N6 O24'
_cell_volume   440.27629832
_cell_formula_units_Z   2
loop_
 _symmetry_equiv_pos_site_id
 _symmetry_equiv_pos_as_xyz
  1  'x, y, z'
loop_
 _atom_site_type_symbol
 _atom_site_label
 _atom_site_symmetry_multiplicity
 _atom_site_fract_x
 _atom_site_fract_y
 _atom_site_fract_z
 _atom_site_occupancy
  Yb  Yb0  1  0.26061700  0.26061700  0.26061700  1
  Yb  Yb1  1  0.73938300  0.73938300  0.73938300  1
  N  N0  1  0.14942800  0.36504400  0.59956000  1
  N  N1  1  0.59956000  0.14942800  0.36504400  1
  N  N2  1  0.36504400  0.59956000  0.14942800  1
  N  N3  1  0.85057200  0.63495600  0.40044000  1
  N  N4  1  0.40044000  0.85057200  0.63495600  1
  N  N5  1  0.63495600  0.40044000  0.85057200  1
  O  O0  1  0.20140400  0.53302500  0.13166600  1
  O  O1  1  0.13166600  0.20140400  0.53302500  1
  O  O2  1  0.53302500  0.13166600  0.20140400  1
  O  O3  1  0.79859600  0.46697500  0.86833400  1
  O  O4  1  0.86833400  0.79859600  0.46697500  1
  O  O5  1  0.46697500  0.86833400  0.79859600  1
  O  O6  1  0.50189400  0.20155300  0.47738300  1
  O  O7  1  0.47738300  0.50189400  0.20155300  1
  O  O8  1  0.20155300  0.47738300  0.50189400  1
  O  O9  1  0.49810600  0.79844700  0.52261700  1
  O  O10  1  0.52261700  0.49810600  0.79844700  1
  O  O11  1  0.79844700  0.52261700  0.49810600  1
  O  O12  1  0.74940600  0.11862900  0.41857100  1
  O  O13  1  0.41857100  0.74940600  0.11862900  1
  O  O14  1  0.11862900  0.41857100  0.74940600  1
  O  O15  1  0.25059400  0.88137100  0.58142900  1
  O  O16  1  0.58142900  0.25059400  0.88137100  1
  O  O17  1  0.88137100  0.58142900  0.25059400  1
  O  O18  1  0.16032600  0.11417500  0.94968100  1
  O  O19  1  0.94968100  0.16032600  0.11417500  1
  O  O20  1  0.11417500  0.94968100  0.16032600  1
  O  O21  1  0.83967400  0.88582500  0.05031900  1
  O  O22  1  0.05031900  0.83967400  0.88582500  1
  O  O23  1  0.88582500  0.05031900  0.83967400  1
loop_
_geom_bond_atom_site_label_1
_geom_bond_atom_site_label_2
_geom_bond_distance
_geom_bond_site_symmetry_2
N0 O14 1.236485 1_555
N0 O1 1.266368 1_555
N0 O8 1.288777 1_555
N1 O12 1.236485 1_555
N1 O2 1.266367 1_555
N1 O6 1.288777 1_555
N2 O13 1.236485 1_555
N2 O0 1.266368 1_555
N2 O7 1.288777 1_555
N3 O17 1.236485 1_555
N3 O4 1.266368 1_555
N3 O11 1.288777 1_555
N4 O15 1.236485 1_555
N4 O5 1.266367 1_555
N4 O9 1.288777 1_555
N5 O16 1.236485 1_555
N5 O3 1.266368 1_555
N5 O10 1.288777 1_555
O0 Yb0 2.527307 1_555
O1 Yb0 2.527307 1_555
O2 Yb0 2.527307 1_555
O3 Yb1 2.527307 1_555
O4 Yb1 2.527307 1_555
O5 Yb1 2.527307 1_555
O6 Yb0 2.450239 1_555
O7 Yb0 2.450239 1_555
O8 Yb0 2.450239 1_555
O9 Yb1 2.450239 1_555
O10 Yb1 2.450239 1_555
O11 Yb1 2.450239 1_555
O18 Yb0 2.444237 1_556
O19 Yb0 2.444237 1_655
O20 Yb0 2.444237 1_565
O21 Yb1 2.444237 1_554
O22 Yb1 2.444237 1_455
O23 Yb1 2.444237 1_545
