# generated using pymatgen
data_Ca(ClO)2
_symmetry_space_group_name_H-M   'P 1'
_cell_length_a   9.30430914
_cell_length_b   9.30430914
_cell_length_c   6.88634100
_cell_angle_alpha   90.00000000
_cell_angle_beta   90.00000000
_cell_angle_gamma   137.38751769
_symmetry_Int_Tables_number   1
_chemical_formula_structural   Ca(ClO)2
_chemical_formula_sum   'Ca4 Cl8 O8'
_cell_volume   403.61635301
_cell_formula_units_Z   4
loop_
 _symmetry_equiv_pos_site_id
 _symmetry_equiv_pos_as_xyz
  1  'x, y, z'
loop_
 _atom_site_type_symbol
 _atom_site_label
 _atom_site_symmetry_multiplicity
 _atom_site_fract_x
 _atom_site_fract_y
 _atom_site_fract_z
 _atom_site_occupancy
  Ca  Ca0  1  0.75000000  0.25000000  0.75000000  1
  Ca  Ca1  1  0.25000000  0.75000000  0.75000000  1
  Ca  Ca2  1  0.75000000  0.25000000  0.25000000  1
  Ca  Ca3  1  0.25000000  0.75000000  0.25000000  1
  Cl  Cl0  1  0.10664400  0.28788700  0.15358800  1
  Cl  Cl1  1  0.89335600  0.71211300  0.15358800  1
  Cl  Cl2  1  0.71211300  0.89335600  0.84641200  1
  Cl  Cl3  1  0.39335600  0.21211300  0.34641200  1
  Cl  Cl4  1  0.28788700  0.10664400  0.84641200  1
  Cl  Cl5  1  0.60664400  0.78788700  0.34641200  1
  Cl  Cl6  1  0.78788700  0.60664400  0.65358800  1
  Cl  Cl7  1  0.21211300  0.39335600  0.65358800  1
  O  O0  1  0.06304500  0.42882900  0.07990600  1
  O  O1  1  0.93695500  0.57117100  0.07990600  1
  O  O2  1  0.57117100  0.93695500  0.92009400  1
  O  O3  1  0.43695500  0.07117100  0.42009400  1
  O  O4  1  0.42882900  0.06304500  0.92009400  1
  O  O5  1  0.56304500  0.92882900  0.42009400  1
  O  O6  1  0.92882900  0.56304500  0.57990600  1
  O  O7  1  0.07117100  0.43695500  0.57990600  1
loop_
_geom_bond_atom_site_label_1
_geom_bond_atom_site_label_2
_geom_bond_distance
_geom_bond_site_symmetry_2
Ca0 O6 2.343251 1_555
Ca0 O2 2.343251 1_545
Ca0 O4 2.382556 1_555
Ca0 O7 2.382556 1_655
Ca1 O4 2.343251 1_565
Ca1 O7 2.343251 1_555
Ca1 O2 2.382556 1_555
Ca1 O6 2.382556 1_455
Ca2 O0 2.343251 1_655
Ca2 O3 2.343251 1_555
Ca2 O1 2.382556 1_555
Ca2 O5 2.382556 1_545
Ca3 O1 2.343251 1_455
Ca3 O5 2.343251 1_555
Ca3 O0 2.382556 1_555
Ca3 O3 2.382556 1_565
Cl0 O0 1.710176 1_555
Cl1 O1 1.710176 1_555
Cl2 O2 1.710176 1_555
Cl3 O3 1.710176 1_555
Cl4 O4 1.710176 1_555
Cl5 O5 1.710176 1_555
Cl6 O6 1.710176 1_555
Cl7 O7 1.710176 1_555
