# generated using pymatgen
data_RbLu(WO4)2
_symmetry_space_group_name_H-M   'P 1'
_cell_length_a   7.42832165
_cell_length_b   7.42832165
_cell_length_c   7.46545524
_cell_angle_alpha   62.06612900
_cell_angle_beta   62.06612900
_cell_angle_gamma   87.82364046
_symmetry_Int_Tables_number   1
_chemical_formula_structural   RbLu(WO4)2
_chemical_formula_sum   'Rb2 Lu2 W4 O16'
_cell_volume   312.73277288
_cell_formula_units_Z   2
loop_
 _symmetry_equiv_pos_site_id
 _symmetry_equiv_pos_as_xyz
  1  'x, y, z'
loop_
 _atom_site_type_symbol
 _atom_site_label
 _atom_site_symmetry_multiplicity
 _atom_site_fract_x
 _atom_site_fract_y
 _atom_site_fract_z
 _atom_site_occupancy
  Rb  Rb0  1  0.19863018  0.80136982  0.75000000  1
  Rb  Rb1  1  0.80136982  0.19863018  0.25000000  1
  Lu  Lu0  1  0.77419202  0.22580798  0.75000000  1
  Lu  Lu1  1  0.22580798  0.77419202  0.25000000  1
  W  W0  1  0.69860893  0.69466506  0.77246393  1
  W  W1  1  0.30139107  0.30533494  0.22753607  1
  W  W2  1  0.30533494  0.30139107  0.72753607  1
  W  W3  1  0.69466506  0.69860893  0.27246393  1
  O  O0  1  0.61786804  0.76000428  0.55988865  1
  O  O1  1  0.38213196  0.23999572  0.44011135  1
  O  O2  1  0.23999572  0.38213196  0.94011135  1
  O  O3  1  0.76000428  0.61786804  0.05988865  1
  O  O4  1  0.36886172  0.05674645  0.88127813  1
  O  O5  1  0.63113828  0.94325355  0.11872187  1
  O  O6  1  0.94325355  0.63113828  0.61872187  1
  O  O7  1  0.05674645  0.36886172  0.38127813  1
  O  O8  1  0.59203412  0.37038572  0.96217810  1
  O  O9  1  0.40796588  0.62961428  0.03782190  1
  O  O10  1  0.62961428  0.40796588  0.53782190  1
  O  O11  1  0.37038572  0.59203412  0.46217810  1
  O  O12  1  0.78074234  0.95768511  0.69811641  1
  O  O13  1  0.21925766  0.04231489  0.30188359  1
  O  O14  1  0.04231489  0.21925766  0.80188359  1
  O  O15  1  0.95768511  0.78074234  0.19811641  1
loop_
_geom_bond_atom_site_label_1
_geom_bond_atom_site_label_2
_geom_bond_distance
_geom_bond_site_symmetry_2
Lu0 O12 2.194775 1_545
Lu0 O14 2.194775 1_655
Lu0 O8 2.229076 1_555
Lu0 O10 2.229076 1_555
Lu0 O5 2.264426 1_546
Lu0 O7 2.264426 1_655
Lu1 O15 2.194775 1_455
Lu1 O13 2.194775 1_565
Lu1 O9 2.229076 1_555
Lu1 O11 2.229076 1_555
Lu1 O6 2.264426 1_455
Lu1 O4 2.264426 1_564
O0 W0 1.806038 1_555
O0 W3 2.210869 1_555
O0 Rb0 2.828789 1_555
O0 Rb1 2.854286 1_565
O1 W1 1.806038 1_555
O1 W2 2.210869 1_555
O1 Rb1 2.828789 1_555
O1 Rb0 2.854286 1_545
O2 W2 1.806038 1_555
O2 W1 2.210869 1_556
O2 Rb0 2.828789 1_555
O2 Rb1 2.854286 1_456
O3 W3 1.806038 1_555
O3 W0 2.210869 1_554
O3 Rb1 2.828789 1_555
O3 Rb0 2.854286 1_654
O4 W2 1.825023 1_555
O4 Rb0 3.040298 1_545
O5 W3 1.825023 1_555
O5 Rb1 3.040298 1_565
O6 W0 1.825023 1_555
O6 Rb0 3.040298 1_655
O7 W1 1.825023 1_555
O7 Rb1 3.040298 1_455
O8 W1 1.998601 1_556
O8 W0 2.081624 1_555
O8 Rb1 3.012337 1_556
O9 W0 1.998601 1_554
O9 W1 2.081624 1_555
O9 Rb0 3.012337 1_554
O10 W3 1.998601 1_555
O10 W2 2.081624 1_555
O10 Rb1 3.012337 1_555
O11 W2 1.998601 1_555
O11 W3 2.081624 1_555
O11 Rb0 3.012337 1_555
O12 W0 1.804131 1_555
O12 Rb1 2.889515 1_565
O12 Rb0 3.400848 1_655
O13 W1 1.804131 1_555
O13 Rb0 2.889515 1_545
O13 Rb1 3.400848 1_455
O14 W2 1.804131 1_555
O14 Rb1 2.889515 1_456
O14 Rb0 3.400848 1_545
O15 W3 1.804131 1_555
O15 Rb0 2.889515 1_654
O15 Rb1 3.400848 1_565
