# generated using pymatgen
data_CaYb3Mn4O12
_symmetry_space_group_name_H-M   'P 1'
_cell_length_a   7.52266300
_cell_length_b   5.25183800
_cell_length_c   5.36431500
_cell_angle_alpha   89.99962617
_cell_angle_beta   90.00000000
_cell_angle_gamma   90.00000000
_symmetry_Int_Tables_number   1
_chemical_formula_structural   CaYb3Mn4O12
_chemical_formula_sum   'Ca1 Yb3 Mn4 O12'
_cell_volume   211.93232388
_cell_formula_units_Z   1
loop_
 _symmetry_equiv_pos_site_id
 _symmetry_equiv_pos_as_xyz
  1  'x, y, z'
loop_
 _atom_site_type_symbol
 _atom_site_label
 _atom_site_symmetry_multiplicity
 _atom_site_fract_x
 _atom_site_fract_y
 _atom_site_fract_z
 _atom_site_occupancy
  Ca  Ca0  1  0.50000000  0.99148700  0.54719600  1
  Yb  Yb0  1  0.50000000  0.51102100  0.05272800  1
  Yb  Yb1  1  0.00000000  0.01116500  0.44560200  1
  Yb  Yb2  1  0.00000000  0.48875100  0.94726800  1
  Mn  Mn0  1  0.75127000  0.49993700  0.50000700  1
  Mn  Mn1  1  0.24911900  0.99986100  0.99934700  1
  Mn  Mn2  1  0.24873000  0.49993700  0.50000700  1
  Mn  Mn3  1  0.75088100  0.99986100  0.99934700  1
  O  O0  1  0.28874700  0.69905400  0.79952400  1
  O  O1  1  0.71100500  0.79690300  0.29568800  1
  O  O2  1  0.79229000  0.29721500  0.20397000  1
  O  O3  1  0.20574500  0.20319000  0.70459800  1
  O  O4  1  0.20771000  0.29721500  0.20397000  1
  O  O5  1  0.79425500  0.20319000  0.70459800  1
  O  O6  1  0.71125300  0.69905400  0.79952400  1
  O  O7  1  0.28899500  0.79690300  0.29568800  1
  O  O8  1  0.50000000  0.08056100  0.98192600  1
  O  O9  1  0.50000000  0.42394600  0.47911800  1
  O  O10  1  0.00000000  0.91853100  0.01992500  1
  O  O11  1  0.00000000  0.58221500  0.51996700  1
loop_
_geom_bond_atom_site_label_1
_geom_bond_atom_site_label_2
_geom_bond_distance
_geom_bond_site_symmetry_2
Ca0 O9 2.300375 1_565
Ca0 O7 2.320384 1_555
Ca0 O1 2.320384 1_555
Ca0 O8 2.378489 1_565
Ca0 O6 2.591590 1_555
Ca0 O0 2.591590 1_555
Ca0 O3 2.617070 1_565
Ca0 O5 2.617070 1_565
Mn0 O11 1.923342 1_655
Mn0 O1 1.930134 1_555
Mn0 O5 1.933351 1_555
Mn0 O9 1.935139 1_555
Mn0 O2 1.936649 1_555
Mn0 O6 1.940539 1_555
Mn1 O10 1.925265 1_556
Mn1 O0 1.932259 1_555
Mn1 O4 1.934086 1_566
Mn1 O3 1.935642 1_565
Mn1 O8 1.936552 1_565
Mn1 O7 1.937305 1_556
Mn2 O11 1.923342 1_555
Mn2 O7 1.930134 1_555
Mn2 O3 1.933351 1_555
Mn2 O9 1.935139 1_555
Mn2 O4 1.936649 1_555
Mn2 O0 1.940539 1_555
Mn3 O10 1.925265 1_656
Mn3 O6 1.932259 1_555
Mn3 O2 1.934086 1_566
Mn3 O5 1.935642 1_565
Mn3 O8 1.936552 1_565
Mn3 O1 1.937305 1_556
O0 Yb0 2.312049 1_556
O0 Yb2 2.562461 1_555
O1 Yb0 2.544102 1_555
O1 Yb1 2.576681 1_665
O2 Yb2 2.312914 1_654
O2 Yb1 2.525561 1_655
O2 Yb0 2.598803 1_555
O3 Yb1 2.311459 1_555
O3 Yb2 2.517795 1_555
O4 Yb2 2.312914 1_554
O4 Yb1 2.525561 1_555
O4 Yb0 2.598803 1_555
O5 Yb1 2.311459 1_655
O5 Yb2 2.517795 1_655
O6 Yb0 2.312049 1_556
O6 Yb2 2.562461 1_655
O7 Yb0 2.544102 1_555
O7 Yb1 2.576681 1_565
O8 Yb0 2.292391 1_556
O9 Yb0 2.332554 1_555
O10 Yb2 2.290541 1_554
O10 Yb1 2.334718 1_565
O11 Yb1 2.287820 1_565
O11 Yb2 2.344142 1_555
