# generated using pymatgen
data_Sr4MgMn2(GaO5)2
_symmetry_space_group_name_H-M   'P 1'
_cell_length_a   5.94396256
_cell_length_b   5.96579235
_cell_length_c   9.62056136
_cell_angle_alpha   66.14289677
_cell_angle_beta   83.98463795
_cell_angle_gamma   100.32794215
_symmetry_Int_Tables_number   1
_chemical_formula_structural   Sr4MgMn2(GaO5)2
_chemical_formula_sum   'Sr4 Mg1 Mn2 Ga2 O10'
_cell_volume   300.92639875
_cell_formula_units_Z   1
loop_
 _symmetry_equiv_pos_site_id
 _symmetry_equiv_pos_as_xyz
  1  'x, y, z'
loop_
 _atom_site_type_symbol
 _atom_site_label
 _atom_site_symmetry_multiplicity
 _atom_site_fract_x
 _atom_site_fract_y
 _atom_site_fract_z
 _atom_site_occupancy
  Sr  Sr0  1  0.04424300  0.60775300  0.84782200  1
  Sr  Sr1  1  0.93930900  0.32081200  0.24043800  1
  Sr  Sr2  1  0.47649800  0.18471800  0.83749100  1
  Sr  Sr3  1  0.34601400  0.91594200  0.23748700  1
  Mg  Mg0  1  0.83654900  0.99645900  0.66604200  1
  Mn  Mn0  1  0.47740400  0.52852000  0.04228200  1
  Mn  Mn1  1  0.92671300  0.98070400  0.04432400  1
  Ga  Ga0  1  0.73745800  0.63518500  0.48455200  1
  Ga  Ga1  1  0.38341800  0.27697800  0.48275100  1
  O  O0  1  0.21856200  0.28291100  0.99923300  1
  O  O1  1  0.18965000  0.74845400  0.04678600  1
  O  O2  1  0.70611700  0.25969000  0.04524200  1
  O  O3  1  0.72959600  0.87307800  0.89666300  1
  O  O4  1  0.77059000  0.65751300  0.66420200  1
  O  O5  1  0.35588200  0.29606600  0.29128600  1
  O  O6  1  0.17943700  0.05943500  0.66083600  1
  O  O7  1  0.91140900  0.85869400  0.29428100  1
  O  O8  1  0.41805800  0.60106000  0.47690700  1
  O  O9  1  0.71023500  0.27317100  0.51994700  1
loop_
_geom_bond_atom_site_label_1
_geom_bond_atom_site_label_2
_geom_bond_distance
_geom_bond_site_symmetry_2
Mg0 O6 1.996595 1_665
Mg0 O4 1.997244 1_555
Mg0 O9 2.013223 1_565
Mg0 O3 2.020923 1_555
Mn0 O0 2.121725 1_554
Mn0 O3 2.135551 1_554
Mn0 O5 2.185053 1_555
Mn0 O2 2.274645 1_555
Mn0 O1 2.341802 1_555
Mn1 O0 2.129826 1_664
Mn1 O3 2.149423 1_554
Mn1 O7 2.198936 1_555
Mn1 O1 2.262877 1_655
Mn1 O2 2.298145 1_565
Ga0 O4 1.814339 1_555
Ga0 O7 1.825480 1_555
Ga0 O8 1.885194 1_555
Ga0 O9 2.018588 1_555
Ga1 O6 1.814240 1_555
Ga1 O5 1.825628 1_555
Ga1 O8 1.884282 1_555
Ga1 O9 2.014239 1_555
O0 Sr2 2.382101 1_555
O0 Sr0 2.388283 1_555
O0 Sr3 2.742280 1_546
O0 Sr1 2.818306 1_456
O1 Sr1 2.531171 1_455
O1 Sr0 2.549872 1_554
O1 Sr3 2.595274 1_555
O1 Sr2 2.680557 1_564
O2 Sr0 2.543955 1_654
O2 Sr1 2.549297 1_555
O2 Sr3 2.595369 1_545
O2 Sr2 2.670872 1_554
O3 Sr2 2.523906 1_565
O3 Sr0 2.775435 1_655
O4 Sr0 2.491122 1_655
O4 Sr2 2.758324 1_555
O5 Sr3 2.514377 1_545
O5 Sr1 2.592039 1_455
O6 Sr0 2.478381 1_545
O6 Sr2 2.783528 1_555
O7 Sr3 2.515029 1_655
O7 Sr1 2.561093 1_565
O8 Sr3 2.452090 1_555
O9 Sr1 2.764285 1_555
O9 Sr2 3.014123 1_555
