# generated using pymatgen
data_Li9Mn2Co5O16
_symmetry_space_group_name_H-M   'P 1'
_cell_length_a   2.96755300
_cell_length_b   5.05730776
_cell_length_c   19.30438180
_cell_angle_alpha   93.60143155
_cell_angle_beta   91.65957452
_cell_angle_gamma   91.79359721
_symmetry_Int_Tables_number   1
_chemical_formula_structural   Li9Mn2Co5O16
_chemical_formula_sum   'Li9 Mn2 Co5 O16'
_cell_volume   288.86412000
_cell_formula_units_Z   1
loop_
 _symmetry_equiv_pos_site_id
 _symmetry_equiv_pos_as_xyz
  1  'x, y, z'
loop_
 _atom_site_type_symbol
 _atom_site_label
 _atom_site_symmetry_multiplicity
 _atom_site_fract_x
 _atom_site_fract_y
 _atom_site_fract_z
 _atom_site_occupancy
  Li  Li0  1  0.00011300  0.36660300  0.13099400  1
  Li  Li1  1  0.51133000  0.62444700  0.37130700  1
  Li  Li2  1  0.00275800  0.87140900  0.62328600  1
  Li  Li3  1  0.50035300  0.12320200  0.87458200  1
  Li  Li4  1  0.48834800  0.87837100  0.13245700  1
  Li  Li5  1  0.99517300  0.13509000  0.37113700  1
  Li  Li6  1  0.50098900  0.37583500  0.62159900  1
  Li  Li7  1  0.99919000  0.62791800  0.87482400  1
  Li  Li8  1  0.50031600  0.24920100  0.25027000  1
  Mn  Mn0  1  0.99897300  0.99946300  0.00186800  1
  Mn  Mn1  1  0.00007900  0.24992800  0.74907400  1
  Co  Co0  1  0.00074300  0.50041900  0.49830800  1
  Co  Co1  1  0.50007500  0.75005000  0.74926500  1
  Co  Co2  1  0.49860900  0.49997500  0.00150000  1
  Co  Co3  1  0.00083200  0.74842100  0.25096400  1
  Co  Co4  1  0.50115900  0.00033700  0.49853800  1
  O  O0  1  0.46200900  0.18428900  0.06163100  1
  O  O1  1  0.99863400  0.47801400  0.30553000  1
  O  O2  1  0.45981800  0.68836300  0.55603600  1
  O  O3  1  0.00739500  0.94245500  0.80675100  1
  O  O4  1  0.99062900  0.68016100  0.05667500  1
  O  O5  1  0.51731500  0.91599300  0.30456500  1
  O  O6  1  0.00421300  0.19657300  0.55444700  1
  O  O7  1  0.46002000  0.44733200  0.80888400  1
  O  O8  1  0.48446200  0.58327100  0.19632100  1
  O  O9  1  0.99569700  0.80720600  0.44410500  1
  O  O10  1  0.54091400  0.05228300  0.69032400  1
  O  O11  1  0.00991800  0.31483600  0.94445000  1
  O  O12  1  0.00272800  0.02187100  0.19516500  1
  O  O13  1  0.53918200  0.31082000  0.44056500  1
  O  O14  1  0.99116100  0.55908300  0.69276600  1
  O  O15  1  0.53686600  0.81678200  0.94181300  1
loop_
_geom_bond_atom_site_label_1
_geom_bond_atom_site_label_2
_geom_bond_distance
_geom_bond_site_symmetry_2
Li0 O8 2.116551 1_555
Li0 O0 2.133589 1_555
Li0 O0 2.195879 1_455
Li0 O12 2.201308 1_555
Li0 O4 2.204543 1_455
Li0 O8 2.275030 1_455
Li1 O5 2.018077 1_555
Li1 O1 2.043288 1_455
Li1 O1 2.075390 1_555
Li1 O9 2.128832 1_555
Li1 O13 2.139699 1_555
Li1 O9 2.284845 1_455
Li2 O2 2.100387 1_555
Li2 O10 2.102949 1_465
Li2 O14 2.135539 1_455
Li2 O10 2.168424 1_565
Li2 O6 2.178219 1_565
Li2 O2 2.184675 1_455
Li3 O3 2.084507 1_545
Li3 O15 2.086300 1_545
Li3 O7 2.138817 1_555
Li3 O11 2.161237 1_655
Li3 O3 2.205466 1_645
Li3 O11 2.216832 1_555
Li4 O8 1.994556 1_555
Li4 O12 2.008827 1_665
Li4 O12 2.031010 1_565
Li4 O0 2.129836 1_565
Li4 O4 2.219112 1_455
Li4 O4 2.324285 1_555
Li5 O13 2.109007 1_555
Li5 O5 2.123070 1_545
Li5 O13 2.197172 1_655
Li5 O1 2.210750 1_555
Li5 O9 2.242165 1_545
Li5 O5 2.307409 1_645
Li6 O6 2.081743 1_555
Li6 O2 2.090309 1_555
Li6 O14 2.121810 1_555
Li6 O10 2.174258 1_555
Li6 O6 2.186702 1_655
Li6 O14 2.254656 1_455
Li7 O7 2.087475 1_655
Li7 O15 2.120505 1_555
Li7 O3 2.125999 1_655
Li7 O11 2.140707 1_655
Li7 O7 2.158469 1_555
Li7 O15 2.181836 1_655
Li8 O8 2.040690 1_555
Li8 O5 2.040823 1_545
Li8 O12 2.069509 1_555
Li8 O1 2.076119 1_555
Li8 O12 2.172962 1_655
Li8 O1 2.176744 1_455
Mn0 O15 1.942206 1_554
Mn0 O0 1.945535 1_665
Mn0 O4 1.985263 1_555
Mn0 O11 1.998604 1_664
Mn0 O0 2.192735 1_565
Mn0 O15 2.193275 1_654
Mn1 O10 1.955720 1_455
Mn1 O14 1.959896 1_455
Mn1 O7 1.967567 1_555
Mn1 O3 1.968852 1_545
Mn1 O10 2.219162 1_555
Mn1 O7 2.227281 1_455
Co0 O2 1.923331 1_555
Co0 O9 1.925302 1_455
Co0 O13 1.932129 1_455
Co0 O6 1.935304 1_555
Co0 O13 2.186289 1_555
Co0 O2 2.188178 1_455
Co1 O10 1.964808 1_565
Co1 O7 1.974938 1_555
Co1 O14 2.020905 1_455
Co1 O3 2.029958 1_655
Co1 O14 2.072181 1_555
Co1 O3 2.088853 1_555
Co2 O4 1.949729 1_555
Co2 O11 1.971201 1_554
Co2 O15 2.033625 1_554
Co2 O0 2.034056 1_555
Co2 O4 2.072281 1_455
Co2 O11 2.109040 1_654
Co3 O1 1.777799 1_455
Co3 O12 1.805490 1_565
Co3 O5 1.963333 1_555
Co3 O8 1.968242 1_455
Co3 O5 1.974753 1_455
Co3 O8 1.980435 1_555
Co4 O13 1.986891 1_555
Co4 O2 1.987999 1_545
Co4 O9 1.999042 1_445
Co4 O6 2.014376 1_655
Co4 O9 2.064467 1_545
Co4 O6 2.091362 1_555
