# generated using pymatgen
data_NaLa(WO4)2
_symmetry_space_group_name_H-M   'P 1'
_cell_length_a   6.90297901
_cell_length_b   6.90297901
_cell_length_c   6.90297901
_cell_angle_alpha   134.28056979
_cell_angle_beta   134.28056979
_cell_angle_gamma   66.65011047
_symmetry_Int_Tables_number   1
_chemical_formula_structural   NaLa(WO4)2
_chemical_formula_sum   'Na1 La1 W2 O8'
_cell_volume   165.91275902
_cell_formula_units_Z   1
loop_
 _symmetry_equiv_pos_site_id
 _symmetry_equiv_pos_as_xyz
  1  'x, y, z'
loop_
 _atom_site_type_symbol
 _atom_site_label
 _atom_site_symmetry_multiplicity
 _atom_site_fract_x
 _atom_site_fract_y
 _atom_site_fract_z
 _atom_site_occupancy
  Na  Na0  1  -0.00000000  -0.00000000  -0.00000000  1
  La  La0  1  0.25000000  0.75000000  0.50000000  1
  W  W0  1  0.75000000  0.25000000  0.50000000  1
  W  W1  1  0.50000000  0.50000000  -0.00000000  1
  O  O0  1  0.98559742  0.09602621  0.41345384  1
  O  O1  1  0.68257237  0.57214358  0.58654616  1
  O  O2  1  0.82258839  0.73399254  0.38200725  1
  O  O3  1  0.35198529  0.44058114  0.61799275  1
  O  O4  1  0.26600746  0.64801471  0.08859585  1
  O  O5  1  0.55941886  0.17741161  0.91140415  1
  O  O6  1  0.42785642  0.01440258  0.11042880  1
  O  O7  1  0.90397379  0.31742763  0.88957120  1
loop_
_geom_bond_atom_site_label_1
_geom_bond_atom_site_label_2
_geom_bond_distance
_geom_bond_site_symmetry_2
Na0 O6 2.509429 1_555
Na0 O1 2.509429 1_444
Na0 O0 2.509429 1_455
Na0 O7 2.509429 1_454
Na0 O4 2.572868 1_545
Na0 O3 2.572868 1_555
Na0 O2 2.572868 1_444
Na0 O5 2.572868 1_454
La0 O2 2.481479 1_455
La0 O5 2.481479 1_565
La0 O3 2.481479 1_555
La0 O4 2.481479 1_555
La0 O0 2.531368 1_465
La0 O1 2.531368 1_555
La0 O7 2.531368 1_454
La0 O6 2.531368 1_566
O0 W0 1.797599 1_555
O1 W0 1.797599 1_555
O2 W1 1.795997 1_555
O3 W1 1.795997 1_556
O4 W1 1.795997 1_555
O5 W1 1.795997 1_556
O6 W0 1.797599 1_555
O7 W0 1.797598 1_555
