# generated using pymatgen
data_TbB4W
_symmetry_space_group_name_H-M   'P 1'
_cell_length_a   6.03841645
_cell_length_b   11.66934922
_cell_length_c   3.62914296
_cell_angle_alpha   90.00000000
_cell_angle_beta   90.00000000
_cell_angle_gamma   90.00000000
_symmetry_Int_Tables_number   1
_chemical_formula_structural   TbB4W
_chemical_formula_sum   'Tb4 B16 W4'
_cell_volume   255.72534595
_cell_formula_units_Z   4
loop_
 _symmetry_equiv_pos_site_id
 _symmetry_equiv_pos_as_xyz
  1  'x, y, z'
loop_
 _atom_site_type_symbol
 _atom_site_label
 _atom_site_symmetry_multiplicity
 _atom_site_fract_x
 _atom_site_fract_y
 _atom_site_fract_z
 _atom_site_occupancy
  Tb  Tb0  1  0.62719500  0.35051520  0.00000000  1
  Tb  Tb1  1  0.37280500  0.64948480  0.00000000  1
  Tb  Tb2  1  0.12719500  0.14948480  -0.00000000  1
  Tb  Tb3  1  0.87280500  0.85051520  0.00000000  1
  B  B0  1  0.78580421  0.18608880  0.50000000  1
  B  B1  1  0.21419579  0.81391120  0.50000000  1
  B  B2  1  0.28580421  0.31391120  0.50000000  1
  B  B3  1  0.71419579  0.68608880  0.50000000  1
  B  B4  1  0.86567747  0.03203214  0.50000000  1
  B  B5  1  0.13432253  0.96796786  0.50000000  1
  B  B6  1  0.36567747  0.46796786  0.50000000  1
  B  B7  1  0.63432253  0.53203214  0.50000000  1
  B  B8  1  0.88651754  0.45290952  0.50000000  1
  B  B9  1  0.11348246  0.54709048  0.50000000  1
  B  B10  1  0.38651754  0.04709048  0.50000000  1
  B  B11  1  0.61348246  0.95290952  0.50000000  1
  B  B12  1  0.97597124  0.30724535  0.50000000  1
  B  B13  1  0.02402876  0.69275465  0.50000000  1
  B  B14  1  0.47597124  0.19275465  0.50000000  1
  B  B15  1  0.52402876  0.80724535  0.50000000  1
  W  W0  1  0.62985423  0.08391852  0.00000000  1
  W  W1  1  0.37014577  0.91608148  0.00000000  1
  W  W2  1  0.12985423  0.41608148  -0.00000000  1
  W  W3  1  0.87014577  0.58391852  -0.00000000  1
loop_
_geom_bond_atom_site_label_1
_geom_bond_atom_site_label_2
_geom_bond_distance
_geom_bond_site_symmetry_2
Tb0 W3 3.093631 1_555
Tb0 W2 3.099083 1_555
Tb0 W0 3.111051 1_555
Tb0 W2 3.130214 1_655
Tb1 W2 3.093631 1_555
Tb1 W3 3.099083 1_555
Tb1 W1 3.111051 1_555
Tb1 W3 3.130214 1_455
Tb2 W1 3.093631 1_545
Tb2 W0 3.099083 1_455
Tb2 W2 3.111051 1_555
Tb2 W0 3.130214 1_555
Tb3 W0 3.093631 1_565
Tb3 W1 3.099083 1_655
Tb3 W3 3.111051 1_555
Tb3 W1 3.130214 1_555
B0 B12 1.821398 1_555
B0 B4 1.861315 1_555
B0 B14 1.872517 1_555
B0 W0 2.366630 1_555
B0 W0 2.366630 1_556
B0 Tb2 2.779341 1_655
B0 Tb2 2.779341 1_656
B0 Tb0 2.809190 1_555
B0 Tb0 2.809190 1_556
B1 B13 1.821398 1_555
B1 B5 1.861315 1_555
B1 B15 1.872517 1_555
B1 W1 2.366630 1_556
B1 W1 2.366630 1_555
B1 Tb3 2.779341 1_456
B1 Tb3 2.779341 1_455
B1 Tb1 2.809190 1_555
B1 Tb1 2.809190 1_556
B2 B6 1.861315 1_555
B2 W2 2.366630 1_555
B2 W2 2.366630 1_556
B2 Tb0 2.779341 1_555
B2 Tb0 2.779341 1_556
B2 Tb2 2.809190 1_555
B2 Tb2 2.809190 1_556
B3 B7 1.861315 1_555
B3 W3 2.366630 1_555
B3 W3 2.366630 1_556
B3 Tb1 2.779341 1_555
B3 Tb1 2.779341 1_556
B3 Tb3 2.809190 1_555
B3 Tb3 2.809190 1_556
B4 B5 1.786167 1_645
B4 W0 2.384753 1_556
B4 W0 2.384753 1_555
B4 Tb2 2.768560 1_655
B4 Tb2 2.768560 1_656
B4 Tb3 2.789485 1_546
B4 Tb3 2.789485 1_545
B5 W1 2.384753 1_556
B5 W1 2.384753 1_555
B5 Tb3 2.768560 1_456
B5 Tb3 2.768560 1_455
B5 Tb2 2.789485 1_566
B5 Tb2 2.789485 1_565
B6 B9 1.780898 1_555
B6 B7 1.786167 1_555
B6 W2 2.384753 1_555
B6 W2 2.384753 1_556
B6 Tb0 2.768560 1_555
B6 Tb0 2.768560 1_556
B6 Tb1 2.789485 1_556
B6 Tb1 2.789485 1_555
B7 B8 1.780898 1_555
B7 W3 2.384753 1_555
B7 W3 2.384753 1_556
B7 Tb1 2.768560 1_555
B7 Tb1 2.768560 1_556
B7 Tb0 2.789485 1_555
B7 Tb0 2.789485 1_556
B8 B9 1.756748 1_655
B8 W2 2.374112 1_656
B8 W2 2.374112 1_655
B8 W3 2.374793 1_556
B8 W3 2.374793 1_555
B8 Tb0 2.678139 1_555
B8 Tb0 2.678139 1_556
B9 W3 2.374112 1_455
B9 W3 2.374112 1_456
B9 W2 2.374793 1_555
B9 W2 2.374793 1_556
B9 Tb1 2.678139 1_555
B9 Tb1 2.678139 1_556
B10 B11 1.756748 1_545
B10 B5 1.780898 1_545
B10 B14 1.783567 1_555
B10 W0 2.374112 1_555
B10 W0 2.374112 1_556
B10 W1 2.374793 1_545
B10 W1 2.374793 1_546
B10 Tb2 2.678139 1_555
B10 Tb2 2.678139 1_556
B11 B4 1.780898 1_565
B11 B15 1.783567 1_555
B11 W1 2.374112 1_556
B11 W1 2.374112 1_555
B11 W0 2.374793 1_566
B11 W0 2.374793 1_565
B11 Tb3 2.678139 1_555
B11 Tb3 2.678139 1_556
B12 B8 1.783567 1_555
B12 B2 1.872517 1_655
B12 W2 2.401899 1_655
B12 W2 2.401899 1_656
B12 Tb2 2.741471 1_655
B12 Tb2 2.741471 1_656
B12 Tb0 2.825438 1_555
B12 Tb0 2.825438 1_556
B13 B9 1.783567 1_555
B13 B3 1.872517 1_455
B13 W3 2.401899 1_455
B13 W3 2.401899 1_456
B13 Tb3 2.741471 1_455
B13 Tb3 2.741471 1_456
B13 Tb1 2.825438 1_555
B13 Tb1 2.825438 1_556
B14 B2 1.821398 1_555
B14 W0 2.401899 1_555
B14 W0 2.401899 1_556
B14 Tb0 2.741471 1_555
B14 Tb0 2.741471 1_556
B14 Tb2 2.825438 1_555
B14 Tb2 2.825438 1_556
B15 B3 1.821398 1_555
B15 W1 2.401899 1_556
B15 W1 2.401899 1_555
B15 Tb1 2.741471 1_555
B15 Tb1 2.741471 1_556
B15 Tb3 2.825438 1_556
B15 Tb3 2.825438 1_555
