# generated using pymatgen
data_Yb15C19
_symmetry_space_group_name_H-M   'P 1'
_cell_length_a   8.19488300
_cell_length_b   8.19488300
_cell_length_c   15.98227400
_cell_angle_alpha   90.00000000
_cell_angle_beta   90.00000000
_cell_angle_gamma   90.00000000
_symmetry_Int_Tables_number   1
_chemical_formula_structural   Yb15C19
_chemical_formula_sum   'Yb30 C38'
_cell_volume   1073.30730898
_cell_formula_units_Z   2
loop_
 _symmetry_equiv_pos_site_id
 _symmetry_equiv_pos_as_xyz
  1  'x, y, z'
loop_
 _atom_site_type_symbol
 _atom_site_label
 _atom_site_symmetry_multiplicity
 _atom_site_fract_x
 _atom_site_fract_y
 _atom_site_fract_z
 _atom_site_occupancy
  Yb  Yb0  1  0.70224400  0.90490800  0.49935900  1
  Yb  Yb1  1  0.20224400  0.59509200  0.00064100  1
  Yb  Yb2  1  0.29775600  0.09509200  0.49935900  1
  Yb  Yb3  1  0.79775600  0.40490800  0.00064100  1
  Yb  Yb4  1  0.90490800  0.29775600  0.50064100  1
  Yb  Yb5  1  0.59509200  0.79775600  0.99935900  1
  Yb  Yb6  1  0.09509200  0.70224400  0.50064100  1
  Yb  Yb7  1  0.40490800  0.20224400  0.99935900  1
  Yb  Yb8  1  0.79514100  0.60379200  0.66336900  1
  Yb  Yb9  1  0.29514100  0.89620800  0.83663100  1
  Yb  Yb10  1  0.20485900  0.39620800  0.66336900  1
  Yb  Yb11  1  0.70485900  0.10379200  0.83663100  1
  Yb  Yb12  1  0.60379200  0.20485900  0.33663100  1
  Yb  Yb13  1  0.89620800  0.70485900  0.16336900  1
  Yb  Yb14  1  0.39620800  0.79514100  0.33663100  1
  Yb  Yb15  1  0.10379200  0.29514100  0.16336900  1
  Yb  Yb16  1  0.59874800  0.21183700  0.65007600  1
  Yb  Yb17  1  0.09874800  0.28816300  0.84992400  1
  Yb  Yb18  1  0.40125200  0.78816300  0.65007600  1
  Yb  Yb19  1  0.90125200  0.71183700  0.84992400  1
  Yb  Yb20  1  0.21183700  0.40125200  0.34992400  1
  Yb  Yb21  1  0.28816300  0.90125200  0.15007600  1
  Yb  Yb22  1  0.78816300  0.59874800  0.34992400  1
  Yb  Yb23  1  0.71183700  0.09874800  0.15007600  1
  Yb  Yb24  1  0.00000000  0.00000000  0.33142600  1
  Yb  Yb25  1  0.50000000  0.50000000  0.16857400  1
  Yb  Yb26  1  0.00000000  0.00000000  0.66857400  1
  Yb  Yb27  1  0.50000000  0.50000000  0.83142600  1
  Yb  Yb28  1  0.50000000  0.50000000  0.50000000  1
  Yb  Yb29  1  0.00000000  0.00000000  0.00000000  1
  C  C0  1  0.59679800  0.20037200  0.49243300  1
  C  C1  1  0.09679800  0.29962800  0.00756700  1
  C  C2  1  0.40320200  0.79962800  0.49243300  1
  C  C3  1  0.90320200  0.70037200  0.00756700  1
  C  C4  1  0.20037200  0.40320200  0.50756700  1
  C  C5  1  0.29962800  0.90320200  0.99243300  1
  C  C6  1  0.79962800  0.59679800  0.50756700  1
  C  C7  1  0.70037200  0.09679800  0.99243300  1
  C  C8  1  0.70091800  0.91728800  0.66089700  1
  C  C9  1  0.20091800  0.58271200  0.83910300  1
  C  C10  1  0.29908200  0.08271200  0.66089700  1
  C  C11  1  0.79908200  0.41728800  0.83910300  1
  C  C12  1  0.91728800  0.29908200  0.33910300  1
  C  C13  1  0.58271200  0.79908200  0.16089700  1
  C  C14  1  0.08271200  0.70091800  0.33910300  1
  C  C15  1  0.41728800  0.20091800  0.16089700  1
  C  C16  1  0.65721000  0.85856300  0.73494200  1
  C  C17  1  0.15721000  0.64143700  0.76505800  1
  C  C18  1  0.34279000  0.14143700  0.73494200  1
  C  C19  1  0.84279000  0.35856300  0.76505800  1
  C  C20  1  0.85856300  0.34279000  0.26505800  1
  C  C21  1  0.64143700  0.84279000  0.23494200  1
  C  C22  1  0.14143700  0.65721000  0.26505800  1
  C  C23  1  0.35856300  0.15721000  0.23494200  1
  C  C24  1  0.90011600  0.29214100  0.69469800  1
  C  C25  1  0.40011600  0.20785900  0.80530200  1
  C  C26  1  0.09988400  0.70785900  0.69469800  1
  C  C27  1  0.59988400  0.79214100  0.80530200  1
  C  C28  1  0.29214100  0.09988400  0.30530200  1
  C  C29  1  0.20785900  0.59988400  0.19469800  1
  C  C30  1  0.70785900  0.90011600  0.30530200  1
  C  C31  1  0.79214100  0.40011600  0.19469800  1
  C  C32  1  0.50000000  0.50000000  0.65976700  1
  C  C33  1  0.00000000  0.00000000  0.84023300  1
  C  C34  1  0.50000000  0.50000000  0.34023300  1
  C  C35  1  0.00000000  0.00000000  0.15976700  1
  C  C36  1  0.50000000  0.50000000  0.00000000  1
  C  C37  1  0.00000000  0.00000000  0.50000000  1
loop_
_geom_bond_atom_site_label_1
_geom_bond_atom_site_label_2
_geom_bond_distance
_geom_bond_site_symmetry_2
C0 Yb12 2.491001 1_555
C0 Yb16 2.521295 1_555
C0 Yb0 2.573249 1_545
C0 Yb28 2.583203 1_555
C0 Yb2 2.600406 1_555
C0 Yb4 2.651291 1_555
C1 Yb15 2.491001 1_555
C1 Yb17 2.521295 1_554
C1 Yb1 2.573249 1_555
C1 Yb29 2.583203 1_555
C1 Yb3 2.600406 1_455
C1 Yb7 2.651291 1_554
C2 Yb14 2.491001 1_555
C2 Yb18 2.521295 1_555
C2 Yb2 2.573249 1_565
C2 Yb28 2.583203 1_555
C2 Yb0 2.600406 1_555
C2 Yb6 2.651291 1_555
C3 Yb13 2.491001 1_555
C3 Yb19 2.521295 1_554
C3 Yb3 2.573249 1_555
C3 Yb29 2.583203 1_665
C3 Yb1 2.600406 1_655
C3 Yb5 2.651291 1_554
C4 Yb10 2.491001 1_555
C4 Yb20 2.521295 1_555
C4 Yb4 2.573249 1_455
C4 Yb28 2.583203 1_555
C4 Yb6 2.600406 1_555
C4 Yb2 2.651291 1_555
C5 Yb9 2.491001 1_555
C5 Yb21 2.521295 1_556
C5 Yb5 2.573249 1_555
C5 Yb29 2.583203 1_566
C5 Yb7 2.600406 1_565
C5 Yb1 2.651291 1_556
C6 Yb8 2.491001 1_555
C6 Yb22 2.521295 1_555
C6 Yb6 2.573249 1_655
C6 Yb28 2.583203 1_555
C6 Yb4 2.600406 1_555
C6 Yb0 2.651291 1_555
C7 Yb11 2.491001 1_555
C7 Yb23 2.521295 1_556
C7 Yb7 2.573249 1_555
C7 Yb29 2.583203 1_656
C7 Yb5 2.600406 1_545
C7 Yb3 2.651291 1_556
C8 Yb26 2.545900 1_665
C8 Yb16 2.560730 1_565
C8 Yb0 2.583760 1_555
C8 Yb18 2.679593 1_555
C8 Yb8 2.682882 1_555
C9 Yb27 2.545900 1_555
C9 Yb17 2.560730 1_555
C9 Yb1 2.583760 1_556
C9 Yb19 2.679593 1_455
C9 Yb9 2.682882 1_555
C10 C18 1.326779 1_555
C10 Yb26 2.545900 1_555
C10 Yb18 2.560730 1_545
C10 Yb2 2.583760 1_555
C10 Yb16 2.679593 1_555
C10 Yb10 2.682882 1_555
C11 C19 1.326779 1_555
C11 Yb27 2.545900 1_555
C11 Yb19 2.560730 1_555
C11 Yb3 2.583760 1_556
C11 Yb17 2.679593 1_655
C11 Yb11 2.682882 1_555
C12 C20 1.326779 1_555
C12 Yb24 2.545900 1_655
C12 Yb20 2.560730 1_655
C12 Yb4 2.583760 1_555
C12 Yb22 2.679593 1_555
C12 Yb12 2.682882 1_555
C13 C21 1.326779 1_555
C13 Yb25 2.545900 1_555
C13 Yb21 2.560730 1_555
C13 Yb5 2.583760 1_554
C13 Yb23 2.679593 1_565
C13 Yb13 2.682882 1_555
C14 C22 1.326779 1_555
C14 Yb24 2.545900 1_565
C14 Yb22 2.560730 1_455
C14 Yb6 2.583760 1_555
C14 Yb20 2.679593 1_555
C14 Yb14 2.682882 1_555
C15 C23 1.326779 1_555
C15 Yb25 2.545900 1_555
C15 Yb23 2.560730 1_555
C15 Yb7 2.583760 1_554
C15 Yb21 2.679593 1_545
C15 Yb15 2.682882 1_555
C16 C8 1.326779 1_555
C16 C27 1.334731 1_555
C16 Yb18 2.563635 1_555
C16 Yb11 2.613886 1_565
C16 Yb8 2.635362 1_555
C17 C9 1.326779 1_555
C17 C26 1.334731 1_555
C17 Yb19 2.563635 1_455
C17 Yb10 2.613886 1_555
C17 Yb9 2.635362 1_555
C18 C25 1.334731 1_555
C18 Yb16 2.563635 1_555
C18 Yb9 2.613886 1_545
C18 Yb10 2.635362 1_555
C19 C24 1.334731 1_555
C19 Yb17 2.563635 1_655
C19 Yb8 2.613886 1_555
C19 Yb11 2.635362 1_555
C20 C31 1.334731 1_555
C20 Yb22 2.563635 1_555
C20 Yb15 2.613886 1_655
C20 Yb12 2.635362 1_555
C21 C30 1.334731 1_555
C21 Yb23 2.563635 1_565
C21 Yb14 2.613886 1_555
C21 Yb13 2.635362 1_555
C22 C29 1.334731 1_555
C22 Yb20 2.563635 1_555
C22 Yb13 2.613886 1_455
C22 Yb14 2.635362 1_555
C23 C28 1.334731 1_555
C23 Yb21 2.563635 1_545
C23 Yb12 2.613886 1_555
C23 Yb15 2.635362 1_555
C24 Yb26 2.564343 1_655
C24 Yb16 2.653482 1_555
C24 Yb10 2.686015 1_655
C24 Yb8 2.741055 1_555
C24 Yb4 3.102062 1_555
C25 Yb27 2.564343 1_555
C25 Yb17 2.653482 1_555
C25 Yb11 2.686015 1_555
C25 Yb9 2.741055 1_545
C25 Yb7 3.102062 1_555
C26 Yb26 2.564343 1_565
C26 Yb18 2.653482 1_555
C26 Yb8 2.686015 1_455
C26 Yb10 2.741055 1_555
C26 Yb6 3.102062 1_555
C27 Yb27 2.564343 1_555
C27 Yb19 2.653482 1_555
C27 Yb9 2.686015 1_555
C27 Yb11 2.741055 1_565
C27 Yb5 3.102062 1_555
C28 Yb24 2.564343 1_555
C28 Yb20 2.653482 1_555
C28 Yb14 2.686015 1_545
C28 Yb12 2.741055 1_555
C28 Yb2 3.102062 1_555
C29 Yb25 2.564343 1_555
C29 Yb21 2.653482 1_555
C29 Yb15 2.686015 1_555
C29 Yb13 2.741055 1_455
C29 Yb1 3.102062 1_555
C30 Yb24 2.564343 1_665
C30 Yb22 2.653482 1_555
C30 Yb12 2.686015 1_565
C30 Yb14 2.741055 1_555
C30 Yb0 3.102062 1_555
C31 Yb25 2.564343 1_555
C31 Yb23 2.653482 1_555
C31 Yb13 2.686015 1_555
C31 Yb15 2.741055 1_655
C31 Yb3 3.102062 1_555
C32 Yb18 2.501068 1_555
C32 Yb16 2.501068 1_555
C32 Yb28 2.553440 1_555
C32 Yb10 2.564492 1_555
C32 Yb8 2.564492 1_555
C32 Yb27 2.743501 1_555
C33 Yb19 2.501068 1_445
C33 Yb17 2.501068 1_555
C33 Yb29 2.553440 1_556
C33 Yb9 2.564492 1_545
C33 Yb11 2.564492 1_455
C33 Yb26 2.743501 1_555
C34 Yb22 2.501068 1_555
C34 Yb20 2.501068 1_555
C34 Yb28 2.553440 1_555
C34 Yb12 2.564492 1_555
C34 Yb14 2.564492 1_555
C34 Yb25 2.743501 1_555
C35 Yb21 2.501068 1_545
C35 Yb23 2.501068 1_455
C35 Yb29 2.553440 1_555
C35 Yb15 2.564492 1_555
C35 Yb13 2.564492 1_445
C35 Yb24 2.743501 1_555
C36 Yb3 2.561510 1_555
C36 Yb1 2.561510 1_555
C36 Yb7 2.561510 1_554
C36 Yb5 2.561510 1_554
C36 Yb25 2.694196 1_555
C36 Yb27 2.694196 1_554
C37 Yb6 2.561510 1_545
C37 Yb4 2.561510 1_455
C37 Yb0 2.561510 1_445
C37 Yb2 2.561510 1_555
C37 Yb26 2.694196 1_555
C37 Yb24 2.694196 1_555
