# generated using pymatgen
data_TeH4C4(NCl3)2
_symmetry_space_group_name_H-M   'P 1'
_cell_length_a   6.48300000
_cell_length_b   7.97193300
_cell_length_c   15.21067000
_cell_angle_alpha   90.00000000
_cell_angle_beta   90.00000000
_cell_angle_gamma   90.00000000
_symmetry_Int_Tables_number   1
_chemical_formula_structural   TeH4C4(NCl3)2
_chemical_formula_sum   'Te2 H8 C8 N4 Cl12'
_cell_volume   786.11848030
_cell_formula_units_Z   2
loop_
 _symmetry_equiv_pos_site_id
 _symmetry_equiv_pos_as_xyz
  1  'x, y, z'
loop_
 _atom_site_type_symbol
 _atom_site_label
 _atom_site_symmetry_multiplicity
 _atom_site_fract_x
 _atom_site_fract_y
 _atom_site_fract_z
 _atom_site_occupancy
  Te  Te0  1  0.50000000  0.50000000  0.50000000  1
  Te  Te1  1  0.00000000  0.00000000  0.00000000  1
  H  H0  1  0.61394900  0.89176500  0.39133900  1
  H  H1  1  0.38605100  0.89176500  0.60866100  1
  H  H2  1  0.11394900  0.60823500  0.10866100  1
  H  H3  1  0.88605100  0.60823500  0.89133900  1
  H  H4  1  0.38605100  0.10823500  0.60866100  1
  H  H5  1  0.61394900  0.10823500  0.39133900  1
  H  H6  1  0.88605100  0.39176500  0.89133900  1
  H  H7  1  0.11394900  0.39176500  0.10866100  1
  C  C0  1  0.82951400  0.00000000  0.31250300  1
  C  C1  1  0.17048600  0.00000000  0.68749700  1
  C  C2  1  0.32951400  0.50000000  0.18749700  1
  C  C3  1  0.67048600  0.50000000  0.81250300  1
  C  C4  1  0.98517600  0.00000000  0.26661600  1
  C  C5  1  0.01482400  0.00000000  0.73338400  1
  C  C6  1  0.48517600  0.50000000  0.23338400  1
  C  C7  1  0.51482400  0.50000000  0.76661600  1
  N  N0  1  0.66810200  0.00000000  0.36382300  1
  N  N1  1  0.33189800  0.00000000  0.63617700  1
  N  N2  1  0.16810200  0.50000000  0.13617700  1
  N  N3  1  0.83189800  0.50000000  0.86382300  1
  Cl  Cl0  1  0.66578900  0.50000000  0.30627200  1
  Cl  Cl1  1  0.33421100  0.50000000  0.69372800  1
  Cl  Cl2  1  0.16578900  0.00000000  0.19372800  1
  Cl  Cl3  1  0.83421100  0.00000000  0.80627200  1
  Cl  Cl4  1  0.74073000  0.72861400  0.55078700  1
  Cl  Cl5  1  0.25927000  0.72861400  0.44921300  1
  Cl  Cl6  1  0.24073000  0.77138600  0.94921300  1
  Cl  Cl7  1  0.75927000  0.77138600  0.05078700  1
  Cl  Cl8  1  0.25927000  0.27138600  0.44921300  1
  Cl  Cl9  1  0.74073000  0.27138600  0.55078700  1
  Cl  Cl10  1  0.75927000  0.22861400  0.05078700  1
  Cl  Cl11  1  0.24073000  0.22861400  0.94921300  1
loop_
_geom_bond_atom_site_label_1
_geom_bond_atom_site_label_2
_geom_bond_distance
_geom_bond_site_symmetry_2
H0 N0 1.021236 1_565
H1 N1 1.021236 1_565
H2 N2 1.021236 1_555
H3 N3 1.021236 1_555
H4 N1 1.021236 1_555
H5 N0 1.021236 1_555
H6 N3 1.021236 1_555
H7 N2 1.021236 1_555
C0 C4 1.227014 1_555
C0 N0 1.305518 1_555
C1 C5 1.227014 1_555
C1 N1 1.305518 1_555
C2 C6 1.227014 1_555
C2 N2 1.305518 1_555
C3 C7 1.227014 1_555
C3 N3 1.305518 1_555
C4 Cl2 1.612514 1_655
C5 Cl3 1.612514 1_455
C6 Cl0 1.612514 1_555
C7 Cl1 1.612514 1_555
Cl4 Te0 2.520692 1_555
Cl5 Te0 2.520692 1_555
Cl6 Te1 2.520692 1_566
Cl7 Te1 2.520692 1_665
Cl8 Te0 2.520692 1_555
Cl9 Te0 2.520692 1_555
Cl10 Te1 2.520692 1_655
Cl11 Te1 2.520692 1_556
