# generated using pymatgen
data_CeZnNi
_symmetry_space_group_name_H-M   'P 1'
_cell_length_a   7.00858938
_cell_length_b   7.00805393
_cell_length_c   3.82181542
_cell_angle_alpha   90.00000000
_cell_angle_beta   90.00000000
_cell_angle_gamma   120.00419284
_symmetry_Int_Tables_number   1
_chemical_formula_structural   CeZnNi
_chemical_formula_sum   'Ce3 Zn3 Ni3'
_cell_volume   162.55863407
_cell_formula_units_Z   3
loop_
 _symmetry_equiv_pos_site_id
 _symmetry_equiv_pos_as_xyz
  1  'x, y, z'
loop_
 _atom_site_type_symbol
 _atom_site_label
 _atom_site_symmetry_multiplicity
 _atom_site_fract_x
 _atom_site_fract_y
 _atom_site_fract_z
 _atom_site_occupancy
  Ce  Ce0  1  0.00000563  0.41710296  0.50000000  1
  Ce  Ce1  1  0.58291208  0.58290545  0.50000000  1
  Ce  Ce2  1  0.41710090  0.00000058  0.50000000  1
  Zn  Zn0  1  0.00001730  0.76728969  -0.00000000  1
  Zn  Zn1  1  0.23281638  0.23275970  0.00000000  1
  Zn  Zn2  1  0.76724979  -0.00005876  -0.00000000  1
  Ni  Ni0  1  0.33338245  0.66678253  -0.00000000  1
  Ni  Ni1  1  0.66656021  0.33324434  0.00000000  1
  Ni  Ni2  1  -0.00004474  -0.00002749  0.50000000  1
loop_
_geom_bond_atom_site_label_1
_geom_bond_atom_site_label_2
_geom_bond_distance
_geom_bond_site_symmetry_2
Ce0 Ni0 2.843174 1_556
Ce0 Ni0 2.843174 1_555
Ce0 Ni1 2.843386 1_456
Ce0 Ni1 2.843386 1_455
Ce0 Ni2 2.923096 1_555
Ce0 Zn0 3.110323 1_555
Ce0 Zn0 3.110323 1_556
Ce0 Zn2 3.176447 1_455
Ce0 Zn2 3.176447 1_456
Ce0 Zn1 3.176651 1_556
Ce0 Zn1 3.176651 1_555
Ce1 Ni1 2.842950 1_556
Ce1 Ni1 2.842950 1_555
Ce1 Ni0 2.843186 1_556
Ce1 Ni0 2.843186 1_555
Ce1 Ni2 2.922671 1_665
Ce1 Zn1 3.109942 1_556
Ce1 Zn1 3.109942 1_555
Ce1 Zn2 3.175847 1_566
Ce1 Zn2 3.175847 1_565
Ce1 Zn0 3.176344 1_655
Ce1 Zn0 3.176344 1_656
Ce2 Ni0 2.842304 1_545
Ce2 Ni0 2.842304 1_546
Ce2 Ni1 2.842315 1_556
Ce2 Ni1 2.842315 1_555
Ce2 Ni2 2.923504 1_555
Ce2 Zn2 3.110458 1_555
Ce2 Zn2 3.110458 1_556
Ce2 Zn1 3.176095 1_555
Ce2 Zn1 3.176095 1_556
Ce2 Zn0 3.176208 1_545
Ce2 Zn0 3.176208 1_546
Zn0 Zn2 2.824867 1_465
Zn0 Zn1 2.824889 1_565
Zn1 Zn2 2.825691 1_455
Ni0 Zn2 2.756298 1_565
Ni0 Zn0 2.756967 1_555
Ni0 Zn1 2.757596 1_555
Ni1 Zn1 2.756101 1_555
Ni1 Zn2 2.757274 1_555
Ni1 Zn0 2.757659 1_655
Ni2 Zn2 2.512204 1_456
Ni2 Zn2 2.512204 1_455
Ni2 Zn0 2.512232 1_545
Ni2 Zn0 2.512232 1_546
Ni2 Zn1 2.512707 1_555
Ni2 Zn1 2.512707 1_556
