# generated using pymatgen
data_Y2InHg
_symmetry_space_group_name_H-M   'P 1'
_cell_length_a   12.38847525
_cell_length_b   12.38847525
_cell_length_c   12.38847525
_cell_angle_alpha   120.92597630
_cell_angle_beta   119.19818503
_cell_angle_gamma   89.89903166
_symmetry_Int_Tables_number   1
_chemical_formula_structural   Y2InHg
_chemical_formula_sum   'Y2 In1 Hg1'
_cell_volume   1342.78482152
_cell_formula_units_Z   1
loop_
 _symmetry_equiv_pos_site_id
 _symmetry_equiv_pos_as_xyz
  1  'x, y, z'
loop_
 _atom_site_type_symbol
 _atom_site_label
 _atom_site_symmetry_multiplicity
 _atom_site_fract_x
 _atom_site_fract_y
 _atom_site_fract_z
 _atom_site_occupancy
  Y  Y0  1  0.00000000  0.24642200  0.24642200  1
  Y  Y1  1  0.00000000  0.75357800  0.75357800  1
  In  In0  1  0.00000000  0.00000000  0.00000000  1
  Hg  Hg0  1  0.00000000  0.50000000  0.50000000  1
loop_
_geom_bond_atom_site_label_1
_geom_bond_atom_site_label_2
_geom_bond_distance
_geom_bond_site_symmetry_2
In0 Y0 3.009966 1_555
In0 Y1 3.009966 1_544
Hg0 Y1 3.097375 1_555
Hg0 Y0 3.097375 1_555
