# generated using pymatgen
data_Na6Ni(SO4)4
_symmetry_space_group_name_H-M   'P 1'
_cell_length_a   8.06752614
_cell_length_b   9.12247167
_cell_length_c   9.55763299
_cell_angle_alpha   90.00000000
_cell_angle_beta   113.19185000
_cell_angle_gamma   90.00000000
_symmetry_Int_Tables_number   1
_chemical_formula_structural   Na6Ni(SO4)4
_chemical_formula_sum   'Na12 Ni2 S8 O32'
_cell_volume   646.56053223
_cell_formula_units_Z   2
loop_
 _symmetry_equiv_pos_site_id
 _symmetry_equiv_pos_as_xyz
  1  'x, y, z'
loop_
 _atom_site_type_symbol
 _atom_site_label
 _atom_site_symmetry_multiplicity
 _atom_site_fract_x
 _atom_site_fract_y
 _atom_site_fract_z
 _atom_site_occupancy
  Na  Na0  1  0.90903285  0.84544204  0.56141585  1
  Na  Na1  1  0.09096715  0.15455796  0.43858415  1
  Na  Na2  1  0.59096715  0.34544204  0.43858415  1
  Na  Na3  1  0.40903285  0.65455796  0.56141585  1
  Na  Na4  1  0.53631922  0.98721423  0.68705650  1
  Na  Na5  1  0.46368078  0.01278577  0.31294350  1
  Na  Na6  1  0.96368078  0.48721423  0.31294350  1
  Na  Na7  1  0.03631922  0.51278577  0.68705650  1
  Na  Na8  1  0.81352583  0.36864753  0.88379934  1
  Na  Na9  1  0.18647417  0.63135247  0.11620066  1
  Na  Na10  1  0.68647417  0.86864753  0.11620066  1
  Na  Na11  1  0.31352583  0.13135247  0.88379934  1
  Ni  Ni0  1  0.00000000  -0.00000000  -0.00000000  1
  Ni  Ni1  1  0.50000000  0.50000000  -0.00000000  1
  S  S0  1  0.78088153  0.69767758  0.85788148  1
  S  S1  1  0.21911847  0.30232242  0.14211852  1
  S  S2  1  0.71911847  0.19767758  0.14211852  1
  S  S3  1  0.28088153  0.80232242  0.85788148  1
  S  S4  1  0.65172683  0.64826466  0.33915451  1
  S  S5  1  0.34827317  0.35173534  0.66084549  1
  S  S6  1  0.84827317  0.14826466  0.66084549  1
  S  S7  1  0.15172683  0.85173534  0.33915451  1
  O  O0  1  0.84601500  0.81606504  0.97478104  1
  O  O1  1  0.15398500  0.18393496  0.02521896  1
  O  O2  1  0.65398500  0.31606504  0.02521896  1
  O  O3  1  0.34601500  0.68393496  0.97478104  1
  O  O4  1  0.93467720  0.60594251  0.86621171  1
  O  O5  1  0.06532280  0.39405749  0.13378829  1
  O  O6  1  0.56532280  0.10594251  0.13378829  1
  O  O7  1  0.43467720  0.89405749  0.86621171  1
  O  O8  1  0.99335803  0.91573386  0.35389272  1
  O  O9  1  0.00664197  0.08426614  0.64610728  1
  O  O10  1  0.50664197  0.41573386  0.64610728  1
  O  O11  1  0.49335803  0.58426614  0.35389272  1
  O  O12  1  0.69317422  0.76341184  0.70580483  1
  O  O13  1  0.30682578  0.23658816  0.29419517  1
  O  O14  1  0.80682578  0.26341184  0.29419517  1
  O  O15  1  0.19317422  0.73658816  0.70580483  1
  O  O16  1  0.65229096  0.60603121  0.89369152  1
  O  O17  1  0.34770904  0.39396879  0.10630848  1
  O  O18  1  0.84770904  0.10603121  0.10630848  1
  O  O19  1  0.15229096  0.89396879  0.89369152  1
  O  O20  1  0.81868764  0.60241273  0.46654750  1
  O  O21  1  0.18131236  0.39758727  0.53345250  1
  O  O22  1  0.68131236  0.10241273  0.53345250  1
  O  O23  1  0.31868764  0.89758727  0.46654750  1
  O  O24  1  0.32968433  0.40392433  0.80298040  1
  O  O25  1  0.67031567  0.59607567  0.19701960  1
  O  O26  1  0.17031567  0.90392433  0.19701960  1
  O  O27  1  0.82968433  0.09607567  0.80298040  1
  O  O28  1  0.86102698  0.30920104  0.66606009  1
  O  O29  1  0.13897302  0.69079896  0.33393991  1
  O  O30  1  0.63897302  0.80920104  0.33393991  1
  O  O31  1  0.36102698  0.19079896  0.66606009  1
loop_
_geom_bond_atom_site_label_1
_geom_bond_atom_site_label_2
_geom_bond_distance
_geom_bond_site_symmetry_2
Na0 O9 2.349437 1_665
Na0 O15 2.377742 1_655
Na0 O20 2.397514 1_555
Na0 O30 2.419117 1_555
Na0 O8 2.422959 1_555
Na0 O12 2.718435 1_555
Na1 O8 2.349437 1_445
Na1 O14 2.377742 1_455
Na1 O21 2.397514 1_555
Na1 O31 2.419117 1_555
Na1 O9 2.422959 1_555
Na1 O13 2.718435 1_555
Na2 O11 2.349437 1_555
Na2 O13 2.377742 1_555
Na2 O22 2.397514 1_555
Na2 O28 2.419117 1_555
Na2 O10 2.422959 1_555
Na2 O14 2.718435 1_555
Na3 O10 2.349437 1_555
Na3 O12 2.377742 1_555
Na3 O23 2.397514 1_555
Na3 O29 2.419117 1_555
Na3 O11 2.422959 1_555
Na3 O15 2.718435 1_555
Na4 O31 2.294737 1_565
Na4 O23 2.297486 1_555
Na4 O7 2.330762 1_555
Na4 O12 2.371305 1_555
Na4 O27 2.397889 1_565
Na4 O22 2.445510 1_565
Na5 O30 2.294737 1_545
Na5 O22 2.297486 1_555
Na5 O6 2.330762 1_555
Na5 O13 2.371305 1_555
Na5 O26 2.397889 1_545
Na5 O23 2.445510 1_545
Na6 O29 2.294737 1_655
Na6 O21 2.297486 1_655
Na6 O5 2.330762 1_655
Na6 O14 2.371305 1_555
Na6 O25 2.397889 1_555
Na6 O20 2.445510 1_555
Na7 O28 2.294737 1_455
Na7 O20 2.297486 1_455
Na7 O4 2.330762 1_455
Na7 O15 2.371305 1_555
Na7 O24 2.397889 1_555
Na7 O21 2.445510 1_555
Na8 O2 2.254742 1_556
Na8 O28 2.323776 1_555
Na8 O4 2.408101 1_555
Na8 O5 2.462968 1_656
Na8 O16 2.547018 1_555
Na8 O27 2.622173 1_555
Na8 O10 2.654257 1_555
Na9 O3 2.254742 1_554
Na9 O29 2.323776 1_555
Na9 O5 2.408101 1_555
Na9 O4 2.462968 1_454
Na9 O17 2.547018 1_555
Na9 O26 2.622173 1_555
Na9 O11 2.654257 1_555
Na10 O0 2.254742 1_554
Na10 O30 2.323776 1_555
Na10 O6 2.408101 1_565
Na10 O7 2.462968 1_554
Na10 O18 2.547018 1_565
Na10 O25 2.622173 1_555
Na10 O8 2.654257 1_555
Na11 O1 2.254742 1_556
Na11 O31 2.323776 1_555
Na11 O7 2.408101 1_545
Na11 O6 2.462968 1_556
Na11 O19 2.547018 1_545
Na11 O24 2.622173 1_555
Na11 O9 2.654257 1_555
Ni0 O26 2.040612 1_545
Ni0 O27 2.040612 1_454
Ni0 O1 2.044750 1_555
Ni0 O0 2.044750 1_444
Ni0 O19 2.112033 1_544
Ni0 O18 2.112033 1_455
Ni1 O25 2.040612 1_555
Ni1 O24 2.040612 1_554
Ni1 O2 2.044750 1_555
Ni1 O3 2.044750 1_554
Ni1 O16 2.112033 1_554
Ni1 O17 2.112033 1_555
O0 S0 1.492782 1_555
O1 S1 1.492782 1_555
O2 S2 1.492782 1_555
O3 S3 1.492782 1_555
O4 S0 1.472520 1_555
O5 S1 1.472520 1_555
O6 S2 1.472520 1_555
O7 S3 1.472520 1_555
O8 S7 1.461102 1_655
O9 S6 1.461102 1_455
O10 S5 1.461102 1_555
O11 S4 1.461102 1_555
O12 S0 1.470667 1_555
O13 S1 1.470667 1_555
O14 S2 1.470667 1_555
O15 S3 1.470667 1_555
O16 S0 1.473763 1_555
O17 S1 1.473763 1_555
O18 S2 1.473763 1_555
O19 S3 1.473763 1_555
O20 S4 1.476493 1_555
O21 S5 1.476493 1_555
O22 S6 1.476493 1_555
O23 S7 1.476493 1_555
O24 S5 1.501686 1_555
O25 S4 1.501686 1_555
O26 S7 1.501686 1_555
O27 S6 1.501686 1_555
O28 S6 1.471210 1_555
O29 S7 1.471210 1_555
O30 S4 1.471210 1_555
O31 S5 1.471210 1_555
