# generated using pymatgen
data_La6Sm2Cr3(FeO4)5
_symmetry_space_group_name_H-M   'P 1'
_cell_length_a   11.20551152
_cell_length_b   11.60107982
_cell_length_c   17.92094955
_cell_angle_alpha   109.03391595
_cell_angle_beta   108.27200957
_cell_angle_gamma   89.99083724
_symmetry_Int_Tables_number   1
_chemical_formula_structural   La6Sm2Cr3(FeO4)5
_chemical_formula_sum   'La24 Sm8 Cr12 Fe20 O80'
_cell_volume   2077.67007096
_cell_formula_units_Z   4
loop_
 _symmetry_equiv_pos_site_id
 _symmetry_equiv_pos_as_xyz
  1  'x, y, z'
loop_
 _atom_site_type_symbol
 _atom_site_label
 _atom_site_symmetry_multiplicity
 _atom_site_fract_x
 _atom_site_fract_y
 _atom_site_fract_z
 _atom_site_occupancy
  La  La0  1  0.29820822  0.06150702  0.61164823  1
  La  La1  1  0.30202929  0.56403739  0.61452229  1
  La  La2  1  0.80317788  0.06566668  0.61326211  1
  La  La3  1  0.80179467  0.56330629  0.61741042  1
  La  La4  1  0.18499347  0.43483001  0.38546721  1
  La  La5  1  0.18188630  0.43885429  0.88671377  1
  La  La6  1  0.18430629  0.93722943  0.38408981  1
  La  La7  1  0.68614542  0.43605401  0.38616536  1
  La  La8  1  0.69341480  0.93501124  0.38845617  1
  La  La9  1  0.68659679  0.93805948  0.88627434  1
  La  La10  1  0.05253360  0.29918675  0.11334982  1
  La  La11  1  0.05233476  0.29912231  0.60985822  1
  La  La12  1  0.05115051  0.80305582  0.61691281  1
  La  La13  1  0.54817451  0.30068136  0.11388687  1
  La  La14  1  0.55425284  0.29970289  0.61254800  1
  La  La15  1  0.54841647  0.80170176  0.11569077  1
  La  La16  1  0.55159222  0.80263753  0.61514684  1
  La  La17  1  0.44083345  0.19756633  0.38496728  1
  La  La18  1  0.43528202  0.20012365  0.88696840  1
  La  La19  1  0.43312862  0.69636882  0.38091979  1
  La  La20  1  0.43274887  0.69628066  0.88423827  1
  La  La21  1  0.93837351  0.19884251  0.38538145  1
  La  La22  1  0.93911013  0.19975397  0.88706609  1
  La  La23  1  0.93329043  0.69666190  0.38419303  1
  Sm  Sm0  1  0.29393382  0.06285015  0.11204808  1
  Sm  Sm1  1  0.29663664  0.56292132  0.11276769  1
  Sm  Sm2  1  0.79763839  0.06435383  0.11544329  1
  Sm  Sm3  1  0.80014314  0.56449012  0.11366244  1
  Sm  Sm4  1  0.18518886  0.93644075  0.88769482  1
  Sm  Sm5  1  0.68497740  0.43587662  0.88795440  1
  Sm  Sm6  1  0.04911908  0.80004709  0.11429009  1
  Sm  Sm7  1  0.93608904  0.69977369  0.88639599  1
  Cr  Cr0  1  0.99629946  0.99905514  0.00265431  1
  Cr  Cr1  1  0.99409180  0.50288301  0.99996238  1
  Cr  Cr2  1  0.99858573  0.50266453  0.50050157  1
  Cr  Cr3  1  0.49631084  0.99944177  0.00117616  1
  Cr  Cr4  1  0.49839720  0.99746696  0.49840860  1
  Cr  Cr5  1  0.49724886  0.50281518  0.00123471  1
  Cr  Cr6  1  0.49821018  0.50200919  0.49935683  1
  Cr  Cr7  1  0.24520645  0.75260615  0.00206903  1
  Cr  Cr8  1  0.24820410  0.74863855  0.49914639  1
  Cr  Cr9  1  0.74790267  0.25225098  0.00208159  1
  Cr  Cr10  1  0.74711698  0.75109000  0.00101331  1
  Cr  Cr11  1  0.74760489  0.74935791  0.50041032  1
  Fe  Fe0  1  0.00210785  0.99798209  0.49973947  1
  Fe  Fe1  1  0.25045624  0.24937456  0.99982908  1
  Fe  Fe2  1  0.25320612  0.25012294  0.49880159  1
  Fe  Fe3  1  0.75202163  0.25129731  0.49986768  1
  Fe  Fe4  1  0.11108776  0.10484523  0.24931303  1
  Fe  Fe5  1  0.11255472  0.10718366  0.75223321  1
  Fe  Fe6  1  0.11062210  0.60623031  0.24632202  1
  Fe  Fe7  1  0.11265165  0.60678098  0.75171678  1
  Fe  Fe8  1  0.61215823  0.10357681  0.25062118  1
  Fe  Fe9  1  0.61408871  0.11055190  0.75192837  1
  Fe  Fe10  1  0.61159053  0.60406596  0.24626712  1
  Fe  Fe11  1  0.61661658  0.60606404  0.75349606  1
  Fe  Fe12  1  0.35943725  0.38947201  0.24495420  1
  Fe  Fe13  1  0.36354557  0.39166868  0.74862771  1
  Fe  Fe14  1  0.36003660  0.89158936  0.24732063  1
  Fe  Fe15  1  0.36283636  0.89554138  0.75215790  1
  Fe  Fe16  1  0.86091510  0.39146560  0.24625892  1
  Fe  Fe17  1  0.85812714  0.39394578  0.75061064  1
  Fe  Fe18  1  0.86181017  0.89140232  0.24817661  1
  Fe  Fe19  1  0.86616673  0.89386037  0.75297380  1
  O  O0  1  0.11234174  0.11804607  0.47788925  1
  O  O1  1  0.11210371  0.11089697  0.97841601  1
  O  O2  1  0.10900578  0.61553464  0.47385433  1
  O  O3  1  0.10224560  0.62053430  0.97337934  1
  O  O4  1  0.61070181  0.11565107  0.47715825  1
  O  O5  1  0.60792660  0.11959110  0.97902592  1
  O  O6  1  0.60729677  0.61690490  0.47361129  1
  O  O7  1  0.60813910  0.61481034  0.97298182  1
  O  O8  1  0.13086960  0.38607827  0.02081781  1
  O  O9  1  0.13307639  0.38574860  0.52074028  1
  O  O10  1  0.13256523  0.88514098  0.03142698  1
  O  O11  1  0.13510709  0.88103301  0.52432299  1
  O  O12  1  0.63249877  0.38563201  0.02473200  1
  O  O13  1  0.63296220  0.38566145  0.52030880  1
  O  O14  1  0.63496042  0.88670619  0.02917659  1
  O  O15  1  0.63701823  0.88584298  0.52538452  1
  O  O16  1  0.36072812  0.10532611  0.47482912  1
  O  O17  1  0.35568351  0.10290158  0.97248728  1
  O  O18  1  0.35877954  0.60912487  0.47391493  1
  O  O19  1  0.35702762  0.61121136  0.97763144  1
  O  O20  1  0.86540668  0.11322420  0.48108964  1
  O  O21  1  0.85935664  0.10984715  0.97682668  1
  O  O22  1  0.85934931  0.60997393  0.47524633  1
  O  O23  1  0.85333889  0.60743417  0.97044247  1
  O  O24  1  0.38196921  0.39702486  0.02634897  1
  O  O25  1  0.38543170  0.39116638  0.52199246  1
  O  O26  1  0.37882330  0.89647342  0.02770895  1
  O  O27  1  0.38373146  0.88948789  0.52335479  1
  O  O28  1  0.88051256  0.39768830  0.02765249  1
  O  O29  1  0.88599033  0.39466682  0.52500320  1
  O  O30  1  0.88397861  0.89570075  0.03249883  1
  O  O31  1  0.88311078  0.88507887  0.52080351  1
  O  O32  1  0.11642059  0.12555272  0.14746375  1
  O  O33  1  0.09023519  0.11373577  0.64029573  1
  O  O34  1  0.11523588  0.62595006  0.14321868  1
  O  O35  1  0.11036524  0.62411729  0.64654116  1
  O  O36  1  0.61526765  0.12708706  0.14845054  1
  O  O37  1  0.60451042  0.12345787  0.64461874  1
  O  O38  1  0.61934627  0.62498115  0.14457127  1
  O  O39  1  0.60813411  0.62276539  0.64651186  1
  O  O40  1  0.45893147  0.37483908  0.35147760  1
  O  O41  1  0.46773870  0.37663524  0.85417317  1
  O  O42  1  0.46155242  0.87709080  0.35364843  1
  O  O43  1  0.46780887  0.87525321  0.85630101  1
  O  O44  1  0.95727543  0.37686205  0.35376911  1
  O  O45  1  0.96301090  0.37575117  0.85430733  1
  O  O46  1  0.95283881  0.88529559  0.36125606  1
  O  O47  1  0.97117269  0.87430437  0.85698166  1
  O  O48  1  0.34488811  0.26800868  0.13531528  1
  O  O49  1  0.33853998  0.27286880  0.63615683  1
  O  O50  1  0.36130549  0.76455682  0.14461442  1
  O  O51  1  0.35831355  0.77489361  0.64560860  1
  O  O52  1  0.86243212  0.26582154  0.14366971  1
  O  O53  1  0.83635710  0.27991257  0.63773949  1
  O  O54  1  0.86987064  0.76629036  0.14646343  1
  O  O55  1  0.85895852  0.77160664  0.64591593  1
  O  O56  1  0.20443752  0.22219087  0.36101946  1
  O  O57  1  0.20894937  0.22814915  0.86201306  1
  O  O58  1  0.20903352  0.72836967  0.35377610  1
  O  O59  1  0.21488524  0.73228901  0.85711742  1
  O  O60  1  0.70649671  0.22332659  0.36202711  1
  O  O61  1  0.71536671  0.23146463  0.85860090  1
  O  O62  1  0.70924406  0.72334891  0.35437179  1
  O  O63  1  0.72444502  0.73160814  0.85556180  1
  O  O64  1  0.41955473  0.06502070  0.24387130  1
  O  O65  1  0.42312407  0.06860072  0.74976963  1
  O  O66  1  0.42164588  0.56108748  0.24198116  1
  O  O67  1  0.42796041  0.56425828  0.74930088  1
  O  O68  1  0.92051212  0.06456300  0.24592663  1
  O  O69  1  0.92514135  0.06720997  0.75000995  1
  O  O70  1  0.92154176  0.56417723  0.24372477  1
  O  O71  1  0.92829202  0.56908124  0.75665752  1
  O  O72  1  0.17592349  0.43456172  0.25001742  1
  O  O73  1  0.17480140  0.43140503  0.74824377  1
  O  O74  1  0.17039987  0.92918294  0.24550852  1
  O  O75  1  0.17850754  0.93753485  0.75755586  1
  O  O76  1  0.67499243  0.43230751  0.24941265  1
  O  O77  1  0.67190561  0.43119184  0.75508916  1
  O  O78  1  0.67894764  0.93396172  0.25258228  1
  O  O79  1  0.67862643  0.93703108  0.75110843  1
loop_
_geom_bond_atom_site_label_1
_geom_bond_atom_site_label_2
_geom_bond_distance
_geom_bond_site_symmetry_2
La0 O49 2.362839 1_555
La0 O65 2.405740 1_555
La0 O11 2.498694 1_545
La0 O27 2.509018 1_545
La0 O33 2.570710 1_555
La0 O0 2.899747 1_555
La0 O16 2.941326 1_555
La1 O51 2.362867 1_555
La1 O67 2.384106 1_555
La1 O35 2.437019 1_555
La1 O9 2.534874 1_555
La1 O25 2.539126 1_555
La1 O18 2.981954 1_555
La2 O53 2.386455 1_555
La2 O69 2.396877 1_555
La2 O37 2.501864 1_555
La2 O15 2.513668 1_545
La2 O31 2.569560 1_545
La2 O20 2.879126 1_555
La2 O4 2.925862 1_555
La2 O33 3.120823 1_655
La3 O55 2.345401 1_555
La3 O71 2.431847 1_555
La3 O39 2.435473 1_555
La3 O29 2.515141 1_555
La3 O13 2.540118 1_555
La4 O56 2.383166 1_555
La4 O72 2.396441 1_555
La4 O44 2.475589 1_455
La4 O2 2.511584 1_555
La4 O18 2.523570 1_555
La4 O9 2.885185 1_555
La4 O25 2.941003 1_555
La5 O57 2.375123 1_555
La5 O45 2.391360 1_455
La5 O73 2.430694 1_555
La5 O19 2.524995 1_555
La5 O3 2.526719 1_555
La5 O8 2.880752 1_556
La5 O24 2.966109 1_556
La6 O58 2.340605 1_555
La6 O74 2.409757 1_555
La6 O16 2.504472 1_565
La6 O0 2.534895 1_565
La6 O46 2.536127 1_455
La6 O27 2.988860 1_555
La7 O60 2.386392 1_555
La7 O76 2.400437 1_555
La7 O40 2.468461 1_555
La7 O22 2.518690 1_555
La7 O6 2.522191 1_555
La7 O13 2.879437 1_555
La7 O29 2.953133 1_555
La8 O62 2.350233 1_555
La8 O78 2.385108 1_555
La8 O42 2.510345 1_555
La8 O20 2.549708 1_565
La8 O4 2.554990 1_565
La8 O31 2.865951 1_555
La8 O15 2.937987 1_555
La8 O46 3.118560 1_555
La9 O63 2.346345 1_555
La9 O79 2.391894 1_555
La9 O43 2.397798 1_555
La9 O21 2.504920 1_565
La9 O5 2.571008 1_565
La10 O32 2.339265 1_555
La10 O72 2.396906 1_555
La10 O52 2.417848 1_455
La10 O8 2.557309 1_555
La10 O28 2.582188 1_455
La10 O1 2.937830 1_554
La10 O21 2.944783 1_454
La11 O33 2.392273 1_555
La11 O73 2.402683 1_555
La11 O9 2.516427 1_555
La11 O29 2.517304 1_455
La11 O53 2.643382 1_455
La11 O20 2.843956 1_455
La11 O0 2.866095 1_555
La11 O49 3.121818 1_555
La12 O35 2.351393 1_555
La12 O55 2.422220 1_455
La12 O75 2.450241 1_555
La12 O11 2.532755 1_555
La12 O31 2.540152 1_455
La13 O36 2.350694 1_555
La13 O76 2.380635 1_555
La13 O48 2.474639 1_555
La13 O12 2.528015 1_555
La13 O24 2.547501 1_555
La13 O5 2.899213 1_554
La14 O37 2.321886 1_555
La14 O77 2.436717 1_555
La14 O13 2.548419 1_555
La14 O25 2.556480 1_555
La14 O49 2.616501 1_555
La14 O4 2.903274 1_555
La14 O16 2.982321 1_555
La14 O53 3.069481 1_555
La15 O38 2.352942 1_555
La15 O50 2.382828 1_555
La15 O78 2.409870 1_555
La15 O14 2.501418 1_555
La15 O26 2.560746 1_555
La15 O19 2.951682 1_554
La16 O39 2.369186 1_555
La16 O79 2.396236 1_555
La16 O51 2.438942 1_555
La16 O27 2.529716 1_555
La16 O15 2.532668 1_555
La16 O18 2.996715 1_555
La17 O40 2.347821 1_555
La17 O64 2.429195 1_555
La17 O4 2.511447 1_555
La17 O16 2.564174 1_555
La17 O56 2.578667 1_555
La17 O13 2.924794 1_555
La17 O25 2.969508 1_555
La17 O60 3.157221 1_555
La18 O41 2.364344 1_555
La18 O65 2.394800 1_555
La18 O57 2.474113 1_555
La18 O5 2.518048 1_555
La18 O17 2.530106 1_555
La18 O12 2.953851 1_556
La18 O24 3.004596 1_556
La19 O42 2.345648 1_555
La19 O66 2.435081 1_555
La19 O58 2.455934 1_555
La19 O6 2.526549 1_555
La19 O18 2.543033 1_555
La19 O27 2.999472 1_555
La20 O43 2.348946 1_555
La20 O67 2.387319 1_555
La20 O59 2.399713 1_555
La20 O7 2.510978 1_555
La20 O19 2.542301 1_555
La20 O26 3.073853 1_556
La21 O44 2.338687 1_555
La21 O68 2.420678 1_555
La21 O60 2.530296 1_555
La21 O0 2.532510 1_655
La21 O20 2.566667 1_555
La21 O9 2.932242 1_655
La21 O29 2.996529 1_555
La22 O45 2.337893 1_555
La22 O69 2.391082 1_555
La22 O61 2.449803 1_555
La22 O21 2.543660 1_555
La22 O1 2.571091 1_655
La22 O8 2.902985 1_656
La22 O28 3.052030 1_556
La23 O46 2.376800 1_555
La23 O62 2.439404 1_555
La23 O70 2.446460 1_555
La23 O22 2.505779 1_555
La23 O2 2.519216 1_655
La23 O31 2.908618 1_555
Cr0 O30 2.036834 1_555
Cr0 O21 2.040347 1_564
Cr0 O1 2.068243 1_664
Cr0 O10 2.072181 1_655
Cr0 O32 2.454842 1_665
Cr0 O47 2.462494 1_554
Cr1 O23 2.033053 1_555
Cr1 O28 2.036388 1_556
Cr1 O8 2.072538 1_656
Cr1 O3 2.084531 1_655
Cr1 O34 2.428300 1_656
Cr1 O45 2.455427 1_555
Cr2 O29 2.015221 1_555
Cr2 O22 2.028052 1_555
Cr2 O9 2.054232 1_655
Cr2 O2 2.062146 1_655
Cr2 O35 2.437918 1_655
Cr2 O44 2.448005 1_555
Cr3 O17 2.020381 1_564
Cr3 O26 2.037090 1_555
Cr3 O14 2.077168 1_555
Cr3 O5 2.082659 1_564
Cr3 O43 2.441076 1_554
Cr3 O36 2.486138 1_565
Cr4 O16 2.014832 1_565
Cr4 O27 2.036167 1_555
Cr4 O4 2.061583 1_565
Cr4 O15 2.064035 1_555
Cr4 O42 2.411696 1_555
Cr4 O37 2.442270 1_565
Cr5 O24 2.025537 1_555
Cr5 O19 2.039276 1_554
Cr5 O12 2.072403 1_555
Cr5 O7 2.076671 1_554
Cr5 O38 2.429228 1_555
Cr5 O41 2.476943 1_554
Cr6 O25 2.019240 1_555
Cr6 O18 2.028643 1_555
Cr6 O13 2.053589 1_555
Cr6 O6 2.058890 1_555
Cr6 O39 2.447104 1_555
Cr6 O40 2.472267 1_555
Cr7 O10 2.030312 1_555
Cr7 O3 2.036823 1_554
Cr7 O26 2.075494 1_555
Cr7 O19 2.080242 1_554
Cr7 O50 2.433627 1_555
Cr7 O59 2.442563 1_554
Cr8 O11 2.018567 1_555
Cr8 O2 2.030694 1_555
Cr8 O18 2.057332 1_555
Cr8 O27 2.071177 1_555
Cr8 O58 2.432760 1_555
Cr8 O51 2.439740 1_555
Cr9 O12 2.037203 1_555
Cr9 O5 2.044277 1_554
Cr9 O28 2.081903 1_555
Cr9 O21 2.088039 1_554
Cr9 O52 2.409923 1_555
Cr9 O61 2.410490 1_554
Cr10 O7 2.041893 1_554
Cr10 O14 2.046619 1_555
Cr10 O23 2.075345 1_554
Cr10 O30 2.079802 1_555
Cr10 O63 2.471973 1_554
Cr10 O54 2.483854 1_555
Cr11 O6 2.027220 1_555
Cr11 O15 2.031716 1_555
Cr11 O31 2.048338 1_555
Cr11 O22 2.064889 1_555
Cr11 O62 2.429984 1_555
Cr11 O55 2.438029 1_555
Fe0 O20 2.053117 1_465
Fe0 O11 2.057523 1_555
Fe0 O31 2.067552 1_455
Fe0 O0 2.068528 1_565
Fe0 O46 2.279873 1_455
Fe0 O33 2.314672 1_565
Fe1 O17 2.082410 1_555
Fe1 O1 2.087385 1_555
Fe1 O24 2.088602 1_556
Fe1 O8 2.092503 1_556
Fe1 O48 2.260191 1_556
Fe1 O57 2.293445 1_555
Fe2 O25 2.053401 1_555
Fe2 O0 2.057913 1_555
Fe2 O16 2.076330 1_555
Fe2 O9 2.090431 1_555
Fe2 O56 2.265519 1_555
Fe2 O49 2.267953 1_555
Fe3 O20 2.051616 1_555
Fe3 O13 2.068134 1_555
Fe3 O29 2.076280 1_555
Fe3 O4 2.080528 1_555
Fe3 O53 2.260320 1_555
Fe3 O60 2.270381 1_555
Fe4 O32 1.935759 1_555
Fe4 O56 1.965906 1_555
Fe4 O74 2.129941 1_545
Fe4 O68 2.164018 1_455
Fe5 O57 1.968182 1_555
Fe5 O33 1.969091 1_555
Fe5 O75 2.122853 1_545
Fe5 O69 2.136047 1_455
Fe6 O34 1.950552 1_555
Fe6 O58 1.954794 1_555
Fe6 O72 2.135704 1_555
Fe6 O70 2.157064 1_455
Fe7 O35 1.952109 1_555
Fe7 O59 1.962150 1_555
Fe7 O73 2.138317 1_555
Fe7 O71 2.146411 1_455
Fe8 O36 1.947790 1_555
Fe8 O60 1.975198 1_555
Fe8 O78 2.112205 1_545
Fe8 O64 2.161928 1_555
Fe9 O37 1.946943 1_555
Fe9 O61 1.949642 1_555
Fe9 O79 2.135976 1_545
Fe9 O65 2.180248 1_555
Fe10 O38 1.943100 1_555
Fe10 O62 1.946312 1_555
Fe10 O76 2.127441 1_555
Fe10 O66 2.158135 1_555
Fe11 O63 1.950367 1_555
Fe11 O39 1.962262 1_555
Fe11 O77 2.127576 1_555
Fe11 O67 2.141659 1_555
Fe12 O40 1.947513 1_555
Fe12 O48 1.966231 1_555
Fe12 O66 2.132009 1_555
Fe12 O72 2.143874 1_555
Fe13 O41 1.949761 1_555
Fe13 O49 1.968409 1_555
Fe13 O67 2.123511 1_555
Fe13 O73 2.162939 1_555
Fe14 O42 1.950126 1_555
Fe14 O50 1.951147 1_555
Fe14 O64 2.145723 1_565
Fe14 O74 2.161586 1_555
Fe15 O51 1.950325 1_555
Fe15 O43 1.957570 1_555
Fe15 O65 2.136253 1_565
Fe15 O75 2.146441 1_555
Fe16 O52 1.943359 1_555
Fe16 O44 1.953215 1_555
Fe16 O70 2.134782 1_555
Fe16 O76 2.150378 1_555
Fe17 O45 1.940490 1_555
Fe17 O53 1.961236 1_555
Fe17 O71 2.135751 1_555
Fe17 O77 2.151652 1_555
Fe18 O54 1.953190 1_555
Fe18 O46 1.987355 1_555
Fe18 O78 2.127060 1_555
Fe18 O68 2.130652 1_565
Fe19 O47 1.952089 1_555
Fe19 O55 1.956272 1_555
Fe19 O69 2.139143 1_565
Fe19 O79 2.152839 1_555
O1 Sm4 2.469454 1_545
O1 Sm0 2.829814 1_556
O3 Sm7 2.419860 1_455
O5 Sm2 2.944315 1_556
O7 Sm5 2.476136 1_555
O8 Sm1 2.500291 1_555
O10 Sm6 2.425120 1_555
O10 Sm0 2.455105 1_565
O12 Sm3 2.518184 1_555
O12 Sm5 2.920575 1_554
O14 Sm2 2.473097 1_565
O17 Sm4 2.440287 1_545
O17 Sm0 2.965339 1_556
O19 Sm1 2.923943 1_556
O21 Sm2 2.976631 1_556
O23 Sm5 2.457429 1_555
O23 Sm7 2.490877 1_555
O24 Sm1 2.449629 1_555
O26 Sm0 2.431642 1_565
O26 Sm4 2.926348 1_554
O28 Sm3 2.419884 1_555
O28 Sm5 2.923723 1_554
O30 Sm2 2.444969 1_565
O30 Sm6 2.482667 1_655
O32 Sm0 2.319186 1_555
O34 Sm6 2.310528 1_555
O34 Sm1 2.323598 1_555
O36 Sm2 2.352106 1_555
O38 Sm3 2.313726 1_555
O41 Sm5 2.359994 1_555
O47 Sm7 2.314815 1_555
O47 Sm4 2.342609 1_655
O48 Sm0 2.316980 1_555
O50 Sm1 2.278832 1_555
O52 Sm2 2.290158 1_555
O54 Sm3 2.291670 1_555
O54 Sm6 2.322472 1_655
O59 Sm4 2.299526 1_555
O61 Sm5 2.305347 1_555
O63 Sm7 2.318880 1_555
O64 Sm0 2.332168 1_555
O66 Sm1 2.307149 1_555
O68 Sm2 2.311105 1_555
O70 Sm3 2.302310 1_555
O71 Sm7 2.299037 1_555
O74 Sm6 2.306504 1_555
O75 Sm4 2.314045 1_555
O77 Sm5 2.321811 1_555
