# generated using pymatgen
data_ErAlNi
_symmetry_space_group_name_H-M   'P 1'
_cell_length_a   5.25377127
_cell_length_b   5.25377127
_cell_length_c   8.54509000
_cell_angle_alpha   90.00000000
_cell_angle_beta   90.00000000
_cell_angle_gamma   118.65918865
_symmetry_Int_Tables_number   1
_chemical_formula_structural   ErAlNi
_chemical_formula_sum   'Er4 Al4 Ni4'
_cell_volume   206.96654489
_cell_formula_units_Z   4
loop_
 _symmetry_equiv_pos_site_id
 _symmetry_equiv_pos_as_xyz
  1  'x, y, z'
loop_
 _atom_site_type_symbol
 _atom_site_label
 _atom_site_symmetry_multiplicity
 _atom_site_fract_x
 _atom_site_fract_y
 _atom_site_fract_z
 _atom_site_occupancy
  Er  Er0  1  0.67145300  0.32854700  0.31841300  1
  Er  Er1  1  0.34053800  0.65946200  0.20789400  1
  Er  Er2  1  0.34053800  0.65946200  0.79210600  1
  Er  Er3  1  0.67145300  0.32854700  0.68158700  1
  Al  Al0  1  0.14342500  0.85657500  0.50000000  1
  Al  Al1  1  0.33338700  0.16107700  0.00000000  1
  Al  Al2  1  0.83892300  0.66661300  0.00000000  1
  Al  Al3  1  0.83712200  0.16287800  0.00000000  1
  Ni  Ni0  1  0.00436700  0.99563300  0.24074800  1
  Ni  Ni1  1  0.00436700  0.99563300  0.75925200  1
  Ni  Ni2  1  0.66180600  0.84635700  0.50000000  1
  Ni  Ni3  1  0.15364300  0.33819400  0.50000000  1
loop_
_geom_bond_atom_site_label_1
_geom_bond_atom_site_label_2
_geom_bond_distance
_geom_bond_site_symmetry_2
Er0 Ni3 2.950390 1_655
Er0 Ni2 2.950390 1_545
Er0 Ni0 3.081101 1_645
Er0 Er3 3.103355 1_555
Er0 Er1 3.136278 1_555
Er0 Ni0 3.146879 1_545
Er0 Ni0 3.146879 1_655
Er0 Ni2 3.153316 1_555
Er0 Ni3 3.153316 1_555
Er0 Er1 3.226327 1_545
Er0 Er1 3.226327 1_655
Er1 Ni2 2.907526 1_555
Er1 Ni3 2.907526 1_555
Er1 Ni0 3.051157 1_555
Er1 Ni0 3.074605 1_545
Er1 Ni0 3.074605 1_655
Er2 Ni2 2.907526 1_555
Er2 Ni3 2.907526 1_555
Er2 Ni1 3.051157 1_555
Er2 Ni1 3.074605 1_545
Er2 Ni1 3.074605 1_655
Er2 Er3 3.136278 1_555
Er2 Er3 3.226327 1_565
Er2 Er3 3.226327 1_455
Er3 Ni3 2.950390 1_655
Er3 Ni2 2.950390 1_545
Er3 Ni1 3.081101 1_645
Er3 Ni1 3.146879 1_545
Er3 Ni1 3.146879 1_655
Er3 Ni2 3.153316 1_555
Er3 Ni3 3.153316 1_555
Al0 Ni2 2.505013 1_455
Al0 Ni3 2.505013 1_565
Al0 Ni1 2.546989 1_555
Al0 Ni0 2.546989 1_555
Al0 Ni3 2.749605 1_555
Al0 Ni2 2.749605 1_555
Al0 Er2 3.066584 1_555
Al0 Er1 3.066584 1_555
Al0 Er3 3.107082 1_455
Al0 Er3 3.107082 1_565
Al0 Er0 3.107082 1_455
Al0 Er0 3.107082 1_565
Al1 Ni0 2.556265 1_545
Al1 Ni1 2.556265 1_544
Al1 Al3 2.611814 1_455
Al1 Al3 2.641984 1_555
Al1 Al2 2.650270 1_445
Al1 Al2 2.709614 1_555
Al1 Er0 3.135747 1_555
Al1 Er3 3.135747 1_554
Al1 Er1 3.149434 1_555
Al1 Er2 3.149434 1_554
Al1 Er1 3.193339 1_545
Al1 Er2 3.193339 1_544
Al2 Ni0 2.556265 1_655
Al2 Ni1 2.556265 1_654
Al2 Al3 2.611814 1_565
Al2 Al3 2.641984 1_555
Al2 Er0 3.135747 1_555
Al2 Er3 3.135747 1_554
Al2 Er2 3.149434 1_554
Al2 Er1 3.149434 1_555
Al2 Er2 3.193339 1_654
Al2 Er1 3.193339 1_655
Al3 Ni0 2.552801 1_645
Al3 Ni1 2.552801 1_644
Al3 Er0 3.105629 1_555
Al3 Er3 3.105629 1_554
Al3 Er1 3.215416 1_545
Al3 Er2 3.215416 1_544
Al3 Er2 3.215416 1_654
Al3 Er1 3.215416 1_655
Ni0 Ni2 2.721753 1_455
Ni0 Ni3 2.721753 1_565
Ni1 Ni2 2.721753 1_455
Ni1 Ni3 2.721753 1_565
Ni2 Ni3 2.636189 1_665
Ni2 Ni3 2.723695 1_555
