# generated using pymatgen
data_LaCoSb2
_symmetry_space_group_name_H-M   'P 1'
_cell_length_a   4.39854700
_cell_length_b   4.39854700
_cell_length_c   10.03520700
_cell_angle_alpha   90.00000000
_cell_angle_beta   90.00000000
_cell_angle_gamma   90.00000000
_symmetry_Int_Tables_number   1
_chemical_formula_structural   LaCoSb2
_chemical_formula_sum   'La2 Co2 Sb4'
_cell_volume   194.15331454
_cell_formula_units_Z   2
loop_
 _symmetry_equiv_pos_site_id
 _symmetry_equiv_pos_as_xyz
  1  'x, y, z'
loop_
 _atom_site_type_symbol
 _atom_site_label
 _atom_site_symmetry_multiplicity
 _atom_site_fract_x
 _atom_site_fract_y
 _atom_site_fract_z
 _atom_site_occupancy
  La  La0  1  0.00000000  0.50000000  0.74401100  1
  La  La1  1  0.50000000  0.00000000  0.25598900  1
  Co  Co0  1  0.50000000  0.50000000  0.50000000  1
  Co  Co1  1  0.00000000  0.00000000  0.50000000  1
  Sb  Sb0  1  0.50000000  0.50000000  0.00000000  1
  Sb  Sb1  1  0.00000000  0.00000000  0.00000000  1
  Sb  Sb2  1  0.00000000  0.50000000  0.37256600  1
  Sb  Sb3  1  0.50000000  0.00000000  0.62743400  1
loop_
_geom_bond_atom_site_label_1
_geom_bond_atom_site_label_2
_geom_bond_distance
_geom_bond_site_symmetry_2
La0 Sb3 3.322983 1_555
La0 Sb3 3.322983 1_455
La0 Sb3 3.322983 1_565
La0 Sb3 3.322983 1_465
La0 Sb1 3.381725 1_566
La0 Sb0 3.381725 1_556
La0 Sb1 3.381725 1_556
La0 Sb0 3.381725 1_456
La1 Sb2 3.322983 1_655
La1 Sb2 3.322983 1_645
La1 Sb2 3.322983 1_545
La1 Sb2 3.322983 1_555
La1 Sb0 3.381725 1_545
La1 Sb1 3.381725 1_655
La1 Sb1 3.381725 1_555
La1 Sb0 3.381725 1_555
Co0 Sb3 2.544052 1_565
Co0 Sb3 2.544052 1_555
Co0 Sb2 2.544052 1_655
Co0 Sb2 2.544052 1_555
Co0 La0 3.291343 1_555
Co0 La0 3.291343 1_655
Co0 La1 3.291343 1_555
Co0 La1 3.291343 1_565
Co1 Sb3 2.544052 1_455
Co1 Sb3 2.544052 1_555
Co1 Sb2 2.544052 1_545
Co1 Sb2 2.544052 1_555
Co1 La0 3.291343 1_555
Co1 La0 3.291343 1_545
Co1 La1 3.291343 1_455
Co1 La1 3.291343 1_555
Sb0 Sb1 3.110242 1_565
Sb0 Sb1 3.110242 1_655
Sb0 Sb1 3.110242 1_555
Sb0 Sb1 3.110242 1_665
