# generated using pymatgen
data_CeUB8
_symmetry_space_group_name_H-M   'P 1'
_cell_length_a   7.10838723
_cell_length_b   7.10838723
_cell_length_c   4.01070400
_cell_angle_alpha   90.00000000
_cell_angle_beta   90.00000000
_cell_angle_gamma   90.70013061
_symmetry_Int_Tables_number   1
_chemical_formula_structural   CeUB8
_chemical_formula_sum   'Ce2 U2 B16'
_cell_volume   202.64241043
_cell_formula_units_Z   2
loop_
 _symmetry_equiv_pos_site_id
 _symmetry_equiv_pos_as_xyz
  1  'x, y, z'
loop_
 _atom_site_type_symbol
 _atom_site_label
 _atom_site_symmetry_multiplicity
 _atom_site_fract_x
 _atom_site_fract_y
 _atom_site_fract_z
 _atom_site_occupancy
  Ce  Ce0  1  0.81152000  0.81152000  0.00000000  1
  Ce  Ce1  1  0.18848000  0.18848000  0.00000000  1
  U  U0  1  0.68877100  0.31122900  0.00000000  1
  U  U1  1  0.31122900  0.68877100  0.00000000  1
  B  B0  1  0.00000000  0.50000000  0.79911000  1
  B  B1  1  0.50000000  0.00000000  0.79911000  1
  B  B2  1  0.00000000  0.50000000  0.20089000  1
  B  B3  1  0.50000000  0.00000000  0.20089000  1
  B  B4  1  0.04229100  0.67702200  0.50000000  1
  B  B5  1  0.95770900  0.32297800  0.50000000  1
  B  B6  1  0.46483800  0.17829800  0.50000000  1
  B  B7  1  0.53516200  0.82170200  0.50000000  1
  B  B8  1  0.17829800  0.46483800  0.50000000  1
  B  B9  1  0.82170200  0.53516200  0.50000000  1
  B  B10  1  0.67702200  0.04229100  0.50000000  1
  B  B11  1  0.32297800  0.95770900  0.50000000  1
  B  B12  1  0.58736700  0.58736700  0.50000000  1
  B  B13  1  0.41263300  0.41263300  0.50000000  1
  B  B14  1  0.91192200  0.08807800  0.50000000  1
  B  B15  1  0.08807800  0.91192200  0.50000000  1
loop_
_geom_bond_atom_site_label_1
_geom_bond_atom_site_label_2
_geom_bond_distance
_geom_bond_site_symmetry_2
B0 B2 1.611421 1_556
B0 B4 1.761729 1_555
B0 B5 1.761729 1_455
B0 B8 1.765130 1_555
B0 B9 1.765130 1_455
B0 U1 2.696597 1_556
B0 U0 2.696597 1_456
B0 Ce0 2.724022 1_456
B0 Ce1 2.724022 1_556
B1 B3 1.611421 1_556
B1 B10 1.761729 1_555
B1 B11 1.761729 1_545
B1 B6 1.765130 1_555
B1 B7 1.765130 1_545
B1 U0 2.696597 1_556
B1 U1 2.696597 1_546
B1 Ce1 2.724022 1_556
B1 Ce0 2.724022 1_546
B2 B4 1.761729 1_555
B2 B5 1.761729 1_455
B2 B8 1.765130 1_555
B2 B9 1.765130 1_455
B2 U0 2.696597 1_455
B2 U1 2.696597 1_555
B2 Ce1 2.724022 1_555
B2 Ce0 2.724022 1_455
B3 B6 1.765130 1_555
B3 B7 1.765130 1_545
B3 U1 2.696597 1_545
B3 U0 2.696597 1_555
B3 Ce1 2.724022 1_555
B3 Ce0 2.724022 1_545
B4 B8 1.801457 1_555
B4 B9 1.853900 1_455
B4 Ce0 2.768531 1_455
B4 Ce0 2.768531 1_456
B4 U1 2.771131 1_555
B4 U1 2.771131 1_556
B5 B9 1.801457 1_555
B5 B8 1.853900 1_655
B5 Ce1 2.768531 1_655
B5 Ce1 2.768531 1_656
B5 U0 2.771131 1_555
B5 U0 2.771131 1_556
B6 U0 2.722388 1_556
B6 U0 2.722388 1_555
B6 Ce1 2.808781 1_555
B6 Ce1 2.808781 1_556
B7 U1 2.722388 1_555
B7 U1 2.722388 1_556
B7 Ce0 2.808781 1_556
B7 Ce0 2.808781 1_555
B8 U1 2.722388 1_555
B8 U1 2.722388 1_556
B8 Ce1 2.808781 1_555
B8 Ce1 2.808781 1_556
B9 U0 2.722388 1_555
B9 U0 2.722388 1_556
B9 Ce0 2.808781 1_556
B9 Ce0 2.808781 1_555
B10 B14 1.697277 1_555
B10 B3 1.761729 1_555
B10 B6 1.801457 1_555
B10 B7 1.853900 1_545
B10 Ce0 2.768531 1_546
B10 Ce0 2.768531 1_545
B10 U0 2.771131 1_556
B10 U0 2.771131 1_555
B11 B15 1.697277 1_555
B11 B3 1.761729 1_565
B11 B7 1.801457 1_555
B11 B6 1.853900 1_565
B11 Ce1 2.768531 1_566
B11 Ce1 2.768531 1_565
B11 U1 2.771131 1_555
B11 U1 2.771131 1_556
B12 B9 1.711000 1_555
B12 B7 1.711000 1_555
B12 B13 1.745797 1_555
B12 U0 2.903197 1_555
B12 U1 2.903197 1_555
B12 U1 2.903197 1_556
B12 U0 2.903197 1_556
B12 Ce0 3.006164 1_556
B12 Ce0 3.006164 1_555
B13 B8 1.711000 1_555
B13 B6 1.711000 1_555
B13 U0 2.903197 1_555
B13 U1 2.903197 1_555
B13 U0 2.903197 1_556
B13 U1 2.903197 1_556
B13 Ce1 3.006164 1_555
B13 Ce1 3.006164 1_556
B14 B5 1.697277 1_555
B14 B15 1.781644 1_645
B14 Ce0 2.891574 1_546
B14 Ce0 2.891574 1_545
B14 Ce1 2.891574 1_655
B14 Ce1 2.891574 1_656
B14 U0 3.019150 1_556
B14 U0 3.019150 1_555
B15 B4 1.697277 1_555
B15 Ce0 2.891574 1_456
B15 Ce0 2.891574 1_455
B15 Ce1 2.891574 1_565
B15 Ce1 2.891574 1_566
B15 U1 3.019150 1_555
B15 U1 3.019150 1_556
