# generated using pymatgen
data_Eu2(AlAu2)3
_symmetry_space_group_name_H-M   'P 1'
_cell_length_a   8.83557285
_cell_length_b   8.83557285
_cell_length_c   8.83557369
_cell_angle_alpha   57.39211273
_cell_angle_beta   57.39211273
_cell_angle_gamma   57.39210898
_symmetry_Int_Tables_number   1
_chemical_formula_structural   Eu2(AlAu2)3
_chemical_formula_sum   'Eu4 Al6 Au12'
_cell_volume   458.46994109
_cell_formula_units_Z   2
loop_
 _symmetry_equiv_pos_site_id
 _symmetry_equiv_pos_as_xyz
  1  'x, y, z'
loop_
 _atom_site_type_symbol
 _atom_site_label
 _atom_site_symmetry_multiplicity
 _atom_site_fract_x
 _atom_site_fract_y
 _atom_site_fract_z
 _atom_site_occupancy
  Eu  Eu0  1  0.91105800  0.91105800  0.91105800  1
  Eu  Eu1  1  0.41105800  0.41105800  0.41105800  1
  Eu  Eu2  1  0.08894200  0.08894200  0.08894200  1
  Eu  Eu3  1  0.58894200  0.58894200  0.58894200  1
  Al  Al0  1  0.55346100  0.75000000  0.94653900  1
  Al  Al1  1  0.94653900  0.55346100  0.75000000  1
  Al  Al2  1  0.75000000  0.94653900  0.55346100  1
  Al  Al3  1  0.44653900  0.25000000  0.05346100  1
  Al  Al4  1  0.05346100  0.44653900  0.25000000  1
  Al  Al5  1  0.25000000  0.05346100  0.44653900  1
  Au  Au0  1  0.47575900  0.86842000  0.20296200  1
  Au  Au1  1  0.20296200  0.47575900  0.86842000  1
  Au  Au2  1  0.86842000  0.20296200  0.47575900  1
  Au  Au3  1  0.70296200  0.36842000  0.97575900  1
  Au  Au4  1  0.97575900  0.70296200  0.36842000  1
  Au  Au5  1  0.36842000  0.97575900  0.70296200  1
  Au  Au6  1  0.52424100  0.13158000  0.79703800  1
  Au  Au7  1  0.79703800  0.52424100  0.13158000  1
  Au  Au8  1  0.13158000  0.79703800  0.52424100  1
  Au  Au9  1  0.29703800  0.63158000  0.02424100  1
  Au  Au10  1  0.02424100  0.29703800  0.63158000  1
  Au  Au11  1  0.63158000  0.02424100  0.29703800  1
loop_
_geom_bond_atom_site_label_1
_geom_bond_atom_site_label_2
_geom_bond_distance
_geom_bond_site_symmetry_2
Al0 Au9 2.608360 1_556
Al0 Au0 2.608360 1_556
Al0 Au7 2.633299 1_556
Al0 Au5 2.633299 1_555
Al0 Au3 2.794271 1_555
Al0 Au6 2.794271 1_565
Al1 Au10 2.608360 1_655
Al1 Au1 2.608360 1_655
Al1 Au3 2.633299 1_555
Al1 Au8 2.633299 1_655
Al1 Au7 2.794272 1_556
Al1 Au4 2.794272 1_555
Al2 Au2 2.608360 1_565
Al2 Au11 2.608360 1_565
Al2 Au4 2.633299 1_555
Al2 Au6 2.633299 1_565
Al2 Au8 2.794271 1_655
Al2 Au5 2.794271 1_555
Al3 Au3 2.608360 1_554
Al3 Au6 2.608360 1_554
Al3 Au1 2.633299 1_554
Al3 Au11 2.633299 1_555
Al3 Au9 2.794271 1_555
Al3 Au0 2.794271 1_545
Al4 Au7 2.608360 1_455
Al4 Au4 2.608360 1_455
Al4 Au9 2.633299 1_555
Al4 Au2 2.633299 1_455
Al4 Au10 2.794272 1_555
Al4 Au1 2.794272 1_554
Al5 Au8 2.608360 1_545
Al5 Au5 2.608360 1_545
Al5 Au10 2.633299 1_555
Al5 Au0 2.633299 1_545
Al5 Au2 2.794271 1_455
Al5 Au11 2.794271 1_555
Au0 Au7 2.921878 1_555
Au0 Au8 2.921878 1_555
Au0 Au6 2.980448 1_564
Au0 Au11 2.998599 1_565
Au0 Eu3 3.265913 1_555
Au0 Eu2 3.303106 1_565
Au0 Eu0 3.377835 1_554
Au0 Eu1 3.658769 1_555
Au1 Au6 2.921878 1_555
Au1 Au8 2.921878 1_555
Au1 Au7 2.980448 1_456
Au1 Au9 2.998599 1_556
Au1 Eu3 3.265913 1_555
Au1 Eu2 3.303106 1_556
Au1 Eu0 3.377835 1_455
Au1 Eu1 3.658770 1_555
Au2 Au6 2.921878 1_555
Au2 Au7 2.921878 1_555
Au2 Au8 2.980447 1_645
Au2 Eu3 3.265913 1_555
Au2 Eu2 3.303106 1_655
Au2 Eu0 3.377835 1_545
Au2 Eu1 3.658769 1_555
Au3 Au9 2.980447 1_556
Au3 Au7 2.998599 1_556
Au3 Eu2 3.265913 1_656
Au3 Eu3 3.303106 1_555
Au3 Eu1 3.377835 1_556
Au3 Eu0 3.658769 1_545
Au4 Au9 2.921878 1_655
Au4 Au8 2.998599 1_655
Au4 Eu2 3.265913 1_665
Au4 Eu3 3.303106 1_555
Au4 Eu1 3.377835 1_655
Au4 Eu0 3.658770 1_554
Au5 Au9 2.921878 1_556
Au5 Au6 2.998599 1_565
Au5 Eu2 3.265913 1_566
Au5 Eu3 3.303106 1_555
Au5 Eu1 3.377835 1_565
Au5 Eu0 3.658769 1_455
Au6 Eu1 3.265913 1_555
Au6 Eu0 3.303106 1_545
Au6 Eu2 3.377835 1_556
Au6 Eu3 3.658769 1_555
Au7 Eu1 3.265913 1_555
Au7 Eu0 3.303106 1_554
Au7 Eu2 3.377835 1_655
Au7 Eu3 3.658770 1_555
Au8 Eu1 3.265913 1_555
Au8 Eu0 3.303106 1_455
Au8 Eu2 3.377835 1_565
Au8 Eu3 3.658769 1_555
Au9 Eu0 3.265913 1_454
Au9 Eu1 3.303106 1_555
Au9 Eu3 3.377835 1_554
Au9 Eu2 3.658769 1_565
Au10 Au5 2.921878 1_545
Au10 Au3 2.921878 1_455
Au10 Au4 2.980448 1_455
Au10 Au2 2.998599 1_455
Au10 Eu0 3.265913 1_445
Au10 Eu1 3.303106 1_555
Au10 Eu3 3.377835 1_455
Au10 Eu2 3.658770 1_556
Au11 Au4 2.921878 1_545
Au11 Au3 2.921878 1_554
Au11 Au5 2.980448 1_545
Au11 Eu0 3.265913 1_544
Au11 Eu1 3.303106 1_555
Au11 Eu3 3.377835 1_545
Au11 Eu2 3.658769 1_655
