# generated using pymatgen
data_Fe3Si2Ni3
_symmetry_space_group_name_H-M   'P 1'
_cell_length_a   3.46119500
_cell_length_b   3.62462100
_cell_length_c   7.04984800
_cell_angle_alpha   90.00000000
_cell_angle_beta   90.00000000
_cell_angle_gamma   90.00000000
_symmetry_Int_Tables_number   1
_chemical_formula_structural   Fe3Si2Ni3
_chemical_formula_sum   'Fe3 Si2 Ni3'
_cell_volume   88.44400966
_cell_formula_units_Z   1
loop_
 _symmetry_equiv_pos_site_id
 _symmetry_equiv_pos_as_xyz
  1  'x, y, z'
loop_
 _atom_site_type_symbol
 _atom_site_label
 _atom_site_symmetry_multiplicity
 _atom_site_fract_x
 _atom_site_fract_y
 _atom_site_fract_z
 _atom_site_occupancy
  Fe  Fe0  1  0.50000000  0.50000000  0.25317300  1
  Fe  Fe1  1  0.50000000  0.50000000  0.74682700  1
  Fe  Fe2  1  0.00000000  0.50000000  0.50000000  1
  Si  Si0  1  0.00000000  0.00000000  0.24714000  1
  Si  Si1  1  0.00000000  0.00000000  0.75286000  1
  Ni  Ni0  1  0.00000000  0.50000000  0.00000000  1
  Ni  Ni1  1  0.50000000  0.00000000  0.50000000  1
  Ni  Ni2  1  0.50000000  0.00000000  0.00000000  1
loop_
_geom_bond_atom_site_label_1
_geom_bond_atom_site_label_2
_geom_bond_distance
_geom_bond_site_symmetry_2
Fe0 Fe2 2.454158 1_655
Fe0 Fe2 2.454158 1_555
Fe0 Ni0 2.486079 1_555
Fe0 Ni0 2.486079 1_655
Fe0 Si0 2.506241 1_565
Fe0 Si0 2.506241 1_555
Fe0 Si0 2.506241 1_655
Fe0 Si0 2.506241 1_665
Fe0 Ni1 2.512447 1_555
Fe0 Ni1 2.512447 1_565
Fe0 Ni2 2.543637 1_555
Fe0 Ni2 2.543637 1_565
Fe1 Fe2 2.454158 1_655
Fe1 Fe2 2.454158 1_555
Fe1 Ni0 2.486079 1_656
Fe1 Ni0 2.486079 1_556
Fe1 Si1 2.506241 1_665
Fe1 Si1 2.506241 1_555
Fe1 Si1 2.506241 1_655
Fe1 Si1 2.506241 1_565
Fe1 Ni1 2.512447 1_555
Fe1 Ni1 2.512447 1_565
Fe1 Ni2 2.543637 1_556
Fe1 Ni2 2.543637 1_566
Fe2 Ni1 2.505880 1_555
Fe2 Ni1 2.505880 1_565
Fe2 Ni1 2.505880 1_465
Fe2 Ni1 2.505880 1_455
Fe2 Si0 2.542090 1_555
Fe2 Si0 2.542090 1_565
Fe2 Si1 2.542090 1_565
Fe2 Si1 2.542090 1_555
Ni0 Ni2 2.505880 1_455
Ni0 Ni2 2.505880 1_555
Ni0 Ni2 2.505880 1_565
Ni0 Ni2 2.505880 1_465
Ni0 Si1 2.513976 1_564
Ni0 Si1 2.513976 1_554
Ni0 Si0 2.513976 1_555
Ni0 Si0 2.513976 1_565
Ni1 Si0 2.484496 1_555
Ni1 Si0 2.484496 1_655
Ni1 Si1 2.484496 1_655
Ni1 Si1 2.484496 1_555
Ni2 Si1 2.455723 1_554
Ni2 Si1 2.455723 1_654
Ni2 Si0 2.455723 1_555
Ni2 Si0 2.455723 1_655
