# generated using pymatgen
data_ZnPbF6
_symmetry_space_group_name_H-M   'P 1'
_cell_length_a   5.64952744
_cell_length_b   5.64952784
_cell_length_c   5.64952804
_cell_angle_alpha   53.96839588
_cell_angle_beta   53.96839584
_cell_angle_gamma   53.96840591
_symmetry_Int_Tables_number   1
_chemical_formula_structural   ZnPbF6
_chemical_formula_sum   'Zn1 Pb1 F6'
_cell_volume   109.53813009
_cell_formula_units_Z   1
loop_
 _symmetry_equiv_pos_site_id
 _symmetry_equiv_pos_as_xyz
  1  'x, y, z'
loop_
 _atom_site_type_symbol
 _atom_site_label
 _atom_site_symmetry_multiplicity
 _atom_site_fract_x
 _atom_site_fract_y
 _atom_site_fract_z
 _atom_site_occupancy
  Zn  Zn0  1  0.00000000  0.00000000  -0.00000000  1
  Pb  Pb0  1  0.50000000  0.50000000  0.50000000  1
  F  F0  1  0.39174329  0.09773712  0.75742112  1
  F  F1  1  0.09773712  0.75742112  0.39174329  1
  F  F2  1  0.24257888  0.60825671  0.90226288  1
  F  F3  1  0.90226288  0.24257888  0.60825671  1
  F  F4  1  0.60825671  0.90226288  0.24257888  1
  F  F5  1  0.75742112  0.39174329  0.09773712  1
loop_
_geom_bond_atom_site_label_1
_geom_bond_atom_site_label_2
_geom_bond_distance
_geom_bond_site_symmetry_2
F0 Zn0 2.015019 1_556
F0 Pb0 2.086686 1_555
F1 Zn0 2.015019 1_565
F1 Pb0 2.086686 1_555
F2 Zn0 2.015019 1_566
F2 Pb0 2.086686 1_555
F3 Zn0 2.015019 1_656
F3 Pb0 2.086686 1_555
F4 Zn0 2.015019 1_665
F4 Pb0 2.086686 1_555
F5 Zn0 2.015019 1_655
F5 Pb0 2.086686 1_555
