# generated using pymatgen
data_Li7Mn4CoO12
_symmetry_space_group_name_H-M   'P 1'
_cell_length_a   7.98434438
_cell_length_b   7.98434438
_cell_length_c   10.41118819
_cell_angle_alpha   68.52693277
_cell_angle_beta   68.52693277
_cell_angle_gamma   20.73560959
_symmetry_Int_Tables_number   1
_chemical_formula_structural   Li7Mn4CoO12
_chemical_formula_sum   'Li7 Mn4 Co1 O12'
_cell_volume   218.11303402
_cell_formula_units_Z   1
loop_
 _symmetry_equiv_pos_site_id
 _symmetry_equiv_pos_as_xyz
  1  'x, y, z'
loop_
 _atom_site_type_symbol
 _atom_site_label
 _atom_site_symmetry_multiplicity
 _atom_site_fract_x
 _atom_site_fract_y
 _atom_site_fract_z
 _atom_site_occupancy
  Li  Li0  1  0.49869100  0.49869100  0.25086300  1
  Li  Li1  1  0.49602600  0.49602600  0.75647300  1
  Li  Li2  1  0.17038600  0.17038600  0.24608000  1
  Li  Li3  1  0.16775500  0.16775500  0.74740900  1
  Li  Li4  1  0.83105300  0.83105300  0.24397100  1
  Li  Li5  1  0.83568700  0.83568700  0.75557400  1
  Li  Li6  1  0.33336000  0.33336000  0.99985000  1
  Mn  Mn0  1  0.99647300  0.99647300  0.99675100  1
  Mn  Mn1  1  0.67041100  0.67041100  0.00345000  1
  Mn  Mn2  1  0.00114800  0.00114800  0.50307200  1
  Mn  Mn3  1  0.33174700  0.33174700  0.49902100  1
  Co  Co0  1  0.66723200  0.66723200  0.49790300  1
  O  O0  1  0.42654400  0.42654400  0.11306400  1
  O  O1  1  0.42546700  0.42546700  0.62082700  1
  O  O2  1  0.08593900  0.08593900  0.10678500  1
  O  O3  1  0.09637800  0.09637800  0.61285000  1
  O  O4  1  0.73804200  0.73804200  0.11310200  1
  O  O5  1  0.75794000  0.75794000  0.61675500  1
  O  O6  1  0.57379600  0.57379600  0.38496100  1
  O  O7  1  0.58060600  0.58060600  0.89330800  1
  O  O8  1  0.23940800  0.23940800  0.38295500  1
  O  O9  1  0.23995800  0.23995800  0.88695900  1
  O  O10  1  0.90658200  0.90658200  0.38170800  1
  O  O11  1  0.92935800  0.92935800  0.88631200  1
loop_
_geom_bond_atom_site_label_1
_geom_bond_atom_site_label_2
_geom_bond_distance
_geom_bond_site_symmetry_2
Li0 O10 2.132337 1_545
Li0 O10 2.132337 1_455
Li0 O0 2.133694 1_555
Li0 O6 2.137014 1_555
Li0 O2 2.159390 1_655
Li0 O2 2.159390 1_565
Li1 O11 1.983705 1_545
Li1 O11 1.983705 1_455
Li1 O1 2.094707 1_555
Li1 O3 2.243010 1_655
Li1 O3 2.243010 1_565
Li1 O7 2.281088 1_555
Li2 O4 2.003943 1_455
Li2 O4 2.003943 1_545
Li2 O8 2.087131 1_555
Li2 O6 2.196496 1_545
Li2 O6 2.196496 1_455
Li2 O2 2.300981 1_555
Li3 O3 2.094915 1_555
Li3 O5 2.118407 1_545
Li3 O5 2.118407 1_455
Li3 O9 2.150259 1_555
Li3 O7 2.167571 1_455
Li3 O7 2.167571 1_545
Li4 O0 2.156521 1_565
Li4 O0 2.156521 1_655
Li4 O8 2.163439 1_565
Li4 O8 2.163439 1_655
Li4 O10 2.174899 1_555
Li4 O4 2.339350 1_555
Li5 O1 2.132867 1_655
Li5 O1 2.132867 1_565
Li5 O9 2.160102 1_655
Li5 O9 2.160102 1_565
Li5 O5 2.212223 1_555
Li5 O11 2.346969 1_555
Li6 O4 2.093511 1_456
Li6 O4 2.093511 1_546
Li6 O11 2.099810 1_545
Li6 O11 2.099810 1_455
Li6 O0 2.194521 1_556
Li6 O9 2.194851 1_555
Mn0 O11 1.826378 1_555
Mn0 O0 1.935897 1_566
Mn0 O0 1.935897 1_656
Mn0 O7 1.977822 1_655
Mn0 O7 1.977822 1_565
Mn0 O2 2.117911 1_666
Mn1 O4 1.826060 1_555
Mn1 O9 1.934669 1_564
Mn1 O9 1.934669 1_654
Mn1 O2 1.979975 1_655
Mn1 O2 1.979975 1_565
Mn1 O7 2.123403 1_554
Mn2 O6 1.958225 1_545
Mn2 O6 1.958225 1_455
Mn2 O1 1.973885 1_455
Mn2 O1 1.973885 1_545
Mn2 O3 2.194619 1_555
Mn2 O10 2.280356 1_445
Mn3 O5 1.963062 1_545
Mn3 O5 1.963062 1_455
Mn3 O10 1.967154 1_545
Mn3 O10 1.967154 1_455
Mn3 O8 2.206474 1_555
Mn3 O1 2.272645 1_555
Co0 O3 1.935012 1_655
Co0 O3 1.935012 1_565
Co0 O8 1.942279 1_565
Co0 O8 1.942279 1_655
Co0 O6 2.195731 1_555
Co0 O5 2.207606 1_555
