# generated using pymatgen
data_TbNdCo14B
_symmetry_space_group_name_H-M   'P 1'
_cell_length_a   8.59368800
_cell_length_b   8.59368800
_cell_length_c   11.70697700
_cell_angle_alpha   90.00000000
_cell_angle_beta   90.00000000
_cell_angle_gamma   90.00000000
_symmetry_Int_Tables_number   1
_chemical_formula_structural   TbNdCo14B
_chemical_formula_sum   'Tb4 Nd4 Co56 B4'
_cell_volume   864.57750099
_cell_formula_units_Z   4
loop_
 _symmetry_equiv_pos_site_id
 _symmetry_equiv_pos_as_xyz
  1  'x, y, z'
loop_
 _atom_site_type_symbol
 _atom_site_label
 _atom_site_symmetry_multiplicity
 _atom_site_fract_x
 _atom_site_fract_y
 _atom_site_fract_z
 _atom_site_occupancy
  Tb  Tb0  1  0.22398800  0.77601200  0.50000000  1
  Tb  Tb1  1  0.77601200  0.22398800  0.50000000  1
  Tb  Tb2  1  0.27601200  0.27601200  0.00000000  1
  Tb  Tb3  1  0.72398800  0.72398800  0.00000000  1
  Nd  Nd0  1  0.64344800  0.64344800  0.50000000  1
  Nd  Nd1  1  0.35655200  0.35655200  0.50000000  1
  Nd  Nd2  1  0.85655200  0.14344800  0.00000000  1
  Nd  Nd3  1  0.14344800  0.85655200  0.00000000  1
  Co  Co0  1  0.40095800  0.59904200  0.29543300  1
  Co  Co1  1  0.59904200  0.40095800  0.29543300  1
  Co  Co2  1  0.09904200  0.09904200  0.79543300  1
  Co  Co3  1  0.90095800  0.90095800  0.79543300  1
  Co  Co4  1  0.59904200  0.40095800  0.70456700  1
  Co  Co5  1  0.40095800  0.59904200  0.70456700  1
  Co  Co6  1  0.90095800  0.90095800  0.20456700  1
  Co  Co7  1  0.09904200  0.09904200  0.20456700  1
  Co  Co8  1  0.18222800  0.81777200  0.25460000  1
  Co  Co9  1  0.81777200  0.18222800  0.25460000  1
  Co  Co10  1  0.31777200  0.31777200  0.75460000  1
  Co  Co11  1  0.68222800  0.68222800  0.75460000  1
  Co  Co12  1  0.81777200  0.18222800  0.74540000  1
  Co  Co13  1  0.18222800  0.81777200  0.74540000  1
  Co  Co14  1  0.68222800  0.68222800  0.24540000  1
  Co  Co15  1  0.31777200  0.31777200  0.24540000  1
  Co  Co16  1  0.00000000  0.50000000  0.50000000  1
  Co  Co17  1  0.50000000  0.00000000  0.00000000  1
  Co  Co18  1  0.50000000  0.00000000  0.50000000  1
  Co  Co19  1  0.00000000  0.50000000  0.00000000  1
  Co  Co20  1  0.14034000  0.53750800  0.32199300  1
  Co  Co21  1  0.85966000  0.46249200  0.32199300  1
  Co  Co22  1  0.35966000  0.03750800  0.82199300  1
  Co  Co23  1  0.64034000  0.96249200  0.82199300  1
  Co  Co24  1  0.85966000  0.46249200  0.67800700  1
  Co  Co25  1  0.14034000  0.53750800  0.67800700  1
  Co  Co26  1  0.64034000  0.96249200  0.17800700  1
  Co  Co27  1  0.35966000  0.03750800  0.17800700  1
  Co  Co28  1  0.53750800  0.14034000  0.32199300  1
  Co  Co29  1  0.46249200  0.85966000  0.32199300  1
  Co  Co30  1  0.03750800  0.35966000  0.82199300  1
  Co  Co31  1  0.96249200  0.64034000  0.82199300  1
  Co  Co32  1  0.46249200  0.85966000  0.67800700  1
  Co  Co33  1  0.53750800  0.14034000  0.67800700  1
  Co  Co34  1  0.96249200  0.64034000  0.17800700  1
  Co  Co35  1  0.03750800  0.35966000  0.17800700  1
  Co  Co36  1  0.93189900  0.72409700  0.37382600  1
  Co  Co37  1  0.06810100  0.27590300  0.37382600  1
  Co  Co38  1  0.56810100  0.22409700  0.87382600  1
  Co  Co39  1  0.43189900  0.77590300  0.87382600  1
  Co  Co40  1  0.06810100  0.27590300  0.62617400  1
  Co  Co41  1  0.93189900  0.72409700  0.62617400  1
  Co  Co42  1  0.43189900  0.77590300  0.12617400  1
  Co  Co43  1  0.56810100  0.22409700  0.12617400  1
  Co  Co44  1  0.72409700  0.93189900  0.37382600  1
  Co  Co45  1  0.27590300  0.06810100  0.37382600  1
  Co  Co46  1  0.22409700  0.56810100  0.87382600  1
  Co  Co47  1  0.77590300  0.43189900  0.87382600  1
  Co  Co48  1  0.27590300  0.06810100  0.62617400  1
  Co  Co49  1  0.72409700  0.93189900  0.62617400  1
  Co  Co50  1  0.77590300  0.43189900  0.12617400  1
  Co  Co51  1  0.22409700  0.56810100  0.12617400  1
  Co  Co52  1  0.50000000  0.50000000  0.11563300  1
  Co  Co53  1  0.00000000  0.00000000  0.61563300  1
  Co  Co54  1  0.50000000  0.50000000  0.88436700  1
  Co  Co55  1  0.00000000  0.00000000  0.38436700  1
  B  B0  1  0.87731500  0.87731500  0.50000000  1
  B  B1  1  0.12268500  0.12268500  0.50000000  1
  B  B2  1  0.62268500  0.37731500  0.00000000  1
  B  B3  1  0.37731500  0.62268500  0.00000000  1
loop_
_geom_bond_atom_site_label_1
_geom_bond_atom_site_label_2
_geom_bond_distance
_geom_bond_site_symmetry_2
Co0 Co29 2.322162 1_555
Co0 Co20 2.322162 1_555
Co0 Co1 2.407376 1_555
Co0 Co52 2.424774 1_555
Co0 Co51 2.511404 1_555
Co0 Co42 2.511404 1_555
Co0 Co15 2.587804 1_555
Co0 Co14 2.587804 1_555
Co0 Co8 2.700933 1_555
Co0 Nd1 3.197430 1_555
Co0 Nd0 3.197430 1_555
Co0 Tb0 3.218878 1_555
Co1 Co21 2.322162 1_555
Co1 Co28 2.322162 1_555
Co1 Co52 2.424774 1_555
Co1 Co43 2.511404 1_555
Co1 Co50 2.511404 1_555
Co1 Co14 2.587804 1_555
Co1 Co15 2.587804 1_555
Co1 Co9 2.700933 1_555
Co1 Nd1 3.197430 1_555
Co1 Nd0 3.197430 1_555
Co1 Tb1 3.218878 1_555
Co2 Co30 2.322162 1_555
Co2 Co22 2.322162 1_555
Co2 Co3 2.407376 1_445
Co2 Co53 2.424774 1_555
Co2 Co48 2.511404 1_555
Co2 Co40 2.511404 1_555
Co2 Nd2 3.197430 1_456
Co2 Nd3 3.197430 1_546
Co2 Tb2 3.218878 1_556
Co3 Co31 2.322162 1_555
Co3 Co53 2.424774 1_665
Co3 Co41 2.511404 1_555
Co3 Co49 2.511404 1_555
Co3 Nd2 3.197430 1_566
Co3 Nd3 3.197430 1_656
Co3 Tb3 3.218878 1_556
Co4 Co5 2.407376 1_555
Co4 Co54 2.424774 1_555
Co4 Co47 2.511404 1_555
Co4 Nd1 3.197430 1_555
Co4 Nd0 3.197430 1_555
Co4 Tb1 3.218878 1_555
Co5 Co54 2.424774 1_555
Co5 Nd1 3.197430 1_555
Co5 Nd0 3.197430 1_555
Co5 Tb0 3.218878 1_555
Co6 Co7 2.407376 1_665
Co6 Co9 2.587804 1_565
Co6 Co8 2.587804 1_655
Co6 Nd3 3.197430 1_655
Co6 Nd2 3.197430 1_565
Co6 Tb3 3.218878 1_555
Co7 Co8 2.587804 1_545
Co7 Co9 2.587804 1_455
Co7 Nd3 3.197430 1_545
Co7 Nd2 3.197430 1_455
Co7 Tb2 3.218878 1_555
Co8 Tb0 2.917377 1_555
Co8 Nd3 3.017629 1_555
Co9 Tb1 2.917377 1_555
Co9 Nd2 3.017629 1_555
Co10 Co22 2.559869 1_555
Co10 Co30 2.559869 1_555
Co10 Co25 2.587443 1_555
Co10 Co33 2.587443 1_555
Co10 Co4 2.587804 1_555
Co10 Co5 2.587804 1_555
Co10 Co48 2.644521 1_555
Co10 Co40 2.644521 1_555
Co10 Co54 2.685644 1_555
Co10 Co46 2.687771 1_555
Co10 Co38 2.687771 1_555
Co10 Co2 2.700933 1_555
Co10 Tb2 2.917377 1_556
Co10 Nd1 3.017629 1_555
Co11 Co31 2.559869 1_555
Co11 Co23 2.559869 1_555
Co11 Co24 2.587443 1_555
Co11 Co32 2.587443 1_555
Co11 Co4 2.587804 1_555
Co11 Co5 2.587804 1_555
Co11 Co41 2.644521 1_555
Co11 Co49 2.644521 1_555
Co11 Co54 2.685644 1_555
Co11 Co47 2.687771 1_555
Co11 Co39 2.687771 1_555
Co11 Co3 2.700933 1_555
Co11 Tb3 2.917377 1_556
Co11 Nd0 3.017629 1_555
Co12 Co33 2.559869 1_555
Co12 Co24 2.559869 1_555
Co12 Co23 2.587443 1_545
Co12 Co30 2.587443 1_655
Co12 Co2 2.587804 1_655
Co12 Co3 2.587804 1_545
Co12 Co38 2.644521 1_555
Co12 Co47 2.644521 1_555
Co12 Co53 2.685644 1_655
Co12 Co49 2.687771 1_545
Co12 Co40 2.687771 1_655
Co12 Co4 2.700933 1_555
Co12 Tb1 2.917377 1_555
Co12 Nd2 3.017629 1_556
Co13 Co25 2.559869 1_555
Co13 Co32 2.559869 1_555
Co13 Co31 2.587443 1_455
Co13 Co22 2.587443 1_565
Co13 Co2 2.587804 1_565
Co13 Co3 2.587804 1_455
Co13 Co46 2.644521 1_555
Co13 Co39 2.644521 1_555
Co13 Co53 2.685644 1_565
Co13 Co41 2.687771 1_455
Co13 Co48 2.687771 1_565
Co13 Co5 2.700933 1_555
Co13 Tb0 2.917377 1_555
Co13 Nd3 3.017629 1_556
Co14 Co26 2.559869 1_555
Co14 Co34 2.559869 1_555
Co14 Co21 2.587443 1_555
Co14 Co29 2.587443 1_555
Co14 Co36 2.644521 1_555
Co14 Co44 2.644521 1_555
Co14 Co52 2.685644 1_555
Co14 Co42 2.687771 1_555
Co14 Co50 2.687771 1_555
Co14 Co6 2.700933 1_555
Co14 Tb3 2.917377 1_555
Co14 Nd0 3.017629 1_555
Co15 Co35 2.559869 1_555
Co15 Co27 2.559869 1_555
Co15 Co20 2.587443 1_555
Co15 Co28 2.587443 1_555
Co15 Co45 2.644521 1_555
Co15 Co37 2.644521 1_555
Co15 Co52 2.685644 1_555
Co15 Co43 2.687771 1_555
Co15 Co51 2.687771 1_555
Co15 Co7 2.700933 1_555
Co15 Tb2 2.917377 1_555
Co15 Nd1 3.017629 1_555
Co16 Co25 2.429231 1_555
Co16 Co24 2.429231 1_455
Co16 Co20 2.429231 1_555
Co16 Co21 2.429231 1_455
Co16 Co40 2.496629 1_555
Co16 Co37 2.496629 1_555
Co16 Co41 2.496629 1_455
Co16 Co36 2.496629 1_455
Co16 Tb0 3.054730 1_555
Co16 Tb1 3.054730 1_455
Co16 Nd1 3.302780 1_555
Co16 Nd0 3.302780 1_455
Co17 Co27 2.429231 1_555
Co17 Co22 2.429231 1_554
Co17 Co26 2.429231 1_545
Co17 Co23 2.429231 1_544
Co17 Co42 2.496629 1_545
Co17 Co43 2.496629 1_555
Co17 Co39 2.496629 1_544
Co17 Co38 2.496629 1_554
Co17 Tb2 3.054730 1_555
Co17 Tb3 3.054730 1_545
Co17 Nd3 3.302780 1_545
Co17 Nd2 3.302780 1_555
Co18 Co33 2.429231 1_555
Co18 Co32 2.429231 1_545
Co18 Co28 2.429231 1_555
Co18 Co29 2.429231 1_545
Co18 Co45 2.496629 1_555
Co18 Co48 2.496629 1_555
Co18 Co49 2.496629 1_545
Co18 Co44 2.496629 1_545
Co18 Tb1 3.054730 1_555
Co18 Tb0 3.054730 1_545
Co18 Nd0 3.302780 1_545
Co18 Nd1 3.302780 1_555
Co19 Co35 2.429231 1_555
Co19 Co30 2.429231 1_554
Co19 Co34 2.429231 1_455
Co19 Co31 2.429231 1_454
Co19 Co51 2.496629 1_555
Co19 Co50 2.496629 1_455
Co19 Co46 2.496629 1_554
Co19 Co47 2.496629 1_454
Co19 Tb2 3.054730 1_555
Co19 Tb3 3.054730 1_455
Co19 Nd3 3.302780 1_555
Co19 Nd2 3.302780 1_455
Co20 Co37 2.409936 1_555
Co20 Co51 2.417132 1_555
Co20 Co35 2.440950 1_555
Co20 Co34 2.440950 1_455
Co20 Co36 2.479528 1_455
Co20 Co21 2.496739 1_455
Co20 Co8 2.559869 1_555
Co20 Tb0 3.010059 1_555
Co20 Nd1 3.195840 1_555
Co21 Co36 2.409936 1_555
Co21 Co50 2.417132 1_555
Co21 Co35 2.440950 1_655
Co21 Co34 2.440950 1_555
Co21 Co37 2.479528 1_655
Co21 Co9 2.559869 1_555
Co21 Tb1 3.010059 1_555
Co21 Nd0 3.195840 1_555
Co22 Co39 2.409936 1_545
Co22 Co48 2.417132 1_555
Co22 Co32 2.440950 1_545
Co22 Co33 2.440950 1_555
Co22 Co38 2.479528 1_555
Co22 Co23 2.496739 1_545
Co22 Tb2 3.010059 1_556
Co22 Nd3 3.195840 1_546
Co23 Co3 2.322162 1_555
Co23 Co38 2.409936 1_565
Co23 Co49 2.417132 1_555
Co23 Co32 2.440950 1_555
Co23 Co33 2.440950 1_565
Co23 Co39 2.479528 1_555
Co23 Tb3 3.010059 1_556
Co23 Nd2 3.195840 1_566
Co24 Co4 2.322162 1_555
Co24 Co41 2.409936 1_555
Co24 Co47 2.417132 1_555
Co24 Co30 2.440950 1_655
Co24 Co31 2.440950 1_555
Co24 Co40 2.479528 1_655
Co24 Co25 2.496739 1_655
Co24 Tb1 3.010059 1_555
Co24 Nd0 3.195840 1_555
Co25 Co5 2.322162 1_555
Co25 Co40 2.409936 1_555
Co25 Co46 2.417132 1_555
Co25 Co30 2.440950 1_555
Co25 Co31 2.440950 1_455
Co25 Co41 2.479528 1_455
Co25 Tb0 3.010059 1_555
Co25 Nd1 3.195840 1_555
Co26 Co6 2.322162 1_555
Co26 Co43 2.409936 1_565
Co26 Co44 2.417132 1_555
Co26 Co29 2.440950 1_555
Co26 Co28 2.440950 1_565
Co26 Co42 2.479528 1_555
Co26 Co27 2.496739 1_565
Co26 Co9 2.587443 1_565
Co26 Tb3 3.010059 1_555
Co26 Nd2 3.195840 1_565
Co27 Co7 2.322162 1_555
Co27 Co42 2.409936 1_545
Co27 Co45 2.417132 1_555
Co27 Co29 2.440950 1_545
Co27 Co28 2.440950 1_555
Co27 Co43 2.479528 1_555
Co27 Co8 2.587443 1_545
Co27 Tb2 3.010059 1_555
Co27 Nd3 3.195840 1_545
Co28 Co45 2.409936 1_555
Co28 Co43 2.417132 1_555
Co28 Co44 2.479528 1_545
Co28 Co29 2.496739 1_545
Co28 Co9 2.559869 1_555
Co28 Tb1 3.010059 1_555
Co28 Nd1 3.195840 1_555
Co29 Co44 2.409936 1_555
Co29 Co42 2.417132 1_555
Co29 Co45 2.479528 1_565
Co29 Co8 2.559869 1_555
Co29 Tb0 3.010059 1_555
Co29 Nd0 3.195840 1_555
Co30 Co47 2.409936 1_455
Co30 Co40 2.417132 1_555
Co30 Co46 2.479528 1_555
Co30 Co31 2.496739 1_455
Co30 Tb2 3.010059 1_556
Co30 Nd2 3.195840 1_456
Co31 Co46 2.409936 1_655
Co31 Co41 2.417132 1_555
Co31 Co47 2.479528 1_555
Co31 Tb3 3.010059 1_556
Co31 Nd3 3.195840 1_656
Co32 Co5 2.322162 1_555
Co32 Co49 2.409936 1_555
Co32 Co39 2.417132 1_555
Co32 Co48 2.479528 1_565
Co32 Co33 2.496739 1_565
Co32 Tb0 3.010059 1_555
Co32 Nd0 3.195840 1_555
Co33 Co4 2.322162 1_555
Co33 Co48 2.409936 1_555
Co33 Co38 2.417132 1_555
Co33 Co49 2.479528 1_545
Co33 Tb1 3.010059 1_555
Co33 Nd1 3.195840 1_555
Co34 Co6 2.322162 1_555
Co34 Co51 2.409936 1_655
Co34 Co36 2.417132 1_555
Co34 Co50 2.479528 1_555
Co34 Co35 2.496739 1_655
Co34 Co8 2.587443 1_655
Co34 Tb3 3.010059 1_555
Co34 Nd3 3.195840 1_655
Co35 Co7 2.322162 1_555
Co35 Co50 2.409936 1_455
Co35 Co37 2.417132 1_555
Co35 Co51 2.479528 1_555
Co35 Co9 2.587443 1_455
Co35 Tb2 3.010059 1_555
Co35 Nd2 3.195840 1_455
Co36 Co6 2.511404 1_555
Co36 Co8 2.687771 1_655
Co36 Tb0 2.946460 1_655
Co36 Nd0 2.967652 1_555
Co37 Co7 2.511404 1_555
Co37 Co9 2.687771 1_455
Co37 Tb1 2.946460 1_455
Co37 Nd1 2.967652 1_555
Co38 Co4 2.511404 1_555
Co38 Tb2 2.946460 1_556
Co38 Nd2 2.967652 1_556
Co39 Co5 2.511404 1_555
Co39 Tb3 2.946460 1_556
Co39 Nd3 2.967652 1_556
Co40 Tb1 2.946460 1_455
Co40 Nd1 2.967652 1_555
Co41 Tb0 2.946460 1_655
Co41 Nd0 2.967652 1_555
Co42 Co8 2.644521 1_555
Co42 Tb3 2.946460 1_555
Co42 Nd3 2.967652 1_555
Co43 Co9 2.644521 1_555
Co43 Tb2 2.946460 1_555
Co43 Nd2 2.967652 1_555
Co44 Co6 2.511404 1_555
Co44 Co9 2.687771 1_565
Co44 Tb1 2.946460 1_565
Co44 Nd0 2.967652 1_555
Co45 Co7 2.511404 1_555
Co45 Co8 2.687771 1_545
Co45 Tb0 2.946460 1_545
Co45 Nd1 2.967652 1_555
Co46 Co5 2.511404 1_555
Co46 Tb2 2.946460 1_556
Co46 Nd3 2.967652 1_556
Co47 Tb3 2.946460 1_556
Co47 Nd2 2.967652 1_556
Co48 Tb0 2.946460 1_545
Co48 Nd1 2.967652 1_555
Co49 Tb1 2.946460 1_565
Co49 Nd0 2.967652 1_555
Co50 Co9 2.644521 1_555
Co50 Tb3 2.946460 1_555
Co50 Nd2 2.967652 1_555
Co51 Co8 2.644521 1_555
Co51 Tb2 2.946460 1_555
Co51 Nd3 2.967652 1_555
Co52 Tb3 3.040212 1_555
Co52 Tb2 3.040212 1_555
Co53 Tb0 3.040212 1_545
Co53 Tb1 3.040212 1_455
Co54 Tb3 3.040212 1_556
Co54 Tb2 3.040212 1_556
Co55 Co7 2.424774 1_555
Co55 Co6 2.424774 1_445
Co55 Co8 2.685644 1_545
Co55 Co9 2.685644 1_455
Co55 Tb0 3.040212 1_545
Co55 Tb1 3.040212 1_455
B0 Co53 2.013878 1_665
B0 Co55 2.013878 1_665
B0 Co49 2.033624 1_555
B0 Co36 2.033624 1_555
B0 Co44 2.033624 1_555
B0 Co41 2.033624 1_555
B0 Nd0 2.842258 1_555
B0 Tb1 3.103791 1_565
B0 Tb0 3.103791 1_655
B1 Co53 2.013878 1_555
B1 Co55 2.013878 1_555
B1 Co40 2.033624 1_555
B1 Co37 2.033624 1_555
B1 Co48 2.033624 1_555
B1 Co45 2.033624 1_555
B1 Nd1 2.842258 1_555
B1 Tb1 3.103791 1_455
B1 Tb0 3.103791 1_545
B2 Co54 2.013878 1_554
B2 Co52 2.013878 1_555
B2 Co43 2.033624 1_555
B2 Co38 2.033624 1_554
B2 Co50 2.033624 1_555
B2 Co47 2.033624 1_554
B2 Nd2 2.842258 1_555
B2 Tb2 3.103791 1_555
B2 Tb3 3.103791 1_555
B3 Co54 2.013878 1_554
B3 Co52 2.013878 1_555
B3 Co51 2.033624 1_555
B3 Co46 2.033624 1_554
B3 Co42 2.033624 1_555
B3 Co39 2.033624 1_554
B3 Nd3 2.842258 1_555
B3 Tb2 3.103791 1_555
B3 Tb3 3.103791 1_555
