# generated using pymatgen
data_CeSe2
_symmetry_space_group_name_H-M   'P 1'
_cell_length_a   8.58256654
_cell_length_b   8.58256654
_cell_length_c   8.58256654
_cell_angle_alpha   60.00000000
_cell_angle_beta   60.00000000
_cell_angle_gamma   60.00000000
_symmetry_Int_Tables_number   1
_chemical_formula_structural   CeSe2
_chemical_formula_sum   'Ce4 Se8'
_cell_volume   447.02986633
_cell_formula_units_Z   4
loop_
 _symmetry_equiv_pos_site_id
 _symmetry_equiv_pos_as_xyz
  1  'x, y, z'
loop_
 _atom_site_type_symbol
 _atom_site_label
 _atom_site_symmetry_multiplicity
 _atom_site_fract_x
 _atom_site_fract_y
 _atom_site_fract_z
 _atom_site_occupancy
  Ce  Ce0  1  0.12500000  0.12500000  0.12500000  1
  Ce  Ce1  1  0.12500000  0.12500000  0.62500000  1
  Ce  Ce2  1  0.12500000  0.62500000  0.12500000  1
  Ce  Ce3  1  0.62500000  0.12500000  0.12500000  1
  Se  Se0  1  0.88787200  0.88787200  0.88787200  1
  Se  Se1  1  0.88787200  0.88787200  0.33638300  1
  Se  Se2  1  0.88787200  0.33638300  0.88787200  1
  Se  Se3  1  0.33638300  0.88787200  0.88787200  1
  Se  Se4  1  0.36212800  0.36212800  0.36212800  1
  Se  Se5  1  0.36212800  0.36212800  0.91361700  1
  Se  Se6  1  0.36212800  0.91361700  0.36212800  1
  Se  Se7  1  0.91361700  0.36212800  0.36212800  1
loop_
_geom_bond_atom_site_label_1
_geom_bond_atom_site_label_2
_geom_bond_distance
_geom_bond_site_symmetry_2
Ce0 Se2 2.886630 1_454
Ce0 Se5 2.886630 1_554
Ce0 Se6 2.886630 1_545
Ce0 Se1 2.886630 1_445
Ce0 Se3 2.886630 1_544
Ce0 Se7 2.886630 1_455
Ce1 Se7 2.886623 1_455
Ce1 Se3 2.886623 1_545
Ce1 Se6 2.886623 1_545
Ce1 Se2 2.886623 1_455
Ce1 Se0 2.886629 1_445
Ce1 Se4 2.886629 1_555
Ce2 Se3 2.886623 1_554
Ce2 Se1 2.886623 1_455
Ce2 Se7 2.886623 1_455
Ce2 Se5 2.886623 1_554
Ce2 Se4 2.886629 1_555
Ce2 Se0 2.886629 1_454
Ce3 Se6 2.886623 1_545
Ce3 Se1 2.886623 1_545
Ce3 Se2 2.886623 1_554
Ce3 Se5 2.886623 1_554
Ce3 Se0 2.886629 1_544
Ce3 Se4 2.886629 1_555
