# generated using pymatgen
data_La13Hg58
_symmetry_space_group_name_H-M   'P 1'
_cell_length_a   15.83303944
_cell_length_b   16.36759821
_cell_length_c   16.36759821
_cell_angle_alpha   119.99939633
_cell_angle_beta   90.00000000
_cell_angle_gamma   90.00000000
_symmetry_Int_Tables_number   1
_chemical_formula_structural   La13Hg58
_chemical_formula_sum   'La26 Hg116'
_cell_volume   3673.39371220
_cell_formula_units_Z   2
loop_
 _symmetry_equiv_pos_site_id
 _symmetry_equiv_pos_as_xyz
  1  'x, y, z'
loop_
 _atom_site_type_symbol
 _atom_site_label
 _atom_site_symmetry_multiplicity
 _atom_site_fract_x
 _atom_site_fract_y
 _atom_site_fract_z
 _atom_site_occupancy
  La  La0  1  0.50000000  0.00000000  -0.00000000  1
  La  La1  1  -0.00000000  0.00000000  -0.00000000  1
  La  La2  1  0.75000000  0.45606032  0.91211974  1
  La  La3  1  0.75000000  0.45606396  0.54393604  1
  La  La4  1  0.75000000  0.08788026  0.54393968  1
  La  La5  1  0.25000000  0.54393968  0.08788026  1
  La  La6  1  0.25000000  0.54393604  0.45606396  1
  La  La7  1  0.25000000  0.91211974  0.45606032  1
  La  La8  1  0.75000000  0.12573225  0.25146002  1
  La  La9  1  0.75000000  0.12572116  0.87427884  1
  La  La10  1  0.75000000  0.74853998  0.87426775  1
  La  La11  1  0.25000000  0.87426775  0.74853998  1
  La  La12  1  0.25000000  0.87427884  0.12572116  1
  La  La13  1  0.25000000  0.25146002  0.12573225  1
  La  La14  1  0.55418156  0.79420252  0.58841193  1
  La  La15  1  0.55420137  0.79420444  0.20579556  1
  La  La16  1  0.55418156  0.41158807  0.20579748  1
  La  La17  1  0.44581844  0.20579748  0.41158807  1
  La  La18  1  0.44579863  0.20579556  0.79420444  1
  La  La19  1  0.44581844  0.58841193  0.79420252  1
  La  La20  1  0.05418156  0.20579748  0.41158807  1
  La  La21  1  0.05420137  0.20579556  0.79420444  1
  La  La22  1  0.05418156  0.58841193  0.79420252  1
  La  La23  1  0.94581844  0.79420252  0.58841193  1
  La  La24  1  0.94579863  0.79420444  0.20579556  1
  La  La25  1  0.94581844  0.41158807  0.20579748  1
  Hg  Hg0  1  0.75000000  0.99999825  0.00000175  1
  Hg  Hg1  1  0.25000000  0.00000175  0.99999825  1
  Hg  Hg2  1  0.25000000  0.66667322  0.33332678  1
  Hg  Hg3  1  0.75000000  0.33332678  0.66667322  1
  Hg  Hg4  1  0.59225620  0.66667932  0.33332068  1
  Hg  Hg5  1  0.40774380  0.33332068  0.66667932  1
  Hg  Hg6  1  0.09225620  0.33332068  0.66667932  1
  Hg  Hg7  1  0.90774380  0.66667932  0.33332068  1
  Hg  Hg8  1  0.50000000  0.50000000  -0.00000000  1
  Hg  Hg9  1  0.50000000  0.50000000  0.50000000  1
  Hg  Hg10  1  0.50000000  0.00000000  0.50000000  1
  Hg  Hg11  1  -0.00000000  0.50000000  -0.00000000  1
  Hg  Hg12  1  -0.00000000  0.50000000  0.50000000  1
  Hg  Hg13  1  -0.00000000  0.00000000  0.50000000  1
  Hg  Hg14  1  0.75000000  0.73295824  0.46591935  1
  Hg  Hg15  1  0.75000000  0.73296652  0.26703348  1
  Hg  Hg16  1  0.75000000  0.53408065  0.26704176  1
  Hg  Hg17  1  0.25000000  0.26704176  0.53408065  1
  Hg  Hg18  1  0.25000000  0.26703348  0.73296652  1
  Hg  Hg19  1  0.25000000  0.46591935  0.73295824  1
  Hg  Hg20  1  0.49999897  0.80152083  0.00000133  1
  Hg  Hg21  1  0.50000000  0.19848145  0.19848145  1
  Hg  Hg22  1  0.50000103  0.00000133  0.80152083  1
  Hg  Hg23  1  0.50000103  0.19847917  0.99999867  1
  Hg  Hg24  1  0.49999897  0.99999867  0.19847917  1
  Hg  Hg25  1  0.50000000  0.80151855  0.80151855  1
  Hg  Hg26  1  0.99999897  0.19847917  0.99999867  1
  Hg  Hg27  1  -0.00000000  0.80151855  0.80151855  1
  Hg  Hg28  1  0.00000103  0.99999867  0.19847917  1
  Hg  Hg29  1  0.00000103  0.80152083  0.00000133  1
  Hg  Hg30  1  0.99999897  0.00000133  0.80152083  1
  Hg  Hg31  1  -0.00000000  0.19848145  0.19848145  1
  Hg  Hg32  1  0.75000000  0.92114900  0.64567553  1
  Hg  Hg33  1  0.75000000  0.72452833  0.07884294  1
  Hg  Hg34  1  0.75000000  0.35432143  0.27547286  1
  Hg  Hg35  1  0.75000000  0.72452714  0.64567857  1
  Hg  Hg36  1  0.75000000  0.35432447  0.07885100  1
  Hg  Hg37  1  0.75000000  0.92115706  0.27547167  1
  Hg  Hg38  1  0.25000000  0.07885100  0.35432447  1
  Hg  Hg39  1  0.25000000  0.27547167  0.92115706  1
  Hg  Hg40  1  0.25000000  0.64567857  0.72452714  1
  Hg  Hg41  1  0.25000000  0.27547286  0.35432143  1
  Hg  Hg42  1  0.25000000  0.64567553  0.92114900  1
  Hg  Hg43  1  0.25000000  0.07884294  0.72452833  1
  Hg  Hg44  1  0.65671627  0.90660492  0.81320850  1
  Hg  Hg45  1  0.65671804  0.90660437  0.09339563  1
  Hg  Hg46  1  0.65671627  0.18679150  0.09339508  1
  Hg  Hg47  1  0.34328373  0.09339508  0.18679150  1
  Hg  Hg48  1  0.34328196  0.09339563  0.90660437  1
  Hg  Hg49  1  0.34328373  0.81320850  0.90660492  1
  Hg  Hg50  1  0.15671627  0.09339508  0.18679150  1
  Hg  Hg51  1  0.15671804  0.09339563  0.90660437  1
  Hg  Hg52  1  0.15671627  0.81320850  0.90660492  1
  Hg  Hg53  1  0.84328373  0.90660492  0.81320850  1
  Hg  Hg54  1  0.84328196  0.90660437  0.09339563  1
  Hg  Hg55  1  0.84328373  0.18679150  0.09339508  1
  Hg  Hg56  1  0.14812161  0.44005952  0.88012158  1
  Hg  Hg57  1  0.14811490  0.44005816  0.55994184  1
  Hg  Hg58  1  0.14812161  0.11987842  0.55994048  1
  Hg  Hg59  1  0.85187839  0.55994048  0.11987842  1
  Hg  Hg60  1  0.85188510  0.55994184  0.44005816  1
  Hg  Hg61  1  0.85187839  0.88012158  0.44005952  1
  Hg  Hg62  1  0.64812161  0.55994048  0.11987842  1
  Hg  Hg63  1  0.64811490  0.55994184  0.44005816  1
  Hg  Hg64  1  0.64812161  0.88012158  0.44005952  1
  Hg  Hg65  1  0.35187839  0.44005952  0.88012158  1
  Hg  Hg66  1  0.35188510  0.44005816  0.55994184  1
  Hg  Hg67  1  0.35187839  0.11987842  0.55994048  1
  Hg  Hg68  1  0.55725430  0.39913742  0.79827929  1
  Hg  Hg69  1  0.55724204  0.39913336  0.60086664  1
  Hg  Hg70  1  0.55725430  0.20172071  0.60086258  1
  Hg  Hg71  1  0.44274570  0.60086258  0.20172071  1
  Hg  Hg72  1  0.44275796  0.60086664  0.39913336  1
  Hg  Hg73  1  0.44274570  0.79827929  0.39913742  1
  Hg  Hg74  1  0.05725430  0.60086258  0.20172071  1
  Hg  Hg75  1  0.05724204  0.60086664  0.39913336  1
  Hg  Hg76  1  0.05725430  0.79827929  0.39913742  1
  Hg  Hg77  1  0.94274570  0.39913742  0.79827929  1
  Hg  Hg78  1  0.94275796  0.39913336  0.60086664  1
  Hg  Hg79  1  0.94274570  0.20172071  0.60086258  1
  Hg  Hg80  1  0.15839229  0.76791589  0.53583609  1
  Hg  Hg81  1  0.15839082  0.76792337  0.23207663  1
  Hg  Hg82  1  0.15839229  0.46416391  0.23208411  1
  Hg  Hg83  1  0.84160771  0.23208411  0.46416391  1
  Hg  Hg84  1  0.84160918  0.23207663  0.76792337  1
  Hg  Hg85  1  0.84160771  0.53583609  0.76791589  1
  Hg  Hg86  1  0.65839229  0.23208411  0.46416391  1
  Hg  Hg87  1  0.65839082  0.23207663  0.76792337  1
  Hg  Hg88  1  0.65839229  0.53583609  0.76791589  1
  Hg  Hg89  1  0.34160771  0.76791589  0.53583609  1
  Hg  Hg90  1  0.34160918  0.76792337  0.23207663  1
  Hg  Hg91  1  0.34160771  0.46416391  0.23208411  1
  Hg  Hg92  1  0.60300135  0.63680592  0.96293618  1
  Hg  Hg93  1  0.60299952  0.32613791  0.36319787  1
  Hg  Hg94  1  0.60299959  0.03705793  0.67386204  1
  Hg  Hg95  1  0.60299959  0.32613796  0.96294207  1
  Hg  Hg96  1  0.60300135  0.03706382  0.36319408  1
  Hg  Hg97  1  0.60299952  0.63680213  0.67386209  1
  Hg  Hg98  1  0.39699865  0.36319408  0.03706382  1
  Hg  Hg99  1  0.39700048  0.67386209  0.63680213  1
  Hg  Hg100  1  0.39700041  0.96294207  0.32613796  1
  Hg  Hg101  1  0.39700041  0.67386204  0.03705793  1
  Hg  Hg102  1  0.39699865  0.96293618  0.63680592  1
  Hg  Hg103  1  0.39700048  0.36319787  0.32613791  1
  Hg  Hg104  1  0.10300135  0.36319408  0.03706382  1
  Hg  Hg105  1  0.10299952  0.67386209  0.63680213  1
  Hg  Hg106  1  0.10299959  0.96294207  0.32613796  1
  Hg  Hg107  1  0.10299959  0.67386204  0.03705793  1
  Hg  Hg108  1  0.10300135  0.96293618  0.63680592  1
  Hg  Hg109  1  0.10299952  0.36319787  0.32613791  1
  Hg  Hg110  1  0.89699865  0.63680592  0.96293618  1
  Hg  Hg111  1  0.89700048  0.32613791  0.36319787  1
  Hg  Hg112  1  0.89700041  0.03705793  0.67386204  1
  Hg  Hg113  1  0.89700041  0.32613796  0.96294207  1
  Hg  Hg114  1  0.89699865  0.03706382  0.36319408  1
  Hg  Hg115  1  0.89700048  0.63680213  0.67386209  1
loop_
_geom_bond_atom_site_label_1
_geom_bond_atom_site_label_2
_geom_bond_distance
_geom_bond_site_symmetry_2
Hg0 Hg54 3.031742 1_555
Hg0 Hg45 3.031742 1_555
Hg0 Hg53 3.031845 1_554
Hg0 Hg44 3.031845 1_554
Hg0 Hg46 3.031845 1_565
Hg0 Hg55 3.031845 1_565
Hg0 La9 3.564172 1_564
Hg0 La10 3.564381 1_554
Hg0 La8 3.564381 1_565
Hg0 La0 3.958260 1_565
Hg0 La1 3.958260 1_665
Hg1 Hg51 3.031742 1_555
Hg1 Hg48 3.031742 1_555
Hg1 Hg52 3.031845 1_545
Hg1 Hg49 3.031845 1_545
Hg1 Hg50 3.031845 1_556
Hg1 Hg47 3.031845 1_556
Hg1 La12 3.564172 1_546
Hg1 La13 3.564381 1_556
Hg1 La11 3.564381 1_545
Hg1 La1 3.958260 1_556
Hg1 La0 3.958260 1_556
Hg2 Hg81 3.216040 1_555
Hg2 Hg90 3.216040 1_555
Hg2 Hg80 3.216167 1_555
Hg2 Hg89 3.216167 1_555
Hg2 Hg91 3.216167 1_555
Hg2 Hg82 3.216167 1_555
Hg2 La5 3.479166 1_555
Hg2 La7 3.479166 1_555
Hg2 La6 3.479529 1_555
Hg3 Hg87 3.216040 1_555
Hg3 Hg84 3.216040 1_555
Hg3 Hg88 3.216167 1_555
Hg3 Hg85 3.216167 1_555
Hg3 Hg83 3.216167 1_555
Hg3 Hg86 3.216167 1_555
Hg3 La2 3.479166 1_555
Hg3 La4 3.479166 1_555
Hg3 La3 3.479529 1_555
Hg4 Hg73 3.013870 1_555
Hg4 Hg71 3.013870 1_555
Hg4 Hg72 3.013930 1_555
Hg4 Hg62 3.152156 1_555
Hg4 Hg64 3.152156 1_555
Hg4 Hg63 3.152545 1_555
Hg4 La15 3.665129 1_555
Hg4 La16 3.665786 1_555
Hg4 La14 3.665786 1_555
Hg5 Hg70 3.013870 1_555
Hg5 Hg68 3.013870 1_555
Hg5 Hg69 3.013930 1_555
Hg5 Hg67 3.152156 1_555
Hg5 Hg65 3.152156 1_555
Hg5 Hg66 3.152545 1_555
Hg5 La18 3.665129 1_555
Hg5 La17 3.665786 1_555
Hg5 La19 3.665786 1_555
Hg6 Hg79 3.013870 1_455
Hg6 Hg77 3.013870 1_455
Hg6 Hg78 3.013930 1_455
Hg6 La21 3.665129 1_555
Hg6 La20 3.665786 1_555
Hg6 La22 3.665786 1_555
Hg7 Hg76 3.013870 1_655
Hg7 Hg74 3.013870 1_655
Hg7 Hg75 3.013930 1_655
Hg7 La24 3.665129 1_555
Hg7 La25 3.665786 1_555
Hg7 La23 3.665786 1_555
Hg8 Hg95 3.065845 1_554
Hg8 Hg98 3.065929 1_555
Hg8 Hg92 3.065929 1_554
Hg9 Hg99 3.065850 1_555
Hg9 Hg93 3.065850 1_555
Hg9 Hg97 3.065850 1_555
Hg10 Hg64 2.896120 1_545
Hg10 Hg67 2.896120 1_555
Hg10 Hg70 2.999616 1_555
Hg10 Hg73 2.999616 1_545
Hg10 Hg100 3.065845 1_545
Hg10 Hg94 3.065845 1_555
Hg10 Hg96 3.065929 1_555
Hg10 Hg102 3.065929 1_545
Hg11 Hg56 2.896120 1_554
Hg11 Hg59 2.896120 1_455
Hg11 Hg74 2.999616 1_555
Hg11 Hg77 2.999616 1_454
Hg11 Hg113 3.065845 1_454
Hg11 Hg110 3.065929 1_454
Hg12 Hg57 2.896069 1_555
Hg12 Hg60 2.896069 1_455
Hg12 Hg78 2.999702 1_455
Hg12 Hg75 2.999702 1_555
Hg13 Hg61 2.896120 1_445
Hg13 Hg58 2.896120 1_555
Hg13 Hg76 2.999616 1_545
Hg13 Hg79 2.999616 1_455
Hg14 Hg35 3.013594 1_555
Hg14 Hg32 3.013604 1_555
Hg14 Hg60 3.098743 1_555
Hg14 Hg63 3.098743 1_555
Hg14 Hg64 3.098782 1_555
Hg14 Hg61 3.098782 1_555
Hg14 Hg4 3.125794 1_555
Hg14 Hg7 3.125794 1_555
Hg14 Hg16 3.255178 1_555
Hg14 Hg15 3.255352 1_555
Hg14 La23 3.553487 1_555
Hg14 La14 3.553487 1_555
Hg15 Hg37 3.013547 1_555
Hg15 Hg33 3.013547 1_555
Hg15 Hg64 3.098786 1_555
Hg15 Hg61 3.098786 1_555
Hg15 Hg62 3.098786 1_555
Hg15 Hg59 3.098786 1_555
Hg15 Hg7 3.125577 1_555
Hg15 Hg4 3.125577 1_555
Hg15 Hg16 3.255352 1_555
Hg15 La15 3.553090 1_555
Hg15 La24 3.553090 1_555
Hg16 Hg34 3.013594 1_555
Hg16 Hg36 3.013604 1_555
Hg16 Hg60 3.098743 1_555
Hg16 Hg63 3.098743 1_555
Hg16 Hg62 3.098782 1_555
Hg16 Hg59 3.098782 1_555
Hg16 Hg4 3.125794 1_555
Hg16 Hg7 3.125794 1_555
Hg16 La16 3.553487 1_555
Hg16 La25 3.553487 1_555
Hg17 Hg41 3.013594 1_555
Hg17 Hg38 3.013604 1_555
Hg17 Hg57 3.098743 1_555
Hg17 Hg66 3.098743 1_555
Hg17 Hg58 3.098782 1_555
Hg17 Hg67 3.098782 1_555
Hg17 Hg5 3.125794 1_555
Hg17 Hg6 3.125794 1_555
Hg17 Hg19 3.255178 1_555
Hg17 Hg18 3.255352 1_555
Hg17 La17 3.553487 1_555
Hg17 La20 3.553487 1_555
Hg18 Hg39 3.013547 1_555
Hg18 Hg43 3.013547 1_555
Hg18 Hg65 3.098786 1_555
Hg18 Hg56 3.098786 1_555
Hg18 Hg67 3.098786 1_555
Hg18 Hg58 3.098786 1_555
Hg18 Hg6 3.125577 1_555
Hg18 Hg5 3.125577 1_555
Hg18 Hg19 3.255352 1_555
Hg18 La21 3.553090 1_555
Hg18 La18 3.553090 1_555
Hg19 Hg40 3.013594 1_555
Hg19 Hg42 3.013604 1_555
Hg19 Hg66 3.098743 1_555
Hg19 Hg57 3.098743 1_555
Hg19 Hg65 3.098782 1_555
Hg19 Hg56 3.098782 1_555
Hg19 Hg5 3.125794 1_555
Hg19 Hg6 3.125794 1_555
Hg19 La22 3.553487 1_555
Hg19 La19 3.553487 1_555
Hg20 Hg92 2.942872 1_554
Hg20 Hg49 2.970289 1_554
Hg20 Hg45 2.970338 1_555
Hg20 Hg24 3.248635 1_555
Hg20 La0 3.248638 1_565
Hg20 Hg25 3.248668 1_554
Hg20 La19 3.535504 1_554
Hg20 La15 3.535537 1_555
Hg21 Hg93 2.942901 1_555
Hg21 Hg46 2.970316 1_555
Hg21 Hg47 2.970316 1_555
Hg21 Hg24 3.248668 1_545
Hg21 Hg23 3.248668 1_554
Hg21 La0 3.248694 1_555
Hg21 La17 3.535398 1_555
Hg21 La16 3.535398 1_555
Hg22 Hg94 2.942871 1_555
Hg22 Hg44 2.970289 1_545
Hg22 Hg48 2.970338 1_555
Hg22 Hg23 3.248635 1_555
Hg22 La0 3.248638 1_556
Hg22 Hg25 3.248668 1_545
Hg22 La14 3.535504 1_545
Hg22 La18 3.535537 1_555
Hg23 Hg95 2.942871 1_555
Hg23 Hg98 2.942872 1_556
Hg23 Hg46 2.970289 1_556
Hg23 Hg48 2.970338 1_555
Hg23 La0 3.248638 1_556
Hg23 La16 3.535504 1_556
Hg23 La18 3.535537 1_555
Hg24 Hg96 2.942872 1_565
Hg24 Hg47 2.970289 1_565
Hg24 Hg45 2.970338 1_555
Hg24 La0 3.248638 1_565
Hg24 La17 3.535504 1_565
Hg24 La15 3.535537 1_555
Hg25 Hg99 2.942901 1_555
Hg25 Hg97 2.942901 1_555
Hg25 Hg49 2.970316 1_555
Hg25 Hg44 2.970316 1_555
Hg25 La0 3.248694 1_566
Hg25 La14 3.535398 1_555
Hg25 La19 3.535398 1_555
Hg26 Hg55 2.970289 1_556
Hg26 Hg51 2.970338 1_655
Hg26 Hg30 3.248635 1_555
Hg26 La1 3.248638 1_656
Hg26 Hg31 3.248668 1_656
Hg26 La25 3.535504 1_556
Hg26 La21 3.535537 1_655
Hg27 Hg52 2.970316 1_555
Hg27 Hg53 2.970316 1_455
Hg27 Hg30 3.248668 1_465
Hg27 Hg29 3.248668 1_556
Hg27 La1 3.248694 1_566
Hg27 La23 3.535398 1_455
Hg27 La22 3.535398 1_555
Hg28 Hg50 2.970289 1_565
Hg28 Hg54 2.970338 1_455
Hg28 Hg29 3.248635 1_555
Hg28 La1 3.248638 1_565
Hg28 Hg31 3.248668 1_565
Hg28 La20 3.535504 1_565
Hg28 La24 3.535537 1_455
Hg29 Hg52 2.970289 1_554
Hg29 Hg54 2.970338 1_455
Hg29 La1 3.248638 1_565
Hg29 La22 3.535504 1_554
Hg29 La24 3.535537 1_455
Hg30 Hg53 2.970289 1_545
Hg30 Hg51 2.970338 1_655
Hg30 La1 3.248638 1_656
Hg30 La23 3.535504 1_545
Hg30 La21 3.535537 1_655
Hg31 Hg55 2.970316 1_455
Hg31 Hg50 2.970316 1_555
Hg31 La1 3.248694 1_555
Hg31 La20 3.535398 1_555
Hg31 La25 3.535398 1_455
Hg32 Hg94 2.890308 1_565
Hg32 Hg44 3.226457 1_555
Hg32 Hg53 3.226457 1_555
Hg32 La9 3.561381 1_565
Hg32 La23 3.586199 1_555
Hg32 La14 3.586199 1_555
Hg32 La4 3.842439 1_565
Hg33 Hg92 2.890277 1_554
Hg33 Hg54 3.226379 1_555
Hg33 Hg45 3.226379 1_555
Hg33 La10 3.561210 1_554
Hg33 La24 3.585968 1_555
Hg33 La15 3.585968 1_555
Hg33 La2 3.842472 1_554
Hg34 Hg93 2.890308 1_555
Hg34 Hg55 3.226469 1_555
Hg34 Hg46 3.226469 1_555
Hg34 La8 3.561247 1_555
Hg34 La16 3.586157 1_555
Hg34 La25 3.586157 1_555
Hg34 La3 3.842392 1_555
Hg35 Hg97 2.890308 1_555
Hg35 Hg53 3.226469 1_555
Hg35 Hg44 3.226469 1_555
Hg35 La10 3.561247 1_555
Hg35 La14 3.586157 1_555
Hg35 La23 3.586157 1_555
Hg35 La3 3.842392 1_555
Hg36 Hg95 2.890308 1_554
Hg36 Hg55 3.226457 1_555
Hg36 Hg46 3.226457 1_555
Hg36 La9 3.561381 1_554
Hg36 La25 3.586199 1_555
Hg36 La16 3.586199 1_555
Hg36 La2 3.842439 1_554
Hg37 Hg96 2.890277 1_565
Hg37 Hg54 3.226379 1_555
Hg37 Hg45 3.226379 1_555
Hg37 La8 3.561210 1_565
Hg37 La24 3.585968 1_555
Hg37 La15 3.585968 1_555
Hg37 La4 3.842472 1_565
Hg38 Hg50 3.226457 1_555
Hg38 Hg47 3.226457 1_555
Hg38 La12 3.561381 1_545
Hg38 La17 3.586199 1_555
Hg38 La20 3.586199 1_555
Hg38 La7 3.842439 1_545
Hg39 Hg98 2.890277 1_556
Hg39 Hg48 3.226379 1_555
Hg39 Hg51 3.226379 1_555
Hg39 La13 3.561210 1_556
Hg39 La21 3.585968 1_555
Hg39 La18 3.585968 1_555
Hg39 La5 3.842472 1_556
Hg40 Hg99 2.890308 1_555
Hg40 Hg49 3.226469 1_555
Hg40 Hg52 3.226469 1_555
Hg40 La11 3.561247 1_555
Hg40 La22 3.586157 1_555
Hg40 La19 3.586157 1_555
Hg40 La6 3.842392 1_555
Hg41 Hg50 3.226469 1_555
Hg41 Hg47 3.226469 1_555
Hg41 La13 3.561247 1_555
Hg41 La17 3.586157 1_555
Hg41 La20 3.586157 1_555
Hg41 La6 3.842392 1_555
Hg42 Hg49 3.226457 1_555
Hg42 Hg52 3.226457 1_555
Hg42 La12 3.561381 1_556
Hg42 La22 3.586199 1_555
Hg42 La19 3.586199 1_555
Hg42 La5 3.842439 1_556
Hg43 Hg51 3.226379 1_555
Hg43 Hg48 3.226379 1_555
Hg43 La11 3.561210 1_545
Hg43 La21 3.585968 1_555
Hg43 La18 3.585968 1_555
Hg43 La7 3.842472 1_545
Hg44 Hg53 2.953930 1_555
Hg44 La9 3.529599 1_565
Hg44 La10 3.529738 1_555
Hg44 La14 3.576178 1_555
Hg44 La0 3.628685 1_566
Hg45 Hg54 2.953874 1_555
Hg45 La8 3.529794 1_565
Hg45 La10 3.529794 1_554
Hg45 La15 3.576064 1_555
Hg45 La0 3.628684 1_565
Hg46 Hg55 2.953930 1_555
Hg46 La9 3.529599 1_554
Hg46 La8 3.529738 1_555
Hg46 La16 3.576178 1_555
Hg46 La0 3.628685 1_555
Hg47 Hg50 2.953930 1_555
Hg47 La12 3.529599 1_545
Hg47 La13 3.529738 1_555
Hg47 La17 3.576178 1_555
Hg47 La0 3.628685 1_555
Hg48 Hg51 2.953874 1_555
Hg48 La13 3.529794 1_556
Hg48 La11 3.529794 1_545
Hg48 La18 3.576064 1_555
Hg48 La0 3.628684 1_556
Hg49 Hg52 2.953930 1_555
Hg49 La12 3.529599 1_556
Hg49 La11 3.529738 1_555
Hg49 La19 3.576178 1_555
Hg49 La0 3.628685 1_566
Hg50 La12 3.529599 1_545
Hg50 La13 3.529738 1_555
Hg50 La20 3.576178 1_555
Hg50 La1 3.628685 1_555
Hg51 La13 3.529794 1_556
Hg51 La11 3.529794 1_545
Hg51 La21 3.576064 1_555
Hg51 La1 3.628684 1_556
Hg52 La12 3.529599 1_556
Hg52 La11 3.529738 1_555
Hg52 La22 3.576178 1_555
Hg52 La1 3.628685 1_566
Hg53 La9 3.529599 1_565
Hg53 La10 3.529738 1_555
Hg53 La23 3.576178 1_555
Hg53 La1 3.628685 1_666
Hg54 La8 3.529794 1_565
Hg54 La10 3.529794 1_554
Hg54 La24 3.576064 1_555
Hg54 La1 3.628684 1_665
Hg55 La9 3.529599 1_554
Hg55 La8 3.529738 1_555
Hg55 La25 3.576178 1_555
Hg55 La1 3.628685 1_655
Hg56 Hg6 3.152156 1_555
Hg56 Hg65 3.226089 1_555
Hg56 La5 3.357770 1_556
Hg56 La21 3.674104 1_555
Hg56 La22 3.674309 1_555
Hg57 Hg6 3.152545 1_555
Hg57 Hg66 3.226302 1_555
Hg57 La6 3.357762 1_555
Hg57 La22 3.674175 1_555
Hg57 La20 3.674175 1_555
Hg58 Hg6 3.152156 1_555
Hg58 Hg67 3.226089 1_555
Hg58 La7 3.357770 1_545
Hg58 La21 3.674104 1_555
Hg58 La20 3.674309 1_555
Hg59 Hg7 3.152156 1_555
Hg59 Hg62 3.226089 1_555
Hg59 La2 3.357770 1_554
Hg59 La24 3.674104 1_555
Hg59 La25 3.674309 1_555
Hg60 Hg7 3.152545 1_555
Hg60 Hg63 3.226302 1_555
Hg60 La3 3.357762 1_555
Hg60 La25 3.674175 1_555
Hg60 La23 3.674175 1_555
Hg61 Hg7 3.152156 1_555
Hg61 Hg64 3.226089 1_555
Hg61 La4 3.357770 1_565
Hg61 La24 3.674104 1_555
Hg61 La23 3.674309 1_555
Hg62 Hg8 2.896120 1_555
Hg62 La2 3.357770 1_554
Hg62 La15 3.674104 1_555
Hg62 La16 3.674309 1_555
Hg63 Hg9 2.896069 1_555
Hg63 La3 3.357762 1_555
Hg63 La16 3.674175 1_555
Hg63 La14 3.674175 1_555
Hg64 La4 3.357770 1_565
Hg64 La15 3.674104 1_555
Hg64 La14 3.674309 1_555
Hg65 Hg8 2.896120 1_556
Hg65 La5 3.357770 1_556
Hg65 La18 3.674104 1_555
Hg65 La19 3.674309 1_555
Hg66 Hg9 2.896069 1_555
Hg66 La6 3.357762 1_555
Hg66 La19 3.674175 1_555
Hg66 La17 3.674175 1_555
Hg67 La7 3.357770 1_545
Hg67 La18 3.674104 1_555
Hg67 La17 3.674309 1_555
Hg68 Hg88 2.988182 1_555
Hg68 Hg87 2.988195 1_555
Hg68 Hg8 2.999616 1_556
Hg68 Hg69 3.231138 1_555
Hg68 Hg70 3.231267 1_555
Hg68 La2 3.452117 1_555
Hg68 La19 3.594659 1_555
Hg68 La18 3.594693 1_555
Hg69 Hg86 2.988214 1_555
Hg69 Hg88 2.988214 1_555
Hg69 Hg9 2.999702 1_555
Hg69 Hg70 3.231138 1_555
Hg69 La3 3.452419 1_555
Hg69 La17 3.594504 1_555
Hg69 La19 3.594504 1_555
Hg70 Hg86 2.988182 1_555
Hg70 Hg87 2.988195 1_555
Hg70 La4 3.452117 1_555
Hg70 La17 3.594659 1_555
Hg70 La18 3.594693 1_555
Hg71 Hg91 2.988182 1_555
Hg71 Hg90 2.988195 1_555
Hg71 Hg8 2.999616 1_555
Hg71 Hg72 3.231138 1_555
Hg71 Hg73 3.231267 1_555
Hg71 La5 3.452117 1_555
Hg71 La16 3.594659 1_555
Hg71 La15 3.594693 1_555
Hg72 Hg91 2.988214 1_555
Hg72 Hg89 2.988214 1_555
Hg72 Hg9 2.999702 1_555
Hg72 Hg73 3.231138 1_555
Hg72 La6 3.452419 1_555
Hg72 La16 3.594504 1_555
Hg72 La14 3.594504 1_555
Hg73 Hg89 2.988182 1_555
Hg73 Hg90 2.988195 1_555
Hg73 La7 3.452117 1_555
Hg73 La14 3.594659 1_555
Hg73 La15 3.594693 1_555
Hg74 Hg82 2.988182 1_555
Hg74 Hg81 2.988195 1_555
Hg74 Hg75 3.231138 1_555
Hg74 Hg76 3.231267 1_555
Hg74 La5 3.452117 1_555
Hg74 La25 3.594659 1_455
Hg74 La24 3.594693 1_455
Hg75 Hg82 2.988214 1_555
Hg75 Hg80 2.988214 1_555
Hg75 Hg76 3.231138 1_555
Hg75 La6 3.452419 1_555
Hg75 La25 3.594504 1_455
Hg75 La23 3.594504 1_455
Hg76 Hg80 2.988182 1_555
Hg76 Hg81 2.988195 1_555
Hg76 La7 3.452117 1_555
Hg76 La23 3.594659 1_455
Hg76 La24 3.594693 1_455
Hg77 Hg85 2.988182 1_555
Hg77 Hg84 2.988195 1_555
Hg77 Hg78 3.231138 1_555
Hg77 Hg79 3.231267 1_555
Hg77 La2 3.452117 1_555
Hg77 La22 3.594659 1_655
Hg77 La21 3.594693 1_655
Hg78 Hg83 2.988214 1_555
Hg78 Hg85 2.988214 1_555
Hg78 Hg79 3.231138 1_555
Hg78 La3 3.452419 1_555
Hg78 La20 3.594504 1_655
Hg78 La22 3.594504 1_655
Hg79 Hg83 2.988182 1_555
Hg79 Hg84 2.988195 1_555
Hg79 La4 3.452117 1_555
Hg79 La20 3.594659 1_655
Hg79 La21 3.594693 1_655
Hg80 Hg89 2.900857 1_555
Hg80 La11 3.345778 1_555
Hg80 La23 3.447213 1_455
Hg80 La7 3.530072 1_555
Hg80 La6 3.530105 1_555
Hg81 Hg90 2.900904 1_555
Hg81 La12 3.345854 1_555
Hg81 La24 3.447453 1_455
Hg81 La5 3.530141 1_555
Hg81 La7 3.530141 1_555
Hg82 Hg91 2.900857 1_555
Hg82 La13 3.345778 1_555
Hg82 La25 3.447213 1_455
Hg82 La5 3.530072 1_555
Hg82 La6 3.530105 1_555
Hg83 Hg86 2.900857 1_555
Hg83 La8 3.345778 1_555
Hg83 La20 3.447213 1_655
Hg83 La4 3.530072 1_555
Hg83 La3 3.530105 1_555
Hg84 Hg87 2.900904 1_555
Hg84 La9 3.345854 1_555
Hg84 La21 3.447453 1_655
Hg84 La4 3.530141 1_555
Hg84 La2 3.530141 1_555
Hg85 Hg88 2.900857 1_555
Hg85 La10 3.345778 1_555
Hg85 La22 3.447213 1_655
Hg85 La2 3.530072 1_555
Hg85 La3 3.530105 1_555
Hg86 Hg93 2.900694 1_555
Hg86 Hg96 2.900717 1_555
Hg86 La8 3.345778 1_555
Hg86 La17 3.447213 1_555
Hg86 La4 3.530072 1_555
Hg86 La3 3.530105 1_555
Hg87 Hg94 2.900692 1_555
Hg87 Hg95 2.900692 1_555
Hg87 La9 3.345854 1_555
Hg87 La18 3.447453 1_555
Hg87 La4 3.530141 1_555
Hg87 La2 3.530141 1_555
Hg88 Hg97 2.900694 1_555
Hg88 Hg92 2.900717 1_555
Hg88 La10 3.345778 1_555
Hg88 La19 3.447213 1_555
Hg88 La2 3.530072 1_555
Hg88 La3 3.530105 1_555
Hg89 Hg99 2.900694 1_555
Hg89 La11 3.345778 1_555
Hg89 La14 3.447213 1_555
Hg89 La7 3.530072 1_555
Hg89 La6 3.530105 1_555
Hg90 La12 3.345854 1_555
Hg90 La15 3.447453 1_555
Hg90 La5 3.530141 1_555
Hg90 La7 3.530141 1_555
Hg91 Hg98 2.900717 1_555
Hg91 La13 3.345778 1_555
Hg91 La16 3.447213 1_555
Hg91 La5 3.530072 1_555
Hg91 La6 3.530105 1_555
Hg92 La19 3.501538 1_555
Hg92 La2 3.521385 1_555
Hg92 La15 3.576925 1_556
Hg92 La10 3.677209 1_555
Hg93 La17 3.501484 1_555
Hg93 La3 3.521339 1_555
Hg93 La16 3.576847 1_555
Hg93 La8 3.677286 1_555
Hg94 La18 3.501790 1_555
Hg94 La4 3.521364 1_555
Hg94 La14 3.576944 1_545
Hg94 La9 3.677412 1_555
Hg95 La18 3.501790 1_555
Hg95 La2 3.521364 1_555
Hg95 La16 3.576944 1_556
Hg95 La9 3.677412 1_555
Hg96 La17 3.501538 1_555
Hg96 La4 3.521385 1_555
Hg96 La15 3.576925 1_545
Hg96 La8 3.677209 1_555
Hg97 La19 3.501484 1_555
Hg97 La3 3.521339 1_555
Hg97 La14 3.576847 1_555
Hg97 La10 3.677286 1_555
Hg98 La16 3.501538 1_555
Hg98 La5 3.521385 1_555
Hg98 La18 3.576925 1_554
Hg98 La13 3.677209 1_555
Hg99 La14 3.501484 1_555
Hg99 La6 3.521339 1_555
Hg99 La19 3.576847 1_555
Hg99 La11 3.677286 1_555
Hg100 Hg38 2.890308 1_565
Hg100 Hg90 2.900692 1_555
Hg100 Hg24 2.942871 1_555
Hg100 La15 3.501790 1_555
Hg100 La7 3.521364 1_555
Hg100 La17 3.576944 1_565
Hg100 La12 3.677412 1_555
Hg101 Hg42 2.890308 1_554
Hg101 Hg90 2.900692 1_555
Hg101 Hg20 2.942871 1_555
Hg101 Hg8 3.065845 1_555
Hg101 La15 3.501790 1_555
Hg101 La5 3.521364 1_555
Hg101 La19 3.576944 1_554
Hg101 La12 3.677412 1_555
Hg102 Hg43 2.890277 1_565
Hg102 Hg89 2.900717 1_555
Hg102 Hg22 2.942872 1_565
Hg102 La14 3.501538 1_555
Hg102 La7 3.521385 1_555
Hg102 La18 3.576925 1_565
Hg102 La11 3.677209 1_555
Hg103 Hg41 2.890308 1_555
Hg103 Hg91 2.900694 1_555
Hg103 Hg21 2.942901 1_555
Hg103 Hg9 3.065850 1_555
Hg103 La16 3.501484 1_555
Hg103 La6 3.521339 1_555
Hg103 La17 3.576847 1_555
Hg103 La13 3.677286 1_555
Hg104 Hg39 2.890277 1_554
Hg104 Hg82 2.900717 1_555
Hg104 Hg26 2.942872 1_454
Hg104 Hg11 3.065929 1_555
Hg104 La25 3.501538 1_455
Hg104 La5 3.521385 1_555
Hg104 La21 3.576925 1_554
Hg104 La13 3.677209 1_555
Hg105 Hg40 2.890308 1_555
Hg105 Hg80 2.900694 1_555
Hg105 Hg27 2.942901 1_555
Hg105 Hg12 3.065850 1_555
Hg105 La23 3.501484 1_455
Hg105 La6 3.521339 1_555
Hg105 La22 3.576847 1_555
Hg105 La11 3.677286 1_555
Hg106 Hg38 2.890308 1_565
Hg106 Hg81 2.900692 1_555
Hg106 Hg28 2.942871 1_555
Hg106 Hg13 3.065845 1_565
Hg106 La24 3.501790 1_455
Hg106 La7 3.521364 1_555
Hg106 La20 3.576944 1_565
Hg106 La12 3.677412 1_555
Hg107 Hg42 2.890308 1_554
Hg107 Hg81 2.900692 1_555
Hg107 Hg29 2.942871 1_555
Hg107 Hg11 3.065845 1_555
Hg107 La24 3.501790 1_455
Hg107 La5 3.521364 1_555
Hg107 La22 3.576944 1_554
Hg107 La12 3.677412 1_555
Hg108 Hg43 2.890277 1_565
Hg108 Hg80 2.900717 1_555
Hg108 Hg30 2.942872 1_465
Hg108 Hg13 3.065929 1_565
Hg108 La23 3.501538 1_455
Hg108 La7 3.521385 1_555
Hg108 La21 3.576925 1_565
Hg108 La11 3.677209 1_555
Hg109 Hg41 2.890308 1_555
Hg109 Hg82 2.900694 1_555
Hg109 Hg31 2.942901 1_555
Hg109 Hg12 3.065850 1_555
Hg109 La25 3.501484 1_455
Hg109 La6 3.521339 1_555
Hg109 La20 3.576847 1_555
Hg109 La13 3.677286 1_555
Hg110 Hg33 2.890277 1_556
Hg110 Hg85 2.900717 1_555
Hg110 Hg29 2.942872 1_656
Hg110 La22 3.501538 1_655
Hg110 La2 3.521385 1_555
Hg110 La24 3.576925 1_556
Hg110 La10 3.677209 1_555
Hg111 Hg34 2.890308 1_555
Hg111 Hg83 2.900694 1_555
Hg111 Hg31 2.942901 1_655
Hg111 Hg12 3.065850 1_655
Hg111 La20 3.501484 1_655
Hg111 La3 3.521339 1_555
Hg111 La25 3.576847 1_555
Hg111 La8 3.677286 1_555
Hg112 Hg32 2.890308 1_545
Hg112 Hg84 2.900692 1_555
Hg112 Hg30 2.942871 1_555
Hg112 Hg13 3.065845 1_655
Hg112 La21 3.501790 1_655
Hg112 La4 3.521364 1_555
Hg112 La23 3.576944 1_545
Hg112 La9 3.677412 1_555
Hg113 Hg36 2.890308 1_556
Hg113 Hg84 2.900692 1_555
Hg113 Hg26 2.942871 1_555
Hg113 La21 3.501790 1_655
Hg113 La2 3.521364 1_555
Hg113 La25 3.576944 1_556
Hg113 La9 3.677412 1_555
Hg114 Hg37 2.890277 1_545
Hg114 Hg83 2.900717 1_555
Hg114 Hg28 2.942872 1_645
Hg114 Hg13 3.065929 1_655
Hg114 La20 3.501538 1_655
Hg114 La4 3.521385 1_555
Hg114 La24 3.576925 1_545
Hg114 La8 3.677209 1_555
Hg115 Hg35 2.890308 1_555
Hg115 Hg85 2.900694 1_555
Hg115 Hg27 2.942901 1_655
Hg115 Hg12 3.065850 1_655
Hg115 La22 3.501484 1_655
Hg115 La3 3.521339 1_555
Hg115 La23 3.576847 1_555
Hg115 La10 3.677286 1_555
