# generated using pymatgen
data_CaPbAu2
_symmetry_space_group_name_H-M   'P 1'
_cell_length_a   12.16085452
_cell_length_b   12.16085452
_cell_length_c   12.16085452
_cell_angle_alpha   125.72642513
_cell_angle_beta   123.05426168
_cell_angle_gamma   82.56804010
_symmetry_Int_Tables_number   1
_chemical_formula_structural   CaPbAu2
_chemical_formula_sum   'Ca1 Pb1 Au2'
_cell_volume   1175.46827291
_cell_formula_units_Z   1
loop_
 _symmetry_equiv_pos_site_id
 _symmetry_equiv_pos_as_xyz
  1  'x, y, z'
loop_
 _atom_site_type_symbol
 _atom_site_label
 _atom_site_symmetry_multiplicity
 _atom_site_fract_x
 _atom_site_fract_y
 _atom_site_fract_z
 _atom_site_occupancy
  Ca  Ca0  1  0.00000000  0.00000000  0.00000000  1
  Pb  Pb0  1  0.00000000  0.50000000  0.50000000  1
  Au  Au0  1  0.00000000  0.24541300  0.24541300  1
  Au  Au1  1  0.00000000  0.75458700  0.75458700  1
loop_
_geom_bond_atom_site_label_1
_geom_bond_atom_site_label_2
_geom_bond_distance
_geom_bond_site_symmetry_2
Au0 Ca0 2.722496 1_555
Au0 Pb0 2.824269 1_555
Au1 Ca0 2.722496 1_566
Au1 Pb0 2.824269 1_555
