# generated using pymatgen
data_DyAsSe
_symmetry_space_group_name_H-M   'P 1'
_cell_length_a   3.89098434
_cell_length_b   3.93725808
_cell_length_c   17.47159104
_cell_angle_alpha   90.00000000
_cell_angle_beta   90.00000000
_cell_angle_gamma   90.00000000
_symmetry_Int_Tables_number   1
_chemical_formula_structural   DyAsSe
_chemical_formula_sum   'Dy4 As4 Se4'
_cell_volume   267.66144695
_cell_formula_units_Z   4
loop_
 _symmetry_equiv_pos_site_id
 _symmetry_equiv_pos_as_xyz
  1  'x, y, z'
loop_
 _atom_site_type_symbol
 _atom_site_label
 _atom_site_symmetry_multiplicity
 _atom_site_fract_x
 _atom_site_fract_y
 _atom_site_fract_z
 _atom_site_occupancy
  Dy  Dy0  1  0.75000000  0.73146927  0.63979597  1
  Dy  Dy1  1  0.25000000  0.26853073  0.36020403  1
  Dy  Dy2  1  0.75000000  0.76853073  0.13979597  1
  Dy  Dy3  1  0.25000000  0.23146927  0.86020403  1
  As  As0  1  0.25000000  0.70904447  0.99791728  1
  As  As1  1  0.75000000  0.29095553  0.00208272  1
  As  As2  1  0.25000000  0.79095553  0.49791728  1
  As  As3  1  0.75000000  0.20904447  0.50208272  1
  Se  Se0  1  0.75000000  0.73426631  0.81262734  1
  Se  Se1  1  0.25000000  0.26573369  0.18737266  1
  Se  Se2  1  0.75000000  0.76573369  0.31262734  1
  Se  Se3  1  0.25000000  0.23426631  0.68737266  1
loop_
_geom_bond_atom_site_label_1
_geom_bond_atom_site_label_2
_geom_bond_distance
_geom_bond_site_symmetry_2
Dy0 Se3 2.882388 1_655
Dy0 Se3 2.882388 1_555
Dy0 Se3 2.897392 1_665
Dy0 Se3 2.897392 1_565
Dy0 Se0 3.019659 1_555
Dy1 Se2 2.882388 1_455
Dy1 Se2 2.882388 1_555
Dy1 Se2 2.897392 1_445
Dy1 Se2 2.897392 1_545
Dy1 Se1 3.019659 1_555
Dy2 Se1 2.882388 1_565
Dy2 Se1 2.882388 1_665
Dy2 Se1 2.897392 1_655
Dy2 Se1 2.897392 1_555
Dy2 Se2 3.019659 1_555
Dy3 Se0 2.882388 1_545
Dy3 Se0 2.882388 1_445
Dy3 Se0 2.897392 1_455
Dy3 Se0 2.897392 1_555
Dy3 Se3 3.019659 1_555
As0 As1 2.549502 1_556
As0 As1 2.549502 1_456
As0 As1 3.006581 1_466
As0 As1 3.006581 1_566
As0 Dy3 3.053660 1_555
As0 Dy2 3.159822 1_456
As0 Dy2 3.159822 1_556
As0 Dy3 3.165454 1_565
As1 Dy2 3.053660 1_555
As1 Dy3 3.159822 1_554
As1 Dy3 3.159822 1_654
As1 Dy2 3.165454 1_545
As2 As3 2.549502 1_465
As2 As3 2.549502 1_565
As2 As3 3.006581 1_455
As2 As3 3.006581 1_555
As2 Dy1 3.053660 1_565
As2 Dy0 3.159822 1_455
As2 Dy0 3.159822 1_555
As2 Dy1 3.165454 1_555
As3 Dy0 3.053660 1_545
As3 Dy1 3.159822 1_555
As3 Dy1 3.159822 1_655
As3 Dy0 3.165454 1_555
