# generated using pymatgen
data_Cr4InAgSe8
_symmetry_space_group_name_H-M   'P 1'
_cell_length_a   7.67412666
_cell_length_b   7.67412666
_cell_length_c   7.67412666
_cell_angle_alpha   60.00000000
_cell_angle_beta   60.00000000
_cell_angle_gamma   60.00000000
_symmetry_Int_Tables_number   1
_chemical_formula_structural   Cr4InAgSe8
_chemical_formula_sum   'Cr4 In1 Ag1 Se8'
_cell_volume   319.57433255
_cell_formula_units_Z   1
loop_
 _symmetry_equiv_pos_site_id
 _symmetry_equiv_pos_as_xyz
  1  'x, y, z'
loop_
 _atom_site_type_symbol
 _atom_site_label
 _atom_site_symmetry_multiplicity
 _atom_site_fract_x
 _atom_site_fract_y
 _atom_site_fract_z
 _atom_site_occupancy
  Cr  Cr0  1  0.37894700  0.37894700  0.37894700  1
  Cr  Cr1  1  0.37894700  0.86315800  0.37894700  1
  Cr  Cr2  1  0.86315800  0.37894700  0.37894700  1
  Cr  Cr3  1  0.37894700  0.37894700  0.86315800  1
  In  In0  1  0.00000000  0.00000000  0.00000000  1
  Ag  Ag0  1  0.75000000  0.75000000  0.75000000  1
  Se  Se0  1  0.14032600  0.14032600  0.14032600  1
  Se  Se1  1  0.14032600  0.57902100  0.14032600  1
  Se  Se2  1  0.57902100  0.14032600  0.14032600  1
  Se  Se3  1  0.14032600  0.14032600  0.57902100  1
  Se  Se4  1  0.61029100  0.61029100  0.61029100  1
  Se  Se5  1  0.61029100  0.16912800  0.61029100  1
  Se  Se6  1  0.16912800  0.61029100  0.61029100  1
  Se  Se7  1  0.61029100  0.61029100  0.16912800  1
loop_
_geom_bond_atom_site_label_1
_geom_bond_atom_site_label_2
_geom_bond_distance
_geom_bond_site_symmetry_2
Cr0 Se7 2.516171 1_555
Cr0 Se6 2.516171 1_555
Cr0 Se5 2.516171 1_555
Cr0 Se1 2.606559 1_555
Cr0 Se2 2.606559 1_555
Cr0 Se3 2.606559 1_555
Cr1 Se7 2.516159 1_555
Cr1 Se6 2.516159 1_555
Cr1 Se4 2.516170 1_555
Cr1 Se2 2.606559 1_565
Cr1 Se0 2.606559 1_565
Cr1 Se3 2.606559 1_565
Cr2 Se7 2.516159 1_555
Cr2 Se5 2.516159 1_555
Cr2 Se4 2.516170 1_555
Cr2 Se0 2.606559 1_655
Cr2 Se1 2.606559 1_655
Cr2 Se3 2.606559 1_655
Cr3 Se5 2.516159 1_555
Cr3 Se6 2.516159 1_555
Cr3 Se4 2.516170 1_555
Cr3 Se0 2.606559 1_556
Cr3 Se2 2.606559 1_556
Cr3 Se1 2.606559 1_556
In0 Se0 2.637805 1_555
In0 Se2 2.637812 1_455
In0 Se3 2.637812 1_554
In0 Se1 2.637812 1_545
Ag0 Se4 2.626207 1_555
Ag0 Se7 2.626213 1_556
Ag0 Se6 2.626213 1_655
Ag0 Se5 2.626213 1_565
