# generated using pymatgen
data_EuAl3(PbO4)2
_symmetry_space_group_name_H-M   'P 1'
_cell_length_a   9.49492529
_cell_length_b   9.49492529
_cell_length_c   9.49491824
_cell_angle_alpha   89.99959238
_cell_angle_beta   89.99959238
_cell_angle_gamma   90.00045439
_symmetry_Int_Tables_number   1
_chemical_formula_structural   EuAl3(PbO4)2
_chemical_formula_sum   'Eu4 Al12 Pb8 O32'
_cell_volume   856.00112047
_cell_formula_units_Z   4
loop_
 _symmetry_equiv_pos_site_id
 _symmetry_equiv_pos_as_xyz
  1  'x, y, z'
loop_
 _atom_site_type_symbol
 _atom_site_label
 _atom_site_symmetry_multiplicity
 _atom_site_fract_x
 _atom_site_fract_y
 _atom_site_fract_z
 _atom_site_occupancy
  Eu  Eu0  1  0.25000000  0.75000000  0.25000000  1
  Eu  Eu1  1  0.75000000  0.75000000  0.75000000  1
  Eu  Eu2  1  0.75000000  0.25000000  0.25000000  1
  Eu  Eu3  1  0.25000000  0.25000000  0.75000000  1
  Al  Al0  1  -0.00000046  0.50000046  0.25000000  1
  Al  Al1  1  -0.00000022  0.50000022  0.75000000  1
  Al  Al2  1  0.75000023  0.50000097  -0.00000061  1
  Al  Al3  1  0.24999960  0.50000074  0.00000033  1
  Al  Al4  1  0.25000040  -0.00000074  0.49999967  1
  Al  Al5  1  0.74999977  -0.00000097  0.50000061  1
  Al  Al6  1  -0.00000097  0.74999977  0.50000061  1
  Al  Al7  1  -0.00000074  0.25000040  0.49999967  1
  Al  Al8  1  0.50000074  0.24999960  0.00000033  1
  Al  Al9  1  0.50000097  0.75000023  -0.00000061  1
  Al  Al10  1  0.50000022  -0.00000022  0.75000000  1
  Al  Al11  1  0.50000046  -0.00000046  0.25000000  1
  Pb  Pb0  1  0.36538404  0.63467065  0.63466995  1
  Pb  Pb1  1  0.63466464  0.63466464  0.36537519  1
  Pb  Pb2  1  0.63467065  0.36538404  0.63466995  1
  Pb  Pb3  1  0.36543608  0.36543608  0.36543234  1
  Pb  Pb4  1  0.13461596  0.86532935  0.86533005  1
  Pb  Pb5  1  0.86533536  0.86533536  0.13462481  1
  Pb  Pb6  1  0.86532935  0.13461596  0.86533005  1
  Pb  Pb7  1  0.13456392  0.13456392  0.13456766  1
  O  O0  1  0.88980345  0.11010514  0.11010722  1
  O  O1  1  0.11010272  0.11010272  0.88980280  1
  O  O2  1  0.11010514  0.88980345  0.11010722  1
  O  O3  1  0.88983943  0.88983943  0.88984664  1
  O  O4  1  0.61019655  0.38989486  0.38989278  1
  O  O5  1  0.38989728  0.38989728  0.61019720  1
  O  O6  1  0.38989486  0.61019655  0.38989278  1
  O  O7  1  0.61016057  0.61016057  0.61015336  1
  O  O8  1  0.15733393  0.48797116  0.84266591  1
  O  O9  1  0.84266861  0.48796896  0.15733402  1
  O  O10  1  0.84263438  0.51202352  0.84263996  1
  O  O11  1  0.15735608  0.51205901  0.15735830  1
  O  O12  1  0.84266582  0.15733792  0.48797060  1
  O  O13  1  0.15733792  0.84266582  0.48797060  1
  O  O14  1  0.84264240  0.84264240  0.51201811  1
  O  O15  1  0.15735309  0.15735309  0.51206513  1
  O  O16  1  0.48796896  0.84266861  0.15733402  1
  O  O17  1  0.48797116  0.15733393  0.84266591  1
  O  O18  1  0.51202352  0.84263438  0.84263996  1
  O  O19  1  0.51205901  0.15735608  0.15735830  1
  O  O20  1  0.34266607  0.01202884  0.65733409  1
  O  O21  1  0.65733139  0.01203104  0.34266598  1
  O  O22  1  0.65736562  0.98797648  0.65736004  1
  O  O23  1  0.34264392  0.98794099  0.34264170  1
  O  O24  1  0.65733418  0.34266208  0.01202940  1
  O  O25  1  0.34266208  0.65733418  0.01202940  1
  O  O26  1  0.65735760  0.65735760  0.98798189  1
  O  O27  1  0.34264691  0.34264691  0.98793487  1
  O  O28  1  0.01203104  0.65733139  0.34266598  1
  O  O29  1  0.01202884  0.34266607  0.65733409  1
  O  O30  1  0.98797648  0.65736562  0.65736004  1
  O  O31  1  0.98794099  0.34264392  0.34264170  1
loop_
_geom_bond_atom_site_label_1
_geom_bond_atom_site_label_2
_geom_bond_distance
_geom_bond_site_symmetry_2
Eu0 O6 2.300161 1_555
Eu0 O2 2.300161 1_555
Eu0 O23 2.579081 1_555
Eu0 O11 2.579081 1_555
Eu0 O28 2.579457 1_555
Eu0 O16 2.579457 1_555
Eu0 O13 2.579463 1_555
Eu0 O25 2.579463 1_555
Eu1 O3 2.299800 1_555
Eu1 O7 2.299800 1_555
Eu1 O18 2.579340 1_555
Eu1 O10 2.579340 1_555
Eu1 O22 2.579340 1_555
Eu1 O30 2.579340 1_555
Eu1 O14 2.579402 1_555
Eu1 O26 2.579402 1_555
Eu2 O4 2.300161 1_555
Eu2 O0 2.300161 1_555
Eu2 O19 2.579081 1_555
Eu2 O31 2.579081 1_555
Eu2 O9 2.579457 1_555
Eu2 O21 2.579457 1_555
Eu2 O12 2.579463 1_555
Eu2 O24 2.579463 1_555
Eu3 O1 2.300172 1_555
Eu3 O5 2.300172 1_555
Eu3 O15 2.579062 1_555
Eu3 O27 2.579062 1_555
Eu3 O20 2.579490 1_555
Eu3 O29 2.579490 1_555
Eu3 O17 2.579490 1_555
Eu3 O8 2.579490 1_555
Al0 O28 1.737466 1_555
Al0 O9 1.737466 1_455
Al0 O31 1.737564 1_455
Al0 O11 1.737564 1_555
Al1 O29 1.737491 1_555
Al1 O8 1.737491 1_555
Al1 O30 1.737608 1_455
Al1 O10 1.737608 1_455
Al2 O9 1.737508 1_555
Al2 O24 1.737519 1_555
Al2 O10 1.737528 1_554
Al2 O26 1.737556 1_554
Al3 O25 1.737459 1_555
Al3 O8 1.737492 1_554
Al3 O11 1.737586 1_555
Al3 O27 1.737586 1_554
Al4 O13 1.737459 1_545
Al4 O20 1.737492 1_555
Al4 O23 1.737586 1_545
Al4 O15 1.737586 1_555
Al5 O21 1.737508 1_555
Al5 O12 1.737519 1_555
Al5 O22 1.737528 1_545
Al5 O14 1.737556 1_545
Al6 O28 1.737508 1_555
Al6 O13 1.737519 1_555
Al6 O30 1.737528 1_455
Al6 O14 1.737556 1_455
Al7 O12 1.737459 1_455
Al7 O29 1.737492 1_555
Al7 O31 1.737586 1_455
Al7 O15 1.737586 1_555
Al8 O24 1.737459 1_555
Al8 O17 1.737492 1_554
Al8 O19 1.737586 1_555
Al8 O27 1.737586 1_554
Al9 O16 1.737508 1_555
Al9 O25 1.737519 1_555
Al9 O18 1.737528 1_554
Al9 O26 1.737556 1_554
Al10 O17 1.737491 1_555
Al10 O20 1.737491 1_555
Al10 O18 1.737608 1_545
Al10 O22 1.737608 1_545
Al11 O16 1.737466 1_545
Al11 O21 1.737466 1_555
Al11 O19 1.737564 1_555
Al11 O23 1.737564 1_545
O0 Pb7 2.347076 1_655
O0 Pb5 2.347223 1_545
O0 Pb6 2.347294 1_554
O1 Pb7 2.347122 1_556
O1 Pb6 2.347264 1_455
O1 Pb4 2.347264 1_545
O2 Pb7 2.347076 1_565
O2 Pb5 2.347223 1_455
O2 Pb4 2.347294 1_554
O3 Pb5 2.347321 1_556
O3 Pb6 2.347329 1_565
O3 Pb4 2.347329 1_655
O4 Pb3 2.347076 1_555
O4 Pb1 2.347223 1_555
O4 Pb2 2.347294 1_555
O5 Pb3 2.347122 1_555
O5 Pb0 2.347264 1_555
O5 Pb2 2.347264 1_555
O6 Pb3 2.347076 1_555
O6 Pb1 2.347223 1_555
O6 Pb0 2.347294 1_555
O7 Pb1 2.347321 1_555
O7 Pb0 2.347329 1_555
O7 Pb2 2.347329 1_555
