# generated using pymatgen
data_Co4H
_symmetry_space_group_name_H-M   'P 1'
_cell_length_a   5.03439334
_cell_length_b   5.03439334
_cell_length_c   16.18799826
_cell_angle_alpha   90.00000000
_cell_angle_beta   90.00000000
_cell_angle_gamma   119.99998608
_symmetry_Int_Tables_number   1
_chemical_formula_structural   Co4H
_chemical_formula_sum   'Co32 H8'
_cell_volume   355.31875377
_cell_formula_units_Z   8
loop_
 _symmetry_equiv_pos_site_id
 _symmetry_equiv_pos_as_xyz
  1  'x, y, z'
loop_
 _atom_site_type_symbol
 _atom_site_label
 _atom_site_symmetry_multiplicity
 _atom_site_fract_x
 _atom_site_fract_y
 _atom_site_fract_z
 _atom_site_occupancy
  Co  Co0_0  1  0.16666650  0.33333350  0.43292764  1
  Co  Co0_1  1  0.16666650  0.33333350  0.93292764  1
  Co  Co0_2  1  0.16666650  0.83333350  0.43292764  1
  Co  Co0_3  1  0.16666650  0.83333350  0.93292764  1
  Co  Co0_4  1  0.66666650  0.33333350  0.43292764  1
  Co  Co0_5  1  0.66666650  0.33333350  0.93292764  1
  Co  Co0_6  1  0.66666650  0.83333350  0.43292764  1
  Co  Co0_7  1  0.66666650  0.83333350  0.93292764  1
  Co  Co1_0  1  0.16666650  0.33333350  0.18839767  1
  Co  Co1_1  1  0.16666650  0.33333350  0.68839767  1
  Co  Co1_2  1  0.16666650  0.83333350  0.18839767  1
  Co  Co1_3  1  0.16666650  0.83333350  0.68839767  1
  Co  Co1_4  1  0.66666650  0.33333350  0.18839767  1
  Co  Co1_5  1  0.66666650  0.33333350  0.68839767  1
  Co  Co1_6  1  0.66666650  0.83333350  0.18839767  1
  Co  Co1_7  1  0.66666650  0.83333350  0.68839767  1
  Co  Co2_0  1  0.33333350  0.16666650  0.06707236  1
  Co  Co2_1  1  0.33333350  0.16666650  0.56707236  1
  Co  Co2_2  1  0.33333350  0.66666650  0.06707236  1
  Co  Co2_3  1  0.33333350  0.66666650  0.56707236  1
  Co  Co2_4  1  0.83333350  0.16666650  0.06707236  1
  Co  Co2_5  1  0.83333350  0.16666650  0.56707236  1
  Co  Co2_6  1  0.83333350  0.66666650  0.06707236  1
  Co  Co2_7  1  0.83333350  0.66666650  0.56707236  1
  Co  Co3_0  1  0.33333350  0.16666650  0.31160233  1
  Co  Co3_1  1  0.33333350  0.16666650  0.81160233  1
  Co  Co3_2  1  0.33333350  0.66666650  0.31160233  1
  Co  Co3_3  1  0.33333350  0.66666650  0.81160233  1
  Co  Co3_4  1  0.83333350  0.16666650  0.31160233  1
  Co  Co3_5  1  0.83333350  0.16666650  0.81160233  1
  Co  Co3_6  1  0.83333350  0.66666650  0.31160233  1
  Co  Co3_7  1  0.83333350  0.66666650  0.81160233  1
  H  H0_0  1  0.00000000  0.00000000  0.00000000  1
  H  H0_1  1  0.00000000  0.00000000  0.50000000  1
  H  H0_2  1  0.00000000  0.50000000  0.00000000  1
  H  H0_3  1  0.00000000  0.50000000  0.50000000  1
  H  H0_4  1  0.50000000  0.00000000  0.00000000  1
  H  H0_5  1  0.50000000  0.00000000  0.50000000  1
  H  H0_6  1  0.50000000  0.50000000  0.00000000  1
  H  H0_7  1  0.50000000  0.50000000  0.50000000  1
loop_
_geom_bond_atom_site_label_1
_geom_bond_atom_site_label_2
_geom_bond_distance
_geom_bond_site_symmetry_2
Co0_0 H0_3 1.814106 1_555
Co0_0 H0_7 1.814108 1_555
Co0_0 H0_1 1.814108 1_555
Co0_0 Co3_4 2.443244 1_455
Co0_0 Co3_2 2.443244 1_555
Co0_0 Co3_0 2.443246 1_555
Co0_1 H0_2 1.814106 1_556
Co0_1 H0_0 1.814108 1_556
Co0_1 H0_6 1.814108 1_556
Co0_1 Co3_3 2.443244 1_555
Co0_1 Co3_5 2.443244 1_455
Co0_1 Co3_1 2.443246 1_555
Co0_2 H0_1 1.814106 1_565
Co0_2 H0_3 1.814108 1_555
Co0_2 H0_5 1.814108 1_565
Co0_2 Co3_6 2.443244 1_455
Co0_2 Co3_0 2.443244 1_565
Co0_2 Co3_2 2.443246 1_555
Co0_3 H0_0 1.814106 1_566
Co0_3 H0_2 1.814108 1_556
Co0_3 H0_4 1.814108 1_566
Co0_3 Co3_7 2.443244 1_455
Co0_3 Co3_1 2.443244 1_565
Co0_3 Co3_3 2.443246 1_555
Co0_4 H0_7 1.814106 1_555
Co0_4 H0_5 1.814108 1_555
Co0_4 H0_3 1.814108 1_655
Co0_4 Co3_6 2.443244 1_555
Co0_4 Co3_0 2.443244 1_555
Co0_4 Co3_4 2.443246 1_555
Co0_5 H0_6 1.814106 1_556
Co0_5 H0_4 1.814108 1_556
Co0_5 H0_2 1.814108 1_656
Co0_5 Co3_7 2.443244 1_555
Co0_5 Co3_1 2.443244 1_555
Co0_5 Co3_5 2.443246 1_555
Co0_6 H0_5 1.814106 1_565
Co0_6 H0_1 1.814108 1_665
Co0_6 H0_7 1.814108 1_555
Co0_6 Co3_4 2.443244 1_565
Co0_6 Co3_2 2.443244 1_555
Co0_6 Co3_6 2.443246 1_555
Co0_7 H0_4 1.814106 1_566
Co0_7 H0_0 1.814108 1_666
Co0_7 H0_6 1.814108 1_556
Co0_7 Co3_5 2.443244 1_565
Co0_7 Co3_3 2.443244 1_555
Co0_7 Co3_7 2.443246 1_555
Co1_0 Co2_2 2.443244 1_555
Co1_0 Co2_4 2.443244 1_455
Co1_0 Co2_0 2.443246 1_555
Co1_0 Co3_2 2.467766 1_555
Co1_0 Co3_4 2.467766 1_455
Co1_0 Co3_0 2.467768 1_555
Co1_0 Co1_4 2.517197 1_555
Co1_0 Co1_2 2.517197 1_545
Co1_0 Co1_4 2.517197 1_455
Co1_0 Co1_2 2.517197 1_555
Co1_0 Co1_6 2.517197 1_555
Co1_0 Co1_6 2.517197 1_445
Co1_1 Co2_3 2.443244 1_555
Co1_1 Co2_5 2.443244 1_455
Co1_1 Co2_1 2.443246 1_555
Co1_1 Co3_5 2.467766 1_455
Co1_1 Co3_3 2.467766 1_555
Co1_1 Co3_1 2.467768 1_555
Co1_1 Co1_3 2.517197 1_545
Co1_1 Co1_5 2.517197 1_555
Co1_1 Co1_5 2.517197 1_455
Co1_1 Co1_3 2.517197 1_555
Co1_1 Co1_7 2.517197 1_555
Co1_1 Co1_7 2.517197 1_445
Co1_2 Co2_6 2.443244 1_455
Co1_2 Co2_0 2.443244 1_565
Co1_2 Co2_2 2.443246 1_555
Co1_2 Co3_0 2.467766 1_565
Co1_2 Co3_6 2.467766 1_455
Co1_2 Co3_2 2.467768 1_555
Co1_2 Co1_6 2.517197 1_455
Co1_2 Co1_6 2.517197 1_555
Co1_2 Co1_4 2.517197 1_455
Co1_2 Co1_4 2.517197 1_565
Co1_3 Co2_7 2.443244 1_455
Co1_3 Co2_1 2.443244 1_565
Co1_3 Co2_3 2.443246 1_555
Co1_3 Co3_1 2.467766 1_565
Co1_3 Co3_7 2.467766 1_455
Co1_3 Co3_3 2.467768 1_555
Co1_3 Co1_7 2.517197 1_455
Co1_3 Co1_7 2.517197 1_555
Co1_3 Co1_5 2.517197 1_455
Co1_3 Co1_5 2.517197 1_565
Co1_4 Co2_6 2.443244 1_555
Co1_4 Co2_0 2.443244 1_555
Co1_4 Co2_4 2.443246 1_555
Co1_4 Co3_0 2.467766 1_555
Co1_4 Co3_6 2.467766 1_555
Co1_4 Co3_4 2.467768 1_555
Co1_4 Co1_6 2.517197 1_555
Co1_4 Co1_6 2.517197 1_545
Co1_5 Co2_7 2.443244 1_555
Co1_5 Co2_1 2.443244 1_555
Co1_5 Co2_5 2.443246 1_555
Co1_5 Co3_1 2.467766 1_555
Co1_5 Co3_7 2.467766 1_555
Co1_5 Co3_5 2.467768 1_555
Co1_5 Co1_7 2.517197 1_555
Co1_5 Co1_7 2.517197 1_545
Co1_6 Co2_2 2.443244 1_555
Co1_6 Co2_4 2.443244 1_565
Co1_6 Co2_6 2.443246 1_555
Co1_6 Co3_4 2.467766 1_565
Co1_6 Co3_2 2.467766 1_555
Co1_6 Co3_6 2.467768 1_555
Co1_7 Co2_5 2.443244 1_565
Co1_7 Co2_3 2.443244 1_555
Co1_7 Co2_7 2.443246 1_555
Co1_7 Co3_5 2.467766 1_565
Co1_7 Co3_3 2.467766 1_555
Co1_7 Co3_7 2.467768 1_555
Co2_0 H0_4 1.814106 1_555
Co2_0 H0_0 1.814108 1_555
Co2_0 H0_6 1.814108 1_555
Co2_1 H0_5 1.814106 1_555
Co2_1 H0_1 1.814108 1_555
Co2_1 H0_7 1.814108 1_555
Co2_2 H0_6 1.814106 1_555
Co2_2 H0_2 1.814108 1_555
Co2_2 H0_4 1.814108 1_565
Co2_3 H0_7 1.814106 1_555
Co2_3 H0_3 1.814108 1_555
Co2_3 H0_5 1.814108 1_565
Co2_4 H0_0 1.814106 1_655
Co2_4 H0_2 1.814108 1_655
Co2_4 H0_4 1.814108 1_555
Co2_5 H0_1 1.814106 1_655
Co2_5 H0_3 1.814108 1_655
Co2_5 H0_5 1.814108 1_555
Co2_6 H0_2 1.814106 1_655
Co2_6 H0_0 1.814108 1_665
Co2_6 H0_6 1.814108 1_555
Co2_7 H0_3 1.814106 1_655
Co2_7 H0_7 1.814108 1_555
Co2_7 H0_1 1.814108 1_665
Co3_0 Co3_4 2.517197 1_455
Co3_0 Co3_2 2.517197 1_555
Co3_0 Co3_4 2.517197 1_555
Co3_0 Co3_2 2.517197 1_545
Co3_0 Co3_6 2.517197 1_555
Co3_0 Co3_6 2.517197 1_445
Co3_1 Co3_3 2.517197 1_555
Co3_1 Co3_5 2.517197 1_455
Co3_1 Co3_5 2.517197 1_555
Co3_1 Co3_3 2.517197 1_545
Co3_1 Co3_7 2.517197 1_555
Co3_1 Co3_7 2.517197 1_445
Co3_2 Co3_6 2.517197 1_555
Co3_2 Co3_6 2.517197 1_455
Co3_2 Co3_4 2.517197 1_565
Co3_2 Co3_4 2.517197 1_455
Co3_3 Co3_7 2.517197 1_555
Co3_3 Co3_7 2.517197 1_455
Co3_3 Co3_5 2.517197 1_565
Co3_3 Co3_5 2.517197 1_455
Co3_4 Co3_6 2.517197 1_555
Co3_4 Co3_6 2.517197 1_545
Co3_5 Co3_7 2.517197 1_555
Co3_5 Co3_7 2.517197 1_545
