# generated using pymatgen
data_NaMg14Ga
_symmetry_space_group_name_H-M   'P 1'
_cell_length_a   6.35176546
_cell_length_b   6.39641531
_cell_length_c   10.36907163
_cell_angle_alpha   90.00000000
_cell_angle_beta   90.00000000
_cell_angle_gamma   120.23281366
_symmetry_Int_Tables_number   1
_chemical_formula_structural   NaMg14Ga
_chemical_formula_sum   'Na1 Mg14 Ga1'
_cell_volume   363.98038295
_cell_formula_units_Z   1
loop_
 _symmetry_equiv_pos_site_id
 _symmetry_equiv_pos_as_xyz
  1  'x, y, z'
loop_
 _atom_site_type_symbol
 _atom_site_label
 _atom_site_symmetry_multiplicity
 _atom_site_fract_x
 _atom_site_fract_y
 _atom_site_fract_z
 _atom_site_occupancy
  Na  Na0  1  0.16597416  0.33298658  0.12500000  1
  Mg  Mg0  1  0.16774113  0.33387007  0.62500000  1
  Mg  Mg1  1  0.16711408  0.83355654  0.62500000  1
  Mg  Mg2  1  0.66790624  0.33007823  0.12500000  1
  Mg  Mg3  1  0.66627170  0.33371633  0.62500000  1
  Mg  Mg4  1  0.66790624  0.83782701  0.12500000  1
  Mg  Mg5  1  0.66627170  0.83255438  0.62500000  1
  Mg  Mg6  1  0.33158895  0.16098614  0.37438542  1
  Mg  Mg7  1  0.33158895  0.16098614  0.87561458  1
  Mg  Mg8  1  0.33158895  0.67060381  0.37438542  1
  Mg  Mg9  1  0.33158895  0.67060381  0.87561458  1
  Mg  Mg10  1  0.82944736  0.16472418  0.37900390  1
  Mg  Mg11  1  0.82944736  0.16472418  0.87099610  1
  Mg  Mg12  1  0.83622845  0.66811473  0.37009990  1
  Mg  Mg13  1  0.83622845  0.66811473  0.87990010  1
  Ga  Ga0  1  0.17310732  0.83655316  0.12500000  1
loop_
_geom_bond_atom_site_label_1
_geom_bond_atom_site_label_2
_geom_bond_distance
_geom_bond_site_symmetry_2
Mg0 Mg10 3.154827 1_455
Mg0 Mg11 3.154827 1_455
Mg0 Mg5 3.167044 1_555
Mg0 Mg3 3.167045 1_555
Mg0 Mg5 3.184721 1_445
Mg0 Mg3 3.184721 1_455
Mg0 Mg6 3.196541 1_555
Mg0 Mg7 3.196541 1_555
Mg0 Mg8 3.196547 1_555
Mg0 Mg9 3.196547 1_555
Mg0 Mg1 3.198209 1_555
Mg0 Mg1 3.198210 1_545
Mg1 Mg8 3.166595 1_555
Mg1 Mg9 3.166595 1_555
Mg1 Mg6 3.166601 1_565
Mg1 Mg7 3.166601 1_565
Mg1 Mg3 3.173764 1_565
Mg1 Mg5 3.173765 1_555
Mg1 Mg3 3.178010 1_455
Mg1 Mg5 3.178011 1_455
Mg1 Mg13 3.206737 1_455
Mg1 Mg12 3.206737 1_455
Mg2 Mg4 3.148643 1_545
Mg2 Na0 3.154285 1_655
Mg2 Mg7 3.177001 1_554
Mg2 Mg6 3.177001 1_555
Mg2 Na0 3.197562 1_555
Mg2 Mg4 3.247772 1_555
Mg3 Mg6 3.182379 1_555
Mg3 Mg7 3.182379 1_555
Mg3 Mg5 3.190775 1_555
Mg3 Mg5 3.205640 1_545
Mg4 Na0 3.154284 1_665
Mg4 Mg9 3.177001 1_554
Mg4 Mg8 3.177001 1_555
Mg4 Na0 3.197562 1_555
Mg5 Mg8 3.182379 1_555
Mg5 Mg9 3.182379 1_555
Mg6 Mg8 3.136689 1_545
Mg6 Na0 3.188938 1_555
Mg6 Mg8 3.259726 1_555
Mg7 Mg9 3.136689 1_545
Mg7 Na0 3.188938 1_556
Mg7 Mg9 3.259726 1_555
Mg8 Na0 3.188945 1_555
Mg9 Na0 3.188945 1_556
Mg10 Mg3 3.142806 1_555
Mg10 Mg5 3.142813 1_545
Mg10 Mg8 3.150672 1_545
Mg10 Mg6 3.150672 1_555
Mg10 Mg2 3.193931 1_555
Mg10 Mg4 3.193937 1_545
Mg10 Mg12 3.199756 1_545
Mg10 Mg12 3.199756 1_555
Mg10 Mg8 3.201949 1_655
Mg10 Mg6 3.201949 1_655
Mg10 Na0 3.216755 1_655
Mg11 Mg3 3.142806 1_555
Mg11 Mg5 3.142813 1_545
Mg11 Mg9 3.150672 1_545
Mg11 Mg7 3.150672 1_555
Mg11 Mg2 3.193931 1_556
Mg11 Mg4 3.193937 1_546
Mg11 Mg13 3.199756 1_545
Mg11 Mg13 3.199756 1_555
Mg11 Mg9 3.201949 1_655
Mg11 Mg7 3.201949 1_655
Mg11 Na0 3.216755 1_656
Mg12 Mg6 3.138742 1_665
Mg12 Mg8 3.138742 1_655
Mg12 Mg4 3.154246 1_555
Mg12 Mg2 3.154252 1_555
Mg12 Mg6 3.213705 1_555
Mg12 Mg8 3.213705 1_555
Mg12 Mg5 3.225061 1_555
Mg12 Mg3 3.225068 1_555
Mg13 Mg7 3.138742 1_665
Mg13 Mg9 3.138742 1_655
Mg13 Mg4 3.154246 1_556
Mg13 Mg2 3.154252 1_556
Mg13 Mg7 3.213705 1_555
Mg13 Mg9 3.213705 1_555
Mg13 Mg5 3.225061 1_555
Mg13 Mg3 3.225068 1_555
Ga0 Mg2 3.138752 1_565
Ga0 Mg4 3.138752 1_555
Ga0 Mg12 3.142744 1_455
Ga0 Mg13 3.142744 1_454
Ga0 Mg9 3.146896 1_554
Ga0 Mg8 3.146896 1_555
Ga0 Mg7 3.146902 1_564
Ga0 Mg6 3.146902 1_565
Ga0 Na0 3.198447 1_555
Ga0 Na0 3.198447 1_565
Ga0 Mg2 3.213029 1_455
Ga0 Mg4 3.213029 1_455
