# generated using pymatgen
data_Ba2PrNbO6
_symmetry_space_group_name_H-M   'P 1'
_cell_length_a   6.15465400
_cell_length_b   6.18161700
_cell_length_c   10.63137520
_cell_angle_alpha   54.84412525
_cell_angle_beta   90.00000000
_cell_angle_gamma   90.00000000
_symmetry_Int_Tables_number   1
_chemical_formula_structural   Ba2PrNbO6
_chemical_formula_sum   'Ba4 Pr2 Nb2 O12'
_cell_volume   330.69680647
_cell_formula_units_Z   2
loop_
 _symmetry_equiv_pos_site_id
 _symmetry_equiv_pos_as_xyz
  1  'x, y, z'
loop_
 _atom_site_type_symbol
 _atom_site_label
 _atom_site_symmetry_multiplicity
 _atom_site_fract_x
 _atom_site_fract_y
 _atom_site_fract_z
 _atom_site_occupancy
  Ba  Ba0  1  0.51512800  0.75667200  0.74887400  1
  Ba  Ba1  1  0.98487200  0.75667200  0.24887400  1
  Ba  Ba2  1  0.01512800  0.24332800  0.75112600  1
  Ba  Ba3  1  0.48487200  0.24332800  0.25112600  1
  Pr  Pr0  1  0.50000000  0.50000000  0.50000000  1
  Pr  Pr1  1  0.00000000  0.50000000  0.00000000  1
  Nb  Nb0  1  0.50000000  0.00000000  0.00000000  1
  Nb  Nb1  1  0.00000000  0.00000000  0.50000000  1
  O  O0  1  0.99044000  0.70559900  0.72933000  1
  O  O1  1  0.49044000  0.29440100  0.77067000  1
  O  O2  1  0.00956000  0.29440100  0.27067000  1
  O  O3  1  0.50956000  0.70559900  0.22933000  1
  O  O4  1  0.78727800  0.21318000  0.53441600  1
  O  O5  1  0.28727800  0.78682000  0.96558400  1
  O  O6  1  0.21272200  0.78682000  0.46558400  1
  O  O7  1  0.71272200  0.21318000  0.03441600  1
  O  O8  1  0.24857500  0.17371100  0.03562400  1
  O  O9  1  0.74857500  0.82628900  0.46437600  1
  O  O10  1  0.75142500  0.82628900  0.96437600  1
  O  O11  1  0.25142500  0.17371100  0.53562400  1
loop_
_geom_bond_atom_site_label_1
_geom_bond_atom_site_label_2
_geom_bond_distance
_geom_bond_site_symmetry_2
Ba0 O1 2.734960 1_555
Ba0 O11 2.772959 1_565
Ba0 O5 2.793531 1_555
Ba0 O4 2.925390 1_565
Ba0 O10 2.946991 1_555
Ba0 O0 2.962473 1_555
Ba0 O9 3.146240 1_555
Ba0 O7 3.199471 1_556
Ba0 O0 3.262912 1_455
Ba1 O2 2.734960 1_655
Ba1 O8 2.772959 1_665
Ba1 O6 2.793531 1_655
Ba1 O7 2.925390 1_565
Ba1 O9 2.946991 1_555
Ba1 O3 2.962473 1_555
Ba1 O10 3.146240 1_554
Ba1 O4 3.199471 1_555
Ba1 O3 3.262912 1_655
Ba2 O0 2.734960 1_455
Ba2 O10 2.772959 1_445
Ba2 O4 2.793531 1_455
Ba2 O5 2.925390 1_545
Ba2 O11 2.946991 1_555
Ba2 O1 2.962473 1_555
Ba2 O8 3.146240 1_556
Ba2 O6 3.199471 1_555
Ba2 O1 3.262912 1_455
Ba3 O3 2.734960 1_555
Ba3 O9 2.772959 1_545
Ba3 O7 2.793531 1_555
Ba3 O6 2.925390 1_545
Ba3 O8 2.946991 1_555
Ba3 O2 2.962473 1_555
Ba3 O11 3.146240 1_555
Ba3 O5 3.199471 1_554
Ba3 O2 3.262912 1_655
Nb0 O7 2.034654 1_555
Nb0 O5 2.034654 1_544
Nb0 O1 2.037155 1_554
Nb0 O3 2.037155 1_545
Nb0 O8 2.039464 1_555
Nb0 O10 2.039464 1_544
Nb1 O6 2.034654 1_545
Nb1 O4 2.034654 1_455
Nb1 O2 2.037155 1_555
Nb1 O0 2.037155 1_445
Nb1 O11 2.039464 1_555
Nb1 O9 2.039464 1_445
O0 Pr1 2.384868 1_656
O1 Pr0 2.384868 1_555
O2 Pr1 2.384868 1_555
O3 Pr0 2.384868 1_555
O4 Pr0 2.378347 1_555
O5 Pr1 2.378347 1_556
O6 Pr0 2.378347 1_555
O7 Pr1 2.378347 1_655
O8 Pr1 2.381714 1_555
O9 Pr0 2.381714 1_555
O10 Pr1 2.381714 1_656
O11 Pr0 2.381714 1_555
