# generated using pymatgen
data_Y(Ni2B)6
_symmetry_space_group_name_H-M   'P 1'
_cell_length_a   5.97691917
_cell_length_b   5.97691917
_cell_length_c   10.91590810
_cell_angle_alpha   90.00000000
_cell_angle_beta   90.00000000
_cell_angle_gamma   104.71673860
_symmetry_Int_Tables_number   1
_chemical_formula_structural   Y(Ni2B)6
_chemical_formula_sum   'Y2 Ni24 B12'
_cell_volume   377.16209590
_cell_formula_units_Z   2
loop_
 _symmetry_equiv_pos_site_id
 _symmetry_equiv_pos_as_xyz
  1  'x, y, z'
loop_
 _atom_site_type_symbol
 _atom_site_label
 _atom_site_symmetry_multiplicity
 _atom_site_fract_x
 _atom_site_fract_y
 _atom_site_fract_z
 _atom_site_occupancy
  Y  Y0  1  0.83318346  0.83318346  0.49559174  1
  Y  Y1  1  0.16681654  0.16681654  0.99559174  1
  Ni  Ni0  1  0.56650166  0.56650166  0.91830303  1
  Ni  Ni1  1  0.43349834  0.43349834  0.41830303  1
  Ni  Ni2  1  0.78012694  0.78012694  0.09904165  1
  Ni  Ni3  1  0.21987306  0.21987306  0.59904165  1
  Ni  Ni4  1  0.54330299  0.80497926  0.73423033  1
  Ni  Ni5  1  0.80497926  0.54330299  0.73423033  1
  Ni  Ni6  1  0.45669701  0.19502074  0.23423033  1
  Ni  Ni7  1  0.19502074  0.45669701  0.23423033  1
  Ni  Ni8  1  0.14635383  0.88118835  0.75559403  1
  Ni  Ni9  1  0.88118835  0.14635383  0.75559403  1
  Ni  Ni10  1  0.85364617  0.11881165  0.25559403  1
  Ni  Ni11  1  0.11881165  0.85364617  0.25559403  1
  Ni  Ni12  1  0.65734112  0.27101524  0.56778999  1
  Ni  Ni13  1  0.27101524  0.65734112  0.56778999  1
  Ni  Ni14  1  0.34265888  0.72898476  0.06778999  1
  Ni  Ni15  1  0.72898476  0.34265888  0.06778999  1
  Ni  Ni16  1  0.63086404  0.99593494  0.93752275  1
  Ni  Ni17  1  0.99593494  0.63086404  0.93752275  1
  Ni  Ni18  1  0.36913596  0.00406506  0.43752275  1
  Ni  Ni19  1  0.00406506  0.36913596  0.43752275  1
  Ni  Ni20  1  0.47398577  0.21183567  0.77588724  1
  Ni  Ni21  1  0.21183567  0.47398577  0.77588724  1
  Ni  Ni22  1  0.52601423  0.78816433  0.27588724  1
  Ni  Ni23  1  0.78816433  0.52601423  0.27588724  1
  B  B0  1  0.83708425  0.83708425  0.83741441  1
  B  B1  1  0.16291575  0.16291575  0.33741441  1
  B  B2  1  0.48840933  0.48840933  0.65555682  1
  B  B3  1  0.51159067  0.51159067  0.15555682  1
  B  B4  1  0.32628151  0.75724228  0.88502906  1
  B  B5  1  0.75724228  0.32628151  0.88502906  1
  B  B6  1  0.67371849  0.24275772  0.38502906  1
  B  B7  1  0.24275772  0.67371849  0.38502906  1
  B  B8  1  0.40069997  0.98737192  0.62249478  1
  B  B9  1  0.98737192  0.40069997  0.62249478  1
  B  B10  1  0.59930003  0.01262808  0.12249478  1
  B  B11  1  0.01262808  0.59930003  0.12249478  1
loop_
_geom_bond_atom_site_label_1
_geom_bond_atom_site_label_2
_geom_bond_distance
_geom_bond_site_symmetry_2
Ni0 Y1 3.037406 1_555
Ni1 Y0 3.037406 1_555
Ni2 Y1 3.040492 1_664
Ni3 Y0 3.040492 1_445
Ni4 Y0 3.109292 1_555
Ni5 Y0 3.109292 1_555
Ni6 Y1 3.109292 1_554
Ni7 Y1 3.109292 1_554
Ni8 Y1 3.112337 1_565
Ni8 Y0 3.371680 1_455
Ni9 Y1 3.112337 1_655
Ni9 Y0 3.371680 1_545
Ni10 Y0 3.112337 1_545
Ni10 Y1 3.371680 1_654
Ni11 Y0 3.112337 1_455
Ni11 Y1 3.371680 1_564
Ni12 Y0 3.157719 1_545
Ni12 Y0 3.349822 1_555
Ni13 Y0 3.157719 1_455
Ni13 Y0 3.349822 1_555
Ni14 Y1 3.157719 1_564
Ni14 Y1 3.349822 1_554
Ni15 Y1 3.157719 1_654
Ni15 Y1 3.349822 1_554
Ni16 Y1 3.169237 1_665
Ni16 Y1 3.252221 1_565
Ni17 Y1 3.169237 1_665
Ni17 Y1 3.252221 1_655
Ni18 Y0 3.169237 1_445
Ni18 Y0 3.252221 1_545
Ni19 Y0 3.169237 1_445
Ni19 Y0 3.252221 1_455
Ni20 Y1 2.990610 1_555
Ni21 Y1 2.990610 1_555
Ni22 Y0 2.990610 1_555
Ni23 Y0 2.990610 1_555
B0 Ni9 2.009103 1_565
B0 Ni8 2.009103 1_655
B0 Ni16 2.051675 1_555
B0 Ni17 2.051675 1_555
B0 Ni4 2.053655 1_555
B0 Ni5 2.053655 1_555
B0 Ni0 2.163736 1_555
B0 Y1 2.962416 1_665
B1 Ni11 2.009103 1_545
B1 Ni10 2.009103 1_455
B1 Ni18 2.051675 1_555
B1 Ni19 2.051675 1_555
B1 Ni7 2.053655 1_555
B1 Ni6 2.053655 1_555
B1 Ni1 2.163736 1_555
B1 Y0 2.962416 1_445
B2 Ni4 2.027276 1_555
B2 Ni5 2.027276 1_555
B2 Ni3 2.055212 1_555
B2 Ni12 2.071767 1_555
B2 Ni13 2.071767 1_555
B2 Ni21 2.095937 1_555
B2 Ni20 2.095937 1_555
B2 Y0 3.063400 1_555
B3 Ni7 2.027276 1_555
B3 Ni6 2.027276 1_555
B3 Ni2 2.055212 1_555
B3 Ni14 2.071767 1_555
B3 Ni15 2.071767 1_555
B3 Ni22 2.095937 1_555
B3 Ni23 2.095937 1_555
B3 Y1 3.063400 1_554
B4 Ni14 2.006623 1_556
B4 Ni17 2.009881 1_455
B4 Ni8 2.026423 1_555
B4 Ni21 2.040871 1_555
B4 Ni4 2.070157 1_555
B4 Ni0 2.079597 1_555
B4 Ni16 2.087629 1_555
B4 Y1 3.089195 1_565
B5 Ni15 2.006623 1_556
B5 Ni16 2.009881 1_545
B5 Ni9 2.026423 1_555
B5 Ni20 2.040871 1_555
B5 Ni5 2.070157 1_555
B5 Ni0 2.079597 1_555
B5 Ni17 2.087629 1_555
B5 Y1 3.089195 1_655
B6 Ni12 2.006623 1_555
B6 Ni19 2.009881 1_655
B6 Ni10 2.026423 1_555
B6 Ni23 2.040871 1_555
B6 Ni6 2.070157 1_555
B6 Ni1 2.079597 1_555
B6 Ni18 2.087629 1_555
B6 Y0 3.089195 1_545
B7 Ni13 2.006623 1_555
B7 Ni18 2.009881 1_565
B7 Ni11 2.026423 1_555
B7 Ni22 2.040871 1_555
B7 Ni7 2.070157 1_555
B7 Ni1 2.079597 1_555
B7 Ni19 2.087629 1_555
B7 Y0 3.089195 1_455
B8 Ni4 1.968407 1_555
B8 Ni3 1.981877 1_565
B8 Ni13 2.017815 1_555
B8 Ni18 2.032739 1_565
B8 Ni12 2.064545 1_565
B8 Ni8 2.081953 1_555
B8 Ni20 2.120580 1_565
B8 Y0 3.265026 1_555
B9 Ni5 1.968407 1_555
B9 Ni3 1.981877 1_655
B9 Ni12 2.017815 1_555
B9 Ni19 2.032739 1_655
B9 Ni13 2.064545 1_655
B9 Ni9 2.081953 1_555
B9 Ni21 2.120580 1_655
B9 Y0 3.265026 1_555
B10 Ni6 1.968407 1_555
B10 Ni2 1.981877 1_545
B10 Ni15 2.017815 1_555
B10 Ni16 2.032739 1_544
B10 Ni14 2.064545 1_545
B10 Ni10 2.081953 1_555
B10 Ni22 2.120580 1_545
B10 Y1 3.265026 1_554
B11 Ni7 1.968407 1_555
B11 Ni2 1.981877 1_455
B11 Ni14 2.017815 1_555
B11 Ni17 2.032739 1_454
B11 Ni15 2.064545 1_455
B11 Ni11 2.081953 1_555
B11 Ni23 2.120580 1_455
B11 Y1 3.265026 1_554
