# generated using pymatgen
data_CaH12C2N7ClO6
_symmetry_space_group_name_H-M   'P 1'
_cell_length_a   8.61212900
_cell_length_b   11.63685900
_cell_length_c   14.48087769
_cell_angle_alpha   90.00000000
_cell_angle_beta   118.57267938
_cell_angle_gamma   90.00000000
_symmetry_Int_Tables_number   1
_chemical_formula_structural   CaH12C2N7ClO6
_chemical_formula_sum   'Ca4 H48 C8 N28 Cl4 O24'
_cell_volume   1274.50082864
_cell_formula_units_Z   4
loop_
 _symmetry_equiv_pos_site_id
 _symmetry_equiv_pos_as_xyz
  1  'x, y, z'
loop_
 _atom_site_type_symbol
 _atom_site_label
 _atom_site_symmetry_multiplicity
 _atom_site_fract_x
 _atom_site_fract_y
 _atom_site_fract_z
 _atom_site_occupancy
  Ca  Ca0  1  0.86997300  0.14436700  0.95393200  1
  Ca  Ca1  1  0.86997300  0.35563300  0.45393200  1
  Ca  Ca2  1  0.13002700  0.85563300  0.04606800  1
  Ca  Ca3  1  0.13002700  0.64436700  0.54606800  1
  H  H0  1  0.90014100  0.66412100  0.06558600  1
  H  H1  1  0.90014100  0.83587900  0.56558600  1
  H  H2  1  0.09985900  0.33587900  0.93441400  1
  H  H3  1  0.09985900  0.16412100  0.43441400  1
  H  H4  1  0.88368900  0.65078400  0.94740000  1
  H  H5  1  0.88368900  0.84921600  0.44740000  1
  H  H6  1  0.11631100  0.34921600  0.05260000  1
  H  H7  1  0.11631100  0.15078400  0.55260000  1
  H  H8  1  0.60166500  0.71164100  0.93043500  1
  H  H9  1  0.60166500  0.78835900  0.43043500  1
  H  H10  1  0.39833500  0.28835900  0.06956500  1
  H  H11  1  0.39833500  0.21164100  0.56956500  1
  H  H12  1  0.51459900  0.00743000  0.88645500  1
  H  H13  1  0.51459900  0.49257000  0.38645500  1
  H  H14  1  0.48540100  0.99257000  0.11354500  1
  H  H15  1  0.48540100  0.50743000  0.61354500  1
  H  H16  1  0.42751100  0.86806900  0.86138100  1
  H  H17  1  0.42751100  0.63193100  0.36138100  1
  H  H18  1  0.57248900  0.13193100  0.13861900  1
  H  H19  1  0.57248900  0.36806900  0.63861900  1
  H  H20  1  0.78872800  0.39081600  0.01738700  1
  H  H21  1  0.78872800  0.10918400  0.51738700  1
  H  H22  1  0.21127200  0.60918400  0.98261300  1
  H  H23  1  0.21127200  0.89081600  0.48261300  1
  H  H24  1  0.79346200  0.40841300  0.90527600  1
  H  H25  1  0.79346200  0.09158700  0.40527600  1
  H  H26  1  0.20653800  0.59158700  0.09472400  1
  H  H27  1  0.20653800  0.90841300  0.59472400  1
  H  H28  1  0.49486100  0.43118900  0.87573600  1
  H  H29  1  0.49486100  0.06881100  0.37573600  1
  H  H30  1  0.50513900  0.56881100  0.12426400  1
  H  H31  1  0.50513900  0.93118900  0.62426400  1
  H  H32  1  0.22949900  0.18482400  0.77125300  1
  H  H33  1  0.22949900  0.31517600  0.27125300  1
  H  H34  1  0.77050100  0.81517600  0.22874700  1
  H  H35  1  0.77050100  0.68482400  0.72874700  1
  H  H36  1  0.23254800  0.33401600  0.77373100  1
  H  H37  1  0.23254800  0.16598400  0.27373100  1
  H  H38  1  0.76745200  0.66598400  0.22626900  1
  H  H39  1  0.76745200  0.83401600  0.72626900  1
  H  H40  1  0.87282000  0.20900100  0.16239100  1
  H  H41  1  0.87282000  0.29099900  0.66239100  1
  H  H42  1  0.12718000  0.79099900  0.83760900  1
  H  H43  1  0.12718000  0.70900100  0.33760900  1
  H  H44  1  0.92041600  0.07955500  0.17436300  1
  H  H45  1  0.92041600  0.42044500  0.67436300  1
  H  H46  1  0.07958400  0.92044500  0.82563700  1
  H  H47  1  0.07958400  0.57955500  0.32563700  1
  C  C0  1  0.69819200  0.87765300  0.94661500  1
  C  C1  1  0.69819200  0.62234700  0.44661500  1
  C  C2  1  0.30180800  0.12234700  0.05338500  1
  C  C3  1  0.30180800  0.37765300  0.55338500  1
  C  C4  1  0.47409500  0.25406000  0.85807900  1
  C  C5  1  0.47409500  0.24594000  0.35807900  1
  C  C6  1  0.52590500  0.74594000  0.14192100  1
  C  C7  1  0.52590500  0.75406000  0.64192100  1
  N  N0  1  0.87919900  0.70933700  0.99957800  1
  N  N1  1  0.87919900  0.79066300  0.49957800  1
  N  N2  1  0.12080100  0.29066300  0.00042200  1
  N  N3  1  0.12080100  0.20933700  0.50042200  1
  N  N4  1  0.71187600  0.76124400  0.95320300  1
  N  N5  1  0.71187600  0.73875600  0.45320300  1
  N  N6  1  0.28812400  0.23875600  0.04679700  1
  N  N7  1  0.28812400  0.26124400  0.54679700  1
  N  N8  1  0.74741200  0.35545400  0.94417900  1
  N  N9  1  0.74741200  0.14454600  0.44417900  1
  N  N10  1  0.25258800  0.64454600  0.05582100  1
  N  N11  1  0.25258800  0.85545400  0.55582100  1
  N  N12  1  0.56166900  0.35543300  0.88780400  1
  N  N13  1  0.56166900  0.14456700  0.38780400  1
  N  N14  1  0.43833100  0.64456700  0.11219600  1
  N  N15  1  0.43833100  0.85543300  0.61219600  1
  N  N16  1  0.53307000  0.92068000  0.89975900  1
  N  N17  1  0.53307000  0.57932000  0.39975900  1
  N  N18  1  0.46693000  0.07932000  0.10024100  1
  N  N19  1  0.46693000  0.42068000  0.60024100  1
  N  N20  1  0.29494300  0.25898800  0.80680900  1
  N  N21  1  0.29494300  0.24101200  0.30680900  1
  N  N22  1  0.70505700  0.74101200  0.19319100  1
  N  N23  1  0.70505700  0.75898800  0.69319100  1
  N  N24  1  0.71663300  0.11372500  0.72218600  1
  N  N25  1  0.71663300  0.38627500  0.22218600  1
  N  N26  1  0.28336700  0.88627500  0.27781400  1
  N  N27  1  0.28336700  0.61372500  0.77781400  1
  Cl  Cl0  1  0.92792400  0.97774700  0.32441700  1
  Cl  Cl1  1  0.92792400  0.52225300  0.82441700  1
  Cl  Cl2  1  0.07207600  0.02225300  0.67558300  1
  Cl  Cl3  1  0.07207600  0.47774700  0.17558300  1
  O  O0  1  0.83582700  0.94070000  0.98385100  1
  O  O1  1  0.83582700  0.55930000  0.48385100  1
  O  O2  1  0.16417300  0.05930000  0.01614900  1
  O  O3  1  0.16417300  0.44070000  0.51614900  1
  O  O4  1  0.55692500  0.15945900  0.87928900  1
  O  O5  1  0.55692500  0.34054100  0.37928900  1
  O  O6  1  0.44307500  0.84054100  0.12071100  1
  O  O7  1  0.44307500  0.65945900  0.62071100  1
  O  O8  1  0.76456500  0.03034500  0.78616500  1
  O  O9  1  0.76456500  0.46965500  0.28616500  1
  O  O10  1  0.23543500  0.96965500  0.21383500  1
  O  O11  1  0.23543500  0.53034500  0.71383500  1
  O  O12  1  0.77777200  0.21373200  0.75748100  1
  O  O13  1  0.77777200  0.28626800  0.25748100  1
  O  O14  1  0.22222800  0.78626800  0.24251900  1
  O  O15  1  0.22222800  0.71373200  0.74251900  1
  O  O16  1  0.60921200  0.09873900  0.62608000  1
  O  O17  1  0.60921200  0.40126100  0.12608000  1
  O  O18  1  0.39078800  0.90126100  0.37392000  1
  O  O19  1  0.39078800  0.59873900  0.87392000  1
  O  O20  1  0.90987100  0.14742600  0.13107300  1
  O  O21  1  0.90987100  0.35257400  0.63107300  1
  O  O22  1  0.09012900  0.85257400  0.86892700  1
  O  O23  1  0.09012900  0.64742600  0.36892700  1
loop_
_geom_bond_atom_site_label_1
_geom_bond_atom_site_label_2
_geom_bond_distance
_geom_bond_site_symmetry_2
Ca0 O4 2.383311 1_555
Ca0 O20 2.419971 1_556
Ca0 O0 2.452176 1_545
Ca0 O2 2.455133 1_656
Ca0 O8 2.525296 1_555
Ca0 N2 2.574241 1_656
Ca0 N8 2.650529 1_555
Ca0 O12 2.685912 1_555
Ca1 O5 2.383311 1_555
Ca1 O21 2.419971 1_555
Ca1 O1 2.452176 1_555
Ca1 O3 2.455133 1_655
Ca1 O9 2.525296 1_555
Ca1 N3 2.574241 1_655
Ca1 N9 2.650529 1_555
Ca1 O13 2.685912 1_555
Ca2 O6 2.383311 1_555
Ca2 O22 2.419971 1_554
Ca2 O2 2.452176 1_565
Ca2 O0 2.455133 1_454
Ca2 O10 2.525296 1_555
Ca2 N0 2.574241 1_454
Ca2 N10 2.650529 1_555
Ca2 O14 2.685912 1_555
Ca3 O7 2.383311 1_555
Ca3 O23 2.419971 1_555
Ca3 O3 2.452176 1_555
Ca3 O1 2.455133 1_455
Ca3 O11 2.525296 1_555
Ca3 N1 2.574241 1_455
Ca3 N11 2.650529 1_555
Ca3 O15 2.685912 1_555
H0 N0 1.028659 1_554
H1 N1 1.028659 1_555
H2 N2 1.028659 1_556
H3 N3 1.028659 1_555
H4 N0 1.031803 1_555
H5 N1 1.031803 1_555
H6 N2 1.031803 1_555
H7 N3 1.031803 1_555
H8 N4 1.021489 1_555
H9 N5 1.021489 1_555
H10 N6 1.021489 1_555
H11 N7 1.021489 1_555
H12 N16 1.025764 1_545
H13 N17 1.025764 1_555
H14 N18 1.025764 1_565
H15 N19 1.025764 1_555
H16 N16 1.013335 1_555
H17 N17 1.013335 1_555
H18 N18 1.013335 1_555
H19 N19 1.013335 1_555
H20 N8 1.029062 1_554
H21 N9 1.029062 1_555
H22 N10 1.029062 1_556
H23 N11 1.029062 1_555
H24 N8 1.033514 1_555
H25 N9 1.033514 1_555
H26 N10 1.033514 1_555
H27 N11 1.033514 1_555
H28 N12 1.021054 1_555
H29 N13 1.021054 1_555
H30 N14 1.021054 1_555
H31 N15 1.021054 1_555
H32 N20 1.024700 1_555
H33 N21 1.024700 1_555
H34 N22 1.024700 1_555
H35 N23 1.024700 1_555
H36 N20 1.016990 1_555
H37 N21 1.016990 1_555
H38 N22 1.016990 1_555
H39 N23 1.016990 1_555
H40 O20 0.979460 1_555
H41 O21 0.979460 1_555
H42 O22 0.979460 1_555
H43 O23 0.979460 1_555
H44 O20 0.985169 1_555
H45 O21 0.985169 1_555
H46 O22 0.985169 1_555
H47 O23 0.985169 1_555
C0 O0 1.273836 1_555
C0 N16 1.345496 1_555
C0 N4 1.359144 1_555
C1 O1 1.273836 1_555
C1 N17 1.345496 1_555
C1 N5 1.359144 1_555
C2 O2 1.273836 1_555
C2 N18 1.345496 1_555
C2 N6 1.359144 1_555
C3 O3 1.273836 1_555
C3 N19 1.345496 1_555
C3 N7 1.359144 1_555
C4 O4 1.267086 1_555
C4 N12 1.354684 1_555
C4 N20 1.356195 1_555
C5 O5 1.267086 1_555
C5 N13 1.354684 1_555
C5 N21 1.356195 1_555
C6 O6 1.267086 1_555
C6 N14 1.354684 1_555
C6 N22 1.356195 1_555
C7 O7 1.267086 1_555
C7 N15 1.354684 1_555
C7 N23 1.356195 1_555
N0 N4 1.402384 1_555
N1 N5 1.402384 1_555
N2 N6 1.402384 1_555
N3 N7 1.402384 1_555
N10 N14 1.405760 1_555
N11 N15 1.405760 1_555
N12 N8 1.405760 1_555
N13 N9 1.405760 1_555
N24 O16 1.261564 1_555
N24 O8 1.266638 1_555
N24 O12 1.278828 1_555
N25 O17 1.261564 1_555
N25 O9 1.266638 1_555
N25 O13 1.278828 1_555
N26 O18 1.261564 1_555
N26 O10 1.266638 1_555
N26 O14 1.278828 1_555
N27 O19 1.261564 1_555
N27 O11 1.266638 1_555
N27 O15 1.278828 1_555
