# generated using pymatgen
data_CrGaN2
_symmetry_space_group_name_H-M   'P 1'
_cell_length_a   5.52716300
_cell_length_b   6.58245900
_cell_length_c   5.16830600
_cell_angle_alpha   90.00000000
_cell_angle_beta   90.00000000
_cell_angle_gamma   90.00000000
_symmetry_Int_Tables_number   1
_chemical_formula_structural   CrGaN2
_chemical_formula_sum   'Cr4 Ga4 N8'
_cell_volume   188.03498256
_cell_formula_units_Z   4
loop_
 _symmetry_equiv_pos_site_id
 _symmetry_equiv_pos_as_xyz
  1  'x, y, z'
loop_
 _atom_site_type_symbol
 _atom_site_label
 _atom_site_symmetry_multiplicity
 _atom_site_fract_x
 _atom_site_fract_y
 _atom_site_fract_z
 _atom_site_occupancy
  Cr  Cr0  1  0.57452100  0.87394500  0.99942700  1
  Cr  Cr1  1  0.42547900  0.12605500  0.49942700  1
  Cr  Cr2  1  0.92547900  0.37394500  0.49942700  1
  Cr  Cr3  1  0.07452100  0.62605500  0.99942700  1
  Ga  Ga0  1  0.58295200  0.37572900  0.00335900  1
  Ga  Ga1  1  0.41704800  0.62427100  0.50335900  1
  Ga  Ga2  1  0.91704800  0.87572900  0.50335900  1
  Ga  Ga3  1  0.08295200  0.12427100  0.00335900  1
  N  N0  1  0.58474500  0.37821600  0.38708300  1
  N  N1  1  0.41525500  0.62178400  0.88708300  1
  N  N2  1  0.91525500  0.87821600  0.88708300  1
  N  N3  1  0.08474500  0.12178400  0.38708300  1
  N  N4  1  0.58090300  0.87219500  0.38013200  1
  N  N5  1  0.41909700  0.12780500  0.88013200  1
  N  N6  1  0.91909700  0.37219500  0.88013200  1
  N  N7  1  0.08090300  0.62780500  0.38013200  1
loop_
_geom_bond_atom_site_label_1
_geom_bond_atom_site_label_2
_geom_bond_distance
_geom_bond_site_symmetry_2
Cr0 N1 1.966496 1_555
Cr0 N4 1.967950 1_556
Cr0 N2 1.970967 1_555
Cr0 N5 1.977480 1_565
Cr1 N0 1.966496 1_555
Cr1 N5 1.967950 1_555
Cr1 N3 1.970967 1_555
Cr1 N4 1.977480 1_545
Cr2 N3 1.966496 1_655
Cr2 N6 1.967950 1_555
Cr2 N0 1.970967 1_555
Cr2 N7 1.977480 1_655
Cr3 N2 1.966496 1_455
Cr3 N7 1.967950 1_556
Cr3 N1 1.970967 1_555
Cr3 N6 1.977480 1_455
Ga0 N1 1.960490 1_554
Ga0 N6 1.964191 1_554
Ga0 N5 1.972074 1_554
Ga0 N0 1.983295 1_555
Ga1 N0 1.960490 1_555
Ga1 N7 1.964191 1_555
Ga1 N4 1.972074 1_555
Ga1 N1 1.983295 1_555
Ga2 N3 1.960490 1_665
Ga2 N4 1.964191 1_555
Ga2 N7 1.972074 1_655
Ga2 N2 1.983295 1_555
Ga3 N2 1.960490 1_444
Ga3 N5 1.964191 1_554
Ga3 N6 1.972074 1_454
Ga3 N3 1.983295 1_555
