# generated using pymatgen
data_NaMg(PO3)3
_symmetry_space_group_name_H-M   'P 1'
_cell_length_a   14.39722401
_cell_length_b   14.51920557
_cell_length_c   14.45220499
_cell_angle_alpha   90.00000000
_cell_angle_beta   90.00000000
_cell_angle_gamma   90.00000000
_symmetry_Int_Tables_number   1
_chemical_formula_structural   NaMg(PO3)3
_chemical_formula_sum   'Na16 Mg16 P48 O144'
_cell_volume   3021.03480816
_cell_formula_units_Z   16
loop_
 _symmetry_equiv_pos_site_id
 _symmetry_equiv_pos_as_xyz
  1  'x, y, z'
loop_
 _atom_site_type_symbol
 _atom_site_label
 _atom_site_symmetry_multiplicity
 _atom_site_fract_x
 _atom_site_fract_y
 _atom_site_fract_z
 _atom_site_occupancy
  Na  Na0  1  0.50000000  0.50000000  -0.00000000  1
  Na  Na1  1  -0.00000000  -0.00000000  -0.00000000  1
  Na  Na2  1  -0.00000000  0.50000000  0.50000000  1
  Na  Na3  1  0.50000000  -0.00000000  0.50000000  1
  Na  Na4  1  0.50000000  -0.00000000  -0.00000000  1
  Na  Na5  1  -0.00000000  0.50000000  -0.00000000  1
  Na  Na6  1  -0.00000000  -0.00000000  0.50000000  1
  Na  Na7  1  0.50000000  0.50000000  0.50000000  1
  Na  Na8  1  0.75166413  0.25217660  0.75540002  1
  Na  Na9  1  0.74833587  0.75217660  0.24459998  1
  Na  Na10  1  0.25166413  0.74782340  0.74459998  1
  Na  Na11  1  0.24833587  0.24782340  0.25540002  1
  Na  Na12  1  0.24833587  0.74782340  0.24459998  1
  Na  Na13  1  0.25166413  0.24782340  0.75540002  1
  Na  Na14  1  0.74833587  0.25217660  0.25540002  1
  Na  Na15  1  0.75166413  0.75217660  0.74459998  1
  Mg  Mg0  1  0.88274641  0.37298633  0.62989576  1
  Mg  Mg1  1  0.61725359  0.87298633  0.37010424  1
  Mg  Mg2  1  0.38274641  0.62701367  0.87010424  1
  Mg  Mg3  1  0.11725359  0.12701367  0.12989576  1
  Mg  Mg4  1  0.11725359  0.62701367  0.37010424  1
  Mg  Mg5  1  0.38274641  0.12701367  0.62989576  1
  Mg  Mg6  1  0.61725359  0.37298633  0.12989576  1
  Mg  Mg7  1  0.88274641  0.87298633  0.87010424  1
  Mg  Mg8  1  0.63300490  0.11962593  0.88353822  1
  Mg  Mg9  1  0.86699510  0.61962593  0.11646178  1
  Mg  Mg10  1  0.13300490  0.88037407  0.61646178  1
  Mg  Mg11  1  0.36699510  0.38037407  0.38353822  1
  Mg  Mg12  1  0.36699510  0.88037407  0.11646178  1
  Mg  Mg13  1  0.13300490  0.38037407  0.88353822  1
  Mg  Mg14  1  0.86699510  0.11962593  0.38353822  1
  Mg  Mg15  1  0.63300490  0.61962593  0.61646178  1
  P  P0  1  0.75490400  0.47403076  0.97639916  1
  P  P1  1  0.74509600  0.97403076  0.02360084  1
  P  P2  1  0.25490400  0.52596924  0.52360084  1
  P  P3  1  0.24509600  0.02596924  0.47639916  1
  P  P4  1  0.24509600  0.52596924  0.02360084  1
  P  P5  1  0.25490400  0.02596924  0.97639916  1
  P  P6  1  0.74509600  0.47403076  0.47639916  1
  P  P7  1  0.75490400  0.97403076  0.52360084  1
  P  P8  1  0.77383767  0.27270342  0.00092053  1
  P  P9  1  0.72616233  0.77270342  0.99907947  1
  P  P10  1  0.27383767  0.72729658  0.49907947  1
  P  P11  1  0.22616233  0.22729658  0.50092053  1
  P  P12  1  0.22616233  0.72729658  0.99907947  1
  P  P13  1  0.27383767  0.22729658  0.00092053  1
  P  P14  1  0.72616233  0.27270342  0.50092053  1
  P  P15  1  0.77383767  0.77270342  0.49907947  1
  P  P16  1  0.97866284  0.23920808  0.97918752  1
  P  P17  1  0.52133716  0.73920808  0.02081248  1
  P  P18  1  0.47866284  0.76079192  0.52081248  1
  P  P19  1  0.02133716  0.26079192  0.47918752  1
  P  P20  1  0.02133716  0.76079192  0.02081248  1
  P  P21  1  0.47866284  0.26079192  0.97918752  1
  P  P22  1  0.52133716  0.23920808  0.47918752  1
  P  P23  1  0.97866284  0.73920808  0.52081248  1
  P  P24  1  0.99995823  0.22728377  0.77815504  1
  P  P25  1  0.50004177  0.72728377  0.22184496  1
  P  P26  1  0.49995823  0.77271623  0.72184496  1
  P  P27  1  0.00004177  0.27271623  0.27815504  1
  P  P28  1  0.00004177  0.77271623  0.22184496  1
  P  P29  1  0.49995823  0.27271623  0.77815504  1
  P  P30  1  0.50004177  0.22728377  0.27815504  1
  P  P31  1  0.99995823  0.72728377  0.72184496  1
  P  P32  1  0.98115523  0.02491161  0.73585969  1
  P  P33  1  0.51884477  0.52491161  0.26414031  1
  P  P34  1  0.48115523  0.97508839  0.76414031  1
  P  P35  1  0.01884477  0.47508839  0.23585969  1
  P  P36  1  0.01884477  0.97508839  0.26414031  1
  P  P37  1  0.48115523  0.47508839  0.73585969  1
  P  P38  1  0.51884477  0.02491161  0.23585969  1
  P  P39  1  0.98115523  0.52491161  0.76414031  1
  P  P40  1  0.77834126  0.01244808  0.72571454  1
  P  P41  1  0.72165874  0.51244808  0.27428546  1
  P  P42  1  0.27834126  0.98755192  0.77428546  1
  P  P43  1  0.22165874  0.48755192  0.22571454  1
  P  P44  1  0.22165874  0.98755192  0.27428546  1
  P  P45  1  0.27834126  0.48755192  0.72571454  1
  P  P46  1  0.72165874  0.01244808  0.22571454  1
  P  P47  1  0.77834126  0.51244808  0.77428546  1
  O  O0  1  0.72840947  0.01062302  0.62568055  1
  O  O1  1  0.77159053  0.51062302  0.37431945  1
  O  O2  1  0.22840947  0.98937698  0.87431945  1
  O  O3  1  0.27159053  0.48937698  0.12568055  1
  O  O4  1  0.27159053  0.98937698  0.37431945  1
  O  O5  1  0.22840947  0.48937698  0.62568055  1
  O  O6  1  0.77159053  0.01062302  0.12568055  1
  O  O7  1  0.72840947  0.51062302  0.87431945  1
  O  O8  1  0.83348334  0.47097517  0.53110157  1
  O  O9  1  0.66651666  0.97097517  0.46889843  1
  O  O10  1  0.33348334  0.52902483  0.96889843  1
  O  O11  1  0.16651666  0.02902483  0.03110157  1
  O  O12  1  0.16651666  0.52902483  0.46889843  1
  O  O13  1  0.33348334  0.02902483  0.53110157  1
  O  O14  1  0.66651666  0.47097517  0.03110157  1
  O  O15  1  0.83348334  0.97097517  0.96889843  1
  O  O16  1  0.66334517  0.02608085  0.98638732  1
  O  O17  1  0.83665483  0.52608085  0.01361268  1
  O  O18  1  0.16334517  0.97391915  0.51361268  1
  O  O19  1  0.33665483  0.47391915  0.48638732  1
  O  O20  1  0.33665483  0.97391915  0.01361268  1
  O  O21  1  0.16334517  0.47391915  0.98638732  1
  O  O22  1  0.83665483  0.02608085  0.48638732  1
  O  O23  1  0.66334517  0.52608085  0.51361268  1
  O  O24  1  0.79018210  0.37128175  0.95133973  1
  O  O25  1  0.70981790  0.87128175  0.04866027  1
  O  O26  1  0.29018210  0.62871825  0.54866027  1
  O  O27  1  0.20981790  0.12871825  0.45133973  1
  O  O28  1  0.20981790  0.62871825  0.04866027  1
  O  O29  1  0.29018210  0.12871825  0.95133973  1
  O  O30  1  0.70981790  0.37128175  0.45133973  1
  O  O31  1  0.79018210  0.87128175  0.54866027  1
  O  O32  1  0.77677372  0.28359553  0.59104022  1
  O  O33  1  0.72322628  0.78359553  0.40895978  1
  O  O34  1  0.27677372  0.71640447  0.90895978  1
  O  O35  1  0.22322628  0.21640447  0.09104022  1
  O  O36  1  0.22322628  0.71640447  0.40895978  1
  O  O37  1  0.27677372  0.21640447  0.59104022  1
  O  O38  1  0.72322628  0.28359553  0.09104022  1
  O  O39  1  0.77677372  0.78359553  0.90895978  1
  O  O40  1  0.73690924  0.21017507  0.92745664  1
  O  O41  1  0.76309076  0.71017507  0.07254336  1
  O  O42  1  0.23690924  0.78982493  0.57254336  1
  O  O43  1  0.26309076  0.28982493  0.42745664  1
  O  O44  1  0.26309076  0.78982493  0.07254336  1
  O  O45  1  0.23690924  0.28982493  0.92745664  1
  O  O46  1  0.76309076  0.21017507  0.42745664  1
  O  O47  1  0.73690924  0.71017507  0.57254336  1
  O  O48  1  0.62141336  0.24491847  0.52840823  1
  O  O49  1  0.87858664  0.74491847  0.47159177  1
  O  O50  1  0.12141336  0.75508153  0.97159177  1
  O  O51  1  0.37858664  0.25508153  0.02840823  1
  O  O52  1  0.37858664  0.75508153  0.47159177  1
  O  O53  1  0.12141336  0.25508153  0.52840823  1
  O  O54  1  0.87858664  0.24491847  0.02840823  1
  O  O55  1  0.62141336  0.74491847  0.97159177  1
  O  O56  1  0.97227253  0.34006306  0.52432488  1
  O  O57  1  0.52772747  0.84006306  0.47567512  1
  O  O58  1  0.47227253  0.65993694  0.97567512  1
  O  O59  1  0.02772747  0.15993694  0.02432488  1
  O  O60  1  0.02772747  0.65993694  0.47567512  1
  O  O61  1  0.47227253  0.15993694  0.52432488  1
  O  O62  1  0.52772747  0.34006306  0.02432488  1
  O  O63  1  0.97227253  0.84006306  0.97567512  1
  O  O64  1  0.52432876  0.16803744  0.97557148  1
  O  O65  1  0.97567124  0.66803744  0.02442852  1
  O  O66  1  0.02432876  0.83196256  0.52442852  1
  O  O67  1  0.47567124  0.33196256  0.47557148  1
  O  O68  1  0.47567124  0.83196256  0.02442852  1
  O  O69  1  0.02432876  0.33196256  0.97557148  1
  O  O70  1  0.97567124  0.16803744  0.47557148  1
  O  O71  1  0.52432876  0.66803744  0.52442852  1
  O  O72  1  0.94863802  0.20722507  0.87589077  1
  O  O73  1  0.55136198  0.70722507  0.12410923  1
  O  O74  1  0.44863802  0.79277493  0.62410923  1
  O  O75  1  0.05136198  0.29277493  0.37589077  1
  O  O76  1  0.05136198  0.79277493  0.12410923  1
  O  O77  1  0.44863802  0.29277493  0.87589077  1
  O  O78  1  0.55136198  0.20722507  0.37589077  1
  O  O79  1  0.94863802  0.70722507  0.62410923  1
  O  O80  1  0.92717101  0.26709841  0.71590327  1
  O  O81  1  0.57282899  0.76709841  0.28409673  1
  O  O82  1  0.42717101  0.73290159  0.78409673  1
  O  O83  1  0.07282899  0.23290159  0.21590327  1
  O  O84  1  0.07282899  0.73290159  0.28409673  1
  O  O85  1  0.42717101  0.23290159  0.71590327  1
  O  O86  1  0.57282899  0.26709841  0.21590327  1
  O  O87  1  0.92717101  0.76709841  0.78409673  1
  O  O88  1  0.59026603  0.22331339  0.79274796  1
  O  O89  1  0.90973397  0.72331339  0.20725204  1
  O  O90  1  0.09026603  0.77668661  0.70725204  1
  O  O91  1  0.40973397  0.27668661  0.29274796  1
  O  O92  1  0.40973397  0.77668661  0.20725204  1
  O  O93  1  0.09026603  0.27668661  0.79274796  1
  O  O94  1  0.90973397  0.22331339  0.29274796  1
  O  O95  1  0.59026603  0.72331339  0.70725204  1
  O  O96  1  0.52872685  0.37505154  0.74538266  1
  O  O97  1  0.97127315  0.87505154  0.25461734  1
  O  O98  1  0.02872685  0.62494846  0.75461734  1
  O  O99  1  0.47127315  0.12494846  0.24538266  1
  O  O100  1  0.47127315  0.62494846  0.25461734  1
  O  O101  1  0.02872685  0.12494846  0.74538266  1
  O  O102  1  0.97127315  0.37505154  0.24538266  1
  O  O103  1  0.52872685  0.87505154  0.75461734  1
  O  O104  1  0.53141642  0.02376900  0.84044137  1
  O  O105  1  0.96858358  0.52376900  0.15955863  1
  O  O106  1  0.03141642  0.97623100  0.65955863  1
  O  O107  1  0.46858358  0.47623100  0.34044137  1
  O  O108  1  0.46858358  0.97623100  0.15955863  1
  O  O109  1  0.03141642  0.47623100  0.84044137  1
  O  O110  1  0.96858358  0.02376900  0.34044137  1
  O  O111  1  0.53141642  0.52376900  0.65955863  1
  O  O112  1  0.97320964  0.47930693  0.67099945  1
  O  O113  1  0.52679036  0.97930693  0.32900055  1
  O  O114  1  0.47320964  0.52069307  0.82900055  1
  O  O115  1  0.02679036  0.02069307  0.17099945  1
  O  O116  1  0.02679036  0.52069307  0.32900055  1
  O  O117  1  0.47320964  0.02069307  0.67099945  1
  O  O118  1  0.52679036  0.47930693  0.17099945  1
  O  O119  1  0.97320964  0.97930693  0.82900055  1
  O  O120  1  0.87918044  0.05403547  0.69832365  1
  O  O121  1  0.62081956  0.55403547  0.30167635  1
  O  O122  1  0.37918044  0.94596453  0.80167635  1
  O  O123  1  0.12081956  0.44596453  0.19832365  1
  O  O124  1  0.12081956  0.94596453  0.30167635  1
  O  O125  1  0.37918044  0.44596453  0.69832365  1
  O  O126  1  0.62081956  0.05403547  0.19832365  1
  O  O127  1  0.87918044  0.55403547  0.80167635  1
  O  O128  1  0.72755153  0.08344029  0.78093792  1
  O  O129  1  0.77244847  0.58344029  0.21906208  1
  O  O130  1  0.22755153  0.91655971  0.71906208  1
  O  O131  1  0.27244847  0.41655971  0.28093792  1
  O  O132  1  0.27244847  0.91655971  0.21906208  1
  O  O133  1  0.22755153  0.41655971  0.78093792  1
  O  O134  1  0.77244847  0.08344029  0.28093792  1
  O  O135  1  0.72755153  0.58344029  0.71906208  1
  O  O136  1  0.79015800  0.41636520  0.73695699  1
  O  O137  1  0.70984200  0.91636520  0.26304301  1
  O  O138  1  0.29015800  0.58363480  0.76304301  1
  O  O139  1  0.20984200  0.08363480  0.23695699  1
  O  O140  1  0.20984200  0.58363480  0.26304301  1
  O  O141  1  0.29015800  0.08363480  0.73695699  1
  O  O142  1  0.70984200  0.41636520  0.23695699  1
  O  O143  1  0.79015800  0.91636520  0.76304301  1
loop_
_geom_bond_atom_site_label_1
_geom_bond_atom_site_label_2
_geom_bond_distance
_geom_bond_site_symmetry_2
Na0 O58 2.382301 1_554
Na0 O62 2.382301 1_555
Na0 O10 2.475288 1_554
Na0 O14 2.475288 1_555
Na0 O118 2.519217 1_555
Na0 O114 2.519217 1_554
Na1 O63 2.382301 1_444
Na1 O59 2.382301 1_555
Na1 O15 2.475288 1_444
Na1 O11 2.475288 1_555
Na1 O115 2.519217 1_555
Na1 O119 2.519217 1_444
Na2 O56 2.382301 1_455
Na2 O60 2.382301 1_555
Na2 O8 2.475288 1_455
Na2 O12 2.475288 1_555
Na2 O116 2.519217 1_555
Na2 O112 2.519217 1_455
Na3 O61 2.382301 1_555
Na3 O57 2.382301 1_545
Na3 O9 2.475288 1_545
Na3 O13 2.475288 1_555
Na3 O113 2.519217 1_545
Na3 O117 2.519217 1_555
Na4 O108 2.375121 1_545
Na4 O104 2.375121 1_554
Na4 O20 2.390119 1_545
Na4 O16 2.390119 1_554
Na4 O64 2.489941 1_554
Na4 O68 2.489941 1_545
Na5 O105 2.375121 1_455
Na5 O109 2.375121 1_554
Na5 O21 2.390119 1_554
Na5 O17 2.390119 1_455
Na5 O65 2.489941 1_455
Na5 O69 2.489941 1_554
Na6 O110 2.375121 1_455
Na6 O106 2.375121 1_545
Na6 O18 2.390119 1_545
Na6 O22 2.390119 1_455
Na6 O66 2.489941 1_545
Na6 O70 2.489941 1_455
Na7 O107 2.375121 1_555
Na7 O111 2.375121 1_555
Na7 O19 2.390119 1_555
Na7 O23 2.390119 1_555
Na7 O71 2.489941 1_555
Na7 O67 2.489941 1_555
Na8 O88 2.422080 1_555
Na8 O32 2.445635 1_555
Na8 O136 2.461932 1_555
Na8 O128 2.501765 1_555
Na8 O40 2.569082 1_555
Na8 O80 2.599528 1_555
Na9 O89 2.422080 1_555
Na9 O33 2.445635 1_555
Na9 O137 2.461932 1_555
Na9 O129 2.501765 1_555
Na9 O41 2.569082 1_555
Na9 O81 2.599528 1_555
Na10 O90 2.422080 1_555
Na10 O34 2.445635 1_555
Na10 O138 2.461932 1_555
Na10 O130 2.501765 1_555
Na10 O42 2.569082 1_555
Na10 O82 2.599528 1_555
Na11 O91 2.422080 1_555
Na11 O35 2.445635 1_555
Na11 O139 2.461932 1_555
Na11 O131 2.501765 1_555
Na11 O43 2.569082 1_555
Na11 O83 2.599528 1_555
Na12 O92 2.422080 1_555
Na12 O36 2.445635 1_555
Na12 O140 2.461932 1_555
Na12 O132 2.501765 1_555
Na12 O44 2.569082 1_555
Na12 O84 2.599528 1_555
Na13 O93 2.422080 1_555
Na13 O37 2.445635 1_555
Na13 O141 2.461932 1_555
Na13 O133 2.501765 1_555
Na13 O45 2.569082 1_555
Na13 O85 2.599528 1_555
Na14 O94 2.422080 1_555
Na14 O38 2.445635 1_555
Na14 O142 2.461932 1_555
Na14 O134 2.501765 1_555
Na14 O46 2.569082 1_555
Na14 O86 2.599528 1_555
Na15 O95 2.422080 1_555
Na15 O39 2.445635 1_555
Na15 O143 2.461932 1_555
Na15 O135 2.501765 1_555
Na15 O47 2.569082 1_555
Na15 O87 2.599528 1_555
Mg0 O56 2.053703 1_555
Mg0 O80 2.077919 1_555
Mg0 O32 2.080297 1_555
Mg0 O112 2.105269 1_555
Mg0 O8 2.136765 1_555
Mg0 O136 2.137209 1_555
Mg1 O57 2.053703 1_555
Mg1 O81 2.077919 1_555
Mg1 O33 2.080297 1_555
Mg1 O113 2.105269 1_555
Mg1 O9 2.136765 1_555
Mg1 O137 2.137209 1_555
Mg2 O58 2.053703 1_555
Mg2 O82 2.077919 1_555
Mg2 O34 2.080297 1_555
Mg2 O114 2.105269 1_555
Mg2 O10 2.136765 1_555
Mg2 O138 2.137209 1_555
Mg3 O59 2.053703 1_555
Mg3 O83 2.077919 1_555
Mg3 O35 2.080297 1_555
Mg3 O115 2.105269 1_555
Mg3 O11 2.136765 1_555
Mg3 O139 2.137209 1_555
Mg4 O60 2.053703 1_555
Mg4 O84 2.077919 1_555
Mg4 O36 2.080297 1_555
Mg4 O116 2.105269 1_555
Mg4 O12 2.136765 1_555
Mg4 O140 2.137209 1_555
Mg5 O61 2.053703 1_555
Mg5 O85 2.077919 1_555
Mg5 O37 2.080297 1_555
Mg5 O117 2.105269 1_555
Mg5 O13 2.136765 1_555
Mg5 O141 2.137209 1_555
Mg6 O62 2.053703 1_555
Mg6 O86 2.077919 1_555
Mg6 O38 2.080297 1_555
Mg6 O118 2.105269 1_555
Mg6 O14 2.136765 1_555
Mg6 O142 2.137209 1_555
Mg7 O63 2.053703 1_555
Mg7 O87 2.077919 1_555
Mg7 O39 2.080297 1_555
Mg7 O119 2.105269 1_555
Mg7 O15 2.136765 1_555
Mg7 O143 2.137209 1_555
Mg8 O16 2.060313 1_555
Mg8 O128 2.080293 1_555
Mg8 O88 2.089662 1_555
Mg8 O40 2.090245 1_555
Mg8 O104 2.112848 1_555
Mg8 O64 2.170546 1_555
Mg9 O17 2.060313 1_555
Mg9 O129 2.080293 1_555
Mg9 O89 2.089662 1_555
Mg9 O41 2.090245 1_555
Mg9 O105 2.112848 1_555
Mg9 O65 2.170546 1_555
Mg10 O18 2.060313 1_555
Mg10 O130 2.080293 1_555
Mg10 O90 2.089662 1_555
Mg10 O42 2.090245 1_555
Mg10 O106 2.112848 1_555
Mg10 O66 2.170546 1_555
Mg11 O19 2.060313 1_555
Mg11 O131 2.080293 1_555
Mg11 O91 2.089662 1_555
Mg11 O43 2.090245 1_555
Mg11 O107 2.112848 1_555
Mg11 O67 2.170546 1_555
Mg12 O20 2.060313 1_555
Mg12 O132 2.080293 1_555
Mg12 O92 2.089662 1_555
Mg12 O44 2.090245 1_555
Mg12 O108 2.112848 1_555
Mg12 O68 2.170546 1_555
Mg13 O21 2.060313 1_555
Mg13 O133 2.080293 1_555
Mg13 O93 2.089662 1_555
Mg13 O45 2.090245 1_555
Mg13 O109 2.112848 1_555
Mg13 O69 2.170546 1_555
Mg14 O22 2.060313 1_555
Mg14 O134 2.080293 1_555
Mg14 O94 2.089662 1_555
Mg14 O46 2.090245 1_555
Mg14 O110 2.112848 1_555
Mg14 O70 2.170546 1_555
Mg15 O23 2.060313 1_555
Mg15 O135 2.080293 1_555
Mg15 O95 2.089662 1_555
Mg15 O47 2.090245 1_555
Mg15 O111 2.112848 1_555
Mg15 O71 2.170546 1_555
O0 P7 1.613758 1_545
O0 P40 1.614798 1_555
O1 P6 1.613758 1_555
O1 P41 1.614798 1_555
O2 P5 1.613758 1_565
O2 P42 1.614798 1_555
O3 P4 1.613758 1_555
O3 P43 1.614798 1_555
O4 P3 1.613758 1_565
O4 P44 1.614798 1_555
O5 P2 1.613758 1_555
O5 P45 1.614798 1_555
O6 P1 1.613758 1_545
O6 P46 1.614798 1_555
O7 P0 1.613758 1_555
O7 P47 1.614798 1_555
O8 P6 1.498769 1_555
O9 P7 1.498769 1_555
O10 P4 1.498769 1_556
O11 P5 1.498769 1_554
O12 P2 1.498769 1_555
O13 P3 1.498769 1_555
O14 P0 1.498769 1_554
O15 P1 1.498769 1_556
O16 P1 1.498554 1_546
O17 P0 1.498554 1_554
O18 P3 1.498554 1_565
O19 P2 1.498554 1_555
O20 P5 1.498554 1_564
O21 P4 1.498554 1_556
O22 P7 1.498554 1_545
O23 P6 1.498554 1_555
O24 P0 1.617004 1_555
O24 P8 1.617832 1_556
O25 P1 1.617004 1_555
O25 P9 1.617832 1_554
O26 P2 1.617004 1_555
O26 P10 1.617832 1_555
O27 P3 1.617004 1_555
O27 P11 1.617832 1_555
O28 P4 1.617004 1_555
O28 P12 1.617832 1_554
O29 P5 1.617004 1_555
O29 P13 1.617832 1_556
O30 P6 1.617004 1_555
O30 P14 1.617832 1_555
O31 P7 1.617004 1_555
O31 P15 1.617832 1_555
O32 P14 1.500760 1_555
O33 P15 1.500760 1_555
O34 P12 1.500760 1_555
O35 P13 1.500760 1_555
O36 P10 1.500760 1_555
O37 P11 1.500760 1_555
O38 P8 1.500760 1_555
O39 P9 1.500760 1_555
O40 P8 1.494698 1_556
O41 P9 1.494698 1_554
O42 P10 1.494698 1_555
O43 P11 1.494698 1_555
O44 P12 1.494698 1_554
O45 P13 1.494698 1_556
O46 P14 1.494698 1_555
O47 P15 1.494698 1_555
O48 P22 1.608991 1_555
O48 P14 1.610871 1_555
O49 P23 1.608991 1_555
O49 P15 1.610871 1_555
O50 P20 1.608991 1_556
O50 P12 1.610871 1_555
O51 P21 1.608991 1_554
O51 P13 1.610871 1_555
O52 P18 1.608991 1_555
O52 P10 1.610871 1_555
O53 P19 1.608991 1_555
O53 P11 1.610871 1_555
O54 P16 1.608991 1_554
O54 P8 1.610871 1_555
O55 P17 1.608991 1_556
O55 P9 1.610871 1_555
O56 P19 1.499743 1_655
O57 P18 1.499743 1_555
O58 P17 1.499743 1_556
O59 P16 1.499743 1_454
O60 P23 1.499743 1_455
O61 P22 1.499743 1_555
O62 P21 1.499743 1_554
O63 P20 1.499743 1_656
O64 P21 1.499549 1_555
O65 P20 1.499549 1_655
O66 P23 1.499549 1_455
O67 P22 1.499549 1_555
O68 P17 1.499549 1_555
O69 P16 1.499549 1_455
O70 P19 1.499549 1_655
O71 P18 1.499549 1_555
O72 P24 1.620461 1_555
O72 P16 1.622081 1_555
O73 P25 1.620461 1_555
O73 P17 1.622081 1_555
O74 P26 1.620461 1_555
O74 P18 1.622081 1_555
O75 P27 1.620461 1_555
O75 P19 1.622081 1_555
O76 P28 1.620461 1_555
O76 P20 1.622081 1_555
O77 P29 1.620461 1_555
O77 P21 1.622081 1_555
O78 P30 1.620461 1_555
O78 P22 1.622081 1_555
O79 P31 1.620461 1_555
O79 P23 1.622081 1_555
O80 P24 1.497249 1_555
O81 P25 1.497249 1_555
O82 P26 1.497249 1_555
O83 P27 1.497249 1_555
O84 P28 1.497249 1_555
O85 P29 1.497249 1_555
O86 P30 1.497249 1_555
O87 P31 1.497249 1_555
O88 P29 1.499819 1_555
O89 P28 1.499819 1_655
O90 P31 1.499819 1_455
O91 P30 1.499819 1_555
O92 P25 1.499819 1_555
O93 P24 1.499819 1_455
O94 P27 1.499819 1_655
O95 P26 1.499819 1_555
O96 P37 1.611724 1_555
O96 P29 1.613556 1_555
O97 P36 1.611724 1_655
O97 P28 1.613556 1_655
O98 P39 1.611724 1_455
O98 P31 1.613556 1_455
O99 P38 1.611724 1_555
O99 P30 1.613556 1_555
O100 P33 1.611724 1_555
O100 P25 1.613556 1_555
O101 P32 1.611724 1_455
O101 P24 1.613556 1_455
O102 P35 1.611724 1_655
O102 P27 1.613556 1_655
O103 P34 1.611724 1_555
O103 P26 1.613556 1_555
O104 P34 1.496392 1_545
O105 P35 1.496392 1_655
O106 P32 1.496392 1_465
O107 P33 1.496392 1_555
O108 P38 1.496392 1_565
O109 P39 1.496392 1_455
O110 P36 1.496392 1_645
O111 P37 1.496392 1_555
O112 P39 1.504487 1_555
O113 P38 1.504487 1_565
O114 P37 1.504487 1_555
O115 P36 1.504487 1_545
O116 P35 1.504487 1_555
O117 P34 1.504487 1_545
O118 P33 1.504487 1_555
O119 P32 1.504487 1_565
O120 P32 1.621285 1_555
O120 P40 1.621429 1_555
O121 P33 1.621285 1_555
O121 P41 1.621429 1_555
O122 P34 1.621285 1_555
O122 P42 1.621429 1_555
O123 P35 1.621285 1_555
O123 P43 1.621429 1_555
O124 P36 1.621285 1_555
O124 P44 1.621429 1_555
O125 P37 1.621285 1_555
O125 P45 1.621429 1_555
O126 P38 1.621285 1_555
O126 P46 1.621429 1_555
O127 P39 1.621285 1_555
O127 P47 1.621429 1_555
O128 P40 1.494693 1_555
O129 P41 1.494693 1_555
O130 P42 1.494693 1_555
O131 P43 1.494693 1_555
O132 P44 1.494693 1_555
O133 P45 1.494693 1_555
O134 P46 1.494693 1_555
O135 P47 1.494693 1_555
O136 P47 1.505369 1_555
O137 P46 1.505369 1_565
O138 P45 1.505369 1_555
O139 P44 1.505369 1_545
O140 P43 1.505369 1_555
O141 P42 1.505369 1_545
O142 P41 1.505369 1_555
O143 P40 1.505369 1_565
