# generated using pymatgen
data_Cs3ScO3
_symmetry_space_group_name_H-M   'P 1'
_cell_length_a   14.22683928
_cell_length_b   7.29287656
_cell_length_c   7.82391698
_cell_angle_alpha   63.63385922
_cell_angle_beta   90.00000000
_cell_angle_gamma   90.00000000
_symmetry_Int_Tables_number   1
_chemical_formula_structural   Cs3ScO3
_chemical_formula_sum   'Cs12 Sc4 O12'
_cell_volume   727.32263693
_cell_formula_units_Z   4
loop_
 _symmetry_equiv_pos_site_id
 _symmetry_equiv_pos_as_xyz
  1  'x, y, z'
loop_
 _atom_site_type_symbol
 _atom_site_label
 _atom_site_symmetry_multiplicity
 _atom_site_fract_x
 _atom_site_fract_y
 _atom_site_fract_z
 _atom_site_occupancy
  Cs  Cs0  1  0.95958154  0.49058785  0.27301987  1
  Cs  Cs1  1  0.68435900  0.41719143  0.47843022  1
  Cs  Cs2  1  0.20314779  0.64747202  0.05653550  1
  Cs  Cs3  1  0.54041846  0.99058785  0.27301987  1
  Cs  Cs4  1  0.81564100  0.91719143  0.47843022  1
  Cs  Cs5  1  0.29685221  0.14747202  0.05653550  1
  Cs  Cs6  1  0.79685221  0.35252798  0.94346450  1
  Cs  Cs7  1  0.31564100  0.58280857  0.52156978  1
  Cs  Cs8  1  0.04041846  0.50941215  0.72698013  1
  Cs  Cs9  1  0.70314779  0.85252798  0.94346450  1
  Cs  Cs10  1  0.18435900  0.08280857  0.52156978  1
  Cs  Cs11  1  0.45958154  0.00941215  0.72698013  1
  Sc  Sc0  1  0.44128293  0.51213061  0.15091744  1
  Sc  Sc1  1  0.05871707  0.01213061  0.15091744  1
  Sc  Sc2  1  0.55871707  0.48786939  0.84908256  1
  Sc  Sc3  1  0.94128293  0.98786939  0.84908256  1
  O  O0  1  0.58145770  0.47050445  0.11485302  1
  O  O1  1  0.87167929  0.21914228  0.65331033  1
  O  O2  1  0.91854230  0.97050445  0.11485302  1
  O  O3  1  0.62832071  0.71914228  0.65331033  1
  O  O4  1  0.59561814  0.23313070  0.84149946  1
  O  O5  1  0.90438186  0.73313070  0.84149946  1
  O  O6  1  0.40438186  0.76686930  0.15850054  1
  O  O7  1  0.09561814  0.26686930  0.15850054  1
  O  O8  1  0.12832071  0.78085772  0.34668967  1
  O  O9  1  0.41854230  0.52949555  0.88514698  1
  O  O10  1  0.37167929  0.28085772  0.34668967  1
  O  O11  1  0.08145770  0.02949555  0.88514698  1
loop_
_geom_bond_atom_site_label_1
_geom_bond_atom_site_label_2
_geom_bond_distance
_geom_bond_site_symmetry_2
Cs0 O7 2.916994 1_655
Cs0 O1 3.017276 1_555
Cs0 O5 3.136842 1_554
Cs0 O2 3.205476 1_555
Cs0 O8 3.414711 1_655
Cs1 O4 2.842201 1_555
Cs1 O1 3.050415 1_555
Cs1 O0 3.066550 1_555
Cs1 O3 3.167506 1_555
Cs2 O7 2.952012 1_555
Cs2 O8 3.032250 1_555
Cs2 O11 3.039602 1_564
Cs2 O6 3.194992 1_555
Cs2 O10 3.558060 1_555
Cs2 O9 3.599104 1_554
Cs3 O6 2.916994 1_555
Cs3 O3 3.017276 1_555
Cs3 O4 3.136842 1_564
Cs3 O0 3.205476 1_565
Cs3 O10 3.414711 1_565
Cs4 O5 2.842201 1_555
Cs4 O3 3.050415 1_555
Cs4 O2 3.066550 1_555
Cs4 O1 3.167506 1_565
Cs5 O6 2.952012 1_545
Cs5 O10 3.032250 1_555
Cs5 O9 3.039602 1_554
Cs5 O7 3.194992 1_555
Cs5 O8 3.558060 1_545
Cs5 O11 3.599104 1_554
Cs6 O5 2.952012 1_555
Cs6 O1 3.032250 1_555
Cs6 O2 3.039602 1_546
Cs6 O4 3.194992 1_555
Cs6 O3 3.558060 1_555
Cs6 O0 3.599104 1_556
Cs7 O6 2.842201 1_555
Cs7 O8 3.050415 1_555
Cs7 O9 3.066550 1_555
Cs7 O10 3.167506 1_555
Cs8 O5 2.916994 1_455
Cs8 O8 3.017276 1_555
Cs8 O7 3.136842 1_556
Cs8 O11 3.205476 1_555
Cs8 O1 3.414711 1_455
Cs9 O4 2.952012 1_565
Cs9 O3 3.032250 1_555
Cs9 O0 3.039602 1_556
Cs9 O5 3.194992 1_555
Cs9 O1 3.558060 1_565
Cs9 O2 3.599104 1_556
Cs10 O7 2.842201 1_555
Cs10 O10 3.050415 1_555
Cs10 O11 3.066550 1_555
Cs10 O8 3.167506 1_545
Cs11 O4 2.916994 1_555
Cs11 O10 3.017276 1_555
Cs11 O6 3.136842 1_546
Cs11 O9 3.205476 1_545
Cs11 O3 3.414711 1_545
O0 Sc2 2.051969 1_554
O0 Sc0 2.055448 1_555
O1 Sc3 1.968965 1_545
O2 Sc3 2.051969 1_554
O2 Sc1 2.055448 1_665
O3 Sc2 1.968965 1_555
O4 Sc2 1.956622 1_555
O5 Sc3 1.956622 1_555
O6 Sc0 1.956622 1_555
O7 Sc1 1.956622 1_555
O8 Sc1 1.968965 1_565
O9 Sc0 2.051969 1_556
O9 Sc2 2.055448 1_555
O10 Sc0 1.968965 1_555
O11 Sc1 2.051969 1_556
O11 Sc3 2.055448 1_445
