# generated using pymatgen
data_KPtN2O5
_symmetry_space_group_name_H-M   'P 1'
_cell_length_a   15.75911800
_cell_length_b   5.34756100
_cell_length_c   8.14482838
_cell_angle_alpha   61.29595767
_cell_angle_beta   90.00000000
_cell_angle_gamma   90.00000000
_symmetry_Int_Tables_number   1
_chemical_formula_structural   KPtN2O5
_chemical_formula_sum   'K4 Pt4 N8 O20'
_cell_volume   602.03921996
_cell_formula_units_Z   4
loop_
 _symmetry_equiv_pos_site_id
 _symmetry_equiv_pos_as_xyz
  1  'x, y, z'
loop_
 _atom_site_type_symbol
 _atom_site_label
 _atom_site_symmetry_multiplicity
 _atom_site_fract_x
 _atom_site_fract_y
 _atom_site_fract_z
 _atom_site_occupancy
  K  K0  1  0.65715700  0.88373100  0.06430000  1
  K  K1  1  0.34284300  0.11626900  0.93570000  1
  K  K2  1  0.15715700  0.11626900  0.43570000  1
  K  K3  1  0.84284300  0.88373100  0.56430000  1
  Pt  Pt0  1  0.96988800  0.61672800  0.12749800  1
  Pt  Pt1  1  0.03011200  0.38327200  0.87250200  1
  Pt  Pt2  1  0.46988800  0.38327200  0.37250200  1
  Pt  Pt3  1  0.53011200  0.61672800  0.62749800  1
  N  N0  1  0.53106700  0.25468500  0.20526400  1
  N  N1  1  0.46893300  0.74531500  0.79473600  1
  N  N2  1  0.03106700  0.74531500  0.29473600  1
  N  N3  1  0.96893300  0.25468500  0.70526400  1
  N  N4  1  0.85278300  0.67472100  0.20355600  1
  N  N5  1  0.14721700  0.32527900  0.79644400  1
  N  N6  1  0.35278300  0.32527900  0.29644400  1
  N  N7  1  0.64721700  0.67472100  0.70355600  1
  O  O0  1  0.80165000  0.47101400  0.26587200  1
  O  O1  1  0.19835000  0.52898600  0.73412800  1
  O  O2  1  0.30165000  0.52898600  0.23412800  1
  O  O3  1  0.69835000  0.47101400  0.76587200  1
  O  O4  1  0.57500100  0.51089500  0.43996300  1
  O  O5  1  0.42499900  0.48910500  0.56003700  1
  O  O6  1  0.07500100  0.48910500  0.06003700  1
  O  O7  1  0.92499900  0.51089500  0.93996300  1
  O  O8  1  0.99356700  0.86537500  0.37306800  1
  O  O9  1  0.00643300  0.13462500  0.62693200  1
  O  O10  1  0.49356700  0.13462500  0.12693200  1
  O  O11  1  0.50643300  0.86537500  0.87306800  1
  O  O12  1  0.83010000  0.91572000  0.17839200  1
  O  O13  1  0.16990000  0.08428000  0.82160800  1
  O  O14  1  0.33010000  0.08428000  0.32160800  1
  O  O15  1  0.66990000  0.91572000  0.67839200  1
  O  O16  1  0.60993000  0.28916800  0.18934000  1
  O  O17  1  0.39007000  0.71083200  0.81066000  1
  O  O18  1  0.10993000  0.71083200  0.31066000  1
  O  O19  1  0.89007000  0.28916800  0.68934000  1
loop_
_geom_bond_atom_site_label_1
_geom_bond_atom_site_label_2
_geom_bond_distance
_geom_bond_site_symmetry_2
K0 O11 2.867823 1_554
K0 O16 2.900476 1_565
K0 O12 2.910918 1_555
K0 O16 2.930821 1_555
K0 O3 2.976551 1_564
K0 O4 3.025455 1_555
K0 O0 3.044819 1_555
K0 O10 3.060066 1_565
K0 O15 3.071243 1_554
K1 O10 2.867823 1_556
K1 O17 2.900476 1_545
K1 O13 2.910918 1_555
K1 O17 2.930821 1_555
K1 O2 2.976551 1_546
K1 O5 3.025455 1_555
K1 O1 3.044819 1_555
K1 O11 3.060066 1_545
K1 O14 3.071243 1_556
K2 O9 2.867823 1_555
K2 O18 2.900476 1_545
K2 O14 2.910918 1_555
K2 O18 2.930821 1_555
K2 O1 2.976551 1_545
K2 O6 3.025455 1_555
K2 O2 3.044819 1_555
K2 O8 3.060066 1_445
K2 O13 3.071243 1_555
K3 O8 2.867823 1_555
K3 O19 2.900476 1_565
K3 O15 2.910918 1_555
K3 O19 2.930821 1_555
K3 O0 2.976551 1_565
K3 O7 3.025455 1_555
K3 O3 3.044819 1_555
K3 O9 3.060066 1_665
K3 O12 3.071243 1_555
N0 O10 1.249780 1_555
N0 O16 1.253966 1_555
N0 Pt2 2.038985 1_555
N1 O11 1.249780 1_555
N1 O17 1.253966 1_555
N1 Pt3 2.038985 1_555
N2 O8 1.249780 1_455
N2 O18 1.253966 1_555
N2 Pt0 2.038985 1_455
N3 O9 1.249780 1_655
N3 O19 1.253966 1_555
N3 Pt1 2.038985 1_655
N4 O0 1.249999 1_555
N4 O12 1.255770 1_555
N4 Pt0 2.017482 1_555
N5 O1 1.249999 1_555
N5 O13 1.255770 1_555
N5 Pt1 2.017482 1_555
N6 O2 1.249999 1_555
N6 O14 1.255770 1_555
N6 Pt2 2.017482 1_555
N7 O3 1.249999 1_555
N7 O15 1.255770 1_555
N7 Pt3 2.017482 1_555
O4 Pt2 1.967696 1_555
O4 Pt3 1.996039 1_555
O5 Pt3 1.967696 1_555
O5 Pt2 1.996039 1_555
O6 Pt0 1.967696 1_455
O6 Pt1 1.996039 1_554
O7 Pt1 1.967696 1_655
O7 Pt0 1.996039 1_556
