# generated using pymatgen
data_HfO2
_symmetry_space_group_name_H-M   'P 1'
_cell_length_a   10.91359136
_cell_length_b   11.23709003
_cell_length_c   10.85027468
_cell_angle_alpha   87.59636824
_cell_angle_beta   89.41380394
_cell_angle_gamma   90.51919256
_symmetry_Int_Tables_number   1
_chemical_formula_structural   HfO2
_chemical_formula_sum   'Hf34 O68'
_cell_volume   1329.34492963
_cell_formula_units_Z   34
loop_
 _symmetry_equiv_pos_site_id
 _symmetry_equiv_pos_as_xyz
  1  'x, y, z'
loop_
 _atom_site_type_symbol
 _atom_site_label
 _atom_site_symmetry_multiplicity
 _atom_site_fract_x
 _atom_site_fract_y
 _atom_site_fract_z
 _atom_site_occupancy
  Hf  Hf0  1  0.73319361  0.66894900  0.74505106  1
  Hf  Hf1  1  0.39403395  0.41865266  0.45840185  1
  Hf  Hf2  1  0.65120482  0.53853235  0.23270514  1
  Hf  Hf3  1  0.95650750  0.54206283  0.35764696  1
  Hf  Hf4  1  0.67645024  0.09584808  0.06248267  1
  Hf  Hf5  1  0.41369842  0.72676319  0.55517658  1
  Hf  Hf6  1  0.39637226  0.00000737  0.54357221  1
  Hf  Hf7  1  0.44592427  0.16802908  0.88496597  1
  Hf  Hf8  1  0.16096663  0.38785246  0.95367763  1
  Hf  Hf9  1  0.19977601  0.24646200  0.67853114  1
  Hf  Hf10  1  0.91896760  0.92334246  0.13139227  1
  Hf  Hf11  1  0.09502456  0.85041283  0.44301528  1
  Hf  Hf12  1  0.92626067  0.58503909  0.02124114  1
  Hf  Hf13  1  0.67993212  0.42573803  0.51897376  1
  Hf  Hf14  1  0.91527609  0.25357758  0.44758302  1
  Hf  Hf15  1  0.19169569  0.18455582  0.38400238  1
  Hf  Hf16  1  0.27289142  0.96543548  0.21785111  1
  Hf  Hf17  1  0.92716083  0.45365554  0.70894363  1
  Hf  Hf18  1  0.15218286  0.71949156  0.12622930  1
  Hf  Hf19  1  0.17042075  0.57675643  0.55564688  1
  Hf  Hf20  1  0.44334684  0.62763183  0.04744047  1
  Hf  Hf21  1  0.68144384  0.37062614  0.94568444  1
  Hf  Hf22  1  0.63203385  0.17957923  0.37837207  1
  Hf  Hf23  1  0.19523961  0.68203230  0.82053470  1
  Hf  Hf24  1  0.90878280  0.90725075  0.74665890  1
  Hf  Hf25  1  0.55891032  0.88845779  0.81560341  1
  Hf  Hf26  1  0.58869135  0.86913434  0.24350999  1
  Hf  Hf27  1  0.47313679  0.51353253  0.77513990  1
  Hf  Hf28  1  0.80323337  0.91626026  0.48812829  1
  Hf  Hf29  1  0.68339617  0.13944723  0.68717959  1
  Hf  Hf30  1  0.94081940  0.26472569  0.14583132  1
  Hf  Hf31  1  0.39909685  0.29815921  0.17900237  1
  Hf  Hf32  1  0.15600690  0.95897208  0.91131016  1
  Hf  Hf33  1  0.96297793  0.17587501  0.85793496  1
  O  O0  1  0.34523833  0.54329142  0.91306339  1
  O  O1  1  0.74424250  0.32823956  0.37269107  1
  O  O2  1  0.30415610  0.63457583  0.15496033  1
  O  O3  1  0.54622887  0.05611896  0.47775525  1
  O  O4  1  0.50280340  0.08383361  0.72859415  1
  O  O5  1  0.77372399  0.53189480  0.63140520  1
  O  O6  1  0.50626044  0.44163249  0.61058516  1
  O  O7  1  0.95702302  0.37334650  0.29871184  1
  O  O8  1  0.51724732  0.35000467  0.85265453  1
  O  O9  1  0.02746051  0.59820970  0.19672069  1
  O  O10  1  0.26041792  0.36938574  0.09323707  1
  O  O11  1  0.78133798  0.56638538  0.36406603  1
  O  O12  1  0.50482383  0.20701502  0.05993554  1
  O  O13  1  0.61327681  0.06415113  0.23819028  1
  O  O14  1  0.29993074  0.14318531  0.22623133  1
  O  O15  1  0.22118240  0.76990060  0.55823025  1
  O  O16  1  0.49438607  0.75299510  0.91628389  1
  O  O17  1  0.86123712  0.08869623  0.73543808  1
  O  O18  1  0.41823662  0.87195956  0.67832814  1
  O  O19  1  0.22819518  0.99667323  0.40961683  1
  O  O20  1  0.32192225  0.61925707  0.69523539  1
  O  O21  1  0.26886590  0.34423850  0.34246867  1
  O  O22  1  0.67285520  0.18835628  0.87521020  1
  O  O23  1  0.69868321  0.96454703  0.64436646  1
  O  O24  1  0.96396647  0.98506178  0.92091455  1
  O  O25  1  0.80242825  0.10459770  0.44626943  1
  O  O26  1  0.11590616  0.58256341  0.96020610  1
  O  O27  1  0.57753776  0.69251913  0.18201625  1
  O  O28  1  0.18361717  0.81055378  0.27942483  1
  O  O29  1  0.87799508  0.58907086  0.83984194  1
  O  O30  1  0.31230802  0.04777758  0.92361817  1
  O  O31  1  0.68758061  0.83036736  0.38915923  1
  O  O32  1  0.01316696  0.46362440  0.52383011  1
  O  O33  1  0.06594647  0.22120892  0.00767183  1
  O  O34  1  0.83879487  0.31610360  0.60454367  1
  O  O35  1  0.74579173  0.27686534  0.10064625  1
  O  O36  1  0.08279727  0.83222134  0.78553777  1
  O  O37  1  0.49150590  0.28983699  0.33969077  1
  O  O38  1  0.51442452  0.46228464  0.12338579  1
  O  O39  1  0.30823049  0.16404351  0.55183523  1
  O  O40  1  0.98206097  0.93684192  0.56426839  1
  O  O41  1  0.95938536  0.76452221  0.05660831  1
  O  O42  1  0.56120771  0.67653133  0.66865229  1
  O  O43  1  0.08291654  0.57526856  0.71940276  1
  O  O44  1  0.93902654  0.89725090  0.31966386  1
  O  O45  1  0.28937981  0.28170313  0.83777176  1
  O  O46  1  0.11263763  0.10221509  0.77561939  1
  O  O47  1  0.02894664  0.16880194  0.29495377  1
  O  O48  1  0.55662343  0.50045543  0.39181285  1
  O  O49  1  0.23301080  0.79260340  0.96222802  1
  O  O50  1  0.07653528  0.21996381  0.53056428  1
  O  O51  1  0.56496921  0.00119787  0.95014309  1
  O  O52  1  0.83977918  0.34607792  0.85132212  1
  O  O53  1  0.99051877  0.41581793  0.04614294  1
  O  O54  1  0.25229393  0.40681799  0.59058130  1
  O  O55  1  0.04831311  0.67508278  0.44269720  1
  O  O56  1  0.33611463  0.58856726  0.45184066  1
  O  O57  1  0.73262092  0.90985838  0.12287969  1
  O  O58  1  0.74224396  0.82724965  0.83597985  1
  O  O59  1  0.05878666  0.33088043  0.77730542  1
  O  O60  1  0.83450779  0.77697087  0.62461942  1
  O  O61  1  0.76484453  0.51969344  0.08395868  1
  O  O62  1  0.61794369  0.25490381  0.56051996  1
  O  O63  1  0.63144544  0.54284056  0.86689328  1
  O  O64  1  0.86903595  0.09919015  0.09063019  1
  O  O65  1  0.43597663  0.85742195  0.42829309  1
  O  O66  1  0.42288291  0.89686117  0.16813082  1
  O  O67  1  0.12435219  0.95010984  0.10117934  1
loop_
_geom_bond_atom_site_label_1
_geom_bond_atom_site_label_2
_geom_bond_distance
_geom_bond_site_symmetry_2
Hf0 O60 2.053433 1_555
Hf0 O42 2.060654 1_555
Hf0 O5 2.061194 1_555
Hf0 O58 2.072058 1_555
Hf0 O29 2.083842 1_555
Hf0 O63 2.184781 1_555
Hf1 O56 2.015347 1_555
Hf1 O21 2.061623 1_555
Hf1 O6 2.089205 1_555
Hf1 O54 2.098171 1_555
Hf1 O48 2.098598 1_555
Hf1 O37 2.245490 1_555
Hf2 O27 1.974196 1_555
Hf2 O48 2.030385 1_555
Hf2 O61 2.044557 1_555
Hf2 O11 2.053595 1_555
Hf2 O38 2.113691 1_555
Hf3 O11 1.934580 1_555
Hf3 O9 1.979295 1_655
Hf3 O7 2.026108 1_555
Hf3 O55 2.048715 1_655
Hf3 O32 2.076039 1_655
Hf4 O13 2.036799 1_555
Hf4 O51 2.052529 1_554
Hf4 O64 2.127186 1_555
Hf4 O35 2.220567 1_555
Hf4 O22 2.244147 1_554
Hf4 O57 2.256066 1_545
Hf4 O12 2.260569 1_555
Hf5 O65 1.981740 1_555
Hf5 O42 2.103555 1_555
Hf5 O56 2.127739 1_555
Hf5 O20 2.136580 1_555
Hf5 O18 2.152391 1_555
Hf5 O15 2.160746 1_555
Hf6 O3 1.871356 1_555
Hf6 O18 2.025358 1_545
Hf6 O39 2.091726 1_555
Hf6 O65 2.118519 1_545
Hf6 O19 2.353845 1_545
Hf6 O4 2.540314 1_555
Hf7 O30 2.008113 1_555
Hf7 O4 2.069521 1_555
Hf7 O12 2.073386 1_556
Hf7 O45 2.194381 1_555
Hf7 O8 2.194484 1_555
Hf7 O51 2.377874 1_555
Hf7 O22 2.485848 1_555
Hf8 O10 1.877611 1_556
Hf8 O53 2.136469 1_456
Hf8 O33 2.187592 1_556
Hf8 O26 2.250760 1_555
Hf8 O45 2.255769 1_555
Hf8 O59 2.334332 1_555
Hf8 O0 2.672662 1_555
Hf9 O45 2.045327 1_555
Hf9 O39 2.059573 1_555
Hf9 O54 2.076533 1_555
Hf9 O46 2.109459 1_555
Hf9 O59 2.119920 1_555
Hf9 O50 2.133607 1_555
Hf10 O41 2.041193 1_555
Hf10 O57 2.041300 1_555
Hf10 O44 2.065669 1_555
Hf10 O64 2.085269 1_565
Hf10 O67 2.277424 1_655
Hf10 O24 2.403265 1_554
Hf11 O55 2.030760 1_555
Hf11 O15 2.059104 1_555
Hf11 O40 2.071162 1_455
Hf11 O28 2.079780 1_555
Hf11 O19 2.200184 1_555
Hf11 O44 2.229485 1_455
Hf12 O61 2.003928 1_555
Hf12 O53 2.040995 1_555
Hf12 O29 2.041475 1_554
Hf12 O41 2.097677 1_555
Hf12 O26 2.167395 1_654
Hf12 O9 2.220506 1_655
Hf13 O5 2.020998 1_555
Hf13 O62 2.060022 1_555
Hf13 O1 2.085466 1_555
Hf13 O48 2.093064 1_555
Hf13 O6 2.143572 1_555
Hf13 O34 2.315476 1_555
Hf13 O11 2.501029 1_555
Hf14 O50 2.016579 1_655
Hf14 O34 2.042720 1_555
Hf14 O25 2.069925 1_555
Hf14 O7 2.102274 1_555
Hf14 O1 2.202408 1_555
Hf14 O47 2.302337 1_655
Hf15 O21 2.007280 1_555
Hf15 O47 2.040454 1_555
Hf15 O50 2.070745 1_555
Hf15 O14 2.139444 1_555
Hf15 O19 2.159073 1_545
Hf15 O39 2.237028 1_555
Hf16 O66 1.898440 1_555
Hf16 O14 2.022380 1_565
Hf16 O28 2.069563 1_555
Hf16 O67 2.077351 1_555
Hf16 O19 2.175802 1_555
Hf17 O5 2.068415 1_555
Hf17 O59 2.118732 1_655
Hf17 O52 2.132992 1_555
Hf17 O34 2.178199 1_555
Hf17 O43 2.178249 1_655
Hf17 O29 2.191139 1_555
Hf17 O32 2.206453 1_655
Hf18 O2 1.942387 1_555
Hf18 O28 2.018839 1_555
Hf18 O9 2.037841 1_555
Hf18 O49 2.109907 1_554
Hf18 O41 2.296462 1_455
Hf18 O26 2.450579 1_554
Hf18 O67 2.615103 1_555
Hf19 O43 2.007929 1_555
Hf19 O55 2.108359 1_555
Hf19 O56 2.120770 1_555
Hf19 O54 2.136782 1_555
Hf19 O32 2.165656 1_555
Hf19 O15 2.236485 1_555
Hf19 O20 2.313750 1_555
Hf20 O2 1.910023 1_555
Hf20 O16 2.030108 1_554
Hf20 O0 2.073632 1_554
Hf20 O38 2.154941 1_555
Hf20 O27 2.218619 1_555
Hf21 O52 2.026453 1_555
Hf21 O35 2.078283 1_556
Hf21 O8 2.081552 1_555
Hf21 O63 2.159510 1_555
Hf21 O22 2.217635 1_555
Hf21 O61 2.469092 1_556
Hf22 O3 1.948008 1_555
Hf22 O37 2.016763 1_555
Hf22 O13 2.050567 1_555
Hf22 O1 2.060774 1_555
Hf22 O25 2.171450 1_555
Hf22 O62 2.186898 1_555
Hf23 O26 2.027108 1_555
Hf23 O49 2.059434 1_555
Hf23 O43 2.063346 1_555
Hf23 O20 2.077755 1_555
Hf23 O36 2.119361 1_555
Hf23 O0 2.463128 1_555
Hf24 O17 2.107347 1_565
Hf24 O36 2.123921 1_655
Hf24 O40 2.138720 1_555
Hf24 O60 2.171807 1_555
Hf24 O24 2.203289 1_555
Hf24 O58 2.216334 1_555
Hf24 O23 2.631137 1_555
Hf25 O16 1.957476 1_555
Hf25 O51 1.973805 1_565
Hf25 O58 2.132253 1_555
Hf25 O18 2.162107 1_555
Hf25 O4 2.438973 1_565
Hf25 O23 2.509013 1_555
Hf26 O31 1.958993 1_555
Hf26 O66 2.014861 1_555
Hf26 O57 2.069928 1_555
Hf26 O27 2.123007 1_555
Hf26 O13 2.203649 1_565
Hf26 O65 2.592379 1_555
Hf27 O6 2.020997 1_555
Hf27 O63 2.033954 1_555
Hf27 O8 2.051950 1_555
Hf27 O0 2.075428 1_555
Hf27 O20 2.205669 1_555
Hf27 O42 2.319823 1_555
Hf28 O31 1.941759 1_555
Hf28 O23 2.125777 1_555
Hf28 O60 2.141314 1_555
Hf28 O40 2.141443 1_555
Hf28 O25 2.145962 1_565
Hf28 O44 2.359269 1_555
Hf29 O62 1.992360 1_555
Hf29 O23 2.046274 1_545
Hf29 O17 2.093382 1_555
Hf29 O4 2.100709 1_555
Hf29 O22 2.137296 1_555
Hf29 O34 2.716509 1_555
Hf30 O53 2.040606 1_555
Hf30 O33 2.093527 1_655
Hf30 O7 2.108225 1_555
Hf30 O64 2.123495 1_555
Hf30 O47 2.146913 1_655
Hf30 O35 2.193237 1_555
Hf31 O10 1.945640 1_555
Hf31 O37 2.022300 1_555
Hf31 O12 2.037473 1_555
Hf31 O14 2.084753 1_555
Hf31 O38 2.280084 1_555
Hf31 O21 2.339404 1_555
Hf32 O30 1.976976 1_565
Hf32 O67 2.083511 1_556
Hf32 O49 2.111362 1_555
Hf32 O24 2.120997 1_455
Hf32 O36 2.166577 1_555
Hf32 O46 2.193594 1_565
Hf33 O17 2.019617 1_555
Hf33 O46 2.051158 1_655
Hf33 O33 2.063577 1_656
Hf33 O59 2.170955 1_655
Hf33 O24 2.223124 1_545
Hf33 O52 2.346910 1_555
