# generated using pymatgen
data_Te6MoW3S2
_symmetry_space_group_name_H-M   'P 1'
_cell_length_a   3.45510997
_cell_length_b   3.45510997
_cell_length_c   39.44108500
_cell_angle_alpha   90.00000000
_cell_angle_beta   90.00000000
_cell_angle_gamma   119.99999945
_symmetry_Int_Tables_number   1
_chemical_formula_structural   Te6MoW3S2
_chemical_formula_sum   'Te6 Mo1 W3 S2'
_cell_volume   407.75870150
_cell_formula_units_Z   1
loop_
 _symmetry_equiv_pos_site_id
 _symmetry_equiv_pos_as_xyz
  1  'x, y, z'
loop_
 _atom_site_type_symbol
 _atom_site_label
 _atom_site_symmetry_multiplicity
 _atom_site_fract_x
 _atom_site_fract_y
 _atom_site_fract_z
 _atom_site_occupancy
  Te  Te0  1  0.33333300  0.66666700  0.32865400  1
  Te  Te1  1  0.33333300  0.66666700  0.70479400  1
  Te  Te2  1  0.66666700  0.33333300  0.42247500  1
  Te  Te3  1  0.66666700  0.33333300  0.51680900  1
  Te  Te4  1  0.33333300  0.66666700  0.23476600  1
  Te  Te5  1  0.33333300  0.66666700  0.61043300  1
  Mo  Mo0  1  0.66666700  0.33333300  0.28169900  1
  W  W0  1  0.33333300  0.66666700  0.09393700  1
  W  W1  1  0.33333300  0.66666700  0.46965400  1
  W  W2  1  0.66666700  0.33333300  0.65763200  1
  S  S0  1  0.66666700  0.33333300  0.05619900  1
  S  S1  1  0.66666700  0.33333300  0.13169500  1
loop_
_geom_bond_atom_site_label_1
_geom_bond_atom_site_label_2
_geom_bond_distance
_geom_bond_site_symmetry_2
Te1 W2 2.727508 1_455
Te1 W2 2.727508 1_565
Te1 W2 2.727513 1_555
Te2 W1 2.727966 1_545
Te2 W1 2.727966 1_655
Te2 W1 2.727970 1_555
Te3 W1 2.727320 1_545
Te3 W1 2.727320 1_655
Te3 W1 2.727324 1_555
Te5 W2 2.728504 1_455
Te5 W2 2.728504 1_565
Te5 W2 2.728508 1_555
Mo0 Te4 2.721357 1_545
Mo0 Te4 2.721357 1_655
Mo0 Te4 2.721361 1_555
Mo0 Te0 2.721947 1_545
Mo0 Te0 2.721947 1_655
Mo0 Te0 2.721951 1_555
S0 W0 2.488910 1_655
S0 W0 2.488910 1_545
S0 W0 2.488914 1_555
S1 W0 2.489381 1_545
S1 W0 2.489381 1_655
S1 W0 2.489386 1_555
