# generated using pymatgen
data_Li7Mn2(CoO4)3
_symmetry_space_group_name_H-M   'P 1'
_cell_length_a   2.96246672
_cell_length_b   2.96246638
_cell_length_c   29.27641778
_cell_angle_alpha   90.00000000
_cell_angle_beta   90.00000000
_cell_angle_gamma   119.99999007
_symmetry_Int_Tables_number   1
_chemical_formula_structural   Li7Mn2(CoO4)3
_chemical_formula_sum   'Li7 Mn2 Co3 O12'
_cell_volume   222.51306801
_cell_formula_units_Z   1
loop_
 _symmetry_equiv_pos_site_id
 _symmetry_equiv_pos_as_xyz
  1  'x, y, z'
loop_
 _atom_site_type_symbol
 _atom_site_label
 _atom_site_symmetry_multiplicity
 _atom_site_fract_x
 _atom_site_fract_y
 _atom_site_fract_z
 _atom_site_occupancy
  Li  Li0  1  -0.00000000  0.00000000  0.25812265  1
  Li  Li1  1  0.33333300  0.66666700  0.41253503  1
  Li  Li2  1  0.66666700  0.33333300  0.58313085  1
  Li  Li3  1  -0.00000000  0.00000000  0.74934318  1
  Li  Li4  1  0.33333300  0.66666700  0.91361222  1
  Li  Li5  1  0.66666700  0.33333300  0.08299378  1
  Li  Li6  1  0.66666700  0.33333300  0.33334740  1
  Mn  Mn0  1  -0.00000000  0.00000000  0.99952639  1
  Mn  Mn1  1  0.33333300  0.66666700  0.16653914  1
  Co  Co0  1  -0.00000000  0.00000000  0.50057713  1
  Co  Co1  1  0.33333300  0.66666700  0.66673663  1
  Co  Co2  1  0.66666700  0.33333300  0.83253353  1
  O  O0  1  -0.00000000  0.00000000  0.37695316  1
  O  O1  1  0.33333300  0.66666700  0.53738458  1
  O  O2  1  0.66666700  0.33333300  0.70454056  1
  O  O3  1  -0.00000000  0.00000000  0.87085236  1
  O  O4  1  0.33333300  0.66666700  0.03844939  1
  O  O5  1  0.66666700  0.33333300  0.20129268  1
  O  O6  1  -0.00000000  0.00000000  0.12780523  1
  O  O7  1  0.33333300  0.66666700  0.29060475  1
  O  O8  1  0.66666700  0.33333300  0.46748193  1
  O  O9  1  -0.00000000  0.00000000  0.62888245  1
  O  O10  1  0.33333300  0.66666700  0.79512789  1
  O  O11  1  0.66666700  0.33333300  0.96162710  1
loop_
_geom_bond_atom_site_label_1
_geom_bond_atom_site_label_2
_geom_bond_distance
_geom_bond_site_symmetry_2
Li0 O7 1.956967 1_545
Li0 O7 1.956970 1_555
Li0 O7 1.956970 1_445
Li0 O5 2.386117 1_455
Li0 O5 2.386119 1_445
Li0 O5 2.386119 1_555
Li1 O0 2.002637 1_565
Li1 O0 2.002639 1_555
Li1 O0 2.002640 1_665
Li1 O8 2.348009 1_565
Li1 O8 2.348009 1_455
Li1 O8 2.348013 1_555
Li2 O1 2.172346 1_545
Li2 O1 2.172346 1_655
Li2 O1 2.172350 1_555
Li2 O9 2.172442 1_655
Li2 O9 2.172444 1_665
Li2 O9 2.172444 1_555
Li3 O2 2.155423 1_455
Li3 O2 2.155425 1_445
Li3 O2 2.155425 1_555
Li3 O10 2.173040 1_545
Li3 O10 2.173042 1_555
Li3 O10 2.173042 1_445
Li4 O3 2.119561 1_565
Li4 O3 2.119563 1_555
Li4 O3 2.119563 1_665
Li4 O11 2.213911 1_565
Li4 O11 2.213911 1_455
Li4 O11 2.213914 1_555
Li5 O4 2.150831 1_545
Li5 O4 2.150831 1_655
Li5 O4 2.150835 1_555
Li5 O6 2.155581 1_655
Li5 O6 2.155583 1_665
Li5 O6 2.155583 1_555
Li6 O7 2.119264 1_545
Li6 O7 2.119264 1_655
Li6 O7 2.119268 1_555
Li6 O0 2.134281 1_655
Li6 O0 2.134283 1_665
Li6 O0 2.134284 1_555
Mn0 O11 2.038752 1_455
Mn0 O11 2.038754 1_445
Mn0 O11 2.038754 1_555
Mn0 O4 2.055217 1_546
Mn0 O4 2.055219 1_556
Mn0 O4 2.055219 1_446
Mn1 O5 1.990131 1_565
Mn1 O5 1.990131 1_455
Mn1 O5 1.990135 1_555
Mn1 O6 2.052153 1_565
Mn1 O6 2.052155 1_555
Mn1 O6 2.052155 1_665
Co0 O8 1.965752 1_455
Co0 O8 1.965754 1_445
Co0 O8 1.965755 1_555
Co0 O1 2.021533 1_545
Co0 O1 2.021536 1_555
Co0 O1 2.021536 1_445
Co1 O2 2.037234 1_565
Co1 O2 2.037234 1_455
Co1 O2 2.037238 1_555
Co1 O9 2.038034 1_565
Co1 O9 2.038036 1_555
Co1 O9 2.038036 1_665
Co2 O10 2.030923 1_545
Co2 O10 2.030923 1_655
Co2 O10 2.030927 1_555
Co2 O3 2.045463 1_655
Co2 O3 2.045465 1_665
Co2 O3 2.045465 1_555
