# generated using pymatgen
data_Sm3Tl5
_symmetry_space_group_name_H-M   'P 1'
_cell_length_a   6.65461535
_cell_length_b   6.65461535
_cell_length_c   10.55021900
_cell_angle_alpha   90.00000000
_cell_angle_beta   90.00000000
_cell_angle_gamma   103.00007602
_symmetry_Int_Tables_number   1
_chemical_formula_structural   Sm3Tl5
_chemical_formula_sum   'Sm6 Tl10'
_cell_volume   455.23032962
_cell_formula_units_Z   2
loop_
 _symmetry_equiv_pos_site_id
 _symmetry_equiv_pos_as_xyz
  1  'x, y, z'
loop_
 _atom_site_type_symbol
 _atom_site_label
 _atom_site_symmetry_multiplicity
 _atom_site_fract_x
 _atom_site_fract_y
 _atom_site_fract_z
 _atom_site_occupancy
  Sm  Sm0  1  0.62528900  0.62528900  0.25000000  1
  Sm  Sm1  1  0.37471100  0.37471100  0.75000000  1
  Sm  Sm2  1  0.79795700  0.20204300  0.50000000  1
  Sm  Sm3  1  0.79795700  0.20204300  0.00000000  1
  Sm  Sm4  1  0.20204300  0.79795700  0.50000000  1
  Sm  Sm5  1  0.20204300  0.79795700  0.00000000  1
  Tl  Tl0  1  0.00269500  0.00269500  0.25000000  1
  Tl  Tl1  1  0.99730500  0.99730500  0.75000000  1
  Tl  Tl2  1  0.30583900  0.30583900  0.04975600  1
  Tl  Tl3  1  0.69416100  0.69416100  0.95024400  1
  Tl  Tl4  1  0.30583900  0.30583900  0.45024400  1
  Tl  Tl5  1  0.69416100  0.69416100  0.54975600  1
  Tl  Tl6  1  0.05864600  0.51131000  0.25000000  1
  Tl  Tl7  1  0.48869000  0.94135400  0.75000000  1
  Tl  Tl8  1  0.94135400  0.48869000  0.75000000  1
  Tl  Tl9  1  0.51131000  0.05864600  0.25000000  1
loop_
_geom_bond_atom_site_label_1
_geom_bond_atom_site_label_2
_geom_bond_distance
_geom_bond_site_symmetry_2
Sm0 Tl0 3.126878 1_665
Sm0 Tl9 3.142585 1_565
Sm0 Tl6 3.142585 1_655
Sm0 Tl5 3.213558 1_555
Sm0 Tl3 3.213558 1_554
Sm0 Tl2 3.386471 1_555
Sm0 Tl4 3.386471 1_555
Sm0 Tl9 3.675241 1_555
Sm0 Tl6 3.675241 1_555
Sm1 Tl1 3.126878 1_445
Sm1 Tl7 3.142585 1_545
Sm1 Tl8 3.142585 1_455
Sm1 Tl2 3.213558 1_556
Sm1 Tl4 3.213558 1_555
Sm1 Tl5 3.386471 1_555
Sm1 Tl3 3.386471 1_555
Sm1 Tl7 3.675241 1_555
Sm1 Tl8 3.675241 1_555
Sm2 Tl9 3.269098 1_555
Sm2 Tl8 3.269098 1_555
Sm2 Tl5 3.335437 1_545
Sm2 Tl4 3.335437 1_655
Sm2 Tl0 3.374309 1_655
Sm2 Tl1 3.374309 1_545
Sm2 Tl4 3.534831 1_555
Sm2 Tl5 3.534831 1_555
Sm2 Tl7 3.549010 1_545
Sm2 Tl6 3.549010 1_655
Sm3 Tl8 3.269098 1_554
Sm3 Tl9 3.269098 1_555
Sm3 Tl2 3.335437 1_655
Sm3 Tl3 3.335437 1_544
Sm3 Tl0 3.374309 1_655
Sm3 Tl1 3.374309 1_544
Sm3 Tl2 3.534831 1_555
Sm3 Tl3 3.534831 1_554
Sm3 Tl7 3.549010 1_544
Sm3 Tl6 3.549010 1_655
Sm4 Tl7 3.269098 1_555
Sm4 Tl6 3.269098 1_555
Sm4 Tl4 3.335437 1_565
Sm4 Tl5 3.335437 1_455
Sm4 Tl0 3.374309 1_565
Sm4 Tl1 3.374309 1_455
Sm4 Tl4 3.534831 1_555
Sm4 Tl5 3.534831 1_555
Sm4 Tl8 3.549010 1_455
Sm4 Tl9 3.549010 1_565
Sm5 Tl7 3.269098 1_554
Sm5 Tl6 3.269098 1_555
Sm5 Tl3 3.335437 1_454
Sm5 Tl2 3.335437 1_565
Sm5 Tl0 3.374309 1_565
Sm5 Tl1 3.374309 1_454
Sm5 Tl2 3.534831 1_555
Sm5 Tl3 3.534831 1_554
Sm5 Tl8 3.549010 1_454
Sm5 Tl9 3.549010 1_565
Tl0 Tl4 3.281967 1_555
Tl0 Tl2 3.281967 1_555
Tl0 Tl9 3.320757 1_555
Tl0 Tl6 3.320757 1_555
Tl0 Tl9 3.373300 1_455
Tl0 Tl6 3.373300 1_545
Tl1 Tl5 3.281967 1_555
Tl1 Tl3 3.281967 1_555
Tl1 Tl7 3.320757 1_555
Tl1 Tl8 3.320757 1_555
Tl1 Tl7 3.373300 1_655
Tl1 Tl8 3.373300 1_565
Tl2 Tl9 3.170272 1_555
Tl2 Tl6 3.170272 1_555
Tl2 Tl3 3.384284 1_554
Tl3 Tl7 3.170272 1_555
Tl3 Tl8 3.170272 1_555
Tl4 Tl9 3.170272 1_555
Tl4 Tl6 3.170272 1_555
Tl4 Tl5 3.384284 1_555
Tl5 Tl7 3.170272 1_555
Tl5 Tl8 3.170272 1_555
