# generated using pymatgen
data_NdYFe14B
_symmetry_space_group_name_H-M   'P 1'
_cell_length_a   8.77146100
_cell_length_b   8.77146100
_cell_length_c   12.08179500
_cell_angle_alpha   90.00000000
_cell_angle_beta   90.00000000
_cell_angle_gamma   90.00000000
_symmetry_Int_Tables_number   1
_chemical_formula_structural   NdYFe14B
_chemical_formula_sum   'Nd4 Y4 Fe56 B4'
_cell_volume   929.55552380
_cell_formula_units_Z   4
loop_
 _symmetry_equiv_pos_site_id
 _symmetry_equiv_pos_as_xyz
  1  'x, y, z'
loop_
 _atom_site_type_symbol
 _atom_site_label
 _atom_site_symmetry_multiplicity
 _atom_site_fract_x
 _atom_site_fract_y
 _atom_site_fract_z
 _atom_site_occupancy
  Nd  Nd0  1  0.23489700  0.76510300  0.50000000  1
  Nd  Nd1  1  0.76510300  0.23489700  0.50000000  1
  Nd  Nd2  1  0.26510300  0.26510300  0.00000000  1
  Nd  Nd3  1  0.73489700  0.73489700  0.00000000  1
  Y  Y0  1  0.64459400  0.64459400  0.50000000  1
  Y  Y1  1  0.35540600  0.35540600  0.50000000  1
  Y  Y2  1  0.85540600  0.14459400  0.00000000  1
  Y  Y3  1  0.14459400  0.85540600  0.00000000  1
  Fe  Fe0  1  0.18222500  0.81777500  0.25294600  1
  Fe  Fe1  1  0.81777500  0.18222500  0.25294600  1
  Fe  Fe2  1  0.31777500  0.31777500  0.75294600  1
  Fe  Fe3  1  0.68222500  0.68222500  0.75294600  1
  Fe  Fe4  1  0.81777500  0.18222500  0.74705400  1
  Fe  Fe5  1  0.18222500  0.81777500  0.74705400  1
  Fe  Fe6  1  0.68222500  0.68222500  0.24705400  1
  Fe  Fe7  1  0.31777500  0.31777500  0.24705400  1
  Fe  Fe8  1  0.40295500  0.59704500  0.29811600  1
  Fe  Fe9  1  0.59704500  0.40295500  0.29811600  1
  Fe  Fe10  1  0.09704500  0.09704500  0.79811600  1
  Fe  Fe11  1  0.90295500  0.90295500  0.79811600  1
  Fe  Fe12  1  0.59704500  0.40295500  0.70188400  1
  Fe  Fe13  1  0.40295500  0.59704500  0.70188400  1
  Fe  Fe14  1  0.90295500  0.90295500  0.20188400  1
  Fe  Fe15  1  0.09704500  0.09704500  0.20188400  1
  Fe  Fe16  1  0.14084400  0.53604700  0.32419700  1
  Fe  Fe17  1  0.85915600  0.46395300  0.32419700  1
  Fe  Fe18  1  0.35915600  0.03604700  0.82419700  1
  Fe  Fe19  1  0.64084400  0.96395300  0.82419700  1
  Fe  Fe20  1  0.85915600  0.46395300  0.67580300  1
  Fe  Fe21  1  0.14084400  0.53604700  0.67580300  1
  Fe  Fe22  1  0.64084400  0.96395300  0.17580300  1
  Fe  Fe23  1  0.35915600  0.03604700  0.17580300  1
  Fe  Fe24  1  0.53604700  0.14084400  0.32419700  1
  Fe  Fe25  1  0.46395300  0.85915600  0.32419700  1
  Fe  Fe26  1  0.03604700  0.35915600  0.82419700  1
  Fe  Fe27  1  0.96395300  0.64084400  0.82419700  1
  Fe  Fe28  1  0.46395300  0.85915600  0.67580300  1
  Fe  Fe29  1  0.53604700  0.14084400  0.67580300  1
  Fe  Fe30  1  0.96395300  0.64084400  0.17580300  1
  Fe  Fe31  1  0.03604700  0.35915600  0.17580300  1
  Fe  Fe32  1  0.50000000  0.50000000  0.11476600  1
  Fe  Fe33  1  0.00000000  0.00000000  0.61476600  1
  Fe  Fe34  1  0.50000000  0.50000000  0.88523400  1
  Fe  Fe35  1  0.00000000  0.00000000  0.38523400  1
  Fe  Fe36  1  0.93250500  0.72453500  0.37271200  1
  Fe  Fe37  1  0.06749500  0.27546500  0.37271200  1
  Fe  Fe38  1  0.56749500  0.22453500  0.87271200  1
  Fe  Fe39  1  0.43250500  0.77546500  0.87271200  1
  Fe  Fe40  1  0.06749500  0.27546500  0.62728800  1
  Fe  Fe41  1  0.93250500  0.72453500  0.62728800  1
  Fe  Fe42  1  0.43250500  0.77546500  0.12728800  1
  Fe  Fe43  1  0.56749500  0.22453500  0.12728800  1
  Fe  Fe44  1  0.72453500  0.93250500  0.37271200  1
  Fe  Fe45  1  0.27546500  0.06749500  0.37271200  1
  Fe  Fe46  1  0.22453500  0.56749500  0.87271200  1
  Fe  Fe47  1  0.77546500  0.43250500  0.87271200  1
  Fe  Fe48  1  0.27546500  0.06749500  0.62728800  1
  Fe  Fe49  1  0.72453500  0.93250500  0.62728800  1
  Fe  Fe50  1  0.77546500  0.43250500  0.12728800  1
  Fe  Fe51  1  0.22453500  0.56749500  0.12728800  1
  Fe  Fe52  1  0.00000000  0.50000000  0.50000000  1
  Fe  Fe53  1  0.50000000  0.00000000  0.00000000  1
  Fe  Fe54  1  0.50000000  0.00000000  0.50000000  1
  Fe  Fe55  1  0.00000000  0.50000000  0.00000000  1
  B  B0  1  0.87504600  0.87504600  0.50000000  1
  B  B1  1  0.12495400  0.12495400  0.50000000  1
  B  B2  1  0.62495400  0.37504600  0.00000000  1
  B  B3  1  0.37504600  0.62495400  0.00000000  1
loop_
_geom_bond_atom_site_label_1
_geom_bond_atom_site_label_2
_geom_bond_distance
_geom_bond_site_symmetry_2
Nd0 Y1 3.745877 1_555
Nd0 Y0 3.745877 1_555
Nd1 Y1 3.745877 1_555
Nd1 Y0 3.745877 1_555
Nd2 Y3 3.745877 1_545
Nd2 Y2 3.745877 1_455
Nd3 Y3 3.745877 1_655
Nd3 Y2 3.745877 1_565
Y0 Y1 3.587296 1_555
Y2 Y3 3.587296 1_645
Fe0 Fe15 2.634274 1_565
Fe0 Fe14 2.634274 1_455
Fe0 Fe23 2.634911 1_565
Fe0 Fe30 2.634911 1_455
Fe0 Fe16 2.641866 1_555
Fe0 Fe25 2.641866 1_555
Fe0 Fe42 2.694813 1_555
Fe0 Fe51 2.694813 1_555
Fe0 Fe36 2.749645 1_455
Fe0 Fe45 2.749645 1_565
Fe0 Fe35 2.768415 1_565
Fe0 Fe8 2.791950 1_555
Fe0 Nd0 3.055531 1_555
Fe0 Y3 3.091488 1_555
Fe1 Fe14 2.634274 1_545
Fe1 Fe15 2.634274 1_655
Fe1 Fe31 2.634911 1_655
Fe1 Fe22 2.634911 1_545
Fe1 Fe17 2.641866 1_555
Fe1 Fe24 2.641866 1_555
Fe1 Fe50 2.694813 1_555
Fe1 Fe43 2.694813 1_555
Fe1 Fe44 2.749645 1_545
Fe1 Fe37 2.749645 1_655
Fe1 Fe35 2.768415 1_655
Fe1 Fe9 2.791950 1_555
Fe1 Nd1 3.055531 1_555
Fe1 Y2 3.091488 1_555
Fe2 Fe21 2.634911 1_555
Fe2 Fe29 2.634911 1_555
Fe2 Fe26 2.641866 1_555
Fe2 Fe40 2.694813 1_555
Fe2 Fe48 2.694813 1_555
Fe2 Fe46 2.749645 1_555
Fe2 Fe38 2.749645 1_555
Fe2 Fe34 2.768415 1_555
Fe2 Nd2 3.055531 1_556
Fe2 Y1 3.091488 1_555
Fe3 Fe41 2.694813 1_555
Fe3 Fe49 2.694813 1_555
Fe3 Fe47 2.749645 1_555
Fe3 Fe39 2.749645 1_555
Fe3 Fe34 2.768415 1_555
Fe3 Nd3 3.055531 1_556
Fe3 Y0 3.091488 1_555
Fe4 Fe47 2.694813 1_555
Fe4 Fe49 2.749645 1_545
Fe4 Fe40 2.749645 1_655
Fe4 Nd1 3.055531 1_555
Fe4 Y2 3.091488 1_556
Fe5 Nd0 3.055531 1_555
Fe5 Y3 3.091488 1_556
Fe6 Fe9 2.634274 1_555
Fe6 Fe8 2.634274 1_555
Fe6 Nd3 3.055531 1_555
Fe6 Y0 3.091488 1_555
Fe7 Fe9 2.634274 1_555
Fe7 Fe8 2.634274 1_555
Fe7 Nd2 3.055531 1_555
Fe7 Y1 3.091488 1_555
Fe8 Fe9 2.407632 1_555
Fe8 Nd0 3.208635 1_555
Fe8 Y0 3.258168 1_555
Fe8 Y1 3.258168 1_555
Fe9 Nd1 3.208635 1_555
Fe9 Y0 3.258168 1_555
Fe9 Y1 3.258168 1_555
Fe10 Fe26 2.381471 1_555
Fe10 Fe18 2.381471 1_555
Fe10 Fe11 2.407632 1_445
Fe10 Fe33 2.521165 1_555
Fe10 Fe40 2.603102 1_555
Fe10 Fe48 2.603102 1_555
Fe10 Fe4 2.634274 1_455
Fe10 Fe5 2.634274 1_545
Fe10 Fe2 2.791950 1_555
Fe10 Nd2 3.208635 1_556
Fe10 Y2 3.258168 1_456
Fe10 Y3 3.258168 1_546
Fe11 Fe19 2.381471 1_555
Fe11 Fe27 2.381471 1_555
Fe11 Fe33 2.521165 1_665
Fe11 Fe41 2.603102 1_555
Fe11 Fe49 2.603102 1_555
Fe11 Fe5 2.634274 1_655
Fe11 Fe4 2.634274 1_565
Fe11 Fe3 2.791950 1_555
Fe11 Nd3 3.208635 1_556
Fe11 Y3 3.258168 1_656
Fe11 Y2 3.258168 1_566
Fe12 Fe20 2.381471 1_555
Fe12 Fe29 2.381471 1_555
Fe12 Fe13 2.407632 1_555
Fe12 Fe34 2.521165 1_555
Fe12 Fe47 2.603102 1_555
Fe12 Fe38 2.603102 1_555
Fe12 Fe3 2.634274 1_555
Fe12 Fe2 2.634274 1_555
Fe12 Fe4 2.791950 1_555
Fe12 Nd1 3.208635 1_555
Fe12 Y0 3.258168 1_555
Fe12 Y1 3.258168 1_555
Fe13 Fe28 2.381471 1_555
Fe13 Fe21 2.381471 1_555
Fe13 Fe34 2.521165 1_555
Fe13 Fe39 2.603102 1_555
Fe13 Fe46 2.603102 1_555
Fe13 Fe3 2.634274 1_555
Fe13 Fe2 2.634274 1_555
Fe13 Fe5 2.791950 1_555
Fe13 Nd0 3.208635 1_555
Fe13 Y0 3.258168 1_555
Fe13 Y1 3.258168 1_555
Fe14 Fe22 2.381471 1_555
Fe14 Fe30 2.381471 1_555
Fe14 Fe15 2.407632 1_665
Fe14 Fe35 2.521165 1_665
Fe14 Fe44 2.603102 1_555
Fe14 Fe36 2.603102 1_555
Fe14 Fe6 2.791950 1_555
Fe14 Nd3 3.208635 1_555
Fe14 Y3 3.258168 1_655
Fe14 Y2 3.258168 1_565
Fe15 Fe23 2.381471 1_555
Fe15 Fe31 2.381471 1_555
Fe15 Fe35 2.521165 1_555
Fe15 Fe37 2.603102 1_555
Fe15 Fe45 2.603102 1_555
Fe15 Fe7 2.791950 1_555
Fe15 Nd2 3.208635 1_555
Fe15 Y3 3.258168 1_545
Fe15 Y2 3.258168 1_455
Fe16 Fe8 2.381471 1_555
Fe16 Fe37 2.445784 1_555
Fe16 Fe52 2.477428 1_555
Fe16 Fe51 2.504933 1_555
Fe16 Fe36 2.533091 1_455
Fe16 Fe30 2.542986 1_455
Fe16 Fe31 2.542986 1_555
Fe16 Fe17 2.550455 1_455
Fe16 Fe7 2.634911 1_555
Fe16 Nd0 3.037885 1_555
Fe16 Y1 3.250238 1_555
Fe17 Fe9 2.381471 1_555
Fe17 Fe36 2.445784 1_555
Fe17 Fe52 2.477428 1_655
Fe17 Fe50 2.504933 1_555
Fe17 Fe37 2.533091 1_655
Fe17 Fe30 2.542986 1_555
Fe17 Fe31 2.542986 1_655
Fe17 Fe6 2.634911 1_555
Fe17 Nd1 3.037885 1_555
Fe17 Y0 3.250238 1_555
Fe18 Fe39 2.445784 1_545
Fe18 Fe53 2.477428 1_556
Fe18 Fe48 2.504933 1_555
Fe18 Fe38 2.533091 1_555
Fe18 Fe28 2.542986 1_545
Fe18 Fe29 2.542986 1_555
Fe18 Fe19 2.550455 1_545
Fe18 Fe5 2.634911 1_545
Fe18 Fe2 2.641866 1_555
Fe18 Nd2 3.037885 1_556
Fe18 Y3 3.250238 1_546
Fe19 Fe38 2.445784 1_565
Fe19 Fe53 2.477428 1_566
Fe19 Fe49 2.504933 1_555
Fe19 Fe39 2.533091 1_555
Fe19 Fe29 2.542986 1_565
Fe19 Fe28 2.542986 1_555
Fe19 Fe4 2.634911 1_565
Fe19 Fe3 2.641866 1_555
Fe19 Nd3 3.037885 1_556
Fe19 Y2 3.250238 1_566
Fe20 Fe41 2.445784 1_555
Fe20 Fe52 2.477428 1_655
Fe20 Fe47 2.504933 1_555
Fe20 Fe40 2.533091 1_655
Fe20 Fe27 2.542986 1_555
Fe20 Fe26 2.542986 1_655
Fe20 Fe21 2.550455 1_655
Fe20 Fe3 2.634911 1_555
Fe20 Fe4 2.641866 1_555
Fe20 Nd1 3.037885 1_555
Fe20 Y0 3.250238 1_555
Fe21 Fe40 2.445784 1_555
Fe21 Fe52 2.477428 1_555
Fe21 Fe46 2.504933 1_555
Fe21 Fe41 2.533091 1_455
Fe21 Fe27 2.542986 1_455
Fe21 Fe26 2.542986 1_555
Fe21 Fe5 2.641866 1_555
Fe21 Nd0 3.037885 1_555
Fe21 Y1 3.250238 1_555
Fe22 Fe43 2.445784 1_565
Fe22 Fe53 2.477428 1_565
Fe22 Fe44 2.504933 1_555
Fe22 Fe42 2.533091 1_555
Fe22 Fe24 2.542986 1_565
Fe22 Fe25 2.542986 1_555
Fe22 Fe23 2.550455 1_565
Fe22 Fe6 2.641866 1_555
Fe22 Nd3 3.037885 1_555
Fe22 Y2 3.250238 1_565
Fe23 Fe42 2.445784 1_545
Fe23 Fe53 2.477428 1_555
Fe23 Fe45 2.504933 1_555
Fe23 Fe43 2.533091 1_555
Fe23 Fe25 2.542986 1_545
Fe23 Fe24 2.542986 1_555
Fe23 Fe7 2.641866 1_555
Fe23 Nd2 3.037885 1_555
Fe23 Y3 3.250238 1_545
Fe24 Fe9 2.381471 1_555
Fe24 Fe45 2.445784 1_555
Fe24 Fe54 2.477428 1_555
Fe24 Fe43 2.504933 1_555
Fe24 Fe44 2.533091 1_545
Fe24 Fe25 2.550455 1_545
Fe24 Fe7 2.634911 1_555
Fe24 Nd1 3.037885 1_555
Fe24 Y1 3.250238 1_555
Fe25 Fe8 2.381471 1_555
Fe25 Fe44 2.445784 1_555
Fe25 Fe54 2.477428 1_565
Fe25 Fe42 2.504933 1_555
Fe25 Fe45 2.533091 1_565
Fe25 Fe6 2.634911 1_555
Fe25 Nd0 3.037885 1_555
Fe25 Y0 3.250238 1_555
Fe26 Fe47 2.445784 1_455
Fe26 Fe55 2.477428 1_556
Fe26 Fe40 2.504933 1_555
Fe26 Fe46 2.533091 1_555
Fe26 Fe27 2.550455 1_455
Fe26 Fe4 2.634911 1_455
Fe26 Nd2 3.037885 1_556
Fe26 Y2 3.250238 1_456
Fe27 Fe46 2.445784 1_655
Fe27 Fe55 2.477428 1_656
Fe27 Fe41 2.504933 1_555
Fe27 Fe47 2.533091 1_555
Fe27 Fe5 2.634911 1_655
Fe27 Fe3 2.641866 1_555
Fe27 Nd3 3.037885 1_556
Fe27 Y3 3.250238 1_656
Fe28 Fe49 2.445784 1_555
Fe28 Fe54 2.477428 1_565
Fe28 Fe39 2.504933 1_555
Fe28 Fe48 2.533091 1_565
Fe28 Fe29 2.550455 1_565
Fe28 Fe3 2.634911 1_555
Fe28 Fe5 2.641866 1_555
Fe28 Nd0 3.037885 1_555
Fe28 Y0 3.250238 1_555
Fe29 Fe48 2.445784 1_555
Fe29 Fe54 2.477428 1_555
Fe29 Fe38 2.504933 1_555
Fe29 Fe49 2.533091 1_545
Fe29 Fe4 2.641866 1_555
Fe29 Nd1 3.037885 1_555
Fe29 Y1 3.250238 1_555
Fe30 Fe51 2.445784 1_655
Fe30 Fe55 2.477428 1_655
Fe30 Fe36 2.504933 1_555
Fe30 Fe50 2.533091 1_555
Fe30 Fe31 2.550455 1_655
Fe30 Fe6 2.641866 1_555
Fe30 Nd3 3.037885 1_555
Fe30 Y3 3.250238 1_655
Fe31 Fe50 2.445784 1_455
Fe31 Fe55 2.477428 1_555
Fe31 Fe37 2.504933 1_555
Fe31 Fe51 2.533091 1_555
Fe31 Fe7 2.641866 1_555
Fe31 Nd2 3.037885 1_555
Fe31 Y2 3.250238 1_455
Fe32 Fe8 2.521165 1_555
Fe32 Fe9 2.521165 1_555
Fe32 Fe6 2.768415 1_555
Fe32 Fe7 2.768415 1_555
Fe32 Nd2 3.226920 1_555
Fe32 Nd3 3.226920 1_555
Fe33 Fe4 2.768415 1_455
Fe33 Fe5 2.768415 1_545
Fe33 Nd1 3.226920 1_455
Fe33 Nd0 3.226920 1_545
Fe34 Nd2 3.226920 1_556
Fe34 Nd3 3.226920 1_556
Fe35 Nd1 3.226920 1_455
Fe35 Nd0 3.226920 1_545
Fe36 Fe52 2.567969 1_655
Fe36 Fe6 2.694813 1_555
Fe36 Y0 3.038809 1_555
Fe36 Nd0 3.086582 1_655
Fe37 Fe52 2.567969 1_555
Fe37 Fe7 2.694813 1_555
Fe37 Y1 3.038809 1_555
Fe37 Nd1 3.086582 1_455
Fe38 Fe53 2.567969 1_556
Fe38 Fe4 2.694813 1_555
Fe38 Y2 3.038809 1_556
Fe38 Nd2 3.086582 1_556
Fe39 Fe53 2.567969 1_566
Fe39 Fe5 2.694813 1_555
Fe39 Y3 3.038809 1_556
Fe39 Nd3 3.086582 1_556
Fe40 Fe52 2.567969 1_555
Fe40 Y1 3.038809 1_555
Fe40 Nd1 3.086582 1_455
Fe41 Fe52 2.567969 1_655
Fe41 Fe5 2.749645 1_655
Fe41 Y0 3.038809 1_555
Fe41 Nd0 3.086582 1_655
Fe42 Fe53 2.567969 1_565
Fe42 Fe8 2.603102 1_555
Fe42 Fe6 2.749645 1_555
Fe42 Y3 3.038809 1_555
Fe42 Nd3 3.086582 1_555
Fe43 Fe53 2.567969 1_555
Fe43 Fe9 2.603102 1_555
Fe43 Fe7 2.749645 1_555
Fe43 Y2 3.038809 1_555
Fe43 Nd2 3.086582 1_555
Fe44 Fe54 2.567969 1_565
Fe44 Fe6 2.694813 1_555
Fe44 Y0 3.038809 1_555
Fe44 Nd1 3.086582 1_565
Fe45 Fe54 2.567969 1_555
Fe45 Fe7 2.694813 1_555
Fe45 Y1 3.038809 1_555
Fe45 Nd0 3.086582 1_545
Fe46 Fe55 2.567969 1_556
Fe46 Fe5 2.694813 1_555
Fe46 Y3 3.038809 1_556
Fe46 Nd2 3.086582 1_556
Fe47 Fe55 2.567969 1_656
Fe47 Y2 3.038809 1_556
Fe47 Nd3 3.086582 1_556
Fe48 Fe54 2.567969 1_555
Fe48 Fe5 2.749645 1_545
Fe48 Y1 3.038809 1_555
Fe48 Nd0 3.086582 1_545
Fe49 Fe54 2.567969 1_565
Fe49 Y0 3.038809 1_555
Fe49 Nd1 3.086582 1_565
Fe50 Fe55 2.567969 1_655
Fe50 Fe9 2.603102 1_555
Fe50 Fe6 2.749645 1_555
Fe50 Y2 3.038809 1_555
Fe50 Nd3 3.086582 1_555
Fe51 Fe55 2.567969 1_555
Fe51 Fe8 2.603102 1_555
Fe51 Fe7 2.749645 1_555
Fe51 Y3 3.038809 1_555
Fe51 Nd2 3.086582 1_555
Fe52 Nd0 3.106834 1_555
Fe52 Nd1 3.106834 1_455
Fe52 Y1 3.365554 1_555
Fe52 Y0 3.365554 1_455
Fe53 Nd2 3.106834 1_555
Fe53 Nd3 3.106834 1_545
Fe53 Y2 3.365554 1_555
Fe53 Y3 3.365554 1_545
Fe54 Nd1 3.106834 1_555
Fe54 Nd0 3.106834 1_545
Fe54 Y0 3.365554 1_545
Fe54 Y1 3.365554 1_555
Fe55 Nd2 3.106834 1_555
Fe55 Nd3 3.106834 1_455
Fe55 Y2 3.365554 1_455
Fe55 Y3 3.365554 1_555
B0 Fe35 2.079702 1_665
B0 Fe33 2.079702 1_665
B0 Fe49 2.088536 1_555
B0 Fe41 2.088536 1_555
B0 Fe44 2.088536 1_555
B0 Fe36 2.088536 1_555
B0 Y0 2.858692 1_555
B0 Nd1 3.300450 1_565
B0 Nd0 3.300450 1_655
B1 Fe35 2.079702 1_555
B1 Fe33 2.079702 1_555
B1 Fe48 2.088536 1_555
B1 Fe40 2.088536 1_555
B1 Fe37 2.088536 1_555
B1 Fe45 2.088536 1_555
B1 Y1 2.858692 1_555
B1 Nd0 3.300450 1_545
B1 Nd1 3.300450 1_455
B2 Fe32 2.079702 1_555
B2 Fe34 2.079702 1_554
B2 Fe47 2.088536 1_554
B2 Fe38 2.088536 1_554
B2 Fe50 2.088536 1_555
B2 Fe43 2.088536 1_555
B2 Y2 2.858692 1_555
B2 Nd3 3.300450 1_555
B2 Nd2 3.300450 1_555
B3 Fe32 2.079702 1_555
B3 Fe34 2.079702 1_554
B3 Fe39 2.088536 1_554
B3 Fe46 2.088536 1_554
B3 Fe51 2.088536 1_555
B3 Fe42 2.088536 1_555
B3 Y3 2.858692 1_555
B3 Nd2 3.300450 1_555
B3 Nd3 3.300450 1_555
