# generated using pymatgen
data_BaAg(PO3)3
_symmetry_space_group_name_H-M   'P 1'
_cell_length_a   6.07215100
_cell_length_b   11.30994800
_cell_length_c   12.47107700
_cell_angle_alpha   90.00000000
_cell_angle_beta   90.00000000
_cell_angle_gamma   90.00000000
_symmetry_Int_Tables_number   1
_chemical_formula_structural   BaAg(PO3)3
_chemical_formula_sum   'Ba4 Ag4 P12 O36'
_cell_volume   856.46009311
_cell_formula_units_Z   4
loop_
 _symmetry_equiv_pos_site_id
 _symmetry_equiv_pos_as_xyz
  1  'x, y, z'
loop_
 _atom_site_type_symbol
 _atom_site_label
 _atom_site_symmetry_multiplicity
 _atom_site_fract_x
 _atom_site_fract_y
 _atom_site_fract_z
 _atom_site_occupancy
  Ba  Ba0  1  0.09761200  0.10875000  0.08076800  1
  Ba  Ba1  1  0.59761200  0.39125000  0.91923200  1
  Ba  Ba2  1  0.90238800  0.60875000  0.41923200  1
  Ba  Ba3  1  0.40238800  0.89125000  0.58076800  1
  Ag  Ag0  1  0.10311300  0.48332900  0.13358000  1
  Ag  Ag1  1  0.60311300  0.01667100  0.86642000  1
  Ag  Ag2  1  0.89688700  0.98332900  0.36642000  1
  Ag  Ag3  1  0.39688700  0.51667100  0.63358000  1
  P  P0  1  0.11047500  0.84710000  0.85629100  1
  P  P1  1  0.61047500  0.65290000  0.14370900  1
  P  P2  1  0.88952500  0.34710000  0.64370900  1
  P  P3  1  0.38952500  0.15290000  0.35629100  1
  P  P4  1  0.91349000  0.70728300  0.68564600  1
  P  P5  1  0.41349000  0.79271700  0.31435400  1
  P  P6  1  0.08651000  0.20728300  0.81435400  1
  P  P7  1  0.58651000  0.29271700  0.18564600  1
  P  P8  1  0.10866600  0.58753800  0.86830600  1
  P  P9  1  0.60866600  0.91246200  0.13169400  1
  P  P10  1  0.89133400  0.08753800  0.63169400  1
  P  P11  1  0.39133400  0.41246200  0.36830600  1
  O  O0  1  0.01357900  0.93546800  0.93169400  1
  O  O1  1  0.51357900  0.56453200  0.06830600  1
  O  O2  1  0.98642100  0.43546800  0.56830600  1
  O  O3  1  0.48642100  0.06453200  0.43169400  1
  O  O4  1  0.32593500  0.87038400  0.80082300  1
  O  O5  1  0.82593500  0.62961600  0.19917700  1
  O  O6  1  0.67406500  0.37038400  0.69917700  1
  O  O7  1  0.17406500  0.12961600  0.30082300  1
  O  O8  1  0.69418400  0.70401500  0.63028400  1
  O  O9  1  0.19418400  0.79598500  0.36971600  1
  O  O10  1  0.30581600  0.20401500  0.86971600  1
  O  O11  1  0.80581600  0.29598500  0.13028400  1
  O  O12  1  0.11332500  0.70371500  0.61311800  1
  O  O13  1  0.61332500  0.79628500  0.38688200  1
  O  O14  1  0.88667500  0.20371500  0.88688200  1
  O  O15  1  0.38667500  0.29628500  0.11311800  1
  O  O16  1  0.32726900  0.55289400  0.82114300  1
  O  O17  1  0.82726900  0.94710600  0.17885700  1
  O  O18  1  0.67273100  0.05289400  0.67885700  1
  O  O19  1  0.17273100  0.44710600  0.32114300  1
  O  O20  1  0.38373700  0.28047200  0.41751700  1
  O  O21  1  0.88373700  0.21952800  0.58248300  1
  O  O22  1  0.61626300  0.78047200  0.08248300  1
  O  O23  1  0.11626300  0.71952800  0.91751700  1
  O  O24  1  0.57684400  0.17822700  0.26336000  1
  O  O25  1  0.07684400  0.32177300  0.73664000  1
  O  O26  1  0.42315600  0.67822700  0.23664000  1
  O  O27  1  0.92315600  0.82177300  0.76336000  1
  O  O28  1  0.57502800  0.39863600  0.27325200  1
  O  O29  1  0.07502800  0.10136400  0.72674800  1
  O  O30  1  0.42497200  0.89863600  0.22674800  1
  O  O31  1  0.92497200  0.60136400  0.77325200  1
  O  O32  1  0.49485000  0.49425400  0.44917700  1
  O  O33  1  0.99485000  0.00574600  0.55082300  1
  O  O34  1  0.50515000  0.99425400  0.05082300  1
  O  O35  1  0.00515000  0.50574600  0.94917700  1
loop_
_geom_bond_atom_site_label_1
_geom_bond_atom_site_label_2
_geom_bond_distance
_geom_bond_site_symmetry_2
Ba0 O17 2.744703 1_445
Ba0 O0 2.749095 1_544
Ba0 O15 2.782499 1_555
Ba0 O7 2.793298 1_555
Ba0 O34 2.817827 1_545
Ba0 O11 2.829313 1_455
Ba0 O14 2.939507 1_454
Ba0 O10 3.112373 1_554
Ba1 O16 2.744703 1_555
Ba1 O1 2.749095 1_556
Ba1 O14 2.782499 1_555
Ba1 O6 2.793298 1_555
Ba1 O35 2.817827 1_655
Ba1 O10 2.829313 1_555
Ba1 O15 2.939507 1_556
Ba1 O11 3.112373 1_556
Ba2 O19 2.744703 1_655
Ba2 O2 2.749095 1_555
Ba2 O13 2.782499 1_555
Ba2 O5 2.793298 1_555
Ba2 O32 2.817827 1_555
Ba2 O9 2.829313 1_655
Ba2 O12 2.939507 1_655
Ba2 O8 3.112373 1_555
Ba3 O18 2.744703 1_565
Ba3 O3 2.749095 1_565
Ba3 O12 2.782499 1_555
Ba3 O4 2.793298 1_555
Ba3 O33 2.817827 1_465
Ba3 O8 2.829313 1_555
Ba3 O13 2.939507 1_555
Ba3 O9 3.112373 1_555
Ag0 O35 2.388883 1_554
Ag0 O19 2.412050 1_555
Ag0 O5 2.497861 1_455
Ag0 O15 2.739523 1_555
Ag0 O1 2.778171 1_555
Ag0 O11 2.783897 1_455
Ag1 O34 2.388883 1_546
Ag1 O18 2.412050 1_555
Ag1 O4 2.497861 1_545
Ag1 O14 2.739523 1_555
Ag1 O0 2.778171 1_645
Ag1 O10 2.783897 1_555
Ag2 O33 2.388883 1_565
Ag2 O17 2.412050 1_555
Ag2 O7 2.497861 1_665
Ag2 O13 2.739523 1_555
Ag2 O3 2.778171 1_565
Ag2 O9 2.783897 1_655
Ag3 O32 2.388883 1_555
Ag3 O16 2.412050 1_555
Ag3 O6 2.497861 1_555
Ag3 O12 2.739523 1_555
Ag3 O2 2.778171 1_455
Ag3 O8 2.783897 1_555
O0 P0 1.493091 1_555
O1 P1 1.493091 1_555
O2 P2 1.493091 1_555
O3 P3 1.493091 1_555
O4 P0 1.503171 1_555
O5 P1 1.503171 1_555
O6 P2 1.503171 1_555
O7 P3 1.503171 1_555
O8 P4 1.500456 1_555
O9 P5 1.500456 1_555
O10 P6 1.500456 1_555
O11 P7 1.500456 1_555
O12 P4 1.513988 1_455
O13 P5 1.513988 1_555
O14 P6 1.513988 1_655
O15 P7 1.513988 1_555
O16 P8 1.503808 1_555
O17 P9 1.503808 1_555
O18 P10 1.503808 1_555
O19 P11 1.503808 1_555
O20 P11 1.614690 1_555
O20 P3 1.632794 1_555
O21 P10 1.614690 1_555
O21 P2 1.632794 1_555
O22 P9 1.614690 1_555
O22 P1 1.632794 1_555
O23 P8 1.614690 1_555
O23 P0 1.632794 1_555
O24 P7 1.618472 1_555
O24 P3 1.648927 1_555
O25 P6 1.618472 1_555
O25 P2 1.648927 1_455
O26 P5 1.618472 1_555
O26 P1 1.648927 1_555
O27 P4 1.618472 1_555
O27 P0 1.648927 1_655
O28 P7 1.622826 1_555
O28 P11 1.635189 1_555
O29 P6 1.622826 1_555
O29 P10 1.635189 1_455
O30 P5 1.622826 1_555
O30 P9 1.635189 1_555
O31 P4 1.622826 1_555
O31 P8 1.635189 1_655
O32 P11 1.505990 1_555
O33 P10 1.505990 1_555
O34 P9 1.505990 1_555
O35 P8 1.505990 1_555
