# generated using pymatgen
data_Ca7MgMn8O20
_symmetry_space_group_name_H-M   'P 1'
_cell_length_a   10.92957408
_cell_length_b   11.17798503
_cell_length_c   16.86291753
_cell_angle_alpha   109.14572898
_cell_angle_beta   109.37134065
_cell_angle_gamma   90.39511227
_symmetry_Int_Tables_number   1
_chemical_formula_structural   Ca7MgMn8O20
_chemical_formula_sum   'Ca28 Mg4 Mn32 O80'
_cell_volume   1820.49077613
_cell_formula_units_Z   4
loop_
 _symmetry_equiv_pos_site_id
 _symmetry_equiv_pos_as_xyz
  1  'x, y, z'
loop_
 _atom_site_type_symbol
 _atom_site_label
 _atom_site_symmetry_multiplicity
 _atom_site_fract_x
 _atom_site_fract_y
 _atom_site_fract_z
 _atom_site_occupancy
  Ca  Ca0  1  0.30619749  0.06272231  0.60561657  1
  Ca  Ca1  1  0.30838539  0.56270045  0.60711907  1
  Ca  Ca2  1  0.80602726  0.06211620  0.60630077  1
  Ca  Ca3  1  0.80386493  0.56446164  0.10708316  1
  Ca  Ca4  1  0.80706017  0.56375805  0.60826582  1
  Ca  Ca5  1  0.19386577  0.43311727  0.38863685  1
  Ca  Ca6  1  0.20502874  0.43815584  0.89701768  1
  Ca  Ca7  1  0.19402163  0.93602005  0.38779604  1
  Ca  Ca8  1  0.20564919  0.93846864  0.89675434  1
  Ca  Ca9  1  0.69288866  0.43502256  0.38976820  1
  Ca  Ca10  1  0.70046343  0.43423615  0.89478193  1
  Ca  Ca11  1  0.69147989  0.93542398  0.38999699  1
  Ca  Ca12  1  0.70117209  0.93737965  0.89512032  1
  Ca  Ca13  1  0.05173892  0.29171577  0.11018851  1
  Ca  Ca14  1  0.05331519  0.29185919  0.60611440  1
  Ca  Ca15  1  0.05390660  0.79291372  0.60867558  1
  Ca  Ca16  1  0.55273886  0.29391064  0.10815754  1
  Ca  Ca17  1  0.55457953  0.29209899  0.60609278  1
  Ca  Ca18  1  0.55501775  0.79258779  0.10862708  1
  Ca  Ca19  1  0.55544060  0.79117509  0.60738099  1
  Ca  Ca20  1  0.44640999  0.20442904  0.38663403  1
  Ca  Ca21  1  0.45183027  0.20833972  0.89293237  1
  Ca  Ca22  1  0.44574075  0.70665098  0.38707588  1
  Ca  Ca23  1  0.45055979  0.70380065  0.89025888  1
  Ca  Ca24  1  0.94854926  0.20542999  0.38829528  1
  Ca  Ca25  1  0.95029722  0.20495636  0.89467120  1
  Ca  Ca26  1  0.94935853  0.70853092  0.39121438  1
  Ca  Ca27  1  0.95541460  0.70332771  0.89612262  1
  Mg  Mg0  1  0.28430770  0.07266205  0.11434738  1
  Mg  Mg1  1  0.28539565  0.57329319  0.11072707  1
  Mg  Mg2  1  0.78089233  0.07779618  0.11388485  1
  Mg  Mg3  1  0.03284229  0.79346569  0.11466191  1
  Mn  Mn0  1  0.01336584  0.99537683  0.00405191  1
  Mn  Mn1  1  0.00446110  0.99718496  0.49744164  1
  Mn  Mn2  1  0.01122567  0.50264988  0.00366486  1
  Mn  Mn3  1  0.00600361  0.49861771  0.49810843  1
  Mn  Mn4  1  0.50931999  0.00090793  0.00271036  1
  Mn  Mn5  1  0.50308340  0.99662245  0.49674099  1
  Mn  Mn6  1  0.50758405  0.50330712  0.00270948  1
  Mn  Mn7  1  0.50558989  0.49808048  0.49715240  1
  Mn  Mn8  1  0.26214006  0.25028118  0.00596331  1
  Mn  Mn9  1  0.25443893  0.24884017  0.49848460  1
  Mn  Mn10  1  0.26374749  0.75137149  0.00590340  1
  Mn  Mn11  1  0.25705647  0.74820390  0.50003950  1
  Mn  Mn12  1  0.75981475  0.24505791  0.00247649  1
  Mn  Mn13  1  0.75369795  0.24889157  0.49847277  1
  Mn  Mn14  1  0.76423238  0.75392293  0.00385950  1
  Mn  Mn15  1  0.75459566  0.74743282  0.49847541  1
  Mn  Mn16  1  0.09667539  0.08975000  0.24191495  1
  Mn  Mn17  1  0.10682155  0.10019261  0.75228562  1
  Mn  Mn18  1  0.10737453  0.60379596  0.24847202  1
  Mn  Mn19  1  0.11158973  0.59373584  0.75238403  1
  Mn  Mn20  1  0.59575056  0.09450515  0.24448805  1
  Mn  Mn21  1  0.60916494  0.09684435  0.75016881  1
  Mn  Mn22  1  0.59561585  0.59506141  0.24453388  1
  Mn  Mn23  1  0.61492724  0.59207105  0.75210793  1
  Mn  Mn24  1  0.35393898  0.40653828  0.24354212  1
  Mn  Mn25  1  0.35640088  0.40157560  0.75012000  1
  Mn  Mn26  1  0.34463028  0.90025600  0.23811785  1
  Mn  Mn27  1  0.36006757  0.90933358  0.75123407  1
  Mn  Mn28  1  0.85851942  0.40703661  0.24801287  1
  Mn  Mn29  1  0.85982796  0.39973142  0.75195920  1
  Mn  Mn30  1  0.85670530  0.91358414  0.24587542  1
  Mn  Mn31  1  0.86270999  0.90712645  0.75309562  1
  O  O0  1  0.12355747  0.11934974  0.48734547  1
  O  O1  1  0.12784026  0.11343473  0.98775184  1
  O  O2  1  0.12299812  0.61674142  0.48125430  1
  O  O3  1  0.13362243  0.61503937  0.98762657  1
  O  O4  1  0.62191196  0.11795204  0.48599651  1
  O  O5  1  0.62535360  0.11490750  0.98326571  1
  O  O6  1  0.62243430  0.61702004  0.48293431  1
  O  O7  1  0.62727321  0.62122085  0.98535056  1
  O  O8  1  0.15101135  0.39302213  0.03199210  1
  O  O9  1  0.13801747  0.37922679  0.51505499  1
  O  O10  1  0.15732220  0.88727407  0.03626335  1
  O  O11  1  0.13822731  0.87785171  0.51494443  1
  O  O12  1  0.63316334  0.37933990  0.01258533  1
  O  O13  1  0.63805758  0.37969203  0.51550074  1
  O  O14  1  0.65407194  0.89495041  0.02546757  1
  O  O15  1  0.63710653  0.87829184  0.51356557  1
  O  O16  1  0.37066924  0.11629772  0.48474075  1
  O  O17  1  0.37985323  0.12117150  0.98125919  1
  O  O18  1  0.37146552  0.61366256  0.48064716  1
  O  O19  1  0.37845757  0.62066169  0.97896310  1
  O  O20  1  0.86988588  0.11670659  0.48319064  1
  O  O21  1  0.88093157  0.10718347  0.98573403  1
  O  O22  1  0.87006518  0.61417501  0.47934508  1
  O  O23  1  0.87834182  0.61256536  0.98532949  1
  O  O24  1  0.38823000  0.39770443  0.02241445  1
  O  O25  1  0.38386300  0.37910482  0.50891139  1
  O  O26  1  0.39545028  0.89791874  0.02705201  1
  O  O27  1  0.38579806  0.88136227  0.51322117  1
  O  O28  1  0.89024131  0.38201507  0.01938996  1
  O  O29  1  0.88424177  0.38048061  0.51001210  1
  O  O30  1  0.90984424  0.88093367  0.03000325  1
  O  O31  1  0.88257809  0.87938254  0.50808165  1
  O  O32  1  0.10301088  0.10393851  0.13554142  1
  O  O33  1  0.07466422  0.09343519  0.63288335  1
  O  O34  1  0.08741376  0.61768909  0.13468918  1
  O  O35  1  0.07862889  0.59679551  0.62929120  1
  O  O36  1  0.60032179  0.10332086  0.13501328  1
  O  O37  1  0.57770073  0.09346452  0.63188518  1
  O  O38  1  0.59607450  0.59825260  0.13348959  1
  O  O39  1  0.57939650  0.59529945  0.62907181  1
  O  O40  1  0.45138131  0.40056664  0.36610901  1
  O  O41  1  0.44346356  0.40429556  0.86852699  1
  O  O42  1  0.44206408  0.90494576  0.36541377  1
  O  O43  1  0.44897329  0.89876616  0.87303724  1
  O  O44  1  0.95217421  0.39862343  0.36812686  1
  O  O45  1  0.95104938  0.40222912  0.87076710  1
  O  O46  1  0.95333294  0.90437648  0.36681872  1
  O  O47  1  0.95794458  0.89593502  0.87506473  1
  O  O48  1  0.34199452  0.26118991  0.13147088  1
  O  O49  1  0.33148228  0.28760933  0.63305873  1
  O  O50  1  0.35047525  0.75764829  0.13095601  1
  O  O51  1  0.33413143  0.77980808  0.63058214  1
  O  O52  1  0.83136069  0.26654586  0.13072510  1
  O  O53  1  0.83139839  0.28678776  0.63352730  1
  O  O54  1  0.84640589  0.77639783  0.13294080  1
  O  O55  1  0.83572697  0.78151017  0.63022050  1
  O  O56  1  0.18378396  0.20424947  0.36323066  1
  O  O57  1  0.19214862  0.21780643  0.87162387  1
  O  O58  1  0.19603120  0.71610396  0.36632016  1
  O  O59  1  0.19851426  0.72426480  0.87490527  1
  O  O60  1  0.67886678  0.20992832  0.36340445  1
  O  O61  1  0.70163099  0.21125006  0.86832077  1
  O  O62  1  0.67850673  0.71182670  0.36274992  1
  O  O63  1  0.70711872  0.72343061  0.87380883  1
  O  O64  1  0.40772297  0.07617484  0.23597342  1
  O  O65  1  0.42592547  0.08292122  0.75019632  1
  O  O66  1  0.40751296  0.57951860  0.23488924  1
  O  O67  1  0.42430493  0.56403096  0.75005958  1
  O  O68  1  0.90921886  0.08407483  0.23529139  1
  O  O69  1  0.92289245  0.08267686  0.75132440  1
  O  O70  1  0.92789971  0.57912975  0.24862634  1
  O  O71  1  0.92246933  0.56355108  0.75146849  1
  O  O72  1  0.16943216  0.43680810  0.24823478  1
  O  O73  1  0.17457107  0.41857407  0.75061724  1
  O  O74  1  0.15229372  0.92025522  0.23703893  1
  O  O75  1  0.17255066  0.93791681  0.75202174  1
  O  O76  1  0.67101470  0.43899154  0.24870483  1
  O  O77  1  0.67568305  0.41672772  0.75144265  1
  O  O78  1  0.67081240  0.93910377  0.24945970  1
  O  O79  1  0.67312058  0.93419831  0.75099337  1
loop_
_geom_bond_atom_site_label_1
_geom_bond_atom_site_label_2
_geom_bond_distance
_geom_bond_site_symmetry_2
Ca0 O65 2.286002 1_555
Ca0 O49 2.398368 1_555
Ca0 O11 2.447758 1_545
Ca0 O27 2.479082 1_545
Ca0 O0 2.562710 1_555
Ca0 O16 2.599538 1_555
Ca0 O33 2.722741 1_555
Ca0 O37 2.852009 1_555
Ca1 O67 2.316409 1_555
Ca1 O51 2.326393 1_555
Ca1 O9 2.454512 1_555
Ca1 O25 2.516951 1_555
Ca1 O2 2.642004 1_555
Ca1 O18 2.667408 1_555
Ca1 O35 2.670849 1_555
Ca1 O39 2.865782 1_555
Ca2 O69 2.284729 1_555
Ca2 O53 2.396730 1_555
Ca2 O15 2.449666 1_545
Ca2 O31 2.517765 1_545
Ca2 O4 2.587311 1_555
Ca2 O20 2.637331 1_555
Ca2 O37 2.676492 1_555
Ca2 O33 2.820266 1_655
Ca3 O70 2.270543 1_555
Ca3 O54 2.278444 1_555
Ca3 O38 2.463947 1_555
Ca3 O12 2.472578 1_555
Ca3 O28 2.492299 1_555
Ca3 O7 2.566017 1_554
Ca3 O23 2.644580 1_554
Ca3 O34 3.001796 1_655
Ca4 O71 2.324965 1_555
Ca4 O55 2.341191 1_555
Ca4 O13 2.451890 1_555
Ca4 O29 2.525531 1_555
Ca4 O6 2.627890 1_555
Ca4 O39 2.636089 1_555
Ca4 O22 2.703586 1_555
Ca4 O35 2.876243 1_655
Ca5 O72 2.307225 1_555
Ca5 O2 2.444132 1_555
Ca5 O56 2.446702 1_555
Ca5 O18 2.478339 1_555
Ca5 O44 2.557082 1_455
Ca5 O25 2.610901 1_555
Ca5 O9 2.642047 1_555
Ca5 O40 2.971708 1_555
Ca6 O73 2.313604 1_555
Ca6 O57 2.352287 1_555
Ca6 O3 2.384050 1_555
Ca6 O19 2.454421 1_555
Ca6 O24 2.552638 1_556
Ca6 O45 2.667516 1_455
Ca6 O8 2.724713 1_556
Ca6 O41 2.808941 1_555
Ca7 O58 2.365703 1_555
Ca7 O74 2.374397 1_555
Ca7 O16 2.480424 1_565
Ca7 O0 2.496697 1_565
Ca7 O46 2.541302 1_455
Ca7 O27 2.676641 1_555
Ca7 O11 2.677332 1_555
Ca7 O42 2.866773 1_555
Ca8 O59 2.296634 1_555
Ca8 O75 2.343480 1_555
Ca8 O1 2.413079 1_565
Ca8 O17 2.462543 1_565
Ca8 O47 2.626905 1_455
Ca8 O26 2.641785 1_556
Ca8 O10 2.800723 1_556
Ca8 O43 2.834589 1_555
Ca9 O76 2.325863 1_555
Ca9 O60 2.401592 1_555
Ca9 O6 2.434642 1_555
Ca9 O22 2.462467 1_555
Ca9 O40 2.541937 1_555
Ca9 O29 2.621526 1_555
Ca9 O13 2.633422 1_555
Ca9 O44 2.989007 1_555
Ca10 O77 2.282282 1_555
Ca10 O61 2.384675 1_555
Ca10 O23 2.462806 1_555
Ca10 O7 2.465892 1_555
Ca10 O12 2.574198 1_556
Ca10 O28 2.643531 1_556
Ca10 O41 2.694959 1_555
Ca10 O45 2.906414 1_555
Ca11 O78 2.319039 1_555
Ca11 O62 2.382577 1_555
Ca11 O4 2.456211 1_565
Ca11 O20 2.490350 1_565
Ca11 O15 2.606153 1_555
Ca11 O31 2.607130 1_555
Ca11 O42 2.619912 1_555
Ca12 O63 2.303611 1_555
Ca12 O79 2.334729 1_555
Ca12 O5 2.395600 1_565
Ca12 O21 2.419119 1_565
Ca12 O14 2.598529 1_556
Ca12 O43 2.668349 1_555
Ca12 O30 2.879766 1_556
Ca12 O47 2.957996 1_555
Ca13 O72 2.283047 1_555
Ca13 O32 2.312660 1_555
Ca13 O28 2.392533 1_455
Ca13 O8 2.471830 1_555
Ca13 O52 2.570708 1_455
Ca13 O21 2.579259 1_454
Ca13 O1 2.718291 1_554
Ca14 O73 2.295249 1_555
Ca14 O33 2.402425 1_555
Ca14 O9 2.466333 1_555
Ca14 O29 2.472641 1_455
Ca14 O20 2.583833 1_455
Ca14 O0 2.612680 1_555
Ca14 O53 2.618932 1_455
Ca14 O49 2.924310 1_555
Ca15 O35 2.333534 1_555
Ca15 O75 2.339520 1_555
Ca15 O11 2.487484 1_555
Ca15 O31 2.512242 1_455
Ca15 O55 2.536832 1_455
Ca15 O22 2.639106 1_455
Ca15 O2 2.717803 1_555
Ca15 O51 2.971435 1_555
Ca16 O76 2.309899 1_555
Ca16 O36 2.346506 1_555
Ca16 O24 2.464554 1_555
Ca16 O12 2.493902 1_555
Ca16 O48 2.505420 1_555
Ca16 O17 2.536712 1_554
Ca16 O5 2.726802 1_554
Ca16 O52 2.971897 1_555
Ca17 O77 2.298453 1_555
Ca17 O37 2.398162 1_555
Ca17 O13 2.453205 1_555
Ca17 O25 2.480901 1_555
Ca17 O16 2.582371 1_555
Ca17 O4 2.618157 1_555
Ca17 O49 2.627490 1_555
Ca17 O53 2.909166 1_555
Ca18 O78 2.313048 1_555
Ca18 O38 2.362615 1_555
Ca18 O26 2.412316 1_555
Ca18 O50 2.436159 1_555
Ca18 O14 2.547603 1_555
Ca18 O19 2.567388 1_554
Ca18 O7 2.666888 1_554
Ca19 O79 2.332527 1_555
Ca19 O39 2.337931 1_555
Ca19 O27 2.469403 1_555
Ca19 O15 2.486549 1_555
Ca19 O51 2.583801 1_555
Ca19 O18 2.619223 1_555
Ca19 O6 2.662507 1_555
Ca19 O55 2.965411 1_555
Ca20 O40 2.331961 1_555
Ca20 O64 2.361887 1_555
Ca20 O16 2.521700 1_555
Ca20 O4 2.525286 1_555
Ca20 O25 2.616099 1_555
Ca20 O13 2.660651 1_555
Ca20 O60 2.699258 1_555
Ca20 O56 2.764565 1_555
Ca21 O65 2.273325 1_555
Ca21 O17 2.346353 1_555
Ca21 O41 2.354706 1_555
Ca21 O5 2.482410 1_555
Ca21 O12 2.533340 1_556
Ca21 O57 2.747416 1_555
Ca21 O24 2.779688 1_556
Ca21 O61 2.895978 1_555
Ca22 O42 2.360227 1_555
Ca22 O66 2.380823 1_555
Ca22 O18 2.478516 1_555
Ca22 O6 2.522763 1_555
Ca22 O15 2.627933 1_555
Ca22 O58 2.641374 1_555
Ca22 O27 2.642956 1_555
Ca22 O62 2.711005 1_555
Ca23 O67 2.287686 1_555
Ca23 O43 2.290502 1_555
Ca23 O19 2.325040 1_555
Ca23 O7 2.468735 1_555
Ca23 O59 2.698594 1_555
Ca23 O26 2.837006 1_556
Ca23 O14 2.843586 1_556
Ca23 O63 2.921541 1_555
Ca24 O44 2.295702 1_555
Ca24 O68 2.375339 1_555
Ca24 O20 2.495061 1_555
Ca24 O0 2.516846 1_655
Ca24 O29 2.622418 1_555
Ca24 O9 2.629760 1_655
Ca24 O56 2.739821 1_655
Ca24 O60 2.839318 1_555
Ca25 O69 2.268890 1_555
Ca25 O45 2.368557 1_555
Ca25 O21 2.447230 1_555
Ca25 O1 2.517110 1_655
Ca25 O61 2.609776 1_555
Ca25 O28 2.640911 1_556
Ca25 O57 2.805667 1_655
Ca25 O8 2.822630 1_656
Ca26 O70 2.295322 1_555
Ca26 O46 2.358985 1_555
Ca26 O22 2.437631 1_555
Ca26 O2 2.469194 1_655
Ca26 O31 2.562891 1_555
Ca26 O11 2.587524 1_655
Ca26 O62 2.839998 1_555
Ca26 O58 2.867560 1_655
Ca27 O47 2.295489 1_555
Ca27 O71 2.330364 1_555
Ca27 O23 2.414885 1_555
Ca27 O3 2.486000 1_655
Ca27 O63 2.634975 1_555
Ca27 O30 2.665682 1_556
Ca27 O59 2.814121 1_655
Ca27 O10 2.823620 1_656
Mg0 O64 2.034377 1_555
Mg0 O48 2.093712 1_555
Mg0 O32 2.138614 1_555
Mg0 O10 2.216419 1_545
Mg0 O1 2.432408 1_554
Mg0 O26 2.605904 1_545
Mg1 O66 2.054098 1_555
Mg1 O50 2.055867 1_555
Mg1 O8 2.211600 1_555
Mg1 O34 2.356932 1_555
Mg1 O3 2.374927 1_554
Mg1 O24 2.560621 1_555
Mg2 O68 2.040333 1_555
Mg2 O52 2.079270 1_555
Mg2 O36 2.123870 1_555
Mg2 O14 2.216453 1_545
Mg2 O5 2.457365 1_554
Mg3 O74 2.059233 1_555
Mg3 O30 2.112274 1_455
Mg3 O34 2.155955 1_555
Mg3 O54 2.175633 1_455
Mg3 O23 2.512741 1_454
Mg3 O10 2.604055 1_555
Mn0 O21 1.932364 1_464
Mn0 O30 1.945213 1_455
Mn0 O1 1.955943 1_564
Mn0 O47 1.965787 1_454
Mn0 O10 2.029914 1_555
Mn0 O32 2.031367 1_565
Mn1 O31 1.957050 1_455
Mn1 O0 1.965471 1_565
Mn1 O46 1.979111 1_455
Mn1 O11 2.000692 1_555
Mn1 O20 2.002322 1_465
Mn1 O33 2.043749 1_565
Mn2 O23 1.921040 1_454
Mn2 O3 1.969939 1_554
Mn2 O8 1.997409 1_555
Mn2 O45 2.019114 1_454
Mn2 O28 2.019827 1_455
Mn2 O34 2.032174 1_555
Mn3 O29 1.970277 1_455
Mn3 O2 1.980712 1_555
Mn3 O44 1.981971 1_455
Mn3 O9 1.986884 1_555
Mn3 O35 1.989638 1_555
Mn3 O22 1.989660 1_455
Mn4 O26 1.916184 1_545
Mn4 O5 1.966541 1_554
Mn4 O43 1.978720 1_544
Mn4 O17 1.986435 1_554
Mn4 O14 1.993550 1_545
Mn4 O36 2.028338 1_555
Mn5 O27 1.956721 1_555
Mn5 O4 1.962623 1_565
Mn5 O42 1.980254 1_555
Mn5 O16 1.983666 1_565
Mn5 O15 1.993211 1_555
Mn5 O37 2.041357 1_565
Mn6 O24 1.931088 1_555
Mn6 O12 1.964106 1_555
Mn6 O19 1.966746 1_554
Mn6 O38 1.990206 1_555
Mn6 O7 2.004368 1_554
Mn6 O41 2.032386 1_554
Mn7 O6 1.960800 1_555
Mn7 O18 1.971528 1_555
Mn7 O25 1.975242 1_555
Mn7 O13 1.985189 1_555
Mn7 O40 1.991197 1_555
Mn7 O39 1.998012 1_555
Mn8 O48 1.964622 1_555
Mn8 O17 1.974422 1_554
Mn8 O1 1.987614 1_554
Mn8 O24 2.026549 1_555
Mn8 O8 2.033393 1_555
Mn8 O57 2.038618 1_554
Mn9 O25 1.946985 1_555
Mn9 O0 1.947176 1_555
Mn9 O9 1.953374 1_555
Mn9 O16 1.964319 1_555
Mn9 O56 2.031581 1_555
Mn9 O49 2.031966 1_555
Mn10 O3 1.952243 1_554
Mn10 O10 1.957570 1_555
Mn10 O19 1.969942 1_554
Mn10 O50 1.981486 1_555
Mn10 O59 1.998261 1_554
Mn10 O26 2.031338 1_555
Mn11 O2 1.940004 1_555
Mn11 O27 1.947147 1_555
Mn11 O11 1.963083 1_555
Mn11 O18 1.976580 1_555
Mn11 O51 1.983913 1_555
Mn11 O58 2.031368 1_555
Mn12 O5 1.930474 1_554
Mn12 O28 1.967453 1_555
Mn12 O52 1.970033 1_555
Mn12 O61 2.036314 1_554
Mn12 O21 2.048868 1_554
Mn12 O12 2.053182 1_555
Mn13 O13 1.951524 1_555
Mn13 O4 1.956801 1_555
Mn13 O29 1.958641 1_555
Mn13 O20 1.963520 1_555
Mn13 O60 2.038361 1_555
Mn13 O53 2.041194 1_555
Mn14 O30 1.958472 1_555
Mn14 O7 1.973373 1_554
Mn14 O63 1.978347 1_554
Mn14 O54 1.987219 1_555
Mn14 O14 2.001969 1_555
Mn14 O23 2.027707 1_554
Mn15 O6 1.936351 1_555
Mn15 O31 1.955198 1_555
Mn15 O15 1.962602 1_555
Mn15 O22 1.973923 1_555
Mn15 O55 2.000086 1_555
Mn15 O62 2.055128 1_555
Mn16 O32 1.875209 1_555
Mn16 O56 1.924381 1_555
Mn16 O74 1.978052 1_545
Mn16 O68 2.013931 1_455
Mn17 O33 1.900979 1_555
Mn17 O57 1.910638 1_555
Mn17 O75 1.954788 1_545
Mn17 O69 2.012621 1_455
Mn18 O58 1.879759 1_555
Mn18 O34 1.916089 1_555
Mn18 O70 1.979958 1_455
Mn18 O72 1.989616 1_555
Mn19 O35 1.997543 1_555
Mn19 O59 2.000367 1_555
Mn19 O73 2.074186 1_555
Mn19 O71 2.086237 1_455
Mn20 O60 1.894550 1_555
Mn20 O36 1.897525 1_555
Mn20 O78 1.940890 1_545
Mn20 O64 2.016192 1_555
Mn21 O37 1.895655 1_555
Mn21 O61 1.897759 1_555
Mn21 O79 1.954940 1_545
Mn21 O65 2.007862 1_555
Mn22 O38 1.886189 1_555
Mn22 O62 1.891341 1_555
Mn22 O76 1.946627 1_555
Mn22 O66 2.009484 1_555
Mn23 O39 1.992864 1_555
Mn23 O63 2.003541 1_555
Mn23 O77 2.071492 1_555
Mn23 O67 2.091943 1_555
Mn24 O40 2.010411 1_555
Mn24 O48 2.011864 1_555
Mn24 O72 2.070037 1_555
Mn24 O66 2.080618 1_555
Mn25 O49 1.892817 1_555
Mn25 O41 1.895398 1_555
Mn25 O67 1.957425 1_555
Mn25 O73 2.000210 1_555
Mn26 O50 1.999772 1_555
Mn26 O42 2.038033 1_555
Mn26 O64 2.094781 1_565
Mn26 O74 2.110248 1_555
Mn27 O51 1.998873 1_555
Mn27 O43 2.003405 1_555
Mn27 O65 2.072385 1_565
Mn27 O75 2.080128 1_555
Mn28 O44 1.977385 1_555
Mn28 O52 2.008183 1_555
Mn28 O70 2.058444 1_555
Mn28 O76 2.085850 1_555
Mn29 O53 1.899458 1_555
Mn29 O45 1.909573 1_555
Mn29 O71 1.954075 1_555
Mn29 O77 2.020287 1_555
Mn30 O54 1.982620 1_555
Mn30 O46 1.998919 1_555
Mn30 O68 2.066181 1_565
Mn30 O78 2.071497 1_555
Mn31 O55 2.008083 1_555
Mn31 O47 2.019827 1_555
Mn31 O69 2.077943 1_565
Mn31 O79 2.086507 1_555
