# generated using pymatgen
data_Mn(PtO2)3
_symmetry_space_group_name_H-M   'P 1'
_cell_length_a   3.19658112
_cell_length_b   6.16109880
_cell_length_c   6.16110249
_cell_angle_alpha   109.13998508
_cell_angle_beta   90.00000000
_cell_angle_gamma   90.00000000
_symmetry_Int_Tables_number   1
_chemical_formula_structural   Mn(PtO2)3
_chemical_formula_sum   'Mn1 Pt3 O6'
_cell_volume   114.63192782
_cell_formula_units_Z   1
loop_
 _symmetry_equiv_pos_site_id
 _symmetry_equiv_pos_as_xyz
  1  'x, y, z'
loop_
 _atom_site_type_symbol
 _atom_site_label
 _atom_site_symmetry_multiplicity
 _atom_site_fract_x
 _atom_site_fract_y
 _atom_site_fract_z
 _atom_site_occupancy
  Mn  Mn0  1  -0.00000000  0.50000000  0.50000000  1
  Pt  Pt0  1  0.00000000  0.00000000  0.00000000  1
  Pt  Pt1  1  0.49999900  0.50000000  0.00000000  1
  Pt  Pt2  1  0.49999900  0.00000100  0.50000000  1
  O  O0  1  0.00000000  0.91629580  0.66088647  1
  O  O1  1  0.00000000  0.08370520  0.33911353  1
  O  O2  1  0.00000000  0.66088647  0.91629380  1
  O  O3  1  0.00000000  0.33911453  0.08370720  1
  O  O4  1  0.49999900  0.34858908  0.65141192  1
  O  O5  1  0.49999900  0.65141192  0.34858908  1
loop_
_geom_bond_atom_site_label_1
_geom_bond_atom_site_label_2
_geom_bond_distance
_geom_bond_site_symmetry_2
Mn0 O5 2.205819 1_555
Mn0 O4 2.205819 1_555
Mn0 O5 2.205824 1_455
Mn0 O4 2.205824 1_455
Mn0 O3 2.427696 1_555
Mn0 O2 2.427702 1_555
Mn0 O1 2.427706 1_555
Mn0 O0 2.427712 1_555
O0 Pt0 1.981066 1_566
O0 Pt2 2.034271 1_565
O0 Pt2 2.034276 1_465
O1 Pt0 1.981066 1_555
O1 Pt2 2.034268 1_555
O1 Pt2 2.034273 1_455
O2 Pt0 1.981064 1_566
O2 Pt1 2.034273 1_556
O2 Pt1 2.034278 1_456
O3 Pt0 1.981070 1_555
O3 Pt1 2.034272 1_555
O3 Pt1 2.034277 1_455
O4 Pt2 2.041809 1_555
O4 Pt1 2.041810 1_556
O5 Pt2 2.041814 1_565
O5 Pt1 2.041816 1_555
