# generated using pymatgen
data_CsMg14Sn
_symmetry_space_group_name_H-M   'P 1'
_cell_length_a   6.62949516
_cell_length_b   6.74643762
_cell_length_c   10.61764614
_cell_angle_alpha   90.00000000
_cell_angle_beta   90.00000000
_cell_angle_gamma   120.58525903
_symmetry_Int_Tables_number   1
_chemical_formula_structural   CsMg14Sn
_chemical_formula_sum   'Cs1 Mg14 Sn1'
_cell_volume   408.81072755
_cell_formula_units_Z   1
loop_
 _symmetry_equiv_pos_site_id
 _symmetry_equiv_pos_as_xyz
  1  'x, y, z'
loop_
 _atom_site_type_symbol
 _atom_site_label
 _atom_site_symmetry_multiplicity
 _atom_site_fract_x
 _atom_site_fract_y
 _atom_site_fract_z
 _atom_site_occupancy
  Cs  Cs0  1  0.16057912  0.83028906  0.12500000  1
  Mg  Mg0  1  0.16290561  0.33145231  0.62500000  1
  Mg  Mg1  1  0.16915548  0.83457724  0.62500000  1
  Mg  Mg2  1  0.65910227  0.33414216  0.12500000  1
  Mg  Mg3  1  0.66978924  0.33060319  0.62500000  1
  Mg  Mg4  1  0.65910227  0.82495911  0.12500000  1
  Mg  Mg5  1  0.66978924  0.83918505  0.62500000  1
  Mg  Mg6  1  0.33735681  0.17962998  0.39086203  1
  Mg  Mg7  1  0.33735681  0.17962998  0.85913797  1
  Mg  Mg8  1  0.33735681  0.65772783  0.39086203  1
  Mg  Mg9  1  0.33735681  0.65772783  0.85913797  1
  Mg  Mg10  1  0.83273364  0.16636732  0.36869828  1
  Mg  Mg11  1  0.83273364  0.16636732  0.88130172  1
  Mg  Mg12  1  0.81762809  0.65881454  0.39429028  1
  Mg  Mg13  1  0.81762809  0.65881454  0.85570972  1
  Sn  Sn0  1  0.19942608  0.34971254  0.12500000  1
loop_
_geom_bond_atom_site_label_1
_geom_bond_atom_site_label_2
_geom_bond_distance
_geom_bond_site_symmetry_2
Cs0 Mg2 3.306387 1_455
Cs0 Mg4 3.306387 1_455
Cs0 Mg2 3.323397 1_565
Cs0 Mg4 3.323397 1_555
Cs0 Sn0 3.380497 1_565
Cs0 Sn0 3.380497 1_555
Cs0 Mg12 3.464984 1_455
Cs0 Mg13 3.464984 1_454
Cs0 Mg9 3.476426 1_554
Cs0 Mg8 3.476426 1_555
Cs0 Mg7 3.476433 1_564
Cs0 Mg6 3.476433 1_565
Mg0 Mg6 3.126067 1_555
Mg0 Mg7 3.126067 1_555
Mg0 Mg8 3.126074 1_555
Mg0 Mg9 3.126074 1_555
Mg0 Mg5 3.266201 1_445
Mg0 Mg3 3.266202 1_455
Mg0 Mg10 3.310035 1_455
Mg0 Mg11 3.310035 1_455
Mg0 Mg5 3.363301 1_555
Mg0 Mg3 3.363301 1_555
Mg0 Mg1 3.373407 1_555
Mg0 Mg1 3.373407 1_545
Mg1 Mg13 3.166296 1_455
Mg1 Mg12 3.166296 1_455
Mg1 Mg8 3.193896 1_555
Mg1 Mg9 3.193896 1_555
Mg1 Mg6 3.193904 1_565
Mg1 Mg7 3.193904 1_565
Mg1 Mg3 3.303240 1_565
Mg1 Mg5 3.303240 1_555
Mg1 Mg3 3.326471 1_455
Mg1 Mg5 3.326471 1_455
Mg2 Sn0 3.102188 1_555
Mg2 Mg7 3.367792 1_554
Mg2 Mg6 3.367792 1_555
Mg3 Mg6 3.128941 1_555
Mg3 Mg7 3.128941 1_555
Mg3 Mg5 3.315322 1_545
Mg3 Mg5 3.431116 1_555
Mg4 Sn0 3.102188 1_555
Mg4 Mg9 3.367792 1_554
Mg4 Mg8 3.367792 1_555
Mg5 Mg8 3.128941 1_555
Mg5 Mg9 3.128941 1_555
Mg6 Mg8 3.225457 1_555
Mg6 Sn0 3.344982 1_555
Mg6 Mg8 3.520980 1_545
Mg7 Mg9 3.225457 1_555
Mg7 Sn0 3.344982 1_556
Mg7 Mg9 3.520980 1_545
Mg8 Sn0 3.344989 1_555
Mg9 Sn0 3.344989 1_556
Mg10 Mg2 3.259940 1_555
Mg10 Mg4 3.259947 1_545
Mg10 Mg8 3.309147 1_655
Mg10 Mg6 3.309147 1_655
Mg10 Mg3 3.319369 1_555
Mg10 Mg5 3.319376 1_545
Mg10 Sn0 3.327890 1_655
Mg10 Mg8 3.338819 1_545
Mg10 Mg6 3.338820 1_555
Mg10 Mg12 3.385243 1_555
Mg10 Mg12 3.385243 1_545
Mg11 Mg2 3.259940 1_556
Mg11 Mg4 3.259947 1_546
Mg11 Mg9 3.309147 1_655
Mg11 Mg7 3.309147 1_655
Mg11 Mg3 3.319369 1_555
Mg11 Mg5 3.319376 1_545
Mg11 Sn0 3.327890 1_656
Mg11 Mg9 3.338819 1_545
Mg11 Mg7 3.338820 1_555
Mg11 Mg13 3.385243 1_555
Mg11 Mg13 3.385243 1_545
Mg12 Mg5 3.107334 1_555
Mg12 Mg3 3.107341 1_555
Mg12 Mg6 3.180440 1_555
Mg12 Mg8 3.180440 1_555
Mg12 Mg4 3.425613 1_555
Mg12 Mg2 3.425620 1_555
Mg12 Mg6 3.449467 1_665
Mg12 Mg8 3.449467 1_655
Mg13 Mg5 3.107334 1_555
Mg13 Mg3 3.107341 1_555
Mg13 Mg7 3.180440 1_555
Mg13 Mg9 3.180440 1_555
Mg13 Mg4 3.425613 1_556
Mg13 Mg2 3.425620 1_556
Mg13 Mg7 3.449467 1_665
Mg13 Mg9 3.449467 1_655
