# generated using pymatgen
data_NaCaAlFe(SiO3)4
_symmetry_space_group_name_H-M   'P 1'
_cell_length_a   5.34818156
_cell_length_b   8.89168500
_cell_length_c   19.23617250
_cell_angle_alpha   90.00000000
_cell_angle_beta   104.23858470
_cell_angle_gamma   90.00000000
_symmetry_Int_Tables_number   1
_chemical_formula_structural   NaCaAlFe(SiO3)4
_chemical_formula_sum   'Na4 Ca4 Al4 Fe4 Si16 O48'
_cell_volume   886.66199942
_cell_formula_units_Z   4
loop_
 _symmetry_equiv_pos_site_id
 _symmetry_equiv_pos_as_xyz
  1  'x, y, z'
loop_
 _atom_site_type_symbol
 _atom_site_label
 _atom_site_symmetry_multiplicity
 _atom_site_fract_x
 _atom_site_fract_y
 _atom_site_fract_z
 _atom_site_occupancy
  Na  Na0  1  0.00000000  0.45487500  0.37500000  1
  Na  Na1  1  0.50133400  0.95567900  0.62317800  1
  Na  Na2  1  0.50000000  0.04622600  0.37500000  1
  Na  Na3  1  0.49866600  0.95567900  0.12682200  1
  Ca  Ca0  1  0.99331700  0.54522100  0.12693800  1
  Ca  Ca1  1  0.50000000  0.04990300  0.87500000  1
  Ca  Ca2  1  0.00000000  0.45534100  0.87500000  1
  Ca  Ca3  1  0.00668300  0.54522100  0.62306200  1
  Al  Al0  1  0.99669700  0.14931500  0.62058500  1
  Al  Al1  1  0.00330300  0.14931500  0.12941500  1
  Al  Al2  1  0.50000000  0.65103100  0.37500000  1
  Al  Al3  1  0.00000000  0.84965600  0.37500000  1
  Fe  Fe0  1  0.50000000  0.65778000  0.87500000  1
  Fe  Fe1  1  0.49803400  0.33983800  0.62019800  1
  Fe  Fe2  1  0.50196600  0.33983800  0.12980200  1
  Fe  Fe3  1  0.00000000  0.84219700  0.87500000  1
  Si  Si0  1  0.19790900  0.15500100  0.98544300  1
  Si  Si1  1  0.19613400  0.84933800  0.72653100  1
  Si  Si2  1  0.29295700  0.33691900  0.76516800  1
  Si  Si3  1  0.18519700  0.15463600  0.47747500  1
  Si  Si4  1  0.30415900  0.66520200  0.51560300  1
  Si  Si5  1  0.19573500  0.84641300  0.23254800  1
  Si  Si6  1  0.30526800  0.33894400  0.27321900  1
  Si  Si7  1  0.70704300  0.33691900  0.98483200  1
  Si  Si8  1  0.30498900  0.66175800  0.02236600  1
  Si  Si9  1  0.69501100  0.66175800  0.72763400  1
  Si  Si10  1  0.80209100  0.15500100  0.76455700  1
  Si  Si11  1  0.69473200  0.33894400  0.47678100  1
  Si  Si12  1  0.80426500  0.84641300  0.51745200  1
  Si  Si13  1  0.69584100  0.66520200  0.23439700  1
  Si  Si14  1  0.81480300  0.15463600  0.27252500  1
  Si  Si15  1  0.80386600  0.84933800  0.02346900  1
  O  O0  1  0.09058900  0.23437900  0.80199100  1
  O  O1  1  0.22016600  0.99701200  0.94842100  1
  O  O2  1  0.22585000  0.65939100  0.93525300  1
  O  O3  1  0.08664100  0.76080400  0.54829400  1
  O  O4  1  0.27865100  0.84846800  0.81374500  1
  O  O5  1  0.18484000  0.01005800  0.68695000  1
  O  O6  1  0.19685100  0.32092600  0.67820100  1
  O  O7  1  0.28407300  0.49963100  0.80011000  1
  O  O8  1  0.41391100  0.26140100  0.95520100  1
  O  O9  1  0.09001000  0.24508300  0.30608500  1
  O  O10  1  0.24846800  0.16187900  0.56556600  1
  O  O11  1  0.17581100  0.98951900  0.44138400  1
  O  O12  1  0.23246900  0.68227500  0.42730400  1
  O  O13  1  0.28939900  0.50148900  0.54890300  1
  O  O14  1  0.40986600  0.74433000  0.69641000  1
  O  O15  1  0.08328200  0.75800900  0.05332000  1
  O  O16  1  0.26859400  0.82456600  0.32065700  1
  O  O17  1  0.19367400  0.00934100  0.19592300  1
  O  O18  1  0.20266600  0.32739900  0.18536300  1
  O  O19  1  0.32740200  0.50610500  0.30847200  1
  O  O20  1  0.41728500  0.24796000  0.45169700  1
  O  O21  1  0.58608900  0.26140100  0.79479900  1
  O  O22  1  0.71592700  0.49963100  0.94989000  1
  O  O23  1  0.25272800  0.16470200  0.07251500  1
  O  O24  1  0.72134900  0.84846800  0.93625500  1
  O  O25  1  0.30311000  0.49919400  0.05976200  1
  O  O26  1  0.40933600  0.74430900  0.20183900  1
  O  O27  1  0.59066400  0.74430900  0.54816100  1
  O  O28  1  0.69689000  0.49919400  0.69023800  1
  O  O29  1  0.77415000  0.65939100  0.81474700  1
  O  O30  1  0.77983400  0.99701200  0.80157900  1
  O  O31  1  0.74727200  0.16470200  0.67748500  1
  O  O32  1  0.90941100  0.23437900  0.94800900  1
  O  O33  1  0.58271500  0.24796000  0.29830300  1
  O  O34  1  0.67259800  0.50610500  0.44152800  1
  O  O35  1  0.79733400  0.32739900  0.56463700  1
  O  O36  1  0.80632600  0.00934100  0.55407700  1
  O  O37  1  0.73140600  0.82456600  0.42934300  1
  O  O38  1  0.91671800  0.75800900  0.69668000  1
  O  O39  1  0.59013400  0.74433000  0.05359000  1
  O  O40  1  0.71060100  0.50148900  0.20109700  1
  O  O41  1  0.76753100  0.68227500  0.32269600  1
  O  O42  1  0.82418900  0.98951900  0.30861600  1
  O  O43  1  0.75153200  0.16187900  0.18443400  1
  O  O44  1  0.90999000  0.24508300  0.44391500  1
  O  O45  1  0.80314900  0.32092600  0.07179900  1
  O  O46  1  0.81516000  0.01005800  0.06305000  1
  O  O47  1  0.91335900  0.76080400  0.20170600  1
loop_
_geom_bond_atom_site_label_1
_geom_bond_atom_site_label_2
_geom_bond_distance
_geom_bond_site_symmetry_2
Na0 O9 2.404739 1_555
Na0 O44 2.404739 1_455
Na0 O19 2.452260 1_555
Na0 O34 2.452260 1_455
Na0 O12 2.455824 1_555
Na0 O41 2.455824 1_455
Na1 O31 2.366373 1_565
Na1 O5 2.371756 1_565
Na1 O10 2.383575 1_565
Na1 O36 2.392024 1_565
Na1 O14 2.468667 1_555
Na1 O27 2.486368 1_555
Na1 O3 2.902545 1_555
Na1 O38 2.911781 1_555
Na2 O37 2.423339 1_545
Na2 O16 2.423339 1_545
Na2 O33 2.431252 1_555
Na2 O20 2.431252 1_555
Na2 O42 2.445439 1_545
Na2 O11 2.445439 1_545
Na2 O44 2.874343 1_555
Na2 O9 2.874343 1_555
Na3 O23 2.366373 1_565
Na3 O46 2.371756 1_565
Na3 O43 2.383575 1_565
Na3 O17 2.392024 1_565
Na3 O39 2.468667 1_555
Na3 O26 2.486368 1_555
Na3 O47 2.902545 1_555
Na3 O15 2.911781 1_555
Ca0 O40 2.352328 1_555
Ca0 O45 2.367745 1_555
Ca0 O25 2.373935 1_655
Ca0 O18 2.376740 1_655
Ca0 O15 2.480309 1_655
Ca0 O47 2.495691 1_555
Ca0 O39 2.877169 1_555
Ca0 O26 2.929686 1_655
Ca1 O24 2.304709 1_545
Ca1 O4 2.304709 1_545
Ca1 O1 2.344242 1_545
Ca1 O30 2.344242 1_545
Ca1 O21 2.545206 1_555
Ca1 O8 2.545206 1_555
Ca1 O0 2.818622 1_555
Ca1 O32 2.818622 1_555
Ca2 O2 2.324981 1_555
Ca2 O29 2.324981 1_455
Ca2 O22 2.369652 1_455
Ca2 O7 2.369652 1_555
Ca2 O0 2.530209 1_555
Ca2 O32 2.530209 1_455
Ca2 O8 2.928174 1_555
Ca2 O21 2.928174 1_455
Ca3 O13 2.352328 1_555
Ca3 O6 2.367745 1_555
Ca3 O28 2.373935 1_455
Ca3 O35 2.376740 1_455
Ca3 O38 2.480309 1_455
Ca3 O3 2.495691 1_555
Ca3 O14 2.877169 1_555
Ca3 O27 2.929686 1_455
Al0 O5 1.882426 1_655
Al0 O36 1.892525 1_555
Al0 O10 1.909643 1_655
Al0 O31 1.927292 1_555
Al0 O6 2.029539 1_655
Al0 O35 2.058639 1_555
Al1 O46 1.882426 1_455
Al1 O17 1.892525 1_555
Al1 O43 1.909643 1_455
Al1 O23 1.927292 1_555
Al1 O45 2.029539 1_455
Al1 O18 2.058639 1_555
Al2 O19 1.889260 1_555
Al2 O34 1.889260 1_555
Al2 O41 1.960824 1_555
Al2 O12 1.960824 1_555
Al2 O37 2.090194 1_555
Al2 O16 2.090194 1_555
Al3 O11 1.862983 1_555
Al3 O42 1.862983 1_455
Al3 O37 1.986131 1_455
Al3 O16 1.986131 1_555
Al3 O41 2.039055 1_455
Al3 O12 2.039055 1_555
Fe0 O2 2.080694 1_555
Fe0 O29 2.080694 1_555
Fe0 O22 2.137283 1_555
Fe0 O7 2.137283 1_555
Fe0 O24 2.231256 1_555
Fe0 O4 2.231256 1_555
Fe1 O28 2.061349 1_555
Fe1 O13 2.106918 1_555
Fe1 O35 2.135037 1_555
Fe1 O31 2.166478 1_555
Fe1 O10 2.167890 1_555
Fe1 O6 2.179886 1_555
Fe2 O25 2.061349 1_555
Fe2 O40 2.106918 1_555
Fe2 O18 2.135037 1_555
Fe2 O23 2.166478 1_555
Fe2 O43 2.167890 1_555
Fe2 O45 2.179886 1_555
Fe3 O1 2.111408 1_555
Fe3 O30 2.111408 1_455
Fe3 O4 2.115719 1_555
Fe3 O24 2.115719 1_455
Fe3 O2 2.180774 1_555
Fe3 O29 2.180774 1_455
O0 Si10 1.688431 1_455
O0 Si2 1.697506 1_555
O1 Si0 1.592631 1_565
O2 Si8 1.624417 1_556
O3 Si12 1.664744 1_455
O3 Si4 1.682633 1_555
O4 Si1 1.626397 1_555
O5 Si1 1.613376 1_545
O6 Si2 1.630969 1_555
O7 Si2 1.600918 1_555
O8 Si7 1.671514 1_555
O8 Si0 1.702527 1_555
O9 Si14 1.662073 1_455
O9 Si6 1.667217 1_555
O10 Si3 1.645608 1_555
O11 Si3 1.619531 1_565
O12 Si4 1.653697 1_555
O13 Si4 1.600139 1_555
O14 Si9 1.665796 1_555
O14 Si1 1.685213 1_555
O15 Si15 1.673381 1_455
O15 Si8 1.685307 1_555
O16 Si5 1.654482 1_555
O17 Si5 1.609783 1_545
O18 Si6 1.646694 1_555
O19 Si6 1.625916 1_555
O20 Si11 1.654350 1_555
O20 Si3 1.666716 1_555
O21 Si2 1.671514 1_555
O21 Si10 1.702527 1_555
O22 Si7 1.600918 1_555
O23 Si0 1.630102 1_554
O24 Si15 1.626397 1_556
O25 Si8 1.615706 1_555
O26 Si13 1.662172 1_555
O26 Si5 1.676360 1_555
O27 Si4 1.662172 1_555
O27 Si12 1.676360 1_555
O28 Si9 1.615706 1_555
O29 Si9 1.624417 1_555
O30 Si10 1.592631 1_565
O31 Si10 1.630102 1_555
O32 Si0 1.688431 1_655
O32 Si7 1.697506 1_555
O33 Si6 1.654350 1_555
O33 Si14 1.666716 1_555
O34 Si11 1.625916 1_555
O35 Si11 1.646694 1_555
O36 Si12 1.609783 1_545
O37 Si12 1.654482 1_555
O38 Si1 1.673381 1_655
O38 Si9 1.685307 1_555
O39 Si8 1.665796 1_555
O39 Si15 1.685213 1_555
O40 Si13 1.600139 1_555
O41 Si13 1.653697 1_555
O42 Si14 1.619531 1_565
O43 Si14 1.645608 1_555
O44 Si3 1.662073 1_655
O44 Si11 1.667217 1_555
O45 Si7 1.630969 1_554
O46 Si15 1.613376 1_545
O47 Si5 1.664744 1_655
O47 Si13 1.682633 1_555
